1j7t
 OpenBabel11021811393D
libRbt.so/2013.1/901 2013/11/27
 42 45  0  0  0  0  0  0  0  0999 V2000
   30.4007    8.9294   52.7361 C   0  0  2  0  0  0  0  0  0  0  0  0
   31.3226    7.9092   52.2760 O   0  0  0  0  0  0  0  0  0  0  0  0
   29.0291    8.6350   52.0639 C   0  0  2  0  0  0  0  0  0  0  0  0
   28.5282    7.2447   52.2633 N   0  3  0  0  0  0  0  0  0  0  0  0
   29.1789    8.8738   50.5455 C   0  0  1  0  0  0  0  0  0  0  0  0
   27.9661    8.6389   49.8872 O   0  0  0  0  0  0  0  0  0  0  0  0
   29.6721   10.3162   50.2814 C   0  0  2  0  0  0  0  0  0  0  0  0
   29.7956   10.5628   48.8946 O   0  0  0  0  0  0  0  0  0  0  0  0
   31.0160   10.5294   50.9451 C   0  0  2  0  0  0  0  0  0  0  0  0
   30.9055   10.2412   52.3332 O   0  0  0  0  0  0  0  0  0  0  0  0
   31.5134   11.9531   50.8325 C   0  0  0  0  0  0  0  0  0  0  0  0
   32.9278   11.9618   50.8594 O   0  0  0  0  0  0  0  0  0  0  0  0
   34.1880    5.4889   54.2201 C   0  0  2  0  0  0  0  0  0  0  0  0
   35.3525    5.0794   55.0061 N   0  3  0  0  0  0  0  0  0  0  0  0
   34.6506    6.2911   52.9588 C   0  0  0  0  0  0  0  0  0  0  0  0
   33.4254    6.7661   52.1544 C   0  0  2  0  0  0  0  0  0  0  0  0
   33.8392    7.5660   50.9969 N   0  3  0  0  0  0  0  0  0  0  0  0
   32.4898    7.6038   53.0480 C   0  0  2  0  0  0  0  0  0  0  0  0
   32.0400    6.8475   54.3133 C   0  0  2  0  0  0  0  0  0  0  0  0
   31.3123    7.8019   55.1102 O   0  0  0  0  0  0  0  0  0  0  0  0
   33.2719    6.3278   55.0969 C   0  0  1  0  0  0  0  0  0  0  0  0
   32.8358    5.5600   56.1846 O   0  0  0  0  0  0  0  0  0  0  0  0
   30.4934    7.4387   56.2187 C   0  0  1  0  0  0  0  0  0  0  0  0
   30.1168    8.7419   57.0099 C   0  0  2  0  0  0  0  0  0  0  0  0
   31.0614    9.1058   58.0021 O   0  0  0  0  0  0  0  0  0  0  0  0
   28.7675    8.2896   57.5502 C   0  0  2  0  0  0  0  0  0  0  0  0
   28.9264    7.2371   58.5486 O   0  0  0  0  0  0  0  0  0  0  0  0
   28.1090    7.6679   56.3267 C   0  0  2  0  0  0  0  0  0  0  0  0
   29.2086    6.9254   55.7725 O   0  0  0  0  0  0  0  0  0  0  0  0
   27.5013    8.6928   55.3137 C   0  0  0  0  0  0  0  0  0  0  0  0
   26.8163    8.0340   54.2410 O   0  0  0  0  0  0  0  0  0  0  0  0
   27.7133    6.8667   59.1987 C   0  0  2  0  0  0  0  0  0  0  0  0
   27.9007    6.2012   60.6045 C   0  0  2  0  0  0  0  0  0  0  0  0
   28.7468    4.9703   60.5560 N   0  3  0  0  0  0  0  0  0  0  0  0
   26.4702    5.8931   61.1598 C   0  0  1  0  0  0  0  0  0  0  0  0
   25.7785    7.1893   61.3296 O   0  0  0  0  0  0  0  0  0  0  0  0
   25.6222    4.9907   60.1810 C   0  0  2  0  0  0  0  0  0  0  0  0
   26.2676    3.7123   60.0637 O   0  0  0  0  0  0  0  0  0  0  0  0
   25.5283    5.7320   58.7832 C   0  0  1  0  0  0  0  0  0  0  0  0
   26.8986    5.9735   58.3173 O   0  0  0  0  0  0  0  0  0  0  0  0
   24.7371    4.9629   57.7009 C   0  0  0  0  0  0  0  0  0  0  0  0
   25.3938    3.6971   57.2752 N   0  3  0  0  0  0  0  0  0  0  0  0
  1  2  1  6  0  0  0
  1  3  1  0  0  0  0
  1 10  1  0  0  0  0
  3  4  1  6  0  0  0
  3  5  1  0  0  0  0
  5  6  1  6  0  0  0
  5  7  1  0  0  0  0
  7  8  1  6  0  0  0
  7  9  1  0  0  0  0
  9 10  1  0  0  0  0
  9 11  1  1  0  0  0
 11 12  1  0  0  0  0
 13 14  1  1  0  0  0
 13 15  1  0  0  0  0
 13 21  1  0  0  0  0
 15 16  1  0  0  0  0
 16 17  1  6  0  0  0
 16 18  1  0  0  0  0
 18  2  1  6  0  0  0
 18 19  1  0  0  0  0
 19 20  1  1  0  0  0
 19 21  1  0  0  0  0
 21 22  1  1  0  0  0
 23 20  1  6  0  0  0
 23 24  1  0  0  0  0
 23 29  1  0  0  0  0
 24 25  1  1  0  0  0
 24 26  1  0  0  0  0
 26 27  1  1  0  0  0
 26 28  1  0  0  0  0
 28 29  1  0  0  0  0
 28 30  1  6  0  0  0
 30 31  1  0  0  0  0
 32 27  1  6  0  0  0
 32 33  1  0  0  0  0
 32 40  1  0  0  0  0
 33 34  1  6  0  0  0
 33 35  1  0  0  0  0
 35 36  1  6  0  0  0
 35 37  1  0  0  0  0
 37 38  1  6  0  0  0
 37 39  1  0  0  0  0
 39 40  1  0  0  0  0
 39 41  1  6  0  0  0
 41 42  1  0  0  0  0
M  CHG  5   4   1  14   1  17   1  34   1  42   1
M  END
>  <CHROM.1>
-157.43604837,-166.14865214,-149.86107737,-178.65050152,-51.81633349,-152.03133399
55.61864192,-52.00315617,50.16096384,166.30405433,168.20951614,65.94418528
-66.95932466,173.67520871,-156.88092350,-175.78413260,178.58476745,140.76740457
-174.88238566,-90.93968545,-66.20282906,65.97586301,29.70776229,7.44214096
55.15628574,1.05441546,0.19065248,-1.07005287

>  <Name>
1j7t

>  <RI>
0

>  <Rbt.Current_Directory>
/home/itssahil/PROJECTS/Mol_Feturizer/New_Systems/rnas/1j7t

>  <Rbt.Executable>
rbdock ($Id: //depot/dev/client3/rdock/2013.1/src/exe/rbdock.cxx#4 $)

>  <Rbt.Library>
libRbt.so (2013.1, Build901 2013/11/27)

>  <Rbt.Parameter_File>
/export/apps/rDock/src/rDock_2013.1_src/data/scripts/dock_solv.prm

>  <Rbt.Receptor>
prm/pocket_docking_2.prm

>  <SCORE>
-63.8414

>  <SCORE.INTER>
-51.5524

>  <SCORE.INTER.CONST>
1

>  <SCORE.INTER.POLAR>
-7.93096

>  <SCORE.INTER.ROT>
9

>  <SCORE.INTER.SOLV>
21.6053

>  <SCORE.INTER.VDW>
-24.7335

>  <SCORE.INTER.norm>
-1.22744

>  <SCORE.INTRA>
-12.289

>  <SCORE.INTRA.DIHEDRAL>
-26.0799

>  <SCORE.INTRA.DIHEDRAL.0>
46.2143

>  <SCORE.INTRA.POLAR>
0.335216

>  <SCORE.INTRA.POLAR.0>
-1.76436

>  <SCORE.INTRA.REPUL>
0

>  <SCORE.INTRA.REPUL.0>
0

>  <SCORE.INTRA.SOLV>
0.804228

>  <SCORE.INTRA.SOLV.lig_0>
-148.643

>  <SCORE.INTRA.VDW>
-0.790899

>  <SCORE.INTRA.VDW.0>
-4.83512

>  <SCORE.INTRA.norm>
-0.292595

>  <SCORE.RESTR>
0

>  <SCORE.RESTR.CAVITY>
0

>  <SCORE.RESTR.norm>
0

>  <SCORE.SYSTEM>
0

>  <SCORE.SYSTEM.CONST>
0

>  <SCORE.SYSTEM.DIHEDRAL>
0

>  <SCORE.SYSTEM.SOLV>
0

>  <SCORE.SYSTEM.norm>
0

>  <SCORE.heavy>
42

>  <SCORE.norm>
-1.52003

>  <RMSD>
0.498

$$$$
1j7t
 OpenBabel11021811393D
libRbt.so/2013.1/901 2013/11/27
 42 45  0  0  0  0  0  0  0  0999 V2000
   30.4596    9.0576   52.7216 C   0  0  2  0  0  0  0  0  0  0  0  0
   31.3324    8.0406   52.1679 O   0  0  0  0  0  0  0  0  0  0  0  0
   29.0351    8.7852   52.1591 C   0  0  2  0  0  0  0  0  0  0  0  0
   28.5412    7.3945   52.3728 N   0  3  0  0  0  0  0  0  0  0  0  0
   29.0615    9.0524   50.6383 C   0  0  1  0  0  0  0  0  0  0  0  0
   27.7968    8.8381   50.0777 O   0  0  0  0  0  0  0  0  0  0  0  0
   29.5429   10.4965   50.3617 C   0  0  2  0  0  0  0  0  0  0  0  0
   29.5539   10.7692   48.9744 O   0  0  0  0  0  0  0  0  0  0  0  0
   30.9384   10.6881   50.9164 C   0  0  2  0  0  0  0  0  0  0  0  0
   30.9401   10.3738   52.3032 O   0  0  0  0  0  0  0  0  0  0  0  0
   31.4362   12.1105   50.7901 C   0  0  0  0  0  0  0  0  0  0  0  0
   31.5939   12.4350   49.4222 O   0  0  0  0  0  0  0  0  0  0  0  0
   34.1812    5.3912   53.8151 C   0  0  2  0  0  0  0  0  0  0  0  0
   35.3492    4.8860   54.5375 N   0  3  0  0  0  0  0  0  0  0  0  0
   34.6399    6.3074   52.6326 C   0  0  0  0  0  0  0  0  0  0  0  0
   33.4122    6.8807   51.8994 C   0  0  2  0  0  0  0  0  0  0  0  0
   33.8237    7.7851   50.8206 N   0  3  0  0  0  0  0  0  0  0  0  0
   32.5048    7.6405   52.8868 C   0  0  2  0  0  0  0  0  0  0  0  0
   32.0596    6.7692   54.0776 C   0  0  2  0  0  0  0  0  0  0  0  0
   31.3609    7.6513   54.9772 O   0  0  0  0  0  0  0  0  0  0  0  0
   33.2931    6.1536   54.7856 C   0  0  1  0  0  0  0  0  0  0  0  0
   32.8588    5.2884   55.7985 O   0  0  0  0  0  0  0  0  0  0  0  0
   30.4671    7.1951   55.9892 C   0  0  1  0  0  0  0  0  0  0  0  0
   30.1586    8.3908   56.9594 C   0  0  2  0  0  0  0  0  0  0  0  0
   31.0832    8.5197   58.0259 O   0  0  0  0  0  0  0  0  0  0  0  0
   28.7550    7.9776   57.3794 C   0  0  2  0  0  0  0  0  0  0  0  0
   28.7858    6.7767   58.2080 O   0  0  0  0  0  0  0  0  0  0  0  0
   28.1055    7.6057   56.0538 C   0  0  2  0  0  0  0  0  0  0  0  0
   29.1673    6.8654   55.4277 O   0  0  0  0  0  0  0  0  0  0  0  0
   27.6262    8.8195   55.1919 C   0  0  0  0  0  0  0  0  0  0  0  0
   26.3317    8.5863   54.6229 O   0  0  0  0  0  0  0  0  0  0  0  0
   27.5980    6.5653   58.9668 C   0  0  2  0  0  0  0  0  0  0  0  0
   27.8390    6.1690   60.4632 C   0  0  2  0  0  0  0  0  0  0  0  0
   28.6606    4.9294   60.6105 N   0  3  0  0  0  0  0  0  0  0  0  0
   26.4307    6.0066   61.1265 C   0  0  1  0  0  0  0  0  0  0  0  0
   25.7700    7.3290   61.0795 O   0  0  0  0  0  0  0  0  0  0  0  0
   25.5227    4.9596   60.3711 C   0  0  2  0  0  0  0  0  0  0  0  0
   26.1398    3.6655   60.4682 O   0  0  0  0  0  0  0  0  0  0  0  0
   25.3768    5.4293   58.8644 C   0  0  1  0  0  0  0  0  0  0  0  0
   26.7280    5.5446   58.3038 O   0  0  0  0  0  0  0  0  0  0  0  0
   24.5232    4.4924   57.9799 C   0  0  0  0  0  0  0  0  0  0  0  0
   24.8295    4.6075   56.5282 N   0  3  0  0  0  0  0  0  0  0  0  0
  1  2  1  6  0  0  0
  1  3  1  0  0  0  0
  1 10  1  0  0  0  0
  3  4  1  6  0  0  0
  3  5  1  0  0  0  0
  5  6  1  1  0  0  0
  5  7  1  0  0  0  0
  7  8  1  6  0  0  0
  7  9  1  0  0  0  0
  9 10  1  0  0  0  0
  9 11  1  1  0  0  0
 11 12  1  0  0  0  0
 13 14  1  1  0  0  0
 13 15  1  0  0  0  0
 13 21  1  0  0  0  0
 15 16  1  0  0  0  0
 16 17  1  6  0  0  0
 16 18  1  0  0  0  0
 18  2  1  6  0  0  0
 18 19  1  0  0  0  0
 19 20  1  1  0  0  0
 19 21  1  0  0  0  0
 21 22  1  1  0  0  0
 23 20  1  6  0  0  0
 23 24  1  0  0  0  0
 23 29  1  0  0  0  0
 24 25  1  1  0  0  0
 24 26  1  0  0  0  0
 26 27  1  1  0  0  0
 26 28  1  0  0  0  0
 28 29  1  0  0  0  0
 28 30  1  6  0  0  0
 30 31  1  0  0  0  0
 32 27  1  6  0  0  0
 32 33  1  0  0  0  0
 32 40  1  0  0  0  0
 33 34  1  6  0  0  0
 33 35  1  0  0  0  0
 35 36  1  6  0  0  0
 35 37  1  0  0  0  0
 37 38  1  6  0  0  0
 37 39  1  0  0  0  0
 39 40  1  0  0  0  0
 39 41  1  6  0  0  0
 41 42  1  0  0  0  0
M  CHG  5   4   1  14   1  17   1  34   1  42   1
M  END
>  <CHROM.1>
-152.69447527,-164.08626051,-64.55844100,-85.99760013,-64.01111780,-65.98087065
-63.31012567,-171.03294614,52.88748364,161.07420997,167.39501123,65.46398838
-60.13190592,161.68651943,-134.69823153,-136.89438848,177.58498785,164.30024087
-64.19232539,74.66093079,-156.62825717,-58.88579878,29.60218538,7.44473268
55.02731377,1.05661437,0.25876735,-1.01886182

>  <Name>
1j7t

>  <RI>
0

>  <Rbt.Current_Directory>
/home/itssahil/PROJECTS/Mol_Feturizer/New_Systems/rnas/1j7t

>  <Rbt.Executable>
rbdock ($Id: //depot/dev/client3/rdock/2013.1/src/exe/rbdock.cxx#4 $)

>  <Rbt.Library>
libRbt.so (2013.1, Build901 2013/11/27)

>  <Rbt.Parameter_File>
/export/apps/rDock/src/rDock_2013.1_src/data/scripts/dock_solv.prm

>  <Rbt.Receptor>
prm/pocket_docking_2.prm

>  <SCORE>
-68.3772

>  <SCORE.INTER>
-54.7129

>  <SCORE.INTER.CONST>
1

>  <SCORE.INTER.POLAR>
-8.30832

>  <SCORE.INTER.ROT>
9

>  <SCORE.INTER.SOLV>
21.2983

>  <SCORE.INTER.VDW>
-25.4803

>  <SCORE.INTER.norm>
-1.30269

>  <SCORE.INTRA>
-13.6658

>  <SCORE.INTRA.DIHEDRAL>
-20.0783

>  <SCORE.INTRA.DIHEDRAL.0>
46.2143

>  <SCORE.INTRA.POLAR>
-0.0640118

>  <SCORE.INTRA.POLAR.0>
-1.76436

>  <SCORE.INTRA.REPUL>
0

>  <SCORE.INTRA.REPUL.0>
0

>  <SCORE.INTRA.SOLV>
-1.62293

>  <SCORE.INTRA.SOLV.lig_0>
-148.643

>  <SCORE.INTRA.VDW>
-2.59756

>  <SCORE.INTRA.VDW.0>
-4.83512

>  <SCORE.INTRA.norm>
-0.325376

>  <SCORE.RESTR>
0.001453

>  <SCORE.RESTR.CAVITY>
0.001453

>  <SCORE.RESTR.norm>
3.45952e-05

>  <SCORE.SYSTEM>
0

>  <SCORE.SYSTEM.CONST>
0

>  <SCORE.SYSTEM.DIHEDRAL>
0

>  <SCORE.SYSTEM.SOLV>
0

>  <SCORE.SYSTEM.norm>
0

>  <SCORE.heavy>
42

>  <SCORE.norm>
-1.62803

>  <RMSD>
0.574

$$$$
1j7t
 OpenBabel11021811393D
libRbt.so/2013.1/901 2013/11/27
 42 45  0  0  0  0  0  0  0  0999 V2000
   30.4707    8.7765   52.9044 C   0  0  2  0  0  0  0  0  0  0  0  0
   31.3794    7.7548   52.4218 O   0  0  0  0  0  0  0  0  0  0  0  0
   29.0615    8.4282   52.3450 C   0  0  2  0  0  0  0  0  0  0  0  0
   28.6061    7.0386   52.6371 N   0  3  0  0  0  0  0  0  0  0  0  0
   29.0981    8.6046   50.8112 C   0  0  1  0  0  0  0  0  0  0  0  0
   27.8470    8.3193   50.2519 O   0  0  0  0  0  0  0  0  0  0  0  0
   29.5401   10.0433   50.4531 C   0  0  2  0  0  0  0  0  0  0  0  0
   29.5596   10.2327   49.0520 O   0  0  0  0  0  0  0  0  0  0  0  0
   30.9228   10.3096   51.0093 C   0  0  2  0  0  0  0  0  0  0  0  0
   30.9172   10.0790   52.4124 O   0  0  0  0  0  0  0  0  0  0  0  0
   31.3801   11.7362   50.8026 C   0  0  0  0  0  0  0  0  0  0  0  0
   32.7883   11.8015   50.9203 O   0  0  0  0  0  0  0  0  0  0  0  0
   34.3189    5.3442   54.2648 C   0  0  2  0  0  0  0  0  0  0  0  0
   35.5073    4.9386   55.0163 N   0  3  0  0  0  0  0  0  0  0  0  0
   34.7407    6.1657   53.0015 C   0  0  0  0  0  0  0  0  0  0  0  0
   33.4906    6.6364   52.2339 C   0  0  2  0  0  0  0  0  0  0  0  0
   33.8663    7.4538   51.0757 N   0  3  0  0  0  0  0  0  0  0  0  0
   32.5690    7.4536   53.1605 C   0  0  2  0  0  0  0  0  0  0  0  0
   32.1595    6.6781   54.4278 C   0  0  2  0  0  0  0  0  0  0  0  0
   31.4421    7.6153   55.2539 O   0  0  0  0  0  0  0  0  0  0  0  0
   33.4164    6.1631   55.1740 C   0  0  1  0  0  0  0  0  0  0  0  0
   33.0162    5.3782   56.2635 O   0  0  0  0  0  0  0  0  0  0  0  0
   30.5335    7.2240   56.2798 C   0  0  1  0  0  0  0  0  0  0  0  0
   30.2237    8.4752   57.1768 C   0  0  2  0  0  0  0  0  0  0  0  0
   31.1373    8.6579   58.2449 O   0  0  0  0  0  0  0  0  0  0  0  0
   28.8123    8.0967   57.6033 C   0  0  2  0  0  0  0  0  0  0  0  0
   28.8244    6.9447   58.4992 O   0  0  0  0  0  0  0  0  0  0  0  0
   28.1746    7.6547   56.2936 C   0  0  2  0  0  0  0  0  0  0  0  0
   29.2375    6.8722   55.7229 O   0  0  0  0  0  0  0  0  0  0  0  0
   27.7145    8.8208   55.3586 C   0  0  0  0  0  0  0  0  0  0  0  0
   26.6719    8.4049   54.4676 O   0  0  0  0  0  0  0  0  0  0  0  0
   27.6311    6.7921   59.2635 C   0  0  2  0  0  0  0  0  0  0  0  0
   27.8583    6.3690   60.7547 C   0  0  2  0  0  0  0  0  0  0  0  0
   28.6109    5.0845   60.8854 N   0  3  0  0  0  0  0  0  0  0  0  0
   26.4470    6.2783   61.4253 C   0  0  1  0  0  0  0  0  0  0  0  0
   25.8603    7.6357   61.3945 O   0  0  0  0  0  0  0  0  0  0  0  0
   25.4783    5.2903   60.6660 C   0  0  2  0  0  0  0  0  0  0  0  0
   26.0234    3.9633   60.7474 O   0  0  0  0  0  0  0  0  0  0  0  0
   25.3499    5.7816   59.1646 C   0  0  1  0  0  0  0  0  0  0  0  0
   26.7022    5.8273   58.5966 O   0  0  0  0  0  0  0  0  0  0  0  0
   24.4407    4.9017   58.2769 C   0  0  0  0  0  0  0  0  0  0  0  0
   24.3487    5.3769   56.8697 N   0  3  0  0  0  0  0  0  0  0  0  0
  1  2  1  6  0  0  0
  1  3  1  0  0  0  0
  1 10  1  0  0  0  0
  3  4  1  6  0  0  0
  3  5  1  0  0  0  0
  5  6  1  1  0  0  0
  5  7  1  0  0  0  0
  7  8  1  6  0  0  0
  7  9  1  0  0  0  0
  9 10  1  0  0  0  0
  9 11  1  1  0  0  0
 11 12  1  0  0  0  0
 13 14  1  1  0  0  0
 13 15  1  0  0  0  0
 13 21  1  0  0  0  0
 15 16  1  0  0  0  0
 16 17  1  6  0  0  0
 16 18  1  0  0  0  0
 18  2  1  6  0  0  0
 18 19  1  0  0  0  0
 19 20  1  1  0  0  0
 19 21  1  0  0  0  0
 21 22  1  1  0  0  0
 23 20  1  6  0  0  0
 23 24  1  0  0  0  0
 23 29  1  0  0  0  0
 24 25  1  1  0  0  0
 24 26  1  0  0  0  0
 26 27  1  1  0  0  0
 26 28  1  0  0  0  0
 28 29  1  0  0  0  0
 28 30  1  6  0  0  0
 30 31  1  0  0  0  0
 32 27  1  6  0  0  0
 32 33  1  0  0  0  0
 32 40  1  0  0  0  0
 33 34  1  6  0  0  0
 33 35  1  0  0  0  0
 35 36  1  6  0  0  0
 35 37  1  0  0  0  0
 37 38  1  6  0  0  0
 37 39  1  0  0  0  0
 39 40  1  0  0  0  0
 39 41  1  6  0  0  0
 41 42  1  0  0  0  0
M  CHG  5   4   1  14   1  17   1  34   1  42   1
M  END
>  <CHROM.1>
-154.01367246,-165.04533668,53.19722894,70.56705184,176.46754405,-160.41409838
62.38291673,-61.22264231,-73.39071001,158.72898967,166.40063440,173.79459807
-56.45220954,161.17371967,-139.24977184,-155.72809275,-177.32304550,-77.89005681
63.71562834,73.37727663,-179.40628115,-76.61887112,29.66095699,7.40727457
55.31122025,1.01599188,0.21414135,-1.10483746

>  <Name>
1j7t

>  <RI>
0

>  <Rbt.Current_Directory>
/home/itssahil/PROJECTS/Mol_Feturizer/New_Systems/rnas/1j7t

>  <Rbt.Executable>
rbdock ($Id: //depot/dev/client3/rdock/2013.1/src/exe/rbdock.cxx#4 $)

>  <Rbt.Library>
libRbt.so (2013.1, Build901 2013/11/27)

>  <Rbt.Parameter_File>
/export/apps/rDock/src/rDock_2013.1_src/data/scripts/dock_solv.prm

>  <Rbt.Receptor>
prm/pocket_docking_2.prm

>  <SCORE>
-67.6068

>  <SCORE.INTER>
-51.4981

>  <SCORE.INTER.CONST>
1

>  <SCORE.INTER.POLAR>
-8.15227

>  <SCORE.INTER.ROT>
9

>  <SCORE.INTER.SOLV>
22.6104

>  <SCORE.INTER.VDW>
-24.2946

>  <SCORE.INTER.norm>
-1.22615

>  <SCORE.INTRA>
-16.1293

>  <SCORE.INTRA.DIHEDRAL>
-24.9727

>  <SCORE.INTRA.DIHEDRAL.0>
46.2143

>  <SCORE.INTRA.POLAR>
-0.0702405

>  <SCORE.INTRA.POLAR.0>
-1.76436

>  <SCORE.INTRA.REPUL>
0

>  <SCORE.INTRA.REPUL.0>
0

>  <SCORE.INTRA.SOLV>
-2.81925

>  <SCORE.INTRA.SOLV.lig_0>
-148.643

>  <SCORE.INTRA.VDW>
-1.99457

>  <SCORE.INTRA.VDW.0>
-4.83512

>  <SCORE.INTRA.norm>
-0.384032

>  <SCORE.RESTR>
0.0206171

>  <SCORE.RESTR.CAVITY>
0.0206171

>  <SCORE.RESTR.norm>
0.000490883

>  <SCORE.SYSTEM>
0

>  <SCORE.SYSTEM.CONST>
0

>  <SCORE.SYSTEM.DIHEDRAL>
0

>  <SCORE.SYSTEM.SOLV>
0

>  <SCORE.SYSTEM.norm>
0

>  <SCORE.heavy>
42

>  <SCORE.norm>
-1.60969

>  <RMSD>
0.601

$$$$
1j7t
 OpenBabel11021811393D
libRbt.so/2013.1/901 2013/11/27
 42 45  0  0  0  0  0  0  0  0999 V2000
   30.2456    8.6892   52.6747 C   0  0  2  0  0  0  0  0  0  0  0  0
   31.2528    7.7671   52.1871 O   0  0  0  0  0  0  0  0  0  0  0  0
   28.9805    8.4836   51.7930 C   0  0  2  0  0  0  0  0  0  0  0  0
   28.5070    7.0720   51.7103 N   0  3  0  0  0  0  0  0  0  0  0  0
   29.3119    8.9591   50.3616 C   0  0  1  0  0  0  0  0  0  0  0  0
   28.2005    8.8124   49.5233 O   0  0  0  0  0  0  0  0  0  0  0  0
   29.7842   10.4321   50.3880 C   0  0  2  0  0  0  0  0  0  0  0  0
   30.0727   10.8945   49.0833 O   0  0  0  0  0  0  0  0  0  0  0  0
   31.0256   10.5585   51.2452 C   0  0  2  0  0  0  0  0  0  0  0  0
   30.7513   10.0551   52.5465 O   0  0  0  0  0  0  0  0  0  0  0  0
   31.4836   11.9894   51.4177 C   0  0  0  0  0  0  0  0  0  0  0  0
   31.8912   12.5080   50.1662 O   0  0  0  0  0  0  0  0  0  0  0  0
   34.1901    5.4609   54.1624 C   0  0  2  0  0  0  0  0  0  0  0  0
   35.3599    5.0973   54.9629 N   0  3  0  0  0  0  0  0  0  0  0  0
   34.6359    6.2866   52.9103 C   0  0  0  0  0  0  0  0  0  0  0  0
   33.4030    6.7133   52.0907 C   0  0  2  0  0  0  0  0  0  0  0  0
   33.7987    7.5343   50.9417 N   0  3  0  0  0  0  0  0  0  0  0  0
   32.4211    7.5077   52.9741 C   0  0  2  0  0  0  0  0  0  0  0  0
   31.9861    6.7283   54.2305 C   0  0  2  0  0  0  0  0  0  0  0  0
   31.2083    7.6483   55.0205 O   0  0  0  0  0  0  0  0  0  0  0  0
   33.2279    6.2574   55.0293 C   0  0  1  0  0  0  0  0  0  0  0  0
   32.8094    5.4678   56.1084 O   0  0  0  0  0  0  0  0  0  0  0  0
   30.4114    7.2504   56.1330 C   0  0  1  0  0  0  0  0  0  0  0  0
   29.8795    8.5404   56.8536 C   0  0  2  0  0  0  0  0  0  0  0  0
   30.7585    9.0519   57.8408 O   0  0  0  0  0  0  0  0  0  0  0  0
   28.5765    7.9692   57.3950 C   0  0  2  0  0  0  0  0  0  0  0  0
   28.8284    6.9886   58.4461 O   0  0  0  0  0  0  0  0  0  0  0  0
   28.0144    7.2222   56.1936 C   0  0  2  0  0  0  0  0  0  0  0  0
   29.1992    6.5791   55.6932 O   0  0  0  0  0  0  0  0  0  0  0  0
   27.3198    8.1256   55.1225 C   0  0  0  0  0  0  0  0  0  0  0  0
   28.0129    9.3678   54.9479 O   0  0  0  0  0  0  0  0  0  0  0  0
   27.6587    6.5817   59.1516 C   0  0  2  0  0  0  0  0  0  0  0  0
   27.9243    6.0171   60.5887 C   0  0  2  0  0  0  0  0  0  0  0  0
   28.8481    4.8425   60.5894 N   0  3  0  0  0  0  0  0  0  0  0  0
   26.5313    5.6524   61.2021 C   0  0  1  0  0  0  0  0  0  0  0  0
   25.7601    6.9095   61.3141 O   0  0  0  0  0  0  0  0  0  0  0  0
   25.7207    4.6390   60.3036 C   0  0  2  0  0  0  0  0  0  0  0  0
   26.4458    3.3999   60.2443 O   0  0  0  0  0  0  0  0  0  0  0  0
   25.5436    5.2855   58.8674 C   0  0  1  0  0  0  0  0  0  0  0  0
   26.8831    5.5856   58.3488 O   0  0  0  0  0  0  0  0  0  0  0  0
   24.7783    4.4022   57.8559 C   0  0  0  0  0  0  0  0  0  0  0  0
   25.6342    3.3770   57.1994 N   0  3  0  0  0  0  0  0  0  0  0  0
  1  2  1  6  0  0  0
  1  3  1  0  0  0  0
  1 10  1  0  0  0  0
  3  4  1  6  0  0  0
  3  5  1  0  0  0  0
  5  6  1  6  0  0  0
  5  7  1  0  0  0  0
  7  8  1  6  0  0  0
  7  9  1  0  0  0  0
  9 10  1  0  0  0  0
  9 11  1  1  0  0  0
 11 12  1  0  0  0  0
 13 14  1  1  0  0  0
 13 15  1  0  0  0  0
 13 21  1  0  0  0  0
 15 16  1  0  0  0  0
 16 17  1  6  0  0  0
 16 18  1  0  0  0  0
 18  2  1  6  0  0  0
 18 19  1  0  0  0  0
 19 20  1  1  0  0  0
 19 21  1  0  0  0  0
 21 22  1  1  0  0  0
 23 20  1  6  0  0  0
 23 24  1  0  0  0  0
 23 29  1  0  0  0  0
 24 25  1  1  0  0  0
 24 26  1  0  0  0  0
 26 27  1  1  0  0  0
 26 28  1  0  0  0  0
 28 29  1  0  0  0  0
 28 30  1  6  0  0  0
 30 31  1  0  0  0  0
 32 27  1  6  0  0  0
 32 33  1  0  0  0  0
 32 40  1  0  0  0  0
 33 34  1  6  0  0  0
 33 35  1  0  0  0  0
 35 36  1  6  0  0  0
 35 37  1  0  0  0  0
 37 38  1  6  0  0  0
 37 39  1  0  0  0  0
 39 40  1  0  0  0  0
 39 41  1  6  0  0  0
 41 42  1  0  0  0  0
M  CHG  5   4   1  14   1  17   1  34   1  42   1
M  END
>  <CHROM.1>
-166.22680994,-169.67489418,-66.93913178,-66.93300073,-179.71174992,-65.14209322
-68.42112363,-54.98306004,169.68382495,167.60469327,172.25152217,74.12897406
-67.23375397,169.93567308,-156.66583228,38.10479733,60.55202595,-84.86910586
-63.63289617,166.51865866,-82.38912884,78.76188014,29.70373159,7.34087130
55.12655550,1.08400650,0.25463180,-1.00552188

>  <Name>
1j7t

>  <RI>
0

>  <Rbt.Current_Directory>
/home/itssahil/PROJECTS/Mol_Feturizer/New_Systems/rnas/1j7t

>  <Rbt.Executable>
rbdock ($Id: //depot/dev/client3/rdock/2013.1/src/exe/rbdock.cxx#4 $)

>  <Rbt.Library>
libRbt.so (2013.1, Build901 2013/11/27)

>  <Rbt.Parameter_File>
/export/apps/rDock/src/rDock_2013.1_src/data/scripts/dock_solv.prm

>  <Rbt.Receptor>
prm/pocket_docking_2.prm

>  <SCORE>
-60.3082

>  <SCORE.INTER>
-44.2273

>  <SCORE.INTER.CONST>
1

>  <SCORE.INTER.POLAR>
-6.65196

>  <SCORE.INTER.ROT>
9

>  <SCORE.INTER.SOLV>
22.4944

>  <SCORE.INTER.VDW>
-24.4098

>  <SCORE.INTER.norm>
-1.05303

>  <SCORE.INTRA>
-16.0809

>  <SCORE.INTRA.DIHEDRAL>
-31.729

>  <SCORE.INTRA.DIHEDRAL.0>
46.2143

>  <SCORE.INTRA.POLAR>
0.321027

>  <SCORE.INTRA.POLAR.0>
-1.76436

>  <SCORE.INTRA.REPUL>
0

>  <SCORE.INTRA.REPUL.0>
0

>  <SCORE.INTRA.SOLV>
-1.02047

>  <SCORE.INTRA.SOLV.lig_0>
-148.643

>  <SCORE.INTRA.VDW>
-0.797608

>  <SCORE.INTRA.VDW.0>
-4.83512

>  <SCORE.INTRA.norm>
-0.382877

>  <SCORE.RESTR>
0

>  <SCORE.RESTR.CAVITY>
0

>  <SCORE.RESTR.norm>
0

>  <SCORE.SYSTEM>
0

>  <SCORE.SYSTEM.CONST>
0

>  <SCORE.SYSTEM.DIHEDRAL>
0

>  <SCORE.SYSTEM.SOLV>
0

>  <SCORE.SYSTEM.norm>
0

>  <SCORE.heavy>
42

>  <SCORE.norm>
-1.43591

>  <RMSD>
0.624

$$$$
1j7t
 OpenBabel11021811393D
libRbt.so/2013.1/901 2013/11/27
 42 45  0  0  0  0  0  0  0  0999 V2000
   30.3115    8.8861   52.6017 C   0  0  2  0  0  0  0  0  0  0  0  0
   31.2944    7.9452   52.1006 O   0  0  0  0  0  0  0  0  0  0  0  0
   28.9981    8.6332   51.8072 C   0  0  2  0  0  0  0  0  0  0  0  0
   28.5299    7.2175   51.8208 N   0  3  0  0  0  0  0  0  0  0  0  0
   29.2416    9.0399   50.3375 C   0  0  1  0  0  0  0  0  0  0  0  0
   28.0839    8.8485   49.5743 O   0  0  0  0  0  0  0  0  0  0  0  0
   29.7049   10.5143   50.2649 C   0  0  2  0  0  0  0  0  0  0  0  0
   29.9131   10.9138   48.9247 O   0  0  0  0  0  0  0  0  0  0  0  0
   30.9938   10.6868   51.0402 C   0  0  2  0  0  0  0  0  0  0  0  0
   30.7998   10.2461   52.3782 O   0  0  0  0  0  0  0  0  0  0  0  0
   31.4516   12.1261   51.1161 C   0  0  0  0  0  0  0  0  0  0  0  0
   31.7107   12.6077   49.8115 O   0  0  0  0  0  0  0  0  0  0  0  0
   34.2861    5.5850   53.9246 C   0  0  2  0  0  0  0  0  0  0  0  0
   35.4632    5.1973   54.7027 N   0  3  0  0  0  0  0  0  0  0  0  0
   34.7129    6.5054   52.7334 C   0  0  0  0  0  0  0  0  0  0  0  0
   33.4711    6.9556   51.9404 C   0  0  2  0  0  0  0  0  0  0  0  0
   33.8478    7.8630   50.8515 N   0  3  0  0  0  0  0  0  0  0  0  0
   32.4674    7.6625   52.8723 C   0  0  2  0  0  0  0  0  0  0  0  0
   32.0501    6.7882   54.0710 C   0  0  2  0  0  0  0  0  0  0  0  0
   31.2475    7.6320   54.9191 O   0  0  0  0  0  0  0  0  0  0  0  0
   33.3020    6.2956   54.8403 C   0  0  1  0  0  0  0  0  0  0  0  0
   32.9019    5.4237   55.8614 O   0  0  0  0  0  0  0  0  0  0  0  0
   30.4875    7.1435   56.0213 C   0  0  1  0  0  0  0  0  0  0  0  0
   30.1140    8.3557   56.9471 C   0  0  2  0  0  0  0  0  0  0  0  0
   31.0920    8.6525   57.9291 O   0  0  0  0  0  0  0  0  0  0  0  0
   28.8013    7.8163   57.4978 C   0  0  2  0  0  0  0  0  0  0  0  0
   29.0301    6.6802   58.3848 O   0  0  0  0  0  0  0  0  0  0  0  0
   28.1052    7.2928   56.2494 C   0  0  2  0  0  0  0  0  0  0  0  0
   29.1974    6.6373   55.5823 O   0  0  0  0  0  0  0  0  0  0  0  0
   27.4282    8.3899   55.3639 C   0  0  0  0  0  0  0  0  0  0  0  0
   26.8182    7.8255   54.1963 O   0  0  0  0  0  0  0  0  0  0  0  0
   27.8498    6.1913   59.0167 C   0  0  2  0  0  0  0  0  0  0  0  0
   28.0341    5.7758   60.5160 C   0  0  2  0  0  0  0  0  0  0  0  0
   29.0798    4.7246   60.7028 N   0  3  0  0  0  0  0  0  0  0  0  0
   26.6374    5.2946   61.0330 C   0  0  1  0  0  0  0  0  0  0  0  0
   25.7223    6.4545   60.9643 O   0  0  0  0  0  0  0  0  0  0  0  0
   26.0387    4.1245   60.1591 C   0  0  2  0  0  0  0  0  0  0  0  0
   26.9010    2.9808   60.2744 O   0  0  0  0  0  0  0  0  0  0  0  0
   25.9325    4.6317   58.6613 C   0  0  1  0  0  0  0  0  0  0  0  0
   27.2743    5.0498   58.2394 O   0  0  0  0  0  0  0  0  0  0  0  0
   25.3751    3.5870   57.6679 C   0  0  0  0  0  0  0  0  0  0  0  0
   25.0896    4.1466   56.3189 N   0  3  0  0  0  0  0  0  0  0  0  0
  1  2  1  6  0  0  0
  1  3  1  0  0  0  0
  1 10  1  0  0  0  0
  3  4  1  6  0  0  0
  3  5  1  0  0  0  0
  5  6  1  6  0  0  0
  5  7  1  0  0  0  0
  7  8  1  6  0  0  0
  7  9  1  0  0  0  0
  9 10  1  0  0  0  0
  9 11  1  1  0  0  0
 11 12  1  0  0  0  0
 13 14  1  1  0  0  0
 13 15  1  0  0  0  0
 13 21  1  0  0  0  0
 15 16  1  0  0  0  0
 16 17  1  6  0  0  0
 16 18  1  0  0  0  0
 18  2  1  6  0  0  0
 18 19  1  0  0  0  0
 19 20  1  1  0  0  0
 19 21  1  0  0  0  0
 21 22  1  1  0  0  0
 23 20  1  6  0  0  0
 23 24  1  0  0  0  0
 23 29  1  0  0  0  0
 24 25  1  1  0  0  0
 24 26  1  0  0  0  0
 26 27  1  1  0  0  0
 26 28  1  0  0  0  0
 28 29  1  0  0  0  0
 28 30  1  6  0  0  0
 30 31  1  0  0  0  0
 32 27  1  6  0  0  0
 32 33  1  0  0  0  0
 32 40  1  0  0  0  0
 33 34  1  6  0  0  0
 33 35  1  0  0  0  0
 35 36  1  6  0  0  0
 35 37  1  0  0  0  0
 37 38  1  6  0  0  0
 37 39  1  0  0  0  0
 39 40  1  0  0  0  0
 39 41  1  6  0  0  0
 41 42  1  0  0  0  0
M  CHG  5   4   1  14   1  17   1  34   1  42   1
M  END
>  <CHROM.1>
-162.10769324,-164.94575726,87.30156669,51.63601765,66.05746920,-61.92869725
174.36470284,-38.81549256,176.27306192,169.37614378,162.99512848,67.12681303
178.28917718,175.41285233,-140.08250393,178.84146625,-174.29232413,161.50750698
-56.81466559,74.72014873,171.15663747,-176.26906352,29.74794432,7.26771059
54.98917293,1.12926844,0.16790355,-1.01354154

>  <Name>
1j7t

>  <RI>
0

>  <Rbt.Current_Directory>
/home/itssahil/PROJECTS/Mol_Feturizer/New_Systems/rnas/1j7t

>  <Rbt.Executable>
rbdock ($Id: //depot/dev/client3/rdock/2013.1/src/exe/rbdock.cxx#4 $)

>  <Rbt.Library>
libRbt.so (2013.1, Build901 2013/11/27)

>  <Rbt.Parameter_File>
/export/apps/rDock/src/rDock_2013.1_src/data/scripts/dock_solv.prm

>  <Rbt.Receptor>
prm/pocket_docking_2.prm

>  <SCORE>
-67.9575

>  <SCORE.INTER>
-49.1946

>  <SCORE.INTER.CONST>
1

>  <SCORE.INTER.POLAR>
-7.1534

>  <SCORE.INTER.ROT>
9

>  <SCORE.INTER.SOLV>
23.8145

>  <SCORE.INTER.VDW>
-26.4899

>  <SCORE.INTER.norm>
-1.1713

>  <SCORE.INTRA>
-18.763

>  <SCORE.INTRA.DIHEDRAL>
-29.8556

>  <SCORE.INTRA.DIHEDRAL.0>
46.2143

>  <SCORE.INTRA.POLAR>
-0.1264

>  <SCORE.INTRA.POLAR.0>
-1.76436

>  <SCORE.INTRA.REPUL>
0.00105535

>  <SCORE.INTRA.REPUL.0>
0

>  <SCORE.INTRA.SOLV>
-3.05033

>  <SCORE.INTRA.SOLV.lig_0>
-148.643

>  <SCORE.INTRA.VDW>
-1.88552

>  <SCORE.INTRA.VDW.0>
-4.83512

>  <SCORE.INTRA.norm>
-0.446737

>  <SCORE.RESTR>
0

>  <SCORE.RESTR.CAVITY>
0

>  <SCORE.RESTR.norm>
0

>  <SCORE.SYSTEM>
0

>  <SCORE.SYSTEM.CONST>
0

>  <SCORE.SYSTEM.DIHEDRAL>
0

>  <SCORE.SYSTEM.SOLV>
0

>  <SCORE.SYSTEM.norm>
0

>  <SCORE.heavy>
42

>  <SCORE.norm>
-1.61804

>  <RMSD>
0.634

$$$$
1j7t
 OpenBabel11021811393D
libRbt.so/2013.1/901 2013/11/27
 42 45  0  0  0  0  0  0  0  0999 V2000
   30.3078    8.9783   52.5718 C   0  0  2  0  0  0  0  0  0  0  0  0
   31.2822    8.0261   52.0754 O   0  0  0  0  0  0  0  0  0  0  0  0
   29.0216    8.7961   51.7159 C   0  0  2  0  0  0  0  0  0  0  0  0
   28.5112    7.3962   51.6568 N   0  3  0  0  0  0  0  0  0  0  0  0
   29.3380    9.2487   50.2737 C   0  0  1  0  0  0  0  0  0  0  0  0
   28.2077    9.1218   49.4577 O   0  0  0  0  0  0  0  0  0  0  0  0
   29.8477   10.7094   50.2758 C   0  0  2  0  0  0  0  0  0  0  0  0
   30.1232   11.1512   48.9613 O   0  0  0  0  0  0  0  0  0  0  0  0
   31.1078   10.8128   51.1086 C   0  0  2  0  0  0  0  0  0  0  0  0
   30.8454   10.3296   52.4199 O   0  0  0  0  0  0  0  0  0  0  0  0
   31.6049   12.2333   51.2575 C   0  0  0  0  0  0  0  0  0  0  0  0
   32.6016   12.4881   50.2866 O   0  0  0  0  0  0  0  0  0  0  0  0
   34.1925    5.6212   53.9714 C   0  0  2  0  0  0  0  0  0  0  0  0
   35.3569    5.2174   54.7604 N   0  3  0  0  0  0  0  0  0  0  0  0
   34.6490    6.4870   52.7506 C   0  0  0  0  0  0  0  0  0  0  0  0
   33.4221    6.9552   51.9448 C   0  0  2  0  0  0  0  0  0  0  0  0
   33.8283    7.8131   50.8268 N   0  3  0  0  0  0  0  0  0  0  0  0
   32.4462    7.7270   52.8546 C   0  0  2  0  0  0  0  0  0  0  0  0
   32.0009    6.9072   54.0813 C   0  0  2  0  0  0  0  0  0  0  0  0
   31.2306    7.8058   54.9026 O   0  0  0  0  0  0  0  0  0  0  0  0
   33.2363    6.3955   54.8647 C   0  0  1  0  0  0  0  0  0  0  0  0
   32.8078    5.5717   55.9139 O   0  0  0  0  0  0  0  0  0  0  0  0
   30.4450    7.3785   56.0123 C   0  0  1  0  0  0  0  0  0  0  0  0
   30.0369    8.6416   56.8515 C   0  0  2  0  0  0  0  0  0  0  0  0
   30.9856    9.0075   57.8389 O   0  0  0  0  0  0  0  0  0  0  0  0
   28.7142    8.1244   57.3994 C   0  0  2  0  0  0  0  0  0  0  0  0
   28.9280    7.0472   58.3604 O   0  0  0  0  0  0  0  0  0  0  0  0
   28.0563    7.5187   56.1676 C   0  0  2  0  0  0  0  0  0  0  0  0
   29.1713    6.8339   55.5714 O   0  0  0  0  0  0  0  0  0  0  0  0
   27.3948    8.5527   55.1986 C   0  0  0  0  0  0  0  0  0  0  0  0
   26.8014    7.9099   54.0635 O   0  0  0  0  0  0  0  0  0  0  0  0
   27.7529    6.6599   59.0680 C   0  0  2  0  0  0  0  0  0  0  0  0
   28.0092    6.1161   60.5147 C   0  0  2  0  0  0  0  0  0  0  0  0
   28.9246    4.9350   60.5373 N   0  3  0  0  0  0  0  0  0  0  0  0
   26.6115    5.7711   61.1287 C   0  0  1  0  0  0  0  0  0  0  0  0
   25.8491    7.0354   61.2180 O   0  0  0  0  0  0  0  0  0  0  0  0
   25.7968    4.7496   60.2433 C   0  0  2  0  0  0  0  0  0  0  0  0
   26.5130    3.5045   60.2062 O   0  0  0  0  0  0  0  0  0  0  0  0
   25.6295    5.3746   58.7965 C   0  0  1  0  0  0  0  0  0  0  0  0
   26.9730    5.6568   58.2781 O   0  0  0  0  0  0  0  0  0  0  0  0
   24.8614    4.4810   57.7962 C   0  0  0  0  0  0  0  0  0  0  0  0
   23.3883    4.4870   58.0075 N   0  3  0  0  0  0  0  0  0  0  0  0
  1  2  1  6  0  0  0
  1  3  1  0  0  0  0
  1 10  1  0  0  0  0
  3  4  1  6  0  0  0
  3  5  1  0  0  0  0
  5  6  1  6  0  0  0
  5  7  1  0  0  0  0
  7  8  1  6  0  0  0
  7  9  1  0  0  0  0
  9 10  1  0  0  0  0
  9 11  1  1  0  0  0
 11 12  1  0  0  0  0
 13 14  1  1  0  0  0
 13 15  1  0  0  0  0
 13 21  1  0  0  0  0
 15 16  1  0  0  0  0
 16 17  1  6  0  0  0
 16 18  1  0  0  0  0
 18  2  1  6  0  0  0
 18 19  1  0  0  0  0
 19 20  1  1  0  0  0
 19 21  1  0  0  0  0
 21 22  1  1  0  0  0
 23 20  1  6  0  0  0
 23 24  1  0  0  0  0
 23 29  1  0  0  0  0
 24 25  1  1  0  0  0
 24 26  1  0  0  0  0
 26 27  1  1  0  0  0
 26 28  1  0  0  0  0
 28 29  1  0  0  0  0
 28 30  1  6  0  0  0
 30 31  1  0  0  0  0
 32 27  1  6  0  0  0
 32 33  1  0  0  0  0
 32 40  1  0  0  0  0
 33 34  1  6  0  0  0
 33 35  1  0  0  0  0
 35 36  1  6  0  0  0
 35 37  1  0  0  0  0
 37 38  1  6  0  0  0
 37 39  1  0  0  0  0
 39 40  1  0  0  0  0
 39 41  1  6  0  0  0
 41 42  1  0  0  0  0
M  CHG  5   4   1  14   1  17   1  34   1  42   1
M  END
>  <CHROM.1>
-165.10091835,-167.36023028,-35.11035334,174.05370799,167.53589592,-95.99816753
57.62903368,-179.59885425,-67.20877220,168.68995379,166.77530961,70.89496065
-69.14600023,170.63127554,-149.93556845,179.81952696,-177.95274791,160.70170666
-66.35726121,-176.74776704,76.93849804,-175.28697407,29.67530089,7.50544137
55.03883766,1.06093793,0.18296484,-1.03523806

>  <Name>
1j7t

>  <RI>
0

>  <Rbt.Current_Directory>
/home/itssahil/PROJECTS/Mol_Feturizer/New_Systems/rnas/1j7t

>  <Rbt.Executable>
rbdock ($Id: //depot/dev/client3/rdock/2013.1/src/exe/rbdock.cxx#4 $)

>  <Rbt.Library>
libRbt.so (2013.1, Build901 2013/11/27)

>  <Rbt.Parameter_File>
/export/apps/rDock/src/rDock_2013.1_src/data/scripts/dock_solv.prm

>  <Rbt.Receptor>
prm/pocket_docking_2.prm

>  <SCORE>
-71.3889

>  <SCORE.INTER>
-51.406

>  <SCORE.INTER.CONST>
1

>  <SCORE.INTER.POLAR>
-7.82422

>  <SCORE.INTER.ROT>
9

>  <SCORE.INTER.SOLV>
24.76

>  <SCORE.INTER.VDW>
-26.0433

>  <SCORE.INTER.norm>
-1.22395

>  <SCORE.INTRA>
-19.9828

>  <SCORE.INTRA.DIHEDRAL>
-29.3559

>  <SCORE.INTRA.DIHEDRAL.0>
46.2143

>  <SCORE.INTRA.POLAR>
-0.480094

>  <SCORE.INTRA.POLAR.0>
-1.76436

>  <SCORE.INTRA.REPUL>
0

>  <SCORE.INTRA.REPUL.0>
0

>  <SCORE.INTRA.SOLV>
-4.12193

>  <SCORE.INTRA.SOLV.lig_0>
-148.643

>  <SCORE.INTRA.VDW>
-1.61159

>  <SCORE.INTRA.VDW.0>
-4.83512

>  <SCORE.INTRA.norm>
-0.475781

>  <SCORE.RESTR>
0

>  <SCORE.RESTR.CAVITY>
0

>  <SCORE.RESTR.norm>
0

>  <SCORE.SYSTEM>
0

>  <SCORE.SYSTEM.CONST>
0

>  <SCORE.SYSTEM.DIHEDRAL>
0

>  <SCORE.SYSTEM.SOLV>
0

>  <SCORE.SYSTEM.norm>
0

>  <SCORE.heavy>
42

>  <SCORE.norm>
-1.69973

>  <RMSD>
0.646

$$$$
1j7t
 OpenBabel11021811393D
libRbt.so/2013.1/901 2013/11/27
 42 45  0  0  0  0  0  0  0  0999 V2000
   30.4974    8.9562   52.7703 C   0  0  2  0  0  0  0  0  0  0  0  0
   31.4519    7.9858   52.2704 O   0  0  0  0  0  0  0  0  0  0  0  0
   29.1036    8.5466   52.2141 C   0  0  2  0  0  0  0  0  0  0  0  0
   28.7179    7.1331   52.4915 N   0  3  0  0  0  0  0  0  0  0  0  0
   29.1226    8.7429   50.6824 C   0  0  1  0  0  0  0  0  0  0  0  0
   27.8836    8.4038   50.1262 O   0  0  0  0  0  0  0  0  0  0  0  0
   29.4921   10.2056   50.3396 C   0  0  2  0  0  0  0  0  0  0  0  0
   29.4942   10.4125   48.9409 O   0  0  0  0  0  0  0  0  0  0  0  0
   30.8634   10.5321   50.8917 C   0  0  2  0  0  0  0  0  0  0  0  0
   30.8773   10.2848   52.2920 O   0  0  0  0  0  0  0  0  0  0  0  0
   31.2497   11.9817   50.7002 C   0  0  0  0  0  0  0  0  0  0  0  0
   32.5980   12.1653   51.0870 O   0  0  0  0  0  0  0  0  0  0  0  0
   34.3384    5.5414   54.1521 C   0  0  2  0  0  0  0  0  0  0  0  0
   35.5024    5.1218   54.9334 N   0  3  0  0  0  0  0  0  0  0  0  0
   34.7990    6.3959   52.9249 C   0  0  0  0  0  0  0  0  0  0  0  0
   33.5735    6.8807   52.1270 C   0  0  2  0  0  0  0  0  0  0  0  0
   33.9845    7.7284   51.0030 N   0  3  0  0  0  0  0  0  0  0  0  0
   32.6170    7.6709   53.0416 C   0  0  2  0  0  0  0  0  0  0  0  0
   32.1684    6.8623   54.2745 C   0  0  2  0  0  0  0  0  0  0  0  0
   31.4187    7.7757   55.0987 O   0  0  0  0  0  0  0  0  0  0  0  0
   33.4016    6.3337   55.0502 C   0  0  1  0  0  0  0  0  0  0  0  0
   32.9683    5.5202   56.1054 O   0  0  0  0  0  0  0  0  0  0  0  0
   30.5455    7.3560   56.1439 C   0  0  1  0  0  0  0  0  0  0  0  0
   30.0889    8.6224   56.9523 C   0  0  2  0  0  0  0  0  0  0  0  0
   30.9632    8.9757   58.0105 O   0  0  0  0  0  0  0  0  0  0  0  0
   28.7222    8.1200   57.3960 C   0  0  2  0  0  0  0  0  0  0  0  0
   28.8491    7.0388   58.3679 O   0  0  0  0  0  0  0  0  0  0  0  0
   28.1536    7.5238   56.1158 C   0  0  2  0  0  0  0  0  0  0  0  0
   29.3032    6.8270   55.6052 O   0  0  0  0  0  0  0  0  0  0  0  0
   27.5805    8.5671   55.1015 C   0  0  0  0  0  0  0  0  0  0  0  0
   26.6461    7.9665   54.1958 O   0  0  0  0  0  0  0  0  0  0  0  0
   27.7113    6.8812   59.2117 C   0  0  2  0  0  0  0  0  0  0  0  0
   28.0334    6.3653   60.6555 C   0  0  2  0  0  0  0  0  0  0  0  0
   28.7456    5.0514   60.6570 N   0  3  0  0  0  0  0  0  0  0  0  0
   26.6737    6.2821   61.4261 C   0  0  1  0  0  0  0  0  0  0  0  0
   26.1369    7.6574   61.5154 O   0  0  0  0  0  0  0  0  0  0  0  0
   25.6151    5.3719   60.6898 C   0  0  2  0  0  0  0  0  0  0  0  0
   26.1153    4.0253   60.6559 O   0  0  0  0  0  0  0  0  0  0  0  0
   25.3933    5.9533   59.2322 C   0  0  1  0  0  0  0  0  0  0  0  0
   26.7002    5.9876   58.5657 O   0  0  0  0  0  0  0  0  0  0  0  0
   24.3885    5.1564   58.3695 C   0  0  0  0  0  0  0  0  0  0  0  0
   24.3451    5.6003   56.9497 N   0  3  0  0  0  0  0  0  0  0  0  0
  1  2  1  6  0  0  0
  1  3  1  0  0  0  0
  1 10  1  0  0  0  0
  3  4  1  6  0  0  0
  3  5  1  0  0  0  0
  5  6  1  1  0  0  0
  5  7  1  0  0  0  0
  7  8  1  6  0  0  0
  7  9  1  0  0  0  0
  9 10  1  0  0  0  0
  9 11  1  1  0  0  0
 11 12  1  0  0  0  0
 13 14  1  1  0  0  0
 13 15  1  0  0  0  0
 13 21  1  0  0  0  0
 15 16  1  0  0  0  0
 16 17  1  6  0  0  0
 16 18  1  0  0  0  0
 18  2  1  6  0  0  0
 18 19  1  0  0  0  0
 19 20  1  1  0  0  0
 19 21  1  0  0  0  0
 21 22  1  1  0  0  0
 23 20  1  6  0  0  0
 23 24  1  0  0  0  0
 23 29  1  0  0  0  0
 24 25  1  1  0  0  0
 24 26  1  0  0  0  0
 26 27  1  1  0  0  0
 26 28  1  0  0  0  0
 28 29  1  0  0  0  0
 28 30  1  6  0  0  0
 30 31  1  0  0  0  0
 32 27  1  6  0  0  0
 32 33  1  0  0  0  0
 32 40  1  0  0  0  0
 33 34  1  6  0  0  0
 33 35  1  0  0  0  0
 35 36  1  6  0  0  0
 35 37  1  0  0  0  0
 37 38  1  6  0  0  0
 37 39  1  0  0  0  0
 39 40  1  0  0  0  0
 39 41  1  6  0  0  0
 41 42  1  0  0  0  0
M  CHG  5   4   1  14   1  17   1  34   1  42   1
M  END
>  <CHROM.1>
-150.00902194,-167.28085298,50.11719665,60.15770580,176.68052185,-172.71961031
63.03925184,-178.40356564,-177.94065233,163.12717322,171.28763283,74.80788529
-65.93853546,156.11236174,-148.23842001,-158.36255177,-179.75324005,-78.26564201
-172.59358090,174.83791700,-171.62970002,-92.04456965,29.67640865,7.52637668
55.21162962,1.03130874,0.20306572,-1.10253454

>  <Name>
1j7t

>  <RI>
0

>  <Rbt.Current_Directory>
/home/itssahil/PROJECTS/Mol_Feturizer/New_Systems/rnas/1j7t

>  <Rbt.Executable>
rbdock ($Id: //depot/dev/client3/rdock/2013.1/src/exe/rbdock.cxx#4 $)

>  <Rbt.Library>
libRbt.so (2013.1, Build901 2013/11/27)

>  <Rbt.Parameter_File>
/export/apps/rDock/src/rDock_2013.1_src/data/scripts/dock_solv.prm

>  <Rbt.Receptor>
prm/pocket_docking_2.prm

>  <SCORE>
-67.5002

>  <SCORE.INTER>
-50.0253

>  <SCORE.INTER.CONST>
1

>  <SCORE.INTER.POLAR>
-7.68687

>  <SCORE.INTER.ROT>
9

>  <SCORE.INTER.SOLV>
24.1103

>  <SCORE.INTER.VDW>
-25.3641

>  <SCORE.INTER.norm>
-1.19108

>  <SCORE.INTRA>
-17.4749

>  <SCORE.INTRA.DIHEDRAL>
-26.6457

>  <SCORE.INTRA.DIHEDRAL.0>
46.2143

>  <SCORE.INTRA.POLAR>
-0.328346

>  <SCORE.INTRA.POLAR.0>
-1.76436

>  <SCORE.INTRA.REPUL>
0

>  <SCORE.INTRA.REPUL.0>
0

>  <SCORE.INTRA.SOLV>
-1.10097

>  <SCORE.INTRA.SOLV.lig_0>
-148.643

>  <SCORE.INTRA.VDW>
-2.48526

>  <SCORE.INTRA.VDW.0>
-4.83512

>  <SCORE.INTRA.norm>
-0.41607

>  <SCORE.RESTR>
0

>  <SCORE.RESTR.CAVITY>
0

>  <SCORE.RESTR.norm>
0

>  <SCORE.SYSTEM>
0

>  <SCORE.SYSTEM.CONST>
0

>  <SCORE.SYSTEM.DIHEDRAL>
0

>  <SCORE.SYSTEM.SOLV>
0

>  <SCORE.SYSTEM.norm>
0

>  <SCORE.heavy>
42

>  <SCORE.norm>
-1.60715

>  <RMSD>
0.648

$$$$
1j7t
 OpenBabel11021811393D
libRbt.so/2013.1/901 2013/11/27
 42 45  0  0  0  0  0  0  0  0999 V2000
   30.3098    8.6993   52.6582 C   0  0  2  0  0  0  0  0  0  0  0  0
   31.3264    7.7972   52.1530 O   0  0  0  0  0  0  0  0  0  0  0  0
   29.0275    8.4538   51.8122 C   0  0  2  0  0  0  0  0  0  0  0  0
   28.5870    7.0303   51.7556 N   0  3  0  0  0  0  0  0  0  0  0  0
   29.3095    8.9227   50.3681 C   0  0  1  0  0  0  0  0  0  0  0  0
   28.1805    8.7403   49.5609 O   0  0  0  0  0  0  0  0  0  0  0  0
   29.7458   10.4070   50.3679 C   0  0  2  0  0  0  0  0  0  0  0  0
   29.9885   10.8629   49.0517 O   0  0  0  0  0  0  0  0  0  0  0  0
   31.0058   10.5724   51.1908 C   0  0  2  0  0  0  0  0  0  0  0  0
   30.7782   10.0758   52.5036 O   0  0  0  0  0  0  0  0  0  0  0  0
   31.4326   12.0158   51.3374 C   0  0  0  0  0  0  0  0  0  0  0  0
   31.9359   12.4863   50.1019 O   0  0  0  0  0  0  0  0  0  0  0  0
   34.3362    5.5273   54.0602 C   0  0  2  0  0  0  0  0  0  0  0  0
   35.5216    5.1776   54.8437 N   0  3  0  0  0  0  0  0  0  0  0  0
   34.7505    6.3861   52.8195 C   0  0  0  0  0  0  0  0  0  0  0  0
   33.5003    6.7976   52.0187 C   0  0  2  0  0  0  0  0  0  0  0  0
   33.8657    7.6486   50.8814 N   0  3  0  0  0  0  0  0  0  0  0  0
   32.5077    7.5519   52.9250 C   0  0  2  0  0  0  0  0  0  0  0  0
   32.1031    6.7396   54.1706 C   0  0  2  0  0  0  0  0  0  0  0  0
   31.3107    7.6261   54.9841 O   0  0  0  0  0  0  0  0  0  0  0  0
   33.3631    6.2845   54.9498 C   0  0  1  0  0  0  0  0  0  0  0  0
   32.9735    5.4656   56.0178 O   0  0  0  0  0  0  0  0  0  0  0  0
   30.5708    7.1965   56.1239 C   0  0  1  0  0  0  0  0  0  0  0  0
   29.9703    8.4610   56.8355 C   0  0  2  0  0  0  0  0  0  0  0  0
   30.8368    9.0498   57.7902 O   0  0  0  0  0  0  0  0  0  0  0  0
   28.7233    7.8133   57.4209 C   0  0  2  0  0  0  0  0  0  0  0  0
   29.0678    6.8724   58.4819 O   0  0  0  0  0  0  0  0  0  0  0  0
   28.1836    7.0069   56.2479 C   0  0  2  0  0  0  0  0  0  0  0  0
   29.3967    6.4362   55.7279 O   0  0  0  0  0  0  0  0  0  0  0  0
   27.4024    7.8403   55.1798 C   0  0  0  0  0  0  0  0  0  0  0  0
   28.1300    9.0104   54.7857 O   0  0  0  0  0  0  0  0  0  0  0  0
   27.9427    6.3662   59.1957 C   0  0  2  0  0  0  0  0  0  0  0  0
   28.2534    5.8909   60.6557 C   0  0  2  0  0  0  0  0  0  0  0  0
   29.3013    4.8267   60.7092 N   0  3  0  0  0  0  0  0  0  0  0  0
   26.9028    5.3982   61.2743 C   0  0  1  0  0  0  0  0  0  0  0  0
   25.9963    6.5656   61.3312 O   0  0  0  0  0  0  0  0  0  0  0  0
   26.2187    4.2671   60.4118 C   0  0  2  0  0  0  0  0  0  0  0  0
   27.0768    3.1146   60.4065 O   0  0  0  0  0  0  0  0  0  0  0  0
   25.9868    4.8337   58.9498 C   0  0  1  0  0  0  0  0  0  0  0  0
   27.2905    5.2599   58.4282 O   0  0  0  0  0  0  0  0  0  0  0  0
   25.3347    3.8323   57.9695 C   0  0  0  0  0  0  0  0  0  0  0  0
   25.1520    4.3805   56.5981 N   0  3  0  0  0  0  0  0  0  0  0  0
  1  2  1  6  0  0  0
  1  3  1  0  0  0  0
  1 10  1  0  0  0  0
  3  4  1  6  0  0  0
  3  5  1  0  0  0  0
  5  6  1  6  0  0  0
  5  7  1  0  0  0  0
  7  8  1  6  0  0  0
  7  9  1  0  0  0  0
  9 10  1  0  0  0  0
  9 11  1  1  0  0  0
 11 12  1  0  0  0  0
 13 14  1  1  0  0  0
 13 15  1  0  0  0  0
 13 21  1  0  0  0  0
 15 16  1  0  0  0  0
 16 17  1  6  0  0  0
 16 18  1  0  0  0  0
 18  2  1  6  0  0  0
 18 19  1  0  0  0  0
 19 20  1  1  0  0  0
 19 21  1  0  0  0  0
 21 22  1  1  0  0  0
 23 20  1  6  0  0  0
 23 24  1  0  0  0  0
 23 29  1  0  0  0  0
 24 25  1  1  0  0  0
 24 26  1  0  0  0  0
 26 27  1  1  0  0  0
 26 28  1  0  0  0  0
 28 29  1  0  0  0  0
 28 30  1  6  0  0  0
 30 31  1  0  0  0  0
 32 27  1  6  0  0  0
 32 33  1  0  0  0  0
 32 40  1  0  0  0  0
 33 34  1  6  0  0  0
 33 35  1  0  0  0  0
 35 36  1  6  0  0  0
 35 37  1  0  0  0  0
 37 38  1  6  0  0  0
 37 39  1  0  0  0  0
 39 40  1  0  0  0  0
 39 41  1  6  0  0  0
 41 42  1  0  0  0  0
M  CHG  5   4   1  14   1  17   1  34   1  42   1
M  END
>  <CHROM.1>
-164.86773348,-168.86769870,65.11381188,56.61923393,59.64877527,-71.66090682
-56.71472731,-60.99177662,-64.61542405,169.87511044,173.84362247,75.64487023
-175.71803498,171.93740923,-154.65864061,48.72251593,178.70658483,163.64692600
64.31071862,74.81047798,-178.90050710,-62.38633477,29.84425331,7.27970868
55.10306405,1.13025464,0.20983066,-1.02566770

>  <Name>
1j7t

>  <RI>
0

>  <Rbt.Current_Directory>
/home/itssahil/PROJECTS/Mol_Feturizer/New_Systems/rnas/1j7t

>  <Rbt.Executable>
rbdock ($Id: //depot/dev/client3/rdock/2013.1/src/exe/rbdock.cxx#4 $)

>  <Rbt.Library>
libRbt.so (2013.1, Build901 2013/11/27)

>  <Rbt.Parameter_File>
/export/apps/rDock/src/rDock_2013.1_src/data/scripts/dock_solv.prm

>  <Rbt.Receptor>
prm/pocket_docking_3.prm

>  <SCORE>
-66.9708

>  <SCORE.INTER>
-49.3141

>  <SCORE.INTER.CONST>
1

>  <SCORE.INTER.POLAR>
-7.28879

>  <SCORE.INTER.ROT>
9

>  <SCORE.INTER.SOLV>
24.137

>  <SCORE.INTER.VDW>
-26.2258

>  <SCORE.INTER.norm>
-1.17415

>  <SCORE.INTRA>
-17.6567

>  <SCORE.INTRA.DIHEDRAL>
-35.973

>  <SCORE.INTRA.DIHEDRAL.0>
46.2143

>  <SCORE.INTRA.POLAR>
1.08342

>  <SCORE.INTRA.POLAR.0>
-1.76436

>  <SCORE.INTRA.REPUL>
0

>  <SCORE.INTRA.REPUL.0>
0

>  <SCORE.INTRA.SOLV>
-2.78771

>  <SCORE.INTRA.SOLV.lig_0>
-148.643

>  <SCORE.INTRA.VDW>
-1.95993

>  <SCORE.INTRA.VDW.0>
-4.83512

>  <SCORE.INTRA.norm>
-0.420397

>  <SCORE.RESTR>
0

>  <SCORE.RESTR.CAVITY>
0

>  <SCORE.RESTR.norm>
0

>  <SCORE.SYSTEM>
0

>  <SCORE.SYSTEM.CONST>
0

>  <SCORE.SYSTEM.DIHEDRAL>
0

>  <SCORE.SYSTEM.SOLV>
0

>  <SCORE.SYSTEM.norm>
0

>  <SCORE.heavy>
42

>  <SCORE.norm>
-1.59454

>  <RMSD>
0.677

$$$$
1j7t
 OpenBabel11021811393D
libRbt.so/2013.1/901 2013/11/27
 42 45  0  0  0  0  0  0  0  0999 V2000
   30.2988    8.8604   52.6045 C   0  0  2  0  0  0  0  0  0  0  0  0
   31.2818    7.8968   52.1487 O   0  0  0  0  0  0  0  0  0  0  0  0
   29.0246    8.6504   51.7371 C   0  0  2  0  0  0  0  0  0  0  0  0
   28.5180    7.2482   51.7113 N   0  3  0  0  0  0  0  0  0  0  0  0
   29.3594    9.0623   50.2868 C   0  0  1  0  0  0  0  0  0  0  0  0
   28.2404    8.9092   49.4598 O   0  0  0  0  0  0  0  0  0  0  0  0
   29.8659   10.5237   50.2539 C   0  0  2  0  0  0  0  0  0  0  0  0
   30.1580   10.9283   48.9309 O   0  0  0  0  0  0  0  0  0  0  0  0
   31.1145   10.6542   51.1001 C   0  0  2  0  0  0  0  0  0  0  0  0
   30.8355   10.2081   52.4211 O   0  0  0  0  0  0  0  0  0  0  0  0
   31.6064   12.0796   51.2148 C   0  0  0  0  0  0  0  0  0  0  0  0
   32.0253   12.5374   49.9435 O   0  0  0  0  0  0  0  0  0  0  0  0
   34.2306    5.6145   54.1345 C   0  0  2  0  0  0  0  0  0  0  0  0
   35.4027    5.2604   54.9359 N   0  3  0  0  0  0  0  0  0  0  0  0
   34.6716    6.4345   52.8770 C   0  0  0  0  0  0  0  0  0  0  0  0
   33.4361    6.8512   52.0562 C   0  0  2  0  0  0  0  0  0  0  0  0
   33.8273    7.6669   50.9018 N   0  3  0  0  0  0  0  0  0  0  0  0
   32.4520    7.6469   52.9360 C   0  0  2  0  0  0  0  0  0  0  0  0
   32.0215    6.8733   54.1975 C   0  0  2  0  0  0  0  0  0  0  0  0
   31.2409    7.7949   54.9828 O   0  0  0  0  0  0  0  0  0  0  0  0
   33.2661    6.4122   54.9977 C   0  0  1  0  0  0  0  0  0  0  0  0
   32.8520    5.6274   56.0819 O   0  0  0  0  0  0  0  0  0  0  0  0
   30.4294    7.3973   56.0850 C   0  0  1  0  0  0  0  0  0  0  0  0
   30.0113    8.6814   56.8864 C   0  0  2  0  0  0  0  0  0  0  0  0
   30.9411    9.0644   57.8853 O   0  0  0  0  0  0  0  0  0  0  0  0
   28.6742    8.1841   57.4176 C   0  0  2  0  0  0  0  0  0  0  0  0
   28.8611    7.1278   58.4070 O   0  0  0  0  0  0  0  0  0  0  0  0
   28.0388    7.5542   56.1861 C   0  0  2  0  0  0  0  0  0  0  0  0
   29.1621    6.8499   55.6293 O   0  0  0  0  0  0  0  0  0  0  0  0
   27.4042    8.5696   55.1801 C   0  0  0  0  0  0  0  0  0  0  0  0
   26.8501    7.9061   54.0370 O   0  0  0  0  0  0  0  0  0  0  0  0
   27.6751    6.7840   59.1190 C   0  0  2  0  0  0  0  0  0  0  0  0
   27.9152    6.2550   60.5739 C   0  0  2  0  0  0  0  0  0  0  0  0
   28.7972    5.0492   60.6151 N   0  3  0  0  0  0  0  0  0  0  0  0
   26.5080    5.9582   61.1915 C   0  0  1  0  0  0  0  0  0  0  0  0
   25.7810    7.2444   61.2611 O   0  0  0  0  0  0  0  0  0  0  0  0
   25.6656    4.9468   60.3205 C   0  0  2  0  0  0  0  0  0  0  0  0
   26.3469    3.6817   60.3026 O   0  0  0  0  0  0  0  0  0  0  0  0
   25.5169    5.5546   58.8643 C   0  0  1  0  0  0  0  0  0  0  0  0
   26.8681    5.7914   58.3433 O   0  0  0  0  0  0  0  0  0  0  0  0
   24.7249    4.6679   57.8766 C   0  0  0  0  0  0  0  0  0  0  0  0
   23.2845    4.5338   58.2259 N   0  3  0  0  0  0  0  0  0  0  0  0
  1  2  1  6  0  0  0
  1  3  1  0  0  0  0
  1 10  1  0  0  0  0
  3  4  1  6  0  0  0
  3  5  1  0  0  0  0
  5  6  1  6  0  0  0
  5  7  1  0  0  0  0
  7  8  1  6  0  0  0
  7  9  1  0  0  0  0
  9 10  1  0  0  0  0
  9 11  1  1  0  0  0
 11 12  1  0  0  0  0
 13 14  1  1  0  0  0
 13 15  1  0  0  0  0
 13 21  1  0  0  0  0
 15 16  1  0  0  0  0
 16 17  1  6  0  0  0
 16 18  1  0  0  0  0
 18  2  1  6  0  0  0
 18 19  1  0  0  0  0
 19 20  1  1  0  0  0
 19 21  1  0  0  0  0
 21 22  1  1  0  0  0
 23 20  1  6  0  0  0
 23 24  1  0  0  0  0
 23 29  1  0  0  0  0
 24 25  1  1  0  0  0
 24 26  1  0  0  0  0
 26 27  1  1  0  0  0
 26 28  1  0  0  0  0
 28 29  1  0  0  0  0
 28 30  1  6  0  0  0
 30 31  1  0  0  0  0
 32 27  1  6  0  0  0
 32 33  1  0  0  0  0
 32 40  1  0  0  0  0
 33 34  1  6  0  0  0
 33 35  1  0  0  0  0
 35 36  1  6  0  0  0
 35 37  1  0  0  0  0
 37 38  1  6  0  0  0
 37 39  1  0  0  0  0
 39 40  1  0  0  0  0
 39 41  1  6  0  0  0
 41 42  1  0  0  0  0
M  CHG  5   4   1  14   1  17   1  34   1  42   1
M  END
>  <CHROM.1>
-166.61218324,-167.04740042,63.84901340,-66.72409959,-57.32633437,-65.41970519
-66.16662356,179.92438744,-67.31318247,166.53357842,166.86544251,171.37936821
-65.53392813,169.30232526,-150.69420943,178.88627034,-175.42342549,-77.23272936
-64.26202468,72.96219749,67.12713221,176.48751775,29.63537622,7.50042971
55.09322982,1.05162886,0.17983387,-1.06741434

>  <Name>
1j7t

>  <RI>
0

>  <Rbt.Current_Directory>
/home/itssahil/PROJECTS/Mol_Feturizer/New_Systems/rnas/1j7t

>  <Rbt.Executable>
rbdock ($Id: //depot/dev/client3/rdock/2013.1/src/exe/rbdock.cxx#4 $)

>  <Rbt.Library>
libRbt.so (2013.1, Build901 2013/11/27)

>  <Rbt.Parameter_File>
/export/apps/rDock/src/rDock_2013.1_src/data/scripts/dock_solv.prm

>  <Rbt.Receptor>
prm/pocket_docking_3.prm

>  <SCORE>
-77.9302

>  <SCORE.INTER>
-58.7807

>  <SCORE.INTER.CONST>
1

>  <SCORE.INTER.POLAR>
-9.27463

>  <SCORE.INTER.ROT>
9

>  <SCORE.INTER.SOLV>
24.3385

>  <SCORE.INTER.VDW>
-25.9845

>  <SCORE.INTER.norm>
-1.39954

>  <SCORE.INTRA>
-19.1496

>  <SCORE.INTRA.DIHEDRAL>
-35.1231

>  <SCORE.INTRA.DIHEDRAL.0>
46.2143

>  <SCORE.INTRA.POLAR>
0.381471

>  <SCORE.INTRA.POLAR.0>
-1.76436

>  <SCORE.INTRA.REPUL>
0

>  <SCORE.INTRA.REPUL.0>
0

>  <SCORE.INTRA.SOLV>
-3.4702

>  <SCORE.INTRA.SOLV.lig_0>
-148.643

>  <SCORE.INTRA.VDW>
-1.14992

>  <SCORE.INTRA.VDW.0>
-4.83512

>  <SCORE.INTRA.norm>
-0.455942

>  <SCORE.RESTR>
0

>  <SCORE.RESTR.CAVITY>
0

>  <SCORE.RESTR.norm>
0

>  <SCORE.SYSTEM>
0

>  <SCORE.SYSTEM.CONST>
0

>  <SCORE.SYSTEM.DIHEDRAL>
0

>  <SCORE.SYSTEM.SOLV>
0

>  <SCORE.SYSTEM.norm>
0

>  <SCORE.heavy>
42

>  <SCORE.norm>
-1.85548

>  <RMSD>
0.696

$$$$
1j7t
 OpenBabel11021811393D
libRbt.so/2013.1/901 2013/11/27
 42 45  0  0  0  0  0  0  0  0999 V2000
   30.3756    8.7990   52.6546 C   0  0  2  0  0  0  0  0  0  0  0  0
   31.3785    7.8891   52.1361 O   0  0  0  0  0  0  0  0  0  0  0  0
   29.0611    8.5153   51.8726 C   0  0  2  0  0  0  0  0  0  0  0  0
   28.6322    7.0871   51.8811 N   0  3  0  0  0  0  0  0  0  0  0  0
   29.2770    8.9387   50.4032 C   0  0  1  0  0  0  0  0  0  0  0  0
   28.1166    8.7205   49.6513 O   0  0  0  0  0  0  0  0  0  0  0  0
   29.6987   10.4257   50.3361 C   0  0  2  0  0  0  0  0  0  0  0  0
   29.8810   10.8400   48.9966 O   0  0  0  0  0  0  0  0  0  0  0  0
   30.9908   10.6285   51.0986 C   0  0  2  0  0  0  0  0  0  0  0  0
   30.8238   10.1735   52.4355 O   0  0  0  0  0  0  0  0  0  0  0  0
   31.4096   12.0793   51.1799 C   0  0  0  0  0  0  0  0  0  0  0  0
   31.7512   12.5444   49.8883 O   0  0  0  0  0  0  0  0  0  0  0  0
   34.3226    5.5907   54.1104 C   0  0  2  0  0  0  0  0  0  0  0  0
   35.5097    5.2300   54.8863 N   0  3  0  0  0  0  0  0  0  0  0  0
   34.7456    6.3498   52.8091 C   0  0  0  0  0  0  0  0  0  0  0  0
   33.4964    6.7743   52.0136 C   0  0  2  0  0  0  0  0  0  0  0  0
   33.8729    7.5345   50.8172 N   0  3  0  0  0  0  0  0  0  0  0  0
   32.5664    7.6320   52.8940 C   0  0  2  0  0  0  0  0  0  0  0  0
   32.1554    6.9191   54.1971 C   0  0  2  0  0  0  0  0  0  0  0  0
   31.4293    7.8927   54.9719 O   0  0  0  0  0  0  0  0  0  0  0  0
   33.4117    6.4492   54.9735 C   0  0  1  0  0  0  0  0  0  0  0  0
   33.0109    5.7180   56.0994 O   0  0  0  0  0  0  0  0  0  0  0  0
   30.5840    7.5533   56.0680 C   0  0  1  0  0  0  0  0  0  0  0  0
   30.0330    8.8795   56.7033 C   0  0  2  0  0  0  0  0  0  0  0  0
   30.8745    9.4327   57.7007 O   0  0  0  0  0  0  0  0  0  0  0  0
   28.7043    8.3426   57.2167 C   0  0  2  0  0  0  0  0  0  0  0  0
   28.9049    7.4122   58.3230 O   0  0  0  0  0  0  0  0  0  0  0  0
   28.1865    7.5420   56.0301 C   0  0  2  0  0  0  0  0  0  0  0  0
   29.3859    6.8687   55.6107 O   0  0  0  0  0  0  0  0  0  0  0  0
   27.5437    8.3969   54.8890 C   0  0  0  0  0  0  0  0  0  0  0  0
   26.4945    9.2379   55.3848 O   0  0  0  0  0  0  0  0  0  0  0  0
   27.7009    7.0245   58.9800 C   0  0  2  0  0  0  0  0  0  0  0  0
   27.8993    6.4462   60.4224 C   0  0  2  0  0  0  0  0  0  0  0  0
   28.7991    5.2533   60.4510 N   0  3  0  0  0  0  0  0  0  0  0  0
   26.4766    6.1057   60.9790 C   0  0  1  0  0  0  0  0  0  0  0  0
   25.7266    7.3772   61.0695 O   0  0  0  0  0  0  0  0  0  0  0  0
   25.6817    5.1141   60.0430 C   0  0  2  0  0  0  0  0  0  0  0  0
   26.3840    3.8611   60.0035 O   0  0  0  0  0  0  0  0  0  0  0  0
   25.5733    5.7725   58.6054 C   0  0  1  0  0  0  0  0  0  0  0  0
   26.9376    6.0489   58.1411 O   0  0  0  0  0  0  0  0  0  0  0  0
   24.8307    4.9107   57.5591 C   0  0  0  0  0  0  0  0  0  0  0  0
   23.4087    4.6478   57.9108 N   0  3  0  0  0  0  0  0  0  0  0  0
  1  2  1  6  0  0  0
  1  3  1  0  0  0  0
  1 10  1  0  0  0  0
  3  4  1  6  0  0  0
  3  5  1  0  0  0  0
  5  6  1  6  0  0  0
  5  7  1  0  0  0  0
  7  8  1  6  0  0  0
  7  9  1  0  0  0  0
  9 10  1  0  0  0  0
  9 11  1  1  0  0  0
 11 12  1  0  0  0  0
 13 14  1  1  0  0  0
 13 15  1  0  0  0  0
 13 21  1  0  0  0  0
 15 16  1  0  0  0  0
 16 17  1  6  0  0  0
 16 18  1  0  0  0  0
 18  2  1  6  0  0  0
 18 19  1  0  0  0  0
 19 20  1  1  0  0  0
 19 21  1  0  0  0  0
 21 22  1  1  0  0  0
 23 20  1  6  0  0  0
 23 24  1  0  0  0  0
 23 29  1  0  0  0  0
 24 25  1  1  0  0  0
 24 26  1  0  0  0  0
 26 27  1  1  0  0  0
 26 28  1  0  0  0  0
 28 29  1  0  0  0  0
 28 30  1  6  0  0  0
 30 31  1  0  0  0  0
 32 27  1  6  0  0  0
 32 33  1  0  0  0  0
 32 40  1  0  0  0  0
 33 34  1  6  0  0  0
 33 35  1  0  0  0  0
 35 36  1  6  0  0  0
 35 37  1  0  0  0  0
 37 38  1  6  0  0  0
 37 39  1  0  0  0  0
 39 40  1  0  0  0  0
 39 41  1  6  0  0  0
 41 42  1  0  0  0  0
M  CHG  5   4   1  14   1  17   1  34   1  42   1
M  END
>  <CHROM.1>
-162.01091833,-173.29466250,-45.50176079,55.36279456,-54.73454135,-66.89876451
178.49459253,60.13983474,177.04282167,162.88636196,177.00121208,-61.64894576
177.50177215,171.19130214,-160.16736756,-54.89635920,-179.73527936,-79.65974071
58.66366576,-177.72850783,62.33992799,177.97788853,29.64893058,7.59088831
55.04688169,1.01790293,0.23342957,-1.04838256

>  <Name>
1j7t

>  <RI>
0

>  <Rbt.Current_Directory>
/home/itssahil/PROJECTS/Mol_Feturizer/New_Systems/rnas/1j7t

>  <Rbt.Executable>
rbdock ($Id: //depot/dev/client3/rdock/2013.1/src/exe/rbdock.cxx#4 $)

>  <Rbt.Library>
libRbt.so (2013.1, Build901 2013/11/27)

>  <Rbt.Parameter_File>
/export/apps/rDock/src/rDock_2013.1_src/data/scripts/dock_solv.prm

>  <Rbt.Receptor>
prm/pocket_docking_2.prm

>  <SCORE>
-76.9475

>  <SCORE.INTER>
-57.1841

>  <SCORE.INTER.CONST>
1

>  <SCORE.INTER.POLAR>
-8.54747

>  <SCORE.INTER.ROT>
9

>  <SCORE.INTER.SOLV>
25.0383

>  <SCORE.INTER.VDW>
-27.5773

>  <SCORE.INTER.norm>
-1.36153

>  <SCORE.INTRA>
-19.7634

>  <SCORE.INTRA.DIHEDRAL>
-38.2412

>  <SCORE.INTRA.DIHEDRAL.0>
46.2143

>  <SCORE.INTRA.POLAR>
0.859277

>  <SCORE.INTRA.POLAR.0>
-1.76436

>  <SCORE.INTRA.REPUL>
0

>  <SCORE.INTRA.REPUL.0>
0

>  <SCORE.INTRA.SOLV>
-5.23552

>  <SCORE.INTRA.SOLV.lig_0>
-148.643

>  <SCORE.INTRA.VDW>
-0.946559

>  <SCORE.INTRA.VDW.0>
-4.83512

>  <SCORE.INTRA.norm>
-0.470557

>  <SCORE.RESTR>
0

>  <SCORE.RESTR.CAVITY>
0

>  <SCORE.RESTR.norm>
0

>  <SCORE.SYSTEM>
0

>  <SCORE.SYSTEM.CONST>
0

>  <SCORE.SYSTEM.DIHEDRAL>
0

>  <SCORE.SYSTEM.SOLV>
0

>  <SCORE.SYSTEM.norm>
0

>  <SCORE.heavy>
42

>  <SCORE.norm>
-1.83208

>  <RMSD>
0.768

$$$$
1j7t
 OpenBabel11021811393D
libRbt.so/2013.1/901 2013/11/27
 42 45  0  0  0  0  0  0  0  0999 V2000
   30.4665    9.0479   52.6267 C   0  0  2  0  0  0  0  0  0  0  0  0
   31.3316    7.9525   52.2339 O   0  0  0  0  0  0  0  0  0  0  0  0
   29.1427    8.8875   51.8254 C   0  0  2  0  0  0  0  0  0  0  0  0
   28.5021    7.5468   51.9512 N   0  3  0  0  0  0  0  0  0  0  0  0
   29.4546    9.1278   50.3322 C   0  0  1  0  0  0  0  0  0  0  0  0
   28.2924    9.0119   49.5606 O   0  0  0  0  0  0  0  0  0  0  0  0
   30.0984   10.5217   50.1423 C   0  0  2  0  0  0  0  0  0  0  0  0
   30.3726   10.7708   48.7777 O   0  0  0  0  0  0  0  0  0  0  0  0
   31.3881   10.6039   50.9309 C   0  0  2  0  0  0  0  0  0  0  0  0
   31.1229   10.3122   52.2971 O   0  0  0  0  0  0  0  0  0  0  0  0
   32.0201   11.9772   50.8918 C   0  0  0  0  0  0  0  0  0  0  0  0
   31.1032   12.9324   51.3900 O   0  0  0  0  0  0  0  0  0  0  0  0
   34.1552    5.5386   54.2460 C   0  0  2  0  0  0  0  0  0  0  0  0
   35.3131    5.1312   55.0425 N   0  3  0  0  0  0  0  0  0  0  0  0
   34.6304    6.2945   52.9610 C   0  0  0  0  0  0  0  0  0  0  0  0
   33.4129    6.7680   52.1441 C   0  0  2  0  0  0  0  0  0  0  0  0
   33.8395    7.5256   50.9630 N   0  3  0  0  0  0  0  0  0  0  0  0
   32.4941    7.6488   53.0135 C   0  0  2  0  0  0  0  0  0  0  0  0
   32.0325    6.9386   54.3010 C   0  0  2  0  0  0  0  0  0  0  0  0
   31.3235    7.9293   55.0700 O   0  0  0  0  0  0  0  0  0  0  0  0
   33.2559    6.4198   55.0984 C   0  0  1  0  0  0  0  0  0  0  0  0
   32.8074    5.6926   56.2088 O   0  0  0  0  0  0  0  0  0  0  0  0
   30.5393    7.6195   56.2190 C   0  0  1  0  0  0  0  0  0  0  0  0
   30.1616    8.9610   56.9427 C   0  0  2  0  0  0  0  0  0  0  0  0
   31.1249    9.3964   57.8868 O   0  0  0  0  0  0  0  0  0  0  0  0
   28.8340    8.5210   57.5438 C   0  0  2  0  0  0  0  0  0  0  0  0
   29.0355    7.5312   58.5971 O   0  0  0  0  0  0  0  0  0  0  0  0
   28.1549    7.8190   56.3762 C   0  0  2  0  0  0  0  0  0  0  0  0
   29.2521    7.0618   55.8374 O   0  0  0  0  0  0  0  0  0  0  0  0
   27.5048    8.7737   55.3218 C   0  0  0  0  0  0  0  0  0  0  0  0
   26.9662    8.0464   54.2105 O   0  0  0  0  0  0  0  0  0  0  0  0
   27.8476    7.1900   59.3070 C   0  0  2  0  0  0  0  0  0  0  0  0
   28.0884    6.5396   60.7117 C   0  0  2  0  0  0  0  0  0  0  0  0
   28.9110    5.2939   60.6413 N   0  3  0  0  0  0  0  0  0  0  0  0
   26.6800    6.2630   61.3359 C   0  0  1  0  0  0  0  0  0  0  0  0
   26.0182    7.5730   61.5194 O   0  0  0  0  0  0  0  0  0  0  0  0
   25.7733    5.3627   60.4093 C   0  0  2  0  0  0  0  0  0  0  0  0
   26.3915    4.0720   60.2800 O   0  0  0  0  0  0  0  0  0  0  0  0
   25.6275    6.0874   59.0073 C   0  0  1  0  0  0  0  0  0  0  0  0
   26.9788    6.2996   58.4760 O   0  0  0  0  0  0  0  0  0  0  0  0
   24.7749    5.3180   57.9728 C   0  0  0  0  0  0  0  0  0  0  0  0
   25.3247    3.9777   57.6324 N   0  3  0  0  0  0  0  0  0  0  0  0
  1  2  1  6  0  0  0
  1  3  1  0  0  0  0
  1 10  1  0  0  0  0
  3  4  1  6  0  0  0
  3  5  1  0  0  0  0
  5  6  1  6  0  0  0
  5  7  1  0  0  0  0
  7  8  1  6  0  0  0
  7  9  1  0  0  0  0
  9 10  1  0  0  0  0
  9 11  1  1  0  0  0
 11 12  1  0  0  0  0
 13 14  1  1  0  0  0
 13 15  1  0  0  0  0
 13 21  1  0  0  0  0
 15 16  1  0  0  0  0
 16 17  1  6  0  0  0
 16 18  1  0  0  0  0
 18  2  1  6  0  0  0
 18 19  1  0  0  0  0
 19 20  1  1  0  0  0
 19 21  1  0  0  0  0
 21 22  1  1  0  0  0
 23 20  1  6  0  0  0
 23 24  1  0  0  0  0
 23 29  1  0  0  0  0
 24 25  1  1  0  0  0
 24 26  1  0  0  0  0
 26 27  1  1  0  0  0
 26 28  1  0  0  0  0
 28 29  1  0  0  0  0
 28 30  1  6  0  0  0
 30 31  1  0  0  0  0
 32 27  1  6  0  0  0
 32 33  1  0  0  0  0
 32 40  1  0  0  0  0
 33 34  1  6  0  0  0
 33 35  1  0  0  0  0
 35 36  1  6  0  0  0
 35 37  1  0  0  0  0
 37 38  1  6  0  0  0
 37 39  1  0  0  0  0
 39 40  1  0  0  0  0
 39 41  1  6  0  0  0
 41 42  1  0  0  0  0
M  CHG  5   4   1  14   1  17   1  34   1  42   1
M  END
>  <CHROM.1>
-165.75818249,-162.97143552,-47.80665755,48.99046036,177.05524333,57.76825518
-170.80346729,-46.49775741,167.77177887,168.68586253,169.03452080,57.57298306
-179.89239998,173.16789892,-160.02464731,176.06762222,177.95982513,42.72695270
-170.44275276,77.74230963,-60.69200550,164.94240621,29.76417850,7.66382458
55.18935561,1.07445734,0.27278922,-1.05381336

>  <Name>
1j7t

>  <RI>
0

>  <Rbt.Current_Directory>
/home/itssahil/PROJECTS/Mol_Feturizer/New_Systems/rnas/1j7t

>  <Rbt.Executable>
rbdock ($Id: //depot/dev/client3/rdock/2013.1/src/exe/rbdock.cxx#4 $)

>  <Rbt.Library>
libRbt.so (2013.1, Build901 2013/11/27)

>  <Rbt.Parameter_File>
/export/apps/rDock/src/rDock_2013.1_src/data/scripts/dock_solv.prm

>  <Rbt.Receptor>
prm/pocket_docking_2.prm

>  <SCORE>
-68.2971

>  <SCORE.INTER>
-46.2016

>  <SCORE.INTER.CONST>
1

>  <SCORE.INTER.POLAR>
-7.21131

>  <SCORE.INTER.ROT>
9

>  <SCORE.INTER.SOLV>
23.536

>  <SCORE.INTER.VDW>
-24.2087

>  <SCORE.INTER.norm>
-1.10004

>  <SCORE.INTRA>
-22.1044

>  <SCORE.INTRA.DIHEDRAL>
-34.5905

>  <SCORE.INTRA.DIHEDRAL.0>
46.2143

>  <SCORE.INTRA.POLAR>
-0.951886

>  <SCORE.INTRA.POLAR.0>
-1.76436

>  <SCORE.INTRA.REPUL>
0

>  <SCORE.INTRA.REPUL.0>
0

>  <SCORE.INTRA.SOLV>
0.277627

>  <SCORE.INTRA.SOLV.lig_0>
-148.643

>  <SCORE.INTRA.VDW>
-1.71154

>  <SCORE.INTRA.VDW.0>
-4.83512

>  <SCORE.INTRA.norm>
-0.526295

>  <SCORE.RESTR>
0.00892902

>  <SCORE.RESTR.CAVITY>
0.00892902

>  <SCORE.RESTR.norm>
0.000212596

>  <SCORE.SYSTEM>
0

>  <SCORE.SYSTEM.CONST>
0

>  <SCORE.SYSTEM.DIHEDRAL>
0

>  <SCORE.SYSTEM.SOLV>
0

>  <SCORE.SYSTEM.norm>
0

>  <SCORE.heavy>
42

>  <SCORE.norm>
-1.62612

>  <RMSD>
0.778

$$$$
1j7t
 OpenBabel11021811393D
libRbt.so/2013.1/901 2013/11/27
 42 45  0  0  0  0  0  0  0  0999 V2000
   30.2924    8.9476   52.5385 C   0  0  2  0  0  0  0  0  0  0  0  0
   31.2954    8.0398   52.0167 O   0  0  0  0  0  0  0  0  0  0  0  0
   29.0169    8.7601   51.6677 C   0  0  2  0  0  0  0  0  0  0  0  0
   28.5453    7.3498   51.5571 N   0  3  0  0  0  0  0  0  0  0  0  0
   29.3297    9.2704   50.2441 C   0  0  1  0  0  0  0  0  0  0  0  0
   28.2084    9.1412   49.4163 O   0  0  0  0  0  0  0  0  0  0  0  0
   29.7993   10.7435   50.2999 C   0  0  2  0  0  0  0  0  0  0  0  0
   30.0708   11.2375   49.0032 O   0  0  0  0  0  0  0  0  0  0  0  0
   31.0510   10.8523   51.1446 C   0  0  2  0  0  0  0  0  0  0  0  0
   30.7937   10.3174   52.4368 O   0  0  0  0  0  0  0  0  0  0  0  0
   31.5081   12.2797   51.3456 C   0  0  0  0  0  0  0  0  0  0  0  0
   31.9700   12.8044   50.1157 O   0  0  0  0  0  0  0  0  0  0  0  0
   34.2506    5.6523   53.8647 C   0  0  2  0  0  0  0  0  0  0  0  0
   35.4208    5.2543   54.6480 N   0  3  0  0  0  0  0  0  0  0  0  0
   34.6924    6.5574   52.6672 C   0  0  0  0  0  0  0  0  0  0  0  0
   33.4584    7.0187   51.8683 C   0  0  2  0  0  0  0  0  0  0  0  0
   33.8497    7.9123   50.7732 N   0  3  0  0  0  0  0  0  0  0  0  0
   32.4630    7.7467   52.7929 C   0  0  2  0  0  0  0  0  0  0  0  0
   32.0314    6.8876   53.9975 C   0  0  2  0  0  0  0  0  0  0  0  0
   31.2391    7.7490   54.8375 O   0  0  0  0  0  0  0  0  0  0  0  0
   33.2749    6.3836   54.7729 C   0  0  1  0  0  0  0  0  0  0  0  0
   32.8608    5.5253   55.8000 O   0  0  0  0  0  0  0  0  0  0  0  0
   30.5296    7.2916   55.9857 C   0  0  1  0  0  0  0  0  0  0  0  0
   29.8907    8.5324   56.7056 C   0  0  2  0  0  0  0  0  0  0  0  0
   30.7460    9.1528   57.6504 O   0  0  0  0  0  0  0  0  0  0  0  0
   28.6760    7.8382   57.3053 C   0  0  2  0  0  0  0  0  0  0  0  0
   29.0682    6.9104   58.3613 O   0  0  0  0  0  0  0  0  0  0  0  0
   28.1528    7.0127   56.1382 C   0  0  2  0  0  0  0  0  0  0  0  0
   29.3801    6.4880   55.6031 O   0  0  0  0  0  0  0  0  0  0  0  0
   27.3282    7.8167   55.0803 C   0  0  0  0  0  0  0  0  0  0  0  0
   27.0377    7.0242   53.9220 O   0  0  0  0  0  0  0  0  0  0  0  0
   27.9808    6.4426   59.1552 C   0  0  2  0  0  0  0  0  0  0  0  0
   28.3812    5.9449   60.5857 C   0  0  2  0  0  0  0  0  0  0  0  0
   29.3881    4.8410   60.5557 N   0  3  0  0  0  0  0  0  0  0  0  0
   27.0625    5.4999   61.3017 C   0  0  1  0  0  0  0  0  0  0  0  0
   26.2089    6.7008   61.4316 O   0  0  0  0  0  0  0  0  0  0  0  0
   26.2725    4.4023   60.4879 C   0  0  2  0  0  0  0  0  0  0  0  0
   27.0824    3.2177   60.4132 O   0  0  0  0  0  0  0  0  0  0  0  0
   25.9540    4.9880   59.0500 C   0  0  1  0  0  0  0  0  0  0  0  0
   27.2306    5.3677   58.4340 O   0  0  0  0  0  0  0  0  0  0  0  0
   25.1920    4.0197   58.1170 C   0  0  0  0  0  0  0  0  0  0  0  0
   25.9059    2.7342   57.8877 N   0  3  0  0  0  0  0  0  0  0  0  0
  1  2  1  6  0  0  0
  1  3  1  0  0  0  0
  1 10  1  0  0  0  0
  3  4  1  6  0  0  0
  3  5  1  0  0  0  0
  5  6  1  6  0  0  0
  5  7  1  0  0  0  0
  7  8  1  6  0  0  0
  7  9  1  0  0  0  0
  9 10  1  0  0  0  0
  9 11  1  1  0  0  0
 11 12  1  0  0  0  0
 13 14  1  1  0  0  0
 13 15  1  0  0  0  0
 13 21  1  0  0  0  0
 15 16  1  0  0  0  0
 16 17  1  6  0  0  0
 16 18  1  0  0  0  0
 18  2  1  6  0  0  0
 18 19  1  0  0  0  0
 19 20  1  1  0  0  0
 19 21  1  0  0  0  0
 21 22  1  1  0  0  0
 23 20  1  6  0  0  0
 23 24  1  0  0  0  0
 23 29  1  0  0  0  0
 24 25  1  1  0  0  0
 24 26  1  0  0  0  0
 26 27  1  1  0  0  0
 26 28  1  0  0  0  0
 28 29  1  0  0  0  0
 28 30  1  6  0  0  0
 30 31  1  0  0  0  0
 32 27  1  6  0  0  0
 32 33  1  0  0  0  0
 32 40  1  0  0  0  0
 33 34  1  6  0  0  0
 33 35  1  0  0  0  0
 35 36  1  6  0  0  0
 35 37  1  0  0  0  0
 37 38  1  6  0  0  0
 37 39  1  0  0  0  0
 39 40  1  0  0  0  0
 39 41  1  6  0  0  0
 41 42  1  0  0  0  0
M  CHG  5   4   1  14   1  17   1  34   1  42   1
M  END
>  <CHROM.1>
-165.16640658,-167.99560985,-164.89919295,173.99576481,-54.99682812,-68.41448630
-59.88740495,-54.35645687,57.41629320,172.96794525,175.21120552,73.15813017
-174.72738857,167.30816352,-156.54957558,171.49705960,63.64239901,46.67306961
-59.02739738,73.15044154,-58.10815106,-77.90340023,29.83291644,7.33269804
55.03453954,1.14778687,0.21326741,-0.99926444

>  <Name>
1j7t

>  <RI>
0

>  <Rbt.Current_Directory>
/home/itssahil/PROJECTS/Mol_Feturizer/New_Systems/rnas/1j7t

>  <Rbt.Executable>
rbdock ($Id: //depot/dev/client3/rdock/2013.1/src/exe/rbdock.cxx#4 $)

>  <Rbt.Library>
libRbt.so (2013.1, Build901 2013/11/27)

>  <Rbt.Parameter_File>
/export/apps/rDock/src/rDock_2013.1_src/data/scripts/dock_solv.prm

>  <Rbt.Receptor>
prm/pocket_docking_2.prm

>  <SCORE>
-69.858

>  <SCORE.INTER>
-46.4286

>  <SCORE.INTER.CONST>
1

>  <SCORE.INTER.POLAR>
-6.74286

>  <SCORE.INTER.ROT>
9

>  <SCORE.INTER.SOLV>
24.313

>  <SCORE.INTER.VDW>
-26.1805

>  <SCORE.INTER.norm>
-1.10544

>  <SCORE.INTRA>
-23.4294

>  <SCORE.INTRA.DIHEDRAL>
-35.8534

>  <SCORE.INTRA.DIHEDRAL.0>
46.2143

>  <SCORE.INTRA.POLAR>
-0.991534

>  <SCORE.INTRA.POLAR.0>
-1.76436

>  <SCORE.INTRA.REPUL>
0

>  <SCORE.INTRA.REPUL.0>
0

>  <SCORE.INTRA.SOLV>
-0.442113

>  <SCORE.INTRA.SOLV.lig_0>
-148.643

>  <SCORE.INTRA.VDW>
-1.91039

>  <SCORE.INTRA.VDW.0>
-4.83512

>  <SCORE.INTRA.norm>
-0.557842

>  <SCORE.RESTR>
0

>  <SCORE.RESTR.CAVITY>
0

>  <SCORE.RESTR.norm>
0

>  <SCORE.SYSTEM>
0

>  <SCORE.SYSTEM.CONST>
0

>  <SCORE.SYSTEM.DIHEDRAL>
0

>  <SCORE.SYSTEM.SOLV>
0

>  <SCORE.SYSTEM.norm>
0

>  <SCORE.heavy>
42

>  <SCORE.norm>
-1.66328

>  <RMSD>
0.786

$$$$
1j7t
 OpenBabel11021811393D
libRbt.so/2013.1/901 2013/11/27
 42 45  0  0  0  0  0  0  0  0999 V2000
   30.5199    8.9797   52.6121 C   0  0  2  0  0  0  0  0  0  0  0  0
   31.4612    8.0368   52.0399 O   0  0  0  0  0  0  0  0  0  0  0  0
   29.1434    8.7076   51.9403 C   0  0  2  0  0  0  0  0  0  0  0  0
   28.6878    7.2897   52.0157 N   0  3  0  0  0  0  0  0  0  0  0  0
   29.2537    9.0934   50.4490 C   0  0  1  0  0  0  0  0  0  0  0  0
   28.0345    8.8841   49.7938 O   0  0  0  0  0  0  0  0  0  0  0  0
   29.6987   10.5690   50.3143 C   0  0  2  0  0  0  0  0  0  0  0  0
   29.7852   10.9494   48.9553 O   0  0  0  0  0  0  0  0  0  0  0  0
   31.0496   10.7603   50.9704 C   0  0  2  0  0  0  0  0  0  0  0  0
   30.9773   10.3388   52.3265 O   0  0  0  0  0  0  0  0  0  0  0  0
   31.5026   12.2031   50.9847 C   0  0  0  0  0  0  0  0  0  0  0  0
   31.8784   12.5921   49.6775 O   0  0  0  0  0  0  0  0  0  0  0  0
   34.5498    5.6440   53.6472 C   0  0  2  0  0  0  0  0  0  0  0  0
   35.7732    5.2432   54.3429 N   0  3  0  0  0  0  0  0  0  0  0  0
   34.9032    6.5685   52.4353 C   0  0  0  0  0  0  0  0  0  0  0  0
   33.6147    7.0324   51.7294 C   0  0  2  0  0  0  0  0  0  0  0  0
   33.9249    7.9436   50.6228 N   0  3  0  0  0  0  0  0  0  0  0  0
   32.6809    7.7409   52.7301 C   0  0  2  0  0  0  0  0  0  0  0  0
   32.3378    6.8625   53.9491 C   0  0  2  0  0  0  0  0  0  0  0  0
   31.6000    7.7069   54.8535 O   0  0  0  0  0  0  0  0  0  0  0  0
   33.6345    6.3562   54.6304 C   0  0  1  0  0  0  0  0  0  0  0  0
   33.2967    5.4811   55.6711 O   0  0  0  0  0  0  0  0  0  0  0  0
   30.6071    7.2186   55.7518 C   0  0  1  0  0  0  0  0  0  0  0  0
   30.2060    8.3783   56.7317 C   0  0  2  0  0  0  0  0  0  0  0  0
   31.0185    8.4596   57.8902 O   0  0  0  0  0  0  0  0  0  0  0  0
   28.7659    7.9592   56.9917 C   0  0  2  0  0  0  0  0  0  0  0  0
   28.7091    6.7271   57.7718 O   0  0  0  0  0  0  0  0  0  0  0  0
   28.2524    7.6431   55.5940 C   0  0  2  0  0  0  0  0  0  0  0  0
   29.3697    6.9198   55.0497 O   0  0  0  0  0  0  0  0  0  0  0  0
   27.8664    8.8924   54.7361 C   0  0  0  0  0  0  0  0  0  0  0  0
   26.7584    9.6024   55.3037 O   0  0  0  0  0  0  0  0  0  0  0  0
   27.6875    6.7169   58.7657 C   0  0  2  0  0  0  0  0  0  0  0  0
   28.2093    6.6218   60.2398 C   0  0  2  0  0  0  0  0  0  0  0  0
   29.0467    5.4078   60.4821 N   0  3  0  0  0  0  0  0  0  0  0  0
   26.9530    6.6483   61.1730 C   0  0  1  0  0  0  0  0  0  0  0  0
   26.2926    7.9575   60.9800 O   0  0  0  0  0  0  0  0  0  0  0  0
   25.9205    5.5046   60.8309 C   0  0  2  0  0  0  0  0  0  0  0  0
   26.5476    4.2349   61.0743 O   0  0  0  0  0  0  0  0  0  0  0  0
   25.4899    5.6661   59.3141 C   0  0  1  0  0  0  0  0  0  0  0  0
   26.7097    5.6162   58.4999 O   0  0  0  0  0  0  0  0  0  0  0  0
   24.4858    4.6021   58.8153 C   0  0  0  0  0  0  0  0  0  0  0  0
   23.9776    4.8660   57.4417 N   0  3  0  0  0  0  0  0  0  0  0  0
  1  2  1  6  0  0  0
  1  3  1  0  0  0  0
  1 10  1  0  0  0  0
  3  4  1  6  0  0  0
  3  5  1  0  0  0  0
  5  6  1  1  0  0  0
  5  7  1  0  0  0  0
  7  8  1  6  0  0  0
  7  9  1  0  0  0  0
  9 10  1  0  0  0  0
  9 11  1  1  0  0  0
 11 12  1  0  0  0  0
 13 14  1  1  0  0  0
 13 15  1  0  0  0  0
 13 21  1  0  0  0  0
 15 16  1  0  0  0  0
 16 17  1  6  0  0  0
 16 18  1  0  0  0  0
 18  2  1  6  0  0  0
 18 19  1  0  0  0  0
 19 20  1  1  0  0  0
 19 21  1  0  0  0  0
 21 22  1  1  0  0  0
 23 20  1  6  0  0  0
 23 24  1  0  0  0  0
 23 29  1  0  0  0  0
 24 25  1  1  0  0  0
 24 26  1  0  0  0  0
 26 27  1  1  0  0  0
 26 28  1  0  0  0  0
 28 29  1  0  0  0  0
 28 30  1  6  0  0  0
 30 31  1  0  0  0  0
 32 27  1  6  0  0  0
 32 33  1  0  0  0  0
 32 40  1  0  0  0  0
 33 34  1  6  0  0  0
 33 35  1  0  0  0  0
 35 36  1  6  0  0  0
 35 37  1  0  0  0  0
 37 38  1  6  0  0  0
 37 39  1  0  0  0  0
 39 40  1  0  0  0  0
 39 41  1  6  0  0  0
 41 42  1  0  0  0  0
M  CHG  5   4   1  14   1  17   1  34   1  42   1
M  END
>  <CHROM.1>
-160.17306316,-165.06812385,52.76936521,-67.79923453,-54.85238322,-72.61520736
-63.75790276,63.70747992,60.06322736,150.31458195,170.50654472,-60.32131283
-59.77810799,139.97296536,-116.57820994,-64.62639116,-161.05264319,-163.36227424
61.75254120,-95.74374929,173.31538565,56.20769739,29.77760470,7.62425607
54.98857887,1.03255445,0.28309479,-1.03817830

>  <Name>
1j7t

>  <RI>
0

>  <Rbt.Current_Directory>
/home/itssahil/PROJECTS/Mol_Feturizer/New_Systems/rnas/1j7t

>  <Rbt.Executable>
rbdock ($Id: //depot/dev/client3/rdock/2013.1/src/exe/rbdock.cxx#4 $)

>  <Rbt.Library>
libRbt.so (2013.1, Build901 2013/11/27)

>  <Rbt.Parameter_File>
/export/apps/rDock/src/rDock_2013.1_src/data/scripts/dock_solv.prm

>  <Rbt.Receptor>
prm/pocket_docking_2.prm

>  <SCORE>
-69.6653

>  <SCORE.INTER>
-59.476

>  <SCORE.INTER.CONST>
1

>  <SCORE.INTER.POLAR>
-8.92389

>  <SCORE.INTER.ROT>
9

>  <SCORE.INTER.SOLV>
24.8653

>  <SCORE.INTER.VDW>
-27.7928

>  <SCORE.INTER.norm>
-1.41609

>  <SCORE.INTRA>
-10.1893

>  <SCORE.INTRA.DIHEDRAL>
-18.1514

>  <SCORE.INTRA.DIHEDRAL.0>
46.2143

>  <SCORE.INTRA.POLAR>
0.609751

>  <SCORE.INTRA.POLAR.0>
-1.76436

>  <SCORE.INTRA.REPUL>
0

>  <SCORE.INTRA.REPUL.0>
0

>  <SCORE.INTRA.SOLV>
-3.71657

>  <SCORE.INTRA.SOLV.lig_0>
-148.643

>  <SCORE.INTRA.VDW>
-1.32849

>  <SCORE.INTRA.VDW.0>
-4.83512

>  <SCORE.INTRA.norm>
-0.242603

>  <SCORE.RESTR>
0

>  <SCORE.RESTR.CAVITY>
0

>  <SCORE.RESTR.norm>
0

>  <SCORE.SYSTEM>
0

>  <SCORE.SYSTEM.CONST>
0

>  <SCORE.SYSTEM.DIHEDRAL>
0

>  <SCORE.SYSTEM.SOLV>
0

>  <SCORE.SYSTEM.norm>
0

>  <SCORE.heavy>
42

>  <SCORE.norm>
-1.6587

>  <RMSD>
0.794

$$$$
1j7t
 OpenBabel11021811393D
libRbt.so/2013.1/901 2013/11/27
 42 45  0  0  0  0  0  0  0  0999 V2000
   30.5263    8.8617   52.7866 C   0  0  2  0  0  0  0  0  0  0  0  0
   31.3910    7.7682   52.3881 O   0  0  0  0  0  0  0  0  0  0  0  0
   29.1745    8.6626   52.0429 C   0  0  2  0  0  0  0  0  0  0  0  0
   28.5588    7.3172   52.2283 N   0  3  0  0  0  0  0  0  0  0  0  0
   29.4240    8.8679   50.5327 C   0  0  1  0  0  0  0  0  0  0  0  0
   28.2342    8.7162   49.8110 O   0  0  0  0  0  0  0  0  0  0  0  0
   30.0396   10.2649   50.2818 C   0  0  2  0  0  0  0  0  0  0  0  0
   30.2564   10.4818   48.9015 O   0  0  0  0  0  0  0  0  0  0  0  0
   31.3580   10.3850   51.0163 C   0  0  2  0  0  0  0  0  0  0  0  0
   31.1509   10.1257   52.3990 O   0  0  0  0  0  0  0  0  0  0  0  0
   31.9681   11.7652   50.9171 C   0  0  0  0  0  0  0  0  0  0  0  0
   31.1310   12.6988   51.5720 O   0  0  0  0  0  0  0  0  0  0  0  0
   34.1928    5.3363   54.4090 C   0  0  2  0  0  0  0  0  0  0  0  0
   35.3470    4.9214   55.2071 N   0  3  0  0  0  0  0  0  0  0  0  0
   34.6748    6.0833   53.1213 C   0  0  0  0  0  0  0  0  0  0  0  0
   33.4616    6.5647   52.3027 C   0  0  2  0  0  0  0  0  0  0  0  0
   33.8950    7.3143   51.1189 N   0  3  0  0  0  0  0  0  0  0  0  0
   32.5508    7.4568   53.1688 C   0  0  2  0  0  0  0  0  0  0  0  0
   32.0827    6.7554   54.4588 C   0  0  2  0  0  0  0  0  0  0  0  0
   31.3827    7.7552   55.2243 O   0  0  0  0  0  0  0  0  0  0  0  0
   33.3014    6.2285   55.2582 C   0  0  1  0  0  0  0  0  0  0  0  0
   32.8464    5.5094   56.3712 O   0  0  0  0  0  0  0  0  0  0  0  0
   30.4711    7.4453   56.2750 C   0  0  1  0  0  0  0  0  0  0  0  0
   30.1013    8.7750   57.0241 C   0  0  2  0  0  0  0  0  0  0  0  0
   30.9892    9.1080   58.0775 O   0  0  0  0  0  0  0  0  0  0  0  0
   28.6971    8.3931   57.4711 C   0  0  2  0  0  0  0  0  0  0  0  0
   28.7350    7.3479   58.4888 O   0  0  0  0  0  0  0  0  0  0  0  0
   28.0984    7.7863   56.2099 C   0  0  2  0  0  0  0  0  0  0  0  0
   29.1983    6.9862   55.7433 O   0  0  0  0  0  0  0  0  0  0  0  0
   27.6132    8.8246   55.1459 C   0  0  0  0  0  0  0  0  0  0  0  0
   26.8256    8.2042   54.1218 O   0  0  0  0  0  0  0  0  0  0  0  0
   27.5098    7.1853   59.1987 C   0  0  2  0  0  0  0  0  0  0  0  0
   27.6718    6.7253   60.6875 C   0  0  2  0  0  0  0  0  0  0  0  0
   28.4107    5.4329   60.8187 N   0  3  0  0  0  0  0  0  0  0  0  0
   26.2332    6.6285   61.2962 C   0  0  1  0  0  0  0  0  0  0  0  0
   25.6562    7.9901   61.2736 O   0  0  0  0  0  0  0  0  0  0  0  0
   25.2913    5.6654   60.4736 C   0  0  2  0  0  0  0  0  0  0  0  0
   25.8247    4.3331   60.5458 O   0  0  0  0  0  0  0  0  0  0  0  0
   25.2288    6.1932   58.9804 C   0  0  1  0  0  0  0  0  0  0  0  0
   26.6040    6.2431   58.4707 O   0  0  0  0  0  0  0  0  0  0  0  0
   24.3524    5.3409   58.0346 C   0  0  0  0  0  0  0  0  0  0  0  0
   24.8293    3.9387   57.8893 N   0  3  0  0  0  0  0  0  0  0  0  0
  1  2  1  6  0  0  0
  1  3  1  0  0  0  0
  1 10  1  0  0  0  0
  3  4  1  6  0  0  0
  3  5  1  0  0  0  0
  5  6  1  6  0  0  0
  5  7  1  0  0  0  0
  7  8  1  6  0  0  0
  7  9  1  0  0  0  0
  9 10  1  0  0  0  0
  9 11  1  1  0  0  0
 11 12  1  0  0  0  0
 13 14  1  1  0  0  0
 13 15  1  0  0  0  0
 13 21  1  0  0  0  0
 15 16  1  0  0  0  0
 16 17  1  6  0  0  0
 16 18  1  0  0  0  0
 18  2  1  6  0  0  0
 18 19  1  0  0  0  0
 19 20  1  1  0  0  0
 19 21  1  0  0  0  0
 21 22  1  1  0  0  0
 23 20  1  6  0  0  0
 23 24  1  0  0  0  0
 23 29  1  0  0  0  0
 24 25  1  1  0  0  0
 24 26  1  0  0  0  0
 26 27  1  1  0  0  0
 26 28  1  0  0  0  0
 28 29  1  0  0  0  0
 28 30  1  6  0  0  0
 30 31  1  0  0  0  0
 32 27  1  6  0  0  0
 32 33  1  0  0  0  0
 32 40  1  0  0  0  0
 33 34  1  6  0  0  0
 33 35  1  0  0  0  0
 35 36  1  6  0  0  0
 35 37  1  0  0  0  0
 37 38  1  6  0  0  0
 37 39  1  0  0  0  0
 39 40  1  0  0  0  0
 39 41  1  6  0  0  0
 41 42  1  0  0  0  0
M  CHG  5   4   1  14   1  17   1  34   1  42   1
M  END
>  <CHROM.1>
-162.53249314,-163.76639896,-152.24807172,164.79867656,-176.36795163,64.83242558
-173.34217896,-56.32671058,47.40598495,160.98444135,170.53420489,66.34341734
-179.03347124,164.50368974,-148.24687267,-168.23846996,167.71685560,46.29012891
-175.69492977,64.36263759,-61.40867442,-83.97832314,29.63808746,7.57122080
55.27469199,1.00210478,0.27978486,-1.06331632

>  <Name>
1j7t

>  <RI>
0

>  <Rbt.Current_Directory>
/home/itssahil/PROJECTS/Mol_Feturizer/New_Systems/rnas/1j7t

>  <Rbt.Executable>
rbdock ($Id: //depot/dev/client3/rdock/2013.1/src/exe/rbdock.cxx#4 $)

>  <Rbt.Library>
libRbt.so (2013.1, Build901 2013/11/27)

>  <Rbt.Parameter_File>
/export/apps/rDock/src/rDock_2013.1_src/data/scripts/dock_solv.prm

>  <Rbt.Receptor>
prm/pocket_docking_2.prm

>  <SCORE>
-68.5775

>  <SCORE.INTER>
-49.3919

>  <SCORE.INTER.CONST>
1

>  <SCORE.INTER.POLAR>
-7.8795

>  <SCORE.INTER.ROT>
9

>  <SCORE.INTER.SOLV>
22.0822

>  <SCORE.INTER.VDW>
-23.6236

>  <SCORE.INTER.norm>
-1.176

>  <SCORE.INTRA>
-19.2778

>  <SCORE.INTRA.DIHEDRAL>
-29.152

>  <SCORE.INTRA.DIHEDRAL.0>
46.2143

>  <SCORE.INTRA.POLAR>
-1.05512

>  <SCORE.INTRA.POLAR.0>
-1.76436

>  <SCORE.INTRA.REPUL>
0

>  <SCORE.INTRA.REPUL.0>
0

>  <SCORE.INTRA.SOLV>
0.856717

>  <SCORE.INTRA.SOLV.lig_0>
-148.643

>  <SCORE.INTRA.VDW>
-1.54274

>  <SCORE.INTRA.VDW.0>
-4.83512

>  <SCORE.INTRA.norm>
-0.458995

>  <SCORE.RESTR>
0.09213

>  <SCORE.RESTR.CAVITY>
0.09213

>  <SCORE.RESTR.norm>
0.00219357

>  <SCORE.SYSTEM>
0

>  <SCORE.SYSTEM.CONST>
0

>  <SCORE.SYSTEM.DIHEDRAL>
0

>  <SCORE.SYSTEM.SOLV>
0

>  <SCORE.SYSTEM.norm>
0

>  <SCORE.heavy>
42

>  <SCORE.norm>
-1.6328

>  <RMSD>
0.805

$$$$
1j7t
 OpenBabel11021811393D
libRbt.so/2013.1/901 2013/11/27
 42 45  0  0  0  0  0  0  0  0999 V2000
   30.5261    8.6461   52.7925 C   0  0  2  0  0  0  0  0  0  0  0  0
   31.4861    7.7162   52.2303 O   0  0  0  0  0  0  0  0  0  0  0  0
   29.1552    8.3387   52.1244 C   0  0  2  0  0  0  0  0  0  0  0  0
   28.7285    6.9128   52.2157 N   0  3  0  0  0  0  0  0  0  0  0  0
   29.2572    8.7102   50.6289 C   0  0  1  0  0  0  0  0  0  0  0  0
   28.0423    8.4690   49.9767 O   0  0  0  0  0  0  0  0  0  0  0  0
   29.6722   10.1929   50.4777 C   0  0  2  0  0  0  0  0  0  0  0  0
   29.7507   10.5600   49.1146 O   0  0  0  0  0  0  0  0  0  0  0  0
   31.0192   10.4188   51.1310 C   0  0  2  0  0  0  0  0  0  0  0  0
   30.9558   10.0110   52.4917 O   0  0  0  0  0  0  0  0  0  0  0  0
   31.4428   11.8705   51.1291 C   0  0  0  0  0  0  0  0  0  0  0  0
   31.7010   12.2845   49.8012 O   0  0  0  0  0  0  0  0  0  0  0  0
   34.7315    5.4640   53.7282 C   0  0  2  0  0  0  0  0  0  0  0  0
   35.9784    5.1137   54.4092 N   0  3  0  0  0  0  0  0  0  0  0  0
   35.0219    6.4738   52.5687 C   0  0  0  0  0  0  0  0  0  0  0  0
   33.7057    6.8830   51.8804 C   0  0  2  0  0  0  0  0  0  0  0  0
   33.9537    7.8710   50.8252 N   0  3  0  0  0  0  0  0  0  0  0  0
   32.7220    7.4704   52.9114 C   0  0  2  0  0  0  0  0  0  0  0  0
   32.4387    6.5069   54.0803 C   0  0  2  0  0  0  0  0  0  0  0  0
   31.6412    7.2485   55.0234 O   0  0  0  0  0  0  0  0  0  0  0  0
   33.7661    6.0573   54.7419 C   0  0  1  0  0  0  0  0  0  0  0  0
   33.4882    5.1069   55.7331 O   0  0  0  0  0  0  0  0  0  0  0  0
   30.6826    6.6450   55.8884 C   0  0  1  0  0  0  0  0  0  0  0  0
   30.4143    7.6168   57.0924 C   0  0  2  0  0  0  0  0  0  0  0  0
   31.3043    7.4425   58.1818 O   0  0  0  0  0  0  0  0  0  0  0  0
   28.9725    7.2211   57.3782 C   0  0  2  0  0  0  0  0  0  0  0  0
   28.8956    5.8682   57.9200 O   0  0  0  0  0  0  0  0  0  0  0  0
   28.3511    7.1965   55.9887 C   0  0  2  0  0  0  0  0  0  0  0  0
   29.3866    6.5391   55.2382 O   0  0  0  0  0  0  0  0  0  0  0  0
   27.9829    8.6007   55.4071 C   0  0  0  0  0  0  0  0  0  0  0  0
   27.1256    8.4918   54.2638 O   0  0  0  0  0  0  0  0  0  0  0  0
   27.6740    5.5834   58.5970 C   0  0  2  0  0  0  0  0  0  0  0  0
   27.7129    5.8202   60.1451 C   0  0  2  0  0  0  0  0  0  0  0  0
   28.7719    5.0173   60.8288 N   0  3  0  0  0  0  0  0  0  0  0  0
   26.2883    5.4794   60.6965 C   0  0  1  0  0  0  0  0  0  0  0  0
   25.3423    6.4390   60.0868 O   0  0  0  0  0  0  0  0  0  0  0  0
   25.8312    4.0141   60.3285 C   0  0  2  0  0  0  0  0  0  0  0  0
   26.7191    3.0839   60.9697 O   0  0  0  0  0  0  0  0  0  0  0  0
   25.8663    3.8678   58.7508 C   0  0  1  0  0  0  0  0  0  0  0  0
   27.2286    4.1849   58.3070 O   0  0  0  0  0  0  0  0  0  0  0  0
   25.4583    2.4723   58.2264 C   0  0  0  0  0  0  0  0  0  0  0  0
   25.3490    2.4059   56.7438 N   0  3  0  0  0  0  0  0  0  0  0  0
  1  2  1  6  0  0  0
  1  3  1  0  0  0  0
  1 10  1  0  0  0  0
  3  4  1  6  0  0  0
  3  5  1  0  0  0  0
  5  6  1  1  0  0  0
  5  7  1  0  0  0  0
  7  8  1  6  0  0  0
  7  9  1  0  0  0  0
  9 10  1  0  0  0  0
  9 11  1  1  0  0  0
 11 12  1  0  0  0  0
 13 14  1  1  0  0  0
 13 15  1  0  0  0  0
 13 21  1  0  0  0  0
 15 16  1  0  0  0  0
 16 17  1  6  0  0  0
 16 18  1  0  0  0  0
 18  2  1  6  0  0  0
 18 19  1  0  0  0  0
 19 20  1  1  0  0  0
 19 21  1  0  0  0  0
 21 22  1  1  0  0  0
 23 20  1  6  0  0  0
 23 24  1  0  0  0  0
 23 29  1  0  0  0  0
 24 25  1  1  0  0  0
 24 26  1  0  0  0  0
 26 27  1  6  0  0  0
 26 28  1  0  0  0  0
 28 29  1  0  0  0  0
 28 30  1  6  0  0  0
 30 31  1  0  0  0  0
 32 27  1  1  0  0  0
 32 33  1  0  0  0  0
 32 40  1  0  0  0  0
 33 34  1  1  0  0  0
 33 35  1  0  0  0  0
 35 36  1  6  0  0  0
 35 37  1  0  0  0  0
 37 38  1  1  0  0  0
 37 39  1  0  0  0  0
 39 40  1  0  0  0  0
 39 41  1  1  0  0  0
 41 42  1  0  0  0  0
M  CHG  5   4   1  14   1  17   1  34   1  42   1
M  END
>  <CHROM.1>
-161.25892758,-159.96985129,-64.45040723,63.95307725,-55.52809770,-67.67075037
61.49565819,64.73111829,176.70909714,150.28890489,159.26772840,-58.35589648
-161.33951726,161.11373297,-93.83834698,-166.04869367,-176.41916950,41.74835118
65.84724192,179.35861735,173.40210159,-170.50050496,29.85806592,6.95002947
55.00743333,1.07293526,0.19210684,-0.96348059

>  <Name>
1j7t

>  <RI>
0

>  <Rbt.Current_Directory>
/home/itssahil/PROJECTS/Mol_Feturizer/New_Systems/rnas/1j7t

>  <Rbt.Executable>
rbdock ($Id: //depot/dev/client3/rdock/2013.1/src/exe/rbdock.cxx#4 $)

>  <Rbt.Library>
libRbt.so (2013.1, Build901 2013/11/27)

>  <Rbt.Parameter_File>
/export/apps/rDock/src/rDock_2013.1_src/data/scripts/dock_solv.prm

>  <Rbt.Receptor>
prm/pocket_docking_2.prm

>  <SCORE>
-68.2973

>  <SCORE.INTER>
-49.0182

>  <SCORE.INTER.CONST>
1

>  <SCORE.INTER.POLAR>
-7.42696

>  <SCORE.INTER.ROT>
9

>  <SCORE.INTER.SOLV>
22.0983

>  <SCORE.INTER.VDW>
-24.8883

>  <SCORE.INTER.norm>
-1.1671

>  <SCORE.INTRA>
-19.3011

>  <SCORE.INTRA.DIHEDRAL>
-26.8452

>  <SCORE.INTRA.DIHEDRAL.0>
46.2143

>  <SCORE.INTRA.POLAR>
-0.620754

>  <SCORE.INTRA.POLAR.0>
-1.76436

>  <SCORE.INTRA.REPUL>
0.00419311

>  <SCORE.INTRA.REPUL.0>
0

>  <SCORE.INTRA.SOLV>
-2.45387

>  <SCORE.INTRA.SOLV.lig_0>
-148.643

>  <SCORE.INTRA.VDW>
-2.56197

>  <SCORE.INTRA.VDW.0>
-4.83512

>  <SCORE.INTRA.norm>
-0.45955

>  <SCORE.RESTR>
0.0219471

>  <SCORE.RESTR.CAVITY>
0.0219471

>  <SCORE.RESTR.norm>
0.000522551

>  <SCORE.SYSTEM>
0

>  <SCORE.SYSTEM.CONST>
0

>  <SCORE.SYSTEM.DIHEDRAL>
0

>  <SCORE.SYSTEM.SOLV>
0

>  <SCORE.SYSTEM.norm>
0

>  <SCORE.heavy>
42

>  <SCORE.norm>
-1.62613

>  <RMSD>
0.812

$$$$
1j7t
 OpenBabel11021811393D
libRbt.so/2013.1/901 2013/11/27
 42 45  0  0  0  0  0  0  0  0999 V2000
   30.4671    8.7365   52.9080 C   0  0  2  0  0  0  0  0  0  0  0  0
   31.4148    7.7512   52.4248 O   0  0  0  0  0  0  0  0  0  0  0  0
   29.0798    8.3576   52.3147 C   0  0  2  0  0  0  0  0  0  0  0  0
   28.6604    6.9501   52.5722 N   0  3  0  0  0  0  0  0  0  0  0  0
   29.1405    8.5640   50.7854 C   0  0  1  0  0  0  0  0  0  0  0  0
   27.9094    8.2527   50.1963 O   0  0  0  0  0  0  0  0  0  0  0  0
   29.5465   10.0215   50.4624 C   0  0  2  0  0  0  0  0  0  0  0  0
   29.5872   10.2378   49.0658 O   0  0  0  0  0  0  0  0  0  0  0  0
   30.9097   10.3177   51.0506 C   0  0  2  0  0  0  0  0  0  0  0  0
   30.8841   10.0606   52.4489 O   0  0  0  0  0  0  0  0  0  0  0  0
   31.3283   11.7607   50.8792 C   0  0  0  0  0  0  0  0  0  0  0  0
   32.7339   11.8616   51.0029 O   0  0  0  0  0  0  0  0  0  0  0  0
   34.2489    5.3364   54.4211 C   0  0  2  0  0  0  0  0  0  0  0  0
   35.4113    4.9286   55.2109 N   0  3  0  0  0  0  0  0  0  0  0  0
   34.7169    6.0916   53.1330 C   0  0  0  0  0  0  0  0  0  0  0  0
   33.4949    6.5654   52.3232 C   0  0  2  0  0  0  0  0  0  0  0  0
   33.9149    7.3224   51.1393 N   0  3  0  0  0  0  0  0  0  0  0  0
   32.5818    7.4471   53.1976 C   0  0  2  0  0  0  0  0  0  0  0  0
   32.1274    6.7376   54.4881 C   0  0  2  0  0  0  0  0  0  0  0  0
   31.4236    7.7290   55.2610 O   0  0  0  0  0  0  0  0  0  0  0  0
   33.3552    6.2184   55.2785 C   0  0  1  0  0  0  0  0  0  0  0  0
   32.9129    5.4918   56.3918 O   0  0  0  0  0  0  0  0  0  0  0  0
   30.4614    7.4079   56.2622 C   0  0  1  0  0  0  0  0  0  0  0  0
   30.0500    8.7304   57.0022 C   0  0  2  0  0  0  0  0  0  0  0  0
   30.8828    9.0577   58.1014 O   0  0  0  0  0  0  0  0  0  0  0  0
   28.6265    8.3408   57.3752 C   0  0  2  0  0  0  0  0  0  0  0  0
   28.6168    7.2875   58.3852 O   0  0  0  0  0  0  0  0  0  0  0  0
   28.0939    7.7422   56.0808 C   0  0  2  0  0  0  0  0  0  0  0  0
   29.2186    6.9492   55.6637 O   0  0  0  0  0  0  0  0  0  0  0  0
   27.6591    8.7876   55.0019 C   0  0  0  0  0  0  0  0  0  0  0  0
   26.4968    9.5190   55.4118 O   0  0  0  0  0  0  0  0  0  0  0  0
   27.3717    7.1471   59.0645 C   0  0  2  0  0  0  0  0  0  0  0  0
   27.4916    6.7606   60.5780 C   0  0  2  0  0  0  0  0  0  0  0  0
   28.2368    5.4833   60.7937 N   0  3  0  0  0  0  0  0  0  0  0  0
   26.0356    6.6789   61.1466 C   0  0  1  0  0  0  0  0  0  0  0  0
   25.4483    8.0322   61.0408 O   0  0  0  0  0  0  0  0  0  0  0  0
   25.1277    5.6684   60.3431 C   0  0  2  0  0  0  0  0  0  0  0  0
   25.6697    4.3464   60.4956 O   0  0  0  0  0  0  0  0  0  0  0  0
   25.1070    6.1233   58.8250 C   0  0  1  0  0  0  0  0  0  0  0  0
   26.4967    6.1622   58.3555 O   0  0  0  0  0  0  0  0  0  0  0  0
   24.2673    5.2181   57.8951 C   0  0  0  0  0  0  0  0  0  0  0  0
   23.8603    3.9345   58.5286 N   0  3  0  0  0  0  0  0  0  0  0  0
  1  2  1  6  0  0  0
  1  3  1  0  0  0  0
  1 10  1  0  0  0  0
  3  4  1  6  0  0  0
  3  5  1  0  0  0  0
  5  6  1  6  0  0  0
  5  7  1  0  0  0  0
  7  8  1  6  0  0  0
  7  9  1  0  0  0  0
  9 10  1  0  0  0  0
  9 11  1  1  0  0  0
 11 12  1  0  0  0  0
 13 14  1  1  0  0  0
 13 15  1  0  0  0  0
 13 21  1  0  0  0  0
 15 16  1  0  0  0  0
 16 17  1  6  0  0  0
 16 18  1  0  0  0  0
 18  2  1  6  0  0  0
 18 19  1  0  0  0  0
 19 20  1  1  0  0  0
 19 21  1  0  0  0  0
 21 22  1  1  0  0  0
 23 20  1  6  0  0  0
 23 24  1  0  0  0  0
 23 29  1  0  0  0  0
 24 25  1  1  0  0  0
 24 26  1  0  0  0  0
 26 27  1  1  0  0  0
 26 28  1  0  0  0  0
 28 29  1  0  0  0  0
 28 30  1  6  0  0  0
 30 31  1  0  0  0  0
 32 27  1  6  0  0  0
 32 33  1  0  0  0  0
 32 40  1  0  0  0  0
 33 34  1  6  0  0  0
 33 35  1  0  0  0  0
 35 36  1  6  0  0  0
 35 37  1  0  0  0  0
 37 38  1  6  0  0  0
 37 39  1  0  0  0  0
 39 40  1  0  0  0  0
 39 41  1  6  0  0  0
 41 42  1  0  0  0  0
M  CHG  5   4   1  14   1  17   1  34   1  42   1
M  END
>  <CHROM.1>
-152.47153610,-170.44899145,-63.85116675,66.25267846,59.91131426,-159.41257780
179.51866104,176.34110125,41.99194724,157.11547975,172.99107509,-65.00335478
-63.95089815,162.40492190,-144.56524463,-68.01250472,-174.65602863,-75.96140624
-173.63579560,68.14657055,-11.87647903,-167.91015065,29.53330417,7.51367755
55.32042434,0.94655420,0.25303802,-1.07654926

>  <Name>
1j7t

>  <RI>
0

>  <Rbt.Current_Directory>
/home/itssahil/PROJECTS/Mol_Feturizer/New_Systems/rnas/1j7t

>  <Rbt.Executable>
rbdock ($Id: //depot/dev/client3/rdock/2013.1/src/exe/rbdock.cxx#4 $)

>  <Rbt.Library>
libRbt.so (2013.1, Build901 2013/11/27)

>  <Rbt.Parameter_File>
/export/apps/rDock/src/rDock_2013.1_src/data/scripts/dock_solv.prm

>  <Rbt.Receptor>
prm/pocket_docking_2.prm

>  <SCORE>
-69.8695

>  <SCORE.INTER>
-53.3186

>  <SCORE.INTER.CONST>
1

>  <SCORE.INTER.POLAR>
-8.11293

>  <SCORE.INTER.ROT>
9

>  <SCORE.INTER.SOLV>
21.071

>  <SCORE.INTER.VDW>
-25.1263

>  <SCORE.INTER.norm>
-1.26949

>  <SCORE.INTRA>
-16.6042

>  <SCORE.INTRA.DIHEDRAL>
-24.2798

>  <SCORE.INTRA.DIHEDRAL.0>
46.2143

>  <SCORE.INTRA.POLAR>
-0.515316

>  <SCORE.INTRA.POLAR.0>
-1.76436

>  <SCORE.INTRA.REPUL>
0

>  <SCORE.INTRA.REPUL.0>
0

>  <SCORE.INTRA.SOLV>
-1.73673

>  <SCORE.INTRA.SOLV.lig_0>
-148.643

>  <SCORE.INTRA.VDW>
-1.84389

>  <SCORE.INTRA.VDW.0>
-4.83512

>  <SCORE.INTRA.norm>
-0.395339

>  <SCORE.RESTR>
0.0533127

>  <SCORE.RESTR.CAVITY>
0.0533127

>  <SCORE.RESTR.norm>
0.00126935

>  <SCORE.SYSTEM>
0

>  <SCORE.SYSTEM.CONST>
0

>  <SCORE.SYSTEM.DIHEDRAL>
0

>  <SCORE.SYSTEM.SOLV>
0

>  <SCORE.SYSTEM.norm>
0

>  <SCORE.heavy>
42

>  <SCORE.norm>
-1.66356

>  <RMSD>
0.818

$$$$
1j7t
 OpenBabel11021811393D
libRbt.so/2013.1/901 2013/11/27
 42 45  0  0  0  0  0  0  0  0999 V2000
   30.5728    8.8582   52.8447 C   0  0  2  0  0  0  0  0  0  0  0  0
   31.4206    7.7573   52.4302 O   0  0  0  0  0  0  0  0  0  0  0  0
   29.1642    8.5964   52.2386 C   0  0  2  0  0  0  0  0  0  0  0  0
   28.5952    7.2543   52.5527 N   0  3  0  0  0  0  0  0  0  0  0  0
   29.2731    8.7197   50.7031 C   0  0  1  0  0  0  0  0  0  0  0  0
   28.0268    8.5091   50.1016 O   0  0  0  0  0  0  0  0  0  0  0  0
   29.8350   10.1096   50.3210 C   0  0  2  0  0  0  0  0  0  0  0  0
   29.9227   10.2514   48.9169 O   0  0  0  0  0  0  0  0  0  0  0  0
   31.2111   10.2915   50.9253 C   0  0  2  0  0  0  0  0  0  0  0  0
   31.1341   10.1077   52.3332 O   0  0  0  0  0  0  0  0  0  0  0  0
   31.7814   11.6731   50.6954 C   0  0  0  0  0  0  0  0  0  0  0  0
   31.0316   12.6209   51.4307 O   0  0  0  0  0  0  0  0  0  0  0  0
   34.2054    5.2685   54.4046 C   0  0  2  0  0  0  0  0  0  0  0  0
   35.3590    4.8304   55.1911 N   0  3  0  0  0  0  0  0  0  0  0  0
   34.6891    6.0268   53.1242 C   0  0  0  0  0  0  0  0  0  0  0  0
   33.4772    6.5323   52.3183 C   0  0  2  0  0  0  0  0  0  0  0  0
   33.9128    7.2923   51.1421 N   0  3  0  0  0  0  0  0  0  0  0  0
   32.5807    7.4230   53.2007 C   0  0  2  0  0  0  0  0  0  0  0  0
   32.1115    6.7100   54.4840 C   0  0  2  0  0  0  0  0  0  0  0  0
   31.4266    7.7074   55.2660 O   0  0  0  0  0  0  0  0  0  0  0  0
   33.3284    6.1593   55.2700 C   0  0  1  0  0  0  0  0  0  0  0  0
   32.8711    5.4308   56.3759 O   0  0  0  0  0  0  0  0  0  0  0  0
   30.4617    7.3952   56.2673 C   0  0  1  0  0  0  0  0  0  0  0  0
   30.0675    8.7205   57.0119 C   0  0  2  0  0  0  0  0  0  0  0  0
   30.9056    9.0340   58.1111 O   0  0  0  0  0  0  0  0  0  0  0  0
   28.6397    8.3473   57.3853 C   0  0  2  0  0  0  0  0  0  0  0  0
   28.6181    7.2912   58.3922 O   0  0  0  0  0  0  0  0  0  0  0  0
   28.0983    7.7595   56.0897 C   0  0  2  0  0  0  0  0  0  0  0  0
   29.2125    6.9538   55.6689 O   0  0  0  0  0  0  0  0  0  0  0  0
   27.6753    8.8134   55.0145 C   0  0  0  0  0  0  0  0  0  0  0  0
   26.5060    9.5386   55.4156 O   0  0  0  0  0  0  0  0  0  0  0  0
   27.3621    7.1424   59.0494 C   0  0  2  0  0  0  0  0  0  0  0  0
   27.4574    6.7313   60.5581 C   0  0  2  0  0  0  0  0  0  0  0  0
   28.1970    5.4493   60.7650 N   0  3  0  0  0  0  0  0  0  0  0  0
   25.9925    6.6434   61.1023 C   0  0  1  0  0  0  0  0  0  0  0  0
   25.4093    7.9994   61.0090 O   0  0  0  0  0  0  0  0  0  0  0  0
   25.0957    5.6477   60.2683 C   0  0  2  0  0  0  0  0  0  0  0  0
   25.6329    4.3223   60.4081 O   0  0  0  0  0  0  0  0  0  0  0  0
   25.0997    6.1270   58.7576 C   0  0  1  0  0  0  0  0  0  0  0  0
   26.4968    6.1707   58.3108 O   0  0  0  0  0  0  0  0  0  0  0  0
   24.2734    5.2385   57.8002 C   0  0  0  0  0  0  0  0  0  0  0  0
   25.0374    4.0819   57.2587 N   0  3  0  0  0  0  0  0  0  0  0  0
  1  2  1  6  0  0  0
  1  3  1  0  0  0  0
  1 10  1  0  0  0  0
  3  4  1  6  0  0  0
  3  5  1  0  0  0  0
  5  6  1  6  0  0  0
  5  7  1  0  0  0  0
  7  8  1  6  0  0  0
  7  9  1  0  0  0  0
  9 10  1  0  0  0  0
  9 11  1  1  0  0  0
 11 12  1  0  0  0  0
 13 14  1  1  0  0  0
 13 15  1  0  0  0  0
 13 21  1  0  0  0  0
 15 16  1  0  0  0  0
 16 17  1  6  0  0  0
 16 18  1  0  0  0  0
 18  2  1  6  0  0  0
 18 19  1  0  0  0  0
 19 20  1  1  0  0  0
 19 21  1  0  0  0  0
 21 22  1  1  0  0  0
 23 20  1  6  0  0  0
 23 24  1  0  0  0  0
 23 29  1  0  0  0  0
 24 25  1  1  0  0  0
 24 26  1  0  0  0  0
 26 27  1  1  0  0  0
 26 28  1  0  0  0  0
 28 29  1  0  0  0  0
 28 30  1  6  0  0  0
 30 31  1  0  0  0  0
 32 27  1  6  0  0  0
 32 33  1  0  0  0  0
 32 40  1  0  0  0  0
 33 34  1  6  0  0  0
 33 35  1  0  0  0  0
 35 36  1  6  0  0  0
 35 37  1  0  0  0  0
 37 38  1  6  0  0  0
 37 39  1  0  0  0  0
 39 40  1  0  0  0  0
 39 41  1  6  0  0  0
 41 42  1  0  0  0  0
M  CHG  5   4   1  14   1  17   1  34   1  42   1
M  END
>  <CHROM.1>
-156.15538453,-163.54113666,165.92470969,63.21431224,176.64058592,68.03516374
-177.51282650,-176.17971980,165.11761108,157.38896862,173.36034776,-58.87096536
-65.42747315,163.87043683,-145.43427559,-69.23003777,-172.71585162,39.95987047
-173.33830509,176.65585558,-86.42672627,77.43871139,29.55899147,7.55259483
55.25738972,0.96060771,0.30920551,-1.03767921

>  <Name>
1j7t

>  <RI>
0

>  <Rbt.Current_Directory>
/home/itssahil/PROJECTS/Mol_Feturizer/New_Systems/rnas/1j7t

>  <Rbt.Executable>
rbdock ($Id: //depot/dev/client3/rdock/2013.1/src/exe/rbdock.cxx#4 $)

>  <Rbt.Library>
libRbt.so (2013.1, Build901 2013/11/27)

>  <Rbt.Parameter_File>
/export/apps/rDock/src/rDock_2013.1_src/data/scripts/dock_solv.prm

>  <Rbt.Receptor>
prm/pocket_docking_2.prm

>  <SCORE>
-69.0405

>  <SCORE.INTER>
-51.9204

>  <SCORE.INTER.CONST>
1

>  <SCORE.INTER.POLAR>
-8.1892

>  <SCORE.INTER.ROT>
9

>  <SCORE.INTER.SOLV>
22.549

>  <SCORE.INTER.VDW>
-24.4326

>  <SCORE.INTER.norm>
-1.2362

>  <SCORE.INTRA>
-17.1769

>  <SCORE.INTRA.DIHEDRAL>
-27.6447

>  <SCORE.INTRA.DIHEDRAL.0>
46.2143

>  <SCORE.INTRA.POLAR>
-0.332622

>  <SCORE.INTRA.POLAR.0>
-1.76436

>  <SCORE.INTRA.REPUL>
0.0194901

>  <SCORE.INTRA.REPUL.0>
0

>  <SCORE.INTRA.SOLV>
-1.21575

>  <SCORE.INTRA.SOLV.lig_0>
-148.643

>  <SCORE.INTRA.VDW>
-1.71323

>  <SCORE.INTRA.VDW.0>
-4.83512

>  <SCORE.INTRA.norm>
-0.408975

>  <SCORE.RESTR>
0.0567581

>  <SCORE.RESTR.CAVITY>
0.0567581

>  <SCORE.RESTR.norm>
0.00135138

>  <SCORE.SYSTEM>
0

>  <SCORE.SYSTEM.CONST>
0

>  <SCORE.SYSTEM.DIHEDRAL>
0

>  <SCORE.SYSTEM.SOLV>
0

>  <SCORE.SYSTEM.norm>
0

>  <SCORE.heavy>
42

>  <SCORE.norm>
-1.64382

>  <RMSD>
0.820

$$$$
1j7t
 OpenBabel11021811393D
libRbt.so/2013.1/901 2013/11/27
 42 45  0  0  0  0  0  0  0  0999 V2000
   30.5344    9.1647   52.5639 C   0  0  2  0  0  0  0  0  0  0  0  0
   31.3870    8.0648   52.1569 O   0  0  0  0  0  0  0  0  0  0  0  0
   29.1844    8.9923   51.8103 C   0  0  2  0  0  0  0  0  0  0  0  0
   28.5501    7.6530   51.9760 N   0  3  0  0  0  0  0  0  0  0  0  0
   29.4451    9.2124   50.3042 C   0  0  1  0  0  0  0  0  0  0  0  0
   28.2575    9.0851   49.5741 O   0  0  0  0  0  0  0  0  0  0  0  0
   30.0803   10.6042   50.0736 C   0  0  2  0  0  0  0  0  0  0  0  0
   30.3078   10.8348   48.6973 O   0  0  0  0  0  0  0  0  0  0  0  0
   31.3960   10.6981   50.8167 C   0  0  2  0  0  0  0  0  0  0  0  0
   31.1777   10.4249   52.1950 O   0  0  0  0  0  0  0  0  0  0  0  0
   32.0246   12.0713   50.7376 C   0  0  0  0  0  0  0  0  0  0  0  0
   31.3325   12.9567   51.5968 O   0  0  0  0  0  0  0  0  0  0  0  0
   34.1706    5.5616   54.1149 C   0  0  2  0  0  0  0  0  0  0  0  0
   35.3138    5.1182   54.9135 N   0  3  0  0  0  0  0  0  0  0  0  0
   34.6693    6.3687   52.8707 C   0  0  0  0  0  0  0  0  0  0  0  0
   33.4670    6.8790   52.0535 C   0  0  2  0  0  0  0  0  0  0  0  0
   33.9154    7.6837   50.9123 N   0  3  0  0  0  0  0  0  0  0  0  0
   32.5354    7.7257   52.9429 C   0  0  2  0  0  0  0  0  0  0  0  0
   32.0502    6.9641   54.1918 C   0  0  2  0  0  0  0  0  0  0  0  0
   31.3304    7.9241   54.9890 O   0  0  0  0  0  0  0  0  0  0  0  0
   33.2587    6.4092   54.9877 C   0  0  1  0  0  0  0  0  0  0  0  0
   32.7897    5.6379   56.0593 O   0  0  0  0  0  0  0  0  0  0  0  0
   30.5872    7.5783   56.1549 C   0  0  1  0  0  0  0  0  0  0  0  0
   29.9939    8.8924   56.7773 C   0  0  2  0  0  0  0  0  0  0  0  0
   30.8634    9.5402   57.6902 O   0  0  0  0  0  0  0  0  0  0  0  0
   28.7426    8.2940   57.4045 C   0  0  2  0  0  0  0  0  0  0  0  0
   29.0806    7.4262   58.5281 O   0  0  0  0  0  0  0  0  0  0  0  0
   28.1988    7.4122   56.2891 C   0  0  2  0  0  0  0  0  0  0  0  0
   29.4087    6.7997   55.8108 O   0  0  0  0  0  0  0  0  0  0  0  0
   27.4234    8.1749   55.1654 C   0  0  0  0  0  0  0  0  0  0  0  0
   28.1859    9.2723   54.6475 O   0  0  0  0  0  0  0  0  0  0  0  0
   27.9520    6.9773   59.2738 C   0  0  2  0  0  0  0  0  0  0  0  0
   28.2965    6.3412   60.6634 C   0  0  2  0  0  0  0  0  0  0  0  0
   29.2222    5.1731   60.5538 N   0  3  0  0  0  0  0  0  0  0  0  0
   26.9398    5.9378   61.3315 C   0  0  1  0  0  0  0  0  0  0  0  0
   26.1724    7.1833   61.5495 O   0  0  0  0  0  0  0  0  0  0  0  0
   26.0844    4.9675   60.4270 C   0  0  2  0  0  0  0  0  0  0  0  0
   26.8086    3.7370   60.2649 O   0  0  0  0  0  0  0  0  0  0  0  0
   25.8281    5.6858   59.0377 C   0  0  1  0  0  0  0  0  0  0  0  0
   27.1368    6.0194   58.4637 O   0  0  0  0  0  0  0  0  0  0  0  0
   25.0116    4.8513   58.0248 C   0  0  0  0  0  0  0  0  0  0  0  0
   23.5491    4.8517   58.3003 N   0  3  0  0  0  0  0  0  0  0  0  0
  1  2  1  6  0  0  0
  1  3  1  0  0  0  0
  1 10  1  0  0  0  0
  3  4  1  6  0  0  0
  3  5  1  0  0  0  0
  5  6  1  6  0  0  0
  5  7  1  0  0  0  0
  7  8  1  6  0  0  0
  7  9  1  0  0  0  0
  9 10  1  0  0  0  0
  9 11  1  1  0  0  0
 11 12  1  0  0  0  0
 13 14  1  1  0  0  0
 13 15  1  0  0  0  0
 13 21  1  0  0  0  0
 15 16  1  0  0  0  0
 16 17  1  6  0  0  0
 16 18  1  0  0  0  0
 18  2  1  6  0  0  0
 18 19  1  0  0  0  0
 19 20  1  1  0  0  0
 19 21  1  0  0  0  0
 21 22  1  1  0  0  0
 23 20  1  6  0  0  0
 23 24  1  0  0  0  0
 23 29  1  0  0  0  0
 24 25  1  1  0  0  0
 24 26  1  0  0  0  0
 26 27  1  1  0  0  0
 26 28  1  0  0  0  0
 28 29  1  0  0  0  0
 28 30  1  6  0  0  0
 30 31  1  0  0  0  0
 32 27  1  6  0  0  0
 32 33  1  0  0  0  0
 32 40  1  0  0  0  0
 33 34  1  6  0  0  0
 33 35  1  0  0  0  0
 35 36  1  6  0  0  0
 35 37  1  0  0  0  0
 37 38  1  6  0  0  0
 37 39  1  0  0  0  0
 39 40  1  0  0  0  0
 39 41  1  6  0  0  0
 41 42  1  0  0  0  0
M  CHG  5   4   1  14   1  17   1  34   1  42   1
M  END
>  <CHROM.1>
-162.30280964,-161.59580173,-172.01729383,54.05325461,64.55410270,75.39611681
80.35657666,70.12112690,-64.10415694,172.35867277,177.84923531,71.76712906
-175.77285084,171.92981643,-166.00480000,51.53483857,-175.03309133,162.46250526
-174.60234731,-177.55701480,78.36546845,-174.02290350,29.80770994,7.64595995
55.16284067,1.07747276,0.26469849,-1.02942415

>  <Name>
1j7t

>  <RI>
0

>  <Rbt.Current_Directory>
/home/itssahil/PROJECTS/Mol_Feturizer/New_Systems/rnas/1j7t

>  <Rbt.Executable>
rbdock ($Id: //depot/dev/client3/rdock/2013.1/src/exe/rbdock.cxx#4 $)

>  <Rbt.Library>
libRbt.so (2013.1, Build901 2013/11/27)

>  <Rbt.Parameter_File>
/export/apps/rDock/src/rDock_2013.1_src/data/scripts/dock_solv.prm

>  <Rbt.Receptor>
prm/pocket_docking_2.prm

>  <SCORE>
-70.9779

>  <SCORE.INTER>
-54.1989

>  <SCORE.INTER.CONST>
1

>  <SCORE.INTER.POLAR>
-8.28058

>  <SCORE.INTER.ROT>
9

>  <SCORE.INTER.SOLV>
26.9102

>  <SCORE.INTER.VDW>
-27.1008

>  <SCORE.INTER.norm>
-1.29045

>  <SCORE.INTRA>
-16.8052

>  <SCORE.INTRA.DIHEDRAL>
-34.3341

>  <SCORE.INTRA.DIHEDRAL.0>
46.2143

>  <SCORE.INTRA.POLAR>
0.902452

>  <SCORE.INTRA.POLAR.0>
-1.76436

>  <SCORE.INTRA.REPUL>
0

>  <SCORE.INTRA.REPUL.0>
0

>  <SCORE.INTRA.SOLV>
-2.12386

>  <SCORE.INTRA.SOLV.lig_0>
-148.643

>  <SCORE.INTRA.VDW>
-1.64461

>  <SCORE.INTRA.VDW.0>
-4.83512

>  <SCORE.INTRA.norm>
-0.400125

>  <SCORE.RESTR>
0.0262059

>  <SCORE.RESTR.CAVITY>
0.0262059

>  <SCORE.RESTR.norm>
0.00062395

>  <SCORE.SYSTEM>
0

>  <SCORE.SYSTEM.CONST>
0

>  <SCORE.SYSTEM.DIHEDRAL>
0

>  <SCORE.SYSTEM.SOLV>
0

>  <SCORE.SYSTEM.norm>
0

>  <SCORE.heavy>
42

>  <SCORE.norm>
-1.68995

>  <RMSD>
0.829

$$$$
1j7t
 OpenBabel11021811393D
libRbt.so/2013.1/901 2013/11/27
 42 45  0  0  0  0  0  0  0  0999 V2000
   30.5662    9.0788   52.8270 C   0  0  2  0  0  0  0  0  0  0  0  0
   31.3746    7.9522   52.4030 O   0  0  0  0  0  0  0  0  0  0  0  0
   29.1271    8.8287   52.2918 C   0  0  2  0  0  0  0  0  0  0  0  0
   28.5493    7.5058   52.6655 N   0  3  0  0  0  0  0  0  0  0  0  0
   29.1682    8.9118   50.7503 C   0  0  1  0  0  0  0  0  0  0  0  0
   27.8923    8.7099   50.2111 O   0  0  0  0  0  0  0  0  0  0  0  0
   29.7367   10.2809   50.3077 C   0  0  2  0  0  0  0  0  0  0  0  0
   29.7630   10.3862   48.8980 O   0  0  0  0  0  0  0  0  0  0  0  0
   31.1419   10.4517   50.8446 C   0  0  2  0  0  0  0  0  0  0  0  0
   31.1258   10.3044   52.2588 O   0  0  0  0  0  0  0  0  0  0  0  0
   31.7256   11.8162   50.5539 C   0  0  0  0  0  0  0  0  0  0  0  0
   31.3013   12.7314   51.5457 O   0  0  0  0  0  0  0  0  0  0  0  0
   34.1067    5.3473   54.3000 C   0  0  2  0  0  0  0  0  0  0  0  0
   35.2465    4.8619   55.0788 N   0  3  0  0  0  0  0  0  0  0  0  0
   34.6130    6.1506   53.0564 C   0  0  0  0  0  0  0  0  0  0  0  0
   33.4160    6.7049   52.2605 C   0  0  2  0  0  0  0  0  0  0  0  0
   33.8733    7.5064   51.1205 N   0  3  0  0  0  0  0  0  0  0  0  0
   32.5226    7.5710   53.1701 C   0  0  2  0  0  0  0  0  0  0  0  0
   32.0313    6.8127   54.4186 C   0  0  2  0  0  0  0  0  0  0  0  0
   31.3517    7.7864   55.2343 O   0  0  0  0  0  0  0  0  0  0  0  0
   33.2328    6.2139   55.1929 C   0  0  1  0  0  0  0  0  0  0  0  0
   32.7550    5.4470   56.2637 O   0  0  0  0  0  0  0  0  0  0  0  0
   30.4265    7.4427   56.2624 C   0  0  1  0  0  0  0  0  0  0  0  0
   30.0267    8.7514   57.0329 C   0  0  2  0  0  0  0  0  0  0  0  0
   30.8922    9.0731   58.1082 O   0  0  0  0  0  0  0  0  0  0  0  0
   28.6203    8.3423   57.4475 C   0  0  2  0  0  0  0  0  0  0  0  0
   28.6545    7.2761   58.4434 O   0  0  0  0  0  0  0  0  0  0  0  0
   28.0511    7.7549   56.1637 C   0  0  2  0  0  0  0  0  0  0  0  0
   29.1691    6.9789   55.6993 O   0  0  0  0  0  0  0  0  0  0  0  0
   27.5705    8.8094   55.1135 C   0  0  0  0  0  0  0  0  0  0  0  0
   26.5374    9.6503   55.6424 O   0  0  0  0  0  0  0  0  0  0  0  0
   27.4263    7.0980   59.1443 C   0  0  2  0  0  0  0  0  0  0  0  0
   27.5788    6.8853   60.6889 C   0  0  2  0  0  0  0  0  0  0  0  0
   28.4351    5.7093   61.0313 N   0  3  0  0  0  0  0  0  0  0  0  0
   26.1355    6.7348   61.2753 C   0  0  1  0  0  0  0  0  0  0  0  0
   25.4297    8.0117   61.0329 O   0  0  0  0  0  0  0  0  0  0  0  0
   25.3222    5.5684   60.5901 C   0  0  2  0  0  0  0  0  0  0  0  0
   25.9801    4.3234   60.8761 O   0  0  0  0  0  0  0  0  0  0  0  0
   25.2623    5.8572   59.0329 C   0  0  1  0  0  0  0  0  0  0  0  0
   26.6435    5.9699   58.5501 O   0  0  0  0  0  0  0  0  0  0  0  0
   24.5078    4.7879   58.2105 C   0  0  0  0  0  0  0  0  0  0  0  0
   24.2481    5.1978   56.8037 N   0  3  0  0  0  0  0  0  0  0  0  0
  1  2  1  6  0  0  0
  1  3  1  0  0  0  0
  1 10  1  0  0  0  0
  3  4  1  6  0  0  0
  3  5  1  0  0  0  0
  5  6  1  6  0  0  0
  5  7  1  0  0  0  0
  7  8  1  6  0  0  0
  7  9  1  0  0  0  0
  9 10  1  0  0  0  0
  9 11  1  1  0  0  0
 11 12  1  0  0  0  0
 13 14  1  1  0  0  0
 13 15  1  0  0  0  0
 13 21  1  0  0  0  0
 15 16  1  0  0  0  0
 16 17  1  6  0  0  0
 16 18  1  0  0  0  0
 18  2  1  6  0  0  0
 18 19  1  0  0  0  0
 19 20  1  1  0  0  0
 19 21  1  0  0  0  0
 21 22  1  1  0  0  0
 23 20  1  6  0  0  0
 23 24  1  0  0  0  0
 23 29  1  0  0  0  0
 24 25  1  1  0  0  0
 24 26  1  0  0  0  0
 26 27  1  1  0  0  0
 26 28  1  0  0  0  0
 28 29  1  0  0  0  0
 28 30  1  6  0  0  0
 30 31  1  0  0  0  0
 32 27  1  6  0  0  0
 32 33  1  0  0  0  0
 32 40  1  0  0  0  0
 33 34  1  6  0  0  0
 33 35  1  0  0  0  0
 35 36  1  6  0  0  0
 35 37  1  0  0  0  0
 37 38  1  6  0  0  0
 37 39  1  0  0  0  0
 39 40  1  0  0  0  0
 39 41  1  6  0  0  0
 41 42  1  0  0  0  0
M  CHG  5   4   1  14   1  17   1  34   1  42   1
M  END
>  <CHROM.1>
-152.81106355,-161.20995528,-82.53135003,-178.53195972,179.06799047,84.21793577
68.63729239,60.40476335,44.61435735,160.91492495,173.50288600,-57.39138591
-63.68514362,163.50483795,-136.73195261,-59.83347050,-60.08761669,46.26874260
-171.06193900,76.71666622,169.41629927,-67.03486338,29.54288851,7.65207930
55.30511070,0.99183644,0.30284349,-1.05030519

>  <Name>
1j7t

>  <RI>
0

>  <Rbt.Current_Directory>
/home/itssahil/PROJECTS/Mol_Feturizer/New_Systems/rnas/1j7t

>  <Rbt.Executable>
rbdock ($Id: //depot/dev/client3/rdock/2013.1/src/exe/rbdock.cxx#4 $)

>  <Rbt.Library>
libRbt.so (2013.1, Build901 2013/11/27)

>  <Rbt.Parameter_File>
/export/apps/rDock/src/rDock_2013.1_src/data/scripts/dock_solv.prm

>  <Rbt.Receptor>
prm/pocket_docking_2.prm

>  <SCORE>
-71.1218

>  <SCORE.INTER>
-55.2782

>  <SCORE.INTER.CONST>
1

>  <SCORE.INTER.POLAR>
-8.59389

>  <SCORE.INTER.ROT>
9

>  <SCORE.INTER.SOLV>
25.773

>  <SCORE.INTER.VDW>
-26.3968

>  <SCORE.INTER.norm>
-1.31615

>  <SCORE.INTRA>
-15.9305

>  <SCORE.INTRA.DIHEDRAL>
-25.3017

>  <SCORE.INTRA.DIHEDRAL.0>
46.2143

>  <SCORE.INTRA.POLAR>
-0.102712

>  <SCORE.INTRA.POLAR.0>
-1.76436

>  <SCORE.INTRA.REPUL>
0

>  <SCORE.INTRA.REPUL.0>
0

>  <SCORE.INTRA.SOLV>
-3.38971

>  <SCORE.INTRA.SOLV.lig_0>
-148.643

>  <SCORE.INTRA.VDW>
-1.23556

>  <SCORE.INTRA.VDW.0>
-4.83512

>  <SCORE.INTRA.norm>
-0.379297

>  <SCORE.RESTR>
0.0868091

>  <SCORE.RESTR.CAVITY>
0.0868091

>  <SCORE.RESTR.norm>
0.00206688

>  <SCORE.SYSTEM>
0

>  <SCORE.SYSTEM.CONST>
0

>  <SCORE.SYSTEM.DIHEDRAL>
0

>  <SCORE.SYSTEM.SOLV>
0

>  <SCORE.SYSTEM.norm>
0

>  <SCORE.heavy>
42

>  <SCORE.norm>
-1.69338

>  <RMSD>
0.864

$$$$
1j7t
 OpenBabel11021811393D
libRbt.so/2013.1/901 2013/11/27
 42 45  0  0  0  0  0  0  0  0999 V2000
   30.6360    8.9519   52.7968 C   0  0  2  0  0  0  0  0  0  0  0  0
   31.4414    7.8442   52.3205 O   0  0  0  0  0  0  0  0  0  0  0  0
   29.2148    8.7702   52.1909 C   0  0  2  0  0  0  0  0  0  0  0  0
   28.6010    7.4348   52.4430 N   0  3  0  0  0  0  0  0  0  0  0  0
   29.3171    8.9662   50.6625 C   0  0  1  0  0  0  0  0  0  0  0  0
   28.0598    8.8297   50.0624 O   0  0  0  0  0  0  0  0  0  0  0  0
   29.9250   10.3530   50.3450 C   0  0  2  0  0  0  0  0  0  0  0  0
   30.0078   10.5616   48.9490 O   0  0  0  0  0  0  0  0  0  0  0  0
   31.3110   10.4562   50.9454 C   0  0  2  0  0  0  0  0  0  0  0  0
   31.2376   10.2050   52.3430 O   0  0  0  0  0  0  0  0  0  0  0  0
   31.9282   11.8268   50.7794 C   0  0  0  0  0  0  0  0  0  0  0  0
   31.1992   12.7677   51.5440 O   0  0  0  0  0  0  0  0  0  0  0  0
   34.2344    5.2011   54.0702 C   0  0  2  0  0  0  0  0  0  0  0  0
   35.3947    4.6999   54.8076 N   0  3  0  0  0  0  0  0  0  0  0  0
   34.7073    6.0498   52.8436 C   0  0  0  0  0  0  0  0  0  0  0  0
   33.4889    6.6200   52.0925 C   0  0  2  0  0  0  0  0  0  0  0  0
   33.9150    7.4629   50.9705 N   0  3  0  0  0  0  0  0  0  0  0  0
   32.6087    7.4475   53.0496 C   0  0  2  0  0  0  0  0  0  0  0  0
   32.1506    6.6438   54.2823 C   0  0  2  0  0  0  0  0  0  0  0  0
   31.4813    7.5840   55.1445 O   0  0  0  0  0  0  0  0  0  0  0  0
   33.3734    6.0299   55.0101 C   0  0  1  0  0  0  0  0  0  0  0  0
   32.9250    5.2238   56.0646 O   0  0  0  0  0  0  0  0  0  0  0  0
   30.4613    7.2148   56.0689 C   0  0  1  0  0  0  0  0  0  0  0  0
   30.3287    8.3497   57.1462 C   0  0  2  0  0  0  0  0  0  0  0  0
   31.1985    8.1953   58.2546 O   0  0  0  0  0  0  0  0  0  0  0  0
   28.8507    8.1772   57.4674 C   0  0  2  0  0  0  0  0  0  0  0  0
   28.6074    6.9196   58.1666 O   0  0  0  0  0  0  0  0  0  0  0  0
   28.2195    8.0658   56.0866 C   0  0  2  0  0  0  0  0  0  0  0  0
   29.1569    7.1973   55.4272 O   0  0  0  0  0  0  0  0  0  0  0  0
   28.0275    9.4258   55.3387 C   0  0  0  0  0  0  0  0  0  0  0  0
   27.3943   10.4039   56.1732 O   0  0  0  0  0  0  0  0  0  0  0  0
   27.4406    6.9277   58.9851 C   0  0  2  0  0  0  0  0  0  0  0  0
   27.7170    6.7860   60.5206 C   0  0  2  0  0  0  0  0  0  0  0  0
   28.4647    5.5382   60.8632 N   0  3  0  0  0  0  0  0  0  0  0  0
   26.3294    6.8405   61.2427 C   0  0  1  0  0  0  0  0  0  0  0  0
   25.7515    8.1762   60.9792 O   0  0  0  0  0  0  0  0  0  0  0  0
   25.3278    5.7416   60.7132 C   0  0  2  0  0  0  0  0  0  0  0  0
   25.8661    4.4456   61.0222 O   0  0  0  0  0  0  0  0  0  0  0  0
   25.1503    5.9470   59.1516 C   0  0  1  0  0  0  0  0  0  0  0  0
   26.4822    5.8683   58.5406 O   0  0  0  0  0  0  0  0  0  0  0  0
   24.2044    4.9297   58.4739 C   0  0  0  0  0  0  0  0  0  0  0  0
   24.0412    5.1562   57.0122 N   0  3  0  0  0  0  0  0  0  0  0  0
  1  2  1  6  0  0  0
  1  3  1  0  0  0  0
  1 10  1  0  0  0  0
  3  4  1  6  0  0  0
  3  5  1  0  0  0  0
  5  6  1  6  0  0  0
  5  7  1  0  0  0  0
  7  8  1  6  0  0  0
  7  9  1  0  0  0  0
  9 10  1  0  0  0  0
  9 11  1  1  0  0  0
 11 12  1  0  0  0  0
 13 14  1  1  0  0  0
 13 15  1  0  0  0  0
 13 21  1  0  0  0  0
 15 16  1  0  0  0  0
 16 17  1  6  0  0  0
 16 18  1  0  0  0  0
 18  2  1  6  0  0  0
 18 19  1  0  0  0  0
 19 20  1  1  0  0  0
 19 21  1  0  0  0  0
 21 22  1  1  0  0  0
 23 20  1  6  0  0  0
 23 24  1  0  0  0  0
 23 29  1  0  0  0  0
 24 25  1  1  0  0  0
 24 26  1  0  0  0  0
 26 27  1  1  0  0  0
 26 28  1  0  0  0  0
 28 29  1  0  0  0  0
 28 30  1  6  0  0  0
 30 31  1  0  0  0  0
 32 27  1  6  0  0  0
 32 33  1  0  0  0  0
 32 40  1  0  0  0  0
 33 34  1  6  0  0  0
 33 35  1  0  0  0  0
 35 36  1  6  0  0  0
 35 37  1  0  0  0  0
 37 38  1  6  0  0  0
 37 39  1  0  0  0  0
 39 40  1  0  0  0  0
 39 41  1  6  0  0  0
 41 42  1  0  0  0  0
M  CHG  5   4   1  14   1  17   1  34   1  42   1
M  END
>  <CHROM.1>
-157.32792054,-161.00466293,62.25529079,70.04462045,-51.28589019,66.72909585
-169.29056783,-48.83244211,55.08260767,152.97494878,160.62171036,75.00958674
-52.99568172,154.44210634,-114.80367447,-49.23316456,178.70286180,21.62327035
67.42863659,-83.73070010,179.22073469,167.02296546,29.65818010,7.62375174
55.26589522,0.96452003,0.36215566,-1.01123597

>  <Name>
1j7t

>  <RI>
0

>  <Rbt.Current_Directory>
/home/itssahil/PROJECTS/Mol_Feturizer/New_Systems/rnas/1j7t

>  <Rbt.Executable>
rbdock ($Id: //depot/dev/client3/rdock/2013.1/src/exe/rbdock.cxx#4 $)

>  <Rbt.Library>
libRbt.so (2013.1, Build901 2013/11/27)

>  <Rbt.Parameter_File>
/export/apps/rDock/src/rDock_2013.1_src/data/scripts/dock_solv.prm

>  <Rbt.Receptor>
prm/pocket_docking_3.prm

>  <SCORE>
-60.1955

>  <SCORE.INTER>
-51.7613

>  <SCORE.INTER.CONST>
1

>  <SCORE.INTER.POLAR>
-8.12935

>  <SCORE.INTER.ROT>
9

>  <SCORE.INTER.SOLV>
24.788

>  <SCORE.INTER.VDW>
-25.2724

>  <SCORE.INTER.norm>
-1.23241

>  <SCORE.INTRA>
-8.45507

>  <SCORE.INTRA.DIHEDRAL>
-18.0779

>  <SCORE.INTRA.DIHEDRAL.0>
46.2143

>  <SCORE.INTRA.POLAR>
0.57603

>  <SCORE.INTRA.POLAR.0>
-1.76436

>  <SCORE.INTRA.REPUL>
0

>  <SCORE.INTRA.REPUL.0>
0

>  <SCORE.INTRA.SOLV>
-3.39389

>  <SCORE.INTRA.SOLV.lig_0>
-148.643

>  <SCORE.INTRA.VDW>
0.322342

>  <SCORE.INTRA.VDW.0>
-4.83512

>  <SCORE.INTRA.norm>
-0.201311

>  <SCORE.RESTR>
0.020819

>  <SCORE.RESTR.CAVITY>
0.020819

>  <SCORE.RESTR.norm>
0.00049569

>  <SCORE.SYSTEM>
0

>  <SCORE.SYSTEM.CONST>
0

>  <SCORE.SYSTEM.DIHEDRAL>
0

>  <SCORE.SYSTEM.SOLV>
0

>  <SCORE.SYSTEM.norm>
0

>  <SCORE.heavy>
42

>  <SCORE.norm>
-1.43323

>  <RMSD>
0.874

$$$$
1j7t
 OpenBabel11021811393D
libRbt.so/2013.1/901 2013/11/27
 42 45  0  0  0  0  0  0  0  0999 V2000
   30.4630    8.7838   52.5496 C   0  0  2  0  0  0  0  0  0  0  0  0
   31.4926    7.9800   51.9200 O   0  0  0  0  0  0  0  0  0  0  0  0
   29.1503    8.5428   51.7504 C   0  0  2  0  0  0  0  0  0  0  0  0
   28.7752    7.1079   51.5952 N   0  3  0  0  0  0  0  0  0  0  0  0
   29.3317    9.1427   50.3390 C   0  0  1  0  0  0  0  0  0  0  0  0
   28.1709    8.9692   49.5762 O   0  0  0  0  0  0  0  0  0  0  0  0
   29.6966   10.6426   50.4431 C   0  0  2  0  0  0  0  0  0  0  0  0
   29.8464   11.2171   49.1598 O   0  0  0  0  0  0  0  0  0  0  0  0
   30.9897   10.8047   51.2135 C   0  0  2  0  0  0  0  0  0  0  0  0
   30.8567   10.1907   52.4892 O   0  0  0  0  0  0  0  0  0  0  0  0
   31.3550   12.2512   51.4607 C   0  0  0  0  0  0  0  0  0  0  0  0
   31.4605   12.9287   50.2233 O   0  0  0  0  0  0  0  0  0  0  0  0
   34.6758    5.6482   53.4294 C   0  0  2  0  0  0  0  0  0  0  0  0
   35.9009    5.2637   54.1312 N   0  3  0  0  0  0  0  0  0  0  0  0
   35.0063    6.6911   52.3107 C   0  0  0  0  0  0  0  0  0  0  0  0
   33.7126    7.1354   51.6017 C   0  0  2  0  0  0  0  0  0  0  0  0
   33.9977    8.1536   50.5853 N   0  3  0  0  0  0  0  0  0  0  0  0
   32.7077    7.7001   52.6248 C   0  0  2  0  0  0  0  0  0  0  0  0
   32.3844    6.7031   53.7547 C   0  0  2  0  0  0  0  0  0  0  0  0
   31.5694    7.4227   54.6999 O   0  0  0  0  0  0  0  0  0  0  0  0
   33.6896    6.2192   54.4360 C   0  0  1  0  0  0  0  0  0  0  0  0
   33.3766    5.2408   55.3888 O   0  0  0  0  0  0  0  0  0  0  0  0
   30.6553    6.7901   55.5917 C   0  0  1  0  0  0  0  0  0  0  0  0
   30.1674    7.8504   56.6423 C   0  0  2  0  0  0  0  0  0  0  0  0
   30.9993    7.9527   57.7853 O   0  0  0  0  0  0  0  0  0  0  0  0
   28.7840    7.2746   56.9106 C   0  0  2  0  0  0  0  0  0  0  0  0
   28.8720    6.0040   57.6231 O   0  0  0  0  0  0  0  0  0  0  0  0
   28.2665    6.9818   55.5093 C   0  0  2  0  0  0  0  0  0  0  0  0
   29.4351    6.4048   54.9017 O   0  0  0  0  0  0  0  0  0  0  0  0
   27.7343    8.2288   54.7299 C   0  0  0  0  0  0  0  0  0  0  0  0
   26.4185    8.5999   55.1600 O   0  0  0  0  0  0  0  0  0  0  0  0
   28.1011    5.9565   58.8210 C   0  0  2  0  0  0  0  0  0  0  0  0
   28.5130    4.8222   59.8199 C   0  0  2  0  0  0  0  0  0  0  0  0
   28.4360    3.4584   59.2137 N   0  3  0  0  0  0  0  0  0  0  0  0
   27.5773    4.9492   61.0682 C   0  0  1  0  0  0  0  0  0  0  0  0
   27.8542    6.2621   61.6904 O   0  0  0  0  0  0  0  0  0  0  0  0
   26.0471    4.8818   60.6872 C   0  0  2  0  0  0  0  0  0  0  0  0
   25.7703    3.5841   60.1356 O   0  0  0  0  0  0  0  0  0  0  0  0
   25.7461    6.0389   59.6468 C   0  0  1  0  0  0  0  0  0  0  0  0
   26.6435    5.8487   58.5014 O   0  0  0  0  0  0  0  0  0  0  0  0
   24.2811    6.0971   59.1578 C   0  0  0  0  0  0  0  0  0  0  0  0
   24.0270    5.2663   57.9495 N   0  3  0  0  0  0  0  0  0  0  0  0
  1  2  1  6  0  0  0
  1  3  1  0  0  0  0
  1 10  1  0  0  0  0
  3  4  1  6  0  0  0
  3  5  1  0  0  0  0
  5  6  1  6  0  0  0
  5  7  1  0  0  0  0
  7  8  1  6  0  0  0
  7  9  1  0  0  0  0
  9 10  1  0  0  0  0
  9 11  1  1  0  0  0
 11 12  1  0  0  0  0
 13 14  1  1  0  0  0
 13 15  1  0  0  0  0
 13 21  1  0  0  0  0
 15 16  1  0  0  0  0
 16 17  1  6  0  0  0
 16 18  1  0  0  0  0
 18  2  1  6  0  0  0
 18 19  1  0  0  0  0
 19 20  1  1  0  0  0
 19 21  1  0  0  0  0
 21 22  1  1  0  0  0
 23 20  1  6  0  0  0
 23 24  1  0  0  0  0
 23 29  1  0  0  0  0
 24 25  1  1  0  0  0
 24 26  1  0  0  0  0
 26 27  1  1  0  0  0
 26 28  1  0  0  0  0
 28 29  1  0  0  0  0
 28 30  1  6  0  0  0
 30 31  1  0  0  0  0
 32 27  1  6  0  0  0
 32 33  1  0  0  0  0
 32 40  1  0  0  0  0
 33 34  1  6  0  0  0
 33 35  1  0  0  0  0
 35 36  1  6  0  0  0
 35 37  1  0  0  0  0
 37 38  1  6  0  0  0
 37 39  1  0  0  0  0
 39 40  1  0  0  0  0
 39 41  1  6  0  0  0
 41 42  1  0  0  0  0
M  CHG  5   4   1  14   1  17   1  34   1  42   1
M  END
>  <CHROM.1>
-163.00221839,-166.72119238,-158.77283348,52.60032277,-167.47928640,-57.91593969
174.73000828,-169.05194493,-62.52866968,155.24976979,169.08623411,-60.29410707
-174.55909858,126.39839257,-161.61305524,-78.40436779,-176.76179647,40.54270135
-68.67209191,74.44662581,-89.49956198,82.24271672,29.81211464,7.33024105
54.92320166,1.05445090,0.28551436,-0.96903308

>  <Name>
1j7t

>  <RI>
0

>  <Rbt.Current_Directory>
/home/itssahil/PROJECTS/Mol_Feturizer/New_Systems/rnas/1j7t

>  <Rbt.Executable>
rbdock ($Id: //depot/dev/client3/rdock/2013.1/src/exe/rbdock.cxx#4 $)

>  <Rbt.Library>
libRbt.so (2013.1, Build901 2013/11/27)

>  <Rbt.Parameter_File>
/export/apps/rDock/src/rDock_2013.1_src/data/scripts/dock_solv.prm

>  <Rbt.Receptor>
prm/pocket_docking_2.prm

>  <SCORE>
-71.5561

>  <SCORE.INTER>
-57.8299

>  <SCORE.INTER.CONST>
1

>  <SCORE.INTER.POLAR>
-8.77995

>  <SCORE.INTER.ROT>
9

>  <SCORE.INTER.SOLV>
27.1902

>  <SCORE.INTER.VDW>
-27.9502

>  <SCORE.INTER.norm>
-1.3769

>  <SCORE.INTRA>
-13.7261

>  <SCORE.INTRA.DIHEDRAL>
-22.3558

>  <SCORE.INTRA.DIHEDRAL.0>
46.2143

>  <SCORE.INTRA.POLAR>
0.0917525

>  <SCORE.INTRA.POLAR.0>
-1.76436

>  <SCORE.INTRA.REPUL>
0.00793399

>  <SCORE.INTRA.REPUL.0>
0

>  <SCORE.INTRA.SOLV>
-2.93047

>  <SCORE.INTRA.SOLV.lig_0>
-148.643

>  <SCORE.INTRA.VDW>
-1.4346

>  <SCORE.INTRA.VDW.0>
-4.83512

>  <SCORE.INTRA.norm>
-0.326813

>  <SCORE.RESTR>
0

>  <SCORE.RESTR.CAVITY>
0

>  <SCORE.RESTR.norm>
0

>  <SCORE.SYSTEM>
0

>  <SCORE.SYSTEM.CONST>
0

>  <SCORE.SYSTEM.DIHEDRAL>
0

>  <SCORE.SYSTEM.SOLV>
0

>  <SCORE.SYSTEM.norm>
0

>  <SCORE.heavy>
42

>  <SCORE.norm>
-1.70372

>  <RMSD>
0.890

$$$$
1j7t
 OpenBabel11021811393D
libRbt.so/2013.1/901 2013/11/27
 42 45  0  0  0  0  0  0  0  0999 V2000
   30.5072    8.8584   52.9268 C   0  0  2  0  0  0  0  0  0  0  0  0
   31.3938    7.8144   52.4508 O   0  0  0  0  0  0  0  0  0  0  0  0
   29.1123    8.5904   52.2924 C   0  0  2  0  0  0  0  0  0  0  0  0
   28.5858    7.2132   52.5152 N   0  3  0  0  0  0  0  0  0  0  0  0
   29.2280    8.8150   50.7689 C   0  0  1  0  0  0  0  0  0  0  0  0
   27.9936    8.6029   50.1438 O   0  0  0  0  0  0  0  0  0  0  0  0
   29.7464   10.2440   50.4812 C   0  0  2  0  0  0  0  0  0  0  0  0
   29.8394   10.4781   49.0899 O   0  0  0  0  0  0  0  0  0  0  0  0
   31.1115   10.4315   51.1084 C   0  0  2  0  0  0  0  0  0  0  0  0
   31.0307   10.1556   52.5010 O   0  0  0  0  0  0  0  0  0  0  0  0
   31.6376   11.8428   50.9723 C   0  0  0  0  0  0  0  0  0  0  0  0
   31.7798   12.1626   49.6016 O   0  0  0  0  0  0  0  0  0  0  0  0
   34.3084    5.3840   54.3072 C   0  0  2  0  0  0  0  0  0  0  0  0
   35.4975    4.9703   55.0531 N   0  3  0  0  0  0  0  0  0  0  0  0
   34.7309    6.1727   53.0236 C   0  0  0  0  0  0  0  0  0  0  0  0
   33.4810    6.6523   52.2611 C   0  0  2  0  0  0  0  0  0  0  0  0
   33.8586    7.4399   51.0829 N   0  3  0  0  0  0  0  0  0  0  0  0
   32.5859    7.5047   53.1818 C   0  0  2  0  0  0  0  0  0  0  0  0
   32.1767    6.7618   54.4686 C   0  0  2  0  0  0  0  0  0  0  0  0
   31.4867    7.7284   55.2842 O   0  0  0  0  0  0  0  0  0  0  0  0
   33.4322    6.2374   55.2105 C   0  0  1  0  0  0  0  0  0  0  0  0
   33.0299    5.4815   56.3195 O   0  0  0  0  0  0  0  0  0  0  0  0
   30.5007    7.3795   56.2523 C   0  0  1  0  0  0  0  0  0  0  0  0
   30.1867    8.6468   57.1249 C   0  0  2  0  0  0  0  0  0  0  0  0
   31.0385    8.7978   58.2476 O   0  0  0  0  0  0  0  0  0  0  0  0
   28.7372    8.3279   57.4632 C   0  0  2  0  0  0  0  0  0  0  0  0
   28.6464    7.1810   58.3610 O   0  0  0  0  0  0  0  0  0  0  0  0
   28.1651    7.9054   56.1173 C   0  0  2  0  0  0  0  0  0  0  0  0
   29.2288    7.0776   55.6163 O   0  0  0  0  0  0  0  0  0  0  0  0
   27.8122    9.0844   55.1523 C   0  0  0  0  0  0  0  0  0  0  0  0
   27.2695   10.2049   55.8622 O   0  0  0  0  0  0  0  0  0  0  0  0
   27.3854    7.0536   59.0131 C   0  0  2  0  0  0  0  0  0  0  0  0
   27.4692    6.8093   60.5583 C   0  0  2  0  0  0  0  0  0  0  0  0
   28.2527    5.5867   60.9112 N   0  3  0  0  0  0  0  0  0  0  0  0
   25.9992    6.7221   61.0886 C   0  0  1  0  0  0  0  0  0  0  0  0
   25.3670    8.0365   60.8429 O   0  0  0  0  0  0  0  0  0  0  0  0
   25.1555    5.6089   60.3537 C   0  0  2  0  0  0  0  0  0  0  0  0
   25.7398    4.3281   60.6417 O   0  0  0  0  0  0  0  0  0  0  0  0
   25.1685    5.9247   58.8006 C   0  0  1  0  0  0  0  0  0  0  0  0
   26.5706    5.9756   58.3709 O   0  0  0  0  0  0  0  0  0  0  0  0
   24.3933    4.9076   57.9324 C   0  0  0  0  0  0  0  0  0  0  0  0
   22.9665    4.7581   58.3279 N   0  3  0  0  0  0  0  0  0  0  0  0
  1  2  1  6  0  0  0
  1  3  1  0  0  0  0
  1 10  1  0  0  0  0
  3  4  1  6  0  0  0
  3  5  1  0  0  0  0
  5  6  1  6  0  0  0
  5  7  1  0  0  0  0
  7  8  1  6  0  0  0
  7  9  1  0  0  0  0
  9 10  1  0  0  0  0
  9 11  1  1  0  0  0
 11 12  1  0  0  0  0
 13 14  1  1  0  0  0
 13 15  1  0  0  0  0
 13 21  1  0  0  0  0
 15 16  1  0  0  0  0
 16 17  1  6  0  0  0
 16 18  1  0  0  0  0
 18  2  1  6  0  0  0
 18 19  1  0  0  0  0
 19 20  1  1  0  0  0
 19 21  1  0  0  0  0
 21 22  1  1  0  0  0
 23 20  1  6  0  0  0
 23 24  1  0  0  0  0
 23 29  1  0  0  0  0
 24 25  1  1  0  0  0
 24 26  1  0  0  0  0
 26 27  1  1  0  0  0
 26 28  1  0  0  0  0
 28 29  1  0  0  0  0
 28 30  1  6  0  0  0
 30 31  1  0  0  0  0
 32 27  1  6  0  0  0
 32 33  1  0  0  0  0
 32 40  1  0  0  0  0
 33 34  1  6  0  0  0
 33 35  1  0  0  0  0
 35 36  1  6  0  0  0
 35 37  1  0  0  0  0
 37 38  1  6  0  0  0
 37 39  1  0  0  0  0
 39 40  1  0  0  0  0
 39 41  1  6  0  0  0
 41 42  1  0  0  0  0
M  CHG  5   4   1  14   1  17   1  34   1  42   1
M  END
>  <CHROM.1>
-158.56390368,-165.31708092,-65.12878768,-75.82718850,-56.71677538,-61.54046093
-53.79325568,-171.02234162,-71.39784052,153.34003381,169.01767435,-178.27756381
-170.75555247,163.30866114,-132.06444135,-37.56888685,147.47113146,34.56378040
-165.37686206,-112.92329575,57.10233500,72.92458714,29.56869914,7.60937742
55.28432880,0.95407414,0.27164749,-1.05811321

>  <Name>
1j7t

>  <RI>
0

>  <Rbt.Current_Directory>
/home/itssahil/PROJECTS/Mol_Feturizer/New_Systems/rnas/1j7t

>  <Rbt.Executable>
rbdock ($Id: //depot/dev/client3/rdock/2013.1/src/exe/rbdock.cxx#4 $)

>  <Rbt.Library>
libRbt.so (2013.1, Build901 2013/11/27)

>  <Rbt.Parameter_File>
/export/apps/rDock/src/rDock_2013.1_src/data/scripts/dock_solv.prm

>  <Rbt.Receptor>
prm/pocket_docking_2.prm

>  <SCORE>
-67.643

>  <SCORE.INTER>
-59.9768

>  <SCORE.INTER.CONST>
1

>  <SCORE.INTER.POLAR>
-9.59237

>  <SCORE.INTER.ROT>
9

>  <SCORE.INTER.SOLV>
23.8241

>  <SCORE.INTER.VDW>
-25.5513

>  <SCORE.INTER.norm>
-1.42802

>  <SCORE.INTRA>
-8.2478

>  <SCORE.INTRA.DIHEDRAL>
-13.5008

>  <SCORE.INTRA.DIHEDRAL.0>
46.2143

>  <SCORE.INTRA.POLAR>
0.400775

>  <SCORE.INTRA.POLAR.0>
-1.76436

>  <SCORE.INTRA.REPUL>
0

>  <SCORE.INTRA.REPUL.0>
0

>  <SCORE.INTRA.SOLV>
-3.21649

>  <SCORE.INTRA.SOLV.lig_0>
-148.643

>  <SCORE.INTRA.VDW>
-1.2518

>  <SCORE.INTRA.VDW.0>
-4.83512

>  <SCORE.INTRA.norm>
-0.196376

>  <SCORE.RESTR>
0.581521

>  <SCORE.RESTR.CAVITY>
0.581521

>  <SCORE.RESTR.norm>
0.0138457

>  <SCORE.SYSTEM>
0

>  <SCORE.SYSTEM.CONST>
0

>  <SCORE.SYSTEM.DIHEDRAL>
0

>  <SCORE.SYSTEM.SOLV>
0

>  <SCORE.SYSTEM.norm>
0

>  <SCORE.heavy>
42

>  <SCORE.norm>
-1.61055

>  <RMSD>
0.909

$$$$
1j7t
 OpenBabel11021811393D
libRbt.so/2013.1/901 2013/11/27
 42 45  0  0  0  0  0  0  0  0999 V2000
   30.5252    8.6038   53.0357 C   0  0  2  0  0  0  0  0  0  0  0  0
   31.3966    7.5991   52.4580 O   0  0  0  0  0  0  0  0  0  0  0  0
   29.0751    8.2498   52.5973 C   0  0  2  0  0  0  0  0  0  0  0  0
   28.6597    6.8513   52.9055 N   0  3  0  0  0  0  0  0  0  0  0  0
   28.9743    8.4505   51.0694 C   0  0  1  0  0  0  0  0  0  0  0  0
   27.6813    8.1612   50.6180 O   0  0  0  0  0  0  0  0  0  0  0  0
   29.3703    9.8991   50.6973 C   0  0  2  0  0  0  0  0  0  0  0  0
   29.2640   10.1106   49.3033 O   0  0  0  0  0  0  0  0  0  0  0  0
   30.7943   10.1709   51.1336 C   0  0  2  0  0  0  0  0  0  0  0  0
   30.9149    9.9183   52.5277 O   0  0  0  0  0  0  0  0  0  0  0  0
   31.2189   11.6051   50.9108 C   0  0  0  0  0  0  0  0  0  0  0  0
   32.6218   11.7099   51.0597 O   0  0  0  0  0  0  0  0  0  0  0  0
   34.5608    5.1783   53.8637 C   0  0  2  0  0  0  0  0  0  0  0  0
   35.8127    4.7641   54.4980 N   0  3  0  0  0  0  0  0  0  0  0  0
   34.8610    6.1458   52.6711 C   0  0  0  0  0  0  0  0  0  0  0  0
   33.5433    6.6229   52.0313 C   0  0  2  0  0  0  0  0  0  0  0  0
   33.8045    7.5733   50.9452 N   0  3  0  0  0  0  0  0  0  0  0  0
   32.6440    7.2899   53.0905 C   0  0  2  0  0  0  0  0  0  0  0  0
   32.3540    6.3683   54.2912 C   0  0  2  0  0  0  0  0  0  0  0  0
   31.6460    7.1760   55.2514 O   0  0  0  0  0  0  0  0  0  0  0  0
   33.6793    5.8497   54.9048 C   0  0  1  0  0  0  0  0  0  0  0  0
   33.3877    4.9374   55.9274 O   0  0  0  0  0  0  0  0  0  0  0  0
   30.8385    6.6327   56.2925 C   0  0  1  0  0  0  0  0  0  0  0  0
   30.6334    7.7346   57.3924 C   0  0  2  0  0  0  0  0  0  0  0  0
   31.6500    7.7582   58.3798 O   0  0  0  0  0  0  0  0  0  0  0  0
   29.2666    7.2922   57.8957 C   0  0  2  0  0  0  0  0  0  0  0  0
   29.3535    6.0191   58.6040 O   0  0  0  0  0  0  0  0  0  0  0  0
   28.4977    7.0491   56.6046 C   0  0  2  0  0  0  0  0  0  0  0  0
   29.4898    6.3642   55.8208 O   0  0  0  0  0  0  0  0  0  0  0  0
   27.9615    8.3407   55.9045 C   0  0  0  0  0  0  0  0  0  0  0  0
   27.0854    9.0828   56.7622 O   0  0  0  0  0  0  0  0  0  0  0  0
   28.2970    5.8007   59.5355 C   0  0  2  0  0  0  0  0  0  0  0  0
   28.2927    4.3818   60.1995 C   0  0  2  0  0  0  0  0  0  0  0  0
   28.2108    3.2734   59.2004 N   0  3  0  0  0  0  0  0  0  0  0  0
   27.0867    4.3463   61.1965 C   0  0  1  0  0  0  0  0  0  0  0  0
   27.3497    5.3638   62.2373 O   0  0  0  0  0  0  0  0  0  0  0  0
   25.7123    4.6814   60.4964 C   0  0  2  0  0  0  0  0  0  0  0  0
   25.4329    3.6593   59.5258 O   0  0  0  0  0  0  0  0  0  0  0  0
   25.8365    6.1115   59.8246 C   0  0  1  0  0  0  0  0  0  0  0  0
   26.9713    6.0671   58.8953 O   0  0  0  0  0  0  0  0  0  0  0  0
   24.5680    6.5816   59.0769 C   0  0  0  0  0  0  0  0  0  0  0  0
   24.1368    5.6501   57.9994 N   0  3  0  0  0  0  0  0  0  0  0  0
  1  2  1  6  0  0  0
  1  3  1  0  0  0  0
  1 10  1  0  0  0  0
  3  4  1  6  0  0  0
  3  5  1  0  0  0  0
  5  6  1  1  0  0  0
  5  7  1  0  0  0  0
  7  8  1  6  0  0  0
  7  9  1  0  0  0  0
  9 10  1  0  0  0  0
  9 11  1  1  0  0  0
 11 12  1  0  0  0  0
 13 14  1  1  0  0  0
 13 15  1  0  0  0  0
 13 21  1  0  0  0  0
 15 16  1  0  0  0  0
 16 17  1  6  0  0  0
 16 18  1  0  0  0  0
 18  2  1  6  0  0  0
 18 19  1  0  0  0  0
 19 20  1  1  0  0  0
 19 21  1  0  0  0  0
 21 22  1  1  0  0  0
 23 20  1  6  0  0  0
 23 24  1  0  0  0  0
 23 29  1  0  0  0  0
 24 25  1  1  0  0  0
 24 26  1  0  0  0  0
 26 27  1  6  0  0  0
 26 28  1  0  0  0  0
 28 29  1  0  0  0  0
 28 30  1  6  0  0  0
 30 31  1  0  0  0  0
 32 27  1  6  0  0  0
 32 33  1  0  0  0  0
 32 40  1  0  0  0  0
 33 34  1  6  0  0  0
 33 35  1  0  0  0  0
 35 36  1  1  0  0  0
 35 37  1  0  0  0  0
 37 38  1  6  0  0  0
 37 39  1  0  0  0  0
 39 40  1  0  0  0  0
 39 41  1  6  0  0  0
 41 42  1  0  0  0  0
M  CHG  5   4   1  14   1  17   1  34   1  42   1
M  END
>  <CHROM.1>
-153.44701640,-159.56754577,-54.74222808,-159.52334274,56.17976396,-167.18249412
-179.05498272,60.24971736,50.32208741,159.57678052,161.26215036,169.62110029
-67.15238270,156.17440987,174.15945876,-58.76949892,-58.10631590,-71.37011437
59.47759774,73.26886814,-57.72941755,-72.60301154,29.82525304,7.02539816
55.41055876,1.02316827,0.27657277,-1.01669385

>  <Name>
1j7t

>  <RI>
0

>  <Rbt.Current_Directory>
/home/itssahil/PROJECTS/Mol_Feturizer/New_Systems/rnas/1j7t

>  <Rbt.Executable>
rbdock ($Id: //depot/dev/client3/rdock/2013.1/src/exe/rbdock.cxx#4 $)

>  <Rbt.Library>
libRbt.so (2013.1, Build901 2013/11/27)

>  <Rbt.Parameter_File>
/export/apps/rDock/src/rDock_2013.1_src/data/scripts/dock_solv.prm

>  <Rbt.Receptor>
prm/pocket_docking_3.prm

>  <SCORE>
-67.8413

>  <SCORE.INTER>
-47.3548

>  <SCORE.INTER.CONST>
1

>  <SCORE.INTER.POLAR>
-7.57349

>  <SCORE.INTER.ROT>
9

>  <SCORE.INTER.SOLV>
23.0063

>  <SCORE.INTER.VDW>
-23.5936

>  <SCORE.INTER.norm>
-1.12749

>  <SCORE.INTRA>
-20.4866

>  <SCORE.INTRA.DIHEDRAL>
-29.6082

>  <SCORE.INTRA.DIHEDRAL.0>
46.2143

>  <SCORE.INTRA.POLAR>
-0.815376

>  <SCORE.INTRA.POLAR.0>
-1.76436

>  <SCORE.INTRA.REPUL>
0

>  <SCORE.INTRA.REPUL.0>
0

>  <SCORE.INTRA.SOLV>
-0.848488

>  <SCORE.INTRA.SOLV.lig_0>
-148.643

>  <SCORE.INTRA.VDW>
-2.48599

>  <SCORE.INTRA.VDW.0>
-4.83512

>  <SCORE.INTRA.norm>
-0.487776

>  <SCORE.RESTR>
0

>  <SCORE.RESTR.CAVITY>
0

>  <SCORE.RESTR.norm>
0

>  <SCORE.SYSTEM>
0

>  <SCORE.SYSTEM.CONST>
0

>  <SCORE.SYSTEM.DIHEDRAL>
0

>  <SCORE.SYSTEM.SOLV>
0

>  <SCORE.SYSTEM.norm>
0

>  <SCORE.heavy>
42

>  <SCORE.norm>
-1.61527

>  <RMSD>
0.918

$$$$
1j7t
 OpenBabel11021811393D
libRbt.so/2013.1/901 2013/11/27
 42 45  0  0  0  0  0  0  0  0999 V2000
   30.1997    8.8318   52.2564 C   0  0  2  0  0  0  0  0  0  0  0  0
   31.2506    7.9792   51.7357 O   0  0  0  0  0  0  0  0  0  0  0  0
   29.0103    8.7437   51.2576 C   0  0  2  0  0  0  0  0  0  0  0  0
   28.5575    7.3554   50.9558 N   0  3  0  0  0  0  0  0  0  0  0  0
   29.4498    9.4000   49.9305 C   0  0  1  0  0  0  0  0  0  0  0  0
   28.4096    9.3645   48.9944 O   0  0  0  0  0  0  0  0  0  0  0  0
   29.9053   10.8566   50.1844 C   0  0  2  0  0  0  0  0  0  0  0  0
   30.2921   11.4835   48.9775 O   0  0  0  0  0  0  0  0  0  0  0  0
   31.0738   10.8693   51.1470 C   0  0  2  0  0  0  0  0  0  0  0  0
   30.7018   10.2021   52.3463 O   0  0  0  0  0  0  0  0  0  0  0  0
   31.5038   12.2652   51.5387 C   0  0  0  0  0  0  0  0  0  0  0  0
   31.9867   12.9474   50.3973 O   0  0  0  0  0  0  0  0  0  0  0  0
   34.2006    5.5489   53.5357 C   0  0  2  0  0  0  0  0  0  0  0  0
   35.3382    5.1256   54.3530 N   0  3  0  0  0  0  0  0  0  0  0  0
   34.6703    6.5881   52.4643 C   0  0  0  0  0  0  0  0  0  0  0  0
   33.4669    7.0732   51.6335 C   0  0  2  0  0  0  0  0  0  0  0  0
   33.8805    8.0885   50.6593 N   0  3  0  0  0  0  0  0  0  0  0  0
   32.3808    7.6607   52.5559 C   0  0  2  0  0  0  0  0  0  0  0  0
   31.9185    6.6670   53.6395 C   0  0  2  0  0  0  0  0  0  0  0  0
   31.0335    7.4044   54.5046 O   0  0  0  0  0  0  0  0  0  0  0  0
   33.1350    6.1422   54.4436 C   0  0  1  0  0  0  0  0  0  0  0  0
   32.7012    5.1679   55.3521 O   0  0  0  0  0  0  0  0  0  0  0  0
   30.3729    6.8288   55.6287 C   0  0  1  0  0  0  0  0  0  0  0  0
   30.0364    7.9730   56.6503 C   0  0  2  0  0  0  0  0  0  0  0  0
   31.0771    8.2444   57.5736 O   0  0  0  0  0  0  0  0  0  0  0  0
   28.7848    7.3604   57.2631 C   0  0  2  0  0  0  0  0  0  0  0  0
   29.1117    6.1832   58.0612 O   0  0  0  0  0  0  0  0  0  0  0  0
   28.0114    6.8873   56.0403 C   0  0  2  0  0  0  0  0  0  0  0  0
   29.0681    6.3070   55.2565 O   0  0  0  0  0  0  0  0  0  0  0  0
   27.2390    8.0109   55.2743 C   0  0  0  0  0  0  0  0  0  0  0  0
   28.1345    8.9674   54.6937 O   0  0  0  0  0  0  0  0  0  0  0  0
   28.1851    5.9193   59.1115 C   0  0  2  0  0  0  0  0  0  0  0  0
   28.4439    4.5866   59.8934 C   0  0  2  0  0  0  0  0  0  0  0  0
   28.4332    3.3826   59.0082 N   0  3  0  0  0  0  0  0  0  0  0  0
   27.3494    4.4895   61.0080 C   0  0  1  0  0  0  0  0  0  0  0  0
   27.5554    5.6324   61.9239 O   0  0  0  0  0  0  0  0  0  0  0  0
   25.8842    4.5644   60.4259 C   0  0  2  0  0  0  0  0  0  0  0  0
   25.6690    3.4218   59.5816 O   0  0  0  0  0  0  0  0  0  0  0  0
   25.7411    5.9235   59.6230 C   0  0  1  0  0  0  0  0  0  0  0  0
   26.7830    5.9391   58.5898 O   0  0  0  0  0  0  0  0  0  0  0  0
   24.3566    6.1410   58.9712 C   0  0  0  0  0  0  0  0  0  0  0  0
   24.0639    5.1836   57.8702 N   0  3  0  0  0  0  0  0  0  0  0  0
  1  2  1  6  0  0  0
  1  3  1  0  0  0  0
  1 10  1  0  0  0  0
  3  4  1  6  0  0  0
  3  5  1  0  0  0  0
  5  6  1  6  0  0  0
  5  7  1  0  0  0  0
  7  8  1  6  0  0  0
  7  9  1  0  0  0  0
  9 10  1  0  0  0  0
  9 11  1  1  0  0  0
 11 12  1  0  0  0  0
 13 14  1  1  0  0  0
 13 15  1  0  0  0  0
 13 21  1  0  0  0  0
 15 16  1  0  0  0  0
 16 17  1  6  0  0  0
 16 18  1  0  0  0  0
 18  2  1  6  0  0  0
 18 19  1  0  0  0  0
 19 20  1  1  0  0  0
 19 21  1  0  0  0  0
 21 22  1  1  0  0  0
 23 20  1  6  0  0  0
 23 24  1  0  0  0  0
 23 29  1  0  0  0  0
 24 25  1  1  0  0  0
 24 26  1  0  0  0  0
 26 27  1  1  0  0  0
 26 28  1  0  0  0  0
 28 29  1  0  0  0  0
 28 30  1  6  0  0  0
 30 31  1  0  0  0  0
 32 27  1  6  0  0  0
 32 33  1  0  0  0  0
 32 40  1  0  0  0  0
 33 34  1  6  0  0  0
 33 35  1  0  0  0  0
 35 36  1  1  0  0  0
 35 37  1  0  0  0  0
 37 38  1  6  0  0  0
 37 39  1  0  0  0  0
 39 40  1  0  0  0  0
 39 41  1  6  0  0  0
 41 42  1  0  0  0  0
M  CHG  5   4   1  14   1  17   1  34   1  42   1
M  END
>  <CHROM.1>
-168.63776750,-165.41664475,68.57163474,172.60188307,-50.83323686,-64.30608510
59.61518805,-55.74957881,179.53022219,178.96845871,155.52992487,69.39696321
-54.07023217,152.97222473,174.54430069,65.09746625,39.26060972,52.15635524
-59.77039643,65.66049575,-67.13993158,63.84631208,29.74424739,7.31947645
54.86794313,1.10189619,0.28709426,-0.95688711

>  <Name>
1j7t

>  <RI>
0

>  <Rbt.Current_Directory>
/home/itssahil/PROJECTS/Mol_Feturizer/New_Systems/rnas/1j7t

>  <Rbt.Executable>
rbdock ($Id: //depot/dev/client3/rdock/2013.1/src/exe/rbdock.cxx#4 $)

>  <Rbt.Library>
libRbt.so (2013.1, Build901 2013/11/27)

>  <Rbt.Parameter_File>
/export/apps/rDock/src/rDock_2013.1_src/data/scripts/dock_solv.prm

>  <Rbt.Receptor>
prm/pocket_docking_2.prm

>  <SCORE>
-72.8085

>  <SCORE.INTER>
-53.9204

>  <SCORE.INTER.CONST>
1

>  <SCORE.INTER.POLAR>
-8.4668

>  <SCORE.INTER.ROT>
9

>  <SCORE.INTER.SOLV>
26.3609

>  <SCORE.INTER.VDW>
-26.1113

>  <SCORE.INTER.norm>
-1.28382

>  <SCORE.INTRA>
-18.9292

>  <SCORE.INTRA.DIHEDRAL>
-34.2567

>  <SCORE.INTRA.DIHEDRAL.0>
46.2143

>  <SCORE.INTRA.POLAR>
0.0417328

>  <SCORE.INTRA.POLAR.0>
-1.76436

>  <SCORE.INTRA.REPUL>
0

>  <SCORE.INTRA.REPUL.0>
0

>  <SCORE.INTRA.SOLV>
-1.64781

>  <SCORE.INTRA.SOLV.lig_0>
-148.643

>  <SCORE.INTRA.VDW>
-1.11881

>  <SCORE.INTRA.VDW.0>
-4.83512

>  <SCORE.INTRA.norm>
-0.450695

>  <SCORE.RESTR>
0.0410921

>  <SCORE.RESTR.CAVITY>
0.0410921

>  <SCORE.RESTR.norm>
0.000978383

>  <SCORE.SYSTEM>
0

>  <SCORE.SYSTEM.CONST>
0

>  <SCORE.SYSTEM.DIHEDRAL>
0

>  <SCORE.SYSTEM.SOLV>
0

>  <SCORE.SYSTEM.norm>
0

>  <SCORE.heavy>
42

>  <SCORE.norm>
-1.73354

>  <RMSD>
0.951

$$$$
1j7t
 OpenBabel11021811393D
libRbt.so/2013.1/901 2013/11/27
 42 45  0  0  0  0  0  0  0  0999 V2000
   30.5359    8.8132   52.7880 C   0  0  2  0  0  0  0  0  0  0  0  0
   31.4205    7.8186   52.2129 O   0  0  0  0  0  0  0  0  0  0  0  0
   29.1060    8.5065   52.2574 C   0  0  2  0  0  0  0  0  0  0  0  0
   28.6514    7.1039   52.4798 N   0  3  0  0  0  0  0  0  0  0  0  0
   29.0914    8.7763   50.7369 C   0  0  1  0  0  0  0  0  0  0  0  0
   27.8200    8.5317   50.2048 O   0  0  0  0  0  0  0  0  0  0  0  0
   29.5308   10.2321   50.4522 C   0  0  2  0  0  0  0  0  0  0  0  0
   29.5037   10.5068   49.0655 O   0  0  0  0  0  0  0  0  0  0  0  0
   30.9335   10.4573   50.9755 C   0  0  2  0  0  0  0  0  0  0  0  0
   30.9743   10.1412   52.3613 O   0  0  0  0  0  0  0  0  0  0  0  0
   31.3932   11.8916   50.8406 C   0  0  0  0  0  0  0  0  0  0  0  0
   31.5376   12.2135   49.4706 O   0  0  0  0  0  0  0  0  0  0  0  0
   34.5843    5.3792   53.5870 C   0  0  2  0  0  0  0  0  0  0  0  0
   35.8225    4.9521   54.2396 N   0  3  0  0  0  0  0  0  0  0  0  0
   34.9046    6.4191   52.4626 C   0  0  0  0  0  0  0  0  0  0  0  0
   33.5996    6.9081   51.8057 C   0  0  2  0  0  0  0  0  0  0  0  0
   33.8777    7.9241   50.7852 N   0  3  0  0  0  0  0  0  0  0  0  0
   32.6520    7.4964   52.8695 C   0  0  2  0  0  0  0  0  0  0  0  0
   32.3408    6.5020   54.0051 C   0  0  2  0  0  0  0  0  0  0  0  0
   31.5848    7.2398   54.9846 O   0  0  0  0  0  0  0  0  0  0  0  0
   33.6550    5.9733   54.6336 C   0  0  1  0  0  0  0  0  0  0  0  0
   33.3479    4.9984   55.5918 O   0  0  0  0  0  0  0  0  0  0  0  0
   30.7417    6.6236   55.9544 C   0  0  1  0  0  0  0  0  0  0  0  0
   30.5529    7.6170   57.1559 C   0  0  2  0  0  0  0  0  0  0  0  0
   31.5521    7.5077   58.1553 O   0  0  0  0  0  0  0  0  0  0  0  0
   29.1638    7.1735   57.5926 C   0  0  2  0  0  0  0  0  0  0  0  0
   29.1967    5.8341   58.1712 O   0  0  0  0  0  0  0  0  0  0  0  0
   28.4105    7.0863   56.2727 C   0  0  2  0  0  0  0  0  0  0  0  0
   29.3937    6.4493   55.4388 O   0  0  0  0  0  0  0  0  0  0  0  0
   27.9289    8.4585   55.6975 C   0  0  0  0  0  0  0  0  0  0  0  0
   27.2108    8.2944   54.4681 O   0  0  0  0  0  0  0  0  0  0  0  0
   28.2427    5.6277   59.2099 C   0  0  2  0  0  0  0  0  0  0  0  0
   28.3564    4.2452   59.9379 C   0  0  2  0  0  0  0  0  0  0  0  0
   28.2231    3.0851   59.0052 N   0  3  0  0  0  0  0  0  0  0  0  0
   27.2526    4.2196   61.0473 C   0  0  1  0  0  0  0  0  0  0  0  0
   27.5735    5.2972   62.0083 O   0  0  0  0  0  0  0  0  0  0  0  0
   25.8061    4.4715   60.4682 C   0  0  2  0  0  0  0  0  0  0  0  0
   25.4757    3.3923   59.5788 O   0  0  0  0  0  0  0  0  0  0  0  0
   25.8104    5.8689   59.7203 C   0  0  1  0  0  0  0  0  0  0  0  0
   26.8528    5.8158   58.6889 O   0  0  0  0  0  0  0  0  0  0  0  0
   24.4595    6.2567   59.0772 C   0  0  0  0  0  0  0  0  0  0  0  0
   24.4538    7.6249   58.4920 N   0  3  0  0  0  0  0  0  0  0  0  0
  1  2  1  6  0  0  0
  1  3  1  0  0  0  0
  1 10  1  0  0  0  0
  3  4  1  6  0  0  0
  3  5  1  0  0  0  0
  5  6  1  1  0  0  0
  5  7  1  0  0  0  0
  7  8  1  6  0  0  0
  7  9  1  0  0  0  0
  9 10  1  0  0  0  0
  9 11  1  1  0  0  0
 11 12  1  0  0  0  0
 13 14  1  1  0  0  0
 13 15  1  0  0  0  0
 13 21  1  0  0  0  0
 15 16  1  0  0  0  0
 16 17  1  6  0  0  0
 16 18  1  0  0  0  0
 18  2  1  6  0  0  0
 18 19  1  0  0  0  0
 19 20  1  1  0  0  0
 19 21  1  0  0  0  0
 21 22  1  1  0  0  0
 23 20  1  6  0  0  0
 23 24  1  0  0  0  0
 23 29  1  0  0  0  0
 24 25  1  1  0  0  0
 24 26  1  0  0  0  0
 26 27  1  6  0  0  0
 26 28  1  0  0  0  0
 28 29  1  0  0  0  0
 28 30  1  6  0  0  0
 30 31  1  0  0  0  0
 32 27  1  6  0  0  0
 32 33  1  0  0  0  0
 32 40  1  0  0  0  0
 33 34  1  6  0  0  0
 33 35  1  0  0  0  0
 35 36  1  1  0  0  0
 35 37  1  0  0  0  0
 37 38  1  6  0  0  0
 37 39  1  0  0  0  0
 39 40  1  0  0  0  0
 39 41  1  6  0  0  0
 41 42  1  0  0  0  0
M  CHG  5   4   1  14   1  17   1  34   1  42   1
M  END
>  <CHROM.1>
-155.90045110,-157.00957126,-176.53143375,-179.01648023,-60.99927257,-67.14262151
-63.12008815,-52.05761457,54.33585718,158.80603500,157.73119184,65.60331137
-60.20251557,147.10084695,-174.28390279,-179.05328599,-176.48102236,23.83174748
-53.44738928,-92.80667173,174.65107100,174.24806079,29.83382298,7.13471660
55.09513113,1.07204490,0.30410259,-0.98467608

>  <Name>
1j7t

>  <RI>
0

>  <Rbt.Current_Directory>
/home/itssahil/PROJECTS/Mol_Feturizer/New_Systems/rnas/1j7t

>  <Rbt.Executable>
rbdock ($Id: //depot/dev/client3/rdock/2013.1/src/exe/rbdock.cxx#4 $)

>  <Rbt.Library>
libRbt.so (2013.1, Build901 2013/11/27)

>  <Rbt.Parameter_File>
/export/apps/rDock/src/rDock_2013.1_src/data/scripts/dock_solv.prm

>  <Rbt.Receptor>
prm/pocket_docking_5.prm

>  <SCORE>
-74.7169

>  <SCORE.INTER>
-61.4335

>  <SCORE.INTER.CONST>
1

>  <SCORE.INTER.POLAR>
-9.4494

>  <SCORE.INTER.ROT>
9

>  <SCORE.INTER.SOLV>
23.2176

>  <SCORE.INTER.VDW>
-26.7968

>  <SCORE.INTER.norm>
-1.4627

>  <SCORE.INTRA>
-13.2834

>  <SCORE.INTRA.DIHEDRAL>
-24.875

>  <SCORE.INTRA.DIHEDRAL.0>
46.2143

>  <SCORE.INTRA.POLAR>
0.244877

>  <SCORE.INTRA.POLAR.0>
-1.76436

>  <SCORE.INTRA.REPUL>
0

>  <SCORE.INTRA.REPUL.0>
0

>  <SCORE.INTRA.SOLV>
0.0528633

>  <SCORE.INTRA.SOLV.lig_0>
-148.643

>  <SCORE.INTRA.VDW>
-1.70496

>  <SCORE.INTRA.VDW.0>
-4.83512

>  <SCORE.INTRA.norm>
-0.316272

>  <SCORE.RESTR>
0

>  <SCORE.RESTR.CAVITY>
0

>  <SCORE.RESTR.norm>
0

>  <SCORE.SYSTEM>
0

>  <SCORE.SYSTEM.CONST>
0

>  <SCORE.SYSTEM.DIHEDRAL>
0

>  <SCORE.SYSTEM.SOLV>
0

>  <SCORE.SYSTEM.norm>
0

>  <SCORE.heavy>
42

>  <SCORE.norm>
-1.77897

>  <RMSD>
1.021

$$$$
1j7t
 OpenBabel11021811393D
libRbt.so/2013.1/901 2013/11/27
 42 45  0  0  0  0  0  0  0  0999 V2000
   30.1517    9.0198   52.1339 C   0  0  2  0  0  0  0  0  0  0  0  0
   31.2138    8.1427   51.6808 O   0  0  0  0  0  0  0  0  0  0  0  0
   29.0196    8.9453   51.0696 C   0  0  2  0  0  0  0  0  0  0  0  0
   28.5577    7.5632   50.7535 N   0  3  0  0  0  0  0  0  0  0  0  0
   29.5465    9.5812   49.7646 C   0  0  1  0  0  0  0  0  0  0  0  0
   28.5608    9.5570   48.7710 O   0  0  0  0  0  0  0  0  0  0  0  0
   30.0151   11.0311   50.0326 C   0  0  2  0  0  0  0  0  0  0  0  0
   30.4820   11.6396   48.8448 O   0  0  0  0  0  0  0  0  0  0  0  0
   31.1270   11.0303   51.0601 C   0  0  2  0  0  0  0  0  0  0  0  0
   30.6745   10.3811   52.2415 O   0  0  0  0  0  0  0  0  0  0  0  0
   31.5612   12.4213   51.4646 C   0  0  0  0  0  0  0  0  0  0  0  0
   32.1930   13.0551   50.3691 O   0  0  0  0  0  0  0  0  0  0  0  0
   34.0593    5.7983   53.7435 C   0  0  2  0  0  0  0  0  0  0  0  0
   35.1740    5.4173   54.6116 N   0  3  0  0  0  0  0  0  0  0  0  0
   34.5750    6.7109   52.5818 C   0  0  0  0  0  0  0  0  0  0  0  0
   33.3969    7.1542   51.6935 C   0  0  2  0  0  0  0  0  0  0  0  0
   33.8549    8.0545   50.6302 N   0  3  0  0  0  0  0  0  0  0  0  0
   32.3248    7.8666   52.5415 C   0  0  2  0  0  0  0  0  0  0  0  0
   31.8180    7.0002   53.7110 C   0  0  2  0  0  0  0  0  0  0  0  0
   30.9528    7.8489   54.4897 O   0  0  0  0  0  0  0  0  0  0  0  0
   33.0081    6.5142   54.5767 C   0  0  1  0  0  0  0  0  0  0  0  0
   32.5319    5.6489   55.5705 O   0  0  0  0  0  0  0  0  0  0  0  0
   30.2817    7.4162   55.6702 C   0  0  1  0  0  0  0  0  0  0  0  0
   29.4428    8.6168   56.2366 C   0  0  2  0  0  0  0  0  0  0  0  0
   30.1653    9.4574   57.1201 O   0  0  0  0  0  0  0  0  0  0  0  0
   28.3253    7.8161   56.8903 C   0  0  2  0  0  0  0  0  0  0  0  0
   28.8158    7.0775   58.0494 O   0  0  0  0  0  0  0  0  0  0  0  0
   27.9688    6.8001   55.8142 C   0  0  2  0  0  0  0  0  0  0  0  0
   29.2771    6.4119   55.3610 O   0  0  0  0  0  0  0  0  0  0  0  0
   27.0692    7.3517   54.6599 C   0  0  0  0  0  0  0  0  0  0  0  0
   25.8640    7.9413   55.1638 O   0  0  0  0  0  0  0  0  0  0  0  0
   27.7845    6.5726   58.8939 C   0  0  2  0  0  0  0  0  0  0  0  0
   28.2499    6.1954   60.3415 C   0  0  2  0  0  0  0  0  0  0  0  0
   29.3423    5.1757   60.3529 N   0  3  0  0  0  0  0  0  0  0  0  0
   26.9848    5.6901   61.1122 C   0  0  1  0  0  0  0  0  0  0  0  0
   26.0389    6.8244   61.1913 O   0  0  0  0  0  0  0  0  0  0  0  0
   26.2719    4.4859   60.3821 C   0  0  2  0  0  0  0  0  0  0  0  0
   27.1739    3.3676   60.3581 O   0  0  0  0  0  0  0  0  0  0  0  0
   25.8810    4.9569   58.9201 C   0  0  1  0  0  0  0  0  0  0  0  0
   27.1112    5.3999   58.2540 O   0  0  0  0  0  0  0  0  0  0  0  0
   25.1834    3.8765   58.0628 C   0  0  0  0  0  0  0  0  0  0  0  0
   24.9439    4.3004   56.6566 N   0  3  0  0  0  0  0  0  0  0  0  0
  1  2  1  6  0  0  0
  1  3  1  0  0  0  0
  1 10  1  0  0  0  0
  3  4  1  6  0  0  0
  3  5  1  0  0  0  0
  5  6  1  6  0  0  0
  5  7  1  0  0  0  0
  7  8  1  6  0  0  0
  7  9  1  0  0  0  0
  9 10  1  0  0  0  0
  9 11  1  1  0  0  0
 11 12  1  0  0  0  0
 13 14  1  1  0  0  0
 13 15  1  0  0  0  0
 13 21  1  0  0  0  0
 15 16  1  0  0  0  0
 16 17  1  6  0  0  0
 16 18  1  0  0  0  0
 18  2  1  6  0  0  0
 18 19  1  0  0  0  0
 19 20  1  1  0  0  0
 19 21  1  0  0  0  0
 21 22  1  1  0  0  0
 23 20  1  6  0  0  0
 23 24  1  0  0  0  0
 23 29  1  0  0  0  0
 24 25  1  1  0  0  0
 24 26  1  0  0  0  0
 26 27  1  1  0  0  0
 26 28  1  0  0  0  0
 28 29  1  0  0  0  0
 28 30  1  6  0  0  0
 30 31  1  0  0  0  0
 32 27  1  6  0  0  0
 32 33  1  0  0  0  0
 32 40  1  0  0  0  0
 33 34  1  6  0  0  0
 33 35  1  0  0  0  0
 35 36  1  6  0  0  0
 35 37  1  0  0  0  0
 37 38  1  6  0  0  0
 37 39  1  0  0  0  0
 39 40  1  0  0  0  0
 39 41  1  6  0  0  0
 41 42  1  0  0  0  0
M  CHG  5   4   1  14   1  17   1  34   1  42   1
M  END
>  <CHROM.1>
-171.92508307,-168.88300391,-49.91717668,173.96310151,73.17020426,-67.75386131
-60.24218209,-56.89951659,61.96923648,-179.85102748,179.76431889,-57.69105645
56.45571651,165.57412932,-161.19698693,-55.15159116,65.27791540,-73.64585518
178.11441692,74.60920210,-174.51896106,179.09381631,29.68458127,7.52628841
54.79080101,1.12385490,0.21694634,-0.99668122

>  <Name>
1j7t

>  <RI>
0

>  <Rbt.Current_Directory>
/home/itssahil/PROJECTS/Mol_Feturizer/New_Systems/rnas/1j7t

>  <Rbt.Executable>
rbdock ($Id: //depot/dev/client3/rdock/2013.1/src/exe/rbdock.cxx#4 $)

>  <Rbt.Library>
libRbt.so (2013.1, Build901 2013/11/27)

>  <Rbt.Parameter_File>
/export/apps/rDock/src/rDock_2013.1_src/data/scripts/dock_solv.prm

>  <Rbt.Receptor>
prm/pocket_docking_4.prm

>  <SCORE>
-59.2616

>  <SCORE.INTER>
-39.4325

>  <SCORE.INTER.CONST>
1

>  <SCORE.INTER.POLAR>
-5.65422

>  <SCORE.INTER.ROT>
9

>  <SCORE.INTER.SOLV>
25.0011

>  <SCORE.INTER.VDW>
-25.3746

>  <SCORE.INTER.norm>
-0.93887

>  <SCORE.INTRA>
-19.8291

>  <SCORE.INTRA.DIHEDRAL>
-38.6663

>  <SCORE.INTRA.DIHEDRAL.0>
46.2143

>  <SCORE.INTRA.POLAR>
1.04856

>  <SCORE.INTRA.POLAR.0>
-1.76436

>  <SCORE.INTRA.REPUL>
0

>  <SCORE.INTRA.REPUL.0>
0

>  <SCORE.INTRA.SOLV>
-5.43875

>  <SCORE.INTRA.SOLV.lig_0>
-148.643

>  <SCORE.INTRA.VDW>
-1.34165

>  <SCORE.INTRA.VDW.0>
-4.83512

>  <SCORE.INTRA.norm>
-0.47212

>  <SCORE.RESTR>
0

>  <SCORE.RESTR.CAVITY>
0

>  <SCORE.RESTR.norm>
0

>  <SCORE.SYSTEM>
0

>  <SCORE.SYSTEM.CONST>
0

>  <SCORE.SYSTEM.DIHEDRAL>
0

>  <SCORE.SYSTEM.SOLV>
0

>  <SCORE.SYSTEM.norm>
0

>  <SCORE.heavy>
42

>  <SCORE.norm>
-1.41099

>  <RMSD>
1.022

$$$$
1j7t
 OpenBabel11021811393D
libRbt.so/2013.1/901 2013/11/27
 42 45  0  0  0  0  0  0  0  0999 V2000
   30.1220    8.9013   52.2612 C   0  0  2  0  0  0  0  0  0  0  0  0
   31.1938    8.0545   51.7747 O   0  0  0  0  0  0  0  0  0  0  0  0
   28.9708    8.8164   51.2184 C   0  0  2  0  0  0  0  0  0  0  0  0
   28.5331    7.4289   50.8917 N   0  3  0  0  0  0  0  0  0  0  0  0
   29.4574    9.4819   49.9125 C   0  0  1  0  0  0  0  0  0  0  0  0
   28.4528    9.4496   48.9383 O   0  0  0  0  0  0  0  0  0  0  0  0
   29.8993   10.9380   50.1919 C   0  0  2  0  0  0  0  0  0  0  0  0
   30.3288   11.5732   49.0040 O   0  0  0  0  0  0  0  0  0  0  0  0
   31.0312   10.9477   51.1972 C   0  0  2  0  0  0  0  0  0  0  0  0
   30.6168   10.2723   52.3779 O   0  0  0  0  0  0  0  0  0  0  0  0
   31.4427   12.3422   51.6130 C   0  0  0  0  0  0  0  0  0  0  0  0
   31.8756   13.0646   50.4763 O   0  0  0  0  0  0  0  0  0  0  0  0
   34.0996    5.7337   53.7794 C   0  0  2  0  0  0  0  0  0  0  0  0
   35.2360    5.3622   54.6232 N   0  3  0  0  0  0  0  0  0  0  0  0
   34.5834    6.6462   52.6039 C   0  0  0  0  0  0  0  0  0  0  0  0
   33.3828    7.0796   51.7411 C   0  0  2  0  0  0  0  0  0  0  0  0
   33.8111    7.9797   50.6652 N   0  3  0  0  0  0  0  0  0  0  0  0
   32.3257    7.7877   52.6110 C   0  0  2  0  0  0  0  0  0  0  0  0
   31.8507    6.9215   53.7940 C   0  0  2  0  0  0  0  0  0  0  0  0
   30.9979    7.7671   54.5896 O   0  0  0  0  0  0  0  0  0  0  0  0
   33.0630    6.4455   54.6340 C   0  0  1  0  0  0  0  0  0  0  0  0
   32.6147    5.5801   55.6406 O   0  0  0  0  0  0  0  0  0  0  0  0
   30.3259    7.3227   55.7652 C   0  0  1  0  0  0  0  0  0  0  0  0
   29.5581    8.5405   56.3925 C   0  0  2  0  0  0  0  0  0  0  0  0
   30.3367    9.3092   57.2934 O   0  0  0  0  0  0  0  0  0  0  0  0
   28.4130    7.7713   57.0362 C   0  0  2  0  0  0  0  0  0  0  0  0
   28.8852    6.9648   58.1570 O   0  0  0  0  0  0  0  0  0  0  0  0
   27.9877    6.8168   55.9292 C   0  0  2  0  0  0  0  0  0  0  0  0
   29.2670    6.3822   55.4371 O   0  0  0  0  0  0  0  0  0  0  0  0
   27.0976    7.4568   54.8138 C   0  0  0  0  0  0  0  0  0  0  0  0
   26.4774    6.4583   53.9938 O   0  0  0  0  0  0  0  0  0  0  0  0
   27.8426    6.4558   58.9849 C   0  0  2  0  0  0  0  0  0  0  0  0
   28.2934    6.0470   60.4284 C   0  0  2  0  0  0  0  0  0  0  0  0
   29.3747    5.0153   60.4286 N   0  3  0  0  0  0  0  0  0  0  0  0
   27.0175    5.5415   61.1809 C   0  0  1  0  0  0  0  0  0  0  0  0
   26.0834    6.6844   61.2743 O   0  0  0  0  0  0  0  0  0  0  0  0
   26.2968    4.3588   60.4237 C   0  0  2  0  0  0  0  0  0  0  0  0
   27.1868    3.2313   60.3853 O   0  0  0  0  0  0  0  0  0  0  0  0
   25.9215    4.8609   58.9680 C   0  0  1  0  0  0  0  0  0  0  0  0
   27.1611    5.3025   58.3187 O   0  0  0  0  0  0  0  0  0  0  0  0
   25.2184    3.8041   58.0861 C   0  0  0  0  0  0  0  0  0  0  0  0
   25.8522    2.4594   58.1550 N   0  3  0  0  0  0  0  0  0  0  0  0
  1  2  1  6  0  0  0
  1  3  1  0  0  0  0
  1 10  1  0  0  0  0
  3  4  1  6  0  0  0
  3  5  1  0  0  0  0
  5  6  1  6  0  0  0
  5  7  1  0  0  0  0
  7  8  1  6  0  0  0
  7  9  1  0  0  0  0
  9 10  1  0  0  0  0
  9 11  1  1  0  0  0
 11 12  1  0  0  0  0
 13 14  1  1  0  0  0
 13 15  1  0  0  0  0
 13 21  1  0  0  0  0
 15 16  1  0  0  0  0
 16 17  1  6  0  0  0
 16 18  1  0  0  0  0
 18  2  1  6  0  0  0
 18 19  1  0  0  0  0
 19 20  1  1  0  0  0
 19 21  1  0  0  0  0
 21 22  1  1  0  0  0
 23 20  1  6  0  0  0
 23 24  1  0  0  0  0
 23 29  1  0  0  0  0
 24 25  1  1  0  0  0
 24 26  1  0  0  0  0
 26 27  1  1  0  0  0
 26 28  1  0  0  0  0
 28 29  1  0  0  0  0
 28 30  1  6  0  0  0
 30 31  1  0  0  0  0
 32 27  1  6  0  0  0
 32 33  1  0  0  0  0
 32 40  1  0  0  0  0
 33 34  1  6  0  0  0
 33 35  1  0  0  0  0
 35 36  1  6  0  0  0
 35 37  1  0  0  0  0
 37 38  1  6  0  0  0
 37 39  1  0  0  0  0
 39 40  1  0  0  0  0
 39 41  1  6  0  0  0
 41 42  1  0  0  0  0
M  CHG  5   4   1  14   1  17   1  34   1  42   1
M  END
>  <CHROM.1>
-171.72568053,-170.30647835,72.99802315,174.68850088,-177.54298477,-60.12363198
-67.64746248,-52.20746536,58.63893320,178.29946424,177.08953731,64.94831107
70.00374047,166.82803094,-159.05226444,-166.11811238,-59.37867075,-70.67817944
64.62108831,74.88493963,-44.55882567,13.29058796,29.73108957,7.35277333,54.89092434
1.15003853,0.21512532,-0.97853835

>  <Name>
1j7t

>  <RI>
0

>  <Rbt.Current_Directory>
/home/itssahil/PROJECTS/Mol_Feturizer/New_Systems/rnas/1j7t

>  <Rbt.Executable>
rbdock ($Id: //depot/dev/client3/rdock/2013.1/src/exe/rbdock.cxx#4 $)

>  <Rbt.Library>
libRbt.so (2013.1, Build901 2013/11/27)

>  <Rbt.Parameter_File>
/export/apps/rDock/src/rDock_2013.1_src/data/scripts/dock_solv.prm

>  <Rbt.Receptor>
prm/pocket_docking_4.prm

>  <SCORE>
-59.2322

>  <SCORE.INTER>
-39.5456

>  <SCORE.INTER.CONST>
1

>  <SCORE.INTER.POLAR>
-5.88187

>  <SCORE.INTER.ROT>
9

>  <SCORE.INTER.SOLV>
25.0846

>  <SCORE.INTER.VDW>
-24.719

>  <SCORE.INTER.norm>
-0.941562

>  <SCORE.INTRA>
-19.6867

>  <SCORE.INTRA.DIHEDRAL>
-34.2731

>  <SCORE.INTRA.DIHEDRAL.0>
46.2143

>  <SCORE.INTRA.POLAR>
-0.532265

>  <SCORE.INTRA.POLAR.0>
-1.76436

>  <SCORE.INTRA.REPUL>
0

>  <SCORE.INTRA.REPUL.0>
0

>  <SCORE.INTRA.SOLV>
-2.32035

>  <SCORE.INTRA.SOLV.lig_0>
-148.643

>  <SCORE.INTRA.VDW>
0.419762

>  <SCORE.INTRA.VDW.0>
-4.83512

>  <SCORE.INTRA.norm>
-0.46873

>  <SCORE.RESTR>
5.43105e-05

>  <SCORE.RESTR.CAVITY>
5.43105e-05

>  <SCORE.RESTR.norm>
1.29311e-06

>  <SCORE.SYSTEM>
0

>  <SCORE.SYSTEM.CONST>
0

>  <SCORE.SYSTEM.DIHEDRAL>
0

>  <SCORE.SYSTEM.SOLV>
0

>  <SCORE.SYSTEM.norm>
0

>  <SCORE.heavy>
42

>  <SCORE.norm>
-1.41029

>  <RMSD>
1.026

$$$$
1j7t
 OpenBabel11021811393D
libRbt.so/2013.1/901 2013/11/27
 42 45  0  0  0  0  0  0  0  0999 V2000
   30.6091    8.9296   52.6977 C   0  0  2  0  0  0  0  0  0  0  0  0
   31.4380    7.8533   52.1908 O   0  0  0  0  0  0  0  0  0  0  0  0
   29.1948    8.7405   52.0780 C   0  0  2  0  0  0  0  0  0  0  0  0
   28.6054    7.3862   52.2835 N   0  3  0  0  0  0  0  0  0  0  0  0
   29.3013    8.9875   50.5573 C   0  0  1  0  0  0  0  0  0  0  0  0
   28.0500    8.8464   49.9458 O   0  0  0  0  0  0  0  0  0  0  0  0
   29.8841   10.3951   50.2880 C   0  0  2  0  0  0  0  0  0  0  0  0
   29.9701   10.6501   48.9000 O   0  0  0  0  0  0  0  0  0  0  0  0
   31.2647   10.5053   50.8995 C   0  0  2  0  0  0  0  0  0  0  0  0
   31.1888   10.2079   52.2879 O   0  0  0  0  0  0  0  0  0  0  0  0
   31.8563   11.8920   50.7812 C   0  0  0  0  0  0  0  0  0  0  0  0
   31.2103   12.7594   51.6932 O   0  0  0  0  0  0  0  0  0  0  0  0
   34.6024    5.4132   53.5622 C   0  0  2  0  0  0  0  0  0  0  0  0
   35.8386    4.9849   54.2178 N   0  3  0  0  0  0  0  0  0  0  0  0
   34.9253    6.4629   52.4476 C   0  0  0  0  0  0  0  0  0  0  0  0
   33.6221    6.9529   51.7879 C   0  0  2  0  0  0  0  0  0  0  0  0
   33.9022    7.9777   50.7768 N   0  3  0  0  0  0  0  0  0  0  0  0
   32.6671    7.5298   52.8513 C   0  0  2  0  0  0  0  0  0  0  0  0
   32.3532    6.5255   53.9774 C   0  0  2  0  0  0  0  0  0  0  0  0
   31.5898    7.2533   54.9587 O   0  0  0  0  0  0  0  0  0  0  0  0
   33.6659    5.9961   54.6085 C   0  0  1  0  0  0  0  0  0  0  0  0
   33.3570    5.0127   55.5575 O   0  0  0  0  0  0  0  0  0  0  0  0
   30.8480    6.6256   56.0013 C   0  0  1  0  0  0  0  0  0  0  0  0
   30.5429    7.6944   57.1107 C   0  0  2  0  0  0  0  0  0  0  0  0
   31.5595    7.8121   58.0913 O   0  0  0  0  0  0  0  0  0  0  0  0
   29.2305    7.1151   57.6199 C   0  0  2  0  0  0  0  0  0  0  0  0
   29.4485    5.8522   58.3181 O   0  0  0  0  0  0  0  0  0  0  0  0
   28.4799    6.8056   56.3323 C   0  0  2  0  0  0  0  0  0  0  0  0
   29.5291    6.2277   55.5368 O   0  0  0  0  0  0  0  0  0  0  0  0
   27.8129    8.0422   55.6454 C   0  0  0  0  0  0  0  0  0  0  0  0
   26.7158    8.5480   56.4163 O   0  0  0  0  0  0  0  0  0  0  0  0
   28.3822    5.4786   59.1869 C   0  0  2  0  0  0  0  0  0  0  0  0
   28.5211    4.0512   59.8174 C   0  0  2  0  0  0  0  0  0  0  0  0
   28.6276    2.9707   58.7905 N   0  3  0  0  0  0  0  0  0  0  0  0
   27.2805    3.8386   60.7477 C   0  0  1  0  0  0  0  0  0  0  0  0
   27.3626    4.8499   61.8239 O   0  0  0  0  0  0  0  0  0  0  0  0
   25.9119    4.0223   59.9832 C   0  0  2  0  0  0  0  0  0  0  0  0
   25.8105    3.0024   58.9761 O   0  0  0  0  0  0  0  0  0  0  0  0
   25.8907    5.4758   59.3516 C   0  0  1  0  0  0  0  0  0  0  0  0
   27.0673    5.5984   58.4833 O   0  0  0  0  0  0  0  0  0  0  0  0
   24.6126    5.8079   58.5483 C   0  0  0  0  0  0  0  0  0  0  0  0
   24.5843    7.2031   58.0314 N   0  3  0  0  0  0  0  0  0  0  0  0
  1  2  1  6  0  0  0
  1  3  1  0  0  0  0
  1 10  1  0  0  0  0
  3  4  1  6  0  0  0
  3  5  1  0  0  0  0
  5  6  1  6  0  0  0
  5  7  1  0  0  0  0
  7  8  1  6  0  0  0
  7  9  1  0  0  0  0
  9 10  1  0  0  0  0
  9 11  1  1  0  0  0
 11 12  1  0  0  0  0
 13 14  1  1  0  0  0
 13 15  1  0  0  0  0
 13 21  1  0  0  0  0
 15 16  1  0  0  0  0
 16 17  1  6  0  0  0
 16 18  1  0  0  0  0
 18  2  1  6  0  0  0
 18 19  1  0  0  0  0
 19 20  1  1  0  0  0
 19 21  1  0  0  0  0
 21 22  1  1  0  0  0
 23 20  1  6  0  0  0
 23 24  1  0  0  0  0
 23 29  1  0  0  0  0
 24 25  1  1  0  0  0
 24 26  1  0  0  0  0
 26 27  1  6  0  0  0
 26 28  1  0  0  0  0
 28 29  1  0  0  0  0
 28 30  1  6  0  0  0
 30 31  1  0  0  0  0
 32 27  1  6  0  0  0
 32 33  1  0  0  0  0
 32 40  1  0  0  0  0
 33 34  1  6  0  0  0
 33 35  1  0  0  0  0
 35 36  1  1  0  0  0
 35 37  1  0  0  0  0
 37 38  1  6  0  0  0
 37 39  1  0  0  0  0
 39 40  1  0  0  0  0
 39 41  1  6  0  0  0
 41 42  1  0  0  0  0
M  CHG  5   4   1  14   1  17   1  34   1  42   1
M  END
>  <CHROM.1>
-162.53843581,-151.09294778,-39.15290820,176.56213616,-55.35138987,73.79664265
90.37049644,-59.68077882,176.55344220,165.20222519,162.09827864,171.83409729
-54.36549026,160.26268355,173.27970195,-68.80018431,59.33052033,43.95356575
175.54591921,65.61825422,176.74005580,-175.96405065,29.91692220,7.10444269
55.09716108,1.06382766,0.30492216,-0.92697646

>  <Name>
1j7t

>  <RI>
0

>  <Rbt.Current_Directory>
/home/itssahil/PROJECTS/Mol_Feturizer/New_Systems/rnas/1j7t

>  <Rbt.Executable>
rbdock ($Id: //depot/dev/client3/rdock/2013.1/src/exe/rbdock.cxx#4 $)

>  <Rbt.Library>
libRbt.so (2013.1, Build901 2013/11/27)

>  <Rbt.Parameter_File>
/export/apps/rDock/src/rDock_2013.1_src/data/scripts/dock_solv.prm

>  <Rbt.Receptor>
prm/pocket_docking_3.prm

>  <SCORE>
-71.8373

>  <SCORE.INTER>
-55.1729

>  <SCORE.INTER.CONST>
1

>  <SCORE.INTER.POLAR>
-8.61217

>  <SCORE.INTER.ROT>
9

>  <SCORE.INTER.SOLV>
26.0734

>  <SCORE.INTER.VDW>
-26.3659

>  <SCORE.INTER.norm>
-1.31364

>  <SCORE.INTRA>
-16.9061

>  <SCORE.INTRA.DIHEDRAL>
-29.1578

>  <SCORE.INTRA.DIHEDRAL.0>
46.2143

>  <SCORE.INTRA.POLAR>
-0.0870108

>  <SCORE.INTRA.POLAR.0>
-1.76436

>  <SCORE.INTRA.REPUL>
0

>  <SCORE.INTRA.REPUL.0>
0

>  <SCORE.INTRA.SOLV>
-0.337337

>  <SCORE.INTRA.SOLV.lig_0>
-148.643

>  <SCORE.INTRA.VDW>
-1.86276

>  <SCORE.INTRA.VDW.0>
-4.83512

>  <SCORE.INTRA.norm>
-0.402527

>  <SCORE.RESTR>
0.241787

>  <SCORE.RESTR.CAVITY>
0.241787

>  <SCORE.RESTR.norm>
0.00575684

>  <SCORE.SYSTEM>
0

>  <SCORE.SYSTEM.CONST>
0

>  <SCORE.SYSTEM.DIHEDRAL>
0

>  <SCORE.SYSTEM.SOLV>
0

>  <SCORE.SYSTEM.norm>
0

>  <SCORE.heavy>
42

>  <SCORE.norm>
-1.71041

>  <RMSD>
1.028

$$$$
1j7t
 OpenBabel11021811393D
libRbt.so/2013.1/901 2013/11/27
 42 45  0  0  0  0  0  0  0  0999 V2000
   30.3822    8.8557   52.4231 C   0  0  2  0  0  0  0  0  0  0  0  0
   31.4358    8.0449   51.8441 O   0  0  0  0  0  0  0  0  0  0  0  0
   29.1135    8.6387   51.5494 C   0  0  2  0  0  0  0  0  0  0  0  0
   28.7305    7.2102   51.3591 N   0  3  0  0  0  0  0  0  0  0  0  0
   29.3811    9.2494   50.1564 C   0  0  1  0  0  0  0  0  0  0  0  0
   28.2629    9.0976   49.3281 O   0  0  0  0  0  0  0  0  0  0  0  0
   29.7576   10.7435   50.2957 C   0  0  2  0  0  0  0  0  0  0  0  0
   29.9861   11.3280   49.0287 O   0  0  0  0  0  0  0  0  0  0  0  0
   31.0073   10.8822   51.1389 C   0  0  2  0  0  0  0  0  0  0  0  0
   30.7956   10.2581   52.3990 O   0  0  0  0  0  0  0  0  0  0  0  0
   31.3756   12.3216   51.4206 C   0  0  0  0  0  0  0  0  0  0  0  0
   31.4808   13.0288   50.1999 O   0  0  0  0  0  0  0  0  0  0  0  0
   34.4945    5.7080   53.5852 C   0  0  2  0  0  0  0  0  0  0  0  0
   35.6851    5.3275   54.3461 N   0  3  0  0  0  0  0  0  0  0  0  0
   34.8919    6.6721   52.4186 C   0  0  0  0  0  0  0  0  0  0  0  0
   33.6350    7.1140   51.6449 C   0  0  2  0  0  0  0  0  0  0  0  0
   33.9833    8.0609   50.5805 N   0  3  0  0  0  0  0  0  0  0  0  0
   32.6197    7.7693   52.6017 C   0  0  2  0  0  0  0  0  0  0  0  0
   32.2307    6.8514   53.7769 C   0  0  2  0  0  0  0  0  0  0  0  0
   31.4125    7.6507   54.6528 O   0  0  0  0  0  0  0  0  0  0  0  0
   33.4986    6.3680   54.5256 C   0  0  1  0  0  0  0  0  0  0  0  0
   33.1256    5.4579   55.5234 O   0  0  0  0  0  0  0  0  0  0  0  0
   30.6081    7.1034   55.6942 C   0  0  1  0  0  0  0  0  0  0  0  0
   30.0391    8.2841   56.5591 C   0  0  2  0  0  0  0  0  0  0  0  0
   30.8930    8.6863   57.6165 O   0  0  0  0  0  0  0  0  0  0  0  0
   28.7407    7.6257   57.0040 C   0  0  2  0  0  0  0  0  0  0  0  0
   28.9979    6.5278   57.9303 O   0  0  0  0  0  0  0  0  0  0  0  0
   28.2117    7.0223   55.7104 C   0  0  2  0  0  0  0  0  0  0  0  0
   29.4168    6.4686   55.1546 O   0  0  0  0  0  0  0  0  0  0  0  0
   27.5138    8.0377   54.7472 C   0  0  0  0  0  0  0  0  0  0  0  0
   28.1263    9.3320   54.8085 O   0  0  0  0  0  0  0  0  0  0  0  0
   28.0072    6.3808   58.9445 C   0  0  2  0  0  0  0  0  0  0  0  0
   28.5516    6.4774   60.4103 C   0  0  2  0  0  0  0  0  0  0  0  0
   29.6106    5.4647   60.7042 N   0  3  0  0  0  0  0  0  0  0  0  0
   27.3230    6.3175   61.3667 C   0  0  1  0  0  0  0  0  0  0  0  0
   26.4195    7.4606   61.1127 O   0  0  0  0  0  0  0  0  0  0  0  0
   26.5284    4.9776   61.1126 C   0  0  2  0  0  0  0  0  0  0  0  0
   27.3920    3.8698   61.4153 O   0  0  0  0  0  0  0  0  0  0  0  0
   26.0602    4.9610   59.5985 C   0  0  1  0  0  0  0  0  0  0  0  0
   27.2587    5.0981   58.7630 O   0  0  0  0  0  0  0  0  0  0  0  0
   25.2766    3.6952   59.1829 C   0  0  0  0  0  0  0  0  0  0  0  0
   26.0464    2.4352   59.3682 N   0  3  0  0  0  0  0  0  0  0  0  0
  1  2  1  6  0  0  0
  1  3  1  0  0  0  0
  1 10  1  0  0  0  0
  3  4  1  6  0  0  0
  3  5  1  0  0  0  0
  5  6  1  6  0  0  0
  5  7  1  0  0  0  0
  7  8  1  6  0  0  0
  7  9  1  0  0  0  0
  9 10  1  0  0  0  0
  9 11  1  1  0  0  0
 11 12  1  0  0  0  0
 13 14  1  1  0  0  0
 13 15  1  0  0  0  0
 13 21  1  0  0  0  0
 15 16  1  0  0  0  0
 16 17  1  6  0  0  0
 16 18  1  0  0  0  0
 18  2  1  6  0  0  0
 18 19  1  0  0  0  0
 19 20  1  1  0  0  0
 19 21  1  0  0  0  0
 21 22  1  1  0  0  0
 23 20  1  6  0  0  0
 23 24  1  0  0  0  0
 23 29  1  0  0  0  0
 24 25  1  1  0  0  0
 24 26  1  0  0  0  0
 26 27  1  1  0  0  0
 26 28  1  0  0  0  0
 28 29  1  0  0  0  0
 28 30  1  6  0  0  0
 30 31  1  0  0  0  0
 32 27  1  6  0  0  0
 32 33  1  0  0  0  0
 32 40  1  0  0  0  0
 33 34  1  1  0  0  0
 33 35  1  0  0  0  0
 35 36  1  6  0  0  0
 35 37  1  0  0  0  0
 37 38  1  6  0  0  0
 37 39  1  0  0  0  0
 39 40  1  0  0  0  0
 39 41  1  6  0  0  0
 41 42  1  0  0  0  0
M  CHG  5   4   1  14   1  17   1  34   1  42   1
M  END
>  <CHROM.1>
-164.46093788,-170.14182061,73.68974109,44.89039927,61.81569091,-54.47266845
172.08381317,65.16687680,-56.33503322,165.47222855,171.62792771,168.15364849
-73.28169356,145.08899164,-121.91807485,34.06089341,59.38572172,-35.48795389
-61.83339482,-88.58548623,-59.15170592,-59.07840388,29.96139019,7.44569206
55.04574387,1.14903279,0.34243084,-0.97946686

>  <Name>
1j7t

>  <RI>
0

>  <Rbt.Current_Directory>
/home/itssahil/PROJECTS/Mol_Feturizer/New_Systems/rnas/1j7t

>  <Rbt.Executable>
rbdock ($Id: //depot/dev/client3/rdock/2013.1/src/exe/rbdock.cxx#4 $)

>  <Rbt.Library>
libRbt.so (2013.1, Build901 2013/11/27)

>  <Rbt.Parameter_File>
/export/apps/rDock/src/rDock_2013.1_src/data/scripts/dock_solv.prm

>  <Rbt.Receptor>
prm/pocket_docking_2.prm

>  <SCORE>
-49.7774

>  <SCORE.INTER>
-44.531

>  <SCORE.INTER.CONST>
1

>  <SCORE.INTER.POLAR>
-6.28398

>  <SCORE.INTER.ROT>
9

>  <SCORE.INTER.SOLV>
27.0176

>  <SCORE.INTER.VDW>
-27.3466

>  <SCORE.INTER.norm>
-1.06026

>  <SCORE.INTRA>
-5.25645

>  <SCORE.INTRA.DIHEDRAL>
-21.0443

>  <SCORE.INTRA.DIHEDRAL.0>
46.2143

>  <SCORE.INTRA.POLAR>
1.64439

>  <SCORE.INTRA.POLAR.0>
-1.76436

>  <SCORE.INTRA.REPUL>
0.00441768

>  <SCORE.INTRA.REPUL.0>
0

>  <SCORE.INTRA.SOLV>
-0.882022

>  <SCORE.INTRA.SOLV.lig_0>
-148.643

>  <SCORE.INTRA.VDW>
0.0937151

>  <SCORE.INTRA.VDW.0>
-4.83512

>  <SCORE.INTRA.norm>
-0.125153

>  <SCORE.RESTR>
0.0100266

>  <SCORE.RESTR.CAVITY>
0.0100266

>  <SCORE.RESTR.norm>
0.000238729

>  <SCORE.SYSTEM>
0

>  <SCORE.SYSTEM.CONST>
0

>  <SCORE.SYSTEM.DIHEDRAL>
0

>  <SCORE.SYSTEM.SOLV>
0

>  <SCORE.SYSTEM.norm>
0

>  <SCORE.heavy>
42

>  <SCORE.norm>
-1.18518

>  <RMSD>
1.043

$$$$
1j7t
 OpenBabel11021811393D
libRbt.so/2013.1/901 2013/11/27
 42 45  0  0  0  0  0  0  0  0999 V2000
   30.1892    8.8293   52.5459 C   0  0  2  0  0  0  0  0  0  0  0  0
   31.2484    7.9654   52.0619 O   0  0  0  0  0  0  0  0  0  0  0  0
   28.9690    8.6187   51.6043 C   0  0  2  0  0  0  0  0  0  0  0  0
   28.5513    7.1964   51.4417 N   0  3  0  0  0  0  0  0  0  0  0  0
   29.3399    9.1682   50.2095 C   0  0  1  0  0  0  0  0  0  0  0  0
   28.2692    9.0198   49.3201 O   0  0  0  0  0  0  0  0  0  0  0  0
   29.7563   10.6542   50.3184 C   0  0  2  0  0  0  0  0  0  0  0  0
   30.0797   11.1835   49.0478 O   0  0  0  0  0  0  0  0  0  0  0  0
   30.9568   10.7860   51.2313 C   0  0  2  0  0  0  0  0  0  0  0  0
   30.6491   10.2164   52.4973 O   0  0  0  0  0  0  0  0  0  0  0  0
   31.3546   12.2231   51.4836 C   0  0  0  0  0  0  0  0  0  0  0  0
   31.4630   12.9058   50.2493 O   0  0  0  0  0  0  0  0  0  0  0  0
   33.9414    5.5238   54.2147 C   0  0  2  0  0  0  0  0  0  0  0  0
   35.0439    5.1055   55.0812 N   0  3  0  0  0  0  0  0  0  0  0  0
   34.4998    6.3096   52.9821 C   0  0  0  0  0  0  0  0  0  0  0  0
   33.3389    6.7940   52.0926 C   0  0  2  0  0  0  0  0  0  0  0  0
   33.8414    7.5790   50.9602 N   0  3  0  0  0  0  0  0  0  0  0  0
   32.3560    7.6512   52.9141 C   0  0  2  0  0  0  0  0  0  0  0  0
   31.8107    6.9112   54.1511 C   0  0  2  0  0  0  0  0  0  0  0  0
   31.0434    7.8814   54.8895 O   0  0  0  0  0  0  0  0  0  0  0  0
   32.9792    6.3818   55.0207 C   0  0  1  0  0  0  0  0  0  0  0  0
   32.4594    5.6286   56.0817 O   0  0  0  0  0  0  0  0  0  0  0  0
   30.1728    7.5414   55.9655 C   0  0  1  0  0  0  0  0  0  0  0  0
   29.3801    8.8280   56.3925 C   0  0  2  0  0  0  0  0  0  0  0  0
   30.0462    9.6190   57.3619 O   0  0  0  0  0  0  0  0  0  0  0  0
   28.1098    8.1504   56.8868 C   0  0  2  0  0  0  0  0  0  0  0  0
   28.3576    7.3976   58.1123 O   0  0  0  0  0  0  0  0  0  0  0  0
   27.8149    7.1462   55.7814 C   0  0  2  0  0  0  0  0  0  0  0  0
   29.1314    6.6275   55.5255 O   0  0  0  0  0  0  0  0  0  0  0  0
   27.1455    7.7508   54.5038 C   0  0  0  0  0  0  0  0  0  0  0  0
   25.8736    8.3404   54.8014 O   0  0  0  0  0  0  0  0  0  0  0  0
   27.2003    7.2137   58.9237 C   0  0  2  0  0  0  0  0  0  0  0  0
   27.4988    6.9325   60.4356 C   0  0  2  0  0  0  0  0  0  0  0  0
   28.3565    5.7264   60.6435 N   0  3  0  0  0  0  0  0  0  0  0  0
   26.1170    6.7853   61.1557 C   0  0  1  0  0  0  0  0  0  0  0  0
   25.4211    8.0849   61.0364 O   0  0  0  0  0  0  0  0  0  0  0  0
   25.2130    5.6652   60.5079 C   0  0  2  0  0  0  0  0  0  0  0  0
   25.8662    4.3965   60.6766 O   0  0  0  0  0  0  0  0  0  0  0  0
   25.0072    6.0212   58.9773 C   0  0  1  0  0  0  0  0  0  0  0  0
   26.3364    6.1275   58.3649 O   0  0  0  0  0  0  0  0  0  0  0  0
   24.1504    5.0029   58.1911 C   0  0  0  0  0  0  0  0  0  0  0  0
   24.7735    3.6550   58.0947 N   0  3  0  0  0  0  0  0  0  0  0  0
  1  2  1  6  0  0  0
  1  3  1  0  0  0  0
  1 10  1  0  0  0  0
  3  4  1  6  0  0  0
  3  5  1  0  0  0  0
  5  6  1  6  0  0  0
  5  7  1  0  0  0  0
  7  8  1  6  0  0  0
  7  9  1  0  0  0  0
  9 10  1  0  0  0  0
  9 11  1  1  0  0  0
 11 12  1  0  0  0  0
 13 14  1  1  0  0  0
 13 15  1  0  0  0  0
 13 21  1  0  0  0  0
 15 16  1  0  0  0  0
 16 17  1  6  0  0  0
 16 18  1  0  0  0  0
 18  2  1  6  0  0  0
 18 19  1  0  0  0  0
 19 20  1  1  0  0  0
 19 21  1  0  0  0  0
 21 22  1  1  0  0  0
 23 20  1  6  0  0  0
 23 24  1  0  0  0  0
 23 29  1  0  0  0  0
 24 25  1  1  0  0  0
 24 26  1  0  0  0  0
 26 27  1  1  0  0  0
 26 28  1  0  0  0  0
 28 29  1  0  0  0  0
 28 30  1  6  0  0  0
 30 31  1  0  0  0  0
 32 27  1  6  0  0  0
 32 33  1  0  0  0  0
 32 40  1  0  0  0  0
 33 34  1  6  0  0  0
 33 35  1  0  0  0  0
 35 36  1  6  0  0  0
 35 37  1  0  0  0  0
 37 38  1  6  0  0  0
 37 39  1  0  0  0  0
 39 40  1  0  0  0  0
 39 41  1  6  0  0  0
 41 42  1  0  0  0  0
M  CHG  5   4   1  14   1  17   1  34   1  42   1
M  END
>  <CHROM.1>
-162.66448020,-176.70473161,-63.99271859,-63.43938861,-170.91230444,-50.31551238
171.70770523,-61.52248572,-68.61938437,168.02804381,-172.80525485,-62.78114385
60.30263082,155.15329925,-157.25544652,-61.22199782,-58.41520445,-66.94482083
-177.30618553,75.50893997,-64.42428140,-72.98358973,29.37445967,7.64593490
55.06025496,1.00649074,0.30680841,-1.01365027

>  <Name>
1j7t

>  <RI>
0

>  <Rbt.Current_Directory>
/home/itssahil/PROJECTS/Mol_Feturizer/New_Systems/rnas/1j7t

>  <Rbt.Executable>
rbdock ($Id: //depot/dev/client3/rdock/2013.1/src/exe/rbdock.cxx#4 $)

>  <Rbt.Library>
libRbt.so (2013.1, Build901 2013/11/27)

>  <Rbt.Parameter_File>
/export/apps/rDock/src/rDock_2013.1_src/data/scripts/dock_solv.prm

>  <Rbt.Receptor>
prm/pocket_docking_2.prm

>  <SCORE>
-67.0131

>  <SCORE.INTER>
-46.3108

>  <SCORE.INTER.CONST>
1

>  <SCORE.INTER.POLAR>
-6.81036

>  <SCORE.INTER.ROT>
9

>  <SCORE.INTER.SOLV>
22.2364

>  <SCORE.INTER.VDW>
-25.1848

>  <SCORE.INTER.norm>
-1.10264

>  <SCORE.INTRA>
-20.8189

>  <SCORE.INTRA.DIHEDRAL>
-35.2107

>  <SCORE.INTRA.DIHEDRAL.0>
46.2143

>  <SCORE.INTRA.POLAR>
-0.391049

>  <SCORE.INTRA.POLAR.0>
-1.76436

>  <SCORE.INTRA.REPUL>
0

>  <SCORE.INTRA.REPUL.0>
0

>  <SCORE.INTRA.SOLV>
-2.91089

>  <SCORE.INTRA.SOLV.lig_0>
-148.643

>  <SCORE.INTRA.VDW>
-0.428589

>  <SCORE.INTRA.VDW.0>
-4.83512

>  <SCORE.INTRA.norm>
-0.495689

>  <SCORE.RESTR>
0.1166

>  <SCORE.RESTR.CAVITY>
0.1166

>  <SCORE.RESTR.norm>
0.00277619

>  <SCORE.SYSTEM>
0

>  <SCORE.SYSTEM.CONST>
0

>  <SCORE.SYSTEM.DIHEDRAL>
0

>  <SCORE.SYSTEM.SOLV>
0

>  <SCORE.SYSTEM.norm>
0

>  <SCORE.heavy>
42

>  <SCORE.norm>
-1.59555

>  <RMSD>
1.052

$$$$
1j7t
 OpenBabel11021811393D
libRbt.so/2013.1/901 2013/11/27
 42 45  0  0  0  0  0  0  0  0999 V2000
   30.4877    8.9498   52.5266 C   0  0  2  0  0  0  0  0  0  0  0  0
   31.4730    8.0587   51.9455 O   0  0  0  0  0  0  0  0  0  0  0  0
   29.1048    8.5315   51.9500 C   0  0  2  0  0  0  0  0  0  0  0  0
   28.7756    7.0869   52.1187 N   0  3  0  0  0  0  0  0  0  0  0  0
   29.1008    8.8471   50.4383 C   0  0  1  0  0  0  0  0  0  0  0  0
   27.8700    8.5051   49.8661 O   0  0  0  0  0  0  0  0  0  0  0  0
   29.4114   10.3452   50.2084 C   0  0  2  0  0  0  0  0  0  0  0  0
   29.3915   10.6604   48.8302 O   0  0  0  0  0  0  0  0  0  0  0  0
   30.7749   10.6802   50.7746 C   0  0  2  0  0  0  0  0  0  0  0  0
   30.8123   10.3252   52.1510 O   0  0  0  0  0  0  0  0  0  0  0  0
   31.1042   12.1540   50.6943 C   0  0  0  0  0  0  0  0  0  0  0  0
   32.4974   12.3354   50.8599 O   0  0  0  0  0  0  0  0  0  0  0  0
   34.5901    5.6826   53.5222 C   0  0  2  0  0  0  0  0  0  0  0  0
   35.8020    5.2833   54.2387 N   0  3  0  0  0  0  0  0  0  0  0  0
   34.9517    6.6922   52.3828 C   0  0  0  0  0  0  0  0  0  0  0  0
   33.6729    7.1527   51.6574 C   0  0  2  0  0  0  0  0  0  0  0  0
   33.9880    8.1411   50.6207 N   0  3  0  0  0  0  0  0  0  0  0  0
   32.6774    7.7643   52.6627 C   0  0  2  0  0  0  0  0  0  0  0  0
   32.3242    6.8006   53.8124 C   0  0  2  0  0  0  0  0  0  0  0  0
   31.5228    7.5607   54.7373 O   0  0  0  0  0  0  0  0  0  0  0  0
   33.6137    6.2996   54.5109 C   0  0  1  0  0  0  0  0  0  0  0  0
   33.2720    5.3503   55.4831 O   0  0  0  0  0  0  0  0  0  0  0  0
   30.7058    6.9663   55.7425 C   0  0  1  0  0  0  0  0  0  0  0  0
   30.1403    8.1047   56.6645 C   0  0  2  0  0  0  0  0  0  0  0  0
   30.9895    8.4428   57.7478 O   0  0  0  0  0  0  0  0  0  0  0  0
   28.8329    7.4354   57.0647 C   0  0  2  0  0  0  0  0  0  0  0  0
   29.0737    6.2878   57.9334 O   0  0  0  0  0  0  0  0  0  0  0  0
   28.3087    6.9060   55.7372 C   0  0  2  0  0  0  0  0  0  0  0  0
   29.5132    6.3716   55.1616 O   0  0  0  0  0  0  0  0  0  0  0  0
   27.6269    7.9770   54.8241 C   0  0  0  0  0  0  0  0  0  0  0  0
   28.3390    9.2206   54.8446 O   0  0  0  0  0  0  0  0  0  0  0  0
   28.2299    6.2426   59.0813 C   0  0  2  0  0  0  0  0  0  0  0  0
   28.4838    5.0242   60.0328 C   0  0  2  0  0  0  0  0  0  0  0  0
   28.3301    3.7072   59.3434 N   0  3  0  0  0  0  0  0  0  0  0  0
   27.4878    5.1642   61.2320 C   0  0  1  0  0  0  0  0  0  0  0  0
   27.8352    6.4123   61.9455 O   0  0  0  0  0  0  0  0  0  0  0  0
   25.9834    5.2509   60.7625 C   0  0  2  0  0  0  0  0  0  0  0  0
   25.6331    4.0141   60.1203 O   0  0  0  0  0  0  0  0  0  0  0  0
   25.8442    6.4846   59.7773 C   0  0  1  0  0  0  0  0  0  0  0  0
   26.7906    6.2795   58.6747 O   0  0  0  0  0  0  0  0  0  0  0  0
   24.4217    6.6965   59.2112 C   0  0  0  0  0  0  0  0  0  0  0  0
   24.2994    7.9085   58.3563 N   0  3  0  0  0  0  0  0  0  0  0  0
  1  2  1  6  0  0  0
  1  3  1  0  0  0  0
  1 10  1  0  0  0  0
  3  4  1  6  0  0  0
  3  5  1  0  0  0  0
  5  6  1  1  0  0  0
  5  7  1  0  0  0  0
  7  8  1  6  0  0  0
  7  9  1  0  0  0  0
  9 10  1  0  0  0  0
  9 11  1  1  0  0  0
 11 12  1  0  0  0  0
 13 14  1  1  0  0  0
 13 15  1  0  0  0  0
 13 21  1  0  0  0  0
 15 16  1  0  0  0  0
 16 17  1  6  0  0  0
 16 18  1  0  0  0  0
 18  2  1  6  0  0  0
 18 19  1  0  0  0  0
 19 20  1  1  0  0  0
 19 21  1  0  0  0  0
 21 22  1  1  0  0  0
 23 20  1  6  0  0  0
 23 24  1  0  0  0  0
 23 29  1  0  0  0  0
 24 25  1  1  0  0  0
 24 26  1  0  0  0  0
 26 27  1  1  0  0  0
 26 28  1  0  0  0  0
 28 29  1  0  0  0  0
 28 30  1  6  0  0  0
 30 31  1  0  0  0  0
 32 27  1  6  0  0  0
 32 33  1  0  0  0  0
 32 40  1  0  0  0  0
 33 34  1  6  0  0  0
 33 35  1  0  0  0  0
 35 36  1  6  0  0  0
 35 37  1  0  0  0  0
 37 38  1  6  0  0  0
 37 39  1  0  0  0  0
 39 40  1  0  0  0  0
 39 41  1  6  0  0  0
 41 42  1  0  0  0  0
M  CHG  5   4   1  14   1  17   1  34   1  42   1
M  END
>  <CHROM.1>
-152.05621108,-163.93926488,165.80393509,63.04984044,-61.86769107,-162.77547505
-65.64813367,-43.96907257,60.82386070,162.81727365,172.66202828,67.76537265
-61.15485168,133.57702813,-179.43979458,40.50445082,179.81242792,39.80842384
-63.34143962,-113.55092008,176.45665124,174.36437474,29.85342044,7.48150849
54.99889408,1.05340701,0.31363924,-1.03007199

>  <Name>
1j7t

>  <RI>
0

>  <Rbt.Current_Directory>
/home/itssahil/PROJECTS/Mol_Feturizer/New_Systems/rnas/1j7t

>  <Rbt.Executable>
rbdock ($Id: //depot/dev/client3/rdock/2013.1/src/exe/rbdock.cxx#4 $)

>  <Rbt.Library>
libRbt.so (2013.1, Build901 2013/11/27)

>  <Rbt.Parameter_File>
/export/apps/rDock/src/rDock_2013.1_src/data/scripts/dock_solv.prm

>  <Rbt.Receptor>
prm/pocket_docking_5.prm

>  <SCORE>
-74.4554

>  <SCORE.INTER>
-62.6099

>  <SCORE.INTER.CONST>
1

>  <SCORE.INTER.POLAR>
-9.94524

>  <SCORE.INTER.ROT>
9

>  <SCORE.INTER.SOLV>
27.2652

>  <SCORE.INTER.VDW>
-27.2775

>  <SCORE.INTER.norm>
-1.49071

>  <SCORE.INTRA>
-11.8455

>  <SCORE.INTRA.DIHEDRAL>
-21.5274

>  <SCORE.INTRA.DIHEDRAL.0>
46.2143

>  <SCORE.INTRA.POLAR>
0.41093

>  <SCORE.INTRA.POLAR.0>
-1.76436

>  <SCORE.INTRA.REPUL>
0

>  <SCORE.INTRA.REPUL.0>
0

>  <SCORE.INTRA.SOLV>
-1.14761

>  <SCORE.INTRA.SOLV.lig_0>
-148.643

>  <SCORE.INTRA.VDW>
-1.90521

>  <SCORE.INTRA.VDW.0>
-4.83512

>  <SCORE.INTRA.norm>
-0.282037

>  <SCORE.RESTR>
0

>  <SCORE.RESTR.CAVITY>
0

>  <SCORE.RESTR.norm>
0

>  <SCORE.SYSTEM>
0

>  <SCORE.SYSTEM.CONST>
0

>  <SCORE.SYSTEM.DIHEDRAL>
0

>  <SCORE.SYSTEM.SOLV>
0

>  <SCORE.SYSTEM.norm>
0

>  <SCORE.heavy>
42

>  <SCORE.norm>
-1.77275

>  <RMSD>
1.061

$$$$
1j7t
 OpenBabel11021811393D
libRbt.so/2013.1/901 2013/11/27
 42 45  0  0  0  0  0  0  0  0999 V2000
   30.5331    8.3190   53.1904 C   0  0  2  0  0  0  0  0  0  0  0  0
   31.4460    7.3830   52.5635 O   0  0  0  0  0  0  0  0  0  0  0  0
   29.1058    7.9679   52.6807 C   0  0  2  0  0  0  0  0  0  0  0  0
   28.7167    6.5403   52.8659 N   0  3  0  0  0  0  0  0  0  0  0  0
   29.0448    8.2858   51.1707 C   0  0  1  0  0  0  0  0  0  0  0  0
   27.7731    8.0036   50.6581 O   0  0  0  0  0  0  0  0  0  0  0  0
   29.4150    9.7678   50.9252 C   0  0  2  0  0  0  0  0  0  0  0  0
   29.3444   10.0858   49.5493 O   0  0  0  0  0  0  0  0  0  0  0  0
   30.8184   10.0366   51.4255 C   0  0  2  0  0  0  0  0  0  0  0  0
   30.9045    9.6780   52.7988 O   0  0  0  0  0  0  0  0  0  0  0  0
   31.2133   11.4932   51.3286 C   0  0  0  0  0  0  0  0  0  0  0  0
   31.3643   11.8511   49.9683 O   0  0  0  0  0  0  0  0  0  0  0  0
   34.7911    5.1464   53.8503 C   0  0  2  0  0  0  0  0  0  0  0  0
   36.0887    4.8049   54.4342 N   0  3  0  0  0  0  0  0  0  0  0  0
   34.9893    6.1187   52.6405 C   0  0  0  0  0  0  0  0  0  0  0  0
   33.6225    6.5194   52.0534 C   0  0  2  0  0  0  0  0  0  0  0  0
   33.7870    7.4734   50.9516 N   0  3  0  0  0  0  0  0  0  0  0  0
   32.7332    7.1461   53.1452 C   0  0  2  0  0  0  0  0  0  0  0  0
   32.5432    6.2202   54.3625 C   0  0  2  0  0  0  0  0  0  0  0  0
   31.8331    6.9967   55.3466 O   0  0  0  0  0  0  0  0  0  0  0  0
   33.9187    5.7783   54.9233 C   0  0  1  0  0  0  0  0  0  0  0  0
   33.7192    4.8602   55.9627 O   0  0  0  0  0  0  0  0  0  0  0  0
   30.9160    6.4331   56.2805 C   0  0  1  0  0  0  0  0  0  0  0  0
   30.8753    7.3488   57.5557 C   0  0  2  0  0  0  0  0  0  0  0  0
   31.8537    7.0243   58.5285 O   0  0  0  0  0  0  0  0  0  0  0  0
   29.4395    7.0731   57.9795 C   0  0  2  0  0  0  0  0  0  0  0  0
   29.2854    5.7023   58.4558 O   0  0  0  0  0  0  0  0  0  0  0  0
   28.6752    7.1935   56.6685 C   0  0  2  0  0  0  0  0  0  0  0  0
   29.5544    6.4899   55.7742 O   0  0  0  0  0  0  0  0  0  0  0  0
   28.3897    8.6596   56.2049 C   0  0  0  0  0  0  0  0  0  0  0  0
   27.5708    9.3628   57.1477 O   0  0  0  0  0  0  0  0  0  0  0  0
   28.2315    5.5316   59.4000 C   0  0  2  0  0  0  0  0  0  0  0  0
   28.1770    4.1174   60.0718 C   0  0  2  0  0  0  0  0  0  0  0  0
   28.0390    3.0083   59.0797 N   0  3  0  0  0  0  0  0  0  0  0  0
   26.9817    4.1360   61.0821 C   0  0  1  0  0  0  0  0  0  0  0  0
   27.2975    5.1470   62.1144 O   0  0  0  0  0  0  0  0  0  0  0  0
   25.6144    4.5231   60.3953 C   0  0  2  0  0  0  0  0  0  0  0  0
   25.2829    3.5084   59.4334 O   0  0  0  0  0  0  0  0  0  0  0  0
   25.7889    5.9436   59.7144 C   0  0  1  0  0  0  0  0  0  0  0  0
   26.9106    5.8485   58.7730 O   0  0  0  0  0  0  0  0  0  0  0  0
   24.5323    6.4611   58.9782 C   0  0  0  0  0  0  0  0  0  0  0  0
   24.1777    5.6580   57.7766 N   0  3  0  0  0  0  0  0  0  0  0  0
  1  2  1  6  0  0  0
  1  3  1  0  0  0  0
  1 10  1  0  0  0  0
  3  4  1  6  0  0  0
  3  5  1  0  0  0  0
  5  6  1  1  0  0  0
  5  7  1  0  0  0  0
  7  8  1  6  0  0  0
  7  9  1  0  0  0  0
  9 10  1  0  0  0  0
  9 11  1  1  0  0  0
 11 12  1  0  0  0  0
 13 14  1  1  0  0  0
 13 15  1  0  0  0  0
 13 21  1  0  0  0  0
 15 16  1  0  0  0  0
 16 17  1  6  0  0  0
 16 18  1  0  0  0  0
 18  2  1  6  0  0  0
 18 19  1  0  0  0  0
 19 20  1  1  0  0  0
 19 21  1  0  0  0  0
 21 22  1  1  0  0  0
 23 20  1  6  0  0  0
 23 24  1  0  0  0  0
 23 29  1  0  0  0  0
 24 25  1  1  0  0  0
 24 26  1  0  0  0  0
 26 27  1  6  0  0  0
 26 28  1  0  0  0  0
 28 29  1  0  0  0  0
 28 30  1  6  0  0  0
 30 31  1  0  0  0  0
 32 27  1  6  0  0  0
 32 33  1  0  0  0  0
 32 40  1  0  0  0  0
 33 34  1  6  0  0  0
 33 35  1  0  0  0  0
 35 36  1  1  0  0  0
 35 37  1  0  0  0  0
 37 38  1  6  0  0  0
 37 39  1  0  0  0  0
 39 40  1  0  0  0  0
 39 41  1  6  0  0  0
 41 42  1  0  0  0  0
M  CHG  5   4   1  14   1  17   1  34   1  42   1
M  END
>  <CHROM.1>
-159.14921391,-161.13714308,56.99251230,-169.00185530,62.73387850,-69.45307997
178.61667159,64.14782037,-69.92445888,148.30959888,153.25706925,-58.87705458
50.99314554,152.66303186,-171.87033456,-61.95837698,-178.48902017,160.82589715
-53.15837133,82.27696808,-66.84895571,-74.00782221,29.86845416,6.88989014
55.41506718,1.01518977,0.28388707,-0.99895868

>  <Name>
1j7t

>  <RI>
0

>  <Rbt.Current_Directory>
/home/itssahil/PROJECTS/Mol_Feturizer/New_Systems/rnas/1j7t

>  <Rbt.Executable>
rbdock ($Id: //depot/dev/client3/rdock/2013.1/src/exe/rbdock.cxx#4 $)

>  <Rbt.Library>
libRbt.so (2013.1, Build901 2013/11/27)

>  <Rbt.Parameter_File>
/export/apps/rDock/src/rDock_2013.1_src/data/scripts/dock_solv.prm

>  <Rbt.Receptor>
prm/pocket_docking_3.prm

>  <SCORE>
-67.604

>  <SCORE.INTER>
-46.8587

>  <SCORE.INTER.CONST>
1

>  <SCORE.INTER.POLAR>
-7.32807

>  <SCORE.INTER.ROT>
9

>  <SCORE.INTER.SOLV>
21.905

>  <SCORE.INTER.VDW>
-23.7139

>  <SCORE.INTER.norm>
-1.11568

>  <SCORE.INTRA>
-20.7453

>  <SCORE.INTRA.DIHEDRAL>
-26.3388

>  <SCORE.INTRA.DIHEDRAL.0>
46.2143

>  <SCORE.INTRA.POLAR>
-1.00343

>  <SCORE.INTRA.POLAR.0>
-1.76436

>  <SCORE.INTRA.REPUL>
0.00249118

>  <SCORE.INTRA.REPUL.0>
0

>  <SCORE.INTRA.SOLV>
-1.57725

>  <SCORE.INTRA.SOLV.lig_0>
-148.643

>  <SCORE.INTRA.VDW>
-3.38811

>  <SCORE.INTRA.VDW.0>
-4.83512

>  <SCORE.INTRA.norm>
-0.493937

>  <SCORE.RESTR>
0

>  <SCORE.RESTR.CAVITY>
0

>  <SCORE.RESTR.norm>
0

>  <SCORE.SYSTEM>
0

>  <SCORE.SYSTEM.CONST>
0

>  <SCORE.SYSTEM.DIHEDRAL>
0

>  <SCORE.SYSTEM.SOLV>
0

>  <SCORE.SYSTEM.norm>
0

>  <SCORE.heavy>
42

>  <SCORE.norm>
-1.60962

>  <RMSD>
1.095

$$$$
1j7t
 OpenBabel11021811393D
libRbt.so/2013.1/901 2013/11/27
 42 45  0  0  0  0  0  0  0  0999 V2000
   30.4552    8.9097   52.5190 C   0  0  2  0  0  0  0  0  0  0  0  0
   31.4315    8.0217   51.9184 O   0  0  0  0  0  0  0  0  0  0  0  0
   29.1015    8.6455   51.7996 C   0  0  2  0  0  0  0  0  0  0  0  0
   28.6777    7.2159   51.7846 N   0  3  0  0  0  0  0  0  0  0  0  0
   29.2373    9.1170   50.3353 C   0  0  1  0  0  0  0  0  0  0  0  0
   28.0389    8.9180   49.6398 O   0  0  0  0  0  0  0  0  0  0  0  0
   29.6505   10.6074   50.2941 C   0  0  2  0  0  0  0  0  0  0  0  0
   29.7597   11.0655   48.9609 O   0  0  0  0  0  0  0  0  0  0  0  0
   30.9810   10.7913   50.9927 C   0  0  2  0  0  0  0  0  0  0  0  0
   30.8871   10.2926   52.3210 O   0  0  0  0  0  0  0  0  0  0  0  0
   31.3995   12.2407   51.0985 C   0  0  0  0  0  0  0  0  0  0  0  0
   31.7016   12.7393   49.8096 O   0  0  0  0  0  0  0  0  0  0  0  0
   34.5673    5.6197   53.4170 C   0  0  2  0  0  0  0  0  0  0  0  0
   35.7851    5.2077   54.1159 N   0  3  0  0  0  0  0  0  0  0  0  0
   34.9179    6.6584   52.3004 C   0  0  0  0  0  0  0  0  0  0  0  0
   33.6328    7.1315   51.5945 C   0  0  2  0  0  0  0  0  0  0  0  0
   33.9377    8.1462   50.5804 N   0  3  0  0  0  0  0  0  0  0  0  0
   32.6414    7.7145   52.6207 C   0  0  2  0  0  0  0  0  0  0  0  0
   32.2990    6.7215   53.7485 C   0  0  2  0  0  0  0  0  0  0  0  0
   31.5007    7.4556   54.6967 O   0  0  0  0  0  0  0  0  0  0  0  0
   33.5948    6.2086   54.4265 C   0  0  1  0  0  0  0  0  0  0  0  0
   33.2627    5.2345   55.3773 O   0  0  0  0  0  0  0  0  0  0  0  0
   30.5363    6.8462   55.5510 C   0  0  1  0  0  0  0  0  0  0  0  0
   29.9784    7.9372   56.5331 C   0  0  2  0  0  0  0  0  0  0  0  0
   30.7370    8.0837   57.7214 O   0  0  0  0  0  0  0  0  0  0  0  0
   28.5841    7.3605   56.7344 C   0  0  2  0  0  0  0  0  0  0  0  0
   28.6344    6.1150   57.4933 O   0  0  0  0  0  0  0  0  0  0  0  0
   28.1562    7.0173   55.3144 C   0  0  2  0  0  0  0  0  0  0  0  0
   29.3634    6.4291   54.8001 O   0  0  0  0  0  0  0  0  0  0  0  0
   27.6668    8.2338   54.4620 C   0  0  0  0  0  0  0  0  0  0  0  0
   27.5535    9.4232   55.2534 O   0  0  0  0  0  0  0  0  0  0  0  0
   27.8639    6.1351   58.6923 C   0  0  2  0  0  0  0  0  0  0  0  0
   28.6673    6.5220   59.9803 C   0  0  2  0  0  0  0  0  0  0  0  0
   29.8251    5.6127   60.2375 N   0  3  0  0  0  0  0  0  0  0  0  0
   27.6535    6.5120   61.1728 C   0  0  1  0  0  0  0  0  0  0  0  0
   26.6474    7.5613   60.9001 O   0  0  0  0  0  0  0  0  0  0  0  0
   26.9124    5.1269   61.3257 C   0  0  2  0  0  0  0  0  0  0  0  0
   27.8864    4.1205   61.6469 O   0  0  0  0  0  0  0  0  0  0  0  0
   26.1695    4.8115   59.9617 C   0  0  1  0  0  0  0  0  0  0  0  0
   27.1780    4.8212   58.8958 O   0  0  0  0  0  0  0  0  0  0  0  0
   25.4039    3.4689   59.9434 C   0  0  0  0  0  0  0  0  0  0  0  0
   24.3203    3.4193   58.9246 N   0  3  0  0  0  0  0  0  0  0  0  0
  1  2  1  6  0  0  0
  1  3  1  0  0  0  0
  1 10  1  0  0  0  0
  3  4  1  6  0  0  0
  3  5  1  0  0  0  0
  5  6  1  6  0  0  0
  5  7  1  0  0  0  0
  7  8  1  6  0  0  0
  7  9  1  0  0  0  0
  9 10  1  0  0  0  0
  9 11  1  1  0  0  0
 11 12  1  0  0  0  0
 13 14  1  1  0  0  0
 13 15  1  0  0  0  0
 13 21  1  0  0  0  0
 15 16  1  0  0  0  0
 16 17  1  6  0  0  0
 16 18  1  0  0  0  0
 18  2  1  6  0  0  0
 18 19  1  0  0  0  0
 19 20  1  1  0  0  0
 19 21  1  0  0  0  0
 21 22  1  1  0  0  0
 23 20  1  6  0  0  0
 23 24  1  0  0  0  0
 23 29  1  0  0  0  0
 24 25  1  1  0  0  0
 24 26  1  0  0  0  0
 26 27  1  1  0  0  0
 26 28  1  0  0  0  0
 28 29  1  0  0  0  0
 28 30  1  6  0  0  0
 30 31  1  0  0  0  0
 32 27  1  6  0  0  0
 32 33  1  0  0  0  0
 32 40  1  0  0  0  0
 33 34  1  1  0  0  0
 33 35  1  0  0  0  0
 35 36  1  6  0  0  0
 35 37  1  0  0  0  0
 37 38  1  6  0  0  0
 37 39  1  0  0  0  0
 39 40  1  0  0  0  0
 39 41  1  1  0  0  0
 41 42  1  0  0  0  0
M  CHG  5   4   1  14   1  17   1  34   1  42   1
M  END
>  <CHROM.1>
-160.17207257,-163.05561366,44.30376019,-63.69529998,-55.08532444,-68.31924993
61.60967044,-53.20849298,59.45843178,152.64840849,174.43370243,174.66510451
179.67278876,122.22679782,-94.45913567,-7.61436117,-172.62949276,-166.34246119
-47.24523971,52.19661683,157.65432566,56.11541859,29.92355681,7.38694115
54.99354204,1.13028925,0.30702248,-1.00584094

>  <Name>
1j7t

>  <RI>
0

>  <Rbt.Current_Directory>
/home/itssahil/PROJECTS/Mol_Feturizer/New_Systems/rnas/1j7t

>  <Rbt.Executable>
rbdock ($Id: //depot/dev/client3/rdock/2013.1/src/exe/rbdock.cxx#4 $)

>  <Rbt.Library>
libRbt.so (2013.1, Build901 2013/11/27)

>  <Rbt.Parameter_File>
/export/apps/rDock/src/rDock_2013.1_src/data/scripts/dock_solv.prm

>  <Rbt.Receptor>
prm/pocket_docking_2.prm

>  <SCORE>
-70.0764

>  <SCORE.INTER>
-59.4935

>  <SCORE.INTER.CONST>
1

>  <SCORE.INTER.POLAR>
-8.84462

>  <SCORE.INTER.ROT>
9

>  <SCORE.INTER.SOLV>
23.0977

>  <SCORE.INTER.VDW>
-27.4795

>  <SCORE.INTER.norm>
-1.41651

>  <SCORE.INTRA>
-10.9705

>  <SCORE.INTRA.DIHEDRAL>
-18.3801

>  <SCORE.INTRA.DIHEDRAL.0>
46.2143

>  <SCORE.INTRA.POLAR>
0.269887

>  <SCORE.INTRA.POLAR.0>
-1.76436

>  <SCORE.INTRA.REPUL>
0

>  <SCORE.INTRA.REPUL.0>
0

>  <SCORE.INTRA.SOLV>
-1.72475

>  <SCORE.INTRA.SOLV.lig_0>
-148.643

>  <SCORE.INTRA.VDW>
-1.83564

>  <SCORE.INTRA.VDW.0>
-4.83512

>  <SCORE.INTRA.norm>
-0.261202

>  <SCORE.RESTR>
0.387526

>  <SCORE.RESTR.CAVITY>
0.387526

>  <SCORE.RESTR.norm>
0.0092268

>  <SCORE.SYSTEM>
0

>  <SCORE.SYSTEM.CONST>
0

>  <SCORE.SYSTEM.DIHEDRAL>
0

>  <SCORE.SYSTEM.SOLV>
0

>  <SCORE.SYSTEM.norm>
0

>  <SCORE.heavy>
42

>  <SCORE.norm>
-1.66849

>  <RMSD>
1.108

$$$$
1j7t
 OpenBabel11021811393D
libRbt.so/2013.1/901 2013/11/27
 42 45  0  0  0  0  0  0  0  0999 V2000
   30.4320    8.9390   52.4899 C   0  0  2  0  0  0  0  0  0  0  0  0
   31.4177    8.0599   51.8916 O   0  0  0  0  0  0  0  0  0  0  0  0
   29.0590    8.5768   51.8545 C   0  0  2  0  0  0  0  0  0  0  0  0
   28.6998    7.1320   51.9398 N   0  3  0  0  0  0  0  0  0  0  0  0
   29.1040    8.9687   50.3614 C   0  0  1  0  0  0  0  0  0  0  0  0
   27.8842    8.6795   49.7385 O   0  0  0  0  0  0  0  0  0  0  0  0
   29.4473   10.4703   50.2172 C   0  0  2  0  0  0  0  0  0  0  0  0
   29.4725   10.8553   48.8569 O   0  0  0  0  0  0  0  0  0  0  0  0
   30.7997   10.7502   50.8375 C   0  0  2  0  0  0  0  0  0  0  0  0
   30.7913   10.3252   52.1944 O   0  0  0  0  0  0  0  0  0  0  0  0
   31.1570   12.2197   50.8419 C   0  0  0  0  0  0  0  0  0  0  0  0
   32.5636   12.3629   50.7955 O   0  0  0  0  0  0  0  0  0  0  0  0
   34.5263    5.6551   53.4413 C   0  0  2  0  0  0  0  0  0  0  0  0
   35.7386    5.2441   54.1504 N   0  3  0  0  0  0  0  0  0  0  0  0
   34.8896    6.6693   52.3064 C   0  0  0  0  0  0  0  0  0  0  0  0
   33.6107    7.1421   51.5891 C   0  0  2  0  0  0  0  0  0  0  0  0
   33.9277    8.1347   50.5570 N   0  3  0  0  0  0  0  0  0  0  0  0
   32.6231    7.7538   52.6021 C   0  0  2  0  0  0  0  0  0  0  0  0
   32.2685    6.7854   53.7474 C   0  0  2  0  0  0  0  0  0  0  0  0
   31.4757    7.5449   54.6801 O   0  0  0  0  0  0  0  0  0  0  0  0
   33.5577    6.2723   54.4376 C   0  0  1  0  0  0  0  0  0  0  0  0
   33.2141    5.3193   55.4055 O   0  0  0  0  0  0  0  0  0  0  0  0
   30.5870    6.9508   55.6227 C   0  0  1  0  0  0  0  0  0  0  0  0
   30.0420    8.0757   56.5733 C   0  0  2  0  0  0  0  0  0  0  0  0
   30.8605    8.3194   57.7046 O   0  0  0  0  0  0  0  0  0  0  0  0
   28.6860    7.4601   56.8888 C   0  0  2  0  0  0  0  0  0  0  0  0
   28.8300    6.2637   57.7120 O   0  0  0  0  0  0  0  0  0  0  0  0
   28.1923    7.0190   55.5180 C   0  0  2  0  0  0  0  0  0  0  0  0
   29.3912    6.4472   54.9670 O   0  0  0  0  0  0  0  0  0  0  0  0
   27.6063    8.1645   54.6292 C   0  0  0  0  0  0  0  0  0  0  0  0
   28.0651    9.4533   55.0564 O   0  0  0  0  0  0  0  0  0  0  0  0
   28.0023    6.2555   58.8724 C   0  0  2  0  0  0  0  0  0  0  0  0
   28.7520    6.5621   60.2134 C   0  0  2  0  0  0  0  0  0  0  0  0
   29.8698    5.6080   60.4849 N   0  3  0  0  0  0  0  0  0  0  0  0
   27.6810    6.5313   61.3543 C   0  0  1  0  0  0  0  0  0  0  0  0
   26.7194    7.6213   61.0807 O   0  0  0  0  0  0  0  0  0  0  0  0
   26.8946    5.1639   61.4098 C   0  0  2  0  0  0  0  0  0  0  0  0
   27.8231    4.1157   61.7321 O   0  0  0  0  0  0  0  0  0  0  0  0
   26.2111    4.9302   59.9991 C   0  0  1  0  0  0  0  0  0  0  0  0
   27.2706    4.9553   58.9842 O   0  0  0  0  0  0  0  0  0  0  0  0
   25.4100    3.6133   59.8845 C   0  0  0  0  0  0  0  0  0  0  0  0
   26.2359    2.4540   59.4503 N   0  3  0  0  0  0  0  0  0  0  0  0
  1  2  1  6  0  0  0
  1  3  1  0  0  0  0
  1 10  1  0  0  0  0
  3  4  1  6  0  0  0
  3  5  1  0  0  0  0
  5  6  1  1  0  0  0
  5  7  1  0  0  0  0
  7  8  1  6  0  0  0
  7  9  1  0  0  0  0
  9 10  1  0  0  0  0
  9 11  1  1  0  0  0
 11 12  1  0  0  0  0
 13 14  1  1  0  0  0
 13 15  1  0  0  0  0
 13 21  1  0  0  0  0
 15 16  1  0  0  0  0
 16 17  1  6  0  0  0
 16 18  1  0  0  0  0
 18  2  1  6  0  0  0
 18 19  1  0  0  0  0
 19 20  1  1  0  0  0
 19 21  1  0  0  0  0
 21 22  1  1  0  0  0
 23 20  1  6  0  0  0
 23 24  1  0  0  0  0
 23 29  1  0  0  0  0
 24 25  1  1  0  0  0
 24 26  1  0  0  0  0
 26 27  1  1  0  0  0
 26 28  1  0  0  0  0
 28 29  1  0  0  0  0
 28 30  1  6  0  0  0
 30 31  1  0  0  0  0
 32 27  1  6  0  0  0
 32 33  1  0  0  0  0
 32 40  1  0  0  0  0
 33 34  1  1  0  0  0
 33 35  1  0  0  0  0
 35 36  1  6  0  0  0
 35 37  1  0  0  0  0
 37 38  1  6  0  0  0
 37 39  1  0  0  0  0
 39 40  1  0  0  0  0
 39 41  1  1  0  0  0
 41 42  1  0  0  0  0
M  CHG  5   4   1  14   1  17   1  34   1  42   1
M  END
>  <CHROM.1>
-154.79783768,-164.78815496,-69.69410363,-71.68767644,-59.44096414,-151.58467143
-71.48480741,-176.21392217,-60.91514641,158.22112015,173.11382750,174.61233122
-171.29837224,129.46830995,-103.92080124,20.73264083,-176.08684038,-175.78856879
60.01104650,45.67742109,-87.94916866,93.98677117,30.00013572,7.36813955,55.07646492
1.15809017,0.32314599,-1.01719365

>  <Name>
1j7t

>  <RI>
0

>  <Rbt.Current_Directory>
/home/itssahil/PROJECTS/Mol_Feturizer/New_Systems/rnas/1j7t

>  <Rbt.Executable>
rbdock ($Id: //depot/dev/client3/rdock/2013.1/src/exe/rbdock.cxx#4 $)

>  <Rbt.Library>
libRbt.so (2013.1, Build901 2013/11/27)

>  <Rbt.Parameter_File>
/export/apps/rDock/src/rDock_2013.1_src/data/scripts/dock_solv.prm

>  <Rbt.Receptor>
prm/pocket_docking_2.prm

>  <SCORE>
-68.5988

>  <SCORE.INTER>
-61.531

>  <SCORE.INTER.CONST>
1

>  <SCORE.INTER.POLAR>
-9.45592

>  <SCORE.INTER.ROT>
9

>  <SCORE.INTER.SOLV>
25.7406

>  <SCORE.INTER.VDW>
-27.6812

>  <SCORE.INTER.norm>
-1.46502

>  <SCORE.INTRA>
-7.45065

>  <SCORE.INTRA.DIHEDRAL>
-13.2196

>  <SCORE.INTRA.DIHEDRAL.0>
46.2143

>  <SCORE.INTRA.POLAR>
0.184568

>  <SCORE.INTRA.POLAR.0>
-1.76436

>  <SCORE.INTRA.REPUL>
0

>  <SCORE.INTRA.REPUL.0>
0

>  <SCORE.INTRA.SOLV>
0.398514

>  <SCORE.INTRA.SOLV.lig_0>
-148.643

>  <SCORE.INTRA.VDW>
-1.66766

>  <SCORE.INTRA.VDW.0>
-4.83512

>  <SCORE.INTRA.norm>
-0.177396

>  <SCORE.RESTR>
0.382854

>  <SCORE.RESTR.CAVITY>
0.382854

>  <SCORE.RESTR.norm>
0.00911556

>  <SCORE.SYSTEM>
0

>  <SCORE.SYSTEM.CONST>
0

>  <SCORE.SYSTEM.DIHEDRAL>
0

>  <SCORE.SYSTEM.SOLV>
0

>  <SCORE.SYSTEM.norm>
0

>  <SCORE.heavy>
42

>  <SCORE.norm>
-1.6333

>  <RMSD>
1.108

$$$$
1j7t
 OpenBabel11021811393D
libRbt.so/2013.1/901 2013/11/27
 42 45  0  0  0  0  0  0  0  0999 V2000
   30.6477    9.2167   52.5136 C   0  0  2  0  0  0  0  0  0  0  0  0
   31.5492    8.1741   52.0634 O   0  0  0  0  0  0  0  0  0  0  0  0
   29.2894    8.9816   51.7926 C   0  0  2  0  0  0  0  0  0  0  0  0
   28.7359    7.6058   51.9492 N   0  3  0  0  0  0  0  0  0  0  0  0
   29.4962    9.2427   50.2846 C   0  0  1  0  0  0  0  0  0  0  0  0
   28.2982    9.0614   49.5837 O   0  0  0  0  0  0  0  0  0  0  0  0
   30.0459   10.6719   50.0642 C   0  0  2  0  0  0  0  0  0  0  0  0
   30.2224   10.9394   48.6870 O   0  0  0  0  0  0  0  0  0  0  0  0
   31.3740   10.8270   50.7742 C   0  0  2  0  0  0  0  0  0  0  0  0
   31.2090   10.5176   52.1522 O   0  0  0  0  0  0  0  0  0  0  0  0
   31.9223   12.2347   50.7049 C   0  0  0  0  0  0  0  0  0  0  0  0
   31.2604   13.0457   51.6565 O   0  0  0  0  0  0  0  0  0  0  0  0
   34.2408    5.6673   54.1416 C   0  0  2  0  0  0  0  0  0  0  0  0
   35.3737    5.2203   54.9529 N   0  3  0  0  0  0  0  0  0  0  0  0
   34.7585    6.3708   52.8434 C   0  0  0  0  0  0  0  0  0  0  0  0
   33.5695    6.8863   52.0101 C   0  0  2  0  0  0  0  0  0  0  0  0
   34.0383    7.5962   50.8154 N   0  3  0  0  0  0  0  0  0  0  0  0
   32.6919    7.8300   52.8555 C   0  0  2  0  0  0  0  0  0  0  0  0
   32.1900    7.1715   54.1554 C   0  0  2  0  0  0  0  0  0  0  0  0
   31.5278    8.2124   54.8993 O   0  0  0  0  0  0  0  0  0  0  0  0
   33.3827    6.6100   54.9702 C   0  0  1  0  0  0  0  0  0  0  0  0
   32.8939    5.9301   56.0935 O   0  0  0  0  0  0  0  0  0  0  0  0
   30.7998    7.9779   56.1018 C   0  0  1  0  0  0  0  0  0  0  0  0
   30.1228    9.3233   56.5465 C   0  0  2  0  0  0  0  0  0  0  0  0
   30.9449   10.1382   57.3646 O   0  0  0  0  0  0  0  0  0  0  0  0
   28.9067    8.7365   57.2493 C   0  0  2  0  0  0  0  0  0  0  0  0
   29.2902    8.0469   58.4769 O   0  0  0  0  0  0  0  0  0  0  0  0
   28.4254    7.6835   56.2609 C   0  0  2  0  0  0  0  0  0  0  0  0
   29.6737    7.0894   55.8655 O   0  0  0  0  0  0  0  0  0  0  0  0
   27.6117    8.2422   55.0478 C   0  0  0  0  0  0  0  0  0  0  0  0
   26.4094    8.8961   55.4730 O   0  0  0  0  0  0  0  0  0  0  0  0
   28.1867    7.6360   59.2800 C   0  0  2  0  0  0  0  0  0  0  0  0
   28.5807    6.9430   60.6287 C   0  0  2  0  0  0  0  0  0  0  0  0
   29.4338    5.7319   60.4315 N   0  3  0  0  0  0  0  0  0  0  0  0
   27.2476    6.5918   61.3698 C   0  0  1  0  0  0  0  0  0  0  0  0
   26.5632    7.8688   61.6671 O   0  0  0  0  0  0  0  0  0  0  0  0
   26.2876    5.6939   60.4960 C   0  0  2  0  0  0  0  0  0  0  0  0
   26.9332    4.4326   60.2575 O   0  0  0  0  0  0  0  0  0  0  0  0
   25.9859    6.4645   59.1442 C   0  0  1  0  0  0  0  0  0  0  0  0
   27.2731    6.7458   58.4983 O   0  0  0  0  0  0  0  0  0  0  0  0
   25.0653    5.7033   58.1634 C   0  0  0  0  0  0  0  0  0  0  0  0
   23.7049    5.4446   58.7084 N   0  3  0  0  0  0  0  0  0  0  0  0
  1  2  1  6  0  0  0
  1  3  1  0  0  0  0
  1 10  1  0  0  0  0
  3  4  1  6  0  0  0
  3  5  1  0  0  0  0
  5  6  1  6  0  0  0
  5  7  1  0  0  0  0
  7  8  1  6  0  0  0
  7  9  1  0  0  0  0
  9 10  1  0  0  0  0
  9 11  1  1  0  0  0
 11 12  1  0  0  0  0
 13 14  1  1  0  0  0
 13 15  1  0  0  0  0
 13 21  1  0  0  0  0
 15 16  1  0  0  0  0
 16 17  1  6  0  0  0
 16 18  1  0  0  0  0
 18  2  1  6  0  0  0
 18 19  1  0  0  0  0
 19 20  1  1  0  0  0
 19 21  1  0  0  0  0
 21 22  1  1  0  0  0
 23 20  1  6  0  0  0
 23 24  1  0  0  0  0
 23 29  1  0  0  0  0
 24 25  1  1  0  0  0
 24 26  1  0  0  0  0
 26 27  1  1  0  0  0
 26 28  1  0  0  0  0
 28 29  1  0  0  0  0
 28 30  1  6  0  0  0
 30 31  1  0  0  0  0
 32 27  1  6  0  0  0
 32 33  1  0  0  0  0
 32 40  1  0  0  0  0
 33 34  1  6  0  0  0
 33 35  1  0  0  0  0
 35 36  1  6  0  0  0
 35 37  1  0  0  0  0
 37 38  1  6  0  0  0
 37 39  1  0  0  0  0
 39 40  1  0  0  0  0
 39 41  1  6  0  0  0
 41 42  1  0  0  0  0
M  CHG  5   4   1  14   1  17   1  34   1  42   1
M  END
>  <CHROM.1>
-158.44691617,-170.31120209,-176.68395655,57.54530228,57.71418206,78.91368530
79.92321107,-53.45424788,167.08434735,173.13032146,-175.12343238,71.25454937
-153.87744325,171.68093209,-177.75316852,-61.78543296,59.97460841,170.01932467
-70.76970874,-174.72565270,62.30014360,-112.81360361,29.88697550,7.93601233
55.17254750,1.06108832,0.30808950,-1.07661842

>  <Name>
1j7t

>  <RI>
0

>  <Rbt.Current_Directory>
/home/itssahil/PROJECTS/Mol_Feturizer/New_Systems/rnas/1j7t

>  <Rbt.Executable>
rbdock ($Id: //depot/dev/client3/rdock/2013.1/src/exe/rbdock.cxx#4 $)

>  <Rbt.Library>
libRbt.so (2013.1, Build901 2013/11/27)

>  <Rbt.Parameter_File>
/export/apps/rDock/src/rDock_2013.1_src/data/scripts/dock_solv.prm

>  <Rbt.Receptor>
prm/pocket_docking_3.prm

>  <SCORE>
-66.8456

>  <SCORE.INTER>
-52.8248

>  <SCORE.INTER.CONST>
1

>  <SCORE.INTER.POLAR>
-7.67942

>  <SCORE.INTER.ROT>
9

>  <SCORE.INTER.SOLV>
28.1624

>  <SCORE.INTER.VDW>
-28.606

>  <SCORE.INTER.norm>
-1.25773

>  <SCORE.INTRA>
-14.2936

>  <SCORE.INTRA.DIHEDRAL>
-30.9049

>  <SCORE.INTRA.DIHEDRAL.0>
46.2143

>  <SCORE.INTRA.POLAR>
1.01815

>  <SCORE.INTRA.POLAR.0>
-1.76436

>  <SCORE.INTRA.REPUL>
0

>  <SCORE.INTRA.REPUL.0>
0

>  <SCORE.INTRA.SOLV>
-4.41557

>  <SCORE.INTRA.SOLV.lig_0>
-148.643

>  <SCORE.INTRA.VDW>
-0.0950438

>  <SCORE.INTRA.VDW.0>
-4.83512

>  <SCORE.INTRA.norm>
-0.340323

>  <SCORE.RESTR>
0.27275

>  <SCORE.RESTR.CAVITY>
0.27275

>  <SCORE.RESTR.norm>
0.00649404

>  <SCORE.SYSTEM>
0

>  <SCORE.SYSTEM.CONST>
0

>  <SCORE.SYSTEM.DIHEDRAL>
0

>  <SCORE.SYSTEM.SOLV>
0

>  <SCORE.SYSTEM.norm>
0

>  <SCORE.heavy>
42

>  <SCORE.norm>
-1.59156

>  <RMSD>
1.127

$$$$
1j7t
 OpenBabel11021811393D
libRbt.so/2013.1/901 2013/11/27
 42 45  0  0  0  0  0  0  0  0999 V2000
   30.0479    9.0036   52.0983 C   0  0  2  0  0  0  0  0  0  0  0  0
   31.0728    8.0943   51.6235 O   0  0  0  0  0  0  0  0  0  0  0  0
   28.8916    8.9634   51.0584 C   0  0  2  0  0  0  0  0  0  0  0  0
   28.3811    7.5959   50.7536 N   0  3  0  0  0  0  0  0  0  0  0  0
   29.4098    9.5824   49.7419 C   0  0  1  0  0  0  0  0  0  0  0  0
   28.4028    9.5880   48.7695 O   0  0  0  0  0  0  0  0  0  0  0  0
   29.9280   11.0174   49.9983 C   0  0  2  0  0  0  0  0  0  0  0  0
   30.3878   11.6110   48.8003 O   0  0  0  0  0  0  0  0  0  0  0  0
   31.0610   10.9830   51.0019 C   0  0  2  0  0  0  0  0  0  0  0  0
   30.6141   10.3484   52.1934 O   0  0  0  0  0  0  0  0  0  0  0  0
   31.5459   12.3602   51.3958 C   0  0  0  0  0  0  0  0  0  0  0  0
   32.0643   13.0208   50.2573 O   0  0  0  0  0  0  0  0  0  0  0  0
   34.2982    5.9787   53.3466 C   0  0  2  0  0  0  0  0  0  0  0  0
   35.5051    5.6790   54.1180 N   0  3  0  0  0  0  0  0  0  0  0  0
   34.6276    7.0145   52.2210 C   0  0  0  0  0  0  0  0  0  0  0  0
   33.3495    7.3698   51.4375 C   0  0  2  0  0  0  0  0  0  0  0  0
   33.6298    8.3806   50.4124 N   0  3  0  0  0  0  0  0  0  0  0  0
   32.2636    7.8986   52.3950 C   0  0  2  0  0  0  0  0  0  0  0  0
   31.9384    6.9092   53.5310 C   0  0  2  0  0  0  0  0  0  0  0  0
   31.0373    7.6016   54.4164 O   0  0  0  0  0  0  0  0  0  0  0  0
   33.2316    6.5144   54.2884 C   0  0  1  0  0  0  0  0  0  0  0  0
   32.9246    5.5404   55.2476 O   0  0  0  0  0  0  0  0  0  0  0  0
   30.2685    6.9491   55.4236 C   0  0  1  0  0  0  0  0  0  0  0  0
   30.4613    7.7207   56.7777 C   0  0  2  0  0  0  0  0  0  0  0  0
   31.5751    7.2820   57.5365 O   0  0  0  0  0  0  0  0  0  0  0  0
   29.1061    7.4153   57.4003 C   0  0  2  0  0  0  0  0  0  0  0  0
   28.9931    6.0025   57.7477 O   0  0  0  0  0  0  0  0  0  0  0  0
   28.1428    7.6859   56.2531 C   0  0  2  0  0  0  0  0  0  0  0  0
   28.8450    7.0749   55.1571 O   0  0  0  0  0  0  0  0  0  0  0  0
   27.8271    9.1966   56.0006 C   0  0  0  0  0  0  0  0  0  0  0  0
   29.0240    9.9804   55.9158 O   0  0  0  0  0  0  0  0  0  0  0  0
   27.8705    5.6959   58.5707 C   0  0  2  0  0  0  0  0  0  0  0  0
   28.0759    5.9925   60.0952 C   0  0  2  0  0  0  0  0  0  0  0  0
   29.2399    5.2583   60.6778 N   0  3  0  0  0  0  0  0  0  0  0  0
   26.7399    5.6173   60.8190 C   0  0  1  0  0  0  0  0  0  0  0  0
   25.6897    6.5153   60.2915 O   0  0  0  0  0  0  0  0  0  0  0  0
   26.3076    4.1223   60.5552 C   0  0  2  0  0  0  0  0  0  0  0  0
   27.3025    3.2526   61.1196 O   0  0  0  0  0  0  0  0  0  0  0  0
   26.1683    3.9178   58.9897 C   0  0  1  0  0  0  0  0  0  0  0  0
   27.4558    4.2710   58.3809 O   0  0  0  0  0  0  0  0  0  0  0  0
   25.7638    2.4885   58.5628 C   0  0  0  0  0  0  0  0  0  0  0  0
   24.3920    2.1074   58.9959 N   0  3  0  0  0  0  0  0  0  0  0  0
  1  2  1  6  0  0  0
  1  3  1  0  0  0  0
  1 10  1  0  0  0  0
  3  4  1  6  0  0  0
  3  5  1  0  0  0  0
  5  6  1  6  0  0  0
  5  7  1  0  0  0  0
  7  8  1  6  0  0  0
  7  9  1  0  0  0  0
  9 10  1  0  0  0  0
  9 11  1  1  0  0  0
 11 12  1  0  0  0  0
 13 14  1  1  0  0  0
 13 15  1  0  0  0  0
 13 21  1  0  0  0  0
 15 16  1  0  0  0  0
 16 17  1  6  0  0  0
 16 18  1  0  0  0  0
 18  2  1  6  0  0  0
 18 19  1  0  0  0  0
 19 20  1  1  0  0  0
 19 21  1  0  0  0  0
 21 22  1  1  0  0  0
 23 20  1  6  0  0  0
 23 24  1  0  0  0  0
 23 29  1  0  0  0  0
 24 25  1  1  0  0  0
 24 26  1  0  0  0  0
 26 27  1  6  0  0  0
 26 28  1  0  0  0  0
 28 29  1  0  0  0  0
 28 30  1  6  0  0  0
 30 31  1  0  0  0  0
 32 27  1  6  0  0  0
 32 33  1  0  0  0  0
 32 40  1  0  0  0  0
 33 34  1  1  0  0  0
 33 35  1  0  0  0  0
 35 36  1  6  0  0  0
 35 37  1  0  0  0  0
 37 38  1  6  0  0  0
 37 39  1  0  0  0  0
 39 40  1  0  0  0  0
 39 41  1  1  0  0  0
 41 42  1  0  0  0  0
M  CHG  5   4   1  14   1  17   1  34   1  42   1
M  END
>  <CHROM.1>
-178.80776414,-158.06985634,-164.80910314,168.50546451,-50.71154879,-62.50248690
57.12298734,-157.39899086,-40.13161815,165.53758696,130.52927477,41.59295877
18.92077848,168.10550691,-80.86480597,49.96427910,162.05125396,-168.98690473
-177.32283681,-103.51726760,66.07557009,50.26340932,29.85477390,7.36656284
54.85889049,1.15119910,0.24415426,-0.93570224

>  <Name>
1j7t

>  <RI>
0

>  <Rbt.Current_Directory>
/home/itssahil/PROJECTS/Mol_Feturizer/New_Systems/rnas/1j7t

>  <Rbt.Executable>
rbdock ($Id: //depot/dev/client3/rdock/2013.1/src/exe/rbdock.cxx#4 $)

>  <Rbt.Library>
libRbt.so (2013.1, Build901 2013/11/27)

>  <Rbt.Parameter_File>
/export/apps/rDock/src/rDock_2013.1_src/data/scripts/dock_solv.prm

>  <Rbt.Receptor>
prm/pocket_docking_2.prm

>  <SCORE>
-53.3833

>  <SCORE.INTER>
-47.7726

>  <SCORE.INTER.CONST>
1

>  <SCORE.INTER.POLAR>
-7.12708

>  <SCORE.INTER.ROT>
9

>  <SCORE.INTER.SOLV>
27.0563

>  <SCORE.INTER.VDW>
-26.7103

>  <SCORE.INTER.norm>
-1.13744

>  <SCORE.INTRA>
-6.92194

>  <SCORE.INTRA.DIHEDRAL>
-14.4589

>  <SCORE.INTRA.DIHEDRAL.0>
46.2143

>  <SCORE.INTRA.POLAR>
0.444813

>  <SCORE.INTRA.POLAR.0>
-1.76436

>  <SCORE.INTRA.REPUL>
0.00674173

>  <SCORE.INTRA.REPUL.0>
0

>  <SCORE.INTRA.SOLV>
-3.38592

>  <SCORE.INTRA.SOLV.lig_0>
-148.643

>  <SCORE.INTRA.VDW>
0.454406

>  <SCORE.INTRA.VDW.0>
-4.83512

>  <SCORE.INTRA.norm>
-0.164808

>  <SCORE.RESTR>
1.31126

>  <SCORE.RESTR.CAVITY>
1.31126

>  <SCORE.RESTR.norm>
0.0312204

>  <SCORE.SYSTEM>
0

>  <SCORE.SYSTEM.CONST>
0

>  <SCORE.SYSTEM.DIHEDRAL>
0

>  <SCORE.SYSTEM.SOLV>
0

>  <SCORE.SYSTEM.norm>
0

>  <SCORE.heavy>
42

>  <SCORE.norm>
-1.27103

>  <RMSD>
1.209

$$$$
1j7t
 OpenBabel11021811393D
libRbt.so/2013.1/901 2013/11/27
 42 45  0  0  0  0  0  0  0  0999 V2000
   30.6315    9.0783   52.6208 C   0  0  2  0  0  0  0  0  0  0  0  0
   31.4442    7.9897   52.1139 O   0  0  0  0  0  0  0  0  0  0  0  0
   29.2175    8.9167   51.9926 C   0  0  2  0  0  0  0  0  0  0  0  0
   28.6033    7.5722   52.1892 N   0  3  0  0  0  0  0  0  0  0  0  0
   29.3367    9.1681   50.4735 C   0  0  1  0  0  0  0  0  0  0  0  0
   28.0866    9.0516   49.8546 O   0  0  0  0  0  0  0  0  0  0  0  0
   29.9458   10.5663   50.2134 C   0  0  2  0  0  0  0  0  0  0  0  0
   30.0439   10.8255   48.8269 O   0  0  0  0  0  0  0  0  0  0  0  0
   31.3247   10.6496   50.8328 C   0  0  2  0  0  0  0  0  0  0  0  0
   31.2359   10.3479   52.2195 O   0  0  0  0  0  0  0  0  0  0  0  0
   31.9412   12.0262   50.7236 C   0  0  0  0  0  0  0  0  0  0  0  0
   31.1656   12.9500   51.4627 O   0  0  0  0  0  0  0  0  0  0  0  0
   34.5806    5.5504   53.5493 C   0  0  2  0  0  0  0  0  0  0  0  0
   35.8280    5.1297   54.1884 N   0  3  0  0  0  0  0  0  0  0  0  0
   34.8915    6.4989   52.3443 C   0  0  0  0  0  0  0  0  0  0  0  0
   33.5790    6.9830   51.6989 C   0  0  2  0  0  0  0  0  0  0  0  0
   33.8507    7.9162   50.6006 N   0  3  0  0  0  0  0  0  0  0  0  0
   32.6882    7.6741   52.7498 C   0  0  2  0  0  0  0  0  0  0  0  0
   32.3882    6.7715   53.9625 C   0  0  2  0  0  0  0  0  0  0  0  0
   31.6902    7.5996   54.9124 O   0  0  0  0  0  0  0  0  0  0  0  0
   33.7077    6.2454   54.5821 C   0  0  1  0  0  0  0  0  0  0  0  0
   33.4060    5.3498   55.6165 O   0  0  0  0  0  0  0  0  0  0  0  0
   30.6436    7.1209   55.7531 C   0  0  1  0  0  0  0  0  0  0  0  0
   31.2454    6.8033   57.1684 C   0  0  2  0  0  0  0  0  0  0  0  0
   31.7609    5.4889   57.2927 O   0  0  0  0  0  0  0  0  0  0  0  0
   30.0037    7.0823   58.0037 C   0  0  2  0  0  0  0  0  0  0  0  0
   28.9718    6.0786   57.7638 O   0  0  0  0  0  0  0  0  0  0  0  0
   29.5049    8.4013   57.4305 C   0  0  2  0  0  0  0  0  0  0  0  0
   29.6701    8.1666   56.0215 O   0  0  0  0  0  0  0  0  0  0  0  0
   30.2764    9.6683   57.9259 C   0  0  0  0  0  0  0  0  0  0  0  0
   30.0244   10.8029   57.0874 O   0  0  0  0  0  0  0  0  0  0  0  0
   27.8503    6.1799   58.6376 C   0  0  2  0  0  0  0  0  0  0  0  0
   28.1992    6.0990   60.1627 C   0  0  2  0  0  0  0  0  0  0  0  0
   28.9080    4.8357   60.5300 N   0  3  0  0  0  0  0  0  0  0  0  0
   26.8546    6.2523   60.9490 C   0  0  1  0  0  0  0  0  0  0  0  0
   26.3231    7.5993   60.6479 O   0  0  0  0  0  0  0  0  0  0  0  0
   25.7795    5.1771   60.5253 C   0  0  2  0  0  0  0  0  0  0  0  0
   26.2756    3.8738   60.8718 O   0  0  0  0  0  0  0  0  0  0  0  0
   25.5308    5.3158   58.9662 C   0  0  1  0  0  0  0  0  0  0  0  0
   26.8245    5.1462   58.2947 O   0  0  0  0  0  0  0  0  0  0  0  0
   24.5073    4.3123   58.3878 C   0  0  0  0  0  0  0  0  0  0  0  0
   23.9226    4.7454   57.0897 N   0  3  0  0  0  0  0  0  0  0  0  0
  1  2  1  6  0  0  0
  1  3  1  0  0  0  0
  1 10  1  0  0  0  0
  3  4  1  6  0  0  0
  3  5  1  0  0  0  0
  5  6  1  6  0  0  0
  5  7  1  0  0  0  0
  7  8  1  6  0  0  0
  7  9  1  0  0  0  0
  9 10  1  0  0  0  0
  9 11  1  1  0  0  0
 11 12  1  0  0  0  0
 13 14  1  1  0  0  0
 13 15  1  0  0  0  0
 13 21  1  0  0  0  0
 15 16  1  0  0  0  0
 16 17  1  6  0  0  0
 16 18  1  0  0  0  0
 18  2  1  6  0  0  0
 18 19  1  0  0  0  0
 19 20  1  1  0  0  0
 19 21  1  0  0  0  0
 21 22  1  1  0  0  0
 23 20  1  6  0  0  0
 23 24  1  0  0  0  0
 23 29  1  0  0  0  0
 24 25  1  6  0  0  0
 24 26  1  0  0  0  0
 26 27  1  6  0  0  0
 26 28  1  0  0  0  0
 28 29  1  0  0  0  0
 28 30  1  1  0  0  0
 30 31  1  0  0  0  0
 32 27  1  6  0  0  0
 32 33  1  0  0  0  0
 32 40  1  0  0  0  0
 33 34  1  6  0  0  0
 33 35  1  0  0  0  0
 35 36  1  6  0  0  0
 35 37  1  0  0  0  0
 37 38  1  6  0  0  0
 37 39  1  0  0  0  0
 39 40  1  0  0  0  0
 39 41  1  6  0  0  0
 41 42  1  0  0  0  0
M  CHG  5   4   1  14   1  17   1  34   1  42   1
M  END
>  <CHROM.1>
-164.85715564,-155.01276996,170.78371002,-74.02245989,-56.98818834,64.00284124
-178.68240832,69.52960980,59.39568026,144.34347874,98.49718724,62.98612344
-50.55103466,172.37968222,-57.00906551,163.55816260,63.06848707,52.20837147
63.79863727,-173.31073613,159.16989967,54.92206513,30.04574769,7.47053587
55.16102403,1.04586872,0.29160062,-0.98596712

>  <Name>
1j7t

>  <RI>
0

>  <Rbt.Current_Directory>
/home/itssahil/PROJECTS/Mol_Feturizer/New_Systems/rnas/1j7t

>  <Rbt.Executable>
rbdock ($Id: //depot/dev/client3/rdock/2013.1/src/exe/rbdock.cxx#4 $)

>  <Rbt.Library>
libRbt.so (2013.1, Build901 2013/11/27)

>  <Rbt.Parameter_File>
/export/apps/rDock/src/rDock_2013.1_src/data/scripts/dock_solv.prm

>  <Rbt.Receptor>
prm/pocket_docking_2.prm

>  <SCORE>
-62.4258

>  <SCORE.INTER>
-52.2829

>  <SCORE.INTER.CONST>
1

>  <SCORE.INTER.POLAR>
-8.00401

>  <SCORE.INTER.ROT>
9

>  <SCORE.INTER.SOLV>
26.8302

>  <SCORE.INTER.VDW>
-26.7186

>  <SCORE.INTER.norm>
-1.24483

>  <SCORE.INTRA>
-11.4321

>  <SCORE.INTRA.DIHEDRAL>
-26.9881

>  <SCORE.INTRA.DIHEDRAL.0>
46.2143

>  <SCORE.INTRA.POLAR>
1.05711

>  <SCORE.INTRA.POLAR.0>
-1.76436

>  <SCORE.INTRA.REPUL>
0

>  <SCORE.INTRA.REPUL.0>
0

>  <SCORE.INTRA.SOLV>
-3.47298

>  <SCORE.INTRA.SOLV.lig_0>
-148.643

>  <SCORE.INTRA.VDW>
0.204257

>  <SCORE.INTRA.VDW.0>
-4.83512

>  <SCORE.INTRA.norm>
-0.272193

>  <SCORE.RESTR>
1.28917

>  <SCORE.RESTR.CAVITY>
1.28917

>  <SCORE.RESTR.norm>
0.0306946

>  <SCORE.SYSTEM>
0

>  <SCORE.SYSTEM.CONST>
0

>  <SCORE.SYSTEM.DIHEDRAL>
0

>  <SCORE.SYSTEM.SOLV>
0

>  <SCORE.SYSTEM.norm>
0

>  <SCORE.heavy>
42

>  <SCORE.norm>
-1.48633

>  <RMSD>
1.251

$$$$
1j7t
 OpenBabel11021811393D
libRbt.so/2013.1/901 2013/11/27
 42 45  0  0  0  0  0  0  0  0999 V2000
   30.5122    8.8123   52.8237 C   0  0  2  0  0  0  0  0  0  0  0  0
   31.4235    7.8732   52.1991 O   0  0  0  0  0  0  0  0  0  0  0  0
   29.1149    8.5818   52.1799 C   0  0  2  0  0  0  0  0  0  0  0  0
   28.6388    7.1694   52.2244 N   0  3  0  0  0  0  0  0  0  0  0  0
   29.1933    9.0113   50.6986 C   0  0  1  0  0  0  0  0  0  0  0  0
   27.9547    8.8407   50.0693 O   0  0  0  0  0  0  0  0  0  0  0  0
   29.6583   10.4834   50.5970 C   0  0  2  0  0  0  0  0  0  0  0  0
   29.7163   10.9038   49.2482 O   0  0  0  0  0  0  0  0  0  0  0  0
   31.0284   10.6340   51.2232 C   0  0  2  0  0  0  0  0  0  0  0  0
   30.9839   10.1725   52.5675 O   0  0  0  0  0  0  0  0  0  0  0  0
   31.5046   12.0686   51.2692 C   0  0  0  0  0  0  0  0  0  0  0  0
   31.5696   12.5861   49.9542 O   0  0  0  0  0  0  0  0  0  0  0  0
   34.6605    5.5373   53.5825 C   0  0  2  0  0  0  0  0  0  0  0  0
   35.9342    5.1583   54.1952 N   0  3  0  0  0  0  0  0  0  0  0  0
   34.9156    6.4808   52.3605 C   0  0  0  0  0  0  0  0  0  0  0  0
   33.5749    6.9214   51.7425 C   0  0  2  0  0  0  0  0  0  0  0  0
   33.7939    7.8497   50.6283 N   0  3  0  0  0  0  0  0  0  0  0  0
   32.6908    7.5991   52.8077 C   0  0  2  0  0  0  0  0  0  0  0  0
   32.4455    6.7018   54.0365 C   0  0  2  0  0  0  0  0  0  0  0  0
   31.7478    7.5207   54.9947 O   0  0  0  0  0  0  0  0  0  0  0  0
   33.7937    6.2192   54.6291 C   0  0  1  0  0  0  0  0  0  0  0  0
   33.5422    5.3270   55.6797 O   0  0  0  0  0  0  0  0  0  0  0  0
   30.6677    7.0473   55.7949 C   0  0  1  0  0  0  0  0  0  0  0  0
   31.2058    6.7618   57.2423 C   0  0  2  0  0  0  0  0  0  0  0  0
   31.7268    5.4550   57.4151 O   0  0  0  0  0  0  0  0  0  0  0  0
   29.9242    7.0438   58.0137 C   0  0  2  0  0  0  0  0  0  0  0  0
   28.9136    6.0257   57.7453 O   0  0  0  0  0  0  0  0  0  0  0  0
   29.4407    8.3471   57.3933 C   0  0  2  0  0  0  0  0  0  0  0  0
   29.6733    8.0881   55.9981 O   0  0  0  0  0  0  0  0  0  0  0  0
   30.1770    9.6305   57.8999 C   0  0  0  0  0  0  0  0  0  0  0  0
   29.9930   10.7344   57.0046 O   0  0  0  0  0  0  0  0  0  0  0  0
   27.7401    6.1489   58.5449 C   0  0  2  0  0  0  0  0  0  0  0  0
   27.9941    6.1126   60.0903 C   0  0  2  0  0  0  0  0  0  0  0  0
   28.6802    4.8623   60.5368 N   0  3  0  0  0  0  0  0  0  0  0  0
   26.6033    6.2845   60.7873 C   0  0  1  0  0  0  0  0  0  0  0  0
   26.0900    7.6209   60.4153 O   0  0  0  0  0  0  0  0  0  0  0  0
   25.5576    5.1946   60.3290 C   0  0  2  0  0  0  0  0  0  0  0  0
   26.0327    3.9032   60.7428 O   0  0  0  0  0  0  0  0  0  0  0  0
   25.4056    5.2879   58.7542 C   0  0  1  0  0  0  0  0  0  0  0  0
   26.7386    5.1029   58.1691 O   0  0  0  0  0  0  0  0  0  0  0  0
   24.4209    4.2655   58.1428 C   0  0  0  0  0  0  0  0  0  0  0  0
   22.9942    4.5682   58.4384 N   0  3  0  0  0  0  0  0  0  0  0  0
  1  2  1  6  0  0  0
  1  3  1  0  0  0  0
  1 10  1  0  0  0  0
  3  4  1  6  0  0  0
  3  5  1  0  0  0  0
  5  6  1  1  0  0  0
  5  7  1  0  0  0  0
  7  8  1  6  0  0  0
  7  9  1  0  0  0  0
  9 10  1  0  0  0  0
  9 11  1  1  0  0  0
 11 12  1  0  0  0  0
 13 14  1  1  0  0  0
 13 15  1  0  0  0  0
 13 21  1  0  0  0  0
 15 16  1  0  0  0  0
 16 17  1  6  0  0  0
 16 18  1  0  0  0  0
 18  2  1  6  0  0  0
 18 19  1  0  0  0  0
 19 20  1  1  0  0  0
 19 21  1  0  0  0  0
 21 22  1  1  0  0  0
 23 20  1  6  0  0  0
 23 24  1  0  0  0  0
 23 29  1  0  0  0  0
 24 25  1  6  0  0  0
 24 26  1  0  0  0  0
 26 27  1  6  0  0  0
 26 28  1  0  0  0  0
 28 29  1  0  0  0  0
 28 30  1  1  0  0  0
 30 31  1  0  0  0  0
 32 27  1  6  0  0  0
 32 33  1  0  0  0  0
 32 40  1  0  0  0  0
 33 34  1  6  0  0  0
 33 35  1  0  0  0  0
 35 36  1  6  0  0  0
 35 37  1  0  0  0  0
 37 38  1  6  0  0  0
 37 39  1  0  0  0  0
 39 40  1  0  0  0  0
 39 41  1  6  0  0  0
 41 42  1  0  0  0  0
M  CHG  5   4   1  14   1  17   1  34   1  42   1
M  END
>  <CHROM.1>
-163.92947563,-163.65221821,-47.85115092,-84.66055465,-179.57369552,-59.74014745
-71.79011835,-164.31510687,174.66934630,139.46773321,102.27838001,-58.63219747
76.66978456,173.61744166,-57.37074483,161.49908262,75.30012079,44.75955725
-178.02942701,175.55128060,71.94932313,-57.07814966,29.94228840,7.39678549
55.20802986,1.00161378,0.27165103,-0.98582509

>  <Name>
1j7t

>  <RI>
0

>  <Rbt.Current_Directory>
/home/itssahil/PROJECTS/Mol_Feturizer/New_Systems/rnas/1j7t

>  <Rbt.Executable>
rbdock ($Id: //depot/dev/client3/rdock/2013.1/src/exe/rbdock.cxx#4 $)

>  <Rbt.Library>
libRbt.so (2013.1, Build901 2013/11/27)

>  <Rbt.Parameter_File>
/export/apps/rDock/src/rDock_2013.1_src/data/scripts/dock_solv.prm

>  <Rbt.Receptor>
prm/pocket_docking_2.prm

>  <SCORE>
-62.609

>  <SCORE.INTER>
-48.8399

>  <SCORE.INTER.CONST>
1

>  <SCORE.INTER.POLAR>
-7.31966

>  <SCORE.INTER.ROT>
9

>  <SCORE.INTER.SOLV>
24.7552

>  <SCORE.INTER.VDW>
-26.0128

>  <SCORE.INTER.norm>
-1.16285

>  <SCORE.INTRA>
-15.0602

>  <SCORE.INTRA.DIHEDRAL>
-22.8614

>  <SCORE.INTRA.DIHEDRAL.0>
46.2143

>  <SCORE.INTRA.POLAR>
-0.300627

>  <SCORE.INTRA.POLAR.0>
-1.76436

>  <SCORE.INTRA.REPUL>
0

>  <SCORE.INTRA.REPUL.0>
0

>  <SCORE.INTRA.SOLV>
-4.17845

>  <SCORE.INTRA.SOLV.lig_0>
-148.643

>  <SCORE.INTRA.VDW>
-0.518122

>  <SCORE.INTRA.VDW.0>
-4.83512

>  <SCORE.INTRA.norm>
-0.358576

>  <SCORE.RESTR>
1.29108

>  <SCORE.RESTR.CAVITY>
1.29108

>  <SCORE.RESTR.norm>
0.03074

>  <SCORE.SYSTEM>
0

>  <SCORE.SYSTEM.CONST>
0

>  <SCORE.SYSTEM.DIHEDRAL>
0

>  <SCORE.SYSTEM.SOLV>
0

>  <SCORE.SYSTEM.norm>
0

>  <SCORE.heavy>
42

>  <SCORE.norm>
-1.49069

>  <RMSD>
1.269

$$$$
1j7t
 OpenBabel11021811393D
libRbt.so/2013.1/901 2013/11/27
 42 45  0  0  0  0  0  0  0  0999 V2000
   30.5870    8.6687   53.0430 C   0  0  2  0  0  0  0  0  0  0  0  0
   31.4191    7.5978   52.5298 O   0  0  0  0  0  0  0  0  0  0  0  0
   29.1181    8.3172   52.6703 C   0  0  2  0  0  0  0  0  0  0  0  0
   28.6779    6.9599   53.1034 N   0  3  0  0  0  0  0  0  0  0  0  0
   28.9823    8.3939   51.1339 C   0  0  1  0  0  0  0  0  0  0  0  0
   27.6715    8.1017   50.7393 O   0  0  0  0  0  0  0  0  0  0  0  0
   29.4025    9.7963   50.6335 C   0  0  2  0  0  0  0  0  0  0  0  0
   29.2651    9.8949   49.2298 O   0  0  0  0  0  0  0  0  0  0  0  0
   30.8435   10.0664   51.0115 C   0  0  2  0  0  0  0  0  0  0  0  0
   30.9943    9.9265   52.4185 O   0  0  0  0  0  0  0  0  0  0  0  0
   31.2959   11.4660   50.6604 C   0  0  0  0  0  0  0  0  0  0  0  0
   32.3131   11.4004   49.6794 O   0  0  0  0  0  0  0  0  0  0  0  0
   34.5650    5.1845   53.9886 C   0  0  2  0  0  0  0  0  0  0  0  0
   35.8127    4.7746   54.6340 N   0  3  0  0  0  0  0  0  0  0  0  0
   34.8743    6.1283   52.7795 C   0  0  0  0  0  0  0  0  0  0  0  0
   33.5611    6.6014   52.1272 C   0  0  2  0  0  0  0  0  0  0  0  0
   33.8310    7.5303   51.0248 N   0  3  0  0  0  0  0  0  0  0  0  0
   32.6628    7.2929   53.1715 C   0  0  2  0  0  0  0  0  0  0  0  0
   32.3641    6.3950   54.3880 C   0  0  2  0  0  0  0  0  0  0  0  0
   31.6581    7.2241   55.3312 O   0  0  0  0  0  0  0  0  0  0  0  0
   33.6846    5.8800   55.0148 C   0  0  1  0  0  0  0  0  0  0  0  0
   33.3847    4.9882   56.0529 O   0  0  0  0  0  0  0  0  0  0  0  0
   30.7907    6.7074   56.3370 C   0  0  1  0  0  0  0  0  0  0  0  0
   30.5166    7.8395   57.3902 C   0  0  2  0  0  0  0  0  0  0  0  0
   31.4716    7.8960   58.4360 O   0  0  0  0  0  0  0  0  0  0  0  0
   29.1231    7.4055   57.8228 C   0  0  2  0  0  0  0  0  0  0  0  0
   29.1705    6.1538   58.5715 O   0  0  0  0  0  0  0  0  0  0  0  0
   28.4342    7.1221   56.4952 C   0  0  2  0  0  0  0  0  0  0  0  0
   29.4738    6.4194   55.7929 O   0  0  0  0  0  0  0  0  0  0  0  0
   27.9377    8.3905   55.7270 C   0  0  0  0  0  0  0  0  0  0  0  0
   27.1319    9.2327   56.5609 O   0  0  0  0  0  0  0  0  0  0  0  0
   27.8952    5.6908   59.0082 C   0  0  2  0  0  0  0  0  0  0  0  0
   27.3182    6.4419   60.2561 C   0  0  2  0  0  0  0  0  0  0  0  0
   28.2221    6.3732   61.4443 N   0  3  0  0  0  0  0  0  0  0  0  0
   25.9183    5.8126   60.5627 C   0  0  1  0  0  0  0  0  0  0  0  0
   25.0519    6.0837   59.3950 O   0  0  0  0  0  0  0  0  0  0  0  0
   25.9921    4.2521   60.7873 C   0  0  2  0  0  0  0  0  0  0  0  0
   26.7878    3.9958   61.9560 O   0  0  0  0  0  0  0  0  0  0  0  0
   26.6245    3.5962   59.4905 C   0  0  1  0  0  0  0  0  0  0  0  0
   27.9354    4.2190   59.2738 O   0  0  0  0  0  0  0  0  0  0  0  0
   26.7818    2.0601   59.5597 C   0  0  0  0  0  0  0  0  0  0  0  0
   25.4850    1.3306   59.5314 N   0  3  0  0  0  0  0  0  0  0  0  0
  1  2  1  6  0  0  0
  1  3  1  0  0  0  0
  1 10  1  0  0  0  0
  3  4  1  6  0  0  0
  3  5  1  0  0  0  0
  5  6  1  1  0  0  0
  5  7  1  0  0  0  0
  7  8  1  6  0  0  0
  7  9  1  0  0  0  0
  9 10  1  0  0  0  0
  9 11  1  1  0  0  0
 11 12  1  0  0  0  0
 13 14  1  1  0  0  0
 13 15  1  0  0  0  0
 13 21  1  0  0  0  0
 15 16  1  0  0  0  0
 16 17  1  6  0  0  0
 16 18  1  0  0  0  0
 18  2  1  6  0  0  0
 18 19  1  0  0  0  0
 19 20  1  1  0  0  0
 19 21  1  0  0  0  0
 21 22  1  1  0  0  0
 23 20  1  6  0  0  0
 23 24  1  0  0  0  0
 23 29  1  0  0  0  0
 24 25  1  1  0  0  0
 24 26  1  0  0  0  0
 26 27  1  1  0  0  0
 26 28  1  0  0  0  0
 28 29  1  0  0  0  0
 28 30  1  6  0  0  0
 30 31  1  0  0  0  0
 32 27  1  1  0  0  0
 32 33  1  0  0  0  0
 32 40  1  0  0  0  0
 33 34  1  1  0  0  0
 33 35  1  0  0  0  0
 35 36  1  6  0  0  0
 35 37  1  0  0  0  0
 37 38  1  1  0  0  0
 37 39  1  0  0  0  0
 39 40  1  0  0  0  0
 39 41  1  1  0  0  0
 41 42  1  0  0  0  0
M  CHG  5   4   1  14   1  17   1  34   1  42   1
M  END
>  <CHROM.1>
-152.24616015,-156.12485945,-78.58842580,-165.20964384,174.16079064,-115.42163391
56.82124717,177.85414532,49.11957510,156.26470488,165.06561836,-179.73120554
-59.60712517,179.95738861,-77.15722340,-52.08836636,-176.90346915,43.10585360
-179.75145874,176.47060988,69.34446855,60.91512775,29.86644100,6.88677368
55.47453294,1.08027645,0.29855537,-0.97611796

>  <Name>
1j7t

>  <RI>
0

>  <Rbt.Current_Directory>
/home/itssahil/PROJECTS/Mol_Feturizer/New_Systems/rnas/1j7t

>  <Rbt.Executable>
rbdock ($Id: //depot/dev/client3/rdock/2013.1/src/exe/rbdock.cxx#4 $)

>  <Rbt.Library>
libRbt.so (2013.1, Build901 2013/11/27)

>  <Rbt.Parameter_File>
/export/apps/rDock/src/rDock_2013.1_src/data/scripts/dock_solv.prm

>  <Rbt.Receptor>
prm/pocket_docking_4.prm

>  <SCORE>
-62.7018

>  <SCORE.INTER>
-45.968

>  <SCORE.INTER.CONST>
1

>  <SCORE.INTER.POLAR>
-7.1283

>  <SCORE.INTER.ROT>
9

>  <SCORE.INTER.SOLV>
19.6717

>  <SCORE.INTER.VDW>
-23.0416

>  <SCORE.INTER.norm>
-1.09448

>  <SCORE.INTRA>
-16.7338

>  <SCORE.INTRA.DIHEDRAL>
-26.2085

>  <SCORE.INTRA.DIHEDRAL.0>
46.2143

>  <SCORE.INTRA.POLAR>
-0.259165

>  <SCORE.INTRA.POLAR.0>
-1.76436

>  <SCORE.INTRA.REPUL>
0

>  <SCORE.INTRA.REPUL.0>
0

>  <SCORE.INTRA.SOLV>
-2.39288

>  <SCORE.INTRA.SOLV.lig_0>
-148.643

>  <SCORE.INTRA.VDW>
-1.55198

>  <SCORE.INTRA.VDW.0>
-4.83512

>  <SCORE.INTRA.norm>
-0.398425

>  <SCORE.RESTR>
0

>  <SCORE.RESTR.CAVITY>
0

>  <SCORE.RESTR.norm>
0

>  <SCORE.SYSTEM>
0

>  <SCORE.SYSTEM.CONST>
0

>  <SCORE.SYSTEM.DIHEDRAL>
0

>  <SCORE.SYSTEM.SOLV>
0

>  <SCORE.SYSTEM.norm>
0

>  <SCORE.heavy>
42

>  <SCORE.norm>
-1.4929

>  <RMSD>
1.311

$$$$
1j7t
 OpenBabel11021811393D
libRbt.so/2013.1/901 2013/11/27
 42 45  0  0  0  0  0  0  0  0999 V2000
   30.3655    8.5189   52.7651 C   0  0  2  0  0  0  0  0  0  0  0  0
   31.3635    7.6365   52.1926 O   0  0  0  0  0  0  0  0  0  0  0  0
   29.0376    8.2567   51.9982 C   0  0  2  0  0  0  0  0  0  0  0  0
   28.6176    6.8264   51.9597 N   0  3  0  0  0  0  0  0  0  0  0  0
   29.2224    8.7379   50.5424 C   0  0  1  0  0  0  0  0  0  0  0  0
   28.0489    8.5410   49.8051 O   0  0  0  0  0  0  0  0  0  0  0  0
   29.6337   10.2292   50.5248 C   0  0  2  0  0  0  0  0  0  0  0  0
   29.7873   10.6961   49.1991 O   0  0  0  0  0  0  0  0  0  0  0  0
   30.9391   10.4111   51.2696 C   0  0  2  0  0  0  0  0  0  0  0  0
   30.8010    9.9038   52.5908 O   0  0  0  0  0  0  0  0  0  0  0  0
   31.3507   11.8606   51.3988 C   0  0  0  0  0  0  0  0  0  0  0  0
   31.6419   12.3839   50.1172 O   0  0  0  0  0  0  0  0  0  0  0  0
   34.6585    5.4858   53.7307 C   0  0  2  0  0  0  0  0  0  0  0  0
   35.9153    5.1769   54.4137 N   0  3  0  0  0  0  0  0  0  0  0  0
   34.9239    6.4703   52.5438 C   0  0  0  0  0  0  0  0  0  0  0  0
   33.5967    6.8365   51.8523 C   0  0  2  0  0  0  0  0  0  0  0  0
   33.8206    7.8012   50.7705 N   0  3  0  0  0  0  0  0  0  0  0  0
   32.6072    7.4319   52.8731 C   0  0  2  0  0  0  0  0  0  0  0  0
   32.3480    6.4940   54.0682 C   0  0  2  0  0  0  0  0  0  0  0  0
   31.5413    7.2447   54.9961 O   0  0  0  0  0  0  0  0  0  0  0  0
   33.6870    6.0870   54.7339 C   0  0  1  0  0  0  0  0  0  0  0  0
   33.4322    5.1576   55.7509 O   0  0  0  0  0  0  0  0  0  0  0  0
   30.6605    6.6406   55.9397 C   0  0  1  0  0  0  0  0  0  0  0  0
   31.1302    7.0353   57.3853 C   0  0  2  0  0  0  0  0  0  0  0  0
   32.0993    6.1590   57.9348 O   0  0  0  0  0  0  0  0  0  0  0  0
   29.7739    6.9985   58.0755 C   0  0  2  0  0  0  0  0  0  0  0  0
   29.2678    5.6329   58.1689 O   0  0  0  0  0  0  0  0  0  0  0  0
   28.8821    7.7542   57.1004 C   0  0  2  0  0  0  0  0  0  0  0  0
   29.3257    7.2089   55.8459 O   0  0  0  0  0  0  0  0  0  0  0  0
   29.0114    9.3116   57.1610 C   0  0  0  0  0  0  0  0  0  0  0  0
   28.8512    9.8043   58.4972 O   0  0  0  0  0  0  0  0  0  0  0  0
   28.3203    5.4360   59.2153 C   0  0  2  0  0  0  0  0  0  0  0  0
   28.3915    4.0324   59.9074 C   0  0  2  0  0  0  0  0  0  0  0  0
   28.2027    2.9019   58.9484 N   0  3  0  0  0  0  0  0  0  0  0  0
   27.3021    4.0199   61.0312 C   0  0  1  0  0  0  0  0  0  0  0  0
   27.6757    5.0603   62.0138 O   0  0  0  0  0  0  0  0  0  0  0  0
   25.8587    4.3399   60.4786 C   0  0  2  0  0  0  0  0  0  0  0  0
   25.4764    3.2965   59.5676 O   0  0  0  0  0  0  0  0  0  0  0  0
   25.9057    5.7546   59.7654 C   0  0  1  0  0  0  0  0  0  0  0  0
   26.9319    5.6887   58.7186 O   0  0  0  0  0  0  0  0  0  0  0  0
   24.5620    6.2085   59.1510 C   0  0  0  0  0  0  0  0  0  0  0  0
   24.7224    7.0916   57.9640 N   0  3  0  0  0  0  0  0  0  0  0  0
  1  2  1  6  0  0  0
  1  3  1  0  0  0  0
  1 10  1  0  0  0  0
  3  4  1  6  0  0  0
  3  5  1  0  0  0  0
  5  6  1  6  0  0  0
  5  7  1  0  0  0  0
  7  8  1  6  0  0  0
  7  9  1  0  0  0  0
  9 10  1  0  0  0  0
  9 11  1  1  0  0  0
 11 12  1  0  0  0  0
 13 14  1  1  0  0  0
 13 15  1  0  0  0  0
 13 21  1  0  0  0  0
 15 16  1  0  0  0  0
 16 17  1  6  0  0  0
 16 18  1  0  0  0  0
 18  2  1  6  0  0  0
 18 19  1  0  0  0  0
 19 20  1  1  0  0  0
 19 21  1  0  0  0  0
 21 22  1  1  0  0  0
 23 20  1  6  0  0  0
 23 24  1  0  0  0  0
 23 29  1  0  0  0  0
 24 25  1  1  0  0  0
 24 26  1  0  0  0  0
 26 27  1  6  0  0  0
 26 28  1  0  0  0  0
 28 29  1  0  0  0  0
 28 30  1  6  0  0  0
 30 31  1  0  0  0  0
 32 27  1  6  0  0  0
 32 33  1  0  0  0  0
 32 40  1  0  0  0  0
 33 34  1  6  0  0  0
 33 35  1  0  0  0  0
 35 36  1  1  0  0  0
 35 37  1  0  0  0  0
 37 38  1  6  0  0  0
 37 39  1  0  0  0  0
 39 40  1  0  0  0  0
 39 41  1  6  0  0  0
 41 42  1  0  0  0  0
M  CHG  5   4   1  14   1  17   1  34   1  42   1
M  END
>  <CHROM.1>
-166.36508770,-162.58685882,78.20293048,59.42376015,-51.69019472,-65.89342454
58.12226547,63.71281845,-62.96809898,154.39117496,118.79474219,167.13411725
-77.67322278,156.57477839,-145.13497627,-52.20178038,66.02578495,159.59179722
56.94835717,76.58140903,-150.52607536,48.80553153,29.97769588,7.10817109
55.29573790,1.08854725,0.31522192,-0.98040890

>  <Name>
1j7t

>  <RI>
0

>  <Rbt.Current_Directory>
/home/itssahil/PROJECTS/Mol_Feturizer/New_Systems/rnas/1j7t

>  <Rbt.Executable>
rbdock ($Id: //depot/dev/client3/rdock/2013.1/src/exe/rbdock.cxx#4 $)

>  <Rbt.Library>
libRbt.so (2013.1, Build901 2013/11/27)

>  <Rbt.Parameter_File>
/export/apps/rDock/src/rDock_2013.1_src/data/scripts/dock_solv.prm

>  <Rbt.Receptor>
prm/pocket_docking_3.prm

>  <SCORE>
-59.7227

>  <SCORE.INTER>
-46.3175

>  <SCORE.INTER.CONST>
1

>  <SCORE.INTER.POLAR>
-6.91168

>  <SCORE.INTER.ROT>
9

>  <SCORE.INTER.SOLV>
23.438

>  <SCORE.INTER.VDW>
-25.2521

>  <SCORE.INTER.norm>
-1.1028

>  <SCORE.INTRA>
-13.4147

>  <SCORE.INTRA.DIHEDRAL>
-17.908

>  <SCORE.INTRA.DIHEDRAL.0>
46.2143

>  <SCORE.INTRA.POLAR>
-0.291123

>  <SCORE.INTRA.POLAR.0>
-1.76436

>  <SCORE.INTRA.REPUL>
0

>  <SCORE.INTRA.REPUL.0>
0

>  <SCORE.INTRA.SOLV>
-4.93075

>  <SCORE.INTRA.SOLV.lig_0>
-148.643

>  <SCORE.INTRA.VDW>
-1.0055

>  <SCORE.INTRA.VDW.0>
-4.83512

>  <SCORE.INTRA.norm>
-0.319397

>  <SCORE.RESTR>
0.00944165

>  <SCORE.RESTR.CAVITY>
0.00944165

>  <SCORE.RESTR.norm>
0.000224801

>  <SCORE.SYSTEM>
0

>  <SCORE.SYSTEM.CONST>
0

>  <SCORE.SYSTEM.DIHEDRAL>
0

>  <SCORE.SYSTEM.SOLV>
0

>  <SCORE.SYSTEM.norm>
0

>  <SCORE.heavy>
42

>  <SCORE.norm>
-1.42197

>  <RMSD>
1.312

$$$$
1j7t
 OpenBabel11021811393D
libRbt.so/2013.1/901 2013/11/27
 42 45  0  0  0  0  0  0  0  0999 V2000
   30.5988    8.9354   52.7478 C   0  0  2  0  0  0  0  0  0  0  0  0
   31.4250    7.8606   52.2333 O   0  0  0  0  0  0  0  0  0  0  0  0
   29.1934    8.7741   52.1005 C   0  0  2  0  0  0  0  0  0  0  0  0
   28.5865    7.4224   52.2684 N   0  3  0  0  0  0  0  0  0  0  0  0
   29.3286    9.0505   50.5872 C   0  0  1  0  0  0  0  0  0  0  0  0
   28.0866    8.9354   49.9518 O   0  0  0  0  0  0  0  0  0  0  0  0
   29.9307   10.4569   50.3565 C   0  0  2  0  0  0  0  0  0  0  0  0
   30.0432   10.7388   48.9755 O   0  0  0  0  0  0  0  0  0  0  0  0
   31.3017   10.5398   50.9933 C   0  0  2  0  0  0  0  0  0  0  0  0
   31.1988   10.2153   52.3739 O   0  0  0  0  0  0  0  0  0  0  0  0
   31.9097   11.9221   50.9133 C   0  0  0  0  0  0  0  0  0  0  0  0
   30.9583   12.8257   50.3846 O   0  0  0  0  0  0  0  0  0  0  0  0
   34.5863    5.4372   53.6410 C   0  0  2  0  0  0  0  0  0  0  0  0
   35.8344    5.0212   54.2816 N   0  3  0  0  0  0  0  0  0  0  0  0
   34.8929    6.4178   52.4608 C   0  0  0  0  0  0  0  0  0  0  0  0
   33.5787    6.8966   51.8148 C   0  0  2  0  0  0  0  0  0  0  0  0
   33.8455    7.8588   50.7406 N   0  3  0  0  0  0  0  0  0  0  0  0
   32.6681    7.5496   52.8731 C   0  0  2  0  0  0  0  0  0  0  0  0
   32.3716    6.6148   54.0620 C   0  0  2  0  0  0  0  0  0  0  0  0
   31.6526    7.4101   55.0243 O   0  0  0  0  0  0  0  0  0  0  0  0
   33.6937    6.0949   54.6814 C   0  0  1  0  0  0  0  0  0  0  0  0
   33.3969    5.1712   55.6923 O   0  0  0  0  0  0  0  0  0  0  0  0
   30.6409    6.8847   55.8797 C   0  0  1  0  0  0  0  0  0  0  0  0
   30.6286    7.7190   57.2100 C   0  0  2  0  0  0  0  0  0  0  0  0
   31.5227    7.2380   58.1991 O   0  0  0  0  0  0  0  0  0  0  0  0
   29.1540    7.5632   57.5543 C   0  0  2  0  0  0  0  0  0  0  0  0
   28.8441    6.1880   57.9316 O   0  0  0  0  0  0  0  0  0  0  0  0
   28.4690    7.8410   56.2235 C   0  0  2  0  0  0  0  0  0  0  0  0
   29.3174    7.1094   55.3219 O   0  0  0  0  0  0  0  0  0  0  0  0
   28.3507    9.3543   55.8470 C   0  0  0  0  0  0  0  0  0  0  0  0
   27.3194    9.5794   54.8777 O   0  0  0  0  0  0  0  0  0  0  0  0
   27.9063    6.0770   58.9991 C   0  0  2  0  0  0  0  0  0  0  0  0
   27.4759    4.6103   59.3426 C   0  0  2  0  0  0  0  0  0  0  0  0
   26.8757    3.8933   58.1767 N   0  3  0  0  0  0  0  0  0  0  0  0
   26.4737    4.6959   60.5418 C   0  0  1  0  0  0  0  0  0  0  0  0
   27.2139    5.2615   61.6906 O   0  0  0  0  0  0  0  0  0  0  0  0
   25.2352    5.6236   60.2307 C   0  0  2  0  0  0  0  0  0  0  0  0
   24.4870    5.0403   59.1515 O   0  0  0  0  0  0  0  0  0  0  0  0
   25.7794    7.0645   59.8570 C   0  0  1  0  0  0  0  0  0  0  0  0
   26.6956    6.9108   58.7211 O   0  0  0  0  0  0  0  0  0  0  0  0
   24.6814    8.0941   59.5061 C   0  0  0  0  0  0  0  0  0  0  0  0
   24.3880    8.1730   58.0493 N   0  3  0  0  0  0  0  0  0  0  0  0
  1  2  1  6  0  0  0
  1  3  1  0  0  0  0
  1 10  1  0  0  0  0
  3  4  1  6  0  0  0
  3  5  1  0  0  0  0
  5  6  1  6  0  0  0
  5  7  1  0  0  0  0
  7  8  1  6  0  0  0
  7  9  1  0  0  0  0
  9 10  1  0  0  0  0
  9 11  1  1  0  0  0
 11 12  1  0  0  0  0
 13 14  1  1  0  0  0
 13 15  1  0  0  0  0
 13 21  1  0  0  0  0
 15 16  1  0  0  0  0
 16 17  1  6  0  0  0
 16 18  1  0  0  0  0
 18  2  1  6  0  0  0
 18 19  1  0  0  0  0
 19 20  1  1  0  0  0
 19 21  1  0  0  0  0
 21 22  1  1  0  0  0
 23 20  1  6  0  0  0
 23 24  1  0  0  0  0
 23 29  1  0  0  0  0
 24 25  1  1  0  0  0
 24 26  1  0  0  0  0
 26 27  1  6  0  0  0
 26 28  1  0  0  0  0
 28 29  1  0  0  0  0
 28 30  1  6  0  0  0
 30 31  1  0  0  0  0
 32 27  1  6  0  0  0
 32 33  1  0  0  0  0
 32 40  1  0  0  0  0
 33 34  1  6  0  0  0
 33 35  1  0  0  0  0
 35 36  1  1  0  0  0
 35 37  1  0  0  0  0
 37 38  1  6  0  0  0
 37 39  1  0  0  0  0
 39 40  1  0  0  0  0
 39 41  1  6  0  0  0
 41 42  1  0  0  0  0
M  CHG  5   4   1  14   1  17   1  34   1  42   1
M  END
>  <CHROM.1>
-165.29119192,-154.26996642,170.43834351,-71.91581131,-56.60481641,6.48939187
-60.84850956,-48.82551614,-63.86543709,146.79272093,150.39953213,-59.91075935
-56.77281413,141.63486257,175.40762710,-159.25194640,69.25213145,-70.73099321
-170.16393146,71.80602134,-93.17428549,-141.83691924,29.74504516,7.54420538
55.03764115,0.95312801,0.37439973,-0.96428712

>  <Name>
1j7t

>  <RI>
0

>  <Rbt.Current_Directory>
/home/itssahil/PROJECTS/Mol_Feturizer/New_Systems/rnas/1j7t

>  <Rbt.Executable>
rbdock ($Id: //depot/dev/client3/rdock/2013.1/src/exe/rbdock.cxx#4 $)

>  <Rbt.Library>
libRbt.so (2013.1, Build901 2013/11/27)

>  <Rbt.Parameter_File>
/export/apps/rDock/src/rDock_2013.1_src/data/scripts/dock_solv.prm

>  <Rbt.Receptor>
prm/pocket_docking_5.prm

>  <SCORE>
-56.4906

>  <SCORE.INTER>
-45.8449

>  <SCORE.INTER.CONST>
1

>  <SCORE.INTER.POLAR>
-6.95845

>  <SCORE.INTER.ROT>
9

>  <SCORE.INTER.SOLV>
24.5207

>  <SCORE.INTER.VDW>
-25.142

>  <SCORE.INTER.norm>
-1.09154

>  <SCORE.INTRA>
-10.6458

>  <SCORE.INTRA.DIHEDRAL>
-13.8563

>  <SCORE.INTRA.DIHEDRAL.0>
46.2143

>  <SCORE.INTRA.POLAR>
-0.653872

>  <SCORE.INTRA.POLAR.0>
-1.76436

>  <SCORE.INTRA.REPUL>
0

>  <SCORE.INTRA.REPUL.0>
0

>  <SCORE.INTRA.SOLV>
0.308437

>  <SCORE.INTRA.SOLV.lig_0>
-148.643

>  <SCORE.INTRA.VDW>
-1.64865

>  <SCORE.INTRA.VDW.0>
-4.83512

>  <SCORE.INTRA.norm>
-0.25347

>  <SCORE.RESTR>
0

>  <SCORE.RESTR.CAVITY>
0

>  <SCORE.RESTR.norm>
0

>  <SCORE.SYSTEM>
0

>  <SCORE.SYSTEM.CONST>
0

>  <SCORE.SYSTEM.DIHEDRAL>
0

>  <SCORE.SYSTEM.SOLV>
0

>  <SCORE.SYSTEM.norm>
0

>  <SCORE.heavy>
42

>  <SCORE.norm>
-1.34502

>  <RMSD>
1.316

$$$$
1j7t
 OpenBabel11021811393D
libRbt.so/2013.1/901 2013/11/27
 42 45  0  0  0  0  0  0  0  0999 V2000
   30.3277    8.8423   52.5178 C   0  0  2  0  0  0  0  0  0  0  0  0
   31.3216    7.9281   51.9897 O   0  0  0  0  0  0  0  0  0  0  0  0
   29.0433    8.6579   51.6597 C   0  0  2  0  0  0  0  0  0  0  0  0
   28.5641    7.2494   51.5584 N   0  3  0  0  0  0  0  0  0  0  0  0
   29.3450    9.1619   50.2315 C   0  0  1  0  0  0  0  0  0  0  0  0
   28.2153    9.0350   49.4147 O   0  0  0  0  0  0  0  0  0  0  0  0
   29.8219   10.6329   50.2777 C   0  0  2  0  0  0  0  0  0  0  0  0
   30.0833   11.1212   48.9768 O   0  0  0  0  0  0  0  0  0  0  0  0
   31.0820   10.7387   51.1102 C   0  0  2  0  0  0  0  0  0  0  0  0
   30.8345   10.2094   52.4066 O   0  0  0  0  0  0  0  0  0  0  0  0
   31.5476   12.1647   51.3019 C   0  0  0  0  0  0  0  0  0  0  0  0
   31.6602   12.7973   50.0416 O   0  0  0  0  0  0  0  0  0  0  0  0
   34.2177    5.4147   53.7627 C   0  0  2  0  0  0  0  0  0  0  0  0
   35.3608    4.9617   54.5562 N   0  3  0  0  0  0  0  0  0  0  0  0
   34.6985    6.4052   52.6509 C   0  0  0  0  0  0  0  0  0  0  0  0
   33.4920    6.9225   51.8444 C   0  0  2  0  0  0  0  0  0  0  0  0
   33.9188    7.8940   50.8320 N   0  3  0  0  0  0  0  0  0  0  0  0
   32.4619    7.5802   52.7835 C   0  0  2  0  0  0  0  0  0  0  0  0
   31.9909    6.6351   53.9061 C   0  0  2  0  0  0  0  0  0  0  0  0
   31.1663    7.4322   54.7779 O   0  0  0  0  0  0  0  0  0  0  0  0
   33.2079    6.0769   54.6866 C   0  0  1  0  0  0  0  0  0  0  0  0
   32.7606    5.1456   55.6329 O   0  0  0  0  0  0  0  0  0  0  0  0
   30.3794    6.8853   55.8329 C   0  0  1  0  0  0  0  0  0  0  0  0
   30.9617    7.3870   57.2023 C   0  0  2  0  0  0  0  0  0  0  0  0
   31.9897    6.5640   57.7266 O   0  0  0  0  0  0  0  0  0  0  0  0
   29.6692    7.3820   58.0065 C   0  0  2  0  0  0  0  0  0  0  0  0
   29.1982    6.0201   58.2372 O   0  0  0  0  0  0  0  0  0  0  0  0
   28.6846    8.0556   57.0609 C   0  0  2  0  0  0  0  0  0  0  0  0
   29.0312    7.4286   55.8141 O   0  0  0  0  0  0  0  0  0  0  0  0
   28.7897    9.6149   57.0021 C   0  0  0  0  0  0  0  0  0  0  0  0
   30.0995   10.0426   56.6078 O   0  0  0  0  0  0  0  0  0  0  0  0
   28.1923    5.9169   59.2417 C   0  0  2  0  0  0  0  0  0  0  0  0
   28.1347    4.5314   59.9705 C   0  0  2  0  0  0  0  0  0  0  0  0
   27.9127    3.3902   59.0315 N   0  3  0  0  0  0  0  0  0  0  0  0
   26.9966    4.6238   61.0410 C   0  0  1  0  0  0  0  0  0  0  0  0
   27.3955    5.6633   62.0146 O   0  0  0  0  0  0  0  0  0  0  0  0
   25.6055    5.0254   60.4125 C   0  0  2  0  0  0  0  0  0  0  0  0
   25.1945    3.9855   59.5101 O   0  0  0  0  0  0  0  0  0  0  0  0
   25.7827    6.4134   59.6680 C   0  0  1  0  0  0  0  0  0  0  0  0
   26.8489    6.2492   58.6732 O   0  0  0  0  0  0  0  0  0  0  0  0
   24.5031    6.9400   58.9792 C   0  0  0  0  0  0  0  0  0  0  0  0
   23.3503    7.0907   59.9081 N   0  3  0  0  0  0  0  0  0  0  0  0
  1  2  1  6  0  0  0
  1  3  1  0  0  0  0
  1 10  1  0  0  0  0
  3  4  1  6  0  0  0
  3  5  1  0  0  0  0
  5  6  1  6  0  0  0
  5  7  1  0  0  0  0
  7  8  1  6  0  0  0
  7  9  1  0  0  0  0
  9 10  1  0  0  0  0
  9 11  1  1  0  0  0
 11 12  1  0  0  0  0
 13 14  1  1  0  0  0
 13 15  1  0  0  0  0
 13 21  1  0  0  0  0
 15 16  1  0  0  0  0
 16 17  1  6  0  0  0
 16 18  1  0  0  0  0
 18  2  1  6  0  0  0
 18 19  1  0  0  0  0
 19 20  1  1  0  0  0
 19 21  1  0  0  0  0
 21 22  1  1  0  0  0
 23 20  1  6  0  0  0
 23 24  1  0  0  0  0
 23 29  1  0  0  0  0
 24 25  1  1  0  0  0
 24 26  1  0  0  0  0
 26 27  1  6  0  0  0
 26 28  1  0  0  0  0
 28 29  1  0  0  0  0
 28 30  1  6  0  0  0
 30 31  1  0  0  0  0
 32 27  1  6  0  0  0
 32 33  1  0  0  0  0
 32 40  1  0  0  0  0
 33 34  1  6  0  0  0
 33 35  1  0  0  0  0
 35 36  1  1  0  0  0
 35 37  1  0  0  0  0
 37 38  1  6  0  0  0
 37 39  1  0  0  0  0
 39 40  1  0  0  0  0
 39 41  1  6  0  0  0
 41 42  1  0  0  0  0
M  CHG  5   4   1  14   1  17   1  34   1  42   1
M  END
>  <CHROM.1>
-162.04775155,-165.22382720,168.30260589,-60.09062284,-172.49434655,-52.92381880
174.14978880,-43.64706080,59.82032456,170.56346999,113.61453815,67.59434169
-173.30990735,165.54473600,-153.19701818,58.24463692,-68.26657805,43.45603373
-169.01569589,-101.33004513,56.86716966,-165.38690042,29.84228869,7.43413506
55.20351211,1.05622638,0.37273842,-0.96503089

>  <Name>
1j7t

>  <RI>
0

>  <Rbt.Current_Directory>
/home/itssahil/PROJECTS/Mol_Feturizer/New_Systems/rnas/1j7t

>  <Rbt.Executable>
rbdock ($Id: //depot/dev/client3/rdock/2013.1/src/exe/rbdock.cxx#4 $)

>  <Rbt.Library>
libRbt.so (2013.1, Build901 2013/11/27)

>  <Rbt.Parameter_File>
/export/apps/rDock/src/rDock_2013.1_src/data/scripts/dock_solv.prm

>  <Rbt.Receptor>
prm/pocket_docking_3.prm

>  <SCORE>
-53.9705

>  <SCORE.INTER>
-46.2235

>  <SCORE.INTER.CONST>
1

>  <SCORE.INTER.POLAR>
-6.80606

>  <SCORE.INTER.ROT>
9

>  <SCORE.INTER.SOLV>
29.2605

>  <SCORE.INTER.VDW>
-27.4823

>  <SCORE.INTER.norm>
-1.10056

>  <SCORE.INTRA>
-7.85782

>  <SCORE.INTRA.DIHEDRAL>
-22.1618

>  <SCORE.INTRA.DIHEDRAL.0>
46.2143

>  <SCORE.INTRA.POLAR>
0.940259

>  <SCORE.INTRA.POLAR.0>
-1.76436

>  <SCORE.INTRA.REPUL>
0.0894048

>  <SCORE.INTRA.REPUL.0>
0

>  <SCORE.INTRA.SOLV>
-2.96563

>  <SCORE.INTRA.SOLV.lig_0>
-148.643

>  <SCORE.INTRA.VDW>
1.062

>  <SCORE.INTRA.VDW.0>
-4.83512

>  <SCORE.INTRA.norm>
-0.187091

>  <SCORE.RESTR>
0.110816

>  <SCORE.RESTR.CAVITY>
0.110816

>  <SCORE.RESTR.norm>
0.00263847

>  <SCORE.SYSTEM>
0

>  <SCORE.SYSTEM.CONST>
0

>  <SCORE.SYSTEM.DIHEDRAL>
0

>  <SCORE.SYSTEM.SOLV>
0

>  <SCORE.SYSTEM.norm>
0

>  <SCORE.heavy>
42

>  <SCORE.norm>
-1.28501

>  <RMSD>
1.332

$$$$
1j7t
 OpenBabel11021811393D
libRbt.so/2013.1/901 2013/11/27
 42 45  0  0  0  0  0  0  0  0999 V2000
   30.4602    8.6967   52.8754 C   0  0  2  0  0  0  0  0  0  0  0  0
   31.4611    7.8010   52.3291 O   0  0  0  0  0  0  0  0  0  0  0  0
   29.0858    8.2366   52.3102 C   0  0  2  0  0  0  0  0  0  0  0  0
   28.7785    6.7940   52.5292 N   0  3  0  0  0  0  0  0  0  0  0  0
   29.0820    8.4984   50.7882 C   0  0  1  0  0  0  0  0  0  0  0  0
   27.8585    8.1170   50.2251 O   0  0  0  0  0  0  0  0  0  0  0  0
   29.3701    9.9920   50.5060 C   0  0  2  0  0  0  0  0  0  0  0  0
   29.3499   10.2577   49.1175 O   0  0  0  0  0  0  0  0  0  0  0  0
   30.7264   10.3681   51.0638 C   0  0  2  0  0  0  0  0  0  0  0  0
   30.7647   10.0628   52.4520 O   0  0  0  0  0  0  0  0  0  0  0  0
   31.0331   11.8431   50.9321 C   0  0  0  0  0  0  0  0  0  0  0  0
   32.4325   12.0409   50.9938 O   0  0  0  0  0  0  0  0  0  0  0  0
   34.4493    5.4385   54.1559 C   0  0  2  0  0  0  0  0  0  0  0  0
   35.6389    5.0517   54.9152 N   0  3  0  0  0  0  0  0  0  0  0  0
   34.8629    6.3051   52.9205 C   0  0  0  0  0  0  0  0  0  0  0  0
   33.6096    6.7554   52.1458 C   0  0  2  0  0  0  0  0  0  0  0  0
   33.9758    7.6138   51.0144 N   0  3  0  0  0  0  0  0  0  0  0  0
   32.6488    7.5188   53.0783 C   0  0  2  0  0  0  0  0  0  0  0  0
   32.2460    6.6985   54.3192 C   0  0  2  0  0  0  0  0  0  0  0  0
   31.4868    7.5909   55.1574 O   0  0  0  0  0  0  0  0  0  0  0  0
   33.5077    6.2047   55.0715 C   0  0  1  0  0  0  0  0  0  0  0  0
   33.1171    5.3798   56.1345 O   0  0  0  0  0  0  0  0  0  0  0  0
   30.5338    7.1459   56.1193 C   0  0  1  0  0  0  0  0  0  0  0  0
   30.0746    8.3797   56.9754 C   0  0  2  0  0  0  0  0  0  0  0  0
   30.8926    8.6329   58.1049 O   0  0  0  0  0  0  0  0  0  0  0  0
   28.6646    7.9084   57.3027 C   0  0  2  0  0  0  0  0  0  0  0  0
   28.6891    6.7669   58.2115 O   0  0  0  0  0  0  0  0  0  0  0  0
   28.1566    7.4136   55.9557 C   0  0  2  0  0  0  0  0  0  0  0  0
   29.3093    6.7017   55.4739 O   0  0  0  0  0  0  0  0  0  0  0  0
   27.6884    8.5383   54.9750 C   0  0  0  0  0  0  0  0  0  0  0  0
   26.5264    9.2185   55.4659 O   0  0  0  0  0  0  0  0  0  0  0  0
   27.4090    6.1859   58.4471 C   0  0  2  0  0  0  0  0  0  0  0  0
   26.4759    7.0183   59.3908 C   0  0  2  0  0  0  0  0  0  0  0  0
   27.0811    7.2661   60.7345 N   0  3  0  0  0  0  0  0  0  0  0  0
   25.1248    6.2365   59.5049 C   0  0  1  0  0  0  0  0  0  0  0  0
   24.5279    6.1953   58.1524 O   0  0  0  0  0  0  0  0  0  0  0  0
   25.3231    4.7565   60.0165 C   0  0  2  0  0  0  0  0  0  0  0  0
   25.8499    4.8016   61.3526 O   0  0  0  0  0  0  0  0  0  0  0  0
   26.3103    4.0182   59.0203 C   0  0  1  0  0  0  0  0  0  0  0  0
   27.5553    4.7936   58.9750 O   0  0  0  0  0  0  0  0  0  0  0  0
   26.6225    2.5517   59.3955 C   0  0  0  0  0  0  0  0  0  0  0  0
   25.4833    1.6244   59.1567 N   0  3  0  0  0  0  0  0  0  0  0  0
  1  2  1  6  0  0  0
  1  3  1  0  0  0  0
  1 10  1  0  0  0  0
  3  4  1  6  0  0  0
  3  5  1  0  0  0  0
  5  6  1  1  0  0  0
  5  7  1  0  0  0  0
  7  8  1  6  0  0  0
  7  9  1  0  0  0  0
  9 10  1  0  0  0  0
  9 11  1  1  0  0  0
 11 12  1  0  0  0  0
 13 14  1  1  0  0  0
 13 15  1  0  0  0  0
 13 21  1  0  0  0  0
 15 16  1  0  0  0  0
 16 17  1  6  0  0  0
 16 18  1  0  0  0  0
 18  2  1  6  0  0  0
 18 19  1  0  0  0  0
 19 20  1  1  0  0  0
 19 21  1  0  0  0  0
 21 22  1  1  0  0  0
 23 20  1  6  0  0  0
 23 24  1  0  0  0  0
 23 29  1  0  0  0  0
 24 25  1  1  0  0  0
 24 26  1  0  0  0  0
 26 27  1  1  0  0  0
 26 28  1  0  0  0  0
 28 29  1  0  0  0  0
 28 30  1  6  0  0  0
 30 31  1  0  0  0  0
 32 27  1  1  0  0  0
 32 33  1  0  0  0  0
 32 40  1  0  0  0  0
 33 34  1  1  0  0  0
 33 35  1  0  0  0  0
 35 36  1  6  0  0  0
 35 37  1  0  0  0  0
 37 38  1  1  0  0  0
 37 39  1  0  0  0  0
 39 40  1  0  0  0  0
 39 41  1  1  0  0  0
 41 42  1  0  0  0  0
M  CHG  5   4   1  14   1  17   1  34   1  42   1
M  END
>  <CHROM.1>
-150.13361051,-170.14884172,59.79321755,63.52188038,-63.09842014,-158.38534779
-173.74007825,-177.97152375,172.21475496,155.92500578,171.71805642,172.38945409
-63.27019052,-173.67308126,-74.59575723,-66.04357560,-171.73503648,169.32267365
-130.07163581,75.55850954,72.51501047,-51.38318645,29.60863503,7.22181208
55.19431712,0.98220406,0.27729011,-0.94964452

>  <Name>
1j7t

>  <RI>
0

>  <Rbt.Current_Directory>
/home/itssahil/PROJECTS/Mol_Feturizer/New_Systems/rnas/1j7t

>  <Rbt.Executable>
rbdock ($Id: //depot/dev/client3/rdock/2013.1/src/exe/rbdock.cxx#4 $)

>  <Rbt.Library>
libRbt.so (2013.1, Build901 2013/11/27)

>  <Rbt.Parameter_File>
/export/apps/rDock/src/rDock_2013.1_src/data/scripts/dock_solv.prm

>  <Rbt.Receptor>
prm/pocket_docking_2.prm

>  <SCORE>
-66.3883

>  <SCORE.INTER>
-50.2028

>  <SCORE.INTER.CONST>
1

>  <SCORE.INTER.POLAR>
-7.64917

>  <SCORE.INTER.ROT>
9

>  <SCORE.INTER.SOLV>
20.4633

>  <SCORE.INTER.VDW>
-24.3924

>  <SCORE.INTER.norm>
-1.1953

>  <SCORE.INTRA>
-16.7054

>  <SCORE.INTRA.DIHEDRAL>
-25.808

>  <SCORE.INTRA.DIHEDRAL.0>
46.2143

>  <SCORE.INTRA.POLAR>
-0.0604269

>  <SCORE.INTRA.POLAR.0>
-1.76436

>  <SCORE.INTRA.REPUL>
0

>  <SCORE.INTRA.REPUL.0>
0

>  <SCORE.INTRA.SOLV>
-4.24942

>  <SCORE.INTRA.SOLV.lig_0>
-148.643

>  <SCORE.INTRA.VDW>
-1.47127

>  <SCORE.INTRA.VDW.0>
-4.83512

>  <SCORE.INTRA.norm>
-0.397748

>  <SCORE.RESTR>
0.519892

>  <SCORE.RESTR.CAVITY>
0.519892

>  <SCORE.RESTR.norm>
0.0123784

>  <SCORE.SYSTEM>
0

>  <SCORE.SYSTEM.CONST>
0

>  <SCORE.SYSTEM.DIHEDRAL>
0

>  <SCORE.SYSTEM.SOLV>
0

>  <SCORE.SYSTEM.norm>
0

>  <SCORE.heavy>
42

>  <SCORE.norm>
-1.58067

>  <RMSD>
1.343

$$$$
1j7t
 OpenBabel11021811393D
libRbt.so/2013.1/901 2013/11/27
 42 45  0  0  0  0  0  0  0  0999 V2000
   30.2542    8.7088   52.6249 C   0  0  2  0  0  0  0  0  0  0  0  0
   31.2697    7.7963   52.1365 O   0  0  0  0  0  0  0  0  0  0  0  0
   28.9909    8.4925   51.7433 C   0  0  2  0  0  0  0  0  0  0  0  0
   28.5301    7.0767   51.6596 N   0  3  0  0  0  0  0  0  0  0  0  0
   29.3177    8.9721   50.3122 C   0  0  1  0  0  0  0  0  0  0  0  0
   28.2075    8.8160   49.4740 O   0  0  0  0  0  0  0  0  0  0  0  0
   29.7767   10.4493   50.3396 C   0  0  2  0  0  0  0  0  0  0  0  0
   30.0607   10.9152   49.0353 O   0  0  0  0  0  0  0  0  0  0  0  0
   31.0171   10.5862   51.1968 C   0  0  2  0  0  0  0  0  0  0  0  0
   30.7476   10.0794   52.4977 O   0  0  0  0  0  0  0  0  0  0  0  0
   31.4622   12.0211   51.3703 C   0  0  0  0  0  0  0  0  0  0  0  0
   31.8477   12.5500   50.1161 O   0  0  0  0  0  0  0  0  0  0  0  0
   34.2438    5.4742   54.0367 C   0  0  2  0  0  0  0  0  0  0  0  0
   35.4083    5.1020   54.8410 N   0  3  0  0  0  0  0  0  0  0  0  0
   34.6867    6.3900   52.8478 C   0  0  0  0  0  0  0  0  0  0  0  0
   33.4574    6.8241   52.0269 C   0  0  2  0  0  0  0  0  0  0  0  0
   33.8483    7.7271   50.9394 N   0  3  0  0  0  0  0  0  0  0  0  0
   32.4293    7.5289   52.9336 C   0  0  2  0  0  0  0  0  0  0  0  0
   31.9954    6.6594   54.1298 C   0  0  2  0  0  0  0  0  0  0  0  0
   31.1688    7.5021   54.9556 O   0  0  0  0  0  0  0  0  0  0  0  0
   33.2357    6.1828   54.9275 C   0  0  1  0  0  0  0  0  0  0  0  0
   32.8224    5.3146   55.9465 O   0  0  0  0  0  0  0  0  0  0  0  0
   30.3558    7.0086   56.0170 C   0  0  1  0  0  0  0  0  0  0  0  0
   29.8773    8.2251   56.8871 C   0  0  2  0  0  0  0  0  0  0  0  0
   30.7764    8.5800   57.9239 O   0  0  0  0  0  0  0  0  0  0  0  0
   28.5517    7.6479   57.3633 C   0  0  2  0  0  0  0  0  0  0  0  0
   28.7626    6.5405   58.2901 O   0  0  0  0  0  0  0  0  0  0  0  0
   27.9597    7.0717   56.0847 C   0  0  2  0  0  0  0  0  0  0  0  0
   29.1171    6.4442   55.5065 O   0  0  0  0  0  0  0  0  0  0  0  0
   27.3032    8.1229   55.1309 C   0  0  0  0  0  0  0  0  0  0  0  0
   26.7052    7.4994   53.9875 O   0  0  0  0  0  0  0  0  0  0  0  0
   27.6617    6.2965   59.1619 C   0  0  2  0  0  0  0  0  0  0  0  0
   27.6131    7.2170   60.4286 C   0  0  2  0  0  0  0  0  0  0  0  0
   28.8462    7.1164   61.2670 N   0  3  0  0  0  0  0  0  0  0  0  0
   26.3346    6.8160   61.2376 C   0  0  1  0  0  0  0  0  0  0  0  0
   25.1651    7.1128   60.3822 O   0  0  0  0  0  0  0  0  0  0  0  0
   26.3118    5.2831   61.6130 C   0  0  2  0  0  0  0  0  0  0  0  0
   27.4170    5.0110   62.4901 O   0  0  0  0  0  0  0  0  0  0  0  0
   26.4063    4.4449   60.2712 C   0  0  1  0  0  0  0  0  0  0  0  0
   27.6304    4.8591   59.5758 O   0  0  0  0  0  0  0  0  0  0  0  0
   26.4130    2.9123   60.4710 C   0  0  0  0  0  0  0  0  0  0  0  0
   26.8310    2.1591   59.2575 N   0  3  0  0  0  0  0  0  0  0  0  0
  1  2  1  6  0  0  0
  1  3  1  0  0  0  0
  1 10  1  0  0  0  0
  3  4  1  6  0  0  0
  3  5  1  0  0  0  0
  5  6  1  6  0  0  0
  5  7  1  0  0  0  0
  7  8  1  6  0  0  0
  7  9  1  0  0  0  0
  9 10  1  0  0  0  0
  9 11  1  1  0  0  0
 11 12  1  0  0  0  0
 13 14  1  1  0  0  0
 13 15  1  0  0  0  0
 13 21  1  0  0  0  0
 15 16  1  0  0  0  0
 16 17  1  6  0  0  0
 16 18  1  0  0  0  0
 18  2  1  6  0  0  0
 18 19  1  0  0  0  0
 19 20  1  1  0  0  0
 19 21  1  0  0  0  0
 21 22  1  1  0  0  0
 23 20  1  6  0  0  0
 23 24  1  0  0  0  0
 23 29  1  0  0  0  0
 24 25  1  1  0  0  0
 24 26  1  0  0  0  0
 26 27  1  1  0  0  0
 26 28  1  0  0  0  0
 28 29  1  0  0  0  0
 28 30  1  6  0  0  0
 30 31  1  0  0  0  0
 32 27  1  1  0  0  0
 32 33  1  0  0  0  0
 32 40  1  0  0  0  0
 33 34  1  1  0  0  0
 33 35  1  0  0  0  0
 35 36  1  6  0  0  0
 35 37  1  0  0  0  0
 37 38  1  1  0  0  0
 37 39  1  0  0  0  0
 39 40  1  0  0  0  0
 39 41  1  1  0  0  0
 41 42  1  0  0  0  0
M  CHG  5   4   1  14   1  17   1  34   1  42   1
M  END
>  <CHROM.1>
-165.13908155,-166.35256946,84.98046879,52.79494303,-54.29122393,-64.35727695
56.61027350,-50.28906321,174.12371238,167.16011572,166.88276071,69.75339744
174.11052706,156.63464139,-82.60877006,-176.81866656,61.23102909,-77.50285207
62.89389897,170.81157151,-165.93429240,-143.35903725,29.77938837,7.31276252
55.31041114,1.14311262,0.34983957,-1.02698054

>  <Name>
1j7t

>  <RI>
0

>  <Rbt.Current_Directory>
/home/itssahil/PROJECTS/Mol_Feturizer/New_Systems/rnas/1j7t

>  <Rbt.Executable>
rbdock ($Id: //depot/dev/client3/rdock/2013.1/src/exe/rbdock.cxx#4 $)

>  <Rbt.Library>
libRbt.so (2013.1, Build901 2013/11/27)

>  <Rbt.Parameter_File>
/export/apps/rDock/src/rDock_2013.1_src/data/scripts/dock_solv.prm

>  <Rbt.Receptor>
prm/pocket_docking_2.prm

>  <SCORE>
-68.6325

>  <SCORE.INTER>
-49.804

>  <SCORE.INTER.CONST>
1

>  <SCORE.INTER.POLAR>
-7.3303

>  <SCORE.INTER.ROT>
9

>  <SCORE.INTER.SOLV>
23.7631

>  <SCORE.INTER.VDW>
-26.2894

>  <SCORE.INTER.norm>
-1.18581

>  <SCORE.INTRA>
-20.1085

>  <SCORE.INTRA.DIHEDRAL>
-30.4416

>  <SCORE.INTRA.DIHEDRAL.0>
46.2143

>  <SCORE.INTRA.POLAR>
-0.736607

>  <SCORE.INTRA.POLAR.0>
-1.76436

>  <SCORE.INTRA.REPUL>
0

>  <SCORE.INTRA.REPUL.0>
0

>  <SCORE.INTRA.SOLV>
-2.78676

>  <SCORE.INTRA.SOLV.lig_0>
-148.643

>  <SCORE.INTRA.VDW>
-0.989913

>  <SCORE.INTRA.VDW.0>
-4.83512

>  <SCORE.INTRA.norm>
-0.478775

>  <SCORE.RESTR>
1.28001

>  <SCORE.RESTR.CAVITY>
1.28001

>  <SCORE.RESTR.norm>
0.0304764

>  <SCORE.SYSTEM>
0

>  <SCORE.SYSTEM.CONST>
0

>  <SCORE.SYSTEM.DIHEDRAL>
0

>  <SCORE.SYSTEM.SOLV>
0

>  <SCORE.SYSTEM.norm>
0

>  <SCORE.heavy>
42

>  <SCORE.norm>
-1.63411

>  <RMSD>
1.345

$$$$
1j7t
 OpenBabel11021811393D
libRbt.so/2013.1/901 2013/11/27
 42 45  0  0  0  0  0  0  0  0999 V2000
   30.5007    8.8083   52.8517 C   0  0  2  0  0  0  0  0  0  0  0  0
   31.4365    7.8492   52.2977 O   0  0  0  0  0  0  0  0  0  0  0  0
   29.1072    8.4840   52.2411 C   0  0  2  0  0  0  0  0  0  0  0  0
   28.6750    7.0662   52.4044 N   0  3  0  0  0  0  0  0  0  0  0  0
   29.1631    8.7934   50.7292 C   0  0  1  0  0  0  0  0  0  0  0  0
   27.9263    8.5347   50.1266 O   0  0  0  0  0  0  0  0  0  0  0  0
   29.5819   10.2656   50.5041 C   0  0  2  0  0  0  0  0  0  0  0  0
   29.6184   10.5762   49.1252 O   0  0  0  0  0  0  0  0  0  0  0  0
   30.9506   10.5081   51.1040 C   0  0  2  0  0  0  0  0  0  0  0  0
   30.9287   10.1566   52.4816 O   0  0  0  0  0  0  0  0  0  0  0  0
   31.3827   11.9554   51.0290 C   0  0  0  0  0  0  0  0  0  0  0  0
   31.5836   12.3178   49.6764 O   0  0  0  0  0  0  0  0  0  0  0  0
   34.4683    5.4394   53.9857 C   0  0  2  0  0  0  0  0  0  0  0  0
   35.6805    5.0332   54.6978 N   0  3  0  0  0  0  0  0  0  0  0  0
   34.8455    6.3213   52.7494 C   0  0  0  0  0  0  0  0  0  0  0  0
   33.5697    6.7916   52.0251 C   0  0  2  0  0  0  0  0  0  0  0  0
   33.9030    7.6642   50.8944 N   0  3  0  0  0  0  0  0  0  0  0  0
   32.6472    7.5478   53.0013 C   0  0  2  0  0  0  0  0  0  0  0  0
   32.2813    6.7119   54.2433 C   0  0  2  0  0  0  0  0  0  0  0  0
   31.5580    7.5970   55.1201 O   0  0  0  0  0  0  0  0  0  0  0  0
   33.5645    6.1984   54.9443 C   0  0  1  0  0  0  0  0  0  0  0  0
   33.2046    5.3605   56.0080 O   0  0  0  0  0  0  0  0  0  0  0  0
   30.6148    7.1463   56.0888 C   0  0  1  0  0  0  0  0  0  0  0  0
   30.1637    8.3750   56.9564 C   0  0  2  0  0  0  0  0  0  0  0  0
   30.9928    8.6220   58.0792 O   0  0  0  0  0  0  0  0  0  0  0  0
   28.7571    7.9014   57.2950 C   0  0  2  0  0  0  0  0  0  0  0  0
   28.7909    6.7547   58.1970 O   0  0  0  0  0  0  0  0  0  0  0  0
   28.2359    7.4141   55.9503 C   0  0  2  0  0  0  0  0  0  0  0  0
   29.3840    6.7053   55.4531 O   0  0  0  0  0  0  0  0  0  0  0  0
   27.7577    8.5442   54.9807 C   0  0  0  0  0  0  0  0  0  0  0  0
   26.5634    9.1785   55.4554 O   0  0  0  0  0  0  0  0  0  0  0  0
   27.5069    6.3411   58.6573 C   0  0  2  0  0  0  0  0  0  0  0  0
   26.8183    7.3334   59.6550 C   0  0  2  0  0  0  0  0  0  0  0  0
   27.6408    7.5937   60.8753 N   0  3  0  0  0  0  0  0  0  0  0  0
   25.4252    6.7212   60.0215 C   0  0  1  0  0  0  0  0  0  0  0  0
   24.6311    6.6641   58.7750 O   0  0  0  0  0  0  0  0  0  0  0  0
   25.5417    5.2634   60.6152 C   0  0  2  0  0  0  0  0  0  0  0  0
   26.2646    5.3315   61.8552 O   0  0  0  0  0  0  0  0  0  0  0  0
   26.2854    4.3550   59.5505 C   0  0  1  0  0  0  0  0  0  0  0  0
   27.5839    4.9773   59.2676 O   0  0  0  0  0  0  0  0  0  0  0  0
   26.4948    2.8888   59.9925 C   0  0  0  0  0  0  0  0  0  0  0  0
   25.2324    2.1033   60.0545 N   0  3  0  0  0  0  0  0  0  0  0  0
  1  2  1  6  0  0  0
  1  3  1  0  0  0  0
  1 10  1  0  0  0  0
  3  4  1  6  0  0  0
  3  5  1  0  0  0  0
  5  6  1  1  0  0  0
  5  7  1  0  0  0  0
  7  8  1  6  0  0  0
  7  9  1  0  0  0  0
  9 10  1  0  0  0  0
  9 11  1  1  0  0  0
 11 12  1  0  0  0  0
 13 14  1  1  0  0  0
 13 15  1  0  0  0  0
 13 21  1  0  0  0  0
 15 16  1  0  0  0  0
 16 17  1  6  0  0  0
 16 18  1  0  0  0  0
 18  2  1  6  0  0  0
 18 19  1  0  0  0  0
 19 20  1  1  0  0  0
 19 21  1  0  0  0  0
 21 22  1  1  0  0  0
 23 20  1  6  0  0  0
 23 24  1  0  0  0  0
 23 29  1  0  0  0  0
 24 25  1  1  0  0  0
 24 26  1  0  0  0  0
 26 27  1  1  0  0  0
 26 28  1  0  0  0  0
 28 29  1  0  0  0  0
 28 30  1  6  0  0  0
 30 31  1  0  0  0  0
 32 27  1  1  0  0  0
 32 33  1  0  0  0  0
 32 40  1  0  0  0  0
 33 34  1  1  0  0  0
 33 35  1  0  0  0  0
 35 36  1  6  0  0  0
 35 37  1  0  0  0  0
 37 38  1  1  0  0  0
 37 39  1  0  0  0  0
 39 40  1  0  0  0  0
 39 41  1  1  0  0  0
 41 42  1  0  0  0  0
M  CHG  5   4   1  14   1  17   1  34   1  42   1
M  END
>  <CHROM.1>
-156.55847973,-166.26498194,52.01877592,-169.21047717,61.53484964,-66.92335700
54.87606263,-176.17344498,49.48707737,154.56935082,173.53949827,-58.46169006
-52.35728003,174.24931004,-69.97918981,-68.83146667,-177.55565394,-75.64561781
59.10503091,-177.81734989,69.76851241,46.43952395,29.67809228,7.37828377
55.23782385,1.02477303,0.33789195,-0.97414284

>  <Name>
1j7t

>  <RI>
0

>  <Rbt.Current_Directory>
/home/itssahil/PROJECTS/Mol_Feturizer/New_Systems/rnas/1j7t

>  <Rbt.Executable>
rbdock ($Id: //depot/dev/client3/rdock/2013.1/src/exe/rbdock.cxx#4 $)

>  <Rbt.Library>
libRbt.so (2013.1, Build901 2013/11/27)

>  <Rbt.Parameter_File>
/export/apps/rDock/src/rDock_2013.1_src/data/scripts/dock_solv.prm

>  <Rbt.Receptor>
prm/pocket_docking_3.prm

>  <SCORE>
-67.8421

>  <SCORE.INTER>
-44.7625

>  <SCORE.INTER.CONST>
1

>  <SCORE.INTER.POLAR>
-6.16324

>  <SCORE.INTER.ROT>
9

>  <SCORE.INTER.SOLV>
20.2153

>  <SCORE.INTER.VDW>
-25.636

>  <SCORE.INTER.norm>
-1.06577

>  <SCORE.INTRA>
-23.0795

>  <SCORE.INTRA.DIHEDRAL>
-35.2951

>  <SCORE.INTRA.DIHEDRAL.0>
46.2143

>  <SCORE.INTRA.POLAR>
-0.82959

>  <SCORE.INTRA.POLAR.0>
-1.76436

>  <SCORE.INTRA.REPUL>
0

>  <SCORE.INTRA.REPUL.0>
0

>  <SCORE.INTRA.SOLV>
-3.29369

>  <SCORE.INTRA.SOLV.lig_0>
-148.643

>  <SCORE.INTRA.VDW>
-0.964535

>  <SCORE.INTRA.VDW.0>
-4.83512

>  <SCORE.INTRA.norm>
-0.549513

>  <SCORE.RESTR>
0

>  <SCORE.RESTR.CAVITY>
0

>  <SCORE.RESTR.norm>
0

>  <SCORE.SYSTEM>
0

>  <SCORE.SYSTEM.CONST>
0

>  <SCORE.SYSTEM.DIHEDRAL>
0

>  <SCORE.SYSTEM.SOLV>
0

>  <SCORE.SYSTEM.norm>
0

>  <SCORE.heavy>
42

>  <SCORE.norm>
-1.61529

>  <RMSD>
1.370

$$$$
1j7t
 OpenBabel11021811393D
libRbt.so/2013.1/901 2013/11/27
 42 45  0  0  0  0  0  0  0  0999 V2000
   30.2320    8.8023   52.5453 C   0  0  2  0  0  0  0  0  0  0  0  0
   31.2520    7.9030   52.0420 O   0  0  0  0  0  0  0  0  0  0  0  0
   28.9772    8.6105   51.6460 C   0  0  2  0  0  0  0  0  0  0  0  0
   28.5171    7.1978   51.5193 N   0  3  0  0  0  0  0  0  0  0  0  0
   29.3179    9.1288   50.2317 C   0  0  1  0  0  0  0  0  0  0  0  0
   28.2158    8.9960   49.3789 O   0  0  0  0  0  0  0  0  0  0  0  0
   29.7768   10.6045   50.3038 C   0  0  2  0  0  0  0  0  0  0  0  0
   30.0735   11.1057   49.0154 O   0  0  0  0  0  0  0  0  0  0  0  0
   31.0089   10.7176   51.1762 C   0  0  2  0  0  0  0  0  0  0  0  0
   30.7268   10.1756   52.4602 O   0  0  0  0  0  0  0  0  0  0  0  0
   31.4525   12.1470   51.3930 C   0  0  0  0  0  0  0  0  0  0  0  0
   32.0685   12.6331   50.2159 O   0  0  0  0  0  0  0  0  0  0  0  0
   34.1732    5.5088   53.9347 C   0  0  2  0  0  0  0  0  0  0  0  0
   35.3240    5.1073   54.7447 N   0  3  0  0  0  0  0  0  0  0  0  0
   34.6413    6.4370   52.7652 C   0  0  0  0  0  0  0  0  0  0  0  0
   33.4268    6.9016   51.9390 C   0  0  2  0  0  0  0  0  0  0  0  0
   33.8416    7.8162   50.8702 N   0  3  0  0  0  0  0  0  0  0  0  0
   32.3994    7.6064   52.8464 C   0  0  2  0  0  0  0  0  0  0  0  0
   31.9409    6.7243   54.0240 C   0  0  2  0  0  0  0  0  0  0  0  0
   31.1178    7.5655   54.8549 O   0  0  0  0  0  0  0  0  0  0  0  0
   33.1660    6.2174   54.8265 C   0  0  1  0  0  0  0  0  0  0  0  0
   32.7300    5.3390   55.8272 O   0  0  0  0  0  0  0  0  0  0  0  0
   30.3203    7.0717   55.9279 C   0  0  1  0  0  0  0  0  0  0  0  0
   30.3169    8.1388   57.0801 C   0  0  2  0  0  0  0  0  0  0  0  0
   31.3903    8.0007   57.9953 O   0  0  0  0  0  0  0  0  0  0  0  0
   28.9425    7.8336   57.6592 C   0  0  2  0  0  0  0  0  0  0  0  0
   28.9244    6.5282   58.3113 O   0  0  0  0  0  0  0  0  0  0  0  0
   28.0695    7.7393   56.4158 C   0  0  2  0  0  0  0  0  0  0  0  0
   28.9221    6.9814   55.5403 O   0  0  0  0  0  0  0  0  0  0  0  0
   27.6450    9.1142   55.8033 C   0  0  0  0  0  0  0  0  0  0  0  0
   26.4990    8.9835   54.9526 O   0  0  0  0  0  0  0  0  0  0  0  0
   27.7937    6.3162   59.1528 C   0  0  2  0  0  0  0  0  0  0  0  0
   27.6631    7.3286   60.3412 C   0  0  2  0  0  0  0  0  0  0  0  0
   28.8605    7.3317   61.2354 N   0  3  0  0  0  0  0  0  0  0  0  0
   26.3623    6.9497   61.1249 C   0  0  1  0  0  0  0  0  0  0  0  0
   25.2235    7.1428   60.2011 O   0  0  0  0  0  0  0  0  0  0  0  0
   26.3670    5.4499   61.6168 C   0  0  2  0  0  0  0  0  0  0  0  0
   27.4399    5.2810   62.5575 O   0  0  0  0  0  0  0  0  0  0  0  0
   26.5445    4.5154   60.3490 C   0  0  1  0  0  0  0  0  0  0  0  0
   27.7855    4.9143   59.6752 O   0  0  0  0  0  0  0  0  0  0  0  0
   26.5863    3.0034   60.6672 C   0  0  0  0  0  0  0  0  0  0  0  0
   26.9547    2.1623   59.4962 N   0  3  0  0  0  0  0  0  0  0  0  0
  1  2  1  6  0  0  0
  1  3  1  0  0  0  0
  1 10  1  0  0  0  0
  3  4  1  6  0  0  0
  3  5  1  0  0  0  0
  5  6  1  6  0  0  0
  5  7  1  0  0  0  0
  7  8  1  6  0  0  0
  7  9  1  0  0  0  0
  9 10  1  0  0  0  0
  9 11  1  1  0  0  0
 11 12  1  0  0  0  0
 13 14  1  1  0  0  0
 13 15  1  0  0  0  0
 13 21  1  0  0  0  0
 15 16  1  0  0  0  0
 16 17  1  6  0  0  0
 16 18  1  0  0  0  0
 18  2  1  6  0  0  0
 18 19  1  0  0  0  0
 19 20  1  1  0  0  0
 19 21  1  0  0  0  0
 21 22  1  1  0  0  0
 23 20  1  6  0  0  0
 23 24  1  0  0  0  0
 23 29  1  0  0  0  0
 24 25  1  1  0  0  0
 24 26  1  0  0  0  0
 26 27  1  6  0  0  0
 26 28  1  0  0  0  0
 28 29  1  0  0  0  0
 28 30  1  6  0  0  0
 30 31  1  0  0  0  0
 32 27  1  1  0  0  0
 32 33  1  0  0  0  0
 32 40  1  0  0  0  0
 33 34  1  1  0  0  0
 33 35  1  0  0  0  0
 35 36  1  6  0  0  0
 35 37  1  0  0  0  0
 37 38  1  1  0  0  0
 37 39  1  0  0  0  0
 39 40  1  0  0  0  0
 39 41  1  1  0  0  0
 41 42  1  0  0  0  0
M  CHG  5   4   1  14   1  17   1  34   1  42   1
M  END
>  <CHROM.1>
-164.71723266,-167.51952870,47.33582932,-62.90247032,62.47368032,-74.62128687
-62.65028861,72.47563928,174.17565044,169.27355872,144.73334307,-61.93658937
-60.28573069,165.23819275,-60.55561736,-160.30568939,64.00531906,163.24547086
-63.45900101,179.12911182,-171.39554371,-25.04566859,29.82951697,7.46570885
55.34076753,1.14412572,0.42170557,-1.00286994

>  <Name>
1j7t

>  <RI>
0

>  <Rbt.Current_Directory>
/home/itssahil/PROJECTS/Mol_Feturizer/New_Systems/rnas/1j7t

>  <Rbt.Executable>
rbdock ($Id: //depot/dev/client3/rdock/2013.1/src/exe/rbdock.cxx#4 $)

>  <Rbt.Library>
libRbt.so (2013.1, Build901 2013/11/27)

>  <Rbt.Parameter_File>
/export/apps/rDock/src/rDock_2013.1_src/data/scripts/dock_solv.prm

>  <Rbt.Receptor>
prm/pocket_docking_6.prm

>  <SCORE>
-64.6219

>  <SCORE.INTER>
-48.2288

>  <SCORE.INTER.CONST>
1

>  <SCORE.INTER.POLAR>
-7.02194

>  <SCORE.INTER.ROT>
9

>  <SCORE.INTER.SOLV>
26.4394

>  <SCORE.INTER.VDW>
-27.1592

>  <SCORE.INTER.norm>
-1.14831

>  <SCORE.INTRA>
-16.4142

>  <SCORE.INTRA.DIHEDRAL>
-31.4505

>  <SCORE.INTRA.DIHEDRAL.0>
46.2143

>  <SCORE.INTRA.POLAR>
0.913195

>  <SCORE.INTRA.POLAR.0>
-1.76436

>  <SCORE.INTRA.REPUL>
0

>  <SCORE.INTRA.REPUL.0>
0

>  <SCORE.INTRA.SOLV>
-5.37077

>  <SCORE.INTRA.SOLV.lig_0>
-148.643

>  <SCORE.INTRA.VDW>
-1.10841

>  <SCORE.INTRA.VDW.0>
-4.83512

>  <SCORE.INTRA.norm>
-0.390814

>  <SCORE.RESTR>
0.0211427

>  <SCORE.RESTR.CAVITY>
0.0211427

>  <SCORE.RESTR.norm>
0.000503397

>  <SCORE.SYSTEM>
0

>  <SCORE.SYSTEM.CONST>
0

>  <SCORE.SYSTEM.DIHEDRAL>
0

>  <SCORE.SYSTEM.SOLV>
0

>  <SCORE.SYSTEM.norm>
0

>  <SCORE.heavy>
42

>  <SCORE.norm>
-1.53862

>  <RMSD>
1.387

$$$$
1j7t
 OpenBabel11021811393D
libRbt.so/2013.1/901 2013/11/27
 42 45  0  0  0  0  0  0  0  0999 V2000
   30.6687    8.7411   53.0461 C   0  0  2  0  0  0  0  0  0  0  0  0
   31.4797    7.6752   52.4905 O   0  0  0  0  0  0  0  0  0  0  0  0
   29.1877    8.4035   52.7103 C   0  0  2  0  0  0  0  0  0  0  0  0
   28.7528    7.0411   53.1326 N   0  3  0  0  0  0  0  0  0  0  0  0
   29.0078    8.5076   51.1801 C   0  0  1  0  0  0  0  0  0  0  0  0
   27.6844    8.2288   50.8188 O   0  0  0  0  0  0  0  0  0  0  0  0
   29.4209    9.9163   50.6920 C   0  0  2  0  0  0  0  0  0  0  0  0
   29.2434   10.0400   49.2947 O   0  0  0  0  0  0  0  0  0  0  0  0
   30.8737   10.1726   51.0324 C   0  0  2  0  0  0  0  0  0  0  0  0
   31.0646   10.0075   52.4318 O   0  0  0  0  0  0  0  0  0  0  0  0
   31.3234   11.5759   50.6924 C   0  0  0  0  0  0  0  0  0  0  0  0
   32.1639   11.5390   49.5551 O   0  0  0  0  0  0  0  0  0  0  0  0
   34.6935    5.2338   53.7394 C   0  0  2  0  0  0  0  0  0  0  0  0
   35.9600    4.8075   54.3356 N   0  3  0  0  0  0  0  0  0  0  0  0
   34.9636    6.2565   52.5863 C   0  0  0  0  0  0  0  0  0  0  0  0
   33.6304    6.7450   51.9884 C   0  0  2  0  0  0  0  0  0  0  0  0
   33.8634    7.7454   50.9415 N   0  3  0  0  0  0  0  0  0  0  0  0
   32.7404    7.3538   53.0897 C   0  0  2  0  0  0  0  0  0  0  0  0
   32.4801    6.3768   54.2528 C   0  0  2  0  0  0  0  0  0  0  0  0
   31.7781    7.1326   55.2584 O   0  0  0  0  0  0  0  0  0  0  0  0
   33.8209    5.8480   54.8225 C   0  0  1  0  0  0  0  0  0  0  0  0
   33.5561    4.8881   55.8082 O   0  0  0  0  0  0  0  0  0  0  0  0
   30.8737    6.5486   56.1924 C   0  0  1  0  0  0  0  0  0  0  0  0
   31.2659    7.0291   57.6350 C   0  0  2  0  0  0  0  0  0  0  0  0
   32.2345    6.2123   58.2702 O   0  0  0  0  0  0  0  0  0  0  0  0
   29.8815    6.9839   58.2665 C   0  0  2  0  0  0  0  0  0  0  0  0
   29.4120    5.6093   58.4072 O   0  0  0  0  0  0  0  0  0  0  0  0
   29.0128    7.6617   57.2161 C   0  0  2  0  0  0  0  0  0  0  0  0
   29.5284    7.0691   56.0116 O   0  0  0  0  0  0  0  0  0  0  0  0
   29.0936    9.2235   57.2028 C   0  0  0  0  0  0  0  0  0  0  0  0
   28.9100    9.7741   58.5132 O   0  0  0  0  0  0  0  0  0  0  0  0
   28.3308    5.4569   59.3233 C   0  0  2  0  0  0  0  0  0  0  0  0
   28.2355    4.0445   59.9944 C   0  0  2  0  0  0  0  0  0  0  0  0
   28.1058    2.9367   58.9997 N   0  3  0  0  0  0  0  0  0  0  0  0
   27.0143    4.0836   60.9726 C   0  0  1  0  0  0  0  0  0  0  0  0
   27.3190    5.0905   62.0122 O   0  0  0  0  0  0  0  0  0  0  0  0
   25.6721    4.4921   60.2495 C   0  0  2  0  0  0  0  0  0  0  0  0
   25.3497    3.4819   59.2798 O   0  0  0  0  0  0  0  0  0  0  0  0
   25.8878    5.9089   59.5725 C   0  0  1  0  0  0  0  0  0  0  0  0
   27.0323    5.7945   58.6613 O   0  0  0  0  0  0  0  0  0  0  0  0
   24.6598    6.4460   58.8028 C   0  0  0  0  0  0  0  0  0  0  0  0
   23.5030    6.7654   59.6830 N   0  3  0  0  0  0  0  0  0  0  0  0
  1  2  1  6  0  0  0
  1  3  1  0  0  0  0
  1 10  1  0  0  0  0
  3  4  1  6  0  0  0
  3  5  1  0  0  0  0
  5  6  1  1  0  0  0
  5  7  1  0  0  0  0
  7  8  1  6  0  0  0
  7  9  1  0  0  0  0
  9 10  1  0  0  0  0
  9 11  1  1  0  0  0
 11 12  1  0  0  0  0
 13 14  1  1  0  0  0
 13 15  1  0  0  0  0
 13 21  1  0  0  0  0
 15 16  1  0  0  0  0
 16 17  1  6  0  0  0
 16 18  1  0  0  0  0
 18  2  1  6  0  0  0
 18 19  1  0  0  0  0
 19 20  1  1  0  0  0
 19 21  1  0  0  0  0
 21 22  1  1  0  0  0
 23 20  1  6  0  0  0
 23 24  1  0  0  0  0
 23 29  1  0  0  0  0
 24 25  1  1  0  0  0
 24 26  1  0  0  0  0
 26 27  1  6  0  0  0
 26 28  1  0  0  0  0
 28 29  1  0  0  0  0
 28 30  1  6  0  0  0
 30 31  1  0  0  0  0
 32 27  1  6  0  0  0
 32 33  1  0  0  0  0
 32 40  1  0  0  0  0
 33 34  1  6  0  0  0
 33 35  1  0  0  0  0
 35 36  1  1  0  0  0
 35 37  1  0  0  0  0
 37 38  1  6  0  0  0
 37 39  1  0  0  0  0
 39 40  1  0  0  0  0
 39 41  1  6  0  0  0
 41 42  1  0  0  0  0
M  CHG  5   4   1  14   1  17   1  34   1  42   1
M  END
>  <CHROM.1>
-152.30228765,-153.13871304,82.64224990,-156.38352350,-68.59723260,-107.05236068
43.96432158,-166.06596465,-69.68539560,152.19065126,129.65337296,172.88295743
179.62037070,162.57939613,-153.09530219,-49.96334914,-176.24257530,153.32599692
-51.56528159,168.31551529,66.58839598,-168.42483107,29.97288898,7.01562980
55.45196585,1.02457552,0.31100764,-0.99707407

>  <Name>
1j7t

>  <RI>
0

>  <Rbt.Current_Directory>
/home/itssahil/PROJECTS/Mol_Feturizer/New_Systems/rnas/1j7t

>  <Rbt.Executable>
rbdock ($Id: //depot/dev/client3/rdock/2013.1/src/exe/rbdock.cxx#4 $)

>  <Rbt.Library>
libRbt.so (2013.1, Build901 2013/11/27)

>  <Rbt.Parameter_File>
/export/apps/rDock/src/rDock_2013.1_src/data/scripts/dock_solv.prm

>  <Rbt.Receptor>
prm/pocket_docking_3.prm

>  <SCORE>
-69.8155

>  <SCORE.INTER>
-56.5613

>  <SCORE.INTER.CONST>
1

>  <SCORE.INTER.POLAR>
-8.98208

>  <SCORE.INTER.ROT>
9

>  <SCORE.INTER.SOLV>
23.6864

>  <SCORE.INTER.VDW>
-25.2627

>  <SCORE.INTER.norm>
-1.3467

>  <SCORE.INTRA>
-13.2541

>  <SCORE.INTRA.DIHEDRAL>
-11.2576

>  <SCORE.INTRA.DIHEDRAL.0>
46.2143

>  <SCORE.INTRA.POLAR>
-1.10982

>  <SCORE.INTRA.POLAR.0>
-1.76436

>  <SCORE.INTRA.REPUL>
0

>  <SCORE.INTRA.REPUL.0>
0

>  <SCORE.INTRA.SOLV>
-2.90606

>  <SCORE.INTRA.SOLV.lig_0>
-148.643

>  <SCORE.INTRA.VDW>
-2.39891

>  <SCORE.INTRA.VDW.0>
-4.83512

>  <SCORE.INTRA.norm>
-0.315575

>  <SCORE.RESTR>
0

>  <SCORE.RESTR.CAVITY>
0

>  <SCORE.RESTR.norm>
0

>  <SCORE.SYSTEM>
0

>  <SCORE.SYSTEM.CONST>
0

>  <SCORE.SYSTEM.DIHEDRAL>
0

>  <SCORE.SYSTEM.SOLV>
0

>  <SCORE.SYSTEM.norm>
0

>  <SCORE.heavy>
42

>  <SCORE.norm>
-1.66227

>  <RMSD>
1.389

$$$$
1j7t
 OpenBabel11021811393D
libRbt.so/2013.1/901 2013/11/27
 42 45  0  0  0  0  0  0  0  0999 V2000
   30.6771    8.7854   52.9300 C   0  0  2  0  0  0  0  0  0  0  0  0
   31.5600    7.7687   52.3921 O   0  0  0  0  0  0  0  0  0  0  0  0
   29.2335    8.4094   52.4885 C   0  0  2  0  0  0  0  0  0  0  0  0
   28.8230    7.0186   52.8356 N   0  3  0  0  0  0  0  0  0  0  0  0
   29.1468    8.5624   50.9542 C   0  0  1  0  0  0  0  0  0  0  0  0
   27.8600    8.2516   50.4994 O   0  0  0  0  0  0  0  0  0  0  0  0
   29.5382   10.0012   50.5416 C   0  0  2  0  0  0  0  0  0  0  0  0
   29.4447   10.1691   49.1408 O   0  0  0  0  0  0  0  0  0  0  0  0
   30.9562   10.2948   50.9832 C   0  0  2  0  0  0  0  0  0  0  0  0
   31.0644   10.0860   52.3856 O   0  0  0  0  0  0  0  0  0  0  0  0
   31.3749   11.7241   50.7205 C   0  0  0  0  0  0  0  0  0  0  0  0
   32.7826   11.8277   50.8142 O   0  0  0  0  0  0  0  0  0  0  0  0
   34.9168    5.5665   53.7073 C   0  0  2  0  0  0  0  0  0  0  0  0
   36.2073    5.2363   54.3132 N   0  3  0  0  0  0  0  0  0  0  0  0
   35.1237    6.5678   52.5228 C   0  0  0  0  0  0  0  0  0  0  0  0
   33.7630    6.9559   51.9134 C   0  0  2  0  0  0  0  0  0  0  0  0
   33.9342    7.9360   50.8359 N   0  3  0  0  0  0  0  0  0  0  0  0
   32.8382    7.5430   52.9977 C   0  0  2  0  0  0  0  0  0  0  0  0
   32.6384    6.5881   54.1908 C   0  0  2  0  0  0  0  0  0  0  0  0
   31.8922    7.3304   55.1745 O   0  0  0  0  0  0  0  0  0  0  0  0
   34.0091    6.1594   54.7732 C   0  0  1  0  0  0  0  0  0  0  0  0
   33.8036    5.2159   55.7884 O   0  0  0  0  0  0  0  0  0  0  0  0
   30.7526    6.8102   55.8540 C   0  0  1  0  0  0  0  0  0  0  0  0
   31.0477    6.8096   57.3964 C   0  0  2  0  0  0  0  0  0  0  0  0
   31.6898    5.6337   57.8589 O   0  0  0  0  0  0  0  0  0  0  0  0
   29.6209    6.9941   57.8940 C   0  0  2  0  0  0  0  0  0  0  0  0
   28.8145    5.8064   57.6318 O   0  0  0  0  0  0  0  0  0  0  0  0
   29.0980    8.1117   57.0023 C   0  0  2  0  0  0  0  0  0  0  0  0
   29.6138    7.7044   55.7233 O   0  0  0  0  0  0  0  0  0  0  0  0
   29.5597    9.5494   57.4093 C   0  0  0  0  0  0  0  0  0  0  0  0
   30.9438    9.5757   57.7800 O   0  0  0  0  0  0  0  0  0  0  0  0
   27.9920    5.4109   58.7267 C   0  0  2  0  0  0  0  0  0  0  0  0
   28.5240    4.1776   59.5330 C   0  0  2  0  0  0  0  0  0  0  0  0
   28.7075    2.9629   58.6821 N   0  3  0  0  0  0  0  0  0  0  0  0
   27.5078    3.9168   60.6945 C   0  0  1  0  0  0  0  0  0  0  0  0
   27.5286    5.1090   61.5696 O   0  0  0  0  0  0  0  0  0  0  0  0
   26.0346    3.6974   60.1722 C   0  0  2  0  0  0  0  0  0  0  0  0
   26.0073    2.5062   59.3690 O   0  0  0  0  0  0  0  0  0  0  0  0
   25.6106    4.9775   59.3393 C   0  0  1  0  0  0  0  0  0  0  0  0
   26.5933    5.1512   58.2635 O   0  0  0  0  0  0  0  0  0  0  0  0
   24.1874    4.9107   58.7402 C   0  0  0  0  0  0  0  0  0  0  0  0
   23.1579    5.5752   59.5847 N   0  3  0  0  0  0  0  0  0  0  0  0
  1  2  1  6  0  0  0
  1  3  1  0  0  0  0
  1 10  1  0  0  0  0
  3  4  1  6  0  0  0
  3  5  1  0  0  0  0
  5  6  1  1  0  0  0
  5  7  1  0  0  0  0
  7  8  1  6  0  0  0
  7  9  1  0  0  0  0
  9 10  1  0  0  0  0
  9 11  1  1  0  0  0
 11 12  1  0  0  0  0
 13 14  1  1  0  0  0
 13 15  1  0  0  0  0
 13 21  1  0  0  0  0
 15 16  1  0  0  0  0
 16 17  1  6  0  0  0
 16 18  1  0  0  0  0
 18  2  1  6  0  0  0
 18 19  1  0  0  0  0
 19 20  1  1  0  0  0
 19 21  1  0  0  0  0
 21 22  1  1  0  0  0
 23 20  1  6  0  0  0
 23 24  1  0  0  0  0
 23 29  1  0  0  0  0
 24 25  1  1  0  0  0
 24 26  1  0  0  0  0
 26 27  1  6  0  0  0
 26 28  1  0  0  0  0
 28 29  1  0  0  0  0
 28 30  1  1  0  0  0
 30 31  1  0  0  0  0
 32 27  1  6  0  0  0
 32 33  1  0  0  0  0
 32 40  1  0  0  0  0
 33 34  1  6  0  0  0
 33 35  1  0  0  0  0
 35 36  1  1  0  0  0
 35 37  1  0  0  0  0
 37 38  1  6  0  0  0
 37 39  1  0  0  0  0
 39 40  1  0  0  0  0
 39 41  1  6  0  0  0
 41 42  1  0  0  0  0
M  CHG  5   4   1  14   1  17   1  34   1  42   1
M  END
>  <CHROM.1>
-157.24200179,-154.12349759,-59.87111961,67.80416513,64.20009155,-164.28603826
-175.41264133,-34.36488896,55.36088633,132.97460647,120.18553802,-55.61550157
-53.35153159,135.87092235,-103.27666305,42.11585056,172.27560987,46.90095082
-64.64945688,179.87409044,95.66366273,26.81710482,30.09699816,6.97781362
55.28612751,1.02023072,0.19540362,-0.96364402

>  <Name>
1j7t

>  <RI>
0

>  <Rbt.Current_Directory>
/home/itssahil/PROJECTS/Mol_Feturizer/New_Systems/rnas/1j7t

>  <Rbt.Executable>
rbdock ($Id: //depot/dev/client3/rdock/2013.1/src/exe/rbdock.cxx#4 $)

>  <Rbt.Library>
libRbt.so (2013.1, Build901 2013/11/27)

>  <Rbt.Parameter_File>
/export/apps/rDock/src/rDock_2013.1_src/data/scripts/dock_solv.prm

>  <Rbt.Receptor>
prm/pocket_docking_3.prm

>  <SCORE>
-55.996

>  <SCORE.INTER>
-49.8149

>  <SCORE.INTER.CONST>
1

>  <SCORE.INTER.POLAR>
-7.2943

>  <SCORE.INTER.ROT>
9

>  <SCORE.INTER.SOLV>
24.7462

>  <SCORE.INTER.VDW>
-26.7443

>  <SCORE.INTER.norm>
-1.18607

>  <SCORE.INTRA>
-6.2054

>  <SCORE.INTRA.DIHEDRAL>
-5.14969

>  <SCORE.INTRA.DIHEDRAL.0>
46.2143

>  <SCORE.INTRA.POLAR>
-0.0311105

>  <SCORE.INTRA.POLAR.0>
-1.76436

>  <SCORE.INTRA.REPUL>
0.0647345

>  <SCORE.INTRA.REPUL.0>
0

>  <SCORE.INTRA.SOLV>
-2.34797

>  <SCORE.INTRA.SOLV.lig_0>
-148.643

>  <SCORE.INTRA.VDW>
-2.67447

>  <SCORE.INTRA.VDW.0>
-4.83512

>  <SCORE.INTRA.norm>
-0.147748

>  <SCORE.RESTR>
0.0242993

>  <SCORE.RESTR.CAVITY>
0.0242993

>  <SCORE.RESTR.norm>
0.000578555

>  <SCORE.SYSTEM>
0

>  <SCORE.SYSTEM.CONST>
0

>  <SCORE.SYSTEM.DIHEDRAL>
0

>  <SCORE.SYSTEM.SOLV>
0

>  <SCORE.SYSTEM.norm>
0

>  <SCORE.heavy>
42

>  <SCORE.norm>
-1.33324

>  <RMSD>
1.390

$$$$
1j7t
 OpenBabel11021811393D
libRbt.so/2013.1/901 2013/11/27
 42 45  0  0  0  0  0  0  0  0999 V2000
   30.0105    8.8626   53.3246 C   0  0  2  0  0  0  0  0  0  0  0  0
   30.8162    7.7124   52.9636 O   0  0  0  0  0  0  0  0  0  0  0  0
   28.5469    8.5367   52.9105 C   0  0  2  0  0  0  0  0  0  0  0  0
   28.0236    7.2488   53.4501 N   0  3  0  0  0  0  0  0  0  0  0  0
   28.4901    8.4649   51.3689 C   0  0  1  0  0  0  0  0  0  0  0  0
   27.1879    8.1891   50.9355 O   0  0  0  0  0  0  0  0  0  0  0  0
   28.9988    9.7917   50.7569 C   0  0  2  0  0  0  0  0  0  0  0  0
   28.9348    9.7550   49.3449 O   0  0  0  0  0  0  0  0  0  0  0  0
   30.4305   10.0384   51.1828 C   0  0  2  0  0  0  0  0  0  0  0  0
   30.5058   10.0338   52.6027 O   0  0  0  0  0  0  0  0  0  0  0  0
   30.9639   11.3761   50.7211 C   0  0  0  0  0  0  0  0  0  0  0  0
   32.2021   11.1882   50.0632 O   0  0  0  0  0  0  0  0  0  0  0  0
   33.9546    5.4691   54.6861 C   0  0  2  0  0  0  0  0  0  0  0  0
   35.2032    5.1307   55.3699 N   0  3  0  0  0  0  0  0  0  0  0  0
   34.2631    6.2589   53.3710 C   0  0  0  0  0  0  0  0  0  0  0  0
   32.9494    6.6597   52.6730 C   0  0  2  0  0  0  0  0  0  0  0  0
   33.2190    7.4477   51.4658 N   0  3  0  0  0  0  0  0  0  0  0  0
   32.0616    7.4778   53.6312 C   0  0  2  0  0  0  0  0  0  0  0  0
   31.7639    6.7345   54.9480 C   0  0  2  0  0  0  0  0  0  0  0  0
   31.0687    7.6757   55.7884 O   0  0  0  0  0  0  0  0  0  0  0  0
   33.0845    6.2889   55.6256 C   0  0  1  0  0  0  0  0  0  0  0  0
   32.7848    5.5302   56.7647 O   0  0  0  0  0  0  0  0  0  0  0  0
   30.0819    7.2968   56.7443 C   0  0  1  0  0  0  0  0  0  0  0  0
   30.1931    8.2546   57.9838 C   0  0  2  0  0  0  0  0  0  0  0  0
   31.1161    7.8184   58.9670 O   0  0  0  0  0  0  0  0  0  0  0  0
   28.7349    8.2214   58.4196 C   0  0  2  0  0  0  0  0  0  0  0  0
   28.3733    6.9100   58.9478 O   0  0  0  0  0  0  0  0  0  0  0  0
   27.9892    8.4102   57.1060 C   0  0  2  0  0  0  0  0  0  0  0  0
   28.7421    7.5457   56.2379 O   0  0  0  0  0  0  0  0  0  0  0  0
   27.9316    9.8846   56.5874 C   0  0  0  0  0  0  0  0  0  0  0  0
   27.1478   10.7187   57.4499 O   0  0  0  0  0  0  0  0  0  0  0  0
   27.1788    6.9075   59.7255 C   0  0  2  0  0  0  0  0  0  0  0  0
   27.3952    6.6575   61.2568 C   0  0  2  0  0  0  0  0  0  0  0  0
   28.0875    5.3640   61.5418 N   0  3  0  0  0  0  0  0  0  0  0  0
   25.9854    6.7154   61.9341 C   0  0  1  0  0  0  0  0  0  0  0  0
   25.4628    8.0853   61.7395 O   0  0  0  0  0  0  0  0  0  0  0  0
   24.9666    5.6898   61.3004 C   0  0  2  0  0  0  0  0  0  0  0  0
   25.4494    4.3580   61.5417 O   0  0  0  0  0  0  0  0  0  0  0  0
   24.8522    6.0015   59.7507 C   0  0  1  0  0  0  0  0  0  0  0  0
   26.2016    5.9142   59.1807 O   0  0  0  0  0  0  0  0  0  0  0  0
   23.8972    5.0648   58.9764 C   0  0  0  0  0  0  0  0  0  0  0  0
   22.4734    5.2001   59.3876 N   0  3  0  0  0  0  0  0  0  0  0  0
  1  2  1  6  0  0  0
  1  3  1  0  0  0  0
  1 10  1  0  0  0  0
  3  4  1  1  0  0  0
  3  5  1  0  0  0  0
  5  6  1  1  0  0  0
  5  7  1  0  0  0  0
  7  8  1  6  0  0  0
  7  9  1  0  0  0  0
  9 10  1  0  0  0  0
  9 11  1  1  0  0  0
 11 12  1  0  0  0  0
 13 14  1  1  0  0  0
 13 15  1  0  0  0  0
 13 21  1  0  0  0  0
 15 16  1  0  0  0  0
 16 17  1  6  0  0  0
 16 18  1  0  0  0  0
 18  2  1  6  0  0  0
 18 19  1  0  0  0  0
 19 20  1  1  0  0  0
 19 21  1  0  0  0  0
 21 22  1  1  0  0  0
 23 20  1  6  0  0  0
 23 24  1  0  0  0  0
 23 29  1  0  0  0  0
 24 25  1  1  0  0  0
 24 26  1  0  0  0  0
 26 27  1  6  0  0  0
 26 28  1  0  0  0  0
 28 29  1  0  0  0  0
 28 30  1  6  0  0  0
 30 31  1  0  0  0  0
 32 27  1  6  0  0  0
 32 33  1  0  0  0  0
 32 40  1  0  0  0  0
 33 34  1  6  0  0  0
 33 35  1  0  0  0  0
 35 36  1  6  0  0  0
 35 37  1  0  0  0  0
 37 38  1  6  0  0  0
 37 39  1  0  0  0  0
 39 40  1  0  0  0  0
 39 41  1  6  0  0  0
 41 42  1  0  0  0  0
M  CHG  5   4   1  14   1  17   1  34   1  42   1
M  END
>  <CHROM.1>
-156.84900351,-154.52343728,174.45007119,-166.87038140,172.37184451,-128.89204134
59.36962144,174.83310940,153.62815798,148.37711323,145.18791003,72.99399411
-165.63684256,162.42786625,-110.67712598,-66.60680225,-165.26330402,34.94524783
178.69145791,178.33614347,65.33925112,-152.92129493,29.21446721,7.53696842
55.92203496,0.99929919,0.24935242,-1.14338007

>  <Name>
1j7t

>  <RI>
0

>  <Rbt.Current_Directory>
/home/itssahil/PROJECTS/Mol_Feturizer/New_Systems/rnas/1j7t

>  <Rbt.Executable>
rbdock ($Id: //depot/dev/client3/rdock/2013.1/src/exe/rbdock.cxx#4 $)

>  <Rbt.Library>
libRbt.so (2013.1, Build901 2013/11/27)

>  <Rbt.Parameter_File>
/export/apps/rDock/src/rDock_2013.1_src/data/scripts/dock_solv.prm

>  <Rbt.Receptor>
prm/pocket_docking_5.prm

>  <SCORE>
-59.6001

>  <SCORE.INTER>
-49.481

>  <SCORE.INTER.CONST>
1

>  <SCORE.INTER.POLAR>
-7.41757

>  <SCORE.INTER.ROT>
9

>  <SCORE.INTER.SOLV>
22.7283

>  <SCORE.INTER.VDW>
-25.4382

>  <SCORE.INTER.norm>
-1.17812

>  <SCORE.INTRA>
-10.119

>  <SCORE.INTRA.DIHEDRAL>
-10.5747

>  <SCORE.INTRA.DIHEDRAL.0>
46.2143

>  <SCORE.INTRA.POLAR>
-0.321584

>  <SCORE.INTRA.POLAR.0>
-1.76436

>  <SCORE.INTRA.REPUL>
0

>  <SCORE.INTRA.REPUL.0>
0

>  <SCORE.INTRA.SOLV>
-3.13069

>  <SCORE.INTRA.SOLV.lig_0>
-148.643

>  <SCORE.INTRA.VDW>
-2.17295

>  <SCORE.INTRA.VDW.0>
-4.83512

>  <SCORE.INTRA.norm>
-0.24093

>  <SCORE.RESTR>
0

>  <SCORE.RESTR.CAVITY>
0

>  <SCORE.RESTR.norm>
0

>  <SCORE.SYSTEM>
0

>  <SCORE.SYSTEM.CONST>
0

>  <SCORE.SYSTEM.DIHEDRAL>
0

>  <SCORE.SYSTEM.SOLV>
0

>  <SCORE.SYSTEM.norm>
0

>  <SCORE.heavy>
42

>  <SCORE.norm>
-1.41905

>  <RMSD>
1.399

$$$$
1j7t
 OpenBabel11021811393D
libRbt.so/2013.1/901 2013/11/27
 42 45  0  0  0  0  0  0  0  0999 V2000
   30.5610    8.9464   52.6460 C   0  0  2  0  0  0  0  0  0  0  0  0
   31.4988    7.9848   52.0999 O   0  0  0  0  0  0  0  0  0  0  0  0
   29.1771    8.6426   52.0037 C   0  0  2  0  0  0  0  0  0  0  0  0
   28.7284    7.2273   52.1417 N   0  3  0  0  0  0  0  0  0  0  0  0
   29.2666    8.9688   50.4968 C   0  0  1  0  0  0  0  0  0  0  0  0
   28.0399    8.7290   49.8665 O   0  0  0  0  0  0  0  0  0  0  0  0
   29.7037   10.4394   50.2974 C   0  0  2  0  0  0  0  0  0  0  0  0
   29.7712   10.7653   48.9232 O   0  0  0  0  0  0  0  0  0  0  0  0
   31.0622   10.6617   50.9276 C   0  0  2  0  0  0  0  0  0  0  0  0
   31.0091   10.2947   52.3004 O   0  0  0  0  0  0  0  0  0  0  0  0
   31.5093   12.1055   50.8782 C   0  0  0  0  0  0  0  0  0  0  0  0
   31.6899   12.4972   49.5309 O   0  0  0  0  0  0  0  0  0  0  0  0
   34.4056    5.4854   53.8751 C   0  0  2  0  0  0  0  0  0  0  0  0
   35.5859    5.0434   54.6187 N   0  3  0  0  0  0  0  0  0  0  0  0
   34.8421    6.3457   52.6431 C   0  0  0  0  0  0  0  0  0  0  0  0
   33.6007    6.8540   51.8853 C   0  0  2  0  0  0  0  0  0  0  0  0
   33.9905    7.7071   50.7579 N   0  3  0  0  0  0  0  0  0  0  0  0
   32.6812    7.6474   52.8343 C   0  0  2  0  0  0  0  0  0  0  0  0
   32.2575    6.8328   54.0721 C   0  0  2  0  0  0  0  0  0  0  0  0
   31.5438    7.7477   54.9258 O   0  0  0  0  0  0  0  0  0  0  0  0
   33.5053    6.2809   54.8070 C   0  0  1  0  0  0  0  0  0  0  0  0
   33.0918    5.4630   55.8667 O   0  0  0  0  0  0  0  0  0  0  0  0
   30.5804    7.3336   55.8910 C   0  0  1  0  0  0  0  0  0  0  0  0
   30.1635    8.5815   56.7483 C   0  0  2  0  0  0  0  0  0  0  0  0
   30.9930    8.8087   57.8749 O   0  0  0  0  0  0  0  0  0  0  0  0
   28.7404    8.1554   57.0805 C   0  0  2  0  0  0  0  0  0  0  0  0
   28.7315    7.0138   57.9896 O   0  0  0  0  0  0  0  0  0  0  0  0
   28.2123    7.6768   55.7353 C   0  0  2  0  0  0  0  0  0  0  0  0
   29.3402    6.9284   55.2499 O   0  0  0  0  0  0  0  0  0  0  0  0
   27.7769    8.8156   54.7559 C   0  0  0  0  0  0  0  0  0  0  0  0
   26.8801    8.3324   53.7477 O   0  0  0  0  0  0  0  0  0  0  0  0
   27.4285    6.6176   58.4100 C   0  0  2  0  0  0  0  0  0  0  0  0
   26.6948    7.6518   59.3299 C   0  0  2  0  0  0  0  0  0  0  0  0
   27.4613    7.9695   60.5729 N   0  3  0  0  0  0  0  0  0  0  0  0
   25.2872    7.0527   59.6608 C   0  0  1  0  0  0  0  0  0  0  0  0
   24.5501    6.9370   58.3838 O   0  0  0  0  0  0  0  0  0  0  0  0
   25.3783    5.6235   60.3245 C   0  0  2  0  0  0  0  0  0  0  0  0
   26.0447    5.7496   61.5913 O   0  0  0  0  0  0  0  0  0  0  0  0
   26.1701    4.6701   59.3364 C   0  0  1  0  0  0  0  0  0  0  0  0
   27.4793    5.2830   59.0841 O   0  0  0  0  0  0  0  0  0  0  0  0
   26.3608    3.2260   59.8532 C   0  0  0  0  0  0  0  0  0  0  0  0
   27.1540    2.3677   58.9319 N   0  3  0  0  0  0  0  0  0  0  0  0
  1  2  1  6  0  0  0
  1  3  1  0  0  0  0
  1 10  1  0  0  0  0
  3  4  1  6  0  0  0
  3  5  1  0  0  0  0
  5  6  1  1  0  0  0
  5  7  1  0  0  0  0
  7  8  1  6  0  0  0
  7  9  1  0  0  0  0
  9 10  1  0  0  0  0
  9 11  1  1  0  0  0
 11 12  1  0  0  0  0
 13 14  1  1  0  0  0
 13 15  1  0  0  0  0
 13 21  1  0  0  0  0
 15 16  1  0  0  0  0
 16 17  1  6  0  0  0
 16 18  1  0  0  0  0
 18  2  1  6  0  0  0
 18 19  1  0  0  0  0
 19 20  1  1  0  0  0
 19 21  1  0  0  0  0
 21 22  1  1  0  0  0
 23 20  1  6  0  0  0
 23 24  1  0  0  0  0
 23 29  1  0  0  0  0
 24 25  1  1  0  0  0
 24 26  1  0  0  0  0
 26 27  1  1  0  0  0
 26 28  1  0  0  0  0
 28 29  1  0  0  0  0
 28 30  1  6  0  0  0
 30 31  1  0  0  0  0
 32 27  1  1  0  0  0
 32 33  1  0  0  0  0
 32 40  1  0  0  0  0
 33 34  1  1  0  0  0
 33 35  1  0  0  0  0
 35 36  1  6  0  0  0
 35 37  1  0  0  0  0
 37 38  1  1  0  0  0
 37 39  1  0  0  0  0
 39 40  1  0  0  0  0
 39 41  1  1  0  0  0
 41 42  1  0  0  0  0
M  CHG  5   4   1  14   1  17   1  34   1  42   1
M  END
>  <CHROM.1>
-155.54625167,-168.27543286,172.33103766,-71.35302227,66.45333255,-64.61913033
49.94459482,-55.83074491,-63.62061874,155.75222597,172.63743348,-55.49090421
176.92455790,176.16317893,-67.49396417,-159.42513998,63.28223458,-61.46504465
-166.29789403,65.69318607,-177.67118953,105.39141691,29.72320723,7.55034145
54.96953935,1.01812624,0.36075654,-0.97751389

>  <Name>
1j7t

>  <RI>
0

>  <Rbt.Current_Directory>
/home/itssahil/PROJECTS/Mol_Feturizer/New_Systems/rnas/1j7t

>  <Rbt.Executable>
rbdock ($Id: //depot/dev/client3/rdock/2013.1/src/exe/rbdock.cxx#4 $)

>  <Rbt.Library>
libRbt.so (2013.1, Build901 2013/11/27)

>  <Rbt.Parameter_File>
/export/apps/rDock/src/rDock_2013.1_src/data/scripts/dock_solv.prm

>  <Rbt.Receptor>
prm/pocket_docking_3.prm

>  <SCORE>
-65.915

>  <SCORE.INTER>
-46.944

>  <SCORE.INTER.CONST>
1

>  <SCORE.INTER.POLAR>
-6.80927

>  <SCORE.INTER.ROT>
9

>  <SCORE.INTER.SOLV>
22.301

>  <SCORE.INTER.VDW>
-25.6321

>  <SCORE.INTER.norm>
-1.11771

>  <SCORE.INTRA>
-18.9908

>  <SCORE.INTRA.DIHEDRAL>
-31.787

>  <SCORE.INTRA.DIHEDRAL.0>
46.2143

>  <SCORE.INTRA.POLAR>
-0.380787

>  <SCORE.INTRA.POLAR.0>
-1.76436

>  <SCORE.INTRA.REPUL>
0

>  <SCORE.INTRA.REPUL.0>
0

>  <SCORE.INTRA.SOLV>
-0.641579

>  <SCORE.INTRA.SOLV.lig_0>
-148.643

>  <SCORE.INTRA.VDW>
-1.48179

>  <SCORE.INTRA.VDW.0>
-4.83512

>  <SCORE.INTRA.norm>
-0.452161

>  <SCORE.RESTR>
0.0198182

>  <SCORE.RESTR.CAVITY>
0.0198182

>  <SCORE.RESTR.norm>
0.000471863

>  <SCORE.SYSTEM>
0

>  <SCORE.SYSTEM.CONST>
0

>  <SCORE.SYSTEM.DIHEDRAL>
0

>  <SCORE.SYSTEM.SOLV>
0

>  <SCORE.SYSTEM.norm>
0

>  <SCORE.heavy>
42

>  <SCORE.norm>
-1.5694

>  <RMSD>
1.442

$$$$
1j7t
 OpenBabel11021811393D
libRbt.so/2013.1/901 2013/11/27
 42 45  0  0  0  0  0  0  0  0999 V2000
   30.7653    8.9588   52.7634 C   0  0  2  0  0  0  0  0  0  0  0  0
   31.5570    7.8619   52.2412 O   0  0  0  0  0  0  0  0  0  0  0  0
   29.3001    8.7193   52.2989 C   0  0  2  0  0  0  0  0  0  0  0  0
   28.7547    7.3743   52.6409 N   0  3  0  0  0  0  0  0  0  0  0  0
   29.2530    8.8757   50.7632 C   0  0  1  0  0  0  0  0  0  0  0  0
   27.9501    8.6862   50.2878 O   0  0  0  0  0  0  0  0  0  0  0  0
   29.7848   10.2700   50.3553 C   0  0  2  0  0  0  0  0  0  0  0  0
   29.7302   10.4421   48.9530 O   0  0  0  0  0  0  0  0  0  0  0  0
   31.2169   10.4299   50.8197 C   0  0  2  0  0  0  0  0  0  0  0  0
   31.2823   10.2156   52.2239 O   0  0  0  0  0  0  0  0  0  0  0  0
   31.7726   11.8126   50.5622 C   0  0  0  0  0  0  0  0  0  0  0  0
   31.0876   12.7532   51.3667 O   0  0  0  0  0  0  0  0  0  0  0  0
   34.8024    5.4307   53.4264 C   0  0  2  0  0  0  0  0  0  0  0  0
   36.0664    5.0017   54.0262 N   0  3  0  0  0  0  0  0  0  0  0  0
   35.0714    6.5204   52.3362 C   0  0  0  0  0  0  0  0  0  0  0  0
   33.7394    7.0101   51.7366 C   0  0  2  0  0  0  0  0  0  0  0  0
   33.9696    8.0710   50.7504 N   0  3  0  0  0  0  0  0  0  0  0  0
   32.8125    7.5374   52.8494 C   0  0  2  0  0  0  0  0  0  0  0  0
   32.5521    6.4929   53.9523 C   0  0  2  0  0  0  0  0  0  0  0  0
   31.8116    7.1767   54.9816 O   0  0  0  0  0  0  0  0  0  0  0  0
   33.8932    5.9648   54.5218 C   0  0  1  0  0  0  0  0  0  0  0  0
   33.6315    4.9469   55.4483 O   0  0  0  0  0  0  0  0  0  0  0  0
   30.6310    6.6506   55.5821 C   0  0  1  0  0  0  0  0  0  0  0  0
   30.9309    6.3495   57.0939 C   0  0  2  0  0  0  0  0  0  0  0  0
   31.4620    5.0565   57.3287 O   0  0  0  0  0  0  0  0  0  0  0  0
   29.5297    6.5725   57.6454 C   0  0  2  0  0  0  0  0  0  0  0  0
   28.6146    5.5288   57.1947 O   0  0  0  0  0  0  0  0  0  0  0  0
   29.1101    7.8734   56.9754 C   0  0  2  0  0  0  0  0  0  0  0  0
   29.5803    7.6540   55.6344 O   0  0  0  0  0  0  0  0  0  0  0  0
   29.7058    9.1679   57.6197 C   0  0  0  0  0  0  0  0  0  0  0  0
   29.9374    9.0017   59.0243 O   0  0  0  0  0  0  0  0  0  0  0  0
   27.4014    5.4603   57.9396 C   0  0  2  0  0  0  0  0  0  0  0  0
   27.4837    4.6012   59.2471 C   0  0  2  0  0  0  0  0  0  0  0  0
   27.9013    3.1897   58.9891 N   0  3  0  0  0  0  0  0  0  0  0  0
   26.0762    4.6681   59.9285 C   0  0  1  0  0  0  0  0  0  0  0  0
   25.8346    6.0804   60.2952 O   0  0  0  0  0  0  0  0  0  0  0  0
   24.9167    4.1878   58.9713 C   0  0  2  0  0  0  0  0  0  0  0  0
   25.1240    2.7996   58.6633 O   0  0  0  0  0  0  0  0  0  0  0  0
   24.9471    5.0896   57.6683 C   0  0  1  0  0  0  0  0  0  0  0  0
   26.2839    4.9667   57.0759 O   0  0  0  0  0  0  0  0  0  0  0  0
   23.8745    4.7312   56.6147 C   0  0  0  0  0  0  0  0  0  0  0  0
   23.0609    3.5399   56.9800 N   0  3  0  0  0  0  0  0  0  0  0  0
  1  2  1  6  0  0  0
  1  3  1  0  0  0  0
  1 10  1  0  0  0  0
  3  4  1  6  0  0  0
  3  5  1  0  0  0  0
  5  6  1  1  0  0  0
  5  7  1  0  0  0  0
  7  8  1  6  0  0  0
  7  9  1  0  0  0  0
  9 10  1  0  0  0  0
  9 11  1  1  0  0  0
 11 12  1  0  0  0  0
 13 14  1  1  0  0  0
 13 15  1  0  0  0  0
 13 21  1  0  0  0  0
 15 16  1  0  0  0  0
 16 17  1  6  0  0  0
 16 18  1  0  0  0  0
 18  2  1  6  0  0  0
 18 19  1  0  0  0  0
 19 20  1  1  0  0  0
 19 21  1  0  0  0  0
 21 22  1  1  0  0  0
 23 20  1  1  0  0  0
 23 24  1  0  0  0  0
 23 29  1  0  0  0  0
 24 25  1  6  0  0  0
 24 26  1  0  0  0  0
 26 27  1  6  0  0  0
 26 28  1  0  0  0  0
 28 29  1  0  0  0  0
 28 30  1  1  0  0  0
 30 31  1  0  0  0  0
 32 27  1  6  0  0  0
 32 33  1  0  0  0  0
 32 40  1  0  0  0  0
 33 34  1  6  0  0  0
 33 35  1  0  0  0  0
 35 36  1  6  0  0  0
 35 37  1  0  0  0  0
 37 38  1  6  0  0  0
 37 39  1  0  0  0  0
 39 40  1  0  0  0  0
 39 41  1  6  0  0  0
 41 42  1  0  0  0  0
M  CHG  5   4   1  14   1  17   1  34   1  42   1
M  END
>  <CHROM.1>
-158.62842280,-147.56038977,56.27256589,-109.48097565,61.65794737,66.63611155
-171.94755220,77.42847960,173.56002495,132.27192696,114.12049695,67.10970327
60.89999848,164.01504489,-85.26600866,-29.93616278,74.55706790,8.36021469
-178.95960605,-82.20886099,-3.77638533,-52.56989905,29.82208893,6.97619518
54.90004154,0.92843404,0.14702687,-0.91346758

>  <Name>
1j7t

>  <RI>
0

>  <Rbt.Current_Directory>
/home/itssahil/PROJECTS/Mol_Feturizer/New_Systems/rnas/1j7t

>  <Rbt.Executable>
rbdock ($Id: //depot/dev/client3/rdock/2013.1/src/exe/rbdock.cxx#4 $)

>  <Rbt.Library>
libRbt.so (2013.1, Build901 2013/11/27)

>  <Rbt.Parameter_File>
/export/apps/rDock/src/rDock_2013.1_src/data/scripts/dock_solv.prm

>  <Rbt.Receptor>
prm/pocket_docking_2.prm

>  <SCORE>
-40.5861

>  <SCORE.INTER>
-38.4518

>  <SCORE.INTER.CONST>
1

>  <SCORE.INTER.POLAR>
-5.56146

>  <SCORE.INTER.ROT>
9

>  <SCORE.INTER.SOLV>
22.075

>  <SCORE.INTER.VDW>
-24.0547

>  <SCORE.INTER.norm>
-0.915519

>  <SCORE.INTRA>
-2.68791

>  <SCORE.INTRA.DIHEDRAL>
0.367289

>  <SCORE.INTRA.DIHEDRAL.0>
46.2143

>  <SCORE.INTRA.POLAR>
-0.581845

>  <SCORE.INTRA.POLAR.0>
-1.76436

>  <SCORE.INTRA.REPUL>
0

>  <SCORE.INTRA.REPUL.0>
0

>  <SCORE.INTRA.SOLV>
1.46062

>  <SCORE.INTRA.SOLV.lig_0>
-148.643

>  <SCORE.INTRA.VDW>
-1.62359

>  <SCORE.INTRA.VDW.0>
-4.83512

>  <SCORE.INTRA.norm>
-0.0639979

>  <SCORE.RESTR>
0.553587

>  <SCORE.RESTR.CAVITY>
0.553587

>  <SCORE.RESTR.norm>
0.0131807

>  <SCORE.SYSTEM>
0

>  <SCORE.SYSTEM.CONST>
0

>  <SCORE.SYSTEM.DIHEDRAL>
0

>  <SCORE.SYSTEM.SOLV>
0

>  <SCORE.SYSTEM.norm>
0

>  <SCORE.heavy>
42

>  <SCORE.norm>
-0.966336

>  <RMSD>
1.452

$$$$
1j7t
 OpenBabel11021811393D
libRbt.so/2013.1/901 2013/11/27
 42 45  0  0  0  0  0  0  0  0999 V2000
   30.2353    8.8965   52.5563 C   0  0  2  0  0  0  0  0  0  0  0  0
   31.2580    7.9928   52.0666 O   0  0  0  0  0  0  0  0  0  0  0  0
   28.9803    8.6857   51.6615 C   0  0  2  0  0  0  0  0  0  0  0  0
   28.5251    7.2695   51.5583 N   0  3  0  0  0  0  0  0  0  0  0  0
   29.3178    9.1821   50.2386 C   0  0  1  0  0  0  0  0  0  0  0  0
   28.2154    9.0315   49.3892 O   0  0  0  0  0  0  0  0  0  0  0  0
   29.7715   10.6604   50.2861 C   0  0  2  0  0  0  0  0  0  0  0  0
   30.0651   11.1415   48.9894 O   0  0  0  0  0  0  0  0  0  0  0  0
   31.0040   10.7920   51.1554 C   0  0  2  0  0  0  0  0  0  0  0  0
   30.7251   10.2700   52.4483 O   0  0  0  0  0  0  0  0  0  0  0  0
   31.4427   12.2263   51.3484 C   0  0  0  0  0  0  0  0  0  0  0  0
   31.9141   12.7445   50.1194 O   0  0  0  0  0  0  0  0  0  0  0  0
   34.0913    5.6009   54.0914 C   0  0  2  0  0  0  0  0  0  0  0  0
   35.2305    5.2028   54.9191 N   0  3  0  0  0  0  0  0  0  0  0  0
   34.5886    6.4333   52.8634 C   0  0  0  0  0  0  0  0  0  0  0  0
   33.3882    6.8960   52.0158 C   0  0  2  0  0  0  0  0  0  0  0  0
   33.8326    7.7235   50.8894 N   0  3  0  0  0  0  0  0  0  0  0  0
   32.3982    7.6991   52.8822 C   0  0  2  0  0  0  0  0  0  0  0  0
   31.9124    6.9127   54.1154 C   0  0  2  0  0  0  0  0  0  0  0  0
   31.1317    7.8383   54.8959 O   0  0  0  0  0  0  0  0  0  0  0  0
   33.1215    6.4058   54.9419 C   0  0  1  0  0  0  0  0  0  0  0  0
   32.6569    5.6112   55.9982 O   0  0  0  0  0  0  0  0  0  0  0  0
   30.4065    7.4648   56.0646 C   0  0  1  0  0  0  0  0  0  0  0  0
   29.9408    8.7706   56.8022 C   0  0  2  0  0  0  0  0  0  0  0  0
   30.8908    9.2822   57.7213 O   0  0  0  0  0  0  0  0  0  0  0  0
   28.6701    8.2238   57.4375 C   0  0  2  0  0  0  0  0  0  0  0  0
   28.9798    7.2528   58.4820 O   0  0  0  0  0  0  0  0  0  0  0  0
   28.0189    7.4697   56.2865 C   0  0  2  0  0  0  0  0  0  0  0  0
   29.1591    6.8046   55.7161 O   0  0  0  0  0  0  0  0  0  0  0  0
   27.2652    8.3692   55.2528 C   0  0  0  0  0  0  0  0  0  0  0  0
   28.1727    9.1803   54.4962 O   0  0  0  0  0  0  0  0  0  0  0  0
   27.8477    6.8381   59.2422 C   0  0  2  0  0  0  0  0  0  0  0  0
   27.5561    7.7097   60.5109 C   0  0  2  0  0  0  0  0  0  0  0  0
   28.7088    7.7560   61.4609 N   0  3  0  0  0  0  0  0  0  0  0  0
   26.2763    7.1170   61.1895 C   0  0  1  0  0  0  0  0  0  0  0  0
   25.1607    7.2740   60.2312 O   0  0  0  0  0  0  0  0  0  0  0  0
   26.4310    5.5859   61.5404 C   0  0  2  0  0  0  0  0  0  0  0  0
   27.4778    5.4439   62.5145 O   0  0  0  0  0  0  0  0  0  0  0  0
   26.7636    4.8041   60.2024 C   0  0  1  0  0  0  0  0  0  0  0  0
   27.9774    5.3995   59.6318 O   0  0  0  0  0  0  0  0  0  0  0  0
   26.9635    3.2819   60.3813 C   0  0  0  0  0  0  0  0  0  0  0  0
   27.4337    2.5977   59.1463 N   0  3  0  0  0  0  0  0  0  0  0  0
  1  2  1  6  0  0  0
  1  3  1  0  0  0  0
  1 10  1  0  0  0  0
  3  4  1  6  0  0  0
  3  5  1  0  0  0  0
  5  6  1  6  0  0  0
  5  7  1  0  0  0  0
  7  8  1  6  0  0  0
  7  9  1  0  0  0  0
  9 10  1  0  0  0  0
  9 11  1  1  0  0  0
 11 12  1  0  0  0  0
 13 14  1  1  0  0  0
 13 15  1  0  0  0  0
 13 21  1  0  0  0  0
 15 16  1  0  0  0  0
 16 17  1  6  0  0  0
 16 18  1  0  0  0  0
 18  2  1  6  0  0  0
 18 19  1  0  0  0  0
 19 20  1  1  0  0  0
 19 21  1  0  0  0  0
 21 22  1  1  0  0  0
 23 20  1  6  0  0  0
 23 24  1  0  0  0  0
 23 29  1  0  0  0  0
 24 25  1  1  0  0  0
 24 26  1  0  0  0  0
 26 27  1  1  0  0  0
 26 28  1  0  0  0  0
 28 29  1  0  0  0  0
 28 30  1  6  0  0  0
 30 31  1  0  0  0  0
 32 27  1  1  0  0  0
 32 33  1  0  0  0  0
 32 40  1  0  0  0  0
 33 34  1  1  0  0  0
 33 35  1  0  0  0  0
 35 36  1  6  0  0  0
 35 37  1  0  0  0  0
 37 38  1  1  0  0  0
 37 39  1  0  0  0  0
 39 40  1  0  0  0  0
 39 41  1  1  0  0  0
 41 42  1  0  0  0  0
M  CHG  5   4   1  14   1  17   1  34   1  42   1
M  END
>  <CHROM.1>
-163.86102100,-171.61863918,48.52550579,-62.23278021,61.36216864,-67.90814242
173.78610243,-179.61096258,-67.04026964,174.39765614,168.15933319,-62.93006254
-76.09321432,171.84254653,-90.00437899,68.59819438,-82.34949127,-65.27429842
-177.52183136,67.08954767,-173.06259219,21.73272629,29.85735222,7.66155260
55.32139025,1.14680211,0.46658272,-1.00970924

>  <Name>
1j7t

>  <RI>
0

>  <Rbt.Current_Directory>
/home/itssahil/PROJECTS/Mol_Feturizer/New_Systems/rnas/1j7t

>  <Rbt.Executable>
rbdock ($Id: //depot/dev/client3/rdock/2013.1/src/exe/rbdock.cxx#4 $)

>  <Rbt.Library>
libRbt.so (2013.1, Build901 2013/11/27)

>  <Rbt.Parameter_File>
/export/apps/rDock/src/rDock_2013.1_src/data/scripts/dock_solv.prm

>  <Rbt.Receptor>
prm/pocket_docking_5.prm

>  <SCORE>
-68.2246

>  <SCORE.INTER>
-53.094

>  <SCORE.INTER.CONST>
1

>  <SCORE.INTER.POLAR>
-7.70871

>  <SCORE.INTER.ROT>
9

>  <SCORE.INTER.SOLV>
26.2965

>  <SCORE.INTER.VDW>
-28.0658

>  <SCORE.INTER.norm>
-1.26414

>  <SCORE.INTRA>
-15.1384

>  <SCORE.INTRA.DIHEDRAL>
-31.6774

>  <SCORE.INTRA.DIHEDRAL.0>
46.2143

>  <SCORE.INTRA.POLAR>
1.16129

>  <SCORE.INTRA.POLAR.0>
-1.76436

>  <SCORE.INTRA.REPUL>
0

>  <SCORE.INTRA.REPUL.0>
0

>  <SCORE.INTRA.SOLV>
-3.45471

>  <SCORE.INTRA.SOLV.lig_0>
-148.643

>  <SCORE.INTRA.VDW>
-1.52074

>  <SCORE.INTRA.VDW.0>
-4.83512

>  <SCORE.INTRA.norm>
-0.360438

>  <SCORE.RESTR>
0.00782219

>  <SCORE.RESTR.CAVITY>
0.00782219

>  <SCORE.RESTR.norm>
0.000186243

>  <SCORE.SYSTEM>
0

>  <SCORE.SYSTEM.CONST>
0

>  <SCORE.SYSTEM.DIHEDRAL>
0

>  <SCORE.SYSTEM.SOLV>
0

>  <SCORE.SYSTEM.norm>
0

>  <SCORE.heavy>
42

>  <SCORE.norm>
-1.6244

>  <RMSD>
1.498

$$$$
1j7t
 OpenBabel11021811393D
libRbt.so/2013.1/901 2013/11/27
 42 45  0  0  0  0  0  0  0  0999 V2000
   30.7568    9.6718   52.0356 C   0  0  2  0  0  0  0  0  0  0  0  0
   31.2361    8.3966   51.5392 O   0  0  0  0  0  0  0  0  0  0  0  0
   29.4968   10.0371   51.1994 C   0  0  2  0  0  0  0  0  0  0  0  0
   28.4480    8.9777   51.1662 N   0  3  0  0  0  0  0  0  0  0  0  0
   29.9474   10.3066   49.7471 C   0  0  1  0  0  0  0  0  0  0  0  0
   28.8529   10.6575   48.9481 O   0  0  0  0  0  0  0  0  0  0  0  0
   31.0199   11.4214   49.7226 C   0  0  2  0  0  0  0  0  0  0  0  0
   31.4311   11.6989   48.3986 O   0  0  0  0  0  0  0  0  0  0  0  0
   32.2229   10.9951   50.5370 C   0  0  2  0  0  0  0  0  0  0  0  0
   31.8062   10.6745   51.8582 O   0  0  0  0  0  0  0  0  0  0  0  0
   33.2697   12.0796   50.6600 C   0  0  0  0  0  0  0  0  0  0  0  0
   33.9886   12.1807   49.4458 O   0  0  0  0  0  0  0  0  0  0  0  0
   33.3626    4.9973   52.8701 C   0  0  2  0  0  0  0  0  0  0  0  0
   34.3002    4.1500   53.6079 N   0  3  0  0  0  0  0  0  0  0  0  0
   34.1482    6.0667   52.0409 C   0  0  0  0  0  0  0  0  0  0  0  0
   33.1631    6.9918   51.3010 C   0  0  2  0  0  0  0  0  0  0  0  0
   33.8816    8.0344   50.5609 N   0  3  0  0  0  0  0  0  0  0  0  0
   32.1922    7.6501   52.3009 C   0  0  2  0  0  0  0  0  0  0  0  0
   31.4241    6.6196   53.1514 C   0  0  2  0  0  0  0  0  0  0  0  0
   30.6885    7.3796   54.1296 O   0  0  0  0  0  0  0  0  0  0  0  0
   32.4140    5.6586   53.8573 C   0  0  1  0  0  0  0  0  0  0  0  0
   31.6906    4.6725   54.5410 O   0  0  0  0  0  0  0  0  0  0  0  0
   30.0886    6.8012   55.2858 C   0  0  1  0  0  0  0  0  0  0  0  0
   30.4102    7.7118   56.5241 C   0  0  2  0  0  0  0  0  0  0  0  0
   31.6325    7.3963   57.1685 O   0  0  0  0  0  0  0  0  0  0  0  0
   29.1626    7.4166   57.3448 C   0  0  2  0  0  0  0  0  0  0  0  0
   29.1688    6.0423   57.8358 O   0  0  0  0  0  0  0  0  0  0  0  0
   28.0490    7.5319   56.3133 C   0  0  2  0  0  0  0  0  0  0  0  0
   28.6382    6.8426   55.1973 O   0  0  0  0  0  0  0  0  0  0  0  0
   27.6250    8.9959   55.9629 C   0  0  0  0  0  0  0  0  0  0  0  0
   27.2600    9.7360   57.1347 O   0  0  0  0  0  0  0  0  0  0  0  0
   28.3062    5.8203   58.9485 C   0  0  2  0  0  0  0  0  0  0  0  0
   28.5267    4.4557   59.6857 C   0  0  2  0  0  0  0  0  0  0  0  0
   28.3644    3.2755   58.7834 N   0  3  0  0  0  0  0  0  0  0  0  0
   27.5138    4.4103   60.8781 C   0  0  1  0  0  0  0  0  0  0  0  0
   27.8682    5.5153   61.7952 O   0  0  0  0  0  0  0  0  0  0  0  0
   26.0185    4.6004   60.4098 C   0  0  2  0  0  0  0  0  0  0  0  0
   25.6602    3.4948   59.5649 O   0  0  0  0  0  0  0  0  0  0  0  0
   25.9135    5.9838   59.6434 C   0  0  1  0  0  0  0  0  0  0  0  0
   26.8743    5.9497   58.5348 O   0  0  0  0  0  0  0  0  0  0  0  0
   24.5035    6.3121   59.1020 C   0  0  0  0  0  0  0  0  0  0  0  0
   24.4114    7.6545   58.4664 N   0  3  0  0  0  0  0  0  0  0  0  0
  1  2  1  6  0  0  0
  1  3  1  0  0  0  0
  1 10  1  0  0  0  0
  3  4  1  6  0  0  0
  3  5  1  0  0  0  0
  5  6  1  6  0  0  0
  5  7  1  0  0  0  0
  7  8  1  6  0  0  0
  7  9  1  0  0  0  0
  9 10  1  0  0  0  0
  9 11  1  1  0  0  0
 11 12  1  0  0  0  0
 13 14  1  1  0  0  0
 13 15  1  0  0  0  0
 13 21  1  0  0  0  0
 15 16  1  0  0  0  0
 16 17  1  1  0  0  0
 16 18  1  0  0  0  0
 18  2  1  6  0  0  0
 18 19  1  0  0  0  0
 19 20  1  1  0  0  0
 19 21  1  0  0  0  0
 21 22  1  6  0  0  0
 23 20  1  6  0  0  0
 23 24  1  0  0  0  0
 23 29  1  0  0  0  0
 24 25  1  1  0  0  0
 24 26  1  0  0  0  0
 26 27  1  6  0  0  0
 26 28  1  0  0  0  0
 28 29  1  0  0  0  0
 28 30  1  6  0  0  0
 30 31  1  0  0  0  0
 32 27  1  6  0  0  0
 32 33  1  0  0  0  0
 32 40  1  0  0  0  0
 33 34  1  6  0  0  0
 33 35  1  0  0  0  0
 35 36  1  1  0  0  0
 35 37  1  0  0  0  0
 37 38  1  6  0  0  0
 37 39  1  0  0  0  0
 39 40  1  0  0  0  0
 39 41  1  6  0  0  0
 41 42  1  0  0  0  0
M  CHG  5   4   1  14   1  17   1  34   1  42   1
M  END
>  <CHROM.1>
-165.67446680,-142.57445887,80.69993990,67.90954544,-55.67602505,-76.08445824
-176.92775024,56.00818946,-60.44039204,-165.58148802,135.21667562,-59.90436849
46.32430935,159.95124325,-167.16566011,-54.95173676,65.80805913,169.33695358
-62.02792534,177.88201254,176.18927661,51.83092291,29.89121683,7.51142822
54.70658045,1.02304289,0.53603387,-0.80865554

>  <Name>
1j7t

>  <RI>
0

>  <Rbt.Current_Directory>
/home/itssahil/PROJECTS/Mol_Feturizer/New_Systems/rnas/1j7t

>  <Rbt.Executable>
rbdock ($Id: //depot/dev/client3/rdock/2013.1/src/exe/rbdock.cxx#4 $)

>  <Rbt.Library>
libRbt.so (2013.1, Build901 2013/11/27)

>  <Rbt.Parameter_File>
/export/apps/rDock/src/rDock_2013.1_src/data/scripts/dock_solv.prm

>  <Rbt.Receptor>
prm/pocket_docking_5.prm

>  <SCORE>
-57.2073

>  <SCORE.INTER>
-44.0936

>  <SCORE.INTER.CONST>
1

>  <SCORE.INTER.POLAR>
-6.69656

>  <SCORE.INTER.ROT>
9

>  <SCORE.INTER.SOLV>
25.0676

>  <SCORE.INTER.VDW>
-25.0297

>  <SCORE.INTER.norm>
-1.04985

>  <SCORE.INTRA>
-13.1138

>  <SCORE.INTRA.DIHEDRAL>
-26.2648

>  <SCORE.INTRA.DIHEDRAL.0>
46.2143

>  <SCORE.INTRA.POLAR>
0.936096

>  <SCORE.INTRA.POLAR.0>
-1.76436

>  <SCORE.INTRA.REPUL>
0.0156203

>  <SCORE.INTRA.REPUL.0>
0

>  <SCORE.INTRA.SOLV>
-3.10876

>  <SCORE.INTRA.SOLV.lig_0>
-148.643

>  <SCORE.INTRA.VDW>
-1.68781

>  <SCORE.INTRA.VDW.0>
-4.83512

>  <SCORE.INTRA.norm>
-0.312233

>  <SCORE.RESTR>
0

>  <SCORE.RESTR.CAVITY>
0

>  <SCORE.RESTR.norm>
0

>  <SCORE.SYSTEM>
0

>  <SCORE.SYSTEM.CONST>
0

>  <SCORE.SYSTEM.DIHEDRAL>
0

>  <SCORE.SYSTEM.SOLV>
0

>  <SCORE.SYSTEM.norm>
0

>  <SCORE.heavy>
42

>  <SCORE.norm>
-1.36208

>  <RMSD>
1.547

$$$$
1j7t
 OpenBabel11021811393D
libRbt.so/2013.1/901 2013/11/27
 42 45  0  0  0  0  0  0  0  0999 V2000
   30.6170    9.6632   52.1687 C   0  0  2  0  0  0  0  0  0  0  0  0
   31.2756    8.4461   51.7356 O   0  0  0  0  0  0  0  0  0  0  0  0
   29.3243    9.8054   51.3150 C   0  0  2  0  0  0  0  0  0  0  0  0
   28.4362    8.6077   51.3331 N   0  3  0  0  0  0  0  0  0  0  0  0
   29.7431   10.0654   49.8515 C   0  0  1  0  0  0  0  0  0  0  0  0
   28.6160   10.2186   49.0356 O   0  0  0  0  0  0  0  0  0  0  0  0
   30.6473   11.3183   49.7730 C   0  0  2  0  0  0  0  0  0  0  0  0
   31.0250   11.5869   48.4372 O   0  0  0  0  0  0  0  0  0  0  0  0
   31.8923   11.1067   50.6079 C   0  0  2  0  0  0  0  0  0  0  0  0
   31.5153   10.7946   51.9430 O   0  0  0  0  0  0  0  0  0  0  0  0
   32.7743   12.3332   50.6782 C   0  0  0  0  0  0  0  0  0  0  0  0
   34.1302   11.9459   50.5655 O   0  0  0  0  0  0  0  0  0  0  0  0
   33.2025    5.1873   53.6106 C   0  0  2  0  0  0  0  0  0  0  0  0
   34.0891    4.4167   54.4832 N   0  3  0  0  0  0  0  0  0  0  0  0
   34.0491    6.0658   52.6308 C   0  0  0  0  0  0  0  0  0  0  0  0
   33.1196    6.9155   51.7434 C   0  0  2  0  0  0  0  0  0  0  0  0
   33.8977    7.7853   50.8552 N   0  3  0  0  0  0  0  0  0  0  0  0
   32.1863    7.7776   52.6160 C   0  0  2  0  0  0  0  0  0  0  0  0
   31.3593    6.9399   53.6109 C   0  0  2  0  0  0  0  0  0  0  0  0
   30.6668    7.8856   54.4484 O   0  0  0  0  0  0  0  0  0  0  0  0
   32.2917    6.0491   54.4705 C   0  0  1  0  0  0  0  0  0  0  0  0
   31.5120    5.2263   55.2940 O   0  0  0  0  0  0  0  0  0  0  0  0
   30.0596    7.5388   55.6903 C   0  0  1  0  0  0  0  0  0  0  0  0
   29.3517    8.8134   56.2736 C   0  0  2  0  0  0  0  0  0  0  0  0
   30.1961    9.6268   57.0701 O   0  0  0  0  0  0  0  0  0  0  0  0
   28.2347    8.1155   57.0368 C   0  0  2  0  0  0  0  0  0  0  0  0
   28.7601    7.3797   58.1823 O   0  0  0  0  0  0  0  0  0  0  0  0
   27.7274    7.0950   56.0276 C   0  0  2  0  0  0  0  0  0  0  0  0
   28.9672    6.6002   55.4929 O   0  0  0  0  0  0  0  0  0  0  0  0
   26.7825    7.6739   54.9240 C   0  0  0  0  0  0  0  0  0  0  0  0
   27.4699    8.5963   54.0692 O   0  0  0  0  0  0  0  0  0  0  0  0
   27.9237    7.4280   59.3355 C   0  0  2  0  0  0  0  0  0  0  0  0
   28.5978    6.9189   60.6549 C   0  0  2  0  0  0  0  0  0  0  0  0
   29.0912    5.5122   60.5495 N   0  3  0  0  0  0  0  0  0  0  0  0
   27.5400    7.0722   61.7983 C   0  0  1  0  0  0  0  0  0  0  0  0
   27.2481    8.5158   61.9332 O   0  0  0  0  0  0  0  0  0  0  0  0
   26.1940    6.3103   61.4839 C   0  0  2  0  0  0  0  0  0  0  0  0
   26.4722    4.9025   61.4101 O   0  0  0  0  0  0  0  0  0  0  0  0
   25.6191    6.8680   60.1162 C   0  0  1  0  0  0  0  0  0  0  0  0
   26.6522    6.6782   59.0916 O   0  0  0  0  0  0  0  0  0  0  0  0
   24.3005    6.2054   59.6566 C   0  0  0  0  0  0  0  0  0  0  0  0
   24.0124    4.9191   60.3472 N   0  3  0  0  0  0  0  0  0  0  0  0
  1  2  1  6  0  0  0
  1  3  1  0  0  0  0
  1 10  1  0  0  0  0
  3  4  1  6  0  0  0
  3  5  1  0  0  0  0
  5  6  1  6  0  0  0
  5  7  1  0  0  0  0
  7  8  1  6  0  0  0
  7  9  1  0  0  0  0
  9 10  1  0  0  0  0
  9 11  1  1  0  0  0
 11 12  1  0  0  0  0
 13 14  1  1  0  0  0
 13 15  1  0  0  0  0
 13 21  1  0  0  0  0
 15 16  1  0  0  0  0
 16 17  1  6  0  0  0
 16 18  1  0  0  0  0
 18  2  1  6  0  0  0
 18 19  1  0  0  0  0
 19 20  1  1  0  0  0
 19 21  1  0  0  0  0
 21 22  1  6  0  0  0
 23 20  1  6  0  0  0
 23 24  1  0  0  0  0
 23 29  1  0  0  0  0
 24 25  1  1  0  0  0
 24 26  1  0  0  0  0
 26 27  1  1  0  0  0
 26 28  1  0  0  0  0
 28 29  1  0  0  0  0
 28 30  1  6  0  0  0
 30 31  1  0  0  0  0
 32 27  1  6  0  0  0
 32 33  1  0  0  0  0
 32 40  1  0  0  0  0
 33 34  1  6  0  0  0
 33 35  1  0  0  0  0
 35 36  1  6  0  0  0
 35 37  1  0  0  0  0
 37 38  1  6  0  0  0
 37 39  1  0  0  0  0
 39 40  1  0  0  0  0
 39 41  1  6  0  0  0
 41 42  1  0  0  0  0
M  CHG  5   4   1  14   1  17   1  34   1  42   1
M  END
>  <CHROM.1>
-156.94547885,-157.53474863,-179.23402157,70.66588836,-57.18748701,-138.73132932
-48.76558055,51.79666651,-179.61876722,-164.08328032,-177.43865797,-48.42687299
47.91875944,142.28035218,-167.36351855,65.36294882,-164.94984928,176.41366286
62.49430951,68.96854308,-16.69482541,-157.98760281,29.70188228,7.91506967
55.05165878,1.04538498,0.47378961,-0.97960240

>  <Name>
1j7t

>  <RI>
0

>  <Rbt.Current_Directory>
/home/itssahil/PROJECTS/Mol_Feturizer/New_Systems/rnas/1j7t

>  <Rbt.Executable>
rbdock ($Id: //depot/dev/client3/rdock/2013.1/src/exe/rbdock.cxx#4 $)

>  <Rbt.Library>
libRbt.so (2013.1, Build901 2013/11/27)

>  <Rbt.Parameter_File>
/export/apps/rDock/src/rDock_2013.1_src/data/scripts/dock_solv.prm

>  <Rbt.Receptor>
prm/pocket_docking_4.prm

>  <SCORE>
-52.4743

>  <SCORE.INTER>
-39.9711

>  <SCORE.INTER.CONST>
1

>  <SCORE.INTER.POLAR>
-5.89468

>  <SCORE.INTER.ROT>
9

>  <SCORE.INTER.SOLV>
21.436

>  <SCORE.INTER.VDW>
-23.7438

>  <SCORE.INTER.norm>
-0.951694

>  <SCORE.INTRA>
-12.5219

>  <SCORE.INTRA.DIHEDRAL>
-20.4785

>  <SCORE.INTRA.DIHEDRAL.0>
46.2143

>  <SCORE.INTRA.POLAR>
-0.589289

>  <SCORE.INTRA.POLAR.0>
-1.76436

>  <SCORE.INTRA.REPUL>
0

>  <SCORE.INTRA.REPUL.0>
0

>  <SCORE.INTRA.SOLV>
1.02883

>  <SCORE.INTRA.SOLV.lig_0>
-148.643

>  <SCORE.INTRA.VDW>
-0.793532

>  <SCORE.INTRA.VDW.0>
-4.83512

>  <SCORE.INTRA.norm>
-0.298141

>  <SCORE.RESTR>
0.0187693

>  <SCORE.RESTR.CAVITY>
0.0187693

>  <SCORE.RESTR.norm>
0.000446888

>  <SCORE.SYSTEM>
0

>  <SCORE.SYSTEM.CONST>
0

>  <SCORE.SYSTEM.DIHEDRAL>
0

>  <SCORE.SYSTEM.SOLV>
0

>  <SCORE.SYSTEM.norm>
0

>  <SCORE.heavy>
42

>  <SCORE.norm>
-1.24939

>  <RMSD>
1.548

$$$$
1j7t
 OpenBabel11021811393D
libRbt.so/2013.1/901 2013/11/27
 42 45  0  0  0  0  0  0  0  0999 V2000
   29.6475    8.8725   52.5392 C   0  0  2  0  0  0  0  0  0  0  0  0
   30.6382    7.8711   52.1954 O   0  0  0  0  0  0  0  0  0  0  0  0
   28.5361    8.7998   51.4530 C   0  0  2  0  0  0  0  0  0  0  0  0
   27.9620    7.4393   51.2457 N   0  3  0  0  0  0  0  0  0  0  0  0
   29.1443    9.2689   50.1133 C   0  0  1  0  0  0  0  0  0  0  0  0
   28.1817    9.2399   49.0975 O   0  0  0  0  0  0  0  0  0  0  0  0
   29.7321   10.6918   50.2669 C   0  0  2  0  0  0  0  0  0  0  0  0
   30.2756   11.1494   49.0445 O   0  0  0  0  0  0  0  0  0  0  0  0
   30.8175   10.6883   51.3224 C   0  0  2  0  0  0  0  0  0  0  0  0
   30.2848   10.1885   52.5425 O   0  0  0  0  0  0  0  0  0  0  0  0
   31.3629   12.0678   51.6162 C   0  0  0  0  0  0  0  0  0  0  0  0
   32.0862   12.5374   50.4948 O   0  0  0  0  0  0  0  0  0  0  0  0
   33.7546    5.7037   54.0497 C   0  0  2  0  0  0  0  0  0  0  0  0
   34.8862    5.3695   54.9153 N   0  3  0  0  0  0  0  0  0  0  0  0
   34.1546    6.8553   53.0688 C   0  0  0  0  0  0  0  0  0  0  0  0
   32.9510    7.2437   52.1888 C   0  0  2  0  0  0  0  0  0  0  0  0
   33.2927    8.3589   51.2998 N   0  3  0  0  0  0  0  0  0  0  0  0
   31.7494    7.6398   53.0690 C   0  0  2  0  0  0  0  0  0  0  0  0
   31.3504    6.5334   54.0651 C   0  0  2  0  0  0  0  0  0  0  0  0
   30.3328    7.1055   54.9093 O   0  0  0  0  0  0  0  0  0  0  0  0
   32.5734    6.1089   54.9171 C   0  0  1  0  0  0  0  0  0  0  0  0
   32.2104    5.0358   55.7416 O   0  0  0  0  0  0  0  0  0  0  0  0
   29.3802    6.3279   55.6297 C   0  0  1  0  0  0  0  0  0  0  0  0
   28.7540    7.2238   56.7572 C   0  0  2  0  0  0  0  0  0  0  0  0
   29.4814    7.2099   57.9736 O   0  0  0  0  0  0  0  0  0  0  0  0
   27.3835    6.5648   56.8267 C   0  0  2  0  0  0  0  0  0  0  0  0
   27.4751    5.2173   57.3793 O   0  0  0  0  0  0  0  0  0  0  0  0
   27.0001    6.4355   55.3593 C   0  0  2  0  0  0  0  0  0  0  0  0
   28.2427    5.9878   54.7908 O   0  0  0  0  0  0  0  0  0  0  0  0
   26.4731    7.7512   54.6979 C   0  0  0  0  0  0  0  0  0  0  0  0
   26.1098    7.5456   53.3269 O   0  0  0  0  0  0  0  0  0  0  0  0
   27.0126    5.1091   58.7232 C   0  0  2  0  0  0  0  0  0  0  0  0
   27.6638    3.9473   59.5481 C   0  0  2  0  0  0  0  0  0  0  0  0
   27.4601    2.6057   58.9220 N   0  3  0  0  0  0  0  0  0  0  0  0
   27.0514    4.0082   60.9872 C   0  0  1  0  0  0  0  0  0  0  0  0
   27.4536    5.3026   61.5791 O   0  0  0  0  0  0  0  0  0  0  0  0
   25.4753    3.9230   60.9786 C   0  0  2  0  0  0  0  0  0  0  0  0
   25.0899    2.6412   60.4558 O   0  0  0  0  0  0  0  0  0  0  0  0
   24.9217    5.1114   60.0880 C   0  0  1  0  0  0  0  0  0  0  0  0
   25.5222    4.9828   58.7553 O   0  0  0  0  0  0  0  0  0  0  0  0
   23.3817    5.1571   59.9642 C   0  0  0  0  0  0  0  0  0  0  0  0
   22.8068    6.5045   60.2260 N   0  3  0  0  0  0  0  0  0  0  0  0
  1  2  1  6  0  0  0
  1  3  1  0  0  0  0
  1 10  1  0  0  0  0
  3  4  1  6  0  0  0
  3  5  1  0  0  0  0
  5  6  1  6  0  0  0
  5  7  1  0  0  0  0
  7  8  1  6  0  0  0
  7  9  1  0  0  0  0
  9 10  1  0  0  0  0
  9 11  1  1  0  0  0
 11 12  1  0  0  0  0
 13 14  1  1  0  0  0
 13 15  1  0  0  0  0
 13 21  1  0  0  0  0
 15 16  1  0  0  0  0
 16 17  1  6  0  0  0
 16 18  1  0  0  0  0
 18  2  1  6  0  0  0
 18 19  1  0  0  0  0
 19 20  1  1  0  0  0
 19 21  1  0  0  0  0
 21 22  1  6  0  0  0
 23 20  1  6  0  0  0
 23 24  1  0  0  0  0
 23 29  1  0  0  0  0
 24 25  1  1  0  0  0
 24 26  1  0  0  0  0
 26 27  1  6  0  0  0
 26 28  1  0  0  0  0
 28 29  1  0  0  0  0
 28 30  1  6  0  0  0
 30 31  1  0  0  0  0
 32 27  1  6  0  0  0
 32 33  1  0  0  0  0
 32 40  1  0  0  0  0
 33 34  1  6  0  0  0
 33 35  1  0  0  0  0
 35 36  1  6  0  0  0
 35 37  1  0  0  0  0
 37 38  1  6  0  0  0
 37 39  1  0  0  0  0
 39 40  1  0  0  0  0
 39 41  1  6  0  0  0
 41 42  1  0  0  0  0
M  CHG  5   4   1  14   1  17   1  34   1  42   1
M  END
>  <CHROM.1>
-175.90131118,-147.35054693,-169.83277652,-68.44871609,70.51355800,-68.53421478
52.07009206,168.21070562,128.04804176,157.18813659,162.33339116,167.16669349
62.08331531,105.06031095,-153.12226271,-178.92049817,75.17783609,-77.60290728
-76.84228933,66.66793738,131.21205593,-20.50597524,29.03566487,7.00640825
55.06188902,1.07140404,0.20640423,-0.94764937

>  <Name>
1j7t

>  <RI>
0

>  <Rbt.Current_Directory>
/home/itssahil/PROJECTS/Mol_Feturizer/New_Systems/rnas/1j7t

>  <Rbt.Executable>
rbdock ($Id: //depot/dev/client3/rdock/2013.1/src/exe/rbdock.cxx#4 $)

>  <Rbt.Library>
libRbt.so (2013.1, Build901 2013/11/27)

>  <Rbt.Parameter_File>
/export/apps/rDock/src/rDock_2013.1_src/data/scripts/dock_solv.prm

>  <Rbt.Receptor>
prm/pocket_docking_4.prm

>  <SCORE>
-59.6347

>  <SCORE.INTER>
-49.9436

>  <SCORE.INTER.CONST>
1

>  <SCORE.INTER.POLAR>
-7.656

>  <SCORE.INTER.ROT>
9

>  <SCORE.INTER.SOLV>
28.5319

>  <SCORE.INTER.VDW>
-26.8863

>  <SCORE.INTER.norm>
-1.18913

>  <SCORE.INTRA>
-9.9235

>  <SCORE.INTRA.DIHEDRAL>
-11.8217

>  <SCORE.INTRA.DIHEDRAL.0>
46.2143

>  <SCORE.INTRA.POLAR>
-0.673021

>  <SCORE.INTRA.POLAR.0>
-1.76436

>  <SCORE.INTRA.REPUL>
0

>  <SCORE.INTRA.REPUL.0>
0

>  <SCORE.INTRA.SOLV>
-1.89142

>  <SCORE.INTRA.SOLV.lig_0>
-148.643

>  <SCORE.INTRA.VDW>
-0.778677

>  <SCORE.INTRA.VDW.0>
-4.83512

>  <SCORE.INTRA.norm>
-0.236274

>  <SCORE.RESTR>
0.232351

>  <SCORE.RESTR.CAVITY>
0.232351

>  <SCORE.RESTR.norm>
0.00553217

>  <SCORE.SYSTEM>
0

>  <SCORE.SYSTEM.CONST>
0

>  <SCORE.SYSTEM.DIHEDRAL>
0

>  <SCORE.SYSTEM.SOLV>
0

>  <SCORE.SYSTEM.norm>
0

>  <SCORE.heavy>
42

>  <SCORE.norm>
-1.41987

>  <RMSD>
1.570

$$$$
1j7t
 OpenBabel11021811393D
libRbt.so/2013.1/901 2013/11/27
 42 45  0  0  0  0  0  0  0  0999 V2000
   30.2968    8.8724   53.2034 C   0  0  2  0  0  0  0  0  0  0  0  0
   31.1252    7.7608   52.7785 O   0  0  0  0  0  0  0  0  0  0  0  0
   28.8310    8.5135   52.8257 C   0  0  2  0  0  0  0  0  0  0  0  0
   28.3658    7.1927   53.3385 N   0  3  0  0  0  0  0  0  0  0  0  0
   28.7254    8.4900   51.2852 C   0  0  1  0  0  0  0  0  0  0  0  0
   27.4188    8.1869   50.8848 O   0  0  0  0  0  0  0  0  0  0  0  0
   29.1724    9.8515   50.7020 C   0  0  2  0  0  0  0  0  0  0  0  0
   29.0629    9.8586   49.2923 O   0  0  0  0  0  0  0  0  0  0  0  0
   30.6091   10.1299   51.0897 C   0  0  2  0  0  0  0  0  0  0  0  0
   30.7315   10.0817   52.5056 O   0  0  0  0  0  0  0  0  0  0  0  0
   31.0854   11.4982   50.6563 C   0  0  0  0  0  0  0  0  0  0  0  0
   30.9769   11.6115   49.2503 O   0  0  0  0  0  0  0  0  0  0  0  0
   34.1752    5.3946   54.4950 C   0  0  2  0  0  0  0  0  0  0  0  0
   35.3975    5.0067   55.1999 N   0  3  0  0  0  0  0  0  0  0  0  0
   34.5351    6.2332   53.2240 C   0  0  0  0  0  0  0  0  0  0  0  0
   33.2492    6.6850   52.5058 C   0  0  2  0  0  0  0  0  0  0  0  0
   33.5670    7.5180   51.3412 N   0  3  0  0  0  0  0  0  0  0  0  0
   32.3463    7.4774   53.4714 C   0  0  2  0  0  0  0  0  0  0  0  0
   31.9980    6.6849   54.7465 C   0  0  2  0  0  0  0  0  0  0  0  0
   31.2931    7.6020   55.6053 O   0  0  0  0  0  0  0  0  0  0  0  0
   33.2907    6.1891   55.4427 C   0  0  1  0  0  0  0  0  0  0  0  0
   32.9453    5.3887   56.5396 O   0  0  0  0  0  0  0  0  0  0  0  0
   30.4466    7.1859   56.6737 C   0  0  1  0  0  0  0  0  0  0  0  0
   30.2380    8.3999   57.6478 C   0  0  2  0  0  0  0  0  0  0  0  0
   31.2288    8.5057   58.6558 O   0  0  0  0  0  0  0  0  0  0  0  0
   28.8488    8.0392   58.1553 C   0  0  2  0  0  0  0  0  0  0  0  0
   28.8884    6.8451   58.9933 O   0  0  0  0  0  0  0  0  0  0  0  0
   28.1085    7.6788   56.8749 C   0  0  2  0  0  0  0  0  0  0  0  0
   29.1050    6.8966   56.1944 O   0  0  0  0  0  0  0  0  0  0  0  0
   27.6201    8.9010   56.0303 C   0  0  0  0  0  0  0  0  0  0  0  0
   28.6828    9.8290   55.7785 O   0  0  0  0  0  0  0  0  0  0  0  0
   27.6425    6.5270   59.6083 C   0  0  2  0  0  0  0  0  0  0  0  0
   27.2387    7.4678   60.7941 C   0  0  2  0  0  0  0  0  0  0  0  0
   28.2561    7.4918   61.8885 N   0  3  0  0  0  0  0  0  0  0  0  0
   25.8468    6.9767   61.3149 C   0  0  1  0  0  0  0  0  0  0  0  0
   24.8795    7.1531   60.2100 O   0  0  0  0  0  0  0  0  0  0  0  0
   25.8608    5.4561   61.7380 C   0  0  2  0  0  0  0  0  0  0  0  0
   26.7588    5.2992   62.8487 O   0  0  0  0  0  0  0  0  0  0  0  0
   26.3197    4.5997   60.4859 C   0  0  1  0  0  0  0  0  0  0  0  0
   27.6322    5.1017   60.0631 O   0  0  0  0  0  0  0  0  0  0  0  0
   26.4018    3.0780   60.7444 C   0  0  0  0  0  0  0  0  0  0  0  0
   25.0711    2.4343   60.9160 N   0  3  0  0  0  0  0  0  0  0  0  0
  1  2  1  6  0  0  0
  1  3  1  0  0  0  0
  1 10  1  0  0  0  0
  3  4  1  6  0  0  0
  3  5  1  0  0  0  0
  5  6  1  1  0  0  0
  5  7  1  0  0  0  0
  7  8  1  6  0  0  0
  7  9  1  0  0  0  0
  9 10  1  0  0  0  0
  9 11  1  1  0  0  0
 11 12  1  0  0  0  0
 13 14  1  1  0  0  0
 13 15  1  0  0  0  0
 13 21  1  0  0  0  0
 15 16  1  0  0  0  0
 16 17  1  6  0  0  0
 16 18  1  0  0  0  0
 18  2  1  6  0  0  0
 18 19  1  0  0  0  0
 19 20  1  1  0  0  0
 19 21  1  0  0  0  0
 21 22  1  1  0  0  0
 23 20  1  6  0  0  0
 23 24  1  0  0  0  0
 23 29  1  0  0  0  0
 24 25  1  1  0  0  0
 24 26  1  0  0  0  0
 26 27  1  1  0  0  0
 26 28  1  0  0  0  0
 28 29  1  0  0  0  0
 28 30  1  6  0  0  0
 30 31  1  0  0  0  0
 32 27  1  1  0  0  0
 32 33  1  0  0  0  0
 32 40  1  0  0  0  0
 33 34  1  1  0  0  0
 33 35  1  0  0  0  0
 35 36  1  6  0  0  0
 35 37  1  0  0  0  0
 37 38  1  1  0  0  0
 37 39  1  0  0  0  0
 39 40  1  0  0  0  0
 39 41  1  1  0  0  0
 41 42  1  0  0  0  0
M  CHG  5   4   1  14   1  17   1  34   1  42   1
M  END
>  <CHROM.1>
-151.65225541,-157.32348131,174.07080190,-160.45361254,55.60389658,-59.27531488
-54.04069964,62.92884139,52.59613170,159.76459879,161.84087656,76.15126538
-166.66566821,174.17714993,-73.65148751,51.76225579,179.77665054,-57.47494899
-168.31756324,-173.82379697,70.30237891,-52.51683147,29.61517688,7.37644179
55.85852334,1.12139447,0.33364554,-1.08229006

>  <Name>
1j7t

>  <RI>
0

>  <Rbt.Current_Directory>
/home/itssahil/PROJECTS/Mol_Feturizer/New_Systems/rnas/1j7t

>  <Rbt.Executable>
rbdock ($Id: //depot/dev/client3/rdock/2013.1/src/exe/rbdock.cxx#4 $)

>  <Rbt.Library>
libRbt.so (2013.1, Build901 2013/11/27)

>  <Rbt.Parameter_File>
/export/apps/rDock/src/rDock_2013.1_src/data/scripts/dock_solv.prm

>  <Rbt.Receptor>
prm/pocket_docking_3.prm

>  <SCORE>
-65.2861

>  <SCORE.INTER>
-48.6888

>  <SCORE.INTER.CONST>
1

>  <SCORE.INTER.POLAR>
-7.20809

>  <SCORE.INTER.ROT>
9

>  <SCORE.INTER.SOLV>
20.5105

>  <SCORE.INTER.VDW>
-24.8691

>  <SCORE.INTER.norm>
-1.15926

>  <SCORE.INTRA>
-16.7534

>  <SCORE.INTRA.DIHEDRAL>
-29.7433

>  <SCORE.INTRA.DIHEDRAL.0>
46.2143

>  <SCORE.INTRA.POLAR>
0.100859

>  <SCORE.INTRA.POLAR.0>
-1.76436

>  <SCORE.INTRA.REPUL>
0.0437815

>  <SCORE.INTRA.REPUL.0>
0

>  <SCORE.INTRA.SOLV>
0.275686

>  <SCORE.INTRA.SOLV.lig_0>
-148.643

>  <SCORE.INTRA.VDW>
-2.58142

>  <SCORE.INTRA.VDW.0>
-4.83512

>  <SCORE.INTRA.norm>
-0.398891

>  <SCORE.RESTR>
0.156114

>  <SCORE.RESTR.CAVITY>
0.156114

>  <SCORE.RESTR.norm>
0.00371701

>  <SCORE.SYSTEM>
0

>  <SCORE.SYSTEM.CONST>
0

>  <SCORE.SYSTEM.DIHEDRAL>
0

>  <SCORE.SYSTEM.SOLV>
0

>  <SCORE.SYSTEM.norm>
0

>  <SCORE.heavy>
42

>  <SCORE.norm>
-1.55443

>  <RMSD>
1.627

$$$$
1j7t
 OpenBabel11021811393D
libRbt.so/2013.1/901 2013/11/27
 42 45  0  0  0  0  0  0  0  0999 V2000
   30.4650    8.9347   52.5452 C   0  0  2  0  0  0  0  0  0  0  0  0
   31.4482    8.0458   51.9574 O   0  0  0  0  0  0  0  0  0  0  0  0
   29.1456    8.7418   51.7438 C   0  0  2  0  0  0  0  0  0  0  0  0
   28.6852    7.3272   51.6416 N   0  3  0  0  0  0  0  0  0  0  0  0
   29.3731    9.2731   50.3117 C   0  0  1  0  0  0  0  0  0  0  0  0
   28.2093    9.1397   49.5454 O   0  0  0  0  0  0  0  0  0  0  0  0
   29.8276   10.7511   50.3601 C   0  0  2  0  0  0  0  0  0  0  0  0
   30.0210   11.2640   49.0568 O   0  0  0  0  0  0  0  0  0  0  0  0
   31.1228   10.8653   51.1358 C   0  0  2  0  0  0  0  0  0  0  0  0
   30.9437   10.3118   52.4333 O   0  0  0  0  0  0  0  0  0  0  0  0
   31.5735   12.2959   51.3293 C   0  0  0  0  0  0  0  0  0  0  0  0
   32.7272   12.5365   50.5469 O   0  0  0  0  0  0  0  0  0  0  0  0
   34.5845    5.6772   53.5073 C   0  0  2  0  0  0  0  0  0  0  0  0
   35.8022    5.2806   54.2152 N   0  3  0  0  0  0  0  0  0  0  0  0
   34.9351    6.6924   52.3693 C   0  0  0  0  0  0  0  0  0  0  0  0
   33.6501    7.1501   51.6531 C   0  0  2  0  0  0  0  0  0  0  0  0
   33.9549    8.1434   50.6181 N   0  3  0  0  0  0  0  0  0  0  0  0
   32.6580    7.7540   52.6664 C   0  0  2  0  0  0  0  0  0  0  0  0
   32.3156    6.7847   53.8147 C   0  0  2  0  0  0  0  0  0  0  0  0
   31.5165    7.5382   54.7470 O   0  0  0  0  0  0  0  0  0  0  0  0
   33.6113    6.2867   54.5039 C   0  0  1  0  0  0  0  0  0  0  0  0
   33.2793    5.3326   55.4747 O   0  0  0  0  0  0  0  0  0  0  0  0
   30.2905    7.0620   55.2959 C   0  0  1  0  0  0  0  0  0  0  0  0
   30.4589    6.9258   56.8513 C   0  0  2  0  0  0  0  0  0  0  0  0
   30.9734    5.6721   57.2667 O   0  0  0  0  0  0  0  0  0  0  0  0
   29.0140    7.1863   57.2532 C   0  0  2  0  0  0  0  0  0  0  0  0
   28.1464    6.0885   56.8385 O   0  0  0  0  0  0  0  0  0  0  0  0
   28.6484    8.4036   56.4155 C   0  0  2  0  0  0  0  0  0  0  0  0
   29.2348    8.0508   55.1508 O   0  0  0  0  0  0  0  0  0  0  0  0
   29.1799    9.7668   56.9679 C   0  0  0  0  0  0  0  0  0  0  0  0
   28.3272   10.8571   56.5963 O   0  0  0  0  0  0  0  0  0  0  0  0
   26.7701    6.2874   57.1514 C   0  0  2  0  0  0  0  0  0  0  0  0
   26.4527    6.3718   58.6832 C   0  0  2  0  0  0  0  0  0  0  0  0
   26.8849    5.1538   59.4337 N   0  3  0  0  0  0  0  0  0  0  0  0
   24.9123    6.6133   58.8191 C   0  0  1  0  0  0  0  0  0  0  0  0
   24.6179    7.9211   58.1941 O   0  0  0  0  0  0  0  0  0  0  0  0
   24.0587    5.5014   58.0936 C   0  0  2  0  0  0  0  0  0  0  0  0
   24.3042    4.2421   58.7406 O   0  0  0  0  0  0  0  0  0  0  0  0
   24.4841    5.4705   56.5671 C   0  0  1  0  0  0  0  0  0  0  0  0
   25.9300    5.2253   56.5153 O   0  0  0  0  0  0  0  0  0  0  0  0
   23.7449    4.4130   55.7162 C   0  0  0  0  0  0  0  0  0  0  0  0
   24.1148    4.4489   54.2752 N   0  3  0  0  0  0  0  0  0  0  0  0
  1  2  1  6  0  0  0
  1  3  1  0  0  0  0
  1 10  1  0  0  0  0
  3  4  1  6  0  0  0
  3  5  1  0  0  0  0
  5  6  1  6  0  0  0
  5  7  1  0  0  0  0
  7  8  1  6  0  0  0
  7  9  1  0  0  0  0
  9 10  1  0  0  0  0
  9 11  1  1  0  0  0
 11 12  1  0  0  0  0
 13 14  1  1  0  0  0
 13 15  1  0  0  0  0
 13 21  1  0  0  0  0
 15 16  1  0  0  0  0
 16 17  1  6  0  0  0
 16 18  1  0  0  0  0
 18  2  1  6  0  0  0
 18 19  1  0  0  0  0
 19 20  1  1  0  0  0
 19 21  1  0  0  0  0
 21 22  1  1  0  0  0
 23 20  1  6  0  0  0
 23 24  1  0  0  0  0
 23 29  1  0  0  0  0
 24 25  1  6  0  0  0
 24 26  1  0  0  0  0
 26 27  1  6  0  0  0
 26 28  1  0  0  0  0
 28 29  1  0  0  0  0
 28 30  1  1  0  0  0
 30 31  1  0  0  0  0
 32 27  1  1  0  0  0
 32 33  1  0  0  0  0
 32 40  1  0  0  0  0
 33 34  1  1  0  0  0
 33 35  1  0  0  0  0
 35 36  1  6  0  0  0
 35 37  1  0  0  0  0
 37 38  1  1  0  0  0
 37 39  1  0  0  0  0
 39 40  1  0  0  0  0
 39 41  1  6  0  0  0
 41 42  1  0  0  0  0
M  CHG  5   4   1  14   1  17   1  34   1  42   1
M  END
>  <CHROM.1>
-164.92580655,-163.70726618,-165.60875784,-179.51282644,176.67874295,-109.99487542
63.85485357,-54.05776711,177.32487325,131.93778968,117.13006564,-179.27747362
-176.61379171,-178.30343319,-63.69074391,-151.17028240,-66.32203856,-74.28071714
167.85561306,175.94340821,177.22332162,-174.34379902,29.52132297,7.56306793
54.43576609,0.78320825,0.18105677,-0.89798740

>  <Name>
1j7t

>  <RI>
0

>  <Rbt.Current_Directory>
/home/itssahil/PROJECTS/Mol_Feturizer/New_Systems/rnas/1j7t

>  <Rbt.Executable>
rbdock ($Id: //depot/dev/client3/rdock/2013.1/src/exe/rbdock.cxx#4 $)

>  <Rbt.Library>
libRbt.so (2013.1, Build901 2013/11/27)

>  <Rbt.Parameter_File>
/export/apps/rDock/src/rDock_2013.1_src/data/scripts/dock_solv.prm

>  <Rbt.Receptor>
prm/pocket_docking_4.prm

>  <SCORE>
-61.4506

>  <SCORE.INTER>
-46.6926

>  <SCORE.INTER.CONST>
1

>  <SCORE.INTER.POLAR>
-6.65328

>  <SCORE.INTER.ROT>
9

>  <SCORE.INTER.SOLV>
22.946

>  <SCORE.INTER.VDW>
-26.1995

>  <SCORE.INTER.norm>
-1.11173

>  <SCORE.INTRA>
-14.758

>  <SCORE.INTRA.DIHEDRAL>
-20.0123

>  <SCORE.INTRA.DIHEDRAL.0>
46.2143

>  <SCORE.INTRA.POLAR>
-0.110847

>  <SCORE.INTRA.POLAR.0>
-1.76436

>  <SCORE.INTRA.REPUL>
0

>  <SCORE.INTRA.REPUL.0>
0

>  <SCORE.INTRA.SOLV>
-6.03857

>  <SCORE.INTRA.SOLV.lig_0>
-148.643

>  <SCORE.INTRA.VDW>
-1.35569

>  <SCORE.INTRA.VDW.0>
-4.83512

>  <SCORE.INTRA.norm>
-0.351381

>  <SCORE.RESTR>
0

>  <SCORE.RESTR.CAVITY>
0

>  <SCORE.RESTR.norm>
0

>  <SCORE.SYSTEM>
0

>  <SCORE.SYSTEM.CONST>
0

>  <SCORE.SYSTEM.DIHEDRAL>
0

>  <SCORE.SYSTEM.SOLV>
0

>  <SCORE.SYSTEM.norm>
0

>  <SCORE.heavy>
42

>  <SCORE.norm>
-1.46311

>  <RMSD>
1.650

$$$$
1j7t
 OpenBabel11021811393D
libRbt.so/2013.1/901 2013/11/27
 42 45  0  0  0  0  0  0  0  0999 V2000
   30.6798    9.1638   52.8187 C   0  0  2  0  0  0  0  0  0  0  0  0
   31.4283    8.0104   52.3585 O   0  0  0  0  0  0  0  0  0  0  0  0
   29.2054    8.9541   52.3690 C   0  0  2  0  0  0  0  0  0  0  0  0
   28.6107    7.6518   52.7862 N   0  3  0  0  0  0  0  0  0  0  0  0
   29.1602    9.0258   50.8270 C   0  0  1  0  0  0  0  0  0  0  0  0
   27.8499    8.8593   50.3636 O   0  0  0  0  0  0  0  0  0  0  0  0
   29.7431   10.3741   50.3414 C   0  0  2  0  0  0  0  0  0  0  0  0
   29.6913   10.4693   48.9316 O   0  0  0  0  0  0  0  0  0  0  0  0
   31.1814   10.5056   50.7953 C   0  0  2  0  0  0  0  0  0  0  0  0
   31.2422   10.3681   52.2093 O   0  0  0  0  0  0  0  0  0  0  0  0
   31.7880   11.8498   50.4604 C   0  0  0  0  0  0  0  0  0  0  0  0
   31.2695   12.8323   51.3363 O   0  0  0  0  0  0  0  0  0  0  0  0
   34.2612    5.3122   53.9530 C   0  0  2  0  0  0  0  0  0  0  0  0
   35.4248    4.7857   54.6674 N   0  3  0  0  0  0  0  0  0  0  0  0
   34.7277    6.2541   52.7939 C   0  0  0  0  0  0  0  0  0  0  0  0
   33.5047    6.8491   52.0700 C   0  0  2  0  0  0  0  0  0  0  0  0
   33.9234    7.7770   51.0142 N   0  3  0  0  0  0  0  0  0  0  0  0
   32.5967    7.5890   53.0719 C   0  0  2  0  0  0  0  0  0  0  0  0
   32.1440    6.6918   54.2403 C   0  0  2  0  0  0  0  0  0  0  0  0
   31.4453    7.5552   55.1579 O   0  0  0  0  0  0  0  0  0  0  0  0
   33.3726    6.0550   54.9380 C   0  0  1  0  0  0  0  0  0  0  0  0
   32.9314    5.1680   55.9288 O   0  0  0  0  0  0  0  0  0  0  0  0
   30.3984    7.1084   56.0156 C   0  0  1  0  0  0  0  0  0  0  0  0
   30.8292    7.3626   57.5041 C   0  0  2  0  0  0  0  0  0  0  0  0
   31.5687    6.2987   58.0789 O   0  0  0  0  0  0  0  0  0  0  0  0
   29.4449    7.5720   58.1016 C   0  0  2  0  0  0  0  0  0  0  0  0
   28.6795    6.3295   58.1044 O   0  0  0  0  0  0  0  0  0  0  0  0
   28.7888    8.5147   57.1025 C   0  0  2  0  0  0  0  0  0  0  0  0
   29.2087    7.9289   55.8582 O   0  0  0  0  0  0  0  0  0  0  0  0
   29.2114   10.0144   57.2366 C   0  0  0  0  0  0  0  0  0  0  0  0
   28.4214   10.8641   56.3953 O   0  0  0  0  0  0  0  0  0  0  0  0
   27.5802    6.3278   59.0117 C   0  0  2  0  0  0  0  0  0  0  0  0
   27.0652    4.9038   59.4133 C   0  0  2  0  0  0  0  0  0  0  0  0
   26.6427    4.0858   58.2362 N   0  3  0  0  0  0  0  0  0  0  0  0
   25.8861    5.1108   60.4216 C   0  0  1  0  0  0  0  0  0  0  0  0
   26.4459    5.7752   61.6186 O   0  0  0  0  0  0  0  0  0  0  0  0
   24.7361    6.0162   59.8308 C   0  0  2  0  0  0  0  0  0  0  0  0
   24.1569    5.3408   58.7025 O   0  0  0  0  0  0  0  0  0  0  0  0
   25.3677    7.4106   59.4201 C   0  0  1  0  0  0  0  0  0  0  0  0
   26.4502    7.1426   58.4663 O   0  0  0  0  0  0  0  0  0  0  0  0
   24.3652    8.4125   58.8036 C   0  0  0  0  0  0  0  0  0  0  0  0
   23.7040    9.2844   59.8121 N   0  3  0  0  0  0  0  0  0  0  0  0
  1  2  1  6  0  0  0
  1  3  1  0  0  0  0
  1 10  1  0  0  0  0
  3  4  1  6  0  0  0
  3  5  1  0  0  0  0
  5  6  1  1  0  0  0
  5  7  1  0  0  0  0
  7  8  1  6  0  0  0
  7  9  1  0  0  0  0
  9 10  1  0  0  0  0
  9 11  1  1  0  0  0
 11 12  1  0  0  0  0
 13 14  1  1  0  0  0
 13 15  1  0  0  0  0
 13 21  1  0  0  0  0
 15 16  1  0  0  0  0
 16 17  1  6  0  0  0
 16 18  1  0  0  0  0
 18  2  1  6  0  0  0
 18 19  1  0  0  0  0
 19 20  1  1  0  0  0
 19 21  1  0  0  0  0
 21 22  1  1  0  0  0
 23 20  1  6  0  0  0
 23 24  1  0  0  0  0
 23 29  1  0  0  0  0
 24 25  1  1  0  0  0
 24 26  1  0  0  0  0
 26 27  1  6  0  0  0
 26 28  1  0  0  0  0
 28 29  1  0  0  0  0
 28 30  1  1  0  0  0
 30 31  1  0  0  0  0
 32 27  1  6  0  0  0
 32 33  1  0  0  0  0
 32 40  1  0  0  0  0
 33 34  1  6  0  0  0
 33 35  1  0  0  0  0
 35 36  1  1  0  0  0
 35 37  1  0  0  0  0
 37 38  1  6  0  0  0
 37 39  1  0  0  0  0
 39 40  1  0  0  0  0
 39 41  1  6  0  0  0
 41 42  1  0  0  0  0
M  CHG  5   4   1  14   1  17   1  34   1  42   1
M  END
>  <CHROM.1>
-151.99418677,-153.95277234,-65.93549083,-67.65915056,-61.87170848,74.43048486
75.62838927,-178.42011618,169.53091662,151.14213268,119.73401717,-64.10100817
45.61047444,160.73861009,-159.38990098,-171.90729941,66.69426976,54.79306909
179.29870124,64.81859409,89.84135935,-115.03583388,29.61840989,7.71264549
55.27175562,0.86938795,0.43807985,-0.93287074

>  <Name>
1j7t

>  <RI>
0

>  <Rbt.Current_Directory>
/home/itssahil/PROJECTS/Mol_Feturizer/New_Systems/rnas/1j7t

>  <Rbt.Executable>
rbdock ($Id: //depot/dev/client3/rdock/2013.1/src/exe/rbdock.cxx#4 $)

>  <Rbt.Library>
libRbt.so (2013.1, Build901 2013/11/27)

>  <Rbt.Parameter_File>
/export/apps/rDock/src/rDock_2013.1_src/data/scripts/dock_solv.prm

>  <Rbt.Receptor>
prm/pocket_docking_5.prm

>  <SCORE>
-64.2855

>  <SCORE.INTER>
-49.2542

>  <SCORE.INTER.CONST>
1

>  <SCORE.INTER.POLAR>
-7.46807

>  <SCORE.INTER.ROT>
9

>  <SCORE.INTER.SOLV>
28.3242

>  <SCORE.INTER.VDW>
-26.9839

>  <SCORE.INTER.norm>
-1.17272

>  <SCORE.INTRA>
-15.0365

>  <SCORE.INTRA.DIHEDRAL>
-15.3337

>  <SCORE.INTRA.DIHEDRAL.0>
46.2143

>  <SCORE.INTRA.POLAR>
-0.86988

>  <SCORE.INTRA.POLAR.0>
-1.76436

>  <SCORE.INTRA.REPUL>
0

>  <SCORE.INTRA.REPUL.0>
0

>  <SCORE.INTRA.SOLV>
-3.60417

>  <SCORE.INTRA.SOLV.lig_0>
-148.643

>  <SCORE.INTRA.VDW>
-2.60998

>  <SCORE.INTRA.VDW.0>
-4.83512

>  <SCORE.INTRA.norm>
-0.358012

>  <SCORE.RESTR>
0.00511136

>  <SCORE.RESTR.CAVITY>
0.00511136

>  <SCORE.RESTR.norm>
0.000121699

>  <SCORE.SYSTEM>
0

>  <SCORE.SYSTEM.CONST>
0

>  <SCORE.SYSTEM.DIHEDRAL>
0

>  <SCORE.SYSTEM.SOLV>
0

>  <SCORE.SYSTEM.norm>
0

>  <SCORE.heavy>
42

>  <SCORE.norm>
-1.53061

>  <RMSD>
1.664

$$$$
1j7t
 OpenBabel11021811393D
libRbt.so/2013.1/901 2013/11/27
 42 45  0  0  0  0  0  0  0  0999 V2000
   30.4941    8.7069   52.8665 C   0  0  2  0  0  0  0  0  0  0  0  0
   31.0699    7.5187   52.2670 O   0  0  0  0  0  0  0  0  0  0  0  0
   29.0384    8.8230   52.3304 C   0  0  2  0  0  0  0  0  0  0  0  0
   28.2098    7.5978   52.5200 N   0  3  0  0  0  0  0  0  0  0  0  0
   29.1078    9.1211   50.8167 C   0  0  1  0  0  0  0  0  0  0  0  0
   27.8215    9.2528   50.2804 O   0  0  0  0  0  0  0  0  0  0  0  0
   29.9369   10.4030   50.5660 C   0  0  2  0  0  0  0  0  0  0  0  0
   29.9950   10.7063   49.1862 O   0  0  0  0  0  0  0  0  0  0  0  0
   31.3439   10.2164   51.0929 C   0  0  2  0  0  0  0  0  0  0  0  0
   31.2874    9.8697   52.4708 O   0  0  0  0  0  0  0  0  0  0  0  0
   32.1857   11.4686   50.9915 C   0  0  0  0  0  0  0  0  0  0  0  0
   31.4170   12.5870   51.3906 O   0  0  0  0  0  0  0  0  0  0  0  0
   32.0202    3.6900   53.7788 C   0  0  2  0  0  0  0  0  0  0  0  0
   32.6269    2.6288   54.5833 N   0  3  0  0  0  0  0  0  0  0  0  0
   33.1268    4.4478   52.9729 C   0  0  0  0  0  0  0  0  0  0  0  0
   32.4982    5.5973   52.1622 C   0  0  2  0  0  0  0  0  0  0  0  0
   33.5288    6.3525   51.4421 N   0  3  0  0  0  0  0  0  0  0  0  0
   31.7230    6.5490   53.0944 C   0  0  2  0  0  0  0  0  0  0  0  0
   30.6438    5.8240   53.9219 C   0  0  2  0  0  0  0  0  0  0  0  0
   30.1243    6.8021   54.8432 O   0  0  0  0  0  0  0  0  0  0  0  0
   31.2678    4.6375   54.6996 C   0  0  1  0  0  0  0  0  0  0  0  0
   30.2520    3.9357   55.3620 O   0  0  0  0  0  0  0  0  0  0  0  0
   29.2465    6.4805   55.9190 C   0  0  1  0  0  0  0  0  0  0  0  0
   29.4193    7.5614   57.0450 C   0  0  2  0  0  0  0  0  0  0  0  0
   30.4468    7.2642   57.9750 O   0  0  0  0  0  0  0  0  0  0  0  0
   28.0092    7.5121   57.6162 C   0  0  2  0  0  0  0  0  0  0  0  0
   27.7621    6.2464   58.2993 O   0  0  0  0  0  0  0  0  0  0  0  0
   27.1411    7.5376   56.3659 C   0  0  2  0  0  0  0  0  0  0  0  0
   27.8563    6.6221   55.5184 O   0  0  0  0  0  0  0  0  0  0  0  0
   26.9639    8.9489   55.7160 C   0  0  0  0  0  0  0  0  0  0  0  0
   28.1100    9.3223   54.9406 O   0  0  0  0  0  0  0  0  0  0  0  0
   26.7287    6.3085   59.2791 C   0  0  2  0  0  0  0  0  0  0  0  0
   27.2300    6.5373   60.7456 C   0  0  2  0  0  0  0  0  0  0  0  0
   28.1842    5.4824   61.2042 N   0  3  0  0  0  0  0  0  0  0  0  0
   25.9606    6.5996   61.6591 C   0  0  1  0  0  0  0  0  0  0  0  0
   25.1715    7.7752   61.2315 O   0  0  0  0  0  0  0  0  0  0  0  0
   25.0589    5.3104   61.5313 C   0  0  2  0  0  0  0  0  0  0  0  0
   25.8098    4.1791   62.0013 O   0  0  0  0  0  0  0  0  0  0  0  0
   24.6422    5.1484   60.0107 C   0  0  1  0  0  0  0  0  0  0  0  0
   25.8756    5.0810   59.2185 O   0  0  0  0  0  0  0  0  0  0  0  0
   23.7635    3.9120   59.7143 C   0  0  0  0  0  0  0  0  0  0  0  0
   24.5444    2.6551   59.5562 N   0  3  0  0  0  0  0  0  0  0  0  0
  1  2  1  6  0  0  0
  1  3  1  0  0  0  0
  1 10  1  0  0  0  0
  3  4  1  6  0  0  0
  3  5  1  0  0  0  0
  5  6  1  1  0  0  0
  5  7  1  0  0  0  0
  7  8  1  6  0  0  0
  7  9  1  0  0  0  0
  9 10  1  0  0  0  0
  9 11  1  1  0  0  0
 11 12  1  0  0  0  0
 13 14  1  1  0  0  0
 13 15  1  0  0  0  0
 13 21  1  0  0  0  0
 15 16  1  0  0  0  0
 16 17  1  1  0  0  0
 16 18  1  0  0  0  0
 18  2  1  6  0  0  0
 18 19  1  0  0  0  0
 19 20  1  1  0  0  0
 19 21  1  0  0  0  0
 21 22  1  6  0  0  0
 23 20  1  6  0  0  0
 23 24  1  0  0  0  0
 23 29  1  0  0  0  0
 24 25  1  1  0  0  0
 24 26  1  0  0  0  0
 26 27  1  6  0  0  0
 26 28  1  0  0  0  0
 28 29  1  0  0  0  0
 28 30  1  6  0  0  0
 30 31  1  0  0  0  0
 32 27  1  6  0  0  0
 32 33  1  0  0  0  0
 32 40  1  0  0  0  0
 33 34  1  1  0  0  0
 33 35  1  0  0  0  0
 35 36  1  6  0  0  0
 35 37  1  0  0  0  0
 37 38  1  6  0  0  0
 37 39  1  0  0  0  0
 39 40  1  0  0  0  0
 39 41  1  1  0  0  0
 41 42  1  0  0  0  0
M  CHG  5   4   1  14   1  17   1  34   1  42   1
M  END
>  <CHROM.1>
-129.84992411,-167.15374391,-65.75597445,-170.50733048,-54.27175975,42.95474197
-70.12545752,74.16533398,-87.16331287,-170.33993298,153.99512116,61.80671189
-179.48589370,156.50716100,-96.04394972,78.86452642,148.68736581,42.96240430
-170.08729572,171.84405655,-82.09674107,-151.12396098,28.98731054,6.97172950
55.45607280,0.88559429,0.74114790,-0.68678455

>  <Name>
1j7t

>  <RI>
0

>  <Rbt.Current_Directory>
/home/itssahil/PROJECTS/Mol_Feturizer/New_Systems/rnas/1j7t

>  <Rbt.Executable>
rbdock ($Id: //depot/dev/client3/rdock/2013.1/src/exe/rbdock.cxx#4 $)

>  <Rbt.Library>
libRbt.so (2013.1, Build901 2013/11/27)

>  <Rbt.Parameter_File>
/export/apps/rDock/src/rDock_2013.1_src/data/scripts/dock_solv.prm

>  <Rbt.Receptor>
prm/pocket_docking_4.prm

>  <SCORE>
-40.3859

>  <SCORE.INTER>
-32.7428

>  <SCORE.INTER.CONST>
1

>  <SCORE.INTER.POLAR>
-5.19177

>  <SCORE.INTER.ROT>
9

>  <SCORE.INTER.SOLV>
15.3752

>  <SCORE.INTER.VDW>
-19.2477

>  <SCORE.INTER.norm>
-0.779591

>  <SCORE.INTRA>
-7.6431

>  <SCORE.INTRA.DIHEDRAL>
-13.9645

>  <SCORE.INTRA.DIHEDRAL.0>
46.2143

>  <SCORE.INTRA.POLAR>
-0.495716

>  <SCORE.INTRA.POLAR.0>
-1.76436

>  <SCORE.INTRA.REPUL>
0.104524

>  <SCORE.INTRA.REPUL.0>
0

>  <SCORE.INTRA.SOLV>
3.32875

>  <SCORE.INTRA.SOLV.lig_0>
-148.643

>  <SCORE.INTRA.VDW>
-1.16242

>  <SCORE.INTRA.VDW.0>
-4.83512

>  <SCORE.INTRA.norm>
-0.181979

>  <SCORE.RESTR>
0

>  <SCORE.RESTR.CAVITY>
0

>  <SCORE.RESTR.norm>
0

>  <SCORE.SYSTEM>
0

>  <SCORE.SYSTEM.CONST>
0

>  <SCORE.SYSTEM.DIHEDRAL>
0

>  <SCORE.SYSTEM.SOLV>
0

>  <SCORE.SYSTEM.norm>
0

>  <SCORE.heavy>
42

>  <SCORE.norm>
-0.961569

>  <RMSD>
1.672

$$$$
1j7t
 OpenBabel11021811393D
libRbt.so/2013.1/901 2013/11/27
 42 45  0  0  0  0  0  0  0  0999 V2000
   30.6379    9.6959   52.1219 C   0  0  2  0  0  0  0  0  0  0  0  0
   31.1870    8.4379   51.6544 O   0  0  0  0  0  0  0  0  0  0  0  0
   29.3473    9.9606   51.2946 C   0  0  2  0  0  0  0  0  0  0  0  0
   28.3642    8.8395   51.3066 N   0  3  0  0  0  0  0  0  0  0  0  0
   29.7617   10.2146   49.8288 C   0  0  1  0  0  0  0  0  0  0  0  0
   28.6376   10.4759   49.0366 O   0  0  0  0  0  0  0  0  0  0  0  0
   30.7644   11.3906   49.7572 C   0  0  2  0  0  0  0  0  0  0  0  0
   31.1407   11.6541   48.4200 O   0  0  0  0  0  0  0  0  0  0  0  0
   32.0015   11.0611   50.5653 C   0  0  2  0  0  0  0  0  0  0  0  0
   31.6224   10.7542   51.9010 O   0  0  0  0  0  0  0  0  0  0  0  0
   32.9824   12.2096   50.6424 C   0  0  0  0  0  0  0  0  0  0  0  0
   33.5913   12.3950   49.3790 O   0  0  0  0  0  0  0  0  0  0  0  0
   33.2303    5.0817   53.2064 C   0  0  2  0  0  0  0  0  0  0  0  0
   34.1394    4.2605   54.0067 N   0  3  0  0  0  0  0  0  0  0  0  0
   34.0493    6.0926   52.3371 C   0  0  0  0  0  0  0  0  0  0  0  0
   33.0941    6.9921   51.5296 C   0  0  2  0  0  0  0  0  0  0  0  0
   33.8440    7.9820   50.7494 N   0  3  0  0  0  0  0  0  0  0  0  0
   32.1157    7.7183   52.4736 C   0  0  2  0  0  0  0  0  0  0  0  0
   31.3144    6.7472   53.3624 C   0  0  2  0  0  0  0  0  0  0  0  0
   30.5734    7.5701   54.2839 O   0  0  0  0  0  0  0  0  0  0  0  0
   32.2745    5.8099   54.1380 C   0  0  1  0  0  0  0  0  0  0  0  0
   31.5217    4.8735   54.8588 O   0  0  0  0  0  0  0  0  0  0  0  0
   29.8215    7.0468   55.3757 C   0  0  1  0  0  0  0  0  0  0  0  0
   30.2323    7.8180   56.6805 C   0  0  2  0  0  0  0  0  0  0  0  0
   31.3449    7.2558   57.3551 O   0  0  0  0  0  0  0  0  0  0  0  0
   28.9109    7.7062   57.4280 C   0  0  2  0  0  0  0  0  0  0  0  0
   28.6503    6.3285   57.8327 O   0  0  0  0  0  0  0  0  0  0  0  0
   27.8905    8.0730   56.3596 C   0  0  2  0  0  0  0  0  0  0  0  0
   28.4075    7.3505   55.2289 O   0  0  0  0  0  0  0  0  0  0  0  0
   27.7488    9.6057   56.0830 C   0  0  0  0  0  0  0  0  0  0  0  0
   27.1810   10.2955   57.2037 O   0  0  0  0  0  0  0  0  0  0  0  0
   27.8337    6.2103   58.9950 C   0  0  2  0  0  0  0  0  0  0  0  0
   28.4749    6.7796   60.3061 C   0  0  2  0  0  0  0  0  0  0  0  0
   29.7814    6.1358   60.6405 N   0  3  0  0  0  0  0  0  0  0  0  0
   27.4272    6.5812   61.4519 C   0  0  1  0  0  0  0  0  0  0  0  0
   26.2406    7.3931   61.1047 O   0  0  0  0  0  0  0  0  0  0  0  0
   26.9818    5.0754   61.6109 C   0  0  2  0  0  0  0  0  0  0  0  0
   28.1257    4.2996   62.0038 O   0  0  0  0  0  0  0  0  0  0  0  0
   26.3887    4.5871   60.2246 C   0  0  1  0  0  0  0  0  0  0  0  0
   27.4251    4.7865   59.2050 O   0  0  0  0  0  0  0  0  0  0  0  0
   25.9192    3.1146   60.2103 C   0  0  0  0  0  0  0  0  0  0  0  0
   25.3431    2.6646   61.5066 N   0  3  0  0  0  0  0  0  0  0  0  0
  1  2  1  6  0  0  0
  1  3  1  0  0  0  0
  1 10  1  0  0  0  0
  3  4  1  6  0  0  0
  3  5  1  0  0  0  0
  5  6  1  6  0  0  0
  5  7  1  0  0  0  0
  7  8  1  6  0  0  0
  7  9  1  0  0  0  0
  9 10  1  0  0  0  0
  9 11  1  1  0  0  0
 11 12  1  0  0  0  0
 13 14  1  1  0  0  0
 13 15  1  0  0  0  0
 13 21  1  0  0  0  0
 15 16  1  0  0  0  0
 16 17  1  1  0  0  0
 16 18  1  0  0  0  0
 18  2  1  6  0  0  0
 18 19  1  0  0  0  0
 19 20  1  1  0  0  0
 19 21  1  0  0  0  0
 21 22  1  6  0  0  0
 23 20  1  6  0  0  0
 23 24  1  0  0  0  0
 23 29  1  0  0  0  0
 24 25  1  1  0  0  0
 24 26  1  0  0  0  0
 26 27  1  6  0  0  0
 26 28  1  0  0  0  0
 28 29  1  0  0  0  0
 28 30  1  6  0  0  0
 30 31  1  0  0  0  0
 32 27  1  6  0  0  0
 32 33  1  0  0  0  0
 32 40  1  0  0  0  0
 33 34  1  1  0  0  0
 33 35  1  0  0  0  0
 35 36  1  6  0  0  0
 35 37  1  0  0  0  0
 37 38  1  6  0  0  0
 37 39  1  0  0  0  0
 39 40  1  0  0  0  0
 39 41  1  1  0  0  0
 41 42  1  0  0  0  0
M  CHG  5   4   1  14   1  17   1  34   1  42   1
M  END
>  <CHROM.1>
-160.61324939,-147.48241331,-152.92915157,74.88902451,64.25554429,-70.88336906
174.81666514,59.91195812,171.11307807,-172.64800176,129.40116652,-60.41731148
52.85135245,152.69237740,-64.74980700,-67.48523682,-168.43786737,-37.98893259
59.57631162,170.20985822,34.36962822,154.38484849,29.90861731,7.59926676
55.09048488,1.09293580,0.63176326,-0.83233779

>  <Name>
1j7t

>  <RI>
0

>  <Rbt.Current_Directory>
/home/itssahil/PROJECTS/Mol_Feturizer/New_Systems/rnas/1j7t

>  <Rbt.Executable>
rbdock ($Id: //depot/dev/client3/rdock/2013.1/src/exe/rbdock.cxx#4 $)

>  <Rbt.Library>
libRbt.so (2013.1, Build901 2013/11/27)

>  <Rbt.Parameter_File>
/export/apps/rDock/src/rDock_2013.1_src/data/scripts/dock_solv.prm

>  <Rbt.Receptor>
prm/pocket_docking_3.prm

>  <SCORE>
-44.9201

>  <SCORE.INTER>
-38.5729

>  <SCORE.INTER.CONST>
1

>  <SCORE.INTER.POLAR>
-5.58748

>  <SCORE.INTER.ROT>
9

>  <SCORE.INTER.SOLV>
24.5704

>  <SCORE.INTER.VDW>
-24.8804

>  <SCORE.INTER.norm>
-0.918402

>  <SCORE.INTRA>
-6.41342

>  <SCORE.INTRA.DIHEDRAL>
-20.4497

>  <SCORE.INTRA.DIHEDRAL.0>
46.2143

>  <SCORE.INTRA.POLAR>
1.64544

>  <SCORE.INTRA.POLAR.0>
-1.76436

>  <SCORE.INTRA.REPUL>
0.0273008

>  <SCORE.INTRA.REPUL.0>
0

>  <SCORE.INTRA.SOLV>
-2.12695

>  <SCORE.INTRA.SOLV.lig_0>
-148.643

>  <SCORE.INTRA.VDW>
-0.856075

>  <SCORE.INTRA.VDW.0>
-4.83512

>  <SCORE.INTRA.norm>
-0.1527

>  <SCORE.RESTR>
0.0662495

>  <SCORE.RESTR.CAVITY>
0.0662495

>  <SCORE.RESTR.norm>
0.00157737

>  <SCORE.SYSTEM>
0

>  <SCORE.SYSTEM.CONST>
0

>  <SCORE.SYSTEM.DIHEDRAL>
0

>  <SCORE.SYSTEM.SOLV>
0

>  <SCORE.SYSTEM.norm>
0

>  <SCORE.heavy>
42

>  <SCORE.norm>
-1.06953

>  <RMSD>
1.694

$$$$
1j7t
 OpenBabel11021811393D
libRbt.so/2013.1/901 2013/11/27
 42 45  0  0  0  0  0  0  0  0999 V2000
   30.5522    9.3674   52.4096 C   0  0  2  0  0  0  0  0  0  0  0  0
   31.4471    8.3645   51.8657 O   0  0  0  0  0  0  0  0  0  0  0  0
   29.1774    9.1742   51.7077 C   0  0  2  0  0  0  0  0  0  0  0  0
   28.6346    7.7873   51.7817 N   0  3  0  0  0  0  0  0  0  0  0  0
   29.3451    9.5408   50.2169 C   0  0  1  0  0  0  0  0  0  0  0  0
   28.1307    9.4009   49.5349 O   0  0  0  0  0  0  0  0  0  0  0  0
   29.8822   10.9855   50.0831 C   0  0  2  0  0  0  0  0  0  0  0  0
   30.0229   11.3492   48.7240 O   0  0  0  0  0  0  0  0  0  0  0  0
   31.2270   11.0994   50.7691 C   0  0  2  0  0  0  0  0  0  0  0  0
   31.0981   10.6939   52.1259 O   0  0  0  0  0  0  0  0  0  0  0  0
   31.7666   12.5121   50.7846 C   0  0  0  0  0  0  0  0  0  0  0  0
   33.1746   12.4803   50.6505 O   0  0  0  0  0  0  0  0  0  0  0  0
   34.4681    5.9128   53.5120 C   0  0  2  0  0  0  0  0  0  0  0  0
   35.6835    5.4897   54.2085 N   0  3  0  0  0  0  0  0  0  0  0  0
   34.8416    6.7926   52.2731 C   0  0  0  0  0  0  0  0  0  0  0  0
   33.5632    7.2806   51.5652 C   0  0  2  0  0  0  0  0  0  0  0  0
   33.8939    8.1515   50.4324 N   0  3  0  0  0  0  0  0  0  0  0  0
   32.6622    8.0462   52.5540 C   0  0  2  0  0  0  0  0  0  0  0  0
   32.3007    7.2123   53.7986 C   0  0  2  0  0  0  0  0  0  0  0  0
   31.5992    8.1045   54.6859 O   0  0  0  0  0  0  0  0  0  0  0  0
   33.5856    6.6809   54.4830 C   0  0  1  0  0  0  0  0  0  0  0  0
   33.2279    5.8454   55.5492 O   0  0  0  0  0  0  0  0  0  0  0  0
   31.1440    7.7266   55.9825 C   0  0  1  0  0  0  0  0  0  0  0  0
   30.0468    8.7504   56.4449 C   0  0  2  0  0  0  0  0  0  0  0  0
   30.5663    9.8897   57.1091 O   0  0  0  0  0  0  0  0  0  0  0  0
   29.2307    7.8158   57.3268 C   0  0  2  0  0  0  0  0  0  0  0  0
   29.9730    7.4427   58.5266 O   0  0  0  0  0  0  0  0  0  0  0  0
   29.0986    6.5704   56.4614 C   0  0  2  0  0  0  0  0  0  0  0  0
   30.4330    6.4594   55.9372 O   0  0  0  0  0  0  0  0  0  0  0  0
   28.0145    6.6612   55.3379 C   0  0  0  0  0  0  0  0  0  0  0  0
   27.8530    5.4111   54.6560 O   0  0  0  0  0  0  0  0  0  0  0  0
   29.4394    6.3115   59.2101 C   0  0  2  0  0  0  0  0  0  0  0  0
   30.3210    5.0193   59.1248 C   0  0  2  0  0  0  0  0  0  0  0  0
   30.5755    4.5819   57.7186 N   0  3  0  0  0  0  0  0  0  0  0  0
   29.5867    3.9086   59.9475 C   0  0  1  0  0  0  0  0  0  0  0  0
   29.5382    4.3659   61.3532 O   0  0  0  0  0  0  0  0  0  0  0  0
   28.1115    3.6585   59.4449 C   0  0  2  0  0  0  0  0  0  0  0  0
   28.1659    3.1602   58.0983 O   0  0  0  0  0  0  0  0  0  0  0  0
   27.3212    5.0295   59.5326 C   0  0  1  0  0  0  0  0  0  0  0  0
   28.0540    6.0151   58.7295 O   0  0  0  0  0  0  0  0  0  0  0  0
   25.8529    4.9555   59.0553 C   0  0  0  0  0  0  0  0  0  0  0  0
   25.0140    4.0292   59.8632 N   0  3  0  0  0  0  0  0  0  0  0  0
  1  2  1  6  0  0  0
  1  3  1  0  0  0  0
  1 10  1  0  0  0  0
  3  4  1  6  0  0  0
  3  5  1  0  0  0  0
  5  6  1  6  0  0  0
  5  7  1  0  0  0  0
  7  8  1  6  0  0  0
  7  9  1  0  0  0  0
  9 10  1  0  0  0  0
  9 11  1  1  0  0  0
 11 12  1  0  0  0  0
 13 14  1  1  0  0  0
 13 15  1  0  0  0  0
 13 21  1  0  0  0  0
 15 16  1  0  0  0  0
 16 17  1  6  0  0  0
 16 18  1  0  0  0  0
 18  2  1  6  0  0  0
 18 19  1  0  0  0  0
 19 20  1  1  0  0  0
 19 21  1  0  0  0  0
 21 22  1  1  0  0  0
 23 20  1  6  0  0  0
 23 24  1  0  0  0  0
 23 29  1  0  0  0  0
 24 25  1  1  0  0  0
 24 26  1  0  0  0  0
 26 27  1  1  0  0  0
 26 28  1  0  0  0  0
 28 29  1  0  0  0  0
 28 30  1  6  0  0  0
 30 31  1  0  0  0  0
 32 27  1  6  0  0  0
 32 33  1  0  0  0  0
 32 40  1  0  0  0  0
 33 34  1  6  0  0  0
 33 35  1  0  0  0  0
 35 36  1  1  0  0  0
 35 37  1  0  0  0  0
 37 38  1  6  0  0  0
 37 39  1  0  0  0  0
 39 40  1  0  0  0  0
 39 41  1  6  0  0  0
 41 42  1  0  0  0  0
M  CHG  5   4   1  14   1  17   1  34   1  42   1
M  END
>  <CHROM.1>
-163.13777395,-164.15935550,74.77093360,-178.06398578,-57.16053305,-144.79478189
176.12513391,-167.17274665,-60.80310737,-177.15889272,-161.49316011,147.98084034
-78.00572642,-164.01421748,109.88684548,-174.07069116,-55.84176274,53.43991934
-158.30960315,67.84500528,61.95984167,175.44076020,30.43736067,7.36675114
54.83567992,1.24248124,0.19379807,-0.95808515

>  <Name>
1j7t

>  <RI>
0

>  <Rbt.Current_Directory>
/home/itssahil/PROJECTS/Mol_Feturizer/New_Systems/rnas/1j7t

>  <Rbt.Executable>
rbdock ($Id: //depot/dev/client3/rdock/2013.1/src/exe/rbdock.cxx#4 $)

>  <Rbt.Library>
libRbt.so (2013.1, Build901 2013/11/27)

>  <Rbt.Parameter_File>
/export/apps/rDock/src/rDock_2013.1_src/data/scripts/dock_solv.prm

>  <Rbt.Receptor>
prm/pocket_docking_5.prm

>  <SCORE>
-49.8027

>  <SCORE.INTER>
-43.3657

>  <SCORE.INTER.CONST>
1

>  <SCORE.INTER.POLAR>
-6.21108

>  <SCORE.INTER.ROT>
9

>  <SCORE.INTER.SOLV>
25.8849

>  <SCORE.INTER.VDW>
-26.4351

>  <SCORE.INTER.norm>
-1.03252

>  <SCORE.INTRA>
-6.43705

>  <SCORE.INTRA.DIHEDRAL>
-21.2381

>  <SCORE.INTRA.DIHEDRAL.0>
46.2143

>  <SCORE.INTRA.POLAR>
0.377062

>  <SCORE.INTRA.POLAR.0>
-1.76436

>  <SCORE.INTRA.REPUL>
0

>  <SCORE.INTRA.REPUL.0>
0

>  <SCORE.INTRA.SOLV>
0.620183

>  <SCORE.INTRA.SOLV.lig_0>
-148.643

>  <SCORE.INTRA.VDW>
2.58992

>  <SCORE.INTRA.VDW.0>
-4.83512

>  <SCORE.INTRA.norm>
-0.153263

>  <SCORE.RESTR>
0

>  <SCORE.RESTR.CAVITY>
0

>  <SCORE.RESTR.norm>
0

>  <SCORE.SYSTEM>
0

>  <SCORE.SYSTEM.CONST>
0

>  <SCORE.SYSTEM.DIHEDRAL>
0

>  <SCORE.SYSTEM.SOLV>
0

>  <SCORE.SYSTEM.norm>
0

>  <SCORE.heavy>
42

>  <SCORE.norm>
-1.18578

>  <RMSD>
1.713

$$$$
1j7t
 OpenBabel11021811393D
libRbt.so/2013.1/901 2013/11/27
 42 45  0  0  0  0  0  0  0  0999 V2000
   30.0547    8.8930   52.9654 C   0  0  2  0  0  0  0  0  0  0  0  0
   30.7716    7.6859   52.6027 O   0  0  0  0  0  0  0  0  0  0  0  0
   28.6827    8.8404   52.2342 C   0  0  2  0  0  0  0  0  0  0  0  0
   27.9039    7.5907   52.4694 N   0  3  0  0  0  0  0  0  0  0  0  0
   28.9438    8.9599   50.7168 C   0  0  1  0  0  0  0  0  0  0  0  0
   27.7386    8.9347   50.0053 O   0  0  0  0  0  0  0  0  0  0  0  0
   29.7285   10.2585   50.4143 C   0  0  2  0  0  0  0  0  0  0  0  0
   29.9597   10.3984   49.0264 O   0  0  0  0  0  0  0  0  0  0  0  0
   31.0574   10.2368   51.1392 C   0  0  2  0  0  0  0  0  0  0  0  0
   30.8305   10.0538   52.5309 O   0  0  0  0  0  0  0  0  0  0  0  0
   31.8357   11.5247   50.9889 C   0  0  0  0  0  0  0  0  0  0  0  0
   31.1903   12.5529   51.7151 O   0  0  0  0  0  0  0  0  0  0  0  0
   33.4186    5.0111   54.5229 C   0  0  2  0  0  0  0  0  0  0  0  0
   34.5433    4.4961   55.3046 N   0  3  0  0  0  0  0  0  0  0  0  0
   33.9487    5.7829   53.2693 C   0  0  0  0  0  0  0  0  0  0  0  0
   32.7691    6.3686   52.4698 C   0  0  2  0  0  0  0  0  0  0  0  0
   33.2504    7.1413   51.3199 N   0  3  0  0  0  0  0  0  0  0  0  0
   31.9079    7.2746   53.3716 C   0  0  2  0  0  0  0  0  0  0  0  0
   31.3944    6.5473   54.6296 C   0  0  2  0  0  0  0  0  0  0  0  0
   30.7503    7.5526   55.4358 O   0  0  0  0  0  0  0  0  0  0  0  0
   32.5769    5.9168   55.4079 C   0  0  1  0  0  0  0  0  0  0  0  0
   32.0761    5.1786   56.4883 O   0  0  0  0  0  0  0  0  0  0  0  0
   30.0546    7.2634   56.6455 C   0  0  1  0  0  0  0  0  0  0  0  0
   29.9883    8.5733   57.5092 C   0  0  2  0  0  0  0  0  0  0  0  0
   31.1078    8.7600   58.3582 O   0  0  0  0  0  0  0  0  0  0  0  0
   28.6789    8.2937   58.2336 C   0  0  2  0  0  0  0  0  0  0  0  0
   28.8246    7.1895   59.1766 O   0  0  0  0  0  0  0  0  0  0  0  0
   27.7689    7.8212   57.1085 C   0  0  2  0  0  0  0  0  0  0  0  0
   28.6584    6.9545   56.3836 O   0  0  0  0  0  0  0  0  0  0  0  0
   27.1777    8.9618   56.2166 C   0  0  0  0  0  0  0  0  0  0  0  0
   26.7281    8.4641   54.9501 O   0  0  0  0  0  0  0  0  0  0  0  0
   27.6417    6.8995   59.9169 C   0  0  2  0  0  0  0  0  0  0  0  0
   27.3694    7.8648   61.1203 C   0  0  2  0  0  0  0  0  0  0  0  0
   28.4902    7.8915   62.1084 N   0  3  0  0  0  0  0  0  0  0  0  0
   26.0295    7.4025   61.7843 C   0  0  1  0  0  0  0  0  0  0  0  0
   24.9601    7.5754   60.7773 O   0  0  0  0  0  0  0  0  0  0  0  0
   26.0656    5.8889   62.2302 C   0  0  2  0  0  0  0  0  0  0  0  0
   27.0669    5.7366   63.2495 O   0  0  0  0  0  0  0  0  0  0  0  0
   26.3873    5.0059   60.9539 C   0  0  1  0  0  0  0  0  0  0  0  0
   27.6579    5.4819   60.3951 O   0  0  0  0  0  0  0  0  0  0  0  0
   26.4748    3.4876   61.2295 C   0  0  0  0  0  0  0  0  0  0  0  0
   26.7889    2.6833   60.0174 N   0  3  0  0  0  0  0  0  0  0  0  0
  1  2  1  6  0  0  0
  1  3  1  0  0  0  0
  1 10  1  0  0  0  0
  3  4  1  6  0  0  0
  3  5  1  0  0  0  0
  5  6  1  6  0  0  0
  5  7  1  0  0  0  0
  7  8  1  6  0  0  0
  7  9  1  0  0  0  0
  9 10  1  0  0  0  0
  9 11  1  1  0  0  0
 11 12  1  0  0  0  0
 13 14  1  1  0  0  0
 13 15  1  0  0  0  0
 13 21  1  0  0  0  0
 15 16  1  0  0  0  0
 16 17  1  6  0  0  0
 16 18  1  0  0  0  0
 18  2  1  6  0  0  0
 18 19  1  0  0  0  0
 19 20  1  1  0  0  0
 19 21  1  0  0  0  0
 21 22  1  1  0  0  0
 23 20  1  6  0  0  0
 23 24  1  0  0  0  0
 23 29  1  0  0  0  0
 24 25  1  1  0  0  0
 24 26  1  0  0  0  0
 26 27  1  1  0  0  0
 26 28  1  0  0  0  0
 28 29  1  0  0  0  0
 28 30  1  6  0  0  0
 30 31  1  0  0  0  0
 32 27  1  1  0  0  0
 32 33  1  0  0  0  0
 32 40  1  0  0  0  0
 33 34  1  1  0  0  0
 33 35  1  0  0  0  0
 35 36  1  6  0  0  0
 35 37  1  0  0  0  0
 37 38  1  1  0  0  0
 37 39  1  0  0  0  0
 39 40  1  0  0  0  0
 39 41  1  1  0  0  0
 41 42  1  0  0  0  0
M  CHG  5   4   1  14   1  17   1  34   1  42   1
M  END
>  <CHROM.1>
-163.96030320,-157.23314861,-169.10028881,-77.85687518,66.63961637,70.07216852
122.66964232,-169.13781665,40.59455207,175.22480462,158.00859067,-54.58661926
-57.73095829,178.35663184,-79.08218419,160.18455083,-172.04286014,65.03407528
-54.65978614,73.27967434,-179.51589206,-145.06002571,29.49923555,7.50487709
55.88815020,1.13444339,0.54377675,-1.03935602

>  <Name>
1j7t

>  <RI>
0

>  <Rbt.Current_Directory>
/home/itssahil/PROJECTS/Mol_Feturizer/New_Systems/rnas/1j7t

>  <Rbt.Executable>
rbdock ($Id: //depot/dev/client3/rdock/2013.1/src/exe/rbdock.cxx#4 $)

>  <Rbt.Library>
libRbt.so (2013.1, Build901 2013/11/27)

>  <Rbt.Parameter_File>
/export/apps/rDock/src/rDock_2013.1_src/data/scripts/dock_solv.prm

>  <Rbt.Receptor>
prm/pocket_docking_4.prm

>  <SCORE>
-57.1446

>  <SCORE.INTER>
-43.7607

>  <SCORE.INTER.CONST>
1

>  <SCORE.INTER.POLAR>
-6.35251

>  <SCORE.INTER.ROT>
9

>  <SCORE.INTER.SOLV>
24.5498

>  <SCORE.INTER.VDW>
-25.7821

>  <SCORE.INTER.norm>
-1.04192

>  <SCORE.INTRA>
-13.3839

>  <SCORE.INTRA.DIHEDRAL>
-22.4962

>  <SCORE.INTRA.DIHEDRAL.0>
46.2143

>  <SCORE.INTRA.POLAR>
0.222751

>  <SCORE.INTRA.POLAR.0>
-1.76436

>  <SCORE.INTRA.REPUL>
0

>  <SCORE.INTRA.REPUL.0>
0

>  <SCORE.INTRA.SOLV>
-2.48079

>  <SCORE.INTRA.SOLV.lig_0>
-148.643

>  <SCORE.INTRA.VDW>
-1.65277

>  <SCORE.INTRA.VDW.0>
-4.83512

>  <SCORE.INTRA.norm>
-0.318664

>  <SCORE.RESTR>
0

>  <SCORE.RESTR.CAVITY>
0

>  <SCORE.RESTR.norm>
0

>  <SCORE.SYSTEM>
0

>  <SCORE.SYSTEM.CONST>
0

>  <SCORE.SYSTEM.DIHEDRAL>
0

>  <SCORE.SYSTEM.SOLV>
0

>  <SCORE.SYSTEM.norm>
0

>  <SCORE.heavy>
42

>  <SCORE.norm>
-1.36059

>  <RMSD>
1.736

$$$$
1j7t
 OpenBabel11021811393D
libRbt.so/2013.1/901 2013/11/27
 42 45  0  0  0  0  0  0  0  0999 V2000
   29.3274    7.2144   53.5825 C   0  0  2  0  0  0  0  0  0  0  0  0
   30.2778    6.2263   53.1103 O   0  0  0  0  0  0  0  0  0  0  0  0
   27.9256    6.7721   53.0732 C   0  0  2  0  0  0  0  0  0  0  0  0
   27.5537    5.3713   53.4241 N   0  3  0  0  0  0  0  0  0  0  0  0
   27.9141    6.8963   51.5340 C   0  0  1  0  0  0  0  0  0  0  0  0
   26.6667    6.5252   51.0184 O   0  0  0  0  0  0  0  0  0  0  0  0
   28.2685    8.3431   51.1158 C   0  0  2  0  0  0  0  0  0  0  0  0
   28.2425    8.4840   49.7092 O   0  0  0  0  0  0  0  0  0  0  0  0
   29.6482    8.7020   51.6253 C   0  0  2  0  0  0  0  0  0  0  0  0
   29.6903    8.5208   53.0351 O   0  0  0  0  0  0  0  0  0  0  0  0
   30.0222   10.1428   51.3585 C   0  0  0  0  0  0  0  0  0  0  0  0
   31.0881   10.5185   52.2094 O   0  0  0  0  0  0  0  0  0  0  0  0
   34.1244    5.1544   54.4897 C   0  0  2  0  0  0  0  0  0  0  0  0
   35.5465    5.2283   54.8267 N   0  3  0  0  0  0  0  0  0  0  0  0
   33.9309    5.3383   52.9479 C   0  0  0  0  0  0  0  0  0  0  0  0
   32.4315    5.3100   52.5951 C   0  0  2  0  0  0  0  0  0  0  0  0
   32.2286    5.5348   51.1600 N   0  3  0  0  0  0  0  0  0  0  0  0
   31.6724    6.3871   53.3947 C   0  0  2  0  0  0  0  0  0  0  0  0
   31.8677    6.2467   54.9170 C   0  0  2  0  0  0  0  0  0  0  0  0
   31.2375    7.3998   55.5074 O   0  0  0  0  0  0  0  0  0  0  0  0
   33.3773    6.2264   55.2670 C   0  0  1  0  0  0  0  0  0  0  0  0
   33.5287    5.9973   56.6409 O   0  0  0  0  0  0  0  0  0  0  0  0
   30.3599    7.3286   56.6282 C   0  0  1  0  0  0  0  0  0  0  0  0
   30.1150    8.7841   57.1643 C   0  0  2  0  0  0  0  0  0  0  0  0
   31.0732    9.2159   58.1153 O   0  0  0  0  0  0  0  0  0  0  0  0
   28.7124    8.5813   57.7200 C   0  0  2  0  0  0  0  0  0  0  0  0
   28.7314    7.7121   58.8921 O   0  0  0  0  0  0  0  0  0  0  0  0
   28.0144    7.8258   56.5979 C   0  0  2  0  0  0  0  0  0  0  0  0
   29.0354    6.8838   56.2266 O   0  0  0  0  0  0  0  0  0  0  0  0
   27.5467    8.7132   55.3980 C   0  0  0  0  0  0  0  0  0  0  0  0
   26.5495    9.6615   55.7983 O   0  0  0  0  0  0  0  0  0  0  0  0
   27.4378    7.3927   59.3981 C   0  0  2  0  0  0  0  0  0  0  0  0
   27.4146    6.9420   60.8983 C   0  0  2  0  0  0  0  0  0  0  0  0
   28.2766    5.7496   61.1597 N   0  3  0  0  0  0  0  0  0  0  0  0
   25.9200    6.6623   61.2695 C   0  0  1  0  0  0  0  0  0  0  0  0
   25.1905    7.9425   61.1404 O   0  0  0  0  0  0  0  0  0  0  0  0
   25.2484    5.5982   60.3166 C   0  0  2  0  0  0  0  0  0  0  0  0
   25.9237    4.3414   60.4873 O   0  0  0  0  0  0  0  0  0  0  0  0
   25.3616    6.1285   58.8273 C   0  0  1  0  0  0  0  0  0  0  0  0
   26.7838    6.3528   58.5441 O   0  0  0  0  0  0  0  0  0  0  0  0
   24.7602    5.1836   57.7622 C   0  0  0  0  0  0  0  0  0  0  0  0
   23.3482    4.8033   58.0381 N   0  3  0  0  0  0  0  0  0  0  0  0
  1  2  1  6  0  0  0
  1  3  1  0  0  0  0
  1 10  1  0  0  0  0
  3  4  1  6  0  0  0
  3  5  1  0  0  0  0
  5  6  1  1  0  0  0
  5  7  1  0  0  0  0
  7  8  1  6  0  0  0
  7  9  1  0  0  0  0
  9 10  1  0  0  0  0
  9 11  1  1  0  0  0
 11 12  1  0  0  0  0
 13 14  1  6  0  0  0
 13 15  1  0  0  0  0
 13 21  1  0  0  0  0
 15 16  1  0  0  0  0
 16 17  1  6  0  0  0
 16 18  1  0  0  0  0
 18  2  1  1  0  0  0
 18 19  1  0  0  0  0
 19 20  1  1  0  0  0
 19 21  1  0  0  0  0
 21 22  1  1  0  0  0
 23 20  1  6  0  0  0
 23 24  1  0  0  0  0
 23 29  1  0  0  0  0
 24 25  1  1  0  0  0
 24 26  1  0  0  0  0
 26 27  1  1  0  0  0
 26 28  1  0  0  0  0
 28 29  1  0  0  0  0
 28 30  1  6  0  0  0
 30 31  1  0  0  0  0
 32 27  1  6  0  0  0
 32 33  1  0  0  0  0
 32 40  1  0  0  0  0
 33 34  1  6  0  0  0
 33 35  1  0  0  0  0
 35 36  1  6  0  0  0
 35 37  1  0  0  0  0
 37 38  1  6  0  0  0
 37 39  1  0  0  0  0
 39 40  1  0  0  0  0
 39 41  1  6  0  0  0
 41 42  1  0  0  0  0
M  CHG  5   4   1  14   1  17   1  34   1  42   1
M  END
>  <CHROM.1>
178.26841680,-171.77456022,-155.26811998,-168.14148344,50.70299137,161.26536439
-175.61538688,-119.91711647,58.37453968,133.40215762,168.37938756,-58.67552002
-174.80042654,-175.17215116,-158.14282879,-63.90947055,178.19991506,154.00003936
-56.91481504,-174.72393278,53.83611043,-172.12100301,29.08722760,7.00276442
55.63920111,0.95458448,0.12938194,-1.38879293

>  <Name>
1j7t

>  <RI>
0

>  <Rbt.Current_Directory>
/home/itssahil/PROJECTS/Mol_Feturizer/New_Systems/rnas/1j7t

>  <Rbt.Executable>
rbdock ($Id: //depot/dev/client3/rdock/2013.1/src/exe/rbdock.cxx#4 $)

>  <Rbt.Library>
libRbt.so (2013.1, Build901 2013/11/27)

>  <Rbt.Parameter_File>
/export/apps/rDock/src/rDock_2013.1_src/data/scripts/dock_solv.prm

>  <Rbt.Receptor>
prm/pocket_docking_3.prm

>  <SCORE>
-48.9757

>  <SCORE.INTER>
-37.3679

>  <SCORE.INTER.CONST>
1

>  <SCORE.INTER.POLAR>
-6.81159

>  <SCORE.INTER.ROT>
9

>  <SCORE.INTER.SOLV>
20.3193

>  <SCORE.INTER.VDW>
-18.5797

>  <SCORE.INTER.norm>
-0.889712

>  <SCORE.INTRA>
-11.6078

>  <SCORE.INTRA.DIHEDRAL>
-26.5764

>  <SCORE.INTRA.DIHEDRAL.0>
46.2143

>  <SCORE.INTRA.POLAR>
0.707213

>  <SCORE.INTRA.POLAR.0>
-1.76436

>  <SCORE.INTRA.REPUL>
0

>  <SCORE.INTRA.REPUL.0>
0

>  <SCORE.INTRA.SOLV>
-5.10585

>  <SCORE.INTRA.SOLV.lig_0>
-148.643

>  <SCORE.INTRA.VDW>
1.82884

>  <SCORE.INTRA.VDW.0>
-4.83512

>  <SCORE.INTRA.norm>
-0.276375

>  <SCORE.RESTR>
0

>  <SCORE.RESTR.CAVITY>
0

>  <SCORE.RESTR.norm>
0

>  <SCORE.SYSTEM>
0

>  <SCORE.SYSTEM.CONST>
0

>  <SCORE.SYSTEM.DIHEDRAL>
0

>  <SCORE.SYSTEM.SOLV>
0

>  <SCORE.SYSTEM.norm>
0

>  <SCORE.heavy>
42

>  <SCORE.norm>
-1.16609

>  <RMSD>
1.744

$$$$
1j7t
 OpenBabel11021811393D
libRbt.so/2013.1/901 2013/11/27
 42 45  0  0  0  0  0  0  0  0999 V2000
   30.4972    8.7799   52.8847 C   0  0  2  0  0  0  0  0  0  0  0  0
   31.3786    7.7867   52.3023 O   0  0  0  0  0  0  0  0  0  0  0  0
   29.0688    8.4903   52.3407 C   0  0  2  0  0  0  0  0  0  0  0  0
   28.6028    7.0882   52.5416 N   0  3  0  0  0  0  0  0  0  0  0  0
   29.0661    8.7801   50.8238 C   0  0  1  0  0  0  0  0  0  0  0  0
   27.7966    8.5515   50.2801 O   0  0  0  0  0  0  0  0  0  0  0  0
   29.5176   10.2363   50.5611 C   0  0  2  0  0  0  0  0  0  0  0  0
   29.5016   10.5293   49.1780 O   0  0  0  0  0  0  0  0  0  0  0  0
   30.9183   10.4447   51.0965 C   0  0  2  0  0  0  0  0  0  0  0  0
   30.9477   10.1103   52.4783 O   0  0  0  0  0  0  0  0  0  0  0  0
   31.3890   11.8774   50.9835 C   0  0  0  0  0  0  0  0  0  0  0  0
   31.6156   12.1931   49.6232 O   0  0  0  0  0  0  0  0  0  0  0  0
   34.4802    5.2749   53.6878 C   0  0  2  0  0  0  0  0  0  0  0  0
   35.7016    4.8180   54.3517 N   0  3  0  0  0  0  0  0  0  0  0  0
   34.8342    6.3235   52.5816 C   0  0  0  0  0  0  0  0  0  0  0  0
   33.5471    6.8435   51.9133 C   0  0  2  0  0  0  0  0  0  0  0  0
   33.8570    7.8675   50.9101 N   0  3  0  0  0  0  0  0  0  0  0  0
   32.5951    7.4346   52.9716 C   0  0  2  0  0  0  0  0  0  0  0  0
   32.2508    6.4313   54.0896 C   0  0  2  0  0  0  0  0  0  0  0  0
   31.4941    7.1696   55.0682 O   0  0  0  0  0  0  0  0  0  0  0  0
   33.5468    5.8717   54.7292 C   0  0  1  0  0  0  0  0  0  0  0  0
   33.2096    4.8901   55.6703 O   0  0  0  0  0  0  0  0  0  0  0  0
   30.6660    6.5529   56.0506 C   0  0  1  0  0  0  0  0  0  0  0  0
   30.3850    7.5940   57.1922 C   0  0  2  0  0  0  0  0  0  0  0  0
   31.3627    7.6007   58.2183 O   0  0  0  0  0  0  0  0  0  0  0  0
   29.0151    7.0868   57.6208 C   0  0  2  0  0  0  0  0  0  0  0  0
   29.1161    5.7844   58.2714 O   0  0  0  0  0  0  0  0  0  0  0  0
   28.3032    6.8831   56.2908 C   0  0  2  0  0  0  0  0  0  0  0  0
   29.3452    6.2668   55.5149 O   0  0  0  0  0  0  0  0  0  0  0  0
   27.7524    8.1900   55.6317 C   0  0  0  0  0  0  0  0  0  0  0  0
   28.7880    9.1612   55.4364 O   0  0  0  0  0  0  0  0  0  0  0  0
   27.9021    5.3408   58.8720 C   0  0  2  0  0  0  0  0  0  0  0  0
   27.1689    4.1939   58.0964 C   0  0  2  0  0  0  0  0  0  0  0  0
   26.8320    4.5679   56.6893 N   0  3  0  0  0  0  0  0  0  0  0  0
   25.8861    3.8331   58.9174 C   0  0  1  0  0  0  0  0  0  0  0  0
   26.3367    3.3160   60.2278 O   0  0  0  0  0  0  0  0  0  0  0  0
   24.9513    5.0816   59.1597 C   0  0  2  0  0  0  0  0  0  0  0  0
   24.4701    5.5458   57.8878 O   0  0  0  0  0  0  0  0  0  0  0  0
   25.7968    6.1930   59.9093 C   0  0  1  0  0  0  0  0  0  0  0  0
   26.9694    6.4921   59.0794 O   0  0  0  0  0  0  0  0  0  0  0  0
   25.0220    7.4969   60.2069 C   0  0  0  0  0  0  0  0  0  0  0  0
   25.4393    8.1573   61.4735 N   0  3  0  0  0  0  0  0  0  0  0  0
  1  2  1  6  0  0  0
  1  3  1  0  0  0  0
  1 10  1  0  0  0  0
  3  4  1  6  0  0  0
  3  5  1  0  0  0  0
  5  6  1  1  0  0  0
  5  7  1  0  0  0  0
  7  8  1  6  0  0  0
  7  9  1  0  0  0  0
  9 10  1  0  0  0  0
  9 11  1  1  0  0  0
 11 12  1  0  0  0  0
 13 14  1  1  0  0  0
 13 15  1  0  0  0  0
 13 21  1  0  0  0  0
 15 16  1  0  0  0  0
 16 17  1  6  0  0  0
 16 18  1  0  0  0  0
 18  2  1  6  0  0  0
 18 19  1  0  0  0  0
 19 20  1  1  0  0  0
 19 21  1  0  0  0  0
 21 22  1  1  0  0  0
 23 20  1  6  0  0  0
 23 24  1  0  0  0  0
 23 29  1  0  0  0  0
 24 25  1  1  0  0  0
 24 26  1  0  0  0  0
 26 27  1  6  0  0  0
 26 28  1  0  0  0  0
 28 29  1  0  0  0  0
 28 30  1  6  0  0  0
 30 31  1  0  0  0  0
 32 27  1  6  0  0  0
 32 33  1  0  0  0  0
 32 40  1  0  0  0  0
 33 34  1  6  0  0  0
 33 35  1  0  0  0  0
 35 36  1  1  0  0  0
 35 37  1  0  0  0  0
 37 38  1  6  0  0  0
 37 39  1  0  0  0  0
 39 40  1  0  0  0  0
 39 41  1  6  0  0  0
 41 42  1  0  0  0  0
M  CHG  5   4   1  14   1  17   1  34   1  42   1
M  END
>  <CHROM.1>
-155.09404087,-157.59397877,-73.53183968,-97.74222958,-57.21541057,-70.34985095
-177.17614751,-172.64277472,-66.17782889,161.25449779,162.00677576,170.97082475
-156.77778110,171.24533015,106.10599554,56.50914475,178.88775417,63.53046030
-177.94288034,166.00318498,146.77154602,-158.60862500,29.68535799,7.23232140
55.03516241,0.95368749,0.35051691,-0.94716027

>  <Name>
1j7t

>  <RI>
0

>  <Rbt.Current_Directory>
/home/itssahil/PROJECTS/Mol_Feturizer/New_Systems/rnas/1j7t

>  <Rbt.Executable>
rbdock ($Id: //depot/dev/client3/rdock/2013.1/src/exe/rbdock.cxx#4 $)

>  <Rbt.Library>
libRbt.so (2013.1, Build901 2013/11/27)

>  <Rbt.Parameter_File>
/export/apps/rDock/src/rDock_2013.1_src/data/scripts/dock_solv.prm

>  <Rbt.Receptor>
prm/pocket_docking_2.prm

>  <SCORE>
-61.8336

>  <SCORE.INTER>
-54.2183

>  <SCORE.INTER.CONST>
1

>  <SCORE.INTER.POLAR>
-8.65363

>  <SCORE.INTER.ROT>
9

>  <SCORE.INTER.SOLV>
19.7036

>  <SCORE.INTER.VDW>
-23.468

>  <SCORE.INTER.norm>
-1.29091

>  <SCORE.INTRA>
-8.55469

>  <SCORE.INTRA.DIHEDRAL>
-17.1894

>  <SCORE.INTRA.DIHEDRAL.0>
46.2143

>  <SCORE.INTRA.POLAR>
-0.18187

>  <SCORE.INTRA.POLAR.0>
-1.76436

>  <SCORE.INTRA.REPUL>
0.0527983

>  <SCORE.INTRA.REPUL.0>
0

>  <SCORE.INTRA.SOLV>
1.99801

>  <SCORE.INTRA.SOLV.lig_0>
-148.643

>  <SCORE.INTRA.VDW>
-0.604643

>  <SCORE.INTRA.VDW.0>
-4.83512

>  <SCORE.INTRA.norm>
-0.203683

>  <SCORE.RESTR>
0.939449

>  <SCORE.RESTR.CAVITY>
0.939449

>  <SCORE.RESTR.norm>
0.0223678

>  <SCORE.SYSTEM>
0

>  <SCORE.SYSTEM.CONST>
0

>  <SCORE.SYSTEM.DIHEDRAL>
0

>  <SCORE.SYSTEM.SOLV>
0

>  <SCORE.SYSTEM.norm>
0

>  <SCORE.heavy>
42

>  <SCORE.norm>
-1.47223

>  <RMSD>
1.756

$$$$
1j7t
 OpenBabel11021811393D
libRbt.so/2013.1/901 2013/11/27
 42 45  0  0  0  0  0  0  0  0999 V2000
   30.4910    9.1315   52.6667 C   0  0  2  0  0  0  0  0  0  0  0  0
   31.4408    8.1331   52.2155 O   0  0  0  0  0  0  0  0  0  0  0  0
   29.1248    8.7853   52.0081 C   0  0  2  0  0  0  0  0  0  0  0  0
   28.6680    7.3835   52.2315 N   0  3  0  0  0  0  0  0  0  0  0  0
   29.2577    9.0057   50.4854 C   0  0  1  0  0  0  0  0  0  0  0  0
   28.0485    8.7240   49.8388 O   0  0  0  0  0  0  0  0  0  0  0  0
   29.7049   10.4583   50.1966 C   0  0  2  0  0  0  0  0  0  0  0  0
   29.8120   10.6878   48.8056 O   0  0  0  0  0  0  0  0  0  0  0  0
   31.0457   10.7224   50.8481 C   0  0  2  0  0  0  0  0  0  0  0  0
   30.9528   10.4519   52.2409 O   0  0  0  0  0  0  0  0  0  0  0  0
   31.4986   12.1588   50.7110 C   0  0  0  0  0  0  0  0  0  0  0  0
   32.8962   12.2341   50.9166 O   0  0  0  0  0  0  0  0  0  0  0  0
   34.0283    5.6674   54.4678 C   0  0  2  0  0  0  0  0  0  0  0  0
   35.1400    5.2320   55.3141 N   0  3  0  0  0  0  0  0  0  0  0  0
   34.5780    6.2680   53.1316 C   0  0  0  0  0  0  0  0  0  0  0  0
   33.4129    6.7723   52.2587 C   0  0  2  0  0  0  0  0  0  0  0  0
   33.9134    7.3876   51.0250 N   0  3  0  0  0  0  0  0  0  0  0  0
   32.5660    7.7988   53.0362 C   0  0  2  0  0  0  0  0  0  0  0  0
   32.0338    7.2426   54.3714 C   0  0  2  0  0  0  0  0  0  0  0  0
   31.4064    8.3519   55.0431 O   0  0  0  0  0  0  0  0  0  0  0  0
   33.2011    6.6912   55.2288 C   0  0  1  0  0  0  0  0  0  0  0  0
   32.6820    6.1019   56.3892 O   0  0  0  0  0  0  0  0  0  0  0  0
   30.6299    8.2148   56.2303 C   0  0  1  0  0  0  0  0  0  0  0  0
   30.0639    9.6260   56.6230 C   0  0  2  0  0  0  0  0  0  0  0  0
   30.9339   10.3869   57.4435 O   0  0  0  0  0  0  0  0  0  0  0  0
   28.7829    9.1677   57.3058 C   0  0  2  0  0  0  0  0  0  0  0  0
   29.0721    8.4800   58.5600 O   0  0  0  0  0  0  0  0  0  0  0  0
   28.2354    8.1352   56.3303 C   0  0  2  0  0  0  0  0  0  0  0  0
   29.4358    7.4230   55.9844 O   0  0  0  0  0  0  0  0  0  0  0  0
   27.5059    8.7307   55.0817 C   0  0  0  0  0  0  0  0  0  0  0  0
   26.5168    9.6972   55.4578 O   0  0  0  0  0  0  0  0  0  0  0  0
   28.0596    8.6324   59.5516 C   0  0  2  0  0  0  0  0  0  0  0  0
   28.3963    7.9818   60.9364 C   0  0  2  0  0  0  0  0  0  0  0  0
   28.6736    6.5166   60.8374 N   0  3  0  0  0  0  0  0  0  0  0  0
   27.1870    8.2744   61.8860 C   0  0  1  0  0  0  0  0  0  0  0  0
   27.1058    9.7419   62.0510 O   0  0  0  0  0  0  0  0  0  0  0  0
   25.8171    7.7539   61.2998 C   0  0  2  0  0  0  0  0  0  0  0  0
   25.8796    6.3222   61.1946 O   0  0  0  0  0  0  0  0  0  0  0  0
   25.5931    8.4376   59.8875 C   0  0  1  0  0  0  0  0  0  0  0  0
   26.7513    8.1096   59.0483 O   0  0  0  0  0  0  0  0  0  0  0  0
   24.2916    8.0147   59.1690 C   0  0  0  0  0  0  0  0  0  0  0  0
   24.4375    6.7721   58.3632 N   0  3  0  0  0  0  0  0  0  0  0  0
  1  2  1  6  0  0  0
  1  3  1  0  0  0  0
  1 10  1  0  0  0  0
  3  4  1  6  0  0  0
  3  5  1  0  0  0  0
  5  6  1  6  0  0  0
  5  7  1  0  0  0  0
  7  8  1  6  0  0  0
  7  9  1  0  0  0  0
  9 10  1  0  0  0  0
  9 11  1  1  0  0  0
 11 12  1  0  0  0  0
 13 14  1  1  0  0  0
 13 15  1  0  0  0  0
 13 21  1  0  0  0  0
 15 16  1  0  0  0  0
 16 17  1  6  0  0  0
 16 18  1  0  0  0  0
 18  2  1  6  0  0  0
 18 19  1  0  0  0  0
 19 20  1  1  0  0  0
 19 21  1  0  0  0  0
 21 22  1  1  0  0  0
 23 20  1  6  0  0  0
 23 24  1  0  0  0  0
 23 29  1  0  0  0  0
 24 25  1  1  0  0  0
 24 26  1  0  0  0  0
 26 27  1  1  0  0  0
 26 28  1  0  0  0  0
 28 29  1  0  0  0  0
 28 30  1  6  0  0  0
 30 31  1  0  0  0  0
 32 27  1  6  0  0  0
 32 33  1  0  0  0  0
 32 40  1  0  0  0  0
 33 34  1  6  0  0  0
 33 35  1  0  0  0  0
 35 36  1  6  0  0  0
 35 37  1  0  0  0  0
 37 38  1  6  0  0  0
 37 39  1  0  0  0  0
 39 40  1  0  0  0  0
 39 41  1  6  0  0  0
 41 42  1  0  0  0  0
M  CHG  5   4   1  14   1  17   1  34   1  42   1
M  END
>  <CHROM.1>
-152.46596577,-177.25470675,-60.64154998,60.32508986,176.17633880,-160.21688181
177.26913159,60.25642208,165.94593064,171.13768168,-177.52202265,-53.70657268
-66.58416056,149.07740222,-176.09535697,-50.79332225,174.58170737,45.39167410
-58.42338660,175.44862274,-86.10585653,-55.20093402,29.73317126,8.36947887
55.39156691,1.01393116,0.38553378,-1.21798696

>  <Name>
1j7t

>  <RI>
0

>  <Rbt.Current_Directory>
/home/itssahil/PROJECTS/Mol_Feturizer/New_Systems/rnas/1j7t

>  <Rbt.Executable>
rbdock ($Id: //depot/dev/client3/rdock/2013.1/src/exe/rbdock.cxx#4 $)

>  <Rbt.Library>
libRbt.so (2013.1, Build901 2013/11/27)

>  <Rbt.Parameter_File>
/export/apps/rDock/src/rDock_2013.1_src/data/scripts/dock_solv.prm

>  <Rbt.Receptor>
prm/pocket_docking_5.prm

>  <SCORE>
-71.9823

>  <SCORE.INTER>
-56.1154

>  <SCORE.INTER.CONST>
1

>  <SCORE.INTER.POLAR>
-8.21913

>  <SCORE.INTER.ROT>
9

>  <SCORE.INTER.SOLV>
26.2086

>  <SCORE.INTER.VDW>
-28.3494

>  <SCORE.INTER.norm>
-1.33608

>  <SCORE.INTRA>
-15.8669

>  <SCORE.INTRA.DIHEDRAL>
-32.7594

>  <SCORE.INTRA.DIHEDRAL.0>
46.2143

>  <SCORE.INTRA.POLAR>
0.931901

>  <SCORE.INTRA.POLAR.0>
-1.76436

>  <SCORE.INTRA.REPUL>
0.0153596

>  <SCORE.INTRA.REPUL.0>
0

>  <SCORE.INTRA.SOLV>
-3.18239

>  <SCORE.INTRA.SOLV.lig_0>
-148.643

>  <SCORE.INTRA.VDW>
-1.1412

>  <SCORE.INTRA.VDW.0>
-4.83512

>  <SCORE.INTRA.norm>
-0.377782

>  <SCORE.RESTR>
0

>  <SCORE.RESTR.CAVITY>
0

>  <SCORE.RESTR.norm>
0

>  <SCORE.SYSTEM>
0

>  <SCORE.SYSTEM.CONST>
0

>  <SCORE.SYSTEM.DIHEDRAL>
0

>  <SCORE.SYSTEM.SOLV>
0

>  <SCORE.SYSTEM.norm>
0

>  <SCORE.heavy>
42

>  <SCORE.norm>
-1.71386

>  <RMSD>
1.761

$$$$
1j7t
 OpenBabel11021811393D
libRbt.so/2013.1/901 2013/11/27
 42 45  0  0  0  0  0  0  0  0999 V2000
   30.4126    9.0769   52.7015 C   0  0  2  0  0  0  0  0  0  0  0  0
   31.3783    8.0994   52.2386 O   0  0  0  0  0  0  0  0  0  0  0  0
   29.0971    8.8212   51.9115 C   0  0  2  0  0  0  0  0  0  0  0  0
   28.6009    7.4164   51.9744 N   0  3  0  0  0  0  0  0  0  0  0  0
   29.3534    9.1695   50.4289 C   0  0  1  0  0  0  0  0  0  0  0  0
   28.1946    8.9733   49.6686 O   0  0  0  0  0  0  0  0  0  0  0  0
   29.8460   10.6309   50.3049 C   0  0  2  0  0  0  0  0  0  0  0  0
   30.0664   10.9774   48.9519 O   0  0  0  0  0  0  0  0  0  0  0  0
   31.1354   10.8061   51.0786 C   0  0  2  0  0  0  0  0  0  0  0  0
   30.9284   10.4181   52.4308 O   0  0  0  0  0  0  0  0  0  0  0  0
   31.6214   12.2379   51.1042 C   0  0  0  0  0  0  0  0  0  0  0  0
   31.8277   12.6894   49.7795 O   0  0  0  0  0  0  0  0  0  0  0  0
   34.0523    5.6475   54.4034 C   0  0  2  0  0  0  0  0  0  0  0  0
   35.1756    5.2222   55.2393 N   0  3  0  0  0  0  0  0  0  0  0  0
   34.5851    6.3287   53.0994 C   0  0  0  0  0  0  0  0  0  0  0  0
   33.4058    6.8216   52.2393 C   0  0  2  0  0  0  0  0  0  0  0  0
   33.8881    7.5109   51.0380 N   0  3  0  0  0  0  0  0  0  0  0  0
   32.5112    7.7768   53.0536 C   0  0  2  0  0  0  0  0  0  0  0  0
   31.9939    7.1407   54.3586 C   0  0  2  0  0  0  0  0  0  0  0  0
   31.3157    8.1922   55.0727 O   0  0  0  0  0  0  0  0  0  0  0  0
   33.1775    6.6014   55.2012 C   0  0  1  0  0  0  0  0  0  0  0  0
   32.6760    5.9406   56.3303 O   0  0  0  0  0  0  0  0  0  0  0  0
   30.5435    7.9717   56.2501 C   0  0  1  0  0  0  0  0  0  0  0  0
   30.1413    9.3653   56.8520 C   0  0  2  0  0  0  0  0  0  0  0  0
   31.0998    9.9039   57.7465 O   0  0  0  0  0  0  0  0  0  0  0  0
   28.8261    8.9546   57.4992 C   0  0  2  0  0  0  0  0  0  0  0  0
   29.0532    8.0685   58.6363 O   0  0  0  0  0  0  0  0  0  0  0  0
   28.1562    8.1361   56.4044 C   0  0  2  0  0  0  0  0  0  0  0  0
   29.2665    7.3557   55.9290 O   0  0  0  0  0  0  0  0  0  0  0  0
   27.4815    8.9779   55.2722 C   0  0  0  0  0  0  0  0  0  0  0  0
   26.9196    8.1408   54.2536 O   0  0  0  0  0  0  0  0  0  0  0  0
   28.1302    8.2511   59.7069 C   0  0  2  0  0  0  0  0  0  0  0  0
   28.4982    7.4895   61.0256 C   0  0  2  0  0  0  0  0  0  0  0  0
   28.6282    6.0140   60.8269 N   0  3  0  0  0  0  0  0  0  0  0  0
   27.3901    7.8318   62.0767 C   0  0  1  0  0  0  0  0  0  0  0  0
   27.4596    9.2879   62.3268 O   0  0  0  0  0  0  0  0  0  0  0  0
   25.9401    7.4740   61.5661 C   0  0  2  0  0  0  0  0  0  0  0  0
   25.8596    6.0516   61.3789 O   0  0  0  0  0  0  0  0  0  0  0  0
   25.6852    8.2600   60.2136 C   0  0  1  0  0  0  0  0  0  0  0  0
   26.7468    7.8804   59.2743 O   0  0  0  0  0  0  0  0  0  0  0  0
   24.3033    8.0011   59.5715 C   0  0  0  0  0  0  0  0  0  0  0  0
   23.9997    8.9109   58.4337 N   0  3  0  0  0  0  0  0  0  0  0  0
  1  2  1  6  0  0  0
  1  3  1  0  0  0  0
  1 10  1  0  0  0  0
  3  4  1  6  0  0  0
  3  5  1  0  0  0  0
  5  6  1  6  0  0  0
  5  7  1  0  0  0  0
  7  8  1  6  0  0  0
  7  9  1  0  0  0  0
  9 10  1  0  0  0  0
  9 11  1  1  0  0  0
 11 12  1  0  0  0  0
 13 14  1  1  0  0  0
 13 15  1  0  0  0  0
 13 21  1  0  0  0  0
 15 16  1  0  0  0  0
 16 17  1  6  0  0  0
 16 18  1  0  0  0  0
 18  2  1  6  0  0  0
 18 19  1  0  0  0  0
 19 20  1  1  0  0  0
 19 21  1  0  0  0  0
 21 22  1  1  0  0  0
 23 20  1  6  0  0  0
 23 24  1  0  0  0  0
 23 29  1  0  0  0  0
 24 25  1  1  0  0  0
 24 26  1  0  0  0  0
 26 27  1  1  0  0  0
 26 28  1  0  0  0  0
 28 29  1  0  0  0  0
 28 30  1  6  0  0  0
 30 31  1  0  0  0  0
 32 27  1  6  0  0  0
 32 33  1  0  0  0  0
 32 40  1  0  0  0  0
 33 34  1  6  0  0  0
 33 35  1  0  0  0  0
 35 36  1  6  0  0  0
 35 37  1  0  0  0  0
 37 38  1  6  0  0  0
 37 39  1  0  0  0  0
 39 40  1  0  0  0  0
 39 41  1  6  0  0  0
 41 42  1  0  0  0  0
M  CHG  5   4   1  14   1  17   1  34   1  42   1
M  END
>  <CHROM.1>
-159.23680446,-174.77098449,-38.09649132,55.87784684,-171.81061933,-58.90497339
174.33964769,-60.05856348,-77.19275896,171.47986177,171.84193528,165.83065893
177.73307238,144.95901493,-170.10731367,177.71226318,-179.43297685,159.46144560
-178.26505435,-158.45670151,170.53893779,48.75315000,29.72824609,8.30957069
55.40841442,1.04987426,0.41319242,-1.19139654

>  <Name>
1j7t

>  <RI>
0

>  <Rbt.Current_Directory>
/home/itssahil/PROJECTS/Mol_Feturizer/New_Systems/rnas/1j7t

>  <Rbt.Executable>
rbdock ($Id: //depot/dev/client3/rdock/2013.1/src/exe/rbdock.cxx#4 $)

>  <Rbt.Library>
libRbt.so (2013.1, Build901 2013/11/27)

>  <Rbt.Parameter_File>
/export/apps/rDock/src/rDock_2013.1_src/data/scripts/dock_solv.prm

>  <Rbt.Receptor>
prm/pocket_docking_6.prm

>  <SCORE>
-75.1113

>  <SCORE.INTER>
-54.7014

>  <SCORE.INTER.CONST>
1

>  <SCORE.INTER.POLAR>
-7.59221

>  <SCORE.INTER.ROT>
9

>  <SCORE.INTER.SOLV>
27.4496

>  <SCORE.INTER.VDW>
-29.9101

>  <SCORE.INTER.norm>
-1.30241

>  <SCORE.INTRA>
-20.4099

>  <SCORE.INTRA.DIHEDRAL>
-31.0463

>  <SCORE.INTRA.DIHEDRAL.0>
46.2143

>  <SCORE.INTRA.POLAR>
-0.935881

>  <SCORE.INTRA.POLAR.0>
-1.76436

>  <SCORE.INTRA.REPUL>
0

>  <SCORE.INTRA.REPUL.0>
0

>  <SCORE.INTRA.SOLV>
-3.85733

>  <SCORE.INTRA.SOLV.lig_0>
-148.643

>  <SCORE.INTRA.VDW>
0.223865

>  <SCORE.INTRA.VDW.0>
-4.83512

>  <SCORE.INTRA.norm>
-0.485951

>  <SCORE.RESTR>
0

>  <SCORE.RESTR.CAVITY>
0

>  <SCORE.RESTR.norm>
0

>  <SCORE.SYSTEM>
0

>  <SCORE.SYSTEM.CONST>
0

>  <SCORE.SYSTEM.DIHEDRAL>
0

>  <SCORE.SYSTEM.SOLV>
0

>  <SCORE.SYSTEM.norm>
0

>  <SCORE.heavy>
42

>  <SCORE.norm>
-1.78837

>  <RMSD>
1.786

$$$$
1j7t
 OpenBabel11021811393D
libRbt.so/2013.1/901 2013/11/27
 42 45  0  0  0  0  0  0  0  0999 V2000
   30.1228    9.0132   52.1363 C   0  0  2  0  0  0  0  0  0  0  0  0
   31.1921    8.1447   51.6838 O   0  0  0  0  0  0  0  0  0  0  0  0
   28.9981    8.9413   51.0640 C   0  0  2  0  0  0  0  0  0  0  0  0
   28.5451    7.5593   50.7345 N   0  3  0  0  0  0  0  0  0  0  0  0
   29.5305    9.5894   49.7673 C   0  0  1  0  0  0  0  0  0  0  0  0
   28.5516    9.5679   48.7670 O   0  0  0  0  0  0  0  0  0  0  0  0
   29.9903   11.0395   50.0491 C   0  0  2  0  0  0  0  0  0  0  0  0
   30.4621   11.6591   48.8690 O   0  0  0  0  0  0  0  0  0  0  0  0
   31.0953   11.0364   51.0840 C   0  0  2  0  0  0  0  0  0  0  0  0
   30.6381   10.3762   52.2575 O   0  0  0  0  0  0  0  0  0  0  0  0
   31.5200   12.4264   51.5017 C   0  0  0  0  0  0  0  0  0  0  0  0
   32.4608   12.9307   50.5735 O   0  0  0  0  0  0  0  0  0  0  0  0
   34.0290    5.8311   53.7926 C   0  0  2  0  0  0  0  0  0  0  0  0
   35.1470    5.4637   54.6623 N   0  3  0  0  0  0  0  0  0  0  0  0
   34.5447    6.7019   52.5992 C   0  0  0  0  0  0  0  0  0  0  0  0
   33.3638    7.1317   51.7079 C   0  0  2  0  0  0  0  0  0  0  0  0
   33.8225    7.9938   50.6137 N   0  3  0  0  0  0  0  0  0  0  0  0
   32.3076    7.8819   52.5429 C   0  0  2  0  0  0  0  0  0  0  0  0
   31.8014    7.0575   53.7426 C   0  0  2  0  0  0  0  0  0  0  0  0
   30.9529    7.9396   54.5025 O   0  0  0  0  0  0  0  0  0  0  0  0
   32.9935    6.5842   54.6125 C   0  0  1  0  0  0  0  0  0  0  0  0
   32.5164    5.7552   55.6363 O   0  0  0  0  0  0  0  0  0  0  0  0
   30.1103    7.4987   55.5640 C   0  0  1  0  0  0  0  0  0  0  0  0
   29.3595    8.7443   56.1563 C   0  0  2  0  0  0  0  0  0  0  0  0
   30.0733    9.4118   57.1830 O   0  0  0  0  0  0  0  0  0  0  0  0
   28.0915    8.0391   56.6168 C   0  0  2  0  0  0  0  0  0  0  0  0
   28.3624    7.1517   57.7432 O   0  0  0  0  0  0  0  0  0  0  0  0
   27.7397    7.1682   55.4188 C   0  0  2  0  0  0  0  0  0  0  0  0
   29.0359    6.6575   55.0626 O   0  0  0  0  0  0  0  0  0  0  0  0
   27.0427    7.9217   54.2389 C   0  0  0  0  0  0  0  0  0  0  0  0
   25.8845    8.6408   54.6808 O   0  0  0  0  0  0  0  0  0  0  0  0
   27.2058    6.4938   58.2540 C   0  0  2  0  0  0  0  0  0  0  0  0
   26.1961    7.4304   59.0009 C   0  0  2  0  0  0  0  0  0  0  0  0
   26.8164    8.1506   60.1541 N   0  3  0  0  0  0  0  0  0  0  0  0
   24.9963    6.5366   59.4605 C   0  0  1  0  0  0  0  0  0  0  0  0
   24.3503    6.0099   58.2386 O   0  0  0  0  0  0  0  0  0  0  0  0
   25.4553    5.3202   60.3554 C   0  0  2  0  0  0  0  0  0  0  0  0
   26.0307    5.8359   61.5670 O   0  0  0  0  0  0  0  0  0  0  0  0
   26.5005    4.4644   59.5264 C   0  0  1  0  0  0  0  0  0  0  0  0
   27.6001    5.3578   59.1442 O   0  0  0  0  0  0  0  0  0  0  0  0
   27.0632    3.2360   60.2770 C   0  0  0  0  0  0  0  0  0  0  0  0
   26.0079    2.3128   60.7758 N   0  3  0  0  0  0  0  0  0  0  0  0
  1  2  1  6  0  0  0
  1  3  1  0  0  0  0
  1 10  1  0  0  0  0
  3  4  1  6  0  0  0
  3  5  1  0  0  0  0
  5  6  1  6  0  0  0
  5  7  1  0  0  0  0
  7  8  1  6  0  0  0
  7  9  1  0  0  0  0
  9 10  1  0  0  0  0
  9 11  1  1  0  0  0
 11 12  1  0  0  0  0
 13 14  1  1  0  0  0
 13 15  1  0  0  0  0
 13 21  1  0  0  0  0
 15 16  1  0  0  0  0
 16 17  1  6  0  0  0
 16 18  1  0  0  0  0
 18  2  1  6  0  0  0
 18 19  1  0  0  0  0
 19 20  1  1  0  0  0
 19 21  1  0  0  0  0
 21 22  1  1  0  0  0
 23 20  1  6  0  0  0
 23 24  1  0  0  0  0
 23 29  1  0  0  0  0
 24 25  1  1  0  0  0
 24 26  1  0  0  0  0
 26 27  1  1  0  0  0
 26 28  1  0  0  0  0
 28 29  1  0  0  0  0
 28 30  1  6  0  0  0
 30 31  1  0  0  0  0
 32 27  1  1  0  0  0
 32 33  1  0  0  0  0
 32 40  1  0  0  0  0
 33 34  1  1  0  0  0
 33 35  1  0  0  0  0
 35 36  1  6  0  0  0
 35 37  1  0  0  0  0
 37 38  1  1  0  0  0
 37 39  1  0  0  0  0
 39 40  1  0  0  0  0
 39 41  1  1  0  0  0
 41 42  1  0  0  0  0
M  CHG  5   4   1  14   1  17   1  34   1  42   1
M  END
>  <CHROM.1>
-172.76614024,-170.88309246,-169.75585831,172.80836575,146.07366254,-83.74961692
58.09057212,57.76304927,61.43270526,169.04200508,179.28413959,163.98591084
66.48347265,177.94332145,-69.90537923,-53.74318886,-58.97854157,55.28135400
-174.37180722,179.09548992,55.47683842,-168.30478224,29.47773355,7.69531972
54.82325223,1.04180882,0.34667558,-0.93627322

>  <Name>
1j7t

>  <RI>
0

>  <Rbt.Current_Directory>
/home/itssahil/PROJECTS/Mol_Feturizer/New_Systems/rnas/1j7t

>  <Rbt.Executable>
rbdock ($Id: //depot/dev/client3/rdock/2013.1/src/exe/rbdock.cxx#4 $)

>  <Rbt.Library>
libRbt.so (2013.1, Build901 2013/11/27)

>  <Rbt.Parameter_File>
/export/apps/rDock/src/rDock_2013.1_src/data/scripts/dock_solv.prm

>  <Rbt.Receptor>
prm/pocket_docking_2.prm

>  <SCORE>
-55.5058

>  <SCORE.INTER>
-38.9612

>  <SCORE.INTER.CONST>
1

>  <SCORE.INTER.POLAR>
-5.44988

>  <SCORE.INTER.ROT>
9

>  <SCORE.INTER.SOLV>
26.5876

>  <SCORE.INTER.VDW>
-26.2704

>  <SCORE.INTER.norm>
-0.927647

>  <SCORE.INTRA>
-18.0115

>  <SCORE.INTRA.DIHEDRAL>
-34.9189

>  <SCORE.INTRA.DIHEDRAL.0>
46.2143

>  <SCORE.INTRA.POLAR>
0.98647

>  <SCORE.INTRA.POLAR.0>
-1.76436

>  <SCORE.INTRA.REPUL>
0

>  <SCORE.INTRA.REPUL.0>
0

>  <SCORE.INTRA.SOLV>
-5.90103

>  <SCORE.INTRA.SOLV.lig_0>
-148.643

>  <SCORE.INTRA.VDW>
-0.955536

>  <SCORE.INTRA.VDW.0>
-4.83512

>  <SCORE.INTRA.norm>
-0.428845

>  <SCORE.RESTR>
1.46693

>  <SCORE.RESTR.CAVITY>
1.46693

>  <SCORE.RESTR.norm>
0.034927

>  <SCORE.SYSTEM>
0

>  <SCORE.SYSTEM.CONST>
0

>  <SCORE.SYSTEM.DIHEDRAL>
0

>  <SCORE.SYSTEM.SOLV>
0

>  <SCORE.SYSTEM.norm>
0

>  <SCORE.heavy>
42

>  <SCORE.norm>
-1.32157

>  <RMSD>
1.789

$$$$
1j7t
 OpenBabel11021811393D
libRbt.so/2013.1/901 2013/11/27
 42 45  0  0  0  0  0  0  0  0999 V2000
   30.4471    9.0966   52.9325 C   0  0  2  0  0  0  0  0  0  0  0  0
   31.2185    7.9597   52.4691 O   0  0  0  0  0  0  0  0  0  0  0  0
   28.9679    8.8332   52.5292 C   0  0  2  0  0  0  0  0  0  0  0  0
   28.4271    7.5201   52.9842 N   0  3  0  0  0  0  0  0  0  0  0  0
   28.8764    8.8775   50.9883 C   0  0  1  0  0  0  0  0  0  0  0  0
   27.5594    8.6621   50.5658 O   0  0  0  0  0  0  0  0  0  0  0  0
   29.4019   10.2350   50.4645 C   0  0  2  0  0  0  0  0  0  0  0  0
   29.3069   10.3048   49.0555 O   0  0  0  0  0  0  0  0  0  0  0  0
   30.8476   10.4193   50.8743 C   0  0  2  0  0  0  0  0  0  0  0  0
   30.9532   10.3075   52.2879 O   0  0  0  0  0  0  0  0  0  0  0  0
   31.4013   11.7761   50.5006 C   0  0  0  0  0  0  0  0  0  0  0  0
   31.2428   12.6659   51.5889 O   0  0  0  0  0  0  0  0  0  0  0  0
   34.5563    5.6522   53.6453 C   0  0  2  0  0  0  0  0  0  0  0  0
   35.8511    5.2778   54.2149 N   0  3  0  0  0  0  0  0  0  0  0  0
   34.7604    6.6890   52.4912 C   0  0  0  0  0  0  0  0  0  0  0  0
   33.3963    7.1228   51.9214 C   0  0  2  0  0  0  0  0  0  0  0  0
   33.5663    8.1354   50.8741 N   0  3  0  0  0  0  0  0  0  0  0  0
   32.5032    7.6899   53.0422 C   0  0  2  0  0  0  0  0  0  0  0  0
   32.3072    6.6990   54.2063 C   0  0  2  0  0  0  0  0  0  0  0  0
   31.5938    7.4214   55.2284 O   0  0  0  0  0  0  0  0  0  0  0  0
   33.6800    6.2255   54.7477 C   0  0  1  0  0  0  0  0  0  0  0  0
   33.4753    5.2522   55.7344 O   0  0  0  0  0  0  0  0  0  0  0  0
   30.4194    6.9267   55.8664 C   0  0  1  0  0  0  0  0  0  0  0  0
   30.7554    5.5428   56.5282 C   0  0  2  0  0  0  0  0  0  0  0  0
   30.5861    4.4342   55.6614 O   0  0  0  0  0  0  0  0  0  0  0  0
   29.7664    5.6050   57.6837 C   0  0  2  0  0  0  0  0  0  0  0  0
   28.3912    5.5058   57.2052 O   0  0  0  0  0  0  0  0  0  0  0  0
   29.9668    7.0156   58.2195 C   0  0  2  0  0  0  0  0  0  0  0  0
   30.0460    7.7643   56.9944 O   0  0  0  0  0  0  0  0  0  0  0  0
   31.2285    7.2033   59.1243 C   0  0  0  0  0  0  0  0  0  0  0  0
   31.5065    8.5887   59.3640 O   0  0  0  0  0  0  0  0  0  0  0  0
   27.4243    5.3716   58.2437 C   0  0  2  0  0  0  0  0  0  0  0  0
   27.8898    4.5060   59.4637 C   0  0  2  0  0  0  0  0  0  0  0  0
   28.2862    3.1189   59.0738 N   0  3  0  0  0  0  0  0  0  0  0  0
   26.7128    4.4982   60.4954 C   0  0  1  0  0  0  0  0  0  0  0  0
   26.5148    5.8938   60.9434 O   0  0  0  0  0  0  0  0  0  0  0  0
   25.3631    3.9705   59.8701 C   0  0  2  0  0  0  0  0  0  0  0  0
   25.5426    2.5969   59.4884 O   0  0  0  0  0  0  0  0  0  0  0  0
   25.0054    4.8843   58.6255 C   0  0  1  0  0  0  0  0  0  0  0  0
   26.1405    4.8319   57.6970 O   0  0  0  0  0  0  0  0  0  0  0  0
   23.7082    4.4834   57.8868 C   0  0  0  0  0  0  0  0  0  0  0  0
   23.5905    5.0831   56.5299 N   0  3  0  0  0  0  0  0  0  0  0  0
  1  2  1  6  0  0  0
  1  3  1  0  0  0  0
  1 10  1  0  0  0  0
  3  4  1  6  0  0  0
  3  5  1  0  0  0  0
  5  6  1  1  0  0  0
  5  7  1  0  0  0  0
  7  8  1  6  0  0  0
  7  9  1  0  0  0  0
  9 10  1  0  0  0  0
  9 11  1  1  0  0  0
 11 12  1  0  0  0  0
 13 14  1  1  0  0  0
 13 15  1  0  0  0  0
 13 21  1  0  0  0  0
 15 16  1  0  0  0  0
 16 17  1  6  0  0  0
 16 18  1  0  0  0  0
 18  2  1  6  0  0  0
 18 19  1  0  0  0  0
 19 20  1  1  0  0  0
 19 21  1  0  0  0  0
 21 22  1  1  0  0  0
 23 20  1  1  0  0  0
 23 24  1  0  0  0  0
 23 29  1  0  0  0  0
 24 25  1  6  0  0  0
 24 26  1  0  0  0  0
 26 27  1  6  0  0  0
 26 28  1  0  0  0  0
 28 29  1  0  0  0  0
 28 30  1  6  0  0  0
 30 31  1  0  0  0  0
 32 27  1  6  0  0  0
 32 33  1  0  0  0  0
 32 40  1  0  0  0  0
 33 34  1  6  0  0  0
 33 35  1  0  0  0  0
 35 36  1  6  0  0  0
 35 37  1  0  0  0  0
 37 38  1  6  0  0  0
 37 39  1  0  0  0  0
 39 40  1  0  0  0  0
 39 41  1  6  0  0  0
 41 42  1  0  0  0  0
M  CHG  5   4   1  14   1  17   1  34   1  42   1
M  END
>  <CHROM.1>
-160.01397091,-145.31124991,-50.01470180,-139.76228038,-65.96769002,93.12333108
65.11330184,79.20671080,76.25828045,129.84201404,57.53997756,161.40722600
-50.29488422,171.78986732,-36.43611919,168.06870076,64.20702450,167.37619372
67.79543869,-176.97596765,-163.67893880,161.47486760,29.81976216,6.91689802
55.18707147,1.03731471,0.07770989,-0.98330173

>  <Name>
1j7t

>  <RI>
0

>  <Rbt.Current_Directory>
/home/itssahil/PROJECTS/Mol_Feturizer/New_Systems/rnas/1j7t

>  <Rbt.Executable>
rbdock ($Id: //depot/dev/client3/rdock/2013.1/src/exe/rbdock.cxx#4 $)

>  <Rbt.Library>
libRbt.so (2013.1, Build901 2013/11/27)

>  <Rbt.Parameter_File>
/export/apps/rDock/src/rDock_2013.1_src/data/scripts/dock_solv.prm

>  <Rbt.Receptor>
prm/pocket_docking_3.prm

>  <SCORE>
-58.4732

>  <SCORE.INTER>
-53.3661

>  <SCORE.INTER.CONST>
1

>  <SCORE.INTER.POLAR>
-8.20567

>  <SCORE.INTER.ROT>
9

>  <SCORE.INTER.SOLV>
27.5007

>  <SCORE.INTER.VDW>
-26.992

>  <SCORE.INTER.norm>
-1.27062

>  <SCORE.INTRA>
-5.10716

>  <SCORE.INTRA.DIHEDRAL>
-14.2769

>  <SCORE.INTRA.DIHEDRAL.0>
46.2143

>  <SCORE.INTRA.POLAR>
0.836826

>  <SCORE.INTRA.POLAR.0>
-1.76436

>  <SCORE.INTRA.REPUL>
0

>  <SCORE.INTRA.REPUL.0>
0

>  <SCORE.INTRA.SOLV>
-2.4436

>  <SCORE.INTRA.SOLV.lig_0>
-148.643

>  <SCORE.INTRA.VDW>
0.407902

>  <SCORE.INTRA.VDW.0>
-4.83512

>  <SCORE.INTRA.norm>
-0.121599

>  <SCORE.RESTR>
0

>  <SCORE.RESTR.CAVITY>
0

>  <SCORE.RESTR.norm>
0

>  <SCORE.SYSTEM>
0

>  <SCORE.SYSTEM.CONST>
0

>  <SCORE.SYSTEM.DIHEDRAL>
0

>  <SCORE.SYSTEM.SOLV>
0

>  <SCORE.SYSTEM.norm>
0

>  <SCORE.heavy>
42

>  <SCORE.norm>
-1.39222

>  <RMSD>
1.821

$$$$
1j7t
 OpenBabel11021811393D
libRbt.so/2013.1/901 2013/11/27
 42 45  0  0  0  0  0  0  0  0999 V2000
   30.4852    9.0247   52.4629 C   0  0  2  0  0  0  0  0  0  0  0  0
   31.4312    8.0941   51.8783 O   0  0  0  0  0  0  0  0  0  0  0  0
   29.1285    8.8074   51.7335 C   0  0  2  0  0  0  0  0  0  0  0  0
   28.6493    7.3954   51.7262 N   0  3  0  0  0  0  0  0  0  0  0  0
   29.2953    9.2610   50.2668 C   0  0  1  0  0  0  0  0  0  0  0  0
   28.0961    9.1031   49.5621 O   0  0  0  0  0  0  0  0  0  0  0  0
   29.7669   10.7337   50.2173 C   0  0  2  0  0  0  0  0  0  0  0  0
   29.9054   11.1760   48.8815 O   0  0  0  0  0  0  0  0  0  0  0  0
   31.0974   10.8714   50.9263 C   0  0  2  0  0  0  0  0  0  0  0  0
   30.9726   10.3879   52.2577 O   0  0  0  0  0  0  0  0  0  0  0  0
   31.5714   12.3041   51.0242 C   0  0  0  0  0  0  0  0  0  0  0  0
   31.9294   12.7711   49.7377 O   0  0  0  0  0  0  0  0  0  0  0  0
   34.5599    5.6840   53.3784 C   0  0  2  0  0  0  0  0  0  0  0  0
   35.7822    5.2707   54.0688 N   0  3  0  0  0  0  0  0  0  0  0  0
   34.9072    6.6990   52.2394 C   0  0  0  0  0  0  0  0  0  0  0  0
   33.6183    7.1741   51.5419 C   0  0  2  0  0  0  0  0  0  0  0  0
   33.9209    8.1675   50.5063 N   0  3  0  0  0  0  0  0  0  0  0  0
   32.6467    7.7858   52.5703 C   0  0  2  0  0  0  0  0  0  0  0  0
   32.3083    6.8165   53.7197 C   0  0  2  0  0  0  0  0  0  0  0  0
   31.5304    7.5758   54.6650 O   0  0  0  0  0  0  0  0  0  0  0  0
   33.6071    6.3011   54.3899 C   0  0  1  0  0  0  0  0  0  0  0  0
   33.2769    5.3474   55.3618 O   0  0  0  0  0  0  0  0  0  0  0  0
   30.4576    7.0239   55.4237 C   0  0  1  0  0  0  0  0  0  0  0  0
   30.2113    7.9362   56.6779 C   0  0  2  0  0  0  0  0  0  0  0  0
   31.0022    7.5935   57.8030 O   0  0  0  0  0  0  0  0  0  0  0  0
   28.7199    7.6818   56.8462 C   0  0  2  0  0  0  0  0  0  0  0  0
   28.4655    6.3122   57.2811 O   0  0  0  0  0  0  0  0  0  0  0  0
   28.1951    7.8182   55.4238 C   0  0  2  0  0  0  0  0  0  0  0  0
   29.2048    7.1036   54.6906 O   0  0  0  0  0  0  0  0  0  0  0  0
   28.0158    9.2900   54.9263 C   0  0  0  0  0  0  0  0  0  0  0  0
   26.9861    9.9725   55.6528 O   0  0  0  0  0  0  0  0  0  0  0  0
   28.5842    6.1193   58.6883 C   0  0  2  0  0  0  0  0  0  0  0  0
   28.5226    4.6240   59.1515 C   0  0  2  0  0  0  0  0  0  0  0  0
   27.2610    3.9389   58.7361 N   0  3  0  0  0  0  0  0  0  0  0  0
   28.6930    4.6190   60.7074 C   0  0  1  0  0  0  0  0  0  0  0  0
   30.0382    5.1588   61.0016 O   0  0  0  0  0  0  0  0  0  0  0  0
   27.6172    5.5143   61.4371 C   0  0  2  0  0  0  0  0  0  0  0  0
   26.3164    4.9535   61.1957 O   0  0  0  0  0  0  0  0  0  0  0  0
   27.7357    6.9893   60.8695 C   0  0  1  0  0  0  0  0  0  0  0  0
   27.5507    6.9203   59.4154 O   0  0  0  0  0  0  0  0  0  0  0  0
   26.7292    7.9933   61.4763 C   0  0  0  0  0  0  0  0  0  0  0  0
   25.4026    7.3911   61.7795 N   0  3  0  0  0  0  0  0  0  0  0  0
  1  2  1  6  0  0  0
  1  3  1  0  0  0  0
  1 10  1  0  0  0  0
  3  4  1  6  0  0  0
  3  5  1  0  0  0  0
  5  6  1  6  0  0  0
  5  7  1  0  0  0  0
  7  8  1  6  0  0  0
  7  9  1  0  0  0  0
  9 10  1  0  0  0  0
  9 11  1  1  0  0  0
 11 12  1  0  0  0  0
 13 14  1  1  0  0  0
 13 15  1  0  0  0  0
 13 21  1  0  0  0  0
 15 16  1  0  0  0  0
 16 17  1  6  0  0  0
 16 18  1  0  0  0  0
 18  2  1  6  0  0  0
 18 19  1  0  0  0  0
 19 20  1  1  0  0  0
 19 21  1  0  0  0  0
 21 22  1  1  0  0  0
 23 20  1  6  0  0  0
 23 24  1  0  0  0  0
 23 29  1  0  0  0  0
 24 25  1  1  0  0  0
 24 26  1  0  0  0  0
 26 27  1  6  0  0  0
 26 28  1  0  0  0  0
 28 29  1  0  0  0  0
 28 30  1  6  0  0  0
 30 31  1  0  0  0  0
 32 27  1  6  0  0  0
 32 33  1  0  0  0  0
 32 40  1  0  0  0  0
 33 34  1  1  0  0  0
 33 35  1  0  0  0  0
 35 36  1  6  0  0  0
 35 37  1  0  0  0  0
 37 38  1  6  0  0  0
 37 39  1  0  0  0  0
 39 40  1  0  0  0  0
 39 41  1  1  0  0  0
 41 42  1  0  0  0  0
M  CHG  5   4   1  14   1  17   1  34   1  42   1
M  END
>  <CHROM.1>
-162.59641383,-161.78415651,57.70482055,-176.93415687,-54.92056519,-69.48452276
-58.40241650,-45.15630366,177.92337947,144.60074601,159.25882463,66.57050404
-55.34674183,83.50429110,-171.47835384,-66.30169595,-56.95193839,-75.17174450
-65.30997735,64.78874300,-35.29016009,-153.63443534,30.07825814,7.65275477
55.05285099,1.14760455,0.46385260,-1.02070027

>  <Name>
1j7t

>  <RI>
0

>  <Rbt.Current_Directory>
/home/itssahil/PROJECTS/Mol_Feturizer/New_Systems/rnas/1j7t

>  <Rbt.Executable>
rbdock ($Id: //depot/dev/client3/rdock/2013.1/src/exe/rbdock.cxx#4 $)

>  <Rbt.Library>
libRbt.so (2013.1, Build901 2013/11/27)

>  <Rbt.Parameter_File>
/export/apps/rDock/src/rDock_2013.1_src/data/scripts/dock_solv.prm

>  <Rbt.Receptor>
prm/pocket_docking_5.prm

>  <SCORE>
-64.3943

>  <SCORE.INTER>
-46.9791

>  <SCORE.INTER.CONST>
1

>  <SCORE.INTER.POLAR>
-6.59471

>  <SCORE.INTER.ROT>
9

>  <SCORE.INTER.SOLV>
24.8079

>  <SCORE.INTER.VDW>
-27.2063

>  <SCORE.INTER.norm>
-1.11855

>  <SCORE.INTRA>
-17.4152

>  <SCORE.INTRA.DIHEDRAL>
-27.7687

>  <SCORE.INTRA.DIHEDRAL.0>
46.2143

>  <SCORE.INTRA.POLAR>
-0.293294

>  <SCORE.INTRA.POLAR.0>
-1.76436

>  <SCORE.INTRA.REPUL>
0

>  <SCORE.INTRA.REPUL.0>
0

>  <SCORE.INTRA.SOLV>
-0.45105

>  <SCORE.INTRA.SOLV.lig_0>
-148.643

>  <SCORE.INTRA.VDW>
-2.30807

>  <SCORE.INTRA.VDW.0>
-4.83512

>  <SCORE.INTRA.norm>
-0.414647

>  <SCORE.RESTR>
0

>  <SCORE.RESTR.CAVITY>
0

>  <SCORE.RESTR.norm>
0

>  <SCORE.SYSTEM>
0

>  <SCORE.SYSTEM.CONST>
0

>  <SCORE.SYSTEM.DIHEDRAL>
0

>  <SCORE.SYSTEM.SOLV>
0

>  <SCORE.SYSTEM.norm>
0

>  <SCORE.heavy>
42

>  <SCORE.norm>
-1.5332

>  <RMSD>
1.825

$$$$
1j7t
 OpenBabel11021811393D
libRbt.so/2013.1/901 2013/11/27
 42 45  0  0  0  0  0  0  0  0999 V2000
   30.8006    9.6059   52.1251 C   0  0  2  0  0  0  0  0  0  0  0  0
   31.3715    8.3642   51.6405 O   0  0  0  0  0  0  0  0  0  0  0  0
   29.4632    9.8173   51.3592 C   0  0  2  0  0  0  0  0  0  0  0  0
   28.5226    8.6621   51.4264 N   0  3  0  0  0  0  0  0  0  0  0  0
   29.7975   10.0731   49.8734 C   0  0  1  0  0  0  0  0  0  0  0  0
   28.6280   10.2873   49.1344 O   0  0  0  0  0  0  0  0  0  0  0  0
   30.7527   11.2833   49.7453 C   0  0  2  0  0  0  0  0  0  0  0  0
   31.0548   11.5483   48.3897 O   0  0  0  0  0  0  0  0  0  0  0  0
   32.0382   11.0051   50.4951 C   0  0  2  0  0  0  0  0  0  0  0  0
   31.7347   10.6966   51.8496 O   0  0  0  0  0  0  0  0  0  0  0  0
   32.9797   12.1883   50.5167 C   0  0  0  0  0  0  0  0  0  0  0  0
   32.3499   13.2802   51.1589 O   0  0  0  0  0  0  0  0  0  0  0  0
   33.9554    5.2723   52.9098 C   0  0  2  0  0  0  0  0  0  0  0  0
   35.0350    4.5628   53.5972 N   0  3  0  0  0  0  0  0  0  0  0  0
   34.5519    6.3823   51.9822 C   0  0  0  0  0  0  0  0  0  0  0  0
   33.4166    7.1640   51.2939 C   0  0  2  0  0  0  0  0  0  0  0  0
   33.9565    8.2441   50.4616 N   0  3  0  0  0  0  0  0  0  0  0  0
   32.4601    7.7578   52.3466 C   0  0  2  0  0  0  0  0  0  0  0  0
   31.8783    6.6892   53.2927 C   0  0  2  0  0  0  0  0  0  0  0  0
   31.1421    7.4082   54.3009 O   0  0  0  0  0  0  0  0  0  0  0  0
   33.0197    5.8709   53.9480 C   0  0  1  0  0  0  0  0  0  0  0  0
   32.4643    4.8439   54.7226 O   0  0  0  0  0  0  0  0  0  0  0  0
   30.2850    6.7770   55.2486 C   0  0  1  0  0  0  0  0  0  0  0  0
   30.4011    7.5425   56.6148 C   0  0  2  0  0  0  0  0  0  0  0  0
   31.4449    7.0726   57.4508 O   0  0  0  0  0  0  0  0  0  0  0  0
   28.9967    7.2747   57.1376 C   0  0  2  0  0  0  0  0  0  0  0  0
   28.8198    5.8654   57.4727 O   0  0  0  0  0  0  0  0  0  0  0  0
   28.1263    7.5723   55.9247 C   0  0  2  0  0  0  0  0  0  0  0  0
   28.8884    6.9424   54.8806 O   0  0  0  0  0  0  0  0  0  0  0  0
   27.8717    9.0914   55.6537 C   0  0  0  0  0  0  0  0  0  0  0  0
   28.1242    9.4345   54.2854 O   0  0  0  0  0  0  0  0  0  0  0  0
   28.6208    5.6205   58.8626 C   0  0  2  0  0  0  0  0  0  0  0  0
   28.2050    4.1519   59.2157 C   0  0  2  0  0  0  0  0  0  0  0  0
   26.9501    3.7224   58.5272 N   0  3  0  0  0  0  0  0  0  0  0  0
   28.0598    4.0786   60.7724 C   0  0  1  0  0  0  0  0  0  0  0  0
   29.3937    4.3528   61.3494 O   0  0  0  0  0  0  0  0  0  0  0  0
   27.0363    5.1400   61.3355 C   0  0  2  0  0  0  0  0  0  0  0  0
   25.7310    4.8356   60.8176 O   0  0  0  0  0  0  0  0  0  0  0  0
   27.5240    6.5807   60.8899 C   0  0  1  0  0  0  0  0  0  0  0  0
   27.6220    6.5816   59.4257 O   0  0  0  0  0  0  0  0  0  0  0  0
   26.6110    7.7389   61.3523 C   0  0  0  0  0  0  0  0  0  0  0  0
   25.1931    7.5798   60.9292 N   0  3  0  0  0  0  0  0  0  0  0  0
  1  2  1  6  0  0  0
  1  3  1  0  0  0  0
  1 10  1  0  0  0  0
  3  4  1  6  0  0  0
  3  5  1  0  0  0  0
  5  6  1  6  0  0  0
  5  7  1  0  0  0  0
  7  8  1  6  0  0  0
  7  9  1  0  0  0  0
  9 10  1  0  0  0  0
  9 11  1  1  0  0  0
 11 12  1  0  0  0  0
 13 14  1  1  0  0  0
 13 15  1  0  0  0  0
 13 21  1  0  0  0  0
 15 16  1  0  0  0  0
 16 17  1  1  0  0  0
 16 18  1  0  0  0  0
 18  2  1  6  0  0  0
 18 19  1  0  0  0  0
 19 20  1  1  0  0  0
 19 21  1  0  0  0  0
 21 22  1  6  0  0  0
 23 20  1  6  0  0  0
 23 24  1  0  0  0  0
 23 29  1  0  0  0  0
 24 25  1  1  0  0  0
 24 26  1  0  0  0  0
 26 27  1  6  0  0  0
 26 28  1  0  0  0  0
 28 29  1  0  0  0  0
 28 30  1  6  0  0  0
 30 31  1  0  0  0  0
 32 27  1  6  0  0  0
 32 33  1  0  0  0  0
 32 40  1  0  0  0  0
 33 34  1  6  0  0  0
 33 35  1  0  0  0  0
 35 36  1  1  0  0  0
 35 37  1  0  0  0  0
 37 38  1  6  0  0  0
 37 39  1  0  0  0  0
 39 40  1  0  0  0  0
 39 41  1  6  0  0  0
 41 42  1  0  0  0  0
M  CHG  5   4   1  14   1  17   1  34   1  42   1
M  END
>  <CHROM.1>
-167.10160792,-142.18446874,70.92186812,75.24962511,-53.20598413,60.61841342
68.47643163,-65.18137010,-65.96332095,170.15290038,143.89189902,152.06445006
-63.16428649,114.04980950,170.77824145,130.84668234,107.10657933,-60.94169437
169.23353750,61.04920465,-55.27336183,159.47802245,30.09940066,7.59802427
54.87182512,1.09142060,0.57758601,-0.86982490

>  <Name>
1j7t

>  <RI>
0

>  <Rbt.Current_Directory>
/home/itssahil/PROJECTS/Mol_Feturizer/New_Systems/rnas/1j7t

>  <Rbt.Executable>
rbdock ($Id: //depot/dev/client3/rdock/2013.1/src/exe/rbdock.cxx#4 $)

>  <Rbt.Library>
libRbt.so (2013.1, Build901 2013/11/27)

>  <Rbt.Parameter_File>
/export/apps/rDock/src/rDock_2013.1_src/data/scripts/dock_solv.prm

>  <Rbt.Receptor>
prm/pocket_docking_5.prm

>  <SCORE>
-54.9426

>  <SCORE.INTER>
-46.6187

>  <SCORE.INTER.CONST>
1

>  <SCORE.INTER.POLAR>
-6.9405

>  <SCORE.INTER.ROT>
9

>  <SCORE.INTER.SOLV>
25.6928

>  <SCORE.INTER.VDW>
-26.1084

>  <SCORE.INTER.norm>
-1.10997

>  <SCORE.INTRA>
-8.32398

>  <SCORE.INTRA.DIHEDRAL>
-9.52139

>  <SCORE.INTRA.DIHEDRAL.0>
46.2143

>  <SCORE.INTRA.POLAR>
-0.590379

>  <SCORE.INTRA.POLAR.0>
-1.76436

>  <SCORE.INTRA.REPUL>
0

>  <SCORE.INTRA.REPUL.0>
0

>  <SCORE.INTRA.SOLV>
2.15367

>  <SCORE.INTRA.SOLV.lig_0>
-148.643

>  <SCORE.INTRA.VDW>
-2.63283

>  <SCORE.INTRA.VDW.0>
-4.83512

>  <SCORE.INTRA.norm>
-0.19819

>  <SCORE.RESTR>
0

>  <SCORE.RESTR.CAVITY>
0

>  <SCORE.RESTR.norm>
0

>  <SCORE.SYSTEM>
0

>  <SCORE.SYSTEM.CONST>
0

>  <SCORE.SYSTEM.DIHEDRAL>
0

>  <SCORE.SYSTEM.SOLV>
0

>  <SCORE.SYSTEM.norm>
0

>  <SCORE.heavy>
42

>  <SCORE.norm>
-1.30816

>  <RMSD>
1.872

$$$$
1j7t
 OpenBabel11021811393D
libRbt.so/2013.1/901 2013/11/27
 42 45  0  0  0  0  0  0  0  0999 V2000
   30.6212    9.0563   52.8428 C   0  0  2  0  0  0  0  0  0  0  0  0
   31.4302    7.9399   52.3938 O   0  0  0  0  0  0  0  0  0  0  0  0
   29.1939    8.8420   52.2621 C   0  0  2  0  0  0  0  0  0  0  0  0
   28.5954    7.5108   52.5673 N   0  3  0  0  0  0  0  0  0  0  0  0
   29.2748    8.9868   50.7267 C   0  0  1  0  0  0  0  0  0  0  0  0
   28.0113    8.8193   50.1481 O   0  0  0  0  0  0  0  0  0  0  0  0
   29.8662   10.3671   50.3545 C   0  0  2  0  0  0  0  0  0  0  0  0
   29.9292   10.5289   48.9513 O   0  0  0  0  0  0  0  0  0  0  0  0
   31.2589   10.5024   50.9327 C   0  0  2  0  0  0  0  0  0  0  0  0
   31.2056   10.2983   52.3390 O   0  0  0  0  0  0  0  0  0  0  0  0
   31.8616   11.8718   50.7124 C   0  0  0  0  0  0  0  0  0  0  0  0
   31.0759   12.8446   51.3739 O   0  0  0  0  0  0  0  0  0  0  0  0
   34.1074    5.3022   54.3234 C   0  0  2  0  0  0  0  0  0  0  0  0
   35.2449    4.8021   55.0963 N   0  3  0  0  0  0  0  0  0  0  0  0
   34.6167    6.0473   53.0452 C   0  0  0  0  0  0  0  0  0  0  0  0
   33.4241    6.6178   52.2540 C   0  0  2  0  0  0  0  0  0  0  0  0
   33.8863    7.3660   51.0804 N   0  3  0  0  0  0  0  0  0  0  0  0
   32.5791    7.5432   53.1514 C   0  0  2  0  0  0  0  0  0  0  0  0
   32.0865    6.8427   54.4328 C   0  0  2  0  0  0  0  0  0  0  0  0
   31.4572    7.8652   55.2289 O   0  0  0  0  0  0  0  0  0  0  0  0
   33.2817    6.2269   55.2037 C   0  0  1  0  0  0  0  0  0  0  0  0
   32.7988    5.5118   56.3075 O   0  0  0  0  0  0  0  0  0  0  0  0
   30.4897    7.5910   56.2389 C   0  0  1  0  0  0  0  0  0  0  0  0
   30.2133    8.9141   57.0383 C   0  0  2  0  0  0  0  0  0  0  0  0
   31.0934    9.1214   58.1299 O   0  0  0  0  0  0  0  0  0  0  0  0
   28.7681    8.6380   57.4287 C   0  0  2  0  0  0  0  0  0  0  0  0
   28.6834    7.5500   58.3976 O   0  0  0  0  0  0  0  0  0  0  0  0
   28.1588    8.1419   56.1249 C   0  0  2  0  0  0  0  0  0  0  0  0
   29.1993    7.2693   55.6519 O   0  0  0  0  0  0  0  0  0  0  0  0
   27.7988    9.2644   55.0971 C   0  0  0  0  0  0  0  0  0  0  0  0
   26.7302   10.0933   55.5714 O   0  0  0  0  0  0  0  0  0  0  0  0
   27.3502    7.1548   58.7104 C   0  0  2  0  0  0  0  0  0  0  0  0
   26.3714    8.3388   59.0176 C   0  0  2  0  0  0  0  0  0  0  0  0
   26.8348    9.1960   60.1507 N   0  3  0  0  0  0  0  0  0  0  0  0
   24.9686    7.7093   59.3103 C   0  0  1  0  0  0  0  0  0  0  0  0
   24.5277    7.0294   58.0730 O   0  0  0  0  0  0  0  0  0  0  0  0
   25.0119    6.6520   60.4814 C   0  0  2  0  0  0  0  0  0  0  0  0
   25.3853    7.3277   61.6934 O   0  0  0  0  0  0  0  0  0  0  0  0
   26.0563    5.5256   60.0910 C   0  0  1  0  0  0  0  0  0  0  0  0
   27.3456    6.1825   59.8475 O   0  0  0  0  0  0  0  0  0  0  0  0
   26.2288    4.4149   61.1519 C   0  0  0  0  0  0  0  0  0  0  0  0
   25.0120    3.5780   61.3357 N   0  3  0  0  0  0  0  0  0  0  0  0
  1  2  1  6  0  0  0
  1  3  1  0  0  0  0
  1 10  1  0  0  0  0
  3  4  1  6  0  0  0
  3  5  1  0  0  0  0
  5  6  1  6  0  0  0
  5  7  1  0  0  0  0
  7  8  1  6  0  0  0
  7  9  1  0  0  0  0
  9 10  1  0  0  0  0
  9 11  1  1  0  0  0
 11 12  1  0  0  0  0
 13 14  1  1  0  0  0
 13 15  1  0  0  0  0
 13 21  1  0  0  0  0
 15 16  1  0  0  0  0
 16 17  1  6  0  0  0
 16 18  1  0  0  0  0
 18  2  1  6  0  0  0
 18 19  1  0  0  0  0
 19 20  1  1  0  0  0
 19 21  1  0  0  0  0
 21 22  1  1  0  0  0
 23 20  1  6  0  0  0
 23 24  1  0  0  0  0
 23 29  1  0  0  0  0
 24 25  1  1  0  0  0
 24 26  1  0  0  0  0
 26 27  1  1  0  0  0
 26 28  1  0  0  0  0
 28 29  1  0  0  0  0
 28 30  1  6  0  0  0
 30 31  1  0  0  0  0
 32 27  1  1  0  0  0
 32 33  1  0  0  0  0
 32 40  1  0  0  0  0
 33 34  1  1  0  0  0
 33 35  1  0  0  0  0
 35 36  1  6  0  0  0
 35 37  1  0  0  0  0
 37 38  1  1  0  0  0
 37 39  1  0  0  0  0
 39 40  1  0  0  0  0
 39 41  1  1  0  0  0
 41 42  1  0  0  0  0
M  CHG  5   4   1  14   1  17   1  34   1  42   1
M  END
>  <CHROM.1>
-154.73866358,-165.05907848,49.30215233,-176.10468814,-55.78606524,62.43615310
-173.49115122,179.15925275,161.71706622,157.59813209,170.86146733,76.05006743
174.98341504,-174.35381193,-46.91296008,-67.02535408,60.21514135,169.36304355
-58.16441793,68.94742160,66.36624952,73.52160741,29.55279831,7.89950065,55.37532185
0.92587003,0.44745535,-0.99017565

>  <Name>
1j7t

>  <RI>
0

>  <Rbt.Current_Directory>
/home/itssahil/PROJECTS/Mol_Feturizer/New_Systems/rnas/1j7t

>  <Rbt.Executable>
rbdock ($Id: //depot/dev/client3/rdock/2013.1/src/exe/rbdock.cxx#4 $)

>  <Rbt.Library>
libRbt.so (2013.1, Build901 2013/11/27)

>  <Rbt.Parameter_File>
/export/apps/rDock/src/rDock_2013.1_src/data/scripts/dock_solv.prm

>  <Rbt.Receptor>
prm/pocket_docking_5.prm

>  <SCORE>
-68.0501

>  <SCORE.INTER>
-48.4079

>  <SCORE.INTER.CONST>
1

>  <SCORE.INTER.POLAR>
-7.24379

>  <SCORE.INTER.ROT>
9

>  <SCORE.INTER.SOLV>
23.2919

>  <SCORE.INTER.VDW>
-25.4899

>  <SCORE.INTER.norm>
-1.15257

>  <SCORE.INTRA>
-19.6422

>  <SCORE.INTRA.DIHEDRAL>
-33.9581

>  <SCORE.INTRA.DIHEDRAL.0>
46.2143

>  <SCORE.INTRA.POLAR>
0.0311434

>  <SCORE.INTRA.POLAR.0>
-1.76436

>  <SCORE.INTRA.REPUL>
0

>  <SCORE.INTRA.REPUL.0>
0

>  <SCORE.INTRA.SOLV>
-2.48931

>  <SCORE.INTRA.SOLV.lig_0>
-148.643

>  <SCORE.INTRA.VDW>
-1.52435

>  <SCORE.INTRA.VDW.0>
-4.83512

>  <SCORE.INTRA.norm>
-0.46767

>  <SCORE.RESTR>
0

>  <SCORE.RESTR.CAVITY>
0

>  <SCORE.RESTR.norm>
0

>  <SCORE.SYSTEM>
0

>  <SCORE.SYSTEM.CONST>
0

>  <SCORE.SYSTEM.DIHEDRAL>
0

>  <SCORE.SYSTEM.SOLV>
0

>  <SCORE.SYSTEM.norm>
0

>  <SCORE.heavy>
42

>  <SCORE.norm>
-1.62024

>  <RMSD>
1.882

$$$$
1j7t
 OpenBabel11021811393D
libRbt.so/2013.1/901 2013/11/27
 42 45  0  0  0  0  0  0  0  0999 V2000
   30.3915    8.8445   52.5918 C   0  0  2  0  0  0  0  0  0  0  0  0
   31.3097    7.9737   51.8839 O   0  0  0  0  0  0  0  0  0  0  0  0
   28.9969    8.6676   51.9257 C   0  0  2  0  0  0  0  0  0  0  0  0
   28.5292    7.2546   51.8355 N   0  3  0  0  0  0  0  0  0  0  0  0
   29.0757    9.2353   50.4916 C   0  0  1  0  0  0  0  0  0  0  0  0
   27.8393    9.1176   49.8459 O   0  0  0  0  0  0  0  0  0  0  0  0
   29.5320   10.7131   50.5304 C   0  0  2  0  0  0  0  0  0  0  0  0
   29.5901   11.2591   49.2275 O   0  0  0  0  0  0  0  0  0  0  0  0
   30.8999   10.8119   51.1716 C   0  0  2  0  0  0  0  0  0  0  0  0
   30.8555   10.2255   52.4662 O   0  0  0  0  0  0  0  0  0  0  0  0
   31.3674   12.2386   51.3538 C   0  0  0  0  0  0  0  0  0  0  0  0
   31.7877   12.7597   50.1076 O   0  0  0  0  0  0  0  0  0  0  0  0
   33.9393    4.8959   53.0921 C   0  0  2  0  0  0  0  0  0  0  0  0
   35.0235    4.1867   53.7725 N   0  3  0  0  0  0  0  0  0  0  0  0
   34.5257    6.0474   52.2097 C   0  0  0  0  0  0  0  0  0  0  0  0
   33.3843    6.8275   51.5299 C   0  0  2  0  0  0  0  0  0  0  0  0
   33.9134    7.9449   50.7409 N   0  3  0  0  0  0  0  0  0  0  0  0
   32.4005    7.3671   52.5865 C   0  0  2  0  0  0  0  0  0  0  0  0
   31.8277    6.2568   53.4889 C   0  0  2  0  0  0  0  0  0  0  0  0
   31.0620    6.9274   54.5084 O   0  0  0  0  0  0  0  0  0  0  0  0
   32.9764    5.4412   54.1347 C   0  0  1  0  0  0  0  0  0  0  0  0
   32.4315    4.3785   54.8674 O   0  0  0  0  0  0  0  0  0  0  0  0
   30.0145    6.3014   55.2446 C   0  0  1  0  0  0  0  0  0  0  0  0
   30.1831    6.6667   56.7625 C   0  0  2  0  0  0  0  0  0  0  0  0
   31.0287    5.7815   57.4769 O   0  0  0  0  0  0  0  0  0  0  0  0
   28.7165    6.6119   57.1667 C   0  0  2  0  0  0  0  0  0  0  0  0
   28.2112    5.2433   57.1295 O   0  0  0  0  0  0  0  0  0  0  0  0
   28.0326    7.3857   56.0483 C   0  0  2  0  0  0  0  0  0  0  0  0
   28.7216    6.8680   54.8972 O   0  0  0  0  0  0  0  0  0  0  0  0
   28.1367    8.9417   56.1649 C   0  0  0  0  0  0  0  0  0  0  0  0
   27.9046    9.5836   54.9047 O   0  0  0  0  0  0  0  0  0  0  0  0
   27.4674    4.8683   58.2861 C   0  0  2  0  0  0  0  0  0  0  0  0
   26.6184    3.5618   58.1232 C   0  0  2  0  0  0  0  0  0  0  0  0
   25.6379    3.6430   56.9983 N   0  3  0  0  0  0  0  0  0  0  0  0
   25.9025    3.3072   59.4916 C   0  0  1  0  0  0  0  0  0  0  0  0
   26.9583    3.0722   60.5003 O   0  0  0  0  0  0  0  0  0  0  0  0
   25.0248    4.5351   59.9534 C   0  0  2  0  0  0  0  0  0  0  0  0
   23.9662    4.7242   59.0003 O   0  0  0  0  0  0  0  0  0  0  0  0
   25.9658    5.8071   60.0464 C   0  0  1  0  0  0  0  0  0  0  0  0
   26.5883    5.9943   58.7308 O   0  0  0  0  0  0  0  0  0  0  0  0
   25.2472    7.1072   60.4734 C   0  0  0  0  0  0  0  0  0  0  0  0
   25.5619    7.5274   61.8658 N   0  3  0  0  0  0  0  0  0  0  0  0
  1  2  1  6  0  0  0
  1  3  1  0  0  0  0
  1 10  1  0  0  0  0
  3  4  1  6  0  0  0
  3  5  1  0  0  0  0
  5  6  1  1  0  0  0
  5  7  1  0  0  0  0
  7  8  1  6  0  0  0
  7  9  1  0  0  0  0
  9 10  1  0  0  0  0
  9 11  1  1  0  0  0
 11 12  1  0  0  0  0
 13 14  1  1  0  0  0
 13 15  1  0  0  0  0
 13 21  1  0  0  0  0
 15 16  1  0  0  0  0
 16 17  1  1  0  0  0
 16 18  1  0  0  0  0
 18  2  1  6  0  0  0
 18 19  1  0  0  0  0
 19 20  1  1  0  0  0
 19 21  1  0  0  0  0
 21 22  1  6  0  0  0
 23 20  1  6  0  0  0
 23 24  1  0  0  0  0
 23 29  1  0  0  0  0
 24 25  1  1  0  0  0
 24 26  1  0  0  0  0
 26 27  1  6  0  0  0
 26 28  1  0  0  0  0
 28 29  1  0  0  0  0
 28 30  1  1  0  0  0
 30 31  1  0  0  0  0
 32 27  1  6  0  0  0
 32 33  1  0  0  0  0
 32 40  1  0  0  0  0
 33 34  1  6  0  0  0
 33 35  1  0  0  0  0
 35 36  1  1  0  0  0
 35 37  1  0  0  0  0
 37 38  1  6  0  0  0
 37 39  1  0  0  0  0
 39 40  1  0  0  0  0
 39 41  1  6  0  0  0
 41 42  1  0  0  0  0
M  CHG  5   4   1  14   1  17   1  34   1  42   1
M  END
>  <CHROM.1>
-147.50675812,-165.25398855,-62.92258493,-70.86594016,94.50048050,-75.91442497
51.63449288,-48.38899328,178.38902861,157.31817396,135.06879066,70.86988067
164.06792286,132.99378573,165.19824398,159.77399999,-165.49153562,-66.65884694
-47.43416446,68.35611063,106.85255988,83.45530467,29.44886211,7.07613447
54.84031382,0.95762859,0.50073471,-0.78164014

>  <Name>
1j7t

>  <RI>
0

>  <Rbt.Current_Directory>
/home/itssahil/PROJECTS/Mol_Feturizer/New_Systems/rnas/1j7t

>  <Rbt.Executable>
rbdock ($Id: //depot/dev/client3/rdock/2013.1/src/exe/rbdock.cxx#4 $)

>  <Rbt.Library>
libRbt.so (2013.1, Build901 2013/11/27)

>  <Rbt.Parameter_File>
/export/apps/rDock/src/rDock_2013.1_src/data/scripts/dock_solv.prm

>  <Rbt.Receptor>
prm/pocket_docking_2.prm

>  <SCORE>
-49.2243

>  <SCORE.INTER>
-39.9115

>  <SCORE.INTER.CONST>
1

>  <SCORE.INTER.POLAR>
-6.04439

>  <SCORE.INTER.ROT>
9

>  <SCORE.INTER.SOLV>
20.8355

>  <SCORE.INTER.VDW>
-23.0049

>  <SCORE.INTER.norm>
-0.950273

>  <SCORE.INTRA>
-9.58274

>  <SCORE.INTRA.DIHEDRAL>
-7.56217

>  <SCORE.INTRA.DIHEDRAL.0>
46.2143

>  <SCORE.INTRA.POLAR>
-0.521151

>  <SCORE.INTRA.POLAR.0>
-1.76436

>  <SCORE.INTRA.REPUL>
0

>  <SCORE.INTRA.REPUL.0>
0

>  <SCORE.INTRA.SOLV>
-2.8505

>  <SCORE.INTRA.SOLV.lig_0>
-148.643

>  <SCORE.INTRA.VDW>
-2.60449

>  <SCORE.INTRA.VDW.0>
-4.83512

>  <SCORE.INTRA.norm>
-0.22816

>  <SCORE.RESTR>
0.269957

>  <SCORE.RESTR.CAVITY>
0.269957

>  <SCORE.RESTR.norm>
0.00642755

>  <SCORE.SYSTEM>
0

>  <SCORE.SYSTEM.CONST>
0

>  <SCORE.SYSTEM.DIHEDRAL>
0

>  <SCORE.SYSTEM.SOLV>
0

>  <SCORE.SYSTEM.norm>
0

>  <SCORE.heavy>
42

>  <SCORE.norm>
-1.17201

>  <RMSD>
1.897

$$$$
1j7t
 OpenBabel11021811393D
libRbt.so/2013.1/901 2013/11/27
 42 45  0  0  0  0  0  0  0  0999 V2000
   30.5084    8.4151   53.0984 C   0  0  2  0  0  0  0  0  0  0  0  0
   31.4183    7.4530   52.5077 O   0  0  0  0  0  0  0  0  0  0  0  0
   29.0860    8.0766   52.5673 C   0  0  2  0  0  0  0  0  0  0  0  0
   28.6704    6.6592   52.7718 N   0  3  0  0  0  0  0  0  0  0  0  0
   29.0596    8.3662   51.0506 C   0  0  1  0  0  0  0  0  0  0  0  0
   27.7938    8.0941   50.5183 O   0  0  0  0  0  0  0  0  0  0  0  0
   29.4582    9.8372   50.7844 C   0  0  2  0  0  0  0  0  0  0  0  0
   29.4197   10.1296   49.4015 O   0  0  0  0  0  0  0  0  0  0  0  0
   30.8557   10.0936   51.3072 C   0  0  2  0  0  0  0  0  0  0  0  0
   30.9091    9.7603   52.6885 O   0  0  0  0  0  0  0  0  0  0  0  0
   31.2758   11.5417   51.1904 C   0  0  0  0  0  0  0  0  0  0  0  0
   31.3819   11.8930   49.8242 O   0  0  0  0  0  0  0  0  0  0  0  0
   34.7361    5.2028   53.8406 C   0  0  2  0  0  0  0  0  0  0  0  0
   36.0195    4.8545   54.4513 N   0  3  0  0  0  0  0  0  0  0  0  0
   34.9621    6.1959   52.6528 C   0  0  0  0  0  0  0  0  0  0  0  0
   33.6093    6.6033   52.0382 C   0  0  2  0  0  0  0  0  0  0  0  0
   33.7990    7.5763   50.9573 N   0  3  0  0  0  0  0  0  0  0  0  0
   32.6911    7.2093   53.1177 C   0  0  2  0  0  0  0  0  0  0  0  0
   32.4730    6.2625   54.3140 C   0  0  2  0  0  0  0  0  0  0  0  0
   31.7361    7.0205   55.2927 O   0  0  0  0  0  0  0  0  0  0  0  0
   33.8351    5.8143   54.9018 C   0  0  1  0  0  0  0  0  0  0  0  0
   33.6120    4.8782   55.9201 O   0  0  0  0  0  0  0  0  0  0  0  0
   30.9131    6.4244   56.2920 C   0  0  1  0  0  0  0  0  0  0  0  0
   31.5233    6.7506   57.7017 C   0  0  2  0  0  0  0  0  0  0  0  0
   32.4948    5.8155   58.1385 O   0  0  0  0  0  0  0  0  0  0  0  0
   30.2313    6.7500   58.5067 C   0  0  2  0  0  0  0  0  0  0  0  0
   29.6728    5.4052   58.6044 O   0  0  0  0  0  0  0  0  0  0  0  0
   29.2945    7.5753   57.6357 C   0  0  2  0  0  0  0  0  0  0  0  0
   29.6028    7.0528   56.3320 O   0  0  0  0  0  0  0  0  0  0  0  0
   29.5002    9.1227   57.7299 C   0  0  0  0  0  0  0  0  0  0  0  0
   30.8899    9.4701   57.7756 O   0  0  0  0  0  0  0  0  0  0  0  0
   28.7533    5.2361   59.6803 C   0  0  2  0  0  0  0  0  0  0  0  0
   28.2384    3.7697   59.8770 C   0  0  2  0  0  0  0  0  0  0  0  0
   27.5688    3.2211   58.6588 N   0  3  0  0  0  0  0  0  0  0  0  0
   27.2701    3.7853   61.1065 C   0  0  1  0  0  0  0  0  0  0  0  0
   28.0695    4.1770   62.2877 O   0  0  0  0  0  0  0  0  0  0  0  0
   26.0864    4.8146   60.9319 C   0  0  2  0  0  0  0  0  0  0  0  0
   25.2794    4.3984   59.8183 O   0  0  0  0  0  0  0  0  0  0  0  0
   26.7126    6.2519   60.6991 C   0  0  1  0  0  0  0  0  0  0  0  0
   27.5921    6.1671   59.5276 O   0  0  0  0  0  0  0  0  0  0  0  0
   25.6746    7.3782   60.4917 C   0  0  0  0  0  0  0  0  0  0  0  0
   25.2881    8.0664   61.7533 N   0  3  0  0  0  0  0  0  0  0  0  0
  1  2  1  6  0  0  0
  1  3  1  0  0  0  0
  1 10  1  0  0  0  0
  3  4  1  6  0  0  0
  3  5  1  0  0  0  0
  5  6  1  1  0  0  0
  5  7  1  0  0  0  0
  7  8  1  6  0  0  0
  7  9  1  0  0  0  0
  9 10  1  0  0  0  0
  9 11  1  1  0  0  0
 11 12  1  0  0  0  0
 13 14  1  1  0  0  0
 13 15  1  0  0  0  0
 13 21  1  0  0  0  0
 15 16  1  0  0  0  0
 16 17  1  6  0  0  0
 16 18  1  0  0  0  0
 18  2  1  6  0  0  0
 18 19  1  0  0  0  0
 19 20  1  1  0  0  0
 19 21  1  0  0  0  0
 21 22  1  1  0  0  0
 23 20  1  6  0  0  0
 23 24  1  0  0  0  0
 23 29  1  0  0  0  0
 24 25  1  1  0  0  0
 24 26  1  0  0  0  0
 26 27  1  6  0  0  0
 26 28  1  0  0  0  0
 28 29  1  0  0  0  0
 28 30  1  6  0  0  0
 30 31  1  0  0  0  0
 32 27  1  6  0  0  0
 32 33  1  0  0  0  0
 32 40  1  0  0  0  0
 33 34  1  6  0  0  0
 33 35  1  0  0  0  0
 35 36  1  1  0  0  0
 35 37  1  0  0  0  0
 37 38  1  6  0  0  0
 37 39  1  0  0  0  0
 39 40  1  0  0  0  0
 39 41  1  6  0  0  0
 41 42  1  0  0  0  0
M  CHG  5   4   1  14   1  17   1  34   1  42   1
M  END
>  <CHROM.1>
-159.27933952,-158.73044841,-166.95704130,-163.72690785,-63.61230338,-66.00506142
-54.67843498,-176.57190413,-67.14965134,155.67419485,115.86158684,-53.78016541
55.19389248,159.87849251,-174.96112248,40.70352612,-176.41998741,49.37328913
-54.20991709,-177.32200551,91.86276306,98.32277485,30.17894658,6.99107807
55.67174937,1.10031533,0.39542983,-1.03310899

>  <Name>
1j7t

>  <RI>
0

>  <Rbt.Current_Directory>
/home/itssahil/PROJECTS/Mol_Feturizer/New_Systems/rnas/1j7t

>  <Rbt.Executable>
rbdock ($Id: //depot/dev/client3/rdock/2013.1/src/exe/rbdock.cxx#4 $)

>  <Rbt.Library>
libRbt.so (2013.1, Build901 2013/11/27)

>  <Rbt.Parameter_File>
/export/apps/rDock/src/rDock_2013.1_src/data/scripts/dock_solv.prm

>  <Rbt.Receptor>
prm/pocket_docking_3.prm

>  <SCORE>
-62.0878

>  <SCORE.INTER>
-48.8284

>  <SCORE.INTER.CONST>
1

>  <SCORE.INTER.POLAR>
-7.45746

>  <SCORE.INTER.ROT>
9

>  <SCORE.INTER.SOLV>
23.2403

>  <SCORE.INTER.VDW>
-25.0408

>  <SCORE.INTER.norm>
-1.16258

>  <SCORE.INTRA>
-13.2965

>  <SCORE.INTRA.DIHEDRAL>
-20.6752

>  <SCORE.INTRA.DIHEDRAL.0>
46.2143

>  <SCORE.INTRA.POLAR>
0.127853

>  <SCORE.INTRA.POLAR.0>
-1.76436

>  <SCORE.INTRA.REPUL>
0.0463096

>  <SCORE.INTRA.REPUL.0>
0

>  <SCORE.INTRA.SOLV>
-4.2701

>  <SCORE.INTRA.SOLV.lig_0>
-148.643

>  <SCORE.INTRA.VDW>
-1.49005

>  <SCORE.INTRA.VDW.0>
-4.83512

>  <SCORE.INTRA.norm>
-0.316583

>  <SCORE.RESTR>
0.0370742

>  <SCORE.RESTR.CAVITY>
0.0370742

>  <SCORE.RESTR.norm>
0.000882719

>  <SCORE.SYSTEM>
0

>  <SCORE.SYSTEM.CONST>
0

>  <SCORE.SYSTEM.DIHEDRAL>
0

>  <SCORE.SYSTEM.SOLV>
0

>  <SCORE.SYSTEM.norm>
0

>  <SCORE.heavy>
42

>  <SCORE.norm>
-1.47828

>  <RMSD>
1.922

$$$$
1j7t
 OpenBabel11021811393D
libRbt.so/2013.1/901 2013/11/27
 42 45  0  0  0  0  0  0  0  0999 V2000
   30.5353    8.7830   52.9183 C   0  0  2  0  0  0  0  0  0  0  0  0
   31.4121    7.7774   52.3503 O   0  0  0  0  0  0  0  0  0  0  0  0
   29.0875    8.4189   52.4810 C   0  0  2  0  0  0  0  0  0  0  0  0
   28.6779    7.0211   52.8005 N   0  3  0  0  0  0  0  0  0  0  0  0
   28.9879    8.6062   50.9513 C   0  0  1  0  0  0  0  0  0  0  0  0
   27.6967    8.3072   50.5007 O   0  0  0  0  0  0  0  0  0  0  0  0
   29.3778   10.0533   50.5675 C   0  0  2  0  0  0  0  0  0  0  0  0
   29.2725   10.2525   49.1717 O   0  0  0  0  0  0  0  0  0  0  0  0
   30.8000   10.3351   51.0033 C   0  0  2  0  0  0  0  0  0  0  0  0
   30.9199   10.0950   52.3997 O   0  0  0  0  0  0  0  0  0  0  0  0
   31.2185   11.7694   50.7690 C   0  0  0  0  0  0  0  0  0  0  0  0
   31.3288   12.0071   49.3789 O   0  0  0  0  0  0  0  0  0  0  0  0
   34.6455    5.4615   53.7747 C   0  0  2  0  0  0  0  0  0  0  0  0
   35.9202    5.0918   54.3911 N   0  3  0  0  0  0  0  0  0  0  0  0
   34.8995    6.3756   52.5304 C   0  0  0  0  0  0  0  0  0  0  0  0
   33.5581    6.8070   51.9074 C   0  0  2  0  0  0  0  0  0  0  0  0
   33.7762    7.7085   50.7713 N   0  3  0  0  0  0  0  0  0  0  0  0
   32.6807    7.5125   52.9601 C   0  0  2  0  0  0  0  0  0  0  0  0
   32.4367    6.6448   54.2102 C   0  0  2  0  0  0  0  0  0  0  0  0
   31.7459    7.4883   55.1519 O   0  0  0  0  0  0  0  0  0  0  0  0
   33.7854    6.1707   54.8086 C   0  0  1  0  0  0  0  0  0  0  0  0
   33.5347    5.3040   55.8805 O   0  0  0  0  0  0  0  0  0  0  0  0
   30.5638    7.0920   55.8424 C   0  0  1  0  0  0  0  0  0  0  0  0
   30.9537    6.6858   57.3083 C   0  0  2  0  0  0  0  0  0  0  0  0
   31.3271    5.3257   57.4485 O   0  0  0  0  0  0  0  0  0  0  0  0
   29.6489    7.0624   57.9960 C   0  0  2  0  0  0  0  0  0  0  0  0
   28.5670    6.1674   57.5981 O   0  0  0  0  0  0  0  0  0  0  0  0
   29.3480    8.4359   57.4127 C   0  0  2  0  0  0  0  0  0  0  0  0
   29.6645    8.2193   56.0268 O   0  0  0  0  0  0  0  0  0  0  0  0
   30.1651    9.6118   58.0416 C   0  0  0  0  0  0  0  0  0  0  0  0
   30.1348   10.7803   57.2124 O   0  0  0  0  0  0  0  0  0  0  0  0
   27.9101    5.5303   58.6908 C   0  0  2  0  0  0  0  0  0  0  0  0
   26.9620    4.3504   58.2869 C   0  0  2  0  0  0  0  0  0  0  0  0
   25.8889    4.7679   57.3343 N   0  3  0  0  0  0  0  0  0  0  0  0
   26.3609    3.7719   59.6112 C   0  0  1  0  0  0  0  0  0  0  0  0
   27.4874    3.2339   60.4043 O   0  0  0  0  0  0  0  0  0  0  0  0
   25.6164    4.8687   60.4679 C   0  0  2  0  0  0  0  0  0  0  0  0
   24.4891    5.3479   59.7166 O   0  0  0  0  0  0  0  0  0  0  0  0
   26.6470    6.0300   60.7859 C   0  0  1  0  0  0  0  0  0  0  0  0
   27.1557    6.5336   59.5049 O   0  0  0  0  0  0  0  0  0  0  0  0
   26.0622    7.1990   61.6108 C   0  0  0  0  0  0  0  0  0  0  0  0
   24.9675    7.9264   60.9128 N   0  3  0  0  0  0  0  0  0  0  0  0
  1  2  1  6  0  0  0
  1  3  1  0  0  0  0
  1 10  1  0  0  0  0
  3  4  1  6  0  0  0
  3  5  1  0  0  0  0
  5  6  1  1  0  0  0
  5  7  1  0  0  0  0
  7  8  1  6  0  0  0
  7  9  1  0  0  0  0
  9 10  1  0  0  0  0
  9 11  1  1  0  0  0
 11 12  1  0  0  0  0
 13 14  1  1  0  0  0
 13 15  1  0  0  0  0
 13 21  1  0  0  0  0
 15 16  1  0  0  0  0
 16 17  1  6  0  0  0
 16 18  1  0  0  0  0
 18  2  1  6  0  0  0
 18 19  1  0  0  0  0
 19 20  1  1  0  0  0
 19 21  1  0  0  0  0
 21 22  1  1  0  0  0
 23 20  1  6  0  0  0
 23 24  1  0  0  0  0
 23 29  1  0  0  0  0
 24 25  1  6  0  0  0
 24 26  1  0  0  0  0
 26 27  1  6  0  0  0
 26 28  1  0  0  0  0
 28 29  1  0  0  0  0
 28 30  1  1  0  0  0
 30 31  1  0  0  0  0
 32 27  1  6  0  0  0
 32 33  1  0  0  0  0
 32 40  1  0  0  0  0
 33 34  1  6  0  0  0
 33 35  1  0  0  0  0
 35 36  1  1  0  0  0
 35 37  1  0  0  0  0
 37 38  1  6  0  0  0
 37 39  1  0  0  0  0
 39 40  1  0  0  0  0
 39 41  1  6  0  0  0
 41 42  1  0  0  0  0
M  CHG  5   4   1  14   1  17   1  34   1  42   1
M  END
>  <CHROM.1>
-155.64187828,-160.54989859,71.92237196,-166.38309377,-59.59198024,-69.13406156
-66.73449218,-51.63875682,51.44275592,131.22752002,101.98119731,-49.19786454
63.24340080,124.62587909,-167.69085045,162.99524269,169.42205354,-133.04901649
-61.97760167,-68.69807966,-62.96155983,-73.72272660,29.89041053,7.31370675
55.30873140,1.00724939,0.36804241,-0.98996156

>  <Name>
1j7t

>  <RI>
0

>  <Rbt.Current_Directory>
/home/itssahil/PROJECTS/Mol_Feturizer/New_Systems/rnas/1j7t

>  <Rbt.Executable>
rbdock ($Id: //depot/dev/client3/rdock/2013.1/src/exe/rbdock.cxx#4 $)

>  <Rbt.Library>
libRbt.so (2013.1, Build901 2013/11/27)

>  <Rbt.Parameter_File>
/export/apps/rDock/src/rDock_2013.1_src/data/scripts/dock_solv.prm

>  <Rbt.Receptor>
prm/pocket_docking_2.prm

>  <SCORE>
-54.7032

>  <SCORE.INTER>
-49.6558

>  <SCORE.INTER.CONST>
1

>  <SCORE.INTER.POLAR>
-7.54497

>  <SCORE.INTER.ROT>
9

>  <SCORE.INTER.SOLV>
22.2159

>  <SCORE.INTER.VDW>
-24.9593

>  <SCORE.INTER.norm>
-1.18228

>  <SCORE.INTRA>
-6.52007

>  <SCORE.INTRA.DIHEDRAL>
-13.4698

>  <SCORE.INTRA.DIHEDRAL.0>
46.2143

>  <SCORE.INTRA.POLAR>
0.433323

>  <SCORE.INTRA.POLAR.0>
-1.76436

>  <SCORE.INTRA.REPUL>
0

>  <SCORE.INTRA.REPUL.0>
0

>  <SCORE.INTRA.SOLV>
-0.731497

>  <SCORE.INTRA.SOLV.lig_0>
-148.643

>  <SCORE.INTRA.VDW>
-0.892723

>  <SCORE.INTRA.VDW.0>
-4.83512

>  <SCORE.INTRA.norm>
-0.15524

>  <SCORE.RESTR>
1.47263

>  <SCORE.RESTR.CAVITY>
1.47263

>  <SCORE.RESTR.norm>
0.0350627

>  <SCORE.SYSTEM>
0

>  <SCORE.SYSTEM.CONST>
0

>  <SCORE.SYSTEM.DIHEDRAL>
0

>  <SCORE.SYSTEM.SOLV>
0

>  <SCORE.SYSTEM.norm>
0

>  <SCORE.heavy>
42

>  <SCORE.norm>
-1.30246

>  <RMSD>
2.038

$$$$
1j7t
 OpenBabel11021811393D
libRbt.so/2013.1/901 2013/11/27
 42 45  0  0  0  0  0  0  0  0999 V2000
   30.4333    9.5473   52.3794 C   0  0  2  0  0  0  0  0  0  0  0  0
   31.3498    8.4984   51.9765 O   0  0  0  0  0  0  0  0  0  0  0  0
   29.1556    9.3908   51.5058 C   0  0  2  0  0  0  0  0  0  0  0  0
   28.5512    8.0279   51.5325 N   0  3  0  0  0  0  0  0  0  0  0  0
   29.5323    9.7159   50.0438 C   0  0  1  0  0  0  0  0  0  0  0  0
   28.4132    9.6069   49.2101 O   0  0  0  0  0  0  0  0  0  0  0  0
   30.1414   11.1354   49.9560 C   0  0  2  0  0  0  0  0  0  0  0  0
   30.4739   11.4617   48.6210 O   0  0  0  0  0  0  0  0  0  0  0  0
   31.3881   11.2135   50.8114 C   0  0  2  0  0  0  0  0  0  0  0  0
   31.0658   10.8449   52.1464 O   0  0  0  0  0  0  0  0  0  0  0  0
   31.9787   12.6044   50.8725 C   0  0  0  0  0  0  0  0  0  0  0  0
   32.2907   13.0418   49.5639 O   0  0  0  0  0  0  0  0  0  0  0  0
   33.8340    5.9487   54.2514 C   0  0  2  0  0  0  0  0  0  0  0  0
   34.9055    5.4815   55.1317 N   0  3  0  0  0  0  0  0  0  0  0  0
   34.4447    6.6009   52.9669 C   0  0  0  0  0  0  0  0  0  0  0  0
   33.3209    7.1380   52.0600 C   0  0  2  0  0  0  0  0  0  0  0  0
   33.8775    7.8010   50.8761 N   0  3  0  0  0  0  0  0  0  0  0  0
   32.4359    8.1332   52.8359 C   0  0  2  0  0  0  0  0  0  0  0  0
   31.8426    7.5254   54.1219 C   0  0  2  0  0  0  0  0  0  0  0  0
   31.1815    8.6074   54.8056 O   0  0  0  0  0  0  0  0  0  0  0  0
   32.9694    6.9418   55.0116 C   0  0  1  0  0  0  0  0  0  0  0  0
   32.3976    6.3077   56.1224 O   0  0  0  0  0  0  0  0  0  0  0  0
   30.4651    8.4448   56.0269 C   0  0  1  0  0  0  0  0  0  0  0  0
   29.8091    9.8196   56.4084 C   0  0  2  0  0  0  0  0  0  0  0  0
   30.6502   10.6659   57.1735 O   0  0  0  0  0  0  0  0  0  0  0  0
   28.5947    9.2850   57.1544 C   0  0  2  0  0  0  0  0  0  0  0  0
   28.9847    8.6556   58.4120 O   0  0  0  0  0  0  0  0  0  0  0  0
   28.0895    8.1880   56.2278 C   0  0  2  0  0  0  0  0  0  0  0  0
   29.3261    7.5589   55.8499 O   0  0  0  0  0  0  0  0  0  0  0  0
   27.2680    8.6927   54.9964 C   0  0  0  0  0  0  0  0  0  0  0  0
   26.8786    7.6110   54.1407 O   0  0  0  0  0  0  0  0  0  0  0  0
   28.0674    8.8770   59.4801 C   0  0  2  0  0  0  0  0  0  0  0  0
   28.4573    8.1871   60.8315 C   0  0  2  0  0  0  0  0  0  0  0  0
   28.6083    6.7057   60.7047 N   0  3  0  0  0  0  0  0  0  0  0  0
   27.3523    8.5644   61.8739 C   0  0  1  0  0  0  0  0  0  0  0  0
   27.4014   10.0319   62.0513 O   0  0  0  0  0  0  0  0  0  0  0  0
   25.9040    8.1602   61.3940 C   0  0  2  0  0  0  0  0  0  0  0  0
   25.8438    6.7293   61.2779 O   0  0  0  0  0  0  0  0  0  0  0  0
   25.6266    8.8745   60.0066 C   0  0  1  0  0  0  0  0  0  0  0  0
   26.6865    8.4648   59.0781 O   0  0  0  0  0  0  0  0  0  0  0  0
   24.2439    8.5636   59.3899 C   0  0  0  0  0  0  0  0  0  0  0  0
   24.0409    7.1203   59.0895 N   0  3  0  0  0  0  0  0  0  0  0  0
  1  2  1  6  0  0  0
  1  3  1  0  0  0  0
  1 10  1  0  0  0  0
  3  4  1  6  0  0  0
  3  5  1  0  0  0  0
  5  6  1  6  0  0  0
  5  7  1  0  0  0  0
  7  8  1  6  0  0  0
  7  9  1  0  0  0  0
  9 10  1  0  0  0  0
  9 11  1  1  0  0  0
 11 12  1  0  0  0  0
 13 14  1  1  0  0  0
 13 15  1  0  0  0  0
 13 21  1  0  0  0  0
 15 16  1  0  0  0  0
 16 17  1  6  0  0  0
 16 18  1  0  0  0  0
 18  2  1  6  0  0  0
 18 19  1  0  0  0  0
 19 20  1  1  0  0  0
 19 21  1  0  0  0  0
 21 22  1  1  0  0  0
 23 20  1  6  0  0  0
 23 24  1  0  0  0  0
 23 29  1  0  0  0  0
 24 25  1  1  0  0  0
 24 26  1  0  0  0  0
 26 27  1  1  0  0  0
 26 28  1  0  0  0  0
 28 29  1  0  0  0  0
 28 30  1  6  0  0  0
 30 31  1  0  0  0  0
 32 27  1  6  0  0  0
 32 33  1  0  0  0  0
 32 40  1  0  0  0  0
 33 34  1  6  0  0  0
 33 35  1  0  0  0  0
 35 36  1  6  0  0  0
 35 37  1  0  0  0  0
 37 38  1  6  0  0  0
 37 39  1  0  0  0  0
 39 40  1  0  0  0  0
 39 41  1  6  0  0  0
 41 42  1  0  0  0  0
M  CHG  5   4   1  14   1  17   1  34   1  42   1
M  END
>  <CHROM.1>
-162.01054114,-172.78697033,68.44749100,177.03198497,68.18084817,-58.31189441
179.42757925,-57.68240728,165.38627387,177.91792703,-176.25326664,-60.20076379
-59.30720479,142.89089793,178.96214033,177.39700409,52.17172606,166.83895482
179.28094301,72.13394877,-61.24322158,57.62244877,29.70600157,8.66933579
55.18810044,1.04200309,0.42153553,-1.17601937

>  <Name>
1j7t

>  <RI>
0

>  <Rbt.Current_Directory>
/home/itssahil/PROJECTS/Mol_Feturizer/New_Systems/rnas/1j7t

>  <Rbt.Executable>
rbdock ($Id: //depot/dev/client3/rdock/2013.1/src/exe/rbdock.cxx#4 $)

>  <Rbt.Library>
libRbt.so (2013.1, Build901 2013/11/27)

>  <Rbt.Parameter_File>
/export/apps/rDock/src/rDock_2013.1_src/data/scripts/dock_solv.prm

>  <Rbt.Receptor>
prm/pocket_docking_5.prm

>  <SCORE>
-74.0912

>  <SCORE.INTER>
-51.6418

>  <SCORE.INTER.CONST>
1

>  <SCORE.INTER.POLAR>
-6.95097

>  <SCORE.INTER.ROT>
9

>  <SCORE.INTER.SOLV>
26.3366

>  <SCORE.INTER.VDW>
-29.6368

>  <SCORE.INTER.norm>
-1.22957

>  <SCORE.INTRA>
-22.4494

>  <SCORE.INTRA.DIHEDRAL>
-36.4592

>  <SCORE.INTRA.DIHEDRAL.0>
46.2143

>  <SCORE.INTRA.POLAR>
-0.638464

>  <SCORE.INTRA.POLAR.0>
-1.76436

>  <SCORE.INTRA.REPUL>
0

>  <SCORE.INTRA.REPUL.0>
0

>  <SCORE.INTRA.SOLV>
-2.01051

>  <SCORE.INTRA.SOLV.lig_0>
-148.643

>  <SCORE.INTRA.VDW>
-1.04377

>  <SCORE.INTRA.VDW.0>
-4.83512

>  <SCORE.INTRA.norm>
-0.53451

>  <SCORE.RESTR>
0

>  <SCORE.RESTR.CAVITY>
0

>  <SCORE.RESTR.norm>
0

>  <SCORE.SYSTEM>
0

>  <SCORE.SYSTEM.CONST>
0

>  <SCORE.SYSTEM.DIHEDRAL>
0

>  <SCORE.SYSTEM.SOLV>
0

>  <SCORE.SYSTEM.norm>
0

>  <SCORE.heavy>
42

>  <SCORE.norm>
-1.76408

>  <RMSD>
2.073

$$$$
1j7t
 OpenBabel11021811393D
libRbt.so/2013.1/901 2013/11/27
 42 45  0  0  0  0  0  0  0  0999 V2000
   30.3159    9.1068   52.5444 C   0  0  2  0  0  0  0  0  0  0  0  0
   31.3237    8.1698   52.0873 O   0  0  0  0  0  0  0  0  0  0  0  0
   29.0353    8.8386   51.7028 C   0  0  2  0  0  0  0  0  0  0  0  0
   28.5770    7.4196   51.7089 N   0  3  0  0  0  0  0  0  0  0  0  0
   29.3310    9.2371   50.2404 C   0  0  1  0  0  0  0  0  0  0  0  0
   28.2042    9.0318   49.4356 O   0  0  0  0  0  0  0  0  0  0  0  0
   29.7862   10.7143   50.1748 C   0  0  2  0  0  0  0  0  0  0  0  0
   30.0418   11.1062   48.8405 O   0  0  0  0  0  0  0  0  0  0  0  0
   31.0436   10.9017   50.9968 C   0  0  2  0  0  0  0  0  0  0  0  0
   30.8025   10.4688   52.3296 O   0  0  0  0  0  0  0  0  0  0  0  0
   31.4879   12.3448   51.0796 C   0  0  0  0  0  0  0  0  0  0  0  0
   31.8974   12.7862   49.7994 O   0  0  0  0  0  0  0  0  0  0  0  0
   33.9092    5.7282   54.3681 C   0  0  2  0  0  0  0  0  0  0  0  0
   35.0072    5.3053   55.2381 N   0  3  0  0  0  0  0  0  0  0  0  0
   34.4810    6.3681   53.0596 C   0  0  0  0  0  0  0  0  0  0  0  0
   33.3286    6.8591   52.1626 C   0  0  2  0  0  0  0  0  0  0  0  0
   33.8478    7.5105   50.9555 N   0  3  0  0  0  0  0  0  0  0  0  0
   32.4334    7.8487   52.9340 C   0  0  2  0  0  0  0  0  0  0  0  0
   31.8780    7.2537   54.2427 C   0  0  2  0  0  0  0  0  0  0  0  0
   31.2029    8.3336   54.9162 O   0  0  0  0  0  0  0  0  0  0  0  0
   33.0342    6.7159   55.1234 C   0  0  1  0  0  0  0  0  0  0  0  0
   32.4978    6.0916   56.2572 O   0  0  0  0  0  0  0  0  0  0  0  0
   30.4858    8.1726   56.1373 C   0  0  1  0  0  0  0  0  0  0  0  0
   29.7855    9.5335   56.4886 C   0  0  2  0  0  0  0  0  0  0  0  0
   30.5960   10.4204   57.2406 O   0  0  0  0  0  0  0  0  0  0  0  0
   28.5845    8.9760   57.2397 C   0  0  2  0  0  0  0  0  0  0  0  0
   28.9876    8.3838   58.5111 O   0  0  0  0  0  0  0  0  0  0  0  0
   28.1183    7.8459   56.3327 C   0  0  2  0  0  0  0  0  0  0  0  0
   29.3758    7.2484   55.9727 O   0  0  0  0  0  0  0  0  0  0  0  0
   27.2878    8.3005   55.0879 C   0  0  0  0  0  0  0  0  0  0  0  0
   26.9304    7.1898   54.2557 O   0  0  0  0  0  0  0  0  0  0  0  0
   27.9310    7.7248   59.2045 C   0  0  2  0  0  0  0  0  0  0  0  0
   27.1753    8.6173   60.2470 C   0  0  2  0  0  0  0  0  0  0  0  0
   28.0810    9.1804   61.2939 N   0  3  0  0  0  0  0  0  0  0  0  0
   26.0496    7.7315   60.8777 C   0  0  1  0  0  0  0  0  0  0  0  0
   25.1166    7.3691   59.7887 O   0  0  0  0  0  0  0  0  0  0  0  0
   26.6128    6.4064   61.5243 C   0  0  2  0  0  0  0  0  0  0  0  0
   27.4740    6.7619   62.6182 O   0  0  0  0  0  0  0  0  0  0  0  0
   27.3903    5.6015   60.4020 C   0  0  1  0  0  0  0  0  0  0  0  0
   28.4355    6.4828   59.8688 O   0  0  0  0  0  0  0  0  0  0  0  0
   28.0217    4.2756   60.8840 C   0  0  0  0  0  0  0  0  0  0  0  0
   29.4984    4.2246   60.7070 N   0  3  0  0  0  0  0  0  0  0  0  0
  1  2  1  6  0  0  0
  1  3  1  0  0  0  0
  1 10  1  0  0  0  0
  3  4  1  6  0  0  0
  3  5  1  0  0  0  0
  5  6  1  6  0  0  0
  5  7  1  0  0  0  0
  7  8  1  6  0  0  0
  7  9  1  0  0  0  0
  9 10  1  0  0  0  0
  9 11  1  1  0  0  0
 11 12  1  0  0  0  0
 13 14  1  1  0  0  0
 13 15  1  0  0  0  0
 13 21  1  0  0  0  0
 15 16  1  0  0  0  0
 16 17  1  6  0  0  0
 16 18  1  0  0  0  0
 18  2  1  6  0  0  0
 18 19  1  0  0  0  0
 19 20  1  1  0  0  0
 19 21  1  0  0  0  0
 21 22  1  1  0  0  0
 23 20  1  6  0  0  0
 23 24  1  0  0  0  0
 23 29  1  0  0  0  0
 24 25  1  1  0  0  0
 24 26  1  0  0  0  0
 26 27  1  1  0  0  0
 26 28  1  0  0  0  0
 28 29  1  0  0  0  0
 28 30  1  6  0  0  0
 30 31  1  0  0  0  0
 32 27  1  1  0  0  0
 32 33  1  0  0  0  0
 32 40  1  0  0  0  0
 33 34  1  1  0  0  0
 33 35  1  0  0  0  0
 35 36  1  6  0  0  0
 35 37  1  0  0  0  0
 37 38  1  1  0  0  0
 37 39  1  0  0  0  0
 39 40  1  0  0  0  0
 39 41  1  1  0  0  0
 41 42  1  0  0  0  0
M  CHG  5   4   1  14   1  17   1  34   1  42   1
M  END
>  <CHROM.1>
-158.89384862,-178.97423195,-176.29549042,-65.56168109,66.09736884,-66.71314544
173.77039900,58.96977673,-76.39700458,176.38367698,-174.94437585,-67.57513862
-169.50398658,-174.08818363,-93.12992520,177.70607587,65.90324926,-36.02000772
61.45567069,-94.89673684,-120.47144399,-145.24015715,29.89406382,8.05813925
55.34927206,1.17223131,0.49073755,-1.10128216

>  <Name>
1j7t

>  <RI>
0

>  <Rbt.Current_Directory>
/home/itssahil/PROJECTS/Mol_Feturizer/New_Systems/rnas/1j7t

>  <Rbt.Executable>
rbdock ($Id: //depot/dev/client3/rdock/2013.1/src/exe/rbdock.cxx#4 $)

>  <Rbt.Library>
libRbt.so (2013.1, Build901 2013/11/27)

>  <Rbt.Parameter_File>
/export/apps/rDock/src/rDock_2013.1_src/data/scripts/dock_solv.prm

>  <Rbt.Receptor>
prm/pocket_docking_4.prm

>  <SCORE>
-63.7273

>  <SCORE.INTER>
-53.1451

>  <SCORE.INTER.CONST>
1

>  <SCORE.INTER.POLAR>
-7.36361

>  <SCORE.INTER.ROT>
9

>  <SCORE.INTER.SOLV>
27.5313

>  <SCORE.INTER.VDW>
-29.6618

>  <SCORE.INTER.norm>
-1.26536

>  <SCORE.INTRA>
-10.5821

>  <SCORE.INTRA.DIHEDRAL>
-23.3974

>  <SCORE.INTRA.DIHEDRAL.0>
46.2143

>  <SCORE.INTRA.POLAR>
0.37163

>  <SCORE.INTRA.POLAR.0>
-1.76436

>  <SCORE.INTRA.REPUL>
0

>  <SCORE.INTRA.REPUL.0>
0

>  <SCORE.INTRA.SOLV>
-2.73198

>  <SCORE.INTRA.SOLV.lig_0>
-148.643

>  <SCORE.INTRA.VDW>
1.21902

>  <SCORE.INTRA.VDW.0>
-4.83512

>  <SCORE.INTRA.norm>
-0.251955

>  <SCORE.RESTR>
0

>  <SCORE.RESTR.CAVITY>
0

>  <SCORE.RESTR.norm>
0

>  <SCORE.SYSTEM>
0

>  <SCORE.SYSTEM.CONST>
0

>  <SCORE.SYSTEM.DIHEDRAL>
0

>  <SCORE.SYSTEM.SOLV>
0

>  <SCORE.SYSTEM.norm>
0

>  <SCORE.heavy>
42

>  <SCORE.norm>
-1.51732

>  <RMSD>
2.083

$$$$
1j7t
 OpenBabel11021811393D
libRbt.so/2013.1/901 2013/11/27
 42 45  0  0  0  0  0  0  0  0999 V2000
   30.8724    8.8924   52.8972 C   0  0  2  0  0  0  0  0  0  0  0  0
   31.6617    7.7795   52.4064 O   0  0  0  0  0  0  0  0  0  0  0  0
   29.4121    8.6576   52.4154 C   0  0  2  0  0  0  0  0  0  0  0  0
   28.8496    7.3237   52.7732 N   0  3  0  0  0  0  0  0  0  0  0  0
   29.3888    8.7867   50.8767 C   0  0  1  0  0  0  0  0  0  0  0  0
   28.0913    8.6002   50.3855 O   0  0  0  0  0  0  0  0  0  0  0  0
   29.9392   10.1688   50.4519 C   0  0  2  0  0  0  0  0  0  0  0  0
   29.9066   10.3162   49.0461 O   0  0  0  0  0  0  0  0  0  0  0  0
   31.3657   10.3244   50.9344 C   0  0  2  0  0  0  0  0  0  0  0  0
   31.4086   10.1348   52.3431 O   0  0  0  0  0  0  0  0  0  0  0  0
   31.9376   11.6973   50.6606 C   0  0  0  0  0  0  0  0  0  0  0  0
   31.3202   12.6435   51.5119 O   0  0  0  0  0  0  0  0  0  0  0  0
   34.8394    5.3908   53.8364 C   0  0  2  0  0  0  0  0  0  0  0  0
   36.1098    4.9932   54.4442 N   0  3  0  0  0  0  0  0  0  0  0  0
   35.1057    6.2722   52.5712 C   0  0  0  0  0  0  0  0  0  0  0  0
   33.7705    6.7336   51.9564 C   0  0  2  0  0  0  0  0  0  0  0  0
   34.0019    7.6057   50.8001 N   0  3  0  0  0  0  0  0  0  0  0  0
   32.9292    7.4866   53.0057 C   0  0  2  0  0  0  0  0  0  0  0  0
   32.6744    6.6513   54.2756 C   0  0  2  0  0  0  0  0  0  0  0  0
   32.0225    7.5341   55.2089 O   0  0  0  0  0  0  0  0  0  0  0  0
   34.0153    6.1466   54.8666 C   0  0  1  0  0  0  0  0  0  0  0  0
   33.7514    5.3091   55.9583 O   0  0  0  0  0  0  0  0  0  0  0  0
   30.9036    7.1504   56.0038 C   0  0  1  0  0  0  0  0  0  0  0  0
   31.0474    5.6297   56.3682 C   0  0  2  0  0  0  0  0  0  0  0  0
   30.4904    4.7519   55.4047 O   0  0  0  0  0  0  0  0  0  0  0  0
   30.3194    5.6534   57.7048 C   0  0  2  0  0  0  0  0  0  0  0  0
   28.8920    5.8965   57.5223 O   0  0  0  0  0  0  0  0  0  0  0  0
   30.9117    6.8790   58.3862 C   0  0  2  0  0  0  0  0  0  0  0  0
   30.9284    7.8163   57.2958 O   0  0  0  0  0  0  0  0  0  0  0  0
   32.3259    6.6624   59.0176 C   0  0  0  0  0  0  0  0  0  0  0  0
   32.3833    5.4535   59.7853 O   0  0  0  0  0  0  0  0  0  0  0  0
   28.1163    5.7085   58.7031 C   0  0  2  0  0  0  0  0  0  0  0  0
   28.4548    4.4081   59.5086 C   0  0  2  0  0  0  0  0  0  0  0  0
   28.2958    3.1639   58.6961 N   0  3  0  0  0  0  0  0  0  0  0  0
   27.5252    4.3942   60.7678 C   0  0  1  0  0  0  0  0  0  0  0  0
   27.8806    5.5735   61.5866 O   0  0  0  0  0  0  0  0  0  0  0  0
   25.9948    4.4813   60.3915 C   0  0  2  0  0  0  0  0  0  0  0  0
   25.6403    3.3059   59.6448 O   0  0  0  0  0  0  0  0  0  0  0  0
   25.7685    5.8038   59.5479 C   0  0  1  0  0  0  0  0  0  0  0  0
   26.6557    5.7416   58.3807 O   0  0  0  0  0  0  0  0  0  0  0  0
   24.3112    6.0278   59.0842 C   0  0  0  0  0  0  0  0  0  0  0  0
   23.9504    5.2481   57.8691 N   0  3  0  0  0  0  0  0  0  0  0  0
  1  2  1  6  0  0  0
  1  3  1  0  0  0  0
  1 10  1  0  0  0  0
  3  4  1  6  0  0  0
  3  5  1  0  0  0  0
  5  6  1  1  0  0  0
  5  7  1  0  0  0  0
  7  8  1  6  0  0  0
  7  9  1  0  0  0  0
  9 10  1  0  0  0  0
  9 11  1  1  0  0  0
 11 12  1  0  0  0  0
 13 14  1  1  0  0  0
 13 15  1  0  0  0  0
 13 21  1  0  0  0  0
 15 16  1  0  0  0  0
 16 17  1  6  0  0  0
 16 18  1  0  0  0  0
 18  2  1  6  0  0  0
 18 19  1  0  0  0  0
 19 20  1  1  0  0  0
 19 21  1  0  0  0  0
 21 22  1  1  0  0  0
 23 20  1  6  0  0  0
 23 24  1  0  0  0  0
 23 29  1  0  0  0  0
 24 25  1  6  0  0  0
 24 26  1  0  0  0  0
 26 27  1  6  0  0  0
 26 28  1  0  0  0  0
 28 29  1  0  0  0  0
 28 30  1  6  0  0  0
 30 31  1  0  0  0  0
 32 27  1  6  0  0  0
 32 33  1  0  0  0  0
 32 40  1  0  0  0  0
 33 34  1  6  0  0  0
 33 35  1  0  0  0  0
 35 36  1  1  0  0  0
 35 37  1  0  0  0  0
 37 38  1  6  0  0  0
 37 39  1  0  0  0  0
 39 40  1  0  0  0  0
 39 41  1  6  0  0  0
 41 42  1  0  0  0  0
M  CHG  5   4   1  14   1  17   1  34   1  42   1
M  END
>  <CHROM.1>
-161.01214563,-155.60711042,-46.35700654,67.45416819,65.26585152,71.07685662
80.12005386,-164.64963916,-71.24659758,136.63810419,33.40553642,-55.70437729
-59.85816700,169.96521733,-45.29126091,-46.59033322,166.50259157,160.81590810
-68.50697373,176.33676149,-80.82722761,-155.94299314,30.31283202,6.87049775
55.35573831,1.07996600,0.17863800,-1.00840796

>  <Name>
1j7t

>  <RI>
0

>  <Rbt.Current_Directory>
/home/itssahil/PROJECTS/Mol_Feturizer/New_Systems/rnas/1j7t

>  <Rbt.Executable>
rbdock ($Id: //depot/dev/client3/rdock/2013.1/src/exe/rbdock.cxx#4 $)

>  <Rbt.Library>
libRbt.so (2013.1, Build901 2013/11/27)

>  <Rbt.Parameter_File>
/export/apps/rDock/src/rDock_2013.1_src/data/scripts/dock_solv.prm

>  <Rbt.Receptor>
prm/pocket_docking_3.prm

>  <SCORE>
-66.5566

>  <SCORE.INTER>
-58.8219

>  <SCORE.INTER.CONST>
1

>  <SCORE.INTER.POLAR>
-8.829

>  <SCORE.INTER.ROT>
9

>  <SCORE.INTER.SOLV>
25.2793

>  <SCORE.INTER.VDW>
-27.811

>  <SCORE.INTER.norm>
-1.40052

>  <SCORE.INTRA>
-8.5922

>  <SCORE.INTRA.DIHEDRAL>
-21.6139

>  <SCORE.INTRA.DIHEDRAL.0>
46.2143

>  <SCORE.INTRA.POLAR>
0.707736

>  <SCORE.INTRA.POLAR.0>
-1.76436

>  <SCORE.INTRA.REPUL>
0.0182241

>  <SCORE.INTRA.REPUL.0>
0

>  <SCORE.INTRA.SOLV>
0.3093

>  <SCORE.INTRA.SOLV.lig_0>
-148.643

>  <SCORE.INTRA.VDW>
-0.437339

>  <SCORE.INTRA.VDW.0>
-4.83512

>  <SCORE.INTRA.norm>
-0.204576

>  <SCORE.RESTR>
0.857543

>  <SCORE.RESTR.CAVITY>
0.857543

>  <SCORE.RESTR.norm>
0.0204177

>  <SCORE.SYSTEM>
0

>  <SCORE.SYSTEM.CONST>
0

>  <SCORE.SYSTEM.DIHEDRAL>
0

>  <SCORE.SYSTEM.SOLV>
0

>  <SCORE.SYSTEM.norm>
0

>  <SCORE.heavy>
42

>  <SCORE.norm>
-1.58468

>  <RMSD>
2.087

$$$$
1j7t
 OpenBabel11021811393D
libRbt.so/2013.1/901 2013/11/27
 42 45  0  0  0  0  0  0  0  0999 V2000
   29.8045    8.5562   54.1691 C   0  0  2  0  0  0  0  0  0  0  0  0
   30.7157    7.4286   54.1433 O   0  0  0  0  0  0  0  0  0  0  0  0
   28.4736    8.0762   53.5223 C   0  0  2  0  0  0  0  0  0  0  0  0
   27.9052    6.8361   54.1245 N   0  3  0  0  0  0  0  0  0  0  0  0
   28.7404    7.7998   52.0265 C   0  0  1  0  0  0  0  0  0  0  0  0
   27.5692    7.3784   51.3861 O   0  0  0  0  0  0  0  0  0  0  0  0
   29.3079    9.0680   51.3457 C   0  0  2  0  0  0  0  0  0  0  0  0
   29.5394    8.8427   49.9692 O   0  0  0  0  0  0  0  0  0  0  0  0
   30.6085    9.4689   52.0088 C   0  0  2  0  0  0  0  0  0  0  0  0
   30.3882    9.6551   53.4012 O   0  0  0  0  0  0  0  0  0  0  0  0
   31.1686   10.7692   51.4771 C   0  0  0  0  0  0  0  0  0  0  0  0
   32.1217   10.4945   50.4685 O   0  0  0  0  0  0  0  0  0  0  0  0
   33.7149    5.6707   56.5439 C   0  0  2  0  0  0  0  0  0  0  0  0
   34.8277    5.5192   57.4820 N   0  3  0  0  0  0  0  0  0  0  0  0
   34.1744    6.5017   55.3002 C   0  0  0  0  0  0  0  0  0  0  0  0
   32.9925    6.7052   54.3330 C   0  0  2  0  0  0  0  0  0  0  0  0
   33.3919    7.5284   53.1868 N   0  3  0  0  0  0  0  0  0  0  0  0
   31.8136    7.3793   55.0619 C   0  0  2  0  0  0  0  0  0  0  0  0
   31.3575    6.5958   56.3082 C   0  0  2  0  0  0  0  0  0  0  0  0
   30.3716    7.4207   56.9586 O   0  0  0  0  0  0  0  0  0  0  0  0
   32.5569    6.3491   57.2583 C   0  0  1  0  0  0  0  0  0  0  0  0
   32.1384    5.5507   58.3308 O   0  0  0  0  0  0  0  0  0  0  0  0
   29.4149    6.9179   57.8876 C   0  0  1  0  0  0  0  0  0  0  0  0
   29.0249    8.0728   58.8776 C   0  0  2  0  0  0  0  0  0  0  0  0
   29.8711    8.1698   60.0106 O   0  0  0  0  0  0  0  0  0  0  0  0
   27.6005    7.6305   59.1822 C   0  0  2  0  0  0  0  0  0  0  0  0
   27.5880    6.3993   59.9656 O   0  0  0  0  0  0  0  0  0  0  0  0
   27.0498    7.3032   57.8014 C   0  0  2  0  0  0  0  0  0  0  0  0
   28.1617    6.5974   57.2242 O   0  0  0  0  0  0  0  0  0  0  0  0
   26.6171    8.5443   56.9538 C   0  0  0  0  0  0  0  0  0  0  0  0
   26.2061    9.6363   57.7860 O   0  0  0  0  0  0  0  0  0  0  0  0
   26.2906    5.8348   60.1376 C   0  0  2  0  0  0  0  0  0  0  0  0
   26.1739    4.8093   61.3162 C   0  0  2  0  0  0  0  0  0  0  0  0
   27.1201    3.6604   61.1819 N   0  3  0  0  0  0  0  0  0  0  0  0
   24.6859    4.3259   61.3571 C   0  0  1  0  0  0  0  0  0  0  0  0
   23.8505    5.5074   61.6630 O   0  0  0  0  0  0  0  0  0  0  0  0
   24.2109    3.7117   59.9829 C   0  0  2  0  0  0  0  0  0  0  0  0
   24.9864    2.5315   59.7174 O   0  0  0  0  0  0  0  0  0  0  0  0
   24.4080    4.8099   58.8572 C   0  0  1  0  0  0  0  0  0  0  0  0
   25.8217    5.2031   58.8651 O   0  0  0  0  0  0  0  0  0  0  0  0
   24.0012    4.3538   57.4375 C   0  0  0  0  0  0  0  0  0  0  0  0
   23.9276    5.4698   56.4558 N   0  3  0  0  0  0  0  0  0  0  0  0
  1  2  1  6  0  0  0
  1  3  1  0  0  0  0
  1 10  1  0  0  0  0
  3  4  1  1  0  0  0
  3  5  1  0  0  0  0
  5  6  1  6  0  0  0
  5  7  1  0  0  0  0
  7  8  1  6  0  0  0
  7  9  1  0  0  0  0
  9 10  1  0  0  0  0
  9 11  1  6  0  0  0
 11 12  1  0  0  0  0
 13 14  1  1  0  0  0
 13 15  1  0  0  0  0
 13 21  1  0  0  0  0
 15 16  1  0  0  0  0
 16 17  1  6  0  0  0
 16 18  1  0  0  0  0
 18  2  1  6  0  0  0
 18 19  1  0  0  0  0
 19 20  1  1  0  0  0
 19 21  1  0  0  0  0
 21 22  1  1  0  0  0
 23 20  1  6  0  0  0
 23 24  1  0  0  0  0
 23 29  1  0  0  0  0
 24 25  1  1  0  0  0
 24 26  1  0  0  0  0
 26 27  1  1  0  0  0
 26 28  1  0  0  0  0
 28 29  1  0  0  0  0
 28 30  1  6  0  0  0
 30 31  1  0  0  0  0
 32 27  1  6  0  0  0
 32 33  1  0  0  0  0
 32 40  1  0  0  0  0
 33 34  1  6  0  0  0
 33 35  1  0  0  0  0
 35 36  1  6  0  0  0
 35 37  1  0  0  0  0
 37 38  1  6  0  0  0
 37 39  1  0  0  0  0
 39 40  1  0  0  0  0
 39 41  1  6  0  0  0
 41 42  1  0  0  0  0
M  CHG  5   4   1  14   1  17   1  34   1  42   1
M  END
>  <CHROM.1>
-157.56315692,-145.31194575,170.24864996,56.35104597,171.30549501,-95.59617467
63.16656113,50.21929784,-65.94968350,159.87471423,152.30657847,-55.82926313
-70.06197559,-172.24605898,-161.43207388,-28.27788701,177.52100069,52.23313954
-62.46637842,-178.51366459,168.13349521,-164.23176762,28.81882124,6.87825309
56.44677904,0.94154875,-0.02302063,-1.14293707

>  <Name>
1j7t

>  <RI>
0

>  <Rbt.Current_Directory>
/home/itssahil/PROJECTS/Mol_Feturizer/New_Systems/rnas/1j7t

>  <Rbt.Executable>
rbdock ($Id: //depot/dev/client3/rdock/2013.1/src/exe/rbdock.cxx#4 $)

>  <Rbt.Library>
libRbt.so (2013.1, Build901 2013/11/27)

>  <Rbt.Parameter_File>
/export/apps/rDock/src/rDock_2013.1_src/data/scripts/dock_solv.prm

>  <Rbt.Receptor>
prm/pocket_docking_3.prm

>  <SCORE>
-47.7723

>  <SCORE.INTER>
-34.4808

>  <SCORE.INTER.CONST>
1

>  <SCORE.INTER.POLAR>
-5.77202

>  <SCORE.INTER.ROT>
9

>  <SCORE.INTER.SOLV>
25.1234

>  <SCORE.INTER.VDW>
-21.7216

>  <SCORE.INTER.norm>
-0.820971

>  <SCORE.INTRA>
-13.673

>  <SCORE.INTRA.DIHEDRAL>
-23.034

>  <SCORE.INTRA.DIHEDRAL.0>
46.2143

>  <SCORE.INTRA.POLAR>
-0.138961

>  <SCORE.INTRA.POLAR.0>
-1.76436

>  <SCORE.INTRA.REPUL>
0

>  <SCORE.INTRA.REPUL.0>
0

>  <SCORE.INTRA.SOLV>
-0.720992

>  <SCORE.INTRA.SOLV.lig_0>
-148.643

>  <SCORE.INTRA.VDW>
-1.32302

>  <SCORE.INTRA.VDW.0>
-4.83512

>  <SCORE.INTRA.norm>
-0.325548

>  <SCORE.RESTR>
0.381433

>  <SCORE.RESTR.CAVITY>
0.381433

>  <SCORE.RESTR.norm>
0.00908174

>  <SCORE.SYSTEM>
0

>  <SCORE.SYSTEM.CONST>
0

>  <SCORE.SYSTEM.DIHEDRAL>
0

>  <SCORE.SYSTEM.SOLV>
0

>  <SCORE.SYSTEM.norm>
0

>  <SCORE.heavy>
42

>  <SCORE.norm>
-1.13744

>  <RMSD>
2.090

$$$$
1j7t
 OpenBabel11021811393D
libRbt.so/2013.1/901 2013/11/27
 42 45  0  0  0  0  0  0  0  0999 V2000
   30.2892    9.2817   52.5331 C   0  0  2  0  0  0  0  0  0  0  0  0
   31.2789    8.3172   52.0941 O   0  0  0  0  0  0  0  0  0  0  0  0
   29.0169    9.0485   51.6689 C   0  0  2  0  0  0  0  0  0  0  0  0
   28.5197    7.6426   51.6669 N   0  3  0  0  0  0  0  0  0  0  0  0
   29.3495    9.4379   50.2120 C   0  0  1  0  0  0  0  0  0  0  0  0
   28.2320    9.2632   49.3873 O   0  0  0  0  0  0  0  0  0  0  0  0
   29.8461   10.9020   50.1544 C   0  0  2  0  0  0  0  0  0  0  0  0
   30.1361   11.2860   48.8249 O   0  0  0  0  0  0  0  0  0  0  0  0
   31.0934   11.0552   50.9987 C   0  0  2  0  0  0  0  0  0  0  0  0
   30.8168   10.6298   52.3270 O   0  0  0  0  0  0  0  0  0  0  0  0
   31.5757   12.4856   51.0894 C   0  0  0  0  0  0  0  0  0  0  0  0
   31.8556   12.9719   49.7907 O   0  0  0  0  0  0  0  0  0  0  0  0
   33.8673    5.8450   54.3383 C   0  0  2  0  0  0  0  0  0  0  0  0
   34.9574    5.4119   55.2132 N   0  3  0  0  0  0  0  0  0  0  0  0
   34.4501    6.5380   53.0621 C   0  0  0  0  0  0  0  0  0  0  0  0
   33.3049    7.0390   52.1616 C   0  0  2  0  0  0  0  0  0  0  0  0
   33.8333    7.7391   50.9862 N   0  3  0  0  0  0  0  0  0  0  0  0
   32.3793    7.9869   52.9493 C   0  0  2  0  0  0  0  0  0  0  0  0
   31.8120    7.3390   54.2274 C   0  0  2  0  0  0  0  0  0  0  0  0
   31.1065    8.3841   54.9243 O   0  0  0  0  0  0  0  0  0  0  0  0
   32.9622    6.7918   55.1103 C   0  0  1  0  0  0  0  0  0  0  0  0
   32.4174    6.1208   56.2130 O   0  0  0  0  0  0  0  0  0  0  0  0
   30.4682    8.1966   56.1847 C   0  0  1  0  0  0  0  0  0  0  0  0
   30.0235    9.5993   56.7332 C   0  0  2  0  0  0  0  0  0  0  0  0
   31.0205   10.2632   57.4910 O   0  0  0  0  0  0  0  0  0  0  0  0
   28.8096    9.1484   57.5335 C   0  0  2  0  0  0  0  0  0  0  0  0
   29.2086    8.3626   58.6967 O   0  0  0  0  0  0  0  0  0  0  0  0
   28.1008    8.2111   56.5658 C   0  0  2  0  0  0  0  0  0  0  0  0
   29.2153    7.4751   56.0329 O   0  0  0  0  0  0  0  0  0  0  0  0
   27.2612    8.9233   55.4551 C   0  0  0  0  0  0  0  0  0  0  0  0
   27.0246    8.0604   54.3355 O   0  0  0  0  0  0  0  0  0  0  0  0
   28.5944    7.0783   58.7670 C   0  0  2  0  0  0  0  0  0  0  0  0
   27.5448    6.9168   59.9188 C   0  0  2  0  0  0  0  0  0  0  0  0
   28.1213    7.1840   61.2714 N   0  3  0  0  0  0  0  0  0  0  0  0
   26.9716    5.4640   59.8157 C   0  0  1  0  0  0  0  0  0  0  0  0
   26.2773    5.3592   58.5140 O   0  0  0  0  0  0  0  0  0  0  0  0
   28.1000    4.3622   59.8783 C   0  0  2  0  0  0  0  0  0  0  0  0
   28.7338    4.4299   61.1661 O   0  0  0  0  0  0  0  0  0  0  0  0
   29.1263    4.6396   58.7029 C   0  0  1  0  0  0  0  0  0  0  0  0
   29.6330    6.0064   58.8710 O   0  0  0  0  0  0  0  0  0  0  0  0
   30.3106    3.6485   58.6378 C   0  0  0  0  0  0  0  0  0  0  0  0
   31.0336    3.5046   59.9305 N   0  3  0  0  0  0  0  0  0  0  0  0
  1  2  1  6  0  0  0
  1  3  1  0  0  0  0
  1 10  1  0  0  0  0
  3  4  1  6  0  0  0
  3  5  1  0  0  0  0
  5  6  1  6  0  0  0
  5  7  1  0  0  0  0
  7  8  1  6  0  0  0
  7  9  1  0  0  0  0
  9 10  1  0  0  0  0
  9 11  1  1  0  0  0
 11 12  1  0  0  0  0
 13 14  1  1  0  0  0
 13 15  1  0  0  0  0
 13 21  1  0  0  0  0
 15 16  1  0  0  0  0
 16 17  1  6  0  0  0
 16 18  1  0  0  0  0
 18  2  1  6  0  0  0
 18 19  1  0  0  0  0
 19 20  1  1  0  0  0
 19 21  1  0  0  0  0
 21 22  1  1  0  0  0
 23 20  1  6  0  0  0
 23 24  1  0  0  0  0
 23 29  1  0  0  0  0
 24 25  1  1  0  0  0
 24 26  1  0  0  0  0
 26 27  1  1  0  0  0
 26 28  1  0  0  0  0
 28 29  1  0  0  0  0
 28 30  1  6  0  0  0
 30 31  1  0  0  0  0
 32 27  1  1  0  0  0
 32 33  1  0  0  0  0
 32 40  1  0  0  0  0
 33 34  1  1  0  0  0
 33 35  1  0  0  0  0
 35 36  1  6  0  0  0
 35 37  1  0  0  0  0
 37 38  1  1  0  0  0
 37 39  1  0  0  0  0
 39 40  1  0  0  0  0
 39 41  1  1  0  0  0
 41 42  1  0  0  0  0
M  CHG  5   4   1  14   1  17   1  34   1  42   1
M  END
>  <CHROM.1>
-160.18479249,-175.32576491,71.97297862,174.63245749,-177.99672952,-59.15701880
175.82380495,57.29919841,47.84140827,-178.02432835,170.56722322,78.28868111
-175.55652414,-125.08487903,-110.33307178,159.33324789,-170.33144255,163.56907163
-174.34211787,84.17779401,-52.19368908,-160.41284190,30.21037069,7.81606780
55.10588137,1.33068079,0.42771473,-1.00109321

>  <Name>
1j7t

>  <RI>
0

>  <Rbt.Current_Directory>
/home/itssahil/PROJECTS/Mol_Feturizer/New_Systems/rnas/1j7t

>  <Rbt.Executable>
rbdock ($Id: //depot/dev/client3/rdock/2013.1/src/exe/rbdock.cxx#4 $)

>  <Rbt.Library>
libRbt.so (2013.1, Build901 2013/11/27)

>  <Rbt.Parameter_File>
/export/apps/rDock/src/rDock_2013.1_src/data/scripts/dock_solv.prm

>  <Rbt.Receptor>
prm/pocket_docking_3.prm

>  <SCORE>
-63.8462

>  <SCORE.INTER>
-54.8455

>  <SCORE.INTER.CONST>
1

>  <SCORE.INTER.POLAR>
-7.65385

>  <SCORE.INTER.ROT>
9

>  <SCORE.INTER.SOLV>
30.7343

>  <SCORE.INTER.VDW>
-30.8956

>  <SCORE.INTER.norm>
-1.30585

>  <SCORE.INTRA>
-9.02197

>  <SCORE.INTRA.DIHEDRAL>
-21.0784

>  <SCORE.INTRA.DIHEDRAL.0>
46.2143

>  <SCORE.INTRA.POLAR>
-0.859598

>  <SCORE.INTRA.POLAR.0>
-1.76436

>  <SCORE.INTRA.REPUL>
0.10382

>  <SCORE.INTRA.REPUL.0>
0

>  <SCORE.INTRA.SOLV>
-0.53625

>  <SCORE.INTRA.SOLV.lig_0>
-148.643

>  <SCORE.INTRA.VDW>
4.1889

>  <SCORE.INTRA.VDW.0>
-4.83512

>  <SCORE.INTRA.norm>
-0.214809

>  <SCORE.RESTR>
0.0213005

>  <SCORE.RESTR.CAVITY>
0.0213005

>  <SCORE.RESTR.norm>
0.000507156

>  <SCORE.SYSTEM>
0

>  <SCORE.SYSTEM.CONST>
0

>  <SCORE.SYSTEM.DIHEDRAL>
0

>  <SCORE.SYSTEM.SOLV>
0

>  <SCORE.SYSTEM.norm>
0

>  <SCORE.heavy>
42

>  <SCORE.norm>
-1.52015

>  <RMSD>
2.090

$$$$
1j7t
 OpenBabel11021811393D
libRbt.so/2013.1/901 2013/11/27
 42 45  0  0  0  0  0  0  0  0999 V2000
   30.2971    9.1700   53.7356 C   0  0  2  0  0  0  0  0  0  0  0  0
   30.6895    7.7796   53.8592 O   0  0  0  0  0  0  0  0  0  0  0  0
   28.8697    9.1832   53.1172 C   0  0  2  0  0  0  0  0  0  0  0  0
   27.8733    8.3446   53.8434 N   0  3  0  0  0  0  0  0  0  0  0  0
   28.9703    8.6561   51.6691 C   0  0  1  0  0  0  0  0  0  0  0  0
   27.7128    8.6604   51.0541 O   0  0  0  0  0  0  0  0  0  0  0  0
   29.9750    9.5117   50.8617 C   0  0  2  0  0  0  0  0  0  0  0  0
   30.0661    9.0587   49.5254 O   0  0  0  0  0  0  0  0  0  0  0  0
   31.3439    9.4402   51.5045 C   0  0  2  0  0  0  0  0  0  0  0  0
   31.2481    9.8551   52.8612 O   0  0  0  0  0  0  0  0  0  0  0  0
   32.3580   10.3450   50.8414 C   0  0  0  0  0  0  0  0  0  0  0  0
   32.0400   11.6947   51.1216 O   0  0  0  0  0  0  0  0  0  0  0  0
   33.0865    5.1896   56.1818 C   0  0  2  0  0  0  0  0  0  0  0  0
   34.0810    4.7105   57.1425 N   0  3  0  0  0  0  0  0  0  0  0  0
   33.7895    6.0099   55.0499 C   0  0  0  0  0  0  0  0  0  0  0  0
   32.7408    6.5574   54.0629 C   0  0  2  0  0  0  0  0  0  0  0  0
   33.3776    7.3743   53.0246 N   0  3  0  0  0  0  0  0  0  0  0  0
   31.6926    7.4049   54.8105 C   0  0  2  0  0  0  0  0  0  0  0  0
   31.0030    6.6298   55.9502 C   0  0  2  0  0  0  0  0  0  0  0  0
   30.1803    7.5883   56.6429 O   0  0  0  0  0  0  0  0  0  0  0  0
   32.0606    6.0380   56.9162 C   0  0  1  0  0  0  0  0  0  0  0  0
   31.4150    5.2562   57.8832 O   0  0  0  0  0  0  0  0  0  0  0  0
   29.3929    7.2675   57.7867 C   0  0  1  0  0  0  0  0  0  0  0  0
   28.9893    8.6037   58.5061 C   0  0  2  0  0  0  0  0  0  0  0  0
   29.9391    9.0552   59.4564 O   0  0  0  0  0  0  0  0  0  0  0  0
   27.6646    8.1437   59.0985 C   0  0  2  0  0  0  0  0  0  0  0  0
   27.8741    7.1584   60.1543 O   0  0  0  0  0  0  0  0  0  0  0  0
   27.0047    7.4299   57.9270 C   0  0  2  0  0  0  0  0  0  0  0  0
   28.1174    6.6893   57.3968 O   0  0  0  0  0  0  0  0  0  0  0  0
   26.3472    8.3731   56.8669 C   0  0  0  0  0  0  0  0  0  0  0  0
   25.5530    7.6396   55.9261 O   0  0  0  0  0  0  0  0  0  0  0  0
   26.7532    6.9867   61.0178 C   0  0  2  0  0  0  0  0  0  0  0  0
   27.0543    6.1854   62.3299 C   0  0  2  0  0  0  0  0  0  0  0  0
   27.5960    4.8182   62.0639 N   0  3  0  0  0  0  0  0  0  0  0  0
   25.7204    6.1255   63.1464 C   0  0  1  0  0  0  0  0  0  0  0  0
   25.3633    7.5158   63.5030 O   0  0  0  0  0  0  0  0  0  0  0  0
   24.5330    5.4934   62.3207 C   0  0  2  0  0  0  0  0  0  0  0  0
   24.8592    4.1255   62.0254 O   0  0  0  0  0  0  0  0  0  0  0  0
   24.3391    6.3493   61.0009 C   0  0  1  0  0  0  0  0  0  0  0  0
   25.6179    6.3489   60.2812 O   0  0  0  0  0  0  0  0  0  0  0  0
   23.2151    5.8442   60.0679 C   0  0  0  0  0  0  0  0  0  0  0  0
   23.7028    5.4304   58.7241 N   0  3  0  0  0  0  0  0  0  0  0  0
  1  2  1  6  0  0  0
  1  3  1  0  0  0  0
  1 10  1  0  0  0  0
  3  4  1  1  0  0  0
  3  5  1  0  0  0  0
  5  6  1  6  0  0  0
  5  7  1  0  0  0  0
  7  8  1  6  0  0  0
  7  9  1  0  0  0  0
  9 10  1  0  0  0  0
  9 11  1  6  0  0  0
 11 12  1  0  0  0  0
 13 14  1  1  0  0  0
 13 15  1  0  0  0  0
 13 21  1  0  0  0  0
 15 16  1  0  0  0  0
 16 17  1  6  0  0  0
 16 18  1  0  0  0  0
 18  2  1  6  0  0  0
 18 19  1  0  0  0  0
 19 20  1  1  0  0  0
 19 21  1  0  0  0  0
 21 22  1  1  0  0  0
 23 20  1  6  0  0  0
 23 24  1  0  0  0  0
 23 29  1  0  0  0  0
 24 25  1  1  0  0  0
 24 26  1  0  0  0  0
 26 27  1  1  0  0  0
 26 28  1  0  0  0  0
 28 29  1  0  0  0  0
 28 30  1  6  0  0  0
 30 31  1  0  0  0  0
 32 27  1  6  0  0  0
 32 33  1  0  0  0  0
 32 40  1  0  0  0  0
 33 34  1  6  0  0  0
 33 35  1  0  0  0  0
 35 36  1  6  0  0  0
 35 37  1  0  0  0  0
 37 38  1  6  0  0  0
 37 39  1  0  0  0  0
 39 40  1  0  0  0  0
 39 41  1  6  0  0  0
 41 42  1  0  0  0  0
M  CHG  5   4   1  14   1  17   1  34   1  42   1
M  END
>  <CHROM.1>
-157.03267255,-129.04260841,-83.29947584,-68.84551092,64.62967573,70.13439329
72.35683816,-51.53966153,45.98957895,-178.75729868,163.37947036,73.32212354
61.06310678,161.88267682,-167.08282065,-169.92123239,-176.80062404,107.91409359
102.23654486,-75.93740875,-118.36222607,-2.87705568,28.90466042,7.37256379
56.68138214,1.02404443,0.20797432,-1.15881424

>  <Name>
1j7t

>  <RI>
0

>  <Rbt.Current_Directory>
/home/itssahil/PROJECTS/Mol_Feturizer/New_Systems/rnas/1j7t

>  <Rbt.Executable>
rbdock ($Id: //depot/dev/client3/rdock/2013.1/src/exe/rbdock.cxx#4 $)

>  <Rbt.Library>
libRbt.so (2013.1, Build901 2013/11/27)

>  <Rbt.Parameter_File>
/export/apps/rDock/src/rDock_2013.1_src/data/scripts/dock_solv.prm

>  <Rbt.Receptor>
prm/pocket_docking_3.prm

>  <SCORE>
-38.7077

>  <SCORE.INTER>
-39.7796

>  <SCORE.INTER.CONST>
1

>  <SCORE.INTER.POLAR>
-6.30848

>  <SCORE.INTER.ROT>
9

>  <SCORE.INTER.SOLV>
22.422

>  <SCORE.INTER.VDW>
-22.5655

>  <SCORE.INTER.norm>
-0.947134

>  <SCORE.INTRA>
1.02123

>  <SCORE.INTRA.DIHEDRAL>
-9.29024

>  <SCORE.INTRA.DIHEDRAL.0>
46.2143

>  <SCORE.INTRA.POLAR>
1.36286

>  <SCORE.INTRA.POLAR.0>
-1.76436

>  <SCORE.INTRA.REPUL>
0

>  <SCORE.INTRA.REPUL.0>
0

>  <SCORE.INTRA.SOLV>
3.71866

>  <SCORE.INTRA.SOLV.lig_0>
-148.643

>  <SCORE.INTRA.VDW>
-0.826714

>  <SCORE.INTRA.VDW.0>
-4.83512

>  <SCORE.INTRA.norm>
0.024315

>  <SCORE.RESTR>
0.0507082

>  <SCORE.RESTR.CAVITY>
0.0507082

>  <SCORE.RESTR.norm>
0.00120734

>  <SCORE.SYSTEM>
0

>  <SCORE.SYSTEM.CONST>
0

>  <SCORE.SYSTEM.DIHEDRAL>
0

>  <SCORE.SYSTEM.SOLV>
0

>  <SCORE.SYSTEM.norm>
0

>  <SCORE.heavy>
42

>  <SCORE.norm>
-0.921612

>  <RMSD>
2.111

$$$$
1j7t
 OpenBabel11021811393D
libRbt.so/2013.1/901 2013/11/27
 42 45  0  0  0  0  0  0  0  0999 V2000
   30.6199    9.0951   53.0975 C   0  0  2  0  0  0  0  0  0  0  0  0
   30.9841    7.7306   52.7689 O   0  0  0  0  0  0  0  0  0  0  0  0
   29.1622    9.3064   52.5969 C   0  0  2  0  0  0  0  0  0  0  0  0
   28.1858    8.2931   53.0902 N   0  3  0  0  0  0  0  0  0  0  0  0
   29.1722    9.2458   51.0538 C   0  0  1  0  0  0  0  0  0  0  0  0
   27.8842    9.4465   50.5438 O   0  0  0  0  0  0  0  0  0  0  0  0
   30.1530   10.3001   50.4879 C   0  0  2  0  0  0  0  0  0  0  0  0
   30.1614   10.2760   49.0742 O   0  0  0  0  0  0  0  0  0  0  0  0
   31.5521   10.0262   50.9974 C   0  0  2  0  0  0  0  0  0  0  0  0
   31.5392   10.0077   52.4192 O   0  0  0  0  0  0  0  0  0  0  0  0
   32.5512   11.0831   50.5831 C   0  0  0  0  0  0  0  0  0  0  0  0
   32.1336   12.3436   51.0711 O   0  0  0  0  0  0  0  0  0  0  0  0
   33.0977    4.4748   54.4366 C   0  0  2  0  0  0  0  0  0  0  0  0
   34.0863    3.7054   55.1930 N   0  3  0  0  0  0  0  0  0  0  0  0
   33.8100    5.3077   53.3198 C   0  0  0  0  0  0  0  0  0  0  0  0
   32.7784    6.1568   52.5527 C   0  0  2  0  0  0  0  0  0  0  0  0
   33.4361    6.9850   51.5366 N   0  3  0  0  0  0  0  0  0  0  0  0
   31.9997    7.0628   53.5266 C   0  0  2  0  0  0  0  0  0  0  0  0
   31.3098    6.2706   54.6543 C   0  0  2  0  0  0  0  0  0  0  0  0
   30.7658    7.2535   55.5562 O   0  0  0  0  0  0  0  0  0  0  0  0
   32.3393    5.3797   55.3947 C   0  0  1  0  0  0  0  0  0  0  0  0
   31.6716    4.5969   56.3457 O   0  0  0  0  0  0  0  0  0  0  0  0
   30.0025    6.9218   56.7132 C   0  0  1  0  0  0  0  0  0  0  0  0
   29.0879    8.1456   57.0762 C   0  0  2  0  0  0  0  0  0  0  0  0
   29.7083    9.0956   57.9257 O   0  0  0  0  0  0  0  0  0  0  0  0
   27.9360    7.3794   57.7112 C   0  0  2  0  0  0  0  0  0  0  0  0
   28.3386    6.7799   58.9794 O   0  0  0  0  0  0  0  0  0  0  0  0
   27.7014    6.2474   56.7208 C   0  0  2  0  0  0  0  0  0  0  0  0
   29.0539    5.8585   56.4254 O   0  0  0  0  0  0  0  0  0  0  0  0
   26.8955    6.6480   55.4418 C   0  0  0  0  0  0  0  0  0  0  0  0
   26.4146    5.4965   54.7370 O   0  0  0  0  0  0  0  0  0  0  0  0
   27.3354    6.8337   59.9905 C   0  0  2  0  0  0  0  0  0  0  0  0
   27.4733    8.0354   60.9861 C   0  0  2  0  0  0  0  0  0  0  0  0
   28.7889    8.0541   61.6949 N   0  3  0  0  0  0  0  0  0  0  0  0
   26.2797    7.9347   61.9936 C   0  0  1  0  0  0  0  0  0  0  0  0
   25.0339    8.0971   61.2131 O   0  0  0  0  0  0  0  0  0  0  0  0
   26.2327    6.5445   62.7395 C   0  0  2  0  0  0  0  0  0  0  0  0
   27.4182    6.4158   63.5412 O   0  0  0  0  0  0  0  0  0  0  0  0
   26.1355    5.4010   61.6464 C   0  0  1  0  0  0  0  0  0  0  0  0
   27.2886    5.5459   60.7505 O   0  0  0  0  0  0  0  0  0  0  0  0
   26.0976    3.9663   62.2201 C   0  0  0  0  0  0  0  0  0  0  0  0
   26.1211    2.9093   61.1728 N   0  3  0  0  0  0  0  0  0  0  0  0
  1  2  1  6  0  0  0
  1  3  1  0  0  0  0
  1 10  1  0  0  0  0
  3  4  1  1  0  0  0
  3  5  1  0  0  0  0
  5  6  1  6  0  0  0
  5  7  1  0  0  0  0
  7  8  1  6  0  0  0
  7  9  1  0  0  0  0
  9 10  1  0  0  0  0
  9 11  1  1  0  0  0
 11 12  1  0  0  0  0
 13 14  1  1  0  0  0
 13 15  1  0  0  0  0
 13 21  1  0  0  0  0
 15 16  1  0  0  0  0
 16 17  1  6  0  0  0
 16 18  1  0  0  0  0
 18  2  1  6  0  0  0
 18 19  1  0  0  0  0
 19 20  1  1  0  0  0
 19 21  1  0  0  0  0
 21 22  1  1  0  0  0
 23 20  1  6  0  0  0
 23 24  1  0  0  0  0
 23 29  1  0  0  0  0
 24 25  1  1  0  0  0
 24 26  1  0  0  0  0
 26 27  1  1  0  0  0
 26 28  1  0  0  0  0
 28 29  1  0  0  0  0
 28 30  1  6  0  0  0
 30 31  1  0  0  0  0
 32 27  1  6  0  0  0
 32 33  1  0  0  0  0
 32 40  1  0  0  0  0
 33 34  1  1  0  0  0
 33 35  1  0  0  0  0
 35 36  1  6  0  0  0
 35 37  1  0  0  0  0
 37 38  1  6  0  0  0
 37 39  1  0  0  0  0
 39 40  1  0  0  0  0
 39 41  1  1  0  0  0
 41 42  1  0  0  0  0
M  CHG  5   4   1  14   1  17   1  34   1  42   1
M  END
>  <CHROM.1>
-155.18117331,-144.59070478,-76.92324430,173.32577076,176.51870911,58.86891936
-55.28315606,57.06227433,143.01019286,177.61961466,-155.72817863,-55.33439086
56.92598787,141.06854310,-96.32692430,-164.85405938,62.88537017,172.66596961
59.17742102,-178.75699097,-175.18073514,35.18467443,29.48675247,7.29496425
55.94875019,1.02986337,0.67398207,-0.93285658

>  <Name>
1j7t

>  <RI>
0

>  <Rbt.Current_Directory>
/home/itssahil/PROJECTS/Mol_Feturizer/New_Systems/rnas/1j7t

>  <Rbt.Executable>
rbdock ($Id: //depot/dev/client3/rdock/2013.1/src/exe/rbdock.cxx#4 $)

>  <Rbt.Library>
libRbt.so (2013.1, Build901 2013/11/27)

>  <Rbt.Parameter_File>
/export/apps/rDock/src/rDock_2013.1_src/data/scripts/dock_solv.prm

>  <Rbt.Receptor>
prm/pocket_docking_4.prm

>  <SCORE>
-34.1691

>  <SCORE.INTER>
-26.7994

>  <SCORE.INTER.CONST>
1

>  <SCORE.INTER.POLAR>
-4.31239

>  <SCORE.INTER.ROT>
9

>  <SCORE.INTER.SOLV>
19.7348

>  <SCORE.INTER.VDW>
-19.6699

>  <SCORE.INTER.norm>
-0.638081

>  <SCORE.INTRA>
-7.36972

>  <SCORE.INTRA.DIHEDRAL>
-20.179

>  <SCORE.INTRA.DIHEDRAL.0>
46.2143

>  <SCORE.INTRA.POLAR>
1.00668

>  <SCORE.INTRA.POLAR.0>
-1.76436

>  <SCORE.INTRA.REPUL>
0

>  <SCORE.INTRA.REPUL.0>
0

>  <SCORE.INTRA.SOLV>
-1.37009

>  <SCORE.INTRA.SOLV.lig_0>
-148.643

>  <SCORE.INTRA.VDW>
-0.0179069

>  <SCORE.INTRA.VDW.0>
-4.83512

>  <SCORE.INTRA.norm>
-0.17547

>  <SCORE.RESTR>
0

>  <SCORE.RESTR.CAVITY>
0

>  <SCORE.RESTR.norm>
0

>  <SCORE.SYSTEM>
0

>  <SCORE.SYSTEM.CONST>
0

>  <SCORE.SYSTEM.DIHEDRAL>
0

>  <SCORE.SYSTEM.SOLV>
0

>  <SCORE.SYSTEM.norm>
0

>  <SCORE.heavy>
42

>  <SCORE.norm>
-0.81355

>  <RMSD>
2.112

$$$$
1j7t
 OpenBabel11021811393D
libRbt.so/2013.1/901 2013/11/27
 42 45  0  0  0  0  0  0  0  0999 V2000
   30.4434    8.8349   52.6353 C   0  0  2  0  0  0  0  0  0  0  0  0
   31.4202    7.8823   52.1446 O   0  0  0  0  0  0  0  0  0  0  0  0
   29.1325    8.5909   51.8339 C   0  0  2  0  0  0  0  0  0  0  0  0
   28.6506    7.1798   51.8512 N   0  3  0  0  0  0  0  0  0  0  0  0
   29.3890    8.9882   50.3638 C   0  0  1  0  0  0  0  0  0  0  0  0
   28.2341    8.8043   49.5944 O   0  0  0  0  0  0  0  0  0  0  0  0
   29.8669   10.4577   50.2870 C   0  0  2  0  0  0  0  0  0  0  0  0
   30.0872   10.8488   48.9463 O   0  0  0  0  0  0  0  0  0  0  0  0
   31.1526   10.6215   51.0695 C   0  0  2  0  0  0  0  0  0  0  0  0
   30.9461   10.1891   52.4083 O   0  0  0  0  0  0  0  0  0  0  0  0
   31.6238   12.0566   51.1415 C   0  0  0  0  0  0  0  0  0  0  0  0
   31.9122   12.5240   49.8378 O   0  0  0  0  0  0  0  0  0  0  0  0
   34.3637    5.5726   54.1067 C   0  0  2  0  0  0  0  0  0  0  0  0
   35.5479    5.2076   54.8850 N   0  3  0  0  0  0  0  0  0  0  0  0
   34.7907    6.3507   52.8180 C   0  0  0  0  0  0  0  0  0  0  0  0
   33.5442    6.7794   52.0206 C   0  0  2  0  0  0  0  0  0  0  0  0
   33.9241    7.5570   50.8364 N   0  3  0  0  0  0  0  0  0  0  0  0
   32.6047    7.6211   52.9064 C   0  0  2  0  0  0  0  0  0  0  0  0
   32.1895    6.8892   54.1975 C   0  0  2  0  0  0  0  0  0  0  0  0
   31.4540    7.8492   54.9805 O   0  0  0  0  0  0  0  0  0  0  0  0
   33.4434    6.4154   54.9754 C   0  0  1  0  0  0  0  0  0  0  0  0
   33.0394    5.6677   56.0892 O   0  0  0  0  0  0  0  0  0  0  0  0
   30.0945    7.6705   55.3691 C   0  0  1  0  0  0  0  0  0  0  0  0
   30.0640    7.0883   56.8272 C   0  0  2  0  0  0  0  0  0  0  0  0
   30.1231    5.6733   56.8832 O   0  0  0  0  0  0  0  0  0  0  0  0
   28.7394    7.6889   57.2768 C   0  0  2  0  0  0  0  0  0  0  0  0
   27.6180    7.0788   56.5697 O   0  0  0  0  0  0  0  0  0  0  0  0
   28.8501    9.1323   56.8059 C   0  0  2  0  0  0  0  0  0  0  0  0
   29.4157    8.9497   55.4965 O   0  0  0  0  0  0  0  0  0  0  0  0
   29.7226   10.0570   57.7166 C   0  0  0  0  0  0  0  0  0  0  0  0
   30.0051   11.3105   57.0820 O   0  0  0  0  0  0  0  0  0  0  0  0
   26.9401    6.0721   57.3171 C   0  0  2  0  0  0  0  0  0  0  0  0
   26.5341    4.8048   56.4903 C   0  0  2  0  0  0  0  0  0  0  0  0
   25.6565    5.1287   55.3248 N   0  3  0  0  0  0  0  0  0  0  0  0
   25.8317    3.8173   57.4809 C   0  0  1  0  0  0  0  0  0  0  0  0
   26.8351    3.4286   58.4956 O   0  0  0  0  0  0  0  0  0  0  0  0
   24.5968    4.4718   58.2144 C   0  0  2  0  0  0  0  0  0  0  0  0
   23.6005    4.7959   57.2310 O   0  0  0  0  0  0  0  0  0  0  0  0
   25.1057    5.7615   58.9823 C   0  0  1  0  0  0  0  0  0  0  0  0
   25.7356    6.6452   57.9946 O   0  0  0  0  0  0  0  0  0  0  0  0
   24.0030    6.5319   59.7436 C   0  0  0  0  0  0  0  0  0  0  0  0
   23.3781    5.7422   60.8392 N   0  3  0  0  0  0  0  0  0  0  0  0
  1  2  1  6  0  0  0
  1  3  1  0  0  0  0
  1 10  1  0  0  0  0
  3  4  1  6  0  0  0
  3  5  1  0  0  0  0
  5  6  1  6  0  0  0
  5  7  1  0  0  0  0
  7  8  1  6  0  0  0
  7  9  1  0  0  0  0
  9 10  1  0  0  0  0
  9 11  1  1  0  0  0
 11 12  1  0  0  0  0
 13 14  1  1  0  0  0
 13 15  1  0  0  0  0
 13 21  1  0  0  0  0
 15 16  1  0  0  0  0
 16 17  1  6  0  0  0
 16 18  1  0  0  0  0
 18  2  1  6  0  0  0
 18 19  1  0  0  0  0
 19 20  1  1  0  0  0
 19 21  1  0  0  0  0
 21 22  1  1  0  0  0
 23 20  1  1  0  0  0
 23 24  1  0  0  0  0
 23 29  1  0  0  0  0
 24 25  1  6  0  0  0
 24 26  1  0  0  0  0
 26 27  1  6  0  0  0
 26 28  1  0  0  0  0
 28 29  1  0  0  0  0
 28 30  1  1  0  0  0
 30 31  1  0  0  0  0
 32 27  1  6  0  0  0
 32 33  1  0  0  0  0
 32 40  1  0  0  0  0
 33 34  1  6  0  0  0
 33 35  1  0  0  0  0
 35 36  1  1  0  0  0
 35 37  1  0  0  0  0
 37 38  1  6  0  0  0
 37 39  1  0  0  0  0
 39 40  1  0  0  0  0
 39 41  1  6  0  0  0
 41 42  1  0  0  0  0
M  CHG  5   4   1  14   1  17   1  34   1  42   1
M  END
>  <CHROM.1>
-163.92879255,-170.00260682,-173.14208317,56.50710532,-49.55030451,-62.68653172
53.39180391,-59.68179252,51.27664717,119.31578039,96.68338536,-179.22076340
176.44627692,99.68931831,-138.65368728,168.21433150,54.51211282,-76.22895667
-179.66830353,-160.38500080,63.30179359,178.53610600,29.51294111,7.49533809
54.70660882,0.84885421,0.22113812,-0.89978428

>  <Name>
1j7t

>  <RI>
0

>  <Rbt.Current_Directory>
/home/itssahil/PROJECTS/Mol_Feturizer/New_Systems/rnas/1j7t

>  <Rbt.Executable>
rbdock ($Id: //depot/dev/client3/rdock/2013.1/src/exe/rbdock.cxx#4 $)

>  <Rbt.Library>
libRbt.so (2013.1, Build901 2013/11/27)

>  <Rbt.Parameter_File>
/export/apps/rDock/src/rDock_2013.1_src/data/scripts/dock_solv.prm

>  <Rbt.Receptor>
prm/pocket_docking_3.prm

>  <SCORE>
-59.924

>  <SCORE.INTER>
-49.6636

>  <SCORE.INTER.CONST>
1

>  <SCORE.INTER.POLAR>
-7.17534

>  <SCORE.INTER.ROT>
9

>  <SCORE.INTER.SOLV>
23.8552

>  <SCORE.INTER.VDW>
-26.743

>  <SCORE.INTER.norm>
-1.18247

>  <SCORE.INTRA>
-10.5479

>  <SCORE.INTRA.DIHEDRAL>
-17.1779

>  <SCORE.INTRA.DIHEDRAL.0>
46.2143

>  <SCORE.INTRA.POLAR>
0.398566

>  <SCORE.INTRA.POLAR.0>
-1.76436

>  <SCORE.INTRA.REPUL>
0

>  <SCORE.INTRA.REPUL.0>
0

>  <SCORE.INTRA.SOLV>
-5.02489

>  <SCORE.INTRA.SOLV.lig_0>
-148.643

>  <SCORE.INTRA.VDW>
-0.801591

>  <SCORE.INTRA.VDW.0>
-4.83512

>  <SCORE.INTRA.norm>
-0.25114

>  <SCORE.RESTR>
0.287496

>  <SCORE.RESTR.CAVITY>
0.287496

>  <SCORE.RESTR.norm>
0.00684515

>  <SCORE.SYSTEM>
0

>  <SCORE.SYSTEM.CONST>
0

>  <SCORE.SYSTEM.DIHEDRAL>
0

>  <SCORE.SYSTEM.SOLV>
0

>  <SCORE.SYSTEM.norm>
0

>  <SCORE.heavy>
42

>  <SCORE.norm>
-1.42676

>  <RMSD>
2.213

$$$$
1j7t
 OpenBabel11021811393D
libRbt.so/2013.1/901 2013/11/27
 42 45  0  0  0  0  0  0  0  0999 V2000
   30.8428   10.1718   52.0177 C   0  0  2  0  0  0  0  0  0  0  0  0
   31.4158    8.8736   51.7199 O   0  0  0  0  0  0  0  0  0  0  0  0
   29.5220   10.2801   51.2029 C   0  0  2  0  0  0  0  0  0  0  0  0
   28.5736    9.1480   51.4089 N   0  3  0  0  0  0  0  0  0  0  0  0
   29.8871   10.3283   49.7031 C   0  0  1  0  0  0  0  0  0  0  0  0
   28.7337   10.4426   48.9181 O   0  0  0  0  0  0  0  0  0  0  0  0
   30.8517   11.5065   49.4295 C   0  0  2  0  0  0  0  0  0  0  0  0
   31.1820   11.5818   48.0568 O   0  0  0  0  0  0  0  0  0  0  0  0
   32.1204   11.3300   50.2365 C   0  0  2  0  0  0  0  0  0  0  0  0
   31.7885   11.2115   51.6141 O   0  0  0  0  0  0  0  0  0  0  0  0
   33.0683   12.5021   50.1146 C   0  0  0  0  0  0  0  0  0  0  0  0
   32.5034   13.6331   50.7493 O   0  0  0  0  0  0  0  0  0  0  0  0
   33.8102    5.9717   53.6418 C   0  0  2  0  0  0  0  0  0  0  0  0
   34.8616    5.3601   54.4553 N   0  3  0  0  0  0  0  0  0  0  0  0
   34.4483    6.7714   52.4580 C   0  0  0  0  0  0  0  0  0  0  0  0
   33.3468    7.4573   51.6274 C   0  0  2  0  0  0  0  0  0  0  0  0
   33.9305    8.2558   50.5445 N   0  3  0  0  0  0  0  0  0  0  0  0
   32.4849    8.3655   52.5263 C   0  0  2  0  0  0  0  0  0  0  0  0
   31.8654    7.6090   53.7176 C   0  0  2  0  0  0  0  0  0  0  0  0
   31.2305    8.6089   54.5377 O   0  0  0  0  0  0  0  0  0  0  0  0
   32.9687    6.8792   54.5250 C   0  0  1  0  0  0  0  0  0  0  0  0
   32.3712    6.1195   55.5393 O   0  0  0  0  0  0  0  0  0  0  0  0
   30.7736    8.3630   55.8650 C   0  0  1  0  0  0  0  0  0  0  0  0
   29.8815    9.5731   56.3187 C   0  0  2  0  0  0  0  0  0  0  0  0
   30.6098   10.6342   56.9124 O   0  0  0  0  0  0  0  0  0  0  0  0
   28.9594    8.8229   57.2696 C   0  0  2  0  0  0  0  0  0  0  0  0
   29.6791    8.3777   58.4585 O   0  0  0  0  0  0  0  0  0  0  0  0
   28.5867    7.5847   56.4664 C   0  0  2  0  0  0  0  0  0  0  0  0
   29.8612    7.2318   55.9017 O   0  0  0  0  0  0  0  0  0  0  0  0
   27.4866    7.8121   55.3783 C   0  0  0  0  0  0  0  0  0  0  0  0
   27.9018    8.7719   54.3984 O   0  0  0  0  0  0  0  0  0  0  0  0
   28.9005    8.4061   59.6521 C   0  0  2  0  0  0  0  0  0  0  0  0
   29.7019    8.1035   60.9638 C   0  0  2  0  0  0  0  0  0  0  0  0
   30.3822    6.7732   60.9347 N   0  3  0  0  0  0  0  0  0  0  0  0
   28.6892    8.2046   62.1529 C   0  0  1  0  0  0  0  0  0  0  0  0
   28.2043    9.6013   62.1967 O   0  0  0  0  0  0  0  0  0  0  0  0
   27.4498    7.2434   61.9760 C   0  0  2  0  0  0  0  0  0  0  0  0
   27.9191    5.8853   61.9912 O   0  0  0  0  0  0  0  0  0  0  0  0
   26.7374    7.6036   60.6068 C   0  0  1  0  0  0  0  0  0  0  0  0
   27.7366    7.4728   59.5401 O   0  0  0  0  0  0  0  0  0  0  0  0
   25.5043    6.7323   60.2763 C   0  0  0  0  0  0  0  0  0  0  0  0
   24.4926    6.7006   61.3672 N   0  3  0  0  0  0  0  0  0  0  0  0
  1  2  1  6  0  0  0
  1  3  1  0  0  0  0
  1 10  1  0  0  0  0
  3  4  1  6  0  0  0
  3  5  1  0  0  0  0
  5  6  1  6  0  0  0
  5  7  1  0  0  0  0
  7  8  1  6  0  0  0
  7  9  1  0  0  0  0
  9 10  1  0  0  0  0
  9 11  1  1  0  0  0
 11 12  1  0  0  0  0
 13 14  1  1  0  0  0
 13 15  1  0  0  0  0
 13 21  1  0  0  0  0
 15 16  1  0  0  0  0
 16 17  1  6  0  0  0
 16 18  1  0  0  0  0
 18  2  1  6  0  0  0
 18 19  1  0  0  0  0
 19 20  1  1  0  0  0
 19 21  1  0  0  0  0
 21 22  1  1  0  0  0
 23 20  1  6  0  0  0
 23 24  1  0  0  0  0
 23 29  1  0  0  0  0
 24 25  1  1  0  0  0
 24 26  1  0  0  0  0
 26 27  1  1  0  0  0
 26 28  1  0  0  0  0
 28 29  1  0  0  0  0
 28 30  1  6  0  0  0
 30 31  1  0  0  0  0
 32 27  1  6  0  0  0
 32 33  1  0  0  0  0
 32 40  1  0  0  0  0
 33 34  1  6  0  0  0
 33 35  1  0  0  0  0
 35 36  1  6  0  0  0
 35 37  1  0  0  0  0
 37 38  1  6  0  0  0
 37 39  1  0  0  0  0
 39 40  1  0  0  0  0
 39 41  1  6  0  0  0
 41 42  1  0  0  0  0
M  CHG  5   4   1  14   1  17   1  34   1  42   1
M  END
>  <CHROM.1>
-166.97713522,-150.39653948,-163.35459507,61.21725799,178.26433820,68.40147773
66.48283027,-177.81301654,-64.85507417,-166.99206556,-168.23908139,-47.31305171
-178.24241652,144.94495708,-172.75819862,60.86465606,-151.67647697,-111.90691410
-59.36494970,102.36948415,53.40662584,53.27402518,30.25454134,8.63078696
55.18006254,1.15524139,0.51014692,-1.09922308

>  <Name>
1j7t

>  <RI>
0

>  <Rbt.Current_Directory>
/home/itssahil/PROJECTS/Mol_Feturizer/New_Systems/rnas/1j7t

>  <Rbt.Executable>
rbdock ($Id: //depot/dev/client3/rdock/2013.1/src/exe/rbdock.cxx#4 $)

>  <Rbt.Library>
libRbt.so (2013.1, Build901 2013/11/27)

>  <Rbt.Parameter_File>
/export/apps/rDock/src/rDock_2013.1_src/data/scripts/dock_solv.prm

>  <Rbt.Receptor>
prm/pocket_docking_4.prm

>  <SCORE>
-64.013

>  <SCORE.INTER>
-51.9724

>  <SCORE.INTER.CONST>
1

>  <SCORE.INTER.POLAR>
-8.04356

>  <SCORE.INTER.ROT>
9

>  <SCORE.INTER.SOLV>
33.2996

>  <SCORE.INTER.VDW>
-28.5363

>  <SCORE.INTER.norm>
-1.23744

>  <SCORE.INTRA>
-12.0517

>  <SCORE.INTRA.DIHEDRAL>
-20.4261

>  <SCORE.INTRA.DIHEDRAL.0>
46.2143

>  <SCORE.INTRA.POLAR>
-0.0694451

>  <SCORE.INTRA.POLAR.0>
-1.76436

>  <SCORE.INTRA.REPUL>
0

>  <SCORE.INTRA.REPUL.0>
0

>  <SCORE.INTRA.SOLV>
-1.35084

>  <SCORE.INTRA.SOLV.lig_0>
-148.643

>  <SCORE.INTRA.VDW>
-0.927061

>  <SCORE.INTRA.VDW.0>
-4.83512

>  <SCORE.INTRA.norm>
-0.286944

>  <SCORE.RESTR>
0.0110943

>  <SCORE.RESTR.CAVITY>
0.0110943

>  <SCORE.RESTR.norm>
0.000264149

>  <SCORE.SYSTEM>
0

>  <SCORE.SYSTEM.CONST>
0

>  <SCORE.SYSTEM.DIHEDRAL>
0

>  <SCORE.SYSTEM.SOLV>
0

>  <SCORE.SYSTEM.norm>
0

>  <SCORE.heavy>
42

>  <SCORE.norm>
-1.52412

>  <RMSD>
2.217

$$$$
1j7t
 OpenBabel11021811393D
libRbt.so/2013.1/901 2013/11/27
 42 45  0  0  0  0  0  0  0  0999 V2000
   29.7470    8.6189   54.3402 C   0  0  2  0  0  0  0  0  0  0  0  0
   30.6687    7.5024   54.2593 O   0  0  0  0  0  0  0  0  0  0  0  0
   28.3578    8.0920   53.8789 C   0  0  2  0  0  0  0  0  0  0  0  0
   27.8865    6.8758   54.6016 N   0  3  0  0  0  0  0  0  0  0  0  0
   28.4514    7.7466   52.3766 C   0  0  1  0  0  0  0  0  0  0  0  0
   27.2205    7.2804   51.9000 O   0  0  0  0  0  0  0  0  0  0  0  0
   28.9121    8.9870   51.5748 C   0  0  2  0  0  0  0  0  0  0  0  0
   28.9837    8.6981   50.1926 O   0  0  0  0  0  0  0  0  0  0  0  0
   30.2745    9.4353   52.0595 C   0  0  2  0  0  0  0  0  0  0  0  0
   30.2165    9.6862   53.4579 O   0  0  0  0  0  0  0  0  0  0  0  0
   30.7448   10.7149   51.4050 C   0  0  0  0  0  0  0  0  0  0  0  0
   32.1589   10.7335   51.3684 O   0  0  0  0  0  0  0  0  0  0  0  0
   33.6218    5.6901   56.6764 C   0  0  2  0  0  0  0  0  0  0  0  0
   34.7466    5.5193   57.5967 N   0  3  0  0  0  0  0  0  0  0  0  0
   34.0970    6.4352   55.3851 C   0  0  0  0  0  0  0  0  0  0  0  0
   32.9055    6.6604   54.4347 C   0  0  2  0  0  0  0  0  0  0  0  0
   33.3226    7.4056   53.2423 N   0  3  0  0  0  0  0  0  0  0  0  0
   31.7837    7.4335   55.1556 C   0  0  2  0  0  0  0  0  0  0  0  0
   31.3147    6.7358   56.4473 C   0  0  2  0  0  0  0  0  0  0  0  0
   30.3922    7.6446   57.0785 O   0  0  0  0  0  0  0  0  0  0  0  0
   32.5208    6.4656   57.3822 C   0  0  1  0  0  0  0  0  0  0  0  0
   32.0843    5.7428   58.5002 O   0  0  0  0  0  0  0  0  0  0  0  0
   29.5118    7.2649   58.1329 C   0  0  1  0  0  0  0  0  0  0  0  0
   29.2974    8.5028   59.0751 C   0  0  2  0  0  0  0  0  0  0  0  0
   30.2633    8.6152   60.1063 O   0  0  0  0  0  0  0  0  0  0  0  0
   27.8900    8.1747   59.5535 C   0  0  2  0  0  0  0  0  0  0  0  0
   27.8887    6.9986   60.4175 O   0  0  0  0  0  0  0  0  0  0  0  0
   27.1775    7.7979   58.2621 C   0  0  2  0  0  0  0  0  0  0  0  0
   28.1786    6.9860   57.6248 O   0  0  0  0  0  0  0  0  0  0  0  0
   26.7306    9.0089   57.3791 C   0  0  0  0  0  0  0  0  0  0  0  0
   27.8436    9.8312   57.0062 O   0  0  0  0  0  0  0  0  0  0  0  0
   26.5871    6.5021   60.7190 C   0  0  2  0  0  0  0  0  0  0  0  0
   26.4506    5.8385   62.1316 C   0  0  2  0  0  0  0  0  0  0  0  0
   27.3946    4.6971   62.3305 N   0  3  0  0  0  0  0  0  0  0  0  0
   24.9605    5.3840   62.2820 C   0  0  1  0  0  0  0  0  0  0  0  0
   24.1250    6.6038   62.2409 O   0  0  0  0  0  0  0  0  0  0  0  0
   24.5024    4.4168   61.1219 C   0  0  2  0  0  0  0  0  0  0  0  0
   25.2775    3.2094   61.2008 O   0  0  0  0  0  0  0  0  0  0  0  0
   24.7189    5.1648   59.7414 C   0  0  1  0  0  0  0  0  0  0  0  0
   26.1337    5.5459   59.6615 O   0  0  0  0  0  0  0  0  0  0  0  0
   24.3303    4.3372   58.4952 C   0  0  0  0  0  0  0  0  0  0  0  0
   22.8682    4.3367   58.2175 N   0  3  0  0  0  0  0  0  0  0  0  0
  1  2  1  6  0  0  0
  1  3  1  0  0  0  0
  1 10  1  0  0  0  0
  3  4  1  1  0  0  0
  3  5  1  0  0  0  0
  5  6  1  6  0  0  0
  5  7  1  0  0  0  0
  7  8  1  6  0  0  0
  7  9  1  0  0  0  0
  9 10  1  0  0  0  0
  9 11  1  6  0  0  0
 11 12  1  0  0  0  0
 13 14  1  1  0  0  0
 13 15  1  0  0  0  0
 13 21  1  0  0  0  0
 15 16  1  0  0  0  0
 16 17  1  6  0  0  0
 16 18  1  0  0  0  0
 18  2  1  6  0  0  0
 18 19  1  0  0  0  0
 19 20  1  1  0  0  0
 19 21  1  0  0  0  0
 21 22  1  1  0  0  0
 23 20  1  6  0  0  0
 23 24  1  0  0  0  0
 23 29  1  0  0  0  0
 24 25  1  1  0  0  0
 24 26  1  0  0  0  0
 26 27  1  1  0  0  0
 26 28  1  0  0  0  0
 28 29  1  0  0  0  0
 28 30  1  6  0  0  0
 30 31  1  0  0  0  0
 32 27  1  6  0  0  0
 32 33  1  0  0  0  0
 32 40  1  0  0  0  0
 33 34  1  6  0  0  0
 33 35  1  0  0  0  0
 35 36  1  6  0  0  0
 35 37  1  0  0  0  0
 37 38  1  6  0  0  0
 37 39  1  0  0  0  0
 39 40  1  0  0  0  0
 39 41  1  6  0  0  0
 41 42  1  0  0  0  0
M  CHG  5   4   1  14   1  17   1  34   1  42   1
M  END
>  <CHROM.1>
-150.14327714,-151.33009953,67.33300005,63.09675020,57.60427000,-151.80970804
-81.88665855,46.42273263,56.47644778,165.54594077,148.20436542,-62.35984444
-175.78476166,-170.01744601,-148.19224051,58.51463638,61.14817169,-177.73854725
179.14459993,173.95726212,80.56375419,61.48777592,28.86119258,7.11404232
56.87324696,0.98685759,-0.01146289,-1.21125661

>  <Name>
1j7t

>  <RI>
0

>  <Rbt.Current_Directory>
/home/itssahil/PROJECTS/Mol_Feturizer/New_Systems/rnas/1j7t

>  <Rbt.Executable>
rbdock ($Id: //depot/dev/client3/rdock/2013.1/src/exe/rbdock.cxx#4 $)

>  <Rbt.Library>
libRbt.so (2013.1, Build901 2013/11/27)

>  <Rbt.Parameter_File>
/export/apps/rDock/src/rDock_2013.1_src/data/scripts/dock_solv.prm

>  <Rbt.Receptor>
prm/pocket_docking_3.prm

>  <SCORE>
-55.9839

>  <SCORE.INTER>
-41.7544

>  <SCORE.INTER.CONST>
1

>  <SCORE.INTER.POLAR>
-6.7424

>  <SCORE.INTER.ROT>
9

>  <SCORE.INTER.SOLV>
24.9518

>  <SCORE.INTER.VDW>
-23.2789

>  <SCORE.INTER.norm>
-0.994154

>  <SCORE.INTRA>
-14.2446

>  <SCORE.INTRA.DIHEDRAL>
-22.5558

>  <SCORE.INTRA.DIHEDRAL.0>
46.2143

>  <SCORE.INTRA.POLAR>
0.0792381

>  <SCORE.INTRA.POLAR.0>
-1.76436

>  <SCORE.INTRA.REPUL>
0.0158247

>  <SCORE.INTRA.REPUL.0>
0

>  <SCORE.INTRA.SOLV>
-1.0099

>  <SCORE.INTRA.SOLV.lig_0>
-148.643

>  <SCORE.INTRA.VDW>
-2.81032

>  <SCORE.INTRA.VDW.0>
-4.83512

>  <SCORE.INTRA.norm>
-0.339158

>  <SCORE.RESTR>
0.015167

>  <SCORE.RESTR.CAVITY>
0.015167

>  <SCORE.RESTR.norm>
0.000361119

>  <SCORE.SYSTEM>
0

>  <SCORE.SYSTEM.CONST>
0

>  <SCORE.SYSTEM.DIHEDRAL>
0

>  <SCORE.SYSTEM.SOLV>
0

>  <SCORE.SYSTEM.norm>
0

>  <SCORE.heavy>
42

>  <SCORE.norm>
-1.33295

>  <RMSD>
2.233

$$$$
1j7t
 OpenBabel11021811393D
libRbt.so/2013.1/901 2013/11/27
 42 45  0  0  0  0  0  0  0  0999 V2000
   30.3563    8.7667   52.5851 C   0  0  2  0  0  0  0  0  0  0  0  0
   31.3716    7.8916   52.0322 O   0  0  0  0  0  0  0  0  0  0  0  0
   29.0563    8.5242   51.7659 C   0  0  2  0  0  0  0  0  0  0  0  0
   28.6335    7.0965   51.6848 N   0  3  0  0  0  0  0  0  0  0  0  0
   29.2950    9.0323   50.3272 C   0  0  1  0  0  0  0  0  0  0  0  0
   28.1483    8.8541   49.5444 O   0  0  0  0  0  0  0  0  0  0  0  0
   29.7113   10.5222   50.3531 C   0  0  2  0  0  0  0  0  0  0  0  0
   29.9142   11.0137   49.0430 O   0  0  0  0  0  0  0  0  0  0  0  0
   30.9895   10.6849   51.1479 C   0  0  2  0  0  0  0  0  0  0  0  0
   30.8021   10.1530   52.4532 O   0  0  0  0  0  0  0  0  0  0  0  0
   31.4006   12.1301   51.3197 C   0  0  0  0  0  0  0  0  0  0  0  0
   31.8412   12.6456   50.0782 O   0  0  0  0  0  0  0  0  0  0  0  0
   34.5175    5.6688   53.7674 C   0  0  2  0  0  0  0  0  0  0  0  0
   35.7398    5.3361   54.4999 N   0  3  0  0  0  0  0  0  0  0  0  0
   34.8608    6.5775   52.5407 C   0  0  0  0  0  0  0  0  0  0  0  0
   33.5712    6.9702   51.7949 C   0  0  2  0  0  0  0  0  0  0  0  0
   33.8694    7.8665   50.6729 N   0  3  0  0  0  0  0  0  0  0  0  0
   32.5861    7.6634   52.7565 C   0  0  2  0  0  0  0  0  0  0  0  0
   32.2510    6.8013   53.9893 C   0  0  2  0  0  0  0  0  0  0  0  0
   31.4584    7.6361   54.8556 O   0  0  0  0  0  0  0  0  0  0  0  0
   33.5512    6.3660   54.7117 C   0  0  1  0  0  0  0  0  0  0  0  0
   33.2254    5.5031   55.7664 O   0  0  0  0  0  0  0  0  0  0  0  0
   30.1706    7.2662   55.3412 C   0  0  1  0  0  0  0  0  0  0  0  0
   30.3559    6.3835   56.6267 C   0  0  2  0  0  0  0  0  0  0  0  0
   30.5014    4.9994   56.3583 O   0  0  0  0  0  0  0  0  0  0  0  0
   29.0663    6.7617   57.3416 C   0  0  2  0  0  0  0  0  0  0  0  0
   27.9015    6.2273   56.6435 O   0  0  0  0  0  0  0  0  0  0  0  0
   29.0353    8.2766   57.1959 C   0  0  2  0  0  0  0  0  0  0  0  0
   29.4419    8.4273   55.8248 O   0  0  0  0  0  0  0  0  0  0  0  0
   29.9614    9.0528   58.1888 C   0  0  0  0  0  0  0  0  0  0  0  0
   29.9432   10.4635   57.9367 O   0  0  0  0  0  0  0  0  0  0  0  0
   27.0081    5.4976   57.4808 C   0  0  2  0  0  0  0  0  0  0  0  0
   26.3551    4.2437   56.8058 C   0  0  2  0  0  0  0  0  0  0  0  0
   25.5910    4.5831   55.5672 N   0  3  0  0  0  0  0  0  0  0  0  0
   25.4373    3.5710   57.8804 C   0  0  1  0  0  0  0  0  0  0  0  0
   26.3132    3.1216   58.9842 O   0  0  0  0  0  0  0  0  0  0  0  0
   24.3580    4.5647   58.4626 C   0  0  2  0  0  0  0  0  0  0  0  0
   23.4744    4.9542   57.3985 O   0  0  0  0  0  0  0  0  0  0  0  0
   25.1174    5.8107   59.0815 C   0  0  1  0  0  0  0  0  0  0  0  0
   25.9421    6.3986   58.0196 O   0  0  0  0  0  0  0  0  0  0  0  0
   24.1918    6.8926   59.6827 C   0  0  0  0  0  0  0  0  0  0  0  0
   24.9226    7.9351   60.4532 N   0  3  0  0  0  0  0  0  0  0  0  0
  1  2  1  6  0  0  0
  1  3  1  0  0  0  0
  1 10  1  0  0  0  0
  3  4  1  6  0  0  0
  3  5  1  0  0  0  0
  5  6  1  6  0  0  0
  5  7  1  0  0  0  0
  7  8  1  6  0  0  0
  7  9  1  0  0  0  0
  9 10  1  0  0  0  0
  9 11  1  1  0  0  0
 11 12  1  0  0  0  0
 13 14  1  1  0  0  0
 13 15  1  0  0  0  0
 13 21  1  0  0  0  0
 15 16  1  0  0  0  0
 16 17  1  6  0  0  0
 16 18  1  0  0  0  0
 18  2  1  6  0  0  0
 18 19  1  0  0  0  0
 19 20  1  1  0  0  0
 19 21  1  0  0  0  0
 21 22  1  1  0  0  0
 23 20  1  1  0  0  0
 23 24  1  0  0  0  0
 23 29  1  0  0  0  0
 24 25  1  6  0  0  0
 24 26  1  0  0  0  0
 26 27  1  6  0  0  0
 26 28  1  0  0  0  0
 28 29  1  0  0  0  0
 28 30  1  1  0  0  0
 30 31  1  0  0  0  0
 32 27  1  6  0  0  0
 32 33  1  0  0  0  0
 32 40  1  0  0  0  0
 33 34  1  6  0  0  0
 33 35  1  0  0  0  0
 35 36  1  1  0  0  0
 35 37  1  0  0  0  0
 37 38  1  6  0  0  0
 37 39  1  0  0  0  0
 39 40  1  0  0  0  0
 39 41  1  6  0  0  0
 41 42  1  0  0  0  0
M  CHG  5   4   1  14   1  17   1  34   1  42   1
M  END
>  <CHROM.1>
-166.01486703,-167.53098527,174.21698265,-67.33782909,-55.56035284,-70.52569502
-178.07764116,63.63957955,-177.69782462,125.16588302,84.63936669,157.83776758
69.40183704,128.72548891,-142.89729788,176.34475485,-166.78368549,-67.88975161
-56.72326744,-172.85788574,170.41487235,-47.11064531,29.56754558,7.37369769
54.72483022,0.86759849,0.23556817,-0.90686827

>  <Name>
1j7t

>  <RI>
0

>  <Rbt.Current_Directory>
/home/itssahil/PROJECTS/Mol_Feturizer/New_Systems/rnas/1j7t

>  <Rbt.Executable>
rbdock ($Id: //depot/dev/client3/rdock/2013.1/src/exe/rbdock.cxx#4 $)

>  <Rbt.Library>
libRbt.so (2013.1, Build901 2013/11/27)

>  <Rbt.Parameter_File>
/export/apps/rDock/src/rDock_2013.1_src/data/scripts/dock_solv.prm

>  <Rbt.Receptor>
prm/pocket_docking_3.prm

>  <SCORE>
-60.4982

>  <SCORE.INTER>
-48.3771

>  <SCORE.INTER.CONST>
1

>  <SCORE.INTER.POLAR>
-7.06589

>  <SCORE.INTER.ROT>
9

>  <SCORE.INTER.SOLV>
23.0532

>  <SCORE.INTER.VDW>
-25.9829

>  <SCORE.INTER.norm>
-1.15184

>  <SCORE.INTRA>
-12.1999

>  <SCORE.INTRA.DIHEDRAL>
-17.4841

>  <SCORE.INTRA.DIHEDRAL.0>
46.2143

>  <SCORE.INTRA.POLAR>
0.393466

>  <SCORE.INTRA.POLAR.0>
-1.76436

>  <SCORE.INTRA.REPUL>
0

>  <SCORE.INTRA.REPUL.0>
0

>  <SCORE.INTRA.SOLV>
-5.95437

>  <SCORE.INTRA.SOLV.lig_0>
-148.643

>  <SCORE.INTRA.VDW>
-1.81849

>  <SCORE.INTRA.VDW.0>
-4.83512

>  <SCORE.INTRA.norm>
-0.290475

>  <SCORE.RESTR>
0.0788773

>  <SCORE.RESTR.CAVITY>
0.0788773

>  <SCORE.RESTR.norm>
0.00187803

>  <SCORE.SYSTEM>
0

>  <SCORE.SYSTEM.CONST>
0

>  <SCORE.SYSTEM.DIHEDRAL>
0

>  <SCORE.SYSTEM.SOLV>
0

>  <SCORE.SYSTEM.norm>
0

>  <SCORE.heavy>
42

>  <SCORE.norm>
-1.44043

>  <RMSD>
2.260

$$$$
1j7t
 OpenBabel11021811393D
libRbt.so/2013.1/901 2013/11/27
 42 45  0  0  0  0  0  0  0  0999 V2000
   29.8845    8.3168   54.7299 C   0  0  2  0  0  0  0  0  0  0  0  0
   30.5485    7.0432   54.5310 O   0  0  0  0  0  0  0  0  0  0  0  0
   28.3739    8.0892   54.4359 C   0  0  2  0  0  0  0  0  0  0  0  0
   27.7566    6.9686   55.2019 N   0  3  0  0  0  0  0  0  0  0  0  0
   28.2204    7.7783   52.9310 C   0  0  1  0  0  0  0  0  0  0  0  0
   26.8742    7.5794   52.6031 O   0  0  0  0  0  0  0  0  0  0  0  0
   28.8229    8.9271   52.0878 C   0  0  2  0  0  0  0  0  0  0  0  0
   28.6734    8.6722   50.7052 O   0  0  0  0  0  0  0  0  0  0  0  0
   30.2945    9.0823   52.4078 C   0  0  2  0  0  0  0  0  0  0  0  0
   30.4516    9.2968   53.8047 O   0  0  0  0  0  0  0  0  0  0  0  0
   30.9314   10.2632   51.7099 C   0  0  0  0  0  0  0  0  0  0  0  0
   32.3321   10.2266   51.9049 O   0  0  0  0  0  0  0  0  0  0  0  0
   34.1413    5.0784   55.5699 C   0  0  2  0  0  0  0  0  0  0  0  0
   35.5459    4.8450   55.9077 N   0  3  0  0  0  0  0  0  0  0  0  0
   34.0312    5.6763   54.1281 C   0  0  0  0  0  0  0  0  0  0  0  0
   32.5575    5.9691   53.7872 C   0  0  2  0  0  0  0  0  0  0  0  0
   32.4405    6.5802   52.4591 N   0  3  0  0  0  0  0  0  0  0  0  0
   31.9407    6.9103   54.8404 C   0  0  2  0  0  0  0  0  0  0  0  0
   32.0598    6.3587   56.2746 C   0  0  2  0  0  0  0  0  0  0  0  0
   31.5889    7.4061   57.1445 O   0  0  0  0  0  0  0  0  0  0  0  0
   33.5363    6.0187   56.6002 C   0  0  1  0  0  0  0  0  0  0  0  0
   33.6039    5.4269   57.8684 O   0  0  0  0  0  0  0  0  0  0  0  0
   30.6068    7.2046   58.1575 C   0  0  1  0  0  0  0  0  0  0  0  0
   30.7733    8.3254   59.2447 C   0  0  2  0  0  0  0  0  0  0  0  0
   31.6982    8.0010   60.2686 O   0  0  0  0  0  0  0  0  0  0  0  0
   29.3229    8.4087   59.6994 C   0  0  2  0  0  0  0  0  0  0  0  0
   28.9256    7.2007   60.4154 O   0  0  0  0  0  0  0  0  0  0  0  0
   28.5607    8.4346   58.3819 C   0  0  2  0  0  0  0  0  0  0  0  0
   29.2676    7.4275   57.6377 O   0  0  0  0  0  0  0  0  0  0  0  0
   28.5449    9.8205   57.6574 C   0  0  0  0  0  0  0  0  0  0  0  0
   27.6023    9.8428   56.5780 O   0  0  0  0  0  0  0  0  0  0  0  0
   27.6232    7.2694   60.9902 C   0  0  2  0  0  0  0  0  0  0  0  0
   27.4522    6.4630   62.3224 C   0  0  2  0  0  0  0  0  0  0  0  0
   27.7693    5.0108   62.1668 N   0  3  0  0  0  0  0  0  0  0  0  0
   25.9789    6.6806   62.8037 C   0  0  1  0  0  0  0  0  0  0  0  0
   25.8213    8.1229   63.0909 O   0  0  0  0  0  0  0  0  0  0  0  0
   24.9176    6.2622   61.7129 C   0  0  2  0  0  0  0  0  0  0  0  0
   25.0358    4.8495   61.4785 O   0  0  0  0  0  0  0  0  0  0  0  0
   25.2030    7.1017   60.3992 C   0  0  1  0  0  0  0  0  0  0  0  0
   26.5898    6.8382   59.9980 O   0  0  0  0  0  0  0  0  0  0  0  0
   24.2515    6.7930   59.2210 C   0  0  0  0  0  0  0  0  0  0  0  0
   22.8625    6.4747   59.6498 N   0  3  0  0  0  0  0  0  0  0  0  0
  1  2  1  6  0  0  0
  1  3  1  0  0  0  0
  1 10  1  0  0  0  0
  3  4  1  1  0  0  0
  3  5  1  0  0  0  0
  5  6  1  6  0  0  0
  5  7  1  0  0  0  0
  7  8  1  6  0  0  0
  7  9  1  0  0  0  0
  9 10  1  0  0  0  0
  9 11  1  6  0  0  0
 11 12  1  0  0  0  0
 13 14  1  1  0  0  0
 13 15  1  0  0  0  0
 13 21  1  0  0  0  0
 15 16  1  0  0  0  0
 16 17  1  6  0  0  0
 16 18  1  0  0  0  0
 18  2  1  6  0  0  0
 18 19  1  0  0  0  0
 19 20  1  1  0  0  0
 19 21  1  0  0  0  0
 21 22  1  1  0  0  0
 23 20  1  6  0  0  0
 23 24  1  0  0  0  0
 23 29  1  0  0  0  0
 24 25  1  1  0  0  0
 24 26  1  0  0  0  0
 26 27  1  1  0  0  0
 26 28  1  0  0  0  0
 28 29  1  0  0  0  0
 28 30  1  6  0  0  0
 30 31  1  0  0  0  0
 32 27  1  6  0  0  0
 32 33  1  0  0  0  0
 32 40  1  0  0  0  0
 33 34  1  6  0  0  0
 33 35  1  0  0  0  0
 35 36  1  6  0  0  0
 35 37  1  0  0  0  0
 37 38  1  6  0  0  0
 37 39  1  0  0  0  0
 39 40  1  0  0  0  0
 39 41  1  6  0  0  0
 41 42  1  0  0  0  0
M  CHG  5   4   1  14   1  17   1  34   1  42   1
M  END
>  <CHROM.1>
-174.66198124,-143.42790630,48.51922257,62.39419464,177.63855399,-171.68499389
-135.64808957,170.65949357,47.76855811,129.16686526,156.80243843,174.05745178
-53.98818375,173.78413377,-147.89697754,-168.45673254,65.19944032,-21.45781140
62.71093638,-84.48943422,34.80576372,-72.40396162,29.34784161,7.34996250
56.98104162,0.94634902,0.23489187,-1.28489666

>  <Name>
1j7t

>  <RI>
0

>  <Rbt.Current_Directory>
/home/itssahil/PROJECTS/Mol_Feturizer/New_Systems/rnas/1j7t

>  <Rbt.Executable>
rbdock ($Id: //depot/dev/client3/rdock/2013.1/src/exe/rbdock.cxx#4 $)

>  <Rbt.Library>
libRbt.so (2013.1, Build901 2013/11/27)

>  <Rbt.Parameter_File>
/export/apps/rDock/src/rDock_2013.1_src/data/scripts/dock_solv.prm

>  <Rbt.Receptor>
prm/pocket_docking_3.prm

>  <SCORE>
-41.9827

>  <SCORE.INTER>
-35.9029

>  <SCORE.INTER.CONST>
1

>  <SCORE.INTER.POLAR>
-6.00983

>  <SCORE.INTER.ROT>
9

>  <SCORE.INTER.SOLV>
24.8777

>  <SCORE.INTER.VDW>
-21.7951

>  <SCORE.INTER.norm>
-0.854831

>  <SCORE.INTRA>
-6.12419

>  <SCORE.INTRA.DIHEDRAL>
-11.661

>  <SCORE.INTRA.DIHEDRAL.0>
46.2143

>  <SCORE.INTRA.POLAR>
0.563573

>  <SCORE.INTRA.POLAR.0>
-1.76436

>  <SCORE.INTRA.REPUL>
0

>  <SCORE.INTRA.REPUL.0>
0

>  <SCORE.INTRA.SOLV>
1.07315

>  <SCORE.INTRA.SOLV.lig_0>
-148.643

>  <SCORE.INTRA.VDW>
-2.74644

>  <SCORE.INTRA.VDW.0>
-4.83512

>  <SCORE.INTRA.norm>
-0.145814

>  <SCORE.RESTR>
0.0443512

>  <SCORE.RESTR.CAVITY>
0.0443512

>  <SCORE.RESTR.norm>
0.00105598

>  <SCORE.SYSTEM>
0

>  <SCORE.SYSTEM.CONST>
0

>  <SCORE.SYSTEM.DIHEDRAL>
0

>  <SCORE.SYSTEM.SOLV>
0

>  <SCORE.SYSTEM.norm>
0

>  <SCORE.heavy>
42

>  <SCORE.norm>
-0.999589

>  <RMSD>
2.337

$$$$
1j7t
 OpenBabel11021811393D
libRbt.so/2013.1/901 2013/11/27
 42 45  0  0  0  0  0  0  0  0999 V2000
   32.4098    8.3347   51.2782 C   0  0  2  0  0  0  0  0  0  0  0  0
   32.6779    8.5478   52.6872 O   0  0  0  0  0  0  0  0  0  0  0  0
   32.0011    9.7125   50.6828 C   0  0  2  0  0  0  0  0  0  0  0  0
   32.9729   10.8126   50.9454 N   0  3  0  0  0  0  0  0  0  0  0  0
   30.6450   10.1179   51.3006 C   0  0  1  0  0  0  0  0  0  0  0  0
   30.2172   11.3480   50.7875 O   0  0  0  0  0  0  0  0  0  0  0  0
   29.5900    9.0186   51.0321 C   0  0  2  0  0  0  0  0  0  0  0  0
   28.3340    9.3801   51.5715 O   0  0  0  0  0  0  0  0  0  0  0  0
   30.0393    7.7127   51.6524 C   0  0  2  0  0  0  0  0  0  0  0  0
   31.3215    7.3675   51.1436 O   0  0  0  0  0  0  0  0  0  0  0  0
   29.1172    6.5571   51.3339 C   0  0  0  0  0  0  0  0  0  0  0  0
   27.7856    6.9159   51.6494 O   0  0  0  0  0  0  0  0  0  0  0  0
   32.9393    4.5286   53.9621 C   0  0  2  0  0  0  0  0  0  0  0  0
   33.2850    3.3433   54.7476 N   0  3  0  0  0  0  0  0  0  0  0  0
   34.2399    5.2018   53.4110 C   0  0  0  0  0  0  0  0  0  0  0  0
   33.8835    6.4776   52.6244 C   0  0  2  0  0  0  0  0  0  0  0  0
   35.0952    7.1512   52.1457 N   0  3  0  0  0  0  0  0  0  0  0  0
   33.0755    7.4456   53.5109 C   0  0  2  0  0  0  0  0  0  0  0  0
   31.8018    6.7998   54.0904 C   0  0  2  0  0  0  0  0  0  0  0  0
   31.2491    7.7629   55.0081 O   0  0  0  0  0  0  0  0  0  0  0  0
   32.1550    5.4904   54.8405 C   0  0  1  0  0  0  0  0  0  0  0  0
   30.9733    4.8721   55.2696 O   0  0  0  0  0  0  0  0  0  0  0  0
   30.4163    7.4112   56.1099 C   0  0  1  0  0  0  0  0  0  0  0  0
   29.8954    8.7306   56.7837 C   0  0  2  0  0  0  0  0  0  0  0  0
   30.7609    9.2486   57.7795 O   0  0  0  0  0  0  0  0  0  0  0  0
   28.5671    8.2016   57.3065 C   0  0  2  0  0  0  0  0  0  0  0  0
   28.7713    7.2435   58.3882 O   0  0  0  0  0  0  0  0  0  0  0  0
   28.0185    7.4359   56.1107 C   0  0  2  0  0  0  0  0  0  0  0  0
   29.2009    6.7548   55.6568 O   0  0  0  0  0  0  0  0  0  0  0  0
   27.3707    8.3258   54.9997 C   0  0  0  0  0  0  0  0  0  0  0  0
   28.3515    9.1152   54.3150 O   0  0  0  0  0  0  0  0  0  0  0  0
   27.5892    6.9397   59.1243 C   0  0  2  0  0  0  0  0  0  0  0  0
   27.8406    6.4160   60.5792 C   0  0  2  0  0  0  0  0  0  0  0  0
   28.6885    5.1858   60.6151 N   0  3  0  0  0  0  0  0  0  0  0  0
   26.4369    6.1648   61.2245 C   0  0  1  0  0  0  0  0  0  0  0  0
   25.7483    7.4718   61.2960 O   0  0  0  0  0  0  0  0  0  0  0  0
   25.5504    5.1707   60.3776 C   0  0  2  0  0  0  0  0  0  0  0  0
   26.1949    3.8866   60.3586 O   0  0  0  0  0  0  0  0  0  0  0  0
   25.3925    5.7706   58.9191 C   0  0  1  0  0  0  0  0  0  0  0  0
   26.7402    5.9643   58.3718 O   0  0  0  0  0  0  0  0  0  0  0  0
   24.5577    4.8989   57.9536 C   0  0  0  0  0  0  0  0  0  0  0  0
   25.1439    3.5519   57.7155 N   0  3  0  0  0  0  0  0  0  0  0  0
  1  2  1  1  0  0  0
  1  3  1  0  0  0  0
  1 10  1  0  0  0  0
  3  4  1  1  0  0  0
  3  5  1  0  0  0  0
  5  6  1  6  0  0  0
  5  7  1  0  0  0  0
  7  8  1  1  0  0  0
  7  9  1  0  0  0  0
  9 10  1  0  0  0  0
  9 11  1  6  0  0  0
 11 12  1  0  0  0  0
 13 14  1  1  0  0  0
 13 15  1  0  0  0  0
 13 21  1  0  0  0  0
 15 16  1  0  0  0  0
 16 17  1  1  0  0  0
 16 18  1  0  0  0  0
 18  2  1  6  0  0  0
 18 19  1  0  0  0  0
 19 20  1  1  0  0  0
 19 21  1  0  0  0  0
 21 22  1  6  0  0  0
 23 20  1  6  0  0  0
 23 24  1  0  0  0  0
 23 29  1  0  0  0  0
 24 25  1  1  0  0  0
 24 26  1  0  0  0  0
 26 27  1  1  0  0  0
 26 28  1  0  0  0  0
 28 29  1  0  0  0  0
 28 30  1  6  0  0  0
 30 31  1  0  0  0  0
 32 27  1  6  0  0  0
 32 33  1  0  0  0  0
 32 40  1  0  0  0  0
 33 34  1  6  0  0  0
 33 35  1  0  0  0  0
 35 36  1  6  0  0  0
 35 37  1  0  0  0  0
 37 38  1  6  0  0  0
 37 39  1  0  0  0  0
 39 40  1  0  0  0  0
 39 41  1  6  0  0  0
 41 42  1  0  0  0  0
M  CHG  5   4   1  14   1  17   1  34   1  42   1
M  END
>  <CHROM.1>
179.73195775,32.00739756,38.22479178,62.58579388,-56.55105569,-51.72595930
-59.45633920,58.89203940,-150.73228669,-154.67180356,-174.27603467,-62.00453851
-73.96379345,166.46094231,-156.36490524,68.86665074,-81.39163481,164.89627756
69.71722080,73.19553846,-61.39022089,35.67172635,29.68221173,7.10957081,55.23486775
-0.91237019,-0.43817264,2.20128722

>  <Name>
1j7t

>  <RI>
0

>  <Rbt.Current_Directory>
/home/itssahil/PROJECTS/Mol_Feturizer/New_Systems/rnas/1j7t

>  <Rbt.Executable>
rbdock ($Id: //depot/dev/client3/rdock/2013.1/src/exe/rbdock.cxx#4 $)

>  <Rbt.Library>
libRbt.so (2013.1, Build901 2013/11/27)

>  <Rbt.Parameter_File>
/export/apps/rDock/src/rDock_2013.1_src/data/scripts/dock_solv.prm

>  <Rbt.Receptor>
prm/pocket_docking_2.prm

>  <SCORE>
-49.2154

>  <SCORE.INTER>
-35.4876

>  <SCORE.INTER.CONST>
1

>  <SCORE.INTER.POLAR>
-6.33332

>  <SCORE.INTER.ROT>
9

>  <SCORE.INTER.SOLV>
20.6044

>  <SCORE.INTER.VDW>
-19.0155

>  <SCORE.INTER.norm>
-0.844944

>  <SCORE.INTRA>
-14.9879

>  <SCORE.INTRA.DIHEDRAL>
-26.7546

>  <SCORE.INTRA.DIHEDRAL.0>
46.2143

>  <SCORE.INTRA.POLAR>
-0.862761

>  <SCORE.INTRA.POLAR.0>
-1.76436

>  <SCORE.INTRA.REPUL>
0

>  <SCORE.INTRA.REPUL.0>
0

>  <SCORE.INTRA.SOLV>
0.338415

>  <SCORE.INTRA.SOLV.lig_0>
-148.643

>  <SCORE.INTRA.VDW>
1.15351

>  <SCORE.INTRA.VDW.0>
-4.83512

>  <SCORE.INTRA.norm>
-0.356856

>  <SCORE.RESTR>
1.26016

>  <SCORE.RESTR.CAVITY>
1.26016

>  <SCORE.RESTR.norm>
0.0300037

>  <SCORE.SYSTEM>
0

>  <SCORE.SYSTEM.CONST>
0

>  <SCORE.SYSTEM.DIHEDRAL>
0

>  <SCORE.SYSTEM.SOLV>
0

>  <SCORE.SYSTEM.norm>
0

>  <SCORE.heavy>
42

>  <SCORE.norm>
-1.1718

>  <RMSD>
2.345

$$$$
1j7t
 OpenBabel11021811393D
libRbt.so/2013.1/901 2013/11/27
 42 45  0  0  0  0  0  0  0  0999 V2000
   30.0087    9.4169   52.6169 C   0  0  2  0  0  0  0  0  0  0  0  0
   30.8267    8.2574   52.3185 O   0  0  0  0  0  0  0  0  0  0  0  0
   28.7001    9.2715   51.7884 C   0  0  2  0  0  0  0  0  0  0  0  0
   27.9887    7.9748   51.9782 N   0  3  0  0  0  0  0  0  0  0  0  0
   29.0631    9.4007   50.2929 C   0  0  1  0  0  0  0  0  0  0  0  0
   27.9172    9.2936   49.4961 O   0  0  0  0  0  0  0  0  0  0  0  0
   29.7821   10.7463   50.0360 C   0  0  2  0  0  0  0  0  0  0  0  0
   30.1046   10.8944   48.6673 O   0  0  0  0  0  0  0  0  0  0  0  0
   31.0531   10.8146   50.8557 C   0  0  2  0  0  0  0  0  0  0  0  0
   30.7374   10.6238   52.2289 O   0  0  0  0  0  0  0  0  0  0  0  0
   31.7553   12.1498   50.7501 C   0  0  0  0  0  0  0  0  0  0  0  0
   31.1900   13.0545   51.6793 O   0  0  0  0  0  0  0  0  0  0  0  0
   32.0557    4.6658   54.1728 C   0  0  2  0  0  0  0  0  0  0  0  0
   32.4888    3.7103   55.1930 N   0  3  0  0  0  0  0  0  0  0  0  0
   33.1161    5.8070   54.0257 C   0  0  0  0  0  0  0  0  0  0  0  0
   32.6407    6.8413   52.9875 C   0  0  2  0  0  0  0  0  0  0  0  0
   33.5980    7.9468   52.8759 N   0  3  0  0  0  0  0  0  0  0  0  0
   31.2583    7.3984   53.3803 C   0  0  2  0  0  0  0  0  0  0  0  0
   30.1996    6.2928   53.5592 C   0  0  2  0  0  0  0  0  0  0  0  0
   29.0230    6.9472   54.0718 O   0  0  0  0  0  0  0  0  0  0  0  0
   30.6987    5.2268   54.5674 C   0  0  1  0  0  0  0  0  0  0  0  0
   29.7651    4.1844   54.6358 O   0  0  0  0  0  0  0  0  0  0  0  0
   28.8023    7.1955   55.4578 C   0  0  1  0  0  0  0  0  0  0  0  0
   28.3830    8.6984   55.6355 C   0  0  2  0  0  0  0  0  0  0  0  0
   29.4768    9.5865   55.7907 O   0  0  0  0  0  0  0  0  0  0  0  0
   27.5111    8.5392   56.8731 C   0  0  2  0  0  0  0  0  0  0  0  0
   28.3147    8.1982   58.0426 O   0  0  0  0  0  0  0  0  0  0  0  0
   26.6607    7.3245   56.5287 C   0  0  2  0  0  0  0  0  0  0  0  0
   27.6473    6.4579   55.9428 O   0  0  0  0  0  0  0  0  0  0  0  0
   25.4616    7.6114   55.5666 C   0  0  0  0  0  0  0  0  0  0  0  0
   25.9060    7.8636   54.2277 O   0  0  0  0  0  0  0  0  0  0  0  0
   27.6564    8.4288   59.2856 C   0  0  2  0  0  0  0  0  0  0  0  0
   28.4945    8.0429   60.5517 C   0  0  2  0  0  0  0  0  0  0  0  0
   28.9138    6.6085   60.5554 N   0  3  0  0  0  0  0  0  0  0  0  0
   27.6199    8.3887   61.8028 C   0  0  1  0  0  0  0  0  0  0  0  0
   27.4054    9.8521   61.7954 O   0  0  0  0  0  0  0  0  0  0  0  0
   26.2146    7.6706   61.7762 C   0  0  2  0  0  0  0  0  0  0  0  0
   26.4257    6.2507   61.8411 O   0  0  0  0  0  0  0  0  0  0  0  0
   25.4694    8.0935   60.4429 C   0  0  1  0  0  0  0  0  0  0  0  0
   26.3354    7.7269   59.3164 O   0  0  0  0  0  0  0  0  0  0  0  0
   24.0740    7.4552   60.2574 C   0  0  0  0  0  0  0  0  0  0  0  0
   24.1268    6.0372   59.8088 N   0  3  0  0  0  0  0  0  0  0  0  0
  1  2  1  6  0  0  0
  1  3  1  0  0  0  0
  1 10  1  0  0  0  0
  3  4  1  6  0  0  0
  3  5  1  0  0  0  0
  5  6  1  6  0  0  0
  5  7  1  0  0  0  0
  7  8  1  6  0  0  0
  7  9  1  0  0  0  0
  9 10  1  0  0  0  0
  9 11  1  1  0  0  0
 11 12  1  0  0  0  0
 13 14  1  1  0  0  0
 13 15  1  0  0  0  0
 13 21  1  0  0  0  0
 15 16  1  0  0  0  0
 16 17  1  1  0  0  0
 16 18  1  0  0  0  0
 18  2  1  6  0  0  0
 18 19  1  0  0  0  0
 19 20  1  1  0  0  0
 19 21  1  0  0  0  0
 21 22  1  6  0  0  0
 23 20  1  6  0  0  0
 23 24  1  0  0  0  0
 23 29  1  0  0  0  0
 24 25  1  1  0  0  0
 24 26  1  0  0  0  0
 26 27  1  1  0  0  0
 26 28  1  0  0  0  0
 28 29  1  0  0  0  0
 28 30  1  6  0  0  0
 30 31  1  0  0  0  0
 32 27  1  6  0  0  0
 32 33  1  0  0  0  0
 32 40  1  0  0  0  0
 33 34  1  6  0  0  0
 33 35  1  0  0  0  0
 35 36  1  6  0  0  0
 35 37  1  0  0  0  0
 37 38  1  6  0  0  0
 37 39  1  0  0  0  0
 39 40  1  0  0  0  0
 39 41  1  6  0  0  0
 41 42  1  0  0  0  0
M  CHG  5   4   1  14   1  17   1  34   1  42   1
M  END
>  <CHROM.1>
-122.64258606,-147.59179719,-172.67116309,-78.20978287,-50.02708500,84.60422273
83.48010620,65.51424779,-63.02353597,-85.82804550,130.88137379,-54.22907748
169.20209001,161.90969499,178.90947431,72.19566635,-85.87883079,-62.63829791
179.49285097,154.40332850,-77.37484098,172.99748494,28.91550889,8.01187383
55.32188011,0.99418232,0.72879629,-0.94981126

>  <Name>
1j7t

>  <RI>
0

>  <Rbt.Current_Directory>
/home/itssahil/PROJECTS/Mol_Feturizer/New_Systems/rnas/1j7t

>  <Rbt.Executable>
rbdock ($Id: //depot/dev/client3/rdock/2013.1/src/exe/rbdock.cxx#4 $)

>  <Rbt.Library>
libRbt.so (2013.1, Build901 2013/11/27)

>  <Rbt.Parameter_File>
/export/apps/rDock/src/rDock_2013.1_src/data/scripts/dock_solv.prm

>  <Rbt.Receptor>
prm/pocket_docking_4.prm

>  <SCORE>
-49.1666

>  <SCORE.INTER>
-43.8125

>  <SCORE.INTER.CONST>
1

>  <SCORE.INTER.POLAR>
-6.70558

>  <SCORE.INTER.ROT>
9

>  <SCORE.INTER.SOLV>
20.8309

>  <SCORE.INTER.VDW>
-23.4

>  <SCORE.INTER.norm>
-1.04315

>  <SCORE.INTRA>
-5.45023

>  <SCORE.INTRA.DIHEDRAL>
-9.1615

>  <SCORE.INTRA.DIHEDRAL.0>
46.2143

>  <SCORE.INTRA.POLAR>
-0.13119

>  <SCORE.INTRA.POLAR.0>
-1.76436

>  <SCORE.INTRA.REPUL>
0

>  <SCORE.INTRA.REPUL.0>
0

>  <SCORE.INTRA.SOLV>
4.15652

>  <SCORE.INTRA.SOLV.lig_0>
-148.643

>  <SCORE.INTRA.VDW>
-2.5017

>  <SCORE.INTRA.VDW.0>
-4.83512

>  <SCORE.INTRA.norm>
-0.129767

>  <SCORE.RESTR>
0.0960992

>  <SCORE.RESTR.CAVITY>
0.0960992

>  <SCORE.RESTR.norm>
0.00228808

>  <SCORE.SYSTEM>
0

>  <SCORE.SYSTEM.CONST>
0

>  <SCORE.SYSTEM.DIHEDRAL>
0

>  <SCORE.SYSTEM.SOLV>
0

>  <SCORE.SYSTEM.norm>
0

>  <SCORE.heavy>
42

>  <SCORE.norm>
-1.17063

>  <RMSD>
2.358

$$$$
1j7t
 OpenBabel11021811393D
libRbt.so/2013.1/901 2013/11/27
 42 45  0  0  0  0  0  0  0  0999 V2000
   29.6682    8.7080   53.9101 C   0  0  2  0  0  0  0  0  0  0  0  0
   30.4841    7.5182   54.0558 O   0  0  0  0  0  0  0  0  0  0  0  0
   28.3364    8.2631   53.2406 C   0  0  2  0  0  0  0  0  0  0  0  0
   27.6389    7.1430   53.9351 N   0  3  0  0  0  0  0  0  0  0  0  0
   28.6539    7.8058   51.8001 C   0  0  1  0  0  0  0  0  0  0  0  0
   27.4855    7.4074   51.1401 O   0  0  0  0  0  0  0  0  0  0  0  0
   29.3567    8.9452   51.0245 C   0  0  2  0  0  0  0  0  0  0  0  0
   29.6373    8.5542   49.6950 O   0  0  0  0  0  0  0  0  0  0  0  0
   30.6511    9.3158   51.7167 C   0  0  2  0  0  0  0  0  0  0  0  0
   30.3776    9.6690   53.0667 O   0  0  0  0  0  0  0  0  0  0  0  0
   31.3417   10.5039   51.0854 C   0  0  0  0  0  0  0  0  0  0  0  0
   32.6893   10.5481   51.5136 O   0  0  0  0  0  0  0  0  0  0  0  0
   33.3648    5.8631   56.6655 C   0  0  2  0  0  0  0  0  0  0  0  0
   34.4560    5.7515   57.6340 N   0  3  0  0  0  0  0  0  0  0  0  0
   33.8796    6.5516   55.3581 C   0  0  0  0  0  0  0  0  0  0  0  0
   32.7222    6.7152   54.3545 C   0  0  2  0  0  0  0  0  0  0  0  0
   33.1753    7.4078   53.1436 N   0  3  0  0  0  0  0  0  0  0  0  0
   31.5654    7.5071   54.9951 C   0  0  2  0  0  0  0  0  0  0  0  0
   31.0561    6.8660   56.3007 C   0  0  2  0  0  0  0  0  0  0  0  0
   30.1002    7.7918   56.8526 O   0  0  0  0  0  0  0  0  0  0  0  0
   32.2292    6.6570   57.2917 C   0  0  1  0  0  0  0  0  0  0  0  0
   31.7593    5.9829   58.4265 O   0  0  0  0  0  0  0  0  0  0  0  0
   29.3037    7.5088   58.0001 C   0  0  1  0  0  0  0  0  0  0  0  0
   29.0115    8.8570   58.7504 C   0  0  2  0  0  0  0  0  0  0  0  0
   30.0038    9.2155   59.6969 O   0  0  0  0  0  0  0  0  0  0  0  0
   27.6624    8.4873   59.3508 C   0  0  2  0  0  0  0  0  0  0  0  0
   27.8082    7.4677   60.3847 O   0  0  0  0  0  0  0  0  0  0  0  0
   26.9366    7.8497   58.1744 C   0  0  2  0  0  0  0  0  0  0  0  0
   27.9834    7.0374   57.6156 O   0  0  0  0  0  0  0  0  0  0  0  0
   26.3411    8.8615   57.1413 C   0  0  0  0  0  0  0  0  0  0  0  0
   25.8592    8.1966   55.9667 O   0  0  0  0  0  0  0  0  0  0  0  0
   26.6467    7.2899   61.1914 C   0  0  2  0  0  0  0  0  0  0  0  0
   26.8545    6.3741   62.4454 C   0  0  2  0  0  0  0  0  0  0  0  0
   27.3361    5.0046   62.0906 N   0  3  0  0  0  0  0  0  0  0  0  0
   25.4879    6.3228   63.2066 C   0  0  1  0  0  0  0  0  0  0  0  0
   25.1881    7.6984   63.6600 O   0  0  0  0  0  0  0  0  0  0  0  0
   24.3036    5.8215   62.2916 C   0  0  2  0  0  0  0  0  0  0  0  0
   24.5713    4.4651   61.9001 O   0  0  0  0  0  0  0  0  0  0  0  0
   24.2058    6.7865   61.0381 C   0  0  1  0  0  0  0  0  0  0  0  0
   25.5105    6.7733   60.3665 O   0  0  0  0  0  0  0  0  0  0  0  0
   23.0955    6.4167   60.0285 C   0  0  0  0  0  0  0  0  0  0  0  0
   23.2659    5.0647   59.4304 N   0  3  0  0  0  0  0  0  0  0  0  0
  1  2  1  6  0  0  0
  1  3  1  0  0  0  0
  1 10  1  0  0  0  0
  3  4  1  1  0  0  0
  3  5  1  0  0  0  0
  5  6  1  6  0  0  0
  5  7  1  0  0  0  0
  7  8  1  6  0  0  0
  7  9  1  0  0  0  0
  9 10  1  0  0  0  0
  9 11  1  6  0  0  0
 11 12  1  0  0  0  0
 13 14  1  1  0  0  0
 13 15  1  0  0  0  0
 13 21  1  0  0  0  0
 15 16  1  0  0  0  0
 16 17  1  6  0  0  0
 16 18  1  0  0  0  0
 18  2  1  6  0  0  0
 18 19  1  0  0  0  0
 19 20  1  1  0  0  0
 19 21  1  0  0  0  0
 21 22  1  1  0  0  0
 23 20  1  6  0  0  0
 23 24  1  0  0  0  0
 23 29  1  0  0  0  0
 24 25  1  1  0  0  0
 24 26  1  0  0  0  0
 26 27  1  1  0  0  0
 26 28  1  0  0  0  0
 28 29  1  0  0  0  0
 28 30  1  6  0  0  0
 30 31  1  0  0  0  0
 32 27  1  6  0  0  0
 32 33  1  0  0  0  0
 32 40  1  0  0  0  0
 33 34  1  6  0  0  0
 33 35  1  0  0  0  0
 35 36  1  6  0  0  0
 35 37  1  0  0  0  0
 37 38  1  6  0  0  0
 37 39  1  0  0  0  0
 39 40  1  0  0  0  0
 39 41  1  6  0  0  0
 41 42  1  0  0  0  0
M  CHG  5   4   1  14   1  17   1  34   1  42   1
M  END
>  <CHROM.1>
-160.36066111,-142.14019739,-172.50573306,64.85896054,-171.96946732,-163.08854181
-85.61131234,-88.14120932,58.98904258,173.79853162,149.69583471,-62.67669328
-174.55945246,166.65892207,-170.57659886,170.98716953,178.07746162,104.87066770
76.34993496,-72.96012986,-60.78248453,60.54358386,28.75522481,7.43609720
56.88843246,1.01561758,0.06349073,-1.31133127

>  <Name>
1j7t

>  <RI>
0

>  <Rbt.Current_Directory>
/home/itssahil/PROJECTS/Mol_Feturizer/New_Systems/rnas/1j7t

>  <Rbt.Executable>
rbdock ($Id: //depot/dev/client3/rdock/2013.1/src/exe/rbdock.cxx#4 $)

>  <Rbt.Library>
libRbt.so (2013.1, Build901 2013/11/27)

>  <Rbt.Parameter_File>
/export/apps/rDock/src/rDock_2013.1_src/data/scripts/dock_solv.prm

>  <Rbt.Receptor>
prm/pocket_docking_4.prm

>  <SCORE>
-52.015

>  <SCORE.INTER>
-43.2817

>  <SCORE.INTER.CONST>
1

>  <SCORE.INTER.POLAR>
-6.29208

>  <SCORE.INTER.ROT>
9

>  <SCORE.INTER.SOLV>
22.3129

>  <SCORE.INTER.VDW>
-24.9185

>  <SCORE.INTER.norm>
-1.03052

>  <SCORE.INTRA>
-8.75692

>  <SCORE.INTRA.DIHEDRAL>
-22.2236

>  <SCORE.INTRA.DIHEDRAL.0>
46.2143

>  <SCORE.INTRA.POLAR>
0.395545

>  <SCORE.INTRA.POLAR.0>
-1.76436

>  <SCORE.INTRA.REPUL>
0

>  <SCORE.INTRA.REPUL.0>
0

>  <SCORE.INTRA.SOLV>
2.89122

>  <SCORE.INTRA.SOLV.lig_0>
-148.643

>  <SCORE.INTRA.VDW>
-0.435567

>  <SCORE.INTRA.VDW.0>
-4.83512

>  <SCORE.INTRA.norm>
-0.208498

>  <SCORE.RESTR>
0.0236908

>  <SCORE.RESTR.CAVITY>
0.0236908

>  <SCORE.RESTR.norm>
0.000564068

>  <SCORE.SYSTEM>
0

>  <SCORE.SYSTEM.CONST>
0

>  <SCORE.SYSTEM.DIHEDRAL>
0

>  <SCORE.SYSTEM.SOLV>
0

>  <SCORE.SYSTEM.norm>
0

>  <SCORE.heavy>
42

>  <SCORE.norm>
-1.23845

>  <RMSD>
2.371

$$$$
1j7t
 OpenBabel11021811393D
libRbt.so/2013.1/901 2013/11/27
 42 45  0  0  0  0  0  0  0  0999 V2000
   32.4602    8.4449   51.1985 C   0  0  2  0  0  0  0  0  0  0  0  0
   32.6901    8.6659   52.6130 O   0  0  0  0  0  0  0  0  0  0  0  0
   32.1331    9.8309   50.5722 C   0  0  2  0  0  0  0  0  0  0  0  0
   33.1434   10.8909   50.8539 N   0  3  0  0  0  0  0  0  0  0  0  0
   30.7764   10.3040   51.1382 C   0  0  1  0  0  0  0  0  0  0  0  0
   30.4209   11.5443   50.5954 O   0  0  0  0  0  0  0  0  0  0  0  0
   29.6833    9.2483   50.8479 C   0  0  2  0  0  0  0  0  0  0  0  0
   28.4272    9.6722   51.3395 O   0  0  0  0  0  0  0  0  0  0  0  0
   30.0532    7.9328   51.4994 C   0  0  2  0  0  0  0  0  0  0  0  0
   31.3352    7.5246   51.0391 O   0  0  0  0  0  0  0  0  0  0  0  0
   29.0920    6.8144   51.1643 C   0  0  0  0  0  0  0  0  0  0  0  0
   29.3574    5.7001   51.9944 O   0  0  0  0  0  0  0  0  0  0  0  0
   32.7644    4.6702   53.9829 C   0  0  2  0  0  0  0  0  0  0  0  0
   33.0615    3.4875   54.7918 N   0  3  0  0  0  0  0  0  0  0  0  0
   34.0885    5.2610   53.3945 C   0  0  0  0  0  0  0  0  0  0  0  0
   33.7853    6.5346   52.5823 C   0  0  2  0  0  0  0  0  0  0  0  0
   35.0219    7.1322   52.0677 N   0  3  0  0  0  0  0  0  0  0  0  0
   33.0441    7.5644   53.4573 C   0  0  2  0  0  0  0  0  0  0  0  0
   31.7488    7.0002   54.0730 C   0  0  2  0  0  0  0  0  0  0  0  0
   31.2627    8.0127   54.9752 O   0  0  0  0  0  0  0  0  0  0  0  0
   32.0464    5.6925   54.8495 C   0  0  1  0  0  0  0  0  0  0  0  0
   30.8417    5.1473   55.3127 O   0  0  0  0  0  0  0  0  0  0  0  0
   30.5091    7.7230   56.1497 C   0  0  1  0  0  0  0  0  0  0  0  0
   30.0570    9.0788   56.8004 C   0  0  2  0  0  0  0  0  0  0  0  0
   31.0005    9.6252   57.7060 O   0  0  0  0  0  0  0  0  0  0  0  0
   28.7641    8.5952   57.4420 C   0  0  2  0  0  0  0  0  0  0  0  0
   29.0349    7.6817   58.5475 O   0  0  0  0  0  0  0  0  0  0  0  0
   28.1184    7.7874   56.3249 C   0  0  2  0  0  0  0  0  0  0  0  0
   29.2548    7.0678   55.8165 O   0  0  0  0  0  0  0  0  0  0  0  0
   27.4022    8.6388   55.2259 C   0  0  0  0  0  0  0  0  0  0  0  0
   26.4316    9.5274   55.7937 O   0  0  0  0  0  0  0  0  0  0  0  0
   27.8633    7.1407   59.1527 C   0  0  2  0  0  0  0  0  0  0  0  0
   28.0965    6.4771   60.5526 C   0  0  2  0  0  0  0  0  0  0  0  0
   29.0998    5.3703   60.5105 N   0  3  0  0  0  0  0  0  0  0  0  0
   26.7041    5.9709   61.0572 C   0  0  1  0  0  0  0  0  0  0  0  0
   25.8415    7.1604   61.2264 O   0  0  0  0  0  0  0  0  0  0  0  0
   26.0125    4.9846   60.0373 C   0  0  2  0  0  0  0  0  0  0  0  0
   26.8253    3.8055   59.9194 O   0  0  0  0  0  0  0  0  0  0  0  0
   25.8617    5.7354   58.6497 C   0  0  1  0  0  0  0  0  0  0  0  0
   27.2007    6.1658   58.2314 O   0  0  0  0  0  0  0  0  0  0  0  0
   25.2117    4.8908   57.5303 C   0  0  0  0  0  0  0  0  0  0  0  0
   23.7558    4.6591   57.7334 N   0  3  0  0  0  0  0  0  0  0  0  0
  1  2  1  1  0  0  0
  1  3  1  0  0  0  0
  1 10  1  0  0  0  0
  3  4  1  1  0  0  0
  3  5  1  0  0  0  0
  5  6  1  6  0  0  0
  5  7  1  0  0  0  0
  7  8  1  1  0  0  0
  7  9  1  0  0  0  0
  9 10  1  0  0  0  0
  9 11  1  6  0  0  0
 11 12  1  0  0  0  0
 13 14  1  1  0  0  0
 13 15  1  0  0  0  0
 13 21  1  0  0  0  0
 15 16  1  0  0  0  0
 16 17  1  1  0  0  0
 16 18  1  0  0  0  0
 18  2  1  6  0  0  0
 18 19  1  0  0  0  0
 19 20  1  1  0  0  0
 19 21  1  0  0  0  0
 21 22  1  6  0  0  0
 23 20  1  6  0  0  0
 23 24  1  0  0  0  0
 23 29  1  0  0  0  0
 24 25  1  1  0  0  0
 24 26  1  0  0  0  0
 26 27  1  1  0  0  0
 26 28  1  0  0  0  0
 28 29  1  0  0  0  0
 28 30  1  6  0  0  0
 30 31  1  0  0  0  0
 32 27  1  6  0  0  0
 32 33  1  0  0  0  0
 32 40  1  0  0  0  0
 33 34  1  6  0  0  0
 33 35  1  0  0  0  0
 35 36  1  6  0  0  0
 35 37  1  0  0  0  0
 37 38  1  6  0  0  0
 37 39  1  0  0  0  0
 39 40  1  0  0  0  0
 39 41  1  6  0  0  0
 41 42  1  0  0  0  0
M  CHG  5   4   1  14   1  17   1  34   1  42   1
M  END
>  <CHROM.1>
-178.68071918,28.55874917,157.41621407,-47.60235231,179.91850112,-169.27059201
176.68425961,-38.38389788,-27.26430308,-150.19581330,-175.14919028,-60.97439206
-177.44737309,-177.16443435,-164.46381334,-54.62309855,-66.65500935,47.06237564
166.82234984,76.05599790,71.47641290,-175.13528323,29.74648304,7.25895425
55.21807473,-0.90143797,-0.47378805,2.22502531

>  <Name>
1j7t

>  <RI>
0

>  <Rbt.Current_Directory>
/home/itssahil/PROJECTS/Mol_Feturizer/New_Systems/rnas/1j7t

>  <Rbt.Executable>
rbdock ($Id: //depot/dev/client3/rdock/2013.1/src/exe/rbdock.cxx#4 $)

>  <Rbt.Library>
libRbt.so (2013.1, Build901 2013/11/27)

>  <Rbt.Parameter_File>
/export/apps/rDock/src/rDock_2013.1_src/data/scripts/dock_solv.prm

>  <Rbt.Receptor>
prm/pocket_docking_2.prm

>  <SCORE>
-44.434

>  <SCORE.INTER>
-36.8094

>  <SCORE.INTER.CONST>
1

>  <SCORE.INTER.POLAR>
-6.61877

>  <SCORE.INTER.ROT>
9

>  <SCORE.INTER.SOLV>
24.1264

>  <SCORE.INTER.VDW>
-20.1191

>  <SCORE.INTER.norm>
-0.876413

>  <SCORE.INTRA>
-9.40514

>  <SCORE.INTRA.DIHEDRAL>
-28.0747

>  <SCORE.INTRA.DIHEDRAL.0>
46.2143

>  <SCORE.INTRA.POLAR>
1.08846

>  <SCORE.INTRA.POLAR.0>
-1.76436

>  <SCORE.INTRA.REPUL>
0.0374224

>  <SCORE.INTRA.REPUL.0>
0

>  <SCORE.INTRA.SOLV>
-4.70241

>  <SCORE.INTRA.SOLV.lig_0>
-148.643

>  <SCORE.INTRA.VDW>
3.09554

>  <SCORE.INTRA.VDW.0>
-4.83512

>  <SCORE.INTRA.norm>
-0.223932

>  <SCORE.RESTR>
1.78054

>  <SCORE.RESTR.CAVITY>
1.78054

>  <SCORE.RESTR.norm>
0.0423939

>  <SCORE.SYSTEM>
0

>  <SCORE.SYSTEM.CONST>
0

>  <SCORE.SYSTEM.DIHEDRAL>
0

>  <SCORE.SYSTEM.SOLV>
0

>  <SCORE.SYSTEM.norm>
0

>  <SCORE.heavy>
42

>  <SCORE.norm>
-1.05795

>  <RMSD>
2.380

$$$$
1j7t
 OpenBabel11021811393D
libRbt.so/2013.1/901 2013/11/27
 42 45  0  0  0  0  0  0  0  0999 V2000
   30.6776    8.6492   53.8614 C   0  0  2  0  0  0  0  0  0  0  0  0
   31.4182    7.5116   53.3516 O   0  0  0  0  0  0  0  0  0  0  0  0
   29.1684    8.2821   53.7726 C   0  0  2  0  0  0  0  0  0  0  0  0
   28.8060    6.9923   54.4274 N   0  3  0  0  0  0  0  0  0  0  0  0
   28.7871    8.1814   52.2795 C   0  0  1  0  0  0  0  0  0  0  0  0
   27.4303    7.8678   52.1369 O   0  0  0  0  0  0  0  0  0  0  0  0
   29.1189    9.5084   51.5566 C   0  0  2  0  0  0  0  0  0  0  0  0
   28.7572    9.4450   50.1912 O   0  0  0  0  0  0  0  0  0  0  0  0
   30.6014    9.7958   51.6646 C   0  0  2  0  0  0  0  0  0  0  0  0
   30.9769    9.8184   53.0359 O   0  0  0  0  0  0  0  0  0  0  0  0
   30.9890   11.1370   51.0832 C   0  0  0  0  0  0  0  0  0  0  0  0
   32.3989   11.2476   51.0523 O   0  0  0  0  0  0  0  0  0  0  0  0
   34.8550    5.2858   54.3919 C   0  0  2  0  0  0  0  0  0  0  0  0
   36.2082    4.9532   54.8388 N   0  3  0  0  0  0  0  0  0  0  0  0
   34.9206    6.1597   53.0956 C   0  0  0  0  0  0  0  0  0  0  0  0
   33.4994    6.5531   52.6494 C   0  0  2  0  0  0  0  0  0  0  0  0
   33.5445    7.4177   51.4656 N   0  3  0  0  0  0  0  0  0  0  0  0
   32.7627    7.2834   53.7895 C   0  0  2  0  0  0  0  0  0  0  0  0
   32.7070    6.4561   55.0886 C   0  0  2  0  0  0  0  0  0  0  0  0
   32.1376    7.3228   56.0886 O   0  0  0  0  0  0  0  0  0  0  0  0
   34.1328    6.0195   55.5108 C   0  0  1  0  0  0  0  0  0  0  0  0
   34.0459    5.1869   56.6344 O   0  0  0  0  0  0  0  0  0  0  0  0
   30.9597    7.0055   56.8255 C   0  0  1  0  0  0  0  0  0  0  0  0
   31.1156    5.5597   57.4185 C   0  0  2  0  0  0  0  0  0  0  0  0
   30.6822    4.5302   56.5461 O   0  0  0  0  0  0  0  0  0  0  0  0
   30.2614    5.7396   58.6656 C   0  0  2  0  0  0  0  0  0  0  0  0
   28.8514    5.8898   58.3205 O   0  0  0  0  0  0  0  0  0  0  0  0
   30.7461    7.0748   59.2129 C   0  0  2  0  0  0  0  0  0  0  0  0
   30.8386    7.8480   58.0040 O   0  0  0  0  0  0  0  0  0  0  0  0
   32.0989    7.0138   59.9952 C   0  0  0  0  0  0  0  0  0  0  0  0
   32.0656    6.0268   61.0338 O   0  0  0  0  0  0  0  0  0  0  0  0
   27.9630    5.7105   59.4205 C   0  0  2  0  0  0  0  0  0  0  0  0
   28.0289    4.2963   60.0914 C   0  0  2  0  0  0  0  0  0  0  0  0
   27.7444    3.1853   59.1332 N   0  3  0  0  0  0  0  0  0  0  0  0
   27.0099    4.3049   61.2793 C   0  0  1  0  0  0  0  0  0  0  0  0
   27.4771    5.3195   62.2488 O   0  0  0  0  0  0  0  0  0  0  0  0
   25.5471    4.6794   60.8195 C   0  0  2  0  0  0  0  0  0  0  0  0
   25.0755    3.6611   59.9221 O   0  0  0  0  0  0  0  0  0  0  0  0
   25.5983    6.1009   60.1206 C   0  0  1  0  0  0  0  0  0  0  0  0
   26.5563    6.0151   59.0123 O   0  0  0  0  0  0  0  0  0  0  0  0
   24.2358    6.6067   59.5944 C   0  0  0  0  0  0  0  0  0  0  0  0
   23.3063    5.5104   59.2089 N   0  3  0  0  0  0  0  0  0  0  0  0
  1  2  1  6  0  0  0
  1  3  1  0  0  0  0
  1 10  1  0  0  0  0
  3  4  1  1  0  0  0
  3  5  1  0  0  0  0
  5  6  1  1  0  0  0
  5  7  1  0  0  0  0
  7  8  1  6  0  0  0
  7  9  1  0  0  0  0
  9 10  1  0  0  0  0
  9 11  1  1  0  0  0
 11 12  1  0  0  0  0
 13 14  1  1  0  0  0
 13 15  1  0  0  0  0
 13 21  1  0  0  0  0
 15 16  1  0  0  0  0
 16 17  1  6  0  0  0
 16 18  1  0  0  0  0
 18  2  1  6  0  0  0
 18 19  1  0  0  0  0
 19 20  1  1  0  0  0
 19 21  1  0  0  0  0
 21 22  1  1  0  0  0
 23 20  1  1  0  0  0
 23 24  1  0  0  0  0
 23 29  1  0  0  0  0
 24 25  1  6  0  0  0
 24 26  1  0  0  0  0
 26 27  1  6  0  0  0
 26 28  1  0  0  0  0
 28 29  1  0  0  0  0
 28 30  1  6  0  0  0
 30 31  1  0  0  0  0
 32 27  1  6  0  0  0
 32 33  1  0  0  0  0
 32 40  1  0  0  0  0
 33 34  1  6  0  0  0
 33 35  1  0  0  0  0
 35 36  1  1  0  0  0
 35 37  1  0  0  0  0
 37 38  1  6  0  0  0
 37 39  1  0  0  0  0
 39 40  1  0  0  0  0
 39 41  1  6  0  0  0
 41 42  1  0  0  0  0
M  CHG  5   4   1  14   1  17   1  34   1  42   1
M  END
>  <CHROM.1>
-153.97498168,-151.47555898,-48.61837173,55.20831662,-54.42112632,-171.85869421
-70.34766250,75.22026604,-47.48188200,122.67505759,50.16468757,173.45683122
64.20443577,164.35558384,-60.81299238,-53.07481830,-56.36926377,161.59079677
-62.79032911,71.98614323,-28.75004976,-23.05843731,30.07813984,6.72239491
56.15962673,0.99780792,0.15198824,-1.08256854

>  <Name>
1j7t

>  <RI>
0

>  <Rbt.Current_Directory>
/home/itssahil/PROJECTS/Mol_Feturizer/New_Systems/rnas/1j7t

>  <Rbt.Executable>
rbdock ($Id: //depot/dev/client3/rdock/2013.1/src/exe/rbdock.cxx#4 $)

>  <Rbt.Library>
libRbt.so (2013.1, Build901 2013/11/27)

>  <Rbt.Parameter_File>
/export/apps/rDock/src/rDock_2013.1_src/data/scripts/dock_solv.prm

>  <Rbt.Receptor>
prm/pocket_docking_3.prm

>  <SCORE>
-64.6309

>  <SCORE.INTER>
-55.257

>  <SCORE.INTER.CONST>
1

>  <SCORE.INTER.POLAR>
-8.85925

>  <SCORE.INTER.ROT>
9

>  <SCORE.INTER.SOLV>
23.0785

>  <SCORE.INTER.VDW>
-24.6

>  <SCORE.INTER.norm>
-1.31564

>  <SCORE.INTRA>
-10.401

>  <SCORE.INTRA.DIHEDRAL>
-21.0794

>  <SCORE.INTRA.DIHEDRAL.0>
46.2143

>  <SCORE.INTRA.POLAR>
0.280787

>  <SCORE.INTRA.POLAR.0>
-1.76436

>  <SCORE.INTRA.REPUL>
0

>  <SCORE.INTRA.REPUL.0>
0

>  <SCORE.INTRA.SOLV>
1.75296

>  <SCORE.INTRA.SOLV.lig_0>
-148.643

>  <SCORE.INTRA.VDW>
-1.69248

>  <SCORE.INTRA.VDW.0>
-4.83512

>  <SCORE.INTRA.norm>
-0.247644

>  <SCORE.RESTR>
1.02721

>  <SCORE.RESTR.CAVITY>
1.02721

>  <SCORE.RESTR.norm>
0.0244573

>  <SCORE.SYSTEM>
0

>  <SCORE.SYSTEM.CONST>
0

>  <SCORE.SYSTEM.DIHEDRAL>
0

>  <SCORE.SYSTEM.SOLV>
0

>  <SCORE.SYSTEM.norm>
0

>  <SCORE.heavy>
42

>  <SCORE.norm>
-1.53883

>  <RMSD>
2.384

$$$$
1j7t
 OpenBabel11021811393D
libRbt.so/2013.1/901 2013/11/27
 42 45  0  0  0  0  0  0  0  0999 V2000
   30.3624    9.0110   52.5602 C   0  0  2  0  0  0  0  0  0  0  0  0
   31.3541    8.0892   52.0413 O   0  0  0  0  0  0  0  0  0  0  0  0
   29.0512    8.7602   51.7615 C   0  0  2  0  0  0  0  0  0  0  0  0
   28.5967    7.3401   51.7487 N   0  3  0  0  0  0  0  0  0  0  0  0
   29.2901    9.1967   50.2995 C   0  0  1  0  0  0  0  0  0  0  0  0
   28.1338    9.0083   49.5332 O   0  0  0  0  0  0  0  0  0  0  0  0
   29.7390   10.6765   50.2543 C   0  0  2  0  0  0  0  0  0  0  0  0
   29.9427   11.1030   48.9217 O   0  0  0  0  0  0  0  0  0  0  0  0
   31.0265   10.8470   51.0323 C   0  0  2  0  0  0  0  0  0  0  0  0
   30.8374   10.3796   52.3619 O   0  0  0  0  0  0  0  0  0  0  0  0
   31.4704   12.2890   51.1350 C   0  0  0  0  0  0  0  0  0  0  0  0
   31.7999   12.7736   49.8474 O   0  0  0  0  0  0  0  0  0  0  0  0
   34.3100    5.7395   53.9360 C   0  0  2  0  0  0  0  0  0  0  0  0
   35.4924    5.3584   54.7093 N   0  3  0  0  0  0  0  0  0  0  0  0
   34.7377    6.5726   52.6823 C   0  0  0  0  0  0  0  0  0  0  0  0
   33.4924    7.0174   51.8919 C   0  0  2  0  0  0  0  0  0  0  0  0
   33.8721    7.8452   50.7423 N   0  3  0  0  0  0  0  0  0  0  0  0
   32.5357    7.8125   52.8020 C   0  0  2  0  0  0  0  0  0  0  0  0
   32.1193    7.0257   54.0601 C   0  0  2  0  0  0  0  0  0  0  0  0
   31.3660    7.9453   54.8739 O   0  0  0  0  0  0  0  0  0  0  0  0
   33.3728    6.5367   54.8292 C   0  0  1  0  0  0  0  0  0  0  0  0
   32.9692    5.7411   55.9096 O   0  0  0  0  0  0  0  0  0  0  0  0
   30.0701    7.6569   55.3922 C   0  0  1  0  0  0  0  0  0  0  0  0
   30.2193    6.6195   56.5616 C   0  0  2  0  0  0  0  0  0  0  0  0
   30.2006    5.2673   56.1372 O   0  0  0  0  0  0  0  0  0  0  0  0
   29.0138    7.0444   57.3884 C   0  0  2  0  0  0  0  0  0  0  0  0
   27.7659    6.7153   56.7069 O   0  0  0  0  0  0  0  0  0  0  0  0
   29.1407    8.5612   57.4091 C   0  0  2  0  0  0  0  0  0  0  0  0
   29.4957    8.8242   56.0407 O   0  0  0  0  0  0  0  0  0  0  0  0
   30.1917    9.1202   58.4234 C   0  0  0  0  0  0  0  0  0  0  0  0
   30.0996    8.4662   59.6954 O   0  0  0  0  0  0  0  0  0  0  0  0
   26.9343    5.8084   57.4262 C   0  0  2  0  0  0  0  0  0  0  0  0
   25.4941    5.6318   56.8356 C   0  0  2  0  0  0  0  0  0  0  0  0
   24.7399    6.9191   56.7497 N   0  3  0  0  0  0  0  0  0  0  0  0
   24.7526    4.5913   57.7397 C   0  0  1  0  0  0  0  0  0  0  0  0
   25.4820    3.3101   57.6204 O   0  0  0  0  0  0  0  0  0  0  0  0
   24.7260    5.0194   59.2587 C   0  0  2  0  0  0  0  0  0  0  0  0
   23.9680    6.2343   59.3778 O   0  0  0  0  0  0  0  0  0  0  0  0
   26.2227    5.2108   59.7438 C   0  0  1  0  0  0  0  0  0  0  0  0
   26.8487    6.2062   58.8660 O   0  0  0  0  0  0  0  0  0  0  0  0
   26.3681    5.6507   61.2184 C   0  0  0  0  0  0  0  0  0  0  0  0
   25.6484    6.9147   61.5326 N   0  3  0  0  0  0  0  0  0  0  0  0
  1  2  1  6  0  0  0
  1  3  1  0  0  0  0
  1 10  1  0  0  0  0
  3  4  1  6  0  0  0
  3  5  1  0  0  0  0
  5  6  1  6  0  0  0
  5  7  1  0  0  0  0
  7  8  1  6  0  0  0
  7  9  1  0  0  0  0
  9 10  1  0  0  0  0
  9 11  1  1  0  0  0
 11 12  1  0  0  0  0
 13 14  1  1  0  0  0
 13 15  1  0  0  0  0
 13 21  1  0  0  0  0
 15 16  1  0  0  0  0
 16 17  1  6  0  0  0
 16 18  1  0  0  0  0
 18  2  1  6  0  0  0
 18 19  1  0  0  0  0
 19 20  1  1  0  0  0
 19 21  1  0  0  0  0
 21 22  1  1  0  0  0
 23 20  1  1  0  0  0
 23 24  1  0  0  0  0
 23 29  1  0  0  0  0
 24 25  1  6  0  0  0
 24 26  1  0  0  0  0
 26 27  1  6  0  0  0
 26 28  1  0  0  0  0
 28 29  1  0  0  0  0
 28 30  1  1  0  0  0
 30 31  1  0  0  0  0
 32 27  1  6  0  0  0
 32 33  1  0  0  0  0
 32 40  1  0  0  0  0
 33 34  1  1  0  0  0
 33 35  1  0  0  0  0
 35 36  1  1  0  0  0
 35 37  1  0  0  0  0
 37 38  1  6  0  0  0
 37 39  1  0  0  0  0
 39 40  1  0  0  0  0
 39 41  1  1  0  0  0
 41 42  1  0  0  0  0
M  CHG  5   4   1  14   1  17   1  34   1  42   1
M  END
>  <CHROM.1>
-162.65066421,-169.95784580,73.55590652,49.64612181,64.84383575,-65.35570286
-176.78539717,67.61056735,61.51048305,127.98913890,73.37387457,70.88075326
71.11258850,118.90776031,170.08410005,-44.28615123,64.39608786,-40.59092957
-177.55108847,44.78076333,-57.00043917,35.82730636,29.58213195,7.55223975
54.95320299,0.96967318,0.19330585,-1.02703455

>  <Name>
1j7t

>  <RI>
0

>  <Rbt.Current_Directory>
/home/itssahil/PROJECTS/Mol_Feturizer/New_Systems/rnas/1j7t

>  <Rbt.Executable>
rbdock ($Id: //depot/dev/client3/rdock/2013.1/src/exe/rbdock.cxx#4 $)

>  <Rbt.Library>
libRbt.so (2013.1, Build901 2013/11/27)

>  <Rbt.Parameter_File>
/export/apps/rDock/src/rDock_2013.1_src/data/scripts/dock_solv.prm

>  <Rbt.Receptor>
prm/pocket_docking_2.prm

>  <SCORE>
-52.2064

>  <SCORE.INTER>
-40.7617

>  <SCORE.INTER.CONST>
1

>  <SCORE.INTER.POLAR>
-5.64257

>  <SCORE.INTER.ROT>
9

>  <SCORE.INTER.SOLV>
22.0559

>  <SCORE.INTER.VDW>
-25.3179

>  <SCORE.INTER.norm>
-0.970517

>  <SCORE.INTRA>
-12.877

>  <SCORE.INTRA.DIHEDRAL>
-22.0004

>  <SCORE.INTRA.DIHEDRAL.0>
46.2143

>  <SCORE.INTRA.POLAR>
0.156919

>  <SCORE.INTRA.POLAR.0>
-1.76436

>  <SCORE.INTRA.REPUL>
0.00594286

>  <SCORE.INTRA.REPUL.0>
0

>  <SCORE.INTRA.SOLV>
-2.13678

>  <SCORE.INTRA.SOLV.lig_0>
-148.643

>  <SCORE.INTRA.VDW>
-1.3716

>  <SCORE.INTRA.VDW.0>
-4.83512

>  <SCORE.INTRA.norm>
-0.306594

>  <SCORE.RESTR>
1.43224

>  <SCORE.RESTR.CAVITY>
1.43224

>  <SCORE.RESTR.norm>
0.0341009

>  <SCORE.SYSTEM>
0

>  <SCORE.SYSTEM.CONST>
0

>  <SCORE.SYSTEM.DIHEDRAL>
0

>  <SCORE.SYSTEM.SOLV>
0

>  <SCORE.SYSTEM.norm>
0

>  <SCORE.heavy>
42

>  <SCORE.norm>
-1.24301

>  <RMSD>
2.449

$$$$
1j7t
 OpenBabel11021811393D
libRbt.so/2013.1/901 2013/11/27
 42 45  0  0  0  0  0  0  0  0999 V2000
   30.6457   10.0108   51.6965 C   0  0  2  0  0  0  0  0  0  0  0  0
   31.2308    8.7335   51.3378 O   0  0  0  0  0  0  0  0  0  0  0  0
   29.3888   10.1996   50.7995 C   0  0  2  0  0  0  0  0  0  0  0  0
   28.4207    9.0664   50.8448 N   0  3  0  0  0  0  0  0  0  0  0  0
   29.8630   10.3626   49.3388 C   0  0  1  0  0  0  0  0  0  0  0  0
   28.7709   10.5529   48.4840 O   0  0  0  0  0  0  0  0  0  0  0  0
   30.8525   11.5470   49.2313 C   0  0  2  0  0  0  0  0  0  0  0  0
   31.2828   11.7272   47.8965 O   0  0  0  0  0  0  0  0  0  0  0  0
   32.0576   11.2913   50.1112 C   0  0  2  0  0  0  0  0  0  0  0  0
   31.6250   11.0677   51.4472 O   0  0  0  0  0  0  0  0  0  0  0  0
   33.0193   12.4578   50.1527 C   0  0  0  0  0  0  0  0  0  0  0  0
   34.3309   11.9794   50.3806 O   0  0  0  0  0  0  0  0  0  0  0  0
   32.9509    5.4292   53.3304 C   0  0  2  0  0  0  0  0  0  0  0  0
   33.7579    4.6374   54.2595 N   0  3  0  0  0  0  0  0  0  0  0  0
   33.8824    6.2901   52.4142 C   0  0  0  0  0  0  0  0  0  0  0  0
   33.0353    7.1619   51.4676 C   0  0  2  0  0  0  0  0  0  0  0  0
   33.8919    8.0157   50.6379 N   0  3  0  0  0  0  0  0  0  0  0  0
   32.0635    8.0432   52.2767 C   0  0  2  0  0  0  0  0  0  0  0  0
   31.1516    7.2226   53.2095 C   0  0  2  0  0  0  0  0  0  0  0  0
   30.4241    8.1821   54.0004 O   0  0  0  0  0  0  0  0  0  0  0  0
   32.0024    6.3096   54.1284 C   0  0  1  0  0  0  0  0  0  0  0  0
   31.1498    5.5031   54.8936 O   0  0  0  0  0  0  0  0  0  0  0  0
   29.6782    7.8372   55.1648 C   0  0  1  0  0  0  0  0  0  0  0  0
   28.5226    8.8849   55.3465 C   0  0  2  0  0  0  0  0  0  0  0  0
   28.8967   10.0306   56.0923 O   0  0  0  0  0  0  0  0  0  0  0  0
   27.5103    7.9796   56.0342 C   0  0  2  0  0  0  0  0  0  0  0  0
   27.9523    7.6216   57.3782 O   0  0  0  0  0  0  0  0  0  0  0  0
   27.5574    6.7184   55.1830 C   0  0  2  0  0  0  0  0  0  0  0  0
   28.9741    6.5789   54.9799 O   0  0  0  0  0  0  0  0  0  0  0  0
   26.7603    6.8004   53.8400 C   0  0  0  0  0  0  0  0  0  0  0  0
   27.2015    7.8963   53.0286 O   0  0  0  0  0  0  0  0  0  0  0  0
   26.9121    7.1276   58.2181 C   0  0  2  0  0  0  0  0  0  0  0  0
   25.9015    8.2155   58.7174 C   0  0  2  0  0  0  0  0  0  0  0  0
   26.5650    9.3213   59.4726 N   0  3  0  0  0  0  0  0  0  0  0  0
   24.8339    7.4808   59.5950 C   0  0  1  0  0  0  0  0  0  0  0  0
   24.1215    6.5310   58.7130 O   0  0  0  0  0  0  0  0  0  0  0  0
   25.4814    6.6758   60.7884 C   0  0  2  0  0  0  0  0  0  0  0  0
   26.1238    7.6082   61.6731 O   0  0  0  0  0  0  0  0  0  0  0  0
   26.5123    5.6366   60.1807 C   0  0  1  0  0  0  0  0  0  0  0  0
   27.4879    6.3931   59.3875 O   0  0  0  0  0  0  0  0  0  0  0  0
   27.2496    4.7751   61.2311 C   0  0  0  0  0  0  0  0  0  0  0  0
   27.2712    3.3250   60.8974 N   0  3  0  0  0  0  0  0  0  0  0  0
  1  2  1  6  0  0  0
  1  3  1  0  0  0  0
  1 10  1  0  0  0  0
  3  4  1  6  0  0  0
  3  5  1  0  0  0  0
  5  6  1  6  0  0  0
  5  7  1  0  0  0  0
  7  8  1  6  0  0  0
  7  9  1  0  0  0  0
  9 10  1  0  0  0  0
  9 11  1  1  0  0  0
 11 12  1  0  0  0  0
 13 14  1  1  0  0  0
 13 15  1  0  0  0  0
 13 21  1  0  0  0  0
 15 16  1  0  0  0  0
 16 17  1  1  0  0  0
 16 18  1  0  0  0  0
 18  2  1  6  0  0  0
 18 19  1  0  0  0  0
 19 20  1  1  0  0  0
 19 21  1  0  0  0  0
 21 22  1  6  0  0  0
 23 20  1  6  0  0  0
 23 24  1  0  0  0  0
 23 29  1  0  0  0  0
 24 25  1  1  0  0  0
 24 26  1  0  0  0  0
 26 27  1  1  0  0  0
 26 28  1  0  0  0  0
 28 29  1  0  0  0  0
 28 30  1  6  0  0  0
 30 31  1  0  0  0  0
 32 27  1  1  0  0  0
 32 33  1  0  0  0  0
 32 40  1  0  0  0  0
 33 34  1  1  0  0  0
 33 35  1  0  0  0  0
 35 36  1  6  0  0  0
 35 37  1  0  0  0  0
 37 38  1  1  0  0  0
 37 39  1  0  0  0  0
 39 40  1  0  0  0  0
 39 41  1  1  0  0  0
 41 42  1  0  0  0  0
M  CHG  5   4   1  14   1  17   1  34   1  42   1
M  END
>  <CHROM.1>
-156.57388297,-153.26934526,62.08892076,-176.15507186,-49.81978872,-150.93952337
177.68980929,-169.46763905,-178.19879389,-166.84983389,-152.89849383,-58.59881104
123.89453485,162.13708434,-73.03497475,56.68866605,-170.12912068,43.11021620
-72.96682979,-175.05006812,132.99294904,-140.44343021,29.46300200,8.08052009
54.47891785,0.98317969,0.53842021,-0.88145465

>  <Name>
1j7t

>  <RI>
0

>  <Rbt.Current_Directory>
/home/itssahil/PROJECTS/Mol_Feturizer/New_Systems/rnas/1j7t

>  <Rbt.Executable>
rbdock ($Id: //depot/dev/client3/rdock/2013.1/src/exe/rbdock.cxx#4 $)

>  <Rbt.Library>
libRbt.so (2013.1, Build901 2013/11/27)

>  <Rbt.Parameter_File>
/export/apps/rDock/src/rDock_2013.1_src/data/scripts/dock_solv.prm

>  <Rbt.Receptor>
prm/pocket_docking_8.prm

>  <SCORE>
-46.5745

>  <SCORE.INTER>
-38.115

>  <SCORE.INTER.CONST>
1

>  <SCORE.INTER.POLAR>
-5.10592

>  <SCORE.INTER.ROT>
9

>  <SCORE.INTER.SOLV>
26.5835

>  <SCORE.INTER.VDW>
-26.8514

>  <SCORE.INTER.norm>
-0.907499

>  <SCORE.INTRA>
-8.4595

>  <SCORE.INTRA.DIHEDRAL>
-14.5554

>  <SCORE.INTRA.DIHEDRAL.0>
46.2143

>  <SCORE.INTRA.POLAR>
-0.202086

>  <SCORE.INTRA.POLAR.0>
-1.76436

>  <SCORE.INTRA.REPUL>
0

>  <SCORE.INTRA.REPUL.0>
0

>  <SCORE.INTRA.SOLV>
-1.0148

>  <SCORE.INTRA.SOLV.lig_0>
-148.643

>  <SCORE.INTRA.VDW>
0.0127037

>  <SCORE.INTRA.VDW.0>
-4.83512

>  <SCORE.INTRA.norm>
-0.201417

>  <SCORE.RESTR>
0

>  <SCORE.RESTR.CAVITY>
0

>  <SCORE.RESTR.norm>
0

>  <SCORE.SYSTEM>
0

>  <SCORE.SYSTEM.CONST>
0

>  <SCORE.SYSTEM.DIHEDRAL>
0

>  <SCORE.SYSTEM.SOLV>
0

>  <SCORE.SYSTEM.norm>
0

>  <SCORE.heavy>
42

>  <SCORE.norm>
-1.10892

>  <RMSD>
2.466

$$$$
1j7t
 OpenBabel11021811393D
libRbt.so/2013.1/901 2013/11/27
 42 45  0  0  0  0  0  0  0  0999 V2000
   32.3933    8.3545   51.1178 C   0  0  2  0  0  0  0  0  0  0  0  0
   32.6409    8.4205   52.5449 O   0  0  0  0  0  0  0  0  0  0  0  0
   32.1266    9.8101   50.6379 C   0  0  2  0  0  0  0  0  0  0  0  0
   33.1860   10.7895   51.0149 N   0  3  0  0  0  0  0  0  0  0  0  0
   30.7962   10.2841   51.2626 C   0  0  1  0  0  0  0  0  0  0  0  0
   30.4950   11.5878   50.8514 O   0  0  0  0  0  0  0  0  0  0  0  0
   29.6542    9.3137   50.8782 C   0  0  2  0  0  0  0  0  0  0  0  0
   28.4216    9.7417   51.4229 O   0  0  0  0  0  0  0  0  0  0  0  0
   29.9671    7.9236   51.3899 C   0  0  2  0  0  0  0  0  0  0  0  0
   31.2264    7.5067   50.8777 O   0  0  0  0  0  0  0  0  0  0  0  0
   28.9537    6.8894   50.9534 C   0  0  0  0  0  0  0  0  0  0  0  0
   27.6631    7.2870   51.3745 O   0  0  0  0  0  0  0  0  0  0  0  0
   32.7934    4.2733   53.3359 C   0  0  2  0  0  0  0  0  0  0  0  0
   33.0511    2.9988   54.0072 N   0  3  0  0  0  0  0  0  0  0  0  0
   34.1447    5.0080   53.0482 C   0  0  0  0  0  0  0  0  0  0  0  0
   33.8752    6.3725   52.3855 C   0  0  2  0  0  0  0  0  0  0  0  0
   35.1288    7.0987   52.1575 N   0  3  0  0  0  0  0  0  0  0  0  0
   32.9439    7.2236   53.2710 C   0  0  2  0  0  0  0  0  0  0  0  0
   31.6151    6.5125   53.5935 C   0  0  2  0  0  0  0  0  0  0  0  0
   30.9329    7.3546   54.5426 O   0  0  0  0  0  0  0  0  0  0  0  0
   31.8868    5.1193   54.2156 C   0  0  1  0  0  0  0  0  0  0  0  0
   30.6684    4.4541   54.4058 O   0  0  0  0  0  0  0  0  0  0  0  0
   30.0945    6.8517   55.5796 C   0  0  1  0  0  0  0  0  0  0  0  0
   30.0731    7.8936   56.7544 C   0  0  2  0  0  0  0  0  0  0  0  0
   31.1153    7.7175   57.6988 O   0  0  0  0  0  0  0  0  0  0  0  0
   28.6767    7.5996   57.2843 C   0  0  2  0  0  0  0  0  0  0  0  0
   28.6168    6.2810   57.9067 O   0  0  0  0  0  0  0  0  0  0  0  0
   27.8410    7.5470   56.0131 C   0  0  2  0  0  0  0  0  0  0  0  0
   28.7077    6.7936   55.1476 O   0  0  0  0  0  0  0  0  0  0  0  0
   27.4584    8.9419   55.4184 C   0  0  0  0  0  0  0  0  0  0  0  0
   26.9478    9.8246   56.4254 O   0  0  0  0  0  0  0  0  0  0  0  0
   27.9849    6.2710   59.1842 C   0  0  2  0  0  0  0  0  0  0  0  0
   28.4894    5.1500   60.1554 C   0  0  2  0  0  0  0  0  0  0  0  0
   28.3242    3.7759   59.5916 N   0  3  0  0  0  0  0  0  0  0  0  0
   27.7021    5.3184   61.4976 C   0  0  1  0  0  0  0  0  0  0  0  0
   28.0670    6.6385   62.0559 O   0  0  0  0  0  0  0  0  0  0  0  0
   26.1379    5.2700   61.2922 C   0  0  2  0  0  0  0  0  0  0  0  0
   25.7813    3.9666   60.8037 O   0  0  0  0  0  0  0  0  0  0  0  0
   25.7393    6.4110   60.2669 C   0  0  1  0  0  0  0  0  0  0  0  0
   26.4991    6.1823   59.0326 O   0  0  0  0  0  0  0  0  0  0  0  0
   24.2296    6.4849   59.9441 C   0  0  0  0  0  0  0  0  0  0  0  0
   23.8355    5.6654   58.7662 N   0  3  0  0  0  0  0  0  0  0  0  0
  1  2  1  1  0  0  0
  1  3  1  0  0  0  0
  1 10  1  0  0  0  0
  3  4  1  1  0  0  0
  3  5  1  0  0  0  0
  5  6  1  6  0  0  0
  5  7  1  0  0  0  0
  7  8  1  1  0  0  0
  7  9  1  0  0  0  0
  9 10  1  0  0  0  0
  9 11  1  6  0  0  0
 11 12  1  0  0  0  0
 13 14  1  1  0  0  0
 13 15  1  0  0  0  0
 13 21  1  0  0  0  0
 15 16  1  0  0  0  0
 16 17  1  1  0  0  0
 16 18  1  0  0  0  0
 18  2  1  6  0  0  0
 18 19  1  0  0  0  0
 19 20  1  1  0  0  0
 19 21  1  0  0  0  0
 21 22  1  6  0  0  0
 23 20  1  6  0  0  0
 23 24  1  0  0  0  0
 23 29  1  0  0  0  0
 24 25  1  1  0  0  0
 24 26  1  0  0  0  0
 26 27  1  6  0  0  0
 26 28  1  0  0  0  0
 28 29  1  0  0  0  0
 28 30  1  6  0  0  0
 30 31  1  0  0  0  0
 32 27  1  6  0  0  0
 32 33  1  0  0  0  0
 32 40  1  0  0  0  0
 33 34  1  6  0  0  0
 33 35  1  0  0  0  0
 35 36  1  6  0  0  0
 35 37  1  0  0  0  0
 37 38  1  6  0  0  0
 37 39  1  0  0  0  0
 39 40  1  0  0  0  0
 39 41  1  6  0  0  0
 41 42  1  0  0  0  0
M  CHG  5   4   1  14   1  17   1  34   1  42   1
M  END
>  <CHROM.1>
-178.90891948,39.89825439,33.24576998,62.05409899,-162.77175223,-56.67044349
-169.30566792,-57.43581496,84.95245193,-146.67177444,154.15111415,126.04980981
-44.92110038,132.29947656,-151.26463493,-47.63324695,-176.95652268,-80.10339890
-179.68117068,178.55032662,-91.16996087,-145.40053452,29.65979527,7.01922618
55.24671825,-0.92775653,-0.52737767,2.21627419

>  <Name>
1j7t

>  <RI>
0

>  <Rbt.Current_Directory>
/home/itssahil/PROJECTS/Mol_Feturizer/New_Systems/rnas/1j7t

>  <Rbt.Executable>
rbdock ($Id: //depot/dev/client3/rdock/2013.1/src/exe/rbdock.cxx#4 $)

>  <Rbt.Library>
libRbt.so (2013.1, Build901 2013/11/27)

>  <Rbt.Parameter_File>
/export/apps/rDock/src/rDock_2013.1_src/data/scripts/dock_solv.prm

>  <Rbt.Receptor>
prm/pocket_docking_4.prm

>  <SCORE>
-38.9172

>  <SCORE.INTER>
-34.6034

>  <SCORE.INTER.CONST>
1

>  <SCORE.INTER.POLAR>
-6.79107

>  <SCORE.INTER.ROT>
9

>  <SCORE.INTER.SOLV>
26.2144

>  <SCORE.INTER.VDW>
-18.7702

>  <SCORE.INTER.norm>
-0.82389

>  <SCORE.INTRA>
-4.31382

>  <SCORE.INTRA.DIHEDRAL>
-8.01137

>  <SCORE.INTRA.DIHEDRAL.0>
46.2143

>  <SCORE.INTRA.POLAR>
-0.273811

>  <SCORE.INTRA.POLAR.0>
-1.76436

>  <SCORE.INTRA.REPUL>
0.059429

>  <SCORE.INTRA.REPUL.0>
0

>  <SCORE.INTRA.SOLV>
-3.04755

>  <SCORE.INTRA.SOLV.lig_0>
-148.643

>  <SCORE.INTRA.VDW>
1.84946

>  <SCORE.INTRA.VDW.0>
-4.83512

>  <SCORE.INTRA.norm>
-0.10271

>  <SCORE.RESTR>
0

>  <SCORE.RESTR.CAVITY>
0

>  <SCORE.RESTR.norm>
0

>  <SCORE.SYSTEM>
0

>  <SCORE.SYSTEM.CONST>
0

>  <SCORE.SYSTEM.DIHEDRAL>
0

>  <SCORE.SYSTEM.SOLV>
0

>  <SCORE.SYSTEM.norm>
0

>  <SCORE.heavy>
42

>  <SCORE.norm>
-0.9266

>  <RMSD>
2.493

$$$$
1j7t
 OpenBabel11021811393D
libRbt.so/2013.1/901 2013/11/27
 42 45  0  0  0  0  0  0  0  0999 V2000
   29.8111    8.6816   54.1176 C   0  0  2  0  0  0  0  0  0  0  0  0
   30.6167    7.4793   54.2063 O   0  0  0  0  0  0  0  0  0  0  0  0
   28.3833    8.2378   53.6878 C   0  0  2  0  0  0  0  0  0  0  0  0
   27.7805    7.1778   54.5461 N   0  3  0  0  0  0  0  0  0  0  0  0
   28.4652    7.6929   52.2452 C   0  0  1  0  0  0  0  0  0  0  0  0
   27.2012    7.2915   51.7970 O   0  0  0  0  0  0  0  0  0  0  0  0
   29.0610    8.7675   51.3052 C   0  0  2  0  0  0  0  0  0  0  0  0
   29.1249    8.2960   49.9737 O   0  0  0  0  0  0  0  0  0  0  0  0
   30.4539    9.1394   51.7674 C   0  0  2  0  0  0  0  0  0  0  0  0
   30.3996    9.5743   53.1202 O   0  0  0  0  0  0  0  0  0  0  0  0
   31.0610   10.2710   50.9687 C   0  0  0  0  0  0  0  0  0  0  0  0
   30.2292   11.4116   51.0599 O   0  0  0  0  0  0  0  0  0  0  0  0
   33.6344    5.7451   56.6009 C   0  0  2  0  0  0  0  0  0  0  0  0
   34.7713    5.6039   57.5113 N   0  3  0  0  0  0  0  0  0  0  0  0
   34.0797    6.4976   55.3033 C   0  0  0  0  0  0  0  0  0  0  0  0
   32.8746    6.6916   54.3633 C   0  0  2  0  0  0  0  0  0  0  0  0
   33.2628    7.4431   53.1652 N   0  3  0  0  0  0  0  0  0  0  0  0
   31.7413    7.4397   55.0925 C   0  0  2  0  0  0  0  0  0  0  0  0
   31.3009    6.7346   56.3902 C   0  0  2  0  0  0  0  0  0  0  0  0
   30.3627    7.6229   57.0275 O   0  0  0  0  0  0  0  0  0  0  0  0
   32.5216    6.4961   57.3147 C   0  0  1  0  0  0  0  0  0  0  0  0
   32.1128    5.7662   58.4386 O   0  0  0  0  0  0  0  0  0  0  0  0
   29.3557    7.1833   57.9352 C   0  0  1  0  0  0  0  0  0  0  0  0
   29.5959    7.8782   59.3228 C   0  0  2  0  0  0  0  0  0  0  0  0
   30.4803    7.1708   60.1752 O   0  0  0  0  0  0  0  0  0  0  0  0
   28.1511    7.9233   59.7999 C   0  0  2  0  0  0  0  0  0  0  0  0
   27.6522    6.5839   60.0947 O   0  0  0  0  0  0  0  0  0  0  0  0
   27.4092    8.4308   58.5713 C   0  0  2  0  0  0  0  0  0  0  0  0
   28.0443    7.6649   57.5331 O   0  0  0  0  0  0  0  0  0  0  0  0
   27.5103    9.9729   58.3313 C   0  0  0  0  0  0  0  0  0  0  0  0
   26.4354   10.4529   57.5139 O   0  0  0  0  0  0  0  0  0  0  0  0
   26.5006    6.5660   60.9343 C   0  0  2  0  0  0  0  0  0  0  0  0
   26.7869    6.1999   62.4304 C   0  0  2  0  0  0  0  0  0  0  0  0
   27.4442    4.8669   62.5864 N   0  3  0  0  0  0  0  0  0  0  0  0
   25.4174    6.2567   63.1860 C   0  0  1  0  0  0  0  0  0  0  0  0
   24.9371    7.6538   63.1161 O   0  0  0  0  0  0  0  0  0  0  0  0
   24.3294    5.3139   62.5390 C   0  0  2  0  0  0  0  0  0  0  0  0
   24.7739    3.9528   62.6602 O   0  0  0  0  0  0  0  0  0  0  0  0
   24.1462    5.7394   61.0233 C   0  0  1  0  0  0  0  0  0  0  0  0
   25.4599    5.6477   60.3758 O   0  0  0  0  0  0  0  0  0  0  0  0
   23.1178    4.8931   60.2390 C   0  0  0  0  0  0  0  0  0  0  0  0
   21.8111    5.5787   60.0464 N   0  3  0  0  0  0  0  0  0  0  0  0
  1  2  1  6  0  0  0
  1  3  1  0  0  0  0
  1 10  1  0  0  0  0
  3  4  1  1  0  0  0
  3  5  1  0  0  0  0
  5  6  1  6  0  0  0
  5  7  1  0  0  0  0
  7  8  1  6  0  0  0
  7  9  1  0  0  0  0
  9 10  1  0  0  0  0
  9 11  1  6  0  0  0
 11 12  1  0  0  0  0
 13 14  1  1  0  0  0
 13 15  1  0  0  0  0
 13 21  1  0  0  0  0
 15 16  1  0  0  0  0
 16 17  1  6  0  0  0
 16 18  1  0  0  0  0
 18  2  1  6  0  0  0
 18 19  1  0  0  0  0
 19 20  1  1  0  0  0
 19 21  1  0  0  0  0
 21 22  1  1  0  0  0
 23 20  1  6  0  0  0
 23 24  1  0  0  0  0
 23 29  1  0  0  0  0
 24 25  1  1  0  0  0
 24 26  1  0  0  0  0
 26 27  1  6  0  0  0
 26 28  1  0  0  0  0
 28 29  1  0  0  0  0
 28 30  1  6  0  0  0
 30 31  1  0  0  0  0
 32 27  1  6  0  0  0
 32 33  1  0  0  0  0
 32 40  1  0  0  0  0
 33 34  1  6  0  0  0
 33 35  1  0  0  0  0
 35 36  1  6  0  0  0
 35 37  1  0  0  0  0
 37 38  1  6  0  0  0
 37 39  1  0  0  0  0
 39 40  1  0  0  0  0
 39 41  1  6  0  0  0
 41 42  1  0  0  0  0
M  CHG  5   4   1  14   1  17   1  34   1  42   1
M  END
>  <CHROM.1>
-152.91775056,-139.93651697,-64.65602688,82.36232301,58.45992252,58.45830871
178.49129761,171.66998552,179.69476112,155.05711596,119.43484060,-58.94396974
49.82005032,160.75494799,-102.16977479,-158.08217353,-170.97948757,-31.14415493
179.85541679,177.99516463,102.72438907,-45.90935668,28.75012853,7.28007541
57.09664773,1.01470368,0.13193651,-1.22324993

>  <Name>
1j7t

>  <RI>
0

>  <Rbt.Current_Directory>
/home/itssahil/PROJECTS/Mol_Feturizer/New_Systems/rnas/1j7t

>  <Rbt.Executable>
rbdock ($Id: //depot/dev/client3/rdock/2013.1/src/exe/rbdock.cxx#4 $)

>  <Rbt.Library>
libRbt.so (2013.1, Build901 2013/11/27)

>  <Rbt.Parameter_File>
/export/apps/rDock/src/rDock_2013.1_src/data/scripts/dock_solv.prm

>  <Rbt.Receptor>
prm/pocket_docking_4.prm

>  <SCORE>
-52.1251

>  <SCORE.INTER>
-42.5938

>  <SCORE.INTER.CONST>
1

>  <SCORE.INTER.POLAR>
-6.68589

>  <SCORE.INTER.ROT>
9

>  <SCORE.INTER.SOLV>
30.2418

>  <SCORE.INTER.VDW>
-25.7902

>  <SCORE.INTER.norm>
-1.01414

>  <SCORE.INTRA>
-9.53126

>  <SCORE.INTRA.DIHEDRAL>
-8.97517

>  <SCORE.INTRA.DIHEDRAL.0>
46.2143

>  <SCORE.INTRA.POLAR>
-0.317657

>  <SCORE.INTRA.POLAR.0>
-1.76436

>  <SCORE.INTRA.REPUL>
0

>  <SCORE.INTRA.REPUL.0>
0

>  <SCORE.INTRA.SOLV>
-2.79594

>  <SCORE.INTRA.SOLV.lig_0>
-148.643

>  <SCORE.INTRA.VDW>
-2.56567

>  <SCORE.INTRA.VDW.0>
-4.83512

>  <SCORE.INTRA.norm>
-0.226935

>  <SCORE.RESTR>
0

>  <SCORE.RESTR.CAVITY>
0

>  <SCORE.RESTR.norm>
0

>  <SCORE.SYSTEM>
0

>  <SCORE.SYSTEM.CONST>
0

>  <SCORE.SYSTEM.DIHEDRAL>
0

>  <SCORE.SYSTEM.SOLV>
0

>  <SCORE.SYSTEM.norm>
0

>  <SCORE.heavy>
42

>  <SCORE.norm>
-1.24107

>  <RMSD>
2.531

$$$$
1j7t
 OpenBabel11021811393D
libRbt.so/2013.1/901 2013/11/27
 42 45  0  0  0  0  0  0  0  0999 V2000
   32.4603    7.9824   51.8325 C   0  0  2  0  0  0  0  0  0  0  0  0
   32.6636    8.3942   53.2078 O   0  0  0  0  0  0  0  0  0  0  0  0
   32.1708    9.2725   51.0129 C   0  0  2  0  0  0  0  0  0  0  0  0
   33.1931   10.3468   51.1689 N   0  3  0  0  0  0  0  0  0  0  0  0
   30.8107    9.8389   51.4757 C   0  0  1  0  0  0  0  0  0  0  0  0
   30.4886   10.9968   50.7582 O   0  0  0  0  0  0  0  0  0  0  0  0
   29.7059    8.7688   51.3085 C   0  0  2  0  0  0  0  0  0  0  0  0
   28.4471    9.2746   51.7070 O   0  0  0  0  0  0  0  0  0  0  0  0
   30.0389    7.5513   52.1444 C   0  0  2  0  0  0  0  0  0  0  0  0
   31.3231    7.0649   51.7755 O   0  0  0  0  0  0  0  0  0  0  0  0
   29.0658    6.4111   51.9447 C   0  0  0  0  0  0  0  0  0  0  0  0
   28.8415    6.2197   50.5611 O   0  0  0  0  0  0  0  0  0  0  0  0
   32.7967    4.5444   54.9425 C   0  0  2  0  0  0  0  0  0  0  0  0
   32.9948    3.4677   55.9136 N   0  3  0  0  0  0  0  0  0  0  0  0
   34.1589    5.2565   54.6497 C   0  0  0  0  0  0  0  0  0  0  0  0
   33.9463    6.4222   53.6650 C   0  0  2  0  0  0  0  0  0  0  0  0
   35.2045    7.1351   53.4207 N   0  3  0  0  0  0  0  0  0  0  0  0
   32.8985    7.4074   54.2191 C   0  0  2  0  0  0  0  0  0  0  0  0
   31.5540    6.7272   54.5427 C   0  0  2  0  0  0  0  0  0  0  0  0
   30.7458    7.7295   55.1888 O   0  0  0  0  0  0  0  0  0  0  0  0
   31.7741    5.5245   55.4951 C   0  0  1  0  0  0  0  0  0  0  0  0
   30.5544    4.8641   55.6928 O   0  0  0  0  0  0  0  0  0  0  0  0
   29.9581    7.4764   56.3493 C   0  0  1  0  0  0  0  0  0  0  0  0
   29.4488    8.8492   56.9168 C   0  0  2  0  0  0  0  0  0  0  0  0
   30.3451    9.4639   57.8266 O   0  0  0  0  0  0  0  0  0  0  0  0
   28.1464    8.3622   57.5363 C   0  0  2  0  0  0  0  0  0  0  0  0
   28.4005    7.5107   58.6939 O   0  0  0  0  0  0  0  0  0  0  0  0
   27.5619    7.4844   56.4385 C   0  0  2  0  0  0  0  0  0  0  0  0
   28.7337    6.7722   56.0056 O   0  0  0  0  0  0  0  0  0  0  0  0
   26.8641    8.2623   55.2750 C   0  0  0  0  0  0  0  0  0  0  0  0
   26.3294    9.5147   55.7216 O   0  0  0  0  0  0  0  0  0  0  0  0
   27.2599    7.3043   59.5233 C   0  0  2  0  0  0  0  0  0  0  0  0
   27.5836    6.7747   60.9617 C   0  0  2  0  0  0  0  0  0  0  0  0
   28.3360    5.4835   60.9493 N   0  3  0  0  0  0  0  0  0  0  0  0
   26.2196    6.6371   61.7169 C   0  0  1  0  0  0  0  0  0  0  0  0
   25.6398    7.9936   61.8230 O   0  0  0  0  0  0  0  0  0  0  0  0
   25.1969    5.7071   60.9551 C   0  0  2  0  0  0  0  0  0  0  0  0
   25.7388    4.3772   60.9044 O   0  0  0  0  0  0  0  0  0  0  0  0
   24.9716    6.3054   59.5048 C   0  0  1  0  0  0  0  0  0  0  0  0
   26.2832    6.3909   58.8525 O   0  0  0  0  0  0  0  0  0  0  0  0
   24.0003    5.4925   58.6190 C   0  0  0  0  0  0  0  0  0  0  0  0
   24.5141    4.1421   58.2623 N   0  3  0  0  0  0  0  0  0  0  0  0
  1  2  1  1  0  0  0
  1  3  1  0  0  0  0
  1 10  1  0  0  0  0
  3  4  1  1  0  0  0
  3  5  1  0  0  0  0
  5  6  1  6  0  0  0
  5  7  1  0  0  0  0
  7  8  1  1  0  0  0
  7  9  1  0  0  0  0
  9 10  1  0  0  0  0
  9 11  1  6  0  0  0
 11 12  1  0  0  0  0
 13 14  1  1  0  0  0
 13 15  1  0  0  0  0
 13 21  1  0  0  0  0
 15 16  1  0  0  0  0
 16 17  1  1  0  0  0
 16 18  1  0  0  0  0
 18  2  1  6  0  0  0
 18 19  1  0  0  0  0
 19 20  1  1  0  0  0
 19 21  1  0  0  0  0
 21 22  1  6  0  0  0
 23 20  1  6  0  0  0
 23 24  1  0  0  0  0
 23 29  1  0  0  0  0
 24 25  1  1  0  0  0
 24 26  1  0  0  0  0
 26 27  1  1  0  0  0
 26 28  1  0  0  0  0
 28 29  1  0  0  0  0
 28 30  1  6  0  0  0
 30 31  1  0  0  0  0
 32 27  1  6  0  0  0
 32 33  1  0  0  0  0
 32 40  1  0  0  0  0
 33 34  1  6  0  0  0
 33 35  1  0  0  0  0
 35 36  1  6  0  0  0
 35 37  1  0  0  0  0
 37 38  1  6  0  0  0
 37 39  1  0  0  0  0
 39 40  1  0  0  0  0
 39 41  1  6  0  0  0
 41 42  1  0  0  0  0
M  CHG  5   4   1  14   1  17   1  34   1  42   1
M  END
>  <CHROM.1>
177.47383386,46.00705165,39.03777770,173.68430641,103.35470835,46.53894467
175.88374069,69.36744882,-170.62668316,-136.24880781,169.20925292,-144.62431451
-40.45771790,164.51795520,-162.50932489,-28.48679238,168.34381751,47.47876155
175.32430600,76.37063246,-66.15641602,161.85125006,29.44480485,7.17398531
55.70018306,-0.88120581,-0.37424071,2.08841023

>  <Name>
1j7t

>  <RI>
0

>  <Rbt.Current_Directory>
/home/itssahil/PROJECTS/Mol_Feturizer/New_Systems/rnas/1j7t

>  <Rbt.Executable>
rbdock ($Id: //depot/dev/client3/rdock/2013.1/src/exe/rbdock.cxx#4 $)

>  <Rbt.Library>
libRbt.so (2013.1, Build901 2013/11/27)

>  <Rbt.Parameter_File>
/export/apps/rDock/src/rDock_2013.1_src/data/scripts/dock_solv.prm

>  <Rbt.Receptor>
prm/pocket_docking_2.prm

>  <SCORE>
-42.8684

>  <SCORE.INTER>
-36.6723

>  <SCORE.INTER.CONST>
1

>  <SCORE.INTER.POLAR>
-6.35715

>  <SCORE.INTER.ROT>
9

>  <SCORE.INTER.SOLV>
22.3092

>  <SCORE.INTER.VDW>
-20.2941

>  <SCORE.INTER.norm>
-0.87315

>  <SCORE.INTRA>
-7.96854

>  <SCORE.INTRA.DIHEDRAL>
-15.1022

>  <SCORE.INTRA.DIHEDRAL.0>
46.2143

>  <SCORE.INTRA.POLAR>
-0.741616

>  <SCORE.INTRA.POLAR.0>
-1.76436

>  <SCORE.INTRA.REPUL>
0

>  <SCORE.INTRA.REPUL.0>
0

>  <SCORE.INTRA.SOLV>
-3.00401

>  <SCORE.INTRA.SOLV.lig_0>
-148.643

>  <SCORE.INTRA.VDW>
3.60605

>  <SCORE.INTRA.VDW.0>
-4.83512

>  <SCORE.INTRA.norm>
-0.189727

>  <SCORE.RESTR>
1.77242

>  <SCORE.RESTR.CAVITY>
1.77242

>  <SCORE.RESTR.norm>
0.0422004

>  <SCORE.SYSTEM>
0

>  <SCORE.SYSTEM.CONST>
0

>  <SCORE.SYSTEM.DIHEDRAL>
0

>  <SCORE.SYSTEM.SOLV>
0

>  <SCORE.SYSTEM.norm>
0

>  <SCORE.heavy>
42

>  <SCORE.norm>
-1.02068

>  <RMSD>
2.548

$$$$
1j7t
 OpenBabel11021811393D
libRbt.so/2013.1/901 2013/11/27
 42 45  0  0  0  0  0  0  0  0999 V2000
   30.7944    8.9209   53.0212 C   0  0  2  0  0  0  0  0  0  0  0  0
   31.5533    7.7762   52.5563 O   0  0  0  0  0  0  0  0  0  0  0  0
   29.3034    8.6459   52.6729 C   0  0  2  0  0  0  0  0  0  0  0  0
   28.7818    7.3414   53.1729 N   0  3  0  0  0  0  0  0  0  0  0  0
   29.1607    8.6576   51.1353 C   0  0  1  0  0  0  0  0  0  0  0  0
   27.8310    8.4306   50.7614 O   0  0  0  0  0  0  0  0  0  0  0  0
   29.6646   10.0051   50.5660 C   0  0  2  0  0  0  0  0  0  0  0  0
   29.5227   10.0451   49.1598 O   0  0  0  0  0  0  0  0  0  0  0  0
   31.1226   10.2010   50.9236 C   0  0  2  0  0  0  0  0  0  0  0  0
   31.2753   10.1192   52.3350 O   0  0  0  0  0  0  0  0  0  0  0  0
   31.6597   11.5508   50.5035 C   0  0  0  0  0  0  0  0  0  0  0  0
   31.1948   12.5426   51.3987 O   0  0  0  0  0  0  0  0  0  0  0  0
   34.7844    5.4582   53.9829 C   0  0  2  0  0  0  0  0  0  0  0  0
   36.0834    5.0899   54.5469 N   0  3  0  0  0  0  0  0  0  0  0  0
   34.9865    6.2382   52.6416 C   0  0  0  0  0  0  0  0  0  0  0  0
   33.6229    6.6704   52.0694 C   0  0  2  0  0  0  0  0  0  0  0  0
   33.7964    7.4497   50.8391 N   0  3  0  0  0  0  0  0  0  0  0  0
   32.8500    7.5117   53.1041 C   0  0  2  0  0  0  0  0  0  0  0  0
   32.6601    6.7779   54.4460 C   0  0  2  0  0  0  0  0  0  0  0  0
   32.0709    7.7374   55.3447 O   0  0  0  0  0  0  0  0  0  0  0  0
   34.0275    6.3007   54.9974 C   0  0  1  0  0  0  0  0  0  0  0  0
   33.8183    5.5514   56.1626 O   0  0  0  0  0  0  0  0  0  0  0  0
   30.7897    7.5682   55.9456 C   0  0  1  0  0  0  0  0  0  0  0  0
   30.6182    6.0579   56.3399 C   0  0  2  0  0  0  0  0  0  0  0  0
   30.0874    5.2494   55.3038 O   0  0  0  0  0  0  0  0  0  0  0  0
   29.6968    6.2457   57.5370 C   0  0  2  0  0  0  0  0  0  0  0  0
   28.3784    6.7109   57.1183 O   0  0  0  0  0  0  0  0  0  0  0  0
   30.3655    7.3817   58.2983 C   0  0  2  0  0  0  0  0  0  0  0  0
   30.7143    8.2655   57.2190 O   0  0  0  0  0  0  0  0  0  0  0  0
   31.6026    6.9604   59.1572 C   0  0  0  0  0  0  0  0  0  0  0  0
   31.2247    6.1125   60.2492 O   0  0  0  0  0  0  0  0  0  0  0  0
   27.3622    5.7141   57.1904 C   0  0  2  0  0  0  0  0  0  0  0  0
   25.8984    6.2630   57.0878 C   0  0  2  0  0  0  0  0  0  0  0  0
   25.5798    7.2684   58.1466 N   0  3  0  0  0  0  0  0  0  0  0  0
   24.9399    5.0279   57.1618 C   0  0  1  0  0  0  0  0  0  0  0  0
   25.2213    4.1845   55.9798 O   0  0  0  0  0  0  0  0  0  0  0  0
   25.1634    4.1653   58.4645 C   0  0  2  0  0  0  0  0  0  0  0  0
   24.8340    4.9707   59.6080 O   0  0  0  0  0  0  0  0  0  0  0  0
   26.6772    3.6966   58.4923 C   0  0  1  0  0  0  0  0  0  0  0  0
   27.5144    4.9005   58.4366 O   0  0  0  0  0  0  0  0  0  0  0  0
   27.0640    2.8487   59.7254 C   0  0  0  0  0  0  0  0  0  0  0  0
   26.0041    2.8043   60.7691 N   0  3  0  0  0  0  0  0  0  0  0  0
  1  2  1  6  0  0  0
  1  3  1  0  0  0  0
  1 10  1  0  0  0  0
  3  4  1  6  0  0  0
  3  5  1  0  0  0  0
  5  6  1  1  0  0  0
  5  7  1  0  0  0  0
  7  8  1  6  0  0  0
  7  9  1  0  0  0  0
  9 10  1  0  0  0  0
  9 11  1  1  0  0  0
 11 12  1  0  0  0  0
 13 14  1  1  0  0  0
 13 15  1  0  0  0  0
 13 21  1  0  0  0  0
 15 16  1  0  0  0  0
 16 17  1  6  0  0  0
 16 18  1  0  0  0  0
 18  2  1  6  0  0  0
 18 19  1  0  0  0  0
 19 20  1  1  0  0  0
 19 21  1  0  0  0  0
 21 22  1  1  0  0  0
 23 20  1  1  0  0  0
 23 24  1  0  0  0  0
 23 29  1  0  0  0  0
 24 25  1  6  0  0  0
 24 26  1  0  0  0  0
 26 27  1  6  0  0  0
 26 28  1  0  0  0  0
 28 29  1  0  0  0  0
 28 30  1  6  0  0  0
 30 31  1  0  0  0  0
 32 27  1  1  0  0  0
 32 33  1  0  0  0  0
 32 40  1  0  0  0  0
 33 34  1  1  0  0  0
 33 35  1  0  0  0  0
 35 36  1  6  0  0  0
 35 37  1  0  0  0  0
 37 38  1  1  0  0  0
 37 39  1  0  0  0  0
 39 40  1  0  0  0  0
 39 41  1  1  0  0  0
 41 42  1  0  0  0  0
M  CHG  5   4   1  14   1  17   1  34   1  42   1
M  END
>  <CHROM.1>
-159.23167198,-156.65309350,71.24971144,-160.74956222,170.42727781,76.20398834
72.05622429,-162.04207423,49.60865000,118.45799661,38.96568830,63.50570945
-60.68194330,106.24608661,165.78642218,-66.82462649,56.12934452,-29.98030573
-58.92253754,63.51042926,-9.08513704,-49.84446069,29.98134411,6.93752393
55.12052762,0.98760797,0.09020719,-0.98734759

>  <Name>
1j7t

>  <RI>
0

>  <Rbt.Current_Directory>
/home/itssahil/PROJECTS/Mol_Feturizer/New_Systems/rnas/1j7t

>  <Rbt.Executable>
rbdock ($Id: //depot/dev/client3/rdock/2013.1/src/exe/rbdock.cxx#4 $)

>  <Rbt.Library>
libRbt.so (2013.1, Build901 2013/11/27)

>  <Rbt.Parameter_File>
/export/apps/rDock/src/rDock_2013.1_src/data/scripts/dock_solv.prm

>  <Rbt.Receptor>
prm/pocket_docking_2.prm

>  <SCORE>
-50.7679

>  <SCORE.INTER>
-49.8487

>  <SCORE.INTER.CONST>
1

>  <SCORE.INTER.POLAR>
-7.46631

>  <SCORE.INTER.ROT>
9

>  <SCORE.INTER.SOLV>
22.4051

>  <SCORE.INTER.VDW>
-25.4131

>  <SCORE.INTER.norm>
-1.18687

>  <SCORE.INTRA>
-3.00124

>  <SCORE.INTRA.DIHEDRAL>
-12.8021

>  <SCORE.INTRA.DIHEDRAL.0>
46.2143

>  <SCORE.INTRA.POLAR>
1.17551

>  <SCORE.INTRA.POLAR.0>
-1.76436

>  <SCORE.INTRA.REPUL>
0

>  <SCORE.INTRA.REPUL.0>
0

>  <SCORE.INTRA.SOLV>
1.60775

>  <SCORE.INTRA.SOLV.lig_0>
-148.643

>  <SCORE.INTRA.VDW>
-1.40079

>  <SCORE.INTRA.VDW.0>
-4.83512

>  <SCORE.INTRA.norm>
-0.0714582

>  <SCORE.RESTR>
2.082

>  <SCORE.RESTR.CAVITY>
2.082

>  <SCORE.RESTR.norm>
0.0495715

>  <SCORE.SYSTEM>
0

>  <SCORE.SYSTEM.CONST>
0

>  <SCORE.SYSTEM.DIHEDRAL>
0

>  <SCORE.SYSTEM.SOLV>
0

>  <SCORE.SYSTEM.norm>
0

>  <SCORE.heavy>
42

>  <SCORE.norm>
-1.20876

>  <RMSD>
2.594

$$$$
1j7t
 OpenBabel11021811393D
libRbt.so/2013.1/901 2013/11/27
 42 45  0  0  0  0  0  0  0  0999 V2000
   30.8313    8.8653   53.0769 C   0  0  2  0  0  0  0  0  0  0  0  0
   31.6052    7.7318   52.6092 O   0  0  0  0  0  0  0  0  0  0  0  0
   29.3846    8.6783   52.5363 C   0  0  2  0  0  0  0  0  0  0  0  0
   28.7682    7.3601   52.8619 N   0  3  0  0  0  0  0  0  0  0  0  0
   29.4261    8.8176   50.9989 C   0  0  1  0  0  0  0  0  0  0  0  0
   28.1439    8.6740   50.4557 O   0  0  0  0  0  0  0  0  0  0  0  0
   30.0345   10.1848   50.6063 C   0  0  2  0  0  0  0  0  0  0  0  0
   30.0620   10.3418   49.2014 O   0  0  0  0  0  0  0  0  0  0  0  0
   31.4449   10.2936   51.1456 C   0  0  2  0  0  0  0  0  0  0  0  0
   31.4263   10.0941   52.5534 O   0  0  0  0  0  0  0  0  0  0  0  0
   32.0686   11.6500   50.9047 C   0  0  0  0  0  0  0  0  0  0  0  0
   33.4777   11.5370   50.9571 O   0  0  0  0  0  0  0  0  0  0  0  0
   34.8623    5.4328   54.0072 C   0  0  2  0  0  0  0  0  0  0  0  0
   36.1609    5.0721   54.5770 N   0  3  0  0  0  0  0  0  0  0  0  0
   35.0663    6.2577   52.6933 C   0  0  0  0  0  0  0  0  0  0  0  0
   33.7020    6.6813   52.1164 C   0  0  2  0  0  0  0  0  0  0  0  0
   33.8761    7.5015   50.9131 N   0  3  0  0  0  0  0  0  0  0  0  0
   32.8997    7.4753   53.1659 C   0  0  2  0  0  0  0  0  0  0  0  0
   32.7069    6.6968   54.4820 C   0  0  2  0  0  0  0  0  0  0  0  0
   32.0876    7.6166   55.4018 O   0  0  0  0  0  0  0  0  0  0  0  0
   34.0762    6.2289   55.0368 C   0  0  1  0  0  0  0  0  0  0  0  0
   33.8668    5.4400   56.1756 O   0  0  0  0  0  0  0  0  0  0  0  0
   30.8359    7.3700   56.0371 C   0  0  1  0  0  0  0  0  0  0  0  0
   30.8326    5.8963   56.5795 C   0  0  2  0  0  0  0  0  0  0  0  0
   30.3876    4.9368   55.6359 O   0  0  0  0  0  0  0  0  0  0  0  0
   29.9028    6.1005   57.7673 C   0  0  2  0  0  0  0  0  0  0  0  0
   28.5392    6.3768   57.3267 O   0  0  0  0  0  0  0  0  0  0  0  0
   30.4475    7.3718   58.4033 C   0  0  2  0  0  0  0  0  0  0  0  0
   30.6918    8.1773   57.2374 O   0  0  0  0  0  0  0  0  0  0  0  0
   31.7280    7.1735   59.2790 C   0  0  0  0  0  0  0  0  0  0  0  0
   31.9181    8.2614   60.1925 O   0  0  0  0  0  0  0  0  0  0  0  0
   27.5374    5.7036   58.0849 C   0  0  2  0  0  0  0  0  0  0  0  0
   26.0653    6.0264   57.6571 C   0  0  2  0  0  0  0  0  0  0  0  0
   25.7449    7.4841   57.7338 N   0  3  0  0  0  0  0  0  0  0  0  0
   25.1245    5.1825   58.5803 C   0  0  1  0  0  0  0  0  0  0  0  0
   25.4043    3.7568   58.3034 O   0  0  0  0  0  0  0  0  0  0  0  0
   25.3742    5.4591   60.1141 C   0  0  2  0  0  0  0  0  0  0  0  0
   25.0466    6.8306   60.3903 O   0  0  0  0  0  0  0  0  0  0  0  0
   26.8944    5.1427   60.4315 C   0  0  1  0  0  0  0  0  0  0  0  0
   27.7145    5.9765   59.5452 O   0  0  0  0  0  0  0  0  0  0  0  0
   27.3063    5.3822   61.9019 C   0  0  0  0  0  0  0  0  0  0  0  0
   27.1765    6.8018   62.3290 N   0  3  0  0  0  0  0  0  0  0  0  0
  1  2  1  6  0  0  0
  1  3  1  0  0  0  0
  1 10  1  0  0  0  0
  3  4  1  6  0  0  0
  3  5  1  0  0  0  0
  5  6  1  1  0  0  0
  5  7  1  0  0  0  0
  7  8  1  6  0  0  0
  7  9  1  0  0  0  0
  9 10  1  0  0  0  0
  9 11  1  1  0  0  0
 11 12  1  0  0  0  0
 13 14  1  1  0  0  0
 13 15  1  0  0  0  0
 13 21  1  0  0  0  0
 15 16  1  0  0  0  0
 16 17  1  6  0  0  0
 16 18  1  0  0  0  0
 18  2  1  6  0  0  0
 18 19  1  0  0  0  0
 19 20  1  1  0  0  0
 19 21  1  0  0  0  0
 21 22  1  1  0  0  0
 23 20  1  1  0  0  0
 23 24  1  0  0  0  0
 23 29  1  0  0  0  0
 24 25  1  6  0  0  0
 24 26  1  0  0  0  0
 26 27  1  6  0  0  0
 26 28  1  0  0  0  0
 28 29  1  0  0  0  0
 28 30  1  6  0  0  0
 30 31  1  0  0  0  0
 32 27  1  6  0  0  0
 32 33  1  0  0  0  0
 32 40  1  0  0  0  0
 33 34  1  1  0  0  0
 33 35  1  0  0  0  0
 35 36  1  1  0  0  0
 35 37  1  0  0  0  0
 37 38  1  6  0  0  0
 37 39  1  0  0  0  0
 39 40  1  0  0  0  0
 39 41  1  1  0  0  0
 41 42  1  0  0  0  0
M  CHG  5   4   1  14   1  17   1  34   1  42   1
M  END
>  <CHROM.1>
-167.19980367,-155.21624105,-48.19920217,72.87176288,178.15115171,-158.10746546
62.59728955,-40.79600844,-73.21725230,122.05470602,45.59772461,-52.26747558
-61.89411478,138.11222885,178.01941879,-160.01473489,178.84381212,-133.56128139
-60.08449339,-69.98588421,-62.78291394,170.99370904,30.24426798,7.25633515
55.47703027,0.99846591,0.17844586,-1.12700727

>  <Name>
1j7t

>  <RI>
0

>  <Rbt.Current_Directory>
/home/itssahil/PROJECTS/Mol_Feturizer/New_Systems/rnas/1j7t

>  <Rbt.Executable>
rbdock ($Id: //depot/dev/client3/rdock/2013.1/src/exe/rbdock.cxx#4 $)

>  <Rbt.Library>
libRbt.so (2013.1, Build901 2013/11/27)

>  <Rbt.Parameter_File>
/export/apps/rDock/src/rDock_2013.1_src/data/scripts/dock_solv.prm

>  <Rbt.Receptor>
prm/pocket_docking_2.prm

>  <SCORE>
-39.9609

>  <SCORE.INTER>
-36.0678

>  <SCORE.INTER.CONST>
1

>  <SCORE.INTER.POLAR>
-5.10673

>  <SCORE.INTER.ROT>
9

>  <SCORE.INTER.SOLV>
21.9275

>  <SCORE.INTER.VDW>
-23.932

>  <SCORE.INTER.norm>
-0.858758

>  <SCORE.INTRA>
-5.76286

>  <SCORE.INTRA.DIHEDRAL>
-19.1377

>  <SCORE.INTRA.DIHEDRAL.0>
46.2143

>  <SCORE.INTRA.POLAR>
1.47455

>  <SCORE.INTRA.POLAR.0>
-1.76436

>  <SCORE.INTRA.REPUL>
0

>  <SCORE.INTRA.REPUL.0>
0

>  <SCORE.INTRA.SOLV>
-0.942701

>  <SCORE.INTRA.SOLV.lig_0>
-148.643

>  <SCORE.INTRA.VDW>
-0.736139

>  <SCORE.INTRA.VDW.0>
-4.83512

>  <SCORE.INTRA.norm>
-0.137211

>  <SCORE.RESTR>
1.86976

>  <SCORE.RESTR.CAVITY>
1.86976

>  <SCORE.RESTR.norm>
0.044518

>  <SCORE.SYSTEM>
0

>  <SCORE.SYSTEM.CONST>
0

>  <SCORE.SYSTEM.DIHEDRAL>
0

>  <SCORE.SYSTEM.SOLV>
0

>  <SCORE.SYSTEM.norm>
0

>  <SCORE.heavy>
42

>  <SCORE.norm>
-0.95145

>  <RMSD>
2.638

$$$$
1j7t
 OpenBabel11021811393D
libRbt.so/2013.1/901 2013/11/27
 42 45  0  0  0  0  0  0  0  0999 V2000
   29.7235    8.4570   54.0926 C   0  0  2  0  0  0  0  0  0  0  0  0
   30.6486    7.3406   54.1122 O   0  0  0  0  0  0  0  0  0  0  0  0
   28.4251    7.9555   53.3978 C   0  0  2  0  0  0  0  0  0  0  0  0
   27.8484    6.7132   53.9874 N   0  3  0  0  0  0  0  0  0  0  0  0
   28.7542    7.6709   51.9161 C   0  0  1  0  0  0  0  0  0  0  0  0
   27.6144    7.2299   51.2335 O   0  0  0  0  0  0  0  0  0  0  0  0
   29.3328    8.9406   51.2477 C   0  0  2  0  0  0  0  0  0  0  0  0
   29.6213    8.7075   49.8833 O   0  0  0  0  0  0  0  0  0  0  0  0
   30.6012    9.3627   51.9582 C   0  0  2  0  0  0  0  0  0  0  0  0
   30.3238    9.5571   53.3393 O   0  0  0  0  0  0  0  0  0  0  0  0
   31.1661   10.6657   51.4384 C   0  0  0  0  0  0  0  0  0  0  0  0
   32.5737   10.6588   51.5795 O   0  0  0  0  0  0  0  0  0  0  0  0
   33.6075    5.6896   56.6355 C   0  0  2  0  0  0  0  0  0  0  0  0
   34.7071    5.5795   57.5948 N   0  3  0  0  0  0  0  0  0  0  0  0
   34.0872    6.4572   55.3592 C   0  0  0  0  0  0  0  0  0  0  0  0
   32.9192    6.6181   54.3675 C   0  0  2  0  0  0  0  0  0  0  0  0
   33.3376    7.3828   53.1880 N   0  3  0  0  0  0  0  0  0  0  0  0
   31.7339    7.3318   55.0468 C   0  0  2  0  0  0  0  0  0  0  0  0
   31.2578    6.6118   56.3235 C   0  0  2  0  0  0  0  0  0  0  0  0
   30.2673    7.4714   56.9196 O   0  0  0  0  0  0  0  0  0  0  0  0
   32.4433    6.4068   57.3004 C   0  0  1  0  0  0  0  0  0  0  0  0
   32.0069    5.6633   58.4049 O   0  0  0  0  0  0  0  0  0  0  0  0
   29.2459    7.0038   57.7967 C   0  0  1  0  0  0  0  0  0  0  0  0
   28.7737    8.2008   58.6969 C   0  0  2  0  0  0  0  0  0  0  0  0
   29.5302    8.3609   59.8847 O   0  0  0  0  0  0  0  0  0  0  0  0
   27.3332    7.7588   58.9137 C   0  0  2  0  0  0  0  0  0  0  0  0
   27.2693    6.5666   59.7528 O   0  0  0  0  0  0  0  0  0  0  0  0
   26.8916    7.3599   57.5126 C   0  0  2  0  0  0  0  0  0  0  0  0
   28.0491    6.6387   57.0565 O   0  0  0  0  0  0  0  0  0  0  0  0
   26.5166    8.5542   56.5752 C   0  0  0  0  0  0  0  0  0  0  0  0
   26.3700    9.7768   57.3086 O   0  0  0  0  0  0  0  0  0  0  0  0
   25.9468    6.0828   59.9729 C   0  0  2  0  0  0  0  0  0  0  0  0
   24.9125    7.1777   60.4039 C   0  0  2  0  0  0  0  0  0  0  0  0
   25.3129    7.8955   61.6520 N   0  3  0  0  0  0  0  0  0  0  0  0
   23.5307    6.4619   60.5714 C   0  0  1  0  0  0  0  0  0  0  0  0
   23.1477    5.9344   59.2438 O   0  0  0  0  0  0  0  0  0  0  0  0
   23.5906    5.2622   61.5953 C   0  0  2  0  0  0  0  0  0  0  0  0
   23.9069    5.7863   62.8953 O   0  0  0  0  0  0  0  0  0  0  0  0
   24.6899    4.2378   61.0913 C   0  0  1  0  0  0  0  0  0  0  0  0
   25.9561    4.9700   60.9728 O   0  0  0  0  0  0  0  0  0  0  0  0
   24.8837    3.0045   62.0026 C   0  0  0  0  0  0  0  0  0  0  0  0
   25.5295    1.8547   61.3130 N   0  3  0  0  0  0  0  0  0  0  0  0
  1  2  1  6  0  0  0
  1  3  1  0  0  0  0
  1 10  1  0  0  0  0
  3  4  1  1  0  0  0
  3  5  1  0  0  0  0
  5  6  1  6  0  0  0
  5  7  1  0  0  0  0
  7  8  1  6  0  0  0
  7  9  1  0  0  0  0
  9 10  1  0  0  0  0
  9 11  1  6  0  0  0
 11 12  1  0  0  0  0
 13 14  1  1  0  0  0
 13 15  1  0  0  0  0
 13 21  1  0  0  0  0
 15 16  1  0  0  0  0
 16 17  1  6  0  0  0
 16 18  1  0  0  0  0
 18  2  1  6  0  0  0
 18 19  1  0  0  0  0
 19 20  1  1  0  0  0
 19 21  1  0  0  0  0
 21 22  1  1  0  0  0
 23 20  1  6  0  0  0
 23 24  1  0  0  0  0
 23 29  1  0  0  0  0
 24 25  1  1  0  0  0
 24 26  1  0  0  0  0
 26 27  1  1  0  0  0
 26 28  1  0  0  0  0
 28 29  1  0  0  0  0
 28 30  1  6  0  0  0
 30 31  1  0  0  0  0
 32 27  1  1  0  0  0
 32 33  1  0  0  0  0
 32 40  1  0  0  0  0
 33 34  1  1  0  0  0
 33 35  1  0  0  0  0
 35 36  1  6  0  0  0
 35 37  1  0  0  0  0
 37 38  1  1  0  0  0
 37 39  1  0  0  0  0
 39 40  1  0  0  0  0
 39 41  1  1  0  0  0
 41 42  1  0  0  0  0
M  CHG  5   4   1  14   1  17   1  34   1  42   1
M  END
>  <CHROM.1>
-159.46324844,-146.79107939,-67.45072277,59.93551393,-70.07037294,-149.64745244
-90.73885030,44.84666591,178.44680685,155.95451948,156.15520865,-63.78807736
51.94661001,-178.77639420,-48.14045001,-13.27085829,70.38484976,-59.89083240
-67.11827005,65.78640381,159.65171596,-17.22380023,28.67694366,7.07848852
56.78152484,0.92883150,0.14673849,-1.13262924

>  <Name>
1j7t

>  <RI>
0

>  <Rbt.Current_Directory>
/home/itssahil/PROJECTS/Mol_Feturizer/New_Systems/rnas/1j7t

>  <Rbt.Executable>
rbdock ($Id: //depot/dev/client3/rdock/2013.1/src/exe/rbdock.cxx#4 $)

>  <Rbt.Library>
libRbt.so (2013.1, Build901 2013/11/27)

>  <Rbt.Parameter_File>
/export/apps/rDock/src/rDock_2013.1_src/data/scripts/dock_solv.prm

>  <Rbt.Receptor>
prm/pocket_docking_3.prm

>  <SCORE>
-54.8248

>  <SCORE.INTER>
-45.0404

>  <SCORE.INTER.CONST>
1

>  <SCORE.INTER.POLAR>
-7.32376

>  <SCORE.INTER.ROT>
9

>  <SCORE.INTER.SOLV>
24.5862

>  <SCORE.INTER.VDW>
-23.4098

>  <SCORE.INTER.norm>
-1.07239

>  <SCORE.INTRA>
-9.81433

>  <SCORE.INTRA.DIHEDRAL>
-16.1148

>  <SCORE.INTRA.DIHEDRAL.0>
46.2143

>  <SCORE.INTRA.POLAR>
0.171688

>  <SCORE.INTRA.POLAR.0>
-1.76436

>  <SCORE.INTRA.REPUL>
0

>  <SCORE.INTRA.REPUL.0>
0

>  <SCORE.INTRA.SOLV>
-1.25336

>  <SCORE.INTRA.SOLV.lig_0>
-148.643

>  <SCORE.INTRA.VDW>
-1.71398

>  <SCORE.INTRA.VDW.0>
-4.83512

>  <SCORE.INTRA.norm>
-0.233675

>  <SCORE.RESTR>
0.0299844

>  <SCORE.RESTR.CAVITY>
0.0299844

>  <SCORE.RESTR.norm>
0.000713914

>  <SCORE.SYSTEM>
0

>  <SCORE.SYSTEM.CONST>
0

>  <SCORE.SYSTEM.DIHEDRAL>
0

>  <SCORE.SYSTEM.SOLV>
0

>  <SCORE.SYSTEM.norm>
0

>  <SCORE.heavy>
42

>  <SCORE.norm>
-1.30535

>  <RMSD>
2.681

$$$$
1j7t
 OpenBabel11021811393D
libRbt.so/2013.1/901 2013/11/27
 42 45  0  0  0  0  0  0  0  0999 V2000
   32.5844    8.1469   51.3378 C   0  0  2  0  0  0  0  0  0  0  0  0
   33.0486    8.2198   52.7096 O   0  0  0  0  0  0  0  0  0  0  0  0
   32.1317    9.5803   50.9375 C   0  0  2  0  0  0  0  0  0  0  0  0
   33.1570   10.6389   51.1648 N   0  3  0  0  0  0  0  0  0  0  0  0
   30.8836    9.9393   51.7732 C   0  0  1  0  0  0  0  0  0  0  0  0
   30.4197   11.2180   51.4428 O   0  0  0  0  0  0  0  0  0  0  0  0
   29.7751    8.8830   51.5517 C   0  0  2  0  0  0  0  0  0  0  0  0
   28.6143    9.2048   52.2922 O   0  0  0  0  0  0  0  0  0  0  0  0
   30.2732    7.5183   51.9776 C   0  0  2  0  0  0  0  0  0  0  0  0
   31.4645    7.2095   51.2653 O   0  0  0  0  0  0  0  0  0  0  0  0
   29.2880    6.4094   51.6831 C   0  0  0  0  0  0  0  0  0  0  0  0
   29.6686    5.2418   52.3853 O   0  0  0  0  0  0  0  0  0  0  0  0
   33.5697    4.0839   53.3959 C   0  0  2  0  0  0  0  0  0  0  0  0
   33.9997    2.8225   54.0004 N   0  3  0  0  0  0  0  0  0  0  0  0
   34.8174    4.9058   52.9310 C   0  0  0  0  0  0  0  0  0  0  0  0
   34.3713    6.2562   52.3384 C   0  0  2  0  0  0  0  0  0  0  0  0
   35.5317    7.0629   51.9463 N   0  3  0  0  0  0  0  0  0  0  0  0
   33.5264    7.0382   53.3631 C   0  0  2  0  0  0  0  0  0  0  0  0
   32.3045    6.2409   53.8597 C   0  0  2  0  0  0  0  0  0  0  0  0
   31.7152    7.0293   54.9117 O   0  0  0  0  0  0  0  0  0  0  0  0
   32.7486    4.8624   54.4115 C   0  0  1  0  0  0  0  0  0  0  0  0
   31.6138    4.1192   54.7620 O   0  0  0  0  0  0  0  0  0  0  0  0
   30.5951    6.6011   55.6819 C   0  0  1  0  0  0  0  0  0  0  0  0
   30.4357    7.5655   56.9109 C   0  0  2  0  0  0  0  0  0  0  0  0
   31.1908    7.1796   58.0467 O   0  0  0  0  0  0  0  0  0  0  0  0
   28.9270    7.4572   57.0820 C   0  0  2  0  0  0  0  0  0  0  0  0
   28.5447    6.1295   57.5522 O   0  0  0  0  0  0  0  0  0  0  0  0
   28.4175    7.6047   55.6552 C   0  0  2  0  0  0  0  0  0  0  0  0
   29.3554    6.7790   54.9436 O   0  0  0  0  0  0  0  0  0  0  0  0
   28.3777    9.0731   55.1186 C   0  0  0  0  0  0  0  0  0  0  0  0
   27.5117    9.9008   55.9053 O   0  0  0  0  0  0  0  0  0  0  0  0
   27.1729    6.0185   57.9226 C   0  0  2  0  0  0  0  0  0  0  0  0
   26.6902    7.0774   58.9715 C   0  0  2  0  0  0  0  0  0  0  0  0
   27.4757    7.0357   60.2422 N   0  3  0  0  0  0  0  0  0  0  0  0
   25.1697    6.8087   59.2273 C   0  0  1  0  0  0  0  0  0  0  0  0
   24.4634    7.0414   57.9488 O   0  0  0  0  0  0  0  0  0  0  0  0
   24.8875    5.3294   59.7000 C   0  0  2  0  0  0  0  0  0  0  0  0
   25.5281    5.1255   60.9699 O   0  0  0  0  0  0  0  0  0  0  0  0
   25.4481    4.3424   58.5939 C   0  0  1  0  0  0  0  0  0  0  0  0
   26.8745    4.6387   58.4181 O   0  0  0  0  0  0  0  0  0  0  0  0
   25.2629    2.8427   58.9186 C   0  0  0  0  0  0  0  0  0  0  0  0
   23.8384    2.4127   58.9370 N   0  3  0  0  0  0  0  0  0  0  0  0
  1  2  1  1  0  0  0
  1  3  1  0  0  0  0
  1 10  1  0  0  0  0
  3  4  1  1  0  0  0
  3  5  1  0  0  0  0
  5  6  1  6  0  0  0
  5  7  1  0  0  0  0
  7  8  1  1  0  0  0
  7  9  1  0  0  0  0
  9 10  1  0  0  0  0
  9 11  1  6  0  0  0
 11 12  1  0  0  0  0
 13 14  1  1  0  0  0
 13 15  1  0  0  0  0
 13 21  1  0  0  0  0
 15 16  1  0  0  0  0
 16 17  1  1  0  0  0
 16 18  1  0  0  0  0
 18  2  1  6  0  0  0
 18 19  1  0  0  0  0
 19 20  1  1  0  0  0
 19 21  1  0  0  0  0
 21 22  1  6  0  0  0
 23 20  1  6  0  0  0
 23 24  1  0  0  0  0
 23 29  1  0  0  0  0
 24 25  1  1  0  0  0
 24 26  1  0  0  0  0
 26 27  1  6  0  0  0
 26 28  1  0  0  0  0
 28 29  1  0  0  0  0
 28 30  1  6  0  0  0
 30 31  1  0  0  0  0
 32 27  1  1  0  0  0
 32 33  1  0  0  0  0
 32 40  1  0  0  0  0
 33 34  1  1  0  0  0
 33 35  1  0  0  0  0
 35 36  1  6  0  0  0
 35 37  1  0  0  0  0
 37 38  1  1  0  0  0
 37 39  1  0  0  0  0
 39 40  1  0  0  0  0
 39 41  1  1  0  0  0
 41 42  1  0  0  0  0
M  CHG  5   4   1  14   1  17   1  34   1  42   1
M  END
>  <CHROM.1>
179.63320080,40.79060657,149.82556745,-64.93181236,176.47811976,-165.97928669
60.05942793,-179.19638668,-160.02785423,-176.59047760,168.04108946,68.89931929
42.98238969,171.18703867,-53.94635915,-60.75421908,177.16011498,54.68595809
-57.22523302,67.87795035,66.53229048,-45.67651292,29.78555537,6.75412558
55.10031358,0.61140120,0.56731083,-0.60658675

>  <Name>
1j7t

>  <RI>
0

>  <Rbt.Current_Directory>
/home/itssahil/PROJECTS/Mol_Feturizer/New_Systems/rnas/1j7t

>  <Rbt.Executable>
rbdock ($Id: //depot/dev/client3/rdock/2013.1/src/exe/rbdock.cxx#4 $)

>  <Rbt.Library>
libRbt.so (2013.1, Build901 2013/11/27)

>  <Rbt.Parameter_File>
/export/apps/rDock/src/rDock_2013.1_src/data/scripts/dock_solv.prm

>  <Rbt.Receptor>
prm/pocket_docking_3.prm

>  <SCORE>
-46.1595

>  <SCORE.INTER>
-27.5003

>  <SCORE.INTER.CONST>
1

>  <SCORE.INTER.POLAR>
-5.14842

>  <SCORE.INTER.ROT>
9

>  <SCORE.INTER.SOLV>
20.3538

>  <SCORE.INTER.VDW>
-17.5567

>  <SCORE.INTER.norm>
-0.654769

>  <SCORE.INTRA>
-18.7635

>  <SCORE.INTRA.DIHEDRAL>
-36.2074

>  <SCORE.INTRA.DIHEDRAL.0>
46.2143

>  <SCORE.INTRA.POLAR>
0.289882

>  <SCORE.INTRA.POLAR.0>
-1.76436

>  <SCORE.INTRA.REPUL>
0.0843996

>  <SCORE.INTRA.REPUL.0>
0

>  <SCORE.INTRA.SOLV>
-2.11053

>  <SCORE.INTRA.SOLV.lig_0>
-148.643

>  <SCORE.INTRA.VDW>
-1.01216

>  <SCORE.INTRA.VDW.0>
-4.83512

>  <SCORE.INTRA.norm>
-0.446751

>  <SCORE.RESTR>
0.104306

>  <SCORE.RESTR.CAVITY>
0.104306

>  <SCORE.RESTR.norm>
0.00248347

>  <SCORE.SYSTEM>
0

>  <SCORE.SYSTEM.CONST>
0

>  <SCORE.SYSTEM.DIHEDRAL>
0

>  <SCORE.SYSTEM.SOLV>
0

>  <SCORE.SYSTEM.norm>
0

>  <SCORE.heavy>
42

>  <SCORE.norm>
-1.09904

>  <RMSD>
2.688

$$$$
1j7t
 OpenBabel11021811393D
libRbt.so/2013.1/901 2013/11/27
 42 45  0  0  0  0  0  0  0  0999 V2000
   30.1047    9.2999   52.7315 C   0  0  2  0  0  0  0  0  0  0  0  0
   30.9533    8.1969   52.3244 O   0  0  0  0  0  0  0  0  0  0  0  0
   28.7149    9.0676   52.0724 C   0  0  2  0  0  0  0  0  0  0  0  0
   28.1197    7.7267   52.3400 N   0  3  0  0  0  0  0  0  0  0  0  0
   28.8782    9.2194   50.5443 C   0  0  1  0  0  0  0  0  0  0  0  0
   27.6509    9.0361   49.8964 O   0  0  0  0  0  0  0  0  0  0  0  0
   29.4692   10.6094   50.2094 C   0  0  2  0  0  0  0  0  0  0  0  0
   29.6070   10.7775   48.8123 O   0  0  0  0  0  0  0  0  0  0  0  0
   30.8257   10.7623   50.8640 C   0  0  2  0  0  0  0  0  0  0  0  0
   30.6980   10.5521   52.2645 O   0  0  0  0  0  0  0  0  0  0  0  0
   31.4198   12.1410   50.6815 C   0  0  0  0  0  0  0  0  0  0  0  0
   32.8263   12.0697   50.8151 O   0  0  0  0  0  0  0  0  0  0  0  0
   33.9977    5.8766   54.1121 C   0  0  2  0  0  0  0  0  0  0  0  0
   35.2135    5.5074   54.8381 N   0  3  0  0  0  0  0  0  0  0  0  0
   34.3683    6.7012   52.8349 C   0  0  0  0  0  0  0  0  0  0  0  0
   33.0887    7.1337   52.0939 C   0  0  2  0  0  0  0  0  0  0  0  0
   33.4156    7.9538   50.9228 N   0  3  0  0  0  0  0  0  0  0  0  0
   32.1672    7.9319   53.0370 C   0  0  2  0  0  0  0  0  0  0  0  0
   31.8078    7.1536   54.3178 C   0  0  2  0  0  0  0  0  0  0  0  0
   31.0848    8.0765   55.1550 O   0  0  0  0  0  0  0  0  0  0  0  0
   33.0949    6.6768   55.0375 C   0  0  1  0  0  0  0  0  0  0  0  0
   32.7409    5.8883   56.1403 O   0  0  0  0  0  0  0  0  0  0  0  0
   29.8615    7.7513   55.8099 C   0  0  1  0  0  0  0  0  0  0  0  0
   30.1468    6.6334   56.8752 C   0  0  2  0  0  0  0  0  0  0  0  0
   30.0637    5.3148   56.3619 O   0  0  0  0  0  0  0  0  0  0  0  0
   29.0577    6.9978   57.8744 C   0  0  2  0  0  0  0  0  0  0  0  0
   27.7318    6.7175   57.3331 O   0  0  0  0  0  0  0  0  0  0  0  0
   29.1992    8.5094   57.9863 C   0  0  2  0  0  0  0  0  0  0  0  0
   29.3825    8.8693   56.6062 O   0  0  0  0  0  0  0  0  0  0  0  0
   30.3734    8.9952   58.8979 C   0  0  0  0  0  0  0  0  0  0  0  0
   30.3455   10.4158   59.0846 O   0  0  0  0  0  0  0  0  0  0  0  0
   26.7206    6.5653   58.3260 C   0  0  2  0  0  0  0  0  0  0  0  0
   25.2852    6.2900   57.7617 C   0  0  2  0  0  0  0  0  0  0  0  0
   24.8099    7.3623   56.8357 N   0  3  0  0  0  0  0  0  0  0  0  0
   24.3319    6.1305   58.9928 C   0  0  1  0  0  0  0  0  0  0  0  0
   24.7878    4.9432   59.7479 O   0  0  0  0  0  0  0  0  0  0  0  0
   24.3657    7.3841   59.9512 C   0  0  2  0  0  0  0  0  0  0  0  0
   23.8683    8.5236   59.2308 O   0  0  0  0  0  0  0  0  0  0  0  0
   25.8612    7.5989   60.4302 C   0  0  1  0  0  0  0  0  0  0  0  0
   26.6919    7.7564   59.2308 O   0  0  0  0  0  0  0  0  0  0  0  0
   26.0666    8.8089   61.3697 C   0  0  0  0  0  0  0  0  0  0  0  0
   25.5483    8.5839   62.7464 N   0  3  0  0  0  0  0  0  0  0  0  0
  1  2  1  6  0  0  0
  1  3  1  0  0  0  0
  1 10  1  0  0  0  0
  3  4  1  6  0  0  0
  3  5  1  0  0  0  0
  5  6  1  6  0  0  0
  5  7  1  0  0  0  0
  7  8  1  6  0  0  0
  7  9  1  0  0  0  0
  9 10  1  0  0  0  0
  9 11  1  1  0  0  0
 11 12  1  0  0  0  0
 13 14  1  1  0  0  0
 13 15  1  0  0  0  0
 13 21  1  0  0  0  0
 15 16  1  0  0  0  0
 16 17  1  6  0  0  0
 16 18  1  0  0  0  0
 18  2  1  6  0  0  0
 18 19  1  0  0  0  0
 19 20  1  1  0  0  0
 19 21  1  0  0  0  0
 21 22  1  1  0  0  0
 23 20  1  1  0  0  0
 23 24  1  0  0  0  0
 23 29  1  0  0  0  0
 24 25  1  6  0  0  0
 24 26  1  0  0  0  0
 26 27  1  6  0  0  0
 26 28  1  0  0  0  0
 28 29  1  0  0  0  0
 28 30  1  1  0  0  0
 30 31  1  0  0  0  0
 32 27  1  6  0  0  0
 32 33  1  0  0  0  0
 32 40  1  0  0  0  0
 33 34  1  6  0  0  0
 33 35  1  0  0  0  0
 35 36  1  1  0  0  0
 35 37  1  0  0  0  0
 37 38  1  6  0  0  0
 37 39  1  0  0  0  0
 39 40  1  0  0  0  0
 39 41  1  1  0  0  0
 41 42  1  0  0  0  0
M  CHG  5   4   1  14   1  17   1  34   1  42   1
M  END
>  <CHROM.1>
-163.46763715,-157.90650353,-64.24017912,-78.31776315,62.39854655,-156.59244935
-70.12831787,69.00145176,-56.62947843,132.80834778,65.45031012,69.96655533
-55.35470720,158.45926649,178.92522910,-172.96875661,179.35472493,-49.62981391
-62.32216504,47.15417620,73.67159669,165.71618694,29.38458396,8.06733349
55.32176713,0.93222128,0.28729855,-1.16133031

>  <Name>
1j7t

>  <RI>
0

>  <Rbt.Current_Directory>
/home/itssahil/PROJECTS/Mol_Feturizer/New_Systems/rnas/1j7t

>  <Rbt.Executable>
rbdock ($Id: //depot/dev/client3/rdock/2013.1/src/exe/rbdock.cxx#4 $)

>  <Rbt.Library>
libRbt.so (2013.1, Build901 2013/11/27)

>  <Rbt.Parameter_File>
/export/apps/rDock/src/rDock_2013.1_src/data/scripts/dock_solv.prm

>  <Rbt.Receptor>
prm/pocket_docking_6.prm

>  <SCORE>
-62.6426

>  <SCORE.INTER>
-50.5545

>  <SCORE.INTER.CONST>
1

>  <SCORE.INTER.POLAR>
-7.26926

>  <SCORE.INTER.ROT>
9

>  <SCORE.INTER.SOLV>
25.7233

>  <SCORE.INTER.VDW>
-27.6466

>  <SCORE.INTER.norm>
-1.20368

>  <SCORE.INTRA>
-12.0881

>  <SCORE.INTRA.DIHEDRAL>
-26.5211

>  <SCORE.INTRA.DIHEDRAL.0>
46.2143

>  <SCORE.INTRA.POLAR>
1.64364

>  <SCORE.INTRA.POLAR.0>
-1.76436

>  <SCORE.INTRA.REPUL>
0

>  <SCORE.INTRA.REPUL.0>
0

>  <SCORE.INTRA.SOLV>
-4.43026

>  <SCORE.INTRA.SOLV.lig_0>
-148.643

>  <SCORE.INTRA.VDW>
-2.2008

>  <SCORE.INTRA.VDW.0>
-4.83512

>  <SCORE.INTRA.norm>
-0.287813

>  <SCORE.RESTR>
0

>  <SCORE.RESTR.CAVITY>
0

>  <SCORE.RESTR.norm>
0

>  <SCORE.SYSTEM>
0

>  <SCORE.SYSTEM.CONST>
0

>  <SCORE.SYSTEM.DIHEDRAL>
0

>  <SCORE.SYSTEM.SOLV>
0

>  <SCORE.SYSTEM.norm>
0

>  <SCORE.heavy>
42

>  <SCORE.norm>
-1.49149

>  <RMSD>
2.699

$$$$
1j7t
 OpenBabel11021811393D
libRbt.so/2013.1/901 2013/11/27
 42 45  0  0  0  0  0  0  0  0999 V2000
   32.3953    7.9903   51.7370 C   0  0  2  0  0  0  0  0  0  0  0  0
   32.5596    8.2934   53.1454 O   0  0  0  0  0  0  0  0  0  0  0  0
   32.0752    9.3334   51.0203 C   0  0  2  0  0  0  0  0  0  0  0  0
   33.0561   10.4248   51.2850 N   0  3  0  0  0  0  0  0  0  0  0  0
   30.6880    9.8134   51.5000 C   0  0  1  0  0  0  0  0  0  0  0  0
   30.3381   11.0153   50.8735 O   0  0  0  0  0  0  0  0  0  0  0  0
   29.6247    8.7243   51.2228 C   0  0  2  0  0  0  0  0  0  0  0  0
   28.3420    9.1528   51.6354 O   0  0  0  0  0  0  0  0  0  0  0  0
   29.9854    7.4537   51.9626 C   0  0  2  0  0  0  0  0  0  0  0  0
   31.2923    7.0430   51.5814 O   0  0  0  0  0  0  0  0  0  0  0  0
   29.0568    6.3018   51.6499 C   0  0  0  0  0  0  0  0  0  0  0  0
   29.4501    5.1641   52.3929 O   0  0  0  0  0  0  0  0  0  0  0  0
   32.7947    4.3078   54.5266 C   0  0  2  0  0  0  0  0  0  0  0  0
   32.9575    3.1557   55.4140 N   0  3  0  0  0  0  0  0  0  0  0  0
   34.1181    5.1417   54.4861 C   0  0  0  0  0  0  0  0  0  0  0  0
   33.9353    6.3825   53.5913 C   0  0  2  0  0  0  0  0  0  0  0  0
   35.1497    7.2047   53.5846 N   0  3  0  0  0  0  0  0  0  0  0  0
   32.7460    7.2291   54.0856 C   0  0  2  0  0  0  0  0  0  0  0  0
   31.4335    6.4250   54.1618 C   0  0  2  0  0  0  0  0  0  0  0  0
   30.4678    7.2966   54.7809 O   0  0  0  0  0  0  0  0  0  0  0  0
   31.6310    5.1514   55.0225 C   0  0  1  0  0  0  0  0  0  0  0  0
   30.4561    4.3886   54.9930 O   0  0  0  0  0  0  0  0  0  0  0  0
   29.4919    6.8491   55.7183 C   0  0  1  0  0  0  0  0  0  0  0  0
   28.9144    8.0990   56.4734 C   0  0  2  0  0  0  0  0  0  0  0  0
   29.6532    8.4672   57.6256 O   0  0  0  0  0  0  0  0  0  0  0  0
   27.5191    7.5603   56.7566 C   0  0  2  0  0  0  0  0  0  0  0  0
   27.5616    6.4766   57.7331 O   0  0  0  0  0  0  0  0  0  0  0  0
   27.1154    6.9581   55.4180 C   0  0  2  0  0  0  0  0  0  0  0  0
   28.3328    6.2930   55.0396 O   0  0  0  0  0  0  0  0  0  0  0  0
   26.6355    7.9931   54.3483 C   0  0  0  0  0  0  0  0  0  0  0  0
   26.2582    7.3519   53.1234 O   0  0  0  0  0  0  0  0  0  0  0  0
   26.8391    6.7475   58.9315 C   0  0  2  0  0  0  0  0  0  0  0  0
   27.7293    6.9075   60.2107 C   0  0  2  0  0  0  0  0  0  0  0  0
   28.5700    5.7033   60.4873 N   0  3  0  0  0  0  0  0  0  0  0  0
   26.7653    7.2210   61.4033 C   0  0  1  0  0  0  0  0  0  0  0  0
   26.1106    8.5139   61.1080 O   0  0  0  0  0  0  0  0  0  0  0  0
   25.6506    6.1187   61.5865 C   0  0  2  0  0  0  0  0  0  0  0  0
   26.2876    4.8772   61.9293 O   0  0  0  0  0  0  0  0  0  0  0  0
   24.8387    6.0076   60.2298 C   0  0  1  0  0  0  0  0  0  0  0  0
   25.7983    5.6981   59.1637 O   0  0  0  0  0  0  0  0  0  0  0  0
   23.7120    4.9496   60.2410 C   0  0  0  0  0  0  0  0  0  0  0  0
   23.0899    4.7336   58.9065 N   0  3  0  0  0  0  0  0  0  0  0  0
  1  2  1  1  0  0  0
  1  3  1  0  0  0  0
  1 10  1  0  0  0  0
  3  4  1  1  0  0  0
  3  5  1  0  0  0  0
  5  6  1  6  0  0  0
  5  7  1  0  0  0  0
  7  8  1  1  0  0  0
  7  9  1  0  0  0  0
  9 10  1  0  0  0  0
  9 11  1  6  0  0  0
 11 12  1  0  0  0  0
 13 14  1  1  0  0  0
 13 15  1  0  0  0  0
 13 21  1  0  0  0  0
 15 16  1  0  0  0  0
 16 17  1  1  0  0  0
 16 18  1  0  0  0  0
 18  2  1  6  0  0  0
 18 19  1  0  0  0  0
 19 20  1  1  0  0  0
 19 21  1  0  0  0  0
 21 22  1  6  0  0  0
 23 20  1  6  0  0  0
 23 24  1  0  0  0  0
 23 29  1  0  0  0  0
 24 25  1  1  0  0  0
 24 26  1  0  0  0  0
 26 27  1  1  0  0  0
 26 28  1  0  0  0  0
 28 29  1  0  0  0  0
 28 30  1  6  0  0  0
 30 31  1  0  0  0  0
 32 27  1  6  0  0  0
 32 33  1  0  0  0  0
 32 40  1  0  0  0  0
 33 34  1  1  0  0  0
 33 35  1  0  0  0  0
 35 36  1  6  0  0  0
 35 37  1  0  0  0  0
 37 38  1  6  0  0  0
 37 39  1  0  0  0  0
 39 40  1  0  0  0  0
 39 41  1  1  0  0  0
 41 42  1  0  0  0  0
M  CHG  5   4   1  14   1  17   1  34   1  42   1
M  END
>  <CHROM.1>
174.43528337,53.98073729,-77.69444790,-62.31581746,-156.64529467,-179.16868523
65.04294643,63.00221214,64.21341045,-141.46095868,163.75793025,76.67522361
77.85151059,118.54256289,-112.46299398,-179.30514172,84.54835054,-42.47454931
-55.31723622,-96.04495226,-172.10960243,-167.49172445,29.30904042,6.91851854
55.50604392,-0.87634591,-0.33922758,2.06277786

>  <Name>
1j7t

>  <RI>
0

>  <Rbt.Current_Directory>
/home/itssahil/PROJECTS/Mol_Feturizer/New_Systems/rnas/1j7t

>  <Rbt.Executable>
rbdock ($Id: //depot/dev/client3/rdock/2013.1/src/exe/rbdock.cxx#4 $)

>  <Rbt.Library>
libRbt.so (2013.1, Build901 2013/11/27)

>  <Rbt.Parameter_File>
/export/apps/rDock/src/rDock_2013.1_src/data/scripts/dock_solv.prm

>  <Rbt.Receptor>
prm/pocket_docking_3.prm

>  <SCORE>
-42.2173

>  <SCORE.INTER>
-35.6052

>  <SCORE.INTER.CONST>
1

>  <SCORE.INTER.POLAR>
-6.35551

>  <SCORE.INTER.ROT>
9

>  <SCORE.INTER.SOLV>
21.7351

>  <SCORE.INTER.VDW>
-19.3968

>  <SCORE.INTER.norm>
-0.847743

>  <SCORE.INTRA>
-6.62898

>  <SCORE.INTRA.DIHEDRAL>
-10.5671

>  <SCORE.INTRA.DIHEDRAL.0>
46.2143

>  <SCORE.INTRA.POLAR>
-0.487826

>  <SCORE.INTRA.POLAR.0>
-1.76436

>  <SCORE.INTRA.REPUL>
0.00943116

>  <SCORE.INTRA.REPUL.0>
0

>  <SCORE.INTRA.SOLV>
-1.95128

>  <SCORE.INTRA.SOLV.lig_0>
-148.643

>  <SCORE.INTRA.VDW>
1.24167

>  <SCORE.INTRA.VDW.0>
-4.83512

>  <SCORE.INTRA.norm>
-0.157833

>  <SCORE.RESTR>
0.0169152

>  <SCORE.RESTR.CAVITY>
0.0169152

>  <SCORE.RESTR.norm>
0.000402743

>  <SCORE.SYSTEM>
0

>  <SCORE.SYSTEM.CONST>
0

>  <SCORE.SYSTEM.DIHEDRAL>
0

>  <SCORE.SYSTEM.SOLV>
0

>  <SCORE.SYSTEM.norm>
0

>  <SCORE.heavy>
42

>  <SCORE.norm>
-1.00517

>  <RMSD>
2.750

$$$$
1j7t
 OpenBabel11021811393D
libRbt.so/2013.1/901 2013/11/27
 42 45  0  0  0  0  0  0  0  0999 V2000
   30.7048    8.7298   52.1606 C   0  0  2  0  0  0  0  0  0  0  0  0
   31.6283    8.0064   51.3084 O   0  0  0  0  0  0  0  0  0  0  0  0
   29.2912    8.5731   51.5302 C   0  0  2  0  0  0  0  0  0  0  0  0
   28.8829    7.1627   51.2700 N   0  3  0  0  0  0  0  0  0  0  0  0
   29.2814    9.3278   50.1829 C   0  0  1  0  0  0  0  0  0  0  0  0
   28.0241    9.2348   49.5746 O   0  0  0  0  0  0  0  0  0  0  0  0
   29.6732   10.8084   50.4014 C   0  0  2  0  0  0  0  0  0  0  0  0
   29.6495   11.5234   49.1818 O   0  0  0  0  0  0  0  0  0  0  0  0
   31.0625   10.8898   50.9976 C   0  0  2  0  0  0  0  0  0  0  0  0
   31.1013   10.1366   52.2030 O   0  0  0  0  0  0  0  0  0  0  0  0
   31.4740   12.3015   51.3508 C   0  0  0  0  0  0  0  0  0  0  0  0
   31.6357   13.0560   50.1652 O   0  0  0  0  0  0  0  0  0  0  0  0
   33.3945    4.1708   51.4372 C   0  0  2  0  0  0  0  0  0  0  0  0
   34.1439    3.0050   51.9069 N   0  3  0  0  0  0  0  0  0  0  0  0
   34.3479    5.4058   51.3182 C   0  0  0  0  0  0  0  0  0  0  0  0
   33.5531    6.6475   50.8709 C   0  0  2  0  0  0  0  0  0  0  0  0
   34.4216    7.8276   50.8059 N   0  3  0  0  0  0  0  0  0  0  0  0
   32.3909    6.9198   51.8460 C   0  0  2  0  0  0  0  0  0  0  0  0
   31.4501    5.7093   52.0039 C   0  0  2  0  0  0  0  0  0  0  0  0
   30.5228    6.0593   53.0494 O   0  0  0  0  0  0  0  0  0  0  0  0
   32.2569    4.4489   52.4068 C   0  0  1  0  0  0  0  0  0  0  0  0
   31.3963    3.3439   52.4453 O   0  0  0  0  0  0  0  0  0  0  0  0
   30.7215    5.7258   54.4207 C   0  0  1  0  0  0  0  0  0  0  0  0
   31.8334    6.6666   55.0077 C   0  0  2  0  0  0  0  0  0  0  0  0
   33.1518    6.1744   54.8386 O   0  0  0  0  0  0  0  0  0  0  0  0
   31.3487    6.7074   56.4502 C   0  0  2  0  0  0  0  0  0  0  0  0
   31.5235    5.4129   57.1008 O   0  0  0  0  0  0  0  0  0  0  0  0
   29.8534    6.9458   56.2936 C   0  0  2  0  0  0  0  0  0  0  0  0
   29.5458    6.0493   55.2121 O   0  0  0  0  0  0  0  0  0  0  0  0
   29.4512    8.4251   55.9842 C   0  0  0  0  0  0  0  0  0  0  0  0
   28.1071    8.7051   56.3951 O   0  0  0  0  0  0  0  0  0  0  0  0
   31.1135    5.3901   58.4657 C   0  0  2  0  0  0  0  0  0  0  0  0
   31.1500    3.9748   59.1366 C   0  0  2  0  0  0  0  0  0  0  0  0
   30.3013    2.9723   58.4238 N   0  3  0  0  0  0  0  0  0  0  0  0
   30.6940    4.1603   60.6224 C   0  0  1  0  0  0  0  0  0  0  0  0
   31.6924    5.0307   61.2807 O   0  0  0  0  0  0  0  0  0  0  0  0
   29.2741    4.8395   60.7396 C   0  0  2  0  0  0  0  0  0  0  0  0
   28.2989    3.9645   60.1495 O   0  0  0  0  0  0  0  0  0  0  0  0
   29.3335    6.2387   59.9974 C   0  0  1  0  0  0  0  0  0  0  0  0
   29.7500    5.9880   58.6128 O   0  0  0  0  0  0  0  0  0  0  0  0
   28.0044    7.0276   60.0077 C   0  0  0  0  0  0  0  0  0  0  0  0
   28.1070    8.3682   59.3700 N   0  3  0  0  0  0  0  0  0  0  0  0
  1  2  1  6  0  0  0
  1  3  1  0  0  0  0
  1 10  1  0  0  0  0
  3  4  1  6  0  0  0
  3  5  1  0  0  0  0
  5  6  1  1  0  0  0
  5  7  1  0  0  0  0
  7  8  1  6  0  0  0
  7  9  1  0  0  0  0
  9 10  1  0  0  0  0
  9 11  1  1  0  0  0
 11 12  1  0  0  0  0
 13 14  1  1  0  0  0
 13 15  1  0  0  0  0
 13 21  1  0  0  0  0
 15 16  1  0  0  0  0
 16 17  1  1  0  0  0
 16 18  1  0  0  0  0
 18  2  1  6  0  0  0
 18 19  1  0  0  0  0
 19 20  1  1  0  0  0
 19 21  1  0  0  0  0
 21 22  1  6  0  0  0
 23 20  1  6  0  0  0
 23 24  1  0  0  0  0
 23 29  1  0  0  0  0
 24 25  1  1  0  0  0
 24 26  1  0  0  0  0
 26 27  1  6  0  0  0
 26 28  1  0  0  0  0
 28 29  1  0  0  0  0
 28 30  1  6  0  0  0
 30 31  1  0  0  0  0
 32 27  1  6  0  0  0
 32 33  1  0  0  0  0
 32 40  1  0  0  0  0
 33 34  1  6  0  0  0
 33 35  1  0  0  0  0
 35 36  1  1  0  0  0
 35 37  1  0  0  0  0
 37 38  1  6  0  0  0
 37 39  1  0  0  0  0
 39 40  1  0  0  0  0
 39 41  1  6  0  0  0
 41 42  1  0  0  0  0
M  CHG  5   4   1  14   1  17   1  34   1  42   1
M  END
>  <CHROM.1>
-120.00189060,-162.99146697,163.63950293,-61.51450117,74.18703475,-67.84946903
52.52917588,-56.04696053,54.08782508,-93.20368261,74.26406881,-171.24554435
72.75428646,178.78087270,173.79163482,-155.47822627,-177.43403701,-168.17124905
172.52959763,50.60298805,176.84720673,62.38729358,30.77442187,6.95997905
54.44054523,1.37439810,0.92661707,-0.97589109

>  <Name>
1j7t

>  <RI>
0

>  <Rbt.Current_Directory>
/home/itssahil/PROJECTS/Mol_Feturizer/New_Systems/rnas/1j7t

>  <Rbt.Executable>
rbdock ($Id: //depot/dev/client3/rdock/2013.1/src/exe/rbdock.cxx#4 $)

>  <Rbt.Library>
libRbt.so (2013.1, Build901 2013/11/27)

>  <Rbt.Parameter_File>
/export/apps/rDock/src/rDock_2013.1_src/data/scripts/dock_solv.prm

>  <Rbt.Receptor>
prm/pocket_docking_8.prm

>  <SCORE>
-51.6216

>  <SCORE.INTER>
-37.271

>  <SCORE.INTER.CONST>
1

>  <SCORE.INTER.POLAR>
-4.52688

>  <SCORE.INTER.ROT>
9

>  <SCORE.INTER.SOLV>
24.1074

>  <SCORE.INTER.VDW>
-27.3936

>  <SCORE.INTER.norm>
-0.887406

>  <SCORE.INTRA>
-14.3578

>  <SCORE.INTRA.DIHEDRAL>
-25.3524

>  <SCORE.INTRA.DIHEDRAL.0>
46.2143

>  <SCORE.INTRA.POLAR>
-1.05433

>  <SCORE.INTRA.POLAR.0>
-1.76436

>  <SCORE.INTRA.REPUL>
0

>  <SCORE.INTRA.REPUL.0>
0

>  <SCORE.INTRA.SOLV>
1.52583

>  <SCORE.INTRA.SOLV.lig_0>
-148.643

>  <SCORE.INTRA.VDW>
1.14024

>  <SCORE.INTRA.VDW.0>
-4.83512

>  <SCORE.INTRA.norm>
-0.341852

>  <SCORE.RESTR>
0.00722946

>  <SCORE.RESTR.CAVITY>
0.00722946

>  <SCORE.RESTR.norm>
0.00017213

>  <SCORE.SYSTEM>
0

>  <SCORE.SYSTEM.CONST>
0

>  <SCORE.SYSTEM.DIHEDRAL>
0

>  <SCORE.SYSTEM.SOLV>
0

>  <SCORE.SYSTEM.norm>
0

>  <SCORE.heavy>
42

>  <SCORE.norm>
-1.22909

>  <RMSD>
2.822

$$$$
1j7t
 OpenBabel11021811393D
libRbt.so/2013.1/901 2013/11/27
 42 45  0  0  0  0  0  0  0  0999 V2000
   30.8727    7.4110   51.1030 C   0  0  2  0  0  0  0  0  0  0  0  0
   31.2750    8.3078   52.1690 O   0  0  0  0  0  0  0  0  0  0  0  0
   29.6745    8.0845   50.3744 C   0  0  2  0  0  0  0  0  0  0  0  0
   29.9349    9.4788   49.9144 N   0  3  0  0  0  0  0  0  0  0  0  0
   28.4791    8.1210   51.3513 C   0  0  1  0  0  0  0  0  0  0  0  0
   27.3619    8.7044   50.7423 O   0  0  0  0  0  0  0  0  0  0  0  0
   28.1490    6.6905   51.8395 C   0  0  2  0  0  0  0  0  0  0  0  0
   27.0423    6.6988   52.7195 O   0  0  0  0  0  0  0  0  0  0  0  0
   29.3470    6.1021   52.5540 C   0  0  2  0  0  0  0  0  0  0  0  0
   30.4728    6.1310   51.6858 O   0  0  0  0  0  0  0  0  0  0  0  0
   29.1452    4.6594   52.9601 C   0  0  0  0  0  0  0  0  0  0  0  0
   30.0453    4.3324   54.0013 O   0  0  0  0  0  0  0  0  0  0  0  0
   33.8710    5.8281   54.3960 C   0  0  2  0  0  0  0  0  0  0  0  0
   34.9770    5.3896   55.2480 N   0  3  0  0  0  0  0  0  0  0  0  0
   34.4304    6.4738   53.0851 C   0  0  0  0  0  0  0  0  0  0  0  0
   33.2702    6.9809   52.2074 C   0  0  2  0  0  0  0  0  0  0  0  0
   33.7786    7.6377   50.9986 N   0  3  0  0  0  0  0  0  0  0  0  0
   32.3932    7.9714   52.9984 C   0  0  2  0  0  0  0  0  0  0  0  0
   31.8505    7.3704   54.3096 C   0  0  2  0  0  0  0  0  0  0  0  0
   31.1930    8.4501   55.0005 O   0  0  0  0  0  0  0  0  0  0  0  0
   33.0139    6.8166   55.1707 C   0  0  1  0  0  0  0  0  0  0  0  0
   32.4876    6.1875   56.3066 O   0  0  0  0  0  0  0  0  0  0  0  0
   30.4076    8.2689   56.1758 C   0  0  1  0  0  0  0  0  0  0  0  0
   29.7146    9.6331   56.5290 C   0  0  2  0  0  0  0  0  0  0  0  0
   30.4992   10.4816   57.3496 O   0  0  0  0  0  0  0  0  0  0  0  0
   28.4643    9.0787   57.1974 C   0  0  2  0  0  0  0  0  0  0  0  0
   28.7864    8.4424   58.4707 O   0  0  0  0  0  0  0  0  0  0  0  0
   28.0273    7.9846   56.2335 C   0  0  2  0  0  0  0  0  0  0  0  0
   29.2912    7.3723   55.9244 O   0  0  0  0  0  0  0  0  0  0  0  0
   27.2744    8.4912   54.9598 C   0  0  0  0  0  0  0  0  0  0  0  0
   26.2918    9.4824   55.2851 O   0  0  0  0  0  0  0  0  0  0  0  0
   27.6464    8.1267   59.2658 C   0  0  2  0  0  0  0  0  0  0  0  0
   27.9583    7.8470   60.7754 C   0  0  2  0  0  0  0  0  0  0  0  0
   28.9315    6.7297   60.9698 N   0  3  0  0  0  0  0  0  0  0  0  0
   26.5920    7.5470   61.4774 C   0  0  1  0  0  0  0  0  0  0  0  0
   25.7695    8.7721   61.3751 O   0  0  0  0  0  0  0  0  0  0  0  0
   25.8115    6.3547   60.7988 C   0  0  2  0  0  0  0  0  0  0  0  0
   26.5880    5.1552   60.9506 O   0  0  0  0  0  0  0  0  0  0  0  0
   25.5845    6.7185   59.2730 C   0  0  1  0  0  0  0  0  0  0  0  0
   26.9017    6.9703   58.6772 O   0  0  0  0  0  0  0  0  0  0  0  0
   24.8421    5.6348   58.4585 C   0  0  0  0  0  0  0  0  0  0  0  0
   24.6275    6.0084   57.0340 N   0  3  0  0  0  0  0  0  0  0  0  0
  1  2  1  1  0  0  0
  1  3  1  0  0  0  0
  1 10  1  0  0  0  0
  3  4  1  1  0  0  0
  3  5  1  0  0  0  0
  5  6  1  6  0  0  0
  5  7  1  0  0  0  0
  7  8  1  1  0  0  0
  7  9  1  0  0  0  0
  9 10  1  0  0  0  0
  9 11  1  6  0  0  0
 11 12  1  0  0  0  0
 13 14  1  1  0  0  0
 13 15  1  0  0  0  0
 13 21  1  0  0  0  0
 15 16  1  0  0  0  0
 16 17  1  6  0  0  0
 16 18  1  0  0  0  0
 18  2  1  6  0  0  0
 18 19  1  0  0  0  0
 19 20  1  1  0  0  0
 19 21  1  0  0  0  0
 21 22  1  1  0  0  0
 23 20  1  6  0  0  0
 23 24  1  0  0  0  0
 23 29  1  0  0  0  0
 24 25  1  1  0  0  0
 24 26  1  0  0  0  0
 26 27  1  1  0  0  0
 26 28  1  0  0  0  0
 28 29  1  0  0  0  0
 28 30  1  6  0  0  0
 30 31  1  0  0  0  0
 32 27  1  6  0  0  0
 32 33  1  0  0  0  0
 32 40  1  0  0  0  0
 33 34  1  6  0  0  0
 33 35  1  0  0  0  0
 35 36  1  6  0  0  0
 35 37  1  0  0  0  0
 37 38  1  6  0  0  0
 37 39  1  0  0  0  0
 39 40  1  0  0  0  0
 39 41  1  6  0  0  0
 41 42  1  0  0  0  0
M  CHG  5   4   1  14   1  17   1  34   1  42   1
M  END
>  <CHROM.1>
-178.15045592,22.55120513,83.12948672,69.57844573,80.30217416,-159.05951113
76.71892211,178.86603512,50.08255889,171.53612414,-172.99876108,-43.10144996
-48.53042328,168.80553314,-162.72004502,-44.66239754,172.79293993,-62.27140251
-174.54158479,78.76869147,179.29480650,-75.56776696,29.34160459,7.35050243
55.44223530,1.00396582,0.12119695,-1.49025439

>  <Name>
1j7t

>  <RI>
0

>  <Rbt.Current_Directory>
/home/itssahil/PROJECTS/Mol_Feturizer/New_Systems/rnas/1j7t

>  <Rbt.Executable>
rbdock ($Id: //depot/dev/client3/rdock/2013.1/src/exe/rbdock.cxx#4 $)

>  <Rbt.Library>
libRbt.so (2013.1, Build901 2013/11/27)

>  <Rbt.Parameter_File>
/export/apps/rDock/src/rDock_2013.1_src/data/scripts/dock_solv.prm

>  <Rbt.Receptor>
prm/pocket_docking_6.prm

>  <SCORE>
-60.9678

>  <SCORE.INTER>
-49.8971

>  <SCORE.INTER.CONST>
1

>  <SCORE.INTER.POLAR>
-9.01337

>  <SCORE.INTER.ROT>
9

>  <SCORE.INTER.SOLV>
25.1412

>  <SCORE.INTER.VDW>
-21.2006

>  <SCORE.INTER.norm>
-1.18803

>  <SCORE.INTRA>
-11.0707

>  <SCORE.INTRA.DIHEDRAL>
-26.2891

>  <SCORE.INTRA.DIHEDRAL.0>
46.2143

>  <SCORE.INTRA.POLAR>
1.11053

>  <SCORE.INTRA.POLAR.0>
-1.76436

>  <SCORE.INTRA.REPUL>
0

>  <SCORE.INTRA.REPUL.0>
0

>  <SCORE.INTRA.SOLV>
-3.20934

>  <SCORE.INTRA.SOLV.lig_0>
-148.643

>  <SCORE.INTRA.VDW>
-0.0972516

>  <SCORE.INTRA.VDW.0>
-4.83512

>  <SCORE.INTRA.norm>
-0.263587

>  <SCORE.RESTR>
0

>  <SCORE.RESTR.CAVITY>
0

>  <SCORE.RESTR.norm>
0

>  <SCORE.SYSTEM>
0

>  <SCORE.SYSTEM.CONST>
0

>  <SCORE.SYSTEM.DIHEDRAL>
0

>  <SCORE.SYSTEM.SOLV>
0

>  <SCORE.SYSTEM.norm>
0

>  <SCORE.heavy>
42

>  <SCORE.norm>
-1.45161

>  <RMSD>
2.831

$$$$
1j7t
 OpenBabel11021811393D
libRbt.so/2013.1/901 2013/11/27
 42 45  0  0  0  0  0  0  0  0999 V2000
   32.7409    7.7554   51.8036 C   0  0  2  0  0  0  0  0  0  0  0  0
   33.3913    7.8103   53.0983 O   0  0  0  0  0  0  0  0  0  0  0  0
   32.1202    9.1591   51.5501 C   0  0  2  0  0  0  0  0  0  0  0  0
   33.0783   10.2933   51.6887 N   0  3  0  0  0  0  0  0  0  0  0  0
   30.9813    9.3706   52.5714 C   0  0  1  0  0  0  0  0  0  0  0  0
   30.3721   10.6164   52.3801 O   0  0  0  0  0  0  0  0  0  0  0  0
   29.9418    8.2311   52.4505 C   0  0  2  0  0  0  0  0  0  0  0  0
   28.8782    8.4174   53.3633 O   0  0  0  0  0  0  0  0  0  0  0  0
   30.6054    6.8987   52.7266 C   0  0  2  0  0  0  0  0  0  0  0  0
   31.7021    6.7269   51.8380 O   0  0  0  0  0  0  0  0  0  0  0  0
   29.6812    5.7208   52.5131 C   0  0  0  0  0  0  0  0  0  0  0  0
   29.3182    5.6479   51.1478 O   0  0  0  0  0  0  0  0  0  0  0  0
   34.1367    3.6812   53.5913 C   0  0  2  0  0  0  0  0  0  0  0  0
   34.6938    2.4230   54.0892 N   0  3  0  0  0  0  0  0  0  0  0  0
   35.2706    4.5533   52.9571 C   0  0  0  0  0  0  0  0  0  0  0  0
   34.6968    5.8996   52.4756 C   0  0  2  0  0  0  0  0  0  0  0  0
   35.7565    6.7521   51.9266 N   0  3  0  0  0  0  0  0  0  0  0  0
   34.0010    6.6325   53.6393 C   0  0  2  0  0  0  0  0  0  0  0  0
   32.8968    5.7853   54.3013 C   0  0  2  0  0  0  0  0  0  0  0  0
   32.4574    6.5326   55.4520 O   0  0  0  0  0  0  0  0  0  0  0  0
   33.4630    4.4116   54.7421 C   0  0  1  0  0  0  0  0  0  0  0  0
   32.4202    3.6242   55.2476 O   0  0  0  0  0  0  0  0  0  0  0  0
   31.4287    6.0877   56.3324 C   0  0  1  0  0  0  0  0  0  0  0  0
   31.6759    6.7189   57.7489 C   0  0  2  0  0  0  0  0  0  0  0  0
   32.5301    5.9513   58.5797 O   0  0  0  0  0  0  0  0  0  0  0  0
   30.2284    6.7888   58.2148 C   0  0  2  0  0  0  0  0  0  0  0  0
   29.6866    5.4544   58.4510 O   0  0  0  0  0  0  0  0  0  0  0  0
   29.5144    7.3674   57.0013 C   0  0  2  0  0  0  0  0  0  0  0  0
   30.1365    6.6247   55.9387 O   0  0  0  0  0  0  0  0  0  0  0  0
   29.6641    8.9141   56.8247 C   0  0  0  0  0  0  0  0  0  0  0  0
   28.8903    9.3980   55.7197 O   0  0  0  0  0  0  0  0  0  0  0  0
   28.5821    5.4282   59.3514 C   0  0  2  0  0  0  0  0  0  0  0  0
   28.3202    4.0388   60.0260 C   0  0  2  0  0  0  0  0  0  0  0  0
   28.0821    2.9472   59.0335 N   0  3  0  0  0  0  0  0  0  0  0  0
   27.0971    4.2188   60.9859 C   0  0  1  0  0  0  0  0  0  0  0  0
   27.4972    5.1909   62.0263 O   0  0  0  0  0  0  0  0  0  0  0  0
   25.8194    4.7706   60.2415 C   0  0  2  0  0  0  0  0  0  0  0  0
   25.4003    3.7976   59.2707 O   0  0  0  0  0  0  0  0  0  0  0  0
   26.2014    6.1510   59.5627 C   0  0  1  0  0  0  0  0  0  0  0  0
   27.3390    5.9050   58.6690 O   0  0  0  0  0  0  0  0  0  0  0  0
   25.0521    6.8176   58.7730 C   0  0  0  0  0  0  0  0  0  0  0  0
   23.8829    7.1777   59.6203 N   0  3  0  0  0  0  0  0  0  0  0  0
  1  2  1  1  0  0  0
  1  3  1  0  0  0  0
  1 10  1  0  0  0  0
  3  4  1  1  0  0  0
  3  5  1  0  0  0  0
  5  6  1  6  0  0  0
  5  7  1  0  0  0  0
  7  8  1  1  0  0  0
  7  9  1  0  0  0  0
  9 10  1  0  0  0  0
  9 11  1  6  0  0  0
 11 12  1  0  0  0  0
 13 14  1  1  0  0  0
 13 15  1  0  0  0  0
 13 21  1  0  0  0  0
 15 16  1  0  0  0  0
 16 17  1  1  0  0  0
 16 18  1  0  0  0  0
 18  2  1  6  0  0  0
 18 19  1  0  0  0  0
 19 20  1  1  0  0  0
 19 21  1  0  0  0  0
 21 22  1  6  0  0  0
 23 20  1  6  0  0  0
 23 24  1  0  0  0  0
 23 29  1  0  0  0  0
 24 25  1  1  0  0  0
 24 26  1  0  0  0  0
 26 27  1  6  0  0  0
 26 28  1  0  0  0  0
 28 29  1  0  0  0  0
 28 30  1  6  0  0  0
 30 31  1  0  0  0  0
 32 27  1  6  0  0  0
 32 33  1  0  0  0  0
 32 40  1  0  0  0  0
 33 34  1  6  0  0  0
 33 35  1  0  0  0  0
 35 36  1  1  0  0  0
 35 37  1  0  0  0  0
 37 38  1  6  0  0  0
 37 39  1  0  0  0  0
 39 40  1  0  0  0  0
 39 41  1  6  0  0  0
 41 42  1  0  0  0  0
M  CHG  5   4   1  14   1  17   1  34   1  42   1
M  END
>  <CHROM.1>
176.83190351,39.64439578,29.13646442,59.88116957,-54.03349136,64.47855111
-174.91874555,60.65176080,-47.04345550,179.50981005,153.13861992,156.79700070
-60.58555449,156.72583473,-158.59285240,-175.88781785,178.92116636,158.27299309
-178.19332788,84.89084792,62.33585328,-155.77714841,30.43637972,6.35199513
55.66578737,0.71446346,0.53950285,-0.81846029

>  <Name>
1j7t

>  <RI>
0

>  <Rbt.Current_Directory>
/home/itssahil/PROJECTS/Mol_Feturizer/New_Systems/rnas/1j7t

>  <Rbt.Executable>
rbdock ($Id: //depot/dev/client3/rdock/2013.1/src/exe/rbdock.cxx#4 $)

>  <Rbt.Library>
libRbt.so (2013.1, Build901 2013/11/27)

>  <Rbt.Parameter_File>
/export/apps/rDock/src/rDock_2013.1_src/data/scripts/dock_solv.prm

>  <Rbt.Receptor>
prm/pocket_docking_5.prm

>  <SCORE>
-52.7559

>  <SCORE.INTER>
-38.1756

>  <SCORE.INTER.CONST>
1

>  <SCORE.INTER.POLAR>
-7.32283

>  <SCORE.INTER.ROT>
9

>  <SCORE.INTER.SOLV>
26.5227

>  <SCORE.INTER.VDW>
-19.4819

>  <SCORE.INTER.norm>
-0.908943

>  <SCORE.INTRA>
-14.5803

>  <SCORE.INTRA.DIHEDRAL>
-26.3952

>  <SCORE.INTRA.DIHEDRAL.0>
46.2143

>  <SCORE.INTRA.POLAR>
0.166719

>  <SCORE.INTRA.POLAR.0>
-1.76436

>  <SCORE.INTRA.REPUL>
0.0237108

>  <SCORE.INTRA.REPUL.0>
0

>  <SCORE.INTRA.SOLV>
-3.62106

>  <SCORE.INTRA.SOLV.lig_0>
-148.643

>  <SCORE.INTRA.VDW>
-0.257508

>  <SCORE.INTRA.VDW.0>
-4.83512

>  <SCORE.INTRA.norm>
-0.347149

>  <SCORE.RESTR>
0

>  <SCORE.RESTR.CAVITY>
0

>  <SCORE.RESTR.norm>
0

>  <SCORE.SYSTEM>
0

>  <SCORE.SYSTEM.CONST>
0

>  <SCORE.SYSTEM.DIHEDRAL>
0

>  <SCORE.SYSTEM.SOLV>
0

>  <SCORE.SYSTEM.norm>
0

>  <SCORE.heavy>
42

>  <SCORE.norm>
-1.25609

>  <RMSD>
2.842

$$$$
1j7t
 OpenBabel11021811393D
libRbt.so/2013.1/901 2013/11/27
 42 45  0  0  0  0  0  0  0  0999 V2000
   32.3955    7.9738   51.7762 C   0  0  2  0  0  0  0  0  0  0  0  0
   32.5276    8.3297   53.1756 O   0  0  0  0  0  0  0  0  0  0  0  0
   32.1154    9.2922   50.9994 C   0  0  2  0  0  0  0  0  0  0  0  0
   33.1061   10.3787   51.2476 N   0  3  0  0  0  0  0  0  0  0  0  0
   30.7238    9.8110   51.4227 C   0  0  1  0  0  0  0  0  0  0  0  0
   30.4094   10.9924   50.7407 O   0  0  0  0  0  0  0  0  0  0  0  0
   29.6511    8.7276   51.1597 C   0  0  2  0  0  0  0  0  0  0  0  0
   28.3650    9.1908   51.5209 O   0  0  0  0  0  0  0  0  0  0  0  0
   29.9724    7.4819   51.9579 C   0  0  2  0  0  0  0  0  0  0  0  0
   31.2822    7.0374   51.6281 O   0  0  0  0  0  0  0  0  0  0  0  0
   29.0342    6.3324   51.6655 C   0  0  0  0  0  0  0  0  0  0  0  0
   29.2468    5.2991   52.6080 O   0  0  0  0  0  0  0  0  0  0  0  0
   32.7311    4.4040   54.7234 C   0  0  2  0  0  0  0  0  0  0  0  0
   32.9004    3.2885   55.6553 N   0  3  0  0  0  0  0  0  0  0  0  0
   34.0681    5.2082   54.6048 C   0  0  0  0  0  0  0  0  0  0  0  0
   33.8803    6.4123   53.6623 C   0  0  2  0  0  0  0  0  0  0  0  0
   35.1093    7.2086   53.5815 N   0  3  0  0  0  0  0  0  0  0  0  0
   32.7238    7.3037   54.1556 C   0  0  2  0  0  0  0  0  0  0  0  0
   31.3993    6.5306   54.3082 C   0  0  2  0  0  0  0  0  0  0  0  0
   30.4707    7.4478   54.9180 O   0  0  0  0  0  0  0  0  0  0  0  0
   31.6001    5.2919   55.2176 C   0  0  1  0  0  0  0  0  0  0  0  0
   30.4107    4.5526   55.2585 O   0  0  0  0  0  0  0  0  0  0  0  0
   29.6886    7.1278   56.0656 C   0  0  1  0  0  0  0  0  0  0  0  0
   30.4137    7.6942   57.3382 C   0  0  2  0  0  0  0  0  0  0  0  0
   31.3606    6.8046   57.9047 O   0  0  0  0  0  0  0  0  0  0  0  0
   29.1836    7.9477   58.1984 C   0  0  2  0  0  0  0  0  0  0  0  0
   28.5601    6.6933   58.6077 O   0  0  0  0  0  0  0  0  0  0  0  0
   28.2346    8.6386   57.2290 C   0  0  2  0  0  0  0  0  0  0  0  0
   28.4210    7.8393   56.0483 O   0  0  0  0  0  0  0  0  0  0  0  0
   28.5314   10.1545   56.9848 C   0  0  0  0  0  0  0  0  0  0  0  0
   29.9271   10.3913   56.7617 O   0  0  0  0  0  0  0  0  0  0  0  0
   27.5154    6.8503   59.5645 C   0  0  2  0  0  0  0  0  0  0  0  0
   27.8236    7.8758   60.7080 C   0  0  2  0  0  0  0  0  0  0  0  0
   29.0556    7.5310   61.4806 N   0  3  0  0  0  0  0  0  0  0  0  0
   26.5613    7.9245   61.6321 C   0  0  1  0  0  0  0  0  0  0  0  0
   25.4406    8.4379   60.8148 O   0  0  0  0  0  0  0  0  0  0  0  0
   26.1681    6.5034   62.1953 C   0  0  2  0  0  0  0  0  0  0  0  0
   27.2354    6.0333   63.0348 O   0  0  0  0  0  0  0  0  0  0  0  0
   25.9192    5.5364   60.9645 C   0  0  1  0  0  0  0  0  0  0  0  0
   27.1427    5.5269   60.1544 O   0  0  0  0  0  0  0  0  0  0  0  0
   25.5389    4.0893   61.3521 C   0  0  0  0  0  0  0  0  0  0  0  0
   26.3323    3.5539   62.4916 N   0  3  0  0  0  0  0  0  0  0  0  0
  1  2  1  1  0  0  0
  1  3  1  0  0  0  0
  1 10  1  0  0  0  0
  3  4  1  1  0  0  0
  3  5  1  0  0  0  0
  5  6  1  6  0  0  0
  5  7  1  0  0  0  0
  7  8  1  1  0  0  0
  7  9  1  0  0  0  0
  9 10  1  0  0  0  0
  9 11  1  6  0  0  0
 11 12  1  0  0  0  0
 13 14  1  1  0  0  0
 13 15  1  0  0  0  0
 13 21  1  0  0  0  0
 15 16  1  0  0  0  0
 16 17  1  1  0  0  0
 16 18  1  0  0  0  0
 18  2  1  6  0  0  0
 18 19  1  0  0  0  0
 19 20  1  1  0  0  0
 19 21  1  0  0  0  0
 21 22  1  6  0  0  0
 23 20  1  6  0  0  0
 23 24  1  0  0  0  0
 23 29  1  0  0  0  0
 24 25  1  1  0  0  0
 24 26  1  0  0  0  0
 26 27  1  6  0  0  0
 26 28  1  0  0  0  0
 28 29  1  0  0  0  0
 28 30  1  6  0  0  0
 30 31  1  0  0  0  0
 32 27  1  6  0  0  0
 32 33  1  0  0  0  0
 32 40  1  0  0  0  0
 33 34  1  1  0  0  0
 33 35  1  0  0  0  0
 35 36  1  6  0  0  0
 35 37  1  0  0  0  0
 37 38  1  1  0  0  0
 37 39  1  0  0  0  0
 39 40  1  0  0  0  0
 39 41  1  1  0  0  0
 41 42  1  0  0  0  0
M  CHG  5   4   1  14   1  17   1  34   1  42   1
M  END
>  <CHROM.1>
176.81634439,50.15809368,-78.53388618,176.76032584,176.10264974,-169.73920360
-60.99775726,-51.82816461,66.80316944,-129.64467118,97.22998113,147.80469970
71.12044374,171.76097371,-42.50307708,45.72117160,58.93247868,95.28312727
-170.84341135,-73.09516873,-41.62397610,101.16807249,29.84254253,7.17611753
56.10294164,-0.89736419,-0.72677346,2.24707346

>  <Name>
1j7t

>  <RI>
0

>  <Rbt.Current_Directory>
/home/itssahil/PROJECTS/Mol_Feturizer/New_Systems/rnas/1j7t

>  <Rbt.Executable>
rbdock ($Id: //depot/dev/client3/rdock/2013.1/src/exe/rbdock.cxx#4 $)

>  <Rbt.Library>
libRbt.so (2013.1, Build901 2013/11/27)

>  <Rbt.Parameter_File>
/export/apps/rDock/src/rDock_2013.1_src/data/scripts/dock_solv.prm

>  <Rbt.Receptor>
prm/pocket_docking_3.prm

>  <SCORE>
-33.2378

>  <SCORE.INTER>
-36.383

>  <SCORE.INTER.CONST>
1

>  <SCORE.INTER.POLAR>
-6.42498

>  <SCORE.INTER.ROT>
9

>  <SCORE.INTER.SOLV>
26.3308

>  <SCORE.INTER.VDW>
-21.2157

>  <SCORE.INTER.norm>
-0.866262

>  <SCORE.INTRA>
2.11912

>  <SCORE.INTRA.DIHEDRAL>
-17.4919

>  <SCORE.INTRA.DIHEDRAL.0>
46.2143

>  <SCORE.INTRA.POLAR>
1.67966

>  <SCORE.INTRA.POLAR.0>
-1.76436

>  <SCORE.INTRA.REPUL>
0

>  <SCORE.INTRA.REPUL.0>
0

>  <SCORE.INTRA.SOLV>
0.93927

>  <SCORE.INTRA.SOLV.lig_0>
-148.643

>  <SCORE.INTRA.VDW>
4.6846

>  <SCORE.INTRA.VDW.0>
-4.83512

>  <SCORE.INTRA.norm>
0.0504552

>  <SCORE.RESTR>
1.0261

>  <SCORE.RESTR.CAVITY>
1.0261

>  <SCORE.RESTR.norm>
0.0244309

>  <SCORE.SYSTEM>
0

>  <SCORE.SYSTEM.CONST>
0

>  <SCORE.SYSTEM.DIHEDRAL>
0

>  <SCORE.SYSTEM.SOLV>
0

>  <SCORE.SYSTEM.norm>
0

>  <SCORE.heavy>
42

>  <SCORE.norm>
-0.791376

>  <RMSD>
3.045

$$$$
1j7t
 OpenBabel11021811393D
libRbt.so/2013.1/901 2013/11/27
 42 45  0  0  0  0  0  0  0  0999 V2000
   30.8242    6.6844   51.6375 C   0  0  2  0  0  0  0  0  0  0  0  0
   31.4909    7.7331   52.3847 O   0  0  0  0  0  0  0  0  0  0  0  0
   29.4854    7.2819   51.1172 C   0  0  2  0  0  0  0  0  0  0  0  0
   29.6310    8.5561   50.3564 N   0  3  0  0  0  0  0  0  0  0  0  0
   28.5777    7.5564   52.3361 C   0  0  1  0  0  0  0  0  0  0  0  0
   27.3469    8.0823   51.9261 O   0  0  0  0  0  0  0  0  0  0  0  0
   28.3715    6.2554   53.1477 C   0  0  2  0  0  0  0  0  0  0  0  0
   27.5249    6.4802   54.2575 O   0  0  0  0  0  0  0  0  0  0  0  0
   29.7073    5.7390   53.6388 C   0  0  2  0  0  0  0  0  0  0  0  0
   30.5757    5.5519   52.5285 O   0  0  0  0  0  0  0  0  0  0  0  0
   29.6042    4.4045   54.3427 C   0  0  0  0  0  0  0  0  0  0  0  0
   29.4145    3.3801   53.3857 O   0  0  0  0  0  0  0  0  0  0  0  0
   34.6530    5.4065   53.9456 C   0  0  2  0  0  0  0  0  0  0  0  0
   35.9106    5.0342   54.5945 N   0  3  0  0  0  0  0  0  0  0  0  0
   34.9440    6.2653   52.6704 C   0  0  0  0  0  0  0  0  0  0  0  0
   33.6211    6.7005   52.0115 C   0  0  2  0  0  0  0  0  0  0  0  0
   33.8746    7.5518   50.8444 N   0  3  0  0  0  0  0  0  0  0  0  0
   32.7449    7.4653   53.0229 C   0  0  2  0  0  0  0  0  0  0  0  0
   32.4648    6.6528   54.3022 C   0  0  2  0  0  0  0  0  0  0  0  0
   31.7796    7.5471   55.2000 O   0  0  0  0  0  0  0  0  0  0  0  0
   33.7944    6.1739   54.9383 C   0  0  1  0  0  0  0  0  0  0  0  0
   33.5099    5.3555   56.0393 O   0  0  0  0  0  0  0  0  0  0  0  0
   30.6516    7.1640   55.9824 C   0  0  1  0  0  0  0  0  0  0  0  0
   31.0899    7.0904   57.4885 C   0  0  2  0  0  0  0  0  0  0  0  0
   31.6132    5.8310   57.8746 O   0  0  0  0  0  0  0  0  0  0  0  0
   29.7538    7.4473   58.1247 C   0  0  2  0  0  0  0  0  0  0  0  0
   28.7770    6.3804   57.9308 O   0  0  0  0  0  0  0  0  0  0  0  0
   29.2995    8.6430   57.2993 C   0  0  2  0  0  0  0  0  0  0  0  0
   29.6329    8.2011   55.9722 O   0  0  0  0  0  0  0  0  0  0  0  0
   29.9826    9.9991   57.6734 C   0  0  0  0  0  0  0  0  0  0  0  0
   29.8011   10.3188   59.0586 O   0  0  0  0  0  0  0  0  0  0  0  0
   27.5841    6.5409   58.6941 C   0  0  2  0  0  0  0  0  0  0  0  0
   27.7926    6.5202   60.2467 C   0  0  2  0  0  0  0  0  0  0  0  0
   28.4367    5.2610   60.7292 N   0  3  0  0  0  0  0  0  0  0  0  0
   26.3865    6.7329   60.9005 C   0  0  1  0  0  0  0  0  0  0  0  0
   25.9149    8.0752   60.4963 O   0  0  0  0  0  0  0  0  0  0  0  0
   25.3298    5.6606   60.4263 C   0  0  2  0  0  0  0  0  0  0  0  0
   25.7631    4.3646   60.8706 O   0  0  0  0  0  0  0  0  0  0  0  0
   25.2255    5.7357   58.8466 C   0  0  1  0  0  0  0  0  0  0  0  0
   26.5701    5.5126   58.3030 O   0  0  0  0  0  0  0  0  0  0  0  0
   24.2356    4.7273   58.2202 C   0  0  0  0  0  0  0  0  0  0  0  0
   23.7494    5.1340   56.8738 N   0  3  0  0  0  0  0  0  0  0  0  0
  1  2  1  1  0  0  0
  1  3  1  0  0  0  0
  1 10  1  0  0  0  0
  3  4  1  1  0  0  0
  3  5  1  0  0  0  0
  5  6  1  6  0  0  0
  5  7  1  0  0  0  0
  7  8  1  1  0  0  0
  7  9  1  0  0  0  0
  9 10  1  0  0  0  0
  9 11  1  6  0  0  0
 11 12  1  0  0  0  0
 13 14  1  1  0  0  0
 13 15  1  0  0  0  0
 13 21  1  0  0  0  0
 15 16  1  0  0  0  0
 16 17  1  6  0  0  0
 16 18  1  0  0  0  0
 18  2  1  6  0  0  0
 18 19  1  0  0  0  0
 19 20  1  1  0  0  0
 19 21  1  0  0  0  0
 21 22  1  1  0  0  0
 23 20  1  6  0  0  0
 23 24  1  0  0  0  0
 23 29  1  0  0  0  0
 24 25  1  1  0  0  0
 24 26  1  0  0  0  0
 26 27  1  6  0  0  0
 26 28  1  0  0  0  0
 28 29  1  0  0  0  0
 28 30  1  1  0  0  0
 30 31  1  0  0  0  0
 32 27  1  6  0  0  0
 32 33  1  0  0  0  0
 32 40  1  0  0  0  0
 33 34  1  1  0  0  0
 33 35  1  0  0  0  0
 35 36  1  6  0  0  0
 35 37  1  0  0  0  0
 37 38  1  6  0  0  0
 37 39  1  0  0  0  0
 39 40  1  0  0  0  0
 39 41  1  6  0  0  0
 41 42  1  0  0  0  0
M  CHG  5   4   1  14   1  17   1  34   1  42   1
M  END
>  <CHROM.1>
178.26379289,45.19472957,-58.41869629,-159.23503936,65.33783807,75.21927692
57.09550089,-46.41220412,170.14628637,137.26035040,109.22707850,-52.56846289
61.78319774,169.62772182,-62.67045182,-56.39274357,-179.19860695,-68.99653230
-60.76577294,69.67389526,157.48995693,-59.56910768,29.68419459,6.59238559
55.73592779,0.83642676,-0.03880951,-1.53661283

>  <Name>
1j7t

>  <RI>
0

>  <Rbt.Current_Directory>
/home/itssahil/PROJECTS/Mol_Feturizer/New_Systems/rnas/1j7t

>  <Rbt.Executable>
rbdock ($Id: //depot/dev/client3/rdock/2013.1/src/exe/rbdock.cxx#4 $)

>  <Rbt.Library>
libRbt.so (2013.1, Build901 2013/11/27)

>  <Rbt.Parameter_File>
/export/apps/rDock/src/rDock_2013.1_src/data/scripts/dock_solv.prm

>  <Rbt.Receptor>
prm/pocket_docking_4.prm

>  <SCORE>
-44.795

>  <SCORE.INTER>
-29.0286

>  <SCORE.INTER.CONST>
1

>  <SCORE.INTER.POLAR>
-5.79987

>  <SCORE.INTER.ROT>
9

>  <SCORE.INTER.SOLV>
20.8197

>  <SCORE.INTER.VDW>
-16.5593

>  <SCORE.INTER.norm>
-0.691156

>  <SCORE.INTRA>
-15.8031

>  <SCORE.INTRA.DIHEDRAL>
-25.4825

>  <SCORE.INTRA.DIHEDRAL.0>
46.2143

>  <SCORE.INTRA.POLAR>
0.17394

>  <SCORE.INTRA.POLAR.0>
-1.76436

>  <SCORE.INTRA.REPUL>
0.0235977

>  <SCORE.INTRA.REPUL.0>
0

>  <SCORE.INTRA.SOLV>
-4.13898

>  <SCORE.INTRA.SOLV.lig_0>
-148.643

>  <SCORE.INTRA.VDW>
-1.70177

>  <SCORE.INTRA.VDW.0>
-4.83512

>  <SCORE.INTRA.norm>
-0.376265

>  <SCORE.RESTR>
0.0366628

>  <SCORE.RESTR.CAVITY>
0.0366628

>  <SCORE.RESTR.norm>
0.000872923

>  <SCORE.SYSTEM>
0

>  <SCORE.SYSTEM.CONST>
0

>  <SCORE.SYSTEM.DIHEDRAL>
0

>  <SCORE.SYSTEM.SOLV>
0

>  <SCORE.SYSTEM.norm>
0

>  <SCORE.heavy>
42

>  <SCORE.norm>
-1.06655

>  <RMSD>
3.056

$$$$
1j7t
 OpenBabel11021811393D
libRbt.so/2013.1/901 2013/11/27
 42 45  0  0  0  0  0  0  0  0999 V2000
   30.7593    7.2989   51.1751 C   0  0  2  0  0  0  0  0  0  0  0  0
   31.2634    8.3041   52.0906 O   0  0  0  0  0  0  0  0  0  0  0  0
   29.5660    7.9415   50.4114 C   0  0  2  0  0  0  0  0  0  0  0  0
   29.8807    9.2426   49.7544 N   0  3  0  0  0  0  0  0  0  0  0  0
   28.4243    8.1829   51.4230 C   0  0  1  0  0  0  0  0  0  0  0  0
   27.3126    8.7475   50.7867 O   0  0  0  0  0  0  0  0  0  0  0  0
   28.0395    6.8542   52.1157 C   0  0  2  0  0  0  0  0  0  0  0  0
   26.9800    7.0492   53.0315 O   0  0  0  0  0  0  0  0  0  0  0  0
   29.2367    6.2938   52.8537 C   0  0  2  0  0  0  0  0  0  0  0  0
   30.3180    6.1360   51.9438 O   0  0  0  0  0  0  0  0  0  0  0  0
   28.9750    4.9340   53.4616 C   0  0  0  0  0  0  0  0  0  0  0  0
   30.0468    4.5858   54.3167 O   0  0  0  0  0  0  0  0  0  0  0  0
   33.8458    5.8828   54.3963 C   0  0  2  0  0  0  0  0  0  0  0  0
   34.9345    5.4693   55.2825 N   0  3  0  0  0  0  0  0  0  0  0  0
   34.4309    6.5437   53.1043 C   0  0  0  0  0  0  0  0  0  0  0  0
   33.2873    7.0247   52.1909 C   0  0  2  0  0  0  0  0  0  0  0  0
   33.8179    7.6953   50.9993 N   0  3  0  0  0  0  0  0  0  0  0  0
   32.3625    7.9928   52.9546 C   0  0  2  0  0  0  0  0  0  0  0  0
   31.7930    7.3770   54.2475 C   0  0  2  0  0  0  0  0  0  0  0  0
   31.0887    8.4397   54.9182 O   0  0  0  0  0  0  0  0  0  0  0  0
   32.9416    6.8495   55.1444 C   0  0  1  0  0  0  0  0  0  0  0  0
   32.3947    6.2062   56.2625 O   0  0  0  0  0  0  0  0  0  0  0  0
   30.3357    8.2520   56.1136 C   0  0  1  0  0  0  0  0  0  0  0  0
   29.8164    9.6513   56.6020 C   0  0  2  0  0  0  0  0  0  0  0  0
   30.7245   10.3399   57.4446 O   0  0  0  0  0  0  0  0  0  0  0  0
   28.5393    9.1857   57.2871 C   0  0  2  0  0  0  0  0  0  0  0  0
   28.8382    8.4177   58.4915 O   0  0  0  0  0  0  0  0  0  0  0  0
   27.9428    8.2271   56.2661 C   0  0  2  0  0  0  0  0  0  0  0  0
   29.1157    7.5066   55.8503 O   0  0  0  0  0  0  0  0  0  0  0  0
   27.2015    8.9139   55.0725 C   0  0  0  0  0  0  0  0  0  0  0  0
   26.0158    9.5923   55.5059 O   0  0  0  0  0  0  0  0  0  0  0  0
   27.7620    7.5965   58.9374 C   0  0  2  0  0  0  0  0  0  0  0  0
   26.8199    8.2683   59.9936 C   0  0  2  0  0  0  0  0  0  0  0  0
   27.5476    8.7139   61.2205 N   0  3  0  0  0  0  0  0  0  0  0  0
   25.7006    7.2291   60.3356 C   0  0  1  0  0  0  0  0  0  0  0  0
   24.9351    6.9863   59.0936 O   0  0  0  0  0  0  0  0  0  0  0  0
   26.2858    5.8552   60.8468 C   0  0  2  0  0  0  0  0  0  0  0  0
   26.9803    6.0861   62.0833 O   0  0  0  0  0  0  0  0  0  0  0  0
   27.2521    5.2836   59.7280 C   0  0  1  0  0  0  0  0  0  0  0  0
   28.2804    6.2983   59.4706 O   0  0  0  0  0  0  0  0  0  0  0  0
   27.9243    3.9388   60.0866 C   0  0  0  0  0  0  0  0  0  0  0  0
   28.7750    3.3927   58.9945 N   0  3  0  0  0  0  0  0  0  0  0  0
  1  2  1  1  0  0  0
  1  3  1  0  0  0  0
  1 10  1  0  0  0  0
  3  4  1  1  0  0  0
  3  5  1  0  0  0  0
  5  6  1  6  0  0  0
  5  7  1  0  0  0  0
  7  8  1  1  0  0  0
  7  9  1  0  0  0  0
  9 10  1  0  0  0  0
  9 11  1  6  0  0  0
 11 12  1  0  0  0  0
 13 14  1  1  0  0  0
 13 15  1  0  0  0  0
 13 21  1  0  0  0  0
 15 16  1  0  0  0  0
 16 17  1  6  0  0  0
 16 18  1  0  0  0  0
 18  2  1  6  0  0  0
 18 19  1  0  0  0  0
 19 20  1  1  0  0  0
 19 21  1  0  0  0  0
 21 22  1  1  0  0  0
 23 20  1  6  0  0  0
 23 24  1  0  0  0  0
 23 29  1  0  0  0  0
 24 25  1  1  0  0  0
 24 26  1  0  0  0  0
 26 27  1  1  0  0  0
 26 28  1  0  0  0  0
 28 29  1  0  0  0  0
 28 30  1  6  0  0  0
 30 31  1  0  0  0  0
 32 27  1  1  0  0  0
 32 33  1  0  0  0  0
 32 40  1  0  0  0  0
 33 34  1  1  0  0  0
 33 35  1  0  0  0  0
 35 36  1  6  0  0  0
 35 37  1  0  0  0  0
 37 38  1  1  0  0  0
 37 39  1  0  0  0  0
 39 40  1  0  0  0  0
 39 41  1  1  0  0  0
 41 42  1  0  0  0  0
M  CHG  5   4   1  14   1  17   1  34   1  42   1
M  END
>  <CHROM.1>
179.01584069,33.86505538,-76.56137678,60.50640221,60.24756663,-170.03029135
178.19257577,173.94722721,167.68565759,175.40963387,175.45938336,-57.35119283
-69.33064424,-160.62845011,-92.59625151,-66.79110420,-52.47671257,-66.28404353
66.17236421,74.24331887,177.26652497,59.73809181,29.47932799,7.25112298,55.54621600
1.05168554,0.31174393,-1.32319707

>  <Name>
1j7t

>  <RI>
0

>  <Rbt.Current_Directory>
/home/itssahil/PROJECTS/Mol_Feturizer/New_Systems/rnas/1j7t

>  <Rbt.Executable>
rbdock ($Id: //depot/dev/client3/rdock/2013.1/src/exe/rbdock.cxx#4 $)

>  <Rbt.Library>
libRbt.so (2013.1, Build901 2013/11/27)

>  <Rbt.Parameter_File>
/export/apps/rDock/src/rDock_2013.1_src/data/scripts/dock_solv.prm

>  <Rbt.Receptor>
prm/pocket_docking_3.prm

>  <SCORE>
-48.087

>  <SCORE.INTER>
-34.5022

>  <SCORE.INTER.CONST>
1

>  <SCORE.INTER.POLAR>
-6.29832

>  <SCORE.INTER.ROT>
9

>  <SCORE.INTER.SOLV>
25.3394

>  <SCORE.INTER.VDW>
-20.0535

>  <SCORE.INTER.norm>
-0.821481

>  <SCORE.INTRA>
-14.6121

>  <SCORE.INTRA.DIHEDRAL>
-33.1543

>  <SCORE.INTRA.DIHEDRAL.0>
46.2143

>  <SCORE.INTRA.POLAR>
1.15293

>  <SCORE.INTRA.POLAR.0>
-1.76436

>  <SCORE.INTRA.REPUL>
0

>  <SCORE.INTRA.REPUL.0>
0

>  <SCORE.INTRA.SOLV>
-4.14102

>  <SCORE.INTRA.SOLV.lig_0>
-148.643

>  <SCORE.INTRA.VDW>
0.11564

>  <SCORE.INTRA.VDW.0>
-4.83512

>  <SCORE.INTRA.norm>
-0.347906

>  <SCORE.RESTR>
1.02728

>  <SCORE.RESTR.CAVITY>
1.02728

>  <SCORE.RESTR.norm>
0.0244591

>  <SCORE.SYSTEM>
0

>  <SCORE.SYSTEM.CONST>
0

>  <SCORE.SYSTEM.DIHEDRAL>
0

>  <SCORE.SYSTEM.SOLV>
0

>  <SCORE.SYSTEM.norm>
0

>  <SCORE.heavy>
42

>  <SCORE.norm>
-1.14493

>  <RMSD>
3.074

$$$$
1j7t
 OpenBabel11021811393D
libRbt.so/2013.1/901 2013/11/27
 42 45  0  0  0  0  0  0  0  0999 V2000
   30.6172    7.5523   51.0498 C   0  0  2  0  0  0  0  0  0  0  0  0
   30.9224    8.4746   52.1262 O   0  0  0  0  0  0  0  0  0  0  0  0
   29.3601    8.1084   50.3214 C   0  0  2  0  0  0  0  0  0  0  0  0
   29.4800    9.5264   49.8759 N   0  3  0  0  0  0  0  0  0  0  0  0
   28.1631    8.0142   51.2926 C   0  0  1  0  0  0  0  0  0  0  0  0
   26.9951    8.4878   50.6835 O   0  0  0  0  0  0  0  0  0  0  0  0
   27.9774    6.5529   51.7656 C   0  0  2  0  0  0  0  0  0  0  0  0
   26.8720    6.4407   52.6400 O   0  0  0  0  0  0  0  0  0  0  0  0
   29.2258    6.0816   52.4806 C   0  0  2  0  0  0  0  0  0  0  0  0
   30.3464    6.2327   51.6185 O   0  0  0  0  0  0  0  0  0  0  0  0
   29.1692    4.6219   52.8720 C   0  0  0  0  0  0  0  0  0  0  0  0
   30.4174    4.2294   53.4099 O   0  0  0  0  0  0  0  0  0  0  0  0
   33.5841    6.0951   54.3849 C   0  0  2  0  0  0  0  0  0  0  0  0
   34.6565    5.7021   55.2997 N   0  3  0  0  0  0  0  0  0  0  0  0
   34.1759    6.9098   53.1871 C   0  0  0  0  0  0  0  0  0  0  0  0
   33.0443    7.3674   52.2471 C   0  0  2  0  0  0  0  0  0  0  0  0
   33.5757    8.1785   51.1468 N   0  3  0  0  0  0  0  0  0  0  0  0
   31.9973    8.1859   53.0277 C   0  0  2  0  0  0  0  0  0  0  0  0
   31.4169    7.4173   54.2309 C   0  0  2  0  0  0  0  0  0  0  0  0
   30.5855    8.3563   54.9399 O   0  0  0  0  0  0  0  0  0  0  0  0
   32.5584    6.9153   55.1511 C   0  0  1  0  0  0  0  0  0  0  0  0
   32.0123    6.1361   56.1795 O   0  0  0  0  0  0  0  0  0  0  0  0
   29.6498    7.9751   55.9451 C   0  0  1  0  0  0  0  0  0  0  0  0
   30.1669    8.4973   57.3329 C   0  0  2  0  0  0  0  0  0  0  0  0
   31.0389    7.5988   57.9971 O   0  0  0  0  0  0  0  0  0  0  0  0
   28.8182    8.6945   58.0107 C   0  0  2  0  0  0  0  0  0  0  0  0
   28.1685    7.4142   58.2722 O   0  0  0  0  0  0  0  0  0  0  0  0
   28.0079    9.4118   56.9400 C   0  0  2  0  0  0  0  0  0  0  0  0
   28.3835    8.6671   55.7687 O   0  0  0  0  0  0  0  0  0  0  0  0
   28.3046   10.9412   56.8038 C   0  0  0  0  0  0  0  0  0  0  0  0
   29.7099   11.2154   56.8668 O   0  0  0  0  0  0  0  0  0  0  0  0
   26.7977    7.5255   58.6465 C   0  0  2  0  0  0  0  0  0  0  0  0
   26.5322    8.4296   59.8980 C   0  0  2  0  0  0  0  0  0  0  0  0
   27.2661    7.9668   61.1148 N   0  3  0  0  0  0  0  0  0  0  0  0
   24.9847    8.4448   60.1321 C   0  0  1  0  0  0  0  0  0  0  0  0
   24.3690    9.0750   58.9441 O   0  0  0  0  0  0  0  0  0  0  0  0
   24.3843    6.9954   60.3052 C   0  0  2  0  0  0  0  0  0  0  0  0
   24.9421    6.4084   61.4922 O   0  0  0  0  0  0  0  0  0  0  0  0
   24.7425    6.1550   59.0100 C   0  0  1  0  0  0  0  0  0  0  0  0
   26.2023    6.1700   58.8623 O   0  0  0  0  0  0  0  0  0  0  0  0
   24.2353    4.6951   59.0317 C   0  0  0  0  0  0  0  0  0  0  0  0
   22.9659    4.4984   58.2803 N   0  3  0  0  0  0  0  0  0  0  0  0
  1  2  1  1  0  0  0
  1  3  1  0  0  0  0
  1 10  1  0  0  0  0
  3  4  1  1  0  0  0
  3  5  1  0  0  0  0
  5  6  1  6  0  0  0
  5  7  1  0  0  0  0
  7  8  1  1  0  0  0
  7  9  1  0  0  0  0
  9 10  1  0  0  0  0
  9 11  1  6  0  0  0
 11 12  1  0  0  0  0
 13 14  1  1  0  0  0
 13 15  1  0  0  0  0
 13 21  1  0  0  0  0
 15 16  1  0  0  0  0
 16 17  1  6  0  0  0
 16 18  1  0  0  0  0
 18  2  1  6  0  0  0
 18 19  1  0  0  0  0
 19 20  1  1  0  0  0
 19 21  1  0  0  0  0
 21 22  1  1  0  0  0
 23 20  1  6  0  0  0
 23 24  1  0  0  0  0
 23 29  1  0  0  0  0
 24 25  1  1  0  0  0
 24 26  1  0  0  0  0
 26 27  1  6  0  0  0
 26 28  1  0  0  0  0
 28 29  1  0  0  0  0
 28 30  1  6  0  0  0
 30 31  1  0  0  0  0
 32 27  1  1  0  0  0
 32 33  1  0  0  0  0
 32 40  1  0  0  0  0
 33 34  1  1  0  0  0
 33 35  1  0  0  0  0
 35 36  1  6  0  0  0
 35 37  1  0  0  0  0
 37 38  1  1  0  0  0
 37 39  1  0  0  0  0
 39 40  1  0  0  0  0
 39 41  1  1  0  0  0
 41 42  1  0  0  0  0
M  CHG  5   4   1  14   1  17   1  34   1  42   1
M  END
>  <CHROM.1>
176.59402427,29.78044466,-53.95430451,65.33475367,177.46862191,174.16495310
-50.36984373,38.11314306,-173.25812180,166.28671877,111.21250411,-61.97501056
-59.85974184,-167.67830527,-56.53900207,42.82282188,-62.20092217,160.09853741
-62.27857525,-175.38228033,98.60165036,96.17402796,28.96180754,7.42446438
55.47796333,0.89014682,-0.07377147,-1.60906933

>  <Name>
1j7t

>  <RI>
224

>  <Rbt.Current_Directory>
/home/itssahil/PROJECTS/Mol_Feturizer/New_Systems/rnas/1j7t

>  <Rbt.Executable>
rbdock ($Id: //depot/dev/client3/rdock/2013.1/src/exe/rbdock.cxx#4 $)

>  <Rbt.Library>
libRbt.so (2013.1, Build901 2013/11/27)

>  <Rbt.Parameter_File>
/export/apps/rDock/src/rDock_2013.1_src/data/scripts/dock_solv.prm

>  <Rbt.Receptor>
prm/pocket_docking_7.prm

>  <SCORE>
-46.0994

>  <SCORE.INTER>
-37.2198

>  <SCORE.INTER.CONST>
1

>  <SCORE.INTER.POLAR>
-6.32533

>  <SCORE.INTER.ROT>
9

>  <SCORE.INTER.SOLV>
24.6637

>  <SCORE.INTER.VDW>
-21.55

>  <SCORE.INTER.norm>
-0.886186

>  <SCORE.INTRA>
-8.87956

>  <SCORE.INTRA.DIHEDRAL>
-23.3521

>  <SCORE.INTRA.DIHEDRAL.0>
46.2143

>  <SCORE.INTRA.POLAR>
0.774944

>  <SCORE.INTRA.POLAR.0>
-1.76436

>  <SCORE.INTRA.REPUL>
0

>  <SCORE.INTRA.REPUL.0>
0

>  <SCORE.INTRA.SOLV>
-4.01469

>  <SCORE.INTRA.SOLV.lig_0>
-148.643

>  <SCORE.INTRA.VDW>
2.169

>  <SCORE.INTRA.VDW.0>
-4.83512

>  <SCORE.INTRA.norm>
-0.211418

>  <SCORE.RESTR>
0

>  <SCORE.RESTR.CAVITY>
0

>  <SCORE.RESTR.norm>
0

>  <SCORE.SYSTEM>
0

>  <SCORE.SYSTEM.CONST>
0

>  <SCORE.SYSTEM.DIHEDRAL>
0

>  <SCORE.SYSTEM.SOLV>
0

>  <SCORE.SYSTEM.norm>
0

>  <SCORE.heavy>
42

>  <SCORE.norm>
-1.0976

>  <RMSD>
3.104

$$$$
1j7t
 OpenBabel11021811393D
libRbt.so/2013.1/901 2013/11/27
 42 45  0  0  0  0  0  0  0  0999 V2000
   30.8103    8.8547   53.1678 C   0  0  2  0  0  0  0  0  0  0  0  0
   31.6321    7.8229   52.5657 O   0  0  0  0  0  0  0  0  0  0  0  0
   29.3290    8.4801   52.8756 C   0  0  2  0  0  0  0  0  0  0  0  0
   28.9478    7.0984   53.2869 N   0  3  0  0  0  0  0  0  0  0  0  0
   29.0942    8.6058   51.3545 C   0  0  1  0  0  0  0  0  0  0  0  0
   27.7679    8.2950   51.0326 O   0  0  0  0  0  0  0  0  0  0  0  0
   29.4502   10.0344   50.8790 C   0  0  2  0  0  0  0  0  0  0  0  0
   29.2217   10.1774   49.4910 O   0  0  0  0  0  0  0  0  0  0  0  0
   30.9058   10.3268   51.1753 C   0  0  2  0  0  0  0  0  0  0  0  0
   31.1488   10.1428   52.5642 O   0  0  0  0  0  0  0  0  0  0  0  0
   31.3035   11.7484   50.8466 C   0  0  0  0  0  0  0  0  0  0  0  0
   32.7141   11.8553   50.8470 O   0  0  0  0  0  0  0  0  0  0  0  0
   34.9089    5.5221   53.9138 C   0  0  2  0  0  0  0  0  0  0  0  0
   36.2231    5.1607   54.4463 N   0  3  0  0  0  0  0  0  0  0  0  0
   35.0744    6.3030   52.5680 C   0  0  0  0  0  0  0  0  0  0  0  0
   33.6951    6.7280   52.0289 C   0  0  2  0  0  0  0  0  0  0  0  0
   33.8348    7.5081   50.7948 N   0  3  0  0  0  0  0  0  0  0  0  0
   32.9430    7.5653   53.0820 C   0  0  2  0  0  0  0  0  0  0  0  0
   32.7894    6.8306   54.4280 C   0  0  2  0  0  0  0  0  0  0  0  0
   32.2170    7.7871   55.3407 O   0  0  0  0  0  0  0  0  0  0  0  0
   34.1723    6.3607   54.9463 C   0  0  1  0  0  0  0  0  0  0  0  0
   33.9953    5.6104   56.1162 O   0  0  0  0  0  0  0  0  0  0  0  0
   31.0020    7.5655   56.0519 C   0  0  1  0  0  0  0  0  0  0  0  0
   30.8799    6.0319   56.3669 C   0  0  2  0  0  0  0  0  0  0  0  0
   30.2555    5.2813   55.3393 O   0  0  0  0  0  0  0  0  0  0  0  0
   30.0788    6.1348   57.6572 C   0  0  2  0  0  0  0  0  0  0  0  0
   28.7228    6.6080   57.3984 O   0  0  0  0  0  0  0  0  0  0  0  0
   30.8113    7.2307   58.4186 C   0  0  2  0  0  0  0  0  0  0  0  0
   31.0470    8.1830   57.3672 O   0  0  0  0  0  0  0  0  0  0  0  0
   32.1293    6.7735   59.1254 C   0  0  0  0  0  0  0  0  0  0  0  0
   31.8879    5.7166   60.0629 O   0  0  0  0  0  0  0  0  0  0  0  0
   27.9411    6.7992   58.5748 C   0  0  2  0  0  0  0  0  0  0  0  0
   26.3943    6.8508   58.3317 C   0  0  2  0  0  0  0  0  0  0  0  0
   25.9921    7.9284   57.3775 N   0  3  0  0  0  0  0  0  0  0  0  0
   25.7170    7.0400   59.7300 C   0  0  1  0  0  0  0  0  0  0  0  0
   26.0375    5.8425   60.5367 O   0  0  0  0  0  0  0  0  0  0  0  0
   26.2443    8.3189   60.4901 C   0  0  2  0  0  0  0  0  0  0  0  0
   25.8807    9.4837   59.7313 O   0  0  0  0  0  0  0  0  0  0  0  0
   27.8159    8.1867   60.6469 C   0  0  1  0  0  0  0  0  0  0  0  0
   28.3832    8.0292   59.3028 O   0  0  0  0  0  0  0  0  0  0  0  0
   28.4919    9.3785   61.3621 C   0  0  0  0  0  0  0  0  0  0  0  0
   29.9684    9.2364   61.4824 N   0  3  0  0  0  0  0  0  0  0  0  0
  1  2  1  6  0  0  0
  1  3  1  0  0  0  0
  1 10  1  0  0  0  0
  3  4  1  6  0  0  0
  3  5  1  0  0  0  0
  5  6  1  1  0  0  0
  5  7  1  0  0  0  0
  7  8  1  6  0  0  0
  7  9  1  0  0  0  0
  9 10  1  0  0  0  0
  9 11  1  1  0  0  0
 11 12  1  0  0  0  0
 13 14  1  1  0  0  0
 13 15  1  0  0  0  0
 13 21  1  0  0  0  0
 15 16  1  0  0  0  0
 16 17  1  6  0  0  0
 16 18  1  0  0  0  0
 18  2  1  6  0  0  0
 18 19  1  0  0  0  0
 19 20  1  1  0  0  0
 19 21  1  0  0  0  0
 21 22  1  1  0  0  0
 23 20  1  1  0  0  0
 23 24  1  0  0  0  0
 23 29  1  0  0  0  0
 24 25  1  6  0  0  0
 24 26  1  0  0  0  0
 26 27  1  6  0  0  0
 26 28  1  0  0  0  0
 28 29  1  0  0  0  0
 28 30  1  6  0  0  0
 30 31  1  0  0  0  0
 32 27  1  6  0  0  0
 32 33  1  0  0  0  0
 32 40  1  0  0  0  0
 33 34  1  6  0  0  0
 33 35  1  0  0  0  0
 35 36  1  1  0  0  0
 35 37  1  0  0  0  0
 37 38  1  6  0  0  0
 37 39  1  0  0  0  0
 39 40  1  0  0  0  0
 39 41  1  6  0  0  0
 41 42  1  0  0  0  0
M  CHG  5   4   1  14   1  17   1  34   1  42   1
M  END
>  <CHROM.1>
-154.84959053,-164.62963243,34.74979135,-61.38551730,57.30013063,-166.30636954
-67.15892012,91.92330756,-69.41340937,123.49836365,32.62968583,179.31976008
-148.42216898,-176.64731144,-161.19899318,-58.51513009,-62.21971011,-68.20658002
-175.64368592,83.24682522,-179.34424334,62.41086848,30.41489142,7.75230682
55.55372817,1.02525444,0.39491288,-1.23109050

>  <Name>
1j7t

>  <RI>
0

>  <Rbt.Current_Directory>
/home/itssahil/PROJECTS/Mol_Feturizer/New_Systems/rnas/1j7t

>  <Rbt.Executable>
rbdock ($Id: //depot/dev/client3/rdock/2013.1/src/exe/rbdock.cxx#4 $)

>  <Rbt.Library>
libRbt.so (2013.1, Build901 2013/11/27)

>  <Rbt.Parameter_File>
/export/apps/rDock/src/rDock_2013.1_src/data/scripts/dock_solv.prm

>  <Rbt.Receptor>
prm/pocket_docking_4.prm

>  <SCORE>
-59.7184

>  <SCORE.INTER>
-48.715

>  <SCORE.INTER.CONST>
1

>  <SCORE.INTER.POLAR>
-7.16248

>  <SCORE.INTER.ROT>
9

>  <SCORE.INTER.SOLV>
22.6725

>  <SCORE.INTER.VDW>
-25.7593

>  <SCORE.INTER.norm>
-1.15988

>  <SCORE.INTRA>
-11.0034

>  <SCORE.INTRA.DIHEDRAL>
-19.048

>  <SCORE.INTRA.DIHEDRAL.0>
46.2143

>  <SCORE.INTRA.POLAR>
-0.0417762

>  <SCORE.INTRA.POLAR.0>
-1.76436

>  <SCORE.INTRA.REPUL>
0

>  <SCORE.INTRA.REPUL.0>
0

>  <SCORE.INTRA.SOLV>
-0.786125

>  <SCORE.INTRA.SOLV.lig_0>
-148.643

>  <SCORE.INTRA.VDW>
-0.944314

>  <SCORE.INTRA.VDW.0>
-4.83512

>  <SCORE.INTRA.norm>
-0.261986

>  <SCORE.RESTR>
0

>  <SCORE.RESTR.CAVITY>
0

>  <SCORE.RESTR.norm>
0

>  <SCORE.SYSTEM>
0

>  <SCORE.SYSTEM.CONST>
0

>  <SCORE.SYSTEM.DIHEDRAL>
0

>  <SCORE.SYSTEM.SOLV>
0

>  <SCORE.SYSTEM.norm>
0

>  <SCORE.heavy>
42

>  <SCORE.norm>
-1.42187

>  <RMSD>
3.114

$$$$
1j7t
 OpenBabel11021811393D
libRbt.so/2013.1/901 2013/11/27
 42 45  0  0  0  0  0  0  0  0999 V2000
   31.9047    8.1947   51.6374 C   0  0  2  0  0  0  0  0  0  0  0  0
   31.7169    8.5296   53.0356 O   0  0  0  0  0  0  0  0  0  0  0  0
   32.0858    9.5369   50.8719 C   0  0  2  0  0  0  0  0  0  0  0  0
   33.1516   10.4234   51.4213 N   0  3  0  0  0  0  0  0  0  0  0  0
   30.7484   10.3067   50.9321 C   0  0  1  0  0  0  0  0  0  0  0  0
   30.8468   11.5212   50.2429 O   0  0  0  0  0  0  0  0  0  0  0  0
   29.6096    9.4384   50.3468 C   0  0  2  0  0  0  0  0  0  0  0  0
   28.3787   10.1336   50.3728 O   0  0  0  0  0  0  0  0  0  0  0  0
   29.4748    8.1602   51.1469 C   0  0  2  0  0  0  0  0  0  0  0  0
   30.7230    7.4791   51.1583 O   0  0  0  0  0  0  0  0  0  0  0  0
   28.4593    7.2018   50.5662 C   0  0  0  0  0  0  0  0  0  0  0  0
   27.1554    7.6989   50.7985 O   0  0  0  0  0  0  0  0  0  0  0  0
   31.3556    4.5836   54.5006 C   0  0  2  0  0  0  0  0  0  0  0  0
   31.2427    3.4517   55.4212 N   0  3  0  0  0  0  0  0  0  0  0  0
   32.7186    5.3190   54.7233 C   0  0  0  0  0  0  0  0  0  0  0  0
   32.8203    6.5405   53.7898 C   0  0  2  0  0  0  0  0  0  0  0  0
   34.0691    7.2732   54.0231 N   0  3  0  0  0  0  0  0  0  0  0  0
   31.6229    7.4853   54.0114 C   0  0  2  0  0  0  0  0  0  0  0  0
   30.2653    6.7799   53.8253 C   0  0  2  0  0  0  0  0  0  0  0  0
   29.2621    7.7376   54.2150 O   0  0  0  0  0  0  0  0  0  0  0  0
   30.1826    5.5236   54.7289 C   0  0  1  0  0  0  0  0  0  0  0  0
   28.9843    4.8461   54.4676 O   0  0  0  0  0  0  0  0  0  0  0  0
   28.9256    8.0158   55.5717 C   0  0  1  0  0  0  0  0  0  0  0  0
   28.3383    6.7109   56.2185 C   0  0  2  0  0  0  0  0  0  0  0  0
   26.9394    6.5621   56.0452 O   0  0  0  0  0  0  0  0  0  0  0  0
   28.7797    6.9585   57.6542 C   0  0  2  0  0  0  0  0  0  0  0  0
   28.0464    8.0732   58.2453 O   0  0  0  0  0  0  0  0  0  0  0  0
   30.2279    7.3968   57.4876 C   0  0  2  0  0  0  0  0  0  0  0  0
   30.1170    8.2830   56.3607 O   0  0  0  0  0  0  0  0  0  0  0  0
   31.2441    6.2334   57.2429 C   0  0  0  0  0  0  0  0  0  0  0  0
   30.9524    5.0947   58.0628 O   0  0  0  0  0  0  0  0  0  0  0  0
   26.9552    7.6760   59.0718 C   0  0  2  0  0  0  0  0  0  0  0  0
   27.3321    7.4046   60.5680 C   0  0  2  0  0  0  0  0  0  0  0  0
   28.3824    6.3524   60.7204 N   0  3  0  0  0  0  0  0  0  0  0  0
   26.0113    7.0090   61.3086 C   0  0  1  0  0  0  0  0  0  0  0  0
   25.1072    8.1778   61.2447 O   0  0  0  0  0  0  0  0  0  0  0  0
   25.2900    5.7735   60.6417 C   0  0  2  0  0  0  0  0  0  0  0  0
   26.1480    4.6267   60.7568 O   0  0  0  0  0  0  0  0  0  0  0  0
   24.9917    6.1346   59.1275 C   0  0  1  0  0  0  0  0  0  0  0  0
   26.2700    6.4780   58.4942 O   0  0  0  0  0  0  0  0  0  0  0  0
   24.2968    5.0113   58.3248 C   0  0  0  0  0  0  0  0  0  0  0  0
   24.1687    5.3135   56.8733 N   0  3  0  0  0  0  0  0  0  0  0  0
  1  2  1  1  0  0  0
  1  3  1  0  0  0  0
  1 10  1  0  0  0  0
  3  4  1  1  0  0  0
  3  5  1  0  0  0  0
  5  6  1  6  0  0  0
  5  7  1  0  0  0  0
  7  8  1  1  0  0  0
  7  9  1  0  0  0  0
  9 10  1  0  0  0  0
  9 11  1  6  0  0  0
 11 12  1  0  0  0  0
 13 14  1  1  0  0  0
 13 15  1  0  0  0  0
 13 21  1  0  0  0  0
 15 16  1  0  0  0  0
 16 17  1  1  0  0  0
 16 18  1  0  0  0  0
 18  2  1  6  0  0  0
 18 19  1  0  0  0  0
 19 20  1  1  0  0  0
 19 21  1  0  0  0  0
 21 22  1  6  0  0  0
 23 20  1  6  0  0  0
 23 24  1  0  0  0  0
 23 29  1  0  0  0  0
 24 25  1  1  0  0  0
 24 26  1  0  0  0  0
 26 27  1  6  0  0  0
 26 28  1  0  0  0  0
 28 29  1  0  0  0  0
 28 30  1  6  0  0  0
 30 31  1  0  0  0  0
 32 27  1  6  0  0  0
 32 33  1  0  0  0  0
 32 40  1  0  0  0  0
 33 34  1  6  0  0  0
 33 35  1  0  0  0  0
 35 36  1  6  0  0  0
 35 37  1  0  0  0  0
 37 38  1  6  0  0  0
 37 39  1  0  0  0  0
 39 40  1  0  0  0  0
 39 41  1  6  0  0  0
 41 42  1  0  0  0  0
M  CHG  5   4   1  14   1  17   1  34   1  42   1
M  END
>  <CHROM.1>
-175.32085571,50.31180367,164.78465690,52.27420088,60.52947832,-72.67172037
159.75327117,63.14624001,103.87066392,-79.30045800,-63.23714294,-150.10647447
-72.07002255,98.97502703,87.49063067,-40.54822206,-59.52403231,-70.92139175
-171.86094815,173.15242746,-173.39700144,52.14238293,29.15448819,7.17546860
55.38421416,-1.05159816,-0.23076595,1.99498415

>  <Name>
1j7t

>  <RI>
0

>  <Rbt.Current_Directory>
/home/itssahil/PROJECTS/Mol_Feturizer/New_Systems/rnas/1j7t

>  <Rbt.Executable>
rbdock ($Id: //depot/dev/client3/rdock/2013.1/src/exe/rbdock.cxx#4 $)

>  <Rbt.Library>
libRbt.so (2013.1, Build901 2013/11/27)

>  <Rbt.Parameter_File>
/export/apps/rDock/src/rDock_2013.1_src/data/scripts/dock_solv.prm

>  <Rbt.Receptor>
prm/pocket_docking_2.prm

>  <SCORE>
-35.6965

>  <SCORE.INTER>
-30.9032

>  <SCORE.INTER.CONST>
1

>  <SCORE.INTER.POLAR>
-5.79445

>  <SCORE.INTER.ROT>
9

>  <SCORE.INTER.SOLV>
24.1636

>  <SCORE.INTER.VDW>
-18.9419

>  <SCORE.INTER.norm>
-0.735791

>  <SCORE.INTRA>
-8.17205

>  <SCORE.INTRA.DIHEDRAL>
-22.3666

>  <SCORE.INTRA.DIHEDRAL.0>
46.2143

>  <SCORE.INTRA.POLAR>
-1.5194

>  <SCORE.INTRA.POLAR.0>
-1.76436

>  <SCORE.INTRA.REPUL>
0.00627816

>  <SCORE.INTRA.REPUL.0>
0

>  <SCORE.INTRA.SOLV>
4.57657

>  <SCORE.INTRA.SOLV.lig_0>
-148.643

>  <SCORE.INTRA.VDW>
5.85753

>  <SCORE.INTRA.VDW.0>
-4.83512

>  <SCORE.INTRA.norm>
-0.194573

>  <SCORE.RESTR>
3.37881

>  <SCORE.RESTR.CAVITY>
3.37881

>  <SCORE.RESTR.norm>
0.0804479

>  <SCORE.SYSTEM>
0

>  <SCORE.SYSTEM.CONST>
0

>  <SCORE.SYSTEM.DIHEDRAL>
0

>  <SCORE.SYSTEM.SOLV>
0

>  <SCORE.SYSTEM.norm>
0

>  <SCORE.heavy>
42

>  <SCORE.norm>
-0.849916

>  <RMSD>
3.160

$$$$
1j7t
 OpenBabel11021811393D
libRbt.so/2013.1/901 2013/11/27
 42 45  0  0  0  0  0  0  0  0999 V2000
   32.4852    8.0678   51.5569 C   0  0  2  0  0  0  0  0  0  0  0  0
   32.9843    8.3151   52.8956 O   0  0  0  0  0  0  0  0  0  0  0  0
   31.9428    9.4233   51.0196 C   0  0  2  0  0  0  0  0  0  0  0  0
   32.9145   10.5519   51.0950 N   0  3  0  0  0  0  0  0  0  0  0  0
   30.7017    9.8072   51.8545 C   0  0  1  0  0  0  0  0  0  0  0  0
   30.1586   11.0161   51.4039 O   0  0  0  0  0  0  0  0  0  0  0  0
   29.6470    8.6772   51.7876 C   0  0  2  0  0  0  0  0  0  0  0  0
   28.4923    9.0182   52.5289 O   0  0  0  0  0  0  0  0  0  0  0  0
   30.2316    7.3951   52.3413 C   0  0  2  0  0  0  0  0  0  0  0  0
   31.4170    7.0717   51.6255 O   0  0  0  0  0  0  0  0  0  0  0  0
   29.3009    6.2112   52.2031 C   0  0  0  0  0  0  0  0  0  0  0  0
   29.9441    5.0472   52.6854 O   0  0  0  0  0  0  0  0  0  0  0  0
   33.3765    4.3061   54.1694 C   0  0  2  0  0  0  0  0  0  0  0  0
   33.7888    3.1289   54.9346 N   0  3  0  0  0  0  0  0  0  0  0  0
   34.6280    4.9891   53.5248 C   0  0  0  0  0  0  0  0  0  0  0  0
   34.2040    6.2568   52.7587 C   0  0  2  0  0  0  0  0  0  0  0  0
   35.3719    6.9397   52.1926 N   0  3  0  0  0  0  0  0  0  0  0  0
   33.4502    7.2217   53.6949 C   0  0  2  0  0  0  0  0  0  0  0  0
   32.2272    6.5665   54.3659 C   0  0  2  0  0  0  0  0  0  0  0  0
   31.7304    7.5294   55.3153 O   0  0  0  0  0  0  0  0  0  0  0  0
   32.6459    5.2651   55.0959 C   0  0  1  0  0  0  0  0  0  0  0  0
   31.5037    4.6375   55.6102 O   0  0  0  0  0  0  0  0  0  0  0  0
   30.3529    7.6569   55.6582 C   0  0  1  0  0  0  0  0  0  0  0  0
   30.1716    7.2406   57.1615 C   0  0  2  0  0  0  0  0  0  0  0  0
   29.9497    5.8537   57.3517 O   0  0  0  0  0  0  0  0  0  0  0  0
   28.9803    8.1279   57.4939 C   0  0  2  0  0  0  0  0  0  0  0  0
   27.7790    7.6785   56.7978 O   0  0  0  0  0  0  0  0  0  0  0  0
   29.3847    9.4681   56.8958 C   0  0  2  0  0  0  0  0  0  0  0  0
   29.9361    9.0494   55.6355 O   0  0  0  0  0  0  0  0  0  0  0  0
   30.3988   10.2931   57.7541 C   0  0  0  0  0  0  0  0  0  0  0  0
   29.8883   10.5583   59.0668 O   0  0  0  0  0  0  0  0  0  0  0  0
   26.8482    6.9928   57.6314 C   0  0  2  0  0  0  0  0  0  0  0  0
   25.4839    6.6473   56.9433 C   0  0  2  0  0  0  0  0  0  0  0  0
   24.7743    7.8550   56.4222 N   0  3  0  0  0  0  0  0  0  0  0  0
   24.6179    5.8842   58.0004 C   0  0  1  0  0  0  0  0  0  0  0  0
   25.3271    4.6265   58.3207 O   0  0  0  0  0  0  0  0  0  0  0  0
   24.4224    6.7089   59.3319 C   0  0  2  0  0  0  0  0  0  0  0  0
   23.6832    7.9024   59.0258 O   0  0  0  0  0  0  0  0  0  0  0  0
   25.8555    7.0404   59.9220 C   0  0  1  0  0  0  0  0  0  0  0  0
   26.6028    7.7661   58.8885 O   0  0  0  0  0  0  0  0  0  0  0  0
   25.8363    7.8660   61.2285 C   0  0  0  0  0  0  0  0  0  0  0  0
   25.1956    7.1553   62.3683 N   0  3  0  0  0  0  0  0  0  0  0  0
  1  2  1  1  0  0  0
  1  3  1  0  0  0  0
  1 10  1  0  0  0  0
  3  4  1  1  0  0  0
  3  5  1  0  0  0  0
  5  6  1  6  0  0  0
  5  7  1  0  0  0  0
  7  8  1  1  0  0  0
  7  9  1  0  0  0  0
  9 10  1  0  0  0  0
  9 11  1  6  0  0  0
 11 12  1  0  0  0  0
 13 14  1  1  0  0  0
 13 15  1  0  0  0  0
 13 21  1  0  0  0  0
 15 16  1  0  0  0  0
 16 17  1  1  0  0  0
 16 18  1  0  0  0  0
 18  2  1  6  0  0  0
 18 19  1  0  0  0  0
 19 20  1  1  0  0  0
 19 21  1  0  0  0  0
 21 22  1  6  0  0  0
 23 20  1  1  0  0  0
 23 24  1  0  0  0  0
 23 29  1  0  0  0  0
 24 25  1  6  0  0  0
 24 26  1  0  0  0  0
 26 27  1  6  0  0  0
 26 28  1  0  0  0  0
 28 29  1  0  0  0  0
 28 30  1  1  0  0  0
 30 31  1  0  0  0  0
 32 27  1  6  0  0  0
 32 33  1  0  0  0  0
 32 40  1  0  0  0  0
 33 34  1  1  0  0  0
 33 35  1  0  0  0  0
 35 36  1  1  0  0  0
 35 37  1  0  0  0  0
 37 38  1  6  0  0  0
 37 39  1  0  0  0  0
 39 40  1  0  0  0  0
 39 41  1  1  0  0  0
 41 42  1  0  0  0  0
M  CHG  5   4   1  14   1  17   1  34   1  42   1
M  END
>  <CHROM.1>
174.84031822,38.59617161,29.86538548,65.40427864,177.31203816,177.30457004
-61.82958931,67.82192384,83.21834124,148.19436577,113.71080837,164.93802922
-72.85026499,104.38384040,173.33972346,-57.97201821,64.72115660,-131.22505252
-65.01108128,60.09939947,63.75439757,115.47448252,29.70350330,7.37825864
55.41006213,0.51745210,0.58401048,-0.78579588

>  <Name>
1j7t

>  <RI>
224

>  <Rbt.Current_Directory>
/home/itssahil/PROJECTS/Mol_Feturizer/New_Systems/rnas/1j7t

>  <Rbt.Executable>
rbdock ($Id: //depot/dev/client3/rdock/2013.1/src/exe/rbdock.cxx#4 $)

>  <Rbt.Library>
libRbt.so (2013.1, Build901 2013/11/27)

>  <Rbt.Parameter_File>
/export/apps/rDock/src/rDock_2013.1_src/data/scripts/dock_solv.prm

>  <Rbt.Receptor>
prm/pocket_docking_7.prm

>  <SCORE>
-46.8958

>  <SCORE.INTER>
-40.0961

>  <SCORE.INTER.CONST>
1

>  <SCORE.INTER.POLAR>
-6.9218

>  <SCORE.INTER.ROT>
9

>  <SCORE.INTER.SOLV>
23.9163

>  <SCORE.INTER.VDW>
-21.2301

>  <SCORE.INTER.norm>
-0.954668

>  <SCORE.INTRA>
-6.79969

>  <SCORE.INTRA.DIHEDRAL>
-14.4161

>  <SCORE.INTRA.DIHEDRAL.0>
46.2143

>  <SCORE.INTRA.POLAR>
0.757881

>  <SCORE.INTRA.POLAR.0>
-1.76436

>  <SCORE.INTRA.REPUL>
0

>  <SCORE.INTRA.REPUL.0>
0

>  <SCORE.INTRA.SOLV>
-3.95446

>  <SCORE.INTRA.SOLV.lig_0>
-148.643

>  <SCORE.INTRA.VDW>
-0.191228

>  <SCORE.INTRA.VDW.0>
-4.83512

>  <SCORE.INTRA.norm>
-0.161897

>  <SCORE.RESTR>
0

>  <SCORE.RESTR.CAVITY>
0

>  <SCORE.RESTR.norm>
0

>  <SCORE.SYSTEM>
0

>  <SCORE.SYSTEM.CONST>
0

>  <SCORE.SYSTEM.DIHEDRAL>
0

>  <SCORE.SYSTEM.SOLV>
0

>  <SCORE.SYSTEM.norm>
0

>  <SCORE.heavy>
42

>  <SCORE.norm>
-1.11657

>  <RMSD>
3.480

$$$$
1j7t
 OpenBabel11021811393D
libRbt.so/2013.1/901 2013/11/27
 42 45  0  0  0  0  0  0  0  0999 V2000
   29.9538    6.0601   51.9398 C   0  0  2  0  0  0  0  0  0  0  0  0
   30.3628    7.2902   52.5896 O   0  0  0  0  0  0  0  0  0  0  0  0
   28.7768    6.4214   50.9890 C   0  0  2  0  0  0  0  0  0  0  0  0
   29.0694    7.5306   50.0362 N   0  3  0  0  0  0  0  0  0  0  0  0
   27.5723    6.8454   51.8576 C   0  0  1  0  0  0  0  0  0  0  0  0
   26.4732    7.1680   51.0530 O   0  0  0  0  0  0  0  0  0  0  0  0
   27.2090    5.7146   52.8490 C   0  0  2  0  0  0  0  0  0  0  0  0
   26.0938    6.0742   53.6402 O   0  0  0  0  0  0  0  0  0  0  0  0
   28.3878    5.4265   53.7543 C   0  0  2  0  0  0  0  0  0  0  0  0
   29.5228    5.1055   52.9601 O   0  0  0  0  0  0  0  0  0  0  0  0
   28.1533    4.2512   54.6767 C   0  0  0  0  0  0  0  0  0  0  0  0
   27.0900    4.5505   55.5605 O   0  0  0  0  0  0  0  0  0  0  0  0
   33.4090    5.6582   55.0197 C   0  0  2  0  0  0  0  0  0  0  0  0
   34.5512    5.5555   55.9287 N   0  3  0  0  0  0  0  0  0  0  0  0
   33.8408    6.3778   53.6990 C   0  0  0  0  0  0  0  0  0  0  0  0
   32.6297    6.5316   52.7592 C   0  0  2  0  0  0  0  0  0  0  0  0
   33.0048    7.2524   51.5382 N   0  3  0  0  0  0  0  0  0  0  0  0
   31.4914    7.2882   53.4715 C   0  0  2  0  0  0  0  0  0  0  0  0
   31.0641    6.6161   54.7910 C   0  0  2  0  0  0  0  0  0  0  0  0
   30.1189    7.5123   55.4066 O   0  0  0  0  0  0  0  0  0  0  0  0
   32.2911    6.4175   55.7165 C   0  0  1  0  0  0  0  0  0  0  0  0
   31.8949    5.7160   56.8628 O   0  0  0  0  0  0  0  0  0  0  0  0
   29.0919    7.0820   56.2961 C   0  0  1  0  0  0  0  0  0  0  0  0
   29.2361    7.8721   57.6455 C   0  0  2  0  0  0  0  0  0  0  0  0
   30.1110    7.2620   58.5789 O   0  0  0  0  0  0  0  0  0  0  0  0
   27.7701    7.8775   58.0556 C   0  0  2  0  0  0  0  0  0  0  0  0
   27.3190    6.5365   58.4136 O   0  0  0  0  0  0  0  0  0  0  0  0
   27.0638    8.2719   56.7661 C   0  0  2  0  0  0  0  0  0  0  0  0
   27.7801    7.4744   55.8076 O   0  0  0  0  0  0  0  0  0  0  0  0
   27.1063    9.7992   56.4327 C   0  0  0  0  0  0  0  0  0  0  0  0
   28.4509   10.2924   56.3807 O   0  0  0  0  0  0  0  0  0  0  0  0
   26.8972    6.4094   59.7691 C   0  0  2  0  0  0  0  0  0  0  0  0
   28.0133    6.6928   60.8313 C   0  0  2  0  0  0  0  0  0  0  0  0
   29.2037    5.8031   60.6741 N   0  3  0  0  0  0  0  0  0  0  0  0
   27.3555    6.5278   62.2420 C   0  0  1  0  0  0  0  0  0  0  0  0
   26.3061    7.5634   62.3589 O   0  0  0  0  0  0  0  0  0  0  0  0
   26.6917    5.1094   62.4383 C   0  0  2  0  0  0  0  0  0  0  0  0
   27.7229    4.1103   62.3809 O   0  0  0  0  0  0  0  0  0  0  0  0
   25.6131    4.9068   61.2948 C   0  0  1  0  0  0  0  0  0  0  0  0
   26.2996    5.0586   60.0068 O   0  0  0  0  0  0  0  0  0  0  0  0
   24.8797    3.5469   61.3381 C   0  0  0  0  0  0  0  0  0  0  0  0
   25.7082    2.4119   60.8483 N   0  3  0  0  0  0  0  0  0  0  0  0
  1  2  1  1  0  0  0
  1  3  1  0  0  0  0
  1 10  1  0  0  0  0
  3  4  1  6  0  0  0
  3  5  1  0  0  0  0
  5  6  1  6  0  0  0
  5  7  1  0  0  0  0
  7  8  1  1  0  0  0
  7  9  1  0  0  0  0
  9 10  1  0  0  0  0
  9 11  1  1  0  0  0
 11 12  1  0  0  0  0
 13 14  1  1  0  0  0
 13 15  1  0  0  0  0
 13 21  1  0  0  0  0
 15 16  1  0  0  0  0
 16 17  1  6  0  0  0
 16 18  1  0  0  0  0
 18  2  1  6  0  0  0
 18 19  1  0  0  0  0
 19 20  1  1  0  0  0
 19 21  1  0  0  0  0
 21 22  1  1  0  0  0
 23 20  1  6  0  0  0
 23 24  1  0  0  0  0
 23 29  1  0  0  0  0
 24 25  1  1  0  0  0
 24 26  1  0  0  0  0
 26 27  1  6  0  0  0
 26 28  1  0  0  0  0
 28 29  1  0  0  0  0
 28 30  1  6  0  0  0
 30 31  1  0  0  0  0
 32 27  1  6  0  0  0
 32 33  1  0  0  0  0
 32 40  1  0  0  0  0
 33 34  1  1  0  0  0
 33 35  1  0  0  0  0
 35 36  1  6  0  0  0
 35 37  1  0  0  0  0
 37 38  1  6  0  0  0
 37 39  1  0  0  0  0
 39 40  1  0  0  0  0
 39 41  1  6  0  0  0
 41 42  1  0  0  0  0
M  CHG  5   4   1  14   1  17   1  34   1  42   1
M  END
>  <CHROM.1>
-176.21979752,47.15247846,166.69492611,36.56037015,46.95244829,-63.83692337
-173.51930640,-166.49721484,-80.23326945,152.85662177,124.19574610,56.71968987
45.64017506,117.56205815,-61.96399145,56.03453249,157.34743608,83.26861119
-60.14811482,-92.25053210,-75.49546893,-47.02757208,28.84792648,6.37007571
56.33067708,1.17152494,-0.03703536,-1.44105528

>  <Name>
1j7t

>  <RI>
224

>  <Rbt.Current_Directory>
/home/itssahil/PROJECTS/Mol_Feturizer/New_Systems/rnas/1j7t

>  <Rbt.Executable>
rbdock ($Id: //depot/dev/client3/rdock/2013.1/src/exe/rbdock.cxx#4 $)

>  <Rbt.Library>
libRbt.so (2013.1, Build901 2013/11/27)

>  <Rbt.Parameter_File>
/export/apps/rDock/src/rDock_2013.1_src/data/scripts/dock_solv.prm

>  <Rbt.Receptor>
prm/pocket_docking_7.prm

>  <SCORE>
-39.1471

>  <SCORE.INTER>
-33.4572

>  <SCORE.INTER.CONST>
1

>  <SCORE.INTER.POLAR>
-6.26584

>  <SCORE.INTER.ROT>
9

>  <SCORE.INTER.SOLV>
20.0546

>  <SCORE.INTER.VDW>
-17.7035

>  <SCORE.INTER.norm>
-0.7966

>  <SCORE.INTRA>
-5.68995

>  <SCORE.INTRA.DIHEDRAL>
-13.0249

>  <SCORE.INTRA.DIHEDRAL.0>
46.2143

>  <SCORE.INTRA.POLAR>
-0.255791

>  <SCORE.INTRA.POLAR.0>
-1.76436

>  <SCORE.INTRA.REPUL>
0.189465

>  <SCORE.INTRA.REPUL.0>
0

>  <SCORE.INTRA.SOLV>
4.7903

>  <SCORE.INTRA.SOLV.lig_0>
-148.643

>  <SCORE.INTRA.VDW>
-1.65028

>  <SCORE.INTRA.VDW.0>
-4.83512

>  <SCORE.INTRA.norm>
-0.135475

>  <SCORE.RESTR>
0

>  <SCORE.RESTR.CAVITY>
0

>  <SCORE.RESTR.norm>
0

>  <SCORE.SYSTEM>
0

>  <SCORE.SYSTEM.CONST>
0

>  <SCORE.SYSTEM.DIHEDRAL>
0

>  <SCORE.SYSTEM.SOLV>
0

>  <SCORE.SYSTEM.norm>
0

>  <SCORE.heavy>
42

>  <SCORE.norm>
-0.932075

>  <RMSD>
3.488

$$$$
1j7t
 OpenBabel11021811393D
libRbt.so/2013.1/901 2013/11/27
 42 45  0  0  0  0  0  0  0  0999 V2000
   29.2628    9.1308   53.9847 C   0  0  2  0  0  0  0  0  0  0  0  0
   30.1272    8.0451   54.4051 O   0  0  0  0  0  0  0  0  0  0  0  0
   28.1818    9.3012   55.0903 C   0  0  2  0  0  0  0  0  0  0  0  0
   28.7271    9.4721   56.4676 N   0  3  0  0  0  0  0  0  0  0  0  0
   27.2885    8.0415   55.0850 C   0  0  1  0  0  0  0  0  0  0  0  0
   26.2828    8.1457   56.0531 O   0  0  0  0  0  0  0  0  0  0  0  0
   26.6738    7.8330   53.6806 C   0  0  2  0  0  0  0  0  0  0  0  0
   25.8343    6.6955   53.6595 O   0  0  0  0  0  0  0  0  0  0  0  0
   27.7762    7.6554   52.6583 C   0  0  2  0  0  0  0  0  0  0  0  0
   28.6469    8.7786   52.7062 O   0  0  0  0  0  0  0  0  0  0  0  0
   27.2598    7.5629   51.2399 C   0  0  0  0  0  0  0  0  0  0  0  0
   26.5010    6.3784   51.0908 O   0  0  0  0  0  0  0  0  0  0  0  0
   33.8780    6.7415   52.9628 C   0  0  2  0  0  0  0  0  0  0  0  0
   35.3069    6.7080   52.6490 N   0  3  0  0  0  0  0  0  0  0  0  0
   33.1997    7.9491   52.2347 C   0  0  0  0  0  0  0  0  0  0  0  0
   31.7048    8.0169   52.6014 C   0  0  2  0  0  0  0  0  0  0  0  0
   31.0645    9.1753   51.9698 N   0  3  0  0  0  0  0  0  0  0  0  0
   31.5316    8.1061   54.1303 C   0  0  2  0  0  0  0  0  0  0  0  0
   32.2142    6.9428   54.8759 C   0  0  2  0  0  0  0  0  0  0  0  0
   32.1013    7.2483   56.2792 O   0  0  0  0  0  0  0  0  0  0  0  0
   33.7067    6.8446   54.4700 C   0  0  1  0  0  0  0  0  0  0  0  0
   34.2777    5.7211   55.0823 O   0  0  0  0  0  0  0  0  0  0  0  0
   30.9030    7.0676   57.0293 C   0  0  1  0  0  0  0  0  0  0  0  0
   31.0219    5.7322   57.8470 C   0  0  2  0  0  0  0  0  0  0  0  0
   30.5896    4.5832   57.1385 O   0  0  0  0  0  0  0  0  0  0  0  0
   30.1448    6.1189   59.0296 C   0  0  2  0  0  0  0  0  0  0  0  0
   28.7451    6.2313   58.6320 O   0  0  0  0  0  0  0  0  0  0  0  0
   30.6404    7.5174   59.3699 C   0  0  2  0  0  0  0  0  0  0  0  0
   30.7713    8.0878   58.0564 O   0  0  0  0  0  0  0  0  0  0  0  0
   31.9752    7.5632   60.1835 C   0  0  0  0  0  0  0  0  0  0  0  0
   31.7342    7.5615   61.5963 O   0  0  0  0  0  0  0  0  0  0  0  0
   27.8305    5.6558   59.5615 C   0  0  2  0  0  0  0  0  0  0  0  0
   28.2152    4.2195   60.0546 C   0  0  2  0  0  0  0  0  0  0  0  0
   28.3530    3.2389   58.9353 N   0  3  0  0  0  0  0  0  0  0  0  0
   27.1144    3.7753   61.0748 C   0  0  1  0  0  0  0  0  0  0  0  0
   27.1766    4.7097   62.2196 O   0  0  0  0  0  0  0  0  0  0  0  0
   25.6622    3.8253   60.4584 C   0  0  2  0  0  0  0  0  0  0  0  0
   25.5892    2.8749   59.3831 O   0  0  0  0  0  0  0  0  0  0  0  0
   25.3902    5.3035   59.9554 C   0  0  1  0  0  0  0  0  0  0  0  0
   26.4458    5.6457   58.9952 O   0  0  0  0  0  0  0  0  0  0  0  0
   24.0043    5.5151   59.3046 C   0  0  0  0  0  0  0  0  0  0  0  0
   22.8720    5.0937   60.1734 N   0  3  0  0  0  0  0  0  0  0  0  0
  1  2  1  1  0  0  0
  1  3  1  0  0  0  0
  1 10  1  0  0  0  0
  3  4  1  1  0  0  0
  3  5  1  0  0  0  0
  5  6  1  1  0  0  0
  5  7  1  0  0  0  0
  7  8  1  1  0  0  0
  7  9  1  0  0  0  0
  9 10  1  0  0  0  0
  9 11  1  6  0  0  0
 11 12  1  0  0  0  0
 13 14  1  1  0  0  0
 13 15  1  0  0  0  0
 13 21  1  0  0  0  0
 15 16  1  0  0  0  0
 16 17  1  6  0  0  0
 16 18  1  0  0  0  0
 18  2  1  6  0  0  0
 18 19  1  0  0  0  0
 19 20  1  1  0  0  0
 19 21  1  0  0  0  0
 21 22  1  1  0  0  0
 23 20  1  1  0  0  0
 23 24  1  0  0  0  0
 23 29  1  0  0  0  0
 24 25  1  6  0  0  0
 24 26  1  0  0  0  0
 26 27  1  6  0  0  0
 26 28  1  0  0  0  0
 28 29  1  0  0  0  0
 28 30  1  6  0  0  0
 30 31  1  0  0  0  0
 32 27  1  6  0  0  0
 32 33  1  0  0  0  0
 32 40  1  0  0  0  0
 33 34  1  6  0  0  0
 33 35  1  0  0  0  0
 35 36  1  1  0  0  0
 35 37  1  0  0  0  0
 37 38  1  6  0  0  0
 37 39  1  0  0  0  0
 39 40  1  0  0  0  0
 39 41  1  6  0  0  0
 41 42  1  0  0  0  0
M  CHG  5   4   1  14   1  17   1  34   1  42   1
M  END
>  <CHROM.1>
-143.64780722,-66.87238048,85.72210828,175.46811525,-65.69436894,-66.07410178
-171.71593284,-87.42676566,37.29561847,77.41780680,100.60125069,176.39061412
105.60549236,137.38706934,-47.39915560,-90.61689196,53.72280651,173.73465674
-50.73501564,78.97692910,54.56733048,44.99037601,29.18167629,6.65925239,56.49602206
0.97034965,-0.08174807,-1.23977639

>  <Name>
1j7t

>  <RI>
0

>  <Rbt.Current_Directory>
/home/itssahil/PROJECTS/Mol_Feturizer/New_Systems/rnas/1j7t

>  <Rbt.Executable>
rbdock ($Id: //depot/dev/client3/rdock/2013.1/src/exe/rbdock.cxx#4 $)

>  <Rbt.Library>
libRbt.so (2013.1, Build901 2013/11/27)

>  <Rbt.Parameter_File>
/export/apps/rDock/src/rDock_2013.1_src/data/scripts/dock_solv.prm

>  <Rbt.Receptor>
prm/pocket_docking_3.prm

>  <SCORE>
-46.344

>  <SCORE.INTER>
-37.6103

>  <SCORE.INTER.CONST>
1

>  <SCORE.INTER.POLAR>
-5.07559

>  <SCORE.INTER.ROT>
9

>  <SCORE.INTER.SOLV>
19.3905

>  <SCORE.INTER.VDW>
-24.2184

>  <SCORE.INTER.norm>
-0.895483

>  <SCORE.INTRA>
-9.75123

>  <SCORE.INTRA.DIHEDRAL>
-11.1395

>  <SCORE.INTRA.DIHEDRAL.0>
46.2143

>  <SCORE.INTRA.POLAR>
-2.19262

>  <SCORE.INTRA.POLAR.0>
-1.76436

>  <SCORE.INTRA.REPUL>
0

>  <SCORE.INTRA.REPUL.0>
0

>  <SCORE.INTRA.SOLV>
2.79411

>  <SCORE.INTRA.SOLV.lig_0>
-148.643

>  <SCORE.INTRA.VDW>
1.87636

>  <SCORE.INTRA.VDW.0>
-4.83512

>  <SCORE.INTRA.norm>
-0.232172

>  <SCORE.RESTR>
1.0175

>  <SCORE.RESTR.CAVITY>
1.0175

>  <SCORE.RESTR.norm>
0.0242262

>  <SCORE.SYSTEM>
0

>  <SCORE.SYSTEM.CONST>
0

>  <SCORE.SYSTEM.DIHEDRAL>
0

>  <SCORE.SYSTEM.SOLV>
0

>  <SCORE.SYSTEM.norm>
0

>  <SCORE.heavy>
42

>  <SCORE.norm>
-1.10343

>  <RMSD>
3.685

$$$$
1j7t
 OpenBabel11021811393D
libRbt.so/2013.1/901 2013/11/27
 42 45  0  0  0  0  0  0  0  0999 V2000
   31.0796    6.3037   52.5794 C   0  0  2  0  0  0  0  0  0  0  0  0
   30.3360    5.5261   53.5514 O   0  0  0  0  0  0  0  0  0  0  0  0
   30.7387    7.7988   52.8411 C   0  0  2  0  0  0  0  0  0  0  0  0
   30.9496    8.2441   54.2485 N   0  3  0  0  0  0  0  0  0  0  0  0
   29.2511    8.0194   52.4899 C   0  0  1  0  0  0  0  0  0  0  0  0
   28.8897    9.3567   52.6913 O   0  0  0  0  0  0  0  0  0  0  0  0
   28.9833    7.5969   51.0259 C   0  0  2  0  0  0  0  0  0  0  0  0
   27.6300    7.8111   50.6769 O   0  0  0  0  0  0  0  0  0  0  0  0
   29.3166    6.1312   50.8449 C   0  0  2  0  0  0  0  0  0  0  0  0
   30.6650    5.9043   51.2352 O   0  0  0  0  0  0  0  0  0  0  0  0
   29.1931    5.6681   49.4105 C   0  0  0  0  0  0  0  0  0  0  0  0
   29.4070    4.2712   49.3461 O   0  0  0  0  0  0  0  0  0  0  0  0
   30.9762    2.2346   56.1213 C   0  0  2  0  0  0  0  0  0  0  0  0
   31.6072    1.3267   57.0799 N   0  3  0  0  0  0  0  0  0  0  0  0
   31.8362    2.3154   54.8167 C   0  0  0  0  0  0  0  0  0  0  0  0
   31.2011    3.3079   53.8241 C   0  0  2  0  0  0  0  0  0  0  0  0
   32.0234    3.4367   52.6165 N   0  3  0  0  0  0  0  0  0  0  0  0
   31.0363    4.6920   54.4817 C   0  0  2  0  0  0  0  0  0  0  0  0
   30.2156    4.6382   55.7851 C   0  0  2  0  0  0  0  0  0  0  0  0
   30.2840    5.9601   56.3537 O   0  0  0  0  0  0  0  0  0  0  0  0
   30.8269    3.6042   56.7644 C   0  0  1  0  0  0  0  0  0  0  0  0
   30.0076    3.5013   57.8963 O   0  0  0  0  0  0  0  0  0  0  0  0
   29.6629    6.3193   57.5852 C   0  0  1  0  0  0  0  0  0  0  0  0
   30.0376    7.8075   57.9183 C   0  0  2  0  0  0  0  0  0  0  0  0
   31.2465    7.9477   58.6449 O   0  0  0  0  0  0  0  0  0  0  0  0
   28.7818    8.1830   58.6925 C   0  0  2  0  0  0  0  0  0  0  0  0
   28.7218    7.4809   59.9704 O   0  0  0  0  0  0  0  0  0  0  0  0
   27.6691    7.6320   57.8118 C   0  0  2  0  0  0  0  0  0  0  0  0
   28.2159    6.3523   57.4498 O   0  0  0  0  0  0  0  0  0  0  0  0
   27.3172    8.5118   56.5676 C   0  0  0  0  0  0  0  0  0  0  0  0
   25.9384    8.3805   56.1994 O   0  0  0  0  0  0  0  0  0  0  0  0
   27.5692    7.7918   60.7491 C   0  0  2  0  0  0  0  0  0  0  0  0
   27.5411    7.1315   62.1695 C   0  0  2  0  0  0  0  0  0  0  0  0
   27.6268    5.6404   62.1184 N   0  3  0  0  0  0  0  0  0  0  0  0
   26.2248    7.6073   62.8699 C   0  0  1  0  0  0  0  0  0  0  0  0
   26.3173    9.0754   63.0236 O   0  0  0  0  0  0  0  0  0  0  0  0
   24.9338    7.2663   62.0281 C   0  0  2  0  0  0  0  0  0  0  0  0
   24.8167    5.8376   61.9297 O   0  0  0  0  0  0  0  0  0  0  0  0
   25.0812    7.9434   60.6026 C   0  0  1  0  0  0  0  0  0  0  0  0
   26.3219    7.4420   60.0005 O   0  0  0  0  0  0  0  0  0  0  0  0
   23.8956    7.6869   59.6447 C   0  0  0  0  0  0  0  0  0  0  0  0
   23.8651    8.6125   58.4798 N   0  3  0  0  0  0  0  0  0  0  0  0
  1  2  1  1  0  0  0
  1  3  1  0  0  0  0
  1 10  1  0  0  0  0
  3  4  1  1  0  0  0
  3  5  1  0  0  0  0
  5  6  1  6  0  0  0
  5  7  1  0  0  0  0
  7  8  1  1  0  0  0
  7  9  1  0  0  0  0
  9 10  1  0  0  0  0
  9 11  1  6  0  0  0
 11 12  1  0  0  0  0
 13 14  1  1  0  0  0
 13 15  1  0  0  0  0
 13 21  1  0  0  0  0
 15 16  1  0  0  0  0
 16 17  1  6  0  0  0
 16 18  1  0  0  0  0
 18  2  1  6  0  0  0
 18 19  1  0  0  0  0
 19 20  1  1  0  0  0
 19 21  1  0  0  0  0
 21 22  1  1  0  0  0
 23 20  1  6  0  0  0
 23 24  1  0  0  0  0
 23 29  1  0  0  0  0
 24 25  1  1  0  0  0
 24 26  1  0  0  0  0
 26 27  1  1  0  0  0
 26 28  1  0  0  0  0
 28 29  1  0  0  0  0
 28 30  1  6  0  0  0
 30 31  1  0  0  0  0
 32 27  1  6  0  0  0
 32 33  1  0  0  0  0
 32 40  1  0  0  0  0
 33 34  1  6  0  0  0
 33 35  1  0  0  0  0
 35 36  1  6  0  0  0
 35 37  1  0  0  0  0
 37 38  1  6  0  0  0
 37 39  1  0  0  0  0
 39 40  1  0  0  0  0
 39 41  1  6  0  0  0
 41 42  1  0  0  0  0
M  CHG  5   4   1  14   1  17   1  34   1  42   1
M  END
>  <CHROM.1>
-119.84214559,-89.49179927,-51.77676835,-71.03295656,62.75562239,-174.98409587
65.72723605,49.69080872,-63.08757645,-179.03570641,176.30885972,-63.01787794
-63.89938934,179.81212994,-175.59522042,-149.94065474,-69.72782093,112.73821318
-55.51920036,-80.58620149,164.07821868,172.81356775,28.74970825,6.38706434
56.45526344,0.95004394,0.83088278,-1.29951568

>  <Name>
1j7t

>  <RI>
0

>  <Rbt.Current_Directory>
/home/itssahil/PROJECTS/Mol_Feturizer/New_Systems/rnas/1j7t

>  <Rbt.Executable>
rbdock ($Id: //depot/dev/client3/rdock/2013.1/src/exe/rbdock.cxx#4 $)

>  <Rbt.Library>
libRbt.so (2013.1, Build901 2013/11/27)

>  <Rbt.Parameter_File>
/export/apps/rDock/src/rDock_2013.1_src/data/scripts/dock_solv.prm

>  <Rbt.Receptor>
prm/pocket_docking_5.prm

>  <SCORE>
-35.9488

>  <SCORE.INTER>
-20.1242

>  <SCORE.INTER.CONST>
1

>  <SCORE.INTER.POLAR>
-3.62889

>  <SCORE.INTER.ROT>
9

>  <SCORE.INTER.SOLV>
19.1233

>  <SCORE.INTER.VDW>
-17.2943

>  <SCORE.INTER.norm>
-0.479148

>  <SCORE.INTRA>
-15.8778

>  <SCORE.INTRA.DIHEDRAL>
-23.6685

>  <SCORE.INTRA.DIHEDRAL.0>
46.2143

>  <SCORE.INTRA.POLAR>
-1.35929

>  <SCORE.INTRA.POLAR.0>
-1.76436

>  <SCORE.INTRA.REPUL>
0

>  <SCORE.INTRA.REPUL.0>
0

>  <SCORE.INTRA.SOLV>
0.690082

>  <SCORE.INTRA.SOLV.lig_0>
-148.643

>  <SCORE.INTRA.VDW>
0.232972

>  <SCORE.INTRA.VDW.0>
-4.83512

>  <SCORE.INTRA.norm>
-0.378044

>  <SCORE.RESTR>
0.0533145

>  <SCORE.RESTR.CAVITY>
0.0533145

>  <SCORE.RESTR.norm>
0.00126939

>  <SCORE.SYSTEM>
0

>  <SCORE.SYSTEM.CONST>
0

>  <SCORE.SYSTEM.DIHEDRAL>
0

>  <SCORE.SYSTEM.SOLV>
0

>  <SCORE.SYSTEM.norm>
0

>  <SCORE.heavy>
42

>  <SCORE.norm>
-0.855923

>  <RMSD>
3.687

$$$$
1j7t
 OpenBabel11021811393D
libRbt.so/2013.1/901 2013/11/27
 42 45  0  0  0  0  0  0  0  0999 V2000
   32.7512    7.6967   51.9250 C   0  0  2  0  0  0  0  0  0  0  0  0
   33.2881    7.9887   53.2400 O   0  0  0  0  0  0  0  0  0  0  0  0
   32.1019    9.0095   51.4007 C   0  0  2  0  0  0  0  0  0  0  0  0
   33.0019   10.1982   51.4271 N   0  3  0  0  0  0  0  0  0  0  0  0
   30.8741    9.3224   52.2836 C   0  0  1  0  0  0  0  0  0  0  0  0
   30.2371   10.4898   51.8469 O   0  0  0  0  0  0  0  0  0  0  0  0
   29.8918    8.1272   52.2691 C   0  0  2  0  0  0  0  0  0  0  0  0
   28.7491    8.4019   53.0552 O   0  0  0  0  0  0  0  0  0  0  0  0
   30.5793    6.8905   52.8076 C   0  0  2  0  0  0  0  0  0  0  0  0
   31.7524    6.6356   52.0455 O   0  0  0  0  0  0  0  0  0  0  0  0
   29.7210    5.6486   52.7172 C   0  0  0  0  0  0  0  0  0  0  0  0
   28.4513    5.9109   53.2832 O   0  0  0  0  0  0  0  0  0  0  0  0
   34.4135    4.0783   54.3759 C   0  0  2  0  0  0  0  0  0  0  0  0
   35.0783    2.9728   55.0669 N   0  3  0  0  0  0  0  0  0  0  0  0
   35.4712    4.9471   53.6177 C   0  0  0  0  0  0  0  0  0  0  0  0
   34.7812    6.1402   52.9291 C   0  0  2  0  0  0  0  0  0  0  0  0
   35.7652    6.9957   52.2577 N   0  3  0  0  0  0  0  0  0  0  0  0
   33.9966    6.9740   53.9610 C   0  0  2  0  0  0  0  0  0  0  0  0
   32.9657    6.1368   54.7430 C   0  0  2  0  0  0  0  0  0  0  0  0
   32.4353    7.0076   55.7608 O   0  0  0  0  0  0  0  0  0  0  0  0
   33.6515    4.9098   55.3956 C   0  0  1  0  0  0  0  0  0  0  0  0
   32.6790    4.1131   56.0140 O   0  0  0  0  0  0  0  0  0  0  0  0
   31.0627    7.0242   56.1442 C   0  0  1  0  0  0  0  0  0  0  0  0
   30.6702    5.5934   56.6586 C   0  0  2  0  0  0  0  0  0  0  0  0
   30.2326    4.7144   55.6365 O   0  0  0  0  0  0  0  0  0  0  0  0
   29.5913    6.0041   57.6508 C   0  0  2  0  0  0  0  0  0  0  0  0
   28.4155    6.5276   56.9629 O   0  0  0  0  0  0  0  0  0  0  0  0
   30.2436    7.1617   58.3936 C   0  0  2  0  0  0  0  0  0  0  0  0
   30.8552    7.8746   57.3048 O   0  0  0  0  0  0  0  0  0  0  0  0
   31.2725    6.7419   59.4939 C   0  0  0  0  0  0  0  0  0  0  0  0
   31.5277    7.8098   60.4150 O   0  0  0  0  0  0  0  0  0  0  0  0
   27.1790    6.1739   57.5773 C   0  0  2  0  0  0  0  0  0  0  0  0
   25.9195    6.3498   56.6624 C   0  0  2  0  0  0  0  0  0  0  0  0
   25.7572    7.7481   56.1606 N   0  3  0  0  0  0  0  0  0  0  0  0
   24.6783    5.8923   57.4988 C   0  0  1  0  0  0  0  0  0  0  0  0
   24.8584    4.4551   57.7982 O   0  0  0  0  0  0  0  0  0  0  0  0
   24.5416    6.6800   58.8597 C   0  0  2  0  0  0  0  0  0  0  0  0
   24.3097    8.0669   58.5636 O   0  0  0  0  0  0  0  0  0  0  0  0
   25.8772    6.4712   59.6871 C   0  0  1  0  0  0  0  0  0  0  0  0
   26.9919    6.9337   58.8524 O   0  0  0  0  0  0  0  0  0  0  0  0
   25.9084    7.1997   61.0499 C   0  0  0  0  0  0  0  0  0  0  0  0
   24.8364    6.7570   61.9823 N   0  3  0  0  0  0  0  0  0  0  0  0
  1  2  1  1  0  0  0
  1  3  1  0  0  0  0
  1 10  1  0  0  0  0
  3  4  1  1  0  0  0
  3  5  1  0  0  0  0
  5  6  1  6  0  0  0
  5  7  1  0  0  0  0
  7  8  1  1  0  0  0
  7  9  1  0  0  0  0
  9 10  1  0  0  0  0
  9 11  1  6  0  0  0
 11 12  1  0  0  0  0
 13 14  1  1  0  0  0
 13 15  1  0  0  0  0
 13 21  1  0  0  0  0
 15 16  1  0  0  0  0
 16 17  1  1  0  0  0
 16 18  1  0  0  0  0
 18  2  1  6  0  0  0
 18 19  1  0  0  0  0
 19 20  1  1  0  0  0
 19 21  1  0  0  0  0
 21 22  1  6  0  0  0
 23 20  1  1  0  0  0
 23 24  1  0  0  0  0
 23 29  1  0  0  0  0
 24 25  1  6  0  0  0
 24 26  1  0  0  0  0
 26 27  1  6  0  0  0
 26 28  1  0  0  0  0
 28 29  1  0  0  0  0
 28 30  1  1  0  0  0
 30 31  1  0  0  0  0
 32 27  1  6  0  0  0
 32 33  1  0  0  0  0
 32 40  1  0  0  0  0
 33 34  1  1  0  0  0
 33 35  1  0  0  0  0
 35 36  1  1  0  0  0
 35 37  1  0  0  0  0
 37 38  1  6  0  0  0
 37 39  1  0  0  0  0
 39 40  1  0  0  0  0
 39 41  1  1  0  0  0
 41 42  1  0  0  0  0
M  CHG  5   4   1  14   1  17   1  34   1  42   1
M  END
>  <CHROM.1>
-177.73409150,35.33377660,31.70759703,-56.77757117,-55.01015054,-50.88759310
-169.96060632,178.73048099,-155.56066716,140.88092174,59.37702599,-62.14771001
-172.67897015,143.19418373,-162.91357403,-161.86836290,-62.80750739,158.38378678
-54.29359481,-179.14808722,60.90933096,104.32185898,30.14881084,6.75009480
55.62753217,0.60234042,0.31627823,-1.11576869

>  <Name>
1j7t

>  <RI>
0

>  <Rbt.Current_Directory>
/home/itssahil/PROJECTS/Mol_Feturizer/New_Systems/rnas/1j7t

>  <Rbt.Executable>
rbdock ($Id: //depot/dev/client3/rdock/2013.1/src/exe/rbdock.cxx#4 $)

>  <Rbt.Library>
libRbt.so (2013.1, Build901 2013/11/27)

>  <Rbt.Parameter_File>
/export/apps/rDock/src/rDock_2013.1_src/data/scripts/dock_solv.prm

>  <Rbt.Receptor>
prm/pocket_docking_3.prm

>  <SCORE>
-40.8292

>  <SCORE.INTER>
-33.6332

>  <SCORE.INTER.CONST>
1

>  <SCORE.INTER.POLAR>
-5.96672

>  <SCORE.INTER.ROT>
9

>  <SCORE.INTER.SOLV>
22.6192

>  <SCORE.INTER.VDW>
-19.6728

>  <SCORE.INTER.norm>
-0.80079

>  <SCORE.INTRA>
-7.93077

>  <SCORE.INTRA.DIHEDRAL>
-22.2074

>  <SCORE.INTRA.DIHEDRAL.0>
46.2143

>  <SCORE.INTRA.POLAR>
0.795097

>  <SCORE.INTRA.POLAR.0>
-1.76436

>  <SCORE.INTRA.REPUL>
0.0977123

>  <SCORE.INTRA.REPUL.0>
0

>  <SCORE.INTRA.SOLV>
-1.98234

>  <SCORE.INTRA.SOLV.lig_0>
-148.643

>  <SCORE.INTRA.VDW>
0.972184

>  <SCORE.INTRA.VDW.0>
-4.83512

>  <SCORE.INTRA.norm>
-0.188828

>  <SCORE.RESTR>
0.734744

>  <SCORE.RESTR.CAVITY>
0.734744

>  <SCORE.RESTR.norm>
0.0174939

>  <SCORE.SYSTEM>
0

>  <SCORE.SYSTEM.CONST>
0

>  <SCORE.SYSTEM.DIHEDRAL>
0

>  <SCORE.SYSTEM.SOLV>
0

>  <SCORE.SYSTEM.norm>
0

>  <SCORE.heavy>
42

>  <SCORE.norm>
-0.972124

>  <RMSD>
3.740

$$$$
1j7t
 OpenBabel11021811393D
libRbt.so/2013.1/901 2013/11/27
 42 45  0  0  0  0  0  0  0  0999 V2000
   27.9475    6.1903   53.2366 C   0  0  2  0  0  0  0  0  0  0  0  0
   28.6364    5.1473   52.5017 O   0  0  0  0  0  0  0  0  0  0  0  0
   27.1174    7.0004   52.1998 C   0  0  2  0  0  0  0  0  0  0  0  0
   26.2138    6.1736   51.3491 N   0  3  0  0  0  0  0  0  0  0  0  0
   28.1036    7.7390   51.2687 C   0  0  1  0  0  0  0  0  0  0  0  0
   27.4106    8.5008   50.3207 O   0  0  0  0  0  0  0  0  0  0  0  0
   29.0500    8.6352   52.1022 C   0  0  2  0  0  0  0  0  0  0  0  0
   29.9482    9.3378   51.2662 O   0  0  0  0  0  0  0  0  0  0  0  0
   29.8391    7.7847   53.0748 C   0  0  2  0  0  0  0  0  0  0  0  0
   28.9387    7.0444   53.8893 O   0  0  0  0  0  0  0  0  0  0  0  0
   30.7038    8.6007   54.0094 C   0  0  0  0  0  0  0  0  0  0  0  0
   29.8859    9.2410   54.9698 O   0  0  0  0  0  0  0  0  0  0  0  0
   30.3022    1.6153   54.1135 C   0  0  2  0  0  0  0  0  0  0  0  0
   31.2219    0.6996   54.7895 N   0  3  0  0  0  0  0  0  0  0  0  0
   30.9962    2.2379   52.8569 C   0  0  0  0  0  0  0  0  0  0  0  0
   30.0483    3.2396   52.1700 C   0  0  2  0  0  0  0  0  0  0  0  0
   30.7026    3.8731   51.0204 N   0  3  0  0  0  0  0  0  0  0  0  0
   29.6020    4.3259   53.1683 C   0  0  2  0  0  0  0  0  0  0  0  0
   28.9391    3.7391   54.4298 C   0  0  2  0  0  0  0  0  0  0  0  0
   28.7253    4.8507   55.3210 O   0  0  0  0  0  0  0  0  0  0  0  0
   29.8731    2.6956   55.0935 C   0  0  1  0  0  0  0  0  0  0  0  0
   29.2087    2.1056   56.1767 O   0  0  0  0  0  0  0  0  0  0  0  0
   27.9501    4.7642   56.5138 C   0  0  1  0  0  0  0  0  0  0  0  0
   27.9343    6.1752   57.2029 C   0  0  2  0  0  0  0  0  0  0  0  0
   29.0198    6.3960   58.0871 O   0  0  0  0  0  0  0  0  0  0  0  0
   26.5732    6.0760   57.8773 C   0  0  2  0  0  0  0  0  0  0  0  0
   26.5912    5.0943   58.9569 O   0  0  0  0  0  0  0  0  0  0  0  0
   25.6898    5.5236   56.7674 C   0  0  2  0  0  0  0  0  0  0  0  0
   26.5504    4.5155   56.2098 O   0  0  0  0  0  0  0  0  0  0  0  0
   25.2281    6.5768   55.7075 C   0  0  0  0  0  0  0  0  0  0  0  0
   24.4851    7.6437   56.3104 O   0  0  0  0  0  0  0  0  0  0  0  0
   25.4534    5.1536   59.8134 C   0  0  2  0  0  0  0  0  0  0  0  0
   25.2234    6.5422   60.5012 C   0  0  2  0  0  0  0  0  0  0  0  0
   26.3923    6.9852   61.3203 N   0  3  0  0  0  0  0  0  0  0  0  0
   23.9285    6.4137   61.3709 C   0  0  1  0  0  0  0  0  0  0  0  0
   22.8061    6.1428   60.4467 O   0  0  0  0  0  0  0  0  0  0  0  0
   24.0174    5.2366   62.4187 C   0  0  2  0  0  0  0  0  0  0  0  0
   25.0720    5.5316   63.3490 O   0  0  0  0  0  0  0  0  0  0  0  0
   24.2914    3.8910   61.6272 C   0  0  1  0  0  0  0  0  0  0  0  0
   25.5222    4.0773   60.8503 O   0  0  0  0  0  0  0  0  0  0  0  0
   24.4230    2.6365   62.5205 C   0  0  0  0  0  0  0  0  0  0  0  0
   24.9128    1.4373   61.7880 N   0  3  0  0  0  0  0  0  0  0  0  0
  1  2  1  6  0  0  0
  1  3  1  0  0  0  0
  1 10  1  0  0  0  0
  3  4  1  6  0  0  0
  3  5  1  0  0  0  0
  5  6  1  6  0  0  0
  5  7  1  0  0  0  0
  7  8  1  6  0  0  0
  7  9  1  0  0  0  0
  9 10  1  0  0  0  0
  9 11  1  1  0  0  0
 11 12  1  0  0  0  0
 13 14  1  1  0  0  0
 13 15  1  0  0  0  0
 13 21  1  0  0  0  0
 15 16  1  0  0  0  0
 16 17  1  6  0  0  0
 16 18  1  0  0  0  0
 18  2  1  6  0  0  0
 18 19  1  0  0  0  0
 19 20  1  1  0  0  0
 19 21  1  0  0  0  0
 21 22  1  1  0  0  0
 23 20  1  6  0  0  0
 23 24  1  0  0  0  0
 23 29  1  0  0  0  0
 24 25  1  1  0  0  0
 24 26  1  0  0  0  0
 26 27  1  1  0  0  0
 26 28  1  0  0  0  0
 28 29  1  0  0  0  0
 28 30  1  6  0  0  0
 30 31  1  0  0  0  0
 32 27  1  1  0  0  0
 32 33  1  0  0  0  0
 32 40  1  0  0  0  0
 33 34  1  1  0  0  0
 33 35  1  0  0  0  0
 35 36  1  6  0  0  0
 35 37  1  0  0  0  0
 37 38  1  1  0  0  0
 37 39  1  0  0  0  0
 39 40  1  0  0  0  0
 39 41  1  1  0  0  0
 41 42  1  0  0  0  0
M  CHG  5   4   1  14   1  17   1  34   1  42   1
M  END
>  <CHROM.1>
173.01871677,174.60228238,-150.09129320,-174.64361478,66.17630771,73.24934278
171.79677754,70.99710958,-175.61236626,170.10212514,-179.31118092,64.99832797
-65.00028569,167.10306324,-57.72051597,-59.20757380,-57.31168236,54.89771170
-177.76223897,66.90822675,-169.88403359,-157.85407409,27.51236240,5.42958051
56.17923464,0.71407018,0.94320454,-0.68529537

>  <Name>
1j7t

>  <RI>
0

>  <Rbt.Current_Directory>
/home/itssahil/PROJECTS/Mol_Feturizer/New_Systems/rnas/1j7t

>  <Rbt.Executable>
rbdock ($Id: //depot/dev/client3/rdock/2013.1/src/exe/rbdock.cxx#4 $)

>  <Rbt.Library>
libRbt.so (2013.1, Build901 2013/11/27)

>  <Rbt.Parameter_File>
/export/apps/rDock/src/rDock_2013.1_src/data/scripts/dock_solv.prm

>  <Rbt.Receptor>
prm/pocket_docking_8.prm

>  <SCORE>
-43.1852

>  <SCORE.INTER>
-24.8649

>  <SCORE.INTER.CONST>
1

>  <SCORE.INTER.POLAR>
-4.59621

>  <SCORE.INTER.ROT>
9

>  <SCORE.INTER.SOLV>
15.0618

>  <SCORE.INTER.VDW>
-15.8765

>  <SCORE.INTER.norm>
-0.592021

>  <SCORE.INTRA>
-18.3203

>  <SCORE.INTRA.DIHEDRAL>
-38.3748

>  <SCORE.INTRA.DIHEDRAL.0>
46.2143

>  <SCORE.INTRA.POLAR>
1.09339

>  <SCORE.INTRA.POLAR.0>
-1.76436

>  <SCORE.INTRA.REPUL>
0

>  <SCORE.INTRA.REPUL.0>
0

>  <SCORE.INTRA.SOLV>
-5.93997

>  <SCORE.INTRA.SOLV.lig_0>
-148.643

>  <SCORE.INTRA.VDW>
0.119587

>  <SCORE.INTRA.VDW.0>
-4.83512

>  <SCORE.INTRA.norm>
-0.436197

>  <SCORE.RESTR>
0

>  <SCORE.RESTR.CAVITY>
0

>  <SCORE.RESTR.norm>
0

>  <SCORE.SYSTEM>
0

>  <SCORE.SYSTEM.CONST>
0

>  <SCORE.SYSTEM.DIHEDRAL>
0

>  <SCORE.SYSTEM.SOLV>
0

>  <SCORE.SYSTEM.norm>
0

>  <SCORE.heavy>
42

>  <SCORE.norm>
-1.02822

>  <RMSD>
3.958

$$$$
1j7t
 OpenBabel11021811393D
libRbt.so/2013.1/901 2013/11/27
 42 45  0  0  0  0  0  0  0  0999 V2000
   27.9306    8.2128   52.6106 C   0  0  2  0  0  0  0  0  0  0  0  0
   28.7749    8.5267   53.7468 O   0  0  0  0  0  0  0  0  0  0  0  0
   26.6219    7.5922   53.1783 C   0  0  2  0  0  0  0  0  0  0  0  0
   25.9429    8.4216   54.2149 N   0  3  0  0  0  0  0  0  0  0  0  0
   26.9747    6.2300   53.8146 C   0  0  1  0  0  0  0  0  0  0  0  0
   25.8280    5.6147   54.3303 O   0  0  0  0  0  0  0  0  0  0  0  0
   27.6597    5.3178   52.7696 C   0  0  2  0  0  0  0  0  0  0  0  0
   27.9720    4.0562   53.3264 O   0  0  0  0  0  0  0  0  0  0  0  0
   28.9326    5.9703   52.2735 C   0  0  2  0  0  0  0  0  0  0  0  0
   28.6280    7.2573   51.7511 O   0  0  0  0  0  0  0  0  0  0  0  0
   29.6018    5.1943   51.1613 C   0  0  0  0  0  0  0  0  0  0  0  0
   29.9290    3.8974   51.6221 O   0  0  0  0  0  0  0  0  0  0  0  0
   32.5339    7.3475   52.2209 C   0  0  2  0  0  0  0  0  0  0  0  0
   33.9791    7.2661   52.0065 N   0  3  0  0  0  0  0  0  0  0  0  0
   32.0204    8.7807   51.8594 C   0  0  0  0  0  0  0  0  0  0  0  0
   30.5074    8.8854   52.1303 C   0  0  2  0  0  0  0  0  0  0  0  0
   30.0189   10.2391   51.8476 N   0  3  0  0  0  0  0  0  0  0  0  0
   30.1994    8.5255   53.5970 C   0  0  2  0  0  0  0  0  0  0  0  0
   30.7188    7.1285   53.9891 C   0  0  2  0  0  0  0  0  0  0  0  0
   30.4989    7.0055   55.4075 O   0  0  0  0  0  0  0  0  0  0  0  0
   32.2308    7.0071   53.6715 C   0  0  1  0  0  0  0  0  0  0  0  0
   32.6550    5.6995   53.9421 O   0  0  0  0  0  0  0  0  0  0  0  0
   29.2047    6.9162   55.9977 C   0  0  1  0  0  0  0  0  0  0  0  0
   29.3398    6.2099   57.3937 C   0  0  2  0  0  0  0  0  0  0  0  0
   29.2597    4.7960   57.3334 O   0  0  0  0  0  0  0  0  0  0  0  0
   28.1702    6.8848   58.0964 C   0  0  2  0  0  0  0  0  0  0  0  0
   26.8958    6.4450   57.5376 O   0  0  0  0  0  0  0  0  0  0  0  0
   28.3559    8.3489   57.7230 C   0  0  2  0  0  0  0  0  0  0  0  0
   28.6902    8.2348   56.3291 O   0  0  0  0  0  0  0  0  0  0  0  0
   29.4498    9.1048   58.5461 C   0  0  0  0  0  0  0  0  0  0  0  0
   29.6115   10.4558   58.0961 O   0  0  0  0  0  0  0  0  0  0  0  0
   26.1850    5.5285   58.3660 C   0  0  2  0  0  0  0  0  0  0  0  0
   25.2313    4.5535   57.5952 C   0  0  2  0  0  0  0  0  0  0  0  0
   24.2042    5.2699   56.7797 N   0  3  0  0  0  0  0  0  0  0  0  0
   24.5683    3.6214   58.6636 C   0  0  1  0  0  0  0  0  0  0  0  0
   25.6528    2.8365   59.2924 O   0  0  0  0  0  0  0  0  0  0  0  0
   23.8118    4.4312   59.7875 C   0  0  2  0  0  0  0  0  0  0  0  0
   22.7238    5.1475   59.1808 O   0  0  0  0  0  0  0  0  0  0  0  0
   24.8509    5.4119   60.4734 C   0  0  1  0  0  0  0  0  0  0  0  0
   25.4185    6.2622   59.4207 O   0  0  0  0  0  0  0  0  0  0  0  0
   24.2565    6.2954   61.5938 C   0  0  0  0  0  0  0  0  0  0  0  0
   25.0866    7.4897   61.9088 N   0  3  0  0  0  0  0  0  0  0  0  0
  1  2  1  1  0  0  0
  1  3  1  0  0  0  0
  1 10  1  0  0  0  0
  3  4  1  1  0  0  0
  3  5  1  0  0  0  0
  5  6  1  6  0  0  0
  5  7  1  0  0  0  0
  7  8  1  1  0  0  0
  7  9  1  0  0  0  0
  9 10  1  0  0  0  0
  9 11  1  6  0  0  0
 11 12  1  0  0  0  0
 13 14  1  1  0  0  0
 13 15  1  0  0  0  0
 13 21  1  0  0  0  0
 15 16  1  0  0  0  0
 16 17  1  1  0  0  0
 16 18  1  0  0  0  0
 18  2  1  6  0  0  0
 18 19  1  0  0  0  0
 19 20  1  1  0  0  0
 19 21  1  0  0  0  0
 21 22  1  6  0  0  0
 23 20  1  1  0  0  0
 23 24  1  0  0  0  0
 23 29  1  0  0  0  0
 24 25  1  6  0  0  0
 24 26  1  0  0  0  0
 26 27  1  6  0  0  0
 26 28  1  0  0  0  0
 28 29  1  0  0  0  0
 28 30  1  1  0  0  0
 30 31  1  0  0  0  0
 32 27  1  6  0  0  0
 32 33  1  0  0  0  0
 32 40  1  0  0  0  0
 33 34  1  1  0  0  0
 33 35  1  0  0  0  0
 35 36  1  1  0  0  0
 35 37  1  0  0  0  0
 37 38  1  6  0  0  0
 37 39  1  0  0  0  0
 39 40  1  0  0  0  0
 39 41  1  1  0  0  0
 41 42  1  0  0  0  0
M  CHG  5   4   1  14   1  17   1  34   1  42   1
M  END
>  <CHROM.1>
151.56214264,28.64881366,158.00391693,-172.51595175,-174.20579895,-59.67191412
-176.36151009,-82.59439594,157.13543221,68.29490324,156.48354344,177.19156539
179.89166079,104.93902689,-152.71041777,177.21527444,-65.22597189,59.48545934
-70.56639309,177.37131983,-160.90553587,-83.11027511,28.11242720,6.62100815
55.61934920,0.62120641,-0.67811179,-2.03542037

>  <Name>
1j7t

>  <RI>
0

>  <Rbt.Current_Directory>
/home/itssahil/PROJECTS/Mol_Feturizer/New_Systems/rnas/1j7t

>  <Rbt.Executable>
rbdock ($Id: //depot/dev/client3/rdock/2013.1/src/exe/rbdock.cxx#4 $)

>  <Rbt.Library>
libRbt.so (2013.1, Build901 2013/11/27)

>  <Rbt.Parameter_File>
/export/apps/rDock/src/rDock_2013.1_src/data/scripts/dock_solv.prm

>  <Rbt.Receptor>
prm/pocket_docking_3.prm

>  <SCORE>
-20.995

>  <SCORE.INTER>
-18.0216

>  <SCORE.INTER.CONST>
1

>  <SCORE.INTER.POLAR>
-3.8917

>  <SCORE.INTER.ROT>
9

>  <SCORE.INTER.SOLV>
20.8282

>  <SCORE.INTER.VDW>
-15.5848

>  <SCORE.INTER.norm>
-0.429086

>  <SCORE.INTRA>
-5.80325

>  <SCORE.INTRA.DIHEDRAL>
-19.8859

>  <SCORE.INTRA.DIHEDRAL.0>
46.2143

>  <SCORE.INTRA.POLAR>
-0.5144

>  <SCORE.INTRA.POLAR.0>
-1.76436

>  <SCORE.INTRA.REPUL>
0.620002

>  <SCORE.INTRA.REPUL.0>
0

>  <SCORE.INTRA.SOLV>
0.29632

>  <SCORE.INTRA.SOLV.lig_0>
-148.643

>  <SCORE.INTRA.VDW>
2.64048

>  <SCORE.INTRA.VDW.0>
-4.83512

>  <SCORE.INTRA.norm>
-0.138173

>  <SCORE.RESTR>
2.82984

>  <SCORE.RESTR.CAVITY>
2.82984

>  <SCORE.RESTR.norm>
0.0673771

>  <SCORE.SYSTEM>
0

>  <SCORE.SYSTEM.CONST>
0

>  <SCORE.SYSTEM.DIHEDRAL>
0

>  <SCORE.SYSTEM.SOLV>
0

>  <SCORE.SYSTEM.norm>
0

>  <SCORE.heavy>
42

>  <SCORE.norm>
-0.499881

>  <RMSD>
4.047

$$$$
1j7t
 OpenBabel11021811393D
libRbt.so/2013.1/901 2013/11/27
 42 45  0  0  0  0  0  0  0  0999 V2000
   29.6092    9.0319   52.4170 C   0  0  2  0  0  0  0  0  0  0  0  0
   30.6034    8.0217   52.1110 O   0  0  0  0  0  0  0  0  0  0  0  0
   28.5648    9.0015   51.2645 C   0  0  2  0  0  0  0  0  0  0  0  0
   27.9833    7.6556   50.9921 N   0  3  0  0  0  0  0  0  0  0  0  0
   29.2604    9.4894   49.9749 C   0  0  1  0  0  0  0  0  0  0  0  0
   28.3608    9.4987   48.9025 O   0  0  0  0  0  0  0  0  0  0  0  0
   29.8597   10.8985   50.1960 C   0  0  2  0  0  0  0  0  0  0  0  0
   30.4834   11.3734   49.0193 O   0  0  0  0  0  0  0  0  0  0  0  0
   30.8789   10.8537   51.3146 C   0  0  2  0  0  0  0  0  0  0  0  0
   30.2655   10.3366   52.4887 O   0  0  0  0  0  0  0  0  0  0  0  0
   31.4267   12.2172   51.6721 C   0  0  0  0  0  0  0  0  0  0  0  0
   32.3301   12.6400   50.6689 O   0  0  0  0  0  0  0  0  0  0  0  0
   33.7480    5.8703   53.9360 C   0  0  2  0  0  0  0  0  0  0  0  0
   34.8381    5.5123   54.8442 N   0  3  0  0  0  0  0  0  0  0  0  0
   34.1201    7.1648   53.1396 C   0  0  0  0  0  0  0  0  0  0  0  0
   32.9550    7.5729   52.2178 C   0  0  2  0  0  0  0  0  0  0  0  0
   33.2656    8.8153   51.5030 N   0  3  0  0  0  0  0  0  0  0  0  0
   31.6640    7.7628   53.0381 C   0  0  2  0  0  0  0  0  0  0  0  0
   31.2881    6.5113   53.8551 C   0  0  2  0  0  0  0  0  0  0  0  0
   30.1679    6.8935   54.6765 O   0  0  0  0  0  0  0  0  0  0  0  0
   32.4775    6.0724   54.7464 C   0  0  1  0  0  0  0  0  0  0  0  0
   32.1470    4.8784   55.4008 O   0  0  0  0  0  0  0  0  0  0  0  0
   30.2682    7.8033   55.7689 C   0  0  1  0  0  0  0  0  0  0  0  0
   28.8954    7.8220   56.5312 C   0  0  2  0  0  0  0  0  0  0  0  0
   27.9636    8.7573   56.0156 O   0  0  0  0  0  0  0  0  0  0  0  0
   29.4203    8.1467   57.9227 C   0  0  2  0  0  0  0  0  0  0  0  0
   29.9405    9.5088   57.9844 O   0  0  0  0  0  0  0  0  0  0  0  0
   30.6009    7.1962   58.0647 C   0  0  2  0  0  0  0  0  0  0  0  0
   31.2078    7.3191   56.7669 O   0  0  0  0  0  0  0  0  0  0  0  0
   30.2198    5.7206   58.4156 C   0  0  0  0  0  0  0  0  0  0  0  0
   29.6517    5.0388   57.2902 O   0  0  0  0  0  0  0  0  0  0  0  0
   28.9371   10.5171   57.8946 C   0  0  2  0  0  0  0  0  0  0  0  0
   29.4156   11.9543   58.2945 C   0  0  2  0  0  0  0  0  0  0  0  0
   29.9571   12.0197   59.6859 N   0  3  0  0  0  0  0  0  0  0  0  0
   28.1922   12.9126   58.1089 C   0  0  1  0  0  0  0  0  0  0  0  0
   27.8443   12.9041   56.6714 O   0  0  0  0  0  0  0  0  0  0  0  0
   26.9308   12.4517   58.9382 C   0  0  2  0  0  0  0  0  0  0  0  0
   27.2549   12.5161   60.3366 O   0  0  0  0  0  0  0  0  0  0  0  0
   26.5563   10.9786   58.4891 C   0  0  1  0  0  0  0  0  0  0  0  0
   27.7383   10.1361   58.7046 O   0  0  0  0  0  0  0  0  0  0  0  0
   25.3415   10.3719   59.2274 C   0  0  0  0  0  0  0  0  0  0  0  0
   25.5334   10.2718   60.6997 N   0  3  0  0  0  0  0  0  0  0  0  0
  1  2  1  6  0  0  0
  1  3  1  0  0  0  0
  1 10  1  0  0  0  0
  3  4  1  6  0  0  0
  3  5  1  0  0  0  0
  5  6  1  6  0  0  0
  5  7  1  0  0  0  0
  7  8  1  6  0  0  0
  7  9  1  0  0  0  0
  9 10  1  0  0  0  0
  9 11  1  1  0  0  0
 11 12  1  0  0  0  0
 13 14  1  1  0  0  0
 13 15  1  0  0  0  0
 13 21  1  0  0  0  0
 15 16  1  0  0  0  0
 16 17  1  1  0  0  0
 16 18  1  0  0  0  0
 18  2  1  6  0  0  0
 18 19  1  0  0  0  0
 19 20  1  1  0  0  0
 19 21  1  0  0  0  0
 21 22  1  6  0  0  0
 23 20  1  6  0  0  0
 23 24  1  0  0  0  0
 23 29  1  0  0  0  0
 24 25  1  6  0  0  0
 24 26  1  0  0  0  0
 26 27  1  6  0  0  0
 26 28  1  0  0  0  0
 28 29  1  0  0  0  0
 28 30  1  6  0  0  0
 30 31  1  0  0  0  0
 32 27  1  1  0  0  0
 32 33  1  0  0  0  0
 32 40  1  0  0  0  0
 33 34  1  1  0  0  0
 33 35  1  0  0  0  0
 35 36  1  6  0  0  0
 35 37  1  0  0  0  0
 37 38  1  1  0  0  0
 37 39  1  0  0  0  0
 39 40  1  0  0  0  0
 39 41  1  1  0  0  0
 41 42  1  0  0  0  0
M  CHG  5   4   1  14   1  17   1  34   1  42   1
M  END
>  <CHROM.1>
-176.56903332,-138.91239382,76.69801526,167.96610815,-53.55926794,-74.38560489
179.30299100,41.74326161,145.54397384,-69.42090592,-172.58655645,-176.35620423
176.48271934,69.66852271,166.17448389,73.51740225,-73.47800433,48.52364474
49.65903526,69.27230321,-60.31042833,175.20995148,29.94744697,9.11591492
55.00510828,0.79985951,0.93085965,-1.14373882

>  <Name>
1j7t

>  <RI>
0

>  <Rbt.Current_Directory>
/home/itssahil/PROJECTS/Mol_Feturizer/New_Systems/rnas/1j7t

>  <Rbt.Executable>
rbdock ($Id: //depot/dev/client3/rdock/2013.1/src/exe/rbdock.cxx#4 $)

>  <Rbt.Library>
libRbt.so (2013.1, Build901 2013/11/27)

>  <Rbt.Parameter_File>
/export/apps/rDock/src/rDock_2013.1_src/data/scripts/dock_solv.prm

>  <Rbt.Receptor>
prm/pocket_docking_6.prm

>  <SCORE>
-56.0211

>  <SCORE.INTER>
-39.7058

>  <SCORE.INTER.CONST>
1

>  <SCORE.INTER.POLAR>
-5.40552

>  <SCORE.INTER.ROT>
9

>  <SCORE.INTER.SOLV>
25.2403

>  <SCORE.INTER.VDW>
-26.4656

>  <SCORE.INTER.norm>
-0.945377

>  <SCORE.INTRA>
-16.3555

>  <SCORE.INTRA.DIHEDRAL>
-29.7129

>  <SCORE.INTRA.DIHEDRAL.0>
46.2143

>  <SCORE.INTRA.POLAR>
-0.602032

>  <SCORE.INTRA.POLAR.0>
-1.76436

>  <SCORE.INTRA.REPUL>
0

>  <SCORE.INTRA.REPUL.0>
0

>  <SCORE.INTRA.SOLV>
1.34163

>  <SCORE.INTRA.SOLV.lig_0>
-148.643

>  <SCORE.INTRA.VDW>
-0.122939

>  <SCORE.INTRA.VDW.0>
-4.83512

>  <SCORE.INTRA.norm>
-0.389416

>  <SCORE.RESTR>
0.0402098

>  <SCORE.RESTR.CAVITY>
0.0402098

>  <SCORE.RESTR.norm>
0.000957377

>  <SCORE.SYSTEM>
0

>  <SCORE.SYSTEM.CONST>
0

>  <SCORE.SYSTEM.DIHEDRAL>
0

>  <SCORE.SYSTEM.SOLV>
0

>  <SCORE.SYSTEM.norm>
0

>  <SCORE.heavy>
42

>  <SCORE.norm>
-1.33384

>  <RMSD>
4.064

$$$$
1j7t
 OpenBabel11021811393D
libRbt.so/2013.1/901 2013/11/27
 42 45  0  0  0  0  0  0  0  0999 V2000
   28.5482    7.5836   50.6106 C   0  0  2  0  0  0  0  0  0  0  0  0
   28.4703    8.7535   51.4637 O   0  0  0  0  0  0  0  0  0  0  0  0
   27.4421    6.6004   51.0903 C   0  0  2  0  0  0  0  0  0  0  0  0
   26.0764    7.1945   51.1649 N   0  3  0  0  0  0  0  0  0  0  0  0
   27.8227    6.1034   52.5021 C   0  0  1  0  0  0  0  0  0  0  0  0
   26.8676    5.1989   52.9807 O   0  0  0  0  0  0  0  0  0  0  0  0
   29.2255    5.4514   52.4747 C   0  0  2  0  0  0  0  0  0  0  0  0
   29.5846    4.9697   53.7546 O   0  0  0  0  0  0  0  0  0  0  0  0
   30.2542    6.4643   52.0188 C   0  0  2  0  0  0  0  0  0  0  0  0
   29.8736    6.9822   50.7504 O   0  0  0  0  0  0  0  0  0  0  0  0
   31.6357    5.8722   51.8526 C   0  0  0  0  0  0  0  0  0  0  0  0
   32.5635    6.9071   51.5891 O   0  0  0  0  0  0  0  0  0  0  0  0
   32.2173   10.4928   50.5788 C   0  0  2  0  0  0  0  0  0  0  0  0
   33.2857   11.4813   50.4286 N   0  3  0  0  0  0  0  0  0  0  0  0
   31.0060   10.8728   49.6641 C   0  0  0  0  0  0  0  0  0  0  0  0
   29.8596    9.8615   49.8558 C   0  0  2  0  0  0  0  0  0  0  0  0
   28.6949   10.2329   49.0455 N   0  3  0  0  0  0  0  0  0  0  0  0
   29.4497    9.7912   51.3400 C   0  0  2  0  0  0  0  0  0  0  0  0
   30.6305    9.4454   52.2681 C   0  0  2  0  0  0  0  0  0  0  0  0
   30.1301    9.5717   53.6132 O   0  0  0  0  0  0  0  0  0  0  0  0
   31.8023   10.4338   52.0403 C   0  0  1  0  0  0  0  0  0  0  0  0
   32.8969   10.0383   52.8204 O   0  0  0  0  0  0  0  0  0  0  0  0
   29.6578    8.4692   54.3830 C   0  0  1  0  0  0  0  0  0  0  0  0
   29.8239    8.8154   55.9057 C   0  0  2  0  0  0  0  0  0  0  0  0
   31.0905    8.4695   56.4396 O   0  0  0  0  0  0  0  0  0  0  0  0
   28.6596    7.9971   56.4462 C   0  0  2  0  0  0  0  0  0  0  0  0
   28.9194    6.5664   56.3218 O   0  0  0  0  0  0  0  0  0  0  0  0
   27.5317    8.3454   55.4850 C   0  0  2  0  0  0  0  0  0  0  0  0
   28.2228    8.2988   54.2248 O   0  0  0  0  0  0  0  0  0  0  0  0
   26.8464    9.7266   55.7468 C   0  0  0  0  0  0  0  0  0  0  0  0
   26.5954    9.9369   57.1421 O   0  0  0  0  0  0  0  0  0  0  0  0
   28.8278    5.8515   57.5514 C   0  0  2  0  0  0  0  0  0  0  0  0
   29.5827    4.4789   57.5684 C   0  0  2  0  0  0  0  0  0  0  0  0
   29.1130    3.5447   56.5006 N   0  3  0  0  0  0  0  0  0  0  0  0
   29.3861    3.8656   58.9949 C   0  0  1  0  0  0  0  0  0  0  0  0
   30.0335    4.7826   59.9581 O   0  0  0  0  0  0  0  0  0  0  0  0
   27.8640    3.7141   59.3843 C   0  0  2  0  0  0  0  0  0  0  0  0
   27.2523    2.7787   58.4812 O   0  0  0  0  0  0  0  0  0  0  0  0
   27.1873    5.1445   59.2960 C   0  0  1  0  0  0  0  0  0  0  0  0
   27.3956    5.6495   57.9340 O   0  0  0  0  0  0  0  0  0  0  0  0
   25.6793    5.1630   59.6342 C   0  0  0  0  0  0  0  0  0  0  0  0
   25.3779    5.7646   60.9616 N   0  3  0  0  0  0  0  0  0  0  0  0
  1  2  1  1  0  0  0
  1  3  1  0  0  0  0
  1 10  1  0  0  0  0
  3  4  1  1  0  0  0
  3  5  1  0  0  0  0
  5  6  1  6  0  0  0
  5  7  1  0  0  0  0
  7  8  1  1  0  0  0
  7  9  1  0  0  0  0
  9 10  1  0  0  0  0
  9 11  1  6  0  0  0
 11 12  1  0  0  0  0
 13 14  1  1  0  0  0
 13 15  1  0  0  0  0
 13 21  1  0  0  0  0
 15 16  1  0  0  0  0
 16 17  1  6  0  0  0
 16 18  1  0  0  0  0
 18  2  1  6  0  0  0
 18 19  1  0  0  0  0
 19 20  1  1  0  0  0
 19 21  1  0  0  0  0
 21 22  1  1  0  0  0
 23 20  1  6  0  0  0
 23 24  1  0  0  0  0
 23 29  1  0  0  0  0
 24 25  1  1  0  0  0
 24 26  1  0  0  0  0
 26 27  1  6  0  0  0
 26 28  1  0  0  0  0
 28 29  1  0  0  0  0
 28 30  1  1  0  0  0
 30 31  1  0  0  0  0
 32 27  1  6  0  0  0
 32 33  1  0  0  0  0
 32 40  1  0  0  0  0
 33 34  1  6  0  0  0
 33 35  1  0  0  0  0
 35 36  1  1  0  0  0
 35 37  1  0  0  0  0
 37 38  1  6  0  0  0
 37 39  1  0  0  0  0
 39 40  1  0  0  0  0
 39 41  1  6  0  0  0
 41 42  1  0  0  0  0
M  CHG  5   4   1  14   1  17   1  34   1  42   1
M  END
>  <CHROM.1>
174.41353702,33.31721769,-58.93599861,-64.91737939,58.69353191,-172.79650339
-173.66862115,-127.03550992,169.47509714,96.62485031,154.27274095,65.02649244
-58.84649376,124.15790940,-158.80978057,-43.94943976,76.37003798,-35.97003971
-61.23389315,-89.95595106,106.46102119,92.25290838,29.12267794,7.31466153
54.36015948,1.10353468,-0.80736148,-1.41015645

>  <Name>
1j7t

>  <RI>
0

>  <Rbt.Current_Directory>
/home/itssahil/PROJECTS/Mol_Feturizer/New_Systems/rnas/1j7t

>  <Rbt.Executable>
rbdock ($Id: //depot/dev/client3/rdock/2013.1/src/exe/rbdock.cxx#4 $)

>  <Rbt.Library>
libRbt.so (2013.1, Build901 2013/11/27)

>  <Rbt.Parameter_File>
/export/apps/rDock/src/rDock_2013.1_src/data/scripts/dock_solv.prm

>  <Rbt.Receptor>
prm/pocket_docking_3.prm

>  <SCORE>
-24.5588

>  <SCORE.INTER>
-26.117

>  <SCORE.INTER.CONST>
1

>  <SCORE.INTER.POLAR>
-3.95693

>  <SCORE.INTER.ROT>
9

>  <SCORE.INTER.SOLV>
31.0871

>  <SCORE.INTER.VDW>
-24.1839

>  <SCORE.INTER.norm>
-0.621833

>  <SCORE.INTRA>
0.610683

>  <SCORE.INTRA.DIHEDRAL>
-8.22213

>  <SCORE.INTRA.DIHEDRAL.0>
46.2143

>  <SCORE.INTRA.POLAR>
0.935196

>  <SCORE.INTRA.POLAR.0>
-1.76436

>  <SCORE.INTRA.REPUL>
0.399937

>  <SCORE.INTRA.REPUL.0>
0

>  <SCORE.INTRA.SOLV>
-1.12435

>  <SCORE.INTRA.SOLV.lig_0>
-148.643

>  <SCORE.INTRA.VDW>
0.104571

>  <SCORE.INTRA.VDW.0>
-4.83512

>  <SCORE.INTRA.norm>
0.0145401

>  <SCORE.RESTR>
0.947502

>  <SCORE.RESTR.CAVITY>
0.947502

>  <SCORE.RESTR.norm>
0.0225596

>  <SCORE.SYSTEM>
0

>  <SCORE.SYSTEM.CONST>
0

>  <SCORE.SYSTEM.DIHEDRAL>
0

>  <SCORE.SYSTEM.SOLV>
0

>  <SCORE.SYSTEM.norm>
0

>  <SCORE.heavy>
42

>  <SCORE.norm>
-0.584733

>  <RMSD>
4.101

$$$$
1j7t
 OpenBabel11021811393D
libRbt.so/2013.1/901 2013/11/27
 42 45  0  0  0  0  0  0  0  0999 V2000
   28.4962    8.6644   53.7143 C   0  0  2  0  0  0  0  0  0  0  0  0
   29.7317    8.8098   54.4592 O   0  0  0  0  0  0  0  0  0  0  0  0
   27.3324    8.8304   54.7331 C   0  0  2  0  0  0  0  0  0  0  0  0
   27.3953   10.0789   55.5460 N   0  3  0  0  0  0  0  0  0  0  0  0
   27.3695    7.6288   55.7025 C   0  0  1  0  0  0  0  0  0  0  0  0
   26.3304    7.7162   56.6364 O   0  0  0  0  0  0  0  0  0  0  0  0
   27.2793    6.3039   54.9089 C   0  0  2  0  0  0  0  0  0  0  0  0
   27.2901    5.1904   55.7801 O   0  0  0  0  0  0  0  0  0  0  0  0
   28.4481    6.1972   53.9525 C   0  0  2  0  0  0  0  0  0  0  0  0
   28.4650    7.3368   53.1022 O   0  0  0  0  0  0  0  0  0  0  0  0
   28.3699    4.9830   53.0543 C   0  0  0  0  0  0  0  0  0  0  0  0
   28.5085    3.8105   53.8337 O   0  0  0  0  0  0  0  0  0  0  0  0
   32.3209    6.6522   51.9119 C   0  0  2  0  0  0  0  0  0  0  0  0
   33.5381    6.1743   51.2551 N   0  3  0  0  0  0  0  0  0  0  0  0
   32.1213    8.1769   51.6222 C   0  0  0  0  0  0  0  0  0  0  0  0
   30.8674    8.6951   52.3521 C   0  0  2  0  0  0  0  0  0  0  0  0
   30.6950   10.1353   52.1350 N   0  3  0  0  0  0  0  0  0  0  0  0
   30.9728    8.4139   53.8638 C   0  0  2  0  0  0  0  0  0  0  0  0
   31.1975    6.9219   54.1777 C   0  0  2  0  0  0  0  0  0  0  0  0
   31.4303    6.8441   55.5973 O   0  0  0  0  0  0  0  0  0  0  0  0
   32.4306    6.3885   53.4053 C   0  0  1  0  0  0  0  0  0  0  0  0
   32.5532    5.0107   53.6278 O   0  0  0  0  0  0  0  0  0  0  0  0
   30.3846    6.8222   56.5655 C   0  0  1  0  0  0  0  0  0  0  0  0
   30.4851    5.4829   57.3793 C   0  0  2  0  0  0  0  0  0  0  0  0
   29.7811    4.4003   56.7950 O   0  0  0  0  0  0  0  0  0  0  0  0
   29.9078    5.9815   58.6966 C   0  0  2  0  0  0  0  0  0  0  0  0
   28.4842    6.2763   58.5692 O   0  0  0  0  0  0  0  0  0  0  0  0
   30.6350    7.3031   58.9012 C   0  0  2  0  0  0  0  0  0  0  0  0
   30.5843    7.8512   57.5728 O   0  0  0  0  0  0  0  0  0  0  0  0
   32.0955    7.1737   59.4454 C   0  0  0  0  0  0  0  0  0  0  0  0
   32.1905    7.5952   60.8119 O   0  0  0  0  0  0  0  0  0  0  0  0
   27.7143    5.9233   59.7155 C   0  0  2  0  0  0  0  0  0  0  0  0
   27.9557    4.4683   60.2437 C   0  0  2  0  0  0  0  0  0  0  0  0
   27.6806    3.4229   59.2117 N   0  3  0  0  0  0  0  0  0  0  0  0
   27.0483    4.2824   61.5053 C   0  0  1  0  0  0  0  0  0  0  0  0
   27.5138    5.2477   62.5247 O   0  0  0  0  0  0  0  0  0  0  0  0
   25.5248    4.5615   61.2017 C   0  0  2  0  0  0  0  0  0  0  0  0
   25.0616    3.5861   60.2538 O   0  0  0  0  0  0  0  0  0  0  0  0
   25.3963    6.0369   60.6369 C   0  0  1  0  0  0  0  0  0  0  0  0
   26.2566    6.1337   59.4521 O   0  0  0  0  0  0  0  0  0  0  0  0
   23.9556    6.4611   60.2717 C   0  0  0  0  0  0  0  0  0  0  0  0
   23.2377    5.4601   59.4367 N   0  3  0  0  0  0  0  0  0  0  0  0
  1  2  1  1  0  0  0
  1  3  1  0  0  0  0
  1 10  1  0  0  0  0
  3  4  1  1  0  0  0
  3  5  1  0  0  0  0
  5  6  1  1  0  0  0
  5  7  1  0  0  0  0
  7  8  1  1  0  0  0
  7  9  1  0  0  0  0
  9 10  1  0  0  0  0
  9 11  1  6  0  0  0
 11 12  1  0  0  0  0
 13 14  1  6  0  0  0
 13 15  1  0  0  0  0
 13 21  1  0  0  0  0
 15 16  1  0  0  0  0
 16 17  1  1  0  0  0
 16 18  1  0  0  0  0
 18  2  1  1  0  0  0
 18 19  1  0  0  0  0
 19 20  1  1  0  0  0
 19 21  1  0  0  0  0
 21 22  1  6  0  0  0
 23 20  1  6  0  0  0
 23 24  1  0  0  0  0
 23 29  1  0  0  0  0
 24 25  1  6  0  0  0
 24 26  1  0  0  0  0
 26 27  1  6  0  0  0
 26 28  1  0  0  0  0
 28 29  1  0  0  0  0
 28 30  1  6  0  0  0
 30 31  1  0  0  0  0
 32 27  1  6  0  0  0
 32 33  1  0  0  0  0
 32 40  1  0  0  0  0
 33 34  1  6  0  0  0
 33 35  1  0  0  0  0
 35 36  1  1  0  0  0
 35 37  1  0  0  0  0
 37 38  1  6  0  0  0
 37 39  1  0  0  0  0
 39 40  1  0  0  0  0
 39 41  1  6  0  0  0
 41 42  1  0  0  0  0
M  CHG  5   4   1  14   1  17   1  34   1  42   1
M  END
>  <CHROM.1>
165.99612136,33.34310348,17.80823315,-64.91844506,66.11676939,-66.59560307
50.37686726,-59.28281154,-45.85355272,82.38405538,119.67516113,70.07748188
-55.28578614,142.18150725,-49.65301288,-107.94049658,-64.84402765,-77.46418257
-52.98036648,66.18660375,-48.58404445,3.47228223,28.90879573,6.48948648,56.55159668
1.01414009,-0.00080305,-1.28420868

>  <Name>
1j7t

>  <RI>
0

>  <Rbt.Current_Directory>
/home/itssahil/PROJECTS/Mol_Feturizer/New_Systems/rnas/1j7t

>  <Rbt.Executable>
rbdock ($Id: //depot/dev/client3/rdock/2013.1/src/exe/rbdock.cxx#4 $)

>  <Rbt.Library>
libRbt.so (2013.1, Build901 2013/11/27)

>  <Rbt.Parameter_File>
/export/apps/rDock/src/rDock_2013.1_src/data/scripts/dock_solv.prm

>  <Rbt.Receptor>
prm/pocket_docking_3.prm

>  <SCORE>
-33.2313

>  <SCORE.INTER>
-23.7965

>  <SCORE.INTER.CONST>
1

>  <SCORE.INTER.POLAR>
-4.69232

>  <SCORE.INTER.ROT>
9

>  <SCORE.INTER.SOLV>
23.0327

>  <SCORE.INTER.VDW>
-17.5008

>  <SCORE.INTER.norm>
-0.566584

>  <SCORE.INTRA>
-10.462

>  <SCORE.INTRA.DIHEDRAL>
-12.4209

>  <SCORE.INTRA.DIHEDRAL.0>
46.2143

>  <SCORE.INTRA.POLAR>
-1.47637

>  <SCORE.INTRA.POLAR.0>
-1.76436

>  <SCORE.INTRA.REPUL>
0

>  <SCORE.INTRA.REPUL.0>
0

>  <SCORE.INTRA.SOLV>
4.20704

>  <SCORE.INTRA.SOLV.lig_0>
-148.643

>  <SCORE.INTRA.VDW>
-1.33539

>  <SCORE.INTRA.VDW.0>
-4.83512

>  <SCORE.INTRA.norm>
-0.249095

>  <SCORE.RESTR>
1.02723

>  <SCORE.RESTR.CAVITY>
1.02723

>  <SCORE.RESTR.norm>
0.0244578

>  <SCORE.SYSTEM>
0

>  <SCORE.SYSTEM.CONST>
0

>  <SCORE.SYSTEM.DIHEDRAL>
0

>  <SCORE.SYSTEM.SOLV>
0

>  <SCORE.SYSTEM.norm>
0

>  <SCORE.heavy>
42

>  <SCORE.norm>
-0.79122

>  <RMSD>
4.177

$$$$
1j7t
 OpenBabel11021811393D
libRbt.so/2013.1/901 2013/11/27
 42 45  0  0  0  0  0  0  0  0999 V2000
   30.9289   10.5288   51.7765 C   0  0  2  0  0  0  0  0  0  0  0  0
   31.5230    9.2446   51.4599 O   0  0  0  0  0  0  0  0  0  0  0  0
   29.6099   10.6303   50.9578 C   0  0  2  0  0  0  0  0  0  0  0  0
   28.6781    9.4806   51.1411 N   0  3  0  0  0  0  0  0  0  0  0  0
   29.9804   10.7088   49.4607 C   0  0  1  0  0  0  0  0  0  0  0  0
   28.8287   10.8184   48.6726 O   0  0  0  0  0  0  0  0  0  0  0  0
   30.9280   11.9060   49.2107 C   0  0  2  0  0  0  0  0  0  0  0  0
   31.2628   12.0089   47.8409 O   0  0  0  0  0  0  0  0  0  0  0  0
   32.1960   11.7355   50.0202 C   0  0  2  0  0  0  0  0  0  0  0  0
   31.8602   11.5893   51.3942 O   0  0  0  0  0  0  0  0  0  0  0  0
   33.1262   12.9238   49.9217 C   0  0  0  0  0  0  0  0  0  0  0  0
   32.8023   13.8609   50.9308 O   0  0  0  0  0  0  0  0  0  0  0  0
   33.7542    6.3381   53.5629 C   0  0  2  0  0  0  0  0  0  0  0  0
   34.7816    5.7180   54.4002 N   0  3  0  0  0  0  0  0  0  0  0  0
   34.4139    6.9876   52.3013 C   0  0  0  0  0  0  0  0  0  0  0  0
   33.3415    7.6839   51.4419 C   0  0  2  0  0  0  0  0  0  0  0  0
   33.9499    8.3445   50.2823 N   0  3  0  0  0  0  0  0  0  0  0  0
   32.5753    8.7252   52.2811 C   0  0  2  0  0  0  0  0  0  0  0  0
   31.9376    8.1181   53.5459 C   0  0  2  0  0  0  0  0  0  0  0  0
   31.4021    9.2270   54.2935 O   0  0  0  0  0  0  0  0  0  0  0  0
   33.0079    7.3760   54.3859 C   0  0  1  0  0  0  0  0  0  0  0  0
   32.3865    6.7495   55.4742 O   0  0  0  0  0  0  0  0  0  0  0  0
   30.8177    9.0944   55.5866 C   0  0  1  0  0  0  0  0  0  0  0  0
   29.5355    9.9989   55.6507 C   0  0  2  0  0  0  0  0  0  0  0  0
   29.7922   11.3333   56.0537 O   0  0  0  0  0  0  0  0  0  0  0  0
   28.7341    9.1749   56.6487 C   0  0  2  0  0  0  0  0  0  0  0  0
   29.3365    9.2256   57.9769 O   0  0  0  0  0  0  0  0  0  0  0  0
   28.9008    7.7567   56.1213 C   0  0  2  0  0  0  0  0  0  0  0  0
   30.3001    7.7513   55.7903 O   0  0  0  0  0  0  0  0  0  0  0  0
   27.9906    7.3964   54.9017 C   0  0  0  0  0  0  0  0  0  0  0  0
   28.5002    7.9465   53.6803 O   0  0  0  0  0  0  0  0  0  0  0  0
   29.2227   10.4939   58.6171 C   0  0  2  0  0  0  0  0  0  0  0  0
   30.5006   10.9485   59.4011 C   0  0  2  0  0  0  0  0  0  0  0  0
   30.9088    9.9760   60.4599 N   0  3  0  0  0  0  0  0  0  0  0  0
   30.1897   12.3584   60.0056 C   0  0  1  0  0  0  0  0  0  0  0  0
   29.9676   13.2812   58.8713 O   0  0  0  0  0  0  0  0  0  0  0  0
   28.9007   12.3558   60.9165 C   0  0  2  0  0  0  0  0  0  0  0  0
   29.1419   11.5025   62.0472 O   0  0  0  0  0  0  0  0  0  0  0  0
   27.6808   11.8437   60.0437 C   0  0  1  0  0  0  0  0  0  0  0  0
   28.0336   10.5173   59.5248 O   0  0  0  0  0  0  0  0  0  0  0  0
   26.3365   11.7665   60.8026 C   0  0  0  0  0  0  0  0  0  0  0  0
   25.4697   12.9580   60.5937 N   0  3  0  0  0  0  0  0  0  0  0  0
  1  2  1  6  0  0  0
  1  3  1  0  0  0  0
  1 10  1  0  0  0  0
  3  4  1  6  0  0  0
  3  5  1  0  0  0  0
  5  6  1  6  0  0  0
  5  7  1  0  0  0  0
  7  8  1  6  0  0  0
  7  9  1  0  0  0  0
  9 10  1  0  0  0  0
  9 11  1  1  0  0  0
 11 12  1  0  0  0  0
 13 14  1  1  0  0  0
 13 15  1  0  0  0  0
 13 21  1  0  0  0  0
 15 16  1  0  0  0  0
 16 17  1  6  0  0  0
 16 18  1  0  0  0  0
 18  2  1  6  0  0  0
 18 19  1  0  0  0  0
 19 20  1  1  0  0  0
 19 21  1  0  0  0  0
 21 22  1  1  0  0  0
 23 20  1  6  0  0  0
 23 24  1  0  0  0  0
 23 29  1  0  0  0  0
 24 25  1  1  0  0  0
 24 26  1  0  0  0  0
 26 27  1  1  0  0  0
 26 28  1  0  0  0  0
 28 29  1  0  0  0  0
 28 30  1  6  0  0  0
 30 31  1  0  0  0  0
 32 27  1  1  0  0  0
 32 33  1  0  0  0  0
 32 40  1  0  0  0  0
 33 34  1  1  0  0  0
 33 35  1  0  0  0  0
 35 36  1  6  0  0  0
 35 37  1  0  0  0  0
 37 38  1  1  0  0  0
 37 39  1  0  0  0  0
 39 40  1  0  0  0  0
 39 41  1  1  0  0  0
 41 42  1  0  0  0  0
M  CHG  5   4   1  14   1  17   1  34   1  42   1
M  END
>  <CHROM.1>
-165.52595583,-158.90510587,-178.32124725,60.82747115,-54.88643902,88.97376886
-61.97334082,-34.38610059,-63.16022775,-174.94486551,-138.52736521,-69.11957333
-171.71634669,69.97535801,-139.62864485,77.74511166,-176.44463853,85.44328670
-167.67229774,171.32469035,97.00952241,11.26144247,30.54374146,9.97902713
54.72784144,0.97371962,0.93269942,-1.20435882

>  <Name>
1j7t

>  <RI>
0

>  <Rbt.Current_Directory>
/home/itssahil/PROJECTS/Mol_Feturizer/New_Systems/rnas/1j7t

>  <Rbt.Executable>
rbdock ($Id: //depot/dev/client3/rdock/2013.1/src/exe/rbdock.cxx#4 $)

>  <Rbt.Library>
libRbt.so (2013.1, Build901 2013/11/27)

>  <Rbt.Parameter_File>
/export/apps/rDock/src/rDock_2013.1_src/data/scripts/dock_solv.prm

>  <Rbt.Receptor>
prm/blind_docking_100.prm

>  <SCORE>
-31.7508

>  <SCORE.INTER>
-44.4393

>  <SCORE.INTER.CONST>
1

>  <SCORE.INTER.POLAR>
-8.0586

>  <SCORE.INTER.ROT>
9

>  <SCORE.INTER.SOLV>
37.2044

>  <SCORE.INTER.VDW>
-24.7657

>  <SCORE.INTER.norm>
-1.05808

>  <SCORE.INTRA>
-4.81583

>  <SCORE.INTRA.DIHEDRAL>
-15.9478

>  <SCORE.INTRA.DIHEDRAL.0>
46.2143

>  <SCORE.INTRA.POLAR>
0.935929

>  <SCORE.INTRA.POLAR.0>
-1.76436

>  <SCORE.INTRA.REPUL>
0.0270158

>  <SCORE.INTRA.REPUL.0>
0

>  <SCORE.INTRA.SOLV>
-1.99518

>  <SCORE.INTRA.SOLV.lig_0>
-148.643

>  <SCORE.INTRA.VDW>
0.838445

>  <SCORE.INTRA.VDW.0>
-4.83512

>  <SCORE.INTRA.norm>
-0.114663

>  <SCORE.RESTR>
17.5043

>  <SCORE.RESTR.CAVITY>
17.5043

>  <SCORE.RESTR.norm>
0.41677

>  <SCORE.SYSTEM>
0

>  <SCORE.SYSTEM.CONST>
0

>  <SCORE.SYSTEM.DIHEDRAL>
0

>  <SCORE.SYSTEM.SOLV>
0

>  <SCORE.SYSTEM.norm>
0

>  <SCORE.heavy>
42

>  <SCORE.norm>
-0.755971

>  <RMSD>
4.200

$$$$
1j7t
 OpenBabel11021811393D
libRbt.so/2013.1/901 2013/11/27
 42 45  0  0  0  0  0  0  0  0999 V2000
   28.0383    6.4128   53.9398 C   0  0  2  0  0  0  0  0  0  0  0  0
   28.4233    5.1026   53.4525 O   0  0  0  0  0  0  0  0  0  0  0  0
   26.6882    6.7707   53.2547 C   0  0  2  0  0  0  0  0  0  0  0  0
   25.6227    5.7393   53.4112 N   0  3  0  0  0  0  0  0  0  0  0  0
   26.9521    6.9571   51.7446 C   0  0  1  0  0  0  0  0  0  0  0  0
   25.7706    7.2979   51.0757 O   0  0  0  0  0  0  0  0  0  0  0  0
   28.0348    8.0402   51.5250 C   0  0  2  0  0  0  0  0  0  0  0  0
   28.2764    8.2421   50.1466 O   0  0  0  0  0  0  0  0  0  0  0  0
   29.3243    7.6220   52.1990 C   0  0  2  0  0  0  0  0  0  0  0  0
   29.0760    7.3772   53.5776 O   0  0  0  0  0  0  0  0  0  0  0  0
   30.4000    8.6827   52.1304 C   0  0  0  0  0  0  0  0  0  0  0  0
   30.8360    8.8260   50.7922 O   0  0  0  0  0  0  0  0  0  0  0  0
   30.5927    1.7443   54.8177 C   0  0  2  0  0  0  0  0  0  0  0  0
   31.6230    0.9272   55.4597 N   0  3  0  0  0  0  0  0  0  0  0  0
   31.2284    2.6043   53.6754 C   0  0  0  0  0  0  0  0  0  0  0  0
   30.1562    3.5023   53.0292 C   0  0  2  0  0  0  0  0  0  0  0  0
   30.7457    4.3550   51.9916 N   0  3  0  0  0  0  0  0  0  0  0  0
   29.4829    4.3863   54.0973 C   0  0  2  0  0  0  0  0  0  0  0  0
   28.8715    3.5662   55.2500 C   0  0  2  0  0  0  0  0  0  0  0  0
   28.4277    4.5250   56.2293 O   0  0  0  0  0  0  0  0  0  0  0  0
   29.9383    2.6274   55.8683 C   0  0  1  0  0  0  0  0  0  0  0  0
   29.3344    1.8227   56.8434 O   0  0  0  0  0  0  0  0  0  0  0  0
   27.5266    4.2087   57.2872 C   0  0  1  0  0  0  0  0  0  0  0  0
   27.6834    5.2883   58.4167 C   0  0  2  0  0  0  0  0  0  0  0  0
   28.6901    4.9847   59.3672 O   0  0  0  0  0  0  0  0  0  0  0  0
   26.2618    5.2477   58.9595 C   0  0  2  0  0  0  0  0  0  0  0  0
   25.9932    3.9834   59.6372 O   0  0  0  0  0  0  0  0  0  0  0  0
   25.4192    5.2787   57.6921 C   0  0  2  0  0  0  0  0  0  0  0  0
   26.1455    4.3590   56.8588 O   0  0  0  0  0  0  0  0  0  0  0  0
   25.2638    6.6912   57.0391 C   0  0  0  0  0  0  0  0  0  0  0  0
   24.6216    7.6163   57.9255 O   0  0  0  0  0  0  0  0  0  0  0  0
   25.5098    4.1312   60.9699 C   0  0  2  0  0  0  0  0  0  0  0  0
   26.4908    4.8681   61.9440 C   0  0  2  0  0  0  0  0  0  0  0  0
   27.8202    4.1937   62.0492 N   0  3  0  0  0  0  0  0  0  0  0  0
   25.7780    4.9521   63.3349 C   0  0  1  0  0  0  0  0  0  0  0  0
   24.5657    5.7802   63.1557 O   0  0  0  0  0  0  0  0  0  0  0  0
   25.3475    3.5352   63.8811 C   0  0  2  0  0  0  0  0  0  0  0  0
   26.5318    2.7538   64.1079 O   0  0  0  0  0  0  0  0  0  0  0  0
   24.3953    2.8612   62.8082 C   0  0  1  0  0  0  0  0  0  0  0  0
   25.1306    2.8009   61.5397 O   0  0  0  0  0  0  0  0  0  0  0  0
   23.8968    1.4488   63.1899 C   0  0  0  0  0  0  0  0  0  0  0  0
   22.8525    0.9213   62.2702 N   0  3  0  0  0  0  0  0  0  0  0  0
  1  2  1  6  0  0  0
  1  3  1  0  0  0  0
  1 10  1  0  0  0  0
  3  4  1  6  0  0  0
  3  5  1  0  0  0  0
  5  6  1  6  0  0  0
  5  7  1  0  0  0  0
  7  8  1  6  0  0  0
  7  9  1  0  0  0  0
  9 10  1  0  0  0  0
  9 11  1  1  0  0  0
 11 12  1  0  0  0  0
 13 14  1  1  0  0  0
 13 15  1  0  0  0  0
 13 21  1  0  0  0  0
 15 16  1  0  0  0  0
 16 17  1  6  0  0  0
 16 18  1  0  0  0  0
 18  2  1  6  0  0  0
 18 19  1  0  0  0  0
 19 20  1  1  0  0  0
 19 21  1  0  0  0  0
 21 22  1  1  0  0  0
 23 20  1  6  0  0  0
 23 24  1  0  0  0  0
 23 29  1  0  0  0  0
 24 25  1  1  0  0  0
 24 26  1  0  0  0  0
 26 27  1  6  0  0  0
 26 28  1  0  0  0  0
 28 29  1  0  0  0  0
 28 30  1  6  0  0  0
 30 31  1  0  0  0  0
 32 27  1  6  0  0  0
 32 33  1  0  0  0  0
 32 40  1  0  0  0  0
 33 34  1  1  0  0  0
 33 35  1  0  0  0  0
 35 36  1  6  0  0  0
 35 37  1  0  0  0  0
 37 38  1  6  0  0  0
 37 39  1  0  0  0  0
 39 40  1  0  0  0  0
 39 41  1  1  0  0  0
 41 42  1  0  0  0  0
M  CHG  5   4   1  14   1  17   1  34   1  42   1
M  END
>  <CHROM.1>
-167.60433843,-150.23502484,-44.93795697,-172.31465166,-27.24214524,-68.55292579
-60.09645454,-48.47047436,-60.87957140,164.28492998,159.41863125,67.31299988
60.18030498,125.98405592,-60.87551653,-60.94927962,61.80045909,172.52693814
-179.89361018,178.15650730,171.50921872,-54.49658097,27.46933488,4.82643511
56.82932449,1.10911090,0.73296508,-0.96483524

>  <Name>
1j7t

>  <RI>
0

>  <Rbt.Current_Directory>
/home/itssahil/PROJECTS/Mol_Feturizer/New_Systems/rnas/1j7t

>  <Rbt.Executable>
rbdock ($Id: //depot/dev/client3/rdock/2013.1/src/exe/rbdock.cxx#4 $)

>  <Rbt.Library>
libRbt.so (2013.1, Build901 2013/11/27)

>  <Rbt.Parameter_File>
/export/apps/rDock/src/rDock_2013.1_src/data/scripts/dock_solv.prm

>  <Rbt.Receptor>
prm/pocket_docking_5.prm

>  <SCORE>
-43.1319

>  <SCORE.INTER>
-27.2832

>  <SCORE.INTER.CONST>
1

>  <SCORE.INTER.POLAR>
-5.03689

>  <SCORE.INTER.ROT>
9

>  <SCORE.INTER.SOLV>
15.5268

>  <SCORE.INTER.VDW>
-16.1748

>  <SCORE.INTER.norm>
-0.6496

>  <SCORE.INTRA>
-15.8493

>  <SCORE.INTRA.DIHEDRAL>
-25.3085

>  <SCORE.INTRA.DIHEDRAL.0>
46.2143

>  <SCORE.INTRA.POLAR>
-0.0436711

>  <SCORE.INTRA.POLAR.0>
-1.76436

>  <SCORE.INTRA.REPUL>
0

>  <SCORE.INTRA.REPUL.0>
0

>  <SCORE.INTRA.SOLV>
-1.54935

>  <SCORE.INTRA.SOLV.lig_0>
-148.643

>  <SCORE.INTRA.VDW>
-2.27188

>  <SCORE.INTRA.VDW.0>
-4.83512

>  <SCORE.INTRA.norm>
-0.377364

>  <SCORE.RESTR>
0.000612877

>  <SCORE.RESTR.CAVITY>
0.000612877

>  <SCORE.RESTR.norm>
1.45923e-05

>  <SCORE.SYSTEM>
0

>  <SCORE.SYSTEM.CONST>
0

>  <SCORE.SYSTEM.DIHEDRAL>
0

>  <SCORE.SYSTEM.SOLV>
0

>  <SCORE.SYSTEM.norm>
0

>  <SCORE.heavy>
42

>  <SCORE.norm>
-1.02695

>  <RMSD>
4.212

$$$$
1j7t
 OpenBabel11021811393D
libRbt.so/2013.1/901 2013/11/27
 42 45  0  0  0  0  0  0  0  0999 V2000
   28.1375    6.2661   51.5120 C   0  0  2  0  0  0  0  0  0  0  0  0
   27.8829    7.5993   52.0220 O   0  0  0  0  0  0  0  0  0  0  0  0
   26.7916    5.4895   51.5865 C   0  0  2  0  0  0  0  0  0  0  0  0
   25.6452    6.1735   50.9221 N   0  3  0  0  0  0  0  0  0  0  0  0
   26.4321    5.2961   53.0759 C   0  0  1  0  0  0  0  0  0  0  0  0
   25.2329    4.5859   53.2058 O   0  0  0  0  0  0  0  0  0  0  0  0
   27.5815    4.5638   53.8083 C   0  0  2  0  0  0  0  0  0  0  0  0
   27.2632    4.3573   55.1703 O   0  0  0  0  0  0  0  0  0  0  0  0
   28.8533    5.3797   53.7139 C   0  0  2  0  0  0  0  0  0  0  0  0
   29.1535    5.6254   52.3458 O   0  0  0  0  0  0  0  0  0  0  0  0
   30.0541    4.6760   54.3053 C   0  0  0  0  0  0  0  0  0  0  0  0
   30.9774    5.6372   54.7796 O   0  0  0  0  0  0  0  0  0  0  0  0
   31.7655    9.2007   51.5643 C   0  0  2  0  0  0  0  0  0  0  0  0
   32.8641   10.1602   51.4464 N   0  3  0  0  0  0  0  0  0  0  0  0
   30.7544    9.3994   50.3867 C   0  0  0  0  0  0  0  0  0  0  0  0
   29.5711    8.4239   50.5343 C   0  0  2  0  0  0  0  0  0  0  0  0
   28.5862    8.6331   49.4678 N   0  3  0  0  0  0  0  0  0  0  0  0
   28.8902    8.6108   51.9043 C   0  0  2  0  0  0  0  0  0  0  0  0
   29.8695    8.4478   53.0832 C   0  0  2  0  0  0  0  0  0  0  0  0
   29.1298    8.8026   54.2674 O   0  0  0  0  0  0  0  0  0  0  0  0
   31.0840    9.3947   52.9096 C   0  0  1  0  0  0  0  0  0  0  0  0
   32.0052    9.1557   53.9378 O   0  0  0  0  0  0  0  0  0  0  0  0
   29.0544    7.9744   55.4249 C   0  0  1  0  0  0  0  0  0  0  0  0
   30.1292    8.4635   56.4601 C   0  0  2  0  0  0  0  0  0  0  0  0
   31.4055    7.8716   56.2875 O   0  0  0  0  0  0  0  0  0  0  0  0
   29.4063    8.0580   57.7368 C   0  0  2  0  0  0  0  0  0  0  0  0
   29.3441    6.6058   57.8677 O   0  0  0  0  0  0  0  0  0  0  0  0
   27.9898    8.5593   57.4924 C   0  0  2  0  0  0  0  0  0  0  0  0
   27.7938    8.1667   56.1230 O   0  0  0  0  0  0  0  0  0  0  0  0
   27.7867   10.0938   57.7153 C   0  0  0  0  0  0  0  0  0  0  0  0
   26.4047   10.4630   57.6275 O   0  0  0  0  0  0  0  0  0  0  0  0
   28.4996    6.1546   58.9236 C   0  0  2  0  0  0  0  0  0  0  0  0
   28.9535    6.5929   60.3575 C   0  0  2  0  0  0  0  0  0  0  0  0
   30.3347    6.1329   60.6953 N   0  3  0  0  0  0  0  0  0  0  0  0
   27.8976    6.0273   61.3650 C   0  0  1  0  0  0  0  0  0  0  0  0
   26.6044    6.6730   61.0514 O   0  0  0  0  0  0  0  0  0  0  0  0
   27.7247    4.4630   61.2463 C   0  0  2  0  0  0  0  0  0  0  0  0
   28.9669    3.8373   61.6070 O   0  0  0  0  0  0  0  0  0  0  0  0
   27.3075    4.1243   59.7552 C   0  0  1  0  0  0  0  0  0  0  0  0
   28.3452    4.6674   58.8710 O   0  0  0  0  0  0  0  0  0  0  0  0
   27.1145    2.6177   59.4692 C   0  0  0  0  0  0  0  0  0  0  0  0
   26.5366    2.3396   58.1263 N   0  3  0  0  0  0  0  0  0  0  0  0
  1  2  1  1  0  0  0
  1  3  1  0  0  0  0
  1 10  1  0  0  0  0
  3  4  1  6  0  0  0
  3  5  1  0  0  0  0
  5  6  1  6  0  0  0
  5  7  1  0  0  0  0
  7  8  1  1  0  0  0
  7  9  1  0  0  0  0
  9 10  1  0  0  0  0
  9 11  1  6  0  0  0
 11 12  1  0  0  0  0
 13 14  1  6  0  0  0
 13 15  1  0  0  0  0
 13 21  1  0  0  0  0
 15 16  1  0  0  0  0
 16 17  1  6  0  0  0
 16 18  1  0  0  0  0
 18  2  1  1  0  0  0
 18 19  1  0  0  0  0
 19 20  1  1  0  0  0
 19 21  1  0  0  0  0
 21 22  1  1  0  0  0
 23 20  1  6  0  0  0
 23 24  1  0  0  0  0
 23 29  1  0  0  0  0
 24 25  1  6  0  0  0
 24 26  1  0  0  0  0
 26 27  1  6  0  0  0
 26 28  1  0  0  0  0
 28 29  1  0  0  0  0
 28 30  1  6  0  0  0
 30 31  1  0  0  0  0
 32 27  1  6  0  0  0
 32 33  1  0  0  0  0
 32 40  1  0  0  0  0
 33 34  1  1  0  0  0
 33 35  1  0  0  0  0
 35 36  1  6  0  0  0
 35 37  1  0  0  0  0
 37 38  1  6  0  0  0
 37 39  1  0  0  0  0
 39 40  1  0  0  0  0
 39 41  1  1  0  0  0
 41 42  1  0  0  0  0
M  CHG  5   4   1  14   1  17   1  34   1  42   1
M  END
>  <CHROM.1>
-171.19957439,38.32277415,-55.49991721,-70.97034488,68.21667014,-151.58660072
-165.13478497,103.81921529,33.55016632,128.27799970,96.65438826,-50.91142204
-41.44032293,-170.48916384,-62.86199767,-172.88661399,-45.71385605,81.95567022
-54.41689846,51.39494992,171.69999290,-44.34490363,28.71157973,6.78951051
55.48895402,1.30970277,-0.88100113,-1.44652876

>  <Name>
1j7t

>  <RI>
0

>  <Rbt.Current_Directory>
/home/itssahil/PROJECTS/Mol_Feturizer/New_Systems/rnas/1j7t

>  <Rbt.Executable>
rbdock ($Id: //depot/dev/client3/rdock/2013.1/src/exe/rbdock.cxx#4 $)

>  <Rbt.Library>
libRbt.so (2013.1, Build901 2013/11/27)

>  <Rbt.Parameter_File>
/export/apps/rDock/src/rDock_2013.1_src/data/scripts/dock_solv.prm

>  <Rbt.Receptor>
prm/pocket_docking_5.prm

>  <SCORE>
-42.9731

>  <SCORE.INTER>
-36.2384

>  <SCORE.INTER.CONST>
1

>  <SCORE.INTER.POLAR>
-7.18783

>  <SCORE.INTER.ROT>
9

>  <SCORE.INTER.SOLV>
34.202

>  <SCORE.INTER.VDW>
-21.2002

>  <SCORE.INTER.norm>
-0.86282

>  <SCORE.INTRA>
-6.73467

>  <SCORE.INTRA.DIHEDRAL>
-16.7658

>  <SCORE.INTRA.DIHEDRAL.0>
46.2143

>  <SCORE.INTRA.POLAR>
0.848061

>  <SCORE.INTRA.POLAR.0>
-1.76436

>  <SCORE.INTRA.REPUL>
0

>  <SCORE.INTRA.REPUL.0>
0

>  <SCORE.INTRA.SOLV>
-0.695401

>  <SCORE.INTRA.SOLV.lig_0>
-148.643

>  <SCORE.INTRA.VDW>
-0.887451

>  <SCORE.INTRA.VDW.0>
-4.83512

>  <SCORE.INTRA.norm>
-0.160349

>  <SCORE.RESTR>
0

>  <SCORE.RESTR.CAVITY>
0

>  <SCORE.RESTR.norm>
0

>  <SCORE.SYSTEM>
0

>  <SCORE.SYSTEM.CONST>
0

>  <SCORE.SYSTEM.DIHEDRAL>
0

>  <SCORE.SYSTEM.SOLV>
0

>  <SCORE.SYSTEM.norm>
0

>  <SCORE.heavy>
42

>  <SCORE.norm>
-1.02317

>  <RMSD>
4.272

$$$$
1j7t
 OpenBabel11021811393D
libRbt.so/2013.1/901 2013/11/27
 42 45  0  0  0  0  0  0  0  0999 V2000
   28.4483    6.3308   52.3762 C   0  0  2  0  0  0  0  0  0  0  0  0
   28.4281    7.6883   52.8856 O   0  0  0  0  0  0  0  0  0  0  0  0
   26.9768    5.8263   52.3767 C   0  0  2  0  0  0  0  0  0  0  0  0
   26.0172    6.7170   51.6629 N   0  3  0  0  0  0  0  0  0  0  0  0
   26.5124    5.7056   53.8446 C   0  0  1  0  0  0  0  0  0  0  0  0
   25.1944    5.2381   53.9083 O   0  0  0  0  0  0  0  0  0  0  0  0
   27.4621    4.7670   54.6260 C   0  0  2  0  0  0  0  0  0  0  0  0
   27.0420    4.6255   55.9686 O   0  0  0  0  0  0  0  0  0  0  0  0
   28.8695    5.3243   54.6024 C   0  0  2  0  0  0  0  0  0  0  0  0
   29.2797    5.5076   53.2533 O   0  0  0  0  0  0  0  0  0  0  0  0
   29.8823    4.4038   55.2459 C   0  0  0  0  0  0  0  0  0  0  0  0
   31.1785    4.9500   55.0947 O   0  0  0  0  0  0  0  0  0  0  0  0
   31.8753    9.1221   50.9085 C   0  0  2  0  0  0  0  0  0  0  0  0
   32.8788   10.0334   50.3571 N   0  3  0  0  0  0  0  0  0  0  0  0
   30.4888    9.3817   50.2313 C   0  0  0  0  0  0  0  0  0  0  0  0
   29.4188    8.4578   50.8437 C   0  0  2  0  0  0  0  0  0  0  0  0
   28.1011    8.7253   50.2579 N   0  3  0  0  0  0  0  0  0  0  0  0
   29.3504    8.6556   52.3707 C   0  0  2  0  0  0  0  0  0  0  0  0
   30.7099    8.4329   53.0616 C   0  0  2  0  0  0  0  0  0  0  0  0
   30.5213    8.8036   54.4408 O   0  0  0  0  0  0  0  0  0  0  0  0
   31.7968    9.3273   52.4130 C   0  0  1  0  0  0  0  0  0  0  0  0
   33.0396    9.0334   52.9893 O   0  0  0  0  0  0  0  0  0  0  0  0
   29.6499    8.1092   55.3295 C   0  0  1  0  0  0  0  0  0  0  0  0
   30.2739    8.1442   56.7701 C   0  0  2  0  0  0  0  0  0  0  0  0
   31.1703    7.0787   57.0349 O   0  0  0  0  0  0  0  0  0  0  0  0
   28.9805    8.1029   57.5718 C   0  0  2  0  0  0  0  0  0  0  0  0
   28.3227    6.8066   57.4428 O   0  0  0  0  0  0  0  0  0  0  0  0
   28.1134    9.1319   56.8602 C   0  0  2  0  0  0  0  0  0  0  0  0
   28.3899    8.8175   55.4845 O   0  0  0  0  0  0  0  0  0  0  0  0
   28.4333   10.6211   57.2150 C   0  0  0  0  0  0  0  0  0  0  0  0
   29.6602   11.0561   56.6156 O   0  0  0  0  0  0  0  0  0  0  0  0
   27.6876    6.3574   58.6371 C   0  0  2  0  0  0  0  0  0  0  0  0
   28.6618    5.7789   59.7190 C   0  0  2  0  0  0  0  0  0  0  0  0
   29.4734    4.6299   59.2144 N   0  3  0  0  0  0  0  0  0  0  0  0
   27.7871    5.3672   60.9499 C   0  0  1  0  0  0  0  0  0  0  0  0
   27.1631    6.6010   61.4751 O   0  0  0  0  0  0  0  0  0  0  0  0
   26.6463    4.3457   60.5673 C   0  0  2  0  0  0  0  0  0  0  0  0
   27.2574    3.1278   60.1114 O   0  0  0  0  0  0  0  0  0  0  0  0
   25.7470    5.0086   59.4430 C   0  0  1  0  0  0  0  0  0  0  0  0
   26.6256    5.3527   58.3192 O   0  0  0  0  0  0  0  0  0  0  0  0
   24.5851    4.1200   58.9438 C   0  0  0  0  0  0  0  0  0  0  0  0
   23.5515    3.8589   59.9821 N   0  3  0  0  0  0  0  0  0  0  0  0
  1  2  1  1  0  0  0
  1  3  1  0  0  0  0
  1 10  1  0  0  0  0
  3  4  1  6  0  0  0
  3  5  1  0  0  0  0
  5  6  1  6  0  0  0
  5  7  1  0  0  0  0
  7  8  1  1  0  0  0
  7  9  1  0  0  0  0
  9 10  1  0  0  0  0
  9 11  1  6  0  0  0
 11 12  1  0  0  0  0
 13 14  1  6  0  0  0
 13 15  1  0  0  0  0
 13 21  1  0  0  0  0
 15 16  1  0  0  0  0
 16 17  1  6  0  0  0
 16 18  1  0  0  0  0
 18  2  1  1  0  0  0
 18 19  1  0  0  0  0
 19 20  1  1  0  0  0
 19 21  1  0  0  0  0
 21 22  1  1  0  0  0
 23 20  1  6  0  0  0
 23 24  1  0  0  0  0
 23 29  1  0  0  0  0
 24 25  1  1  0  0  0
 24 26  1  0  0  0  0
 26 27  1  6  0  0  0
 26 28  1  0  0  0  0
 28 29  1  0  0  0  0
 28 30  1  1  0  0  0
 30 31  1  0  0  0  0
 32 27  1  6  0  0  0
 32 33  1  0  0  0  0
 32 40  1  0  0  0  0
 33 34  1  6  0  0  0
 33 35  1  0  0  0  0
 35 36  1  6  0  0  0
 35 37  1  0  0  0  0
 37 38  1  6  0  0  0
 37 39  1  0  0  0  0
 39 40  1  0  0  0  0
 39 41  1  6  0  0  0
 41 42  1  0  0  0  0
M  CHG  5   4   1  14   1  17   1  34   1  42   1
M  END
>  <CHROM.1>
-145.45863173,41.85718207,-54.53529328,-66.73580398,-67.36700938,175.71306040
73.24237253,62.91185548,-134.72984287,64.74747483,146.12169645,169.96313497
-179.17224968,143.14561220,-77.24726376,73.28562934,70.85271377,49.02112221
179.73922719,-175.71364627,66.01079643,-50.72458030,28.60297521,6.88036026
55.52444189,1.02230873,-0.68253000,-1.47836556

>  <Name>
1j7t

>  <RI>
0

>  <Rbt.Current_Directory>
/home/itssahil/PROJECTS/Mol_Feturizer/New_Systems/rnas/1j7t

>  <Rbt.Executable>
rbdock ($Id: //depot/dev/client3/rdock/2013.1/src/exe/rbdock.cxx#4 $)

>  <Rbt.Library>
libRbt.so (2013.1, Build901 2013/11/27)

>  <Rbt.Parameter_File>
/export/apps/rDock/src/rDock_2013.1_src/data/scripts/dock_solv.prm

>  <Rbt.Receptor>
prm/pocket_docking_3.prm

>  <SCORE>
-44.7866

>  <SCORE.INTER>
-31.5884

>  <SCORE.INTER.CONST>
1

>  <SCORE.INTER.POLAR>
-5.33057

>  <SCORE.INTER.ROT>
9

>  <SCORE.INTER.SOLV>
25.1681

>  <SCORE.INTER.VDW>
-21.2797

>  <SCORE.INTER.norm>
-0.752105

>  <SCORE.INTRA>
-14.8566

>  <SCORE.INTRA.DIHEDRAL>
-22.407

>  <SCORE.INTRA.DIHEDRAL.0>
46.2143

>  <SCORE.INTRA.POLAR>
-1.20048

>  <SCORE.INTRA.POLAR.0>
-1.76436

>  <SCORE.INTRA.REPUL>
0.132575

>  <SCORE.INTRA.REPUL.0>
0

>  <SCORE.INTRA.SOLV>
4.84532

>  <SCORE.INTRA.SOLV.lig_0>
-148.643

>  <SCORE.INTRA.VDW>
-2.657

>  <SCORE.INTRA.VDW.0>
-4.83512

>  <SCORE.INTRA.norm>
-0.353728

>  <SCORE.RESTR>
1.65833

>  <SCORE.RESTR.CAVITY>
1.65833

>  <SCORE.RESTR.norm>
0.039484

>  <SCORE.SYSTEM>
0

>  <SCORE.SYSTEM.CONST>
0

>  <SCORE.SYSTEM.DIHEDRAL>
0

>  <SCORE.SYSTEM.SOLV>
0

>  <SCORE.SYSTEM.norm>
0

>  <SCORE.heavy>
42

>  <SCORE.norm>
-1.06635

>  <RMSD>
4.280

$$$$
1j7t
 OpenBabel11021811393D
libRbt.so/2013.1/901 2013/11/27
 42 45  0  0  0  0  0  0  0  0999 V2000
   28.1779    6.6847   51.9371 C   0  0  2  0  0  0  0  0  0  0  0  0
   28.2081    7.9903   52.5672 O   0  0  0  0  0  0  0  0  0  0  0  0
   27.4173    5.7336   52.9052 C   0  0  2  0  0  0  0  0  0  0  0  0
   26.0734    6.2244   53.3254 N   0  3  0  0  0  0  0  0  0  0  0  0
   28.2774    5.5552   54.1753 C   0  0  1  0  0  0  0  0  0  0  0  0
   27.6480    4.6924   55.0802 O   0  0  0  0  0  0  0  0  0  0  0  0
   29.6786    5.0200   53.7962 C   0  0  2  0  0  0  0  0  0  0  0  0
   30.4760    4.8289   54.9482 O   0  0  0  0  0  0  0  0  0  0  0  0
   30.3697    5.9989   52.8709 C   0  0  2  0  0  0  0  0  0  0  0  0
   29.5509    6.2259   51.7308 O   0  0  0  0  0  0  0  0  0  0  0  0
   31.7001    5.4931   52.3598 C   0  0  0  0  0  0  0  0  0  0  0  0
   31.4943    4.7239   51.1905 O   0  0  0  0  0  0  0  0  0  0  0  0
   31.5214    9.7419   50.6172 C   0  0  2  0  0  0  0  0  0  0  0  0
   32.4126   10.7402   50.0253 N   0  3  0  0  0  0  0  0  0  0  0  0
   30.1544    9.7282   49.8558 C   0  0  0  0  0  0  0  0  0  0  0  0
   29.1957    8.7129   50.5067 C   0  0  2  0  0  0  0  0  0  0  0  0
   27.8901    8.7254   49.8385 N   0  3  0  0  0  0  0  0  0  0  0  0
   29.0089    9.0349   52.0023 C   0  0  2  0  0  0  0  0  0  0  0  0
   30.3430    9.0822   52.7725 C   0  0  2  0  0  0  0  0  0  0  0  0
   30.0211    9.5431   54.0989 O   0  0  0  0  0  0  0  0  0  0  0  0
   31.3249   10.0676   52.0893 C   0  0  1  0  0  0  0  0  0  0  0  0
   32.5608   10.0170   52.7472 O   0  0  0  0  0  0  0  0  0  0  0  0
   29.3979    8.7252   55.0857 C   0  0  1  0  0  0  0  0  0  0  0  0
   30.3286    8.6700   56.3494 C   0  0  2  0  0  0  0  0  0  0  0  0
   31.2995    7.6383   56.3043 O   0  0  0  0  0  0  0  0  0  0  0  0
   29.2513    8.4851   57.4088 C   0  0  2  0  0  0  0  0  0  0  0  0
   28.6287    7.1695   57.3022 O   0  0  0  0  0  0  0  0  0  0  0  0
   28.2095    9.5211   57.0103 C   0  0  2  0  0  0  0  0  0  0  0  0
   28.1804    9.3441   55.5836 O   0  0  0  0  0  0  0  0  0  0  0  0
   28.5471   10.9894   57.4297 C   0  0  0  0  0  0  0  0  0  0  0  0
   29.9040   11.3300   57.1186 O   0  0  0  0  0  0  0  0  0  0  0  0
   28.1735    6.6411   58.5452 C   0  0  2  0  0  0  0  0  0  0  0  0
   28.4137    5.1042   58.7305 C   0  0  2  0  0  0  0  0  0  0  0  0
   27.7695    4.2828   57.6610 N   0  3  0  0  0  0  0  0  0  0  0  0
   27.8741    4.7240   60.1497 C   0  0  1  0  0  0  0  0  0  0  0  0
   28.6895    5.4611   61.1393 O   0  0  0  0  0  0  0  0  0  0  0  0
   26.3587    5.1189   60.3470 C   0  0  2  0  0  0  0  0  0  0  0  0
   25.5642    4.3583   59.4224 O   0  0  0  0  0  0  0  0  0  0  0  0
   26.2186    6.6779   60.0981 C   0  0  1  0  0  0  0  0  0  0  0  0
   26.7258    6.9583   58.7500 O   0  0  0  0  0  0  0  0  0  0  0  0
   24.7791    7.2232   60.2379 C   0  0  0  0  0  0  0  0  0  0  0  0
   23.7556    6.3678   59.5780 N   0  3  0  0  0  0  0  0  0  0  0  0
  1  2  1  1  0  0  0
  1  3  1  0  0  0  0
  1 10  1  0  0  0  0
  3  4  1  1  0  0  0
  3  5  1  0  0  0  0
  5  6  1  1  0  0  0
  5  7  1  0  0  0  0
  7  8  1  1  0  0  0
  7  9  1  0  0  0  0
  9 10  1  0  0  0  0
  9 11  1  6  0  0  0
 11 12  1  0  0  0  0
 13 14  1  6  0  0  0
 13 15  1  0  0  0  0
 13 21  1  0  0  0  0
 15 16  1  0  0  0  0
 16 17  1  6  0  0  0
 16 18  1  0  0  0  0
 18  2  1  1  0  0  0
 18 19  1  0  0  0  0
 19 20  1  1  0  0  0
 19 21  1  0  0  0  0
 21 22  1  1  0  0  0
 23 20  1  6  0  0  0
 23 24  1  0  0  0  0
 23 29  1  0  0  0  0
 24 25  1  6  0  0  0
 24 26  1  0  0  0  0
 26 27  1  6  0  0  0
 26 28  1  0  0  0  0
 28 29  1  0  0  0  0
 28 30  1  6  0  0  0
 30 31  1  0  0  0  0
 32 27  1  6  0  0  0
 32 33  1  0  0  0  0
 32 40  1  0  0  0  0
 33 34  1  6  0  0  0
 33 35  1  0  0  0  0
 35 36  1  1  0  0  0
 35 37  1  0  0  0  0
 37 38  1  6  0  0  0
 37 39  1  0  0  0  0
 39 40  1  0  0  0  0
 39 41  1  6  0  0  0
 41 42  1  0  0  0  0
M  CHG  5   4   1  14   1  17   1  34   1  42   1
M  END
>  <CHROM.1>
171.07667869,24.22486880,-56.96535250,66.63629264,67.78855950,87.13579386
72.55141018,-173.46023142,-120.21845779,75.35518002,122.22830480,-44.32788163
53.54987326,149.12828915,-140.49635155,46.06094174,-66.03326923,47.11553768
-168.12353713,76.06700973,-44.04396655,129.76444371,28.83868415,7.33942497
55.13810255,0.49592869,-1.09015946,-2.27415379

>  <Name>
1j7t

>  <RI>
0

>  <Rbt.Current_Directory>
/home/itssahil/PROJECTS/Mol_Feturizer/New_Systems/rnas/1j7t

>  <Rbt.Executable>
rbdock ($Id: //depot/dev/client3/rdock/2013.1/src/exe/rbdock.cxx#4 $)

>  <Rbt.Library>
libRbt.so (2013.1, Build901 2013/11/27)

>  <Rbt.Parameter_File>
/export/apps/rDock/src/rDock_2013.1_src/data/scripts/dock_solv.prm

>  <Rbt.Receptor>
prm/pocket_docking_4.prm

>  <SCORE>
-40.1159

>  <SCORE.INTER>
-34.5974

>  <SCORE.INTER.CONST>
1

>  <SCORE.INTER.POLAR>
-5.78966

>  <SCORE.INTER.ROT>
9

>  <SCORE.INTER.SOLV>
25.9662

>  <SCORE.INTER.VDW>
-22.0214

>  <SCORE.INTER.norm>
-0.823747

>  <SCORE.INTRA>
-5.7485

>  <SCORE.INTRA.DIHEDRAL>
-7.75255

>  <SCORE.INTRA.DIHEDRAL.0>
46.2143

>  <SCORE.INTRA.POLAR>
-1.11688

>  <SCORE.INTRA.POLAR.0>
-1.76436

>  <SCORE.INTRA.REPUL>
0.0182304

>  <SCORE.INTRA.REPUL.0>
0

>  <SCORE.INTRA.SOLV>
3.68951

>  <SCORE.INTRA.SOLV.lig_0>
-148.643

>  <SCORE.INTRA.VDW>
-0.0107334

>  <SCORE.INTRA.VDW.0>
-4.83512

>  <SCORE.INTRA.norm>
-0.136869

>  <SCORE.RESTR>
0.229988

>  <SCORE.RESTR.CAVITY>
0.229988

>  <SCORE.RESTR.norm>
0.00547591

>  <SCORE.SYSTEM>
0

>  <SCORE.SYSTEM.CONST>
0

>  <SCORE.SYSTEM.DIHEDRAL>
0

>  <SCORE.SYSTEM.SOLV>
0

>  <SCORE.SYSTEM.norm>
0

>  <SCORE.heavy>
42

>  <SCORE.norm>
-0.95514

>  <RMSD>
4.302

$$$$
1j7t
 OpenBabel11021811393D
libRbt.so/2013.1/901 2013/11/27
 42 45  0  0  0  0  0  0  0  0999 V2000
   30.5931    9.9974   51.9809 C   0  0  2  0  0  0  0  0  0  0  0  0
   31.4907    8.9527   51.5276 O   0  0  0  0  0  0  0  0  0  0  0  0
   29.3576    9.9728   51.0359 C   0  0  2  0  0  0  0  0  0  0  0  0
   28.7037    8.6389   50.9074 N   0  3  0  0  0  0  0  0  0  0  0  0
   29.8211   10.4131   49.6301 C   0  0  1  0  0  0  0  0  0  0  0  0
   28.7434   10.4257   48.7369 O   0  0  0  0  0  0  0  0  0  0  0  0
   30.4849   11.8087   49.7033 C   0  0  2  0  0  0  0  0  0  0  0  0
   30.8977   12.2405   48.4218 O   0  0  0  0  0  0  0  0  0  0  0  0
   31.6876   11.7582   50.6214 C   0  0  2  0  0  0  0  0  0  0  0  0
   31.2834   11.2839   51.8996 O   0  0  0  0  0  0  0  0  0  0  0  0
   32.3242   13.1126   50.8391 C   0  0  0  0  0  0  0  0  0  0  0  0
   32.9234   13.5508   49.6349 O   0  0  0  0  0  0  0  0  0  0  0  0
   33.8823    6.2955   53.7787 C   0  0  2  0  0  0  0  0  0  0  0  0
   34.9493    5.7788   54.6365 N   0  3  0  0  0  0  0  0  0  0  0  0
   34.4926    6.8863   52.4646 C   0  0  0  0  0  0  0  0  0  0  0  0
   33.3769    7.4754   51.5804 C   0  0  2  0  0  0  0  0  0  0  0  0
   33.9370    8.0820   50.3683 N   0  3  0  0  0  0  0  0  0  0  0  0
   32.5779    8.5366   52.3621 C   0  0  2  0  0  0  0  0  0  0  0  0
   31.9876    7.9891   53.6763 C   0  0  2  0  0  0  0  0  0  0  0  0
   31.4145    9.1216   54.3578 O   0  0  0  0  0  0  0  0  0  0  0  0
   33.1030    7.3531   54.5441 C   0  0  1  0  0  0  0  0  0  0  0  0
   32.5273    6.7750   55.6831 O   0  0  0  0  0  0  0  0  0  0  0  0
   30.8054    9.0397   55.6436 C   0  0  1  0  0  0  0  0  0  0  0  0
   29.5093    9.9263   55.6400 C   0  0  2  0  0  0  0  0  0  0  0  0
   29.7383   11.2817   55.9859 O   0  0  0  0  0  0  0  0  0  0  0  0
   28.6992    9.1370   56.6588 C   0  0  2  0  0  0  0  0  0  0  0  0
   29.2732    9.2579   57.9951 O   0  0  0  0  0  0  0  0  0  0  0  0
   28.8973    7.6987   56.2011 C   0  0  2  0  0  0  0  0  0  0  0  0
   30.3031    7.6995   55.8988 O   0  0  0  0  0  0  0  0  0  0  0  0
   28.0179    7.2688   54.9814 C   0  0  0  0  0  0  0  0  0  0  0  0
   28.4595    7.8874   53.7664 O   0  0  0  0  0  0  0  0  0  0  0  0
   28.9093   10.4559   58.6760 C   0  0  2  0  0  0  0  0  0  0  0  0
   29.7983   11.6995   58.3334 C   0  0  2  0  0  0  0  0  0  0  0  0
   31.2475   11.4740   58.6204 N   0  3  0  0  0  0  0  0  0  0  0  0
   29.2320   12.9071   59.1524 C   0  0  1  0  0  0  0  0  0  0  0  0
   27.8549   13.1534   58.6726 O   0  0  0  0  0  0  0  0  0  0  0  0
   29.1840   12.6174   60.7032 C   0  0  2  0  0  0  0  0  0  0  0  0
   30.5287   12.4352   61.1759 O   0  0  0  0  0  0  0  0  0  0  0  0
   28.2988   11.3236   60.9364 C   0  0  1  0  0  0  0  0  0  0  0  0
   28.8942   10.2332   60.1554 O   0  0  0  0  0  0  0  0  0  0  0  0
   28.1667   10.8943   62.4153 C   0  0  0  0  0  0  0  0  0  0  0  0
   29.2412    9.9657   62.8602 N   0  3  0  0  0  0  0  0  0  0  0  0
  1  2  1  6  0  0  0
  1  3  1  0  0  0  0
  1 10  1  0  0  0  0
  3  4  1  6  0  0  0
  3  5  1  0  0  0  0
  5  6  1  6  0  0  0
  5  7  1  0  0  0  0
  7  8  1  6  0  0  0
  7  9  1  0  0  0  0
  9 10  1  0  0  0  0
  9 11  1  1  0  0  0
 11 12  1  0  0  0  0
 13 14  1  1  0  0  0
 13 15  1  0  0  0  0
 13 21  1  0  0  0  0
 15 16  1  0  0  0  0
 16 17  1  6  0  0  0
 16 18  1  0  0  0  0
 18  2  1  6  0  0  0
 18 19  1  0  0  0  0
 19 20  1  1  0  0  0
 19 21  1  0  0  0  0
 21 22  1  1  0  0  0
 23 20  1  6  0  0  0
 23 24  1  0  0  0  0
 23 29  1  0  0  0  0
 24 25  1  1  0  0  0
 24 26  1  0  0  0  0
 26 27  1  1  0  0  0
 26 28  1  0  0  0  0
 28 29  1  0  0  0  0
 28 30  1  6  0  0  0
 30 31  1  0  0  0  0
 32 27  1  6  0  0  0
 32 33  1  0  0  0  0
 32 40  1  0  0  0  0
 33 34  1  1  0  0  0
 33 35  1  0  0  0  0
 35 36  1  6  0  0  0
 35 37  1  0  0  0  0
 37 38  1  6  0  0  0
 37 39  1  0  0  0  0
 39 40  1  0  0  0  0
 39 41  1  1  0  0  0
 41 42  1  0  0  0  0
M  CHG  5   4   1  14   1  17   1  34   1  42   1
M  END
>  <CHROM.1>
-166.62954433,-177.28979035,179.52032063,-173.50022999,-169.75996553,-68.30719667
-58.61334965,-170.46946406,-174.64899758,-177.73118410,-138.86403133,103.80351185
176.38827749,81.43332794,-84.37954781,71.43489906,65.45808246,46.77012968
65.79393854,-175.09875377,-88.97203799,-34.47611948,30.62455409,9.83701408
54.82601650,1.08369931,1.00596822,-1.26632906

>  <Name>
1j7t

>  <RI>
0

>  <Rbt.Current_Directory>
/home/itssahil/PROJECTS/Mol_Feturizer/New_Systems/rnas/1j7t

>  <Rbt.Executable>
rbdock ($Id: //depot/dev/client3/rdock/2013.1/src/exe/rbdock.cxx#4 $)

>  <Rbt.Library>
libRbt.so (2013.1, Build901 2013/11/27)

>  <Rbt.Parameter_File>
/export/apps/rDock/src/rDock_2013.1_src/data/scripts/dock_solv.prm

>  <Rbt.Receptor>
prm/blind_docking_100.prm

>  <SCORE>
-32.3445

>  <SCORE.INTER>
-39.5298

>  <SCORE.INTER.CONST>
1

>  <SCORE.INTER.POLAR>
-6.57598

>  <SCORE.INTER.ROT>
9

>  <SCORE.INTER.SOLV>
38.2556

>  <SCORE.INTER.VDW>
-26.7851

>  <SCORE.INTER.norm>
-0.941186

>  <SCORE.INTRA>
-8.19074

>  <SCORE.INTRA.DIHEDRAL>
-22.334

>  <SCORE.INTRA.DIHEDRAL.0>
46.2143

>  <SCORE.INTRA.POLAR>
-0.817605

>  <SCORE.INTRA.POLAR.0>
-1.76436

>  <SCORE.INTRA.REPUL>
0.0135465

>  <SCORE.INTRA.REPUL.0>
0

>  <SCORE.INTRA.SOLV>
2.4991

>  <SCORE.INTRA.SOLV.lig_0>
-148.643

>  <SCORE.INTRA.VDW>
4.43882

>  <SCORE.INTRA.VDW.0>
-4.83512

>  <SCORE.INTRA.norm>
-0.195018

>  <SCORE.RESTR>
15.3761

>  <SCORE.RESTR.CAVITY>
15.3761

>  <SCORE.RESTR.norm>
0.366097

>  <SCORE.SYSTEM>
0

>  <SCORE.SYSTEM.CONST>
0

>  <SCORE.SYSTEM.DIHEDRAL>
0

>  <SCORE.SYSTEM.SOLV>
0

>  <SCORE.SYSTEM.norm>
0

>  <SCORE.heavy>
42

>  <SCORE.norm>
-0.770107

>  <RMSD>
4.307

$$$$
1j7t
 OpenBabel11021811393D
libRbt.so/2013.1/901 2013/11/27
 42 45  0  0  0  0  0  0  0  0999 V2000
   31.6479    9.2282   52.6742 C   0  0  2  0  0  0  0  0  0  0  0  0
   30.4470    9.0415   51.8834 O   0  0  0  0  0  0  0  0  0  0  0  0
   32.7151    9.8571   51.7330 C   0  0  2  0  0  0  0  0  0  0  0  0
   32.2671   11.0924   51.0280 N   0  3  0  0  0  0  0  0  0  0  0  0
   33.0885    8.8075   50.6635 C   0  0  1  0  0  0  0  0  0  0  0  0
   34.0615    9.3140   49.7939 O   0  0  0  0  0  0  0  0  0  0  0  0
   33.5874    7.5109   51.3442 C   0  0  2  0  0  0  0  0  0  0  0  0
   33.9553    6.5432   50.3812 O   0  0  0  0  0  0  0  0  0  0  0  0
   32.4977    6.9423   52.2281 C   0  0  2  0  0  0  0  0  0  0  0  0
   32.0955    7.9279   53.1709 O   0  0  0  0  0  0  0  0  0  0  0  0
   32.9473    5.7360   53.0216 C   0  0  0  0  0  0  0  0  0  0  0  0
   31.8227    5.1170   53.6159 O   0  0  0  0  0  0  0  0  0  0  0  0
   26.6705    7.3472   52.7293 C   0  0  2  0  0  0  0  0  0  0  0  0
   25.6370    6.3803   53.1015 N   0  3  0  0  0  0  0  0  0  0  0  0
   27.4074    6.8691   51.4345 C   0  0  0  0  0  0  0  0  0  0  0  0
   28.5289    7.8595   51.0668 C   0  0  2  0  0  0  0  0  0  0  0  0
   29.2656    7.3987   49.8853 N   0  3  0  0  0  0  0  0  0  0  0  0
   29.5059    8.0250   52.2474 C   0  0  2  0  0  0  0  0  0  0  0  0
   28.8024    8.4692   53.5448 C   0  0  2  0  0  0  0  0  0  0  0  0
   29.8064    8.4263   54.5770 O   0  0  0  0  0  0  0  0  0  0  0  0
   27.6430    7.4997   53.8881 C   0  0  1  0  0  0  0  0  0  0  0  0
   26.9580    7.9804   55.0118 O   0  0  0  0  0  0  0  0  0  0  0  0
   29.7775    7.5051   55.6641 C   0  0  1  0  0  0  0  0  0  0  0  0
   31.1644    7.5557   56.3990 C   0  0  2  0  0  0  0  0  0  0  0  0
   32.1347    6.6756   55.8577 O   0  0  0  0  0  0  0  0  0  0  0  0
   30.6860    7.1938   57.7981 C   0  0  2  0  0  0  0  0  0  0  0  0
   30.2415    5.8052   57.8595 O   0  0  0  0  0  0  0  0  0  0  0  0
   29.4589    8.0781   57.9707 C   0  0  2  0  0  0  0  0  0  0  0  0
   28.8334    7.9311   56.6842 O   0  0  0  0  0  0  0  0  0  0  0  0
   29.7668    9.5698   58.3253 C   0  0  0  0  0  0  0  0  0  0  0  0
   31.1427    9.7563   58.6803 O   0  0  0  0  0  0  0  0  0  0  0  0
   29.1651    5.5806   58.7664 C   0  0  2  0  0  0  0  0  0  0  0  0
   29.2494    4.2334   59.5616 C   0  0  2  0  0  0  0  0  0  0  0  0
   29.3074    3.0355   58.6699 N   0  3  0  0  0  0  0  0  0  0  0  0
   28.0058    4.1831   60.5106 C   0  0  1  0  0  0  0  0  0  0  0  0
   28.1338    5.3105   61.4593 O   0  0  0  0  0  0  0  0  0  0  0  0
   26.6420    4.3304   59.7297 C   0  0  2  0  0  0  0  0  0  0  0  0
   26.4948    3.2034   58.8506 O   0  0  0  0  0  0  0  0  0  0  0  0
   26.6764    5.6986   58.9303 C   0  0  1  0  0  0  0  0  0  0  0  0
   27.8528    5.6696   58.0536 O   0  0  0  0  0  0  0  0  0  0  0  0
   25.4089    5.9849   58.0934 C   0  0  0  0  0  0  0  0  0  0  0  0
   24.1518    5.9381   58.8884 N   0  3  0  0  0  0  0  0  0  0  0  0
  1  2  1  6  0  0  0
  1  3  1  0  0  0  0
  1 10  1  0  0  0  0
  3  4  1  6  0  0  0
  3  5  1  0  0  0  0
  5  6  1  6  0  0  0
  5  7  1  0  0  0  0
  7  8  1  6  0  0  0
  7  9  1  0  0  0  0
  9 10  1  0  0  0  0
  9 11  1  1  0  0  0
 11 12  1  0  0  0  0
 13 14  1  1  0  0  0
 13 15  1  0  0  0  0
 13 21  1  0  0  0  0
 15 16  1  0  0  0  0
 16 17  1  6  0  0  0
 16 18  1  0  0  0  0
 18  2  1  6  0  0  0
 18 19  1  0  0  0  0
 19 20  1  1  0  0  0
 19 21  1  0  0  0  0
 21 22  1  1  0  0  0
 23 20  1  6  0  0  0
 23 24  1  0  0  0  0
 23 29  1  0  0  0  0
 24 25  1  6  0  0  0
 24 26  1  0  0  0  0
 26 27  1  6  0  0  0
 26 28  1  0  0  0  0
 28 29  1  0  0  0  0
 28 30  1  6  0  0  0
 30 31  1  0  0  0  0
 32 27  1  6  0  0  0
 32 33  1  0  0  0  0
 32 40  1  0  0  0  0
 33 34  1  6  0  0  0
 33 35  1  0  0  0  0
 35 36  1  1  0  0  0
 35 37  1  0  0  0  0
 37 38  1  6  0  0  0
 37 39  1  0  0  0  0
 39 40  1  0  0  0  0
 39 41  1  6  0  0  0
 41 42  1  0  0  0  0
M  CHG  5   4   1  14   1  17   1  34   1  42   1
M  END
>  <CHROM.1>
154.12088515,-167.41697064,-156.52424073,-84.42916055,65.62996973,-168.92299371
-66.89164223,175.20589290,159.26182702,-112.95248305,168.30293608,-168.24151546
82.86420573,-146.79594204,-141.91709715,-11.59944606,179.77687765,166.25609970
-60.22600088,176.48879567,54.89448861,167.07824798,29.65774416,7.05106701
55.13219552,-1.07412782,0.16744260,1.85315263

>  <Name>
1j7t

>  <RI>
0

>  <Rbt.Current_Directory>
/home/itssahil/PROJECTS/Mol_Feturizer/New_Systems/rnas/1j7t

>  <Rbt.Executable>
rbdock ($Id: //depot/dev/client3/rdock/2013.1/src/exe/rbdock.cxx#4 $)

>  <Rbt.Library>
libRbt.so (2013.1, Build901 2013/11/27)

>  <Rbt.Parameter_File>
/export/apps/rDock/src/rDock_2013.1_src/data/scripts/dock_solv.prm

>  <Rbt.Receptor>
prm/pocket_docking_2.prm

>  <SCORE>
-42.797

>  <SCORE.INTER>
-39.9427

>  <SCORE.INTER.CONST>
1

>  <SCORE.INTER.POLAR>
-6.4955

>  <SCORE.INTER.ROT>
9

>  <SCORE.INTER.SOLV>
25.7965

>  <SCORE.INTER.VDW>
-23.1756

>  <SCORE.INTER.norm>
-0.951016

>  <SCORE.INTRA>
-6.69918

>  <SCORE.INTRA.DIHEDRAL>
-11.2726

>  <SCORE.INTRA.DIHEDRAL.0>
46.2143

>  <SCORE.INTRA.POLAR>
-1.00441

>  <SCORE.INTRA.POLAR.0>
-1.76436

>  <SCORE.INTRA.REPUL>
0

>  <SCORE.INTRA.REPUL.0>
0

>  <SCORE.INTRA.SOLV>
-3.13188

>  <SCORE.INTRA.SOLV.lig_0>
-148.643

>  <SCORE.INTRA.VDW>
3.91807

>  <SCORE.INTRA.VDW.0>
-4.83512

>  <SCORE.INTRA.norm>
-0.159504

>  <SCORE.RESTR>
3.84489

>  <SCORE.RESTR.CAVITY>
3.84489

>  <SCORE.RESTR.norm>
0.091545

>  <SCORE.SYSTEM>
0

>  <SCORE.SYSTEM.CONST>
0

>  <SCORE.SYSTEM.DIHEDRAL>
0

>  <SCORE.SYSTEM.SOLV>
0

>  <SCORE.SYSTEM.norm>
0

>  <SCORE.heavy>
42

>  <SCORE.norm>
-1.01898

>  <RMSD>
4.308

$$$$
1j7t
 OpenBabel11021811393D
libRbt.so/2013.1/901 2013/11/27
 42 45  0  0  0  0  0  0  0  0999 V2000
   30.4470    8.8515   52.2676 C   0  0  2  0  0  0  0  0  0  0  0  0
   29.8041    7.9714   51.3112 O   0  0  0  0  0  0  0  0  0  0  0  0
   31.4191    9.7605   51.4623 C   0  0  2  0  0  0  0  0  0  0  0  0
   30.7883   10.4808   50.3191 N   0  3  0  0  0  0  0  0  0  0  0  0
   32.5499    8.8721   50.8994 C   0  0  1  0  0  0  0  0  0  0  0  0
   33.4681    9.6419   50.1755 O   0  0  0  0  0  0  0  0  0  0  0  0
   33.2574    8.1204   52.0517 C   0  0  2  0  0  0  0  0  0  0  0  0
   34.3115    7.3167   51.5596 O   0  0  0  0  0  0  0  0  0  0  0  0
   32.2621    7.2424   52.7801 C   0  0  2  0  0  0  0  0  0  0  0  0
   31.1793    8.0412   53.2399 O   0  0  0  0  0  0  0  0  0  0  0  0
   32.8504    6.5621   53.9958 C   0  0  0  0  0  0  0  0  0  0  0  0
   33.8476    5.6459   53.5869 O   0  0  0  0  0  0  0  0  0  0  0  0
   26.1731    5.8353   51.6291 C   0  0  2  0  0  0  0  0  0  0  0  0
   25.1785    4.8469   52.0476 N   0  3  0  0  0  0  0  0  0  0  0  0
   27.3789    5.1188   50.9357 C   0  0  0  0  0  0  0  0  0  0  0  0
   28.4508    6.1513   50.5373 C   0  0  2  0  0  0  0  0  0  0  0  0
   29.6129    5.4908   49.9339 N   0  3  0  0  0  0  0  0  0  0  0  0
   28.9029    6.9574   51.7708 C   0  0  2  0  0  0  0  0  0  0  0  0
   27.7305    7.6523   52.4905 C   0  0  2  0  0  0  0  0  0  0  0  0
   28.2832    8.2238   53.6918 O   0  0  0  0  0  0  0  0  0  0  0  0
   26.6304    6.6209   52.8480 C   0  0  1  0  0  0  0  0  0  0  0  0
   25.5352    7.2911   53.4088 O   0  0  0  0  0  0  0  0  0  0  0  0
   28.2257    7.5855   54.9648 C   0  0  1  0  0  0  0  0  0  0  0  0
   29.3193    8.2236   55.8936 C   0  0  2  0  0  0  0  0  0  0  0  0
   30.5909    7.6055   55.7938 O   0  0  0  0  0  0  0  0  0  0  0  0
   28.6174    8.0246   57.2297 C   0  0  2  0  0  0  0  0  0  0  0  0
   28.5538    6.6107   57.5852 O   0  0  0  0  0  0  0  0  0  0  0  0
   27.1983    8.4893   56.9340 C   0  0  2  0  0  0  0  0  0  0  0  0
   26.9777    7.8902   55.6455 O   0  0  0  0  0  0  0  0  0  0  0  0
   27.0029   10.0409   56.9195 C   0  0  0  0  0  0  0  0  0  0  0  0
   28.2374   10.7275   56.6776 O   0  0  0  0  0  0  0  0  0  0  0  0
   27.7662    6.3385   58.7415 C   0  0  2  0  0  0  0  0  0  0  0  0
   28.4497    6.7098   60.1014 C   0  0  2  0  0  0  0  0  0  0  0  0
   29.7548    6.0108   60.3051 N   0  3  0  0  0  0  0  0  0  0  0  0
   27.4295    6.3632   61.2366 C   0  0  1  0  0  0  0  0  0  0  0  0
   26.2465    7.2291   61.0406 O   0  0  0  0  0  0  0  0  0  0  0  0
   26.9660    4.8550   61.1942 C   0  0  2  0  0  0  0  0  0  0  0  0
   28.1081    4.0189   61.4418 O   0  0  0  0  0  0  0  0  0  0  0  0
   26.3297    4.5741   59.7701 C   0  0  1  0  0  0  0  0  0  0  0  0
   27.3419    4.9040   58.7602 O   0  0  0  0  0  0  0  0  0  0  0  0
   25.8381    3.1236   59.5616 C   0  0  0  0  0  0  0  0  0  0  0  0
   25.0722    2.9339   58.2999 N   0  3  0  0  0  0  0  0  0  0  0  0
  1  2  1  6  0  0  0
  1  3  1  0  0  0  0
  1 10  1  0  0  0  0
  3  4  1  6  0  0  0
  3  5  1  0  0  0  0
  5  6  1  1  0  0  0
  5  7  1  0  0  0  0
  7  8  1  6  0  0  0
  7  9  1  0  0  0  0
  9 10  1  0  0  0  0
  9 11  1  1  0  0  0
 11 12  1  0  0  0  0
 13 14  1  1  0  0  0
 13 15  1  0  0  0  0
 13 21  1  0  0  0  0
 15 16  1  0  0  0  0
 16 17  1  1  0  0  0
 16 18  1  0  0  0  0
 18  2  1  6  0  0  0
 18 19  1  0  0  0  0
 19 20  1  1  0  0  0
 19 21  1  0  0  0  0
 21 22  1  6  0  0  0
 23 20  1  6  0  0  0
 23 24  1  0  0  0  0
 23 29  1  0  0  0  0
 24 25  1  1  0  0  0
 24 26  1  0  0  0  0
 26 27  1  6  0  0  0
 26 28  1  0  0  0  0
 28 29  1  0  0  0  0
 28 30  1  6  0  0  0
 30 31  1  0  0  0  0
 32 27  1  6  0  0  0
 32 33  1  0  0  0  0
 32 40  1  0  0  0  0
 33 34  1  1  0  0  0
 33 35  1  0  0  0  0
 35 36  1  6  0  0  0
 35 37  1  0  0  0  0
 37 38  1  6  0  0  0
 37 39  1  0  0  0  0
 39 40  1  0  0  0  0
 39 41  1  1  0  0  0
 41 42  1  0  0  0  0
M  CHG  5   4   1  14   1  17   1  34   1  42   1
M  END
>  <CHROM.1>
176.36886588,-177.02973308,153.59360062,79.88160965,77.23915371,-65.66248979
-175.39174501,73.60380453,175.93213472,-96.68986442,160.66121006,55.07182851
172.93180224,-172.67728105,-75.54894459,22.37043520,91.03925493,-168.04739092
-57.42445502,52.20180970,171.69268313,-70.17240202,28.93251993,7.01221044
55.02277792,-1.08729188,0.38762107,1.65674222

>  <Name>
1j7t

>  <RI>
0

>  <Rbt.Current_Directory>
/home/itssahil/PROJECTS/Mol_Feturizer/New_Systems/rnas/1j7t

>  <Rbt.Executable>
rbdock ($Id: //depot/dev/client3/rdock/2013.1/src/exe/rbdock.cxx#4 $)

>  <Rbt.Library>
libRbt.so (2013.1, Build901 2013/11/27)

>  <Rbt.Parameter_File>
/export/apps/rDock/src/rDock_2013.1_src/data/scripts/dock_solv.prm

>  <Rbt.Receptor>
prm/pocket_docking_5.prm

>  <SCORE>
-50.4888

>  <SCORE.INTER>
-43.2645

>  <SCORE.INTER.CONST>
1

>  <SCORE.INTER.POLAR>
-6.95368

>  <SCORE.INTER.ROT>
9

>  <SCORE.INTER.SOLV>
18.1652

>  <SCORE.INTER.VDW>
-21.3191

>  <SCORE.INTER.norm>
-1.03011

>  <SCORE.INTRA>
-7.22432

>  <SCORE.INTRA.DIHEDRAL>
-23.2868

>  <SCORE.INTRA.DIHEDRAL.0>
46.2143

>  <SCORE.INTRA.POLAR>
1.65508

>  <SCORE.INTRA.POLAR.0>
-1.76436

>  <SCORE.INTRA.REPUL>
0

>  <SCORE.INTRA.REPUL.0>
0

>  <SCORE.INTRA.SOLV>
-4.99273

>  <SCORE.INTRA.SOLV.lig_0>
-148.643

>  <SCORE.INTRA.VDW>
1.28817

>  <SCORE.INTRA.VDW.0>
-4.83512

>  <SCORE.INTRA.norm>
-0.172008

>  <SCORE.RESTR>
0

>  <SCORE.RESTR.CAVITY>
0

>  <SCORE.RESTR.norm>
0

>  <SCORE.SYSTEM>
0

>  <SCORE.SYSTEM.CONST>
0

>  <SCORE.SYSTEM.DIHEDRAL>
0

>  <SCORE.SYSTEM.SOLV>
0

>  <SCORE.SYSTEM.norm>
0

>  <SCORE.heavy>
42

>  <SCORE.norm>
-1.20211

>  <RMSD>
4.339

$$$$
1j7t
 OpenBabel11021811393D
libRbt.so/2013.1/901 2013/11/27
 42 45  0  0  0  0  0  0  0  0999 V2000
   30.5495   10.2200   51.6770 C   0  0  2  0  0  0  0  0  0  0  0  0
   31.4345    9.1469   51.2677 O   0  0  0  0  0  0  0  0  0  0  0  0
   29.3250   10.1862   50.7181 C   0  0  2  0  0  0  0  0  0  0  0  0
   28.6502    8.8599   50.6232 N   0  3  0  0  0  0  0  0  0  0  0  0
   29.8125   10.5744   49.3050 C   0  0  1  0  0  0  0  0  0  0  0  0
   28.7458   10.5767   48.3986 O   0  0  0  0  0  0  0  0  0  0  0  0
   30.4989   11.9603   49.3428 C   0  0  2  0  0  0  0  0  0  0  0  0
   30.9342   12.3448   48.0537 O   0  0  0  0  0  0  0  0  0  0  0  0
   31.6897   11.9189   50.2769 C   0  0  2  0  0  0  0  0  0  0  0  0
   31.2624   11.4917   51.5641 O   0  0  0  0  0  0  0  0  0  0  0  0
   32.3465   13.2687   50.4601 C   0  0  0  0  0  0  0  0  0  0  0  0
   33.0494   13.6146   49.2821 O   0  0  0  0  0  0  0  0  0  0  0  0
   33.7283    6.4292   53.5482 C   0  0  2  0  0  0  0  0  0  0  0  0
   34.7514    5.8908   54.4454 N   0  3  0  0  0  0  0  0  0  0  0  0
   34.4048    7.0777   52.2951 C   0  0  0  0  0  0  0  0  0  0  0  0
   33.3337    7.6890   51.3717 C   0  0  2  0  0  0  0  0  0  0  0  0
   33.9541    8.3486   50.2180 N   0  3  0  0  0  0  0  0  0  0  0  0
   32.4777    8.7100   52.1466 C   0  0  2  0  0  0  0  0  0  0  0  0
   31.8207    8.1051   53.4026 C   0  0  2  0  0  0  0  0  0  0  0  0
   31.1951    9.2037   54.0932 O   0  0  0  0  0  0  0  0  0  0  0  0
   32.8930    7.4475   54.3079 C   0  0  1  0  0  0  0  0  0  0  0  0
   32.2609    6.8190   55.3888 O   0  0  0  0  0  0  0  0  0  0  0  0
   30.6401    9.0962   55.4015 C   0  0  1  0  0  0  0  0  0  0  0  0
   29.3237    9.9506   55.4577 C   0  0  2  0  0  0  0  0  0  0  0  0
   29.5334   11.3083   55.8066 O   0  0  0  0  0  0  0  0  0  0  0  0
   28.5746    9.1331   56.5006 C   0  0  2  0  0  0  0  0  0  0  0  0
   29.1985    9.2571   57.8140 O   0  0  0  0  0  0  0  0  0  0  0  0
   28.7891    7.7040   56.0222 C   0  0  2  0  0  0  0  0  0  0  0  0
   30.1813    7.7420   55.6642 O   0  0  0  0  0  0  0  0  0  0  0  0
   27.8723    7.2625   54.8346 C   0  0  0  0  0  0  0  0  0  0  0  0
   28.2301    7.9249   53.6151 O   0  0  0  0  0  0  0  0  0  0  0  0
   28.8608   10.4570   58.5053 C   0  0  2  0  0  0  0  0  0  0  0  0
   29.8344   11.6570   58.2478 C   0  0  2  0  0  0  0  0  0  0  0  0
   31.2500   11.3444   58.6111 N   0  3  0  0  0  0  0  0  0  0  0  0
   29.2873   12.8743   59.0655 C   0  0  1  0  0  0  0  0  0  0  0  0
   27.9560   13.2083   58.5145 O   0  0  0  0  0  0  0  0  0  0  0  0
   29.1328   12.5508   60.6026 C   0  0  2  0  0  0  0  0  0  0  0  0
   30.4356   12.2828   61.1464 O   0  0  0  0  0  0  0  0  0  0  0  0
   28.1667   11.3030   60.7496 C   0  0  1  0  0  0  0  0  0  0  0  0
   28.7470   10.2002   59.9748 O   0  0  0  0  0  0  0  0  0  0  0  0
   27.9251   10.8465   62.2064 C   0  0  0  0  0  0  0  0  0  0  0  0
   29.1374   10.2804   62.8579 N   0  3  0  0  0  0  0  0  0  0  0  0
  1  2  1  6  0  0  0
  1  3  1  0  0  0  0
  1 10  1  0  0  0  0
  3  4  1  6  0  0  0
  3  5  1  0  0  0  0
  5  6  1  6  0  0  0
  5  7  1  0  0  0  0
  7  8  1  6  0  0  0
  7  9  1  0  0  0  0
  9 10  1  0  0  0  0
  9 11  1  1  0  0  0
 11 12  1  0  0  0  0
 13 14  1  1  0  0  0
 13 15  1  0  0  0  0
 13 21  1  0  0  0  0
 15 16  1  0  0  0  0
 16 17  1  6  0  0  0
 16 18  1  0  0  0  0
 18  2  1  6  0  0  0
 18 19  1  0  0  0  0
 19 20  1  1  0  0  0
 19 21  1  0  0  0  0
 21 22  1  1  0  0  0
 23 20  1  6  0  0  0
 23 24  1  0  0  0  0
 23 29  1  0  0  0  0
 24 25  1  1  0  0  0
 24 26  1  0  0  0  0
 26 27  1  1  0  0  0
 26 28  1  0  0  0  0
 28 29  1  0  0  0  0
 28 30  1  6  0  0  0
 30 31  1  0  0  0  0
 32 27  1  6  0  0  0
 32 33  1  0  0  0  0
 32 40  1  0  0  0  0
 33 34  1  1  0  0  0
 33 35  1  0  0  0  0
 35 36  1  6  0  0  0
 35 37  1  0  0  0  0
 37 38  1  6  0  0  0
 37 39  1  0  0  0  0
 39 40  1  0  0  0  0
 39 41  1  1  0  0  0
 41 42  1  0  0  0  0
M  CHG  5   4   1  14   1  17   1  34   1  42   1
M  END
>  <CHROM.1>
-164.61434723,-173.54544226,-54.95150635,-172.51844254,87.13961905,-72.53945814
-60.40240602,67.21924782,-57.25309413,-170.78350503,-141.70333308,-55.46528960
98.53548288,79.87077114,-90.89635489,70.10644403,-169.28184945,168.32283044
179.54167843,73.84300218,-67.34368236,-69.04782317,30.53952269,9.92239140
54.60576204,1.07403260,1.02650032,-1.22406332

>  <Name>
1j7t

>  <RI>
0

>  <Rbt.Current_Directory>
/home/itssahil/PROJECTS/Mol_Feturizer/New_Systems/rnas/1j7t

>  <Rbt.Executable>
rbdock ($Id: //depot/dev/client3/rdock/2013.1/src/exe/rbdock.cxx#4 $)

>  <Rbt.Library>
libRbt.so (2013.1, Build901 2013/11/27)

>  <Rbt.Parameter_File>
/export/apps/rDock/src/rDock_2013.1_src/data/scripts/dock_solv.prm

>  <Rbt.Receptor>
prm/blind_docking_100.prm

>  <SCORE>
-14.2544

>  <SCORE.INTER>
-19.4445

>  <SCORE.INTER.CONST>
1

>  <SCORE.INTER.POLAR>
-5.75119

>  <SCORE.INTER.ROT>
9

>  <SCORE.INTER.SOLV>
38.3491

>  <SCORE.INTER.VDW>
-16.1754

>  <SCORE.INTER.norm>
-0.462965

>  <SCORE.INTRA>
-8.82146

>  <SCORE.INTRA.DIHEDRAL>
-21.8577

>  <SCORE.INTRA.DIHEDRAL.0>
46.2143

>  <SCORE.INTRA.POLAR>
-0.644837

>  <SCORE.INTRA.POLAR.0>
-1.76436

>  <SCORE.INTRA.REPUL>
0

>  <SCORE.INTRA.REPUL.0>
0

>  <SCORE.INTRA.SOLV>
1.73493

>  <SCORE.INTRA.SOLV.lig_0>
-148.643

>  <SCORE.INTRA.VDW>
3.43239

>  <SCORE.INTRA.VDW.0>
-4.83512

>  <SCORE.INTRA.norm>
-0.210035

>  <SCORE.RESTR>
14.0116

>  <SCORE.RESTR.CAVITY>
14.0116

>  <SCORE.RESTR.norm>
0.333609

>  <SCORE.SYSTEM>
0

>  <SCORE.SYSTEM.CONST>
0

>  <SCORE.SYSTEM.DIHEDRAL>
0

>  <SCORE.SYSTEM.SOLV>
0

>  <SCORE.SYSTEM.norm>
0

>  <SCORE.heavy>
42

>  <SCORE.norm>
-0.339391

>  <RMSD>
4.344

$$$$
1j7t
 OpenBabel11021811393D
libRbt.so/2013.1/901 2013/11/27
 42 45  0  0  0  0  0  0  0  0999 V2000
   30.5287    8.8322   52.3032 C   0  0  2  0  0  0  0  0  0  0  0  0
   29.8036    8.0348   51.3333 O   0  0  0  0  0  0  0  0  0  0  0  0
   31.4425    9.8007   51.4989 C   0  0  2  0  0  0  0  0  0  0  0  0
   30.7300   10.6135   50.4717 N   0  3  0  0  0  0  0  0  0  0  0  0
   32.5166    8.9575   50.7776 C   0  0  1  0  0  0  0  0  0  0  0  0
   33.3818    9.7808   50.0474 O   0  0  0  0  0  0  0  0  0  0  0  0
   33.3061    8.1125   51.8053 C   0  0  2  0  0  0  0  0  0  0  0  0
   34.3100    7.3481   51.1674 O   0  0  0  0  0  0  0  0  0  0  0  0
   32.3633    7.1813   52.5375 C   0  0  2  0  0  0  0  0  0  0  0  0
   31.3280    7.9434   53.1453 O   0  0  0  0  0  0  0  0  0  0  0  0
   33.0396    6.4025   53.6435 C   0  0  0  0  0  0  0  0  0  0  0  0
   33.2896    7.2611   54.7397 O   0  0  0  0  0  0  0  0  0  0  0  0
   26.1999    5.8473   51.6103 C   0  0  2  0  0  0  0  0  0  0  0  0
   25.2156    4.8433   52.0158 N   0  3  0  0  0  0  0  0  0  0  0  0
   27.4216    5.1506   50.9243 C   0  0  0  0  0  0  0  0  0  0  0  0
   28.4824    6.1995   50.5398 C   0  0  2  0  0  0  0  0  0  0  0  0
   29.6588    5.5579   49.9437 N   0  3  0  0  0  0  0  0  0  0  0  0
   28.9126    7.0064   51.7806 C   0  0  2  0  0  0  0  0  0  0  0  0
   27.7245    7.6818   52.4930 C   0  0  2  0  0  0  0  0  0  0  0  0
   28.2588    8.2557   53.7016 O   0  0  0  0  0  0  0  0  0  0  0  0
   26.6357    6.6337   52.8364 C   0  0  1  0  0  0  0  0  0  0  0  0
   25.5265    7.2862   53.3905 O   0  0  0  0  0  0  0  0  0  0  0  0
   28.3011    7.5654   54.9478 C   0  0  1  0  0  0  0  0  0  0  0  0
   29.2432    8.3554   55.9247 C   0  0  2  0  0  0  0  0  0  0  0  0
   30.6087    7.9874   55.8304 O   0  0  0  0  0  0  0  0  0  0  0  0
   28.5700    7.9750   57.2360 C   0  0  2  0  0  0  0  0  0  0  0  0
   28.7642    6.5601   57.5361 O   0  0  0  0  0  0  0  0  0  0  0  0
   27.0940    8.1815   56.9260 C   0  0  2  0  0  0  0  0  0  0  0  0
   27.0081    7.6059   55.6110 O   0  0  0  0  0  0  0  0  0  0  0  0
   26.6146    9.6696   56.9660 C   0  0  0  0  0  0  0  0  0  0  0  0
   27.3439   10.4856   56.0407 O   0  0  0  0  0  0  0  0  0  0  0  0
   28.0375    6.1038   58.6741 C   0  0  2  0  0  0  0  0  0  0  0  0
   28.5877    6.6133   60.0496 C   0  0  2  0  0  0  0  0  0  0  0  0
   30.0150    6.2348   60.2801 N   0  3  0  0  0  0  0  0  0  0  0  0
   27.6525    6.0307   61.1613 C   0  0  1  0  0  0  0  0  0  0  0  0
   26.3051    6.5998   60.9416 O   0  0  0  0  0  0  0  0  0  0  0  0
   27.5530    4.4565   61.1049 C   0  0  2  0  0  0  0  0  0  0  0  0
   28.8527    3.9065   61.3754 O   0  0  0  0  0  0  0  0  0  0  0  0
   27.0291    4.0463   59.6664 C   0  0  1  0  0  0  0  0  0  0  0  0
   27.9578    4.6098   58.6798 O   0  0  0  0  0  0  0  0  0  0  0  0
   26.8923    2.5229   59.4436 C   0  0  0  0  0  0  0  0  0  0  0  0
   25.9006    1.8794   60.3475 N   0  3  0  0  0  0  0  0  0  0  0  0
  1  2  1  6  0  0  0
  1  3  1  0  0  0  0
  1 10  1  0  0  0  0
  3  4  1  6  0  0  0
  3  5  1  0  0  0  0
  5  6  1  1  0  0  0
  5  7  1  0  0  0  0
  7  8  1  6  0  0  0
  7  9  1  0  0  0  0
  9 10  1  0  0  0  0
  9 11  1  1  0  0  0
 11 12  1  0  0  0  0
 13 14  1  1  0  0  0
 13 15  1  0  0  0  0
 13 21  1  0  0  0  0
 15 16  1  0  0  0  0
 16 17  1  1  0  0  0
 16 18  1  0  0  0  0
 18  2  1  6  0  0  0
 18 19  1  0  0  0  0
 19 20  1  1  0  0  0
 19 21  1  0  0  0  0
 21 22  1  6  0  0  0
 23 20  1  6  0  0  0
 23 24  1  0  0  0  0
 23 29  1  0  0  0  0
 24 25  1  1  0  0  0
 24 26  1  0  0  0  0
 26 27  1  6  0  0  0
 26 28  1  0  0  0  0
 28 29  1  0  0  0  0
 28 30  1  6  0  0  0
 30 31  1  0  0  0  0
 32 27  1  6  0  0  0
 32 33  1  0  0  0  0
 32 40  1  0  0  0  0
 33 34  1  1  0  0  0
 33 35  1  0  0  0  0
 35 36  1  6  0  0  0
 35 37  1  0  0  0  0
 37 38  1  6  0  0  0
 37 39  1  0  0  0  0
 39 40  1  0  0  0  0
 39 41  1  1  0  0  0
 41 42  1  0  0  0  0
M  CHG  5   4   1  14   1  17   1  34   1  42   1
M  END
>  <CHROM.1>
177.55314120,-170.88335961,72.57381078,74.94408782,167.93107936,73.99620903
-49.93027348,69.84236313,172.86724219,-91.18340248,166.61606414,52.87913773
-63.48265610,-173.49871342,-71.88802458,58.52044411,-177.78743481,-42.54843707
-61.05959155,54.02300966,62.59378130,43.02041043,29.02931595,6.95105381,55.04617817
-1.16287324,0.34930121,1.76407337

>  <Name>
1j7t

>  <RI>
0

>  <Rbt.Current_Directory>
/home/itssahil/PROJECTS/Mol_Feturizer/New_Systems/rnas/1j7t

>  <Rbt.Executable>
rbdock ($Id: //depot/dev/client3/rdock/2013.1/src/exe/rbdock.cxx#4 $)

>  <Rbt.Library>
libRbt.so (2013.1, Build901 2013/11/27)

>  <Rbt.Parameter_File>
/export/apps/rDock/src/rDock_2013.1_src/data/scripts/dock_solv.prm

>  <Rbt.Receptor>
prm/pocket_docking_5.prm

>  <SCORE>
-53.4233

>  <SCORE.INTER>
-40.9662

>  <SCORE.INTER.CONST>
1

>  <SCORE.INTER.POLAR>
-6.08615

>  <SCORE.INTER.ROT>
9

>  <SCORE.INTER.SOLV>
23.5914

>  <SCORE.INTER.VDW>
-24.4874

>  <SCORE.INTER.norm>
-0.975385

>  <SCORE.INTRA>
-12.4678

>  <SCORE.INTRA.DIHEDRAL>
-33.9578

>  <SCORE.INTRA.DIHEDRAL.0>
46.2143

>  <SCORE.INTRA.POLAR>
1.67553

>  <SCORE.INTRA.POLAR.0>
-1.76436

>  <SCORE.INTRA.REPUL>
0.000599029

>  <SCORE.INTRA.REPUL.0>
0

>  <SCORE.INTRA.SOLV>
-3.60228

>  <SCORE.INTRA.SOLV.lig_0>
-148.643

>  <SCORE.INTRA.VDW>
0.612459

>  <SCORE.INTRA.VDW.0>
-4.83512

>  <SCORE.INTRA.norm>
-0.296851

>  <SCORE.RESTR>
0.0105995

>  <SCORE.RESTR.CAVITY>
0.0105995

>  <SCORE.RESTR.norm>
0.000252368

>  <SCORE.SYSTEM>
0

>  <SCORE.SYSTEM.CONST>
0

>  <SCORE.SYSTEM.DIHEDRAL>
0

>  <SCORE.SYSTEM.SOLV>
0

>  <SCORE.SYSTEM.norm>
0

>  <SCORE.heavy>
42

>  <SCORE.norm>
-1.27198

>  <RMSD>
4.356

$$$$
1j7t
 OpenBabel11021811393D
libRbt.so/2013.1/901 2013/11/27
 42 45  0  0  0  0  0  0  0  0999 V2000
   30.7835   10.2276   51.8889 C   0  0  2  0  0  0  0  0  0  0  0  0
   31.4532    8.9701   51.6192 O   0  0  0  0  0  0  0  0  0  0  0  0
   29.4859   10.2412   51.0309 C   0  0  2  0  0  0  0  0  0  0  0  0
   28.6106    9.0480   51.2143 N   0  3  0  0  0  0  0  0  0  0  0  0
   29.8960   10.3067   49.5435 C   0  0  1  0  0  0  0  0  0  0  0  0
   28.7639   10.3379   48.7206 O   0  0  0  0  0  0  0  0  0  0  0  0
   30.7865   11.5467   49.2928 C   0  0  2  0  0  0  0  0  0  0  0  0
   31.1559   11.6375   47.9310 O   0  0  0  0  0  0  0  0  0  0  0  0
   32.0371   11.4614   50.1417 C   0  0  2  0  0  0  0  0  0  0  0  0
   31.6689   11.3274   51.5086 O   0  0  0  0  0  0  0  0  0  0  0  0
   32.9064   12.6949   50.0421 C   0  0  0  0  0  0  0  0  0  0  0  0
   32.3308   13.7398   50.8026 O   0  0  0  0  0  0  0  0  0  0  0  0
   33.9418    6.3694   53.8310 C   0  0  2  0  0  0  0  0  0  0  0  0
   35.0442    5.8745   54.6562 N   0  3  0  0  0  0  0  0  0  0  0  0
   34.4965    6.9311   52.4800 C   0  0  0  0  0  0  0  0  0  0  0  0
   33.3441    7.4978   51.6288 C   0  0  2  0  0  0  0  0  0  0  0  0
   33.8528    8.0775   50.3814 N   0  3  0  0  0  0  0  0  0  0  0  0
   32.5746    8.5752   52.4180 C   0  0  2  0  0  0  0  0  0  0  0  0
   32.0398    8.0568   53.7673 C   0  0  2  0  0  0  0  0  0  0  0  0
   31.4918    9.2035   54.4456 O   0  0  0  0  0  0  0  0  0  0  0  0
   33.1913    7.4428   54.6032 C   0  0  1  0  0  0  0  0  0  0  0  0
   32.6640    6.8898   55.7777 O   0  0  0  0  0  0  0  0  0  0  0  0
   30.9408    9.1510   55.7589 C   0  0  1  0  0  0  0  0  0  0  0  0
   29.6219   10.0032   55.7818 C   0  0  2  0  0  0  0  0  0  0  0  0
   29.8284   11.3753   56.0712 O   0  0  0  0  0  0  0  0  0  0  0  0
   28.8781    9.2293   56.8613 C   0  0  2  0  0  0  0  0  0  0  0  0
   29.5052    9.4119   58.1663 O   0  0  0  0  0  0  0  0  0  0  0  0
   29.0957    7.7815   56.4444 C   0  0  2  0  0  0  0  0  0  0  0  0
   30.4867    7.8081   56.0811 O   0  0  0  0  0  0  0  0  0  0  0  0
   28.1770    7.2864   55.2797 C   0  0  0  0  0  0  0  0  0  0  0  0
   28.5929    6.0074   54.7847 O   0  0  0  0  0  0  0  0  0  0  0  0
   29.5642   10.7695   58.5963 C   0  0  2  0  0  0  0  0  0  0  0  0
   30.7658   11.1044   59.5442 C   0  0  2  0  0  0  0  0  0  0  0  0
   30.7789   10.2680   60.7826 N   0  3  0  0  0  0  0  0  0  0  0  0
   30.6711   12.6296   59.8824 C   0  0  1  0  0  0  0  0  0  0  0  0
   30.8388   13.3702   58.6131 O   0  0  0  0  0  0  0  0  0  0  0  0
   29.2816   13.0235   60.5190 C   0  0  2  0  0  0  0  0  0  0  0  0
   29.1479   12.3460   61.7792 O   0  0  0  0  0  0  0  0  0  0  0  0
   28.1379   12.6071   59.5038 C   0  0  1  0  0  0  0  0  0  0  0  0
   28.2770   11.1693   59.2457 O   0  0  0  0  0  0  0  0  0  0  0  0
   26.7037   12.9132   59.9921 C   0  0  0  0  0  0  0  0  0  0  0  0
   25.6467   12.2814   59.1565 N   0  3  0  0  0  0  0  0  0  0  0  0
  1  2  1  6  0  0  0
  1  3  1  0  0  0  0
  1 10  1  0  0  0  0
  3  4  1  6  0  0  0
  3  5  1  0  0  0  0
  5  6  1  6  0  0  0
  5  7  1  0  0  0  0
  7  8  1  6  0  0  0
  7  9  1  0  0  0  0
  9 10  1  0  0  0  0
  9 11  1  1  0  0  0
 11 12  1  0  0  0  0
 13 14  1  1  0  0  0
 13 15  1  0  0  0  0
 13 21  1  0  0  0  0
 15 16  1  0  0  0  0
 16 17  1  6  0  0  0
 16 18  1  0  0  0  0
 18  2  1  6  0  0  0
 18 19  1  0  0  0  0
 19 20  1  1  0  0  0
 19 21  1  0  0  0  0
 21 22  1  1  0  0  0
 23 20  1  6  0  0  0
 23 24  1  0  0  0  0
 23 29  1  0  0  0  0
 24 25  1  1  0  0  0
 24 26  1  0  0  0  0
 26 27  1  1  0  0  0
 26 28  1  0  0  0  0
 28 29  1  0  0  0  0
 28 30  1  6  0  0  0
 30 31  1  0  0  0  0
 32 27  1  1  0  0  0
 32 33  1  0  0  0  0
 32 40  1  0  0  0  0
 33 34  1  1  0  0  0
 33 35  1  0  0  0  0
 35 36  1  6  0  0  0
 35 37  1  0  0  0  0
 37 38  1  1  0  0  0
 37 39  1  0  0  0  0
 39 40  1  0  0  0  0
 39 41  1  1  0  0  0
 41 42  1  0  0  0  0
M  CHG  5   4   1  14   1  17   1  34   1  42   1
M  END
>  <CHROM.1>
-170.40373878,-161.14258120,61.55878791,91.83004373,-169.40934696,76.20135525
73.03084739,78.06121893,-170.10472656,-177.46173262,-137.47447526,-60.27501040
-77.05528934,59.13465079,-151.21336160,169.71892657,-168.35235638,-39.74256582
-48.18448710,70.52024486,-168.72967793,71.48975806,30.64175344,9.93266186
54.77738930,1.00476348,0.97511370,-1.28780352

>  <Name>
1j7t

>  <RI>
0

>  <Rbt.Current_Directory>
/home/itssahil/PROJECTS/Mol_Feturizer/New_Systems/rnas/1j7t

>  <Rbt.Executable>
rbdock ($Id: //depot/dev/client3/rdock/2013.1/src/exe/rbdock.cxx#4 $)

>  <Rbt.Library>
libRbt.so (2013.1, Build901 2013/11/27)

>  <Rbt.Parameter_File>
/export/apps/rDock/src/rDock_2013.1_src/data/scripts/dock_solv.prm

>  <Rbt.Receptor>
prm/blind_docking_80.prm

>  <SCORE>
-19.1901

>  <SCORE.INTER>
-51.5295

>  <SCORE.INTER.CONST>
1

>  <SCORE.INTER.POLAR>
-9.58246

>  <SCORE.INTER.ROT>
9

>  <SCORE.INTER.SOLV>
41.3433

>  <SCORE.INTER.VDW>
-25.7925

>  <SCORE.INTER.norm>
-1.22689

>  <SCORE.INTRA>
3.55999

>  <SCORE.INTRA.DIHEDRAL>
-22.1413

>  <SCORE.INTRA.DIHEDRAL.0>
46.2143

>  <SCORE.INTRA.POLAR>
1.70713

>  <SCORE.INTRA.POLAR.0>
-1.76436

>  <SCORE.INTRA.REPUL>
0

>  <SCORE.INTRA.REPUL.0>
0

>  <SCORE.INTRA.SOLV>
-4.9226

>  <SCORE.INTRA.SOLV.lig_0>
-148.643

>  <SCORE.INTRA.VDW>
11.2877

>  <SCORE.INTRA.VDW.0>
-4.83512

>  <SCORE.INTRA.norm>
0.0847616

>  <SCORE.RESTR>
28.7794

>  <SCORE.RESTR.CAVITY>
28.7794

>  <SCORE.RESTR.norm>
0.685223

>  <SCORE.SYSTEM>
0

>  <SCORE.SYSTEM.CONST>
0

>  <SCORE.SYSTEM.DIHEDRAL>
0

>  <SCORE.SYSTEM.SOLV>
0

>  <SCORE.SYSTEM.norm>
0

>  <SCORE.heavy>
42

>  <SCORE.norm>
-0.456908

>  <RMSD>
4.358

$$$$
1j7t
 OpenBabel11021811393D
libRbt.so/2013.1/901 2013/11/27
 42 45  0  0  0  0  0  0  0  0999 V2000
   30.4598   10.4391   51.5560 C   0  0  2  0  0  0  0  0  0  0  0  0
   31.1991    9.2296   51.2512 O   0  0  0  0  0  0  0  0  0  0  0  0
   29.1806   10.4216   50.6709 C   0  0  2  0  0  0  0  0  0  0  0  0
   28.3650    9.1787   50.7871 N   0  3  0  0  0  0  0  0  0  0  0  0
   29.6163   10.5689   49.1966 C   0  0  1  0  0  0  0  0  0  0  0  0
   28.5008   10.5760   48.3509 O   0  0  0  0  0  0  0  0  0  0  0  0
   30.4461   11.8620   49.0153 C   0  0  2  0  0  0  0  0  0  0  0  0
   30.8373   12.0273   47.6667 O   0  0  0  0  0  0  0  0  0  0  0  0
   31.6823   11.8059   49.8875 C   0  0  2  0  0  0  0  0  0  0  0  0
   31.2943   11.5974   51.2395 O   0  0  0  0  0  0  0  0  0  0  0  0
   32.4881   13.0853   49.8564 C   0  0  0  0  0  0  0  0  0  0  0  0
   33.8001   12.8273   50.3183 O   0  0  0  0  0  0  0  0  0  0  0  0
   33.6564    6.5494   53.4021 C   0  0  2  0  0  0  0  0  0  0  0  0
   34.7129    6.0313   54.2721 N   0  3  0  0  0  0  0  0  0  0  0  0
   34.2887    7.2919   52.1785 C   0  0  0  0  0  0  0  0  0  0  0  0
   33.1799    7.8811   51.2857 C   0  0  2  0  0  0  0  0  0  0  0  0
   33.7560    8.6271   50.1620 N   0  3  0  0  0  0  0  0  0  0  0  0
   32.2697    8.8148   52.1075 C   0  0  2  0  0  0  0  0  0  0  0  0
   31.6544    8.1166   53.3360 C   0  0  2  0  0  0  0  0  0  0  0  0
   30.9693    9.1448   54.0768 O   0  0  0  0  0  0  0  0  0  0  0  0
   32.7669    7.4822   54.2086 C   0  0  1  0  0  0  0  0  0  0  0  0
   32.1770    6.7699   55.2611 O   0  0  0  0  0  0  0  0  0  0  0  0
   30.5776    9.0033   55.4398 C   0  0  1  0  0  0  0  0  0  0  0  0
   29.4667   10.0679   55.7536 C   0  0  2  0  0  0  0  0  0  0  0  0
   29.9745   11.3232   56.1723 O   0  0  0  0  0  0  0  0  0  0  0  0
   28.7164    9.2936   56.8282 C   0  0  2  0  0  0  0  0  0  0  0  0
   29.5168    9.1684   58.0421 O   0  0  0  0  0  0  0  0  0  0  0  0
   28.5910    7.9063   56.2144 C   0  0  2  0  0  0  0  0  0  0  0  0
   29.9068    7.7327   55.6609 O   0  0  0  0  0  0  0  0  0  0  0  0
   27.4614    7.7600   55.1427 C   0  0  0  0  0  0  0  0  0  0  0  0
   27.8558    8.3102   53.8795 O   0  0  0  0  0  0  0  0  0  0  0  0
   29.9245   10.4155   58.5989 C   0  0  2  0  0  0  0  0  0  0  0  0
   30.9343   10.3012   59.7912 C   0  0  2  0  0  0  0  0  0  0  0  0
   30.4034    9.4856   60.9254 N   0  3  0  0  0  0  0  0  0  0  0  0
   31.2758   11.7601   60.2437 C   0  0  1  0  0  0  0  0  0  0  0  0
   31.9480   12.4246   59.1061 O   0  0  0  0  0  0  0  0  0  0  0  0
   29.9903   12.5913   60.6283 C   0  0  2  0  0  0  0  0  0  0  0  0
   29.3720   11.9747   61.7695 O   0  0  0  0  0  0  0  0  0  0  0  0
   29.0216   12.6106   59.3740 C   0  0  1  0  0  0  0  0  0  0  0  0
   28.7323   11.2170   59.0166 O   0  0  0  0  0  0  0  0  0  0  0  0
   27.6983   13.3775   59.5970 C   0  0  0  0  0  0  0  0  0  0  0  0
   26.9094   13.5713   58.3501 N   0  3  0  0  0  0  0  0  0  0  0  0
  1  2  1  6  0  0  0
  1  3  1  0  0  0  0
  1 10  1  0  0  0  0
  3  4  1  6  0  0  0
  3  5  1  0  0  0  0
  5  6  1  6  0  0  0
  5  7  1  0  0  0  0
  7  8  1  6  0  0  0
  7  9  1  0  0  0  0
  9 10  1  0  0  0  0
  9 11  1  1  0  0  0
 11 12  1  0  0  0  0
 13 14  1  1  0  0  0
 13 15  1  0  0  0  0
 13 21  1  0  0  0  0
 15 16  1  0  0  0  0
 16 17  1  6  0  0  0
 16 18  1  0  0  0  0
 18  2  1  6  0  0  0
 18 19  1  0  0  0  0
 19 20  1  1  0  0  0
 19 21  1  0  0  0  0
 21 22  1  1  0  0  0
 23 20  1  6  0  0  0
 23 24  1  0  0  0  0
 23 29  1  0  0  0  0
 24 25  1  1  0  0  0
 24 26  1  0  0  0  0
 26 27  1  1  0  0  0
 26 28  1  0  0  0  0
 28 29  1  0  0  0  0
 28 30  1  6  0  0  0
 30 31  1  0  0  0  0
 32 27  1  1  0  0  0
 32 33  1  0  0  0  0
 32 40  1  0  0  0  0
 33 34  1  1  0  0  0
 33 35  1  0  0  0  0
 35 36  1  6  0  0  0
 35 37  1  0  0  0  0
 37 38  1  1  0  0  0
 37 39  1  0  0  0  0
 39 40  1  0  0  0  0
 39 41  1  1  0  0  0
 41 42  1  0  0  0  0
M  CHG  5   4   1  14   1  17   1  34   1  42   1
M  END
>  <CHROM.1>
-166.44647236,-158.43980850,177.58287807,178.09440076,-179.48898162,-161.28313113
-173.82117431,66.48169488,-48.02301929,-162.50568637,-160.96905754,139.60084969
-168.64308728,57.56903958,-172.48721634,78.18665891,67.04480280,-138.33651919
-178.21388637,-67.38994318,170.62123849,-56.16786120,30.60443354,10.02858507
54.53300758,1.22007895,0.92535850,-1.40220434

>  <Name>
1j7t

>  <RI>
0

>  <Rbt.Current_Directory>
/home/itssahil/PROJECTS/Mol_Feturizer/New_Systems/rnas/1j7t

>  <Rbt.Executable>
rbdock ($Id: //depot/dev/client3/rdock/2013.1/src/exe/rbdock.cxx#4 $)

>  <Rbt.Library>
libRbt.so (2013.1, Build901 2013/11/27)

>  <Rbt.Parameter_File>
/export/apps/rDock/src/rDock_2013.1_src/data/scripts/dock_solv.prm

>  <Rbt.Receptor>
prm/blind_docking_100.prm

>  <SCORE>
-24.0689

>  <SCORE.INTER>
-31.1513

>  <SCORE.INTER.CONST>
1

>  <SCORE.INTER.POLAR>
-4.78884

>  <SCORE.INTER.ROT>
9

>  <SCORE.INTER.SOLV>
40.7602

>  <SCORE.INTER.VDW>
-27.9914

>  <SCORE.INTER.norm>
-0.741696

>  <SCORE.INTRA>
-8.54192

>  <SCORE.INTRA.DIHEDRAL>
-26.6083

>  <SCORE.INTRA.DIHEDRAL.0>
46.2143

>  <SCORE.INTRA.POLAR>
0.875778

>  <SCORE.INTRA.POLAR.0>
-1.76436

>  <SCORE.INTRA.REPUL>
0.100004

>  <SCORE.INTRA.REPUL.0>
0

>  <SCORE.INTRA.SOLV>
-2.16798

>  <SCORE.INTRA.SOLV.lig_0>
-148.643

>  <SCORE.INTRA.VDW>
2.36857

>  <SCORE.INTRA.VDW.0>
-4.83512

>  <SCORE.INTRA.norm>
-0.203379

>  <SCORE.RESTR>
15.6243

>  <SCORE.RESTR.CAVITY>
15.6243

>  <SCORE.RESTR.norm>
0.372008

>  <SCORE.SYSTEM>
0

>  <SCORE.SYSTEM.CONST>
0

>  <SCORE.SYSTEM.DIHEDRAL>
0

>  <SCORE.SYSTEM.SOLV>
0

>  <SCORE.SYSTEM.norm>
0

>  <SCORE.heavy>
42

>  <SCORE.norm>
-0.573068

>  <RMSD>
4.394

$$$$
1j7t
 OpenBabel11021811393D
libRbt.so/2013.1/901 2013/11/27
 42 45  0  0  0  0  0  0  0  0999 V2000
   31.9997    9.1120   53.4647 C   0  0  2  0  0  0  0  0  0  0  0  0
   30.7510    9.4302   52.7998 O   0  0  0  0  0  0  0  0  0  0  0  0
   33.1106    9.1387   52.3761 C   0  0  2  0  0  0  0  0  0  0  0  0
   33.1638   10.3969   51.5774 N   0  3  0  0  0  0  0  0  0  0  0  0
   32.8555    7.9674   51.4025 C   0  0  1  0  0  0  0  0  0  0  0  0
   33.8378    7.9313   50.4059 O   0  0  0  0  0  0  0  0  0  0  0  0
   32.8179    6.6302   52.1798 C   0  0  2  0  0  0  0  0  0  0  0  0
   32.6065    5.5412   51.3032 O   0  0  0  0  0  0  0  0  0  0  0  0
   31.7061    6.6638   53.2068 C   0  0  2  0  0  0  0  0  0  0  0  0
   31.8923    7.7827   54.0644 O   0  0  0  0  0  0  0  0  0  0  0  0
   31.6777    5.4364   54.0899 C   0  0  0  0  0  0  0  0  0  0  0  0
   31.3130    4.3086   53.3177 O   0  0  0  0  0  0  0  0  0  0  0  0
   27.0616    7.6584   51.7523 C   0  0  2  0  0  0  0  0  0  0  0  0
   26.0545    6.6543   51.4075 N   0  3  0  0  0  0  0  0  0  0  0  0
   28.1933    7.6724   50.6718 C   0  0  0  0  0  0  0  0  0  0  0  0
   29.2805    8.6940   51.0566 C   0  0  2  0  0  0  0  0  0  0  0  0
   30.3763    8.6820   50.0819 N   0  3  0  0  0  0  0  0  0  0  0  0
   29.8385    8.3802   52.4587 C   0  0  2  0  0  0  0  0  0  0  0  0
   28.7409    8.3327   53.5395 C   0  0  2  0  0  0  0  0  0  0  0  0
   29.3877    7.8797   54.7444 O   0  0  0  0  0  0  0  0  0  0  0  0
   27.6231    7.3408   53.1291 C   0  0  1  0  0  0  0  0  0  0  0  0
   26.5919    7.3910   54.0763 O   0  0  0  0  0  0  0  0  0  0  0  0
   28.7683    7.9083   56.0277 C   0  0  1  0  0  0  0  0  0  0  0  0
   28.5423    6.4299   56.5065 C   0  0  2  0  0  0  0  0  0  0  0  0
   27.3140    5.8676   56.0776 O   0  0  0  0  0  0  0  0  0  0  0  0
   28.6456    6.6658   58.0069 C   0  0  2  0  0  0  0  0  0  0  0  0
   27.5058    7.4333   58.4985 O   0  0  0  0  0  0  0  0  0  0  0  0
   29.8797    7.5495   58.1219 C   0  0  2  0  0  0  0  0  0  0  0  0
   29.6671    8.4592   57.0288 O   0  0  0  0  0  0  0  0  0  0  0  0
   31.2440    6.7919   58.0200 C   0  0  0  0  0  0  0  0  0  0  0  0
   31.2183    5.7910   56.9945 O   0  0  0  0  0  0  0  0  0  0  0  0
   26.6604    6.7096   59.3890 C   0  0  2  0  0  0  0  0  0  0  0  0
   27.2489    6.5008   60.8258 C   0  0  2  0  0  0  0  0  0  0  0  0
   28.5623    5.7880   60.8173 N   0  3  0  0  0  0  0  0  0  0  0  0
   26.1751    5.7162   61.6510 C   0  0  1  0  0  0  0  0  0  0  0  0
   24.9774    6.5791   61.7425 O   0  0  0  0  0  0  0  0  0  0  0  0
   25.7660    4.3522   60.9701 C   0  0  2  0  0  0  0  0  0  0  0  0
   26.9189    3.4952   60.9350 O   0  0  0  0  0  0  0  0  0  0  0  0
   25.2256    4.6700   59.5145 C   0  0  1  0  0  0  0  0  0  0  0  0
   26.2844    5.3884   58.7961 O   0  0  0  0  0  0  0  0  0  0  0  0
   24.7964    3.4261   58.7036 C   0  0  0  0  0  0  0  0  0  0  0  0
   25.8853    2.4262   58.5331 N   0  3  0  0  0  0  0  0  0  0  0  0
  1  2  1  6  0  0  0
  1  3  1  0  0  0  0
  1 10  1  0  0  0  0
  3  4  1  6  0  0  0
  3  5  1  0  0  0  0
  5  6  1  6  0  0  0
  5  7  1  0  0  0  0
  7  8  1  6  0  0  0
  7  9  1  0  0  0  0
  9 10  1  0  0  0  0
  9 11  1  1  0  0  0
 11 12  1  0  0  0  0
 13 14  1  6  0  0  0
 13 15  1  0  0  0  0
 13 21  1  0  0  0  0
 15 16  1  0  0  0  0
 16 17  1  6  0  0  0
 16 18  1  0  0  0  0
 18  2  1  1  0  0  0
 18 19  1  0  0  0  0
 19 20  1  1  0  0  0
 19 21  1  0  0  0  0
 21 22  1  1  0  0  0
 23 20  1  6  0  0  0
 23 24  1  0  0  0  0
 23 29  1  0  0  0  0
 24 25  1  1  0  0  0
 24 26  1  0  0  0  0
 26 27  1  6  0  0  0
 26 28  1  0  0  0  0
 28 29  1  0  0  0  0
 28 30  1  6  0  0  0
 30 31  1  0  0  0  0
 32 27  1  6  0  0  0
 32 33  1  0  0  0  0
 32 40  1  0  0  0  0
 33 34  1  6  0  0  0
 33 35  1  0  0  0  0
 35 36  1  6  0  0  0
 35 37  1  0  0  0  0
 37 38  1  6  0  0  0
 37 39  1  0  0  0  0
 39 40  1  0  0  0  0
 39 41  1  6  0  0  0
 41 42  1  0  0  0  0
M  CHG  5   4   1  14   1  17   1  34   1  42   1
M  END
>  <CHROM.1>
100.87439179,-139.03237037,-46.21943013,-69.93753310,-22.61429403,-67.69296444
56.91021169,-160.84171765,-179.44316212,169.37659718,113.15757370,65.54826999
-152.40189972,114.26656452,74.31203682,41.67692215,-178.77738940,54.60507517
-59.87738791,82.38126212,-57.85550234,-86.30393544,29.10949923,6.79825303
55.46716172,-1.03939805,0.21317959,1.77298906

>  <Name>
1j7t

>  <RI>
0

>  <Rbt.Current_Directory>
/home/itssahil/PROJECTS/Mol_Feturizer/New_Systems/rnas/1j7t

>  <Rbt.Executable>
rbdock ($Id: //depot/dev/client3/rdock/2013.1/src/exe/rbdock.cxx#4 $)

>  <Rbt.Library>
libRbt.so (2013.1, Build901 2013/11/27)

>  <Rbt.Parameter_File>
/export/apps/rDock/src/rDock_2013.1_src/data/scripts/dock_solv.prm

>  <Rbt.Receptor>
prm/pocket_docking_2.prm

>  <SCORE>
-23.5127

>  <SCORE.INTER>
-30.1473

>  <SCORE.INTER.CONST>
1

>  <SCORE.INTER.POLAR>
-5.72881

>  <SCORE.INTER.ROT>
9

>  <SCORE.INTER.SOLV>
24.9694

>  <SCORE.INTER.VDW>
-18.9254

>  <SCORE.INTER.norm>
-0.717794

>  <SCORE.INTRA>
2.57505

>  <SCORE.INTRA.DIHEDRAL>
-4.60308

>  <SCORE.INTRA.DIHEDRAL.0>
46.2143

>  <SCORE.INTRA.POLAR>
-0.983621

>  <SCORE.INTRA.POLAR.0>
-1.76436

>  <SCORE.INTRA.REPUL>
0.218789

>  <SCORE.INTRA.REPUL.0>
0

>  <SCORE.INTRA.SOLV>
10.2561

>  <SCORE.INTRA.SOLV.lig_0>
-148.643

>  <SCORE.INTRA.VDW>
1.99893

>  <SCORE.INTRA.VDW.0>
-4.83512

>  <SCORE.INTRA.norm>
0.0613107

>  <SCORE.RESTR>
4.05954

>  <SCORE.RESTR.CAVITY>
4.05954

>  <SCORE.RESTR.norm>
0.0966557

>  <SCORE.SYSTEM>
0

>  <SCORE.SYSTEM.CONST>
0

>  <SCORE.SYSTEM.DIHEDRAL>
0

>  <SCORE.SYSTEM.SOLV>
0

>  <SCORE.SYSTEM.norm>
0

>  <SCORE.heavy>
42

>  <SCORE.norm>
-0.559827

>  <RMSD>
4.416

$$$$
1j7t
 OpenBabel11021811393D
libRbt.so/2013.1/901 2013/11/27
 42 45  0  0  0  0  0  0  0  0999 V2000
   30.6820   10.1061   51.9684 C   0  0  2  0  0  0  0  0  0  0  0  0
   31.4734    8.9485   51.5995 O   0  0  0  0  0  0  0  0  0  0  0  0
   29.4212   10.1001   51.0571 C   0  0  2  0  0  0  0  0  0  0  0  0
   28.6525    8.8225   51.0730 N   0  3  0  0  0  0  0  0  0  0  0  0
   29.8781   10.3627   49.6055 C   0  0  1  0  0  0  0  0  0  0  0  0
   28.7792   10.3847   48.7387 O   0  0  0  0  0  0  0  0  0  0  0  0
   30.6602   11.6953   49.5284 C   0  0  2  0  0  0  0  0  0  0  0  0
   31.0698   11.9656   48.2023 O   0  0  0  0  0  0  0  0  0  0  0  0
   31.8812   11.6271   50.4209 C   0  0  2  0  0  0  0  0  0  0  0  0
   31.4765   11.3136   51.7475 O   0  0  0  0  0  0  0  0  0  0  0  0
   32.6370   12.9350   50.4921 C   0  0  0  0  0  0  0  0  0  0  0  0
   33.2020   13.2224   49.2275 O   0  0  0  0  0  0  0  0  0  0  0  0
   33.8731    6.3198   53.8754 C   0  0  2  0  0  0  0  0  0  0  0  0
   34.9473    5.8127   54.7300 N   0  3  0  0  0  0  0  0  0  0  0  0
   34.4707    6.8773   52.5410 C   0  0  0  0  0  0  0  0  0  0  0  0
   33.3481    7.4568   51.6592 C   0  0  2  0  0  0  0  0  0  0  0  0
   33.8969    8.0326   50.4270 N   0  3  0  0  0  0  0  0  0  0  0  0
   32.5682    8.5411   52.4284 C   0  0  2  0  0  0  0  0  0  0  0  0
   31.9911    8.0268   53.7616 C   0  0  2  0  0  0  0  0  0  0  0  0
   31.4363    9.1783   54.4262 O   0  0  0  0  0  0  0  0  0  0  0  0
   33.1127    7.4000   54.6282 C   0  0  1  0  0  0  0  0  0  0  0  0
   32.5476    6.8512   55.7868 O   0  0  0  0  0  0  0  0  0  0  0  0
   30.8963    9.1409   55.7446 C   0  0  1  0  0  0  0  0  0  0  0  0
   29.5889   10.0104   55.7739 C   0  0  2  0  0  0  0  0  0  0  0  0
   29.8159   11.3814   56.0531 O   0  0  0  0  0  0  0  0  0  0  0  0
   28.8446    9.2529   56.8645 C   0  0  2  0  0  0  0  0  0  0  0  0
   29.4856    9.4349   58.1628 O   0  0  0  0  0  0  0  0  0  0  0  0
   29.0396    7.7999   56.4546 C   0  0  2  0  0  0  0  0  0  0  0  0
   30.4276    7.8060   56.0789 O   0  0  0  0  0  0  0  0  0  0  0  0
   28.1042    7.3100   55.3009 C   0  0  0  0  0  0  0  0  0  0  0  0
   28.3051    8.0655   54.0997 O   0  0  0  0  0  0  0  0  0  0  0  0
   29.6323   10.7986   58.5508 C   0  0  2  0  0  0  0  0  0  0  0  0
   30.8539   11.0845   59.4891 C   0  0  2  0  0  0  0  0  0  0  0  0
   30.8143   10.2876   60.7528 N   0  3  0  0  0  0  0  0  0  0  0  0
   30.8580   12.6223   59.7799 C   0  0  1  0  0  0  0  0  0  0  0  0
   31.0717   13.3110   58.4886 O   0  0  0  0  0  0  0  0  0  0  0  0
   29.4973   13.1244   60.4027 C   0  0  2  0  0  0  0  0  0  0  0  0
   29.3214   12.4962   61.6830 O   0  0  0  0  0  0  0  0  0  0  0  0
   28.3282   12.7514   59.3996 C   0  0  1  0  0  0  0  0  0  0  0  0
   28.3742   11.3003   59.1862 O   0  0  0  0  0  0  0  0  0  0  0  0
   26.9172   13.1641   59.8767 C   0  0  0  0  0  0  0  0  0  0  0  0
   26.4343   12.3789   61.0450 N   0  3  0  0  0  0  0  0  0  0  0  0
  1  2  1  6  0  0  0
  1  3  1  0  0  0  0
  1 10  1  0  0  0  0
  3  4  1  6  0  0  0
  3  5  1  0  0  0  0
  5  6  1  6  0  0  0
  5  7  1  0  0  0  0
  7  8  1  6  0  0  0
  7  9  1  0  0  0  0
  9 10  1  0  0  0  0
  9 11  1  1  0  0  0
 11 12  1  0  0  0  0
 13 14  1  1  0  0  0
 13 15  1  0  0  0  0
 13 21  1  0  0  0  0
 15 16  1  0  0  0  0
 16 17  1  6  0  0  0
 16 18  1  0  0  0  0
 18  2  1  6  0  0  0
 18 19  1  0  0  0  0
 19 20  1  1  0  0  0
 19 21  1  0  0  0  0
 21 22  1  1  0  0  0
 23 20  1  6  0  0  0
 23 24  1  0  0  0  0
 23 29  1  0  0  0  0
 24 25  1  1  0  0  0
 24 26  1  0  0  0  0
 26 27  1  1  0  0  0
 26 28  1  0  0  0  0
 28 29  1  0  0  0  0
 28 30  1  6  0  0  0
 30 31  1  0  0  0  0
 32 27  1  1  0  0  0
 32 33  1  0  0  0  0
 32 40  1  0  0  0  0
 33 34  1  1  0  0  0
 33 35  1  0  0  0  0
 35 36  1  6  0  0  0
 35 37  1  0  0  0  0
 37 38  1  1  0  0  0
 37 39  1  0  0  0  0
 39 40  1  0  0  0  0
 39 41  1  1  0  0  0
 41 42  1  0  0  0  0
M  CHG  5   4   1  14   1  17   1  34   1  42   1
M  END
>  <CHROM.1>
-168.29320827,-170.37700223,-61.33143461,-172.46893276,-44.49129574,-66.58729609
62.39249978,-47.16531171,-177.05276497,-174.90513068,-138.94150114,173.39079176
-174.34152576,55.87015235,-151.31681367,60.50005255,-165.35031741,78.53386782
-56.04041219,55.23367358,-69.05247632,38.88365113,30.67328483,9.99670884
54.78559709,1.04658537,0.97351871,-1.32178354

>  <Name>
1j7t

>  <RI>
0

>  <Rbt.Current_Directory>
/home/itssahil/PROJECTS/Mol_Feturizer/New_Systems/rnas/1j7t

>  <Rbt.Executable>
rbdock ($Id: //depot/dev/client3/rdock/2013.1/src/exe/rbdock.cxx#4 $)

>  <Rbt.Library>
libRbt.so (2013.1, Build901 2013/11/27)

>  <Rbt.Parameter_File>
/export/apps/rDock/src/rDock_2013.1_src/data/scripts/dock_solv.prm

>  <Rbt.Receptor>
prm/blind_docking_80.prm

>  <SCORE>
-30.148

>  <SCORE.INTER>
-46.2222

>  <SCORE.INTER.CONST>
1

>  <SCORE.INTER.POLAR>
-7.48733

>  <SCORE.INTER.ROT>
9

>  <SCORE.INTER.SOLV>
31.9852

>  <SCORE.INTER.VDW>
-26.1188

>  <SCORE.INTER.norm>
-1.10053

>  <SCORE.INTRA>
-10.9712

>  <SCORE.INTRA.DIHEDRAL>
-29.8684

>  <SCORE.INTRA.DIHEDRAL.0>
46.2143

>  <SCORE.INTRA.POLAR>
-0.996146

>  <SCORE.INTRA.POLAR.0>
-1.76436

>  <SCORE.INTRA.REPUL>
0

>  <SCORE.INTRA.REPUL.0>
0

>  <SCORE.INTRA.SOLV>
0.421407

>  <SCORE.INTRA.SOLV.lig_0>
-148.643

>  <SCORE.INTRA.VDW>
7.13921

>  <SCORE.INTRA.VDW.0>
-4.83512

>  <SCORE.INTRA.norm>
-0.261219

>  <SCORE.RESTR>
27.0454

>  <SCORE.RESTR.CAVITY>
27.0454

>  <SCORE.RESTR.norm>
0.643939

>  <SCORE.SYSTEM>
0

>  <SCORE.SYSTEM.CONST>
0

>  <SCORE.SYSTEM.DIHEDRAL>
0

>  <SCORE.SYSTEM.SOLV>
0

>  <SCORE.SYSTEM.norm>
0

>  <SCORE.heavy>
42

>  <SCORE.norm>
-0.71781

>  <RMSD>
4.432

$$$$
1j7t
 OpenBabel11021811393D
libRbt.so/2013.1/901 2013/11/27
 42 45  0  0  0  0  0  0  0  0999 V2000
   30.8799   10.4899   51.7199 C   0  0  2  0  0  0  0  0  0  0  0  0
   31.4757    9.2049   51.4097 O   0  0  0  0  0  0  0  0  0  0  0  0
   29.5756   10.5978   50.8789 C   0  0  2  0  0  0  0  0  0  0  0  0
   28.6375    9.4502   51.0424 N   0  3  0  0  0  0  0  0  0  0  0  0
   29.9722   10.6797   49.3886 C   0  0  1  0  0  0  0  0  0  0  0  0
   28.8346   10.7950   48.5811 O   0  0  0  0  0  0  0  0  0  0  0  0
   30.9274   11.8748   49.1588 C   0  0  2  0  0  0  0  0  0  0  0  0
   31.2861   11.9810   47.7953 O   0  0  0  0  0  0  0  0  0  0  0  0
   32.1807   11.6982   49.9895 C   0  0  2  0  0  0  0  0  0  0  0  0
   31.8207   11.5488   51.3570 O   0  0  0  0  0  0  0  0  0  0  0  0
   33.1159   12.8841   49.9108 C   0  0  0  0  0  0  0  0  0  0  0  0
   32.7100   13.8672   50.8436 O   0  0  0  0  0  0  0  0  0  0  0  0
   33.7563    6.3050   53.4684 C   0  0  2  0  0  0  0  0  0  0  0  0
   34.7890    5.6907   54.3035 N   0  3  0  0  0  0  0  0  0  0  0  0
   34.4146    7.0036   52.2327 C   0  0  0  0  0  0  0  0  0  0  0  0
   33.3352    7.6934   51.3767 C   0  0  2  0  0  0  0  0  0  0  0  0
   33.9406    8.3992   50.2426 N   0  3  0  0  0  0  0  0  0  0  0  0
   32.5309    8.6925   52.2316 C   0  0  2  0  0  0  0  0  0  0  0  0
   31.8934    8.0366   53.4720 C   0  0  2  0  0  0  0  0  0  0  0  0
   31.3191    9.1115   54.2401 O   0  0  0  0  0  0  0  0  0  0  0  0
   32.9722    7.3016   54.3073 C   0  0  1  0  0  0  0  0  0  0  0  0
   32.3538    6.6312   55.3709 O   0  0  0  0  0  0  0  0  0  0  0  0
   30.8207    8.9517   55.5657 C   0  0  1  0  0  0  0  0  0  0  0  0
   29.6232    9.9464   55.7727 C   0  0  2  0  0  0  0  0  0  0  0  0
   30.0146   11.2326   56.2214 O   0  0  0  0  0  0  0  0  0  0  0  0
   28.8322    9.1314   56.7863 C   0  0  2  0  0  0  0  0  0  0  0  0
   29.5310    9.0614   58.0655 O   0  0  0  0  0  0  0  0  0  0  0  0
   28.8461    7.7363   56.1772 C   0  0  2  0  0  0  0  0  0  0  0  0
   30.2130    7.6427   55.7406 O   0  0  0  0  0  0  0  0  0  0  0  0
   27.8244    7.5154   55.0140 C   0  0  0  0  0  0  0  0  0  0  0  0
   28.3073    8.0529   53.7762 O   0  0  0  0  0  0  0  0  0  0  0  0
   29.9545   10.3274   58.5648 C   0  0  2  0  0  0  0  0  0  0  0  0
   30.8953   10.2565   59.8155 C   0  0  2  0  0  0  0  0  0  0  0  0
   30.2760    9.5338   60.9676 N   0  3  0  0  0  0  0  0  0  0  0  0
   31.2660   11.7293   60.1939 C   0  0  1  0  0  0  0  0  0  0  0  0
   32.0210   12.2965   59.0555 O   0  0  0  0  0  0  0  0  0  0  0  0
   29.9935   12.6259   60.4549 C   0  0  2  0  0  0  0  0  0  0  0  0
   29.2939   12.1050   61.5967 O   0  0  0  0  0  0  0  0  0  0  0  0
   29.0934   12.5968   59.1507 C   0  0  1  0  0  0  0  0  0  0  0  0
   28.7723   11.1935   58.8657 O   0  0  0  0  0  0  0  0  0  0  0  0
   27.7892   13.4201   59.2524 C   0  0  0  0  0  0  0  0  0  0  0  0
   27.5738   14.3325   58.0967 N   0  3  0  0  0  0  0  0  0  0  0  0
  1  2  1  6  0  0  0
  1  3  1  0  0  0  0
  1 10  1  0  0  0  0
  3  4  1  6  0  0  0
  3  5  1  0  0  0  0
  5  6  1  6  0  0  0
  5  7  1  0  0  0  0
  7  8  1  6  0  0  0
  7  9  1  0  0  0  0
  9 10  1  0  0  0  0
  9 11  1  1  0  0  0
 11 12  1  0  0  0  0
 13 14  1  1  0  0  0
 13 15  1  0  0  0  0
 13 21  1  0  0  0  0
 15 16  1  0  0  0  0
 16 17  1  6  0  0  0
 16 18  1  0  0  0  0
 18  2  1  6  0  0  0
 18 19  1  0  0  0  0
 19 20  1  1  0  0  0
 19 21  1  0  0  0  0
 21 22  1  1  0  0  0
 23 20  1  6  0  0  0
 23 24  1  0  0  0  0
 23 29  1  0  0  0  0
 24 25  1  1  0  0  0
 24 26  1  0  0  0  0
 26 27  1  1  0  0  0
 26 28  1  0  0  0  0
 28 29  1  0  0  0  0
 28 30  1  6  0  0  0
 30 31  1  0  0  0  0
 32 27  1  1  0  0  0
 32 33  1  0  0  0  0
 32 40  1  0  0  0  0
 33 34  1  1  0  0  0
 33 35  1  0  0  0  0
 35 36  1  6  0  0  0
 35 37  1  0  0  0  0
 37 38  1  1  0  0  0
 37 39  1  0  0  0  0
 39 40  1  0  0  0  0
 39 41  1  1  0  0  0
 41 42  1  0  0  0  0
M  CHG  5   4   1  14   1  17   1  34   1  42   1
M  END
>  <CHROM.1>
-166.79056375,-156.45494181,175.15170512,55.47942737,167.68043949,84.22045924
-52.55998056,-48.96015393,176.67696221,-169.62727286,-148.10554449,-58.87170655
-174.32799812,50.37865830,-170.92087622,79.71262275,173.93920231,-142.88628695
175.60126987,176.26571454,130.75172751,-66.09140696,30.78463165,10.01480488
54.57792556,1.07173302,1.06026461,-1.25893874

>  <Name>
1j7t

>  <RI>
0

>  <Rbt.Current_Directory>
/home/itssahil/PROJECTS/Mol_Feturizer/New_Systems/rnas/1j7t

>  <Rbt.Executable>
rbdock ($Id: //depot/dev/client3/rdock/2013.1/src/exe/rbdock.cxx#4 $)

>  <Rbt.Library>
libRbt.so (2013.1, Build901 2013/11/27)

>  <Rbt.Parameter_File>
/export/apps/rDock/src/rDock_2013.1_src/data/scripts/dock_solv.prm

>  <Rbt.Receptor>
prm/blind_docking_100.prm

>  <SCORE>
-26.7782

>  <SCORE.INTER>
-34.11

>  <SCORE.INTER.CONST>
1

>  <SCORE.INTER.POLAR>
-5.25956

>  <SCORE.INTER.ROT>
9

>  <SCORE.INTER.SOLV>
41.6805

>  <SCORE.INTER.VDW>
-28.7016

>  <SCORE.INTER.norm>
-0.812142

>  <SCORE.INTRA>
-8.13781

>  <SCORE.INTRA.DIHEDRAL>
-24.6063

>  <SCORE.INTRA.DIHEDRAL.0>
46.2143

>  <SCORE.INTRA.POLAR>
0.628154

>  <SCORE.INTRA.POLAR.0>
-1.76436

>  <SCORE.INTRA.REPUL>
0.11206

>  <SCORE.INTRA.REPUL.0>
0

>  <SCORE.INTRA.SOLV>
-1.65256

>  <SCORE.INTRA.SOLV.lig_0>
-148.643

>  <SCORE.INTRA.VDW>
2.29561

>  <SCORE.INTRA.VDW.0>
-4.83512

>  <SCORE.INTRA.norm>
-0.193757

>  <SCORE.RESTR>
15.4696

>  <SCORE.RESTR.CAVITY>
15.4696

>  <SCORE.RESTR.norm>
0.368323

>  <SCORE.SYSTEM>
0

>  <SCORE.SYSTEM.CONST>
0

>  <SCORE.SYSTEM.DIHEDRAL>
0

>  <SCORE.SYSTEM.SOLV>
0

>  <SCORE.SYSTEM.norm>
0

>  <SCORE.heavy>
42

>  <SCORE.norm>
-0.637576

>  <RMSD>
4.438

$$$$
1j7t
 OpenBabel11021811393D
libRbt.so/2013.1/901 2013/11/27
 42 45  0  0  0  0  0  0  0  0999 V2000
   30.6160   10.3582   51.7189 C   0  0  2  0  0  0  0  0  0  0  0  0
   31.4291    9.2615   51.2307 O   0  0  0  0  0  0  0  0  0  0  0  0
   29.4019   10.4844   50.7545 C   0  0  2  0  0  0  0  0  0  0  0  0
   28.6383    9.2196   50.5526 N   0  3  0  0  0  0  0  0  0  0  0  0
   29.9292   10.9469   49.3787 C   0  0  1  0  0  0  0  0  0  0  0  0
   28.8744   11.0940   48.4702 O   0  0  0  0  0  0  0  0  0  0  0  0
   30.7089   12.2747   49.5284 C   0  0  2  0  0  0  0  0  0  0  0  0
   31.1826   12.7274   48.2755 O   0  0  0  0  0  0  0  0  0  0  0  0
   31.8845   12.0779   50.4619 C   0  0  2  0  0  0  0  0  0  0  0  0
   31.4158   11.5823   51.7096 O   0  0  0  0  0  0  0  0  0  0  0  0
   32.6308   13.3604   50.7536 C   0  0  0  0  0  0  0  0  0  0  0  0
   33.2518   13.8240   49.5701 O   0  0  0  0  0  0  0  0  0  0  0  0
   33.9327    6.4733   53.1816 C   0  0  2  0  0  0  0  0  0  0  0  0
   35.0283    5.9089   53.9707 N   0  3  0  0  0  0  0  0  0  0  0  0
   34.5040    7.2055   51.9223 C   0  0  0  0  0  0  0  0  0  0  0  0
   33.3573    7.8430   51.1146 C   0  0  2  0  0  0  0  0  0  0  0  0
   33.8796    8.5796   49.9589 N   0  3  0  0  0  0  0  0  0  0  0  0
   32.5415    8.7999   52.0060 C   0  0  2  0  0  0  0  0  0  0  0  0
   31.9892    8.1114   53.2694 C   0  0  2  0  0  0  0  0  0  0  0  0
   31.3956    9.1556   54.0648 O   0  0  0  0  0  0  0  0  0  0  0  0
   33.1366    7.4287   54.0563 C   0  0  1  0  0  0  0  0  0  0  0  0
   32.5967    6.7270   55.1421 O   0  0  0  0  0  0  0  0  0  0  0  0
   30.8283    8.9360   55.3536 C   0  0  1  0  0  0  0  0  0  0  0  0
   29.5761    9.8700   55.5141 C   0  0  2  0  0  0  0  0  0  0  0  0
   29.8807   11.1591   56.0186 O   0  0  0  0  0  0  0  0  0  0  0  0
   28.7655    8.9921   56.4572 C   0  0  2  0  0  0  0  0  0  0  0  0
   29.3906    8.9169   57.7738 O   0  0  0  0  0  0  0  0  0  0  0  0
   28.8795    7.6169   55.8143 C   0  0  2  0  0  0  0  0  0  0  0  0
   30.2725    7.5968   55.4579 O   0  0  0  0  0  0  0  0  0  0  0  0
   27.9390    7.3840   54.5867 C   0  0  0  0  0  0  0  0  0  0  0  0
   28.2137    8.3085   53.5266 O   0  0  0  0  0  0  0  0  0  0  0  0
   29.8326   10.1744   58.2783 C   0  0  2  0  0  0  0  0  0  0  0  0
   30.6960   10.0895   59.5828 C   0  0  2  0  0  0  0  0  0  0  0  0
   29.9838    9.4100   60.7073 N   0  3  0  0  0  0  0  0  0  0  0  0
   31.1003   11.5536   59.9607 C   0  0  1  0  0  0  0  0  0  0  0  0
   31.9411   12.0729   58.8602 O   0  0  0  0  0  0  0  0  0  0  0  0
   29.8500   12.5014   60.1336 C   0  0  2  0  0  0  0  0  0  0  0  0
   29.0660   12.0263   61.2401 O   0  0  0  0  0  0  0  0  0  0  0  0
   29.0265   12.4839   58.7795 C   0  0  1  0  0  0  0  0  0  0  0  0
   28.6690   11.0890   58.4969 O   0  0  0  0  0  0  0  0  0  0  0  0
   27.7511   13.3570   58.7927 C   0  0  0  0  0  0  0  0  0  0  0  0
   28.0210   14.7946   59.0667 N   0  3  0  0  0  0  0  0  0  0  0  0
  1  2  1  6  0  0  0
  1  3  1  0  0  0  0
  1 10  1  0  0  0  0
  3  4  1  6  0  0  0
  3  5  1  0  0  0  0
  5  6  1  6  0  0  0
  5  7  1  0  0  0  0
  7  8  1  6  0  0  0
  7  9  1  0  0  0  0
  9 10  1  0  0  0  0
  9 11  1  1  0  0  0
 11 12  1  0  0  0  0
 13 14  1  1  0  0  0
 13 15  1  0  0  0  0
 13 21  1  0  0  0  0
 15 16  1  0  0  0  0
 16 17  1  6  0  0  0
 16 18  1  0  0  0  0
 18  2  1  6  0  0  0
 18 19  1  0  0  0  0
 19 20  1  1  0  0  0
 19 21  1  0  0  0  0
 21 22  1  1  0  0  0
 23 20  1  6  0  0  0
 23 24  1  0  0  0  0
 23 29  1  0  0  0  0
 24 25  1  1  0  0  0
 24 26  1  0  0  0  0
 26 27  1  1  0  0  0
 26 28  1  0  0  0  0
 28 29  1  0  0  0  0
 28 30  1  6  0  0  0
 30 31  1  0  0  0  0
 32 27  1  1  0  0  0
 32 33  1  0  0  0  0
 32 40  1  0  0  0  0
 33 34  1  1  0  0  0
 33 35  1  0  0  0  0
 35 36  1  6  0  0  0
 35 37  1  0  0  0  0
 37 38  1  1  0  0  0
 37 39  1  0  0  0  0
 39 40  1  0  0  0  0
 39 41  1  1  0  0  0
 41 42  1  0  0  0  0
M  CHG  5   4   1  14   1  17   1  34   1  42   1
M  END
>  <CHROM.1>
-172.64939832,-168.96504842,57.67428948,61.85697658,67.02910846,-66.33488985
-60.07432534,-36.65089141,66.25554112,-176.77127925,-144.10510564,-59.69488003
-177.36976667,45.10832242,-171.14878814,60.77985985,-78.35779727,62.15948148
178.00937633,59.30912212,59.21021162,-165.56433511,30.75384997,10.06823320
54.41314881,1.03209561,1.06169217,-1.21013009

>  <Name>
1j7t

>  <RI>
0

>  <Rbt.Current_Directory>
/home/itssahil/PROJECTS/Mol_Feturizer/New_Systems/rnas/1j7t

>  <Rbt.Executable>
rbdock ($Id: //depot/dev/client3/rdock/2013.1/src/exe/rbdock.cxx#4 $)

>  <Rbt.Library>
libRbt.so (2013.1, Build901 2013/11/27)

>  <Rbt.Parameter_File>
/export/apps/rDock/src/rDock_2013.1_src/data/scripts/dock_solv.prm

>  <Rbt.Receptor>
prm/blind_docking_100.prm

>  <SCORE>
-36.4358

>  <SCORE.INTER>
-35.7574

>  <SCORE.INTER.CONST>
1

>  <SCORE.INTER.POLAR>
-5.51482

>  <SCORE.INTER.ROT>
9

>  <SCORE.INTER.SOLV>
34.9339

>  <SCORE.INTER.VDW>
-26.7002

>  <SCORE.INTER.norm>
-0.851367

>  <SCORE.INTRA>
-14.5919

>  <SCORE.INTRA.DIHEDRAL>
-34.8845

>  <SCORE.INTRA.DIHEDRAL.0>
46.2143

>  <SCORE.INTRA.POLAR>
0.249722

>  <SCORE.INTRA.POLAR.0>
-1.76436

>  <SCORE.INTRA.REPUL>
0.0577395

>  <SCORE.INTRA.REPUL.0>
0

>  <SCORE.INTRA.SOLV>
-1.43809

>  <SCORE.INTRA.SOLV.lig_0>
-148.643

>  <SCORE.INTRA.VDW>
2.43163

>  <SCORE.INTRA.VDW.0>
-4.83512

>  <SCORE.INTRA.norm>
-0.347427

>  <SCORE.RESTR>
13.9136

>  <SCORE.RESTR.CAVITY>
13.9136

>  <SCORE.RESTR.norm>
0.331276

>  <SCORE.SYSTEM>
0

>  <SCORE.SYSTEM.CONST>
0

>  <SCORE.SYSTEM.DIHEDRAL>
0

>  <SCORE.SYSTEM.SOLV>
0

>  <SCORE.SYSTEM.norm>
0

>  <SCORE.heavy>
42

>  <SCORE.norm>
-0.867518

>  <RMSD>
4.448

$$$$
1j7t
 OpenBabel11021811393D
libRbt.so/2013.1/901 2013/11/27
 42 45  0  0  0  0  0  0  0  0999 V2000
   28.9051    8.5936   53.8145 C   0  0  2  0  0  0  0  0  0  0  0  0
   29.8865    7.5293   53.8962 O   0  0  0  0  0  0  0  0  0  0  0  0
   27.6433    7.9929   53.1309 C   0  0  2  0  0  0  0  0  0  0  0  0
   27.1244    6.7509   53.7725 N   0  3  0  0  0  0  0  0  0  0  0  0
   28.0055    7.6571   51.6677 C   0  0  1  0  0  0  0  0  0  0  0  0
   26.8989    7.1257   50.9951 O   0  0  0  0  0  0  0  0  0  0  0  0
   28.5259    8.9229   50.9461 C   0  0  2  0  0  0  0  0  0  0  0  0
   28.8433    8.6419   49.5972 O   0  0  0  0  0  0  0  0  0  0  0  0
   29.7616    9.4436   51.6488 C   0  0  2  0  0  0  0  0  0  0  0  0
   29.4570    9.6873   53.0162 O   0  0  0  0  0  0  0  0  0  0  0  0
   30.2647   10.7487   51.0738 C   0  0  0  0  0  0  0  0  0  0  0  0
   31.1948   11.3300   51.9673 O   0  0  0  0  0  0  0  0  0  0  0  0
   31.8623    5.3995   56.9635 C   0  0  2  0  0  0  0  0  0  0  0  0
   32.6088    5.1048   58.1871 N   0  3  0  0  0  0  0  0  0  0  0  0
   32.7396    6.2633   55.9977 C   0  0  0  0  0  0  0  0  0  0  0  0
   31.9399    6.6170   54.7292 C   0  0  2  0  0  0  0  0  0  0  0  0
   32.7290    7.4719   53.8362 N   0  3  0  0  0  0  0  0  0  0  0  0
   30.6309    7.3387   55.1049 C   0  0  2  0  0  0  0  0  0  0  0  0
   29.7586    6.5218   56.0781 C   0  0  2  0  0  0  0  0  0  0  0  0
   28.6658    7.3829   56.4521 O   0  0  0  0  0  0  0  0  0  0  0  0
   30.5778    6.1248   57.3323 C   0  0  1  0  0  0  0  0  0  0  0  0
   29.7955    5.3003   58.1517 O   0  0  0  0  0  0  0  0  0  0  0  0
   28.1703    7.4908   57.7840 C   0  0  1  0  0  0  0  0  0  0  0  0
   26.9146    8.4339   57.7751 C   0  0  2  0  0  0  0  0  0  0  0  0
   27.2263    9.8084   57.9255 O   0  0  0  0  0  0  0  0  0  0  0  0
   26.1677    7.8178   58.9497 C   0  0  2  0  0  0  0  0  0  0  0  0
   26.8621    8.0739   60.2075 O   0  0  0  0  0  0  0  0  0  0  0  0
   26.2680    6.3259   58.6640 C   0  0  2  0  0  0  0  0  0  0  0  0
   27.6405    6.2192   58.2485 O   0  0  0  0  0  0  0  0  0  0  0  0
   25.2679    5.7932   57.5861 C   0  0  0  0  0  0  0  0  0  0  0  0
   23.9648    5.5680   58.1386 O   0  0  0  0  0  0  0  0  0  0  0  0
   26.2240    9.0432   61.0350 C   0  0  2  0  0  0  0  0  0  0  0  0
   26.3910   10.5252   60.5552 C   0  0  2  0  0  0  0  0  0  0  0  0
   27.8220   10.9415   60.4433 N   0  3  0  0  0  0  0  0  0  0  0  0
   25.6088   11.4256   61.5687 C   0  0  1  0  0  0  0  0  0  0  0  0
   24.1815   11.0484   61.4774 O   0  0  0  0  0  0  0  0  0  0  0  0
   26.0923   11.2226   63.0574 C   0  0  2  0  0  0  0  0  0  0  0  0
   27.4626   11.6440   63.1542 O   0  0  0  0  0  0  0  0  0  0  0  0
   25.9210    9.6910   63.4273 C   0  0  1  0  0  0  0  0  0  0  0  0
   26.6898    8.9110   62.4506 O   0  0  0  0  0  0  0  0  0  0  0  0
   26.3708    9.3225   64.8594 C   0  0  0  0  0  0  0  0  0  0  0  0
   26.4798    7.8558   65.0865 N   0  3  0  0  0  0  0  0  0  0  0  0
  1  2  1  6  0  0  0
  1  3  1  0  0  0  0
  1 10  1  0  0  0  0
  3  4  1  1  0  0  0
  3  5  1  0  0  0  0
  5  6  1  6  0  0  0
  5  7  1  0  0  0  0
  7  8  1  6  0  0  0
  7  9  1  0  0  0  0
  9 10  1  0  0  0  0
  9 11  1  6  0  0  0
 11 12  1  0  0  0  0
 13 14  1  1  0  0  0
 13 15  1  0  0  0  0
 13 21  1  0  0  0  0
 15 16  1  0  0  0  0
 16 17  1  6  0  0  0
 16 18  1  0  0  0  0
 18  2  1  6  0  0  0
 18 19  1  0  0  0  0
 19 20  1  1  0  0  0
 19 21  1  0  0  0  0
 21 22  1  1  0  0  0
 23 20  1  6  0  0  0
 23 24  1  0  0  0  0
 23 29  1  0  0  0  0
 24 25  1  1  0  0  0
 24 26  1  0  0  0  0
 26 27  1  1  0  0  0
 26 28  1  0  0  0  0
 28 29  1  0  0  0  0
 28 30  1  6  0  0  0
 30 31  1  0  0  0  0
 32 27  1  6  0  0  0
 32 33  1  0  0  0  0
 32 40  1  0  0  0  0
 33 34  1  1  0  0  0
 33 35  1  0  0  0  0
 35 36  1  1  0  0  0
 35 37  1  0  0  0  0
 37 38  1  6  0  0  0
 37 39  1  0  0  0  0
 39 40  1  0  0  0  0
 39 41  1  1  0  0  0
 41 42  1  0  0  0  0
M  CHG  5   4   1  14   1  17   1  34   1  42   1
M  END
>  <CHROM.1>
-135.93618543,-155.99542117,28.23573389,176.48375857,173.31812023,165.70006951
69.45668599,-59.95426355,-51.21324325,-137.84951733,-175.63275589,-57.88112717
61.63008885,106.75970714,-74.83159650,-80.87129972,87.08072230,-53.58252861
-76.88136237,176.18464919,-167.52366958,-15.68034388,28.23016671,8.21914848
57.16331021,1.12065264,0.68997051,-1.39894376

>  <Name>
1j7t

>  <RI>
224

>  <Rbt.Current_Directory>
/home/itssahil/PROJECTS/Mol_Feturizer/New_Systems/rnas/1j7t

>  <Rbt.Executable>
rbdock ($Id: //depot/dev/client3/rdock/2013.1/src/exe/rbdock.cxx#4 $)

>  <Rbt.Library>
libRbt.so (2013.1, Build901 2013/11/27)

>  <Rbt.Parameter_File>
/export/apps/rDock/src/rDock_2013.1_src/data/scripts/dock_solv.prm

>  <Rbt.Receptor>
prm/pocket_docking_7.prm

>  <SCORE>
-36.7432

>  <SCORE.INTER>
-31.5022

>  <SCORE.INTER.CONST>
1

>  <SCORE.INTER.POLAR>
-4.8172

>  <SCORE.INTER.ROT>
9

>  <SCORE.INTER.SOLV>
16.1419

>  <SCORE.INTER.VDW>
-19.9247

>  <SCORE.INTER.norm>
-0.750052

>  <SCORE.INTRA>
-5.24101

>  <SCORE.INTRA.DIHEDRAL>
-10.9893

>  <SCORE.INTRA.DIHEDRAL.0>
46.2143

>  <SCORE.INTRA.POLAR>
-0.0938757

>  <SCORE.INTRA.POLAR.0>
-1.76436

>  <SCORE.INTRA.REPUL>
0

>  <SCORE.INTRA.REPUL.0>
0

>  <SCORE.INTRA.SOLV>
-1.55825

>  <SCORE.INTRA.SOLV.lig_0>
-148.643

>  <SCORE.INTRA.VDW>
1.35196

>  <SCORE.INTRA.VDW.0>
-4.83512

>  <SCORE.INTRA.norm>
-0.124786

>  <SCORE.RESTR>
0

>  <SCORE.RESTR.CAVITY>
0

>  <SCORE.RESTR.norm>
0

>  <SCORE.SYSTEM>
0

>  <SCORE.SYSTEM.CONST>
0

>  <SCORE.SYSTEM.DIHEDRAL>
0

>  <SCORE.SYSTEM.SOLV>
0

>  <SCORE.SYSTEM.norm>
0

>  <SCORE.heavy>
42

>  <SCORE.norm>
-0.874838

>  <RMSD>
4.456

$$$$
1j7t
 OpenBabel11021811393D
libRbt.so/2013.1/901 2013/11/27
 42 45  0  0  0  0  0  0  0  0999 V2000
   32.0278    9.2046   53.3804 C   0  0  2  0  0  0  0  0  0  0  0  0
   30.7925    9.5647   52.7119 O   0  0  0  0  0  0  0  0  0  0  0  0
   33.1500    9.2364   52.3035 C   0  0  2  0  0  0  0  0  0  0  0  0
   33.2364   10.5131   51.5377 N   0  3  0  0  0  0  0  0  0  0  0  0
   32.8813    8.0955   51.2980 C   0  0  1  0  0  0  0  0  0  0  0  0
   33.8727    8.0648   50.3102 O   0  0  0  0  0  0  0  0  0  0  0  0
   32.8091    6.7401   52.0404 C   0  0  2  0  0  0  0  0  0  0  0  0
   32.5849    5.6781   51.1343 O   0  0  0  0  0  0  0  0  0  0  0  0
   31.6880    6.7702   53.0573 C   0  0  2  0  0  0  0  0  0  0  0  0
   31.8878    7.8630   53.9449 O   0  0  0  0  0  0  0  0  0  0  0  0
   31.6261    5.5216   53.9084 C   0  0  0  0  0  0  0  0  0  0  0  0
   30.8302    4.5483   53.2601 O   0  0  0  0  0  0  0  0  0  0  0  0
   27.0863    7.9146   51.5334 C   0  0  2  0  0  0  0  0  0  0  0  0
   26.0570    6.9431   51.1619 N   0  3  0  0  0  0  0  0  0  0  0  0
   28.2634    7.8655   50.5037 C   0  0  0  0  0  0  0  0  0  0  0  0
   29.3716    8.8522   50.9185 C   0  0  2  0  0  0  0  0  0  0  0  0
   30.5073    8.7805   49.9933 N   0  3  0  0  0  0  0  0  0  0  0  0
   29.8557    8.5439   52.3489 C   0  0  2  0  0  0  0  0  0  0  0  0
   28.7113    8.5583   53.3810 C   0  0  2  0  0  0  0  0  0  0  0  0
   29.2873    8.1038   54.6208 O   0  0  0  0  0  0  0  0  0  0  0  0
   27.5749    7.6019   52.9389 C   0  0  1  0  0  0  0  0  0  0  0  0
   26.5063    7.7089   53.8387 O   0  0  0  0  0  0  0  0  0  0  0  0
   28.5219    7.5439   55.6848 C   0  0  1  0  0  0  0  0  0  0  0  0
   29.3876    6.4455   56.3989 C   0  0  2  0  0  0  0  0  0  0  0  0
   29.2728    5.1565   55.8206 O   0  0  0  0  0  0  0  0  0  0  0  0
   28.7960    6.5721   57.7957 C   0  0  2  0  0  0  0  0  0  0  0  0
   27.4182    6.0921   57.8292 O   0  0  0  0  0  0  0  0  0  0  0  0
   28.7638    8.0789   58.0097 C   0  0  2  0  0  0  0  0  0  0  0  0
   28.2844    8.5262   56.7299 O   0  0  0  0  0  0  0  0  0  0  0  0
   30.1375    8.7185   58.3968 C   0  0  0  0  0  0  0  0  0  0  0  0
   30.6066    8.2385   59.6631 O   0  0  0  0  0  0  0  0  0  0  0  0
   26.9408    5.7912   59.1380 C   0  0  2  0  0  0  0  0  0  0  0  0
   27.7687    4.7031   59.9028 C   0  0  2  0  0  0  0  0  0  0  0  0
   27.8370    3.4031   59.1688 N   0  3  0  0  0  0  0  0  0  0  0  0
   27.1097    4.5327   61.3122 C   0  0  1  0  0  0  0  0  0  0  0  0
   27.2462    5.8254   62.0179 O   0  0  0  0  0  0  0  0  0  0  0  0
   25.5777    4.1633   61.2234 C   0  0  2  0  0  0  0  0  0  0  0  0
   25.4530    2.8805   60.5883 O   0  0  0  0  0  0  0  0  0  0  0  0
   24.8427    5.3006   60.3998 C   0  0  1  0  0  0  0  0  0  0  0  0
   25.4992    5.3937   59.0907 O   0  0  0  0  0  0  0  0  0  0  0  0
   23.3257    5.0756   60.2079 C   0  0  0  0  0  0  0  0  0  0  0  0
   22.5879    4.8932   61.4874 N   0  3  0  0  0  0  0  0  0  0  0  0
  1  2  1  6  0  0  0
  1  3  1  0  0  0  0
  1 10  1  0  0  0  0
  3  4  1  6  0  0  0
  3  5  1  0  0  0  0
  5  6  1  6  0  0  0
  5  7  1  0  0  0  0
  7  8  1  6  0  0  0
  7  9  1  0  0  0  0
  9 10  1  0  0  0  0
  9 11  1  1  0  0  0
 11 12  1  0  0  0  0
 13 14  1  6  0  0  0
 13 15  1  0  0  0  0
 13 21  1  0  0  0  0
 15 16  1  0  0  0  0
 16 17  1  6  0  0  0
 16 18  1  0  0  0  0
 18  2  1  1  0  0  0
 18 19  1  0  0  0  0
 19 20  1  1  0  0  0
 19 21  1  0  0  0  0
 21 22  1  1  0  0  0
 23 20  1  6  0  0  0
 23 24  1  0  0  0  0
 23 29  1  0  0  0  0
 24 25  1  6  0  0  0
 24 26  1  0  0  0  0
 26 27  1  6  0  0  0
 26 28  1  0  0  0  0
 28 29  1  0  0  0  0
 28 30  1  6  0  0  0
 30 31  1  0  0  0  0
 32 27  1  6  0  0  0
 32 33  1  0  0  0  0
 32 40  1  0  0  0  0
 33 34  1  6  0  0  0
 33 35  1  0  0  0  0
 35 36  1  1  0  0  0
 35 37  1  0  0  0  0
 37 38  1  6  0  0  0
 37 39  1  0  0  0  0
 39 40  1  0  0  0  0
 39 41  1  6  0  0  0
 41 42  1  0  0  0  0
M  CHG  5   4   1  14   1  17   1  34   1  42   1
M  END
>  <CHROM.1>
101.58082166,-136.12034649,177.40428317,49.90402169,-34.30613632,-87.66409252
59.36298018,-5.28667687,-178.13964701,-157.87517768,146.18001335,-56.27403191
56.03655394,161.61512913,-58.85219911,-63.98185335,-167.11294921,165.31166701
-68.36199943,-172.30053458,55.73086781,-34.82244310,28.94832931,6.87945804
55.49592624,-1.02342437,0.18806107,1.80367330

>  <Name>
1j7t

>  <RI>
0

>  <Rbt.Current_Directory>
/home/itssahil/PROJECTS/Mol_Feturizer/New_Systems/rnas/1j7t

>  <Rbt.Executable>
rbdock ($Id: //depot/dev/client3/rdock/2013.1/src/exe/rbdock.cxx#4 $)

>  <Rbt.Library>
libRbt.so (2013.1, Build901 2013/11/27)

>  <Rbt.Parameter_File>
/export/apps/rDock/src/rDock_2013.1_src/data/scripts/dock_solv.prm

>  <Rbt.Receptor>
prm/pocket_docking_2.prm

>  <SCORE>
-36.4756

>  <SCORE.INTER>
-45.3251

>  <SCORE.INTER.CONST>
1

>  <SCORE.INTER.POLAR>
-9.10214

>  <SCORE.INTER.ROT>
9

>  <SCORE.INTER.SOLV>
30.1398

>  <SCORE.INTER.VDW>
-19.5229

>  <SCORE.INTER.norm>
-1.07917

>  <SCORE.INTRA>
3.35453

>  <SCORE.INTRA.DIHEDRAL>
-13.3605

>  <SCORE.INTRA.DIHEDRAL.0>
46.2143

>  <SCORE.INTRA.POLAR>
-0.257116

>  <SCORE.INTRA.POLAR.0>
-1.76436

>  <SCORE.INTRA.REPUL>
0.753772

>  <SCORE.INTRA.REPUL.0>
0

>  <SCORE.INTRA.SOLV>
3.79124

>  <SCORE.INTRA.SOLV.lig_0>
-148.643

>  <SCORE.INTRA.VDW>
5.24449

>  <SCORE.INTRA.VDW.0>
-4.83512

>  <SCORE.INTRA.norm>
0.0798698

>  <SCORE.RESTR>
5.49494

>  <SCORE.RESTR.CAVITY>
5.49494

>  <SCORE.RESTR.norm>
0.130832

>  <SCORE.SYSTEM>
0

>  <SCORE.SYSTEM.CONST>
0

>  <SCORE.SYSTEM.DIHEDRAL>
0

>  <SCORE.SYSTEM.SOLV>
0

>  <SCORE.SYSTEM.norm>
0

>  <SCORE.heavy>
42

>  <SCORE.norm>
-0.868468

>  <RMSD>
4.463

$$$$
1j7t
 OpenBabel11021811393D
libRbt.so/2013.1/901 2013/11/27
 42 45  0  0  0  0  0  0  0  0999 V2000
   29.5732    9.0420   52.8943 C   0  0  2  0  0  0  0  0  0  0  0  0
   30.4769    7.9302   52.6715 O   0  0  0  0  0  0  0  0  0  0  0  0
   28.4016    8.8811   51.8836 C   0  0  2  0  0  0  0  0  0  0  0  0
   27.7304    7.5500   51.9214 N   0  3  0  0  0  0  0  0  0  0  0  0
   28.9644    9.0902   50.4608 C   0  0  1  0  0  0  0  0  0  0  0  0
   27.9476    8.9726   49.5058 O   0  0  0  0  0  0  0  0  0  0  0  0
   29.6502   10.4733   50.3595 C   0  0  2  0  0  0  0  0  0  0  0  0
   30.1542   10.6940   49.0570 O   0  0  0  0  0  0  0  0  0  0  0  0
   30.7893   10.5561   51.3533 C   0  0  2  0  0  0  0  0  0  0  0  0
   30.2932   10.2928   52.6596 O   0  0  0  0  0  0  0  0  0  0  0  0
   31.4378   11.9216   51.3990 C   0  0  0  0  0  0  0  0  0  0  0  0
   32.2671   12.0877   50.2651 O   0  0  0  0  0  0  0  0  0  0  0  0
   31.5663    4.4309   54.7729 C   0  0  2  0  0  0  0  0  0  0  0  0
   31.9977    3.5380   55.8491 N   0  3  0  0  0  0  0  0  0  0  0  0
   32.6940    5.4681   54.4554 C   0  0  0  0  0  0  0  0  0  0  0  0
   32.2250    6.4409   53.3566 C   0  0  2  0  0  0  0  0  0  0  0  0
   33.2500    7.4539   53.0840 N   0  3  0  0  0  0  0  0  0  0  0  0
   30.9166    7.1370   53.7801 C   0  0  2  0  0  0  0  0  0  0  0  0
   29.7953    6.1378   54.1258 C   0  0  2  0  0  0  0  0  0  0  0  0
   28.7070    6.9250   54.6466 O   0  0  0  0  0  0  0  0  0  0  0  0
   30.2837    5.1291   55.1962 C   0  0  1  0  0  0  0  0  0  0  0  0
   29.2838    4.1731   55.4185 O   0  0  0  0  0  0  0  0  0  0  0  0
   28.7607    7.6132   55.8934 C   0  0  1  0  0  0  0  0  0  0  0  0
   27.6469    8.7202   55.9015 C   0  0  2  0  0  0  0  0  0  0  0  0
   28.0638    9.9598   55.3551 O   0  0  0  0  0  0  0  0  0  0  0  0
   27.3709    8.7443   57.3983 C   0  0  2  0  0  0  0  0  0  0  0  0
   28.5032    9.2987   58.1334 O   0  0  0  0  0  0  0  0  0  0  0  0
   27.2770    7.2650   57.7447 C   0  0  2  0  0  0  0  0  0  0  0  0
   28.3812    6.7372   56.9898 O   0  0  0  0  0  0  0  0  0  0  0  0
   25.9161    6.5877   57.3771 C   0  0  0  0  0  0  0  0  0  0  0  0
   24.8166    7.2051   58.0583 O   0  0  0  0  0  0  0  0  0  0  0  0
   28.3168   10.6476   58.5543 C   0  0  2  0  0  0  0  0  0  0  0  0
   29.6255   11.3777   59.0110 C   0  0  2  0  0  0  0  0  0  0  0  0
   30.3196   10.6769   60.1337 N   0  3  0  0  0  0  0  0  0  0  0  0
   29.2215   12.8369   59.4074 C   0  0  1  0  0  0  0  0  0  0  0  0
   28.7047   13.4942   58.1873 O   0  0  0  0  0  0  0  0  0  0  0  0
   28.0995   12.8742   60.5169 C   0  0  2  0  0  0  0  0  0  0  0  0
   28.6249   12.2861   61.7180 O   0  0  0  0  0  0  0  0  0  0  0  0
   26.8418   12.0771   59.9739 C   0  0  1  0  0  0  0  0  0  0  0  0
   27.2886   10.7202   59.6387 O   0  0  0  0  0  0  0  0  0  0  0  0
   25.6527   12.0065   60.9587 C   0  0  0  0  0  0  0  0  0  0  0  0
   24.9683   13.3133   61.1549 N   0  3  0  0  0  0  0  0  0  0  0  0
  1  2  1  6  0  0  0
  1  3  1  0  0  0  0
  1 10  1  0  0  0  0
  3  4  1  6  0  0  0
  3  5  1  0  0  0  0
  5  6  1  6  0  0  0
  5  7  1  0  0  0  0
  7  8  1  6  0  0  0
  7  9  1  0  0  0  0
  9 10  1  0  0  0  0
  9 11  1  1  0  0  0
 11 12  1  0  0  0  0
 13 14  1  1  0  0  0
 13 15  1  0  0  0  0
 13 21  1  0  0  0  0
 15 16  1  0  0  0  0
 16 17  1  1  0  0  0
 16 18  1  0  0  0  0
 18  2  1  6  0  0  0
 18 19  1  0  0  0  0
 19 20  1  1  0  0  0
 19 21  1  0  0  0  0
 21 22  1  6  0  0  0
 23 20  1  6  0  0  0
 23 24  1  0  0  0  0
 23 29  1  0  0  0  0
 24 25  1  1  0  0  0
 24 26  1  0  0  0  0
 26 27  1  1  0  0  0
 26 28  1  0  0  0  0
 28 29  1  0  0  0  0
 28 30  1  6  0  0  0
 30 31  1  0  0  0  0
 32 27  1  1  0  0  0
 32 33  1  0  0  0  0
 32 40  1  0  0  0  0
 33 34  1  1  0  0  0
 33 35  1  0  0  0  0
 35 36  1  6  0  0  0
 35 37  1  0  0  0  0
 37 38  1  1  0  0  0
 37 39  1  0  0  0  0
 39 40  1  0  0  0  0
 39 41  1  1  0  0  0
 41 42  1  0  0  0  0
M  CHG  5   4   1  14   1  17   1  34   1  42   1
M  END
>  <CHROM.1>
-129.88837763,-158.27052146,40.00664594,173.29717564,-53.70300862,-76.04403487
-175.73856815,-173.92706408,-176.73415430,-68.26704547,160.93224767,-59.15796507
129.47804589,102.36381057,-165.10168642,-60.21574394,171.41270782,53.09889101
57.91224750,74.85785457,69.89342491,-154.87153350,29.10627815,9.03336512
55.50281980,0.01289705,1.22144265,-0.39096424

>  <Name>
1j7t

>  <RI>
0

>  <Rbt.Current_Directory>
/home/itssahil/PROJECTS/Mol_Feturizer/New_Systems/rnas/1j7t

>  <Rbt.Executable>
rbdock ($Id: //depot/dev/client3/rdock/2013.1/src/exe/rbdock.cxx#4 $)

>  <Rbt.Library>
libRbt.so (2013.1, Build901 2013/11/27)

>  <Rbt.Parameter_File>
/export/apps/rDock/src/rDock_2013.1_src/data/scripts/dock_solv.prm

>  <Rbt.Receptor>
prm/pocket_docking_8.prm

>  <SCORE>
-50.353

>  <SCORE.INTER>
-39.1048

>  <SCORE.INTER.CONST>
1

>  <SCORE.INTER.POLAR>
-6.3413

>  <SCORE.INTER.ROT>
9

>  <SCORE.INTER.SOLV>
20.7222

>  <SCORE.INTER.VDW>
-21.4396

>  <SCORE.INTER.norm>
-0.931067

>  <SCORE.INTRA>
-11.2482

>  <SCORE.INTRA.DIHEDRAL>
-16.2457

>  <SCORE.INTRA.DIHEDRAL.0>
46.2143

>  <SCORE.INTRA.POLAR>
0.150794

>  <SCORE.INTRA.POLAR.0>
-1.76436

>  <SCORE.INTRA.REPUL>
0

>  <SCORE.INTRA.REPUL.0>
0

>  <SCORE.INTRA.SOLV>
-3.6967

>  <SCORE.INTRA.SOLV.lig_0>
-148.643

>  <SCORE.INTRA.VDW>
-1.78971

>  <SCORE.INTRA.VDW.0>
-4.83512

>  <SCORE.INTRA.norm>
-0.267815

>  <SCORE.RESTR>
0

>  <SCORE.RESTR.CAVITY>
0

>  <SCORE.RESTR.norm>
0

>  <SCORE.SYSTEM>
0

>  <SCORE.SYSTEM.CONST>
0

>  <SCORE.SYSTEM.DIHEDRAL>
0

>  <SCORE.SYSTEM.SOLV>
0

>  <SCORE.SYSTEM.norm>
0

>  <SCORE.heavy>
42

>  <SCORE.norm>
-1.19888

>  <RMSD>
4.474

$$$$
1j7t
 OpenBabel11021811393D
libRbt.so/2013.1/901 2013/11/27
 42 45  0  0  0  0  0  0  0  0999 V2000
   30.7062    8.7519   52.1919 C   0  0  2  0  0  0  0  0  0  0  0  0
   30.1487    7.7271   51.3307 O   0  0  0  0  0  0  0  0  0  0  0  0
   31.6178    9.6437   51.3010 C   0  0  2  0  0  0  0  0  0  0  0  0
   30.9515   10.1863   50.0823 N   0  3  0  0  0  0  0  0  0  0  0  0
   32.8229    8.7921   50.8455 C   0  0  1  0  0  0  0  0  0  0  0  0
   33.6902    9.5502   50.0501 O   0  0  0  0  0  0  0  0  0  0  0  0
   33.5679    8.2254   52.0773 C   0  0  2  0  0  0  0  0  0  0  0  0
   34.6887    7.4592   51.6824 O   0  0  0  0  0  0  0  0  0  0  0  0
   32.6320    7.3544   52.8881 C   0  0  2  0  0  0  0  0  0  0  0  0
   31.4833    8.1100   53.2512 O   0  0  0  0  0  0  0  0  0  0  0  0
   33.2516    6.8559   54.1744 C   0  0  0  0  0  0  0  0  0  0  0  0
   34.6204    6.5710   53.9587 O   0  0  0  0  0  0  0  0  0  0  0  0
   26.4159    5.7494   51.3770 C   0  0  2  0  0  0  0  0  0  0  0  0
   25.3000    4.9047   51.8044 N   0  3  0  0  0  0  0  0  0  0  0  0
   27.6979    4.8763   51.1706 C   0  0  0  0  0  0  0  0  0  0  0  0
   28.8874    5.7687   50.7679 C   0  0  2  0  0  0  0  0  0  0  0  0
   30.1110    4.9733   50.6225 N   0  3  0  0  0  0  0  0  0  0  0  0
   29.1138    6.8685   51.8238 C   0  0  2  0  0  0  0  0  0  0  0  0
   27.8577    7.7274   52.0678 C   0  0  2  0  0  0  0  0  0  0  0  0
   28.1755    8.5923   53.1752 O   0  0  0  0  0  0  0  0  0  0  0  0
   26.6493    6.8254   52.4255 C   0  0  1  0  0  0  0  0  0  0  0  0
   25.5007    7.6191   52.5430 O   0  0  0  0  0  0  0  0  0  0  0  0
   28.3378    8.1291   54.5132 C   0  0  1  0  0  0  0  0  0  0  0  0
   28.1805    9.3506   55.4875 C   0  0  2  0  0  0  0  0  0  0  0  0
   29.3877   10.0529   55.7293 O   0  0  0  0  0  0  0  0  0  0  0  0
   27.6265    8.6023   56.6918 C   0  0  2  0  0  0  0  0  0  0  0  0
   28.6399    7.7351   57.2841 O   0  0  0  0  0  0  0  0  0  0  0  0
   26.5627    7.7088   56.0695 C   0  0  2  0  0  0  0  0  0  0  0  0
   27.2495    7.2440   54.8948 O   0  0  0  0  0  0  0  0  0  0  0  0
   25.2134    8.4257   55.7359 C   0  0  0  0  0  0  0  0  0  0  0  0
   24.1585    7.4848   55.4995 O   0  0  0  0  0  0  0  0  0  0  0  0
   28.3148    7.2736   58.5929 C   0  0  2  0  0  0  0  0  0  0  0  0
   29.2410    6.1315   59.1331 C   0  0  2  0  0  0  0  0  0  0  0  0
   29.2511    4.9257   58.2504 N   0  3  0  0  0  0  0  0  0  0  0  0
   28.7442    5.7827   60.5758 C   0  0  1  0  0  0  0  0  0  0  0  0
   28.9347    6.9906   61.4078 O   0  0  0  0  0  0  0  0  0  0  0  0
   27.2186    5.3795   60.6098 C   0  0  2  0  0  0  0  0  0  0  0  0
   27.0475    4.1737   59.8473 O   0  0  0  0  0  0  0  0  0  0  0  0
   26.3774    6.5800   60.0071 C   0  0  1  0  0  0  0  0  0  0  0  0
   26.8840    6.8406   58.6548 O   0  0  0  0  0  0  0  0  0  0  0  0
   24.8526    6.3324   59.9543 C   0  0  0  0  0  0  0  0  0  0  0  0
   24.0904    7.4601   59.3527 N   0  3  0  0  0  0  0  0  0  0  0  0
  1  2  1  6  0  0  0
  1  3  1  0  0  0  0
  1 10  1  0  0  0  0
  3  4  1  6  0  0  0
  3  5  1  0  0  0  0
  5  6  1  1  0  0  0
  5  7  1  0  0  0  0
  7  8  1  6  0  0  0
  7  9  1  0  0  0  0
  9 10  1  0  0  0  0
  9 11  1  1  0  0  0
 11 12  1  0  0  0  0
 13 14  1  1  0  0  0
 13 15  1  0  0  0  0
 13 21  1  0  0  0  0
 15 16  1  0  0  0  0
 16 17  1  1  0  0  0
 16 18  1  0  0  0  0
 18  2  1  6  0  0  0
 18 19  1  0  0  0  0
 19 20  1  1  0  0  0
 19 21  1  0  0  0  0
 21 22  1  6  0  0  0
 23 20  1  6  0  0  0
 23 24  1  0  0  0  0
 23 29  1  0  0  0  0
 24 25  1  1  0  0  0
 24 26  1  0  0  0  0
 26 27  1  6  0  0  0
 26 28  1  0  0  0  0
 28 29  1  0  0  0  0
 28 30  1  6  0  0  0
 30 31  1  0  0  0  0
 32 27  1  6  0  0  0
 32 33  1  0  0  0  0
 32 40  1  0  0  0  0
 33 34  1  6  0  0  0
 33 35  1  0  0  0  0
 35 36  1  1  0  0  0
 35 37  1  0  0  0  0
 37 38  1  6  0  0  0
 37 39  1  0  0  0  0
 39 40  1  0  0  0  0
 39 41  1  6  0  0  0
 41 42  1  0  0  0  0
M  CHG  5   4   1  14   1  17   1  34   1  42   1
M  END
>  <CHROM.1>
-170.91529285,-171.62542388,32.21425719,-61.65043297,178.80085926,-36.80590417
161.51805158,164.16305951,57.73712088,-69.71532959,-160.69458677,-40.19782180
-53.56214395,164.71925837,168.66282774,-164.35097551,80.43838976,-176.83937587
-154.75553862,64.30278544,-178.52656097,-86.16480448,28.86824051,7.26821983
54.75769363,-0.99576084,0.12240999,1.67376898

>  <Name>
1j7t

>  <RI>
0

>  <Rbt.Current_Directory>
/home/itssahil/PROJECTS/Mol_Feturizer/New_Systems/rnas/1j7t

>  <Rbt.Executable>
rbdock ($Id: //depot/dev/client3/rdock/2013.1/src/exe/rbdock.cxx#4 $)

>  <Rbt.Library>
libRbt.so (2013.1, Build901 2013/11/27)

>  <Rbt.Parameter_File>
/export/apps/rDock/src/rDock_2013.1_src/data/scripts/dock_solv.prm

>  <Rbt.Receptor>
prm/pocket_docking_4.prm

>  <SCORE>
-48.0333

>  <SCORE.INTER>
-38.2725

>  <SCORE.INTER.CONST>
1

>  <SCORE.INTER.POLAR>
-6.42934

>  <SCORE.INTER.ROT>
9

>  <SCORE.INTER.SOLV>
22.1931

>  <SCORE.INTER.VDW>
-21.0816

>  <SCORE.INTER.norm>
-0.91125

>  <SCORE.INTRA>
-10.0799

>  <SCORE.INTRA.DIHEDRAL>
-26.6141

>  <SCORE.INTRA.DIHEDRAL.0>
46.2143

>  <SCORE.INTRA.POLAR>
0.789155

>  <SCORE.INTRA.POLAR.0>
-1.76436

>  <SCORE.INTRA.REPUL>
0

>  <SCORE.INTRA.REPUL.0>
0

>  <SCORE.INTRA.SOLV>
-2.71266

>  <SCORE.INTRA.SOLV.lig_0>
-148.643

>  <SCORE.INTRA.VDW>
1.9003

>  <SCORE.INTRA.VDW.0>
-4.83512

>  <SCORE.INTRA.norm>
-0.239998

>  <SCORE.RESTR>
0.319171

>  <SCORE.RESTR.CAVITY>
0.319171

>  <SCORE.RESTR.norm>
0.0075993

>  <SCORE.SYSTEM>
0

>  <SCORE.SYSTEM.CONST>
0

>  <SCORE.SYSTEM.DIHEDRAL>
0

>  <SCORE.SYSTEM.SOLV>
0

>  <SCORE.SYSTEM.norm>
0

>  <SCORE.heavy>
42

>  <SCORE.norm>
-1.14365

>  <RMSD>
4.475

$$$$
1j7t
 OpenBabel11021811393D
libRbt.so/2013.1/901 2013/11/27
 42 45  0  0  0  0  0  0  0  0999 V2000
   30.4764   10.1939   51.6662 C   0  0  2  0  0  0  0  0  0  0  0  0
   31.3136    9.0827   51.2577 O   0  0  0  0  0  0  0  0  0  0  0  0
   29.2522   10.2136   50.7066 C   0  0  2  0  0  0  0  0  0  0  0  0
   28.5197    8.9182   50.6118 N   0  3  0  0  0  0  0  0  0  0  0  0
   29.7569   10.5795   49.2938 C   0  0  1  0  0  0  0  0  0  0  0  0
   28.6919   10.6284   48.3867 O   0  0  0  0  0  0  0  0  0  0  0  0
   30.5036   11.9340   49.3315 C   0  0  2  0  0  0  0  0  0  0  0  0
   30.9560   12.2985   48.0424 O   0  0  0  0  0  0  0  0  0  0  0  0
   31.6909   11.8405   50.2662 C   0  0  2  0  0  0  0  0  0  0  0  0
   31.2446   11.4329   51.5533 O   0  0  0  0  0  0  0  0  0  0  0  0
   32.4063   13.1602   50.4493 C   0  0  0  0  0  0  0  0  0  0  0  0
   33.2270   13.4114   49.3247 O   0  0  0  0  0  0  0  0  0  0  0  0
   33.9259    6.4690   53.3053 C   0  0  2  0  0  0  0  0  0  0  0  0
   35.0309    5.9792   54.1303 N   0  3  0  0  0  0  0  0  0  0  0  0
   34.4871    7.2245   52.0552 C   0  0  0  0  0  0  0  0  0  0  0  0
   33.3272    7.7841   51.2096 C   0  0  2  0  0  0  0  0  0  0  0  0
   33.8363    8.5417   50.0617 N   0  3  0  0  0  0  0  0  0  0  0  0
   32.4296    8.6965   52.0683 C   0  0  2  0  0  0  0  0  0  0  0  0
   31.8844    7.9859   53.3225 C   0  0  2  0  0  0  0  0  0  0  0  0
   31.2058    8.9982   54.0906 O   0  0  0  0  0  0  0  0  0  0  0  0
   33.0484    7.3811   54.1479 C   0  0  1  0  0  0  0  0  0  0  0  0
   32.5215    6.6566   55.2251 O   0  0  0  0  0  0  0  0  0  0  0  0
   30.6533    8.7657   55.3836 C   0  0  1  0  0  0  0  0  0  0  0  0
   29.5482    9.8474   55.6567 C   0  0  2  0  0  0  0  0  0  0  0  0
   30.0438   11.0433   56.2339 O   0  0  0  0  0  0  0  0  0  0  0  0
   28.6530    9.0223   56.5706 C   0  0  2  0  0  0  0  0  0  0  0  0
   29.3017    8.7681   57.8529 O   0  0  0  0  0  0  0  0  0  0  0  0
   28.5556    7.6943   55.8327 C   0  0  2  0  0  0  0  0  0  0  0  0
   29.9208    7.5105   55.4201 O   0  0  0  0  0  0  0  0  0  0  0  0
   27.5548    7.6806   54.6311 C   0  0  0  0  0  0  0  0  0  0  0  0
   28.1388    8.2431   53.4494 O   0  0  0  0  0  0  0  0  0  0  0  0
   29.1591    9.8282   58.7949 C   0  0  2  0  0  0  0  0  0  0  0  0
   27.7330   10.4750   58.8417 C   0  0  2  0  0  0  0  0  0  0  0  0
   27.3004   11.0230   57.5203 N   0  3  0  0  0  0  0  0  0  0  0  0
   27.7711   11.5889   59.9405 C   0  0  1  0  0  0  0  0  0  0  0  0
   28.0385   10.9199   61.2322 O   0  0  0  0  0  0  0  0  0  0  0  0
   28.9026   12.6580   59.6799 C   0  0  2  0  0  0  0  0  0  0  0  0
   28.6082   13.3451   58.4527 O   0  0  0  0  0  0  0  0  0  0  0  0
   30.2921   11.8988   59.6095 C   0  0  1  0  0  0  0  0  0  0  0  0
   30.1898   10.8854   58.5531 O   0  0  0  0  0  0  0  0  0  0  0  0
   31.5096   12.8121   59.3400 C   0  0  0  0  0  0  0  0  0  0  0  0
   32.3086   13.1084   60.5601 N   0  3  0  0  0  0  0  0  0  0  0  0
  1  2  1  6  0  0  0
  1  3  1  0  0  0  0
  1 10  1  0  0  0  0
  3  4  1  6  0  0  0
  3  5  1  0  0  0  0
  5  6  1  6  0  0  0
  5  7  1  0  0  0  0
  7  8  1  6  0  0  0
  7  9  1  0  0  0  0
  9 10  1  0  0  0  0
  9 11  1  1  0  0  0
 11 12  1  0  0  0  0
 13 14  1  1  0  0  0
 13 15  1  0  0  0  0
 13 21  1  0  0  0  0
 15 16  1  0  0  0  0
 16 17  1  6  0  0  0
 16 18  1  0  0  0  0
 18  2  1  6  0  0  0
 18 19  1  0  0  0  0
 19 20  1  1  0  0  0
 19 21  1  0  0  0  0
 21 22  1  1  0  0  0
 23 20  1  6  0  0  0
 23 24  1  0  0  0  0
 23 29  1  0  0  0  0
 24 25  1  1  0  0  0
 24 26  1  0  0  0  0
 26 27  1  1  0  0  0
 26 28  1  0  0  0  0
 28 29  1  0  0  0  0
 28 30  1  6  0  0  0
 30 31  1  0  0  0  0
 32 27  1  6  0  0  0
 32 33  1  0  0  0  0
 32 40  1  0  0  0  0
 33 34  1  6  0  0  0
 33 35  1  0  0  0  0
 35 36  1  1  0  0  0
 35 37  1  0  0  0  0
 37 38  1  6  0  0  0
 37 39  1  0  0  0  0
 39 40  1  0  0  0  0
 39 41  1  6  0  0  0
 41 42  1  0  0  0  0
M  CHG  5   4   1  14   1  17   1  34   1  42   1
M  END
>  <CHROM.1>
-171.55530915,-164.64745808,172.54521952,-63.21451375,65.11448947,-78.19805433
59.83774646,-39.57447081,70.91453795,-174.71973549,-157.92328596,-57.35600446
153.50643411,83.65159347,41.64179237,81.51826134,50.77514755,94.97148836
75.37119695,-78.38531576,102.01765268,138.82971764,30.57345792,9.93547504
54.36284337,1.09221201,0.96396884,-1.29145999

>  <Name>
1j7t

>  <RI>
0

>  <Rbt.Current_Directory>
/home/itssahil/PROJECTS/Mol_Feturizer/New_Systems/rnas/1j7t

>  <Rbt.Executable>
rbdock ($Id: //depot/dev/client3/rdock/2013.1/src/exe/rbdock.cxx#4 $)

>  <Rbt.Library>
libRbt.so (2013.1, Build901 2013/11/27)

>  <Rbt.Parameter_File>
/export/apps/rDock/src/rDock_2013.1_src/data/scripts/dock_solv.prm

>  <Rbt.Receptor>
prm/blind_docking_100.prm

>  <SCORE>
-20.7561

>  <SCORE.INTER>
-36.1652

>  <SCORE.INTER.CONST>
1

>  <SCORE.INTER.POLAR>
-5.04729

>  <SCORE.INTER.ROT>
9

>  <SCORE.INTER.SOLV>
42.9515

>  <SCORE.INTER.VDW>
-31.203

>  <SCORE.INTER.norm>
-0.861076

>  <SCORE.INTRA>
-0.454371

>  <SCORE.INTRA.DIHEDRAL>
-18.8026

>  <SCORE.INTRA.DIHEDRAL.0>
46.2143

>  <SCORE.INTRA.POLAR>
0.00736741

>  <SCORE.INTRA.POLAR.0>
-1.76436

>  <SCORE.INTRA.REPUL>
0.152561

>  <SCORE.INTRA.REPUL.0>
0

>  <SCORE.INTRA.SOLV>
3.74764

>  <SCORE.INTRA.SOLV.lig_0>
-148.643

>  <SCORE.INTRA.VDW>
6.28524

>  <SCORE.INTRA.VDW.0>
-4.83512

>  <SCORE.INTRA.norm>
-0.0108184

>  <SCORE.RESTR>
15.8635

>  <SCORE.RESTR.CAVITY>
15.8635

>  <SCORE.RESTR.norm>
0.377702

>  <SCORE.SYSTEM>
0

>  <SCORE.SYSTEM.CONST>
0

>  <SCORE.SYSTEM.DIHEDRAL>
0

>  <SCORE.SYSTEM.SOLV>
0

>  <SCORE.SYSTEM.norm>
0

>  <SCORE.heavy>
42

>  <SCORE.norm>
-0.494192

>  <RMSD>
4.478

$$$$
1j7t
 OpenBabel11021811393D
libRbt.so/2013.1/901 2013/11/27
 42 45  0  0  0  0  0  0  0  0999 V2000
   30.5760   10.2564   51.7122 C   0  0  2  0  0  0  0  0  0  0  0  0
   31.4120    9.1427   51.3080 O   0  0  0  0  0  0  0  0  0  0  0  0
   29.3726   10.2985   50.7272 C   0  0  2  0  0  0  0  0  0  0  0  0
   28.6311    9.0109   50.6012 N   0  3  0  0  0  0  0  0  0  0  0  0
   29.9105   10.6766   49.3298 C   0  0  1  0  0  0  0  0  0  0  0  0
   28.8655   10.7458   48.4011 O   0  0  0  0  0  0  0  0  0  0  0  0
   30.6680   12.0238   49.3996 C   0  0  2  0  0  0  0  0  0  0  0  0
   31.1508   12.3995   48.1249 O   0  0  0  0  0  0  0  0  0  0  0  0
   31.8342   11.9086   50.3581 C   0  0  2  0  0  0  0  0  0  0  0  0
   31.3572   11.4898   51.6305 O   0  0  0  0  0  0  0  0  0  0  0  0
   32.5571   13.2195   50.5722 C   0  0  0  0  0  0  0  0  0  0  0  0
   33.3209   13.5299   49.4226 O   0  0  0  0  0  0  0  0  0  0  0  0
   33.7272    6.3781   53.5092 C   0  0  2  0  0  0  0  0  0  0  0  0
   34.7555    5.8218   54.3893 N   0  3  0  0  0  0  0  0  0  0  0  0
   34.3971    7.0648   52.2730 C   0  0  0  0  0  0  0  0  0  0  0  0
   33.3204    7.6944   51.3686 C   0  0  2  0  0  0  0  0  0  0  0  0
   33.9342    8.3891   50.2322 N   0  3  0  0  0  0  0  0  0  0  0  0
   32.4597    8.6886   52.1727 C   0  0  2  0  0  0  0  0  0  0  0  0
   31.8090    8.0455   53.4130 C   0  0  2  0  0  0  0  0  0  0  0  0
   31.1781    9.1209   54.1345 O   0  0  0  0  0  0  0  0  0  0  0  0
   32.8872    7.3701   54.2979 C   0  0  1  0  0  0  0  0  0  0  0  0
   32.2613    6.7084   55.3625 O   0  0  0  0  0  0  0  0  0  0  0  0
   30.7612    9.0177   55.4935 C   0  0  1  0  0  0  0  0  0  0  0  0
   29.5295    9.9671   55.7118 C   0  0  2  0  0  0  0  0  0  0  0  0
   29.8812   11.2944   56.0634 O   0  0  0  0  0  0  0  0  0  0  0  0
   28.8359    9.1786   56.8138 C   0  0  2  0  0  0  0  0  0  0  0  0
   29.6060    9.2170   58.0528 O   0  0  0  0  0  0  0  0  0  0  0  0
   28.8849    7.7518   56.2854 C   0  0  2  0  0  0  0  0  0  0  0  0
   30.2289    7.6950   55.7771 O   0  0  0  0  0  0  0  0  0  0  0  0
   27.8133    7.4155   55.1971 C   0  0  0  0  0  0  0  0  0  0  0  0
   26.5677    8.0739   55.4595 O   0  0  0  0  0  0  0  0  0  0  0  0
   29.9977   10.5282   58.4515 C   0  0  2  0  0  0  0  0  0  0  0  0
   30.6532   10.6121   59.8719 C   0  0  2  0  0  0  0  0  0  0  0  0
   29.7639   10.0897   60.9535 N   0  3  0  0  0  0  0  0  0  0  0  0
   31.0316   12.1114   60.1139 C   0  0  1  0  0  0  0  0  0  0  0  0
   32.0404   12.4775   59.0962 O   0  0  0  0  0  0  0  0  0  0  0  0
   29.7930   13.0792   59.9705 C   0  0  2  0  0  0  0  0  0  0  0  0
   28.8404   12.7575   60.9971 O   0  0  0  0  0  0  0  0  0  0  0  0
   29.1819   12.8870   58.5208 C   0  0  1  0  0  0  0  0  0  0  0  0
   28.8370   11.4687   58.3702 O   0  0  0  0  0  0  0  0  0  0  0  0
   27.9406   13.7598   58.2267 C   0  0  0  0  0  0  0  0  0  0  0  0
   26.7616   13.4140   59.0664 N   0  3  0  0  0  0  0  0  0  0  0  0
  1  2  1  6  0  0  0
  1  3  1  0  0  0  0
  1 10  1  0  0  0  0
  3  4  1  6  0  0  0
  3  5  1  0  0  0  0
  5  6  1  6  0  0  0
  5  7  1  0  0  0  0
  7  8  1  6  0  0  0
  7  9  1  0  0  0  0
  9 10  1  0  0  0  0
  9 11  1  1  0  0  0
 11 12  1  0  0  0  0
 13 14  1  1  0  0  0
 13 15  1  0  0  0  0
 13 21  1  0  0  0  0
 15 16  1  0  0  0  0
 16 17  1  6  0  0  0
 16 18  1  0  0  0  0
 18  2  1  6  0  0  0
 18 19  1  0  0  0  0
 19 20  1  1  0  0  0
 19 21  1  0  0  0  0
 21 22  1  1  0  0  0
 23 20  1  6  0  0  0
 23 24  1  0  0  0  0
 23 29  1  0  0  0  0
 24 25  1  1  0  0  0
 24 26  1  0  0  0  0
 26 27  1  1  0  0  0
 26 28  1  0  0  0  0
 28 29  1  0  0  0  0
 28 30  1  6  0  0  0
 30 31  1  0  0  0  0
 32 27  1  1  0  0  0
 32 33  1  0  0  0  0
 32 40  1  0  0  0  0
 33 34  1  1  0  0  0
 33 35  1  0  0  0  0
 35 36  1  6  0  0  0
 35 37  1  0  0  0  0
 37 38  1  1  0  0  0
 37 39  1  0  0  0  0
 39 40  1  0  0  0  0
 39 41  1  1  0  0  0
 41 42  1  0  0  0  0
M  CHG  5   4   1  14   1  17   1  34   1  42   1
M  END
>  <CHROM.1>
-168.03698696,-169.56854724,55.36770268,-61.20379381,69.06544085,-73.53445916
-179.98326049,66.51005023,-179.24734940,-163.49567503,-150.60583076,-62.65643876
-176.17246757,50.16031101,172.07114667,-36.48995303,-59.49082615,-55.75518954
60.03122785,60.80832334,-65.39247065,-71.56620006,30.62856183,10.07922938
54.55495742,1.00905722,1.04466018,-1.22358322

>  <Name>
1j7t

>  <RI>
0

>  <Rbt.Current_Directory>
/home/itssahil/PROJECTS/Mol_Feturizer/New_Systems/rnas/1j7t

>  <Rbt.Executable>
rbdock ($Id: //depot/dev/client3/rdock/2013.1/src/exe/rbdock.cxx#4 $)

>  <Rbt.Library>
libRbt.so (2013.1, Build901 2013/11/27)

>  <Rbt.Parameter_File>
/export/apps/rDock/src/rDock_2013.1_src/data/scripts/dock_solv.prm

>  <Rbt.Receptor>
prm/blind_docking_100.prm

>  <SCORE>
-31.7095

>  <SCORE.INTER>
-36.8692

>  <SCORE.INTER.CONST>
1

>  <SCORE.INTER.POLAR>
-5.28333

>  <SCORE.INTER.ROT>
9

>  <SCORE.INTER.SOLV>
34.2515

>  <SCORE.INTER.VDW>
-27.9855

>  <SCORE.INTER.norm>
-0.877838

>  <SCORE.INTRA>
-10.9335

>  <SCORE.INTRA.DIHEDRAL>
-35.4099

>  <SCORE.INTRA.DIHEDRAL.0>
46.2143

>  <SCORE.INTRA.POLAR>
0.690071

>  <SCORE.INTRA.POLAR.0>
-1.76436

>  <SCORE.INTRA.REPUL>
0

>  <SCORE.INTRA.REPUL.0>
0

>  <SCORE.INTRA.SOLV>
-2.07634

>  <SCORE.INTRA.SOLV.lig_0>
-148.643

>  <SCORE.INTRA.VDW>
5.46335

>  <SCORE.INTRA.VDW.0>
-4.83512

>  <SCORE.INTRA.norm>
-0.260322

>  <SCORE.RESTR>
16.0933

>  <SCORE.RESTR.CAVITY>
16.0933

>  <SCORE.RESTR.norm>
0.383173

>  <SCORE.SYSTEM>
0

>  <SCORE.SYSTEM.CONST>
0

>  <SCORE.SYSTEM.DIHEDRAL>
0

>  <SCORE.SYSTEM.SOLV>
0

>  <SCORE.SYSTEM.norm>
0

>  <SCORE.heavy>
42

>  <SCORE.norm>
-0.754987

>  <RMSD>
4.498

$$$$
1j7t
 OpenBabel11021811393D
libRbt.so/2013.1/901 2013/11/27
 42 45  0  0  0  0  0  0  0  0999 V2000
   30.3735   10.3603   50.9665 C   0  0  2  0  0  0  0  0  0  0  0  0
   31.1835    9.2911   50.4160 O   0  0  0  0  0  0  0  0  0  0  0  0
   29.1627   10.5488   50.0082 C   0  0  2  0  0  0  0  0  0  0  0  0
   28.3945    9.3015   49.7293 N   0  3  0  0  0  0  0  0  0  0  0  0
   29.6958   11.0901   48.6636 C   0  0  1  0  0  0  0  0  0  0  0  0
   28.6442   11.2955   47.7628 O   0  0  0  0  0  0  0  0  0  0  0  0
   30.4806   12.4033   48.8942 C   0  0  2  0  0  0  0  0  0  0  0  0
   30.9597   12.9277   47.6716 O   0  0  0  0  0  0  0  0  0  0  0  0
   31.6526   12.1463   49.8174 C   0  0  2  0  0  0  0  0  0  0  0  0
   31.1784   11.5793   51.0321 O   0  0  0  0  0  0  0  0  0  0  0  0
   32.4034   13.4060   50.1868 C   0  0  0  0  0  0  0  0  0  0  0  0
   33.7863   13.1217   50.2754 O   0  0  0  0  0  0  0  0  0  0  0  0
   33.8975    6.3205   51.7038 C   0  0  2  0  0  0  0  0  0  0  0  0
   34.9404    5.6322   52.4653 N   0  3  0  0  0  0  0  0  0  0  0  0
   34.4894    7.5991   51.0230 C   0  0  0  0  0  0  0  0  0  0  0  0
   33.3834    8.3533   50.2603 C   0  0  2  0  0  0  0  0  0  0  0  0
   33.9093    9.5838   49.6602 N   0  3  0  0  0  0  0  0  0  0  0  0
   32.2205    8.7026   51.2097 C   0  0  2  0  0  0  0  0  0  0  0  0
   31.6356    7.4639   51.9159 C   0  0  2  0  0  0  0  0  0  0  0  0
   30.6809    7.9642   52.8718 O   0  0  0  0  0  0  0  0  0  0  0  0
   32.7566    6.6786   52.6428 C   0  0  1  0  0  0  0  0  0  0  0  0
   32.2178    5.5069   53.1902 O   0  0  0  0  0  0  0  0  0  0  0  0
   31.0501    8.6161   54.0842 C   0  0  1  0  0  0  0  0  0  0  0  0
   29.8006    8.6484   55.0348 C   0  0  2  0  0  0  0  0  0  0  0  0
   28.9618    9.7750   54.8446 O   0  0  0  0  0  0  0  0  0  0  0  0
   30.5363    8.6195   56.3671 C   0  0  2  0  0  0  0  0  0  0  0  0
   31.2571    9.8674   56.5973 O   0  0  0  0  0  0  0  0  0  0  0  0
   31.5706    7.5231   56.1540 C   0  0  2  0  0  0  0  0  0  0  0  0
   32.0235    7.8298   54.8242 O   0  0  0  0  0  0  0  0  0  0  0  0
   31.0205    6.0649   56.2830 C   0  0  0  0  0  0  0  0  0  0  0  0
   30.1489    5.9259   57.4121 O   0  0  0  0  0  0  0  0  0  0  0  0
   30.7935   10.6050   57.7254 C   0  0  2  0  0  0  0  0  0  0  0  0
   30.6128    9.7590   59.0315 C   0  0  2  0  0  0  0  0  0  0  0  0
   29.6664    8.6157   58.8563 N   0  3  0  0  0  0  0  0  0  0  0  0
   30.1268   10.7405   60.1495 C   0  0  1  0  0  0  0  0  0  0  0  0
   31.2057   11.7295   60.3624 O   0  0  0  0  0  0  0  0  0  0  0  0
   28.8073   11.5086   59.7491 C   0  0  2  0  0  0  0  0  0  0  0  0
   27.7479   10.5494   59.5990 O   0  0  0  0  0  0  0  0  0  0  0  0
   29.0836   12.2946   58.4009 C   0  0  1  0  0  0  0  0  0  0  0  0
   29.5178   11.3150   57.3983 O   0  0  0  0  0  0  0  0  0  0  0  0
   27.8731   13.0906   57.8624 C   0  0  0  0  0  0  0  0  0  0  0  0
   27.6037   14.3427   58.6202 N   0  3  0  0  0  0  0  0  0  0  0  0
  1  2  1  6  0  0  0
  1  3  1  0  0  0  0
  1 10  1  0  0  0  0
  3  4  1  6  0  0  0
  3  5  1  0  0  0  0
  5  6  1  6  0  0  0
  5  7  1  0  0  0  0
  7  8  1  6  0  0  0
  7  9  1  0  0  0  0
  9 10  1  0  0  0  0
  9 11  1  1  0  0  0
 11 12  1  0  0  0  0
 13 14  1  1  0  0  0
 13 15  1  0  0  0  0
 13 21  1  0  0  0  0
 15 16  1  0  0  0  0
 16 17  1  1  0  0  0
 16 18  1  0  0  0  0
 18  2  1  6  0  0  0
 18 19  1  0  0  0  0
 19 20  1  1  0  0  0
 19 21  1  0  0  0  0
 21 22  1  6  0  0  0
 23 20  1  6  0  0  0
 23 24  1  0  0  0  0
 23 29  1  0  0  0  0
 24 25  1  1  0  0  0
 24 26  1  0  0  0  0
 26 27  1  6  0  0  0
 26 28  1  0  0  0  0
 28 29  1  0  0  0  0
 28 30  1  6  0  0  0
 30 31  1  0  0  0  0
 32 27  1  6  0  0  0
 32 33  1  0  0  0  0
 32 40  1  0  0  0  0
 33 34  1  6  0  0  0
 33 35  1  0  0  0  0
 35 36  1  6  0  0  0
 35 37  1  0  0  0  0
 37 38  1  6  0  0  0
 37 39  1  0  0  0  0
 39 40  1  0  0  0  0
 39 41  1  6  0  0  0
 41 42  1  0  0  0  0
M  CHG  5   4   1  14   1  17   1  34   1  42   1
M  END
>  <CHROM.1>
-167.40164652,-144.50150712,-141.84939942,-82.23564204,172.25717668,-143.63559445
68.06651134,-178.13008499,54.13721346,-73.41915626,-164.12093277,83.45087177
-82.96022296,116.41566088,47.82660606,-43.72036090,85.40248936,86.97723360
-146.76638374,64.98342702,75.24402828,-50.52523553,30.87596269,9.74195898
53.85652349,1.07761837,1.05526832,-1.17184174

>  <Name>
1j7t

>  <RI>
0

>  <Rbt.Current_Directory>
/home/itssahil/PROJECTS/Mol_Feturizer/New_Systems/rnas/1j7t

>  <Rbt.Executable>
rbdock ($Id: //depot/dev/client3/rdock/2013.1/src/exe/rbdock.cxx#4 $)

>  <Rbt.Library>
libRbt.so (2013.1, Build901 2013/11/27)

>  <Rbt.Parameter_File>
/export/apps/rDock/src/rDock_2013.1_src/data/scripts/dock_solv.prm

>  <Rbt.Receptor>
prm/blind_docking_80.prm

>  <SCORE>
17.9467

>  <SCORE.INTER>
-10.0085

>  <SCORE.INTER.CONST>
1

>  <SCORE.INTER.POLAR>
-1.85349

>  <SCORE.INTER.ROT>
9

>  <SCORE.INTER.SOLV>
33.6685

>  <SCORE.INTER.VDW>
-21.3169

>  <SCORE.INTER.norm>
-0.238298

>  <SCORE.INTRA>
0.321695

>  <SCORE.INTRA.DIHEDRAL>
-6.78874

>  <SCORE.INTRA.DIHEDRAL.0>
46.2143

>  <SCORE.INTRA.POLAR>
0.308185

>  <SCORE.INTRA.POLAR.0>
-1.76436

>  <SCORE.INTRA.REPUL>
0

>  <SCORE.INTRA.REPUL.0>
0

>  <SCORE.INTRA.SOLV>
2.59241

>  <SCORE.INTRA.SOLV.lig_0>
-148.643

>  <SCORE.INTRA.VDW>
1.37203

>  <SCORE.INTRA.VDW.0>
-4.83512

>  <SCORE.INTRA.norm>
0.0076594

>  <SCORE.RESTR>
27.6335

>  <SCORE.RESTR.CAVITY>
27.6335

>  <SCORE.RESTR.norm>
0.657941

>  <SCORE.SYSTEM>
0

>  <SCORE.SYSTEM.CONST>
0

>  <SCORE.SYSTEM.DIHEDRAL>
0

>  <SCORE.SYSTEM.SOLV>
0

>  <SCORE.SYSTEM.norm>
0

>  <SCORE.heavy>
42

>  <SCORE.norm>
0.427302

>  <RMSD>
4.522

$$$$
1j7t
 OpenBabel11021811393D
libRbt.so/2013.1/901 2013/11/27
 42 45  0  0  0  0  0  0  0  0999 V2000
   30.7479   10.4083   51.8388 C   0  0  2  0  0  0  0  0  0  0  0  0
   31.4330    9.1764   51.4987 O   0  0  0  0  0  0  0  0  0  0  0  0
   29.4493   10.4537   50.9835 C   0  0  2  0  0  0  0  0  0  0  0  0
   28.5892    9.2411   51.0998 N   0  3  0  0  0  0  0  0  0  0  0  0
   29.8568   10.6079   49.5019 C   0  0  1  0  0  0  0  0  0  0  0  0
   28.7236   10.6709   48.6825 O   0  0  0  0  0  0  0  0  0  0  0  0
   30.7314   11.8711   49.3210 C   0  0  2  0  0  0  0  0  0  0  0  0
   31.0981   12.0430   47.9663 O   0  0  0  0  0  0  0  0  0  0  0  0
   31.9840   11.7540   50.1633 C   0  0  2  0  0  0  0  0  0  0  0  0
   31.6190   11.5388   51.5206 O   0  0  0  0  0  0  0  0  0  0  0  0
   32.8375   13.0020   50.1328 C   0  0  0  0  0  0  0  0  0  0  0  0
   34.2044   12.6380   50.1175 O   0  0  0  0  0  0  0  0  0  0  0  0
   33.7955    6.3973   53.6302 C   0  0  2  0  0  0  0  0  0  0  0  0
   34.8546    5.8326   54.4673 N   0  3  0  0  0  0  0  0  0  0  0  0
   34.4166    7.0470   52.3494 C   0  0  0  0  0  0  0  0  0  0  0  0
   33.3094    7.6857   51.4893 C   0  0  2  0  0  0  0  0  0  0  0  0
   33.8798    8.3465   50.3107 N   0  3  0  0  0  0  0  0  0  0  0  0
   32.5131    8.7131   52.3175 C   0  0  2  0  0  0  0  0  0  0  0  0
   31.9123    8.1066   53.6006 C   0  0  2  0  0  0  0  0  0  0  0  0
   31.3429    9.2085   54.3333 O   0  0  0  0  0  0  0  0  0  0  0  0
   33.0189    7.4218   54.4421 C   0  0  1  0  0  0  0  0  0  0  0  0
   32.4335    6.7930   55.5489 O   0  0  0  0  0  0  0  0  0  0  0  0
   30.8616    9.0987   55.6703 C   0  0  1  0  0  0  0  0  0  0  0  0
   29.6001   10.0210   55.8245 C   0  0  2  0  0  0  0  0  0  0  0  0
   29.9048   11.3564   56.1892 O   0  0  0  0  0  0  0  0  0  0  0  0
   28.8702    9.2195   56.8932 C   0  0  2  0  0  0  0  0  0  0  0  0
   29.5770    9.2772   58.1687 O   0  0  0  0  0  0  0  0  0  0  0  0
   28.9767    7.7932   56.3721 C   0  0  2  0  0  0  0  0  0  0  0  0
   30.3451    7.7651   55.9311 O   0  0  0  0  0  0  0  0  0  0  0  0
   27.9679    7.4313   55.2331 C   0  0  0  0  0  0  0  0  0  0  0  0
   28.1564    6.0896   54.7658 O   0  0  0  0  0  0  0  0  0  0  0  0
   29.9729   10.5913   58.5532 C   0  0  2  0  0  0  0  0  0  0  0  0
   30.6322   10.6879   59.9710 C   0  0  2  0  0  0  0  0  0  0  0  0
   29.7445   10.1786   61.0600 N   0  3  0  0  0  0  0  0  0  0  0  0
   31.0148   12.1887   60.1970 C   0  0  1  0  0  0  0  0  0  0  0  0
   32.0219   12.5421   59.1730 O   0  0  0  0  0  0  0  0  0  0  0  0
   29.7782   13.1580   60.0470 C   0  0  2  0  0  0  0  0  0  0  0  0
   28.8275   12.8489   61.0792 O   0  0  0  0  0  0  0  0  0  0  0  0
   29.1629   12.9527   58.6009 C   0  0  1  0  0  0  0  0  0  0  0  0
   28.8142   11.5338   58.4654 O   0  0  0  0  0  0  0  0  0  0  0  0
   27.9229   13.8255   58.3012 C   0  0  0  0  0  0  0  0  0  0  0  0
   26.7937   13.5923   59.2420 N   0  3  0  0  0  0  0  0  0  0  0  0
  1  2  1  6  0  0  0
  1  3  1  0  0  0  0
  1 10  1  0  0  0  0
  3  4  1  6  0  0  0
  3  5  1  0  0  0  0
  5  6  1  6  0  0  0
  5  7  1  0  0  0  0
  7  8  1  6  0  0  0
  7  9  1  0  0  0  0
  9 10  1  0  0  0  0
  9 11  1  1  0  0  0
 11 12  1  0  0  0  0
 13 14  1  1  0  0  0
 13 15  1  0  0  0  0
 13 21  1  0  0  0  0
 15 16  1  0  0  0  0
 16 17  1  6  0  0  0
 16 18  1  0  0  0  0
 18  2  1  6  0  0  0
 18 19  1  0  0  0  0
 19 20  1  1  0  0  0
 19 21  1  0  0  0  0
 21 22  1  1  0  0  0
 23 20  1  6  0  0  0
 23 24  1  0  0  0  0
 23 29  1  0  0  0  0
 24 25  1  1  0  0  0
 24 26  1  0  0  0  0
 26 27  1  1  0  0  0
 26 28  1  0  0  0  0
 28 29  1  0  0  0  0
 28 30  1  6  0  0  0
 30 31  1  0  0  0  0
 32 27  1  1  0  0  0
 32 33  1  0  0  0  0
 32 40  1  0  0  0  0
 33 34  1  1  0  0  0
 33 35  1  0  0  0  0
 35 36  1  6  0  0  0
 35 37  1  0  0  0  0
 37 38  1  1  0  0  0
 37 39  1  0  0  0  0
 39 40  1  0  0  0  0
 39 41  1  1  0  0  0
 41 42  1  0  0  0  0
M  CHG  5   4   1  14   1  17   1  34   1  42   1
M  END
>  <CHROM.1>
-166.95020536,-162.12640471,-47.53984478,65.23222553,-47.80244395,-141.90835717
-171.33903122,-168.73122399,-178.13085305,-170.45840746,-144.18729098,147.19211975
-176.57031329,47.47330650,175.40894412,178.14853283,66.79285512,-27.86106837
64.07949893,-81.45211732,-59.23012237,68.83462485,30.74024750,10.03067958
54.64833028,0.96100888,1.06737686,-1.20403423

>  <Name>
1j7t

>  <RI>
0

>  <Rbt.Current_Directory>
/home/itssahil/PROJECTS/Mol_Feturizer/New_Systems/rnas/1j7t

>  <Rbt.Executable>
rbdock ($Id: //depot/dev/client3/rdock/2013.1/src/exe/rbdock.cxx#4 $)

>  <Rbt.Library>
libRbt.so (2013.1, Build901 2013/11/27)

>  <Rbt.Parameter_File>
/export/apps/rDock/src/rDock_2013.1_src/data/scripts/dock_solv.prm

>  <Rbt.Receptor>
prm/blind_docking_80.prm

>  <SCORE>
-17.0609

>  <SCORE.INTER>
-42.3037

>  <SCORE.INTER.CONST>
1

>  <SCORE.INTER.POLAR>
-6.41482

>  <SCORE.INTER.ROT>
9

>  <SCORE.INTER.SOLV>
34.6695

>  <SCORE.INTER.VDW>
-27.9762

>  <SCORE.INTER.norm>
-1.00723

>  <SCORE.INTRA>
-0.871698

>  <SCORE.INTRA.DIHEDRAL>
-23.1005

>  <SCORE.INTRA.DIHEDRAL.0>
46.2143

>  <SCORE.INTRA.POLAR>
1.67632

>  <SCORE.INTRA.POLAR.0>
-1.76436

>  <SCORE.INTRA.REPUL>
0

>  <SCORE.INTRA.REPUL.0>
0

>  <SCORE.INTRA.SOLV>
-1.77495

>  <SCORE.INTRA.SOLV.lig_0>
-148.643

>  <SCORE.INTRA.VDW>
5.86655

>  <SCORE.INTRA.VDW.0>
-4.83512

>  <SCORE.INTRA.norm>
-0.0207547

>  <SCORE.RESTR>
26.1145

>  <SCORE.RESTR.CAVITY>
26.1145

>  <SCORE.RESTR.norm>
0.621774

>  <SCORE.SYSTEM>
0

>  <SCORE.SYSTEM.CONST>
0

>  <SCORE.SYSTEM.DIHEDRAL>
0

>  <SCORE.SYSTEM.SOLV>
0

>  <SCORE.SYSTEM.norm>
0

>  <SCORE.heavy>
42

>  <SCORE.norm>
-0.406212

>  <RMSD>
4.531

$$$$
1j7t
 OpenBabel11021811393D
libRbt.so/2013.1/901 2013/11/27
 42 45  0  0  0  0  0  0  0  0999 V2000
   30.8064   10.4945   51.6958 C   0  0  2  0  0  0  0  0  0  0  0  0
   31.4356    9.2335   51.3547 O   0  0  0  0  0  0  0  0  0  0  0  0
   29.4991   10.5881   50.8578 C   0  0  2  0  0  0  0  0  0  0  0  0
   28.5917    9.4127   50.9939 N   0  3  0  0  0  0  0  0  0  0  0  0
   29.8921   10.7163   49.3699 C   0  0  1  0  0  0  0  0  0  0  0  0
   28.7513   10.8209   48.5655 O   0  0  0  0  0  0  0  0  0  0  0  0
   30.8153   11.9413   49.1687 C   0  0  2  0  0  0  0  0  0  0  0  0
   31.1700   12.0896   47.8080 O   0  0  0  0  0  0  0  0  0  0  0  0
   32.0735   11.7779   49.9947 C   0  0  2  0  0  0  0  0  0  0  0  0
   31.7187   11.5862   51.3583 O   0  0  0  0  0  0  0  0  0  0  0  0
   32.9770   12.9896   49.9444 C   0  0  0  0  0  0  0  0  0  0  0  0
   34.3223   12.5812   50.1015 O   0  0  0  0  0  0  0  0  0  0  0  0
   33.6621    6.2781   53.3936 C   0  0  2  0  0  0  0  0  0  0  0  0
   34.6676    5.6418   54.2453 N   0  3  0  0  0  0  0  0  0  0  0  0
   34.3610    7.0267   52.2106 C   0  0  0  0  0  0  0  0  0  0  0  0
   33.3089    7.7389   51.3390 C   0  0  2  0  0  0  0  0  0  0  0  0
   33.9509    8.4905   50.2556 N   0  3  0  0  0  0  0  0  0  0  0  0
   32.4631    8.6996   52.1977 C   0  0  2  0  0  0  0  0  0  0  0  0
   31.7844    7.9937   53.3878 C   0  0  2  0  0  0  0  0  0  0  0  0
   31.1710    9.0353   54.1716 O   0  0  0  0  0  0  0  0  0  0  0  0
   32.8370    7.2371   54.2371 C   0  0  1  0  0  0  0  0  0  0  0  0
   32.1845    6.5234   55.2509 O   0  0  0  0  0  0  0  0  0  0  0  0
   30.5532    8.8077   55.4356 C   0  0  1  0  0  0  0  0  0  0  0  0
   29.5152    9.9564   55.6984 C   0  0  2  0  0  0  0  0  0  0  0  0
   30.0687   11.0991   56.3284 O   0  0  0  0  0  0  0  0  0  0  0  0
   28.5300    9.1719   56.5536 C   0  0  2  0  0  0  0  0  0  0  0  0
   29.1084    8.8391   57.8514 O   0  0  0  0  0  0  0  0  0  0  0  0
   28.3706    7.8741   55.7742 C   0  0  2  0  0  0  0  0  0  0  0  0
   29.7351    7.6063   55.4079 O   0  0  0  0  0  0  0  0  0  0  0  0
   27.4194    7.9621   54.5359 C   0  0  0  0  0  0  0  0  0  0  0  0
   28.1222    8.3748   53.3570 O   0  0  0  0  0  0  0  0  0  0  0  0
   29.0313    9.8930   58.8079 C   0  0  2  0  0  0  0  0  0  0  0  0
   27.7083   10.7304   58.7541 C   0  0  2  0  0  0  0  0  0  0  0  0
   27.4703   11.3548   57.4174 N   0  3  0  0  0  0  0  0  0  0  0  0
   27.8033   11.8099   59.8834 C   0  0  1  0  0  0  0  0  0  0  0  0
   27.8643   11.0891   61.1734 O   0  0  0  0  0  0  0  0  0  0  0  0
   29.0886   12.7161   59.7481 C   0  0  2  0  0  0  0  0  0  0  0  0
   28.9978   13.4575   58.5206 O   0  0  0  0  0  0  0  0  0  0  0  0
   30.3621   11.7729   59.7721 C   0  0  1  0  0  0  0  0  0  0  0  0
   30.2138   10.8011   58.6827 O   0  0  0  0  0  0  0  0  0  0  0  0
   31.7116   12.5131   59.6308 C   0  0  0  0  0  0  0  0  0  0  0  0
   32.1585   13.1739   60.8870 N   0  3  0  0  0  0  0  0  0  0  0  0
  1  2  1  6  0  0  0
  1  3  1  0  0  0  0
  1 10  1  0  0  0  0
  3  4  1  6  0  0  0
  3  5  1  0  0  0  0
  5  6  1  6  0  0  0
  5  7  1  0  0  0  0
  7  8  1  6  0  0  0
  7  9  1  0  0  0  0
  9 10  1  0  0  0  0
  9 11  1  1  0  0  0
 11 12  1  0  0  0  0
 13 14  1  1  0  0  0
 13 15  1  0  0  0  0
 13 21  1  0  0  0  0
 15 16  1  0  0  0  0
 16 17  1  6  0  0  0
 16 18  1  0  0  0  0
 18  2  1  6  0  0  0
 18 19  1  0  0  0  0
 19 20  1  1  0  0  0
 19 21  1  0  0  0  0
 21 22  1  1  0  0  0
 23 20  1  6  0  0  0
 23 24  1  0  0  0  0
 23 29  1  0  0  0  0
 24 25  1  1  0  0  0
 24 26  1  0  0  0  0
 26 27  1  1  0  0  0
 26 28  1  0  0  0  0
 28 29  1  0  0  0  0
 28 30  1  6  0  0  0
 30 31  1  0  0  0  0
 32 27  1  6  0  0  0
 32 33  1  0  0  0  0
 32 40  1  0  0  0  0
 33 34  1  6  0  0  0
 33 35  1  0  0  0  0
 35 36  1  1  0  0  0
 35 37  1  0  0  0  0
 37 38  1  6  0  0  0
 37 39  1  0  0  0  0
 39 40  1  0  0  0  0
 39 41  1  6  0  0  0
 41 42  1  0  0  0  0
M  CHG  5   4   1  14   1  17   1  34   1  42   1
M  END
>  <CHROM.1>
-163.96273714,-157.11527890,-55.62956462,63.81783552,-48.53054956,-150.03448994
-47.36483595,68.51193684,-62.34418125,-173.47835637,-156.62439161,151.92702210
152.34628308,82.19533932,37.65561426,87.87920378,65.33417024,61.60909009
-63.63051133,84.49897193,77.87714200,-19.38938381,30.63019209,9.97002379
54.42443897,1.02967672,0.97856789,-1.24430181

>  <Name>
1j7t

>  <RI>
0

>  <Rbt.Current_Directory>
/home/itssahil/PROJECTS/Mol_Feturizer/New_Systems/rnas/1j7t

>  <Rbt.Executable>
rbdock ($Id: //depot/dev/client3/rdock/2013.1/src/exe/rbdock.cxx#4 $)

>  <Rbt.Library>
libRbt.so (2013.1, Build901 2013/11/27)

>  <Rbt.Parameter_File>
/export/apps/rDock/src/rDock_2013.1_src/data/scripts/dock_solv.prm

>  <Rbt.Receptor>
prm/blind_docking_100.prm

>  <SCORE>
-26.075

>  <SCORE.INTER>
-50.4245

>  <SCORE.INTER.CONST>
1

>  <SCORE.INTER.POLAR>
-7.94818

>  <SCORE.INTER.ROT>
9

>  <SCORE.INTER.SOLV>
42.5207

>  <SCORE.INTER.VDW>
-30.896

>  <SCORE.INTER.norm>
-1.20058

>  <SCORE.INTRA>
8.14397

>  <SCORE.INTRA.DIHEDRAL>
-15.8729

>  <SCORE.INTRA.DIHEDRAL.0>
46.2143

>  <SCORE.INTRA.POLAR>
0.176688

>  <SCORE.INTRA.POLAR.0>
-1.76436

>  <SCORE.INTRA.REPUL>
0.152889

>  <SCORE.INTRA.REPUL.0>
0

>  <SCORE.INTRA.SOLV>
5.38682

>  <SCORE.INTRA.SOLV.lig_0>
-148.643

>  <SCORE.INTRA.VDW>
12.0218

>  <SCORE.INTRA.VDW.0>
-4.83512

>  <SCORE.INTRA.norm>
0.193904

>  <SCORE.RESTR>
16.2055

>  <SCORE.RESTR.CAVITY>
16.2055

>  <SCORE.RESTR.norm>
0.385846

>  <SCORE.SYSTEM>
0

>  <SCORE.SYSTEM.CONST>
0

>  <SCORE.SYSTEM.DIHEDRAL>
0

>  <SCORE.SYSTEM.SOLV>
0

>  <SCORE.SYSTEM.norm>
0

>  <SCORE.heavy>
42

>  <SCORE.norm>
-0.620834

>  <RMSD>
4.536

$$$$
1j7t
 OpenBabel11021811393D
libRbt.so/2013.1/901 2013/11/27
 42 45  0  0  0  0  0  0  0  0999 V2000
   30.7247   10.2078   51.9509 C   0  0  2  0  0  0  0  0  0  0  0  0
   31.4366    8.9830   51.6416 O   0  0  0  0  0  0  0  0  0  0  0  0
   29.4061   10.1844   51.1256 C   0  0  2  0  0  0  0  0  0  0  0  0
   28.5837    8.9540   51.3085 N   0  3  0  0  0  0  0  0  0  0  0  0
   29.7753   10.2922   49.6300 C   0  0  1  0  0  0  0  0  0  0  0  0
   28.6224   10.2924   48.8361 O   0  0  0  0  0  0  0  0  0  0  0  0
   30.6094   11.5711   49.3803 C   0  0  2  0  0  0  0  0  0  0  0  0
   30.9401   11.7004   48.0117 O   0  0  0  0  0  0  0  0  0  0  0  0
   31.8836   11.5211   50.1963 C   0  0  2  0  0  0  0  0  0  0  0  0
   31.5559   11.3486   51.5692 O   0  0  0  0  0  0  0  0  0  0  0  0
   32.7005   12.7900   50.0981 C   0  0  0  0  0  0  0  0  0  0  0  0
   34.0479   12.5097   50.4254 O   0  0  0  0  0  0  0  0  0  0  0  0
   33.8970    6.3262   53.8179 C   0  0  2  0  0  0  0  0  0  0  0  0
   34.9782    5.8132   54.6599 N   0  3  0  0  0  0  0  0  0  0  0  0
   34.4897    6.9659   52.5187 C   0  0  0  0  0  0  0  0  0  0  0  0
   33.3580    7.5508   51.6523 C   0  0  2  0  0  0  0  0  0  0  0  0
   33.9004    8.2023   50.4555 N   0  3  0  0  0  0  0  0  0  0  0  0
   32.5355    8.5716   52.4630 C   0  0  2  0  0  0  0  0  0  0  0  0
   31.9618    7.9757   53.7633 C   0  0  2  0  0  0  0  0  0  0  0  0
   31.3632    9.0758   54.4754 O   0  0  0  0  0  0  0  0  0  0  0  0
   33.0942    7.3443   54.6122 C   0  0  1  0  0  0  0  0  0  0  0  0
   32.5354    6.7228   55.7367 O   0  0  0  0  0  0  0  0  0  0  0  0
   30.6692    8.9278   55.7113 C   0  0  1  0  0  0  0  0  0  0  0  0
   29.6083   10.0795   55.8298 C   0  0  2  0  0  0  0  0  0  0  0  0
   30.1130   11.2689   56.4127 O   0  0  0  0  0  0  0  0  0  0  0  0
   28.5774    9.3438   56.6742 C   0  0  2  0  0  0  0  0  0  0  0  0
   29.0759    9.1071   58.0252 O   0  0  0  0  0  0  0  0  0  0  0  0
   28.4766    7.9941   55.9776 C   0  0  2  0  0  0  0  0  0  0  0  0
   29.8633    7.7178   55.7158 O   0  0  0  0  0  0  0  0  0  0  0  0
   27.6042    7.9864   54.6797 C   0  0  0  0  0  0  0  0  0  0  0  0
   26.4679    8.8514   54.8006 O   0  0  0  0  0  0  0  0  0  0  0  0
   28.9757   10.2382   58.8866 C   0  0  2  0  0  0  0  0  0  0  0  0
   27.6389   11.0444   58.7557 C   0  0  2  0  0  0  0  0  0  0  0  0
   27.3972   11.5466   57.3691 N   0  3  0  0  0  0  0  0  0  0  0  0
   27.7094   12.2190   59.7877 C   0  0  1  0  0  0  0  0  0  0  0  0
   27.7760   11.6136   61.1354 O   0  0  0  0  0  0  0  0  0  0  0  0
   28.9796   13.1325   59.5793 C   0  0  2  0  0  0  0  0  0  0  0  0
   28.8825   13.7634   58.2919 O   0  0  0  0  0  0  0  0  0  0  0  0
   30.2690   12.2175   59.6895 C   0  0  1  0  0  0  0  0  0  0  0  0
   30.1430   11.1526   58.6877 O   0  0  0  0  0  0  0  0  0  0  0  0
   31.6063   12.9663   59.4897 C   0  0  0  0  0  0  0  0  0  0  0  0
   32.4672   12.9741   60.7035 N   0  3  0  0  0  0  0  0  0  0  0  0
  1  2  1  6  0  0  0
  1  3  1  0  0  0  0
  1 10  1  0  0  0  0
  3  4  1  6  0  0  0
  3  5  1  0  0  0  0
  5  6  1  6  0  0  0
  5  7  1  0  0  0  0
  7  8  1  6  0  0  0
  7  9  1  0  0  0  0
  9 10  1  0  0  0  0
  9 11  1  1  0  0  0
 11 12  1  0  0  0  0
 13 14  1  1  0  0  0
 13 15  1  0  0  0  0
 13 21  1  0  0  0  0
 15 16  1  0  0  0  0
 16 17  1  6  0  0  0
 16 18  1  0  0  0  0
 18  2  1  6  0  0  0
 18 19  1  0  0  0  0
 19 20  1  1  0  0  0
 19 21  1  0  0  0  0
 21 22  1  1  0  0  0
 23 20  1  6  0  0  0
 23 24  1  0  0  0  0
 23 29  1  0  0  0  0
 24 25  1  1  0  0  0
 24 26  1  0  0  0  0
 26 27  1  1  0  0  0
 26 28  1  0  0  0  0
 28 29  1  0  0  0  0
 28 30  1  6  0  0  0
 30 31  1  0  0  0  0
 32 27  1  6  0  0  0
 32 33  1  0  0  0  0
 32 40  1  0  0  0  0
 33 34  1  6  0  0  0
 33 35  1  0  0  0  0
 35 36  1  1  0  0  0
 35 37  1  0  0  0  0
 37 38  1  6  0  0  0
 37 39  1  0  0  0  0
 39 40  1  0  0  0  0
 39 41  1  6  0  0  0
 41 42  1  0  0  0  0
M  CHG  5   4   1  14   1  17   1  34   1  42   1
M  END
>  <CHROM.1>
-166.04885110,-161.48514542,-162.47041549,-174.24227311,73.73931601,-157.65690167
-170.73781208,-48.16721902,59.23230249,177.26273039,-152.67428941,-68.81942674
-60.49138533,80.04345776,41.42535142,-36.58407547,-54.53571244,-156.38550720
-56.28994507,61.23157700,115.48807194,149.64560810,30.58574889,9.99494124
54.62669496,1.12301364,0.78420237,-1.45521882

>  <Name>
1j7t

>  <RI>
0

>  <Rbt.Current_Directory>
/home/itssahil/PROJECTS/Mol_Feturizer/New_Systems/rnas/1j7t

>  <Rbt.Executable>
rbdock ($Id: //depot/dev/client3/rdock/2013.1/src/exe/rbdock.cxx#4 $)

>  <Rbt.Library>
libRbt.so (2013.1, Build901 2013/11/27)

>  <Rbt.Parameter_File>
/export/apps/rDock/src/rDock_2013.1_src/data/scripts/dock_solv.prm

>  <Rbt.Receptor>
prm/blind_docking_80.prm

>  <SCORE>
-11.2814

>  <SCORE.INTER>
-37.222

>  <SCORE.INTER.CONST>
1

>  <SCORE.INTER.POLAR>
-5.92534

>  <SCORE.INTER.ROT>
9

>  <SCORE.INTER.SOLV>
46.7992

>  <SCORE.INTER.VDW>
-30.2632

>  <SCORE.INTER.norm>
-0.886237

>  <SCORE.INTRA>
-0.995388

>  <SCORE.INTRA.DIHEDRAL>
-22.0676

>  <SCORE.INTRA.DIHEDRAL.0>
46.2143

>  <SCORE.INTRA.POLAR>
1.09956

>  <SCORE.INTRA.POLAR.0>
-1.76436

>  <SCORE.INTRA.REPUL>
0.0190727

>  <SCORE.INTRA.REPUL.0>
0

>  <SCORE.INTRA.SOLV>
1.43676

>  <SCORE.INTRA.SOLV.lig_0>
-148.643

>  <SCORE.INTRA.VDW>
5.4862

>  <SCORE.INTRA.VDW.0>
-4.83512

>  <SCORE.INTRA.norm>
-0.0236997

>  <SCORE.RESTR>
26.936

>  <SCORE.RESTR.CAVITY>
26.936

>  <SCORE.RESTR.norm>
0.641333

>  <SCORE.SYSTEM>
0

>  <SCORE.SYSTEM.CONST>
0

>  <SCORE.SYSTEM.DIHEDRAL>
0

>  <SCORE.SYSTEM.SOLV>
0

>  <SCORE.SYSTEM.norm>
0

>  <SCORE.heavy>
42

>  <SCORE.norm>
-0.268604

>  <RMSD>
4.583

$$$$
1j7t
 OpenBabel11021811393D
libRbt.so/2013.1/901 2013/11/27
 42 45  0  0  0  0  0  0  0  0999 V2000
   30.1316   10.2290   51.5366 C   0  0  2  0  0  0  0  0  0  0  0  0
   30.9903    9.1093   51.2028 O   0  0  0  0  0  0  0  0  0  0  0  0
   29.0558   10.3226   50.4168 C   0  0  2  0  0  0  0  0  0  0  0  0
   28.3122    9.0546   50.1659 N   0  3  0  0  0  0  0  0  0  0  0  0
   29.7638   10.7266   49.1051 C   0  0  1  0  0  0  0  0  0  0  0  0
   28.8389   10.8425   48.0608 O   0  0  0  0  0  0  0  0  0  0  0  0
   30.5310   12.0553   49.3039 C   0  0  2  0  0  0  0  0  0  0  0  0
   31.1696   12.4548   48.1073 O   0  0  0  0  0  0  0  0  0  0  0  0
   31.5718   11.8901   50.3908 C   0  0  2  0  0  0  0  0  0  0  0  0
   30.9385   11.4475   51.5845 O   0  0  0  0  0  0  0  0  0  0  0  0
   32.2868   13.1795   50.7276 C   0  0  0  0  0  0  0  0  0  0  0  0
   33.0394   13.6072   49.6087 O   0  0  0  0  0  0  0  0  0  0  0  0
   33.7845    6.6930   53.2528 C   0  0  2  0  0  0  0  0  0  0  0  0
   34.9110    6.2850   54.0929 N   0  3  0  0  0  0  0  0  0  0  0  0
   34.3018    7.5275   52.0345 C   0  0  0  0  0  0  0  0  0  0  0  0
   33.1147    8.0005   51.1739 C   0  0  2  0  0  0  0  0  0  0  0  0
   33.5778    8.8300   50.0565 N   0  3  0  0  0  0  0  0  0  0  0  0
   32.1186    8.8057   52.0313 C   0  0  2  0  0  0  0  0  0  0  0  0
   31.6130    8.0171   53.2551 C   0  0  2  0  0  0  0  0  0  0  0  0
   30.8278    8.9440   54.0296 O   0  0  0  0  0  0  0  0  0  0  0  0
   32.8088    7.5000   54.0944 C   0  0  1  0  0  0  0  0  0  0  0  0
   32.3266    6.7038   55.1416 O   0  0  0  0  0  0  0  0  0  0  0  0
   30.8471    8.9922   55.4538 C   0  0  1  0  0  0  0  0  0  0  0  0
   29.6356    9.8648   55.9407 C   0  0  2  0  0  0  0  0  0  0  0  0
   29.9222   11.2503   56.0264 O   0  0  0  0  0  0  0  0  0  0  0  0
   29.3944    9.1802   57.2787 C   0  0  2  0  0  0  0  0  0  0  0  0
   30.4875    9.4434   58.2091 O   0  0  0  0  0  0  0  0  0  0  0  0
   29.4468    7.7035   56.9128 C   0  0  2  0  0  0  0  0  0  0  0  0
   30.5770    7.6825   56.0240 O   0  0  0  0  0  0  0  0  0  0  0  0
   28.1464    7.1431   56.2489 C   0  0  0  0  0  0  0  0  0  0  0  0
   27.9860    7.6256   54.9089 O   0  0  0  0  0  0  0  0  0  0  0  0
   30.5683   10.7997   58.6398 C   0  0  2  0  0  0  0  0  0  0  0  0
   31.0794   10.9908   60.1083 C   0  0  2  0  0  0  0  0  0  0  0  0
   30.2351   10.2777   61.1144 N   0  3  0  0  0  0  0  0  0  0  0  0
   31.1207   12.5313   60.3821 C   0  0  1  0  0  0  0  0  0  0  0  0
   32.1089   13.1148   59.4490 O   0  0  0  0  0  0  0  0  0  0  0  0
   29.7244   13.2267   60.1413 C   0  0  2  0  0  0  0  0  0  0  0  0
   28.7813   12.6979   61.0878 O   0  0  0  0  0  0  0  0  0  0  0  0
   29.2811   12.9392   58.6470 C   0  0  1  0  0  0  0  0  0  0  0  0
   29.2487   11.4832   58.4672 O   0  0  0  0  0  0  0  0  0  0  0  0
   27.9135   13.5438   58.2557 C   0  0  0  0  0  0  0  0  0  0  0  0
   26.7539   12.7821   58.7941 N   0  3  0  0  0  0  0  0  0  0  0  0
  1  2  1  6  0  0  0
  1  3  1  0  0  0  0
  1 10  1  0  0  0  0
  3  4  1  6  0  0  0
  3  5  1  0  0  0  0
  5  6  1  6  0  0  0
  5  7  1  0  0  0  0
  7  8  1  6  0  0  0
  7  9  1  0  0  0  0
  9 10  1  0  0  0  0
  9 11  1  1  0  0  0
 11 12  1  0  0  0  0
 13 14  1  1  0  0  0
 13 15  1  0  0  0  0
 13 21  1  0  0  0  0
 15 16  1  0  0  0  0
 16 17  1  6  0  0  0
 16 18  1  0  0  0  0
 18  2  1  6  0  0  0
 18 19  1  0  0  0  0
 19 20  1  1  0  0  0
 19 21  1  0  0  0  0
 21 22  1  1  0  0  0
 23 20  1  6  0  0  0
 23 24  1  0  0  0  0
 23 29  1  0  0  0  0
 24 25  1  1  0  0  0
 24 26  1  0  0  0  0
 26 27  1  1  0  0  0
 26 28  1  0  0  0  0
 28 29  1  0  0  0  0
 28 30  1  6  0  0  0
 30 31  1  0  0  0  0
 32 27  1  1  0  0  0
 32 33  1  0  0  0  0
 32 40  1  0  0  0  0
 33 34  1  1  0  0  0
 33 35  1  0  0  0  0
 35 36  1  6  0  0  0
 35 37  1  0  0  0  0
 37 38  1  1  0  0  0
 37 39  1  0  0  0  0
 39 40  1  0  0  0  0
 39 41  1  1  0  0  0
 41 42  1  0  0  0  0
M  CHG  5   4   1  14   1  17   1  34   1  42   1
M  END
>  <CHROM.1>
177.48521380,-157.64147217,76.17476133,70.20071071,-178.95513527,-65.06984969
-55.52926169,68.92460934,-43.71213590,-140.59099047,-166.56607815,144.96960176
-172.01985825,68.08893836,146.74082968,71.95257657,57.28343458,53.60290487
-157.47126205,68.21990825,-76.45920305,98.51861808,30.68479842,10.14616816
54.55502622,1.15348278,1.08182073,-1.33571235

>  <Name>
1j7t

>  <RI>
0

>  <Rbt.Current_Directory>
/home/itssahil/PROJECTS/Mol_Feturizer/New_Systems/rnas/1j7t

>  <Rbt.Executable>
rbdock ($Id: //depot/dev/client3/rdock/2013.1/src/exe/rbdock.cxx#4 $)

>  <Rbt.Library>
libRbt.so (2013.1, Build901 2013/11/27)

>  <Rbt.Parameter_File>
/export/apps/rDock/src/rDock_2013.1_src/data/scripts/dock_solv.prm

>  <Rbt.Receptor>
prm/blind_docking_100.prm

>  <SCORE>
-23.3356

>  <SCORE.INTER>
-36.5122

>  <SCORE.INTER.CONST>
1

>  <SCORE.INTER.POLAR>
-5.66234

>  <SCORE.INTER.ROT>
9

>  <SCORE.INTER.SOLV>
39.0804

>  <SCORE.INTER.VDW>
-28.0938

>  <SCORE.INTER.norm>
-0.869337

>  <SCORE.INTRA>
-0.90326

>  <SCORE.INTRA.DIHEDRAL>
-19.0962

>  <SCORE.INTRA.DIHEDRAL.0>
46.2143

>  <SCORE.INTRA.POLAR>
0.469028

>  <SCORE.INTRA.POLAR.0>
-1.76436

>  <SCORE.INTRA.REPUL>
0

>  <SCORE.INTRA.REPUL.0>
0

>  <SCORE.INTRA.SOLV>
-0.690229

>  <SCORE.INTRA.SOLV.lig_0>
-148.643

>  <SCORE.INTRA.VDW>
7.39528

>  <SCORE.INTRA.VDW.0>
-4.83512

>  <SCORE.INTRA.norm>
-0.0215062

>  <SCORE.RESTR>
14.0798

>  <SCORE.RESTR.CAVITY>
14.0798

>  <SCORE.RESTR.norm>
0.335234

>  <SCORE.SYSTEM>
0

>  <SCORE.SYSTEM.CONST>
0

>  <SCORE.SYSTEM.DIHEDRAL>
0

>  <SCORE.SYSTEM.SOLV>
0

>  <SCORE.SYSTEM.norm>
0

>  <SCORE.heavy>
42

>  <SCORE.norm>
-0.555609

>  <RMSD>
4.588

$$$$
1j7t
 OpenBabel11021811393D
libRbt.so/2013.1/901 2013/11/27
 42 45  0  0  0  0  0  0  0  0999 V2000
   30.6364   10.3084   51.5327 C   0  0  2  0  0  0  0  0  0  0  0  0
   31.3514    9.0745   51.2710 O   0  0  0  0  0  0  0  0  0  0  0  0
   29.3103   10.2426   50.7220 C   0  0  2  0  0  0  0  0  0  0  0  0
   28.4958    9.0177   50.9669 N   0  3  0  0  0  0  0  0  0  0  0  0
   29.6648   10.2859   49.2196 C   0  0  1  0  0  0  0  0  0  0  0  0
   28.5044   10.2457   48.4376 O   0  0  0  0  0  0  0  0  0  0  0  0
   30.4901   11.5563   48.9057 C   0  0  2  0  0  0  0  0  0  0  0  0
   30.8072   11.6265   47.5296 O   0  0  0  0  0  0  0  0  0  0  0  0
   31.7721   11.5483   49.7108 C   0  0  2  0  0  0  0  0  0  0  0  0
   31.4582   11.4351   51.0931 O   0  0  0  0  0  0  0  0  0  0  0  0
   32.5817   12.8153   49.5488 C   0  0  0  0  0  0  0  0  0  0  0  0
   33.7333   12.7468   50.3676 O   0  0  0  0  0  0  0  0  0  0  0  0
   33.6640    6.3666   53.5442 C   0  0  2  0  0  0  0  0  0  0  0  0
   34.6781    5.8352   54.4556 N   0  3  0  0  0  0  0  0  0  0  0  0
   34.3543    7.0681   52.3278 C   0  0  0  0  0  0  0  0  0  0  0  0
   33.2907    7.6716   51.3907 C   0  0  2  0  0  0  0  0  0  0  0  0
   33.9219    8.3800   50.2724 N   0  3  0  0  0  0  0  0  0  0  0  0
   32.3831    8.6457   52.1673 C   0  0  2  0  0  0  0  0  0  0  0  0
   31.7108    7.9881   53.3883 C   0  0  2  0  0  0  0  0  0  0  0  0
   31.0332    9.0488   54.0892 O   0  0  0  0  0  0  0  0  0  0  0  0
   32.7775    7.3389   54.3061 C   0  0  1  0  0  0  0  0  0  0  0  0
   32.1356    6.6633   55.3523 O   0  0  0  0  0  0  0  0  0  0  0  0
   30.6415    8.9628   55.4568 C   0  0  1  0  0  0  0  0  0  0  0  0
   29.4684    9.9767   55.7054 C   0  0  2  0  0  0  0  0  0  0  0  0
   29.8995   11.2814   56.0530 O   0  0  0  0  0  0  0  0  0  0  0  0
   28.7575    9.2224   56.8202 C   0  0  2  0  0  0  0  0  0  0  0  0
   29.5558    9.2138   58.0419 O   0  0  0  0  0  0  0  0  0  0  0  0
   28.7172    7.7974   56.2866 C   0  0  2  0  0  0  0  0  0  0  0  0
   30.0444    7.6697   55.7483 O   0  0  0  0  0  0  0  0  0  0  0  0
   27.6050    7.5243   55.2215 C   0  0  0  0  0  0  0  0  0  0  0  0
   27.8416    6.3025   54.5107 O   0  0  0  0  0  0  0  0  0  0  0  0
   29.9802   10.5066   58.4662 C   0  0  2  0  0  0  0  0  0  0  0  0
   30.7206   10.5322   59.8466 C   0  0  2  0  0  0  0  0  0  0  0  0
   29.8944    9.9726   60.9590 N   0  3  0  0  0  0  0  0  0  0  0  0
   31.1237   12.0191   60.1227 C   0  0  1  0  0  0  0  0  0  0  0  0
   32.0720   12.4195   59.0606 O   0  0  0  0  0  0  0  0  0  0  0  0
   29.8857   12.9977   60.0917 C   0  0  2  0  0  0  0  0  0  0  0  0
   28.9944   12.6411   61.1609 O   0  0  0  0  0  0  0  0  0  0  0  0
   29.1870   12.8649   58.6753 C   0  0  1  0  0  0  0  0  0  0  0  0
   28.8235   11.4551   58.4915 O   0  0  0  0  0  0  0  0  0  0  0  0
   27.9365   13.7544   58.4906 C   0  0  0  0  0  0  0  0  0  0  0  0
   28.1985   15.2001   58.7276 N   0  3  0  0  0  0  0  0  0  0  0  0
  1  2  1  6  0  0  0
  1  3  1  0  0  0  0
  1 10  1  0  0  0  0
  3  4  1  6  0  0  0
  3  5  1  0  0  0  0
  5  6  1  6  0  0  0
  5  7  1  0  0  0  0
  7  8  1  6  0  0  0
  7  9  1  0  0  0  0
  9 10  1  0  0  0  0
  9 11  1  1  0  0  0
 11 12  1  0  0  0  0
 13 14  1  1  0  0  0
 13 15  1  0  0  0  0
 13 21  1  0  0  0  0
 15 16  1  0  0  0  0
 16 17  1  6  0  0  0
 16 18  1  0  0  0  0
 18  2  1  6  0  0  0
 18 19  1  0  0  0  0
 19 20  1  1  0  0  0
 19 21  1  0  0  0  0
 21 22  1  1  0  0  0
 23 20  1  6  0  0  0
 23 24  1  0  0  0  0
 23 29  1  0  0  0  0
 24 25  1  1  0  0  0
 24 26  1  0  0  0  0
 26 27  1  1  0  0  0
 26 28  1  0  0  0  0
 28 29  1  0  0  0  0
 28 30  1  6  0  0  0
 30 31  1  0  0  0  0
 32 27  1  1  0  0  0
 32 33  1  0  0  0  0
 32 40  1  0  0  0  0
 33 34  1  1  0  0  0
 33 35  1  0  0  0  0
 35 36  1  6  0  0  0
 35 37  1  0  0  0  0
 37 38  1  1  0  0  0
 37 39  1  0  0  0  0
 39 40  1  0  0  0  0
 39 41  1  1  0  0  0
 41 42  1  0  0  0  0
M  CHG  5   4   1  14   1  17   1  34   1  42   1
M  END
>  <CHROM.1>
-160.57816602,-158.56731884,-52.96817639,166.90031191,175.91242312,177.89518750
-42.07892662,72.96288573,60.43542091,-160.03541286,-157.06196619,-60.46734498
-175.15074082,52.63610611,174.43819595,164.45833982,-50.35753668,-176.70980953
-178.03257833,177.73914096,56.02936367,-172.49563974,30.66313549,9.97281575
54.49126009,1.01571178,1.14549640,-1.25380377

>  <Name>
1j7t

>  <RI>
0

>  <Rbt.Current_Directory>
/home/itssahil/PROJECTS/Mol_Feturizer/New_Systems/rnas/1j7t

>  <Rbt.Executable>
rbdock ($Id: //depot/dev/client3/rdock/2013.1/src/exe/rbdock.cxx#4 $)

>  <Rbt.Library>
libRbt.so (2013.1, Build901 2013/11/27)

>  <Rbt.Parameter_File>
/export/apps/rDock/src/rDock_2013.1_src/data/scripts/dock_solv.prm

>  <Rbt.Receptor>
prm/blind_docking_100.prm

>  <SCORE>
-30.4636

>  <SCORE.INTER>
-34.9206

>  <SCORE.INTER.CONST>
1

>  <SCORE.INTER.POLAR>
-5.6443

>  <SCORE.INTER.ROT>
9

>  <SCORE.INTER.SOLV>
35.0015

>  <SCORE.INTER.VDW>
-25.7333

>  <SCORE.INTER.norm>
-0.831443

>  <SCORE.INTRA>
-11.4776

>  <SCORE.INTRA.DIHEDRAL>
-32.7329

>  <SCORE.INTRA.DIHEDRAL.0>
46.2143

>  <SCORE.INTRA.POLAR>
1.08484

>  <SCORE.INTRA.POLAR.0>
-1.76436

>  <SCORE.INTRA.REPUL>
0.00710231

>  <SCORE.INTRA.REPUL.0>
0

>  <SCORE.INTRA.SOLV>
-4.39713

>  <SCORE.INTRA.SOLV.lig_0>
-148.643

>  <SCORE.INTRA.VDW>
3.36342

>  <SCORE.INTRA.VDW.0>
-4.83512

>  <SCORE.INTRA.norm>
-0.273277

>  <SCORE.RESTR>
15.9346

>  <SCORE.RESTR.CAVITY>
15.9346

>  <SCORE.RESTR.norm>
0.379396

>  <SCORE.SYSTEM>
0

>  <SCORE.SYSTEM.CONST>
0

>  <SCORE.SYSTEM.DIHEDRAL>
0

>  <SCORE.SYSTEM.SOLV>
0

>  <SCORE.SYSTEM.norm>
0

>  <SCORE.heavy>
42

>  <SCORE.norm>
-0.725324

>  <RMSD>
4.589

$$$$
1j7t
 OpenBabel11021811393D
libRbt.so/2013.1/901 2013/11/27
 42 45  0  0  0  0  0  0  0  0999 V2000
   30.4890    8.8355   52.2975 C   0  0  2  0  0  0  0  0  0  0  0  0
   29.8429    7.9397   51.3580 O   0  0  0  0  0  0  0  0  0  0  0  0
   31.4593    9.7301   51.4740 C   0  0  2  0  0  0  0  0  0  0  0  0
   30.8256   10.4313   50.3206 N   0  3  0  0  0  0  0  0  0  0  0  0
   32.5880    8.8316   50.9231 C   0  0  1  0  0  0  0  0  0  0  0  0
   33.5045    9.5884   50.1836 O   0  0  0  0  0  0  0  0  0  0  0  0
   33.2984    8.0991   52.0860 C   0  0  2  0  0  0  0  0  0  0  0  0
   34.3506    7.2865   51.6046 O   0  0  0  0  0  0  0  0  0  0  0  0
   32.3047    7.2343   52.8320 C   0  0  2  0  0  0  0  0  0  0  0  0
   31.2236    8.0414   53.2813 O   0  0  0  0  0  0  0  0  0  0  0  0
   32.8961    6.5743   54.0574 C   0  0  0  0  0  0  0  0  0  0  0  0
   31.9560    5.6709   54.6063 O   0  0  0  0  0  0  0  0  0  0  0  0
   26.2890    5.6994   51.8045 C   0  0  2  0  0  0  0  0  0  0  0  0
   25.3413    4.6779   52.2515 N   0  3  0  0  0  0  0  0  0  0  0  0
   27.4814    5.0265   51.0470 C   0  0  0  0  0  0  0  0  0  0  0  0
   28.5059    6.0939   50.6172 C   0  0  2  0  0  0  0  0  0  0  0  0
   29.6572    5.4745   49.9524 N   0  3  0  0  0  0  0  0  0  0  0  0
   28.9910    6.8947   51.8416 C   0  0  2  0  0  0  0  0  0  0  0  0
   27.8338    7.5464   52.6235 C   0  0  2  0  0  0  0  0  0  0  0  0
   28.4243    8.1160   53.8077 O   0  0  0  0  0  0  0  0  0  0  0  0
   26.7792    6.4799   53.0137 C   0  0  1  0  0  0  0  0  0  0  0  0
   25.6926    7.1115   53.6330 O   0  0  0  0  0  0  0  0  0  0  0  0
   28.7049    7.3645   54.9857 C   0  0  1  0  0  0  0  0  0  0  0  0
   29.4560    8.2941   56.0043 C   0  0  2  0  0  0  0  0  0  0  0  0
   30.8640    8.3066   55.8418 O   0  0  0  0  0  0  0  0  0  0  0  0
   28.9692    7.6473   57.2935 C   0  0  2  0  0  0  0  0  0  0  0  0
   29.5384    6.3139   57.4608 O   0  0  0  0  0  0  0  0  0  0  0  0
   27.4769    7.4825   57.0419 C   0  0  2  0  0  0  0  0  0  0  0  0
   27.4795    7.0109   55.6835 O   0  0  0  0  0  0  0  0  0  0  0  0
   26.6303    8.7843   57.2273 C   0  0  0  0  0  0  0  0  0  0  0  0
   26.5610    9.1791   58.6032 O   0  0  0  0  0  0  0  0  0  0  0  0
   29.5918    5.8721   58.8148 C   0  0  2  0  0  0  0  0  0  0  0  0
   30.1043    4.4039   59.0046 C   0  0  2  0  0  0  0  0  0  0  0  0
   29.2793    3.4008   58.2652 N   0  3  0  0  0  0  0  0  0  0  0  0
   30.1137    4.1173   60.5433 C   0  0  1  0  0  0  0  0  0  0  0  0
   31.0856    5.0490   61.1556 O   0  0  0  0  0  0  0  0  0  0  0  0
   28.7019    4.3471   61.2105 C   0  0  2  0  0  0  0  0  0  0  0  0
   27.7740    3.4017   60.6538 O   0  0  0  0  0  0  0  0  0  0  0  0
   28.2592    5.8422   60.9261 C   0  0  1  0  0  0  0  0  0  0  0  0
   28.2573    6.0342   59.4713 O   0  0  0  0  0  0  0  0  0  0  0  0
   26.8775    6.2234   61.5045 C   0  0  0  0  0  0  0  0  0  0  0  0
   26.5294    7.6570   61.3094 N   0  3  0  0  0  0  0  0  0  0  0  0
  1  2  1  6  0  0  0
  1  3  1  0  0  0  0
  1 10  1  0  0  0  0
  3  4  1  6  0  0  0
  3  5  1  0  0  0  0
  5  6  1  1  0  0  0
  5  7  1  0  0  0  0
  7  8  1  6  0  0  0
  7  9  1  0  0  0  0
  9 10  1  0  0  0  0
  9 11  1  1  0  0  0
 11 12  1  0  0  0  0
 13 14  1  1  0  0  0
 13 15  1  0  0  0  0
 13 21  1  0  0  0  0
 15 16  1  0  0  0  0
 16 17  1  1  0  0  0
 16 18  1  0  0  0  0
 18  2  1  6  0  0  0
 18 19  1  0  0  0  0
 19 20  1  1  0  0  0
 19 21  1  0  0  0  0
 21 22  1  6  0  0  0
 23 20  1  6  0  0  0
 23 24  1  0  0  0  0
 23 29  1  0  0  0  0
 24 25  1  6  0  0  0
 24 26  1  0  0  0  0
 26 27  1  6  0  0  0
 26 28  1  0  0  0  0
 28 29  1  0  0  0  0
 28 30  1  6  0  0  0
 30 31  1  0  0  0  0
 32 27  1  6  0  0  0
 32 33  1  0  0  0  0
 32 40  1  0  0  0  0
 33 34  1  6  0  0  0
 33 35  1  0  0  0  0
 35 36  1  1  0  0  0
 35 37  1  0  0  0  0
 37 38  1  6  0  0  0
 37 39  1  0  0  0  0
 39 40  1  0  0  0  0
 39 41  1  6  0  0  0
 41 42  1  0  0  0  0
M  CHG  5   4   1  14   1  17   1  34   1  42   1
M  END
>  <CHROM.1>
173.47256620,-177.90359869,153.92104138,-177.48987106,75.93811083,-173.36540535
-175.41486359,72.64718786,-57.72029081,-82.54361225,175.05221934,-43.35573708
54.14226377,155.86377484,175.82562443,-69.39765117,-176.10850687,88.22950804
-60.51304025,173.03446730,175.82458260,62.60556348,29.33452479,6.85792862
55.20907590,-1.29045533,0.14369040,1.77621841

>  <Name>
1j7t

>  <RI>
0

>  <Rbt.Current_Directory>
/home/itssahil/PROJECTS/Mol_Feturizer/New_Systems/rnas/1j7t

>  <Rbt.Executable>
rbdock ($Id: //depot/dev/client3/rdock/2013.1/src/exe/rbdock.cxx#4 $)

>  <Rbt.Library>
libRbt.so (2013.1, Build901 2013/11/27)

>  <Rbt.Parameter_File>
/export/apps/rDock/src/rDock_2013.1_src/data/scripts/dock_solv.prm

>  <Rbt.Receptor>
prm/pocket_docking_4.prm

>  <SCORE>
-53.4053

>  <SCORE.INTER>
-33.8605

>  <SCORE.INTER.CONST>
1

>  <SCORE.INTER.POLAR>
-4.4375

>  <SCORE.INTER.ROT>
9

>  <SCORE.INTER.SOLV>
18.6429

>  <SCORE.INTER.VDW>
-23.5963

>  <SCORE.INTER.norm>
-0.806202

>  <SCORE.INTRA>
-19.8657

>  <SCORE.INTRA.DIHEDRAL>
-33.3298

>  <SCORE.INTRA.DIHEDRAL.0>
46.2143

>  <SCORE.INTRA.POLAR>
-0.361083

>  <SCORE.INTRA.POLAR.0>
-1.76436

>  <SCORE.INTRA.REPUL>
0.119082

>  <SCORE.INTRA.REPUL.0>
0

>  <SCORE.INTRA.SOLV>
-2.95156

>  <SCORE.INTRA.SOLV.lig_0>
-148.643

>  <SCORE.INTRA.VDW>
-1.09276

>  <SCORE.INTRA.VDW.0>
-4.83512

>  <SCORE.INTRA.norm>
-0.472993

>  <SCORE.RESTR>
0.320901

>  <SCORE.RESTR.CAVITY>
0.320901

>  <SCORE.RESTR.norm>
0.0076405

>  <SCORE.SYSTEM>
0

>  <SCORE.SYSTEM.CONST>
0

>  <SCORE.SYSTEM.DIHEDRAL>
0

>  <SCORE.SYSTEM.SOLV>
0

>  <SCORE.SYSTEM.norm>
0

>  <SCORE.heavy>
42

>  <SCORE.norm>
-1.27155

>  <RMSD>
4.604

$$$$
1j7t
 OpenBabel11021811393D
libRbt.so/2013.1/901 2013/11/27
 42 45  0  0  0  0  0  0  0  0999 V2000
   30.3679    9.9535   52.1347 C   0  0  2  0  0  0  0  0  0  0  0  0
   31.1786    8.8000   51.7962 O   0  0  0  0  0  0  0  0  0  0  0  0
   29.1393    9.9375   51.1806 C   0  0  2  0  0  0  0  0  0  0  0  0
   28.3784    8.6551   51.1733 N   0  3  0  0  0  0  0  0  0  0  0  0
   29.6444   10.1995   49.7449 C   0  0  1  0  0  0  0  0  0  0  0  0
   28.5758   10.2126   48.8407 O   0  0  0  0  0  0  0  0  0  0  0  0
   30.4204   11.5368   49.6913 C   0  0  2  0  0  0  0  0  0  0  0  0
   30.8737   11.8065   48.3794 O   0  0  0  0  0  0  0  0  0  0  0  0
   31.6103   11.4784   50.6255 C   0  0  2  0  0  0  0  0  0  0  0  0
   31.1621   11.1654   51.9382 O   0  0  0  0  0  0  0  0  0  0  0  0
   32.3551   12.7912   50.7193 C   0  0  0  0  0  0  0  0  0  0  0  0
   32.9836   13.0660   49.4821 O   0  0  0  0  0  0  0  0  0  0  0  0
   33.6372    6.3160   54.1697 C   0  0  2  0  0  0  0  0  0  0  0  0
   34.7313    5.8629   55.0294 N   0  3  0  0  0  0  0  0  0  0  0  0
   34.2042    6.7968   52.7928 C   0  0  0  0  0  0  0  0  0  0  0  0
   33.0608    7.3203   51.9028 C   0  0  2  0  0  0  0  0  0  0  0  0
   33.5811    7.8252   50.6279 N   0  3  0  0  0  0  0  0  0  0  0  0
   32.2924    8.4451   52.6240 C   0  0  2  0  0  0  0  0  0  0  0  0
   31.7456    8.0074   53.9968 C   0  0  2  0  0  0  0  0  0  0  0  0
   31.1999    9.1939   54.6049 O   0  0  0  0  0  0  0  0  0  0  0  0
   32.8880    7.4357   54.8744 C   0  0  1  0  0  0  0  0  0  0  0  0
   32.3497    6.9535   56.0747 O   0  0  0  0  0  0  0  0  0  0  0  0
   30.6852    9.2309   55.9334 C   0  0  1  0  0  0  0  0  0  0  0  0
   29.4538   10.2049   55.9653 C   0  0  2  0  0  0  0  0  0  0  0  0
   29.7971   11.5587   56.2068 O   0  0  0  0  0  0  0  0  0  0  0  0
   28.6725    9.5359   57.0874 C   0  0  2  0  0  0  0  0  0  0  0  0
   29.3522    9.6945   58.3691 O   0  0  0  0  0  0  0  0  0  0  0  0
   28.7403    8.0628   56.7096 C   0  0  2  0  0  0  0  0  0  0  0  0
   30.1164    7.9468   56.3087 O   0  0  0  0  0  0  0  0  0  0  0  0
   27.7451    7.6248   55.5855 C   0  0  0  0  0  0  0  0  0  0  0  0
   28.2100    8.0128   54.2865 O   0  0  0  0  0  0  0  0  0  0  0  0
   29.0932   10.9398   59.0124 C   0  0  2  0  0  0  0  0  0  0  0  0
   30.0047   12.1229   58.5394 C   0  0  2  0  0  0  0  0  0  0  0  0
   31.4610   11.8450   58.7276 N   0  3  0  0  0  0  0  0  0  0  0  0
   29.5552   13.3937   59.3349 C   0  0  1  0  0  0  0  0  0  0  0  0
   28.1566   13.6796   58.9482 O   0  0  0  0  0  0  0  0  0  0  0  0
   29.6156   13.1822   60.8979 C   0  0  2  0  0  0  0  0  0  0  0  0
   30.9840   12.9614   61.2766 O   0  0  0  0  0  0  0  0  0  0  0  0
   28.6974   11.9434   61.2641 C   0  0  1  0  0  0  0  0  0  0  0  0
   29.1837   10.7901   60.4982 O   0  0  0  0  0  0  0  0  0  0  0  0
   28.6626   11.5931   62.7691 C   0  0  0  0  0  0  0  0  0  0  0  0
   28.1662   12.7052   63.6243 N   0  3  0  0  0  0  0  0  0  0  0  0
  1  2  1  6  0  0  0
  1  3  1  0  0  0  0
  1 10  1  0  0  0  0
  3  4  1  6  0  0  0
  3  5  1  0  0  0  0
  5  6  1  6  0  0  0
  5  7  1  0  0  0  0
  7  8  1  6  0  0  0
  7  9  1  0  0  0  0
  9 10  1  0  0  0  0
  9 11  1  1  0  0  0
 11 12  1  0  0  0  0
 13 14  1  1  0  0  0
 13 15  1  0  0  0  0
 13 21  1  0  0  0  0
 15 16  1  0  0  0  0
 16 17  1  6  0  0  0
 16 18  1  0  0  0  0
 18  2  1  6  0  0  0
 18 19  1  0  0  0  0
 19 20  1  1  0  0  0
 19 21  1  0  0  0  0
 21 22  1  1  0  0  0
 23 20  1  6  0  0  0
 23 24  1  0  0  0  0
 23 29  1  0  0  0  0
 24 25  1  1  0  0  0
 24 26  1  0  0  0  0
 26 27  1  1  0  0  0
 26 28  1  0  0  0  0
 28 29  1  0  0  0  0
 28 30  1  6  0  0  0
 30 31  1  0  0  0  0
 32 27  1  6  0  0  0
 32 33  1  0  0  0  0
 32 40  1  0  0  0  0
 33 34  1  1  0  0  0
 33 35  1  0  0  0  0
 35 36  1  6  0  0  0
 35 37  1  0  0  0  0
 37 38  1  6  0  0  0
 37 39  1  0  0  0  0
 39 40  1  0  0  0  0
 39 41  1  1  0  0  0
 41 42  1  0  0  0  0
M  CHG  5   4   1  14   1  17   1  34   1  42   1
M  END
>  <CHROM.1>
-171.72383204,-172.06141649,-71.70675001,-62.49668629,-48.25810792,-67.73810453
55.52207257,-55.57084247,82.90555159,-175.03945721,-144.14955609,75.23243501
-176.52304872,82.94315174,-84.32736890,77.80283613,66.22669450,-73.30233710
-172.57347938,74.85593926,59.53535880,-59.52901590,30.54791955,10.03546321
55.08408137,1.11496341,1.05993051,-1.39048825

>  <Name>
1j7t

>  <RI>
0

>  <Rbt.Current_Directory>
/home/itssahil/PROJECTS/Mol_Feturizer/New_Systems/rnas/1j7t

>  <Rbt.Executable>
rbdock ($Id: //depot/dev/client3/rdock/2013.1/src/exe/rbdock.cxx#4 $)

>  <Rbt.Library>
libRbt.so (2013.1, Build901 2013/11/27)

>  <Rbt.Parameter_File>
/export/apps/rDock/src/rDock_2013.1_src/data/scripts/dock_solv.prm

>  <Rbt.Receptor>
prm/blind_docking_100.prm

>  <SCORE>
-36.0368

>  <SCORE.INTER>
-41.3921

>  <SCORE.INTER.CONST>
1

>  <SCORE.INTER.POLAR>
-6.29619

>  <SCORE.INTER.ROT>
9

>  <SCORE.INTER.SOLV>
34.9109

>  <SCORE.INTER.VDW>
-27.8444

>  <SCORE.INTER.norm>
-0.985526

>  <SCORE.INTRA>
-10.6453

>  <SCORE.INTRA.DIHEDRAL>
-28.9371

>  <SCORE.INTRA.DIHEDRAL.0>
46.2143

>  <SCORE.INTRA.POLAR>
-0.542628

>  <SCORE.INTRA.POLAR.0>
-1.76436

>  <SCORE.INTRA.REPUL>
0.471771

>  <SCORE.INTRA.REPUL.0>
0

>  <SCORE.INTRA.SOLV>
0.779842

>  <SCORE.INTRA.SOLV.lig_0>
-148.643

>  <SCORE.INTRA.VDW>
2.9194

>  <SCORE.INTRA.VDW.0>
-4.83512

>  <SCORE.INTRA.norm>
-0.25346

>  <SCORE.RESTR>
16.0006

>  <SCORE.RESTR.CAVITY>
16.0006

>  <SCORE.RESTR.norm>
0.380966

>  <SCORE.SYSTEM>
0

>  <SCORE.SYSTEM.CONST>
0

>  <SCORE.SYSTEM.DIHEDRAL>
0

>  <SCORE.SYSTEM.SOLV>
0

>  <SCORE.SYSTEM.norm>
0

>  <SCORE.heavy>
42

>  <SCORE.norm>
-0.85802

>  <RMSD>
4.665

$$$$
1j7t
 OpenBabel11021811393D
libRbt.so/2013.1/901 2013/11/27
 42 45  0  0  0  0  0  0  0  0999 V2000
   29.9432   10.2003   51.1294 C   0  0  2  0  0  0  0  0  0  0  0  0
   30.8255    9.0854   50.8447 O   0  0  0  0  0  0  0  0  0  0  0  0
   28.8157   10.1689   50.0580 C   0  0  2  0  0  0  0  0  0  0  0  0
   28.1073    8.8617   49.9436 N   0  3  0  0  0  0  0  0  0  0  0  0
   29.4493   10.4886   48.6864 C   0  0  1  0  0  0  0  0  0  0  0  0
   28.4751   10.4904   47.6813 O   0  0  0  0  0  0  0  0  0  0  0  0
   30.1767   11.8528   48.7431 C   0  0  2  0  0  0  0  0  0  0  0  0
   30.7464   12.1750   47.4898 O   0  0  0  0  0  0  0  0  0  0  0  0
   31.2704   11.8091   49.7891 C   0  0  2  0  0  0  0  0  0  0  0  0
   30.7073   11.4439   51.0427 O   0  0  0  0  0  0  0  0  0  0  0  0
   31.9532   13.1436   49.9888 C   0  0  0  0  0  0  0  0  0  0  0  0
   33.1559   12.9546   50.7092 O   0  0  0  0  0  0  0  0  0  0  0  0
   33.4744    6.5640   52.9598 C   0  0  2  0  0  0  0  0  0  0  0  0
   34.5043    6.1066   53.8934 N   0  3  0  0  0  0  0  0  0  0  0  0
   34.0932    7.5697   51.9331 C   0  0  0  0  0  0  0  0  0  0  0  0
   33.0019    8.0912   50.9788 C   0  0  2  0  0  0  0  0  0  0  0  0
   33.5540    9.0765   50.0432 N   0  3  0  0  0  0  0  0  0  0  0  0
   31.8519    8.7332   51.7795 C   0  0  2  0  0  0  0  0  0  0  0  0
   31.2411    7.7728   52.8186 C   0  0  2  0  0  0  0  0  0  0  0  0
   30.3030    8.5558   53.5816 O   0  0  0  0  0  0  0  0  0  0  0  0
   32.3466    7.2107   53.7481 C   0  0  1  0  0  0  0  0  0  0  0  0
   31.7828    6.2662   54.6159 O   0  0  0  0  0  0  0  0  0  0  0  0
   30.5308    8.9631   54.9282 C   0  0  1  0  0  0  0  0  0  0  0  0
   29.3120    9.8338   55.3999 C   0  0  2  0  0  0  0  0  0  0  0  0
   29.4423   11.2139   55.1046 O   0  0  0  0  0  0  0  0  0  0  0  0
   29.3578    9.4924   56.8827 C   0  0  2  0  0  0  0  0  0  0  0  0
   30.5397   10.0657   57.5184 O   0  0  0  0  0  0  0  0  0  0  0  0
   29.5287    7.9798   56.8721 C   0  0  2  0  0  0  0  0  0  0  0  0
   30.5066    7.8228   55.8296 O   0  0  0  0  0  0  0  0  0  0  0  0
   28.2187    7.1709   56.5977 C   0  0  0  0  0  0  0  0  0  0  0  0
   27.7866    7.3087   55.2381 O   0  0  0  0  0  0  0  0  0  0  0  0
   30.3360   11.3726   58.0494 C   0  0  2  0  0  0  0  0  0  0  0  0
   31.2926   11.7562   59.2293 C   0  0  2  0  0  0  0  0  0  0  0  0
   31.1984   10.8117   60.3836 N   0  3  0  0  0  0  0  0  0  0  0  0
   30.9327   13.2191   59.6536 C   0  0  1  0  0  0  0  0  0  0  0  0
   31.2216   14.0936   58.4964 O   0  0  0  0  0  0  0  0  0  0  0  0
   29.4115   13.3797   60.0428 C   0  0  2  0  0  0  0  0  0  0  0  0
   29.1487   12.5725   61.2021 O   0  0  0  0  0  0  0  0  0  0  0  0
   28.5344   12.9291   58.8019 C   0  0  1  0  0  0  0  0  0  0  0  0
   28.9115   11.5501   58.4708 O   0  0  0  0  0  0  0  0  0  0  0  0
   27.0081   13.0119   59.0309 C   0  0  0  0  0  0  0  0  0  0  0  0
   26.2957   11.7388   58.7372 N   0  3  0  0  0  0  0  0  0  0  0  0
  1  2  1  6  0  0  0
  1  3  1  0  0  0  0
  1 10  1  0  0  0  0
  3  4  1  6  0  0  0
  3  5  1  0  0  0  0
  5  6  1  6  0  0  0
  5  7  1  0  0  0  0
  7  8  1  6  0  0  0
  7  9  1  0  0  0  0
  9 10  1  0  0  0  0
  9 11  1  1  0  0  0
 11 12  1  0  0  0  0
 13 14  1  1  0  0  0
 13 15  1  0  0  0  0
 13 21  1  0  0  0  0
 15 16  1  0  0  0  0
 16 17  1  6  0  0  0
 16 18  1  0  0  0  0
 18  2  1  6  0  0  0
 18 19  1  0  0  0  0
 19 20  1  1  0  0  0
 19 21  1  0  0  0  0
 21 22  1  1  0  0  0
 23 20  1  6  0  0  0
 23 24  1  0  0  0  0
 23 29  1  0  0  0  0
 24 25  1  1  0  0  0
 24 26  1  0  0  0  0
 26 27  1  6  0  0  0
 26 28  1  0  0  0  0
 28 29  1  0  0  0  0
 28 30  1  6  0  0  0
 30 31  1  0  0  0  0
 32 27  1  1  0  0  0
 32 33  1  0  0  0  0
 32 40  1  0  0  0  0
 33 34  1  1  0  0  0
 33 35  1  0  0  0  0
 35 36  1  6  0  0  0
 35 37  1  0  0  0  0
 37 38  1  1  0  0  0
 37 39  1  0  0  0  0
 39 40  1  0  0  0  0
 39 41  1  1  0  0  0
 41 42  1  0  0  0  0
M  CHG  5   4   1  14   1  17   1  34   1  42   1
M  END
>  <CHROM.1>
-170.77327852,-151.52818154,-25.62740691,178.45264857,-175.48480035,-165.36051678
169.96712076,94.67001688,-160.16532947,-107.65677676,178.19047995,-171.68282675
-174.23971568,90.42612548,154.45111756,70.71923190,-67.03038496,-58.71456719
-20.03282090,-172.64761255,-126.59226041,146.98035165,30.44919195,10.12290465
54.25739356,1.13514435,1.11452713,-1.35933739

>  <Name>
1j7t

>  <RI>
0

>  <Rbt.Current_Directory>
/home/itssahil/PROJECTS/Mol_Feturizer/New_Systems/rnas/1j7t

>  <Rbt.Executable>
rbdock ($Id: //depot/dev/client3/rdock/2013.1/src/exe/rbdock.cxx#4 $)

>  <Rbt.Library>
libRbt.so (2013.1, Build901 2013/11/27)

>  <Rbt.Parameter_File>
/export/apps/rDock/src/rDock_2013.1_src/data/scripts/dock_solv.prm

>  <Rbt.Receptor>
prm/blind_docking_100.prm

>  <SCORE>
-4.05721

>  <SCORE.INTER>
-17.9617

>  <SCORE.INTER.CONST>
1

>  <SCORE.INTER.POLAR>
-5.30102

>  <SCORE.INTER.ROT>
9

>  <SCORE.INTER.SOLV>
40.2559

>  <SCORE.INTER.VDW>
-17.323

>  <SCORE.INTER.norm>
-0.42766

>  <SCORE.INTRA>
0.470383

>  <SCORE.INTRA.DIHEDRAL>
-8.45235

>  <SCORE.INTRA.DIHEDRAL.0>
46.2143

>  <SCORE.INTRA.POLAR>
0.426216

>  <SCORE.INTRA.POLAR.0>
-1.76436

>  <SCORE.INTRA.REPUL>
0.032608

>  <SCORE.INTRA.REPUL.0>
0

>  <SCORE.INTRA.SOLV>
-2.73374

>  <SCORE.INTRA.SOLV.lig_0>
-148.643

>  <SCORE.INTRA.VDW>
4.45125

>  <SCORE.INTRA.VDW.0>
-4.83512

>  <SCORE.INTRA.norm>
0.0111996

>  <SCORE.RESTR>
13.4341

>  <SCORE.RESTR.CAVITY>
13.4341

>  <SCORE.RESTR.norm>
0.31986

>  <SCORE.SYSTEM>
0

>  <SCORE.SYSTEM.CONST>
0

>  <SCORE.SYSTEM.DIHEDRAL>
0

>  <SCORE.SYSTEM.SOLV>
0

>  <SCORE.SYSTEM.norm>
0

>  <SCORE.heavy>
42

>  <SCORE.norm>
-0.0966002

>  <RMSD>
4.676

$$$$
1j7t
 OpenBabel11021811393D
libRbt.so/2013.1/901 2013/11/27
 42 45  0  0  0  0  0  0  0  0999 V2000
   30.0964   10.2069   51.7184 C   0  0  2  0  0  0  0  0  0  0  0  0
   30.9313    9.0356   51.5352 O   0  0  0  0  0  0  0  0  0  0  0  0
   29.0504   10.2003   50.5670 C   0  0  2  0  0  0  0  0  0  0  0  0
   28.2780    8.9311   50.4402 N   0  3  0  0  0  0  0  0  0  0  0  0
   29.8000   10.4361   49.2376 C   0  0  1  0  0  0  0  0  0  0  0  0
   28.9036   10.4565   48.1626 O   0  0  0  0  0  0  0  0  0  0  0  0
   30.5988   11.7592   49.3064 C   0  0  2  0  0  0  0  0  0  0  0  0
   31.2763   12.0052   48.0900 O   0  0  0  0  0  0  0  0  0  0  0  0
   31.6088   11.6918   50.4323 C   0  0  2  0  0  0  0  0  0  0  0  0
   30.9354   11.4025   51.6508 O   0  0  0  0  0  0  0  0  0  0  0  0
   32.3511   12.9927   50.6413 C   0  0  0  0  0  0  0  0  0  0  0  0
   33.2193   13.2209   49.5479 O   0  0  0  0  0  0  0  0  0  0  0  0
   33.4842    6.7446   54.0015 C   0  0  2  0  0  0  0  0  0  0  0  0
   34.5482    6.3834   54.9389 N   0  3  0  0  0  0  0  0  0  0  0  0
   34.1015    7.3870   52.7151 C   0  0  0  0  0  0  0  0  0  0  0  0
   32.9819    7.8134   51.7464 C   0  0  2  0  0  0  0  0  0  0  0  0
   33.5406    8.4666   50.5581 N   0  3  0  0  0  0  0  0  0  0  0  0
   32.0041    8.7762   52.4482 C   0  0  2  0  0  0  0  0  0  0  0  0
   31.4012    8.1794   53.7349 C   0  0  2  0  0  0  0  0  0  0  0  0
   30.6447    9.2402   54.3495 O   0  0  0  0  0  0  0  0  0  0  0  0
   32.5275    7.7061   54.6884 C   0  0  1  0  0  0  0  0  0  0  0  0
   31.9546    7.0779   55.8021 O   0  0  0  0  0  0  0  0  0  0  0  0
   30.3415    9.2853   55.7414 C   0  0  1  0  0  0  0  0  0  0  0  0
   29.0940   10.2158   55.9512 C   0  0  2  0  0  0  0  0  0  0  0  0
   29.4192   11.5854   56.1172 O   0  0  0  0  0  0  0  0  0  0  0  0
   28.5222    9.5419   57.1906 C   0  0  2  0  0  0  0  0  0  0  0  0
   29.3861    9.7496   58.3483 O   0  0  0  0  0  0  0  0  0  0  0  0
   28.5862    8.0650   56.8275 C   0  0  2  0  0  0  0  0  0  0  0  0
   29.8867    7.9896   56.2187 O   0  0  0  0  0  0  0  0  0  0  0  0
   27.4459    7.5702   55.8784 C   0  0  0  0  0  0  0  0  0  0  0  0
   27.8106    7.7029   54.4988 O   0  0  0  0  0  0  0  0  0  0  0  0
   29.2220   11.0198   58.9737 C   0  0  2  0  0  0  0  0  0  0  0  0
   30.2224   12.1230   58.4874 C   0  0  2  0  0  0  0  0  0  0  0  0
   31.6528   11.7370   58.6839 N   0  3  0  0  0  0  0  0  0  0  0  0
   29.8700   13.4354   59.2641 C   0  0  1  0  0  0  0  0  0  0  0  0
   28.4982   13.8222   58.8692 O   0  0  0  0  0  0  0  0  0  0  0  0
   29.9108   13.2417   60.8300 C   0  0  2  0  0  0  0  0  0  0  0  0
   31.2575   12.9219   61.2160 O   0  0  0  0  0  0  0  0  0  0  0  0
   28.8996   12.0820   61.2103 C   0  0  1  0  0  0  0  0  0  0  0  0
   29.2977   10.8843   60.4617 O   0  0  0  0  0  0  0  0  0  0  0  0
   28.8350   11.7563   62.7198 C   0  0  0  0  0  0  0  0  0  0  0  0
   27.9013   10.6443   63.0458 N   0  3  0  0  0  0  0  0  0  0  0  0
  1  2  1  6  0  0  0
  1  3  1  0  0  0  0
  1 10  1  0  0  0  0
  3  4  1  6  0  0  0
  3  5  1  0  0  0  0
  5  6  1  6  0  0  0
  5  7  1  0  0  0  0
  7  8  1  6  0  0  0
  7  9  1  0  0  0  0
  9 10  1  0  0  0  0
  9 11  1  1  0  0  0
 11 12  1  0  0  0  0
 13 14  1  1  0  0  0
 13 15  1  0  0  0  0
 13 21  1  0  0  0  0
 15 16  1  0  0  0  0
 16 17  1  6  0  0  0
 16 18  1  0  0  0  0
 18  2  1  6  0  0  0
 18 19  1  0  0  0  0
 19 20  1  1  0  0  0
 19 21  1  0  0  0  0
 21 22  1  1  0  0  0
 23 20  1  6  0  0  0
 23 24  1  0  0  0  0
 23 29  1  0  0  0  0
 24 25  1  1  0  0  0
 24 26  1  0  0  0  0
 26 27  1  1  0  0  0
 26 28  1  0  0  0  0
 28 29  1  0  0  0  0
 28 30  1  6  0  0  0
 30 31  1  0  0  0  0
 32 27  1  6  0  0  0
 32 33  1  0  0  0  0
 32 40  1  0  0  0  0
 33 34  1  1  0  0  0
 33 35  1  0  0  0  0
 35 36  1  6  0  0  0
 35 37  1  0  0  0  0
 37 38  1  6  0  0  0
 37 39  1  0  0  0  0
 39 40  1  0  0  0  0
 39 41  1  1  0  0  0
 41 42  1  0  0  0  0
M  CHG  5   4   1  14   1  17   1  34   1  42   1
M  END
>  <CHROM.1>
179.51342598,-160.18695821,-155.29986647,-174.97290862,-43.93609350,-69.54703622
58.27128915,-57.80902973,-44.60768434,-156.27092546,-158.35070757,81.79586707
-175.00726373,80.49829049,-94.28650670,89.65810035,-176.65667547,48.14442928
-170.94474904,77.72882523,-178.71296457,65.35553619,30.48986701,10.13755019
54.91519617,1.04023620,1.18025105,-1.21086159

>  <Name>
1j7t

>  <RI>
0

>  <Rbt.Current_Directory>
/home/itssahil/PROJECTS/Mol_Feturizer/New_Systems/rnas/1j7t

>  <Rbt.Executable>
rbdock ($Id: //depot/dev/client3/rdock/2013.1/src/exe/rbdock.cxx#4 $)

>  <Rbt.Library>
libRbt.so (2013.1, Build901 2013/11/27)

>  <Rbt.Parameter_File>
/export/apps/rDock/src/rDock_2013.1_src/data/scripts/dock_solv.prm

>  <Rbt.Receptor>
prm/blind_docking_100.prm

>  <SCORE>
-22.4796

>  <SCORE.INTER>
-29.9086

>  <SCORE.INTER.CONST>
1

>  <SCORE.INTER.POLAR>
-5.31224

>  <SCORE.INTER.ROT>
9

>  <SCORE.INTER.SOLV>
38.9388

>  <SCORE.INTER.VDW>
-24.8112

>  <SCORE.INTER.norm>
-0.712109

>  <SCORE.INTRA>
-7.38459

>  <SCORE.INTRA.DIHEDRAL>
-22.6211

>  <SCORE.INTRA.DIHEDRAL.0>
46.2143

>  <SCORE.INTRA.POLAR>
0.402469

>  <SCORE.INTRA.POLAR.0>
-1.76436

>  <SCORE.INTRA.REPUL>
0.232016

>  <SCORE.INTRA.REPUL.0>
0

>  <SCORE.INTRA.SOLV>
-2.09765

>  <SCORE.INTRA.SOLV.lig_0>
-148.643

>  <SCORE.INTRA.VDW>
2.44629

>  <SCORE.INTRA.VDW.0>
-4.83512

>  <SCORE.INTRA.norm>
-0.175824

>  <SCORE.RESTR>
14.8136

>  <SCORE.RESTR.CAVITY>
14.8136

>  <SCORE.RESTR.norm>
0.352704

>  <SCORE.SYSTEM>
0

>  <SCORE.SYSTEM.CONST>
0

>  <SCORE.SYSTEM.DIHEDRAL>
0

>  <SCORE.SYSTEM.SOLV>
0

>  <SCORE.SYSTEM.norm>
0

>  <SCORE.heavy>
42

>  <SCORE.norm>
-0.535228

>  <RMSD>
4.697

$$$$
1j7t
 OpenBabel11021811393D
libRbt.so/2013.1/901 2013/11/27
 42 45  0  0  0  0  0  0  0  0999 V2000
   31.8825    7.5759   53.1294 C   0  0  2  0  0  0  0  0  0  0  0  0
   31.3267    6.5543   52.2635 O   0  0  0  0  0  0  0  0  0  0  0  0
   33.2688    7.9629   52.5392 C   0  0  2  0  0  0  0  0  0  0  0  0
   33.2416    8.3513   51.0997 N   0  3  0  0  0  0  0  0  0  0  0  0
   34.2085    6.7463   52.6862 C   0  0  1  0  0  0  0  0  0  0  0  0
   35.4813    7.0425   52.1844 O   0  0  0  0  0  0  0  0  0  0  0  0
   34.2938    6.3181   54.1705 C   0  0  2  0  0  0  0  0  0  0  0  0
   35.1670    5.2177   54.3303 O   0  0  0  0  0  0  0  0  0  0  0  0
   32.9181    5.9377   54.6754 C   0  0  2  0  0  0  0  0  0  0  0  0
   32.0268    7.0278   54.4773 O   0  0  0  0  0  0  0  0  0  0  0  0
   32.8967    5.6187   56.1535 C   0  0  0  0  0  0  0  0  0  0  0  0
   31.6126    5.1484   56.5157 O   0  0  0  0  0  0  0  0  0  0  0  0
   27.2604    5.5635   51.6874 C   0  0  2  0  0  0  0  0  0  0  0  0
   25.9197    5.0231   51.9153 N   0  3  0  0  0  0  0  0  0  0  0  0
   28.3049    4.3993   51.6435 C   0  0  0  0  0  0  0  0  0  0  0  0
   29.7241    4.9677   51.4527 C   0  0  2  0  0  0  0  0  0  0  0  0
   30.7224    3.8933   51.4630 N   0  3  0  0  0  0  0  0  0  0  0  0
   30.0500    5.9807   52.5677 C   0  0  2  0  0  0  0  0  0  0  0  0
   29.0211    7.1249   52.6521 C   0  0  2  0  0  0  0  0  0  0  0  0
   29.3691    7.8879   53.8235 O   0  0  0  0  0  0  0  0  0  0  0  0
   27.5884    6.5518   52.7954 C   0  0  1  0  0  0  0  0  0  0  0  0
   26.6656    7.6057   52.7685 O   0  0  0  0  0  0  0  0  0  0  0  0
   29.2106    7.4021   55.1540 C   0  0  1  0  0  0  0  0  0  0  0  0
   29.4780    8.5840   56.1527 C   0  0  2  0  0  0  0  0  0  0  0  0
   30.8399    8.7338   56.5156 O   0  0  0  0  0  0  0  0  0  0  0  0
   28.5640    8.1295   57.2820 C   0  0  2  0  0  0  0  0  0  0  0  0
   29.0811    6.9260   57.9254 O   0  0  0  0  0  0  0  0  0  0  0  0
   27.2883    7.7457   56.5455 C   0  0  2  0  0  0  0  0  0  0  0  0
   27.8276    7.0385   55.4156 O   0  0  0  0  0  0  0  0  0  0  0  0
   26.3818    8.9496   56.1274 C   0  0  0  0  0  0  0  0  0  0  0  0
   27.1050    9.9114   55.3491 O   0  0  0  0  0  0  0  0  0  0  0  0
   28.2468    6.4200   58.9643 C   0  0  2  0  0  0  0  0  0  0  0  0
   28.6946    6.8126   60.4133 C   0  0  2  0  0  0  0  0  0  0  0  0
   30.0846    6.3660   60.7325 N   0  3  0  0  0  0  0  0  0  0  0  0
   27.6509    6.1903   61.3998 C   0  0  1  0  0  0  0  0  0  0  0  0
   26.3455    6.8231   61.1116 O   0  0  0  0  0  0  0  0  0  0  0  0
   27.5069    4.6285   61.2227 C   0  0  2  0  0  0  0  0  0  0  0  0
   28.7610    4.0129   61.5587 O   0  0  0  0  0  0  0  0  0  0  0  0
   27.0938    4.3382   59.7203 C   0  0  1  0  0  0  0  0  0  0  0  0
   28.1198    4.9332   58.8562 O   0  0  0  0  0  0  0  0  0  0  0  0
   26.9283    2.8400   59.3782 C   0  0  0  0  0  0  0  0  0  0  0  0
   26.3381    2.6019   58.0330 N   0  3  0  0  0  0  0  0  0  0  0  0
  1  2  1  6  0  0  0
  1  3  1  0  0  0  0
  1 10  1  0  0  0  0
  3  4  1  6  0  0  0
  3  5  1  0  0  0  0
  5  6  1  1  0  0  0
  5  7  1  0  0  0  0
  7  8  1  6  0  0  0
  7  9  1  0  0  0  0
  9 10  1  0  0  0  0
  9 11  1  1  0  0  0
 11 12  1  0  0  0  0
 13 14  1  1  0  0  0
 13 15  1  0  0  0  0
 13 21  1  0  0  0  0
 15 16  1  0  0  0  0
 16 17  1  1  0  0  0
 16 18  1  0  0  0  0
 18  2  1  6  0  0  0
 18 19  1  0  0  0  0
 19 20  1  1  0  0  0
 19 21  1  0  0  0  0
 21 22  1  6  0  0  0
 23 20  1  6  0  0  0
 23 24  1  0  0  0  0
 23 29  1  0  0  0  0
 24 25  1  1  0  0  0
 24 26  1  0  0  0  0
 26 27  1  6  0  0  0
 26 28  1  0  0  0  0
 28 29  1  0  0  0  0
 28 30  1  6  0  0  0
 30 31  1  0  0  0  0
 32 27  1  6  0  0  0
 32 33  1  0  0  0  0
 32 40  1  0  0  0  0
 33 34  1  1  0  0  0
 33 35  1  0  0  0  0
 35 36  1  6  0  0  0
 35 37  1  0  0  0  0
 37 38  1  6  0  0  0
 37 39  1  0  0  0  0
 39 40  1  0  0  0  0
 39 41  1  1  0  0  0
 41 42  1  0  0  0  0
M  CHG  5   4   1  14   1  17   1  34   1  42   1
M  END
>  <CHROM.1>
179.04517335,178.47318751,-60.80004809,-75.08124246,64.88818777,-174.27819167
-175.98761599,55.79404058,69.91502517,-69.53227707,-171.17344258,-56.64672855
147.90597480,-177.95865006,-99.18225666,54.88661519,143.86038341,76.85391218
-176.85299036,49.02962203,170.99604201,65.43774326,29.64459714,6.36909017
55.59218543,-1.03264152,0.03235110,1.69231124

>  <Name>
1j7t

>  <RI>
0

>  <Rbt.Current_Directory>
/home/itssahil/PROJECTS/Mol_Feturizer/New_Systems/rnas/1j7t

>  <Rbt.Executable>
rbdock ($Id: //depot/dev/client3/rdock/2013.1/src/exe/rbdock.cxx#4 $)

>  <Rbt.Library>
libRbt.so (2013.1, Build901 2013/11/27)

>  <Rbt.Parameter_File>
/export/apps/rDock/src/rDock_2013.1_src/data/scripts/dock_solv.prm

>  <Rbt.Receptor>
prm/pocket_docking_4.prm

>  <SCORE>
-44.1669

>  <SCORE.INTER>
-34.1112

>  <SCORE.INTER.CONST>
1

>  <SCORE.INTER.POLAR>
-5.85875

>  <SCORE.INTER.ROT>
9

>  <SCORE.INTER.SOLV>
17.7527

>  <SCORE.INTER.VDW>
-18.7292

>  <SCORE.INTER.norm>
-0.812172

>  <SCORE.INTRA>
-10.0947

>  <SCORE.INTRA.DIHEDRAL>
-27.4589

>  <SCORE.INTRA.DIHEDRAL.0>
46.2143

>  <SCORE.INTRA.POLAR>
1.68873

>  <SCORE.INTRA.POLAR.0>
-1.76436

>  <SCORE.INTRA.REPUL>
0.169747

>  <SCORE.INTRA.REPUL.0>
0

>  <SCORE.INTRA.SOLV>
-4.21306

>  <SCORE.INTRA.SOLV.lig_0>
-148.643

>  <SCORE.INTRA.VDW>
-0.849153

>  <SCORE.INTRA.VDW.0>
-4.83512

>  <SCORE.INTRA.norm>
-0.240351

>  <SCORE.RESTR>
0.039025

>  <SCORE.RESTR.CAVITY>
0.039025

>  <SCORE.RESTR.norm>
0.000929166

>  <SCORE.SYSTEM>
0

>  <SCORE.SYSTEM.CONST>
0

>  <SCORE.SYSTEM.DIHEDRAL>
0

>  <SCORE.SYSTEM.SOLV>
0

>  <SCORE.SYSTEM.norm>
0

>  <SCORE.heavy>
42

>  <SCORE.norm>
-1.05159

>  <RMSD>
4.709

$$$$
1j7t
 OpenBabel11021811393D
libRbt.so/2013.1/901 2013/11/27
 42 45  0  0  0  0  0  0  0  0999 V2000
   30.2973   10.1297   51.6661 C   0  0  2  0  0  0  0  0  0  0  0  0
   31.0317    8.9040   51.4194 O   0  0  0  0  0  0  0  0  0  0  0  0
   29.1423   10.1814   50.6254 C   0  0  2  0  0  0  0  0  0  0  0  0
   28.2803    8.9650   50.5970 N   0  3  0  0  0  0  0  0  0  0  0  0
   29.7677   10.3543   49.2240 C   0  0  1  0  0  0  0  0  0  0  0  0
   28.7707   10.4238   48.2439 O   0  0  0  0  0  0  0  0  0  0  0  0
   30.6537   11.6222   49.1913 C   0  0  2  0  0  0  0  0  0  0  0  0
   31.2196   11.8112   47.9094 O   0  0  0  0  0  0  0  0  0  0  0  0
   31.7655   11.4988   50.2114 C   0  0  2  0  0  0  0  0  0  0  0  0
   31.2011   11.2665   51.4957 O   0  0  0  0  0  0  0  0  0  0  0  0
   32.6079   12.7497   50.3241 C   0  0  0  0  0  0  0  0  0  0  0  0
   31.7969   13.8863   50.0967 O   0  0  0  0  0  0  0  0  0  0  0  0
   33.7921    6.3595   53.3569 C   0  0  2  0  0  0  0  0  0  0  0  0
   34.8856    5.8949   54.2111 N   0  3  0  0  0  0  0  0  0  0  0  0
   34.3451    7.3330   52.2638 C   0  0  0  0  0  0  0  0  0  0  0  0
   33.1900    7.8627   51.3928 C   0  0  2  0  0  0  0  0  0  0  0  0
   33.6837    8.8189   50.3963 N   0  3  0  0  0  0  0  0  0  0  0  0
   32.1242    8.5446   52.2730 C   0  0  2  0  0  0  0  0  0  0  0  0
   31.5811    7.6165   53.3771 C   0  0  2  0  0  0  0  0  0  0  0  0
   30.7263    8.4338   54.1996 O   0  0  0  0  0  0  0  0  0  0  0  0
   32.7474    7.0454   54.2229 C   0  0  1  0  0  0  0  0  0  0  0  0
   32.2373    6.1292   55.1520 O   0  0  0  0  0  0  0  0  0  0  0  0
   31.0463    8.8086   55.5369 C   0  0  1  0  0  0  0  0  0  0  0  0
   29.8245    9.5861   56.1440 C   0  0  2  0  0  0  0  0  0  0  0  0
   29.8477   10.9809   55.8928 O   0  0  0  0  0  0  0  0  0  0  0  0
   30.0192    9.1982   57.6031 C   0  0  2  0  0  0  0  0  0  0  0  0
   31.2165    9.8213   58.1579 O   0  0  0  0  0  0  0  0  0  0  0  0
   30.2766    7.7002   57.5190 C   0  0  2  0  0  0  0  0  0  0  0  0
   31.1674    7.6391   56.3919 O   0  0  0  0  0  0  0  0  0  0  0  0
   28.9971    6.8220   57.3255 C   0  0  0  0  0  0  0  0  0  0  0  0
   28.4172    7.0103   56.0285 O   0  0  0  0  0  0  0  0  0  0  0  0
   30.9980   11.1258   58.6892 C   0  0  2  0  0  0  0  0  0  0  0  0
   31.3231   11.2742   60.2145 C   0  0  2  0  0  0  0  0  0  0  0  0
   30.5383   10.3329   61.0698 N   0  3  0  0  0  0  0  0  0  0  0  0
   31.0458   12.7659   60.5989 C   0  0  1  0  0  0  0  0  0  0  0  0
   31.9888   13.6000   59.8226 O   0  0  0  0  0  0  0  0  0  0  0  0
   29.5720   13.2154   60.2567 C   0  0  2  0  0  0  0  0  0  0  0  0
   28.6614   12.4420   61.0550 O   0  0  0  0  0  0  0  0  0  0  0  0
   29.3339   12.9872   58.7064 C   0  0  1  0  0  0  0  0  0  0  0  0
   29.5950   11.5715   58.4221 O   0  0  0  0  0  0  0  0  0  0  0  0
   27.9195   13.3664   58.2117 C   0  0  0  0  0  0  0  0  0  0  0  0
   27.5099   14.7459   58.5913 N   0  3  0  0  0  0  0  0  0  0  0  0
  1  2  1  6  0  0  0
  1  3  1  0  0  0  0
  1 10  1  0  0  0  0
  3  4  1  6  0  0  0
  3  5  1  0  0  0  0
  5  6  1  6  0  0  0
  5  7  1  0  0  0  0
  7  8  1  6  0  0  0
  7  9  1  0  0  0  0
  9 10  1  0  0  0  0
  9 11  1  1  0  0  0
 11 12  1  0  0  0  0
 13 14  1  1  0  0  0
 13 15  1  0  0  0  0
 13 21  1  0  0  0  0
 15 16  1  0  0  0  0
 16 17  1  6  0  0  0
 16 18  1  0  0  0  0
 18  2  1  6  0  0  0
 18 19  1  0  0  0  0
 19 20  1  1  0  0  0
 19 21  1  0  0  0  0
 21 22  1  1  0  0  0
 23 20  1  6  0  0  0
 23 24  1  0  0  0  0
 23 29  1  0  0  0  0
 24 25  1  1  0  0  0
 24 26  1  0  0  0  0
 26 27  1  6  0  0  0
 26 28  1  0  0  0  0
 28 29  1  0  0  0  0
 28 30  1  6  0  0  0
 30 31  1  0  0  0  0
 32 27  1  1  0  0  0
 32 33  1  0  0  0  0
 32 40  1  0  0  0  0
 33 34  1  1  0  0  0
 33 35  1  0  0  0  0
 35 36  1  6  0  0  0
 35 37  1  0  0  0  0
 37 38  1  1  0  0  0
 37 39  1  0  0  0  0
 39 40  1  0  0  0  0
 39 41  1  1  0  0  0
 41 42  1  0  0  0  0
M  CHG  5   4   1  14   1  17   1  34   1  42   1
M  END
>  <CHROM.1>
-176.88601819,-144.36783577,-72.23790064,-56.18308337,-46.87460826,33.25685011
176.23003535,62.48372909,-51.31799523,-110.61082783,-175.08150643,-65.58102515
-162.27258912,87.16280295,119.67866473,68.91482852,55.55577765,58.87781979
50.13161787,56.60979114,52.62535379,-64.09390288,30.81740976,10.03604141
54.70941731,1.15657828,1.14766453,-1.38712481

>  <Name>
1j7t

>  <RI>
0

>  <Rbt.Current_Directory>
/home/itssahil/PROJECTS/Mol_Feturizer/New_Systems/rnas/1j7t

>  <Rbt.Executable>
rbdock ($Id: //depot/dev/client3/rdock/2013.1/src/exe/rbdock.cxx#4 $)

>  <Rbt.Library>
libRbt.so (2013.1, Build901 2013/11/27)

>  <Rbt.Parameter_File>
/export/apps/rDock/src/rDock_2013.1_src/data/scripts/dock_solv.prm

>  <Rbt.Receptor>
prm/blind_docking_80.prm

>  <SCORE>
-9.76028

>  <SCORE.INTER>
-34.8057

>  <SCORE.INTER.CONST>
1

>  <SCORE.INTER.POLAR>
-4.79604

>  <SCORE.INTER.ROT>
9

>  <SCORE.INTER.SOLV>
38.59

>  <SCORE.INTER.VDW>
-29.6804

>  <SCORE.INTER.norm>
-0.828708

>  <SCORE.INTRA>
-0.392914

>  <SCORE.INTRA.DIHEDRAL>
-17.5912

>  <SCORE.INTRA.DIHEDRAL.0>
46.2143

>  <SCORE.INTRA.POLAR>
0.976723

>  <SCORE.INTRA.POLAR.0>
-1.76436

>  <SCORE.INTRA.REPUL>
0

>  <SCORE.INTRA.REPUL.0>
0

>  <SCORE.INTRA.SOLV>
-0.504999

>  <SCORE.INTRA.SOLV.lig_0>
-148.643

>  <SCORE.INTRA.VDW>
5.33434

>  <SCORE.INTRA.VDW.0>
-4.83512

>  <SCORE.INTRA.norm>
-0.00935509

>  <SCORE.RESTR>
25.4383

>  <SCORE.RESTR.CAVITY>
25.4383

>  <SCORE.RESTR.norm>
0.605675

>  <SCORE.SYSTEM>
0

>  <SCORE.SYSTEM.CONST>
0

>  <SCORE.SYSTEM.DIHEDRAL>
0

>  <SCORE.SYSTEM.SOLV>
0

>  <SCORE.SYSTEM.norm>
0

>  <SCORE.heavy>
42

>  <SCORE.norm>
-0.232388

>  <RMSD>
4.722

$$$$
1j7t
 OpenBabel11021811393D
libRbt.so/2013.1/901 2013/11/27
 42 45  0  0  0  0  0  0  0  0999 V2000
   28.0694    6.3906   54.5818 C   0  0  2  0  0  0  0  0  0  0  0  0
   28.2920    5.0068   54.2101 O   0  0  0  0  0  0  0  0  0  0  0  0
   26.8717    6.9000   53.7297 C   0  0  2  0  0  0  0  0  0  0  0  0
   25.6466    6.0544   53.8170 N   0  3  0  0  0  0  0  0  0  0  0  0
   27.3181    6.9400   52.2518 C   0  0  1  0  0  0  0  0  0  0  0  0
   26.2815    7.4083   51.4359 O   0  0  0  0  0  0  0  0  0  0  0  0
   28.5748    7.8296   52.1011 C   0  0  2  0  0  0  0  0  0  0  0  0
   28.9880    7.8972   50.7506 O   0  0  0  0  0  0  0  0  0  0  0  0
   29.7047    7.2691   52.9385 C   0  0  2  0  0  0  0  0  0  0  0  0
   29.2782    7.1601   54.2906 O   0  0  0  0  0  0  0  0  0  0  0  0
   30.9353    8.1481   52.9379 C   0  0  0  0  0  0  0  0  0  0  0  0
   30.6188    9.4025   53.5102 O   0  0  0  0  0  0  0  0  0  0  0  0
   29.4530    2.0486   56.9938 C   0  0  2  0  0  0  0  0  0  0  0  0
   30.2847    1.1836   57.8314 N   0  3  0  0  0  0  0  0  0  0  0  0
   29.7611    1.7847   55.4826 C   0  0  0  0  0  0  0  0  0  0  0  0
   28.9229    2.7277   54.5985 C   0  0  2  0  0  0  0  0  0  0  0  0
   29.2388    2.5311   53.1798 N   0  3  0  0  0  0  0  0  0  0  0  0
   29.1856    4.1970   54.9830 C   0  0  2  0  0  0  0  0  0  0  0  0
   28.9163    4.4797   56.4739 C   0  0  2  0  0  0  0  0  0  0  0  0
   29.3521    5.8328   56.7077 O   0  0  0  0  0  0  0  0  0  0  0  0
   29.7226    3.4988   57.3624 C   0  0  1  0  0  0  0  0  0  0  0  0
   29.3842    3.7093   58.7056 O   0  0  0  0  0  0  0  0  0  0  0  0
   29.0951    6.5438   57.9158 C   0  0  1  0  0  0  0  0  0  0  0  0
   29.9869    7.8363   57.9344 C   0  0  2  0  0  0  0  0  0  0  0  0
   31.2770    7.6373   58.4867 O   0  0  0  0  0  0  0  0  0  0  0  0
   29.0695    8.7253   58.7622 C   0  0  2  0  0  0  0  0  0  0  0  0
   28.9937    8.2614   60.1438 O   0  0  0  0  0  0  0  0  0  0  0  0
   27.7087    8.4894   58.1221 C   0  0  2  0  0  0  0  0  0  0  0  0
   27.7376    7.0637   57.9367 O   0  0  0  0  0  0  0  0  0  0  0  0
   27.4654    9.2668   56.7870 C   0  0  0  0  0  0  0  0  0  0  0  0
   28.5731    9.1334   55.8875 O   0  0  0  0  0  0  0  0  0  0  0  0
   28.4338    9.2133   61.0450 C   0  0  2  0  0  0  0  0  0  0  0  0
   28.5661    8.8370   62.5600 C   0  0  2  0  0  0  0  0  0  0  0  0
   27.9361    7.5224   62.8889 N   0  3  0  0  0  0  0  0  0  0  0  0
   27.9211   10.0039   63.3798 C   0  0  1  0  0  0  0  0  0  0  0  0
   28.7212   11.2192   63.1143 O   0  0  0  0  0  0  0  0  0  0  0  0
   26.4244   10.2816   62.9628 C   0  0  2  0  0  0  0  0  0  0  0  0
   25.6398    9.1191   63.2752 O   0  0  0  0  0  0  0  0  0  0  0  0
   26.3968   10.6098   61.4124 C   0  0  1  0  0  0  0  0  0  0  0  0
   26.9992    9.4720   60.7083 O   0  0  0  0  0  0  0  0  0  0  0  0
   24.9885   10.8908   60.8409 C   0  0  0  0  0  0  0  0  0  0  0  0
   25.0021   11.3087   59.4127 N   0  3  0  0  0  0  0  0  0  0  0  0
  1  2  1  6  0  0  0
  1  3  1  0  0  0  0
  1 10  1  0  0  0  0
  3  4  1  6  0  0  0
  3  5  1  0  0  0  0
  5  6  1  6  0  0  0
  5  7  1  0  0  0  0
  7  8  1  6  0  0  0
  7  9  1  0  0  0  0
  9 10  1  0  0  0  0
  9 11  1  1  0  0  0
 11 12  1  0  0  0  0
 13 14  1  1  0  0  0
 13 15  1  0  0  0  0
 13 21  1  0  0  0  0
 15 16  1  0  0  0  0
 16 17  1  6  0  0  0
 16 18  1  0  0  0  0
 18  2  1  6  0  0  0
 18 19  1  0  0  0  0
 19 20  1  1  0  0  0
 19 21  1  0  0  0  0
 21 22  1  1  0  0  0
 23 20  1  6  0  0  0
 23 24  1  0  0  0  0
 23 29  1  0  0  0  0
 24 25  1  1  0  0  0
 24 26  1  0  0  0  0
 26 27  1  1  0  0  0
 26 28  1  0  0  0  0
 28 29  1  0  0  0  0
 28 30  1  6  0  0  0
 30 31  1  0  0  0  0
 32 27  1  6  0  0  0
 32 33  1  0  0  0  0
 32 40  1  0  0  0  0
 33 34  1  6  0  0  0
 33 35  1  0  0  0  0
 35 36  1  6  0  0  0
 35 37  1  0  0  0  0
 37 38  1  6  0  0  0
 37 39  1  0  0  0  0
 39 40  1  0  0  0  0
 39 41  1  6  0  0  0
 41 42  1  0  0  0  0
M  CHG  5   4   1  14   1  17   1  34   1  42   1
M  END
>  <CHROM.1>
-169.59426212,164.81475286,-67.07250789,-170.54426111,66.06234254,62.38312203
46.73600768,84.12276944,63.09786799,170.48227981,167.23029630,45.13069423
-63.64776456,165.22492460,-170.05864772,47.63493156,-69.15893969,-56.62161832
-56.48384933,67.64202679,175.09739879,-158.32070127,28.36863017,7.14533216
57.19439261,1.05422634,1.23780900,-1.55737366

>  <Name>
1j7t

>  <RI>
224

>  <Rbt.Current_Directory>
/home/itssahil/PROJECTS/Mol_Feturizer/New_Systems/rnas/1j7t

>  <Rbt.Executable>
rbdock ($Id: //depot/dev/client3/rdock/2013.1/src/exe/rbdock.cxx#4 $)

>  <Rbt.Library>
libRbt.so (2013.1, Build901 2013/11/27)

>  <Rbt.Parameter_File>
/export/apps/rDock/src/rDock_2013.1_src/data/scripts/dock_solv.prm

>  <Rbt.Receptor>
prm/pocket_docking_7.prm

>  <SCORE>
-63.1507

>  <SCORE.INTER>
-46.9267

>  <SCORE.INTER.CONST>
1

>  <SCORE.INTER.POLAR>
-8.82476

>  <SCORE.INTER.ROT>
9

>  <SCORE.INTER.SOLV>
22.0149

>  <SCORE.INTER.VDW>
-18.8069

>  <SCORE.INTER.norm>
-1.1173

>  <SCORE.INTRA>
-16.224

>  <SCORE.INTRA.DIHEDRAL>
-34.8154

>  <SCORE.INTRA.DIHEDRAL.0>
46.2143

>  <SCORE.INTRA.POLAR>
0.285307

>  <SCORE.INTRA.POLAR.0>
-1.76436

>  <SCORE.INTRA.REPUL>
0.300896

>  <SCORE.INTRA.REPUL.0>
0

>  <SCORE.INTRA.SOLV>
-3.91296

>  <SCORE.INTRA.SOLV.lig_0>
-148.643

>  <SCORE.INTRA.VDW>
0.665703

>  <SCORE.INTRA.VDW.0>
-4.83512

>  <SCORE.INTRA.norm>
-0.386285

>  <SCORE.RESTR>
0

>  <SCORE.RESTR.CAVITY>
0

>  <SCORE.RESTR.norm>
0

>  <SCORE.SYSTEM>
0

>  <SCORE.SYSTEM.CONST>
0

>  <SCORE.SYSTEM.DIHEDRAL>
0

>  <SCORE.SYSTEM.SOLV>
0

>  <SCORE.SYSTEM.norm>
0

>  <SCORE.heavy>
42

>  <SCORE.norm>
-1.50359

>  <RMSD>
4.724

$$$$
1j7t
 OpenBabel11021811393D
libRbt.so/2013.1/901 2013/11/27
 42 45  0  0  0  0  0  0  0  0999 V2000
   30.6460    8.9198   52.1378 C   0  0  2  0  0  0  0  0  0  0  0  0
   29.9883    8.0478   51.1841 O   0  0  0  0  0  0  0  0  0  0  0  0
   31.6155    9.8266   51.3268 C   0  0  2  0  0  0  0  0  0  0  0  0
   30.9778   10.5557   50.1932 N   0  3  0  0  0  0  0  0  0  0  0  0
   32.7353    8.9339   50.7488 C   0  0  1  0  0  0  0  0  0  0  0  0
   33.6509    9.7014   50.0192 O   0  0  0  0  0  0  0  0  0  0  0  0
   33.4497    8.1729   51.8907 C   0  0  2  0  0  0  0  0  0  0  0  0
   34.4940    7.3651   51.3846 O   0  0  0  0  0  0  0  0  0  0  0  0
   32.4564    7.2977   52.6251 C   0  0  2  0  0  0  0  0  0  0  0  0
   31.3831    8.1009   53.0992 O   0  0  0  0  0  0  0  0  0  0  0  0
   33.0527    6.6085   53.8320 C   0  0  0  0  0  0  0  0  0  0  0  0
   32.0761    5.7787   54.4312 O   0  0  0  0  0  0  0  0  0  0  0  0
   26.3489    5.9027   51.2176 C   0  0  2  0  0  0  0  0  0  0  0  0
   25.2940    4.9689   51.6132 N   0  3  0  0  0  0  0  0  0  0  0  0
   27.6531    5.1149   50.8612 C   0  0  0  0  0  0  0  0  0  0  0  0
   28.7809    6.0971   50.4913 C   0  0  2  0  0  0  0  0  0  0  0  0
   30.0269    5.3778   50.2062 N   0  3  0  0  0  0  0  0  0  0  0  0
   29.0182    7.0976   51.6395 C   0  0  2  0  0  0  0  0  0  0  0  0
   27.7425    7.8689   52.0305 C   0  0  2  0  0  0  0  0  0  0  0  0
   28.0836    8.6351   53.2018 O   0  0  0  0  0  0  0  0  0  0  0  0
   26.5938    6.8807   52.3557 C   0  0  1  0  0  0  0  0  0  0  0  0
   25.4212    7.6044   52.6091 O   0  0  0  0  0  0  0  0  0  0  0  0
   28.5463    8.0506   54.4165 C   0  0  1  0  0  0  0  0  0  0  0  0
   28.1128    8.9725   55.6115 C   0  0  2  0  0  0  0  0  0  0  0  0
   29.0418   10.0000   55.9120 O   0  0  0  0  0  0  0  0  0  0  0  0
   27.9822    7.8985   56.6824 C   0  0  2  0  0  0  0  0  0  0  0  0
   29.2868    7.3514   57.0408 O   0  0  0  0  0  0  0  0  0  0  0  0
   27.2053    6.8037   55.9647 C   0  0  2  0  0  0  0  0  0  0  0  0
   27.8625    6.7963   54.6857 O   0  0  0  0  0  0  0  0  0  0  0  0
   25.6659    7.0551   55.8509 C   0  0  0  0  0  0  0  0  0  0  0  0
   25.0325    7.0509   57.1364 O   0  0  0  0  0  0  0  0  0  0  0  0
   29.3597    6.8521   58.3738 C   0  0  2  0  0  0  0  0  0  0  0  0
   30.8099    6.5397   58.8775 C   0  0  2  0  0  0  0  0  0  0  0  0
   31.5229    5.5487   58.0156 N   0  3  0  0  0  0  0  0  0  0  0  0
   30.6830    6.0315   60.3524 C   0  0  1  0  0  0  0  0  0  0  0  0
   30.1254    7.1439   61.1518 O   0  0  0  0  0  0  0  0  0  0  0  0
   29.7247    4.7840   60.4826 C   0  0  2  0  0  0  0  0  0  0  0  0
   30.2990    3.6884   59.7514 O   0  0  0  0  0  0  0  0  0  0  0  0
   28.3038    5.1915   59.9107 C   0  0  1  0  0  0  0  0  0  0  0  0
   28.4957    5.6403   58.5269 O   0  0  0  0  0  0  0  0  0  0  0  0
   27.2480    4.0634   59.9517 C   0  0  0  0  0  0  0  0  0  0  0  0
   26.7836    3.7372   61.3273 N   0  3  0  0  0  0  0  0  0  0  0  0
  1  2  1  6  0  0  0
  1  3  1  0  0  0  0
  1 10  1  0  0  0  0
  3  4  1  6  0  0  0
  3  5  1  0  0  0  0
  5  6  1  1  0  0  0
  5  7  1  0  0  0  0
  7  8  1  6  0  0  0
  7  9  1  0  0  0  0
  9 10  1  0  0  0  0
  9 11  1  1  0  0  0
 11 12  1  0  0  0  0
 13 14  1  1  0  0  0
 13 15  1  0  0  0  0
 13 21  1  0  0  0  0
 15 16  1  0  0  0  0
 16 17  1  1  0  0  0
 16 18  1  0  0  0  0
 18  2  1  6  0  0  0
 18 19  1  0  0  0  0
 19 20  1  1  0  0  0
 19 21  1  0  0  0  0
 21 22  1  6  0  0  0
 23 20  1  6  0  0  0
 23 24  1  0  0  0  0
 23 29  1  0  0  0  0
 24 25  1  1  0  0  0
 24 26  1  0  0  0  0
 26 27  1  6  0  0  0
 26 28  1  0  0  0  0
 28 29  1  0  0  0  0
 28 30  1  6  0  0  0
 30 31  1  0  0  0  0
 32 27  1  6  0  0  0
 32 33  1  0  0  0  0
 32 40  1  0  0  0  0
 33 34  1  6  0  0  0
 33 35  1  0  0  0  0
 35 36  1  1  0  0  0
 35 37  1  0  0  0  0
 37 38  1  6  0  0  0
 37 39  1  0  0  0  0
 39 40  1  0  0  0  0
 39 41  1  6  0  0  0
 41 42  1  0  0  0  0
M  CHG  5   4   1  14   1  17   1  34   1  42   1
M  END
>  <CHROM.1>
-179.44223424,-165.53374576,-82.20051663,173.03652849,174.16134618,-178.00104432
174.80642769,38.68118561,55.24597563,-59.21114160,-150.78179364,-44.67129961
64.49074904,152.24100988,-167.81346003,-65.41376397,-175.68776696,159.07166626
179.37193092,176.11890401,70.75127742,-75.91130819,29.37726225,6.98385863
54.75397679,-1.31706252,0.18168289,1.81600131

>  <Name>
1j7t

>  <RI>
0

>  <Rbt.Current_Directory>
/home/itssahil/PROJECTS/Mol_Feturizer/New_Systems/rnas/1j7t

>  <Rbt.Executable>
rbdock ($Id: //depot/dev/client3/rdock/2013.1/src/exe/rbdock.cxx#4 $)

>  <Rbt.Library>
libRbt.so (2013.1, Build901 2013/11/27)

>  <Rbt.Parameter_File>
/export/apps/rDock/src/rDock_2013.1_src/data/scripts/dock_solv.prm

>  <Rbt.Receptor>
prm/pocket_docking_6.prm

>  <SCORE>
-61.486

>  <SCORE.INTER>
-45.2069

>  <SCORE.INTER.CONST>
1

>  <SCORE.INTER.POLAR>
-7.06584

>  <SCORE.INTER.ROT>
9

>  <SCORE.INTER.SOLV>
22.3193

>  <SCORE.INTER.VDW>
-23.6249

>  <SCORE.INTER.norm>
-1.07635

>  <SCORE.INTRA>
-16.2791

>  <SCORE.INTRA.DIHEDRAL>
-31.3204

>  <SCORE.INTRA.DIHEDRAL.0>
46.2143

>  <SCORE.INTRA.POLAR>
0.850385

>  <SCORE.INTRA.POLAR.0>
-1.76436

>  <SCORE.INTRA.REPUL>
0.00343969

>  <SCORE.INTRA.REPUL.0>
0

>  <SCORE.INTRA.SOLV>
-5.37587

>  <SCORE.INTRA.SOLV.lig_0>
-148.643

>  <SCORE.INTRA.VDW>
-0.839451

>  <SCORE.INTRA.VDW.0>
-4.83512

>  <SCORE.INTRA.norm>
-0.387597

>  <SCORE.RESTR>
0

>  <SCORE.RESTR.CAVITY>
0

>  <SCORE.RESTR.norm>
0

>  <SCORE.SYSTEM>
0

>  <SCORE.SYSTEM.CONST>
0

>  <SCORE.SYSTEM.DIHEDRAL>
0

>  <SCORE.SYSTEM.SOLV>
0

>  <SCORE.SYSTEM.norm>
0

>  <SCORE.heavy>
42

>  <SCORE.norm>
-1.46395

>  <RMSD>
4.729

$$$$
1j7t
 OpenBabel11021811393D
libRbt.so/2013.1/901 2013/11/27
 42 45  0  0  0  0  0  0  0  0999 V2000
   30.4715   10.0155   51.9417 C   0  0  2  0  0  0  0  0  0  0  0  0
   31.3418    8.9029   51.6139 O   0  0  0  0  0  0  0  0  0  0  0  0
   29.2948    9.9831   50.9247 C   0  0  2  0  0  0  0  0  0  0  0  0
   28.5846    8.6746   50.8419 N   0  3  0  0  0  0  0  0  0  0  0  0
   29.8623   10.3061   49.5252 C   0  0  1  0  0  0  0  0  0  0  0  0
   28.8417   10.3072   48.5672 O   0  0  0  0  0  0  0  0  0  0  0  0
   30.5887   11.6719   49.5495 C   0  0  2  0  0  0  0  0  0  0  0  0
   31.0979   11.9970   48.2712 O   0  0  0  0  0  0  0  0  0  0  0  0
   31.7306   11.6290   50.5426 C   0  0  2  0  0  0  0  0  0  0  0  0
   31.2281   11.2609   51.8208 O   0  0  0  0  0  0  0  0  0  0  0  0
   32.4193   12.9647   50.7118 C   0  0  0  0  0  0  0  0  0  0  0  0
   33.0160   13.3459   49.4871 O   0  0  0  0  0  0  0  0  0  0  0  0
   33.7311    6.3855   54.0227 C   0  0  2  0  0  0  0  0  0  0  0  0
   34.7783    5.9277   54.9366 N   0  3  0  0  0  0  0  0  0  0  0  0
   34.3756    6.9731   52.7236 C   0  0  0  0  0  0  0  0  0  0  0  0
   33.2782    7.5009   51.7797 C   0  0  2  0  0  0  0  0  0  0  0  0
   33.8676    8.1042   50.5799 N   0  3  0  0  0  0  0  0  0  0  0  0
   32.4063    8.5459   52.5032 C   0  0  2  0  0  0  0  0  0  0  0  0
   31.7802    8.0024   53.8023 C   0  0  2  0  0  0  0  0  0  0  0  0
   31.1355    9.1253   54.4339 O   0  0  0  0  0  0  0  0  0  0  0  0
   32.8797    7.4273   54.7309 C   0  0  1  0  0  0  0  0  0  0  0  0
   32.2769    6.8503   55.8564 O   0  0  0  0  0  0  0  0  0  0  0  0
   30.7570    9.1439   55.8078 C   0  0  1  0  0  0  0  0  0  0  0  0
   29.5554   10.1398   55.9816 C   0  0  2  0  0  0  0  0  0  0  0  0
   29.9489   11.4816   56.2132 O   0  0  0  0  0  0  0  0  0  0  0  0
   28.8764    9.4620   57.1634 C   0  0  2  0  0  0  0  0  0  0  0  0
   29.6838    9.5809   58.3733 O   0  0  0  0  0  0  0  0  0  0  0  0
   28.8756    7.9962   56.7527 C   0  0  2  0  0  0  0  0  0  0  0  0
   30.2021    7.8631   56.2137 O   0  0  0  0  0  0  0  0  0  0  0  0
   27.7644    7.6006   55.7259 C   0  0  0  0  0  0  0  0  0  0  0  0
   28.1387    7.9386   54.3844 O   0  0  0  0  0  0  0  0  0  0  0  0
   30.0204   10.9228   58.7160 C   0  0  2  0  0  0  0  0  0  0  0  0
   30.6792   11.0925   60.1272 C   0  0  2  0  0  0  0  0  0  0  0  0
   29.8193   10.5765   61.2352 N   0  3  0  0  0  0  0  0  0  0  0  0
   30.9935   12.6153   60.3059 C   0  0  1  0  0  0  0  0  0  0  0  0
   31.9800   12.9830   59.2671 O   0  0  0  0  0  0  0  0  0  0  0  0
   29.7133   13.5221   60.1325 C   0  0  2  0  0  0  0  0  0  0  0  0
   28.7812   13.2015   61.1780 O   0  0  0  0  0  0  0  0  0  0  0  0
   29.1033   13.2452   58.6961 C   0  0  1  0  0  0  0  0  0  0  0  0
   28.8195   11.8083   58.6052 O   0  0  0  0  0  0  0  0  0  0  0  0
   27.8237   14.0509   58.3761 C   0  0  0  0  0  0  0  0  0  0  0  0
   28.0242   15.5246   58.4272 N   0  3  0  0  0  0  0  0  0  0  0  0
  1  2  1  6  0  0  0
  1  3  1  0  0  0  0
  1 10  1  0  0  0  0
  3  4  1  6  0  0  0
  3  5  1  0  0  0  0
  5  6  1  6  0  0  0
  5  7  1  0  0  0  0
  7  8  1  6  0  0  0
  7  9  1  0  0  0  0
  9 10  1  0  0  0  0
  9 11  1  1  0  0  0
 11 12  1  0  0  0  0
 13 14  1  1  0  0  0
 13 15  1  0  0  0  0
 13 21  1  0  0  0  0
 15 16  1  0  0  0  0
 16 17  1  6  0  0  0
 16 18  1  0  0  0  0
 18  2  1  6  0  0  0
 18 19  1  0  0  0  0
 19 20  1  1  0  0  0
 19 21  1  0  0  0  0
 21 22  1  1  0  0  0
 23 20  1  6  0  0  0
 23 24  1  0  0  0  0
 23 29  1  0  0  0  0
 24 25  1  1  0  0  0
 24 26  1  0  0  0  0
 26 27  1  1  0  0  0
 26 28  1  0  0  0  0
 28 29  1  0  0  0  0
 28 30  1  6  0  0  0
 30 31  1  0  0  0  0
 32 27  1  1  0  0  0
 32 33  1  0  0  0  0
 32 40  1  0  0  0  0
 33 34  1  1  0  0  0
 33 35  1  0  0  0  0
 35 36  1  6  0  0  0
 35 37  1  0  0  0  0
 37 38  1  1  0  0  0
 37 39  1  0  0  0  0
 39 40  1  0  0  0  0
 39 41  1  1  0  0  0
 41 42  1  0  0  0  0
M  CHG  5   4   1  14   1  17   1  34   1  42   1
M  END
>  <CHROM.1>
-170.35047153,-170.81147236,173.05229989,-170.88529747,-44.24465997,-63.43768520
-175.94680631,-177.64054656,59.49302105,-162.24486827,-153.83810492,89.58788368
-173.33263516,55.34554250,170.38265248,81.11522316,-63.58589594,56.19137388
-61.51670289,-178.79756787,59.70096852,-60.13152788,30.67566974,10.18222645
54.77269492,1.02320161,1.11688120,-1.33220182

>  <Name>
1j7t

>  <RI>
0

>  <Rbt.Current_Directory>
/home/itssahil/PROJECTS/Mol_Feturizer/New_Systems/rnas/1j7t

>  <Rbt.Executable>
rbdock ($Id: //depot/dev/client3/rdock/2013.1/src/exe/rbdock.cxx#4 $)

>  <Rbt.Library>
libRbt.so (2013.1, Build901 2013/11/27)

>  <Rbt.Parameter_File>
/export/apps/rDock/src/rDock_2013.1_src/data/scripts/dock_solv.prm

>  <Rbt.Receptor>
prm/blind_docking_80.prm

>  <SCORE>
-24.1616

>  <SCORE.INTER>
-38.1695

>  <SCORE.INTER.CONST>
1

>  <SCORE.INTER.POLAR>
-5.42374

>  <SCORE.INTER.ROT>
9

>  <SCORE.INTER.SOLV>
35.942

>  <SCORE.INTER.VDW>
-28.9479

>  <SCORE.INTER.norm>
-0.908797

>  <SCORE.INTRA>
-10.1912

>  <SCORE.INTRA.DIHEDRAL>
-32.792

>  <SCORE.INTRA.DIHEDRAL.0>
46.2143

>  <SCORE.INTRA.POLAR>
1.11907

>  <SCORE.INTRA.POLAR.0>
-1.76436

>  <SCORE.INTRA.REPUL>
0.153151

>  <SCORE.INTRA.REPUL.0>
0

>  <SCORE.INTRA.SOLV>
-2.60825

>  <SCORE.INTRA.SOLV.lig_0>
-148.643

>  <SCORE.INTRA.VDW>
2.93834

>  <SCORE.INTRA.VDW.0>
-4.83512

>  <SCORE.INTRA.norm>
-0.242648

>  <SCORE.RESTR>
24.1991

>  <SCORE.RESTR.CAVITY>
24.1991

>  <SCORE.RESTR.norm>
0.576168

>  <SCORE.SYSTEM>
0

>  <SCORE.SYSTEM.CONST>
0

>  <SCORE.SYSTEM.DIHEDRAL>
0

>  <SCORE.SYSTEM.SOLV>
0

>  <SCORE.SYSTEM.norm>
0

>  <SCORE.heavy>
42

>  <SCORE.norm>
-0.575276

>  <RMSD>
4.732

$$$$
1j7t
 OpenBabel11021811393D
libRbt.so/2013.1/901 2013/11/27
 42 45  0  0  0  0  0  0  0  0999 V2000
   29.9337   10.0148   51.4113 C   0  0  2  0  0  0  0  0  0  0  0  0
   30.7166    8.8091   51.2215 O   0  0  0  0  0  0  0  0  0  0  0  0
   28.9286   10.0917   50.2265 C   0  0  2  0  0  0  0  0  0  0  0  0
   28.1003    8.8662   50.0374 N   0  3  0  0  0  0  0  0  0  0  0  0
   29.7338   10.3267   48.9298 C   0  0  1  0  0  0  0  0  0  0  0  0
   28.8768   10.4211   47.8271 O   0  0  0  0  0  0  0  0  0  0  0  0
   30.5931   11.6063   49.0635 C   0  0  2  0  0  0  0  0  0  0  0  0
   31.3229   11.8519   47.8777 O   0  0  0  0  0  0  0  0  0  0  0  0
   31.5595   11.4580   50.2195 C   0  0  2  0  0  0  0  0  0  0  0  0
   30.8316   11.1689   51.4063 O   0  0  0  0  0  0  0  0  0  0  0  0
   32.3564   12.7143   50.4907 C   0  0  0  0  0  0  0  0  0  0  0  0
   31.5292   13.8467   50.3043 O   0  0  0  0  0  0  0  0  0  0  0  0
   33.5849    6.4250   53.2056 C   0  0  2  0  0  0  0  0  0  0  0  0
   34.6645    6.0160   54.1048 N   0  3  0  0  0  0  0  0  0  0  0  0
   34.1076    7.5037   52.1999 C   0  0  0  0  0  0  0  0  0  0  0  0
   32.9616    7.9727   51.2832 C   0  0  2  0  0  0  0  0  0  0  0  0
   33.4212    9.0236   50.3691 N   0  3  0  0  0  0  0  0  0  0  0  0
   31.7853    8.5046   52.1253 C   0  0  2  0  0  0  0  0  0  0  0  0
   31.2675    7.4713   53.1448 C   0  0  2  0  0  0  0  0  0  0  0  0
   30.2914    8.1604   53.9496 O   0  0  0  0  0  0  0  0  0  0  0  0
   32.4301    6.9636   54.0350 C   0  0  1  0  0  0  0  0  0  0  0  0
   31.9544    5.9547   54.8829 O   0  0  0  0  0  0  0  0  0  0  0  0
   30.6298    8.9818   55.0640 C   0  0  1  0  0  0  0  0  0  0  0  0
   29.3152    9.6373   55.6191 C   0  0  2  0  0  0  0  0  0  0  0  0
   28.9747   10.8627   54.9936 O   0  0  0  0  0  0  0  0  0  0  0  0
   29.7296    9.7606   57.0787 C   0  0  2  0  0  0  0  0  0  0  0  0
   30.7838   10.7561   57.2441 O   0  0  0  0  0  0  0  0  0  0  0  0
   30.3360    8.3952   57.3704 C   0  0  2  0  0  0  0  0  0  0  0  0
   31.1093    8.1794   56.1774 O   0  0  0  0  0  0  0  0  0  0  0  0
   29.2974    7.2554   57.6308 C   0  0  0  0  0  0  0  0  0  0  0  0
   28.4836    7.0072   56.4775 O   0  0  0  0  0  0  0  0  0  0  0  0
   30.3655   11.9356   57.9263 C   0  0  2  0  0  0  0  0  0  0  0  0
   31.1629   12.2511   59.2374 C   0  0  2  0  0  0  0  0  0  0  0  0
   31.1010   11.1410   60.2360 N   0  3  0  0  0  0  0  0  0  0  0  0
   30.5784   13.5809   59.8202 C   0  0  1  0  0  0  0  0  0  0  0  0
   30.8421   14.6461   58.8286 O   0  0  0  0  0  0  0  0  0  0  0  0
   29.0226   13.4986   60.0736 C   0  0  2  0  0  0  0  0  0  0  0  0
   28.7755   12.5023   61.0791 O   0  0  0  0  0  0  0  0  0  0  0  0
   28.3177   13.1358   58.7012 C   0  0  1  0  0  0  0  0  0  0  0  0
   28.9004   11.8766   58.2235 O   0  0  0  0  0  0  0  0  0  0  0  0
   26.7803   13.0003   58.7856 C   0  0  0  0  0  0  0  0  0  0  0  0
   26.3312   11.9110   59.6946 N   0  3  0  0  0  0  0  0  0  0  0  0
  1  2  1  6  0  0  0
  1  3  1  0  0  0  0
  1 10  1  0  0  0  0
  3  4  1  6  0  0  0
  3  5  1  0  0  0  0
  5  6  1  6  0  0  0
  5  7  1  0  0  0  0
  7  8  1  6  0  0  0
  7  9  1  0  0  0  0
  9 10  1  0  0  0  0
  9 11  1  1  0  0  0
 11 12  1  0  0  0  0
 13 14  1  1  0  0  0
 13 15  1  0  0  0  0
 13 21  1  0  0  0  0
 15 16  1  0  0  0  0
 16 17  1  6  0  0  0
 16 18  1  0  0  0  0
 18  2  1  6  0  0  0
 18 19  1  0  0  0  0
 19 20  1  1  0  0  0
 19 21  1  0  0  0  0
 21 22  1  1  0  0  0
 23 20  1  6  0  0  0
 23 24  1  0  0  0  0
 23 29  1  0  0  0  0
 24 25  1  6  0  0  0
 24 26  1  0  0  0  0
 26 27  1  6  0  0  0
 26 28  1  0  0  0  0
 28 29  1  0  0  0  0
 28 30  1  6  0  0  0
 30 31  1  0  0  0  0
 32 27  1  1  0  0  0
 32 33  1  0  0  0  0
 32 40  1  0  0  0  0
 33 34  1  1  0  0  0
 33 35  1  0  0  0  0
 35 36  1  6  0  0  0
 35 37  1  0  0  0  0
 37 38  1  1  0  0  0
 37 39  1  0  0  0  0
 39 40  1  0  0  0  0
 39 41  1  1  0  0  0
 41 42  1  0  0  0  0
M  CHG  5   4   1  14   1  17   1  34   1  42   1
M  END
>  <CHROM.1>
176.56375836,-138.71195544,77.58527159,66.90198758,-178.72863678,38.07868068
-73.24069300,-62.66140296,-52.84387969,-82.72768623,176.02951699,-62.28927633
-85.03926117,110.57464468,121.20034362,63.16380028,-73.83401789,54.20388318
174.74866917,68.48660402,-61.97230356,161.57953434,30.50103686,10.13977475
54.48960951,1.04477820,1.13059373,-1.32699601

>  <Name>
1j7t

>  <RI>
0

>  <Rbt.Current_Directory>
/home/itssahil/PROJECTS/Mol_Feturizer/New_Systems/rnas/1j7t

>  <Rbt.Executable>
rbdock ($Id: //depot/dev/client3/rdock/2013.1/src/exe/rbdock.cxx#4 $)

>  <Rbt.Library>
libRbt.so (2013.1, Build901 2013/11/27)

>  <Rbt.Parameter_File>
/export/apps/rDock/src/rDock_2013.1_src/data/scripts/dock_solv.prm

>  <Rbt.Receptor>
prm/blind_docking_100.prm

>  <SCORE>
-0.697074

>  <SCORE.INTER>
-11.4136

>  <SCORE.INTER.CONST>
1

>  <SCORE.INTER.POLAR>
-3.60055

>  <SCORE.INTER.ROT>
9

>  <SCORE.INTER.SOLV>
37.3007

>  <SCORE.INTER.VDW>
-17.6408

>  <SCORE.INTER.norm>
-0.271752

>  <SCORE.INTRA>
-4.59988

>  <SCORE.INTRA.DIHEDRAL>
-15.7259

>  <SCORE.INTRA.DIHEDRAL.0>
46.2143

>  <SCORE.INTRA.POLAR>
0.317362

>  <SCORE.INTRA.POLAR.0>
-1.76436

>  <SCORE.INTRA.REPUL>
0

>  <SCORE.INTRA.REPUL.0>
0

>  <SCORE.INTRA.SOLV>
1.77565

>  <SCORE.INTRA.SOLV.lig_0>
-148.643

>  <SCORE.INTRA.VDW>
1.29623

>  <SCORE.INTRA.VDW.0>
-4.83512

>  <SCORE.INTRA.norm>
-0.109521

>  <SCORE.RESTR>
15.3164

>  <SCORE.RESTR.CAVITY>
15.3164

>  <SCORE.RESTR.norm>
0.364676

>  <SCORE.SYSTEM>
0

>  <SCORE.SYSTEM.CONST>
0

>  <SCORE.SYSTEM.DIHEDRAL>
0

>  <SCORE.SYSTEM.SOLV>
0

>  <SCORE.SYSTEM.norm>
0

>  <SCORE.heavy>
42

>  <SCORE.norm>
-0.016597

>  <RMSD>
4.769

$$$$
1j7t
 OpenBabel11021811393D
libRbt.so/2013.1/901 2013/11/27
 42 45  0  0  0  0  0  0  0  0999 V2000
   30.0021   10.0607   51.5897 C   0  0  2  0  0  0  0  0  0  0  0  0
   30.9547    8.9868   51.3856 O   0  0  0  0  0  0  0  0  0  0  0  0
   28.8138    9.8007   50.6199 C   0  0  2  0  0  0  0  0  0  0  0  0
   28.2121    8.4408   50.7296 N   0  3  0  0  0  0  0  0  0  0  0  0
   29.3276    9.9787   49.1745 C   0  0  1  0  0  0  0  0  0  0  0  0
   28.2932    9.7719   48.2543 O   0  0  0  0  0  0  0  0  0  0  0  0
   29.9397   11.3887   48.9989 C   0  0  2  0  0  0  0  0  0  0  0  0
   30.3973   11.5804   47.6749 O   0  0  0  0  0  0  0  0  0  0  0  0
   31.0990   11.5685   49.9558 C   0  0  2  0  0  0  0  0  0  0  0  0
   30.6516   11.3349   51.2851 O   0  0  0  0  0  0  0  0  0  0  0  0
   31.6786   12.9651   49.9288 C   0  0  0  0  0  0  0  0  0  0  0  0
   32.9483   12.9606   50.5525 O   0  0  0  0  0  0  0  0  0  0  0  0
   33.5270    6.7667   53.8961 C   0  0  2  0  0  0  0  0  0  0  0  0
   34.5596    6.4372   54.8792 N   0  3  0  0  0  0  0  0  0  0  0  0
   34.1669    7.5152   52.6801 C   0  0  0  0  0  0  0  0  0  0  0  0
   33.0758    7.9072   51.6655 C   0  0  2  0  0  0  0  0  0  0  0  0
   33.6511    8.6574   50.5442 N   0  3  0  0  0  0  0  0  0  0  0  0
   31.9898    8.7606   52.3494 C   0  0  2  0  0  0  0  0  0  0  0  0
   31.3607    8.0585   53.5687 C   0  0  2  0  0  0  0  0  0  0  0  0
   30.4926    9.0299   54.1836 O   0  0  0  0  0  0  0  0  0  0  0  0
   32.4629    7.6211   54.5665 C   0  0  1  0  0  0  0  0  0  0  0  0
   31.8760    6.8985   55.6136 O   0  0  0  0  0  0  0  0  0  0  0  0
   30.4867    9.3054   55.5819 C   0  0  1  0  0  0  0  0  0  0  0  0
   29.2569   10.2272   55.9044 C   0  0  2  0  0  0  0  0  0  0  0  0
   29.5257   11.6125   55.7715 O   0  0  0  0  0  0  0  0  0  0  0  0
   29.0006    9.7619   57.3310 C   0  0  2  0  0  0  0  0  0  0  0  0
   30.0744   10.1861   58.2237 O   0  0  0  0  0  0  0  0  0  0  0  0
   29.0766    8.2466   57.2069 C   0  0  2  0  0  0  0  0  0  0  0  0
   30.2222    8.1000   56.3503 O   0  0  0  0  0  0  0  0  0  0  0  0
   27.7946    7.5687   56.6217 C   0  0  0  0  0  0  0  0  0  0  0  0
   28.0971    6.3146   55.9975 O   0  0  0  0  0  0  0  0  0  0  0  0
   29.9852   11.5490   58.6310 C   0  0  2  0  0  0  0  0  0  0  0  0
   31.1741   12.0449   59.5226 C   0  0  2  0  0  0  0  0  0  0  0  0
   31.3380   11.2406   60.7715 N   0  3  0  0  0  0  0  0  0  0  0  0
   30.9086   13.5539   59.8422 C   0  0  1  0  0  0  0  0  0  0  0  0
   30.9345   14.2843   58.5564 O   0  0  0  0  0  0  0  0  0  0  0  0
   29.5080   13.7896   60.5307 C   0  0  2  0  0  0  0  0  0  0  0  0
   29.5078   13.1258   61.8051 O   0  0  0  0  0  0  0  0  0  0  0  0
   28.3838   13.2185   59.5705 C   0  0  1  0  0  0  0  0  0  0  0  0
   28.6859   11.8032   59.3278 O   0  0  0  0  0  0  0  0  0  0  0  0
   26.9437   13.3588   60.1140 C   0  0  0  0  0  0  0  0  0  0  0  0
   25.9055   13.3516   59.0478 N   0  3  0  0  0  0  0  0  0  0  0  0
  1  2  1  6  0  0  0
  1  3  1  0  0  0  0
  1 10  1  0  0  0  0
  3  4  1  6  0  0  0
  3  5  1  0  0  0  0
  5  6  1  6  0  0  0
  5  7  1  0  0  0  0
  7  8  1  6  0  0  0
  7  9  1  0  0  0  0
  9 10  1  0  0  0  0
  9 11  1  1  0  0  0
 11 12  1  0  0  0  0
 13 14  1  1  0  0  0
 13 15  1  0  0  0  0
 13 21  1  0  0  0  0
 15 16  1  0  0  0  0
 16 17  1  6  0  0  0
 16 18  1  0  0  0  0
 18  2  1  6  0  0  0
 18 19  1  0  0  0  0
 19 20  1  1  0  0  0
 19 21  1  0  0  0  0
 21 22  1  1  0  0  0
 23 20  1  6  0  0  0
 23 24  1  0  0  0  0
 23 29  1  0  0  0  0
 24 25  1  1  0  0  0
 24 26  1  0  0  0  0
 26 27  1  1  0  0  0
 26 28  1  0  0  0  0
 28 29  1  0  0  0  0
 28 30  1  6  0  0  0
 30 31  1  0  0  0  0
 32 27  1  1  0  0  0
 32 33  1  0  0  0  0
 32 40  1  0  0  0  0
 33 34  1  1  0  0  0
 33 35  1  0  0  0  0
 35 36  1  6  0  0  0
 35 37  1  0  0  0  0
 37 38  1  1  0  0  0
 37 39  1  0  0  0  0
 39 40  1  0  0  0  0
 39 41  1  1  0  0  0
 41 42  1  0  0  0  0
M  CHG  5   4   1  14   1  17   1  34   1  42   1
M  END
>  <CHROM.1>
-164.66838170,-161.90875057,49.24346669,-45.40599493,-52.45623207,-164.29001381
-58.54541249,-162.03881154,79.20604010,-132.09162990,-170.47777054,150.71459572
-150.20892424,79.13477307,-176.63150951,154.62558955,81.77735898,-49.63252534
-48.65704243,-97.57008890,156.50646161,150.61615750,30.38110414,10.21482310
54.78302173,1.18312908,1.05461190,-1.48721477

>  <Name>
1j7t

>  <RI>
0

>  <Rbt.Current_Directory>
/home/itssahil/PROJECTS/Mol_Feturizer/New_Systems/rnas/1j7t

>  <Rbt.Executable>
rbdock ($Id: //depot/dev/client3/rdock/2013.1/src/exe/rbdock.cxx#4 $)

>  <Rbt.Library>
libRbt.so (2013.1, Build901 2013/11/27)

>  <Rbt.Parameter_File>
/export/apps/rDock/src/rDock_2013.1_src/data/scripts/dock_solv.prm

>  <Rbt.Receptor>
prm/blind_docking_80.prm

>  <SCORE>
13.5325

>  <SCORE.INTER>
-20.5406

>  <SCORE.INTER.CONST>
1

>  <SCORE.INTER.POLAR>
-7.16509

>  <SCORE.INTER.ROT>
9

>  <SCORE.INTER.SOLV>
45.9322

>  <SCORE.INTER.VDW>
-14.7208

>  <SCORE.INTER.norm>
-0.489061

>  <SCORE.INTRA>
6.81676

>  <SCORE.INTRA.DIHEDRAL>
-10.0587

>  <SCORE.INTRA.DIHEDRAL.0>
46.2143

>  <SCORE.INTRA.POLAR>
1.52895

>  <SCORE.INTRA.POLAR.0>
-1.76436

>  <SCORE.INTRA.REPUL>
0

>  <SCORE.INTRA.REPUL.0>
0

>  <SCORE.INTRA.SOLV>
-6.00453

>  <SCORE.INTRA.SOLV.lig_0>
-148.643

>  <SCORE.INTRA.VDW>
9.64994

>  <SCORE.INTRA.VDW.0>
-4.83512

>  <SCORE.INTRA.norm>
0.162304

>  <SCORE.RESTR>
27.2563

>  <SCORE.RESTR.CAVITY>
27.2563

>  <SCORE.RESTR.norm>
0.648958

>  <SCORE.SYSTEM>
0

>  <SCORE.SYSTEM.CONST>
0

>  <SCORE.SYSTEM.DIHEDRAL>
0

>  <SCORE.SYSTEM.SOLV>
0

>  <SCORE.SYSTEM.norm>
0

>  <SCORE.heavy>
42

>  <SCORE.norm>
0.322201

>  <RMSD>
4.808

$$$$
1j7t
 OpenBabel11021811393D
libRbt.so/2013.1/901 2013/11/27
 42 45  0  0  0  0  0  0  0  0999 V2000
   29.2090    9.2299   51.9946 C   0  0  2  0  0  0  0  0  0  0  0  0
   29.0030    7.9740   51.2998 O   0  0  0  0  0  0  0  0  0  0  0  0
   30.1578   10.0863   51.1079 C   0  0  2  0  0  0  0  0  0  0  0  0
   29.7037   10.2526   49.6973 N   0  3  0  0  0  0  0  0  0  0  0  0
   31.5410    9.3999   51.0848 C   0  0  1  0  0  0  0  0  0  0  0  0
   32.4451   10.1377   50.3116 O   0  0  0  0  0  0  0  0  0  0  0  0
   32.0718    9.2274   52.5277 C   0  0  2  0  0  0  0  0  0  0  0  0
   33.3483    8.6195   52.5281 O   0  0  0  0  0  0  0  0  0  0  0  0
   31.1140    8.3712   53.3287 C   0  0  2  0  0  0  0  0  0  0  0  0
   29.8191    8.9577   53.2953 O   0  0  0  0  0  0  0  0  0  0  0  0
   31.5022    8.2517   54.7855 C   0  0  0  0  0  0  0  0  0  0  0  0
   30.7035    7.2631   55.4066 O   0  0  0  0  0  0  0  0  0  0  0  0
   26.8350    4.4651   52.2136 C   0  0  2  0  0  0  0  0  0  0  0  0
   26.3778    3.2585   52.9039 N   0  3  0  0  0  0  0  0  0  0  0  0
   28.3336    4.3041   51.7930 C   0  0  0  0  0  0  0  0  0  0  0  0
   28.8331    5.5912   51.1092 C   0  0  2  0  0  0  0  0  0  0  0  0
   30.2521    5.4777   50.7563 N   0  3  0  0  0  0  0  0  0  0  0  0
   28.6317    6.8044   52.0384 C   0  0  2  0  0  0  0  0  0  0  0  0
   27.1679    6.9712   52.4910 C   0  0  2  0  0  0  0  0  0  0  0  0
   27.1705    8.0339   53.4637 O   0  0  0  0  0  0  0  0  0  0  0  0
   26.6504    5.6602   53.1352 C   0  0  1  0  0  0  0  0  0  0  0  0
   25.2917    5.8043   53.4455 O   0  0  0  0  0  0  0  0  0  0  0  0
   27.5111    7.8442   54.8345 C   0  0  1  0  0  0  0  0  0  0  0  0
   27.3469    9.2142   55.5844 C   0  0  2  0  0  0  0  0  0  0  0  0
   28.5050   10.0307   55.5514 O   0  0  0  0  0  0  0  0  0  0  0  0
   26.9896    8.6707   56.9608 C   0  0  2  0  0  0  0  0  0  0  0  0
   28.1322    8.0028   57.5756 O   0  0  0  0  0  0  0  0  0  0  0  0
   25.9512    7.6049   56.6399 C   0  0  2  0  0  0  0  0  0  0  0  0
   26.5516    6.9747   55.4952 O   0  0  0  0  0  0  0  0  0  0  0  0
   24.5160    8.1515   56.3444 C   0  0  0  0  0  0  0  0  0  0  0  0
   23.8513    7.3768   55.3385 O   0  0  0  0  0  0  0  0  0  0  0  0
   28.5084    8.5434   58.8397 C   0  0  2  0  0  0  0  0  0  0  0  0
   29.6478    7.7584   59.5744 C   0  0  2  0  0  0  0  0  0  0  0  0
   29.3035    6.3240   59.8140 N   0  3  0  0  0  0  0  0  0  0  0  0
   29.9319    8.5125   60.9162 C   0  0  1  0  0  0  0  0  0  0  0  0
   30.4268    9.8610   60.5636 O   0  0  0  0  0  0  0  0  0  0  0  0
   28.6401    8.6646   61.8104 C   0  0  2  0  0  0  0  0  0  0  0  0
   28.1957    7.3543   62.1979 O   0  0  0  0  0  0  0  0  0  0  0  0
   27.5413    9.4312   60.9636 C   0  0  1  0  0  0  0  0  0  0  0  0
   27.3148    8.6634   59.7338 O   0  0  0  0  0  0  0  0  0  0  0  0
   26.1990    9.6463   61.6990 C   0  0  0  0  0  0  0  0  0  0  0  0
   25.0238    9.6836   60.7868 N   0  3  0  0  0  0  0  0  0  0  0  0
  1  2  1  6  0  0  0
  1  3  1  0  0  0  0
  1 10  1  0  0  0  0
  3  4  1  6  0  0  0
  3  5  1  0  0  0  0
  5  6  1  6  0  0  0
  5  7  1  0  0  0  0
  7  8  1  6  0  0  0
  7  9  1  0  0  0  0
  9 10  1  0  0  0  0
  9 11  1  1  0  0  0
 11 12  1  0  0  0  0
 13 14  1  1  0  0  0
 13 15  1  0  0  0  0
 13 21  1  0  0  0  0
 15 16  1  0  0  0  0
 16 17  1  1  0  0  0
 16 18  1  0  0  0  0
 18  2  1  6  0  0  0
 18 19  1  0  0  0  0
 19 20  1  1  0  0  0
 19 21  1  0  0  0  0
 21 22  1  6  0  0  0
 23 20  1  6  0  0  0
 23 24  1  0  0  0  0
 23 29  1  0  0  0  0
 24 25  1  1  0  0  0
 24 26  1  0  0  0  0
 26 27  1  6  0  0  0
 26 28  1  0  0  0  0
 28 29  1  0  0  0  0
 28 30  1  6  0  0  0
 30 31  1  0  0  0  0
 32 27  1  6  0  0  0
 32 33  1  0  0  0  0
 32 40  1  0  0  0  0
 33 34  1  1  0  0  0
 33 35  1  0  0  0  0
 35 36  1  6  0  0  0
 35 37  1  0  0  0  0
 37 38  1  6  0  0  0
 37 39  1  0  0  0  0
 39 40  1  0  0  0  0
 39 41  1  1  0  0  0
 41 42  1  0  0  0  0
M  CHG  5   4   1  14   1  17   1  34   1  42   1
M  END
>  <CHROM.1>
155.79382089,-166.06234928,141.90375682,-68.47034738,69.03084416,-169.96557450
175.81823335,179.09875376,174.45843294,-82.01291282,-177.92415730,172.02916724
-62.51155620,122.49980085,174.70114498,144.62796152,179.31202425,170.35615027
-173.06709174,55.04891133,-149.87603358,-70.02760071,28.48433147,7.90813817
55.29095881,-1.30479586,0.50589211,1.34591909

>  <Name>
1j7t

>  <RI>
0

>  <Rbt.Current_Directory>
/home/itssahil/PROJECTS/Mol_Feturizer/New_Systems/rnas/1j7t

>  <Rbt.Executable>
rbdock ($Id: //depot/dev/client3/rdock/2013.1/src/exe/rbdock.cxx#4 $)

>  <Rbt.Library>
libRbt.so (2013.1, Build901 2013/11/27)

>  <Rbt.Parameter_File>
/export/apps/rDock/src/rDock_2013.1_src/data/scripts/dock_solv.prm

>  <Rbt.Receptor>
prm/pocket_docking_4.prm

>  <SCORE>
-54.8746

>  <SCORE.INTER>
-41.3327

>  <SCORE.INTER.CONST>
1

>  <SCORE.INTER.POLAR>
-6.48286

>  <SCORE.INTER.ROT>
9

>  <SCORE.INTER.SOLV>
18.9846

>  <SCORE.INTER.VDW>
-21.8738

>  <SCORE.INTER.norm>
-0.984111

>  <SCORE.INTRA>
-14.3819

>  <SCORE.INTRA.DIHEDRAL>
-22.037

>  <SCORE.INTRA.DIHEDRAL.0>
46.2143

>  <SCORE.INTRA.POLAR>
0.0091954

>  <SCORE.INTRA.POLAR.0>
-1.76436

>  <SCORE.INTRA.REPUL>
0

>  <SCORE.INTRA.REPUL.0>
0

>  <SCORE.INTRA.SOLV>
-2.0941

>  <SCORE.INTRA.SOLV.lig_0>
-148.643

>  <SCORE.INTRA.VDW>
-2.34757

>  <SCORE.INTRA.VDW.0>
-4.83512

>  <SCORE.INTRA.norm>
-0.342426

>  <SCORE.RESTR>
0.839952

>  <SCORE.RESTR.CAVITY>
0.839952

>  <SCORE.RESTR.norm>
0.0199988

>  <SCORE.SYSTEM>
0

>  <SCORE.SYSTEM.CONST>
0

>  <SCORE.SYSTEM.DIHEDRAL>
0

>  <SCORE.SYSTEM.SOLV>
0

>  <SCORE.SYSTEM.norm>
0

>  <SCORE.heavy>
42

>  <SCORE.norm>
-1.30654

>  <RMSD>
4.813

$$$$
1j7t
 OpenBabel11021811393D
libRbt.so/2013.1/901 2013/11/27
 42 45  0  0  0  0  0  0  0  0999 V2000
   29.9110    9.3549   51.9868 C   0  0  2  0  0  0  0  0  0  0  0  0
   30.9316    8.3772   51.6629 O   0  0  0  0  0  0  0  0  0  0  0  0
   28.8810    9.3357   50.8211 C   0  0  2  0  0  0  0  0  0  0  0  0
   28.3339    7.9859   50.5013 N   0  3  0  0  0  0  0  0  0  0  0  0
   29.5801    9.8781   49.5554 C   0  0  1  0  0  0  0  0  0  0  0  0
   28.6931    9.8995   48.4727 O   0  0  0  0  0  0  0  0  0  0  0  0
   30.1442   11.2931   49.8261 C   0  0  2  0  0  0  0  0  0  0  0  0
   30.7705   11.8175   48.6720 O   0  0  0  0  0  0  0  0  0  0  0  0
   31.1510   11.2376   50.9554 C   0  0  2  0  0  0  0  0  0  0  0  0
   30.5361   10.6713   52.1057 O   0  0  0  0  0  0  0  0  0  0  0  0
   31.6631   12.6017   51.3604 C   0  0  0  0  0  0  0  0  0  0  0  0
   32.3772   13.1761   50.2827 O   0  0  0  0  0  0  0  0  0  0  0  0
   33.9085    6.2149   53.7391 C   0  0  2  0  0  0  0  0  0  0  0  0
   35.0162    5.8980   54.6413 N   0  3  0  0  0  0  0  0  0  0  0  0
   34.3789    7.2421   52.6565 C   0  0  0  0  0  0  0  0  0  0  0  0
   33.2028    7.6157   51.7342 C   0  0  2  0  0  0  0  0  0  0  0  0
   33.6126    8.6191   50.7461 N   0  3  0  0  0  0  0  0  0  0  0  0
   32.0250    8.1645   52.5633 C   0  0  2  0  0  0  0  0  0  0  0  0
   31.5583    7.1836   53.6566 C   0  0  2  0  0  0  0  0  0  0  0  0
   30.5749    7.8929   54.4346 O   0  0  0  0  0  0  0  0  0  0  0  0
   32.7518    6.7702   54.5547 C   0  0  1  0  0  0  0  0  0  0  0  0
   32.3233    5.8039   55.4744 O   0  0  0  0  0  0  0  0  0  0  0  0
   30.9067    8.8486   55.4384 C   0  0  1  0  0  0  0  0  0  0  0  0
   29.6302    9.7081   55.7513 C   0  0  2  0  0  0  0  0  0  0  0  0
   29.4809   10.8423   54.9144 O   0  0  0  0  0  0  0  0  0  0  0  0
   29.9312   10.0273   57.2090 C   0  0  2  0  0  0  0  0  0  0  0  0
   31.0710   10.9312   57.3253 O   0  0  0  0  0  0  0  0  0  0  0  0
   30.3566    8.6759   57.7660 C   0  0  2  0  0  0  0  0  0  0  0  0
   31.1991    8.1960   56.7041 O   0  0  0  0  0  0  0  0  0  0  0  0
   29.1804    7.6982   58.0919 C   0  0  0  0  0  0  0  0  0  0  0  0
   28.1160    7.8144   57.1392 O   0  0  0  0  0  0  0  0  0  0  0  0
   30.8151   12.0878   58.1180 C   0  0  2  0  0  0  0  0  0  0  0  0
   31.4859   12.0727   59.5337 C   0  0  2  0  0  0  0  0  0  0  0  0
   31.0749   10.8961   60.3583 N   0  3  0  0  0  0  0  0  0  0  0  0
   31.1115   13.4223   60.2323 C   0  0  1  0  0  0  0  0  0  0  0  0
   31.7086   14.5110   59.4287 O   0  0  0  0  0  0  0  0  0  0  0  0
   29.5517   13.6496   60.3137 C   0  0  2  0  0  0  0  0  0  0  0  0
   28.9829   12.6225   61.1422 O   0  0  0  0  0  0  0  0  0  0  0  0
   28.9691   13.6059   58.8404 C   0  0  1  0  0  0  0  0  0  0  0  0
   29.3425   12.3132   58.2549 O   0  0  0  0  0  0  0  0  0  0  0  0
   27.4380   13.7969   58.7499 C   0  0  0  0  0  0  0  0  0  0  0  0
   26.6718   12.5357   58.9423 N   0  3  0  0  0  0  0  0  0  0  0  0
  1  2  1  6  0  0  0
  1  3  1  0  0  0  0
  1 10  1  0  0  0  0
  3  4  1  6  0  0  0
  3  5  1  0  0  0  0
  5  6  1  6  0  0  0
  5  7  1  0  0  0  0
  7  8  1  6  0  0  0
  7  9  1  0  0  0  0
  9 10  1  0  0  0  0
  9 11  1  1  0  0  0
 11 12  1  0  0  0  0
 13 14  1  1  0  0  0
 13 15  1  0  0  0  0
 13 21  1  0  0  0  0
 15 16  1  0  0  0  0
 16 17  1  6  0  0  0
 16 18  1  0  0  0  0
 18  2  1  6  0  0  0
 18 19  1  0  0  0  0
 19 20  1  1  0  0  0
 19 21  1  0  0  0  0
 21 22  1  1  0  0  0
 23 20  1  6  0  0  0
 23 24  1  0  0  0  0
 23 29  1  0  0  0  0
 24 25  1  6  0  0  0
 24 26  1  0  0  0  0
 26 27  1  6  0  0  0
 26 28  1  0  0  0  0
 28 29  1  0  0  0  0
 28 30  1  6  0  0  0
 30 31  1  0  0  0  0
 32 27  1  1  0  0  0
 32 33  1  0  0  0  0
 32 40  1  0  0  0  0
 33 34  1  1  0  0  0
 33 35  1  0  0  0  0
 35 36  1  6  0  0  0
 35 37  1  0  0  0  0
 37 38  1  1  0  0  0
 37 39  1  0  0  0  0
 39 40  1  0  0  0  0
 39 41  1  1  0  0  0
 41 42  1  0  0  0  0
M  CHG  5   4   1  14   1  17   1  34   1  42   1
M  END
>  <CHROM.1>
-179.80844084,-154.87891050,70.53578820,173.22607666,-40.13048869,-64.16629111
58.97765497,-174.67665741,-161.63519337,-79.20288610,163.05638565,71.49279733
54.84842819,127.65166181,106.12122416,36.42544865,-171.68132610,62.51296170
17.17683915,77.61510016,-85.00210535,119.71629781,30.68460338,10.03129817
54.86165471,1.19017753,1.07079401,-1.57443180

>  <Name>
1j7t

>  <RI>
0

>  <Rbt.Current_Directory>
/home/itssahil/PROJECTS/Mol_Feturizer/New_Systems/rnas/1j7t

>  <Rbt.Executable>
rbdock ($Id: //depot/dev/client3/rdock/2013.1/src/exe/rbdock.cxx#4 $)

>  <Rbt.Library>
libRbt.so (2013.1, Build901 2013/11/27)

>  <Rbt.Parameter_File>
/export/apps/rDock/src/rDock_2013.1_src/data/scripts/dock_solv.prm

>  <Rbt.Receptor>
prm/blind_docking_80.prm

>  <SCORE>
-17.2468

>  <SCORE.INTER>
-36.8607

>  <SCORE.INTER.CONST>
1

>  <SCORE.INTER.POLAR>
-8.31464

>  <SCORE.INTER.ROT>
9

>  <SCORE.INTER.SOLV>
37.5005

>  <SCORE.INTER.VDW>
-18.9585

>  <SCORE.INTER.norm>
-0.877636

>  <SCORE.INTRA>
-3.96775

>  <SCORE.INTRA.DIHEDRAL>
-8.32037

>  <SCORE.INTRA.DIHEDRAL.0>
46.2143

>  <SCORE.INTRA.POLAR>
-0.358727

>  <SCORE.INTRA.POLAR.0>
-1.76436

>  <SCORE.INTRA.REPUL>
0.00535664

>  <SCORE.INTRA.REPUL.0>
0

>  <SCORE.INTRA.SOLV>
0.772583

>  <SCORE.INTRA.SOLV.lig_0>
-148.643

>  <SCORE.INTRA.VDW>
0.999032

>  <SCORE.INTRA.VDW.0>
-4.83512

>  <SCORE.INTRA.norm>
-0.0944702

>  <SCORE.RESTR>
23.5817

>  <SCORE.RESTR.CAVITY>
23.5817

>  <SCORE.RESTR.norm>
0.561469

>  <SCORE.SYSTEM>
0

>  <SCORE.SYSTEM.CONST>
0

>  <SCORE.SYSTEM.DIHEDRAL>
0

>  <SCORE.SYSTEM.SOLV>
0

>  <SCORE.SYSTEM.norm>
0

>  <SCORE.heavy>
42

>  <SCORE.norm>
-0.410637

>  <RMSD>
4.817

$$$$
1j7t
 OpenBabel11021811393D
libRbt.so/2013.1/901 2013/11/27
 42 45  0  0  0  0  0  0  0  0999 V2000
   32.1156    7.0713   53.3126 C   0  0  2  0  0  0  0  0  0  0  0  0
   31.7170    6.0339   52.3812 O   0  0  0  0  0  0  0  0  0  0  0  0
   33.3537    7.7818   52.6943 C   0  0  2  0  0  0  0  0  0  0  0  0
   33.1521    8.2757   51.3018 N   0  3  0  0  0  0  0  0  0  0  0  0
   34.5247    6.7752   52.6774 C   0  0  1  0  0  0  0  0  0  0  0  0
   35.6760    7.3664   52.1440 O   0  0  0  0  0  0  0  0  0  0  0  0
   34.7940    6.2506   54.1078 C   0  0  2  0  0  0  0  0  0  0  0  0
   35.8778    5.3426   54.1181 O   0  0  0  0  0  0  0  0  0  0  0  0
   33.5592    5.5559   54.6414 C   0  0  2  0  0  0  0  0  0  0  0  0
   32.4573    6.4533   54.5930 O   0  0  0  0  0  0  0  0  0  0  0  0
   33.7021    5.1165   56.0813 C   0  0  0  0  0  0  0  0  0  0  0  0
   34.6404    4.0608   56.1611 O   0  0  0  0  0  0  0  0  0  0  0  0
   27.8856    5.3377   50.7431 C   0  0  2  0  0  0  0  0  0  0  0  0
   26.4860    4.9298   50.6150 N   0  3  0  0  0  0  0  0  0  0  0  0
   28.7781    4.0917   51.0582 C   0  0  0  0  0  0  0  0  0  0  0  0
   30.2454    4.5240   51.2422 C   0  0  2  0  0  0  0  0  0  0  0  0
   31.0880    3.3755   51.5914 N   0  3  0  0  0  0  0  0  0  0  0  0
   30.3544    5.5939   52.3462 C   0  0  2  0  0  0  0  0  0  0  0  0
   29.4636    6.8221   52.0754 C   0  0  2  0  0  0  0  0  0  0  0  0
   29.5529    7.6465   53.2534 O   0  0  0  0  0  0  0  0  0  0  0  0
   27.9960    6.3823   51.8423 C   0  0  1  0  0  0  0  0  0  0  0  0
   27.2281    7.5030   51.4995 O   0  0  0  0  0  0  0  0  0  0  0  0
   29.3859    7.1463   54.5775 C   0  0  1  0  0  0  0  0  0  0  0  0
   28.8678    8.3139   55.4910 C   0  0  2  0  0  0  0  0  0  0  0  0
   29.9004    9.0977   56.0640 O   0  0  0  0  0  0  0  0  0  0  0  0
   28.0742    7.4794   56.4866 C   0  0  2  0  0  0  0  0  0  0  0  0
   28.9593    6.6712   57.3192 O   0  0  0  0  0  0  0  0  0  0  0  0
   27.2982    6.5307   55.5837 C   0  0  2  0  0  0  0  0  0  0  0  0
   28.3141    6.1658   54.6337 O   0  0  0  0  0  0  0  0  0  0  0  0
   26.0337    7.1533   54.9061 C   0  0  0  0  0  0  0  0  0  0  0  0
   25.3439    6.1961   54.0925 O   0  0  0  0  0  0  0  0  0  0  0  0
   28.2886    5.9544   58.3525 C   0  0  2  0  0  0  0  0  0  0  0  0
   29.2103    5.0143   59.2016 C   0  0  2  0  0  0  0  0  0  0  0  0
   29.9206    3.9940   58.3722 N   0  3  0  0  0  0  0  0  0  0  0  0
   28.3041    4.3425   60.2866 C   0  0  1  0  0  0  0  0  0  0  0  0
   27.7880    5.4226   61.1552 O   0  0  0  0  0  0  0  0  0  0  0  0
   27.0800    3.5689   59.6586 C   0  0  2  0  0  0  0  0  0  0  0  0
   27.5847    2.4853   58.8612 O   0  0  0  0  0  0  0  0  0  0  0  0
   26.2402    4.5954   58.7908 C   0  0  1  0  0  0  0  0  0  0  0  0
   27.1445    5.1720   57.7892 O   0  0  0  0  0  0  0  0  0  0  0  0
   25.0064    3.9837   58.0890 C   0  0  0  0  0  0  0  0  0  0  0  0
   23.9688    3.4940   59.0368 N   0  3  0  0  0  0  0  0  0  0  0  0
  1  2  1  6  0  0  0
  1  3  1  0  0  0  0
  1 10  1  0  0  0  0
  3  4  1  6  0  0  0
  3  5  1  0  0  0  0
  5  6  1  1  0  0  0
  5  7  1  0  0  0  0
  7  8  1  6  0  0  0
  7  9  1  0  0  0  0
  9 10  1  0  0  0  0
  9 11  1  1  0  0  0
 11 12  1  0  0  0  0
 13 14  1  1  0  0  0
 13 15  1  0  0  0  0
 13 21  1  0  0  0  0
 15 16  1  0  0  0  0
 16 17  1  1  0  0  0
 16 18  1  0  0  0  0
 18  2  1  6  0  0  0
 18 19  1  0  0  0  0
 19 20  1  1  0  0  0
 19 21  1  0  0  0  0
 21 22  1  6  0  0  0
 23 20  1  6  0  0  0
 23 24  1  0  0  0  0
 23 29  1  0  0  0  0
 24 25  1  1  0  0  0
 24 26  1  0  0  0  0
 26 27  1  1  0  0  0
 26 28  1  0  0  0  0
 28 29  1  0  0  0  0
 28 30  1  6  0  0  0
 30 31  1  0  0  0  0
 32 27  1  6  0  0  0
 32 33  1  0  0  0  0
 32 40  1  0  0  0  0
 33 34  1  6  0  0  0
 33 35  1  0  0  0  0
 35 36  1  1  0  0  0
 35 37  1  0  0  0  0
 37 38  1  6  0  0  0
 37 39  1  0  0  0  0
 39 40  1  0  0  0  0
 39 41  1  6  0  0  0
 41 42  1  0  0  0  0
M  CHG  5   4   1  14   1  17   1  34   1  42   1
M  END
>  <CHROM.1>
-153.55450058,178.59902624,-176.10225372,-178.87843222,139.07599497,-69.11423535
172.20995816,80.71050311,-54.34863780,-48.82279034,-153.09998580,61.65653755
-59.59416988,174.74492557,176.47858060,-178.96923379,-175.25744442,171.37285245
-67.54886561,65.10924029,64.63911130,53.91223503,29.70806126,5.81211710,54.98743527
-0.76558765,0.05316473,1.79006576

>  <Name>
1j7t

>  <RI>
0

>  <Rbt.Current_Directory>
/home/itssahil/PROJECTS/Mol_Feturizer/New_Systems/rnas/1j7t

>  <Rbt.Executable>
rbdock ($Id: //depot/dev/client3/rdock/2013.1/src/exe/rbdock.cxx#4 $)

>  <Rbt.Library>
libRbt.so (2013.1, Build901 2013/11/27)

>  <Rbt.Parameter_File>
/export/apps/rDock/src/rDock_2013.1_src/data/scripts/dock_solv.prm

>  <Rbt.Receptor>
prm/pocket_docking_4.prm

>  <SCORE>
-41.1282

>  <SCORE.INTER>
-29.3065

>  <SCORE.INTER.CONST>
1

>  <SCORE.INTER.POLAR>
-5.4421

>  <SCORE.INTER.ROT>
9

>  <SCORE.INTER.SOLV>
13.339

>  <SCORE.INTER.VDW>
-15.4437

>  <SCORE.INTER.norm>
-0.697774

>  <SCORE.INTRA>
-12.446

>  <SCORE.INTRA.DIHEDRAL>
-30.711

>  <SCORE.INTRA.DIHEDRAL.0>
46.2143

>  <SCORE.INTRA.POLAR>
1.23434

>  <SCORE.INTRA.POLAR.0>
-1.76436

>  <SCORE.INTRA.REPUL>
0

>  <SCORE.INTRA.REPUL.0>
0

>  <SCORE.INTRA.SOLV>
-4.0819

>  <SCORE.INTRA.SOLV.lig_0>
-148.643

>  <SCORE.INTRA.VDW>
0.75368

>  <SCORE.INTRA.VDW.0>
-4.83512

>  <SCORE.INTRA.norm>
-0.296333

>  <SCORE.RESTR>
0.624274

>  <SCORE.RESTR.CAVITY>
0.624274

>  <SCORE.RESTR.norm>
0.0148637

>  <SCORE.SYSTEM>
0

>  <SCORE.SYSTEM.CONST>
0

>  <SCORE.SYSTEM.DIHEDRAL>
0

>  <SCORE.SYSTEM.SOLV>
0

>  <SCORE.SYSTEM.norm>
0

>  <SCORE.heavy>
42

>  <SCORE.norm>
-0.979244

>  <RMSD>
4.833

$$$$
1j7t
 OpenBabel11021811393D
libRbt.so/2013.1/901 2013/11/27
 42 45  0  0  0  0  0  0  0  0999 V2000
   29.5763   10.0914   51.2629 C   0  0  2  0  0  0  0  0  0  0  0  0
   30.4647    8.9507   51.1526 O   0  0  0  0  0  0  0  0  0  0  0  0
   28.6622   10.0752   50.0043 C   0  0  2  0  0  0  0  0  0  0  0  0
   27.9508    8.7852   49.7730 N   0  3  0  0  0  0  0  0  0  0  0  0
   29.5434   10.3609   48.7686 C   0  0  1  0  0  0  0  0  0  0  0  0
   28.7687   10.3748   47.6028 O   0  0  0  0  0  0  0  0  0  0  0  0
   30.2856   11.7067   48.9461 C   0  0  2  0  0  0  0  0  0  0  0  0
   31.0825   11.9981   47.8151 O   0  0  0  0  0  0  0  0  0  0  0  0
   31.1691   11.6483   50.1742 C   0  0  2  0  0  0  0  0  0  0  0  0
   30.3774   11.3138   51.3070 O   0  0  0  0  0  0  0  0  0  0  0  0
   31.8406   12.9673   50.4844 C   0  0  0  0  0  0  0  0  0  0  0  0
   31.4258   13.4192   51.7592 O   0  0  0  0  0  0  0  0  0  0  0  0
   32.8602    6.4875   53.6107 C   0  0  2  0  0  0  0  0  0  0  0  0
   33.7347    6.0450   54.6974 N   0  3  0  0  0  0  0  0  0  0  0  0
   33.5814    7.5832   52.7576 C   0  0  0  0  0  0  0  0  0  0  0  0
   32.6458    8.0868   51.6419 C   0  0  2  0  0  0  0  0  0  0  0  0
   33.2866    9.1532   50.8652 N   0  3  0  0  0  0  0  0  0  0  0  0
   31.3282    8.6127   52.2442 C   0  0  2  0  0  0  0  0  0  0  0  0
   30.6094    7.5621   53.1130 C   0  0  2  0  0  0  0  0  0  0  0  0
   29.4964    8.2436   53.7229 O   0  0  0  0  0  0  0  0  0  0  0  0
   31.5662    7.0202   54.2051 C   0  0  1  0  0  0  0  0  0  0  0  0
   30.9232    5.9975   54.9148 O   0  0  0  0  0  0  0  0  0  0  0  0
   29.6411    9.3630   54.5932 C   0  0  1  0  0  0  0  0  0  0  0  0
   28.4013    9.4111   55.5558 C   0  0  2  0  0  0  0  0  0  0  0  0
   27.2968   10.1315   55.0361 O   0  0  0  0  0  0  0  0  0  0  0  0
   29.0782   10.0604   56.7548 C   0  0  2  0  0  0  0  0  0  0  0  0
   29.4303   11.4482   56.4725 O   0  0  0  0  0  0  0  0  0  0  0  0
   30.3747    9.2716   56.8743 C   0  0  2  0  0  0  0  0  0  0  0  0
   30.7676    9.1816   55.4939 O   0  0  0  0  0  0  0  0  0  0  0  0
   30.2327    7.8703   57.5540 C   0  0  0  0  0  0  0  0  0  0  0  0
   31.4477    7.4700   58.2002 O   0  0  0  0  0  0  0  0  0  0  0  0
   29.2871   12.3214   57.5899 C   0  0  2  0  0  0  0  0  0  0  0  0
   30.5853   12.5061   58.4471 C   0  0  2  0  0  0  0  0  0  0  0  0
   31.1147   11.2159   58.9843 N   0  3  0  0  0  0  0  0  0  0  0  0
   30.2355   13.5070   59.5984 C   0  0  1  0  0  0  0  0  0  0  0  0
   29.8894   14.7981   58.9652 O   0  0  0  0  0  0  0  0  0  0  0  0
   29.0100   13.0248   60.4683 C   0  0  2  0  0  0  0  0  0  0  0  0
   29.3710   11.7997   61.1268 O   0  0  0  0  0  0  0  0  0  0  0  0
   27.7670   12.8296   59.5045 C   0  0  1  0  0  0  0  0  0  0  0  0
   28.1595   11.8718   58.4644 O   0  0  0  0  0  0  0  0  0  0  0  0
   26.4809   12.3388   60.2072 C   0  0  0  0  0  0  0  0  0  0  0  0
   25.3949   11.9655   59.2606 N   0  3  0  0  0  0  0  0  0  0  0  0
  1  2  1  6  0  0  0
  1  3  1  0  0  0  0
  1 10  1  0  0  0  0
  3  4  1  6  0  0  0
  3  5  1  0  0  0  0
  5  6  1  6  0  0  0
  5  7  1  0  0  0  0
  7  8  1  6  0  0  0
  7  9  1  0  0  0  0
  9 10  1  0  0  0  0
  9 11  1  1  0  0  0
 11 12  1  0  0  0  0
 13 14  1  1  0  0  0
 13 15  1  0  0  0  0
 13 21  1  0  0  0  0
 15 16  1  0  0  0  0
 16 17  1  1  0  0  0
 16 18  1  0  0  0  0
 18  2  1  6  0  0  0
 18 19  1  0  0  0  0
 19 20  1  1  0  0  0
 19 21  1  0  0  0  0
 21 22  1  6  0  0  0
 23 20  1  6  0  0  0
 23 24  1  0  0  0  0
 23 29  1  0  0  0  0
 24 25  1  6  0  0  0
 24 26  1  0  0  0  0
 26 27  1  6  0  0  0
 26 28  1  0  0  0  0
 28 29  1  0  0  0  0
 28 30  1  6  0  0  0
 30 31  1  0  0  0  0
 32 27  1  6  0  0  0
 32 33  1  0  0  0  0
 32 40  1  0  0  0  0
 33 34  1  1  0  0  0
 33 35  1  0  0  0  0
 35 36  1  6  0  0  0
 35 37  1  0  0  0  0
 37 38  1  6  0  0  0
 37 39  1  0  0  0  0
 39 40  1  0  0  0  0
 39 41  1  1  0  0  0
 41 42  1  0  0  0  0
M  CHG  5   4   1  14   1  17   1  34   1  42   1
M  END
>  <CHROM.1>
-172.98204114,-144.43406256,84.48342352,67.06067392,51.42422133,118.72801332
76.09992886,59.86317125,101.31636023,-60.79390715,-153.63235043,-62.64795414
60.69323371,143.77861593,92.50495742,-152.34549351,-179.35371512,88.97208754
-177.50731035,-90.43343656,-171.19045397,-2.64171192,30.11326803,10.20634534
54.52463479,1.15325724,1.05703859,-1.42221551

>  <Name>
1j7t

>  <RI>
0

>  <Rbt.Current_Directory>
/home/itssahil/PROJECTS/Mol_Feturizer/New_Systems/rnas/1j7t

>  <Rbt.Executable>
rbdock ($Id: //depot/dev/client3/rdock/2013.1/src/exe/rbdock.cxx#4 $)

>  <Rbt.Library>
libRbt.so (2013.1, Build901 2013/11/27)

>  <Rbt.Parameter_File>
/export/apps/rDock/src/rDock_2013.1_src/data/scripts/dock_solv.prm

>  <Rbt.Receptor>
prm/blind_docking_100.prm

>  <SCORE>
-22.9386

>  <SCORE.INTER>
-44.6996

>  <SCORE.INTER.CONST>
1

>  <SCORE.INTER.POLAR>
-7.75522

>  <SCORE.INTER.ROT>
9

>  <SCORE.INTER.SOLV>
45.1916

>  <SCORE.INTER.VDW>
-28.6128

>  <SCORE.INTER.norm>
-1.06428

>  <SCORE.INTRA>
4.26453

>  <SCORE.INTRA.DIHEDRAL>
-6.62005

>  <SCORE.INTRA.DIHEDRAL.0>
46.2143

>  <SCORE.INTRA.POLAR>
1.66018

>  <SCORE.INTRA.POLAR.0>
-1.76436

>  <SCORE.INTRA.REPUL>
0

>  <SCORE.INTRA.REPUL.0>
0

>  <SCORE.INTRA.SOLV>
-0.600747

>  <SCORE.INTRA.SOLV.lig_0>
-148.643

>  <SCORE.INTRA.VDW>
2.23033

>  <SCORE.INTRA.VDW.0>
-4.83512

>  <SCORE.INTRA.norm>
0.101536

>  <SCORE.RESTR>
17.4965

>  <SCORE.RESTR.CAVITY>
17.4965

>  <SCORE.RESTR.norm>
0.416583

>  <SCORE.SYSTEM>
0

>  <SCORE.SYSTEM.CONST>
0

>  <SCORE.SYSTEM.DIHEDRAL>
0

>  <SCORE.SYSTEM.SOLV>
0

>  <SCORE.SYSTEM.norm>
0

>  <SCORE.heavy>
42

>  <SCORE.norm>
-0.546156

>  <RMSD>
4.859

$$$$
1j7t
 OpenBabel11021811393D
libRbt.so/2013.1/901 2013/11/27
 42 45  0  0  0  0  0  0  0  0999 V2000
   30.9947    8.9810   52.2084 C   0  0  2  0  0  0  0  0  0  0  0  0
   30.1706    8.1717   51.3318 O   0  0  0  0  0  0  0  0  0  0  0  0
   32.0855    9.6432   51.3187 C   0  0  2  0  0  0  0  0  0  0  0  0
   31.5546   10.3897   50.1420 N   0  3  0  0  0  0  0  0  0  0  0  0
   33.0174    8.5289   50.7944 C   0  0  1  0  0  0  0  0  0  0  0  0
   34.0329    9.0696   49.9971 O   0  0  0  0  0  0  0  0  0  0  0  0
   33.6184    7.7382   51.9807 C   0  0  2  0  0  0  0  0  0  0  0  0
   34.4925    6.7256   51.5228 O   0  0  0  0  0  0  0  0  0  0  0  0
   32.5077    7.1056   52.7920 C   0  0  2  0  0  0  0  0  0  0  0  0
   31.6032    8.1165   53.2187 O   0  0  0  0  0  0  0  0  0  0  0  0
   33.0065    6.4108   54.0392 C   0  0  0  0  0  0  0  0  0  0  0  0
   33.3407    7.3781   55.0159 O   0  0  0  0  0  0  0  0  0  0  0  0
   26.6298    5.8972   51.7030 C   0  0  2  0  0  0  0  0  0  0  0  0
   25.6423    4.9422   52.2072 N   0  3  0  0  0  0  0  0  0  0  0  0
   27.9365    5.1441   51.2862 C   0  0  0  0  0  0  0  0  0  0  0  0
   28.9965    6.1512   50.8006 C   0  0  2  0  0  0  0  0  0  0  0  0
   30.2473    5.4672   50.4563 N   0  3  0  0  0  0  0  0  0  0  0  0
   29.2725    7.2058   51.8903 C   0  0  2  0  0  0  0  0  0  0  0  0
   27.9972    7.9449   52.3403 C   0  0  2  0  0  0  0  0  0  0  0  0
   28.3874    8.7704   53.4546 O   0  0  0  0  0  0  0  0  0  0  0  0
   26.9136    6.9292   52.7829 C   0  0  1  0  0  0  0  0  0  0  0  0
   25.7335    7.6191   53.0904 O   0  0  0  0  0  0  0  0  0  0  0  0
   29.0241    8.2627   54.6242 C   0  0  1  0  0  0  0  0  0  0  0  0
   28.3459    8.9108   55.8836 C   0  0  2  0  0  0  0  0  0  0  0  0
   28.9196   10.1467   56.2739 O   0  0  0  0  0  0  0  0  0  0  0  0
   28.5658    7.7681   56.8650 C   0  0  2  0  0  0  0  0  0  0  0  0
   29.9801    7.6210   57.1930 O   0  0  0  0  0  0  0  0  0  0  0  0
   28.1516    6.5476   56.0550 C   0  0  2  0  0  0  0  0  0  0  0  0
   28.7613    6.8421   54.7865 O   0  0  0  0  0  0  0  0  0  0  0  0
   26.6078    6.3231   55.9450 C   0  0  0  0  0  0  0  0  0  0  0  0
   26.2963    5.1557   55.1743 O   0  0  0  0  0  0  0  0  0  0  0  0
   30.2377    6.6966   58.2469 C   0  0  2  0  0  0  0  0  0  0  0  0
   31.7072    6.7156   58.7898 C   0  0  2  0  0  0  0  0  0  0  0  0
   32.7220    6.4392   57.7280 N   0  3  0  0  0  0  0  0  0  0  0  0
   31.7826    5.6617   59.9444 C   0  0  1  0  0  0  0  0  0  0  0  0
   30.8688    6.1185   61.0138 O   0  0  0  0  0  0  0  0  0  0  0  0
   31.3374    4.2207   59.4788 C   0  0  2  0  0  0  0  0  0  0  0  0
   32.2612    3.7573   58.4806 O   0  0  0  0  0  0  0  0  0  0  0  0
   29.8606    4.3197   58.9120 C   0  0  1  0  0  0  0  0  0  0  0  0
   29.8678    5.3088   57.8281 O   0  0  0  0  0  0  0  0  0  0  0  0
   29.2808    2.9834   58.3950 C   0  0  0  0  0  0  0  0  0  0  0  0
   27.9256    3.1190   57.7954 N   0  3  0  0  0  0  0  0  0  0  0  0
  1  2  1  6  0  0  0
  1  3  1  0  0  0  0
  1 10  1  0  0  0  0
  3  4  1  6  0  0  0
  3  5  1  0  0  0  0
  5  6  1  1  0  0  0
  5  7  1  0  0  0  0
  7  8  1  6  0  0  0
  7  9  1  0  0  0  0
  9 10  1  0  0  0  0
  9 11  1  1  0  0  0
 11 12  1  0  0  0  0
 13 14  1  1  0  0  0
 13 15  1  0  0  0  0
 13 21  1  0  0  0  0
 15 16  1  0  0  0  0
 16 17  1  1  0  0  0
 16 18  1  0  0  0  0
 18  2  1  6  0  0  0
 18 19  1  0  0  0  0
 19 20  1  1  0  0  0
 19 21  1  0  0  0  0
 21 22  1  6  0  0  0
 23 20  1  6  0  0  0
 23 24  1  0  0  0  0
 23 29  1  0  0  0  0
 24 25  1  1  0  0  0
 24 26  1  0  0  0  0
 26 27  1  6  0  0  0
 26 28  1  0  0  0  0
 28 29  1  0  0  0  0
 28 30  1  6  0  0  0
 30 31  1  0  0  0  0
 32 27  1  6  0  0  0
 32 33  1  0  0  0  0
 32 40  1  0  0  0  0
 33 34  1  6  0  0  0
 33 35  1  0  0  0  0
 35 36  1  1  0  0  0
 35 37  1  0  0  0  0
 37 38  1  6  0  0  0
 37 39  1  0  0  0  0
 39 40  1  0  0  0  0
 39 41  1  6  0  0  0
 41 42  1  0  0  0  0
M  CHG  5   4   1  14   1  17   1  34   1  42   1
M  END
>  <CHROM.1>
165.93526666,-157.07640524,-81.24429627,-106.17142261,52.54712952,75.34015122
-46.25072080,-40.10989879,58.08222879,-55.55255718,-135.53069185,-54.41906695
59.48276068,171.61303662,-169.38340229,-179.77533695,173.06391613,158.60339607
-176.28929641,84.08876595,-176.59384882,179.56612186,30.02927469,6.83027320
54.60252902,-1.46351877,0.21101550,1.90423154

>  <Name>
1j7t

>  <RI>
0

>  <Rbt.Current_Directory>
/home/itssahil/PROJECTS/Mol_Feturizer/New_Systems/rnas/1j7t

>  <Rbt.Executable>
rbdock ($Id: //depot/dev/client3/rdock/2013.1/src/exe/rbdock.cxx#4 $)

>  <Rbt.Library>
libRbt.so (2013.1, Build901 2013/11/27)

>  <Rbt.Parameter_File>
/export/apps/rDock/src/rDock_2013.1_src/data/scripts/dock_solv.prm

>  <Rbt.Receptor>
prm/pocket_docking_6.prm

>  <SCORE>
-61.7884

>  <SCORE.INTER>
-47.6059

>  <SCORE.INTER.CONST>
1

>  <SCORE.INTER.POLAR>
-7.64031

>  <SCORE.INTER.ROT>
9

>  <SCORE.INTER.SOLV>
20.7377

>  <SCORE.INTER.VDW>
-22.7821

>  <SCORE.INTER.norm>
-1.13347

>  <SCORE.INTRA>
-14.1847

>  <SCORE.INTRA.DIHEDRAL>
-21.2702

>  <SCORE.INTRA.DIHEDRAL.0>
46.2143

>  <SCORE.INTRA.POLAR>
-1.08457

>  <SCORE.INTRA.POLAR.0>
-1.76436

>  <SCORE.INTRA.REPUL>
0.222709

>  <SCORE.INTRA.REPUL.0>
0

>  <SCORE.INTRA.SOLV>
3.23982

>  <SCORE.INTRA.SOLV.lig_0>
-148.643

>  <SCORE.INTRA.VDW>
-2.59548

>  <SCORE.INTRA.VDW.0>
-4.83512

>  <SCORE.INTRA.norm>
-0.33773

>  <SCORE.RESTR>
0.00224476

>  <SCORE.RESTR.CAVITY>
0.00224476

>  <SCORE.RESTR.norm>
5.34468e-05

>  <SCORE.SYSTEM>
0

>  <SCORE.SYSTEM.CONST>
0

>  <SCORE.SYSTEM.DIHEDRAL>
0

>  <SCORE.SYSTEM.SOLV>
0

>  <SCORE.SYSTEM.norm>
0

>  <SCORE.heavy>
42

>  <SCORE.norm>
-1.47115

>  <RMSD>
4.863

$$$$
1j7t
 OpenBabel11021811393D
libRbt.so/2013.1/901 2013/11/27
 42 45  0  0  0  0  0  0  0  0999 V2000
   30.1604    9.3037   52.4581 C   0  0  2  0  0  0  0  0  0  0  0  0
   29.3275    8.5190   51.5675 O   0  0  0  0  0  0  0  0  0  0  0  0
   31.1203   10.1371   51.5613 C   0  0  2  0  0  0  0  0  0  0  0  0
   30.4383   10.9488   50.5128 N   0  3  0  0  0  0  0  0  0  0  0  0
   32.0846    9.1597   50.8544 C   0  0  1  0  0  0  0  0  0  0  0  0
   32.9864    9.8574   50.0424 O   0  0  0  0  0  0  0  0  0  0  0  0
   32.8403    8.3089   51.9026 C   0  0  2  0  0  0  0  0  0  0  0  0
   33.7453    7.4212   51.2764 O   0  0  0  0  0  0  0  0  0  0  0  0
   31.8518    7.5110   52.7262 C   0  0  2  0  0  0  0  0  0  0  0  0
   30.9142    8.3976   53.3235 O   0  0  0  0  0  0  0  0  0  0  0  0
   32.5041    6.7410   53.8525 C   0  0  0  0  0  0  0  0  0  0  0  0
   32.9700    7.6464   54.8345 O   0  0  0  0  0  0  0  0  0  0  0  0
   26.1060    5.8349   52.0830 C   0  0  2  0  0  0  0  0  0  0  0  0
   25.3076    4.7014   52.5511 N   0  3  0  0  0  0  0  0  0  0  0  0
   27.3656    5.3182   51.3116 C   0  0  0  0  0  0  0  0  0  0  0  0
   28.2345    6.5074   50.8593 C   0  0  2  0  0  0  0  0  0  0  0  0
   29.4476    6.0392   50.1809 N   0  3  0  0  0  0  0  0  0  0  0  0
   28.6276    7.3752   52.0709 C   0  0  2  0  0  0  0  0  0  0  0  0
   27.4060    7.8757   52.8662 C   0  0  2  0  0  0  0  0  0  0  0  0
   27.9334    8.5279   54.0375 O   0  0  0  0  0  0  0  0  0  0  0  0
   26.5066    6.6832   53.2794 C   0  0  1  0  0  0  0  0  0  0  0  0
   25.3554    7.1716   53.9113 O   0  0  0  0  0  0  0  0  0  0  0  0
   27.1613    8.7893   55.2066 C   0  0  1  0  0  0  0  0  0  0  0  0
   27.7973    8.0071   56.4106 C   0  0  2  0  0  0  0  0  0  0  0  0
   27.3153    6.6820   56.5548 O   0  0  0  0  0  0  0  0  0  0  0  0
   27.3929    8.9573   57.5291 C   0  0  2  0  0  0  0  0  0  0  0  0
   25.9495    8.9339   57.7434 O   0  0  0  0  0  0  0  0  0  0  0  0
   27.7510   10.3209   56.9549 C   0  0  2  0  0  0  0  0  0  0  0  0
   27.2737   10.1828   55.6055 O   0  0  0  0  0  0  0  0  0  0  0  0
   29.2701   10.6859   57.0233 C   0  0  0  0  0  0  0  0  0  0  0  0
   29.7505   10.7013   58.3735 O   0  0  0  0  0  0  0  0  0  0  0  0
   25.4875    7.7880   58.4540 C   0  0  2  0  0  0  0  0  0  0  0  0
   24.0024    7.8770   58.9449 C   0  0  2  0  0  0  0  0  0  0  0  0
   23.7539    9.0532   59.8326 N   0  3  0  0  0  0  0  0  0  0  0  0
   23.6792    6.5297   59.6729 C   0  0  1  0  0  0  0  0  0  0  0  0
   23.7894    5.4515   58.6666 O   0  0  0  0  0  0  0  0  0  0  0  0
   24.6805    6.2245   60.8542 C   0  0  2  0  0  0  0  0  0  0  0  0
   24.5295    7.2433   61.8561 O   0  0  0  0  0  0  0  0  0  0  0  0
   26.1500    6.1972   60.2609 C   0  0  1  0  0  0  0  0  0  0  0  0
   26.3889    7.4907   59.6105 O   0  0  0  0  0  0  0  0  0  0  0  0
   27.2581    5.9249   61.3034 C   0  0  0  0  0  0  0  0  0  0  0  0
   28.5893    5.6552   60.6954 N   0  3  0  0  0  0  0  0  0  0  0  0
  1  2  1  6  0  0  0
  1  3  1  0  0  0  0
  1 10  1  0  0  0  0
  3  4  1  6  0  0  0
  3  5  1  0  0  0  0
  5  6  1  1  0  0  0
  5  7  1  0  0  0  0
  7  8  1  6  0  0  0
  7  9  1  0  0  0  0
  9 10  1  0  0  0  0
  9 11  1  1  0  0  0
 11 12  1  0  0  0  0
 13 14  1  1  0  0  0
 13 15  1  0  0  0  0
 13 21  1  0  0  0  0
 15 16  1  0  0  0  0
 16 17  1  1  0  0  0
 16 18  1  0  0  0  0
 18  2  1  6  0  0  0
 18 19  1  0  0  0  0
 19 20  1  1  0  0  0
 19 21  1  0  0  0  0
 21 22  1  6  0  0  0
 23 20  1  6  0  0  0
 23 24  1  0  0  0  0
 23 29  1  0  0  0  0
 24 25  1  1  0  0  0
 24 26  1  0  0  0  0
 26 27  1  6  0  0  0
 26 28  1  0  0  0  0
 28 29  1  0  0  0  0
 28 30  1  6  0  0  0
 30 31  1  0  0  0  0
 32 27  1  1  0  0  0
 32 33  1  0  0  0  0
 32 40  1  0  0  0  0
 33 34  1  1  0  0  0
 33 35  1  0  0  0  0
 35 36  1  6  0  0  0
 35 37  1  0  0  0  0
 37 38  1  1  0  0  0
 37 39  1  0  0  0  0
 39 40  1  0  0  0  0
 39 41  1  1  0  0  0
 41 42  1  0  0  0  0
M  CHG  5   4   1  14   1  17   1  34   1  42   1
M  END
>  <CHROM.1>
161.53366149,-161.57517143,164.69302289,-74.97463741,-54.21757518,69.39275380
53.40526084,76.15523412,-174.72857280,-161.41360626,117.95040557,65.72063568
-45.85585899,76.69770444,168.28463764,-59.92344896,176.01217314,43.95194473
-55.95659528,177.92653484,169.35198593,-177.08144562,28.13793414,7.82526202
55.24132533,-0.88759247,0.46054132,1.35335289

>  <Name>
1j7t

>  <RI>
224

>  <Rbt.Current_Directory>
/home/itssahil/PROJECTS/Mol_Feturizer/New_Systems/rnas/1j7t

>  <Rbt.Executable>
rbdock ($Id: //depot/dev/client3/rdock/2013.1/src/exe/rbdock.cxx#4 $)

>  <Rbt.Library>
libRbt.so (2013.1, Build901 2013/11/27)

>  <Rbt.Parameter_File>
/export/apps/rDock/src/rDock_2013.1_src/data/scripts/dock_solv.prm

>  <Rbt.Receptor>
prm/pocket_docking_7.prm

>  <SCORE>
-52.8234

>  <SCORE.INTER>
-39.7705

>  <SCORE.INTER.CONST>
1

>  <SCORE.INTER.POLAR>
-5.10742

>  <SCORE.INTER.ROT>
9

>  <SCORE.INTER.SOLV>
26.9373

>  <SCORE.INTER.VDW>
-28.068

>  <SCORE.INTER.norm>
-0.946916

>  <SCORE.INTRA>
-13.0529

>  <SCORE.INTRA.DIHEDRAL>
-26.7978

>  <SCORE.INTRA.DIHEDRAL.0>
46.2143

>  <SCORE.INTRA.POLAR>
0.848533

>  <SCORE.INTRA.POLAR.0>
-1.76436

>  <SCORE.INTRA.REPUL>
0

>  <SCORE.INTRA.REPUL.0>
0

>  <SCORE.INTRA.SOLV>
-4.9772

>  <SCORE.INTRA.SOLV.lig_0>
-148.643

>  <SCORE.INTRA.VDW>
-0.0504459

>  <SCORE.INTRA.VDW.0>
-4.83512

>  <SCORE.INTRA.norm>
-0.310784

>  <SCORE.RESTR>
0

>  <SCORE.RESTR.CAVITY>
0

>  <SCORE.RESTR.norm>
0

>  <SCORE.SYSTEM>
0

>  <SCORE.SYSTEM.CONST>
0

>  <SCORE.SYSTEM.DIHEDRAL>
0

>  <SCORE.SYSTEM.SOLV>
0

>  <SCORE.SYSTEM.norm>
0

>  <SCORE.heavy>
42

>  <SCORE.norm>
-1.2577

>  <RMSD>
4.871

$$$$
1j7t
 OpenBabel11021811393D
libRbt.so/2013.1/901 2013/11/27
 42 45  0  0  0  0  0  0  0  0999 V2000
   29.3320    6.1930   52.3940 C   0  0  2  0  0  0  0  0  0  0  0  0
   28.7635    7.4008   52.9602 O   0  0  0  0  0  0  0  0  0  0  0  0
   28.9617    5.0264   53.3542 C   0  0  2  0  0  0  0  0  0  0  0  0
   27.5064    4.9145   53.6593 N   0  3  0  0  0  0  0  0  0  0  0  0
   29.7117    5.2462   54.6862 C   0  0  1  0  0  0  0  0  0  0  0  0
   29.4285    4.2136   55.5879 O   0  0  0  0  0  0  0  0  0  0  0  0
   31.2341    5.3424   54.4281 C   0  0  2  0  0  0  0  0  0  0  0  0
   31.9422    5.5223   55.6387 O   0  0  0  0  0  0  0  0  0  0  0  0
   31.5264    6.5057   53.5044 C   0  0  2  0  0  0  0  0  0  0  0  0
   30.7829    6.3496   52.3024 O   0  0  0  0  0  0  0  0  0  0  0  0
   32.9831    6.5968   53.1086 C   0  0  0  0  0  0  0  0  0  0  0  0
   33.2935    7.9315   52.7572 O   0  0  0  0  0  0  0  0  0  0  0  0
   30.4648   10.3050   50.4069 C   0  0  2  0  0  0  0  0  0  0  0  0
   30.6568   11.5406   49.6468 N   0  3  0  0  0  0  0  0  0  0  0  0
   29.1757    9.5688   49.9123 C   0  0  0  0  0  0  0  0  0  0  0  0
   28.9430    8.2923   50.7430 C   0  0  2  0  0  0  0  0  0  0  0  0
   27.7086    7.6175   50.3283 N   0  3  0  0  0  0  0  0  0  0  0  0
   28.8594    8.6369   52.2429 C   0  0  2  0  0  0  0  0  0  0  0  0
   30.1054    9.3878   52.7517 C   0  0  2  0  0  0  0  0  0  0  0  0
   29.8120    9.7728   54.1086 O   0  0  0  0  0  0  0  0  0  0  0  0
   30.3674   10.6458   51.8854 C   0  0  1  0  0  0  0  0  0  0  0  0
   31.5588   11.2532   52.3035 O   0  0  0  0  0  0  0  0  0  0  0  0
   30.2508    9.0364   55.2472 C   0  0  1  0  0  0  0  0  0  0  0  0
   29.7038    9.7413   56.5394 C   0  0  2  0  0  0  0  0  0  0  0  0
   30.5518   10.7599   57.0419 O   0  0  0  0  0  0  0  0  0  0  0  0
   29.5884    8.5117   57.4294 C   0  0  2  0  0  0  0  0  0  0  0  0
   30.9056    7.9878   57.7763 O   0  0  0  0  0  0  0  0  0  0  0  0
   28.9164    7.4983   56.5136 C   0  0  2  0  0  0  0  0  0  0  0  0
   29.6338    7.7207   55.2873 O   0  0  0  0  0  0  0  0  0  0  0  0
   27.3718    7.6806   56.3507 C   0  0  0  0  0  0  0  0  0  0  0  0
   26.7646    6.5333   55.7433 O   0  0  0  0  0  0  0  0  0  0  0  0
   30.9133    7.1614   58.9376 C   0  0  2  0  0  0  0  0  0  0  0  0
   32.2893    6.4790   59.2463 C   0  0  2  0  0  0  0  0  0  0  0  0
   32.7816    5.6292   58.1198 N   0  3  0  0  0  0  0  0  0  0  0  0
   32.1025    5.6436   60.5565 C   0  0  1  0  0  0  0  0  0  0  0  0
   31.7844    6.5971   61.6415 O   0  0  0  0  0  0  0  0  0  0  0  0
   30.9286    4.5946   60.4435 C   0  0  2  0  0  0  0  0  0  0  0  0
   31.2679    3.6368   59.4276 O   0  0  0  0  0  0  0  0  0  0  0  0
   29.5978    5.3795   60.0902 C   0  0  1  0  0  0  0  0  0  0  0  0
   29.8392    6.1238   58.8488 O   0  0  0  0  0  0  0  0  0  0  0  0
   28.3487    4.4839   59.9270 C   0  0  0  0  0  0  0  0  0  0  0  0
   28.5322    3.3867   58.9386 N   0  3  0  0  0  0  0  0  0  0  0  0
  1  2  1  1  0  0  0
  1  3  1  0  0  0  0
  1 10  1  0  0  0  0
  3  4  1  1  0  0  0
  3  5  1  0  0  0  0
  5  6  1  1  0  0  0
  5  7  1  0  0  0  0
  7  8  1  1  0  0  0
  7  9  1  0  0  0  0
  9 10  1  0  0  0  0
  9 11  1  6  0  0  0
 11 12  1  0  0  0  0
 13 14  1  6  0  0  0
 13 15  1  0  0  0  0
 13 21  1  0  0  0  0
 15 16  1  0  0  0  0
 16 17  1  6  0  0  0
 16 18  1  0  0  0  0
 18  2  1  1  0  0  0
 18 19  1  0  0  0  0
 19 20  1  1  0  0  0
 19 21  1  0  0  0  0
 21 22  1  1  0  0  0
 23 20  1  6  0  0  0
 23 24  1  0  0  0  0
 23 29  1  0  0  0  0
 24 25  1  1  0  0  0
 24 26  1  0  0  0  0
 26 27  1  6  0  0  0
 26 28  1  0  0  0  0
 28 29  1  0  0  0  0
 28 30  1  6  0  0  0
 30 31  1  0  0  0  0
 32 27  1  6  0  0  0
 32 33  1  0  0  0  0
 32 40  1  0  0  0  0
 33 34  1  6  0  0  0
 33 35  1  0  0  0  0
 35 36  1  1  0  0  0
 35 37  1  0  0  0  0
 37 38  1  6  0  0  0
 37 39  1  0  0  0  0
 39 40  1  0  0  0  0
 39 41  1  6  0  0  0
 41 42  1  0  0  0  0
M  CHG  5   4   1  14   1  17   1  34   1  42   1
M  END
>  <CHROM.1>
-175.59329313,27.36332819,-63.56155946,73.65448029,177.05697780,-155.34407911
77.85536458,-50.11074929,-52.52947072,97.77246485,-178.42493869,71.10322649
-83.89883207,159.39325060,174.38909389,-166.45176270,179.61293133,161.07665027
177.22466062,66.25681527,-54.41804433,112.44782896,30.12957485,7.19001892
55.31051511,1.69474828,-0.96379764,-1.02817901

>  <Name>
1j7t

>  <RI>
0

>  <Rbt.Current_Directory>
/home/itssahil/PROJECTS/Mol_Feturizer/New_Systems/rnas/1j7t

>  <Rbt.Executable>
rbdock ($Id: //depot/dev/client3/rdock/2013.1/src/exe/rbdock.cxx#4 $)

>  <Rbt.Library>
libRbt.so (2013.1, Build901 2013/11/27)

>  <Rbt.Parameter_File>
/export/apps/rDock/src/rDock_2013.1_src/data/scripts/dock_solv.prm

>  <Rbt.Receptor>
prm/pocket_docking_4.prm

>  <SCORE>
-53.9258

>  <SCORE.INTER>
-44.2314

>  <SCORE.INTER.CONST>
1

>  <SCORE.INTER.POLAR>
-6.57672

>  <SCORE.INTER.ROT>
9

>  <SCORE.INTER.SOLV>
26.053

>  <SCORE.INTER.VDW>
-25.8495

>  <SCORE.INTER.norm>
-1.05313

>  <SCORE.INTRA>
-9.73585

>  <SCORE.INTRA.DIHEDRAL>
-21.4398

>  <SCORE.INTRA.DIHEDRAL.0>
46.2143

>  <SCORE.INTRA.POLAR>
-1.26238

>  <SCORE.INTRA.POLAR.0>
-1.76436

>  <SCORE.INTRA.REPUL>
0.430711

>  <SCORE.INTRA.REPUL.0>
0

>  <SCORE.INTRA.SOLV>
8.91199

>  <SCORE.INTRA.SOLV.lig_0>
-148.643

>  <SCORE.INTRA.VDW>
-1.33342

>  <SCORE.INTRA.VDW.0>
-4.83512

>  <SCORE.INTRA.norm>
-0.231806

>  <SCORE.RESTR>
0.0414626

>  <SCORE.RESTR.CAVITY>
0.0414626

>  <SCORE.RESTR.norm>
0.000987204

>  <SCORE.SYSTEM>
0

>  <SCORE.SYSTEM.CONST>
0

>  <SCORE.SYSTEM.DIHEDRAL>
0

>  <SCORE.SYSTEM.SOLV>
0

>  <SCORE.SYSTEM.norm>
0

>  <SCORE.heavy>
42

>  <SCORE.norm>
-1.28395

>  <RMSD>
4.876

$$$$
1j7t
 OpenBabel11021811393D
libRbt.so/2013.1/901 2013/11/27
 42 45  0  0  0  0  0  0  0  0999 V2000
   30.1439   10.1005   51.6156 C   0  0  2  0  0  0  0  0  0  0  0  0
   30.9371    8.9091   51.3832 O   0  0  0  0  0  0  0  0  0  0  0  0
   28.9658   10.0639   50.6004 C   0  0  2  0  0  0  0  0  0  0  0  0
   28.1693    8.8034   50.6224 N   0  3  0  0  0  0  0  0  0  0  0  0
   29.5511   10.2324   49.1812 C   0  0  1  0  0  0  0  0  0  0  0  0
   28.5310   10.2233   48.2226 O   0  0  0  0  0  0  0  0  0  0  0  0
   30.3674   11.5439   49.0964 C   0  0  2  0  0  0  0  0  0  0  0  0
   30.8949   11.7284   47.7976 O   0  0  0  0  0  0  0  0  0  0  0  0
   31.5057   11.5062   50.0938 C   0  0  2  0  0  0  0  0  0  0  0  0
   30.9821   11.2784   51.3960 O   0  0  0  0  0  0  0  0  0  0  0  0
   32.2827   12.8022   50.1556 C   0  0  0  0  0  0  0  0  0  0  0  0
   33.6205   12.5324   50.5280 O   0  0  0  0  0  0  0  0  0  0  0  0
   33.5689    6.3719   53.5007 C   0  0  2  0  0  0  0  0  0  0  0  0
   34.6064    5.9105   54.4238 N   0  3  0  0  0  0  0  0  0  0  0  0
   34.1901    7.3408   52.4406 C   0  0  0  0  0  0  0  0  0  0  0  0
   33.0922    7.8672   51.4965 C   0  0  2  0  0  0  0  0  0  0  0  0
   33.6481    8.8192   50.5292 N   0  3  0  0  0  0  0  0  0  0  0  0
   31.9736    8.5529   52.3053 C   0  0  2  0  0  0  0  0  0  0  0  0
   31.3617    7.6294   53.3768 C   0  0  2  0  0  0  0  0  0  0  0  0
   30.4572    8.4503   54.1406 O   0  0  0  0  0  0  0  0  0  0  0  0
   32.4722    7.0615   54.2965 C   0  0  1  0  0  0  0  0  0  0  0  0
   31.9042    6.1492   55.1954 O   0  0  0  0  0  0  0  0  0  0  0  0
   30.8373    9.1477   55.3240 C   0  0  1  0  0  0  0  0  0  0  0  0
   29.5673    9.8571   55.9156 C   0  0  2  0  0  0  0  0  0  0  0  0
   29.3351   11.1530   55.3906 O   0  0  0  0  0  0  0  0  0  0  0  0
   29.9623    9.8266   57.3854 C   0  0  2  0  0  0  0  0  0  0  0  0
   31.0874   10.7186   57.6466 O   0  0  0  0  0  0  0  0  0  0  0  0
   30.4551    8.3981   57.5694 C   0  0  2  0  0  0  0  0  0  0  0  0
   31.2317    8.2208   56.3722 O   0  0  0  0  0  0  0  0  0  0  0  0
   29.3261    7.3264   57.7206 C   0  0  0  0  0  0  0  0  0  0  0  0
   28.1999    7.6225   56.8852 O   0  0  0  0  0  0  0  0  0  0  0  0
   30.7290   11.9213   58.3221 C   0  0  2  0  0  0  0  0  0  0  0  0
   31.2792   12.0399   59.7841 C   0  0  2  0  0  0  0  0  0  0  0  0
   30.8390   10.9143   60.6632 N   0  3  0  0  0  0  0  0  0  0  0  0
   30.8044   13.4232   60.3415 C   0  0  1  0  0  0  0  0  0  0  0  0
   31.4310   14.4699   59.5054 O   0  0  0  0  0  0  0  0  0  0  0  0
   29.2367   13.5955   60.2785 C   0  0  2  0  0  0  0  0  0  0  0  0
   28.6342   12.6131   61.1368 O   0  0  0  0  0  0  0  0  0  0  0  0
   28.7809   13.4174   58.7710 C   0  0  1  0  0  0  0  0  0  0  0  0
   29.2435   12.0993   58.3214 O   0  0  0  0  0  0  0  0  0  0  0  0
   27.2574   13.5415   58.5422 C   0  0  0  0  0  0  0  0  0  0  0  0
   26.6903   14.8316   59.0205 N   0  3  0  0  0  0  0  0  0  0  0  0
  1  2  1  6  0  0  0
  1  3  1  0  0  0  0
  1 10  1  0  0  0  0
  3  4  1  6  0  0  0
  3  5  1  0  0  0  0
  5  6  1  6  0  0  0
  5  7  1  0  0  0  0
  7  8  1  6  0  0  0
  7  9  1  0  0  0  0
  9 10  1  0  0  0  0
  9 11  1  1  0  0  0
 11 12  1  0  0  0  0
 13 14  1  1  0  0  0
 13 15  1  0  0  0  0
 13 21  1  0  0  0  0
 15 16  1  0  0  0  0
 16 17  1  6  0  0  0
 16 18  1  0  0  0  0
 18  2  1  6  0  0  0
 18 19  1  0  0  0  0
 19 20  1  1  0  0  0
 19 21  1  0  0  0  0
 21 22  1  1  0  0  0
 23 20  1  6  0  0  0
 23 24  1  0  0  0  0
 23 29  1  0  0  0  0
 24 25  1  6  0  0  0
 24 26  1  0  0  0  0
 26 27  1  6  0  0  0
 26 28  1  0  0  0  0
 28 29  1  0  0  0  0
 28 30  1  6  0  0  0
 30 31  1  0  0  0  0
 32 27  1  1  0  0  0
 32 33  1  0  0  0  0
 32 40  1  0  0  0  0
 33 34  1  1  0  0  0
 33 35  1  0  0  0  0
 35 36  1  6  0  0  0
 35 37  1  0  0  0  0
 37 38  1  1  0  0  0
 37 39  1  0  0  0  0
 39 40  1  0  0  0  0
 39 41  1  1  0  0  0
 41 42  1  0  0  0  0
M  CHG  5   4   1  14   1  17   1  34   1  42   1
M  END
>  <CHROM.1>
-170.11216166,-147.48681348,-53.53510932,177.49419757,176.16691741,-150.99617352
-55.53804027,52.89280117,71.47500860,-91.83103947,-176.63609505,89.42051127
-142.42280103,105.57740801,112.23423465,36.88816140,-58.28070324,170.22859077
-77.58911521,179.63974052,56.66687047,-172.10610215,30.65722959,10.22937184
54.70026059,1.12773636,1.08279598,-1.46207978

>  <Name>
1j7t

>  <RI>
0

>  <Rbt.Current_Directory>
/home/itssahil/PROJECTS/Mol_Feturizer/New_Systems/rnas/1j7t

>  <Rbt.Executable>
rbdock ($Id: //depot/dev/client3/rdock/2013.1/src/exe/rbdock.cxx#4 $)

>  <Rbt.Library>
libRbt.so (2013.1, Build901 2013/11/27)

>  <Rbt.Parameter_File>
/export/apps/rDock/src/rDock_2013.1_src/data/scripts/dock_solv.prm

>  <Rbt.Receptor>
prm/blind_docking_80.prm

>  <SCORE>
-2.27859

>  <SCORE.INTER>
-23.8737

>  <SCORE.INTER.CONST>
1

>  <SCORE.INTER.POLAR>
-5.74805

>  <SCORE.INTER.ROT>
9

>  <SCORE.INTER.SOLV>
39.7902

>  <SCORE.INTER.VDW>
-19.6191

>  <SCORE.INTER.norm>
-0.568422

>  <SCORE.INTRA>
-2.65068

>  <SCORE.INTRA.DIHEDRAL>
-9.31436

>  <SCORE.INTRA.DIHEDRAL.0>
46.2143

>  <SCORE.INTRA.POLAR>
0.388123

>  <SCORE.INTRA.POLAR.0>
-1.76436

>  <SCORE.INTRA.REPUL>
0.0157054

>  <SCORE.INTRA.REPUL.0>
0

>  <SCORE.INTRA.SOLV>
-1.23333

>  <SCORE.INTRA.SOLV.lig_0>
-148.643

>  <SCORE.INTRA.VDW>
1.22502

>  <SCORE.INTRA.VDW.0>
-4.83512

>  <SCORE.INTRA.norm>
-0.0631114

>  <SCORE.RESTR>
24.2458

>  <SCORE.RESTR.CAVITY>
24.2458

>  <SCORE.RESTR.norm>
0.577282

>  <SCORE.SYSTEM>
0

>  <SCORE.SYSTEM.CONST>
0

>  <SCORE.SYSTEM.DIHEDRAL>
0

>  <SCORE.SYSTEM.SOLV>
0

>  <SCORE.SYSTEM.norm>
0

>  <SCORE.heavy>
42

>  <SCORE.norm>
-0.0542521

>  <RMSD>
4.900

$$$$
1j7t
 OpenBabel11021811393D
libRbt.so/2013.1/901 2013/11/27
 42 45  0  0  0  0  0  0  0  0999 V2000
   31.8606    8.6829   52.9329 C   0  0  2  0  0  0  0  0  0  0  0  0
   30.6520    8.6500   52.1326 O   0  0  0  0  0  0  0  0  0  0  0  0
   33.0151    9.1267   51.9893 C   0  0  2  0  0  0  0  0  0  0  0  0
   32.7556   10.3945   51.2484 N   0  3  0  0  0  0  0  0  0  0  0  0
   33.2424    8.0065   50.9509 C   0  0  1  0  0  0  0  0  0  0  0  0
   34.2854    8.3447   50.0807 O   0  0  0  0  0  0  0  0  0  0  0  0
   33.5436    6.6700   51.6696 C   0  0  2  0  0  0  0  0  0  0  0  0
   33.7763    5.6344   50.7356 O   0  0  0  0  0  0  0  0  0  0  0  0
   32.3759    6.2876   52.5542 C   0  0  2  0  0  0  0  0  0  0  0  0
   32.1121    7.3452   53.4673 O   0  0  0  0  0  0  0  0  0  0  0  0
   32.6404    5.0505   53.3829 C   0  0  0  0  0  0  0  0  0  0  0  0
   31.5861    4.8689   54.3084 O   0  0  0  0  0  0  0  0  0  0  0  0
   26.6596    7.9864   53.3445 C   0  0  2  0  0  0  0  0  0  0  0  0
   25.4481    7.3164   53.8186 N   0  3  0  0  0  0  0  0  0  0  0  0
   27.1204    7.3588   51.9872 C   0  0  0  0  0  0  0  0  0  0  0  0
   28.4230    8.0284   51.5092 C   0  0  2  0  0  0  0  0  0  0  0  0
   28.8988    7.4153   50.2647 N   0  3  0  0  0  0  0  0  0  0  0  0
   29.5153    7.9080   52.5899 C   0  0  2  0  0  0  0  0  0  0  0  0
   29.0780    8.4941   53.9466 C   0  0  2  0  0  0  0  0  0  0  0  0
   30.1276    8.1685   54.8781 O   0  0  0  0  0  0  0  0  0  0  0  0
   27.7422    7.8551   54.4040 C   0  0  1  0  0  0  0  0  0  0  0  0
   27.3157    8.4751   55.5858 O   0  0  0  0  0  0  0  0  0  0  0  0
   29.9015    7.9264   56.2642 C   0  0  1  0  0  0  0  0  0  0  0  0
   29.5527    6.4073   56.4557 C   0  0  2  0  0  0  0  0  0  0  0  0
   28.1731    6.1120   56.3192 O   0  0  0  0  0  0  0  0  0  0  0  0
   30.1061    6.2297   57.8627 C   0  0  2  0  0  0  0  0  0  0  0  0
   29.3041    6.9593   58.8395 O   0  0  0  0  0  0  0  0  0  0  0  0
   31.4628    6.9148   57.7771 C   0  0  2  0  0  0  0  0  0  0  0  0
   31.1253    8.0963   57.0302 O   0  0  0  0  0  0  0  0  0  0  0  0
   32.5858    6.0684   57.0928 C   0  0  0  0  0  0  0  0  0  0  0  0
   32.9559    4.9367   57.8905 O   0  0  0  0  0  0  0  0  0  0  0  0
   28.8107    6.1507   59.9045 C   0  0  2  0  0  0  0  0  0  0  0  0
   28.3229    4.7259   59.4728 C   0  0  2  0  0  0  0  0  0  0  0  0
   27.2431    4.7700   58.4406 N   0  3  0  0  0  0  0  0  0  0  0  0
   27.8469    3.9920   60.7707 C   0  0  1  0  0  0  0  0  0  0  0  0
   29.0272    3.8502   61.6507 O   0  0  0  0  0  0  0  0  0  0  0  0
   26.7307    4.7951   61.5456 C   0  0  2  0  0  0  0  0  0  0  0  0
   25.5657    4.8811   60.7089 O   0  0  0  0  0  0  0  0  0  0  0  0
   27.3085    6.2284   61.8975 C   0  0  1  0  0  0  0  0  0  0  0  0
   27.7183    6.8618   60.6389 O   0  0  0  0  0  0  0  0  0  0  0  0
   26.3223    7.1511   62.6491 C   0  0  0  0  0  0  0  0  0  0  0  0
   26.8138    8.5480   62.7961 N   0  3  0  0  0  0  0  0  0  0  0  0
  1  2  1  6  0  0  0
  1  3  1  0  0  0  0
  1 10  1  0  0  0  0
  3  4  1  6  0  0  0
  3  5  1  0  0  0  0
  5  6  1  6  0  0  0
  5  7  1  0  0  0  0
  7  8  1  6  0  0  0
  7  9  1  0  0  0  0
  9 10  1  0  0  0  0
  9 11  1  1  0  0  0
 11 12  1  0  0  0  0
 13 14  1  1  0  0  0
 13 15  1  0  0  0  0
 13 21  1  0  0  0  0
 15 16  1  0  0  0  0
 16 17  1  6  0  0  0
 16 18  1  0  0  0  0
 18  2  1  6  0  0  0
 18 19  1  0  0  0  0
 19 20  1  1  0  0  0
 19 21  1  0  0  0  0
 21 22  1  1  0  0  0
 23 20  1  6  0  0  0
 23 24  1  0  0  0  0
 23 29  1  0  0  0  0
 24 25  1  1  0  0  0
 24 26  1  0  0  0  0
 26 27  1  1  0  0  0
 26 28  1  0  0  0  0
 28 29  1  0  0  0  0
 28 30  1  6  0  0  0
 30 31  1  0  0  0  0
 32 27  1  6  0  0  0
 32 33  1  0  0  0  0
 32 40  1  0  0  0  0
 33 34  1  6  0  0  0
 33 35  1  0  0  0  0
 35 36  1  1  0  0  0
 35 37  1  0  0  0  0
 37 38  1  6  0  0  0
 37 39  1  0  0  0  0
 39 40  1  0  0  0  0
 39 41  1  6  0  0  0
 41 42  1  0  0  0  0
M  CHG  5   4   1  14   1  17   1  34   1  42   1
M  END
>  <CHROM.1>
161.19874768,-178.10525465,66.16718701,96.28396098,63.23412653,171.96737727
65.42398995,-49.71166471,179.05869861,-148.58592524,87.10596950,-65.60302791
-35.18248618,124.63579379,-39.76190287,-68.27343019,-54.91651330,78.43258384
170.00050415,-90.82341399,-171.77155815,171.11378822,29.73183946,6.89528198
55.80606935,-1.12287220,-0.21903962,1.87734355

>  <Name>
1j7t

>  <RI>
0

>  <Rbt.Current_Directory>
/home/itssahil/PROJECTS/Mol_Feturizer/New_Systems/rnas/1j7t

>  <Rbt.Executable>
rbdock ($Id: //depot/dev/client3/rdock/2013.1/src/exe/rbdock.cxx#4 $)

>  <Rbt.Library>
libRbt.so (2013.1, Build901 2013/11/27)

>  <Rbt.Parameter_File>
/export/apps/rDock/src/rDock_2013.1_src/data/scripts/dock_solv.prm

>  <Rbt.Receptor>
prm/pocket_docking_2.prm

>  <SCORE>
-33.746

>  <SCORE.INTER>
-33.2499

>  <SCORE.INTER.CONST>
1

>  <SCORE.INTER.POLAR>
-5.05944

>  <SCORE.INTER.ROT>
9

>  <SCORE.INTER.SOLV>
22.5979

>  <SCORE.INTER.VDW>
-22.4344

>  <SCORE.INTER.norm>
-0.791664

>  <SCORE.INTRA>
-3.20999

>  <SCORE.INTRA.DIHEDRAL>
-14.5671

>  <SCORE.INTRA.DIHEDRAL.0>
46.2143

>  <SCORE.INTRA.POLAR>
0.354461

>  <SCORE.INTRA.POLAR.0>
-1.76436

>  <SCORE.INTRA.REPUL>
0.000531996

>  <SCORE.INTRA.REPUL.0>
0

>  <SCORE.INTRA.SOLV>
-0.338452

>  <SCORE.INTRA.SOLV.lig_0>
-148.643

>  <SCORE.INTRA.VDW>
3.03498

>  <SCORE.INTRA.VDW.0>
-4.83512

>  <SCORE.INTRA.norm>
-0.0764283

>  <SCORE.RESTR>
2.71382

>  <SCORE.RESTR.CAVITY>
2.71382

>  <SCORE.RESTR.norm>
0.0646148

>  <SCORE.SYSTEM>
0

>  <SCORE.SYSTEM.CONST>
0

>  <SCORE.SYSTEM.DIHEDRAL>
0

>  <SCORE.SYSTEM.SOLV>
0

>  <SCORE.SYSTEM.norm>
0

>  <SCORE.heavy>
42

>  <SCORE.norm>
-0.803477

>  <RMSD>
4.914

$$$$
1j7t
 OpenBabel11021811393D
libRbt.so/2013.1/901 2013/11/27
 42 45  0  0  0  0  0  0  0  0999 V2000
   30.1715   10.2039   51.9417 C   0  0  2  0  0  0  0  0  0  0  0  0
   30.9775    9.0261   51.6857 O   0  0  0  0  0  0  0  0  0  0  0  0
   29.0830   10.2562   50.8315 C   0  0  2  0  0  0  0  0  0  0  0  0
   28.2834    9.0055   50.6897 N   0  3  0  0  0  0  0  0  0  0  0  0
   29.7864   10.5269   49.4836 C   0  0  1  0  0  0  0  0  0  0  0  0
   28.8507   10.6008   48.4450 O   0  0  0  0  0  0  0  0  0  0  0  0
   30.6112   11.8330   49.5684 C   0  0  2  0  0  0  0  0  0  0  0  0
   31.2469   12.1110   48.3364 O   0  0  0  0  0  0  0  0  0  0  0  0
   31.6612   11.7083   50.6518 C   0  0  2  0  0  0  0  0  0  0  0  0
   31.0289   11.3869   51.8843 O   0  0  0  0  0  0  0  0  0  0  0  0
   32.4344   12.9882   50.8780 C   0  0  0  0  0  0  0  0  0  0  0  0
   33.2313   13.2644   49.7423 O   0  0  0  0  0  0  0  0  0  0  0  0
   33.6052    6.6408   53.9779 C   0  0  2  0  0  0  0  0  0  0  0  0
   34.7103    6.2412   54.8499 N   0  3  0  0  0  0  0  0  0  0  0  0
   34.1658    7.2847   52.6665 C   0  0  0  0  0  0  0  0  0  0  0  0
   33.0051    7.7512   51.7672 C   0  0  2  0  0  0  0  0  0  0  0  0
   33.5130    8.4060   50.5572 N   0  3  0  0  0  0  0  0  0  0  0  0
   32.0926    8.7284   52.5340 C   0  0  2  0  0  0  0  0  0  0  0  0
   31.5475    8.1298   53.8454 C   0  0  2  0  0  0  0  0  0  0  0  0
   30.8534    9.2007   54.5139 O   0  0  0  0  0  0  0  0  0  0  0  0
   32.7129    7.6164   54.7286 C   0  0  1  0  0  0  0  0  0  0  0  0
   32.1873    6.9879   55.8652 O   0  0  0  0  0  0  0  0  0  0  0  0
   30.6064    9.2221   55.9173 C   0  0  1  0  0  0  0  0  0  0  0  0
   29.5292   10.3244   56.2183 C   0  0  2  0  0  0  0  0  0  0  0  0
   30.0720   11.6161   56.4325 O   0  0  0  0  0  0  0  0  0  0  0  0
   28.8985    9.6864   57.4482 C   0  0  2  0  0  0  0  0  0  0  0  0
   29.8214    9.6976   58.5786 O   0  0  0  0  0  0  0  0  0  0  0  0
   28.7164    8.2379   57.0169 C   0  0  2  0  0  0  0  0  0  0  0  0
   29.9683    7.9910   56.3539 O   0  0  0  0  0  0  0  0  0  0  0  0
   27.4821    7.9761   56.0929 C   0  0  0  0  0  0  0  0  0  0  0  0
   27.6529    8.5711   54.8003 O   0  0  0  0  0  0  0  0  0  0  0  0
   29.6928   10.8404   59.4206 C   0  0  2  0  0  0  0  0  0  0  0  0
   28.2163   11.2666   59.7248 C   0  0  2  0  0  0  0  0  0  0  0  0
   27.4309   11.5624   58.4883 N   0  3  0  0  0  0  0  0  0  0  0  0
   28.2845   12.5101   60.6729 C   0  0  1  0  0  0  0  0  0  0  0  0
   28.9259   12.0669   61.9298 O   0  0  0  0  0  0  0  0  0  0  0  0
   29.1324   13.6923   60.0608 C   0  0  2  0  0  0  0  0  0  0  0  0
   28.4751   14.1576   58.8708 O   0  0  0  0  0  0  0  0  0  0  0  0
   30.5885   13.1474   59.7529 C   0  0  1  0  0  0  0  0  0  0  0  0
   30.4496   11.9984   58.8507 O   0  0  0  0  0  0  0  0  0  0  0  0
   31.5446   14.1887   59.1280 C   0  0  0  0  0  0  0  0  0  0  0  0
   31.0723   15.5917   59.2797 N   0  3  0  0  0  0  0  0  0  0  0  0
  1  2  1  6  0  0  0
  1  3  1  0  0  0  0
  1 10  1  0  0  0  0
  3  4  1  6  0  0  0
  3  5  1  0  0  0  0
  5  6  1  6  0  0  0
  5  7  1  0  0  0  0
  7  8  1  6  0  0  0
  7  9  1  0  0  0  0
  9 10  1  0  0  0  0
  9 11  1  1  0  0  0
 11 12  1  0  0  0  0
 13 14  1  1  0  0  0
 13 15  1  0  0  0  0
 13 21  1  0  0  0  0
 15 16  1  0  0  0  0
 16 17  1  6  0  0  0
 16 18  1  0  0  0  0
 18  2  1  6  0  0  0
 18 19  1  0  0  0  0
 19 20  1  1  0  0  0
 19 21  1  0  0  0  0
 21 22  1  1  0  0  0
 23 20  1  6  0  0  0
 23 24  1  0  0  0  0
 23 29  1  0  0  0  0
 24 25  1  1  0  0  0
 24 26  1  0  0  0  0
 26 27  1  1  0  0  0
 26 28  1  0  0  0  0
 28 29  1  0  0  0  0
 28 30  1  6  0  0  0
 30 31  1  0  0  0  0
 32 27  1  6  0  0  0
 32 33  1  0  0  0  0
 32 40  1  0  0  0  0
 33 34  1  6  0  0  0
 33 35  1  0  0  0  0
 35 36  1  1  0  0  0
 35 37  1  0  0  0  0
 37 38  1  6  0  0  0
 37 39  1  0  0  0  0
 39 40  1  0  0  0  0
 39 41  1  6  0  0  0
 41 42  1  0  0  0  0
M  CHG  5   4   1  14   1  17   1  34   1  42   1
M  END
>  <CHROM.1>
178.46233542,-161.13724009,-58.69530801,-171.35642292,65.05995408,-67.60831586
-177.34038669,-54.15226340,-170.69260208,-157.55553291,-165.53516116,-58.25965488
-82.22965042,92.15245971,42.33824384,68.47471989,-173.14999943,-143.73281274
66.92493324,-74.63988059,16.42011573,-162.63497320,30.52885850,10.36449662
54.84263542,0.81914303,1.22366977,-1.09702992

>  <Name>
1j7t

>  <RI>
0

>  <Rbt.Current_Directory>
/home/itssahil/PROJECTS/Mol_Feturizer/New_Systems/rnas/1j7t

>  <Rbt.Executable>
rbdock ($Id: //depot/dev/client3/rdock/2013.1/src/exe/rbdock.cxx#4 $)

>  <Rbt.Library>
libRbt.so (2013.1, Build901 2013/11/27)

>  <Rbt.Parameter_File>
/export/apps/rDock/src/rDock_2013.1_src/data/scripts/dock_solv.prm

>  <Rbt.Receptor>
prm/blind_docking_80.prm

>  <SCORE>
-0.575442

>  <SCORE.INTER>
-24.6022

>  <SCORE.INTER.CONST>
1

>  <SCORE.INTER.POLAR>
-3.36422

>  <SCORE.INTER.ROT>
9

>  <SCORE.INTER.SOLV>
36.8873

>  <SCORE.INTER.VDW>
-27.0831

>  <SCORE.INTER.norm>
-0.585766

>  <SCORE.INTRA>
-0.714146

>  <SCORE.INTRA.DIHEDRAL>
-23.2444

>  <SCORE.INTRA.DIHEDRAL.0>
46.2143

>  <SCORE.INTRA.POLAR>
0.938222

>  <SCORE.INTRA.POLAR.0>
-1.76436

>  <SCORE.INTRA.REPUL>
0.00295288

>  <SCORE.INTRA.REPUL.0>
0

>  <SCORE.INTRA.SOLV>
3.18093

>  <SCORE.INTRA.SOLV.lig_0>
-148.643

>  <SCORE.INTRA.VDW>
6.11286

>  <SCORE.INTRA.VDW.0>
-4.83512

>  <SCORE.INTRA.norm>
-0.0170035

>  <SCORE.RESTR>
24.7409

>  <SCORE.RESTR.CAVITY>
24.7409

>  <SCORE.RESTR.norm>
0.589068

>  <SCORE.SYSTEM>
0

>  <SCORE.SYSTEM.CONST>
0

>  <SCORE.SYSTEM.DIHEDRAL>
0

>  <SCORE.SYSTEM.SOLV>
0

>  <SCORE.SYSTEM.norm>
0

>  <SCORE.heavy>
42

>  <SCORE.norm>
-0.013701

>  <RMSD>
4.930

$$$$
1j7t
 OpenBabel11021811393D
libRbt.so/2013.1/901 2013/11/27
 42 45  0  0  0  0  0  0  0  0999 V2000
   33.3098    6.8127   54.6556 C   0  0  2  0  0  0  0  0  0  0  0  0
   32.5128    6.2833   53.5661 O   0  0  0  0  0  0  0  0  0  0  0  0
   34.3660    5.7274   55.0114 C   0  0  2  0  0  0  0  0  0  0  0  0
   35.1780    5.2518   53.8546 N   0  3  0  0  0  0  0  0  0  0  0  0
   33.6216    4.5104   55.6028 C   0  0  1  0  0  0  0  0  0  0  0  0
   34.5267    3.5035   55.9582 O   0  0  0  0  0  0  0  0  0  0  0  0
   32.7820    4.9458   56.8272 C   0  0  2  0  0  0  0  0  0  0  0  0
   32.1084    3.8412   57.3975 O   0  0  0  0  0  0  0  0  0  0  0  0
   31.7645    5.9859   56.4090 C   0  0  2  0  0  0  0  0  0  0  0  0
   32.4353    7.0799   55.7966 O   0  0  0  0  0  0  0  0  0  0  0  0
   30.9808    6.5499   57.5730 C   0  0  0  0  0  0  0  0  0  0  0  0
   30.9358    7.9602   57.4718 O   0  0  0  0  0  0  0  0  0  0  0  0
   31.3343    9.9895   51.9159 C   0  0  2  0  0  0  0  0  0  0  0  0
   30.7329   10.9807   51.0231 N   0  3  0  0  0  0  0  0  0  0  0  0
   32.4143    9.1613   51.1439 C   0  0  0  0  0  0  0  0  0  0  0  0
   33.0154    8.0840   52.0668 C   0  0  2  0  0  0  0  0  0  0  0  0
   33.9918    7.2627   51.3435 N   0  3  0  0  0  0  0  0  0  0  0  0
   31.9021    7.1791   52.6301 C   0  0  2  0  0  0  0  0  0  0  0  0
   30.8089    7.9720   53.3727 C   0  0  2  0  0  0  0  0  0  0  0  0
   29.7771    7.0203   53.6966 O   0  0  0  0  0  0  0  0  0  0  0  0
   30.2383    9.0872   52.4603 C   0  0  1  0  0  0  0  0  0  0  0  0
   29.3213    9.8552   53.1898 O   0  0  0  0  0  0  0  0  0  0  0  0
   29.1709    6.9251   54.9829 C   0  0  1  0  0  0  0  0  0  0  0  0
   28.4140    8.2688   55.2792 C   0  0  2  0  0  0  0  0  0  0  0  0
   29.2225    9.2631   55.8848 O   0  0  0  0  0  0  0  0  0  0  0  0
   27.3149    7.7105   56.1722 C   0  0  2  0  0  0  0  0  0  0  0  0
   27.8549    7.2555   57.4494 O   0  0  0  0  0  0  0  0  0  0  0  0
   26.8524    6.4806   55.4036 C   0  0  2  0  0  0  0  0  0  0  0  0
   28.1134    5.9276   54.9891 O   0  0  0  0  0  0  0  0  0  0  0  0
   25.8982    6.7763   54.2003 C   0  0  0  0  0  0  0  0  0  0  0  0
   25.9809    5.7569   53.1964 O   0  0  0  0  0  0  0  0  0  0  0  0
   26.8912    6.6393   58.2998 C   0  0  2  0  0  0  0  0  0  0  0  0
   26.2831    7.5834   59.3921 C   0  0  2  0  0  0  0  0  0  0  0  0
   27.3205    8.1766   60.2895 N   0  3  0  0  0  0  0  0  0  0  0  0
   25.2411    6.7390   60.1988 C   0  0  1  0  0  0  0  0  0  0  0  0
   24.1728    6.3450   59.2548 O   0  0  0  0  0  0  0  0  0  0  0  0
   25.8723    5.4339   60.8228 C   0  0  2  0  0  0  0  0  0  0  0  0
   26.8701    5.8221   61.7813 O   0  0  0  0  0  0  0  0  0  0  0  0
   26.4925    4.5738   59.6448 C   0  0  1  0  0  0  0  0  0  0  0  0
   27.4672    5.4187   58.9454 O   0  0  0  0  0  0  0  0  0  0  0  0
   27.1702    3.2603   60.0971 C   0  0  0  0  0  0  0  0  0  0  0  0
   27.5669    2.3790   58.9656 N   0  3  0  0  0  0  0  0  0  0  0  0
  1  2  1  6  0  0  0
  1  3  1  0  0  0  0
  1 10  1  0  0  0  0
  3  4  1  6  0  0  0
  3  5  1  0  0  0  0
  5  6  1  1  0  0  0
  5  7  1  0  0  0  0
  7  8  1  6  0  0  0
  7  9  1  0  0  0  0
  9 10  1  0  0  0  0
  9 11  1  1  0  0  0
 11 12  1  0  0  0  0
 13 14  1  6  0  0  0
 13 15  1  0  0  0  0
 13 21  1  0  0  0  0
 15 16  1  0  0  0  0
 16 17  1  6  0  0  0
 16 18  1  0  0  0  0
 18  2  1  1  0  0  0
 18 19  1  0  0  0  0
 19 20  1  6  0  0  0
 19 21  1  0  0  0  0
 21 22  1  1  0  0  0
 23 20  1  6  0  0  0
 23 24  1  0  0  0  0
 23 29  1  0  0  0  0
 24 25  1  1  0  0  0
 24 26  1  0  0  0  0
 26 27  1  1  0  0  0
 26 28  1  0  0  0  0
 28 29  1  0  0  0  0
 28 30  1  6  0  0  0
 30 31  1  0  0  0  0
 32 27  1  1  0  0  0
 32 33  1  0  0  0  0
 32 40  1  0  0  0  0
 33 34  1  1  0  0  0
 33 35  1  0  0  0  0
 35 36  1  6  0  0  0
 35 37  1  0  0  0  0
 37 38  1  1  0  0  0
 37 39  1  0  0  0  0
 39 40  1  0  0  0  0
 39 41  1  1  0  0  0
 41 42  1  0  0  0  0
M  CHG  5   4   1  14   1  17   1  34   1  42   1
M  END
>  <CHROM.1>
-151.68144253,54.16689950,-62.56190271,79.27604049,-57.35904901,133.34786372
-172.17959154,52.87921927,-167.79166928,133.30356148,63.47073954,158.37529881
-48.25195001,-176.06929351,-97.53087902,153.65361036,169.55412251,164.82664697
-176.88472745,176.49668151,171.59599778,48.59072705,29.72495322,6.69208111
55.92187050,-0.75856059,-0.37055801,2.20262395

>  <Name>
1j7t

>  <RI>
0

>  <Rbt.Current_Directory>
/home/itssahil/PROJECTS/Mol_Feturizer/New_Systems/rnas/1j7t

>  <Rbt.Executable>
rbdock ($Id: //depot/dev/client3/rdock/2013.1/src/exe/rbdock.cxx#4 $)

>  <Rbt.Library>
libRbt.so (2013.1, Build901 2013/11/27)

>  <Rbt.Parameter_File>
/export/apps/rDock/src/rDock_2013.1_src/data/scripts/dock_solv.prm

>  <Rbt.Receptor>
prm/pocket_docking_3.prm

>  <SCORE>
-31.9299

>  <SCORE.INTER>
-23.7077

>  <SCORE.INTER.CONST>
1

>  <SCORE.INTER.POLAR>
-4.16453

>  <SCORE.INTER.ROT>
9

>  <SCORE.INTER.SOLV>
19.1046

>  <SCORE.INTER.VDW>
-17.8916

>  <SCORE.INTER.norm>
-0.56447

>  <SCORE.INTRA>
-8.94276

>  <SCORE.INTRA.DIHEDRAL>
-16.9111

>  <SCORE.INTRA.DIHEDRAL.0>
46.2143

>  <SCORE.INTRA.POLAR>
-0.0826056

>  <SCORE.INTRA.POLAR.0>
-1.76436

>  <SCORE.INTRA.REPUL>
0

>  <SCORE.INTRA.REPUL.0>
0

>  <SCORE.INTRA.SOLV>
0.247019

>  <SCORE.INTRA.SOLV.lig_0>
-148.643

>  <SCORE.INTRA.VDW>
-0.329844

>  <SCORE.INTRA.VDW.0>
-4.83512

>  <SCORE.INTRA.norm>
-0.212923

>  <SCORE.RESTR>
0.720629

>  <SCORE.RESTR.CAVITY>
0.720629

>  <SCORE.RESTR.norm>
0.0171578

>  <SCORE.SYSTEM>
0

>  <SCORE.SYSTEM.CONST>
0

>  <SCORE.SYSTEM.DIHEDRAL>
0

>  <SCORE.SYSTEM.SOLV>
0

>  <SCORE.SYSTEM.norm>
0

>  <SCORE.heavy>
42

>  <SCORE.norm>
-0.760235

>  <RMSD>
4.989

$$$$
1j7t
 OpenBabel11021811393D
libRbt.so/2013.1/901 2013/11/27
 42 45  0  0  0  0  0  0  0  0999 V2000
   32.6331    6.6055   52.8659 C   0  0  2  0  0  0  0  0  0  0  0  0
   32.4201    5.4303   52.0437 O   0  0  0  0  0  0  0  0  0  0  0  0
   33.9594    7.2598   52.3834 C   0  0  2  0  0  0  0  0  0  0  0  0
   34.0153    7.5378   50.9195 N   0  3  0  0  0  0  0  0  0  0  0  0
   35.1199    6.3019   52.7306 C   0  0  1  0  0  0  0  0  0  0  0  0
   36.3460    6.8477   52.3327 O   0  0  0  0  0  0  0  0  0  0  0  0
   35.1238    6.0014   54.2482 C   0  0  2  0  0  0  0  0  0  0  0  0
   36.1929    5.1420   54.5912 O   0  0  0  0  0  0  0  0  0  0  0  0
   33.8163    5.3505   54.6466 C   0  0  2  0  0  0  0  0  0  0  0  0
   32.7364    6.1932   54.2649 O   0  0  0  0  0  0  0  0  0  0  0  0
   33.6935    5.1312   56.1379 C   0  0  0  0  0  0  0  0  0  0  0  0
   33.6094    6.3823   56.7929 O   0  0  0  0  0  0  0  0  0  0  0  0
   28.7873    4.8344   49.9710 C   0  0  2  0  0  0  0  0  0  0  0  0
   27.4266    4.3977   49.6563 N   0  3  0  0  0  0  0  0  0  0  0  0
   29.7096    3.5899   50.1928 C   0  0  0  0  0  0  0  0  0  0  0  0
   31.1316    4.0453   50.5724 C   0  0  2  0  0  0  0  0  0  0  0  0
   31.9964    2.8906   50.8366 N   0  3  0  0  0  0  0  0  0  0  0  0
   31.0895    4.9498   51.8197 C   0  0  2  0  0  0  0  0  0  0  0  0
   30.1660    6.1704   51.6393 C   0  0  2  0  0  0  0  0  0  0  0  0
   30.1099    6.8207   52.9236 O   0  0  0  0  0  0  0  0  0  0  0  0
   28.7483    5.7146   51.2102 C   0  0  1  0  0  0  0  0  0  0  0  0
   27.9587    6.8436   50.9555 O   0  0  0  0  0  0  0  0  0  0  0  0
   29.5609    6.2123   54.0896 C   0  0  1  0  0  0  0  0  0  0  0  0
   29.5597    7.2691   55.2512 C   0  0  2  0  0  0  0  0  0  0  0  0
   30.7622    7.3015   56.0008 O   0  0  0  0  0  0  0  0  0  0  0  0
   28.3466    6.7563   56.0146 C   0  0  2  0  0  0  0  0  0  0  0  0
   28.6235    5.4656   56.6368 O   0  0  0  0  0  0  0  0  0  0  0  0
   27.3284    6.5244   54.9070 C   0  0  2  0  0  0  0  0  0  0  0  0
   28.1521    5.9053   53.9041 O   0  0  0  0  0  0  0  0  0  0  0  0
   26.6138    7.8153   54.3887 C   0  0  0  0  0  0  0  0  0  0  0  0
   25.9222    8.4970   55.4427 O   0  0  0  0  0  0  0  0  0  0  0  0
   28.7510    5.5213   58.0553 C   0  0  2  0  0  0  0  0  0  0  0  0
   29.3209    4.2187   58.7131 C   0  0  2  0  0  0  0  0  0  0  0  0
   28.4989    3.0079   58.4100 N   0  3  0  0  0  0  0  0  0  0  0  0
   29.4072    4.4832   60.2533 C   0  0  1  0  0  0  0  0  0  0  0  0
   30.3727    5.5855   60.4542 O   0  0  0  0  0  0  0  0  0  0  0  0
   28.0189    4.9064   60.8736 C   0  0  2  0  0  0  0  0  0  0  0  0
   27.1002    3.8113   60.7273 O   0  0  0  0  0  0  0  0  0  0  0  0
   27.5136    6.2026   60.1143 C   0  0  1  0  0  0  0  0  0  0  0  0
   27.4417    5.8785   58.6849 O   0  0  0  0  0  0  0  0  0  0  0  0
   26.1464    6.7375   60.5975 C   0  0  0  0  0  0  0  0  0  0  0  0
   25.6649    7.9148   59.8250 N   0  3  0  0  0  0  0  0  0  0  0  0
  1  2  1  6  0  0  0
  1  3  1  0  0  0  0
  1 10  1  0  0  0  0
  3  4  1  6  0  0  0
  3  5  1  0  0  0  0
  5  6  1  1  0  0  0
  5  7  1  0  0  0  0
  7  8  1  6  0  0  0
  7  9  1  0  0  0  0
  9 10  1  0  0  0  0
  9 11  1  1  0  0  0
 11 12  1  0  0  0  0
 13 14  1  1  0  0  0
 13 15  1  0  0  0  0
 13 21  1  0  0  0  0
 15 16  1  0  0  0  0
 16 17  1  1  0  0  0
 16 18  1  0  0  0  0
 18  2  1  6  0  0  0
 18 19  1  0  0  0  0
 19 20  1  1  0  0  0
 19 21  1  0  0  0  0
 21 22  1  6  0  0  0
 23 20  1  6  0  0  0
 23 24  1  0  0  0  0
 23 29  1  0  0  0  0
 24 25  1  1  0  0  0
 24 26  1  0  0  0  0
 26 27  1  6  0  0  0
 26 28  1  0  0  0  0
 28 29  1  0  0  0  0
 28 30  1  6  0  0  0
 30 31  1  0  0  0  0
 32 27  1  6  0  0  0
 32 33  1  0  0  0  0
 32 40  1  0  0  0  0
 33 34  1  1  0  0  0
 33 35  1  0  0  0  0
 35 36  1  6  0  0  0
 35 37  1  0  0  0  0
 37 38  1  6  0  0  0
 37 39  1  0  0  0  0
 39 40  1  0  0  0  0
 39 41  1  1  0  0  0
 41 42  1  0  0  0  0
M  CHG  5   4   1  14   1  17   1  34   1  42   1
M  END
>  <CHROM.1>
-153.07505976,160.82090498,-110.19035913,42.25572020,57.99793695,67.09602823
59.98258054,76.53880550,178.44927652,-63.66856248,-174.96917618,42.38868645
141.38347608,108.33102521,-168.56166318,-58.51099805,-62.58861102,-58.73600950
-179.36469909,67.27754409,-177.21650842,-55.78532972,30.23308048,5.82791853
54.94497767,-0.97707720,-0.02744906,1.57775364

>  <Name>
1j7t

>  <RI>
0

>  <Rbt.Current_Directory>
/home/itssahil/PROJECTS/Mol_Feturizer/New_Systems/rnas/1j7t

>  <Rbt.Executable>
rbdock ($Id: //depot/dev/client3/rdock/2013.1/src/exe/rbdock.cxx#4 $)

>  <Rbt.Library>
libRbt.so (2013.1, Build901 2013/11/27)

>  <Rbt.Parameter_File>
/export/apps/rDock/src/rDock_2013.1_src/data/scripts/dock_solv.prm

>  <Rbt.Receptor>
prm/pocket_docking_5.prm

>  <SCORE>
-45.1413

>  <SCORE.INTER>
-35.4469

>  <SCORE.INTER.CONST>
1

>  <SCORE.INTER.POLAR>
-5.95483

>  <SCORE.INTER.ROT>
9

>  <SCORE.INTER.SOLV>
16.63

>  <SCORE.INTER.VDW>
-18.9252

>  <SCORE.INTER.norm>
-0.843975

>  <SCORE.INTRA>
-9.70484

>  <SCORE.INTRA.DIHEDRAL>
-21.4719

>  <SCORE.INTRA.DIHEDRAL.0>
46.2143

>  <SCORE.INTRA.POLAR>
0.349819

>  <SCORE.INTRA.POLAR.0>
-1.76436

>  <SCORE.INTRA.REPUL>
0.00729769

>  <SCORE.INTRA.REPUL.0>
0

>  <SCORE.INTRA.SOLV>
-4.71887

>  <SCORE.INTRA.SOLV.lig_0>
-148.643

>  <SCORE.INTRA.VDW>
2.16466

>  <SCORE.INTRA.VDW.0>
-4.83512

>  <SCORE.INTRA.norm>
-0.231068

>  <SCORE.RESTR>
0.0104832

>  <SCORE.RESTR.CAVITY>
0.0104832

>  <SCORE.RESTR.norm>
0.000249601

>  <SCORE.SYSTEM>
0

>  <SCORE.SYSTEM.CONST>
0

>  <SCORE.SYSTEM.DIHEDRAL>
0

>  <SCORE.SYSTEM.SOLV>
0

>  <SCORE.SYSTEM.norm>
0

>  <SCORE.heavy>
42

>  <SCORE.norm>
-1.07479

>  <RMSD>
5.017

$$$$
1j7t
 OpenBabel11021811393D
libRbt.so/2013.1/901 2013/11/27
 42 45  0  0  0  0  0  0  0  0999 V2000
   31.6765    7.0922   53.3880 C   0  0  2  0  0  0  0  0  0  0  0  0
   30.9741    5.9711   52.7946 O   0  0  0  0  0  0  0  0  0  0  0  0
   32.3227    7.8900   52.2193 C   0  0  2  0  0  0  0  0  0  0  0  0
   31.3725    8.2851   51.1401 N   0  3  0  0  0  0  0  0  0  0  0  0
   33.4211    7.0076   51.5868 C   0  0  1  0  0  0  0  0  0  0  0  0
   34.0514    7.6827   50.5350 O   0  0  0  0  0  0  0  0  0  0  0  0
   34.4518    6.5910   52.6627 C   0  0  2  0  0  0  0  0  0  0  0  0
   35.4790    5.7993   52.0996 O   0  0  0  0  0  0  0  0  0  0  0  0
   33.7626    5.8047   53.7576 C   0  0  2  0  0  0  0  0  0  0  0  0
   32.7014    6.5820   54.2976 O   0  0  0  0  0  0  0  0  0  0  0  0
   34.6815    5.4603   54.9082 C   0  0  0  0  0  0  0  0  0  0  0  0
   35.7118    4.6064   54.4494 O   0  0  0  0  0  0  0  0  0  0  0  0
   27.0718    7.5717   52.5541 C   0  0  2  0  0  0  0  0  0  0  0  0
   25.6118    7.6661   52.5230 N   0  3  0  0  0  0  0  0  0  0  0  0
   27.5764    6.7048   51.3533 C   0  0  0  0  0  0  0  0  0  0  0  0
   29.1094    6.5622   51.4101 C   0  0  2  0  0  0  0  0  0  0  0  0
   29.5949    5.7075   50.3217 N   0  3  0  0  0  0  0  0  0  0  0  0
   29.5421    5.9641   52.7632 C   0  0  2  0  0  0  0  0  0  0  0  0
   29.0350    6.7834   53.9659 C   0  0  2  0  0  0  0  0  0  0  0  0
   29.3799    6.0229   55.1398 O   0  0  0  0  0  0  0  0  0  0  0  0
   27.4985    6.9679   53.8827 C   0  0  1  0  0  0  0  0  0  0  0  0
   27.0768    7.7985   54.9293 O   0  0  0  0  0  0  0  0  0  0  0  0
   28.9019    6.3331   56.4461 C   0  0  1  0  0  0  0  0  0  0  0  0
   28.0100    5.1420   56.9478 C   0  0  2  0  0  0  0  0  0  0  0  0
   26.6470    5.2462   56.5730 O   0  0  0  0  0  0  0  0  0  0  0  0
   28.2728    5.2831   58.4405 C   0  0  2  0  0  0  0  0  0  0  0  0
   27.6647    6.4998   58.9692 O   0  0  0  0  0  0  0  0  0  0  0  0
   29.7836    5.4609   58.4984 C   0  0  2  0  0  0  0  0  0  0  0  0
   29.9933    6.3718   57.4057 O   0  0  0  0  0  0  0  0  0  0  0  0
   30.6082    4.1403   58.3501 C   0  0  0  0  0  0  0  0  0  0  0  0
   31.0045    3.9136   56.9917 O   0  0  0  0  0  0  0  0  0  0  0  0
   26.3388    6.3192   59.4600 C   0  0  2  0  0  0  0  0  0  0  0  0
   25.6903    7.6027   60.0816 C   0  0  2  0  0  0  0  0  0  0  0  0
   26.4869    8.1654   61.2140 N   0  3  0  0  0  0  0  0  0  0  0  0
   24.2444    7.2114   60.5355 C   0  0  1  0  0  0  0  0  0  0  0  0
   23.4919    6.8329   59.3198 O   0  0  0  0  0  0  0  0  0  0  0  0
   24.2336    5.9924   61.5381 C   0  0  2  0  0  0  0  0  0  0  0  0
   24.9163    6.3836   62.7405 O   0  0  0  0  0  0  0  0  0  0  0  0
   24.9455    4.7655   60.8309 C   0  0  1  0  0  0  0  0  0  0  0  0
   26.2949    5.1970   60.4485 O   0  0  0  0  0  0  0  0  0  0  0  0
   25.0319    3.4878   61.6964 C   0  0  0  0  0  0  0  0  0  0  0  0
   25.5154    2.2968   60.9465 N   0  3  0  0  0  0  0  0  0  0  0  0
  1  2  1  6  0  0  0
  1  3  1  0  0  0  0
  1 10  1  0  0  0  0
  3  4  1  6  0  0  0
  3  5  1  0  0  0  0
  5  6  1  6  0  0  0
  5  7  1  0  0  0  0
  7  8  1  6  0  0  0
  7  9  1  0  0  0  0
  9 10  1  0  0  0  0
  9 11  1  1  0  0  0
 11 12  1  0  0  0  0
 13 14  1  1  0  0  0
 13 15  1  0  0  0  0
 13 21  1  0  0  0  0
 15 16  1  0  0  0  0
 16 17  1  6  0  0  0
 16 18  1  0  0  0  0
 18  2  1  6  0  0  0
 18 19  1  0  0  0  0
 19 20  1  1  0  0  0
 19 21  1  0  0  0  0
 21 22  1  1  0  0  0
 23 20  1  6  0  0  0
 23 24  1  0  0  0  0
 23 29  1  0  0  0  0
 24 25  1  1  0  0  0
 24 26  1  0  0  0  0
 26 27  1  6  0  0  0
 26 28  1  0  0  0  0
 28 29  1  0  0  0  0
 28 30  1  6  0  0  0
 30 31  1  0  0  0  0
 32 27  1  1  0  0  0
 32 33  1  0  0  0  0
 32 40  1  0  0  0  0
 33 34  1  1  0  0  0
 33 35  1  0  0  0  0
 35 36  1  6  0  0  0
 35 37  1  0  0  0  0
 37 38  1  1  0  0  0
 37 39  1  0  0  0  0
 39 40  1  0  0  0  0
 39 41  1  1  0  0  0
 41 42  1  0  0  0  0
M  CHG  5   4   1  14   1  17   1  34   1  42   1
M  END
>  <CHROM.1>
-108.03509341,93.25861069,155.10801649,61.57561639,58.65333151,-63.78414563
174.88879797,-168.86933546,-5.21429575,-169.80752977,116.20538089,146.41647439
-169.78510297,91.25116988,177.76840436,94.38560300,-66.17745115,-77.82136890
60.91402806,173.19834151,171.32415513,28.58486020,29.06253383,6.15793873
55.95184283,-0.83586737,-0.21739625,1.86397364

>  <Name>
1j7t

>  <RI>
0

>  <Rbt.Current_Directory>
/home/itssahil/PROJECTS/Mol_Feturizer/New_Systems/rnas/1j7t

>  <Rbt.Executable>
rbdock ($Id: //depot/dev/client3/rdock/2013.1/src/exe/rbdock.cxx#4 $)

>  <Rbt.Library>
libRbt.so (2013.1, Build901 2013/11/27)

>  <Rbt.Parameter_File>
/export/apps/rDock/src/rDock_2013.1_src/data/scripts/dock_solv.prm

>  <Rbt.Receptor>
prm/pocket_docking_3.prm

>  <SCORE>
-22.6316

>  <SCORE.INTER>
-23.478

>  <SCORE.INTER.CONST>
1

>  <SCORE.INTER.POLAR>
-4.81356

>  <SCORE.INTER.ROT>
9

>  <SCORE.INTER.SOLV>
19.8592

>  <SCORE.INTER.VDW>
-15.8265

>  <SCORE.INTER.norm>
-0.558999

>  <SCORE.INTRA>
0.439144

>  <SCORE.INTRA.DIHEDRAL>
-7.20537

>  <SCORE.INTRA.DIHEDRAL.0>
46.2143

>  <SCORE.INTRA.POLAR>
-0.0399795

>  <SCORE.INTRA.POLAR.0>
-1.76436

>  <SCORE.INTRA.REPUL>
0.0664068

>  <SCORE.INTRA.REPUL.0>
0

>  <SCORE.INTRA.SOLV>
0.827862

>  <SCORE.INTRA.SOLV.lig_0>
-148.643

>  <SCORE.INTRA.VDW>
3.43179

>  <SCORE.INTRA.VDW.0>
-4.83512

>  <SCORE.INTRA.norm>
0.0104558

>  <SCORE.RESTR>
0.407218

>  <SCORE.RESTR.CAVITY>
0.407218

>  <SCORE.RESTR.norm>
0.00969567

>  <SCORE.SYSTEM>
0

>  <SCORE.SYSTEM.CONST>
0

>  <SCORE.SYSTEM.DIHEDRAL>
0

>  <SCORE.SYSTEM.SOLV>
0

>  <SCORE.SYSTEM.norm>
0

>  <SCORE.heavy>
42

>  <SCORE.norm>
-0.538848

>  <RMSD>
5.018

$$$$
1j7t
 OpenBabel11021811393D
libRbt.so/2013.1/901 2013/11/27
 42 45  0  0  0  0  0  0  0  0999 V2000
   32.6323    6.3010   52.8394 C   0  0  2  0  0  0  0  0  0  0  0  0
   31.7557    5.8208   51.7889 O   0  0  0  0  0  0  0  0  0  0  0  0
   34.0583    6.4030   52.2262 C   0  0  2  0  0  0  0  0  0  0  0  0
   34.1361    7.2050   50.9714 N   0  3  0  0  0  0  0  0  0  0  0  0
   34.5463    4.9728   51.9080 C   0  0  1  0  0  0  0  0  0  0  0  0
   35.8367    5.0010   51.3662 O   0  0  0  0  0  0  0  0  0  0  0  0
   34.5109    4.1034   53.1872 C   0  0  2  0  0  0  0  0  0  0  0  0
   34.9748    2.7942   52.9222 O   0  0  0  0  0  0  0  0  0  0  0  0
   33.0957    4.0302   53.7200 C   0  0  2  0  0  0  0  0  0  0  0  0
   32.6108    5.3474   53.9477 O   0  0  0  0  0  0  0  0  0  0  0  0
   32.9956    3.2938   55.0370 C   0  0  0  0  0  0  0  0  0  0  0  0
   31.6378    3.0137   55.3184 O   0  0  0  0  0  0  0  0  0  0  0  0
   27.7319    6.9302   51.1362 C   0  0  2  0  0  0  0  0  0  0  0  0
   26.2771    7.0116   51.2715 N   0  3  0  0  0  0  0  0  0  0  0  0
   28.1525    5.4701   50.7625 C   0  0  0  0  0  0  0  0  0  0  0  0
   29.6868    5.3688   50.6671 C   0  0  2  0  0  0  0  0  0  0  0  0
   30.1017    3.9938   50.3702 N   0  3  0  0  0  0  0  0  0  0  0  0
   30.3372    5.8264   51.9874 C   0  0  2  0  0  0  0  0  0  0  0  0
   29.9185    7.2525   52.3946 C   0  0  2  0  0  0  0  0  0  0  0  0
   30.4733    7.4714   53.7060 O   0  0  0  0  0  0  0  0  0  0  0  0
   28.3737    7.3673   52.4434 C   0  0  1  0  0  0  0  0  0  0  0  0
   28.0186    8.6949   52.7163 O   0  0  0  0  0  0  0  0  0  0  0  0
   29.9346    6.8965   54.8936 C   0  0  1  0  0  0  0  0  0  0  0  0
   30.8172    7.3472   56.1118 C   0  0  2  0  0  0  0  0  0  0  0  0
   31.9234    6.4983   56.3661 O   0  0  0  0  0  0  0  0  0  0  0  0
   29.7383    7.3266   57.1854 C   0  0  2  0  0  0  0  0  0  0  0  0
   29.3094    5.9619   57.4743 O   0  0  0  0  0  0  0  0  0  0  0  0
   28.5775    8.0399   56.5063 C   0  0  2  0  0  0  0  0  0  0  0  0
   28.6254    7.4518   55.1949 O   0  0  0  0  0  0  0  0  0  0  0  0
   28.6916    9.5992   56.4731 C   0  0  0  0  0  0  0  0  0  0  0  0
   27.5097   10.2050   55.9343 O   0  0  0  0  0  0  0  0  0  0  0  0
   28.2561    5.8754   58.4307 C   0  0  2  0  0  0  0  0  0  0  0  0
   28.6564    6.2974   59.8853 C   0  0  2  0  0  0  0  0  0  0  0  0
   29.7905    5.4922   60.4321 N   0  3  0  0  0  0  0  0  0  0  0  0
   27.3739    6.1585   60.7718 C   0  0  1  0  0  0  0  0  0  0  0  0
   26.3759    7.1174   60.2502 O   0  0  0  0  0  0  0  0  0  0  0  0
   26.7567    4.7067   60.7204 C   0  0  2  0  0  0  0  0  0  0  0  0
   27.7071    3.7861   61.2806 O   0  0  0  0  0  0  0  0  0  0  0  0
   26.4273    4.3638   59.2085 C   0  0  1  0  0  0  0  0  0  0  0  0
   27.6719    4.4982   58.4428 O   0  0  0  0  0  0  0  0  0  0  0  0
   25.8270    2.9571   58.9856 C   0  0  0  0  0  0  0  0  0  0  0  0
   24.4630    2.7981   59.5592 N   0  3  0  0  0  0  0  0  0  0  0  0
  1  2  1  6  0  0  0
  1  3  1  0  0  0  0
  1 10  1  0  0  0  0
  3  4  1  6  0  0  0
  3  5  1  0  0  0  0
  5  6  1  1  0  0  0
  5  7  1  0  0  0  0
  7  8  1  6  0  0  0
  7  9  1  0  0  0  0
  9 10  1  0  0  0  0
  9 11  1  1  0  0  0
 11 12  1  0  0  0  0
 13 14  1  1  0  0  0
 13 15  1  0  0  0  0
 13 21  1  0  0  0  0
 15 16  1  0  0  0  0
 16 17  1  1  0  0  0
 16 18  1  0  0  0  0
 18  2  1  6  0  0  0
 18 19  1  0  0  0  0
 19 20  1  1  0  0  0
 19 21  1  0  0  0  0
 21 22  1  6  0  0  0
 23 20  1  6  0  0  0
 23 24  1  0  0  0  0
 23 29  1  0  0  0  0
 24 25  1  1  0  0  0
 24 26  1  0  0  0  0
 26 27  1  6  0  0  0
 26 28  1  0  0  0  0
 28 29  1  0  0  0  0
 28 30  1  6  0  0  0
 30 31  1  0  0  0  0
 32 27  1  6  0  0  0
 32 33  1  0  0  0  0
 32 40  1  0  0  0  0
 33 34  1  1  0  0  0
 33 35  1  0  0  0  0
 35 36  1  6  0  0  0
 35 37  1  0  0  0  0
 37 38  1  6  0  0  0
 37 39  1  0  0  0  0
 39 40  1  0  0  0  0
 39 41  1  1  0  0  0
 41 42  1  0  0  0  0
M  CHG  5   4   1  14   1  17   1  34   1  42   1
M  END
>  <CHROM.1>
-170.06322848,175.62085676,-150.70586109,-179.53021322,179.95727219,-167.29402225
175.73395976,176.71398426,167.47196070,-75.33315658,179.22343288,-56.26387469
50.23789520,-177.35549085,-67.84132388,-174.51845519,-150.55011501,54.97766231
63.93317253,164.62016056,67.51777635,-175.37454172,29.90866551,5.86139198
55.16874948,-0.85872760,-0.46343593,1.95520166

>  <Name>
1j7t

>  <RI>
0

>  <Rbt.Current_Directory>
/home/itssahil/PROJECTS/Mol_Feturizer/New_Systems/rnas/1j7t

>  <Rbt.Executable>
rbdock ($Id: //depot/dev/client3/rdock/2013.1/src/exe/rbdock.cxx#4 $)

>  <Rbt.Library>
libRbt.so (2013.1, Build901 2013/11/27)

>  <Rbt.Parameter_File>
/export/apps/rDock/src/rDock_2013.1_src/data/scripts/dock_solv.prm

>  <Rbt.Receptor>
prm/pocket_docking_4.prm

>  <SCORE>
-45.8793

>  <SCORE.INTER>
-26.7069

>  <SCORE.INTER.CONST>
1

>  <SCORE.INTER.POLAR>
-5.29895

>  <SCORE.INTER.ROT>
9

>  <SCORE.INTER.SOLV>
20.4767

>  <SCORE.INTER.VDW>
-16.567

>  <SCORE.INTER.norm>
-0.635878

>  <SCORE.INTRA>
-19.6715

>  <SCORE.INTRA.DIHEDRAL>
-35.0478

>  <SCORE.INTRA.DIHEDRAL.0>
46.2143

>  <SCORE.INTRA.POLAR>
0.0108326

>  <SCORE.INTRA.POLAR.0>
-1.76436

>  <SCORE.INTRA.REPUL>
0

>  <SCORE.INTRA.REPUL.0>
0

>  <SCORE.INTRA.SOLV>
-6.1686

>  <SCORE.INTRA.SOLV.lig_0>
-148.643

>  <SCORE.INTRA.VDW>
0.899845

>  <SCORE.INTRA.VDW.0>
-4.83512

>  <SCORE.INTRA.norm>
-0.46837

>  <SCORE.RESTR>
0.499098

>  <SCORE.RESTR.CAVITY>
0.499098

>  <SCORE.RESTR.norm>
0.0118833

>  <SCORE.SYSTEM>
0

>  <SCORE.SYSTEM.CONST>
0

>  <SCORE.SYSTEM.DIHEDRAL>
0

>  <SCORE.SYSTEM.SOLV>
0

>  <SCORE.SYSTEM.norm>
0

>  <SCORE.heavy>
42

>  <SCORE.norm>
-1.09236

>  <RMSD>
5.018

$$$$
1j7t
 OpenBabel11021811393D
libRbt.so/2013.1/901 2013/11/27
 42 45  0  0  0  0  0  0  0  0999 V2000
   27.3015    6.4892   53.5293 C   0  0  2  0  0  0  0  0  0  0  0  0
   28.1164    5.3280   53.2293 O   0  0  0  0  0  0  0  0  0  0  0  0
   26.8562    7.0927   52.1664 C   0  0  2  0  0  0  0  0  0  0  0  0
   26.1962    6.1224   51.2464 N   0  3  0  0  0  0  0  0  0  0  0  0
   28.1103    7.6458   51.4549 C   0  0  1  0  0  0  0  0  0  0  0  0
   27.7673    8.2184   50.2245 O   0  0  0  0  0  0  0  0  0  0  0  0
   28.8200    8.6812   52.3592 C   0  0  2  0  0  0  0  0  0  0  0  0
   29.9604    9.2165   51.7171 O   0  0  0  0  0  0  0  0  0  0  0  0
   29.2427    8.0260   53.6569 C   0  0  2  0  0  0  0  0  0  0  0  0
   28.1045    7.4497   54.2848 O   0  0  0  0  0  0  0  0  0  0  0  0
   29.8405    9.0014   54.6461 C   0  0  0  0  0  0  0  0  0  0  0  0
   30.4409    8.2864   55.7089 O   0  0  0  0  0  0  0  0  0  0  0  0
   29.9976    2.2092   55.3699 C   0  0  2  0  0  0  0  0  0  0  0  0
   30.7681    1.4960   56.3892 N   0  3  0  0  0  0  0  0  0  0  0  0
   30.9149    3.2389   54.6306 C   0  0  0  0  0  0  0  0  0  0  0  0
   30.0960    4.0264   53.5900 C   0  0  2  0  0  0  0  0  0  0  0  0
   30.9284    5.0339   52.9245 N   0  3  0  0  0  0  0  0  0  0  0  0
   28.8955    4.7183   54.2651 C   0  0  2  0  0  0  0  0  0  0  0  0
   27.9888    3.7305   55.0248 C   0  0  2  0  0  0  0  0  0  0  0  0
   27.0183    4.5356   55.7214 O   0  0  0  0  0  0  0  0  0  0  0  0
   28.8216    2.9043   56.0375 C   0  0  1  0  0  0  0  0  0  0  0  0
   27.9955    1.9470   56.6411 O   0  0  0  0  0  0  0  0  0  0  0  0
   27.3627    5.4997   56.7129 C   0  0  1  0  0  0  0  0  0  0  0  0
   26.0390    6.1043   57.3032 C   0  0  2  0  0  0  0  0  0  0  0  0
   25.5459    7.2216   56.5839 O   0  0  0  0  0  0  0  0  0  0  0  0
   26.5463    6.4211   58.7030 C   0  0  2  0  0  0  0  0  0  0  0  0
   27.5170    7.5106   58.6769 O   0  0  0  0  0  0  0  0  0  0  0  0
   27.2916    5.1496   59.0840 C   0  0  2  0  0  0  0  0  0  0  0  0
   27.9918    4.8665   57.8604 O   0  0  0  0  0  0  0  0  0  0  0  0
   26.3804    3.9655   59.5459 C   0  0  0  0  0  0  0  0  0  0  0  0
   25.6106    4.3108   60.7045 O   0  0  0  0  0  0  0  0  0  0  0  0
   28.1815    7.7249   59.9194 C   0  0  2  0  0  0  0  0  0  0  0  0
   28.0873    9.1892   60.4682 C   0  0  2  0  0  0  0  0  0  0  0  0
   28.6349   10.2025   59.5160 N   0  3  0  0  0  0  0  0  0  0  0  0
   28.8486    9.2158   61.8355 C   0  0  1  0  0  0  0  0  0  0  0  0
   28.1271    8.3099   62.7554 O   0  0  0  0  0  0  0  0  0  0  0  0
   30.3423    8.7223   61.7064 C   0  0  2  0  0  0  0  0  0  0  0  0
   31.0541    9.6373   60.8574 O   0  0  0  0  0  0  0  0  0  0  0  0
   30.3272    7.2552   61.1069 C   0  0  1  0  0  0  0  0  0  0  0  0
   29.6153    7.3081   59.8248 O   0  0  0  0  0  0  0  0  0  0  0  0
   31.7264    6.6315   60.9014 C   0  0  0  0  0  0  0  0  0  0  0  0
   31.7319    5.1463   60.9958 N   0  3  0  0  0  0  0  0  0  0  0  0
  1  2  1  6  0  0  0
  1  3  1  0  0  0  0
  1 10  1  0  0  0  0
  3  4  1  6  0  0  0
  3  5  1  0  0  0  0
  5  6  1  6  0  0  0
  5  7  1  0  0  0  0
  7  8  1  6  0  0  0
  7  9  1  0  0  0  0
  9 10  1  0  0  0  0
  9 11  1  1  0  0  0
 11 12  1  0  0  0  0
 13 14  1  1  0  0  0
 13 15  1  0  0  0  0
 13 21  1  0  0  0  0
 15 16  1  0  0  0  0
 16 17  1  1  0  0  0
 16 18  1  0  0  0  0
 18  2  1  6  0  0  0
 18 19  1  0  0  0  0
 19 20  1  1  0  0  0
 19 21  1  0  0  0  0
 21 22  1  6  0  0  0
 23 20  1  6  0  0  0
 23 24  1  0  0  0  0
 23 29  1  0  0  0  0
 24 25  1  6  0  0  0
 24 26  1  0  0  0  0
 26 27  1  6  0  0  0
 26 28  1  0  0  0  0
 28 29  1  0  0  0  0
 28 30  1  6  0  0  0
 30 31  1  0  0  0  0
 32 27  1  6  0  0  0
 32 33  1  0  0  0  0
 32 40  1  0  0  0  0
 33 34  1  6  0  0  0
 33 35  1  0  0  0  0
 35 36  1  1  0  0  0
 35 37  1  0  0  0  0
 37 38  1  6  0  0  0
 37 39  1  0  0  0  0
 39 40  1  0  0  0  0
 39 41  1  6  0  0  0
 41 42  1  0  0  0  0
M  CHG  5   4   1  14   1  17   1  34   1  42   1
M  END
>  <CHROM.1>
167.31168714,-153.26039148,79.22901488,70.47799564,-56.64683235,-168.70388535
-55.11653260,-154.14491955,-172.40442909,-61.26462933,-176.47030718,-178.02072774
-56.65382680,-171.03539906,-125.46341993,-60.32026329,-175.64538016,177.91812027
-61.52684219,80.10441004,151.65828430,-47.57576526,28.60839673,6.33840884
56.66568434,-2.65480669,1.49458563,2.51221923

>  <Name>
1j7t

>  <RI>
0

>  <Rbt.Current_Directory>
/home/itssahil/PROJECTS/Mol_Feturizer/New_Systems/rnas/1j7t

>  <Rbt.Executable>
rbdock ($Id: //depot/dev/client3/rdock/2013.1/src/exe/rbdock.cxx#4 $)

>  <Rbt.Library>
libRbt.so (2013.1, Build901 2013/11/27)

>  <Rbt.Parameter_File>
/export/apps/rDock/src/rDock_2013.1_src/data/scripts/dock_solv.prm

>  <Rbt.Receptor>
prm/pocket_docking_6.prm

>  <SCORE>
-38.5918

>  <SCORE.INTER>
-24.6128

>  <SCORE.INTER.CONST>
1

>  <SCORE.INTER.POLAR>
-3.98987

>  <SCORE.INTER.ROT>
9

>  <SCORE.INTER.SOLV>
19.795

>  <SCORE.INTER.VDW>
-19.3074

>  <SCORE.INTER.norm>
-0.58602

>  <SCORE.INTRA>
-13.9814

>  <SCORE.INTRA.DIHEDRAL>
-26.0232

>  <SCORE.INTRA.DIHEDRAL.0>
46.2143

>  <SCORE.INTRA.POLAR>
1.10086

>  <SCORE.INTRA.POLAR.0>
-1.76436

>  <SCORE.INTRA.REPUL>
0

>  <SCORE.INTRA.REPUL.0>
0

>  <SCORE.INTRA.SOLV>
-5.91188

>  <SCORE.INTRA.SOLV.lig_0>
-148.643

>  <SCORE.INTRA.VDW>
-1.7568

>  <SCORE.INTRA.VDW.0>
-4.83512

>  <SCORE.INTRA.norm>
-0.33289

>  <SCORE.RESTR>
0.00241597

>  <SCORE.RESTR.CAVITY>
0.00241597

>  <SCORE.RESTR.norm>
5.75232e-05

>  <SCORE.SYSTEM>
0

>  <SCORE.SYSTEM.CONST>
0

>  <SCORE.SYSTEM.DIHEDRAL>
0

>  <SCORE.SYSTEM.SOLV>
0

>  <SCORE.SYSTEM.norm>
0

>  <SCORE.heavy>
42

>  <SCORE.norm>
-0.918853

>  <RMSD>
5.032

$$$$
1j7t
 OpenBabel11021811393D
libRbt.so/2013.1/901 2013/11/27
 42 45  0  0  0  0  0  0  0  0999 V2000
   30.5219    8.4570   52.1484 C   0  0  2  0  0  0  0  0  0  0  0  0
   30.0833    7.6086   51.0573 O   0  0  0  0  0  0  0  0  0  0  0  0
   31.4795    9.5197   51.5372 C   0  0  2  0  0  0  0  0  0  0  0  0
   30.9098   10.2762   50.3853 N   0  3  0  0  0  0  0  0  0  0  0  0
   32.7511    8.7931   51.0472 C   0  0  1  0  0  0  0  0  0  0  0  0
   33.6606    9.7055   50.4996 O   0  0  0  0  0  0  0  0  0  0  0  0
   33.3989    8.0119   52.2149 C   0  0  2  0  0  0  0  0  0  0  0  0
   34.5780    7.3559   51.7923 O   0  0  0  0  0  0  0  0  0  0  0  0
   32.4237    6.9846   52.7495 C   0  0  2  0  0  0  0  0  0  0  0  0
   31.2203    7.6358   53.1363 O   0  0  0  0  0  0  0  0  0  0  0  0
   32.9393    6.2575   53.9712 C   0  0  0  0  0  0  0  0  0  0  0  0
   32.9079    7.1279   55.0860 O   0  0  0  0  0  0  0  0  0  0  0  0
   26.9416    4.8970   50.2665 C   0  0  2  0  0  0  0  0  0  0  0  0
   25.9580    3.8271   50.4376 N   0  3  0  0  0  0  0  0  0  0  0  0
   28.3893    4.3158   50.3882 C   0  0  0  0  0  0  0  0  0  0  0  0
   29.4270    5.4470   50.2574 C   0  0  2  0  0  0  0  0  0  0  0  0
   30.7887    4.9278   50.4228 N   0  3  0  0  0  0  0  0  0  0  0  0
   29.1640    6.5401   51.3117 C   0  0  2  0  0  0  0  0  0  0  0  0
   27.7349    7.1119   51.2329 C   0  0  2  0  0  0  0  0  0  0  0  0
   27.5955    7.9929   52.3641 O   0  0  0  0  0  0  0  0  0  0  0  0
   26.6919    5.9686   51.3158 C   0  0  1  0  0  0  0  0  0  0  0  0
   25.4083    6.5024   51.1410 O   0  0  0  0  0  0  0  0  0  0  0  0
   27.8091    7.5818   53.7119 C   0  0  1  0  0  0  0  0  0  0  0  0
   26.5918    8.0626   54.5798 C   0  0  2  0  0  0  0  0  0  0  0  0
   26.7381    9.3727   55.1004 O   0  0  0  0  0  0  0  0  0  0  0  0
   26.6150    6.9556   55.6245 C   0  0  2  0  0  0  0  0  0  0  0  0
   27.7935    7.0629   56.4787 O   0  0  0  0  0  0  0  0  0  0  0  0
   26.7728    5.7004   54.7779 C   0  0  2  0  0  0  0  0  0  0  0  0
   27.7629    6.1336   53.8293 O   0  0  0  0  0  0  0  0  0  0  0  0
   25.4594    5.1988   54.0929 C   0  0  0  0  0  0  0  0  0  0  0  0
   24.4510    4.8719   55.0573 O   0  0  0  0  0  0  0  0  0  0  0  0
   27.8535    6.0805   57.5097 C   0  0  2  0  0  0  0  0  0  0  0  0
   26.5705    5.9912   58.4042 C   0  0  2  0  0  0  0  0  0  0  0  0
   26.2376    7.2856   59.0729 N   0  3  0  0  0  0  0  0  0  0  0  0
   26.8189    4.8526   59.4490 C   0  0  1  0  0  0  0  0  0  0  0  0
   26.9670    3.5901   58.6928 O   0  0  0  0  0  0  0  0  0  0  0  0
   28.1257    5.0883   60.3022 C   0  0  2  0  0  0  0  0  0  0  0  0
   27.9547    6.2854   61.0785 O   0  0  0  0  0  0  0  0  0  0  0  0
   29.3519    5.2050   59.3049 C   0  0  1  0  0  0  0  0  0  0  0  0
   29.0590    6.2966   58.3690 O   0  0  0  0  0  0  0  0  0  0  0  0
   30.7145    5.4564   59.9897 C   0  0  0  0  0  0  0  0  0  0  0  0
   31.8484    5.5597   59.0314 N   0  3  0  0  0  0  0  0  0  0  0  0
  1  2  1  6  0  0  0
  1  3  1  0  0  0  0
  1 10  1  0  0  0  0
  3  4  1  6  0  0  0
  3  5  1  0  0  0  0
  5  6  1  1  0  0  0
  5  7  1  0  0  0  0
  7  8  1  6  0  0  0
  7  9  1  0  0  0  0
  9 10  1  0  0  0  0
  9 11  1  1  0  0  0
 11 12  1  0  0  0  0
 13 14  1  1  0  0  0
 13 15  1  0  0  0  0
 13 21  1  0  0  0  0
 15 16  1  0  0  0  0
 16 17  1  1  0  0  0
 16 18  1  0  0  0  0
 18  2  1  6  0  0  0
 18 19  1  0  0  0  0
 19 20  1  1  0  0  0
 19 21  1  0  0  0  0
 21 22  1  6  0  0  0
 23 20  1  6  0  0  0
 23 24  1  0  0  0  0
 23 29  1  0  0  0  0
 24 25  1  1  0  0  0
 24 26  1  0  0  0  0
 26 27  1  1  0  0  0
 26 28  1  0  0  0  0
 28 29  1  0  0  0  0
 28 30  1  6  0  0  0
 30 31  1  0  0  0  0
 32 27  1  6  0  0  0
 32 33  1  0  0  0  0
 32 40  1  0  0  0  0
 33 34  1  1  0  0  0
 33 35  1  0  0  0  0
 35 36  1  6  0  0  0
 35 37  1  0  0  0  0
 37 38  1  6  0  0  0
 37 39  1  0  0  0  0
 39 40  1  0  0  0  0
 39 41  1  1  0  0  0
 41 42  1  0  0  0  0
M  CHG  5   4   1  14   1  17   1  34   1  42   1
M  END
>  <CHROM.1>
-178.89597228,-151.78273699,45.10729764,70.28673381,65.32271905,72.87126124
177.13700867,-174.16640928,-78.11222237,-56.12105722,-131.18533089,-58.64860364
63.18473547,178.00119328,-52.84797021,-60.53341869,178.69141355,-80.73679929
65.71051984,172.35559931,179.91370177,179.66958049,28.98127947,6.63023594
54.27994116,-1.15710723,0.29929193,1.67757732

>  <Name>
1j7t

>  <RI>
0

>  <Rbt.Current_Directory>
/home/itssahil/PROJECTS/Mol_Feturizer/New_Systems/rnas/1j7t

>  <Rbt.Executable>
rbdock ($Id: //depot/dev/client3/rdock/2013.1/src/exe/rbdock.cxx#4 $)

>  <Rbt.Library>
libRbt.so (2013.1, Build901 2013/11/27)

>  <Rbt.Parameter_File>
/export/apps/rDock/src/rDock_2013.1_src/data/scripts/dock_solv.prm

>  <Rbt.Receptor>
prm/pocket_docking_4.prm

>  <SCORE>
-44.0178

>  <SCORE.INTER>
-30.6627

>  <SCORE.INTER.CONST>
1

>  <SCORE.INTER.POLAR>
-4.95648

>  <SCORE.INTER.ROT>
9

>  <SCORE.INTER.SOLV>
16.2003

>  <SCORE.INTER.VDW>
-18.9203

>  <SCORE.INTER.norm>
-0.730064

>  <SCORE.INTRA>
-15.1187

>  <SCORE.INTRA.DIHEDRAL>
-31.4057

>  <SCORE.INTRA.DIHEDRAL.0>
46.2143

>  <SCORE.INTRA.POLAR>
0.873029

>  <SCORE.INTRA.POLAR.0>
-1.76436

>  <SCORE.INTRA.REPUL>
0

>  <SCORE.INTRA.REPUL.0>
0

>  <SCORE.INTRA.SOLV>
-3.92524

>  <SCORE.INTRA.SOLV.lig_0>
-148.643

>  <SCORE.INTRA.VDW>
-0.421523

>  <SCORE.INTRA.VDW.0>
-4.83512

>  <SCORE.INTRA.norm>
-0.359969

>  <SCORE.RESTR>
1.76365

>  <SCORE.RESTR.CAVITY>
1.76365

>  <SCORE.RESTR.norm>
0.0419918

>  <SCORE.SYSTEM>
0

>  <SCORE.SYSTEM.CONST>
0

>  <SCORE.SYSTEM.DIHEDRAL>
0

>  <SCORE.SYSTEM.SOLV>
0

>  <SCORE.SYSTEM.norm>
0

>  <SCORE.heavy>
42

>  <SCORE.norm>
-1.04804

>  <RMSD>
5.034

$$$$
1j7t
 OpenBabel11021811393D
libRbt.so/2013.1/901 2013/11/27
 42 45  0  0  0  0  0  0  0  0999 V2000
   32.2755    5.6434   52.7539 C   0  0  2  0  0  0  0  0  0  0  0  0
   31.6830    6.0261   54.0208 O   0  0  0  0  0  0  0  0  0  0  0  0
   31.5767    6.4928   51.6537 C   0  0  2  0  0  0  0  0  0  0  0  0
   31.5966    7.9631   51.9016 N   0  3  0  0  0  0  0  0  0  0  0  0
   30.1014    6.0446   51.5675 C   0  0  1  0  0  0  0  0  0  0  0  0
   29.4235    6.7665   50.5782 O   0  0  0  0  0  0  0  0  0  0  0  0
   30.0242    4.5257   51.2834 C   0  0  2  0  0  0  0  0  0  0  0  0
   28.6805    4.0981   51.1792 O   0  0  0  0  0  0  0  0  0  0  0  0
   30.7041    3.7592   52.3980 C   0  0  2  0  0  0  0  0  0  0  0  0
   32.0436    4.2166   52.5337 O   0  0  0  0  0  0  0  0  0  0  0  0
   30.7746    2.2713   52.1367 C   0  0  0  0  0  0  0  0  0  0  0  0
   31.3256    1.6202   53.2653 O   0  0  0  0  0  0  0  0  0  0  0  0
   33.4445    3.0158   56.4048 C   0  0  2  0  0  0  0  0  0  0  0  0
   33.8767    2.2495   57.5742 N   0  3  0  0  0  0  0  0  0  0  0  0
   34.1030    4.4351   56.4233 C   0  0  0  0  0  0  0  0  0  0  0  0
   33.6123    5.2625   55.2199 C   0  0  2  0  0  0  0  0  0  0  0  0
   34.1784    6.6152   55.2509 N   0  3  0  0  0  0  0  0  0  0  0  0
   32.0736    5.3509   55.2221 C   0  0  2  0  0  0  0  0  0  0  0  0
   31.3975    3.9660   55.2318 C   0  0  2  0  0  0  0  0  0  0  0  0
   29.9871    4.2123   55.3913 O   0  0  0  0  0  0  0  0  0  0  0  0
   31.9274    3.1160   56.4145 C   0  0  1  0  0  0  0  0  0  0  0  0
   31.3746    1.8307   56.3422 O   0  0  0  0  0  0  0  0  0  0  0  0
   29.4514    5.1255   56.3454 C   0  0  1  0  0  0  0  0  0  0  0  0
   27.8982    5.2165   56.1327 C   0  0  2  0  0  0  0  0  0  0  0  0
   27.5037    6.1910   55.1821 O   0  0  0  0  0  0  0  0  0  0  0  0
   27.4970    5.5273   57.5679 C   0  0  2  0  0  0  0  0  0  0  0  0
   27.9347    6.8634   57.9590 O   0  0  0  0  0  0  0  0  0  0  0  0
   28.3138    4.5226   58.3683 C   0  0  2  0  0  0  0  0  0  0  0  0
   29.5825    4.6052   57.6965 O   0  0  0  0  0  0  0  0  0  0  0  0
   27.7348    3.0699   58.3881 C   0  0  0  0  0  0  0  0  0  0  0  0
   26.3965    3.0405   58.9001 O   0  0  0  0  0  0  0  0  0  0  0  0
   27.1153    7.4743   58.9524 C   0  0  2  0  0  0  0  0  0  0  0  0
   25.6637    7.8249   58.4787 C   0  0  2  0  0  0  0  0  0  0  0  0
   25.6437    8.7372   57.2952 N   0  3  0  0  0  0  0  0  0  0  0  0
   24.9224    8.4573   59.7036 C   0  0  1  0  0  0  0  0  0  0  0  0
   24.8479    7.4183   60.7536 O   0  0  0  0  0  0  0  0  0  0  0  0
   25.6793    9.7136   60.2867 C   0  0  2  0  0  0  0  0  0  0  0  0
   25.6993   10.7415   59.2829 O   0  0  0  0  0  0  0  0  0  0  0  0
   27.1428    9.2624   60.6949 C   0  0  1  0  0  0  0  0  0  0  0  0
   27.7809    8.6968   59.5007 O   0  0  0  0  0  0  0  0  0  0  0  0
   28.0251   10.3925   61.2723 C   0  0  0  0  0  0  0  0  0  0  0  0
   29.3827    9.9357   61.6758 N   0  3  0  0  0  0  0  0  0  0  0  0
  1  2  1  1  0  0  0
  1  3  1  0  0  0  0
  1 10  1  0  0  0  0
  3  4  1  1  0  0  0
  3  5  1  0  0  0  0
  5  6  1  6  0  0  0
  5  7  1  0  0  0  0
  7  8  1  1  0  0  0
  7  9  1  0  0  0  0
  9 10  1  0  0  0  0
  9 11  1  6  0  0  0
 11 12  1  0  0  0  0
 13 14  1  1  0  0  0
 13 15  1  0  0  0  0
 13 21  1  0  0  0  0
 15 16  1  0  0  0  0
 16 17  1  1  0  0  0
 16 18  1  0  0  0  0
 18  2  1  6  0  0  0
 18 19  1  0  0  0  0
 19 20  1  1  0  0  0
 19 21  1  0  0  0  0
 21 22  1  6  0  0  0
 23 20  1  6  0  0  0
 23 24  1  0  0  0  0
 23 29  1  0  0  0  0
 24 25  1  6  0  0  0
 24 26  1  0  0  0  0
 26 27  1  1  0  0  0
 26 28  1  0  0  0  0
 28 29  1  0  0  0  0
 28 30  1  6  0  0  0
 30 31  1  0  0  0  0
 32 27  1  6  0  0  0
 32 33  1  0  0  0  0
 32 40  1  0  0  0  0
 33 34  1  6  0  0  0
 33 35  1  0  0  0  0
 35 36  1  1  0  0  0
 35 37  1  0  0  0  0
 37 38  1  6  0  0  0
 37 39  1  0  0  0  0
 39 40  1  0  0  0  0
 39 41  1  6  0  0  0
 41 42  1  0  0  0  0
M  CHG  5   4   1  14   1  17   1  34   1  42   1
M  END
>  <CHROM.1>
176.36998178,46.28557251,68.40524931,54.53386319,-54.51990501,-175.43965960
-63.71553703,-45.73258966,-65.45638821,-45.75970375,175.01392805,-71.78521641
-53.83035449,151.59482343,-67.02271130,-57.32061616,69.57808768,42.60768857
178.46192744,174.00308825,178.69340260,-56.16633741,29.52462187,5.78603942
56.17126395,0.65814448,0.79510502,-1.40515771

>  <Name>
1j7t

>  <RI>
0

>  <Rbt.Current_Directory>
/home/itssahil/PROJECTS/Mol_Feturizer/New_Systems/rnas/1j7t

>  <Rbt.Executable>
rbdock ($Id: //depot/dev/client3/rdock/2013.1/src/exe/rbdock.cxx#4 $)

>  <Rbt.Library>
libRbt.so (2013.1, Build901 2013/11/27)

>  <Rbt.Parameter_File>
/export/apps/rDock/src/rDock_2013.1_src/data/scripts/dock_solv.prm

>  <Rbt.Receptor>
prm/pocket_docking_6.prm

>  <SCORE>
-40.7057

>  <SCORE.INTER>
-19.0871

>  <SCORE.INTER.CONST>
1

>  <SCORE.INTER.POLAR>
-4.8506

>  <SCORE.INTER.ROT>
9

>  <SCORE.INTER.SOLV>
21.5741

>  <SCORE.INTER.VDW>
-13.3474

>  <SCORE.INTER.norm>
-0.454454

>  <SCORE.INTRA>
-21.6187

>  <SCORE.INTRA.DIHEDRAL>
-36.6849

>  <SCORE.INTRA.DIHEDRAL.0>
46.2143

>  <SCORE.INTRA.POLAR>
-0.0967356

>  <SCORE.INTRA.POLAR.0>
-1.76436

>  <SCORE.INTRA.REPUL>
0

>  <SCORE.INTRA.REPUL.0>
0

>  <SCORE.INTRA.SOLV>
-4.48346

>  <SCORE.INTRA.SOLV.lig_0>
-148.643

>  <SCORE.INTRA.VDW>
-0.705591

>  <SCORE.INTRA.VDW.0>
-4.83512

>  <SCORE.INTRA.norm>
-0.51473

>  <SCORE.RESTR>
0

>  <SCORE.RESTR.CAVITY>
0

>  <SCORE.RESTR.norm>
0

>  <SCORE.SYSTEM>
0

>  <SCORE.SYSTEM.CONST>
0

>  <SCORE.SYSTEM.DIHEDRAL>
0

>  <SCORE.SYSTEM.SOLV>
0

>  <SCORE.SYSTEM.norm>
0

>  <SCORE.heavy>
42

>  <SCORE.norm>
-0.969184

>  <RMSD>
5.057

$$$$
1j7t
 OpenBabel11021811393D
libRbt.so/2013.1/901 2013/11/27
 42 45  0  0  0  0  0  0  0  0999 V2000
   31.1244    5.9132   53.5677 C   0  0  2  0  0  0  0  0  0  0  0  0
   30.2064    6.7928   52.8704 O   0  0  0  0  0  0  0  0  0  0  0  0
   32.5007    6.6373   53.6081 C   0  0  2  0  0  0  0  0  0  0  0  0
   32.4567    8.0186   54.1682 N   0  3  0  0  0  0  0  0  0  0  0  0
   33.0376    6.7265   52.1629 C   0  0  1  0  0  0  0  0  0  0  0  0
   34.2871    7.3572   52.1389 O   0  0  0  0  0  0  0  0  0  0  0  0
   33.1288    5.3121   51.5426 C   0  0  2  0  0  0  0  0  0  0  0  0
   33.6391    5.3693   50.2252 O   0  0  0  0  0  0  0  0  0  0  0  0
   31.7566    4.6730   51.5162 C   0  0  2  0  0  0  0  0  0  0  0  0
   31.2225    4.6523   52.8339 O   0  0  0  0  0  0  0  0  0  0  0  0
   31.7791    3.2408   51.0311 C   0  0  0  0  0  0  0  0  0  0  0  0
   32.1067    3.2143   49.6551 O   0  0  0  0  0  0  0  0  0  0  0  0
   26.2590    8.1221   53.5771 C   0  0  2  0  0  0  0  0  0  0  0  0
   24.8184    8.1128   53.8338 N   0  3  0  0  0  0  0  0  0  0  0  0
   26.5605    7.4405   52.2013 C   0  0  0  0  0  0  0  0  0  0  0  0
   28.0801    7.4044   51.9497 C   0  0  2  0  0  0  0  0  0  0  0  0
   28.3842    6.7204   50.6884 N   0  3  0  0  0  0  0  0  0  0  0  0
   28.7981    6.6853   53.1085 C   0  0  2  0  0  0  0  0  0  0  0  0
   28.4969    7.3192   54.4806 C   0  0  2  0  0  0  0  0  0  0  0  0
   29.1018    6.4538   55.4607 O   0  0  0  0  0  0  0  0  0  0  0  0
   26.9667    7.3998   54.7126 C   0  0  1  0  0  0  0  0  0  0  0  0
   26.7180    8.0693   55.9180 O   0  0  0  0  0  0  0  0  0  0  0  0
   28.4180    5.9753   56.6159 C   0  0  1  0  0  0  0  0  0  0  0  0
   29.3164    4.8945   57.3165 C   0  0  2  0  0  0  0  0  0  0  0  0
   29.1228    3.5791   56.8252 O   0  0  0  0  0  0  0  0  0  0  0  0
   28.8501    5.1147   58.7487 C   0  0  2  0  0  0  0  0  0  0  0  0
   27.4696    4.6758   58.9260 O   0  0  0  0  0  0  0  0  0  0  0  0
   28.8711    6.6314   58.8774 C   0  0  2  0  0  0  0  0  0  0  0  0
   28.2939    7.0202   57.6190 O   0  0  0  0  0  0  0  0  0  0  0  0
   30.2872    7.2531   59.1096 C   0  0  0  0  0  0  0  0  0  0  0  0
   30.2089    8.6541   59.4009 O   0  0  0  0  0  0  0  0  0  0  0  0
   26.8852    5.0849   60.1599 C   0  0  2  0  0  0  0  0  0  0  0  0
   27.0129    4.0423   61.3222 C   0  0  2  0  0  0  0  0  0  0  0  0
   26.4050    2.7194   60.9849 N   0  3  0  0  0  0  0  0  0  0  0  0
   26.3400    4.6784   62.5841 C   0  0  1  0  0  0  0  0  0  0  0  0
   27.1193    5.8859   62.9333 O   0  0  0  0  0  0  0  0  0  0  0  0
   24.8416    5.1003   62.3233 C   0  0  2  0  0  0  0  0  0  0  0  0
   24.0764    3.9173   62.0405 O   0  0  0  0  0  0  0  0  0  0  0  0
   24.8198    6.1184   61.1089 C   0  0  1  0  0  0  0  0  0  0  0  0
   25.4487    5.4531   59.9621 O   0  0  0  0  0  0  0  0  0  0  0  0
   23.4109    6.6171   60.7146 C   0  0  0  0  0  0  0  0  0  0  0  0
   23.4330    7.7741   59.7791 N   0  3  0  0  0  0  0  0  0  0  0  0
  1  2  1  6  0  0  0
  1  3  1  0  0  0  0
  1 10  1  0  0  0  0
  3  4  1  6  0  0  0
  3  5  1  0  0  0  0
  5  6  1  1  0  0  0
  5  7  1  0  0  0  0
  7  8  1  6  0  0  0
  7  9  1  0  0  0  0
  9 10  1  0  0  0  0
  9 11  1  1  0  0  0
 11 12  1  0  0  0  0
 13 14  1  1  0  0  0
 13 15  1  0  0  0  0
 13 21  1  0  0  0  0
 15 16  1  0  0  0  0
 16 17  1  6  0  0  0
 16 18  1  0  0  0  0
 18  2  1  6  0  0  0
 18 19  1  0  0  0  0
 19 20  1  1  0  0  0
 19 21  1  0  0  0  0
 21 22  1  1  0  0  0
 23 20  1  6  0  0  0
 23 24  1  0  0  0  0
 23 29  1  0  0  0  0
 24 25  1  6  0  0  0
 24 26  1  0  0  0  0
 26 27  1  6  0  0  0
 26 28  1  0  0  0  0
 28 29  1  0  0  0  0
 28 30  1  6  0  0  0
 30 31  1  0  0  0  0
 32 27  1  6  0  0  0
 32 33  1  0  0  0  0
 32 40  1  0  0  0  0
 33 34  1  6  0  0  0
 33 35  1  0  0  0  0
 35 36  1  6  0  0  0
 35 37  1  0  0  0  0
 37 38  1  6  0  0  0
 37 39  1  0  0  0  0
 39 40  1  0  0  0  0
 39 41  1  6  0  0  0
 41 42  1  0  0  0  0
M  CHG  5   4   1  14   1  17   1  34   1  42   1
M  END
>  <CHROM.1>
-155.59792504,-162.81972140,166.39358833,-65.55412337,57.49172959,-68.67059862
-59.25343293,40.68849934,49.06061543,-130.90300085,171.30292714,84.89139932
-58.32831508,-168.51012471,-92.98552017,-172.11274705,-58.16617432,-67.77619084
171.25399706,68.40180440,167.81319223,102.42495117,28.61434229,6.02622299
56.14861862,-0.96483027,-0.35088947,1.85018751

>  <Name>
1j7t

>  <RI>
224

>  <Rbt.Current_Directory>
/home/itssahil/PROJECTS/Mol_Feturizer/New_Systems/rnas/1j7t

>  <Rbt.Executable>
rbdock ($Id: //depot/dev/client3/rdock/2013.1/src/exe/rbdock.cxx#4 $)

>  <Rbt.Library>
libRbt.so (2013.1, Build901 2013/11/27)

>  <Rbt.Parameter_File>
/export/apps/rDock/src/rDock_2013.1_src/data/scripts/dock_solv.prm

>  <Rbt.Receptor>
prm/pocket_docking_7.prm

>  <SCORE>
-38.8448

>  <SCORE.INTER>
-31.5843

>  <SCORE.INTER.CONST>
1

>  <SCORE.INTER.POLAR>
-6.65327

>  <SCORE.INTER.ROT>
9

>  <SCORE.INTER.SOLV>
28.8573

>  <SCORE.INTER.VDW>
-18.0977

>  <SCORE.INTER.norm>
-0.752007

>  <SCORE.INTRA>
-7.26047

>  <SCORE.INTRA.DIHEDRAL>
-20.7098

>  <SCORE.INTRA.DIHEDRAL.0>
46.2143

>  <SCORE.INTRA.POLAR>
1.22905

>  <SCORE.INTRA.POLAR.0>
-1.76436

>  <SCORE.INTRA.REPUL>
0

>  <SCORE.INTRA.REPUL.0>
0

>  <SCORE.INTRA.SOLV>
-6.03906

>  <SCORE.INTRA.SOLV.lig_0>
-148.643

>  <SCORE.INTRA.VDW>
1.93518

>  <SCORE.INTRA.VDW.0>
-4.83512

>  <SCORE.INTRA.norm>
-0.172868

>  <SCORE.RESTR>
0

>  <SCORE.RESTR.CAVITY>
0

>  <SCORE.RESTR.norm>
0

>  <SCORE.SYSTEM>
0

>  <SCORE.SYSTEM.CONST>
0

>  <SCORE.SYSTEM.DIHEDRAL>
0

>  <SCORE.SYSTEM.SOLV>
0

>  <SCORE.SYSTEM.norm>
0

>  <SCORE.heavy>
42

>  <SCORE.norm>
-0.924876

>  <RMSD>
5.095

$$$$
1j7t
 OpenBabel11021811393D
libRbt.so/2013.1/901 2013/11/27
 42 45  0  0  0  0  0  0  0  0999 V2000
   29.1643    4.8169   54.2127 C   0  0  2  0  0  0  0  0  0  0  0  0
   30.3762    5.4815   54.6510 O   0  0  0  0  0  0  0  0  0  0  0  0
   28.5821    5.6636   53.0447 C   0  0  2  0  0  0  0  0  0  0  0  0
   29.5451    5.9379   51.9396 N   0  3  0  0  0  0  0  0  0  0  0  0
   28.1197    7.0199   53.6205 C   0  0  1  0  0  0  0  0  0  0  0  0
   27.5694    7.8216   52.6135 O   0  0  0  0  0  0  0  0  0  0  0  0
   27.0948    6.7920   54.7569 C   0  0  2  0  0  0  0  0  0  0  0  0
   26.6418    8.0232   55.2842 O   0  0  0  0  0  0  0  0  0  0  0  0
   27.7295    5.9803   55.8662 C   0  0  2  0  0  0  0  0  0  0  0  0
   28.2241    4.7593   55.3310 O   0  0  0  0  0  0  0  0  0  0  0  0
   26.7560    5.6139   56.9639 C   0  0  0  0  0  0  0  0  0  0  0  0
   26.2768    6.7927   57.5818 O   0  0  0  0  0  0  0  0  0  0  0  0
   32.0002    2.3001   56.9070 C   0  0  2  0  0  0  0  0  0  0  0  0
   32.9442    1.4814   57.6686 N   0  3  0  0  0  0  0  0  0  0  0  0
   32.5198    2.4921   55.4436 C   0  0  0  0  0  0  0  0  0  0  0  0
   31.5534    3.3941   54.6523 C   0  0  2  0  0  0  0  0  0  0  0  0
   32.0529    3.6287   53.2935 N   0  3  0  0  0  0  0  0  0  0  0  0
   31.3712    4.7450   55.3716 C   0  0  2  0  0  0  0  0  0  0  0  0
   30.8859    4.5849   56.8255 C   0  0  2  0  0  0  0  0  0  0  0  0
   30.9161    5.9044   57.4031 O   0  0  0  0  0  0  0  0  0  0  0  0
   31.8315    3.6387   57.6080 C   0  0  1  0  0  0  0  0  0  0  0  0
   31.3143    3.4301   58.8934 O   0  0  0  0  0  0  0  0  0  0  0  0
   29.8562    6.4430   58.1891 C   0  0  1  0  0  0  0  0  0  0  0  0
   29.8503    5.7197   59.5829 C   0  0  2  0  0  0  0  0  0  0  0  0
   29.0820    4.5289   59.6100 O   0  0  0  0  0  0  0  0  0  0  0  0
   29.2883    6.8597   60.4206 C   0  0  2  0  0  0  0  0  0  0  0  0
   27.8908    7.1176   60.0882 O   0  0  0  0  0  0  0  0  0  0  0  0
   30.1024    8.0554   59.9467 C   0  0  2  0  0  0  0  0  0  0  0  0
   30.1110    7.8340   58.5259 O   0  0  0  0  0  0  0  0  0  0  0  0
   31.5415    8.1534   60.5510 C   0  0  0  0  0  0  0  0  0  0  0  0
   31.5135    8.5848   61.9174 O   0  0  0  0  0  0  0  0  0  0  0  0
   26.9788    6.1747   60.6456 C   0  0  2  0  0  0  0  0  0  0  0  0
   25.5008    6.6816   60.7588 C   0  0  2  0  0  0  0  0  0  0  0  0
   25.3749    7.9257   61.5772 N   0  3  0  0  0  0  0  0  0  0  0  0
   24.6594    5.5087   61.3640 C   0  0  1  0  0  0  0  0  0  0  0  0
   24.7115    4.3897   60.3983 O   0  0  0  0  0  0  0  0  0  0  0  0
   25.2263    5.0090   62.7496 C   0  0  2  0  0  0  0  0  0  0  0  0
   25.1211    6.0816   63.7000 O   0  0  0  0  0  0  0  0  0  0  0  0
   26.7311    4.5603   62.5343 C   0  0  1  0  0  0  0  0  0  0  0  0
   27.4607    5.7079   61.9829 O   0  0  0  0  0  0  0  0  0  0  0  0
   27.4398    4.0567   63.8122 C   0  0  0  0  0  0  0  0  0  0  0  0
   26.7625    2.8922   64.4446 N   0  3  0  0  0  0  0  0  0  0  0  0
  1  2  1  1  0  0  0
  1  3  1  0  0  0  0
  1 10  1  0  0  0  0
  3  4  1  6  0  0  0
  3  5  1  0  0  0  0
  5  6  1  6  0  0  0
  5  7  1  0  0  0  0
  7  8  1  1  0  0  0
  7  9  1  0  0  0  0
  9 10  1  0  0  0  0
  9 11  1  1  0  0  0
 11 12  1  0  0  0  0
 13 14  1  1  0  0  0
 13 15  1  0  0  0  0
 13 21  1  0  0  0  0
 15 16  1  0  0  0  0
 16 17  1  6  0  0  0
 16 18  1  0  0  0  0
 18  2  1  6  0  0  0
 18 19  1  0  0  0  0
 19 20  1  1  0  0  0
 19 21  1  0  0  0  0
 21 22  1  1  0  0  0
 23 20  1  6  0  0  0
 23 24  1  0  0  0  0
 23 29  1  0  0  0  0
 24 25  1  6  0  0  0
 24 26  1  0  0  0  0
 26 27  1  6  0  0  0
 26 28  1  0  0  0  0
 28 29  1  0  0  0  0
 28 30  1  1  0  0  0
 30 31  1  0  0  0  0
 32 27  1  1  0  0  0
 32 33  1  0  0  0  0
 32 40  1  0  0  0  0
 33 34  1  1  0  0  0
 33 35  1  0  0  0  0
 35 36  1  6  0  0  0
 35 37  1  0  0  0  0
 37 38  1  1  0  0  0
 37 39  1  0  0  0  0
 39 40  1  0  0  0  0
 39 41  1  1  0  0  0
 41 42  1  0  0  0  0
M  CHG  5   4   1  14   1  17   1  34   1  42   1
M  END
>  <CHROM.1>
-158.62371690,44.37033290,-40.17291809,173.66704860,-59.78184834,-62.59245723
-78.60306563,-127.42687648,-69.11546130,134.58420020,72.20640143,71.34873329
-48.23359345,77.07067905,158.86756170,-74.42056879,-177.83551504,-61.61022859
178.92256914,169.84419134,58.71776349,-51.35696829,28.76513328,5.54913404
58.18551710,1.07257351,0.52453635,-1.39276658

>  <Name>
1j7t

>  <RI>
0

>  <Rbt.Current_Directory>
/home/itssahil/PROJECTS/Mol_Feturizer/New_Systems/rnas/1j7t

>  <Rbt.Executable>
rbdock ($Id: //depot/dev/client3/rdock/2013.1/src/exe/rbdock.cxx#4 $)

>  <Rbt.Library>
libRbt.so (2013.1, Build901 2013/11/27)

>  <Rbt.Parameter_File>
/export/apps/rDock/src/rDock_2013.1_src/data/scripts/dock_solv.prm

>  <Rbt.Receptor>
prm/pocket_docking_5.prm

>  <SCORE>
-38.5063

>  <SCORE.INTER>
-26.723

>  <SCORE.INTER.CONST>
1

>  <SCORE.INTER.POLAR>
-5.15491

>  <SCORE.INTER.ROT>
9

>  <SCORE.INTER.SOLV>
16.8713

>  <SCORE.INTER.VDW>
-15.8561

>  <SCORE.INTER.norm>
-0.636262

>  <SCORE.INTRA>
-11.7854

>  <SCORE.INTRA.DIHEDRAL>
-23.1532

>  <SCORE.INTRA.DIHEDRAL.0>
46.2143

>  <SCORE.INTRA.POLAR>
0.0524975

>  <SCORE.INTRA.POLAR.0>
-1.76436

>  <SCORE.INTRA.REPUL>
0

>  <SCORE.INTRA.REPUL.0>
0

>  <SCORE.INTRA.SOLV>
0.517646

>  <SCORE.INTRA.SOLV.lig_0>
-148.643

>  <SCORE.INTRA.VDW>
-0.646131

>  <SCORE.INTRA.VDW.0>
-4.83512

>  <SCORE.INTRA.norm>
-0.280605

>  <SCORE.RESTR>
0.00211403

>  <SCORE.RESTR.CAVITY>
0.00211403

>  <SCORE.RESTR.norm>
5.0334e-05

>  <SCORE.SYSTEM>
0

>  <SCORE.SYSTEM.CONST>
0

>  <SCORE.SYSTEM.DIHEDRAL>
0

>  <SCORE.SYSTEM.SOLV>
0

>  <SCORE.SYSTEM.norm>
0

>  <SCORE.heavy>
42

>  <SCORE.norm>
-0.916817

>  <RMSD>
5.111

$$$$
1j7t
 OpenBabel11021811393D
libRbt.so/2013.1/901 2013/11/27
 42 45  0  0  0  0  0  0  0  0999 V2000
   32.7689    7.0862   53.8953 C   0  0  2  0  0  0  0  0  0  0  0  0
   31.9901    6.0697   53.2149 O   0  0  0  0  0  0  0  0  0  0  0  0
   34.0342    7.3420   53.0272 C   0  0  2  0  0  0  0  0  0  0  0  0
   33.7499    7.6646   51.5993 N   0  3  0  0  0  0  0  0  0  0  0  0
   34.9052    6.0672   53.0628 C   0  0  1  0  0  0  0  0  0  0  0  0
   36.0709    6.2450   52.3086 O   0  0  0  0  0  0  0  0  0  0  0  0
   35.2525    5.7028   54.5257 C   0  0  2  0  0  0  0  0  0  0  0  0
   36.0684    4.5493   54.5797 O   0  0  0  0  0  0  0  0  0  0  0  0
   33.9814    5.4488   55.3078 C   0  0  2  0  0  0  0  0  0  0  0  0
   33.1397    6.5916   55.2204 O   0  0  0  0  0  0  0  0  0  0  0  0
   34.2301    5.2007   56.7787 C   0  0  0  0  0  0  0  0  0  0  0  0
   32.9922    5.1107   57.4575 O   0  0  0  0  0  0  0  0  0  0  0  0
   28.9085    8.1242   51.1824 C   0  0  2  0  0  0  0  0  0  0  0  0
   27.5803    8.5072   50.7022 N   0  3  0  0  0  0  0  0  0  0  0  0
   29.2499    6.6728   50.7076 C   0  0  0  0  0  0  0  0  0  0  0  0
   30.6269    6.2474   51.2520 C   0  0  2  0  0  0  0  0  0  0  0  0
   30.9395    4.8688   50.8610 N   0  3  0  0  0  0  0  0  0  0  0  0
   30.6545    6.3628   52.7887 C   0  0  2  0  0  0  0  0  0  0  0  0
   30.2947    7.7764   53.2863 C   0  0  2  0  0  0  0  0  0  0  0  0
   30.2100    7.6840   54.7214 O   0  0  0  0  0  0  0  0  0  0  0  0
   28.9318    8.2236   52.6994 C   0  0  1  0  0  0  0  0  0  0  0  0
   28.6762    9.5463   53.0841 O   0  0  0  0  0  0  0  0  0  0  0  0
   29.0905    7.1314   55.4089 C   0  0  1  0  0  0  0  0  0  0  0  0
   29.5266    6.7862   56.8775 C   0  0  2  0  0  0  0  0  0  0  0  0
   30.0823    5.4905   57.0232 O   0  0  0  0  0  0  0  0  0  0  0  0
   28.1798    6.9823   57.5594 C   0  0  2  0  0  0  0  0  0  0  0  0
   27.2323    5.9466   57.1604 O   0  0  0  0  0  0  0  0  0  0  0  0
   27.6961    8.3002   56.9708 C   0  0  2  0  0  0  0  0  0  0  0  0
   28.0446    8.1253   55.5867 O   0  0  0  0  0  0  0  0  0  0  0  0
   28.3419    9.5785   57.5989 C   0  0  0  0  0  0  0  0  0  0  0  0
   29.7730    9.5008   57.6032 O   0  0  0  0  0  0  0  0  0  0  0  0
   26.8302    5.0877   58.2245 C   0  0  2  0  0  0  0  0  0  0  0  0
   25.6167    4.1551   57.8901 C   0  0  2  0  0  0  0  0  0  0  0  0
   24.3977    4.9143   57.4764 N   0  3  0  0  0  0  0  0  0  0  0  0
   25.3458    3.2825   59.1609 C   0  0  1  0  0  0  0  0  0  0  0  0
   26.5468    2.4483   59.3827 O   0  0  0  0  0  0  0  0  0  0  0  0
   25.0897    4.1550   60.4511 C   0  0  2  0  0  0  0  0  0  0  0  0
   23.8903    4.9213   60.2538 O   0  0  0  0  0  0  0  0  0  0  0  0
   26.3520    5.0868   60.6752 C   0  0  1  0  0  0  0  0  0  0  0  0
   26.5361    5.8836   59.4568 O   0  0  0  0  0  0  0  0  0  0  0  0
   26.2489    6.0234   61.9004 C   0  0  0  0  0  0  0  0  0  0  0  0
   27.4508    6.8792   62.0940 N   0  3  0  0  0  0  0  0  0  0  0  0
  1  2  1  6  0  0  0
  1  3  1  0  0  0  0
  1 10  1  0  0  0  0
  3  4  1  6  0  0  0
  3  5  1  0  0  0  0
  5  6  1  6  0  0  0
  5  7  1  0  0  0  0
  7  8  1  6  0  0  0
  7  9  1  0  0  0  0
  9 10  1  0  0  0  0
  9 11  1  1  0  0  0
 11 12  1  0  0  0  0
 13 14  1  1  0  0  0
 13 15  1  0  0  0  0
 13 21  1  0  0  0  0
 15 16  1  0  0  0  0
 16 17  1  1  0  0  0
 16 18  1  0  0  0  0
 18  2  1  6  0  0  0
 18 19  1  0  0  0  0
 19 20  1  1  0  0  0
 19 21  1  0  0  0  0
 21 22  1  6  0  0  0
 23 20  1  6  0  0  0
 23 24  1  0  0  0  0
 23 29  1  0  0  0  0
 24 25  1  6  0  0  0
 24 26  1  0  0  0  0
 26 27  1  6  0  0  0
 26 28  1  0  0  0  0
 28 29  1  0  0  0  0
 28 30  1  1  0  0  0
 30 31  1  0  0  0  0
 32 27  1  6  0  0  0
 32 33  1  0  0  0  0
 32 40  1  0  0  0  0
 33 34  1  1  0  0  0
 33 35  1  0  0  0  0
 35 36  1  1  0  0  0
 35 37  1  0  0  0  0
 37 38  1  6  0  0  0
 37 39  1  0  0  0  0
 39 40  1  0  0  0  0
 39 41  1  1  0  0  0
 41 42  1  0  0  0  0
M  CHG  5   4   1  14   1  17   1  34   1  42   1
M  END
>  <CHROM.1>
-119.94529826,117.44818185,-88.68521817,-61.95409608,-178.67272780,174.00576060
-171.14808306,92.28321251,-37.40568174,-77.82320875,162.43456661,173.69465175
-176.72527827,114.97183072,168.68867959,51.83203642,-173.40544941,175.57419690
-53.71540859,76.24870600,179.55156569,55.19407911,29.70846294,6.37438521
55.74989518,-0.75701920,-0.16890213,1.93183103

>  <Name>
1j7t

>  <RI>
0

>  <Rbt.Current_Directory>
/home/itssahil/PROJECTS/Mol_Feturizer/New_Systems/rnas/1j7t

>  <Rbt.Executable>
rbdock ($Id: //depot/dev/client3/rdock/2013.1/src/exe/rbdock.cxx#4 $)

>  <Rbt.Library>
libRbt.so (2013.1, Build901 2013/11/27)

>  <Rbt.Parameter_File>
/export/apps/rDock/src/rDock_2013.1_src/data/scripts/dock_solv.prm

>  <Rbt.Receptor>
prm/pocket_docking_2.prm

>  <SCORE>
-20.0003

>  <SCORE.INTER>
-19.8111

>  <SCORE.INTER.CONST>
1

>  <SCORE.INTER.POLAR>
-3.82654

>  <SCORE.INTER.ROT>
9

>  <SCORE.INTER.SOLV>
22.1267

>  <SCORE.INTER.VDW>
-17.4279

>  <SCORE.INTER.norm>
-0.471693

>  <SCORE.INTRA>
-3.99867

>  <SCORE.INTRA.DIHEDRAL>
-13.4631

>  <SCORE.INTRA.DIHEDRAL.0>
46.2143

>  <SCORE.INTRA.POLAR>
0.47601

>  <SCORE.INTRA.POLAR.0>
-1.76436

>  <SCORE.INTRA.REPUL>
0.0495032

>  <SCORE.INTRA.REPUL.0>
0

>  <SCORE.INTRA.SOLV>
-3.09753

>  <SCORE.INTRA.SOLV.lig_0>
-148.643

>  <SCORE.INTRA.VDW>
2.4157

>  <SCORE.INTRA.VDW.0>
-4.83512

>  <SCORE.INTRA.norm>
-0.0952064

>  <SCORE.RESTR>
3.8095

>  <SCORE.RESTR.CAVITY>
3.8095

>  <SCORE.RESTR.norm>
0.0907024

>  <SCORE.SYSTEM>
0

>  <SCORE.SYSTEM.CONST>
0

>  <SCORE.SYSTEM.DIHEDRAL>
0

>  <SCORE.SYSTEM.SOLV>
0

>  <SCORE.SYSTEM.norm>
0

>  <SCORE.heavy>
42

>  <SCORE.norm>
-0.476197

>  <RMSD>
5.138

$$$$
1j7t
 OpenBabel11021811393D
libRbt.so/2013.1/901 2013/11/27
 42 45  0  0  0  0  0  0  0  0999 V2000
   27.3895    5.4812   53.2976 C   0  0  2  0  0  0  0  0  0  0  0  0
   26.9961    6.8331   53.6444 O   0  0  0  0  0  0  0  0  0  0  0  0
   26.4429    4.5220   54.0747 C   0  0  2  0  0  0  0  0  0  0  0  0
   24.9899    4.7903   53.8741 N   0  3  0  0  0  0  0  0  0  0  0  0
   26.7496    4.6635   55.5816 C   0  0  1  0  0  0  0  0  0  0  0  0
   25.9354    3.8081   56.3332 O   0  0  0  0  0  0  0  0  0  0  0  0
   28.2444    4.3678   55.8489 C   0  0  2  0  0  0  0  0  0  0  0  0
   28.5421    4.4710   57.2273 O   0  0  0  0  0  0  0  0  0  0  0  0
   29.1073    5.3458   55.0801 C   0  0  2  0  0  0  0  0  0  0  0  0
   28.7806    5.2748   53.6980 O   0  0  0  0  0  0  0  0  0  0  0  0
   30.5858    5.0495   55.1955 C   0  0  0  0  0  0  0  0  0  0  0  0
   30.8730    3.8248   54.5483 O   0  0  0  0  0  0  0  0  0  0  0  0
   29.3838    8.9627   50.8854 C   0  0  2  0  0  0  0  0  0  0  0  0
   29.8774   10.0289   50.0132 N   0  3  0  0  0  0  0  0  0  0  0  0
   27.9655    8.5002   50.4132 C   0  0  0  0  0  0  0  0  0  0  0  0
   27.4214    7.4117   51.3580 C   0  0  2  0  0  0  0  0  0  0  0  0
   26.0694    7.0044   50.9613 N   0  3  0  0  0  0  0  0  0  0  0  0
   27.3957    7.9269   52.8105 C   0  0  2  0  0  0  0  0  0  0  0  0
   28.7753    8.4153   53.2935 C   0  0  2  0  0  0  0  0  0  0  0  0
   28.5580    9.0032   54.5907 O   0  0  0  0  0  0  0  0  0  0  0  0
   29.3442    9.4752   52.3164 C   0  0  1  0  0  0  0  0  0  0  0  0
   30.6382    9.8279   52.7214 O   0  0  0  0  0  0  0  0  0  0  0  0
   28.3027    8.2400   55.7670 C   0  0  1  0  0  0  0  0  0  0  0  0
   29.2368    8.7644   56.9153 C   0  0  2  0  0  0  0  0  0  0  0  0
   30.5091    8.1409   56.9520 O   0  0  0  0  0  0  0  0  0  0  0  0
   28.3347    8.4414   58.0981 C   0  0  2  0  0  0  0  0  0  0  0  0
   28.2180    6.9998   58.2926 O   0  0  0  0  0  0  0  0  0  0  0  0
   26.9787    8.9545   57.6341 C   0  0  2  0  0  0  0  0  0  0  0  0
   26.9633    8.4925   56.2725 O   0  0  0  0  0  0  0  0  0  0  0  0
   26.7860   10.5023   57.7484 C   0  0  0  0  0  0  0  0  0  0  0  0
   26.9224   10.9541   59.1017 O   0  0  0  0  0  0  0  0  0  0  0  0
   27.4088    6.6286   59.4057 C   0  0  2  0  0  0  0  0  0  0  0  0
   28.2040    6.3240   60.7206 C   0  0  2  0  0  0  0  0  0  0  0  0
   29.2129    5.2347   60.5499 N   0  3  0  0  0  0  0  0  0  0  0  0
   27.1502    5.9633   61.8202 C   0  0  1  0  0  0  0  0  0  0  0  0
   26.3114    7.1630   62.0322 O   0  0  0  0  0  0  0  0  0  0  0  0
   26.2184    4.7624   61.3950 C   0  0  2  0  0  0  0  0  0  0  0  0
   27.0293    3.5856   61.2456 O   0  0  0  0  0  0  0  0  0  0  0  0
   25.4960    5.1541   60.0397 C   0  0  1  0  0  0  0  0  0  0  0  0
   26.5394    5.4626   59.0550 O   0  0  0  0  0  0  0  0  0  0  0  0
   24.5531    4.0662   59.4773 C   0  0  0  0  0  0  0  0  0  0  0  0
   25.2596    2.8176   59.0818 N   0  3  0  0  0  0  0  0  0  0  0  0
  1  2  1  1  0  0  0
  1  3  1  0  0  0  0
  1 10  1  0  0  0  0
  3  4  1  1  0  0  0
  3  5  1  0  0  0  0
  5  6  1  1  0  0  0
  5  7  1  0  0  0  0
  7  8  1  1  0  0  0
  7  9  1  0  0  0  0
  9 10  1  0  0  0  0
  9 11  1  6  0  0  0
 11 12  1  0  0  0  0
 13 14  1  6  0  0  0
 13 15  1  0  0  0  0
 13 21  1  0  0  0  0
 15 16  1  0  0  0  0
 16 17  1  6  0  0  0
 16 18  1  0  0  0  0
 18  2  1  1  0  0  0
 18 19  1  0  0  0  0
 19 20  1  1  0  0  0
 19 21  1  0  0  0  0
 21 22  1  1  0  0  0
 23 20  1  6  0  0  0
 23 24  1  0  0  0  0
 23 29  1  0  0  0  0
 24 25  1  1  0  0  0
 24 26  1  0  0  0  0
 26 27  1  6  0  0  0
 26 28  1  0  0  0  0
 28 29  1  0  0  0  0
 28 30  1  6  0  0  0
 30 31  1  0  0  0  0
 32 27  1  6  0  0  0
 32 33  1  0  0  0  0
 32 40  1  0  0  0  0
 33 34  1  6  0  0  0
 33 35  1  0  0  0  0
 35 36  1  6  0  0  0
 35 37  1  0  0  0  0
 37 38  1  6  0  0  0
 37 39  1  0  0  0  0
 39 40  1  0  0  0  0
 39 41  1  6  0  0  0
 41 42  1  0  0  0  0
M  CHG  5   4   1  14   1  17   1  34   1  42   1
M  END
>  <CHROM.1>
-161.44738096,33.63961551,95.72861103,67.52445082,-45.30288886,66.79689295
55.88305735,166.88249701,59.60052404,73.78541069,132.02973656,69.34131719
-154.20612045,178.67163501,-96.46217219,-59.97109350,-53.59186854,-65.21907408
-63.31096435,80.92826083,-64.33057322,160.12028078,27.75908584,6.68042304
56.19327231,0.90221872,-1.23193588,-1.88608064

>  <Name>
1j7t

>  <RI>
224

>  <Rbt.Current_Directory>
/home/itssahil/PROJECTS/Mol_Feturizer/New_Systems/rnas/1j7t

>  <Rbt.Executable>
rbdock ($Id: //depot/dev/client3/rdock/2013.1/src/exe/rbdock.cxx#4 $)

>  <Rbt.Library>
libRbt.so (2013.1, Build901 2013/11/27)

>  <Rbt.Parameter_File>
/export/apps/rDock/src/rDock_2013.1_src/data/scripts/dock_solv.prm

>  <Rbt.Receptor>
prm/pocket_docking_7.prm

>  <SCORE>
-46.698

>  <SCORE.INTER>
-29.5692

>  <SCORE.INTER.CONST>
1

>  <SCORE.INTER.POLAR>
-4.87991

>  <SCORE.INTER.ROT>
9

>  <SCORE.INTER.SOLV>
21.1248

>  <SCORE.INTER.VDW>
-20.088

>  <SCORE.INTER.norm>
-0.704028

>  <SCORE.INTRA>
-17.1288

>  <SCORE.INTRA.DIHEDRAL>
-18.5105

>  <SCORE.INTRA.DIHEDRAL.0>
46.2143

>  <SCORE.INTRA.POLAR>
-2.60552

>  <SCORE.INTRA.POLAR.0>
-1.76436

>  <SCORE.INTRA.REPUL>
0.0149956

>  <SCORE.INTRA.REPUL.0>
0

>  <SCORE.INTRA.SOLV>
4.94338

>  <SCORE.INTRA.SOLV.lig_0>
-148.643

>  <SCORE.INTRA.VDW>
-1.56145

>  <SCORE.INTRA.VDW.0>
-4.83512

>  <SCORE.INTRA.norm>
-0.407829

>  <SCORE.RESTR>
0

>  <SCORE.RESTR.CAVITY>
0

>  <SCORE.RESTR.norm>
0

>  <SCORE.SYSTEM>
0

>  <SCORE.SYSTEM.CONST>
0

>  <SCORE.SYSTEM.DIHEDRAL>
0

>  <SCORE.SYSTEM.SOLV>
0

>  <SCORE.SYSTEM.norm>
0

>  <SCORE.heavy>
42

>  <SCORE.norm>
-1.11186

>  <RMSD>
5.156

$$$$
1j7t
 OpenBabel11021811393D
libRbt.so/2013.1/901 2013/11/27
 42 45  0  0  0  0  0  0  0  0999 V2000
   30.4169   10.6307   50.5228 C   0  0  2  0  0  0  0  0  0  0  0  0
   31.1677    9.4593   50.1143 O   0  0  0  0  0  0  0  0  0  0  0  0
   29.1444   10.6855   49.6296 C   0  0  2  0  0  0  0  0  0  0  0  0
   28.3374    9.4315   49.6250 N   0  3  0  0  0  0  0  0  0  0  0  0
   29.5896   10.9704   48.1786 C   0  0  1  0  0  0  0  0  0  0  0  0
   28.4803   11.0472   47.3283 O   0  0  0  0  0  0  0  0  0  0  0  0
   30.4107   12.2804   48.1231 C   0  0  2  0  0  0  0  0  0  0  0  0
   30.8105   12.5714   46.7985 O   0  0  0  0  0  0  0  0  0  0  0  0
   31.6410   12.1532   48.9963 C   0  0  2  0  0  0  0  0  0  0  0  0
   31.2448   11.8188   50.3204 O   0  0  0  0  0  0  0  0  0  0  0  0
   32.4372   13.4355   49.0890 C   0  0  0  0  0  0  0  0  0  0  0  0
   31.6176   14.4623   49.6138 O   0  0  0  0  0  0  0  0  0  0  0  0
   33.6285    6.4280   51.7278 C   0  0  2  0  0  0  0  0  0  0  0  0
   34.5568    5.7190   52.6093 N   0  3  0  0  0  0  0  0  0  0  0  0
   34.3315    7.6821   51.1101 C   0  0  0  0  0  0  0  0  0  0  0  0
   33.3427    8.4587   50.2197 C   0  0  2  0  0  0  0  0  0  0  0  0
   33.9695    9.6676   49.6749 N   0  3  0  0  0  0  0  0  0  0  0  0
   32.0892    8.8507   51.0264 C   0  0  2  0  0  0  0  0  0  0  0  0
   31.3914    7.6365   51.6698 C   0  0  2  0  0  0  0  0  0  0  0  0
   30.3483    8.1735   52.5059 O   0  0  0  0  0  0  0  0  0  0  0  0
   32.3983    6.8280   52.5267 C   0  0  1  0  0  0  0  0  0  0  0  0
   31.7664    5.6777   53.0172 O   0  0  0  0  0  0  0  0  0  0  0  0
   30.5981    8.8874   53.7138 C   0  0  1  0  0  0  0  0  0  0  0  0
   29.4776    8.5215   54.7514 C   0  0  2  0  0  0  0  0  0  0  0  0
   28.3245    9.3414   54.6661 O   0  0  0  0  0  0  0  0  0  0  0  0
   30.2913    8.6970   56.0258 C   0  0  2  0  0  0  0  0  0  0  0  0
   30.6161   10.1015   56.2535 O   0  0  0  0  0  0  0  0  0  0  0  0
   31.5887    7.9720   55.6964 C   0  0  2  0  0  0  0  0  0  0  0  0
   31.8198    8.4237   54.3510 O   0  0  0  0  0  0  0  0  0  0  0  0
   31.5183    6.4136   55.8062 C   0  0  0  0  0  0  0  0  0  0  0  0
   30.9471    5.9961   57.0526 O   0  0  0  0  0  0  0  0  0  0  0  0
   30.2436   10.5809   57.5430 C   0  0  2  0  0  0  0  0  0  0  0  0
   28.7091   10.5089   57.8501 C   0  0  2  0  0  0  0  0  0  0  0  0
   27.8831   11.2676   56.8624 N   0  3  0  0  0  0  0  0  0  0  0  0
   28.5070   11.0511   59.3044 C   0  0  1  0  0  0  0  0  0  0  0  0
   29.2237   10.1337   60.2166 O   0  0  0  0  0  0  0  0  0  0  0  0
   29.0853   12.5076   59.4933 C   0  0  2  0  0  0  0  0  0  0  0  0
   28.3481   13.4052   58.6474 O   0  0  0  0  0  0  0  0  0  0  0  0
   30.6252   12.4794   59.1194 C   0  0  1  0  0  0  0  0  0  0  0  0
   30.7379   11.9786   57.7447 O   0  0  0  0  0  0  0  0  0  0  0  0
   31.3394   13.8451   59.2373 C   0  0  0  0  0  0  0  0  0  0  0  0
   30.6530   14.7944   60.1551 N   0  3  0  0  0  0  0  0  0  0  0  0
  1  2  1  6  0  0  0
  1  3  1  0  0  0  0
  1 10  1  0  0  0  0
  3  4  1  6  0  0  0
  3  5  1  0  0  0  0
  5  6  1  6  0  0  0
  5  7  1  0  0  0  0
  7  8  1  6  0  0  0
  7  9  1  0  0  0  0
  9 10  1  0  0  0  0
  9 11  1  1  0  0  0
 11 12  1  0  0  0  0
 13 14  1  1  0  0  0
 13 15  1  0  0  0  0
 13 21  1  0  0  0  0
 15 16  1  0  0  0  0
 16 17  1  1  0  0  0
 16 18  1  0  0  0  0
 18  2  1  6  0  0  0
 18 19  1  0  0  0  0
 19 20  1  1  0  0  0
 19 21  1  0  0  0  0
 21 22  1  6  0  0  0
 23 20  1  6  0  0  0
 23 24  1  0  0  0  0
 23 29  1  0  0  0  0
 24 25  1  1  0  0  0
 24 26  1  0  0  0  0
 26 27  1  6  0  0  0
 26 28  1  0  0  0  0
 28 29  1  0  0  0  0
 28 30  1  6  0  0  0
 30 31  1  0  0  0  0
 32 27  1  6  0  0  0
 32 33  1  0  0  0  0
 32 40  1  0  0  0  0
 33 34  1  6  0  0  0
 33 35  1  0  0  0  0
 35 36  1  1  0  0  0
 35 37  1  0  0  0  0
 37 38  1  6  0  0  0
 37 39  1  0  0  0  0
 39 40  1  0  0  0  0
 39 41  1  6  0  0  0
 41 42  1  0  0  0  0
M  CHG  5   4   1  14   1  17   1  34   1  42   1
M  END
>  <CHROM.1>
-156.68756074,-139.07221707,99.21744717,-168.27856076,72.72156534,58.87697169
-176.91988261,-169.03255790,176.64880982,-70.11346790,-143.75560019,73.42894613
63.16553146,126.75455806,-61.05780324,-49.74986943,-53.87178344,100.48843170
-174.83771854,-67.11252337,22.70521348,-84.47903926,30.78216755,10.04806271
53.54748708,1.10398391,1.19705052,-1.23932810

>  <Name>
1j7t

>  <RI>
0

>  <Rbt.Current_Directory>
/home/itssahil/PROJECTS/Mol_Feturizer/New_Systems/rnas/1j7t

>  <Rbt.Executable>
rbdock ($Id: //depot/dev/client3/rdock/2013.1/src/exe/rbdock.cxx#4 $)

>  <Rbt.Library>
libRbt.so (2013.1, Build901 2013/11/27)

>  <Rbt.Parameter_File>
/export/apps/rDock/src/rDock_2013.1_src/data/scripts/dock_solv.prm

>  <Rbt.Receptor>
prm/blind_docking_80.prm

>  <SCORE>
4.52058

>  <SCORE.INTER>
-19.4805

>  <SCORE.INTER.CONST>
1

>  <SCORE.INTER.POLAR>
-3.36564

>  <SCORE.INTER.ROT>
9

>  <SCORE.INTER.SOLV>
36.1508

>  <SCORE.INTER.VDW>
-23.4184

>  <SCORE.INTER.norm>
-0.463821

>  <SCORE.INTRA>
0.798418

>  <SCORE.INTRA.DIHEDRAL>
-12.0421

>  <SCORE.INTRA.DIHEDRAL.0>
46.2143

>  <SCORE.INTRA.POLAR>
0.884384

>  <SCORE.INTRA.POLAR.0>
-1.76436

>  <SCORE.INTRA.REPUL>
0

>  <SCORE.INTRA.REPUL.0>
0

>  <SCORE.INTRA.SOLV>
1.98412

>  <SCORE.INTRA.SOLV.lig_0>
-148.643

>  <SCORE.INTRA.VDW>
2.82048

>  <SCORE.INTRA.VDW.0>
-4.83512

>  <SCORE.INTRA.norm>
0.0190099

>  <SCORE.RESTR>
23.2026

>  <SCORE.RESTR.CAVITY>
23.2026

>  <SCORE.RESTR.norm>
0.552444

>  <SCORE.SYSTEM>
0

>  <SCORE.SYSTEM.CONST>
0

>  <SCORE.SYSTEM.DIHEDRAL>
0

>  <SCORE.SYSTEM.SOLV>
0

>  <SCORE.SYSTEM.norm>
0

>  <SCORE.heavy>
42

>  <SCORE.norm>
0.107633

>  <RMSD>
5.167

$$$$
1j7t
 OpenBabel11021811393D
libRbt.so/2013.1/901 2013/11/27
 42 45  0  0  0  0  0  0  0  0999 V2000
   31.8429    7.4117   54.2751 C   0  0  2  0  0  0  0  0  0  0  0  0
   30.7372    7.2423   53.3525 O   0  0  0  0  0  0  0  0  0  0  0  0
   33.1195    7.6331   53.4141 C   0  0  2  0  0  0  0  0  0  0  0  0
   33.0063    8.7304   52.4108 N   0  3  0  0  0  0  0  0  0  0  0  0
   33.4179    6.3222   52.6542 C   0  0  1  0  0  0  0  0  0  0  0  0
   34.5707    6.4571   51.8716 O   0  0  0  0  0  0  0  0  0  0  0  0
   33.5721    5.1523   53.6547 C   0  0  2  0  0  0  0  0  0  0  0  0
   33.8673    3.9452   52.9803 O   0  0  0  0  0  0  0  0  0  0  0  0
   32.2921    4.9794   54.4445 C   0  0  2  0  0  0  0  0  0  0  0  0
   31.9694    6.2045   55.0904 O   0  0  0  0  0  0  0  0  0  0  0  0
   32.4012    3.9298   55.5278 C   0  0  0  0  0  0  0  0  0  0  0  0
   33.4282    4.2901   56.4315 O   0  0  0  0  0  0  0  0  0  0  0  0
   26.6587    8.2065   53.8855 C   0  0  2  0  0  0  0  0  0  0  0  0
   25.2736    8.1613   54.3556 N   0  3  0  0  0  0  0  0  0  0  0  0
   26.9987    6.8970   53.0993 C   0  0  0  0  0  0  0  0  0  0  0  0
   28.4705    6.9191   52.6446 C   0  0  2  0  0  0  0  0  0  0  0  0
   28.8217    5.6749   51.9522 N   0  3  0  0  0  0  0  0  0  0  0  0
   29.4030    7.1116   53.8568 C   0  0  2  0  0  0  0  0  0  0  0  0
   29.0729    8.3807   54.6665 C   0  0  2  0  0  0  0  0  0  0  0  0
   29.9131    8.3368   55.8359 O   0  0  0  0  0  0  0  0  0  0  0  0
   27.5799    8.3814   55.0823 C   0  0  1  0  0  0  0  0  0  0  0  0
   27.2820    9.5887   55.7278 O   0  0  0  0  0  0  0  0  0  0  0  0
   29.4196    8.0879   57.1496 C   0  0  1  0  0  0  0  0  0  0  0  0
   29.1631    6.5463   57.3033 C   0  0  2  0  0  0  0  0  0  0  0  0
   27.8723    6.1336   56.8881 O   0  0  0  0  0  0  0  0  0  0  0  0
   29.4193    6.4282   58.7992 C   0  0  2  0  0  0  0  0  0  0  0  0
   28.3724    7.0951   59.5666 O   0  0  0  0  0  0  0  0  0  0  0  0
   30.7031    7.2255   58.9823 C   0  0  2  0  0  0  0  0  0  0  0  0
   30.4361    8.3677   58.1506 O   0  0  0  0  0  0  0  0  0  0  0  0
   32.0105    6.4720   58.5713 C   0  0  0  0  0  0  0  0  0  0  0  0
   33.1785    7.2643   58.8202 O   0  0  0  0  0  0  0  0  0  0  0  0
   27.1734    6.3350   59.6939 C   0  0  2  0  0  0  0  0  0  0  0  0
   26.4747    6.4437   61.0919 C   0  0  2  0  0  0  0  0  0  0  0  0
   27.3624    6.0245   62.2188 N   0  3  0  0  0  0  0  0  0  0  0  0
   25.1789    5.5684   61.0257 C   0  0  1  0  0  0  0  0  0  0  0  0
   24.2982    6.1680   59.9998 O   0  0  0  0  0  0  0  0  0  0  0  0
   25.4790    4.0719   60.6237 C   0  0  2  0  0  0  0  0  0  0  0  0
   26.2876    3.4761   61.6513 O   0  0  0  0  0  0  0  0  0  0  0  0
   26.2193    4.0763   59.2223 C   0  0  1  0  0  0  0  0  0  0  0  0
   27.4268    4.8983   59.3620 O   0  0  0  0  0  0  0  0  0  0  0  0
   26.6004    2.6749   58.6934 C   0  0  0  0  0  0  0  0  0  0  0  0
   28.0655    2.4906   58.5082 N   0  3  0  0  0  0  0  0  0  0  0  0
  1  2  1  6  0  0  0
  1  3  1  0  0  0  0
  1 10  1  0  0  0  0
  3  4  1  6  0  0  0
  3  5  1  0  0  0  0
  5  6  1  1  0  0  0
  5  7  1  0  0  0  0
  7  8  1  6  0  0  0
  7  9  1  0  0  0  0
  9 10  1  0  0  0  0
  9 11  1  1  0  0  0
 11 12  1  0  0  0  0
 13 14  1  1  0  0  0
 13 15  1  0  0  0  0
 13 21  1  0  0  0  0
 15 16  1  0  0  0  0
 16 17  1  1  0  0  0
 16 18  1  0  0  0  0
 18  2  1  6  0  0  0
 18 19  1  0  0  0  0
 19 20  1  1  0  0  0
 19 21  1  0  0  0  0
 21 22  1  6  0  0  0
 23 20  1  6  0  0  0
 23 24  1  0  0  0  0
 23 29  1  0  0  0  0
 24 25  1  1  0  0  0
 24 26  1  0  0  0  0
 26 27  1  1  0  0  0
 26 28  1  0  0  0  0
 28 29  1  0  0  0  0
 28 30  1  6  0  0  0
 30 31  1  0  0  0  0
 32 27  1  1  0  0  0
 32 33  1  0  0  0  0
 32 40  1  0  0  0  0
 33 34  1  1  0  0  0
 33 35  1  0  0  0  0
 35 36  1  6  0  0  0
 35 37  1  0  0  0  0
 37 38  1  1  0  0  0
 37 39  1  0  0  0  0
 39 40  1  0  0  0  0
 39 41  1  1  0  0  0
 41 42  1  0  0  0  0
M  CHG  5   4   1  14   1  17   1  34   1  42   1
M  END
>  <CHROM.1>
-175.65889854,-178.84962162,54.65133961,55.21909571,72.48060062,59.50505624
-63.75996447,-160.46571715,-176.06019329,-109.08596831,78.21927319,-90.73698557
74.50233512,79.24181522,141.65799565,-177.72343131,-172.34007177,161.74178821
-70.46662005,80.26296307,-118.97729966,-5.14545275,29.42657011,6.31625043
56.51603910,-0.82546497,-0.27308344,1.99079192

>  <Name>
1j7t

>  <RI>
0

>  <Rbt.Current_Directory>
/home/itssahil/PROJECTS/Mol_Feturizer/New_Systems/rnas/1j7t

>  <Rbt.Executable>
rbdock ($Id: //depot/dev/client3/rdock/2013.1/src/exe/rbdock.cxx#4 $)

>  <Rbt.Library>
libRbt.so (2013.1, Build901 2013/11/27)

>  <Rbt.Parameter_File>
/export/apps/rDock/src/rDock_2013.1_src/data/scripts/dock_solv.prm

>  <Rbt.Receptor>
prm/pocket_docking_2.prm

>  <SCORE>
-22.059

>  <SCORE.INTER>
-21.9525

>  <SCORE.INTER.CONST>
1

>  <SCORE.INTER.POLAR>
-4.71051

>  <SCORE.INTER.ROT>
9

>  <SCORE.INTER.SOLV>
21.4618

>  <SCORE.INTER.VDW>
-15.6872

>  <SCORE.INTER.norm>
-0.522679

>  <SCORE.INTRA>
-4.05771

>  <SCORE.INTRA.DIHEDRAL>
-11.88

>  <SCORE.INTRA.DIHEDRAL.0>
46.2143

>  <SCORE.INTRA.POLAR>
0.597789

>  <SCORE.INTRA.POLAR.0>
-1.76436

>  <SCORE.INTRA.REPUL>
0

>  <SCORE.INTRA.REPUL.0>
0

>  <SCORE.INTRA.SOLV>
-2.41341

>  <SCORE.INTRA.SOLV.lig_0>
-148.643

>  <SCORE.INTRA.VDW>
1.05652

>  <SCORE.INTRA.VDW.0>
-4.83512

>  <SCORE.INTRA.norm>
-0.096612

>  <SCORE.RESTR>
3.95117

>  <SCORE.RESTR.CAVITY>
3.95117

>  <SCORE.RESTR.norm>
0.0940754

>  <SCORE.SYSTEM>
0

>  <SCORE.SYSTEM.CONST>
0

>  <SCORE.SYSTEM.DIHEDRAL>
0

>  <SCORE.SYSTEM.SOLV>
0

>  <SCORE.SYSTEM.norm>
0

>  <SCORE.heavy>
42

>  <SCORE.norm>
-0.525215

>  <RMSD>
5.178

$$$$
1j7t
 OpenBabel11021811393D
libRbt.so/2013.1/901 2013/11/27
 42 45  0  0  0  0  0  0  0  0999 V2000
   30.5756   10.7128   50.7255 C   0  0  2  0  0  0  0  0  0  0  0  0
   31.4635    9.6120   50.4057 O   0  0  0  0  0  0  0  0  0  0  0  0
   29.3850   10.6373   49.7271 C   0  0  2  0  0  0  0  0  0  0  0  0
   28.7005    9.3133   49.6796 N   0  3  0  0  0  0  0  0  0  0  0  0
   29.9251   10.9448   48.3134 C   0  0  1  0  0  0  0  0  0  0  0  0
   28.8907   10.9069   47.3710 O   0  0  0  0  0  0  0  0  0  0  0  0
   30.6237   12.3251   48.3010 C   0  0  2  0  0  0  0  0  0  0  0  0
   31.1073   12.6360   47.0093 O   0  0  0  0  0  0  0  0  0  0  0  0
   31.7807   12.3244   49.2774 C   0  0  2  0  0  0  0  0  0  0  0  0
   31.3047   11.9707   50.5698 O   0  0  0  0  0  0  0  0  0  0  0  0
   32.4443   13.6767   49.4111 C   0  0  0  0  0  0  0  0  0  0  0  0
   33.6636   13.5360   50.1145 O   0  0  0  0  0  0  0  0  0  0  0  0
   31.8011    5.7337   52.0467 C   0  0  2  0  0  0  0  0  0  0  0  0
   32.0525    4.6460   52.9928 N   0  3  0  0  0  0  0  0  0  0  0  0
   33.1230    6.5285   51.7835 C   0  0  0  0  0  0  0  0  0  0  0  0
   32.8522    7.7046   50.8257 C   0  0  2  0  0  0  0  0  0  0  0  0
   34.0699    8.4931   50.6101 N   0  3  0  0  0  0  0  0  0  0  0  0
   31.7463    8.6151   51.3945 C   0  0  2  0  0  0  0  0  0  0  0  0
   30.4400    7.8523   51.6895 C   0  0  2  0  0  0  0  0  0  0  0  0
   29.5716    8.7911   52.3528 O   0  0  0  0  0  0  0  0  0  0  0  0
   30.7207    6.6406   52.6141 C   0  0  1  0  0  0  0  0  0  0  0  0
   29.5388    5.9078   52.7848 O   0  0  0  0  0  0  0  0  0  0  0  0
   29.9048    9.4410   53.5767 C   0  0  1  0  0  0  0  0  0  0  0  0
   29.1767    8.6965   54.7521 C   0  0  2  0  0  0  0  0  0  0  0  0
   27.8681    9.1746   55.0131 O   0  0  0  0  0  0  0  0  0  0  0  0
   30.1895    8.9789   55.8529 C   0  0  2  0  0  0  0  0  0  0  0  0
   30.1987   10.3941   56.2091 O   0  0  0  0  0  0  0  0  0  0  0  0
   31.5160    8.6663   55.1747 C   0  0  2  0  0  0  0  0  0  0  0  0
   31.3152    9.2763   53.8880 O   0  0  0  0  0  0  0  0  0  0  0  0
   31.8615    7.1444   55.0738 C   0  0  0  0  0  0  0  0  0  0  0  0
   33.1498    6.9321   54.4828 O   0  0  0  0  0  0  0  0  0  0  0  0
   29.8706   10.6509   57.5722 C   0  0  2  0  0  0  0  0  0  0  0  0
   28.3381   10.6131   57.8950 C   0  0  2  0  0  0  0  0  0  0  0  0
   27.5490   11.5860   57.0801 N   0  3  0  0  0  0  0  0  0  0  0  0
   28.1859   10.8916   59.4277 C   0  0  1  0  0  0  0  0  0  0  0  0
   28.8554    9.7830   60.1421 O   0  0  0  0  0  0  0  0  0  0  0  0
   28.8542   12.2530   59.8650 C   0  0  2  0  0  0  0  0  0  0  0  0
   28.1637   13.3312   59.2127 O   0  0  0  0  0  0  0  0  0  0  0  0
   30.3852   12.2043   59.4582 C   0  0  1  0  0  0  0  0  0  0  0  0
   30.4516   11.9571   58.0132 O   0  0  0  0  0  0  0  0  0  0  0  0
   31.1827   13.4817   59.8062 C   0  0  0  0  0  0  0  0  0  0  0  0
   32.6140   13.2193   60.1178 N   0  3  0  0  0  0  0  0  0  0  0  0
  1  2  1  6  0  0  0
  1  3  1  0  0  0  0
  1 10  1  0  0  0  0
  3  4  1  6  0  0  0
  3  5  1  0  0  0  0
  5  6  1  6  0  0  0
  5  7  1  0  0  0  0
  7  8  1  6  0  0  0
  7  9  1  0  0  0  0
  9 10  1  0  0  0  0
  9 11  1  1  0  0  0
 11 12  1  0  0  0  0
 13 14  1  1  0  0  0
 13 15  1  0  0  0  0
 13 21  1  0  0  0  0
 15 16  1  0  0  0  0
 16 17  1  1  0  0  0
 16 18  1  0  0  0  0
 18  2  1  6  0  0  0
 18 19  1  0  0  0  0
 19 20  1  1  0  0  0
 19 21  1  0  0  0  0
 21 22  1  6  0  0  0
 23 20  1  6  0  0  0
 23 24  1  0  0  0  0
 23 29  1  0  0  0  0
 24 25  1  1  0  0  0
 24 26  1  0  0  0  0
 26 27  1  6  0  0  0
 26 28  1  0  0  0  0
 28 29  1  0  0  0  0
 28 30  1  6  0  0  0
 30 31  1  0  0  0  0
 32 27  1  6  0  0  0
 32 33  1  0  0  0  0
 32 40  1  0  0  0  0
 33 34  1  6  0  0  0
 33 35  1  0  0  0  0
 35 36  1  1  0  0  0
 35 37  1  0  0  0  0
 37 38  1  6  0  0  0
 37 39  1  0  0  0  0
 39 40  1  0  0  0  0
 39 41  1  6  0  0  0
 41 42  1  0  0  0  0
M  CHG  5   4   1  14   1  17   1  34   1  42   1
M  END
>  <CHROM.1>
-120.07306521,-172.45382986,179.54232868,-163.79774648,-176.66868954,-168.11429325
-168.69888552,179.77449099,65.37694761,-59.07325074,-100.16733848,70.19187338
41.74928692,119.93495745,-79.64712944,-177.23587186,67.86932161,170.82617095
-65.33609186,-172.86069976,149.02381300,-166.26014543,30.61212334,9.97090601
53.63045544,0.57596097,1.37026221,-0.72634572

>  <Name>
1j7t

>  <RI>
0

>  <Rbt.Current_Directory>
/home/itssahil/PROJECTS/Mol_Feturizer/New_Systems/rnas/1j7t

>  <Rbt.Executable>
rbdock ($Id: //depot/dev/client3/rdock/2013.1/src/exe/rbdock.cxx#4 $)

>  <Rbt.Library>
libRbt.so (2013.1, Build901 2013/11/27)

>  <Rbt.Parameter_File>
/export/apps/rDock/src/rDock_2013.1_src/data/scripts/dock_solv.prm

>  <Rbt.Receptor>
prm/blind_docking_100.prm

>  <SCORE>
-26.649

>  <SCORE.INTER>
-36.2785

>  <SCORE.INTER.CONST>
1

>  <SCORE.INTER.POLAR>
-6.54604

>  <SCORE.INTER.ROT>
9

>  <SCORE.INTER.SOLV>
44.3753

>  <SCORE.INTER.VDW>
-26.7573

>  <SCORE.INTER.norm>
-0.863774

>  <SCORE.INTRA>
-5.21483

>  <SCORE.INTRA.DIHEDRAL>
-15.7517

>  <SCORE.INTRA.DIHEDRAL.0>
46.2143

>  <SCORE.INTRA.POLAR>
-0.255501

>  <SCORE.INTRA.POLAR.0>
-1.76436

>  <SCORE.INTRA.REPUL>
0

>  <SCORE.INTRA.REPUL.0>
0

>  <SCORE.INTRA.SOLV>
1.98246

>  <SCORE.INTRA.SOLV.lig_0>
-148.643

>  <SCORE.INTRA.VDW>
2.53847

>  <SCORE.INTRA.VDW.0>
-4.83512

>  <SCORE.INTRA.norm>
-0.124163

>  <SCORE.RESTR>
14.8444

>  <SCORE.RESTR.CAVITY>
14.8444

>  <SCORE.RESTR.norm>
0.353437

>  <SCORE.SYSTEM>
0

>  <SCORE.SYSTEM.CONST>
0

>  <SCORE.SYSTEM.DIHEDRAL>
0

>  <SCORE.SYSTEM.SOLV>
0

>  <SCORE.SYSTEM.norm>
0

>  <SCORE.heavy>
42

>  <SCORE.norm>
-0.6345

>  <RMSD>
5.184

$$$$
1j7t
 OpenBabel11021811393D
libRbt.so/2013.1/901 2013/11/27
 42 45  0  0  0  0  0  0  0  0999 V2000
   31.6053    7.3011   53.3359 C   0  0  2  0  0  0  0  0  0  0  0  0
   30.9505    6.8013   52.1426 O   0  0  0  0  0  0  0  0  0  0  0  0
   32.9818    7.8724   52.8900 C   0  0  2  0  0  0  0  0  0  0  0  0
   32.9083    8.8727   51.7866 N   0  3  0  0  0  0  0  0  0  0  0  0
   33.8555    6.6941   52.4069 C   0  0  1  0  0  0  0  0  0  0  0  0
   35.1178    7.1478   52.0065 O   0  0  0  0  0  0  0  0  0  0  0  0
   33.9868    5.6364   53.5283 C   0  0  2  0  0  0  0  0  0  0  0  0
   34.8016    4.5578   53.1136 O   0  0  0  0  0  0  0  0  0  0  0  0
   32.6172    5.1094   53.9005 C   0  0  2  0  0  0  0  0  0  0  0  0
   31.7820    6.1966   54.2777 O   0  0  0  0  0  0  0  0  0  0  0  0
   32.6481    4.1547   55.0730 C   0  0  0  0  0  0  0  0  0  0  0  0
   31.4649    3.3793   55.0808 O   0  0  0  0  0  0  0  0  0  0  0  0
   26.9086    5.8712   51.3388 C   0  0  2  0  0  0  0  0  0  0  0  0
   25.5991    5.2201   51.3916 N   0  3  0  0  0  0  0  0  0  0  0  0
   27.9959    4.8464   50.8741 C   0  0  0  0  0  0  0  0  0  0  0  0
   29.3840    5.5149   50.8642 C   0  0  2  0  0  0  0  0  0  0  0  0
   30.4236    4.5534   50.4824 N   0  3  0  0  0  0  0  0  0  0  0  0
   29.7090    6.0958   52.2544 C   0  0  2  0  0  0  0  0  0  0  0  0
   28.6394    7.0886   52.7497 C   0  0  2  0  0  0  0  0  0  0  0  0
   28.9982    7.4168   54.1058 O   0  0  0  0  0  0  0  0  0  0  0  0
   27.2363    6.4315   52.7137 C   0  0  1  0  0  0  0  0  0  0  0  0
   26.2724    7.3833   53.0714 O   0  0  0  0  0  0  0  0  0  0  0  0
   28.2710    6.9613   55.2437 C   0  0  1  0  0  0  0  0  0  0  0  0
   29.0936    5.8175   55.9374 C   0  0  2  0  0  0  0  0  0  0  0  0
   28.8291    4.5242   55.4213 O   0  0  0  0  0  0  0  0  0  0  0  0
   28.6212    6.0419   57.3669 C   0  0  2  0  0  0  0  0  0  0  0  0
   27.2147    5.6833   57.5187 O   0  0  0  0  0  0  0  0  0  0  0  0
   28.7304    7.5523   57.5218 C   0  0  2  0  0  0  0  0  0  0  0  0
   28.1951    7.9953   56.2628 O   0  0  0  0  0  0  0  0  0  0  0  0
   30.1776    8.0845   57.7831 C   0  0  0  0  0  0  0  0  0  0  0  0
   30.7221    7.5612   59.0011 O   0  0  0  0  0  0  0  0  0  0  0  0
   26.6013    6.2238   58.6863 C   0  0  2  0  0  0  0  0  0  0  0  0
   26.0130    5.1564   59.6705 C   0  0  2  0  0  0  0  0  0  0  0  0
   24.9928    4.2737   59.0274 N   0  3  0  0  0  0  0  0  0  0  0  0
   25.4121    5.9368   60.8868 C   0  0  1  0  0  0  0  0  0  0  0  0
   26.5311    6.6391   61.5517 O   0  0  0  0  0  0  0  0  0  0  0  0
   24.3336    7.0029   60.4490 C   0  0  2  0  0  0  0  0  0  0  0  0
   23.2227    6.3117   59.8550 O   0  0  0  0  0  0  0  0  0  0  0  0
   25.0162    8.0047   59.4280 C   0  0  1  0  0  0  0  0  0  0  0  0
   25.5404    7.2099   58.3114 O   0  0  0  0  0  0  0  0  0  0  0  0
   24.0785    9.1083   58.8878 C   0  0  0  0  0  0  0  0  0  0  0  0
   23.4566    9.9331   59.9591 N   0  3  0  0  0  0  0  0  0  0  0  0
  1  2  1  6  0  0  0
  1  3  1  0  0  0  0
  1 10  1  0  0  0  0
  3  4  1  6  0  0  0
  3  5  1  0  0  0  0
  5  6  1  1  0  0  0
  5  7  1  0  0  0  0
  7  8  1  6  0  0  0
  7  9  1  0  0  0  0
  9 10  1  0  0  0  0
  9 11  1  1  0  0  0
 11 12  1  0  0  0  0
 13 14  1  1  0  0  0
 13 15  1  0  0  0  0
 13 21  1  0  0  0  0
 15 16  1  0  0  0  0
 16 17  1  1  0  0  0
 16 18  1  0  0  0  0
 18  2  1  6  0  0  0
 18 19  1  0  0  0  0
 19 20  1  1  0  0  0
 19 21  1  0  0  0  0
 21 22  1  6  0  0  0
 23 20  1  6  0  0  0
 23 24  1  0  0  0  0
 23 29  1  0  0  0  0
 24 25  1  6  0  0  0
 24 26  1  0  0  0  0
 26 27  1  6  0  0  0
 26 28  1  0  0  0  0
 28 29  1  0  0  0  0
 28 30  1  6  0  0  0
 30 31  1  0  0  0  0
 32 27  1  6  0  0  0
 32 33  1  0  0  0  0
 32 40  1  0  0  0  0
 33 34  1  6  0  0  0
 33 35  1  0  0  0  0
 35 36  1  6  0  0  0
 35 37  1  0  0  0  0
 37 38  1  6  0  0  0
 37 39  1  0  0  0  0
 39 40  1  0  0  0  0
 39 41  1  6  0  0  0
 41 42  1  0  0  0  0
M  CHG  5   4   1  14   1  17   1  34   1  42   1
M  END
>  <CHROM.1>
174.07578323,-171.52068986,-60.51935876,-101.40070788,61.20162336,-160.60080850
-57.75597509,-59.48317255,151.18285550,-108.34829337,105.00988427,58.88495684
-58.08373685,-162.37349473,-120.78035222,-61.35819394,177.11094917,53.74483265
178.55683720,-164.39435496,56.68250556,10.94636017,28.82133127,6.42769942
55.43871001,-0.79584151,-0.02319944,1.46105588

>  <Name>
1j7t

>  <RI>
0

>  <Rbt.Current_Directory>
/home/itssahil/PROJECTS/Mol_Feturizer/New_Systems/rnas/1j7t

>  <Rbt.Executable>
rbdock ($Id: //depot/dev/client3/rdock/2013.1/src/exe/rbdock.cxx#4 $)

>  <Rbt.Library>
libRbt.so (2013.1, Build901 2013/11/27)

>  <Rbt.Parameter_File>
/export/apps/rDock/src/rDock_2013.1_src/data/scripts/dock_solv.prm

>  <Rbt.Receptor>
prm/pocket_docking_4.prm

>  <SCORE>
-40.3594

>  <SCORE.INTER>
-34.9815

>  <SCORE.INTER.CONST>
1

>  <SCORE.INTER.POLAR>
-6.97903

>  <SCORE.INTER.ROT>
9

>  <SCORE.INTER.SOLV>
22.8004

>  <SCORE.INTER.VDW>
-17.2577

>  <SCORE.INTER.norm>
-0.832893

>  <SCORE.INTRA>
-6.5513

>  <SCORE.INTRA.DIHEDRAL>
-10.8425

>  <SCORE.INTRA.DIHEDRAL.0>
46.2143

>  <SCORE.INTRA.POLAR>
0.0868371

>  <SCORE.INTRA.POLAR.0>
-1.76436

>  <SCORE.INTRA.REPUL>
0

>  <SCORE.INTRA.REPUL.0>
0

>  <SCORE.INTRA.SOLV>
-4.89824

>  <SCORE.INTRA.SOLV.lig_0>
-148.643

>  <SCORE.INTRA.VDW>
1.02382

>  <SCORE.INTRA.VDW.0>
-4.83512

>  <SCORE.INTRA.norm>
-0.155983

>  <SCORE.RESTR>
1.17337

>  <SCORE.RESTR.CAVITY>
1.17337

>  <SCORE.RESTR.norm>
0.0279374

>  <SCORE.SYSTEM>
0

>  <SCORE.SYSTEM.CONST>
0

>  <SCORE.SYSTEM.DIHEDRAL>
0

>  <SCORE.SYSTEM.SOLV>
0

>  <SCORE.SYSTEM.norm>
0

>  <SCORE.heavy>
42

>  <SCORE.norm>
-0.960939

>  <RMSD>
5.184

$$$$
1j7t
 OpenBabel11021811393D
libRbt.so/2013.1/901 2013/11/27
 42 45  0  0  0  0  0  0  0  0999 V2000
   28.7077    7.2044   56.0256 C   0  0  2  0  0  0  0  0  0  0  0  0
   28.7250    5.7582   55.9223 O   0  0  0  0  0  0  0  0  0  0  0  0
   27.2703    7.6666   55.6508 C   0  0  2  0  0  0  0  0  0  0  0  0
   26.1845    7.0002   56.4256 N   0  3  0  0  0  0  0  0  0  0  0  0
   27.0439    7.3606   54.1541 C   0  0  1  0  0  0  0  0  0  0  0  0
   25.7669    7.7717   53.7542 O   0  0  0  0  0  0  0  0  0  0  0  0
   28.1321    8.0537   53.3003 C   0  0  2  0  0  0  0  0  0  0  0  0
   27.9304    7.8037   51.9234 O   0  0  0  0  0  0  0  0  0  0  0  0
   29.5008    7.5465   53.7018 C   0  0  2  0  0  0  0  0  0  0  0  0
   29.6903    7.7581   55.0951 O   0  0  0  0  0  0  0  0  0  0  0  0
   30.6293    8.2621   52.9936 C   0  0  0  0  0  0  0  0  0  0  0  0
   30.6559    9.6172   53.3988 O   0  0  0  0  0  0  0  0  0  0  0  0
   30.4253    2.6071   58.1647 C   0  0  2  0  0  0  0  0  0  0  0  0
   31.4032    1.7806   58.8731 N   0  3  0  0  0  0  0  0  0  0  0  0
   30.8118    2.7131   56.6521 C   0  0  0  0  0  0  0  0  0  0  0  0
   29.8121    3.6224   55.9123 C   0  0  2  0  0  0  0  0  0  0  0  0
   30.1902    3.7763   54.5036 N   0  3  0  0  0  0  0  0  0  0  0  0
   29.7531    5.0097   56.5814 C   0  0  2  0  0  0  0  0  0  0  0  0
   29.4011    4.9336   58.0799 C   0  0  2  0  0  0  0  0  0  0  0  0
   29.5387    6.2739   58.5899 O   0  0  0  0  0  0  0  0  0  0  0  0
   30.3775    3.9806   58.8150 C   0  0  1  0  0  0  0  0  0  0  0  0
   29.9759    3.8503   60.1510 O   0  0  0  0  0  0  0  0  0  0  0  0
   28.6044    6.8752   59.4825 C   0  0  1  0  0  0  0  0  0  0  0  0
   28.6842    6.1328   60.8640 C   0  0  2  0  0  0  0  0  0  0  0  0
   27.8373    5.0001   60.9583 O   0  0  0  0  0  0  0  0  0  0  0  0
   28.2931    7.2973   61.7631 C   0  0  2  0  0  0  0  0  0  0  0  0
   26.8922    7.6602   61.5746 O   0  0  0  0  0  0  0  0  0  0  0  0
   29.1414    8.4385   61.2197 C   0  0  2  0  0  0  0  0  0  0  0  0
   28.9926    8.2389   59.8034 O   0  0  0  0  0  0  0  0  0  0  0  0
   30.6367    8.4233   61.6775 C   0  0  0  0  0  0  0  0  0  0  0  0
   31.3763    9.5097   61.1058 O   0  0  0  0  0  0  0  0  0  0  0  0
   26.0252    7.1758   62.5970 C   0  0  2  0  0  0  0  0  0  0  0  0
   26.0278    8.0245   63.9138 C   0  0  2  0  0  0  0  0  0  0  0  0
   27.3850    8.1373   64.5292 N   0  3  0  0  0  0  0  0  0  0  0  0
   25.0074    7.3538   64.8930 C   0  0  1  0  0  0  0  0  0  0  0  0
   23.6721    7.4463   64.2637 O   0  0  0  0  0  0  0  0  0  0  0  0
   25.3364    5.8338   65.1624 C   0  0  2  0  0  0  0  0  0  0  0  0
   26.6086    5.7521   65.8253 O   0  0  0  0  0  0  0  0  0  0  0  0
   25.3498    5.0774   63.7697 C   0  0  1  0  0  0  0  0  0  0  0  0
   26.3349    5.7464   62.9121 O   0  0  0  0  0  0  0  0  0  0  0  0
   25.6766    3.5695   63.8614 C   0  0  0  0  0  0  0  0  0  0  0  0
   25.9669    2.9455   62.5419 N   0  3  0  0  0  0  0  0  0  0  0  0
  1  2  1  6  0  0  0
  1  3  1  0  0  0  0
  1 10  1  0  0  0  0
  3  4  1  1  0  0  0
  3  5  1  0  0  0  0
  5  6  1  6  0  0  0
  5  7  1  0  0  0  0
  7  8  1  6  0  0  0
  7  9  1  0  0  0  0
  9 10  1  0  0  0  0
  9 11  1  6  0  0  0
 11 12  1  0  0  0  0
 13 14  1  1  0  0  0
 13 15  1  0  0  0  0
 13 21  1  0  0  0  0
 15 16  1  0  0  0  0
 16 17  1  6  0  0  0
 16 18  1  0  0  0  0
 18  2  1  6  0  0  0
 18 19  1  0  0  0  0
 19 20  1  1  0  0  0
 19 21  1  0  0  0  0
 21 22  1  1  0  0  0
 23 20  1  6  0  0  0
 23 24  1  0  0  0  0
 23 29  1  0  0  0  0
 24 25  1  6  0  0  0
 24 26  1  0  0  0  0
 26 27  1  6  0  0  0
 26 28  1  0  0  0  0
 28 29  1  0  0  0  0
 28 30  1  6  0  0  0
 30 31  1  0  0  0  0
 32 27  1  6  0  0  0
 32 33  1  0  0  0  0
 32 40  1  0  0  0  0
 33 34  1  1  0  0  0
 33 35  1  0  0  0  0
 35 36  1  6  0  0  0
 35 37  1  0  0  0  0
 37 38  1  6  0  0  0
 37 39  1  0  0  0  0
 39 40  1  0  0  0  0
 39 41  1  1  0  0  0
 41 42  1  0  0  0  0
M  CHG  5   4   1  14   1  17   1  34   1  42   1
M  END
>  <CHROM.1>
-160.97881709,-160.53058113,76.77815462,74.50198927,179.54856484,65.58429007
-56.48999128,-31.79611032,-170.16723644,136.90587062,67.77527141,66.30297565
-53.87902384,101.73649644,79.90977867,178.82989574,-54.74502374,56.13244947
-47.13266434,76.19794203,-167.77631814,-78.60087729,28.23185293,6.31463565
59.07516563,1.00293146,1.01922781,-1.01577360

>  <Name>
1j7t

>  <RI>
0

>  <Rbt.Current_Directory>
/home/itssahil/PROJECTS/Mol_Feturizer/New_Systems/rnas/1j7t

>  <Rbt.Executable>
rbdock ($Id: //depot/dev/client3/rdock/2013.1/src/exe/rbdock.cxx#4 $)

>  <Rbt.Library>
libRbt.so (2013.1, Build901 2013/11/27)

>  <Rbt.Parameter_File>
/export/apps/rDock/src/rDock_2013.1_src/data/scripts/dock_solv.prm

>  <Rbt.Receptor>
prm/pocket_docking_8.prm

>  <SCORE>
-41.3945

>  <SCORE.INTER>
-30.5962

>  <SCORE.INTER.CONST>
1

>  <SCORE.INTER.POLAR>
-5.78923

>  <SCORE.INTER.ROT>
9

>  <SCORE.INTER.SOLV>
19.7025

>  <SCORE.INTER.VDW>
-17.2675

>  <SCORE.INTER.norm>
-0.728482

>  <SCORE.INTRA>
-10.7983

>  <SCORE.INTRA.DIHEDRAL>
-21.3197

>  <SCORE.INTRA.DIHEDRAL.0>
46.2143

>  <SCORE.INTRA.POLAR>
-0.055133

>  <SCORE.INTRA.POLAR.0>
-1.76436

>  <SCORE.INTRA.REPUL>
0

>  <SCORE.INTRA.REPUL.0>
0

>  <SCORE.INTRA.SOLV>
0.363075

>  <SCORE.INTRA.SOLV.lig_0>
-148.643

>  <SCORE.INTRA.VDW>
-0.132525

>  <SCORE.INTRA.VDW.0>
-4.83512

>  <SCORE.INTRA.norm>
-0.257102

>  <SCORE.RESTR>
0

>  <SCORE.RESTR.CAVITY>
0

>  <SCORE.RESTR.norm>
0

>  <SCORE.SYSTEM>
0

>  <SCORE.SYSTEM.CONST>
0

>  <SCORE.SYSTEM.DIHEDRAL>
0

>  <SCORE.SYSTEM.SOLV>
0

>  <SCORE.SYSTEM.norm>
0

>  <SCORE.heavy>
42

>  <SCORE.norm>
-0.985584

>  <RMSD>
5.186

$$$$
1j7t
 OpenBabel11021811393D
libRbt.so/2013.1/901 2013/11/27
 42 45  0  0  0  0  0  0  0  0999 V2000
   31.5981    7.1462   52.9975 C   0  0  2  0  0  0  0  0  0  0  0  0
   30.9880    6.4844   51.8607 O   0  0  0  0  0  0  0  0  0  0  0  0
   32.9652    7.7083   52.5125 C   0  0  2  0  0  0  0  0  0  0  0  0
   32.8846    8.5662   51.2955 N   0  3  0  0  0  0  0  0  0  0  0  0
   33.8880    6.5124   52.1916 C   0  0  1  0  0  0  0  0  0  0  0  0
   35.1438    6.9591   51.7638 O   0  0  0  0  0  0  0  0  0  0  0  0
   34.0277    5.6016   53.4344 C   0  0  2  0  0  0  0  0  0  0  0  0
   34.8868    4.5106   53.1683 O   0  0  0  0  0  0  0  0  0  0  0  0
   32.6678    5.0749   53.8411 C   0  0  2  0  0  0  0  0  0  0  0  0
   31.7889    6.1693   54.0686 O   0  0  0  0  0  0  0  0  0  0  0  0
   32.7027    4.2691   55.1203 C   0  0  0  0  0  0  0  0  0  0  0  0
   31.4362    3.6783   55.3399 O   0  0  0  0  0  0  0  0  0  0  0  0
   26.9504    5.5403   51.0514 C   0  0  2  0  0  0  0  0  0  0  0  0
   25.6267    4.9228   51.1399 N   0  3  0  0  0  0  0  0  0  0  0  0
   28.0282    4.4502   50.7375 C   0  0  0  0  0  0  0  0  0  0  0  0
   29.4297    5.0886   50.6918 C   0  0  2  0  0  0  0  0  0  0  0  0
   30.4588    4.0716   50.4517 N   0  3  0  0  0  0  0  0  0  0  0  0
   29.7295    5.8183   52.0159 C   0  0  2  0  0  0  0  0  0  0  0  0
   28.6680    6.8799   52.3644 C   0  0  2  0  0  0  0  0  0  0  0  0
   28.9974    7.3541   53.6843 O   0  0  0  0  0  0  0  0  0  0  0  0
   27.2530    6.2478   52.3627 C   0  0  1  0  0  0  0  0  0  0  0  0
   26.2999    7.2510   52.5821 O   0  0  0  0  0  0  0  0  0  0  0  0
   28.3610    6.8846   54.8699 C   0  0  1  0  0  0  0  0  0  0  0  0
   28.7723    5.3864   55.0980 C   0  0  2  0  0  0  0  0  0  0  0  0
   27.9322    4.4527   54.4412 O   0  0  0  0  0  0  0  0  0  0  0  0
   28.6854    5.3627   56.6176 C   0  0  2  0  0  0  0  0  0  0  0  0
   27.3020    5.4797   57.0674 O   0  0  0  0  0  0  0  0  0  0  0  0
   29.4080    6.6427   57.0135 C   0  0  2  0  0  0  0  0  0  0  0  0
   28.8797    7.5652   56.0452 O   0  0  0  0  0  0  0  0  0  0  0  0
   30.9691    6.5563   56.9759 C   0  0  0  0  0  0  0  0  0  0  0  0
   31.5751    7.5724   57.7847 O   0  0  0  0  0  0  0  0  0  0  0  0
   27.1028    5.1138   58.4305 C   0  0  2  0  0  0  0  0  0  0  0  0
   26.9737    3.5730   58.6825 C   0  0  2  0  0  0  0  0  0  0  0  0
   25.8563    2.9499   57.9102 N   0  3  0  0  0  0  0  0  0  0  0  0
   26.7866    3.3750   60.2238 C   0  0  1  0  0  0  0  0  0  0  0  0
   28.0165    3.8686   60.8805 O   0  0  0  0  0  0  0  0  0  0  0  0
   25.5520    4.1777   60.7918 C   0  0  2  0  0  0  0  0  0  0  0  0
   24.3539    3.6566   60.1938 O   0  0  0  0  0  0  0  0  0  0  0  0
   25.7606    5.7111   60.4495 C   0  0  1  0  0  0  0  0  0  0  0  0
   25.9122    5.8231   58.9942 O   0  0  0  0  0  0  0  0  0  0  0  0
   24.6187    6.6366   60.9278 C   0  0  0  0  0  0  0  0  0  0  0  0
   24.7874    8.0527   60.5027 N   0  3  0  0  0  0  0  0  0  0  0  0
  1  2  1  6  0  0  0
  1  3  1  0  0  0  0
  1 10  1  0  0  0  0
  3  4  1  6  0  0  0
  3  5  1  0  0  0  0
  5  6  1  1  0  0  0
  5  7  1  0  0  0  0
  7  8  1  6  0  0  0
  7  9  1  0  0  0  0
  9 10  1  0  0  0  0
  9 11  1  1  0  0  0
 11 12  1  0  0  0  0
 13 14  1  1  0  0  0
 13 15  1  0  0  0  0
 13 21  1  0  0  0  0
 15 16  1  0  0  0  0
 16 17  1  1  0  0  0
 16 18  1  0  0  0  0
 18  2  1  6  0  0  0
 18 19  1  0  0  0  0
 19 20  1  1  0  0  0
 19 21  1  0  0  0  0
 21 22  1  6  0  0  0
 23 20  1  6  0  0  0
 23 24  1  0  0  0  0
 23 29  1  0  0  0  0
 24 25  1  6  0  0  0
 24 26  1  0  0  0  0
 26 27  1  6  0  0  0
 26 28  1  0  0  0  0
 28 29  1  0  0  0  0
 28 30  1  6  0  0  0
 30 31  1  0  0  0  0
 32 27  1  6  0  0  0
 32 33  1  0  0  0  0
 32 40  1  0  0  0  0
 33 34  1  6  0  0  0
 33 35  1  0  0  0  0
 35 36  1  1  0  0  0
 35 37  1  0  0  0  0
 37 38  1  6  0  0  0
 37 39  1  0  0  0  0
 39 40  1  0  0  0  0
 39 41  1  6  0  0  0
 41 42  1  0  0  0  0
M  CHG  5   4   1  14   1  17   1  34   1  42   1
M  END
>  <CHROM.1>
177.61750270,-173.70826645,54.95801055,37.79067711,174.30258881,-172.77728587
-177.05469664,61.35399991,-53.56780599,-98.33801322,67.96386890,66.35290241
-57.46523295,164.21476507,-81.61047269,-159.23866497,62.39066465,164.89011307
-57.30861635,177.80083633,-175.53839217,-167.96453162,29.13625146,5.69155413
55.21313456,-0.89010588,0.09717354,1.63382857

>  <Name>
1j7t

>  <RI>
224

>  <Rbt.Current_Directory>
/home/itssahil/PROJECTS/Mol_Feturizer/New_Systems/rnas/1j7t

>  <Rbt.Executable>
rbdock ($Id: //depot/dev/client3/rdock/2013.1/src/exe/rbdock.cxx#4 $)

>  <Rbt.Library>
libRbt.so (2013.1, Build901 2013/11/27)

>  <Rbt.Parameter_File>
/export/apps/rDock/src/rDock_2013.1_src/data/scripts/dock_solv.prm

>  <Rbt.Receptor>
prm/pocket_docking_7.prm

>  <SCORE>
-41.8398

>  <SCORE.INTER>
-25.7411

>  <SCORE.INTER.CONST>
1

>  <SCORE.INTER.POLAR>
-5.2125

>  <SCORE.INTER.ROT>
9

>  <SCORE.INTER.SOLV>
14.8966

>  <SCORE.INTER.VDW>
-14.3512

>  <SCORE.INTER.norm>
-0.612883

>  <SCORE.INTRA>
-16.0987

>  <SCORE.INTRA.DIHEDRAL>
-31.3385

>  <SCORE.INTRA.DIHEDRAL.0>
46.2143

>  <SCORE.INTRA.POLAR>
0.91928

>  <SCORE.INTRA.POLAR.0>
-1.76436

>  <SCORE.INTRA.REPUL>
0

>  <SCORE.INTRA.REPUL.0>
0

>  <SCORE.INTRA.SOLV>
-4.18606

>  <SCORE.INTRA.SOLV.lig_0>
-148.643

>  <SCORE.INTRA.VDW>
-1.46198

>  <SCORE.INTRA.VDW.0>
-4.83512

>  <SCORE.INTRA.norm>
-0.383303

>  <SCORE.RESTR>
0

>  <SCORE.RESTR.CAVITY>
0

>  <SCORE.RESTR.norm>
0

>  <SCORE.SYSTEM>
0

>  <SCORE.SYSTEM.CONST>
0

>  <SCORE.SYSTEM.DIHEDRAL>
0

>  <SCORE.SYSTEM.SOLV>
0

>  <SCORE.SYSTEM.norm>
0

>  <SCORE.heavy>
42

>  <SCORE.norm>
-0.996186

>  <RMSD>
5.188

$$$$
1j7t
 OpenBabel11021811393D
libRbt.so/2013.1/901 2013/11/27
 42 45  0  0  0  0  0  0  0  0999 V2000
   30.0848   10.5045   50.7437 C   0  0  2  0  0  0  0  0  0  0  0  0
   30.9514    9.4116   50.3473 O   0  0  0  0  0  0  0  0  0  0  0  0
   28.9842   10.6272   49.6510 C   0  0  2  0  0  0  0  0  0  0  0  0
   28.2528    9.3597   49.3647 N   0  3  0  0  0  0  0  0  0  0  0  0
   29.6586   11.0937   48.3424 C   0  0  1  0  0  0  0  0  0  0  0  0
   28.7102   11.2380   47.3229 O   0  0  0  0  0  0  0  0  0  0  0  0
   30.4116   12.4244   48.5787 C   0  0  2  0  0  0  0  0  0  0  0  0
   31.0191   12.8807   47.3863 O   0  0  0  0  0  0  0  0  0  0  0  0
   31.4775   12.2309   49.6364 C   0  0  2  0  0  0  0  0  0  0  0  0
   30.8757   11.7316   50.8241 O   0  0  0  0  0  0  0  0  0  0  0  0
   32.1818   13.5159   50.0101 C   0  0  0  0  0  0  0  0  0  0  0  0
   33.4917   13.2228   50.4566 O   0  0  0  0  0  0  0  0  0  0  0  0
   33.4004    6.4246   52.0586 C   0  0  2  0  0  0  0  0  0  0  0  0
   34.2849    5.7226   52.9893 N   0  3  0  0  0  0  0  0  0  0  0  0
   34.0975    7.7251   51.5377 C   0  0  0  0  0  0  0  0  0  0  0  0
   33.1507    8.4927   50.5954 C   0  0  2  0  0  0  0  0  0  0  0  0
   33.7681    9.7425   50.1398 N   0  3  0  0  0  0  0  0  0  0  0  0
   31.8226    8.8085   51.3110 C   0  0  2  0  0  0  0  0  0  0  0  0
   31.1269    7.5472   51.8591 C   0  0  2  0  0  0  0  0  0  0  0  0
   30.0001    8.0149   52.6252 O   0  0  0  0  0  0  0  0  0  0  0  0
   32.0958    6.7496   52.7685 C   0  0  1  0  0  0  0  0  0  0  0  0
   31.4752    5.5599   53.1715 O   0  0  0  0  0  0  0  0  0  0  0  0
   30.1247    8.8111   53.8007 C   0  0  1  0  0  0  0  0  0  0  0  0
   28.8652    8.5659   54.7061 C   0  0  2  0  0  0  0  0  0  0  0  0
   27.7703    9.4162   54.4114 O   0  0  0  0  0  0  0  0  0  0  0  0
   29.5160    8.8112   56.0602 C   0  0  2  0  0  0  0  0  0  0  0  0
   29.8711   10.2169   56.2264 O   0  0  0  0  0  0  0  0  0  0  0  0
   30.8113    8.0183   55.9570 C   0  0  2  0  0  0  0  0  0  0  0  0
   31.2328    8.3561   54.6243 O   0  0  0  0  0  0  0  0  0  0  0  0
   30.6582    6.4764   56.1690 C   0  0  0  0  0  0  0  0  0  0  0  0
   31.9185    5.8010   56.0717 O   0  0  0  0  0  0  0  0  0  0  0  0
   29.6721   10.7128   57.5478 C   0  0  2  0  0  0  0  0  0  0  0  0
   28.2601   11.3404   57.8058 C   0  0  2  0  0  0  0  0  0  0  0  0
   27.9490   12.4708   56.8790 N   0  3  0  0  0  0  0  0  0  0  0  0
   28.2292   11.7994   59.3018 C   0  0  1  0  0  0  0  0  0  0  0  0
   28.3758   10.5859   60.1346 O   0  0  0  0  0  0  0  0  0  0  0  0
   29.3993   12.7990   59.6526 C   0  0  2  0  0  0  0  0  0  0  0  0
   29.2208   13.9994   58.8833 O   0  0  0  0  0  0  0  0  0  0  0  0
   30.7746   12.0858   59.3181 C   0  0  1  0  0  0  0  0  0  0  0  0
   30.7399   11.6988   57.9031 O   0  0  0  0  0  0  0  0  0  0  0  0
   32.0279   12.9476   59.5927 C   0  0  0  0  0  0  0  0  0  0  0  0
   32.3365   13.0988   61.0406 N   0  3  0  0  0  0  0  0  0  0  0  0
  1  2  1  6  0  0  0
  1  3  1  0  0  0  0
  1 10  1  0  0  0  0
  3  4  1  6  0  0  0
  3  5  1  0  0  0  0
  5  6  1  6  0  0  0
  5  7  1  0  0  0  0
  7  8  1  6  0  0  0
  7  9  1  0  0  0  0
  9 10  1  0  0  0  0
  9 11  1  1  0  0  0
 11 12  1  0  0  0  0
 13 14  1  1  0  0  0
 13 15  1  0  0  0  0
 13 21  1  0  0  0  0
 15 16  1  0  0  0  0
 16 17  1  1  0  0  0
 16 18  1  0  0  0  0
 18  2  1  6  0  0  0
 18 19  1  0  0  0  0
 19 20  1  1  0  0  0
 19 21  1  0  0  0  0
 21 22  1  6  0  0  0
 23 20  1  6  0  0  0
 23 24  1  0  0  0  0
 23 29  1  0  0  0  0
 24 25  1  6  0  0  0
 24 26  1  0  0  0  0
 26 27  1  6  0  0  0
 26 28  1  0  0  0  0
 28 29  1  0  0  0  0
 28 30  1  6  0  0  0
 30 31  1  0  0  0  0
 32 27  1  6  0  0  0
 32 33  1  0  0  0  0
 32 40  1  0  0  0  0
 33 34  1  6  0  0  0
 33 35  1  0  0  0  0
 35 36  1  1  0  0  0
 35 37  1  0  0  0  0
 37 38  1  6  0  0  0
 37 39  1  0  0  0  0
 39 40  1  0  0  0  0
 39 41  1  6  0  0  0
 41 42  1  0  0  0  0
M  CHG  5   4   1  14   1  17   1  34   1  42   1
M  END
>  <CHROM.1>
-162.47353454,-141.49420356,-149.04698965,-62.73141756,178.01149957,-152.34124266
174.78478488,62.70105653,-166.04418750,-63.64497124,-153.49957188,-171.14158932
-170.34602032,142.32488316,-91.05736820,-179.37267881,-56.21430187,-79.63705506
176.19397904,174.86936248,73.56218099,97.95502060,30.69837263,10.04420886
53.76067100,1.12988425,1.23180446,-1.29183085

>  <Name>
1j7t

>  <RI>
0

>  <Rbt.Current_Directory>
/home/itssahil/PROJECTS/Mol_Feturizer/New_Systems/rnas/1j7t

>  <Rbt.Executable>
rbdock ($Id: //depot/dev/client3/rdock/2013.1/src/exe/rbdock.cxx#4 $)

>  <Rbt.Library>
libRbt.so (2013.1, Build901 2013/11/27)

>  <Rbt.Parameter_File>
/export/apps/rDock/src/rDock_2013.1_src/data/scripts/dock_solv.prm

>  <Rbt.Receptor>
prm/blind_docking_100.prm

>  <SCORE>
-14.4291

>  <SCORE.INTER>
-23.738

>  <SCORE.INTER.CONST>
1

>  <SCORE.INTER.POLAR>
-4.00857

>  <SCORE.INTER.ROT>
9

>  <SCORE.INTER.SOLV>
50.3921

>  <SCORE.INTER.VDW>
-28.8608

>  <SCORE.INTER.norm>
-0.565192

>  <SCORE.INTRA>
-4.0647

>  <SCORE.INTRA.DIHEDRAL>
-17.5901

>  <SCORE.INTRA.DIHEDRAL.0>
46.2143

>  <SCORE.INTRA.POLAR>
0.751619

>  <SCORE.INTRA.POLAR.0>
-1.76436

>  <SCORE.INTRA.REPUL>
0

>  <SCORE.INTRA.REPUL.0>
0

>  <SCORE.INTRA.SOLV>
-1.44384

>  <SCORE.INTRA.SOLV.lig_0>
-148.643

>  <SCORE.INTRA.VDW>
2.89675

>  <SCORE.INTRA.VDW.0>
-4.83512

>  <SCORE.INTRA.norm>
-0.0967785

>  <SCORE.RESTR>
13.3737

>  <SCORE.RESTR.CAVITY>
13.3737

>  <SCORE.RESTR.norm>
0.318421

>  <SCORE.SYSTEM>
0

>  <SCORE.SYSTEM.CONST>
0

>  <SCORE.SYSTEM.DIHEDRAL>
0

>  <SCORE.SYSTEM.SOLV>
0

>  <SCORE.SYSTEM.norm>
0

>  <SCORE.heavy>
42

>  <SCORE.norm>
-0.34355

>  <RMSD>
5.200

$$$$
1j7t
 OpenBabel11021811393D
libRbt.so/2013.1/901 2013/11/27
 42 45  0  0  0  0  0  0  0  0999 V2000
   29.7052    9.6646   52.0998 C   0  0  2  0  0  0  0  0  0  0  0  0
   30.6887    8.6146   51.9183 O   0  0  0  0  0  0  0  0  0  0  0  0
   28.7521    9.6078   50.8716 C   0  0  2  0  0  0  0  0  0  0  0  0
   28.1526    8.2668   50.6154 N   0  3  0  0  0  0  0  0  0  0  0  0
   29.5594   10.0154   49.6198 C   0  0  1  0  0  0  0  0  0  0  0  0
   28.7457    9.9982   48.4809 O   0  0  0  0  0  0  0  0  0  0  0  0
   30.1826   11.4167   49.8234 C   0  0  2  0  0  0  0  0  0  0  0  0
   30.9092   11.8186   48.6790 O   0  0  0  0  0  0  0  0  0  0  0  0
   31.1108   11.3975   51.0193 C   0  0  2  0  0  0  0  0  0  0  0  0
   30.3935   10.9531   52.1638 O   0  0  0  0  0  0  0  0  0  0  0  0
   31.6709   12.7611   51.3568 C   0  0  0  0  0  0  0  0  0  0  0  0
   32.5781   13.1610   50.3477 O   0  0  0  0  0  0  0  0  0  0  0  0
   33.3641    6.4825   54.3970 C   0  0  2  0  0  0  0  0  0  0  0  0
   34.3955    6.1872   55.3922 N   0  3  0  0  0  0  0  0  0  0  0  0
   33.9731    7.3325   53.2330 C   0  0  0  0  0  0  0  0  0  0  0  0
   32.8794    7.6871   52.2075 C   0  0  2  0  0  0  0  0  0  0  0  0
   33.4215    8.5296   51.1364 N   0  3  0  0  0  0  0  0  0  0  0  0
   31.7151    8.4234   52.8988 C   0  0  2  0  0  0  0  0  0  0  0  0
   31.1133    7.6202   54.0684 C   0  0  2  0  0  0  0  0  0  0  0  0
   30.1587    8.4936   54.7019 O   0  0  0  0  0  0  0  0  0  0  0  0
   32.2219    7.2220   55.0754 C   0  0  1  0  0  0  0  0  0  0  0  0
   31.6678    6.4095   56.0734 O   0  0  0  0  0  0  0  0  0  0  0  0
   30.4947    9.3944   55.7540 C   0  0  1  0  0  0  0  0  0  0  0  0
   29.1661    9.9640   56.3675 C   0  0  2  0  0  0  0  0  0  0  0  0
   28.6814   11.1243   55.7135 O   0  0  0  0  0  0  0  0  0  0  0  0
   29.6602   10.1934   57.7890 C   0  0  2  0  0  0  0  0  0  0  0  0
   30.6324   11.2807   57.8391 O   0  0  0  0  0  0  0  0  0  0  0  0
   30.4002    8.8996   58.0984 C   0  0  2  0  0  0  0  0  0  0  0  0
   31.1118    8.6908   56.8664 O   0  0  0  0  0  0  0  0  0  0  0  0
   29.4831    7.6911   58.4779 C   0  0  0  0  0  0  0  0  0  0  0  0
   28.7309    7.9513   59.6697 O   0  0  0  0  0  0  0  0  0  0  0  0
   30.1781   12.4325   58.5452 C   0  0  2  0  0  0  0  0  0  0  0  0
   31.2883   13.4960   58.8461 C   0  0  2  0  0  0  0  0  0  0  0  0
   32.4277   12.9383   59.6362 N   0  3  0  0  0  0  0  0  0  0  0  0
   30.5953   14.6818   59.5966 C   0  0  1  0  0  0  0  0  0  0  0  0
   29.6059   15.2690   58.6671 O   0  0  0  0  0  0  0  0  0  0  0  0
   29.8462   14.2150   60.9052 C   0  0  2  0  0  0  0  0  0  0  0  0
   30.8183   13.6976   61.8282 O   0  0  0  0  0  0  0  0  0  0  0  0
   28.7796   13.1157   60.4977 C   0  0  1  0  0  0  0  0  0  0  0  0
   29.4983   12.0327   59.8166 O   0  0  0  0  0  0  0  0  0  0  0  0
   27.9675   12.5401   61.6800 C   0  0  0  0  0  0  0  0  0  0  0  0
   27.3015   11.2468   61.3665 N   0  3  0  0  0  0  0  0  0  0  0  0
  1  2  1  6  0  0  0
  1  3  1  0  0  0  0
  1 10  1  0  0  0  0
  3  4  1  6  0  0  0
  3  5  1  0  0  0  0
  5  6  1  6  0  0  0
  5  7  1  0  0  0  0
  7  8  1  6  0  0  0
  7  9  1  0  0  0  0
  9 10  1  0  0  0  0
  9 11  1  1  0  0  0
 11 12  1  0  0  0  0
 13 14  1  1  0  0  0
 13 15  1  0  0  0  0
 13 21  1  0  0  0  0
 15 16  1  0  0  0  0
 16 17  1  6  0  0  0
 16 18  1  0  0  0  0
 18  2  1  6  0  0  0
 18 19  1  0  0  0  0
 19 20  1  1  0  0  0
 19 21  1  0  0  0  0
 21 22  1  1  0  0  0
 23 20  1  6  0  0  0
 23 24  1  0  0  0  0
 23 29  1  0  0  0  0
 24 25  1  6  0  0  0
 24 26  1  0  0  0  0
 26 27  1  6  0  0  0
 26 28  1  0  0  0  0
 28 29  1  0  0  0  0
 28 30  1  6  0  0  0
 30 31  1  0  0  0  0
 32 27  1  1  0  0  0
 32 33  1  0  0  0  0
 32 40  1  0  0  0  0
 33 34  1  1  0  0  0
 33 35  1  0  0  0  0
 35 36  1  6  0  0  0
 35 37  1  0  0  0  0
 37 38  1  1  0  0  0
 37 39  1  0  0  0  0
 39 40  1  0  0  0  0
 39 41  1  1  0  0  0
 41 42  1  0  0  0  0
M  CHG  5   4   1  14   1  17   1  34   1  42   1
M  END
>  <CHROM.1>
179.72423751,-157.68408515,-167.29506433,179.65821636,73.00651739,-69.45512162
-171.51257092,144.44713105,88.88917485,-89.01551187,-169.21538429,-55.95228988
-32.78551332,113.09576813,168.92343715,-61.98216222,170.44672119,-149.01712681
87.36050860,55.81087360,-161.81317968,-164.08378805,30.57058163,10.31197377
55.33454223,1.08128945,1.27883248,-1.39094184

>  <Name>
1j7t

>  <RI>
0

>  <Rbt.Current_Directory>
/home/itssahil/PROJECTS/Mol_Feturizer/New_Systems/rnas/1j7t

>  <Rbt.Executable>
rbdock ($Id: //depot/dev/client3/rdock/2013.1/src/exe/rbdock.cxx#4 $)

>  <Rbt.Library>
libRbt.so (2013.1, Build901 2013/11/27)

>  <Rbt.Parameter_File>
/export/apps/rDock/src/rDock_2013.1_src/data/scripts/dock_solv.prm

>  <Rbt.Receptor>
prm/blind_docking_80.prm

>  <SCORE>
-4.58772

>  <SCORE.INTER>
-30.1567

>  <SCORE.INTER.CONST>
1

>  <SCORE.INTER.POLAR>
-6.85092

>  <SCORE.INTER.ROT>
9

>  <SCORE.INTER.SOLV>
39.7829

>  <SCORE.INTER.VDW>
-20.1291

>  <SCORE.INTER.norm>
-0.718017

>  <SCORE.INTRA>
-1.09919

>  <SCORE.INTRA.DIHEDRAL>
-16.114

>  <SCORE.INTRA.DIHEDRAL.0>
46.2143

>  <SCORE.INTRA.POLAR>
1.64154

>  <SCORE.INTRA.POLAR.0>
-1.76436

>  <SCORE.INTRA.REPUL>
0.13303

>  <SCORE.INTRA.REPUL.0>
0

>  <SCORE.INTRA.SOLV>
-4.33989

>  <SCORE.INTRA.SOLV.lig_0>
-148.643

>  <SCORE.INTRA.VDW>
2.88138

>  <SCORE.INTRA.VDW.0>
-4.83512

>  <SCORE.INTRA.norm>
-0.0261712

>  <SCORE.RESTR>
26.6682

>  <SCORE.RESTR.CAVITY>
26.6682

>  <SCORE.RESTR.norm>
0.634957

>  <SCORE.SYSTEM>
0

>  <SCORE.SYSTEM.CONST>
0

>  <SCORE.SYSTEM.DIHEDRAL>
0

>  <SCORE.SYSTEM.SOLV>
0

>  <SCORE.SYSTEM.norm>
0

>  <SCORE.heavy>
42

>  <SCORE.norm>
-0.109232

>  <RMSD>
5.203

$$$$
1j7t
 OpenBabel11021811393D
libRbt.so/2013.1/901 2013/11/27
 42 45  0  0  0  0  0  0  0  0999 V2000
   30.8587    7.4202   52.8619 C   0  0  2  0  0  0  0  0  0  0  0  0
   29.8923    7.1888   51.8060 O   0  0  0  0  0  0  0  0  0  0  0  0
   31.9165    8.4110   52.2968 C   0  0  2  0  0  0  0  0  0  0  0  0
   31.3464    9.6646   51.7248 N   0  3  0  0  0  0  0  0  0  0  0  0
   32.6985    7.6896   51.1773 C   0  0  1  0  0  0  0  0  0  0  0  0
   33.6796    8.5310   50.6399 O   0  0  0  0  0  0  0  0  0  0  0  0
   33.3352    6.3912   51.7270 C   0  0  2  0  0  0  0  0  0  0  0  0
   34.0745    5.7255   50.7223 O   0  0  0  0  0  0  0  0  0  0  0  0
   32.2530    5.4662   52.2421 C   0  0  2  0  0  0  0  0  0  0  0  0
   31.4806    6.1470   53.2229 O   0  0  0  0  0  0  0  0  0  0  0  0
   32.8022    4.2225   52.9043 C   0  0  0  0  0  0  0  0  0  0  0  0
   33.3975    3.3915   51.9264 O   0  0  0  0  0  0  0  0  0  0  0  0
   26.0598    5.4150   51.9241 C   0  0  2  0  0  0  0  0  0  0  0  0
   24.9977    4.4175   52.0594 N   0  3  0  0  0  0  0  0  0  0  0  0
   26.9989    5.0365   50.7311 C   0  0  0  0  0  0  0  0  0  0  0  0
   28.1468    6.0576   50.6158 C   0  0  2  0  0  0  0  0  0  0  0  0
   29.0675    5.6882   49.5356 N   0  3  0  0  0  0  0  0  0  0  0  0
   28.9235    6.1430   51.9443 C   0  0  2  0  0  0  0  0  0  0  0  0
   28.0177    6.4876   53.1426 C   0  0  2  0  0  0  0  0  0  0  0  0
   28.8480    6.3760   54.3146 O   0  0  0  0  0  0  0  0  0  0  0  0
   26.8358    5.4889   53.2295 C   0  0  1  0  0  0  0  0  0  0  0  0
   25.9748    5.8827   54.2623 O   0  0  0  0  0  0  0  0  0  0  0  0
   28.3369    6.3941   55.6449 C   0  0  1  0  0  0  0  0  0  0  0  0
   29.4734    5.9281   56.6233 C   0  0  2  0  0  0  0  0  0  0  0  0
   29.5316    4.5244   56.8107 O   0  0  0  0  0  0  0  0  0  0  0  0
   29.0442    6.7177   57.8519 C   0  0  2  0  0  0  0  0  0  0  0  0
   27.7951    6.1995   58.4004 O   0  0  0  0  0  0  0  0  0  0  0  0
   28.7575    8.0983   57.2785 C   0  0  2  0  0  0  0  0  0  0  0  0
   28.0499    7.7527   56.0753 O   0  0  0  0  0  0  0  0  0  0  0  0
   30.0242    8.9732   57.0035 C   0  0  0  0  0  0  0  0  0  0  0  0
   30.8447    9.0985   58.1719 O   0  0  0  0  0  0  0  0  0  0  0  0
   27.6463    6.4094   59.8023 C   0  0  2  0  0  0  0  0  0  0  0  0
   26.2002    6.1616   60.3516 C   0  0  2  0  0  0  0  0  0  0  0  0
   25.1715    7.0165   59.6849 N   0  3  0  0  0  0  0  0  0  0  0  0
   26.2464    6.4171   61.8950 C   0  0  1  0  0  0  0  0  0  0  0  0
   27.1611    5.4114   62.4776 O   0  0  0  0  0  0  0  0  0  0  0  0
   26.7821    7.8576   62.2544 C   0  0  2  0  0  0  0  0  0  0  0  0
   25.8605    8.8305   61.7358 O   0  0  0  0  0  0  0  0  0  0  0  0
   28.2258    8.0195   61.6206 C   0  0  1  0  0  0  0  0  0  0  0  0
   28.1047    7.7833   60.1774 O   0  0  0  0  0  0  0  0  0  0  0  0
   28.8858    9.3946   61.8706 C   0  0  0  0  0  0  0  0  0  0  0  0
   28.9901    9.7476   63.3125 N   0  3  0  0  0  0  0  0  0  0  0  0
  1  2  1  6  0  0  0
  1  3  1  0  0  0  0
  1 10  1  0  0  0  0
  3  4  1  6  0  0  0
  3  5  1  0  0  0  0
  5  6  1  1  0  0  0
  5  7  1  0  0  0  0
  7  8  1  6  0  0  0
  7  9  1  0  0  0  0
  9 10  1  0  0  0  0
  9 11  1  1  0  0  0
 11 12  1  0  0  0  0
 13 14  1  1  0  0  0
 13 15  1  0  0  0  0
 13 21  1  0  0  0  0
 15 16  1  0  0  0  0
 16 17  1  6  0  0  0
 16 18  1  0  0  0  0
 18  2  1  6  0  0  0
 18 19  1  0  0  0  0
 19 20  1  1  0  0  0
 19 21  1  0  0  0  0
 21 22  1  1  0  0  0
 23 20  1  6  0  0  0
 23 24  1  0  0  0  0
 23 29  1  0  0  0  0
 24 25  1  1  0  0  0
 24 26  1  0  0  0  0
 26 27  1  6  0  0  0
 26 28  1  0  0  0  0
 28 29  1  0  0  0  0
 28 30  1  6  0  0  0
 30 31  1  0  0  0  0
 32 27  1  6  0  0  0
 32 33  1  0  0  0  0
 32 40  1  0  0  0  0
 33 34  1  6  0  0  0
 33 35  1  0  0  0  0
 35 36  1  1  0  0  0
 35 37  1  0  0  0  0
 37 38  1  6  0  0  0
 37 39  1  0  0  0  0
 39 40  1  0  0  0  0
 39 41  1  6  0  0  0
 41 42  1  0  0  0  0
M  CHG  5   4   1  14   1  17   1  34   1  42   1
M  END
>  <CHROM.1>
169.24550067,-174.34830342,-175.28326848,60.47373818,63.53294940,-69.22086719
-174.29084940,-33.50763089,-46.99721398,-169.00131115,167.31351839,67.78331671
65.88754652,152.09795043,166.81431103,-54.36336408,-58.75089652,164.96163420
69.16388507,-179.91483195,56.18543389,43.07126003,29.12583389,6.76861124
55.58024323,-1.19519206,0.32876051,1.30207531

>  <Name>
1j7t

>  <RI>
0

>  <Rbt.Current_Directory>
/home/itssahil/PROJECTS/Mol_Feturizer/New_Systems/rnas/1j7t

>  <Rbt.Executable>
rbdock ($Id: //depot/dev/client3/rdock/2013.1/src/exe/rbdock.cxx#4 $)

>  <Rbt.Library>
libRbt.so (2013.1, Build901 2013/11/27)

>  <Rbt.Parameter_File>
/export/apps/rDock/src/rDock_2013.1_src/data/scripts/dock_solv.prm

>  <Rbt.Receptor>
prm/pocket_docking_8.prm

>  <SCORE>
-45.6089

>  <SCORE.INTER>
-28.7314

>  <SCORE.INTER.CONST>
1

>  <SCORE.INTER.POLAR>
-5.66485

>  <SCORE.INTER.ROT>
9

>  <SCORE.INTER.SOLV>
19.2673

>  <SCORE.INTER.VDW>
-16.2939

>  <SCORE.INTER.norm>
-0.684081

>  <SCORE.INTRA>
-16.8775

>  <SCORE.INTRA.DIHEDRAL>
-34.9245

>  <SCORE.INTRA.DIHEDRAL.0>
46.2143

>  <SCORE.INTRA.POLAR>
0.894792

>  <SCORE.INTRA.POLAR.0>
-1.76436

>  <SCORE.INTRA.REPUL>
0.00430612

>  <SCORE.INTRA.REPUL.0>
0

>  <SCORE.INTRA.SOLV>
-5.66274

>  <SCORE.INTRA.SOLV.lig_0>
-148.643

>  <SCORE.INTRA.VDW>
0.352277

>  <SCORE.INTRA.VDW.0>
-4.83512

>  <SCORE.INTRA.norm>
-0.401846

>  <SCORE.RESTR>
0

>  <SCORE.RESTR.CAVITY>
0

>  <SCORE.RESTR.norm>
0

>  <SCORE.SYSTEM>
0

>  <SCORE.SYSTEM.CONST>
0

>  <SCORE.SYSTEM.DIHEDRAL>
0

>  <SCORE.SYSTEM.SOLV>
0

>  <SCORE.SYSTEM.norm>
0

>  <SCORE.heavy>
42

>  <SCORE.norm>
-1.08593

>  <RMSD>
5.209

$$$$
1j7t
 OpenBabel11021811393D
libRbt.so/2013.1/901 2013/11/27
 42 45  0  0  0  0  0  0  0  0999 V2000
   32.2649    6.3604   53.9948 C   0  0  2  0  0  0  0  0  0  0  0  0
   32.0054    5.1551   54.7580 O   0  0  0  0  0  0  0  0  0  0  0  0
   31.7890    6.0846   52.5396 C   0  0  2  0  0  0  0  0  0  0  0  0
   30.3830    5.6003   52.4300 N   0  3  0  0  0  0  0  0  0  0  0  0
   32.7124    5.0074   51.9298 C   0  0  1  0  0  0  0  0  0  0  0  0
   32.3404    4.7288   50.6094 O   0  0  0  0  0  0  0  0  0  0  0  0
   34.1862    5.4737   51.9942 C   0  0  2  0  0  0  0  0  0  0  0  0
   35.0473    4.5100   51.4207 O   0  0  0  0  0  0  0  0  0  0  0  0
   34.5895    5.7052   53.4349 C   0  0  2  0  0  0  0  0  0  0  0  0
   33.6993    6.6426   54.0272 O   0  0  0  0  0  0  0  0  0  0  0  0
   35.9827    6.2762   53.5759 C   0  0  0  0  0  0  0  0  0  0  0  0
   36.3198    6.9918   52.4030 O   0  0  0  0  0  0  0  0  0  0  0  0
   31.2294    3.8360   58.6958 C   0  0  2  0  0  0  0  0  0  0  0  0
   31.1448    3.8067   60.1564 N   0  3  0  0  0  0  0  0  0  0  0  0
   32.7248    3.9511   58.2498 C   0  0  0  0  0  0  0  0  0  0  0  0
   32.8149    4.0316   56.7139 C   0  0  2  0  0  0  0  0  0  0  0  0
   34.2066    4.1940   56.2805 N   0  3  0  0  0  0  0  0  0  0  0  0
   31.9738    5.2116   56.1889 C   0  0  2  0  0  0  0  0  0  0  0  0
   30.5008    5.1386   56.6364 C   0  0  2  0  0  0  0  0  0  0  0  0
   29.8925    6.3719   56.2069 O   0  0  0  0  0  0  0  0  0  0  0  0
   30.4119    5.0088   58.1781 C   0  0  1  0  0  0  0  0  0  0  0  0
   29.0713    4.8432   58.5500 O   0  0  0  0  0  0  0  0  0  0  0  0
   29.1071    7.2001   57.0604 C   0  0  1  0  0  0  0  0  0  0  0  0
   28.8003    8.5441   56.3083 C   0  0  2  0  0  0  0  0  0  0  0  0
   29.7931    9.5406   56.4825 O   0  0  0  0  0  0  0  0  0  0  0  0
   27.4603    8.8594   56.9580 C   0  0  2  0  0  0  0  0  0  0  0  0
   27.6269    9.2077   58.3654 O   0  0  0  0  0  0  0  0  0  0  0  0
   26.7365    7.5216   56.8974 C   0  0  2  0  0  0  0  0  0  0  0  0
   27.7913    6.6229   57.2813 O   0  0  0  0  0  0  0  0  0  0  0  0
   26.1203    7.1688   55.5040 C   0  0  0  0  0  0  0  0  0  0  0  0
   27.1274    7.0733   54.4888 O   0  0  0  0  0  0  0  0  0  0  0  0
   26.4031    9.2865   59.0919 C   0  0  2  0  0  0  0  0  0  0  0  0
   25.3800   10.3361   58.5389 C   0  0  2  0  0  0  0  0  0  0  0  0
   25.9362   11.7226   58.4965 N   0  3  0  0  0  0  0  0  0  0  0  0
   24.1064   10.2558   59.4452 C   0  0  1  0  0  0  0  0  0  0  0  0
   23.5392    8.8995   59.2831 O   0  0  0  0  0  0  0  0  0  0  0  0
   24.4339   10.4890   60.9715 C   0  0  2  0  0  0  0  0  0  0  0  0
   24.9311   11.8275   61.1329 O   0  0  0  0  0  0  0  0  0  0  0  0
   25.5029    9.4073   61.4177 C   0  0  1  0  0  0  0  0  0  0  0  0
   26.6702    9.5503   60.5401 O   0  0  0  0  0  0  0  0  0  0  0  0
   25.9447    9.5131   62.8951 C   0  0  0  0  0  0  0  0  0  0  0  0
   27.0555    8.5879   63.2482 N   0  3  0  0  0  0  0  0  0  0  0  0
  1  2  1  1  0  0  0
  1  3  1  0  0  0  0
  1 10  1  0  0  0  0
  3  4  1  1  0  0  0
  3  5  1  0  0  0  0
  5  6  1  6  0  0  0
  5  7  1  0  0  0  0
  7  8  1  1  0  0  0
  7  9  1  0  0  0  0
  9 10  1  0  0  0  0
  9 11  1  6  0  0  0
 11 12  1  0  0  0  0
 13 14  1  1  0  0  0
 13 15  1  0  0  0  0
 13 21  1  0  0  0  0
 15 16  1  0  0  0  0
 16 17  1  1  0  0  0
 16 18  1  0  0  0  0
 18  2  1  6  0  0  0
 18 19  1  0  0  0  0
 19 20  1  1  0  0  0
 19 21  1  0  0  0  0
 21 22  1  6  0  0  0
 23 20  1  6  0  0  0
 23 24  1  0  0  0  0
 23 29  1  0  0  0  0
 24 25  1  1  0  0  0
 24 26  1  0  0  0  0
 26 27  1  1  0  0  0
 26 28  1  0  0  0  0
 28 29  1  0  0  0  0
 28 30  1  6  0  0  0
 30 31  1  0  0  0  0
 32 27  1  6  0  0  0
 32 33  1  0  0  0  0
 32 40  1  0  0  0  0
 33 34  1  1  0  0  0
 33 35  1  0  0  0  0
 35 36  1  1  0  0  0
 35 37  1  0  0  0  0
 37 38  1  6  0  0  0
 37 39  1  0  0  0  0
 39 40  1  0  0  0  0
 39 41  1  1  0  0  0
 41 42  1  0  0  0  0
M  CHG  5   4   1  14   1  17   1  34   1  42   1
M  END
>  <CHROM.1>
-162.15029839,-133.47289901,-54.23342830,62.55014036,57.12893380,26.13414313
72.20687481,130.90652860,-84.50286148,-130.49424482,171.66945095,79.14946695
65.80339815,-169.61859996,-59.19544311,61.45117262,-73.18357634,-20.33398171
-174.38291113,53.78012951,-173.58241025,-170.83424670,29.67126863,7.07260210
56.73797257,0.49393166,0.64255085,-1.30411565

>  <Name>
1j7t

>  <RI>
0

>  <Rbt.Current_Directory>
/home/itssahil/PROJECTS/Mol_Feturizer/New_Systems/rnas/1j7t

>  <Rbt.Executable>
rbdock ($Id: //depot/dev/client3/rdock/2013.1/src/exe/rbdock.cxx#4 $)

>  <Rbt.Library>
libRbt.so (2013.1, Build901 2013/11/27)

>  <Rbt.Parameter_File>
/export/apps/rDock/src/rDock_2013.1_src/data/scripts/dock_solv.prm

>  <Rbt.Receptor>
prm/pocket_docking_6.prm

>  <SCORE>
-31.7067

>  <SCORE.INTER>
-32.268

>  <SCORE.INTER.CONST>
1

>  <SCORE.INTER.POLAR>
-5.9853

>  <SCORE.INTER.ROT>
9

>  <SCORE.INTER.SOLV>
20.1485

>  <SCORE.INTER.VDW>
-17.8772

>  <SCORE.INTER.norm>
-0.768285

>  <SCORE.INTRA>
0.541158

>  <SCORE.INTRA.DIHEDRAL>
-15.5367

>  <SCORE.INTRA.DIHEDRAL.0>
46.2143

>  <SCORE.INTRA.POLAR>
1.76123

>  <SCORE.INTRA.POLAR.0>
-1.76436

>  <SCORE.INTRA.REPUL>
0

>  <SCORE.INTRA.REPUL.0>
0

>  <SCORE.INTRA.SOLV>
-1.53454

>  <SCORE.INTRA.SOLV.lig_0>
-148.643

>  <SCORE.INTRA.VDW>
3.08864

>  <SCORE.INTRA.VDW.0>
-4.83512

>  <SCORE.INTRA.norm>
0.0128847

>  <SCORE.RESTR>
0.0201617

>  <SCORE.RESTR.CAVITY>
0.0201617

>  <SCORE.RESTR.norm>
0.00048004

>  <SCORE.SYSTEM>
0

>  <SCORE.SYSTEM.CONST>
0

>  <SCORE.SYSTEM.DIHEDRAL>
0

>  <SCORE.SYSTEM.SOLV>
0

>  <SCORE.SYSTEM.norm>
0

>  <SCORE.heavy>
42

>  <SCORE.norm>
-0.754921

>  <RMSD>
5.214

$$$$
1j7t
 OpenBabel11021811393D
libRbt.so/2013.1/901 2013/11/27
 42 45  0  0  0  0  0  0  0  0999 V2000
   29.6900    9.8059   51.9577 C   0  0  2  0  0  0  0  0  0  0  0  0
   30.6358    8.7200   51.7883 O   0  0  0  0  0  0  0  0  0  0  0  0
   28.7583    9.7918   50.7119 C   0  0  2  0  0  0  0  0  0  0  0  0
   28.1128    8.4760   50.4372 N   0  3  0  0  0  0  0  0  0  0  0  0
   29.6036   10.1743   49.4774 C   0  0  1  0  0  0  0  0  0  0  0  0
   28.8111   10.1939   48.3237 O   0  0  0  0  0  0  0  0  0  0  0  0
   30.2761   11.5497   49.7003 C   0  0  2  0  0  0  0  0  0  0  0  0
   31.0386   11.9291   48.5717 O   0  0  0  0  0  0  0  0  0  0  0  0
   31.1806   11.4890   50.9129 C   0  0  2  0  0  0  0  0  0  0  0  0
   30.4257   11.0668   52.0415 O   0  0  0  0  0  0  0  0  0  0  0  0
   31.7860   12.8285   51.2683 C   0  0  0  0  0  0  0  0  0  0  0  0
   32.7762   13.1658   50.3159 O   0  0  0  0  0  0  0  0  0  0  0  0
   33.4574    6.6229   54.1311 C   0  0  2  0  0  0  0  0  0  0  0  0
   34.5225    6.3387   55.0934 N   0  3  0  0  0  0  0  0  0  0  0  0
   34.0022    7.5414   52.9875 C   0  0  0  0  0  0  0  0  0  0  0  0
   32.8715    7.8830   51.9983 C   0  0  2  0  0  0  0  0  0  0  0  0
   33.3519    8.7876   50.9486 N   0  3  0  0  0  0  0  0  0  0  0  0
   31.6909    8.5400   52.7400 C   0  0  2  0  0  0  0  0  0  0  0  0
   31.1513    7.6684   53.8908 C   0  0  2  0  0  0  0  0  0  0  0  0
   30.1729    8.4740   54.5757 O   0  0  0  0  0  0  0  0  0  0  0  0
   32.2985    7.2846   54.8596 C   0  0  1  0  0  0  0  0  0  0  0  0
   31.8032    6.4121   55.8376 O   0  0  0  0  0  0  0  0  0  0  0  0
   30.4950    9.3685   55.6374 C   0  0  1  0  0  0  0  0  0  0  0  0
   29.1579    9.9154   56.2531 C   0  0  2  0  0  0  0  0  0  0  0  0
   28.6603   11.0759   55.6092 O   0  0  0  0  0  0  0  0  0  0  0  0
   29.6455   10.1369   57.6780 C   0  0  2  0  0  0  0  0  0  0  0  0
   30.6039   11.2356   57.7413 O   0  0  0  0  0  0  0  0  0  0  0  0
   30.4009    8.8494   57.9766 C   0  0  2  0  0  0  0  0  0  0  0  0
   31.1181    8.6617   56.7445 O   0  0  0  0  0  0  0  0  0  0  0  0
   29.4980    7.6258   58.3418 C   0  0  0  0  0  0  0  0  0  0  0  0
   30.2792    6.4616   58.6387 O   0  0  0  0  0  0  0  0  0  0  0  0
   30.1377   12.3704   58.4669 C   0  0  2  0  0  0  0  0  0  0  0  0
   31.2393   13.4345   58.7965 C   0  0  2  0  0  0  0  0  0  0  0  0
   32.3767   12.8681   59.5832 N   0  3  0  0  0  0  0  0  0  0  0  0
   30.5339   14.6009   59.5656 C   0  0  1  0  0  0  0  0  0  0  0  0
   29.5472   15.2005   58.6411 O   0  0  0  0  0  0  0  0  0  0  0  0
   29.7789   14.1037   60.8594 C   0  0  2  0  0  0  0  0  0  0  0  0
   30.7479   13.5740   61.7787 O   0  0  0  0  0  0  0  0  0  0  0  0
   28.7219   13.0063   60.4229 C   0  0  1  0  0  0  0  0  0  0  0  0
   29.4518   11.9414   59.7254 O   0  0  0  0  0  0  0  0  0  0  0  0
   27.9053   12.4025   61.5880 C   0  0  0  0  0  0  0  0  0  0  0  0
   28.7056   11.5131   62.4730 N   0  3  0  0  0  0  0  0  0  0  0  0
  1  2  1  6  0  0  0
  1  3  1  0  0  0  0
  1 10  1  0  0  0  0
  3  4  1  6  0  0  0
  3  5  1  0  0  0  0
  5  6  1  6  0  0  0
  5  7  1  0  0  0  0
  7  8  1  6  0  0  0
  7  9  1  0  0  0  0
  9 10  1  0  0  0  0
  9 11  1  1  0  0  0
 11 12  1  0  0  0  0
 13 14  1  1  0  0  0
 13 15  1  0  0  0  0
 13 21  1  0  0  0  0
 15 16  1  0  0  0  0
 16 17  1  6  0  0  0
 16 18  1  0  0  0  0
 18  2  1  6  0  0  0
 18 19  1  0  0  0  0
 19 20  1  1  0  0  0
 19 21  1  0  0  0  0
 21 22  1  1  0  0  0
 23 20  1  6  0  0  0
 23 24  1  0  0  0  0
 23 29  1  0  0  0  0
 24 25  1  6  0  0  0
 24 26  1  0  0  0  0
 26 27  1  6  0  0  0
 26 28  1  0  0  0  0
 28 29  1  0  0  0  0
 28 30  1  6  0  0  0
 30 31  1  0  0  0  0
 32 27  1  1  0  0  0
 32 33  1  0  0  0  0
 32 40  1  0  0  0  0
 33 34  1  1  0  0  0
 33 35  1  0  0  0  0
 35 36  1  6  0  0  0
 35 37  1  0  0  0  0
 37 38  1  1  0  0  0
 37 39  1  0  0  0  0
 39 40  1  0  0  0  0
 39 41  1  1  0  0  0
 41 42  1  0  0  0  0
M  CHG  5   4   1  14   1  17   1  34   1  42   1
M  END
>  <CHROM.1>
175.53518979,-151.35916884,69.12011510,-174.22268318,67.79223585,-72.48060506
54.85417072,44.16542198,-154.93648594,-87.82865451,-172.46418565,83.83786187
-49.41865512,113.58646739,168.15853323,-178.67763198,179.51215253,-29.25761323
175.86628307,51.99038050,-70.85616590,-81.75164522,30.66514329,10.31456032
55.21820146,1.16093906,1.26827601,-1.44331698

>  <Name>
1j7t

>  <RI>
0

>  <Rbt.Current_Directory>
/home/itssahil/PROJECTS/Mol_Feturizer/New_Systems/rnas/1j7t

>  <Rbt.Executable>
rbdock ($Id: //depot/dev/client3/rdock/2013.1/src/exe/rbdock.cxx#4 $)

>  <Rbt.Library>
libRbt.so (2013.1, Build901 2013/11/27)

>  <Rbt.Parameter_File>
/export/apps/rDock/src/rDock_2013.1_src/data/scripts/dock_solv.prm

>  <Rbt.Receptor>
prm/blind_docking_80.prm

>  <SCORE>
-13.8037

>  <SCORE.INTER>
-29.8287

>  <SCORE.INTER.CONST>
1

>  <SCORE.INTER.POLAR>
-6.95966

>  <SCORE.INTER.ROT>
9

>  <SCORE.INTER.SOLV>
42.3574

>  <SCORE.INTER.VDW>
-20.4061

>  <SCORE.INTER.norm>
-0.710206

>  <SCORE.INTRA>
-10.0335

>  <SCORE.INTRA.DIHEDRAL>
-21.379

>  <SCORE.INTRA.DIHEDRAL.0>
46.2143

>  <SCORE.INTRA.POLAR>
0.241424

>  <SCORE.INTRA.POLAR.0>
-1.76436

>  <SCORE.INTRA.REPUL>
0

>  <SCORE.INTRA.REPUL.0>
0

>  <SCORE.INTRA.SOLV>
-1.43901

>  <SCORE.INTRA.SOLV.lig_0>
-148.643

>  <SCORE.INTRA.VDW>
0.554648

>  <SCORE.INTRA.VDW.0>
-4.83512

>  <SCORE.INTRA.norm>
-0.238893

>  <SCORE.RESTR>
26.0585

>  <SCORE.RESTR.CAVITY>
26.0585

>  <SCORE.RESTR.norm>
0.62044

>  <SCORE.SYSTEM>
0

>  <SCORE.SYSTEM.CONST>
0

>  <SCORE.SYSTEM.DIHEDRAL>
0

>  <SCORE.SYSTEM.SOLV>
0

>  <SCORE.SYSTEM.norm>
0

>  <SCORE.heavy>
42

>  <SCORE.norm>
-0.328659

>  <RMSD>
5.229

$$$$
1j7t
 OpenBabel11021811393D
libRbt.so/2013.1/901 2013/11/27
 42 45  0  0  0  0  0  0  0  0999 V2000
   30.8157   11.4681   50.0893 C   0  0  2  0  0  0  0  0  0  0  0  0
   30.9532   10.0403   49.8768 O   0  0  0  0  0  0  0  0  0  0  0  0
   29.8908   12.0056   48.9598 C   0  0  2  0  0  0  0  0  0  0  0  0
   28.5870   11.2926   48.8361 N   0  3  0  0  0  0  0  0  0  0  0  0
   30.6410   11.8621   47.6176 C   0  0  1  0  0  0  0  0  0  0  0  0
   29.8603   12.3470   46.5617 O   0  0  0  0  0  0  0  0  0  0  0  0
   31.9939   12.6097   47.6834 C   0  0  2  0  0  0  0  0  0  0  0  0
   32.6881   12.5088   46.4558 O   0  0  0  0  0  0  0  0  0  0  0  0
   32.8502   12.0265   48.7873 C   0  0  2  0  0  0  0  0  0  0  0  0
   32.1380   12.0879   50.0165 O   0  0  0  0  0  0  0  0  0  0  0  0
   34.1448   12.7804   48.9941 C   0  0  0  0  0  0  0  0  0  0  0  0
   35.2344   11.9542   48.6318 O   0  0  0  0  0  0  0  0  0  0  0  0
   32.8753    6.6568   51.5216 C   0  0  2  0  0  0  0  0  0  0  0  0
   33.5020    5.7500   52.4840 N   0  3  0  0  0  0  0  0  0  0  0  0
   33.6985    7.9839   51.4243 C   0  0  0  0  0  0  0  0  0  0  0  0
   33.0151    8.9609   50.4485 C   0  0  2  0  0  0  0  0  0  0  0  0
   33.7445   10.2317   50.3858 N   0  3  0  0  0  0  0  0  0  0  0  0
   31.5611    9.2258   50.8861 C   0  0  2  0  0  0  0  0  0  0  0  0
   30.7335    7.9323   51.0170 C   0  0  2  0  0  0  0  0  0  0  0  0
   29.4658    8.3254   51.5771 O   0  0  0  0  0  0  0  0  0  0  0  0
   31.4456    6.9303   51.9608 C   0  0  1  0  0  0  0  0  0  0  0  0
   30.7266    5.7280   51.9835 O   0  0  0  0  0  0  0  0  0  0  0  0
   29.3357    9.0391   52.8039 C   0  0  1  0  0  0  0  0  0  0  0  0
   28.7235    8.0740   53.8809 C   0  0  2  0  0  0  0  0  0  0  0  0
   27.3064    8.0568   53.8989 O   0  0  0  0  0  0  0  0  0  0  0  0
   29.3691    8.6848   55.1168 C   0  0  2  0  0  0  0  0  0  0  0  0
   28.8220   10.0086   55.3963 O   0  0  0  0  0  0  0  0  0  0  0  0
   30.8165    8.8672   54.6821 C   0  0  2  0  0  0  0  0  0  0  0  0
   30.6391    9.3797   53.3503 O   0  0  0  0  0  0  0  0  0  0  0  0
   31.6837    7.5663   54.7178 C   0  0  0  0  0  0  0  0  0  0  0  0
   32.9438    7.7520   54.0608 O   0  0  0  0  0  0  0  0  0  0  0  0
   29.4355   10.6679   56.5012 C   0  0  2  0  0  0  0  0  0  0  0  0
   30.0730    9.7093   57.5637 C   0  0  2  0  0  0  0  0  0  0  0  0
   29.0879    8.7451   58.1410 N   0  3  0  0  0  0  0  0  0  0  0  0
   30.7094   10.6127   58.6722 C   0  0  1  0  0  0  0  0  0  0  0  0
   31.7832   11.4015   58.0302 O   0  0  0  0  0  0  0  0  0  0  0  0
   29.6660   11.6069   59.3158 C   0  0  2  0  0  0  0  0  0  0  0  0
   28.6554   10.8371   59.9871 O   0  0  0  0  0  0  0  0  0  0  0  0
   29.0532   12.4975   58.1567 C   0  0  1  0  0  0  0  0  0  0  0  0
   28.4629   11.5900   57.1662 O   0  0  0  0  0  0  0  0  0  0  0  0
   27.9926   13.5195   58.6253 C   0  0  0  0  0  0  0  0  0  0  0  0
   28.5301   14.5421   59.5635 N   0  3  0  0  0  0  0  0  0  0  0  0
  1  2  1  6  0  0  0
  1  3  1  0  0  0  0
  1 10  1  0  0  0  0
  3  4  1  6  0  0  0
  3  5  1  0  0  0  0
  5  6  1  6  0  0  0
  5  7  1  0  0  0  0
  7  8  1  6  0  0  0
  7  9  1  0  0  0  0
  9 10  1  0  0  0  0
  9 11  1  1  0  0  0
 11 12  1  0  0  0  0
 13 14  1  1  0  0  0
 13 15  1  0  0  0  0
 13 21  1  0  0  0  0
 15 16  1  0  0  0  0
 16 17  1  1  0  0  0
 16 18  1  0  0  0  0
 18  2  1  6  0  0  0
 18 19  1  0  0  0  0
 19 20  1  1  0  0  0
 19 21  1  0  0  0  0
 21 22  1  6  0  0  0
 23 20  1  6  0  0  0
 23 24  1  0  0  0  0
 23 29  1  0  0  0  0
 24 25  1  1  0  0  0
 24 26  1  0  0  0  0
 26 27  1  6  0  0  0
 26 28  1  0  0  0  0
 28 29  1  0  0  0  0
 28 30  1  6  0  0  0
 30 31  1  0  0  0  0
 32 27  1  6  0  0  0
 32 33  1  0  0  0  0
 32 40  1  0  0  0  0
 33 34  1  1  0  0  0
 33 35  1  0  0  0  0
 35 36  1  6  0  0  0
 35 37  1  0  0  0  0
 37 38  1  6  0  0  0
 37 39  1  0  0  0  0
 39 40  1  0  0  0  0
 39 41  1  1  0  0  0
 41 42  1  0  0  0  0
M  CHG  5   4   1  14   1  17   1  34   1  42   1
M  END
>  <CHROM.1>
-169.36851689,-100.58726670,-104.78812829,-59.39536496,-47.15929452,-113.31435828
-175.81040788,-178.71390256,-27.34577495,-55.79261059,-109.69143640,78.74063021
-178.17282821,-176.80832792,-25.74508029,168.82894562,56.28820039,171.75142002
172.01125846,-178.80350054,62.94324427,-167.30838830,30.80152220,10.09798733
53.00400121,0.63796117,1.19902801,-0.67790844

>  <Name>
1j7t

>  <RI>
0

>  <Rbt.Current_Directory>
/home/itssahil/PROJECTS/Mol_Feturizer/New_Systems/rnas/1j7t

>  <Rbt.Executable>
rbdock ($Id: //depot/dev/client3/rdock/2013.1/src/exe/rbdock.cxx#4 $)

>  <Rbt.Library>
libRbt.so (2013.1, Build901 2013/11/27)

>  <Rbt.Parameter_File>
/export/apps/rDock/src/rDock_2013.1_src/data/scripts/dock_solv.prm

>  <Rbt.Receptor>
prm/blind_docking_80.prm

>  <SCORE>
15.6037

>  <SCORE.INTER>
-18.8297

>  <SCORE.INTER.CONST>
1

>  <SCORE.INTER.POLAR>
-3.63809

>  <SCORE.INTER.ROT>
9

>  <SCORE.INTER.SOLV>
27.1116

>  <SCORE.INTER.VDW>
-19.0634

>  <SCORE.INTER.norm>
-0.448325

>  <SCORE.INTRA>
13.3873

>  <SCORE.INTRA.DIHEDRAL>
-14.442

>  <SCORE.INTRA.DIHEDRAL.0>
46.2143

>  <SCORE.INTRA.POLAR>
-0.436269

>  <SCORE.INTRA.POLAR.0>
-1.76436

>  <SCORE.INTRA.REPUL>
0

>  <SCORE.INTRA.REPUL.0>
0

>  <SCORE.INTRA.SOLV>
9.39082

>  <SCORE.INTRA.SOLV.lig_0>
-148.643

>  <SCORE.INTRA.VDW>
17.3962

>  <SCORE.INTRA.VDW.0>
-4.83512

>  <SCORE.INTRA.norm>
0.318745

>  <SCORE.RESTR>
21.0461

>  <SCORE.RESTR.CAVITY>
21.0461

>  <SCORE.RESTR.norm>
0.501097

>  <SCORE.SYSTEM>
0

>  <SCORE.SYSTEM.CONST>
0

>  <SCORE.SYSTEM.DIHEDRAL>
0

>  <SCORE.SYSTEM.SOLV>
0

>  <SCORE.SYSTEM.norm>
0

>  <SCORE.heavy>
42

>  <SCORE.norm>
0.371517

>  <RMSD>
5.234

$$$$
1j7t
 OpenBabel11021811393D
libRbt.so/2013.1/901 2013/11/27
 42 45  0  0  0  0  0  0  0  0999 V2000
   30.0973    6.8253   51.7955 C   0  0  2  0  0  0  0  0  0  0  0  0
   29.9888    5.4168   52.1225 O   0  0  0  0  0  0  0  0  0  0  0  0
   31.5070    7.2897   52.2612 C   0  0  2  0  0  0  0  0  0  0  0  0
   32.6342    6.4669   51.7359 N   0  3  0  0  0  0  0  0  0  0  0  0
   31.5478    7.2235   53.8036 C   0  0  1  0  0  0  0  0  0  0  0  0
   32.7928    7.6475   54.2828 O   0  0  0  0  0  0  0  0  0  0  0  0
   30.4109    8.0857   54.4018 C   0  0  2  0  0  0  0  0  0  0  0  0
   30.4435    8.0560   55.8150 O   0  0  0  0  0  0  0  0  0  0  0  0
   29.0697    7.5700   53.9252 C   0  0  2  0  0  0  0  0  0  0  0  0
   29.0489    7.5585   52.5034 O   0  0  0  0  0  0  0  0  0  0  0  0
   27.9104    8.4320   54.3724 C   0  0  0  0  0  0  0  0  0  0  0  0
   27.8287    8.4165   55.7846 O   0  0  0  0  0  0  0  0  0  0  0  0
   25.9411    4.8365   51.0607 C   0  0  2  0  0  0  0  0  0  0  0  0
   24.6833    4.1824   50.6981 N   0  3  0  0  0  0  0  0  0  0  0  0
   27.0263    4.5481   49.9710 C   0  0  0  0  0  0  0  0  0  0  0  0
   28.3658    5.1942   50.3733 C   0  0  2  0  0  0  0  0  0  0  0  0
   29.4093    4.8886   49.3890 N   0  3  0  0  0  0  0  0  0  0  0  0
   28.8079    4.6910   51.7615 C   0  0  2  0  0  0  0  0  0  0  0  0
   27.7454    4.9375   52.8504 C   0  0  2  0  0  0  0  0  0  0  0  0
   28.2314    4.2807   54.0370 O   0  0  0  0  0  0  0  0  0  0  0  0
   26.3854    4.3294   52.4235 C   0  0  1  0  0  0  0  0  0  0  0  0
   25.4150    4.6534   53.3808 O   0  0  0  0  0  0  0  0  0  0  0  0
   27.6174    4.4131   55.3163 C   0  0  1  0  0  0  0  0  0  0  0  0
   28.1225    3.2450   56.2363 C   0  0  2  0  0  0  0  0  0  0  0  0
   27.3493    2.0610   56.1396 O   0  0  0  0  0  0  0  0  0  0  0  0
   28.0255    3.9616   57.5758 C   0  0  2  0  0  0  0  0  0  0  0  0
   26.6341    4.2003   57.9454 O   0  0  0  0  0  0  0  0  0  0  0  0
   28.6611    5.3126   57.2788 C   0  0  2  0  0  0  0  0  0  0  0  0
   28.0821    5.6108   55.9968 O   0  0  0  0  0  0  0  0  0  0  0  0
   30.2248    5.3125   57.2495 C   0  0  0  0  0  0  0  0  0  0  0  0
   30.7772    4.8352   58.4828 O   0  0  0  0  0  0  0  0  0  0  0  0
   26.4719    4.8573   59.1998 C   0  0  2  0  0  0  0  0  0  0  0  0
   26.8567    3.9911   60.4471 C   0  0  2  0  0  0  0  0  0  0  0  0
   26.0776    2.7187   60.5329 N   0  3  0  0  0  0  0  0  0  0  0  0
   26.6357    4.8860   61.7121 C   0  0  1  0  0  0  0  0  0  0  0  0
   27.5728    6.0257   61.6104 O   0  0  0  0  0  0  0  0  0  0  0  0
   25.1636    5.4473   61.8069 C   0  0  2  0  0  0  0  0  0  0  0  0
   24.2614    4.3399   61.9629 O   0  0  0  0  0  0  0  0  0  0  0  0
   24.8626    6.2687   60.4853 C   0  0  1  0  0  0  0  0  0  0  0  0
   25.0732    5.3677   59.3464 O   0  0  0  0  0  0  0  0  0  0  0  0
   23.4423    6.8744   60.4156 C   0  0  0  0  0  0  0  0  0  0  0  0
   23.3348    8.0248   59.4777 N   0  3  0  0  0  0  0  0  0  0  0  0
  1  2  1  1  0  0  0
  1  3  1  0  0  0  0
  1 10  1  0  0  0  0
  3  4  1  6  0  0  0
  3  5  1  0  0  0  0
  5  6  1  1  0  0  0
  5  7  1  0  0  0  0
  7  8  1  1  0  0  0
  7  9  1  0  0  0  0
  9 10  1  0  0  0  0
  9 11  1  6  0  0  0
 11 12  1  0  0  0  0
 13 14  1  6  0  0  0
 13 15  1  0  0  0  0
 13 21  1  0  0  0  0
 15 16  1  0  0  0  0
 16 17  1  6  0  0  0
 16 18  1  0  0  0  0
 18  2  1  1  0  0  0
 18 19  1  0  0  0  0
 19 20  1  1  0  0  0
 19 21  1  0  0  0  0
 21 22  1  1  0  0  0
 23 20  1  6  0  0  0
 23 24  1  0  0  0  0
 23 29  1  0  0  0  0
 24 25  1  1  0  0  0
 24 26  1  0  0  0  0
 26 27  1  6  0  0  0
 26 28  1  0  0  0  0
 28 29  1  0  0  0  0
 28 30  1  6  0  0  0
 30 31  1  0  0  0  0
 32 27  1  6  0  0  0
 32 33  1  0  0  0  0
 32 40  1  0  0  0  0
 33 34  1  1  0  0  0
 33 35  1  0  0  0  0
 35 36  1  6  0  0  0
 35 37  1  0  0  0  0
 37 38  1  6  0  0  0
 37 39  1  0  0  0  0
 39 40  1  0  0  0  0
 39 41  1  1  0  0  0
 41 42  1  0  0  0  0
M  CHG  5   4   1  14   1  17   1  34   1  42   1
M  END
>  <CHROM.1>
-177.52539990,38.64740203,-173.70181817,-177.60429345,-172.34802312,-63.28802120
-176.16131730,-179.03314495,42.93694591,171.88713813,162.61683253,-35.05711049
60.94516032,179.37398833,-69.33471604,-57.08932183,-176.14145383,173.98686430
61.30277510,68.81162564,158.15846661,91.87537029,27.86438406,5.55608664,55.68880017
-1.13173332,0.42257709,1.46868326

>  <Name>
1j7t

>  <RI>
0

>  <Rbt.Current_Directory>
/home/itssahil/PROJECTS/Mol_Feturizer/New_Systems/rnas/1j7t

>  <Rbt.Executable>
rbdock ($Id: //depot/dev/client3/rdock/2013.1/src/exe/rbdock.cxx#4 $)

>  <Rbt.Library>
libRbt.so (2013.1, Build901 2013/11/27)

>  <Rbt.Parameter_File>
/export/apps/rDock/src/rDock_2013.1_src/data/scripts/dock_solv.prm

>  <Rbt.Receptor>
prm/pocket_docking_8.prm

>  <SCORE>
-41.9391

>  <SCORE.INTER>
-24.6585

>  <SCORE.INTER.CONST>
1

>  <SCORE.INTER.POLAR>
-5.12959

>  <SCORE.INTER.ROT>
9

>  <SCORE.INTER.SOLV>
19.6711

>  <SCORE.INTER.VDW>
-15.4974

>  <SCORE.INTER.norm>
-0.587107

>  <SCORE.INTRA>
-17.2806

>  <SCORE.INTRA.DIHEDRAL>
-33.3691

>  <SCORE.INTRA.DIHEDRAL.0>
46.2143

>  <SCORE.INTRA.POLAR>
0.563486

>  <SCORE.INTRA.POLAR.0>
-1.76436

>  <SCORE.INTRA.REPUL>
0

>  <SCORE.INTRA.REPUL.0>
0

>  <SCORE.INTRA.SOLV>
-4.30502

>  <SCORE.INTRA.SOLV.lig_0>
-148.643

>  <SCORE.INTRA.VDW>
-0.359373

>  <SCORE.INTRA.VDW.0>
-4.83512

>  <SCORE.INTRA.norm>
-0.411442

>  <SCORE.RESTR>
0

>  <SCORE.RESTR.CAVITY>
0

>  <SCORE.RESTR.norm>
0

>  <SCORE.SYSTEM>
0

>  <SCORE.SYSTEM.CONST>
0

>  <SCORE.SYSTEM.DIHEDRAL>
0

>  <SCORE.SYSTEM.SOLV>
0

>  <SCORE.SYSTEM.norm>
0

>  <SCORE.heavy>
42

>  <SCORE.norm>
-0.99855

>  <RMSD>
5.234

$$$$
1j7t
 OpenBabel11021811393D
libRbt.so/2013.1/901 2013/11/27
 42 45  0  0  0  0  0  0  0  0999 V2000
   29.7035    9.8763   51.9432 C   0  0  2  0  0  0  0  0  0  0  0  0
   30.6327    8.7749   51.7814 O   0  0  0  0  0  0  0  0  0  0  0  0
   28.7644    9.8607   50.7032 C   0  0  2  0  0  0  0  0  0  0  0  0
   28.0984    8.5512   50.4479 N   0  3  0  0  0  0  0  0  0  0  0  0
   29.6077   10.2163   49.4592 C   0  0  1  0  0  0  0  0  0  0  0  0
   28.8086   10.2336   48.3100 O   0  0  0  0  0  0  0  0  0  0  0  0
   30.3010   11.5844   49.6618 C   0  0  2  0  0  0  0  0  0  0  0  0
   31.0621   11.9394   48.5243 O   0  0  0  0  0  0  0  0  0  0  0  0
   31.2118   11.5252   50.8697 C   0  0  2  0  0  0  0  0  0  0  0  0
   30.4577   11.1273   52.0077 O   0  0  0  0  0  0  0  0  0  0  0  0
   31.8384   12.8600   51.2055 C   0  0  0  0  0  0  0  0  0  0  0  0
   32.7004   13.2536   50.1551 O   0  0  0  0  0  0  0  0  0  0  0  0
   33.4887    6.6912   54.0943 C   0  0  2  0  0  0  0  0  0  0  0  0
   34.5665    6.4124   55.0440 N   0  3  0  0  0  0  0  0  0  0  0  0
   34.0168    7.6082   52.9416 C   0  0  0  0  0  0  0  0  0  0  0  0
   32.8730    7.9442   51.9657 C   0  0  2  0  0  0  0  0  0  0  0  0
   33.3379    8.8473   50.9077 N   0  3  0  0  0  0  0  0  0  0  0  0
   31.7000    8.6002   52.7204 C   0  0  2  0  0  0  0  0  0  0  0  0
   31.1771    7.7301   53.8800 C   0  0  2  0  0  0  0  0  0  0  0  0
   30.2051    8.5350   54.5749 O   0  0  0  0  0  0  0  0  0  0  0  0
   32.3372    7.3519   54.8355 C   0  0  1  0  0  0  0  0  0  0  0  0
   31.8564    6.4806   55.8218 O   0  0  0  0  0  0  0  0  0  0  0  0
   30.5283    9.3850   55.6723 C   0  0  1  0  0  0  0  0  0  0  0  0
   29.1955    9.9756   56.2563 C   0  0  2  0  0  0  0  0  0  0  0  0
   28.7738   11.1745   55.6288 O   0  0  0  0  0  0  0  0  0  0  0  0
   29.6409   10.1362   57.7031 C   0  0  2  0  0  0  0  0  0  0  0  0
   30.6444   11.1881   57.8310 O   0  0  0  0  0  0  0  0  0  0  0  0
   30.3268    8.8081   57.9910 C   0  0  2  0  0  0  0  0  0  0  0  0
   31.0789    8.6211   56.7798 O   0  0  0  0  0  0  0  0  0  0  0  0
   29.3576    7.6176   58.2896 C   0  0  0  0  0  0  0  0  0  0  0  0
   28.4145    7.4239   57.2281 O   0  0  0  0  0  0  0  0  0  0  0  0
   30.1856   12.3458   58.5243 C   0  0  2  0  0  0  0  0  0  0  0  0
   31.2900   13.4206   58.8063 C   0  0  2  0  0  0  0  0  0  0  0  0
   32.4368   12.8807   59.5981 N   0  3  0  0  0  0  0  0  0  0  0  0
   30.5924   14.6113   59.5447 C   0  0  1  0  0  0  0  0  0  0  0  0
   29.5948   15.1798   58.6124 O   0  0  0  0  0  0  0  0  0  0  0  0
   29.8527   14.1564   60.8627 C   0  0  2  0  0  0  0  0  0  0  0  0
   30.8325   13.6575   61.7877 O   0  0  0  0  0  0  0  0  0  0  0  0
   28.7917   13.0448   60.4744 C   0  0  1  0  0  0  0  0  0  0  0  0
   29.5144   11.9579   59.8039 O   0  0  0  0  0  0  0  0  0  0  0  0
   27.9889   12.4791   61.6680 C   0  0  0  0  0  0  0  0  0  0  0  0
   28.8141   12.2647   62.8877 N   0  3  0  0  0  0  0  0  0  0  0  0
  1  2  1  6  0  0  0
  1  3  1  0  0  0  0
  1 10  1  0  0  0  0
  3  4  1  6  0  0  0
  3  5  1  0  0  0  0
  5  6  1  6  0  0  0
  5  7  1  0  0  0  0
  7  8  1  6  0  0  0
  7  9  1  0  0  0  0
  9 10  1  0  0  0  0
  9 11  1  1  0  0  0
 11 12  1  0  0  0  0
 13 14  1  1  0  0  0
 13 15  1  0  0  0  0
 13 21  1  0  0  0  0
 15 16  1  0  0  0  0
 16 17  1  6  0  0  0
 16 18  1  0  0  0  0
 18  2  1  6  0  0  0
 18 19  1  0  0  0  0
 19 20  1  1  0  0  0
 19 21  1  0  0  0  0
 21 22  1  1  0  0  0
 23 20  1  6  0  0  0
 23 24  1  0  0  0  0
 23 29  1  0  0  0  0
 24 25  1  6  0  0  0
 24 26  1  0  0  0  0
 26 27  1  6  0  0  0
 26 28  1  0  0  0  0
 28 29  1  0  0  0  0
 28 30  1  6  0  0  0
 30 31  1  0  0  0  0
 32 27  1  1  0  0  0
 32 33  1  0  0  0  0
 32 40  1  0  0  0  0
 33 34  1  1  0  0  0
 33 35  1  0  0  0  0
 35 36  1  6  0  0  0
 35 37  1  0  0  0  0
 37 38  1  1  0  0  0
 37 39  1  0  0  0  0
 39 40  1  0  0  0  0
 39 41  1  1  0  0  0
 41 42  1  0  0  0  0
M  CHG  5   4   1  14   1  17   1  34   1  42   1
M  END
>  <CHROM.1>
174.81715722,-150.01131798,-166.25682384,178.14836945,-171.49941529,-64.94828930
175.96676615,176.21295882,-152.14865263,-90.94244226,-174.10544316,166.61754432
163.73440314,111.13439083,173.74614304,55.76640567,68.83552490,93.37636744
87.73057706,55.59482176,-40.36073525,-141.55605540,30.63891662,10.40040998
55.18525386,1.12190491,1.28941289,-1.41793762

>  <Name>
1j7t

>  <RI>
0

>  <Rbt.Current_Directory>
/home/itssahil/PROJECTS/Mol_Feturizer/New_Systems/rnas/1j7t

>  <Rbt.Executable>
rbdock ($Id: //depot/dev/client3/rdock/2013.1/src/exe/rbdock.cxx#4 $)

>  <Rbt.Library>
libRbt.so (2013.1, Build901 2013/11/27)

>  <Rbt.Parameter_File>
/export/apps/rDock/src/rDock_2013.1_src/data/scripts/dock_solv.prm

>  <Rbt.Receptor>
prm/blind_docking_80.prm

>  <SCORE>
-9.10247

>  <SCORE.INTER>
-28.1008

>  <SCORE.INTER.CONST>
1

>  <SCORE.INTER.POLAR>
-6.5871

>  <SCORE.INTER.ROT>
9

>  <SCORE.INTER.SOLV>
43.6573

>  <SCORE.INTER.VDW>
-20.9293

>  <SCORE.INTER.norm>
-0.669067

>  <SCORE.INTRA>
-6.35369

>  <SCORE.INTRA.DIHEDRAL>
-16.9052

>  <SCORE.INTRA.DIHEDRAL.0>
46.2143

>  <SCORE.INTRA.POLAR>
-0.208915

>  <SCORE.INTRA.POLAR.0>
-1.76436

>  <SCORE.INTRA.REPUL>
0.135096

>  <SCORE.INTRA.REPUL.0>
0

>  <SCORE.INTRA.SOLV>
-0.270928

>  <SCORE.INTRA.SOLV.lig_0>
-148.643

>  <SCORE.INTRA.VDW>
2.26921

>  <SCORE.INTRA.VDW.0>
-4.83512

>  <SCORE.INTRA.norm>
-0.151278

>  <SCORE.RESTR>
25.352

>  <SCORE.RESTR.CAVITY>
25.352

>  <SCORE.RESTR.norm>
0.60362

>  <SCORE.SYSTEM>
0

>  <SCORE.SYSTEM.CONST>
0

>  <SCORE.SYSTEM.DIHEDRAL>
0

>  <SCORE.SYSTEM.SOLV>
0

>  <SCORE.SYSTEM.norm>
0

>  <SCORE.heavy>
42

>  <SCORE.norm>
-0.216726

>  <RMSD>
5.244

$$$$
1j7t
 OpenBabel11021811393D
libRbt.so/2013.1/901 2013/11/27
 42 45  0  0  0  0  0  0  0  0999 V2000
   29.9045   10.1262   51.0031 C   0  0  2  0  0  0  0  0  0  0  0  0
   30.8287    9.0789   50.6139 O   0  0  0  0  0  0  0  0  0  0  0  0
   28.9826   10.3927   49.7788 C   0  0  2  0  0  0  0  0  0  0  0  0
   28.3119    9.1777   49.2333 N   0  3  0  0  0  0  0  0  0  0  0  0
   29.8453   11.0055   48.6540 C   0  0  1  0  0  0  0  0  0  0  0  0
   29.0624   11.2828   47.5272 O   0  0  0  0  0  0  0  0  0  0  0  0
   30.5445   12.2890   49.1613 C   0  0  2  0  0  0  0  0  0  0  0  0
   31.3236   12.8785   48.1392 O   0  0  0  0  0  0  0  0  0  0  0  0
   31.4381   11.9569   50.3374 C   0  0  2  0  0  0  0  0  0  0  0  0
   30.6657   11.3253   51.3506 O   0  0  0  0  0  0  0  0  0  0  0  0
   32.0685   13.1791   50.9665 C   0  0  0  0  0  0  0  0  0  0  0  0
   33.1842   13.5832   50.1964 O   0  0  0  0  0  0  0  0  0  0  0  0
   33.4768    6.3206   52.4105 C   0  0  2  0  0  0  0  0  0  0  0  0
   34.4514    5.7320   53.3298 N   0  3  0  0  0  0  0  0  0  0  0  0
   34.0995    7.5671   51.6985 C   0  0  0  0  0  0  0  0  0  0  0  0
   33.0603    8.2187   50.7663 C   0  0  2  0  0  0  0  0  0  0  0  0
   33.6102    9.4208   50.1310 N   0  3  0  0  0  0  0  0  0  0  0  0
   31.7909    8.5920   51.5567 C   0  0  2  0  0  0  0  0  0  0  0  0
   31.1711    7.3874   52.2914 C   0  0  2  0  0  0  0  0  0  0  0  0
   30.1032    7.9197   53.0987 O   0  0  0  0  0  0  0  0  0  0  0  0
   32.2300    6.7027   53.1923 C   0  0  1  0  0  0  0  0  0  0  0  0
   31.6713    5.5547   53.7693 O   0  0  0  0  0  0  0  0  0  0  0  0
   30.3149    8.7838   54.2121 C   0  0  1  0  0  0  0  0  0  0  0  0
   29.0035    8.8169   55.0754 C   0  0  2  0  0  0  0  0  0  0  0  0
   28.0689    9.8000   54.6646 O   0  0  0  0  0  0  0  0  0  0  0  0
   29.6405    9.0718   56.4343 C   0  0  2  0  0  0  0  0  0  0  0  0
   30.2102   10.4135   56.5051 O   0  0  0  0  0  0  0  0  0  0  0  0
   30.7950    8.0798   56.4535 C   0  0  2  0  0  0  0  0  0  0  0  0
   31.3084    8.2326   55.1190 O   0  0  0  0  0  0  0  0  0  0  0  0
   30.3904    6.6047   56.7794 C   0  0  0  0  0  0  0  0  0  0  0  0
   29.3302    6.1469   55.9306 O   0  0  0  0  0  0  0  0  0  0  0  0
   29.9836   11.0747   57.7472 C   0  0  2  0  0  0  0  0  0  0  0  0
   28.4776   11.3570   58.0734 C   0  0  2  0  0  0  0  0  0  0  0  0
   27.8014   12.1816   57.0264 N   0  3  0  0  0  0  0  0  0  0  0  0
   28.4354   12.0580   59.4722 C   0  0  1  0  0  0  0  0  0  0  0  0
   28.9693   11.0953   60.4600 O   0  0  0  0  0  0  0  0  0  0  0  0
   29.3118   13.3700   59.5185 C   0  0  2  0  0  0  0  0  0  0  0  0
   28.7557   14.3237   58.5988 O   0  0  0  0  0  0  0  0  0  0  0  0
   30.8002   12.9830   59.1352 C   0  0  1  0  0  0  0  0  0  0  0  0
   30.7659   12.3483   57.8125 O   0  0  0  0  0  0  0  0  0  0  0  0
   31.7882   14.1715   59.1181 C   0  0  0  0  0  0  0  0  0  0  0  0
   31.1183   15.4988   59.1810 N   0  3  0  0  0  0  0  0  0  0  0  0
  1  2  1  6  0  0  0
  1  3  1  0  0  0  0
  1 10  1  0  0  0  0
  3  4  1  6  0  0  0
  3  5  1  0  0  0  0
  5  6  1  6  0  0  0
  5  7  1  0  0  0  0
  7  8  1  6  0  0  0
  7  9  1  0  0  0  0
  9 10  1  0  0  0  0
  9 11  1  1  0  0  0
 11 12  1  0  0  0  0
 13 14  1  1  0  0  0
 13 15  1  0  0  0  0
 13 21  1  0  0  0  0
 15 16  1  0  0  0  0
 16 17  1  1  0  0  0
 16 18  1  0  0  0  0
 18  2  1  6  0  0  0
 18 19  1  0  0  0  0
 19 20  1  1  0  0  0
 19 21  1  0  0  0  0
 21 22  1  6  0  0  0
 23 20  1  6  0  0  0
 23 24  1  0  0  0  0
 23 29  1  0  0  0  0
 24 25  1  6  0  0  0
 24 26  1  0  0  0  0
 26 27  1  6  0  0  0
 26 28  1  0  0  0  0
 28 29  1  0  0  0  0
 28 30  1  6  0  0  0
 30 31  1  0  0  0  0
 32 27  1  6  0  0  0
 32 33  1  0  0  0  0
 32 40  1  0  0  0  0
 33 34  1  6  0  0  0
 33 35  1  0  0  0  0
 35 36  1  1  0  0  0
 35 37  1  0  0  0  0
 37 38  1  6  0  0  0
 37 39  1  0  0  0  0
 39 40  1  0  0  0  0
 39 41  1  6  0  0  0
 41 42  1  0  0  0  0
M  CHG  5   4   1  14   1  17   1  34   1  42   1
M  END
>  <CHROM.1>
-178.50442463,-146.33785811,-46.02284878,-72.29237357,64.90754821,-79.99337811
56.01731652,-173.81553153,-172.21948639,-66.95815194,-163.80019306,-62.01250184
179.23586640,138.93922851,-63.56667189,52.26694478,-175.53817978,171.86710070
-52.70463583,62.07716941,-12.20766420,-24.09178583,30.62998643,10.16756570
53.94668109,0.67593265,1.32642171,-0.96936871

>  <Name>
1j7t

>  <RI>
0

>  <Rbt.Current_Directory>
/home/itssahil/PROJECTS/Mol_Feturizer/New_Systems/rnas/1j7t

>  <Rbt.Executable>
rbdock ($Id: //depot/dev/client3/rdock/2013.1/src/exe/rbdock.cxx#4 $)

>  <Rbt.Library>
libRbt.so (2013.1, Build901 2013/11/27)

>  <Rbt.Parameter_File>
/export/apps/rDock/src/rDock_2013.1_src/data/scripts/dock_solv.prm

>  <Rbt.Receptor>
prm/blind_docking_100.prm

>  <SCORE>
-26.0125

>  <SCORE.INTER>
-27.508

>  <SCORE.INTER.CONST>
1

>  <SCORE.INTER.POLAR>
-4.49423

>  <SCORE.INTER.ROT>
9

>  <SCORE.INTER.SOLV>
42.1437

>  <SCORE.INTER.VDW>
-27.0058

>  <SCORE.INTER.norm>
-0.654951

>  <SCORE.INTRA>
-11.4218

>  <SCORE.INTRA.DIHEDRAL>
-23.6354

>  <SCORE.INTRA.DIHEDRAL.0>
46.2143

>  <SCORE.INTRA.POLAR>
-0.340212

>  <SCORE.INTRA.POLAR.0>
-1.76436

>  <SCORE.INTRA.REPUL>
0

>  <SCORE.INTRA.REPUL.0>
0

>  <SCORE.INTRA.SOLV>
2.84241

>  <SCORE.INTRA.SOLV.lig_0>
-148.643

>  <SCORE.INTRA.VDW>
0.131359

>  <SCORE.INTRA.VDW.0>
-4.83512

>  <SCORE.INTRA.norm>
-0.271948

>  <SCORE.RESTR>
12.9173

>  <SCORE.RESTR.CAVITY>
12.9173

>  <SCORE.RESTR.norm>
0.307554

>  <SCORE.SYSTEM>
0

>  <SCORE.SYSTEM.CONST>
0

>  <SCORE.SYSTEM.DIHEDRAL>
0

>  <SCORE.SYSTEM.SOLV>
0

>  <SCORE.SYSTEM.norm>
0

>  <SCORE.heavy>
42

>  <SCORE.norm>
-0.619346

>  <RMSD>
5.253

$$$$
1j7t
 OpenBabel11021811393D
libRbt.so/2013.1/901 2013/11/27
 42 45  0  0  0  0  0  0  0  0999 V2000
   32.7059    9.4809   50.6100 C   0  0  2  0  0  0  0  0  0  0  0  0
   32.6485    9.5683   52.0562 O   0  0  0  0  0  0  0  0  0  0  0  0
   32.6399   10.9371   50.0666 C   0  0  2  0  0  0  0  0  0  0  0  0
   33.6549   11.8612   50.6491 N   0  3  0  0  0  0  0  0  0  0  0  0
   31.2399   11.5048   50.3869 C   0  0  1  0  0  0  0  0  0  0  0  0
   31.1161   12.8132   49.9050 O   0  0  0  0  0  0  0  0  0  0  0  0
   30.1465   10.5943   49.7795 C   0  0  2  0  0  0  0  0  0  0  0  0
   28.8560   11.1083   50.0431 O   0  0  0  0  0  0  0  0  0  0  0  0
   30.2549    9.2015   50.3630 C   0  0  2  0  0  0  0  0  0  0  0  0
   31.5653    8.6979   50.1366 O   0  0  0  0  0  0  0  0  0  0  0  0
   29.2940    8.2185   49.7327 C   0  0  0  0  0  0  0  0  0  0  0  0
   27.9647    8.6124   50.0140 O   0  0  0  0  0  0  0  0  0  0  0  0
   31.2022    5.6993   52.9437 C   0  0  2  0  0  0  0  0  0  0  0  0
   30.9177    4.4572   53.6630 N   0  3  0  0  0  0  0  0  0  0  0  0
   32.7476    5.8757   52.7734 C   0  0  0  0  0  0  0  0  0  0  0  0
   33.0536    7.2063   52.0597 C   0  0  2  0  0  0  0  0  0  0  0  0
   34.5005    7.4135   51.9395 N   0  3  0  0  0  0  0  0  0  0  0  0
   32.4298    8.3848   52.8327 C   0  0  2  0  0  0  0  0  0  0  0  0
   30.9110    8.2242   53.0394 C   0  0  2  0  0  0  0  0  0  0  0  0
   30.5094    9.3073   53.9002 O   0  0  0  0  0  0  0  0  0  0  0  0
   30.5999    6.8638   53.7136 C   0  0  1  0  0  0  0  0  0  0  0  0
   29.2112    6.6985   53.7983 O   0  0  0  0  0  0  0  0  0  0  0  0
   30.6979    9.3002   55.3129 C   0  0  1  0  0  0  0  0  0  0  0  0
   29.5351   10.1210   55.9763 C   0  0  2  0  0  0  0  0  0  0  0  0
   29.8001   11.5091   56.0854 O   0  0  0  0  0  0  0  0  0  0  0  0
   29.4705    9.3785   57.3036 C   0  0  2  0  0  0  0  0  0  0  0  0
   30.6612    9.6337   58.1079 O   0  0  0  0  0  0  0  0  0  0  0  0
   29.5103    7.9191   56.8724 C   0  0  2  0  0  0  0  0  0  0  0  0
   30.5262    7.9626   55.8556 O   0  0  0  0  0  0  0  0  0  0  0  0
   28.1522    7.3511   56.3447 C   0  0  0  0  0  0  0  0  0  0  0  0
   28.1742    5.9206   56.2592 O   0  0  0  0  0  0  0  0  0  0  0  0
   30.7225   10.9499   58.6513 C   0  0  2  0  0  0  0  0  0  0  0  0
   31.2956   11.0311   60.1071 C   0  0  2  0  0  0  0  0  0  0  0  0
   30.5201   10.2068   61.0831 N   0  3  0  0  0  0  0  0  0  0  0  0
   31.3048   12.5429   60.5121 C   0  0  1  0  0  0  0  0  0  0  0  0
   32.2311   13.2367   59.5911 O   0  0  0  0  0  0  0  0  0  0  0  0
   29.8792   13.2100   60.3943 C   0  0  2  0  0  0  0  0  0  0  0  0
   28.9969   12.5711   61.3314 O   0  0  0  0  0  0  0  0  0  0  0  0
   29.3754   13.0374   58.9015 C   0  0  1  0  0  0  0  0  0  0  0  0
   29.3770   11.6019   58.5969 O   0  0  0  0  0  0  0  0  0  0  0  0
   27.9741   13.6279   58.6247 C   0  0  0  0  0  0  0  0  0  0  0  0
   27.9096   15.1046   58.7971 N   0  3  0  0  0  0  0  0  0  0  0  0
  1  2  1  1  0  0  0
  1  3  1  0  0  0  0
  1 10  1  0  0  0  0
  3  4  1  1  0  0  0
  3  5  1  0  0  0  0
  5  6  1  6  0  0  0
  5  7  1  0  0  0  0
  7  8  1  1  0  0  0
  7  9  1  0  0  0  0
  9 10  1  0  0  0  0
  9 11  1  6  0  0  0
 11 12  1  0  0  0  0
 13 14  1  1  0  0  0
 13 15  1  0  0  0  0
 13 21  1  0  0  0  0
 15 16  1  0  0  0  0
 16 17  1  1  0  0  0
 16 18  1  0  0  0  0
 18  2  1  6  0  0  0
 18 19  1  0  0  0  0
 19 20  1  1  0  0  0
 19 21  1  0  0  0  0
 21 22  1  6  0  0  0
 23 20  1  6  0  0  0
 23 24  1  0  0  0  0
 23 29  1  0  0  0  0
 24 25  1  1  0  0  0
 24 26  1  0  0  0  0
 26 27  1  1  0  0  0
 26 28  1  0  0  0  0
 28 29  1  0  0  0  0
 28 30  1  6  0  0  0
 30 31  1  0  0  0  0
 32 27  1  1  0  0  0
 32 33  1  0  0  0  0
 32 40  1  0  0  0  0
 33 34  1  1  0  0  0
 33 35  1  0  0  0  0
 35 36  1  6  0  0  0
 35 37  1  0  0  0  0
 37 38  1  1  0  0  0
 37 39  1  0  0  0  0
 39 40  1  0  0  0  0
 39 41  1  1  0  0  0
 41 42  1  0  0  0  0
M  CHG  5   4   1  14   1  17   1  34   1  42   1
M  END
>  <CHROM.1>
167.94308313,30.93299599,-166.57468079,-78.86510011,-163.52483780,-64.21028968
-171.58419935,178.95116521,85.18590568,-79.25399824,-148.79115693,-46.55982596
-168.85278231,71.77633828,141.51262075,-166.22514703,69.13262090,90.11064363
-60.73421157,-77.32715098,63.80217245,59.58882838,30.55624170,9.75107783
54.75281573,-0.33182651,1.39964388,-0.02745399

>  <Name>
1j7t

>  <RI>
0

>  <Rbt.Current_Directory>
/home/itssahil/PROJECTS/Mol_Feturizer/New_Systems/rnas/1j7t

>  <Rbt.Executable>
rbdock ($Id: //depot/dev/client3/rdock/2013.1/src/exe/rbdock.cxx#4 $)

>  <Rbt.Library>
libRbt.so (2013.1, Build901 2013/11/27)

>  <Rbt.Parameter_File>
/export/apps/rDock/src/rDock_2013.1_src/data/scripts/dock_solv.prm

>  <Rbt.Receptor>
prm/blind_docking_80.prm

>  <SCORE>
9.39273

>  <SCORE.INTER>
-24.3331

>  <SCORE.INTER.CONST>
1

>  <SCORE.INTER.POLAR>
-5.85943

>  <SCORE.INTER.ROT>
9

>  <SCORE.INTER.SOLV>
34.7737

>  <SCORE.INTER.VDW>
-17.8819

>  <SCORE.INTER.norm>
-0.579359

>  <SCORE.INTRA>
1.74844

>  <SCORE.INTRA.DIHEDRAL>
-19.5691

>  <SCORE.INTRA.DIHEDRAL.0>
46.2143

>  <SCORE.INTRA.POLAR>
0.77273

>  <SCORE.INTRA.POLAR.0>
-1.76436

>  <SCORE.INTRA.REPUL>
0

>  <SCORE.INTRA.REPUL.0>
0

>  <SCORE.INTRA.SOLV>
-1.89013

>  <SCORE.INTRA.SOLV.lig_0>
-148.643

>  <SCORE.INTRA.VDW>
9.85078

>  <SCORE.INTRA.VDW.0>
-4.83512

>  <SCORE.INTRA.norm>
0.0416295

>  <SCORE.RESTR>
31.9774

>  <SCORE.RESTR.CAVITY>
31.9774

>  <SCORE.RESTR.norm>
0.761366

>  <SCORE.SYSTEM>
0

>  <SCORE.SYSTEM.CONST>
0

>  <SCORE.SYSTEM.DIHEDRAL>
0

>  <SCORE.SYSTEM.SOLV>
0

>  <SCORE.SYSTEM.norm>
0

>  <SCORE.heavy>
42

>  <SCORE.norm>
0.223636

>  <RMSD>
5.267

$$$$
1j7t
 OpenBabel11021811393D
libRbt.so/2013.1/901 2013/11/27
 42 45  0  0  0  0  0  0  0  0999 V2000
   32.7547    6.0339   53.7163 C   0  0  2  0  0  0  0  0  0  0  0  0
   32.3699    7.3531   53.2533 O   0  0  0  0  0  0  0  0  0  0  0  0
   34.2969    5.9266   53.5428 C   0  0  2  0  0  0  0  0  0  0  0  0
   35.0695    7.0313   54.1803 N   0  3  0  0  0  0  0  0  0  0  0  0
   34.6107    5.9372   52.0308 C   0  0  1  0  0  0  0  0  0  0  0  0
   35.9889    5.8262   51.8121 O   0  0  0  0  0  0  0  0  0  0  0  0
   33.8523    4.7890   51.3235 C   0  0  2  0  0  0  0  0  0  0  0  0
   34.1429    4.7675   49.9400 O   0  0  0  0  0  0  0  0  0  0  0  0
   32.3607    4.9638   51.5149 C   0  0  2  0  0  0  0  0  0  0  0  0
   32.0698    5.0283   52.9053 O   0  0  0  0  0  0  0  0  0  0  0  0
   31.5525    3.8163   50.9520 C   0  0  0  0  0  0  0  0  0  0  0  0
   31.7701    3.7260   49.5571 O   0  0  0  0  0  0  0  0  0  0  0  0
   29.1704    9.1163   51.1315 C   0  0  2  0  0  0  0  0  0  0  0  0
   28.1207    9.3340   50.1354 N   0  3  0  0  0  0  0  0  0  0  0  0
   30.5694    9.0732   50.4321 C   0  0  0  0  0  0  0  0  0  0  0  0
   31.6727    8.7954   51.4710 C   0  0  2  0  0  0  0  0  0  0  0  0
   32.9857    8.6983   50.8247 N   0  3  0  0  0  0  0  0  0  0  0  0
   31.3771    7.4867   52.2297 C   0  0  2  0  0  0  0  0  0  0  0  0
   29.9923    7.4904   52.9062 C   0  0  2  0  0  0  0  0  0  0  0  0
   29.8019    6.1623   53.4310 O   0  0  0  0  0  0  0  0  0  0  0  0
   28.8873    7.8178   51.8701 C   0  0  1  0  0  0  0  0  0  0  0  0
   27.6536    7.9143   52.5272 O   0  0  0  0  0  0  0  0  0  0  0  0
   29.1732    5.8937   54.6815 C   0  0  1  0  0  0  0  0  0  0  0  0
   27.7870    5.2087   54.4070 C   0  0  2  0  0  0  0  0  0  0  0  0
   26.7199    6.1231   54.2222 O   0  0  0  0  0  0  0  0  0  0  0  0
   27.6981    4.3741   55.6769 C   0  0  2  0  0  0  0  0  0  0  0  0
   27.5102    5.2204   56.8508 O   0  0  0  0  0  0  0  0  0  0  0  0
   29.0875    3.7590   55.7704 C   0  0  2  0  0  0  0  0  0  0  0  0
   29.9096    4.8889   55.4307 O   0  0  0  0  0  0  0  0  0  0  0  0
   29.3293    2.5324   54.8308 C   0  0  0  0  0  0  0  0  0  0  0  0
   30.6395    1.9796   55.0087 O   0  0  0  0  0  0  0  0  0  0  0  0
   26.4738    4.7790   57.7239 C   0  0  2  0  0  0  0  0  0  0  0  0
   25.0360    5.2598   57.3289 C   0  0  2  0  0  0  0  0  0  0  0  0
   24.9213    6.7480   57.2556 N   0  3  0  0  0  0  0  0  0  0  0  0
   24.0466    4.6589   58.3823 C   0  0  1  0  0  0  0  0  0  0  0  0
   24.1134    3.1868   58.2550 O   0  0  0  0  0  0  0  0  0  0  0  0
   24.4229    5.0570   59.8625 C   0  0  2  0  0  0  0  0  0  0  0  0
   24.3014    6.4824   59.9973 O   0  0  0  0  0  0  0  0  0  0  0  0
   25.9025    4.5641   60.1451 C   0  0  1  0  0  0  0  0  0  0  0  0
   26.7735    5.1759   59.1349 O   0  0  0  0  0  0  0  0  0  0  0  0
   26.4305    4.8961   61.5593 C   0  0  0  0  0  0  0  0  0  0  0  0
   27.6798    4.1678   61.9106 N   0  3  0  0  0  0  0  0  0  0  0  0
  1  2  1  6  0  0  0
  1  3  1  0  0  0  0
  1 10  1  0  0  0  0
  3  4  1  1  0  0  0
  3  5  1  0  0  0  0
  5  6  1  1  0  0  0
  5  7  1  0  0  0  0
  7  8  1  6  0  0  0
  7  9  1  0  0  0  0
  9 10  1  0  0  0  0
  9 11  1  1  0  0  0
 11 12  1  0  0  0  0
 13 14  1  6  0  0  0
 13 15  1  0  0  0  0
 13 21  1  0  0  0  0
 15 16  1  0  0  0  0
 16 17  1  6  0  0  0
 16 18  1  0  0  0  0
 18  2  1  1  0  0  0
 18 19  1  0  0  0  0
 19 20  1  6  0  0  0
 19 21  1  0  0  0  0
 21 22  1  1  0  0  0
 23 20  1  6  0  0  0
 23 24  1  0  0  0  0
 23 29  1  0  0  0  0
 24 25  1  1  0  0  0
 24 26  1  0  0  0  0
 26 27  1  1  0  0  0
 26 28  1  0  0  0  0
 28 29  1  0  0  0  0
 28 30  1  6  0  0  0
 30 31  1  0  0  0  0
 32 27  1  6  0  0  0
 32 33  1  0  0  0  0
 32 40  1  0  0  0  0
 33 34  1  1  0  0  0
 33 35  1  0  0  0  0
 35 36  1  1  0  0  0
 35 37  1  0  0  0  0
 37 38  1  6  0  0  0
 37 39  1  0  0  0  0
 39 40  1  0  0  0  0
 39 41  1  1  0  0  0
 41 42  1  0  0  0  0
M  CHG  5   4   1  14   1  17   1  34   1  42   1
M  END
>  <CHROM.1>
124.44661463,-151.88364161,-20.90664084,-169.43678822,42.77129938,-61.47970869
-54.22185794,-75.47525578,157.98572554,141.64449374,110.70633920,-40.65243610
59.79479135,132.59191344,-84.70581120,-177.94055552,60.90860374,176.96865947
-175.69243803,172.62971668,166.86595455,36.56383860,29.51471053,5.76800055
54.52417000,-0.73440457,-0.40807135,2.18505451

>  <Name>
1j7t

>  <RI>
0

>  <Rbt.Current_Directory>
/home/itssahil/PROJECTS/Mol_Feturizer/New_Systems/rnas/1j7t

>  <Rbt.Executable>
rbdock ($Id: //depot/dev/client3/rdock/2013.1/src/exe/rbdock.cxx#4 $)

>  <Rbt.Library>
libRbt.so (2013.1, Build901 2013/11/27)

>  <Rbt.Parameter_File>
/export/apps/rDock/src/rDock_2013.1_src/data/scripts/dock_solv.prm

>  <Rbt.Receptor>
prm/pocket_docking_6.prm

>  <SCORE>
-43.1838

>  <SCORE.INTER>
-40.0783

>  <SCORE.INTER.CONST>
1

>  <SCORE.INTER.POLAR>
-7.2937

>  <SCORE.INTER.ROT>
9

>  <SCORE.INTER.SOLV>
33.4755

>  <SCORE.INTER.VDW>
-23.165

>  <SCORE.INTER.norm>
-0.954244

>  <SCORE.INTRA>
-3.10558

>  <SCORE.INTRA.DIHEDRAL>
-4.65669

>  <SCORE.INTRA.DIHEDRAL.0>
46.2143

>  <SCORE.INTRA.POLAR>
0.0265855

>  <SCORE.INTRA.POLAR.0>
-1.76436

>  <SCORE.INTRA.REPUL>
0

>  <SCORE.INTRA.REPUL.0>
0

>  <SCORE.INTRA.SOLV>
-2.10239

>  <SCORE.INTRA.SOLV.lig_0>
-148.643

>  <SCORE.INTRA.VDW>
0.183567

>  <SCORE.INTRA.VDW.0>
-4.83512

>  <SCORE.INTRA.norm>
-0.0739425

>  <SCORE.RESTR>
0

>  <SCORE.RESTR.CAVITY>
0

>  <SCORE.RESTR.norm>
0

>  <SCORE.SYSTEM>
0

>  <SCORE.SYSTEM.CONST>
0

>  <SCORE.SYSTEM.DIHEDRAL>
0

>  <SCORE.SYSTEM.SOLV>
0

>  <SCORE.SYSTEM.norm>
0

>  <SCORE.heavy>
42

>  <SCORE.norm>
-1.02819

>  <RMSD>
5.269

$$$$
1j7t
 OpenBabel11021811393D
libRbt.so/2013.1/901 2013/11/27
 42 45  0  0  0  0  0  0  0  0999 V2000
   29.5544    4.9726   51.3415 C   0  0  2  0  0  0  0  0  0  0  0  0
   28.9729    6.2921   51.4949 O   0  0  0  0  0  0  0  0  0  0  0  0
   29.0569    4.4158   49.9768 C   0  0  2  0  0  0  0  0  0  0  0  0
   29.3051    5.3158   48.8141 N   0  3  0  0  0  0  0  0  0  0  0  0
   27.5340    4.1821   50.0813 C   0  0  1  0  0  0  0  0  0  0  0  0
   27.0309    3.6638   48.8823 O   0  0  0  0  0  0  0  0  0  0  0  0
   27.2231    3.2295   51.2601 C   0  0  2  0  0  0  0  0  0  0  0  0
   25.8341    2.9850   51.3603 O   0  0  0  0  0  0  0  0  0  0  0  0
   27.7148    3.8382   52.5562 C   0  0  2  0  0  0  0  0  0  0  0  0
   29.1031    4.1245   52.4439 O   0  0  0  0  0  0  0  0  0  0  0  0
   27.5535    2.9150   53.7431 C   0  0  0  0  0  0  0  0  0  0  0  0
   28.5147    1.8797   53.6690 O   0  0  0  0  0  0  0  0  0  0  0  0
   31.8899    9.3239   51.1118 C   0  0  2  0  0  0  0  0  0  0  0  0
   32.7800   10.4398   51.4344 N   0  3  0  0  0  0  0  0  0  0  0  0
   30.3980    9.7676   51.2719 C   0  0  0  0  0  0  0  0  0  0  0  0
   29.4585    8.5818   50.9806 C   0  0  2  0  0  0  0  0  0  0  0  0
   28.0569    8.9655   51.1783 N   0  3  0  0  0  0  0  0  0  0  0  0
   29.7981    7.3911   51.8985 C   0  0  2  0  0  0  0  0  0  0  0  0
   31.2701    6.9500   51.7817 C   0  0  2  0  0  0  0  0  0  0  0  0
   31.4681    5.9495   52.7992 O   0  0  0  0  0  0  0  0  0  0  0  0
   32.2145    8.1540   52.0271 C   0  0  1  0  0  0  0  0  0  0  0  0
   33.5396    7.7507   51.8165 O   0  0  0  0  0  0  0  0  0  0  0  0
   30.9668    6.0696   54.1280 C   0  0  1  0  0  0  0  0  0  0  0  0
   31.3550    4.7748   54.9274 C   0  0  2  0  0  0  0  0  0  0  0  0
   30.4115    3.7233   54.8126 O   0  0  0  0  0  0  0  0  0  0  0  0
   31.4538    5.3935   56.3147 C   0  0  2  0  0  0  0  0  0  0  0  0
   30.1402    5.7981   56.8052 O   0  0  0  0  0  0  0  0  0  0  0  0
   32.2598    6.6594   56.0593 C   0  0  2  0  0  0  0  0  0  0  0  0
   31.6467    7.1337   54.8481 O   0  0  0  0  0  0  0  0  0  0  0  0
   33.8010    6.4399   55.9099 C   0  0  0  0  0  0  0  0  0  0  0  0
   34.2422    6.6807   54.5678 O   0  0  0  0  0  0  0  0  0  0  0  0
   30.0127    5.7550   58.2241 C   0  0  2  0  0  0  0  0  0  0  0  0
   30.1793    4.3300   58.8534 C   0  0  2  0  0  0  0  0  0  0  0  0
   29.2019    3.3380   58.3110 N   0  3  0  0  0  0  0  0  0  0  0  0
   30.0315    4.4933   60.4029 C   0  0  1  0  0  0  0  0  0  0  0  0
   31.1441    5.3540   60.8599 O   0  0  0  0  0  0  0  0  0  0  0  0
   28.6659    5.1704   60.8128 C   0  0  2  0  0  0  0  0  0  0  0  0
   27.5897    4.3041   60.4180 O   0  0  0  0  0  0  0  0  0  0  0  0
   28.5790    6.5804   60.0943 C   0  0  1  0  0  0  0  0  0  0  0  0
   28.7082    6.3504   58.6508 O   0  0  0  0  0  0  0  0  0  0  0  0
   27.2812    7.3688   60.3829 C   0  0  0  0  0  0  0  0  0  0  0  0
   27.4184    8.8346   60.1650 N   0  3  0  0  0  0  0  0  0  0  0  0
  1  2  1  1  0  0  0
  1  3  1  0  0  0  0
  1 10  1  0  0  0  0
  3  4  1  6  0  0  0
  3  5  1  0  0  0  0
  5  6  1  6  0  0  0
  5  7  1  0  0  0  0
  7  8  1  1  0  0  0
  7  9  1  0  0  0  0
  9 10  1  0  0  0  0
  9 11  1  1  0  0  0
 11 12  1  0  0  0  0
 13 14  1  1  0  0  0
 13 15  1  0  0  0  0
 13 21  1  0  0  0  0
 15 16  1  0  0  0  0
 16 17  1  1  0  0  0
 16 18  1  0  0  0  0
 18  2  1  6  0  0  0
 18 19  1  0  0  0  0
 19 20  1  1  0  0  0
 19 21  1  0  0  0  0
 21 22  1  6  0  0  0
 23 20  1  6  0  0  0
 23 24  1  0  0  0  0
 23 29  1  0  0  0  0
 24 25  1  1  0  0  0
 24 26  1  0  0  0  0
 26 27  1  6  0  0  0
 26 28  1  0  0  0  0
 28 29  1  0  0  0  0
 28 30  1  6  0  0  0
 30 31  1  0  0  0  0
 32 27  1  6  0  0  0
 32 33  1  0  0  0  0
 32 40  1  0  0  0  0
 33 34  1  6  0  0  0
 33 35  1  0  0  0  0
 35 36  1  6  0  0  0
 35 37  1  0  0  0  0
 37 38  1  6  0  0  0
 37 39  1  0  0  0  0
 39 40  1  0  0  0  0
 39 41  1  6  0  0  0
 41 42  1  0  0  0  0
M  CHG  5   4   1  14   1  17   1  34   1  42   1
M  END
>  <CHROM.1>
-132.57171609,134.46184143,160.65683772,58.76727330,55.20590972,73.32377529
-56.36674365,-58.56729785,-60.89476387,-43.31366209,178.75052248,67.98877209
45.83480609,150.62363839,-62.53278763,111.16528730,62.15156263,-178.57992587
176.24503361,62.72885856,157.72683902,65.08524243,29.82658873,5.84048870
54.45537497,1.53269904,-0.80195568,-1.53738321

>  <Name>
1j7t

>  <RI>
224

>  <Rbt.Current_Directory>
/home/itssahil/PROJECTS/Mol_Feturizer/New_Systems/rnas/1j7t

>  <Rbt.Executable>
rbdock ($Id: //depot/dev/client3/rdock/2013.1/src/exe/rbdock.cxx#4 $)

>  <Rbt.Library>
libRbt.so (2013.1, Build901 2013/11/27)

>  <Rbt.Parameter_File>
/export/apps/rDock/src/rDock_2013.1_src/data/scripts/dock_solv.prm

>  <Rbt.Receptor>
prm/pocket_docking_7.prm

>  <SCORE>
-48.7223

>  <SCORE.INTER>
-41.3639

>  <SCORE.INTER.CONST>
1

>  <SCORE.INTER.POLAR>
-6.93113

>  <SCORE.INTER.ROT>
9

>  <SCORE.INTER.SOLV>
26.2473

>  <SCORE.INTER.VDW>
-22.8213

>  <SCORE.INTER.norm>
-0.984856

>  <SCORE.INTRA>
-7.35835

>  <SCORE.INTRA.DIHEDRAL>
-18.6542

>  <SCORE.INTRA.DIHEDRAL.0>
46.2143

>  <SCORE.INTRA.POLAR>
0.376468

>  <SCORE.INTRA.POLAR.0>
-1.76436

>  <SCORE.INTRA.REPUL>
0

>  <SCORE.INTRA.REPUL.0>
0

>  <SCORE.INTRA.SOLV>
-1.75366

>  <SCORE.INTRA.SOLV.lig_0>
-148.643

>  <SCORE.INTRA.VDW>
1.56557

>  <SCORE.INTRA.VDW.0>
-4.83512

>  <SCORE.INTRA.norm>
-0.175199

>  <SCORE.RESTR>
0

>  <SCORE.RESTR.CAVITY>
0

>  <SCORE.RESTR.norm>
0

>  <SCORE.SYSTEM>
0

>  <SCORE.SYSTEM.CONST>
0

>  <SCORE.SYSTEM.DIHEDRAL>
0

>  <SCORE.SYSTEM.SOLV>
0

>  <SCORE.SYSTEM.norm>
0

>  <SCORE.heavy>
42

>  <SCORE.norm>
-1.16005

>  <RMSD>
5.271

$$$$
1j7t
 OpenBabel11021811393D
libRbt.so/2013.1/901 2013/11/27
 42 45  0  0  0  0  0  0  0  0999 V2000
   31.9613    7.1591   54.3563 C   0  0  2  0  0  0  0  0  0  0  0  0
   30.9417    6.6784   53.4442 O   0  0  0  0  0  0  0  0  0  0  0  0
   33.1543    7.6454   53.4843 C   0  0  2  0  0  0  0  0  0  0  0  0
   32.7866    8.6311   52.4275 N   0  3  0  0  0  0  0  0  0  0  0  0
   33.7742    6.4128   52.7906 C   0  0  1  0  0  0  0  0  0  0  0  0
   34.8675    6.7888   52.0013 O   0  0  0  0  0  0  0  0  0  0  0  0
   34.1994    5.3668   53.8483 C   0  0  2  0  0  0  0  0  0  0  0  0
   34.7898    4.2380   53.2347 O   0  0  0  0  0  0  0  0  0  0  0  0
   32.9921    4.9232   54.6467 C   0  0  2  0  0  0  0  0  0  0  0  0
   32.3710    6.0612   55.2308 O   0  0  0  0  0  0  0  0  0  0  0  0
   33.3431    3.9865   55.7809 C   0  0  0  0  0  0  0  0  0  0  0  0
   34.3057    4.5991   56.6173 O   0  0  0  0  0  0  0  0  0  0  0  0
   26.7199    6.5475   53.5282 C   0  0  2  0  0  0  0  0  0  0  0  0
   25.3501    6.2698   53.9616 N   0  3  0  0  0  0  0  0  0  0  0  0
   27.4833    5.2047   53.2781 C   0  0  0  0  0  0  0  0  0  0  0  0
   28.9406    5.4921   52.8687 C   0  0  2  0  0  0  0  0  0  0  0  0
   29.6864    4.2431   52.6823 N   0  3  0  0  0  0  0  0  0  0  0  0
   29.6391    6.3507   53.9414 C   0  0  2  0  0  0  0  0  0  0  0  0
   28.8930    7.6684   54.2282 C   0  0  2  0  0  0  0  0  0  0  0  0
   29.5704    8.2746   55.3458 O   0  0  0  0  0  0  0  0  0  0  0  0
   27.4142    7.3819   54.5928 C   0  0  1  0  0  0  0  0  0  0  0  0
   26.7346    8.5971   54.7497 O   0  0  0  0  0  0  0  0  0  0  0  0
   29.2497    7.9941   56.7058 C   0  0  1  0  0  0  0  0  0  0  0  0
   29.7032    9.2120   57.5875 C   0  0  2  0  0  0  0  0  0  0  0  0
   31.0471    9.1326   58.0308 O   0  0  0  0  0  0  0  0  0  0  0  0
   28.6603    9.0868   58.6894 C   0  0  2  0  0  0  0  0  0  0  0  0
   28.8875    7.8918   59.4956 O   0  0  0  0  0  0  0  0  0  0  0  0
   27.3714    8.8764   57.9072 C   0  0  2  0  0  0  0  0  0  0  0  0
   27.8103    7.9452   56.9032 O   0  0  0  0  0  0  0  0  0  0  0  0
   26.7525   10.1760   57.2959 C   0  0  0  0  0  0  0  0  0  0  0  0
   27.0833   11.3351   58.0711 O   0  0  0  0  0  0  0  0  0  0  0  0
   27.7745    7.5172   60.3033 C   0  0  2  0  0  0  0  0  0  0  0  0
   27.2019    8.6656   61.2021 C   0  0  2  0  0  0  0  0  0  0  0  0
   28.2228    9.2404   62.1299 N   0  3  0  0  0  0  0  0  0  0  0  0
   25.9846    8.0704   61.9854 C   0  0  1  0  0  0  0  0  0  0  0  0
   24.9647    7.6891   60.9845 O   0  0  0  0  0  0  0  0  0  0  0  0
   26.3722    6.7921   62.8261 C   0  0  2  0  0  0  0  0  0  0  0  0
   27.3204    7.1784   63.8343 O   0  0  0  0  0  0  0  0  0  0  0  0
   26.9760    5.7135   61.8341 C   0  0  1  0  0  0  0  0  0  0  0  0
   28.1170    6.3317   61.1492 O   0  0  0  0  0  0  0  0  0  0  0  0
   27.4241    4.3984   62.5114 C   0  0  0  0  0  0  0  0  0  0  0  0
   26.2893    3.5594   62.9837 N   0  3  0  0  0  0  0  0  0  0  0  0
  1  2  1  6  0  0  0
  1  3  1  0  0  0  0
  1 10  1  0  0  0  0
  3  4  1  6  0  0  0
  3  5  1  0  0  0  0
  5  6  1  1  0  0  0
  5  7  1  0  0  0  0
  7  8  1  6  0  0  0
  7  9  1  0  0  0  0
  9 10  1  0  0  0  0
  9 11  1  1  0  0  0
 11 12  1  0  0  0  0
 13 14  1  1  0  0  0
 13 15  1  0  0  0  0
 13 21  1  0  0  0  0
 15 16  1  0  0  0  0
 16 17  1  1  0  0  0
 16 18  1  0  0  0  0
 18  2  1  6  0  0  0
 18 19  1  0  0  0  0
 19 20  1  1  0  0  0
 19 21  1  0  0  0  0
 21 22  1  6  0  0  0
 23 20  1  6  0  0  0
 23 24  1  0  0  0  0
 23 29  1  0  0  0  0
 24 25  1  1  0  0  0
 24 26  1  0  0  0  0
 26 27  1  1  0  0  0
 26 28  1  0  0  0  0
 28 29  1  0  0  0  0
 28 30  1  6  0  0  0
 30 31  1  0  0  0  0
 32 27  1  1  0  0  0
 32 33  1  0  0  0  0
 32 40  1  0  0  0  0
 33 34  1  1  0  0  0
 33 35  1  0  0  0  0
 35 36  1  6  0  0  0
 35 37  1  0  0  0  0
 37 38  1  1  0  0  0
 37 39  1  0  0  0  0
 39 40  1  0  0  0  0
 39 41  1  1  0  0  0
 41 42  1  0  0  0  0
M  CHG  5   4   1  14   1  17   1  34   1  42   1
M  END
>  <CHROM.1>
-170.61636095,-163.20152484,49.85663542,24.32083452,176.81801462,55.74315504
-168.94189318,32.75558990,-56.11113529,-87.55185270,-155.95639031,-61.83018195
-178.81770336,-164.24847015,-52.07083436,-28.51615438,-178.00808292,-73.71060286
-60.18440743,173.38677634,71.08686410,41.84524637,29.37486028,7.03162877
56.91134029,-0.89396206,-0.44733477,1.75155327

>  <Name>
1j7t

>  <RI>
0

>  <Rbt.Current_Directory>
/home/itssahil/PROJECTS/Mol_Feturizer/New_Systems/rnas/1j7t

>  <Rbt.Executable>
rbdock ($Id: //depot/dev/client3/rdock/2013.1/src/exe/rbdock.cxx#4 $)

>  <Rbt.Library>
libRbt.so (2013.1, Build901 2013/11/27)

>  <Rbt.Parameter_File>
/export/apps/rDock/src/rDock_2013.1_src/data/scripts/dock_solv.prm

>  <Rbt.Receptor>
prm/pocket_docking_4.prm

>  <SCORE>
-40.6035

>  <SCORE.INTER>
-34.637

>  <SCORE.INTER.CONST>
1

>  <SCORE.INTER.POLAR>
-6.97133

>  <SCORE.INTER.ROT>
9

>  <SCORE.INTER.SOLV>
16.4716

>  <SCORE.INTER.VDW>
-14.9441

>  <SCORE.INTER.norm>
-0.82469

>  <SCORE.INTRA>
-5.96654

>  <SCORE.INTRA.DIHEDRAL>
-24.9949

>  <SCORE.INTRA.DIHEDRAL.0>
46.2143

>  <SCORE.INTRA.POLAR>
0.927907

>  <SCORE.INTRA.POLAR.0>
-1.76436

>  <SCORE.INTRA.REPUL>
0.0123357

>  <SCORE.INTRA.REPUL.0>
0

>  <SCORE.INTRA.SOLV>
-4.74045

>  <SCORE.INTRA.SOLV.lig_0>
-148.643

>  <SCORE.INTRA.VDW>
5.68458

>  <SCORE.INTRA.VDW.0>
-4.83512

>  <SCORE.INTRA.norm>
-0.14206

>  <SCORE.RESTR>
0

>  <SCORE.RESTR.CAVITY>
0

>  <SCORE.RESTR.norm>
0

>  <SCORE.SYSTEM>
0

>  <SCORE.SYSTEM.CONST>
0

>  <SCORE.SYSTEM.DIHEDRAL>
0

>  <SCORE.SYSTEM.SOLV>
0

>  <SCORE.SYSTEM.norm>
0

>  <SCORE.heavy>
42

>  <SCORE.norm>
-0.96675

>  <RMSD>
5.278

$$$$
1j7t
 OpenBabel11021811393D
libRbt.so/2013.1/901 2013/11/27
 42 45  0  0  0  0  0  0  0  0999 V2000
   30.2643   10.9117   50.3831 C   0  0  2  0  0  0  0  0  0  0  0  0
   31.1839    9.8813   49.9413 O   0  0  0  0  0  0  0  0  0  0  0  0
   29.0957   10.9443   49.3567 C   0  0  2  0  0  0  0  0  0  0  0  0
   28.4435    9.6244   49.1199 N   0  3  0  0  0  0  0  0  0  0  0  0
   29.6563   11.4469   48.0084 C   0  0  1  0  0  0  0  0  0  0  0  0
   28.6419   11.5126   47.0461 O   0  0  0  0  0  0  0  0  0  0  0  0
   30.3225   12.8309   48.1937 C   0  0  2  0  0  0  0  0  0  0  0  0
   30.8241   13.3196   46.9654 O   0  0  0  0  0  0  0  0  0  0  0  0
   31.4597   12.7250   49.1875 C   0  0  2  0  0  0  0  0  0  0  0  0
   30.9667   12.1939   50.4109 O   0  0  0  0  0  0  0  0  0  0  0  0
   32.0887   14.0612   49.5130 C   0  0  0  0  0  0  0  0  0  0  0  0
   32.8615   14.4991   48.4120 O   0  0  0  0  0  0  0  0  0  0  0  0
   33.1458    6.5222   51.5891 C   0  0  2  0  0  0  0  0  0  0  0  0
   33.8856    5.6664   52.5174 N   0  3  0  0  0  0  0  0  0  0  0  0
   34.0270    7.7469   51.1744 C   0  0  0  0  0  0  0  0  0  0  0  0
   33.2343    8.6762   50.2354 C   0  0  2  0  0  0  0  0  0  0  0  0
   34.0268    9.8577   49.8793 N   0  3  0  0  0  0  0  0  0  0  0  0
   31.9213    9.1235   50.9075 C   0  0  2  0  0  0  0  0  0  0  0  0
   31.0450    7.9361   51.3517 C   0  0  2  0  0  0  0  0  0  0  0  0
   29.9480    8.5056   52.0917 O   0  0  0  0  0  0  0  0  0  0  0  0
   31.8575    6.9759   52.2571 C   0  0  1  0  0  0  0  0  0  0  0  0
   31.0721    5.8570   52.5639 O   0  0  0  0  0  0  0  0  0  0  0  0
   30.1113    9.2229   53.3124 C   0  0  1  0  0  0  0  0  0  0  0  0
   29.5610    8.3396   54.4884 C   0  0  2  0  0  0  0  0  0  0  0  0
   28.1752    8.5075   54.7343 O   0  0  0  0  0  0  0  0  0  0  0  0
   30.4713    8.8538   55.5950 C   0  0  2  0  0  0  0  0  0  0  0  0
   30.1530   10.2360   55.9385 O   0  0  0  0  0  0  0  0  0  0  0  0
   31.8408    8.8483   54.9305 C   0  0  2  0  0  0  0  0  0  0  0  0
   31.5188    9.3872   53.6369 O   0  0  0  0  0  0  0  0  0  0  0  0
   32.5262    7.4451   54.8462 C   0  0  0  0  0  0  0  0  0  0  0  0
   32.9849    7.0021   56.1297 O   0  0  0  0  0  0  0  0  0  0  0  0
   29.9612   10.4572   57.3334 C   0  0  2  0  0  0  0  0  0  0  0  0
   28.4703   10.6742   57.7629 C   0  0  2  0  0  0  0  0  0  0  0  0
   27.8252   11.8246   57.0601 N   0  3  0  0  0  0  0  0  0  0  0  0
   28.4653   10.8739   59.3153 C   0  0  1  0  0  0  0  0  0  0  0  0
   28.9620    9.6185   59.9192 O   0  0  0  0  0  0  0  0  0  0  0  0
   29.3975   12.0613   59.7760 C   0  0  2  0  0  0  0  0  0  0  0  0
   28.8785   13.2866   59.2337 O   0  0  0  0  0  0  0  0  0  0  0  0
   30.8660   11.7652   59.2582 C   0  0  1  0  0  0  0  0  0  0  0  0
   30.7979   11.6059   57.8011 O   0  0  0  0  0  0  0  0  0  0  0  0
   31.9042   12.8528   59.6162 C   0  0  0  0  0  0  0  0  0  0  0  0
   32.0058   13.1158   61.0774 N   0  3  0  0  0  0  0  0  0  0  0  0
  1  2  1  6  0  0  0
  1  3  1  0  0  0  0
  1 10  1  0  0  0  0
  3  4  1  6  0  0  0
  3  5  1  0  0  0  0
  5  6  1  6  0  0  0
  5  7  1  0  0  0  0
  7  8  1  6  0  0  0
  7  9  1  0  0  0  0
  9 10  1  0  0  0  0
  9 11  1  1  0  0  0
 11 12  1  0  0  0  0
 13 14  1  1  0  0  0
 13 15  1  0  0  0  0
 13 21  1  0  0  0  0
 15 16  1  0  0  0  0
 16 17  1  1  0  0  0
 16 18  1  0  0  0  0
 18  2  1  6  0  0  0
 18 19  1  0  0  0  0
 19 20  1  1  0  0  0
 19 21  1  0  0  0  0
 21 22  1  6  0  0  0
 23 20  1  6  0  0  0
 23 24  1  0  0  0  0
 23 29  1  0  0  0  0
 24 25  1  1  0  0  0
 24 26  1  0  0  0  0
 26 27  1  6  0  0  0
 26 28  1  0  0  0  0
 28 29  1  0  0  0  0
 28 30  1  6  0  0  0
 30 31  1  0  0  0  0
 32 27  1  6  0  0  0
 32 33  1  0  0  0  0
 32 40  1  0  0  0  0
 33 34  1  6  0  0  0
 33 35  1  0  0  0  0
 35 36  1  1  0  0  0
 35 37  1  0  0  0  0
 37 38  1  6  0  0  0
 37 39  1  0  0  0  0
 39 40  1  0  0  0  0
 39 41  1  6  0  0  0
 41 42  1  0  0  0  0
M  CHG  5   4   1  14   1  17   1  34   1  42   1
M  END
>  <CHROM.1>
-147.27612783,-151.97612931,-151.58497270,52.97194690,-56.28829296,-73.05553355
64.13745263,-60.62843829,61.40731332,-63.42474532,-108.71603057,71.06708260
-179.16662514,129.04005647,-106.32975912,-72.22722518,-178.59095642,-68.25258356
-175.99964845,-177.59567922,56.92270996,-21.43776239,30.82656321,10.17701244
53.40861739,1.24760881,1.20685622,-1.28838332

>  <Name>
1j7t

>  <RI>
0

>  <Rbt.Current_Directory>
/home/itssahil/PROJECTS/Mol_Feturizer/New_Systems/rnas/1j7t

>  <Rbt.Executable>
rbdock ($Id: //depot/dev/client3/rdock/2013.1/src/exe/rbdock.cxx#4 $)

>  <Rbt.Library>
libRbt.so (2013.1, Build901 2013/11/27)

>  <Rbt.Parameter_File>
/export/apps/rDock/src/rDock_2013.1_src/data/scripts/dock_solv.prm

>  <Rbt.Receptor>
prm/blind_docking_80.prm

>  <SCORE>
-9.41191

>  <SCORE.INTER>
-25.7974

>  <SCORE.INTER.CONST>
1

>  <SCORE.INTER.POLAR>
-5.39559

>  <SCORE.INTER.ROT>
9

>  <SCORE.INTER.SOLV>
46.2864

>  <SCORE.INTER.VDW>
-24.2418

>  <SCORE.INTER.norm>
-0.614223

>  <SCORE.INTRA>
-2.89227

>  <SCORE.INTRA.DIHEDRAL>
-12.496

>  <SCORE.INTRA.DIHEDRAL.0>
46.2143

>  <SCORE.INTRA.POLAR>
0.692957

>  <SCORE.INTRA.POLAR.0>
-1.76436

>  <SCORE.INTRA.REPUL>
0

>  <SCORE.INTRA.REPUL.0>
0

>  <SCORE.INTRA.SOLV>
-1.04642

>  <SCORE.INTRA.SOLV.lig_0>
-148.643

>  <SCORE.INTRA.VDW>
1.52287

>  <SCORE.INTRA.VDW.0>
-4.83512

>  <SCORE.INTRA.norm>
-0.0688636

>  <SCORE.RESTR>
19.2777

>  <SCORE.RESTR.CAVITY>
19.2777

>  <SCORE.RESTR.norm>
0.458994

>  <SCORE.SYSTEM>
0

>  <SCORE.SYSTEM.CONST>
0

>  <SCORE.SYSTEM.DIHEDRAL>
0

>  <SCORE.SYSTEM.SOLV>
0

>  <SCORE.SYSTEM.norm>
0

>  <SCORE.heavy>
42

>  <SCORE.norm>
-0.224093

>  <RMSD>
5.285

$$$$
1j7t
 OpenBabel11021811393D
libRbt.so/2013.1/901 2013/11/27
 42 45  0  0  0  0  0  0  0  0999 V2000
   28.4632    5.5486   51.6313 C   0  0  2  0  0  0  0  0  0  0  0  0
   28.0928    6.7110   52.4150 O   0  0  0  0  0  0  0  0  0  0  0  0
   27.1492    4.7760   51.3207 C   0  0  2  0  0  0  0  0  0  0  0  0
   26.0793    5.6029   50.6921 N   0  3  0  0  0  0  0  0  0  0  0  0
   26.5980    4.2148   52.6496 C   0  0  1  0  0  0  0  0  0  0  0  0
   25.4192    3.4928   52.4291 O   0  0  0  0  0  0  0  0  0  0  0  0
   27.6633    3.3241   53.3318 C   0  0  2  0  0  0  0  0  0  0  0  0
   27.1706    2.7822   54.5413 O   0  0  0  0  0  0  0  0  0  0  0  0
   28.9052    4.1396   53.6228 C   0  0  2  0  0  0  0  0  0  0  0  0
   29.3793    4.7208   52.4147 O   0  0  0  0  0  0  0  0  0  0  0  0
   30.0396    3.3120   54.1842 C   0  0  0  0  0  0  0  0  0  0  0  0
   29.7526    2.9676   55.5260 O   0  0  0  0  0  0  0  0  0  0  0  0
   31.8800    8.5832   52.4026 C   0  0  2  0  0  0  0  0  0  0  0  0
   32.9555    9.5372   52.6759 N   0  3  0  0  0  0  0  0  0  0  0  0
   30.7146    9.2966   51.6401 C   0  0  0  0  0  0  0  0  0  0  0  0
   29.5593    8.3077   51.3936 C   0  0  2  0  0  0  0  0  0  0  0  0
   28.4355    8.9736   50.7268 N   0  3  0  0  0  0  0  0  0  0  0  0
   29.0782    7.7026   52.7270 C   0  0  2  0  0  0  0  0  0  0  0  0
   30.2124    7.0166   53.5133 C   0  0  2  0  0  0  0  0  0  0  0  0
   29.6478    6.6471   54.7861 O   0  0  0  0  0  0  0  0  0  0  0  0
   31.3949    7.9970   53.7190 C   0  0  1  0  0  0  0  0  0  0  0  0
   32.4501    7.3212   54.3456 O   0  0  0  0  0  0  0  0  0  0  0  0
   29.3532    7.5854   55.8177 C   0  0  1  0  0  0  0  0  0  0  0  0
   28.0197    8.3291   55.4508 C   0  0  2  0  0  0  0  0  0  0  0  0
   28.2057    9.4803   54.6451 O   0  0  0  0  0  0  0  0  0  0  0  0
   27.5294    8.6128   56.8637 C   0  0  2  0  0  0  0  0  0  0  0  0
   28.3775    9.5979   57.5271 O   0  0  0  0  0  0  0  0  0  0  0  0
   27.7397    7.2779   57.5647 C   0  0  2  0  0  0  0  0  0  0  0  0
   29.0361    6.9081   57.0643 O   0  0  0  0  0  0  0  0  0  0  0  0
   26.6476    6.1988   57.2673 C   0  0  0  0  0  0  0  0  0  0  0  0
   26.9147    5.4979   56.0461 O   0  0  0  0  0  0  0  0  0  0  0  0
   27.9379    9.9543   58.8352 C   0  0  2  0  0  0  0  0  0  0  0  0
   28.8155   11.0388   59.5480 C   0  0  2  0  0  0  0  0  0  0  0  0
   30.2475   10.6322   59.6796 N   0  3  0  0  0  0  0  0  0  0  0  0
   28.1645   11.3088   60.9455 C   0  0  1  0  0  0  0  0  0  0  0  0
   26.8167   11.8660   60.6997 O   0  0  0  0  0  0  0  0  0  0  0  0
   28.0201    9.9961   61.8099 C   0  0  2  0  0  0  0  0  0  0  0  0
   29.3344    9.4896   62.0946 O   0  0  0  0  0  0  0  0  0  0  0  0
   27.1551    8.9550   60.9854 C   0  0  1  0  0  0  0  0  0  0  0  0
   27.8295    8.7384   59.7003 O   0  0  0  0  0  0  0  0  0  0  0  0
   26.9353    7.5992   61.6943 C   0  0  0  0  0  0  0  0  0  0  0  0
   27.9841    6.5909   61.3813 N   0  3  0  0  0  0  0  0  0  0  0  0
  1  2  1  1  0  0  0
  1  3  1  0  0  0  0
  1 10  1  0  0  0  0
  3  4  1  1  0  0  0
  3  5  1  0  0  0  0
  5  6  1  6  0  0  0
  5  7  1  0  0  0  0
  7  8  1  1  0  0  0
  7  9  1  0  0  0  0
  9 10  1  0  0  0  0
  9 11  1  6  0  0  0
 11 12  1  0  0  0  0
 13 14  1  1  0  0  0
 13 15  1  0  0  0  0
 13 21  1  0  0  0  0
 15 16  1  0  0  0  0
 16 17  1  1  0  0  0
 16 18  1  0  0  0  0
 18  2  1  6  0  0  0
 18 19  1  0  0  0  0
 19 20  1  1  0  0  0
 19 21  1  0  0  0  0
 21 22  1  6  0  0  0
 23 20  1  6  0  0  0
 23 24  1  0  0  0  0
 23 29  1  0  0  0  0
 24 25  1  6  0  0  0
 24 26  1  0  0  0  0
 26 27  1  1  0  0  0
 26 28  1  0  0  0  0
 28 29  1  0  0  0  0
 28 30  1  6  0  0  0
 30 31  1  0  0  0  0
 32 27  1  6  0  0  0
 32 33  1  0  0  0  0
 32 40  1  0  0  0  0
 33 34  1  1  0  0  0
 33 35  1  0  0  0  0
 35 36  1  6  0  0  0
 35 37  1  0  0  0  0
 37 38  1  6  0  0  0
 37 39  1  0  0  0  0
 39 40  1  0  0  0  0
 39 41  1  1  0  0  0
 41 42  1  0  0  0  0
M  CHG  5   4   1  14   1  17   1  34   1  42   1
M  END
>  <CHROM.1>
-172.96677152,62.63948883,73.93758651,60.28115628,-64.64921615,-73.53791684
-174.83954799,23.58477369,65.10161925,-73.44593406,77.54091398,176.28522873
169.13308884,177.33440002,-178.47936165,83.64833348,56.88919112,-70.88845018
-59.76675936,65.04451533,-90.32206166,96.41705633,28.62577528,7.33384589
55.68815896,1.48610357,-0.97986314,-2.09440936

>  <Name>
1j7t

>  <RI>
0

>  <Rbt.Current_Directory>
/home/itssahil/PROJECTS/Mol_Feturizer/New_Systems/rnas/1j7t

>  <Rbt.Executable>
rbdock ($Id: //depot/dev/client3/rdock/2013.1/src/exe/rbdock.cxx#4 $)

>  <Rbt.Library>
libRbt.so (2013.1, Build901 2013/11/27)

>  <Rbt.Parameter_File>
/export/apps/rDock/src/rDock_2013.1_src/data/scripts/dock_solv.prm

>  <Rbt.Receptor>
prm/pocket_docking_6.prm

>  <SCORE>
-43.3088

>  <SCORE.INTER>
-28.091

>  <SCORE.INTER.CONST>
1

>  <SCORE.INTER.POLAR>
-6.01534

>  <SCORE.INTER.ROT>
9

>  <SCORE.INTER.SOLV>
26.4283

>  <SCORE.INTER.VDW>
-17.0857

>  <SCORE.INTER.norm>
-0.668834

>  <SCORE.INTRA>
-15.2177

>  <SCORE.INTRA.DIHEDRAL>
-31.2622

>  <SCORE.INTRA.DIHEDRAL.0>
46.2143

>  <SCORE.INTRA.POLAR>
-0.139082

>  <SCORE.INTRA.POLAR.0>
-1.76436

>  <SCORE.INTRA.REPUL>
0.00823522

>  <SCORE.INTRA.REPUL.0>
0

>  <SCORE.INTRA.SOLV>
1.57345

>  <SCORE.INTRA.SOLV.lig_0>
-148.643

>  <SCORE.INTRA.VDW>
0.0583603

>  <SCORE.INTRA.VDW.0>
-4.83512

>  <SCORE.INTRA.norm>
-0.362327

>  <SCORE.RESTR>
0

>  <SCORE.RESTR.CAVITY>
0

>  <SCORE.RESTR.norm>
0

>  <SCORE.SYSTEM>
0

>  <SCORE.SYSTEM.CONST>
0

>  <SCORE.SYSTEM.DIHEDRAL>
0

>  <SCORE.SYSTEM.SOLV>
0

>  <SCORE.SYSTEM.norm>
0

>  <SCORE.heavy>
42

>  <SCORE.norm>
-1.03116

>  <RMSD>
5.294

$$$$
1j7t
 OpenBabel11021811393D
libRbt.so/2013.1/901 2013/11/27
 42 45  0  0  0  0  0  0  0  0999 V2000
   32.5116    6.9863   55.0027 C   0  0  2  0  0  0  0  0  0  0  0  0
   31.4989    5.9580   54.8633 O   0  0  0  0  0  0  0  0  0  0  0  0
   32.4629    7.8466   53.7074 C   0  0  2  0  0  0  0  0  0  0  0  0
   31.1123    8.3812   53.3704 N   0  3  0  0  0  0  0  0  0  0  0  0
   32.9336    6.9657   52.5295 C   0  0  1  0  0  0  0  0  0  0  0  0
   32.9260    7.6947   51.3345 O   0  0  0  0  0  0  0  0  0  0  0  0
   34.3468    6.4057   52.8175 C   0  0  2  0  0  0  0  0  0  0  0  0
   34.8060    5.6128   51.7406 O   0  0  0  0  0  0  0  0  0  0  0  0
   34.3198    5.5654   54.0765 C   0  0  2  0  0  0  0  0  0  0  0  0
   33.8184    6.3477   55.1529 O   0  0  0  0  0  0  0  0  0  0  0  0
   35.6892    5.0767   54.4923 C   0  0  0  0  0  0  0  0  0  0  0  0
   36.1562    4.1275   53.5530 O   0  0  0  0  0  0  0  0  0  0  0  0
   29.4915    3.3493   57.5116 C   0  0  2  0  0  0  0  0  0  0  0  0
   28.6911    2.8611   58.6351 N   0  3  0  0  0  0  0  0  0  0  0  0
   30.7656    4.0854   58.0438 C   0  0  0  0  0  0  0  0  0  0  0  0
   31.5861    4.6436   56.8653 C   0  0  2  0  0  0  0  0  0  0  0  0
   32.7566    5.3835   57.3483 N   0  3  0  0  0  0  0  0  0  0  0  0
   30.7144    5.5731   55.9982 C   0  0  2  0  0  0  0  0  0  0  0  0
   29.4372    4.8817   55.4824 C   0  0  2  0  0  0  0  0  0  0  0  0
   28.6633    5.9083   54.8325 O   0  0  0  0  0  0  0  0  0  0  0  0
   28.6366    4.2781   56.6641 C   0  0  1  0  0  0  0  0  0  0  0  0
   27.5366    3.5705   56.1617 O   0  0  0  0  0  0  0  0  0  0  0  0
   27.9292    6.9052   55.5386 C   0  0  1  0  0  0  0  0  0  0  0  0
   27.1675    7.7978   54.4950 C   0  0  2  0  0  0  0  0  0  0  0  0
   27.9263    8.8934   54.0124 O   0  0  0  0  0  0  0  0  0  0  0  0
   25.9754    8.1807   55.3608 C   0  0  2  0  0  0  0  0  0  0  0  0
   26.3768    9.0716   56.4447 O   0  0  0  0  0  0  0  0  0  0  0  0
   25.5735    6.8508   55.9830 C   0  0  2  0  0  0  0  0  0  0  0  0
   26.8610    6.3086   56.3237 O   0  0  0  0  0  0  0  0  0  0  0  0
   24.7501    5.9075   55.0460 C   0  0  0  0  0  0  0  0  0  0  0  0
   24.7389    4.5587   55.5302 O   0  0  0  0  0  0  0  0  0  0  0  0
   25.7810    8.7605   57.7016 C   0  0  2  0  0  0  0  0  0  0  0  0
   25.1763    9.9898   58.4616 C   0  0  2  0  0  0  0  0  0  0  0  0
   26.1833   11.0621   58.7253 N   0  3  0  0  0  0  0  0  0  0  0  0
   24.5552    9.4459   59.7913 C   0  0  1  0  0  0  0  0  0  0  0  0
   23.4598    8.5250   59.4177 O   0  0  0  0  0  0  0  0  0  0  0  0
   25.6023    8.6574   60.6705 C   0  0  2  0  0  0  0  0  0  0  0  0
   26.6350    9.5693   61.0788 O   0  0  0  0  0  0  0  0  0  0  0  0
   26.1809    7.4665   59.7993 C   0  0  1  0  0  0  0  0  0  0  0  0
   26.7586    8.0483   58.5823 O   0  0  0  0  0  0  0  0  0  0  0  0
   27.2412    6.6016   60.5181 C   0  0  0  0  0  0  0  0  0  0  0  0
   27.7084    7.1860   61.8045 N   0  3  0  0  0  0  0  0  0  0  0  0
  1  2  1  6  0  0  0
  1  3  1  0  0  0  0
  1 10  1  0  0  0  0
  3  4  1  6  0  0  0
  3  5  1  0  0  0  0
  5  6  1  6  0  0  0
  5  7  1  0  0  0  0
  7  8  1  6  0  0  0
  7  9  1  0  0  0  0
  9 10  1  0  0  0  0
  9 11  1  1  0  0  0
 11 12  1  0  0  0  0
 13 14  1  1  0  0  0
 13 15  1  0  0  0  0
 13 21  1  0  0  0  0
 15 16  1  0  0  0  0
 16 17  1  1  0  0  0
 16 18  1  0  0  0  0
 18  2  1  6  0  0  0
 18 19  1  0  0  0  0
 19 20  1  1  0  0  0
 19 21  1  0  0  0  0
 21 22  1  6  0  0  0
 23 20  1  6  0  0  0
 23 24  1  0  0  0  0
 23 29  1  0  0  0  0
 24 25  1  1  0  0  0
 24 26  1  0  0  0  0
 26 27  1  1  0  0  0
 26 28  1  0  0  0  0
 28 29  1  0  0  0  0
 28 30  1  6  0  0  0
 30 31  1  0  0  0  0
 32 27  1  6  0  0  0
 32 33  1  0  0  0  0
 32 40  1  0  0  0  0
 33 34  1  1  0  0  0
 33 35  1  0  0  0  0
 35 36  1  6  0  0  0
 35 37  1  0  0  0  0
 37 38  1  6  0  0  0
 37 39  1  0  0  0  0
 39 40  1  0  0  0  0
 39 41  1  1  0  0  0
 41 42  1  0  0  0  0
M  CHG  5   4   1  14   1  17   1  34   1  42   1
M  END
>  <CHROM.1>
-141.16810437,-78.19253730,-63.29199018,-67.91956969,73.79176495,-68.61974365
177.43717456,-57.24691894,-74.18707502,-75.16243533,-177.45239565,166.57699123
179.50710357,-137.41125191,-132.73208087,163.18630620,-178.47000838,-157.92356825
-108.68215666,61.69231444,-10.49687964,-161.23042407,29.13733237,6.70492890
56.32121477,0.30696787,0.53134049,-0.98990136

>  <Name>
1j7t

>  <RI>
0

>  <Rbt.Current_Directory>
/home/itssahil/PROJECTS/Mol_Feturizer/New_Systems/rnas/1j7t

>  <Rbt.Executable>
rbdock ($Id: //depot/dev/client3/rdock/2013.1/src/exe/rbdock.cxx#4 $)

>  <Rbt.Library>
libRbt.so (2013.1, Build901 2013/11/27)

>  <Rbt.Parameter_File>
/export/apps/rDock/src/rDock_2013.1_src/data/scripts/dock_solv.prm

>  <Rbt.Receptor>
prm/pocket_docking_5.prm

>  <SCORE>
-36.7475

>  <SCORE.INTER>
-32.7816

>  <SCORE.INTER.CONST>
1

>  <SCORE.INTER.POLAR>
-5.82286

>  <SCORE.INTER.ROT>
9

>  <SCORE.INTER.SOLV>
15.2693

>  <SCORE.INTER.VDW>
-17.1347

>  <SCORE.INTER.norm>
-0.780515

>  <SCORE.INTRA>
-4.03016

>  <SCORE.INTRA.DIHEDRAL>
-8.69392

>  <SCORE.INTRA.DIHEDRAL.0>
46.2143

>  <SCORE.INTRA.POLAR>
-1.43868

>  <SCORE.INTRA.POLAR.0>
-1.76436

>  <SCORE.INTRA.REPUL>
0

>  <SCORE.INTRA.REPUL.0>
0

>  <SCORE.INTRA.SOLV>
3.88637

>  <SCORE.INTRA.SOLV.lig_0>
-148.643

>  <SCORE.INTRA.VDW>
3.26512

>  <SCORE.INTRA.VDW.0>
-4.83512

>  <SCORE.INTRA.norm>
-0.0959563

>  <SCORE.RESTR>
0.0642777

>  <SCORE.RESTR.CAVITY>
0.0642777

>  <SCORE.RESTR.norm>
0.00153042

>  <SCORE.SYSTEM>
0

>  <SCORE.SYSTEM.CONST>
0

>  <SCORE.SYSTEM.DIHEDRAL>
0

>  <SCORE.SYSTEM.SOLV>
0

>  <SCORE.SYSTEM.norm>
0

>  <SCORE.heavy>
42

>  <SCORE.norm>
-0.874941

>  <RMSD>
5.302

$$$$
1j7t
 OpenBabel11021811393D
libRbt.so/2013.1/901 2013/11/27
 42 45  0  0  0  0  0  0  0  0999 V2000
   32.2344    5.2258   53.4429 C   0  0  2  0  0  0  0  0  0  0  0  0
   32.8386    4.5670   54.5846 O   0  0  0  0  0  0  0  0  0  0  0  0
   32.5648    6.7408   53.5688 C   0  0  2  0  0  0  0  0  0  0  0  0
   34.0149    7.0459   53.7350 N   0  3  0  0  0  0  0  0  0  0  0  0
   31.8177    7.2929   54.8025 C   0  0  1  0  0  0  0  0  0  0  0  0
   32.0655    8.6619   54.9574 O   0  0  0  0  0  0  0  0  0  0  0  0
   30.2999    7.0255   54.6673 C   0  0  2  0  0  0  0  0  0  0  0  0
   29.5940    7.5428   55.7777 O   0  0  0  0  0  0  0  0  0  0  0  0
   30.0473    5.5360   54.5685 C   0  0  2  0  0  0  0  0  0  0  0  0
   30.7894    5.0049   53.4780 O   0  0  0  0  0  0  0  0  0  0  0  0
   28.5955    5.1966   54.3158 C   0  0  0  0  0  0  0  0  0  0  0  0
   27.8222    5.5658   55.4414 O   0  0  0  0  0  0  0  0  0  0  0  0
   31.4895    0.6381   53.8150 C   0  0  2  0  0  0  0  0  0  0  0  0
   31.3688   -0.8195   53.8591 N   0  3  0  0  0  0  0  0  0  0  0  0
   32.9008    1.0408   53.2723 C   0  0  0  0  0  0  0  0  0  0  0  0
   33.0499    2.5742   53.2702 C   0  0  2  0  0  0  0  0  0  0  0  0
   34.3872    2.9680   52.8148 N   0  3  0  0  0  0  0  0  0  0  0  0
   32.8030    3.1385   54.6832 C   0  0  2  0  0  0  0  0  0  0  0  0
   31.4299    2.7342   55.2544 C   0  0  2  0  0  0  0  0  0  0  0  0
   31.4143    3.1966   56.6187 O   0  0  0  0  0  0  0  0  0  0  0  0
   31.2608    1.1942   55.2115 C   0  0  1  0  0  0  0  0  0  0  0  0
   29.9695    0.8604   55.6407 O   0  0  0  0  0  0  0  0  0  0  0  0
   30.7142    4.3623   57.0457 C   0  0  1  0  0  0  0  0  0  0  0  0
   29.8747    4.0012   58.3227 C   0  0  2  0  0  0  0  0  0  0  0  0
   28.5816    3.4958   58.0373 O   0  0  0  0  0  0  0  0  0  0  0  0
   29.8910    5.3687   58.9913 C   0  0  2  0  0  0  0  0  0  0  0  0
   29.0949    6.3322   58.2380 O   0  0  0  0  0  0  0  0  0  0  0  0
   31.3508    5.7826   58.8698 C   0  0  2  0  0  0  0  0  0  0  0  0
   31.6369    5.3811   57.5190 O   0  0  0  0  0  0  0  0  0  0  0  0
   32.3116    5.1220   59.9121 C   0  0  0  0  0  0  0  0  0  0  0  0
   32.0499    5.5871   61.2422 O   0  0  0  0  0  0  0  0  0  0  0  0
   27.7518    6.4599   58.6977 C   0  0  2  0  0  0  0  0  0  0  0  0
   26.8054    7.2610   57.7400 C   0  0  2  0  0  0  0  0  0  0  0  0
   27.2927    8.6474   57.4685 N   0  3  0  0  0  0  0  0  0  0  0  0
   25.3865    7.2701   58.4005 C   0  0  1  0  0  0  0  0  0  0  0  0
   24.9264    5.8660   58.4676 O   0  0  0  0  0  0  0  0  0  0  0  0
   25.4023    7.8684   59.8609 C   0  0  2  0  0  0  0  0  0  0  0  0
   25.7948    9.2486   59.7850 O   0  0  0  0  0  0  0  0  0  0  0  0
   26.4157    7.0165   60.7323 C   0  0  1  0  0  0  0  0  0  0  0  0
   27.7220    7.0650   60.0657 O   0  0  0  0  0  0  0  0  0  0  0  0
   26.5592    7.4907   62.1964 C   0  0  0  0  0  0  0  0  0  0  0  0
   25.2938    7.4003   62.9744 N   0  3  0  0  0  0  0  0  0  0  0  0
  1  2  1  1  0  0  0
  1  3  1  0  0  0  0
  1 10  1  0  0  0  0
  3  4  1  1  0  0  0
  3  5  1  0  0  0  0
  5  6  1  6  0  0  0
  5  7  1  0  0  0  0
  7  8  1  1  0  0  0
  7  9  1  0  0  0  0
  9 10  1  0  0  0  0
  9 11  1  6  0  0  0
 11 12  1  0  0  0  0
 13 14  1  1  0  0  0
 13 15  1  0  0  0  0
 13 21  1  0  0  0  0
 15 16  1  0  0  0  0
 16 17  1  1  0  0  0
 16 18  1  0  0  0  0
 18  2  1  6  0  0  0
 18 19  1  0  0  0  0
 19 20  1  1  0  0  0
 19 21  1  0  0  0  0
 21 22  1  6  0  0  0
 23 20  1  1  0  0  0
 23 24  1  0  0  0  0
 23 29  1  0  0  0  0
 24 25  1  6  0  0  0
 24 26  1  0  0  0  0
 26 27  1  6  0  0  0
 26 28  1  0  0  0  0
 28 29  1  0  0  0  0
 28 30  1  1  0  0  0
 30 31  1  0  0  0  0
 32 27  1  6  0  0  0
 32 33  1  0  0  0  0
 32 40  1  0  0  0  0
 33 34  1  1  0  0  0
 33 35  1  0  0  0  0
 35 36  1  1  0  0  0
 35 37  1  0  0  0  0
 37 38  1  6  0  0  0
 37 39  1  0  0  0  0
 39 40  1  0  0  0  0
 39 41  1  1  0  0  0
 41 42  1  0  0  0  0
M  CHG  5   4   1  14   1  17   1  34   1  42   1
M  END
>  <CHROM.1>
-174.57105702,39.75775185,179.97597720,54.45633527,-171.28088380,-66.34460949
-175.54151194,-135.48853830,76.61780623,103.09367127,131.75537561,71.61649641
61.20445524,94.40189949,-168.29785307,-67.94900411,175.47779794,59.96677124
60.31802852,66.08810864,62.24692963,62.85518009,29.92298116,5.25636878,56.74508088
-0.38562458,0.84674486,-0.12478760

>  <Name>
1j7t

>  <RI>
224

>  <Rbt.Current_Directory>
/home/itssahil/PROJECTS/Mol_Feturizer/New_Systems/rnas/1j7t

>  <Rbt.Executable>
rbdock ($Id: //depot/dev/client3/rdock/2013.1/src/exe/rbdock.cxx#4 $)

>  <Rbt.Library>
libRbt.so (2013.1, Build901 2013/11/27)

>  <Rbt.Parameter_File>
/export/apps/rDock/src/rDock_2013.1_src/data/scripts/dock_solv.prm

>  <Rbt.Receptor>
prm/pocket_docking_7.prm

>  <SCORE>
-32.6925

>  <SCORE.INTER>
-20.2915

>  <SCORE.INTER.CONST>
1

>  <SCORE.INTER.POLAR>
-4.46138

>  <SCORE.INTER.ROT>
9

>  <SCORE.INTER.SOLV>
18.0276

>  <SCORE.INTER.VDW>
-14.2656

>  <SCORE.INTER.norm>
-0.483131

>  <SCORE.INTRA>
-12.6205

>  <SCORE.INTRA.DIHEDRAL>
-20.8772

>  <SCORE.INTRA.DIHEDRAL.0>
46.2143

>  <SCORE.INTRA.POLAR>
-0.438134

>  <SCORE.INTRA.POLAR.0>
-1.76436

>  <SCORE.INTRA.REPUL>
0.105608

>  <SCORE.INTRA.REPUL.0>
0

>  <SCORE.INTRA.SOLV>
1.19463

>  <SCORE.INTRA.SOLV.lig_0>
-148.643

>  <SCORE.INTRA.VDW>
-1.81763

>  <SCORE.INTRA.VDW.0>
-4.83512

>  <SCORE.INTRA.norm>
-0.300489

>  <SCORE.RESTR>
0.219539

>  <SCORE.RESTR.CAVITY>
0.219539

>  <SCORE.RESTR.norm>
0.00522712

>  <SCORE.SYSTEM>
0

>  <SCORE.SYSTEM.CONST>
0

>  <SCORE.SYSTEM.DIHEDRAL>
0

>  <SCORE.SYSTEM.SOLV>
0

>  <SCORE.SYSTEM.norm>
0

>  <SCORE.heavy>
42

>  <SCORE.norm>
-0.778393

>  <RMSD>
5.302

$$$$
1j7t
 OpenBabel11021811393D
libRbt.so/2013.1/901 2013/11/27
 42 45  0  0  0  0  0  0  0  0999 V2000
   30.2736   11.0101   50.3136 C   0  0  2  0  0  0  0  0  0  0  0  0
   31.2022    9.9919   49.8626 O   0  0  0  0  0  0  0  0  0  0  0  0
   29.0381   10.9441   49.3706 C   0  0  2  0  0  0  0  0  0  0  0  0
   28.4253    9.5902   49.2477 N   0  3  0  0  0  0  0  0  0  0  0  0
   29.4858   11.3935   47.9626 C   0  0  1  0  0  0  0  0  0  0  0  0
   28.4070   11.3698   47.0709 O   0  0  0  0  0  0  0  0  0  0  0  0
   30.1064   12.8091   48.0299 C   0  0  2  0  0  0  0  0  0  0  0  0
   30.5040   13.2489   46.7463 O   0  0  0  0  0  0  0  0  0  0  0  0
   31.3114   12.7989   48.9464 C   0  0  2  0  0  0  0  0  0  0  0  0
   30.9238   12.3169   50.2268 O   0  0  0  0  0  0  0  0  0  0  0  0
   31.9064   14.1730   49.1585 C   0  0  0  0  0  0  0  0  0  0  0  0
   32.9731   14.0871   50.0836 O   0  0  0  0  0  0  0  0  0  0  0  0
   33.2027    6.6553   51.5099 C   0  0  2  0  0  0  0  0  0  0  0  0
   33.9649    5.8124   52.4318 N   0  3  0  0  0  0  0  0  0  0  0  0
   34.0740    7.8729   51.0552 C   0  0  0  0  0  0  0  0  0  0  0  0
   33.2586    8.7891   50.1229 C   0  0  2  0  0  0  0  0  0  0  0  0
   34.0427    9.9645   49.7296 N   0  3  0  0  0  0  0  0  0  0  0  0
   31.9632    9.2476   50.8210 C   0  0  2  0  0  0  0  0  0  0  0  0
   31.0975    8.0677   51.3045 C   0  0  2  0  0  0  0  0  0  0  0  0
   30.0198    8.6491   52.0633 O   0  0  0  0  0  0  0  0  0  0  0  0
   31.9318    7.1201   52.2032 C   0  0  1  0  0  0  0  0  0  0  0  0
   31.1536    6.0066   52.5461 O   0  0  0  0  0  0  0  0  0  0  0  0
   30.2053    9.3127   53.3109 C   0  0  1  0  0  0  0  0  0  0  0  0
   29.4282    8.5178   54.4201 C   0  0  2  0  0  0  0  0  0  0  0  0
   28.0744    8.9108   54.5680 O   0  0  0  0  0  0  0  0  0  0  0  0
   30.3233    8.8581   55.6034 C   0  0  2  0  0  0  0  0  0  0  0  0
   30.2122   10.2692   55.9585 O   0  0  0  0  0  0  0  0  0  0  0  0
   31.7200    8.6334   55.0412 C   0  0  2  0  0  0  0  0  0  0  0  0
   31.5915    9.2359   53.7419 O   0  0  0  0  0  0  0  0  0  0  0  0
   32.1687    7.1369   54.9709 C   0  0  0  0  0  0  0  0  0  0  0  0
   32.7354    6.6955   56.2111 O   0  0  0  0  0  0  0  0  0  0  0  0
   29.9994   10.5022   57.3484 C   0  0  2  0  0  0  0  0  0  0  0  0
   28.5051   10.7485   57.7496 C   0  0  2  0  0  0  0  0  0  0  0  0
   27.8937   11.9061   57.0287 N   0  3  0  0  0  0  0  0  0  0  0  0
   28.4757   10.9576   59.3004 C   0  0  1  0  0  0  0  0  0  0  0  0
   28.9388    9.6972   59.9204 O   0  0  0  0  0  0  0  0  0  0  0  0
   29.4208   12.1308   59.7712 C   0  0  2  0  0  0  0  0  0  0  0  0
   28.9338   13.3620   59.2127 O   0  0  0  0  0  0  0  0  0  0  0  0
   30.8928   11.8053   59.2819 C   0  0  1  0  0  0  0  0  0  0  0  0
   30.8481   11.6385   57.8246 O   0  0  0  0  0  0  0  0  0  0  0  0
   31.9438   12.8763   59.6524 C   0  0  0  0  0  0  0  0  0  0  0  0
   32.0547   13.1148   61.1172 N   0  3  0  0  0  0  0  0  0  0  0  0
  1  2  1  6  0  0  0
  1  3  1  0  0  0  0
  1 10  1  0  0  0  0
  3  4  1  6  0  0  0
  3  5  1  0  0  0  0
  5  6  1  6  0  0  0
  5  7  1  0  0  0  0
  7  8  1  6  0  0  0
  7  9  1  0  0  0  0
  9 10  1  0  0  0  0
  9 11  1  1  0  0  0
 11 12  1  0  0  0  0
 13 14  1  1  0  0  0
 13 15  1  0  0  0  0
 13 21  1  0  0  0  0
 15 16  1  0  0  0  0
 16 17  1  1  0  0  0
 16 18  1  0  0  0  0
 18  2  1  6  0  0  0
 18 19  1  0  0  0  0
 19 20  1  1  0  0  0
 19 21  1  0  0  0  0
 21 22  1  6  0  0  0
 23 20  1  6  0  0  0
 23 24  1  0  0  0  0
 23 29  1  0  0  0  0
 24 25  1  1  0  0  0
 24 26  1  0  0  0  0
 26 27  1  6  0  0  0
 26 28  1  0  0  0  0
 28 29  1  0  0  0  0
 28 30  1  6  0  0  0
 30 31  1  0  0  0  0
 32 27  1  6  0  0  0
 32 33  1  0  0  0  0
 32 40  1  0  0  0  0
 33 34  1  6  0  0  0
 33 35  1  0  0  0  0
 35 36  1  1  0  0  0
 35 37  1  0  0  0  0
 37 38  1  6  0  0  0
 37 39  1  0  0  0  0
 39 40  1  0  0  0  0
 39 41  1  6  0  0  0
 41 42  1  0  0  0  0
M  CHG  5   4   1  14   1  17   1  34   1  42   1
M  END
>  <CHROM.1>
-142.78002469,-153.28829909,94.16974047,73.01000856,60.72377165,176.59714230
63.00531208,-173.12919537,59.10847495,-67.44531013,-117.28074076,-58.09318430
30.20522517,131.09692426,-98.10257893,-85.45633820,-61.97242479,175.41982117
64.82085513,179.66172680,58.77461635,106.43150170,30.79952464,10.21259368
53.40807713,1.31682406,1.17236085,-1.37321629

>  <Name>
1j7t

>  <RI>
0

>  <Rbt.Current_Directory>
/home/itssahil/PROJECTS/Mol_Feturizer/New_Systems/rnas/1j7t

>  <Rbt.Executable>
rbdock ($Id: //depot/dev/client3/rdock/2013.1/src/exe/rbdock.cxx#4 $)

>  <Rbt.Library>
libRbt.so (2013.1, Build901 2013/11/27)

>  <Rbt.Parameter_File>
/export/apps/rDock/src/rDock_2013.1_src/data/scripts/dock_solv.prm

>  <Rbt.Receptor>
prm/blind_docking_80.prm

>  <SCORE>
-11.4528

>  <SCORE.INTER>
-30.5529

>  <SCORE.INTER.CONST>
1

>  <SCORE.INTER.POLAR>
-6.09229

>  <SCORE.INTER.ROT>
9

>  <SCORE.INTER.SOLV>
47.585

>  <SCORE.INTER.VDW>
-25.5226

>  <SCORE.INTER.norm>
-0.727451

>  <SCORE.INTRA>
0.95872

>  <SCORE.INTRA.DIHEDRAL>
-7.267

>  <SCORE.INTRA.DIHEDRAL.0>
46.2143

>  <SCORE.INTRA.POLAR>
1.03591

>  <SCORE.INTRA.POLAR.0>
-1.76436

>  <SCORE.INTRA.REPUL>
0

>  <SCORE.INTRA.REPUL.0>
0

>  <SCORE.INTRA.SOLV>
-1.882

>  <SCORE.INTRA.SOLV.lig_0>
-148.643

>  <SCORE.INTRA.VDW>
2.01114

>  <SCORE.INTRA.VDW.0>
-4.83512

>  <SCORE.INTRA.norm>
0.0228267

>  <SCORE.RESTR>
18.1414

>  <SCORE.RESTR.CAVITY>
18.1414

>  <SCORE.RESTR.norm>
0.431939

>  <SCORE.SYSTEM>
0

>  <SCORE.SYSTEM.CONST>
0

>  <SCORE.SYSTEM.DIHEDRAL>
0

>  <SCORE.SYSTEM.SOLV>
0

>  <SCORE.SYSTEM.norm>
0

>  <SCORE.heavy>
42

>  <SCORE.norm>
-0.272685

>  <RMSD>
5.303

$$$$
1j7t
 OpenBabel11021811393D
libRbt.so/2013.1/901 2013/11/27
 42 45  0  0  0  0  0  0  0  0999 V2000
   32.7117    7.0607   54.2741 C   0  0  2  0  0  0  0  0  0  0  0  0
   32.0401    6.0764   53.4480 O   0  0  0  0  0  0  0  0  0  0  0  0
   34.2402    6.8380   54.0895 C   0  0  2  0  0  0  0  0  0  0  0  0
   34.6983    6.8379   52.6704 N   0  3  0  0  0  0  0  0  0  0  0  0
   34.6029    5.4697   54.7068 C   0  0  1  0  0  0  0  0  0  0  0  0
   35.9750    5.2212   54.5841 O   0  0  0  0  0  0  0  0  0  0  0  0
   34.1718    5.4268   56.1921 C   0  0  2  0  0  0  0  0  0  0  0  0
   34.5144    4.1888   56.7829 O   0  0  0  0  0  0  0  0  0  0  0  0
   32.6754    5.6307   56.2990 C   0  0  2  0  0  0  0  0  0  0  0  0
   32.3218    6.8551   55.6683 O   0  0  0  0  0  0  0  0  0  0  0  0
   32.1900    5.7192   57.7285 C   0  0  0  0  0  0  0  0  0  0  0  0
   32.6901    6.9011   58.3238 O   0  0  0  0  0  0  0  0  0  0  0  0
   29.2877    8.0426   50.9169 C   0  0  2  0  0  0  0  0  0  0  0  0
   28.0349    8.4346   50.2701 N   0  3  0  0  0  0  0  0  0  0  0  0
   29.5860    6.5332   50.6322 C   0  0  0  0  0  0  0  0  0  0  0  0
   30.8788    6.1038   51.3518 C   0  0  2  0  0  0  0  0  0  0  0  0
   31.1450    4.6772   51.1397 N   0  3  0  0  0  0  0  0  0  0  0  0
   30.7696    6.3854   52.8633 C   0  0  2  0  0  0  0  0  0  0  0  0
   30.4486    7.8607   53.1725 C   0  0  2  0  0  0  0  0  0  0  0  0
   30.2250    7.9302   54.5940 O   0  0  0  0  0  0  0  0  0  0  0  0
   29.1751    8.3063   52.4100 C   0  0  1  0  0  0  0  0  0  0  0  0
   28.9629    9.6741   52.6274 O   0  0  0  0  0  0  0  0  0  0  0  0
   28.9348    7.8377   55.1923 C   0  0  1  0  0  0  0  0  0  0  0  0
   29.1148    7.5679   56.7288 C   0  0  2  0  0  0  0  0  0  0  0  0
   29.2179    6.1945   57.0636 O   0  0  0  0  0  0  0  0  0  0  0  0
   27.8469    8.2505   57.2226 C   0  0  2  0  0  0  0  0  0  0  0  0
   26.6575    7.5101   56.8143 O   0  0  0  0  0  0  0  0  0  0  0  0
   27.8557    9.5660   56.4566 C   0  0  2  0  0  0  0  0  0  0  0  0
   28.2458    9.1170   55.1474 O   0  0  0  0  0  0  0  0  0  0  0  0
   28.8176   10.6566   57.0321 C   0  0  0  0  0  0  0  0  0  0  0  0
   30.1933   10.3038   56.8398 O   0  0  0  0  0  0  0  0  0  0  0  0
   26.3066    6.4456   57.6948 C   0  0  2  0  0  0  0  0  0  0  0  0
   25.5959    5.2321   57.0043 C   0  0  2  0  0  0  0  0  0  0  0  0
   24.3412    5.6225   56.2924 N   0  3  0  0  0  0  0  0  0  0  0  0
   25.3166    4.1699   58.1194 C   0  0  1  0  0  0  0  0  0  0  0  0
   26.6283    3.7267   58.6396 O   0  0  0  0  0  0  0  0  0  0  0  0
   24.4691    4.7558   59.3151 C   0  0  2  0  0  0  0  0  0  0  0  0
   23.1751    5.1324   58.8166 O   0  0  0  0  0  0  0  0  0  0  0  0
   25.2523    5.9970   59.9134 C   0  0  1  0  0  0  0  0  0  0  0  0
   25.4645    6.9546   58.8218 O   0  0  0  0  0  0  0  0  0  0  0  0
   24.5392    6.6986   61.0916 C   0  0  0  0  0  0  0  0  0  0  0  0
   25.2406    7.9235   61.5631 N   0  3  0  0  0  0  0  0  0  0  0  0
  1  2  1  6  0  0  0
  1  3  1  0  0  0  0
  1 10  1  0  0  0  0
  3  4  1  6  0  0  0
  3  5  1  0  0  0  0
  5  6  1  1  0  0  0
  5  7  1  0  0  0  0
  7  8  1  6  0  0  0
  7  9  1  0  0  0  0
  9 10  1  0  0  0  0
  9 11  1  1  0  0  0
 11 12  1  0  0  0  0
 13 14  1  6  0  0  0
 13 15  1  0  0  0  0
 13 21  1  0  0  0  0
 15 16  1  0  0  0  0
 16 17  1  1  0  0  0
 16 18  1  0  0  0  0
 18  2  1  1  0  0  0
 18 19  1  0  0  0  0
 19 20  1  1  0  0  0
 19 21  1  0  0  0  0
 21 22  1  6  0  0  0
 23 20  1  6  0  0  0
 23 24  1  0  0  0  0
 23 29  1  0  0  0  0
 24 25  1  6  0  0  0
 24 26  1  0  0  0  0
 26 27  1  6  0  0  0
 26 28  1  0  0  0  0
 28 29  1  0  0  0  0
 28 30  1  1  0  0  0
 30 31  1  0  0  0  0
 32 27  1  6  0  0  0
 32 33  1  0  0  0  0
 32 40  1  0  0  0  0
 33 34  1  1  0  0  0
 33 35  1  0  0  0  0
 35 36  1  1  0  0  0
 35 37  1  0  0  0  0
 37 38  1  6  0  0  0
 37 39  1  0  0  0  0
 39 40  1  0  0  0  0
 39 41  1  1  0  0  0
 41 42  1  0  0  0  0
M  CHG  5   4   1  14   1  17   1  34   1  42   1
M  END
>  <CHROM.1>
-148.72320027,127.28702854,80.52913626,60.16741173,-52.01235240,67.08478694
-58.10320509,-20.92376811,58.52673640,-94.15878701,165.00966736,172.29518028
179.15564719,84.87322594,-149.63007107,69.50040677,-75.80961846,52.46923714
59.94030873,-178.53418159,-175.38184713,162.25235510,29.40162578,6.80492637
55.74345973,-0.59116293,-0.18295122,1.86233461

>  <Name>
1j7t

>  <RI>
0

>  <Rbt.Current_Directory>
/home/itssahil/PROJECTS/Mol_Feturizer/New_Systems/rnas/1j7t

>  <Rbt.Executable>
rbdock ($Id: //depot/dev/client3/rdock/2013.1/src/exe/rbdock.cxx#4 $)

>  <Rbt.Library>
libRbt.so (2013.1, Build901 2013/11/27)

>  <Rbt.Parameter_File>
/export/apps/rDock/src/rDock_2013.1_src/data/scripts/dock_solv.prm

>  <Rbt.Receptor>
prm/pocket_docking_3.prm

>  <SCORE>
-37.6078

>  <SCORE.INTER>
-31.7031

>  <SCORE.INTER.CONST>
1

>  <SCORE.INTER.POLAR>
-5.59508

>  <SCORE.INTER.ROT>
9

>  <SCORE.INTER.SOLV>
23.9384

>  <SCORE.INTER.VDW>
-20.0646

>  <SCORE.INTER.norm>
-0.754835

>  <SCORE.INTRA>
-6.6589

>  <SCORE.INTRA.DIHEDRAL>
-16.4331

>  <SCORE.INTRA.DIHEDRAL.0>
46.2143

>  <SCORE.INTRA.POLAR>
0.0752347

>  <SCORE.INTRA.POLAR.0>
-1.76436

>  <SCORE.INTRA.REPUL>
0

>  <SCORE.INTRA.REPUL.0>
0

>  <SCORE.INTRA.SOLV>
-4.17713

>  <SCORE.INTRA.SOLV.lig_0>
-148.643

>  <SCORE.INTRA.VDW>
3.39042

>  <SCORE.INTRA.VDW.0>
-4.83512

>  <SCORE.INTRA.norm>
-0.158545

>  <SCORE.RESTR>
0.754217

>  <SCORE.RESTR.CAVITY>
0.754217

>  <SCORE.RESTR.norm>
0.0179575

>  <SCORE.SYSTEM>
0

>  <SCORE.SYSTEM.CONST>
0

>  <SCORE.SYSTEM.DIHEDRAL>
0

>  <SCORE.SYSTEM.SOLV>
0

>  <SCORE.SYSTEM.norm>
0

>  <SCORE.heavy>
42

>  <SCORE.norm>
-0.895423

>  <RMSD>
5.320

$$$$
1j7t
 OpenBabel11021811393D
libRbt.so/2013.1/901 2013/11/27
 42 45  0  0  0  0  0  0  0  0999 V2000
   31.3176    7.5758   52.4511 C   0  0  2  0  0  0  0  0  0  0  0  0
   30.4631    7.0304   51.4144 O   0  0  0  0  0  0  0  0  0  0  0  0
   32.4560    8.3566   51.7338 C   0  0  2  0  0  0  0  0  0  0  0  0
   31.9841    9.3754   50.7525 N   0  3  0  0  0  0  0  0  0  0  0  0
   33.3328    7.3360   50.9758 C   0  0  1  0  0  0  0  0  0  0  0  0
   34.3880    7.9823   50.3212 O   0  0  0  0  0  0  0  0  0  0  0  0
   33.8721    6.2681   51.9566 C   0  0  2  0  0  0  0  0  0  0  0  0
   34.6959    5.3350   51.2859 O   0  0  0  0  0  0  0  0  0  0  0  0
   32.7166    5.5348   52.6041 C   0  0  2  0  0  0  0  0  0  0  0  0
   31.8629    6.4749   53.2440 O   0  0  0  0  0  0  0  0  0  0  0  0
   33.1584    4.5524   53.6656 C   0  0  0  0  0  0  0  0  0  0  0  0
   33.9402    5.2248   54.6341 O   0  0  0  0  0  0  0  0  0  0  0  0
   26.5058    5.5564   51.2923 C   0  0  2  0  0  0  0  0  0  0  0  0
   25.3096    4.7701   51.5960 N   0  3  0  0  0  0  0  0  0  0  0  0
   27.6472    4.6160   50.7811 C   0  0  0  0  0  0  0  0  0  0  0  0
   28.9240    5.4334   50.5067 C   0  0  2  0  0  0  0  0  0  0  0  0
   30.0210    4.5597   50.0777 N   0  3  0  0  0  0  0  0  0  0  0  0
   29.3484    6.2051   51.7717 C   0  0  2  0  0  0  0  0  0  0  0  0
   28.2326    7.1195   52.3138 C   0  0  2  0  0  0  0  0  0  0  0  0
   28.7186    7.6418   53.5654 O   0  0  0  0  0  0  0  0  0  0  0  0
   26.9336    6.3062   52.5439 C   0  0  1  0  0  0  0  0  0  0  0  0
   25.9092    7.1763   52.9394 O   0  0  0  0  0  0  0  0  0  0  0  0
   28.5481    6.9764   54.8142 C   0  0  1  0  0  0  0  0  0  0  0  0
   29.4538    7.6833   55.8848 C   0  0  2  0  0  0  0  0  0  0  0  0
   30.7745    7.1729   55.9486 O   0  0  0  0  0  0  0  0  0  0  0  0
   28.6019    7.4021   57.1146 C   0  0  2  0  0  0  0  0  0  0  0  0
   28.6102    5.9811   57.4467 O   0  0  0  0  0  0  0  0  0  0  0  0
   27.2000    7.7553   56.6379 C   0  0  2  0  0  0  0  0  0  0  0  0
   27.2008    7.1653   55.3266 O   0  0  0  0  0  0  0  0  0  0  0  0
   26.8798    9.2859   56.6109 C   0  0  0  0  0  0  0  0  0  0  0  0
   27.8294   10.0114   55.8197 O   0  0  0  0  0  0  0  0  0  0  0  0
   29.8257    5.5314   58.0398 C   0  0  2  0  0  0  0  0  0  0  0  0
   29.8711    3.9979   58.3573 C   0  0  2  0  0  0  0  0  0  0  0  0
   28.7697    3.5607   59.2678 N   0  3  0  0  0  0  0  0  0  0  0  0
   31.2784    3.6993   58.9738 C   0  0  1  0  0  0  0  0  0  0  0  0
   32.2851    4.0054   57.9344 O   0  0  0  0  0  0  0  0  0  0  0  0
   31.5810    4.5813   60.2474 C   0  0  2  0  0  0  0  0  0  0  0  0
   30.6360    4.2398   61.2746 O   0  0  0  0  0  0  0  0  0  0  0  0
   31.4692    6.1061   59.8296 C   0  0  1  0  0  0  0  0  0  0  0  0
   30.1260    6.3165   59.2775 O   0  0  0  0  0  0  0  0  0  0  0  0
   31.7232    7.1069   60.9797 C   0  0  0  0  0  0  0  0  0  0  0  0
   30.4836    7.7616   61.4790 N   0  3  0  0  0  0  0  0  0  0  0  0
  1  2  1  6  0  0  0
  1  3  1  0  0  0  0
  1 10  1  0  0  0  0
  3  4  1  6  0  0  0
  3  5  1  0  0  0  0
  5  6  1  1  0  0  0
  5  7  1  0  0  0  0
  7  8  1  6  0  0  0
  7  9  1  0  0  0  0
  9 10  1  0  0  0  0
  9 11  1  1  0  0  0
 11 12  1  0  0  0  0
 13 14  1  1  0  0  0
 13 15  1  0  0  0  0
 13 21  1  0  0  0  0
 15 16  1  0  0  0  0
 16 17  1  1  0  0  0
 16 18  1  0  0  0  0
 18  2  1  6  0  0  0
 18 19  1  0  0  0  0
 19 20  1  1  0  0  0
 19 21  1  0  0  0  0
 21 22  1  6  0  0  0
 23 20  1  6  0  0  0
 23 24  1  0  0  0  0
 23 29  1  0  0  0  0
 24 25  1  1  0  0  0
 24 26  1  0  0  0  0
 26 27  1  6  0  0  0
 26 28  1  0  0  0  0
 28 29  1  0  0  0  0
 28 30  1  6  0  0  0
 30 31  1  0  0  0  0
 32 27  1  1  0  0  0
 32 33  1  0  0  0  0
 32 40  1  0  0  0  0
 33 34  1  1  0  0  0
 33 35  1  0  0  0  0
 35 36  1  6  0  0  0
 35 37  1  0  0  0  0
 37 38  1  1  0  0  0
 37 39  1  0  0  0  0
 39 40  1  0  0  0  0
 39 41  1  1  0  0  0
 41 42  1  0  0  0  0
M  CHG  5   4   1  14   1  17   1  34   1  42   1
M  END
>  <CHROM.1>
177.33075175,-162.33483604,-178.12983784,66.90155237,57.70560726,55.62092313
-179.21380404,-174.56941490,-62.87488968,-87.51855601,168.36647675,56.50866932
59.17786484,74.38096585,-177.97145428,55.67156418,-178.10403429,62.44585547
-59.53949293,-172.08512222,-105.88514568,-150.21776309,30.13043484,6.35581280
54.86213800,-1.52169988,-0.12367862,1.67664257

>  <Name>
1j7t

>  <RI>
0

>  <Rbt.Current_Directory>
/home/itssahil/PROJECTS/Mol_Feturizer/New_Systems/rnas/1j7t

>  <Rbt.Executable>
rbdock ($Id: //depot/dev/client3/rdock/2013.1/src/exe/rbdock.cxx#4 $)

>  <Rbt.Library>
libRbt.so (2013.1, Build901 2013/11/27)

>  <Rbt.Parameter_File>
/export/apps/rDock/src/rDock_2013.1_src/data/scripts/dock_solv.prm

>  <Rbt.Receptor>
prm/pocket_docking_5.prm

>  <SCORE>
-58.2582

>  <SCORE.INTER>
-41.025

>  <SCORE.INTER.CONST>
1

>  <SCORE.INTER.POLAR>
-6.62175

>  <SCORE.INTER.ROT>
9

>  <SCORE.INTER.SOLV>
22.4958

>  <SCORE.INTER.VDW>
-22.3761

>  <SCORE.INTER.norm>
-0.976786

>  <SCORE.INTRA>
-17.2332

>  <SCORE.INTRA.DIHEDRAL>
-31.9973

>  <SCORE.INTRA.DIHEDRAL.0>
46.2143

>  <SCORE.INTRA.POLAR>
0.0216248

>  <SCORE.INTRA.POLAR.0>
-1.76436

>  <SCORE.INTRA.REPUL>
0

>  <SCORE.INTRA.REPUL.0>
0

>  <SCORE.INTRA.SOLV>
-1.45689

>  <SCORE.INTRA.SOLV.lig_0>
-148.643

>  <SCORE.INTRA.VDW>
-0.579668

>  <SCORE.INTRA.VDW.0>
-4.83512

>  <SCORE.INTRA.norm>
-0.410315

>  <SCORE.RESTR>
0

>  <SCORE.RESTR.CAVITY>
0

>  <SCORE.RESTR.norm>
0

>  <SCORE.SYSTEM>
0

>  <SCORE.SYSTEM.CONST>
0

>  <SCORE.SYSTEM.DIHEDRAL>
0

>  <SCORE.SYSTEM.SOLV>
0

>  <SCORE.SYSTEM.norm>
0

>  <SCORE.heavy>
42

>  <SCORE.norm>
-1.3871

>  <RMSD>
5.320

$$$$
1j7t
 OpenBabel11021811393D
libRbt.so/2013.1/901 2013/11/27
 42 45  0  0  0  0  0  0  0  0999 V2000
   33.3187    5.3481   53.0217 C   0  0  2  0  0  0  0  0  0  0  0  0
   32.6171    5.4751   51.7591 O   0  0  0  0  0  0  0  0  0  0  0  0
   34.3620    6.5008   53.0765 C   0  0  2  0  0  0  0  0  0  0  0  0
   33.7948    7.8600   52.8434 N   0  3  0  0  0  0  0  0  0  0  0  0
   35.4258    6.2360   51.9888 C   0  0  1  0  0  0  0  0  0  0  0  0
   36.4042    7.2370   52.0015 O   0  0  0  0  0  0  0  0  0  0  0  0
   36.0671    4.8442   52.2016 C   0  0  2  0  0  0  0  0  0  0  0  0
   37.0603    4.5904   51.2278 O   0  0  0  0  0  0  0  0  0  0  0  0
   35.0035    3.7700   52.1175 C   0  0  2  0  0  0  0  0  0  0  0  0
   33.9814    4.0455   53.0669 O   0  0  0  0  0  0  0  0  0  0  0  0
   35.5309    2.3879   52.4316 C   0  0  0  0  0  0  0  0  0  0  0  0
   36.0318    2.3640   53.7544 O   0  0  0  0  0  0  0  0  0  0  0  0
   28.7762    4.9006   50.0961 C   0  0  2  0  0  0  0  0  0  0  0  0
   27.4274    4.3800   49.8699 N   0  3  0  0  0  0  0  0  0  0  0  0
   29.8283    3.7582   49.9058 C   0  0  0  0  0  0  0  0  0  0  0  0
   31.2457    4.2904   50.1910 C   0  0  2  0  0  0  0  0  0  0  0  0
   32.2398    3.2190   50.0696 N   0  3  0  0  0  0  0  0  0  0  0  0
   31.3159    4.8964   51.6065 C   0  0  2  0  0  0  0  0  0  0  0  0
   30.2710    6.0067   51.8314 C   0  0  2  0  0  0  0  0  0  0  0  0
   30.3556    6.3566   53.2263 O   0  0  0  0  0  0  0  0  0  0  0  0
   28.8502    5.4851   51.4978 C   0  0  1  0  0  0  0  0  0  0  0  0
   27.9338    6.5387   51.6127 O   0  0  0  0  0  0  0  0  0  0  0  0
   29.7922    5.5671   54.2705 C   0  0  1  0  0  0  0  0  0  0  0  0
   30.1929    6.2029   55.6494 C   0  0  2  0  0  0  0  0  0  0  0  0
   31.4337    5.7422   56.1565 O   0  0  0  0  0  0  0  0  0  0  0  0
   28.9755    5.7697   56.4540 C   0  0  2  0  0  0  0  0  0  0  0  0
   28.9662    4.3247   56.6577 O   0  0  0  0  0  0  0  0  0  0  0  0
   27.8207    6.1108   55.5226 C   0  0  2  0  0  0  0  0  0  0  0  0
   28.3409    5.6510   54.2633 O   0  0  0  0  0  0  0  0  0  0  0  0
   27.4214    7.6226   55.4949 C   0  0  0  0  0  0  0  0  0  0  0  0
   26.6565    7.9466   54.3271 O   0  0  0  0  0  0  0  0  0  0  0  0
   27.7445    3.8225   57.1930 C   0  0  2  0  0  0  0  0  0  0  0  0
   27.3961    4.3427   58.6291 C   0  0  2  0  0  0  0  0  0  0  0  0
   28.4577    4.0295   59.6333 N   0  3  0  0  0  0  0  0  0  0  0  0
   26.0234    3.7047   59.0269 C   0  0  1  0  0  0  0  0  0  0  0  0
   25.0129    4.2119   58.0733 O   0  0  0  0  0  0  0  0  0  0  0  0
   26.0441    2.1283   58.9523 C   0  0  2  0  0  0  0  0  0  0  0  0
   26.9857    1.6373   59.9203 O   0  0  0  0  0  0  0  0  0  0  0  0
   26.4453    1.7092   57.4774 C   0  0  1  0  0  0  0  0  0  0  0  0
   27.7428    2.3264   57.1793 O   0  0  0  0  0  0  0  0  0  0  0  0
   26.5272    0.1836   57.2435 C   0  0  0  0  0  0  0  0  0  0  0  0
   25.1994   -0.4884   57.2507 N   0  3  0  0  0  0  0  0  0  0  0  0
  1  2  1  6  0  0  0
  1  3  1  0  0  0  0
  1 10  1  0  0  0  0
  3  4  1  6  0  0  0
  3  5  1  0  0  0  0
  5  6  1  1  0  0  0
  5  7  1  0  0  0  0
  7  8  1  6  0  0  0
  7  9  1  0  0  0  0
  9 10  1  0  0  0  0
  9 11  1  1  0  0  0
 11 12  1  0  0  0  0
 13 14  1  1  0  0  0
 13 15  1  0  0  0  0
 13 21  1  0  0  0  0
 15 16  1  0  0  0  0
 16 17  1  1  0  0  0
 16 18  1  0  0  0  0
 18  2  1  6  0  0  0
 18 19  1  0  0  0  0
 19 20  1  1  0  0  0
 19 21  1  0  0  0  0
 21 22  1  6  0  0  0
 23 20  1  6  0  0  0
 23 24  1  0  0  0  0
 23 29  1  0  0  0  0
 24 25  1  1  0  0  0
 24 26  1  0  0  0  0
 26 27  1  6  0  0  0
 26 28  1  0  0  0  0
 28 29  1  0  0  0  0
 28 30  1  6  0  0  0
 30 31  1  0  0  0  0
 32 27  1  1  0  0  0
 32 33  1  0  0  0  0
 32 40  1  0  0  0  0
 33 34  1  1  0  0  0
 33 35  1  0  0  0  0
 35 36  1  6  0  0  0
 35 37  1  0  0  0  0
 37 38  1  1  0  0  0
 37 39  1  0  0  0  0
 39 40  1  0  0  0  0
 39 41  1  1  0  0  0
 41 42  1  0  0  0  0
M  CHG  5   4   1  14   1  17   1  34   1  42   1
M  END
>  <CHROM.1>
-157.67486942,-140.49496049,104.86466655,67.98560161,-44.96152557,61.09710703
-58.71190329,91.86720147,-50.09402967,-77.26468344,175.23726708,174.27758768
-171.00653290,-169.44783585,-63.57155065,161.34341505,-162.93684173,-53.02721816
70.31973983,-103.36387017,70.68322473,-67.39173418,30.27139322,4.59023317
54.26642674,-0.67424945,-0.13794441,2.06329614

>  <Name>
1j7t

>  <RI>
0

>  <Rbt.Current_Directory>
/home/itssahil/PROJECTS/Mol_Feturizer/New_Systems/rnas/1j7t

>  <Rbt.Executable>
rbdock ($Id: //depot/dev/client3/rdock/2013.1/src/exe/rbdock.cxx#4 $)

>  <Rbt.Library>
libRbt.so (2013.1, Build901 2013/11/27)

>  <Rbt.Parameter_File>
/export/apps/rDock/src/rDock_2013.1_src/data/scripts/dock_solv.prm

>  <Rbt.Receptor>
prm/pocket_docking_5.prm

>  <SCORE>
-32.2244

>  <SCORE.INTER>
-25.5757

>  <SCORE.INTER.CONST>
1

>  <SCORE.INTER.POLAR>
-5.55737

>  <SCORE.INTER.ROT>
9

>  <SCORE.INTER.SOLV>
13.6317

>  <SCORE.INTER.VDW>
-12.6698

>  <SCORE.INTER.norm>
-0.608946

>  <SCORE.INTRA>
-6.6487

>  <SCORE.INTRA.DIHEDRAL>
-19.1256

>  <SCORE.INTRA.DIHEDRAL.0>
46.2143

>  <SCORE.INTRA.POLAR>
0.961351

>  <SCORE.INTRA.POLAR.0>
-1.76436

>  <SCORE.INTRA.REPUL>
0

>  <SCORE.INTRA.REPUL.0>
0

>  <SCORE.INTRA.SOLV>
-3.45676

>  <SCORE.INTRA.SOLV.lig_0>
-148.643

>  <SCORE.INTRA.VDW>
1.37389

>  <SCORE.INTRA.VDW.0>
-4.83512

>  <SCORE.INTRA.norm>
-0.158302

>  <SCORE.RESTR>
0

>  <SCORE.RESTR.CAVITY>
0

>  <SCORE.RESTR.norm>
0

>  <SCORE.SYSTEM>
0

>  <SCORE.SYSTEM.CONST>
0

>  <SCORE.SYSTEM.DIHEDRAL>
0

>  <SCORE.SYSTEM.SOLV>
0

>  <SCORE.SYSTEM.norm>
0

>  <SCORE.heavy>
42

>  <SCORE.norm>
-0.767248

>  <RMSD>
5.322

$$$$
1j7t
 OpenBabel11021811393D
libRbt.so/2013.1/901 2013/11/27
 42 45  0  0  0  0  0  0  0  0999 V2000
   32.3491    5.7002   52.8043 C   0  0  2  0  0  0  0  0  0  0  0  0
   32.1217    6.0808   54.1849 O   0  0  0  0  0  0  0  0  0  0  0  0
   33.1130    6.8765   52.1315 C   0  0  2  0  0  0  0  0  0  0  0  0
   34.3521    7.2984   52.8458 N   0  3  0  0  0  0  0  0  0  0  0  0
   32.1622    8.0918   52.0694 C   0  0  1  0  0  0  0  0  0  0  0  0
   32.7928    9.1807   51.4562 O   0  0  0  0  0  0  0  0  0  0  0  0
   30.8673    7.7142   51.3117 C   0  0  2  0  0  0  0  0  0  0  0  0
   29.9910    8.8203   51.2248 O   0  0  0  0  0  0  0  0  0  0  0  0
   30.1653    6.5798   52.0275 C   0  0  2  0  0  0  0  0  0  0  0  0
   31.0579    5.4802   52.1543 O   0  0  0  0  0  0  0  0  0  0  0  0
   28.9496    6.0724   51.2847 C   0  0  0  0  0  0  0  0  0  0  0  0
   29.3564    5.4684   50.0719 O   0  0  0  0  0  0  0  0  0  0  0  0
   30.4250    2.4324   55.4725 C   0  0  2  0  0  0  0  0  0  0  0  0
   29.8491    1.3993   56.3342 N   0  3  0  0  0  0  0  0  0  0  0  0
   31.8863    2.7551   55.9295 C   0  0  0  0  0  0  0  0  0  0  0  0
   32.4791    3.8769   55.0556 C   0  0  2  0  0  0  0  0  0  0  0  0
   33.8300    4.2297   55.5047 N   0  3  0  0  0  0  0  0  0  0  0  0
   31.5795    5.1275   55.1061 C   0  0  2  0  0  0  0  0  0  0  0  0
   30.1260    4.8329   54.6870 C   0  0  2  0  0  0  0  0  0  0  0  0
   29.3867    6.0442   54.9349 O   0  0  0  0  0  0  0  0  0  0  0  0
   29.5460    3.6715   55.5336 C   0  0  1  0  0  0  0  0  0  0  0  0
   28.2631    3.3568   55.0664 O   0  0  0  0  0  0  0  0  0  0  0  0
   29.3654    6.7082   56.1958 C   0  0  1  0  0  0  0  0  0  0  0  0
   28.5110    8.0184   56.0562 C   0  0  2  0  0  0  0  0  0  0  0  0
   29.2542    9.1470   55.6285 O   0  0  0  0  0  0  0  0  0  0  0  0
   27.9962    8.0993   57.4865 C   0  0  2  0  0  0  0  0  0  0  0  0
   29.0755    8.4127   58.4173 O   0  0  0  0  0  0  0  0  0  0  0  0
   27.5505    6.6702   57.7626 C   0  0  2  0  0  0  0  0  0  0  0  0
   28.6381    5.9285   57.1840 O   0  0  0  0  0  0  0  0  0  0  0  0
   26.1637    6.2833   57.1518 C   0  0  0  0  0  0  0  0  0  0  0  0
   25.7750    4.9542   57.5212 O   0  0  0  0  0  0  0  0  0  0  0  0
   29.3786    9.8025   58.5070 C   0  0  2  0  0  0  0  0  0  0  0  0
   30.6075   10.1473   59.4155 C   0  0  2  0  0  0  0  0  0  0  0  0
   30.4475    9.6584   60.8186 N   0  3  0  0  0  0  0  0  0  0  0  0
   30.7919   11.7007   59.3663 C   0  0  1  0  0  0  0  0  0  0  0  0
   31.1123   12.0589   57.9675 O   0  0  0  0  0  0  0  0  0  0  0  0
   29.4902   12.4791   59.8032 C   0  0  2  0  0  0  0  0  0  0  0  0
   29.2150   12.1728   61.1798 O   0  0  0  0  0  0  0  0  0  0  0  0
   28.3041   12.0297   58.8528 C   0  0  1  0  0  0  0  0  0  0  0  0
   28.1783   10.5717   58.9610 O   0  0  0  0  0  0  0  0  0  0  0  0
   26.9444   12.6952   59.1647 C   0  0  0  0  0  0  0  0  0  0  0  0
   26.4147   12.3553   60.5132 N   0  3  0  0  0  0  0  0  0  0  0  0
  1  2  1  1  0  0  0
  1  3  1  0  0  0  0
  1 10  1  0  0  0  0
  3  4  1  1  0  0  0
  3  5  1  0  0  0  0
  5  6  1  6  0  0  0
  5  7  1  0  0  0  0
  7  8  1  1  0  0  0
  7  9  1  0  0  0  0
  9 10  1  0  0  0  0
  9 11  1  6  0  0  0
 11 12  1  0  0  0  0
 13 14  1  1  0  0  0
 13 15  1  0  0  0  0
 13 21  1  0  0  0  0
 15 16  1  0  0  0  0
 16 17  1  1  0  0  0
 16 18  1  0  0  0  0
 18  2  1  6  0  0  0
 18 19  1  0  0  0  0
 19 20  1  1  0  0  0
 19 21  1  0  0  0  0
 21 22  1  6  0  0  0
 23 20  1  6  0  0  0
 23 24  1  0  0  0  0
 23 29  1  0  0  0  0
 24 25  1  1  0  0  0
 24 26  1  0  0  0  0
 26 27  1  1  0  0  0
 26 28  1  0  0  0  0
 28 29  1  0  0  0  0
 28 30  1  6  0  0  0
 30 31  1  0  0  0  0
 32 27  1  1  0  0  0
 32 33  1  0  0  0  0
 32 40  1  0  0  0  0
 33 34  1  1  0  0  0
 33 35  1  0  0  0  0
 35 36  1  6  0  0  0
 35 37  1  0  0  0  0
 37 38  1  1  0  0  0
 37 39  1  0  0  0  0
 39 40  1  0  0  0  0
 39 41  1  1  0  0  0
 41 42  1  0  0  0  0
M  CHG  5   4   1  14   1  17   1  34   1  42   1
M  END
>  <CHROM.1>
-172.40489396,54.25467362,167.10992987,-53.63997592,177.20663053,66.25127535
-51.40007287,56.58410796,65.19449420,-54.26780280,177.40869217,-68.48632491
62.70593689,82.74527354,-175.44357586,-176.43873498,175.90618147,-40.82619833
83.36453742,46.75013200,-63.12519389,164.87130655,29.94405840,7.41593627
55.84358322,-1.02516462,1.00622369,0.35030241

>  <Name>
1j7t

>  <RI>
0

>  <Rbt.Current_Directory>
/home/itssahil/PROJECTS/Mol_Feturizer/New_Systems/rnas/1j7t

>  <Rbt.Executable>
rbdock ($Id: //depot/dev/client3/rdock/2013.1/src/exe/rbdock.cxx#4 $)

>  <Rbt.Library>
libRbt.so (2013.1, Build901 2013/11/27)

>  <Rbt.Parameter_File>
/export/apps/rDock/src/rDock_2013.1_src/data/scripts/dock_solv.prm

>  <Rbt.Receptor>
prm/pocket_docking_8.prm

>  <SCORE>
-51.7342

>  <SCORE.INTER>
-36.1871

>  <SCORE.INTER.CONST>
1

>  <SCORE.INTER.POLAR>
-7.06781

>  <SCORE.INTER.ROT>
9

>  <SCORE.INTER.SOLV>
14.7473

>  <SCORE.INTER.VDW>
-15.0811

>  <SCORE.INTER.norm>
-0.861597

>  <SCORE.INTRA>
-15.5471

>  <SCORE.INTRA.DIHEDRAL>
-36.233

>  <SCORE.INTRA.DIHEDRAL.0>
46.2143

>  <SCORE.INTRA.POLAR>
0.912976

>  <SCORE.INTRA.POLAR.0>
-1.76436

>  <SCORE.INTRA.REPUL>
0

>  <SCORE.INTRA.REPUL.0>
0

>  <SCORE.INTRA.SOLV>
-2.04637

>  <SCORE.INTRA.SOLV.lig_0>
-148.643

>  <SCORE.INTRA.VDW>
0.488513

>  <SCORE.INTRA.VDW.0>
-4.83512

>  <SCORE.INTRA.norm>
-0.370168

>  <SCORE.RESTR>
0

>  <SCORE.RESTR.CAVITY>
0

>  <SCORE.RESTR.norm>
0

>  <SCORE.SYSTEM>
0

>  <SCORE.SYSTEM.CONST>
0

>  <SCORE.SYSTEM.DIHEDRAL>
0

>  <SCORE.SYSTEM.SOLV>
0

>  <SCORE.SYSTEM.norm>
0

>  <SCORE.heavy>
42

>  <SCORE.norm>
-1.23177

>  <RMSD>
5.323

$$$$
1j7t
 OpenBabel11021811393D
libRbt.so/2013.1/901 2013/11/27
 42 45  0  0  0  0  0  0  0  0999 V2000
   30.1861   10.9986   50.3019 C   0  0  2  0  0  0  0  0  0  0  0  0
   31.1686   10.0215   49.8746 O   0  0  0  0  0  0  0  0  0  0  0  0
   28.9727   10.8707   49.3369 C   0  0  2  0  0  0  0  0  0  0  0  0
   28.4249    9.4895   49.2116 N   0  3  0  0  0  0  0  0  0  0  0  0
   29.4255   11.3322   47.9344 C   0  0  1  0  0  0  0  0  0  0  0  0
   28.3657   11.2541   47.0233 O   0  0  0  0  0  0  0  0  0  0  0  0
   29.9794   12.7751   48.0039 C   0  0  2  0  0  0  0  0  0  0  0  0
   30.3803   13.2254   46.7250 O   0  0  0  0  0  0  0  0  0  0  0  0
   31.1664   12.8253   48.9424 C   0  0  2  0  0  0  0  0  0  0  0  0
   30.7775   12.3333   50.2186 O   0  0  0  0  0  0  0  0  0  0  0  0
   31.6939   14.2264   49.1564 C   0  0  0  0  0  0  0  0  0  0  0  0
   32.9623   14.1624   49.7794 O   0  0  0  0  0  0  0  0  0  0  0  0
   33.1316    6.6836   51.5637 C   0  0  2  0  0  0  0  0  0  0  0  0
   33.8675    5.8380   52.5044 N   0  3  0  0  0  0  0  0  0  0  0  0
   34.0108    7.9089   51.1468 C   0  0  0  0  0  0  0  0  0  0  0  0
   33.2217    8.8276   50.1944 C   0  0  2  0  0  0  0  0  0  0  0  0
   34.0120   10.0099   49.8358 N   0  3  0  0  0  0  0  0  0  0  0  0
   31.9014    9.2742   50.8524 C   0  0  2  0  0  0  0  0  0  0  0  0
   31.0267    8.0864   51.2985 C   0  0  2  0  0  0  0  0  0  0  0  0
   29.9212    8.6566   52.0253 O   0  0  0  0  0  0  0  0  0  0  0  0
   31.8359    7.1366   52.2177 C   0  0  1  0  0  0  0  0  0  0  0  0
   31.0529    6.0166   52.5267 O   0  0  0  0  0  0  0  0  0  0  0  0
   30.0670    9.3477   53.2632 C   0  0  1  0  0  0  0  0  0  0  0  0
   29.3268    8.5308   54.3816 C   0  0  2  0  0  0  0  0  0  0  0  0
   27.9540    8.8561   54.5186 O   0  0  0  0  0  0  0  0  0  0  0  0
   30.1981    8.9347   55.5628 C   0  0  2  0  0  0  0  0  0  0  0  0
   30.0132   10.3435   55.8956 O   0  0  0  0  0  0  0  0  0  0  0  0
   31.6069    8.7735   55.0092 C   0  0  2  0  0  0  0  0  0  0  0  0
   31.4534    9.3487   53.7003 O   0  0  0  0  0  0  0  0  0  0  0  0
   32.1321    7.3011   54.9636 C   0  0  0  0  0  0  0  0  0  0  0  0
   33.5462    7.2504   54.7364 O   0  0  0  0  0  0  0  0  0  0  0  0
   29.8187   10.5899   57.2859 C   0  0  2  0  0  0  0  0  0  0  0  0
   28.3457   10.9393   57.6891 C   0  0  2  0  0  0  0  0  0  0  0  0
   27.8153   12.1369   56.9694 N   0  3  0  0  0  0  0  0  0  0  0  0
   28.3327   11.1490   59.2400 C   0  0  1  0  0  0  0  0  0  0  0  0
   28.7078    9.8591   59.8589 O   0  0  0  0  0  0  0  0  0  0  0  0
   29.3576   12.2535   59.7102 C   0  0  2  0  0  0  0  0  0  0  0  0
   28.9566   13.5158   59.1529 O   0  0  0  0  0  0  0  0  0  0  0  0
   30.8028   11.8268   59.2189 C   0  0  1  0  0  0  0  0  0  0  0  0
   30.7449   11.6642   57.7617 O   0  0  0  0  0  0  0  0  0  0  0  0
   31.9261   12.8219   59.5887 C   0  0  0  0  0  0  0  0  0  0  0  0
   32.0636   13.0413   61.0542 N   0  3  0  0  0  0  0  0  0  0  0  0
  1  2  1  6  0  0  0
  1  3  1  0  0  0  0
  1 10  1  0  0  0  0
  3  4  1  6  0  0  0
  3  5  1  0  0  0  0
  5  6  1  6  0  0  0
  5  7  1  0  0  0  0
  7  8  1  6  0  0  0
  7  9  1  0  0  0  0
  9 10  1  0  0  0  0
  9 11  1  1  0  0  0
 11 12  1  0  0  0  0
 13 14  1  1  0  0  0
 13 15  1  0  0  0  0
 13 21  1  0  0  0  0
 15 16  1  0  0  0  0
 16 17  1  1  0  0  0
 16 18  1  0  0  0  0
 18  2  1  6  0  0  0
 18 19  1  0  0  0  0
 19 20  1  1  0  0  0
 19 21  1  0  0  0  0
 21 22  1  6  0  0  0
 23 20  1  6  0  0  0
 23 24  1  0  0  0  0
 23 29  1  0  0  0  0
 24 25  1  1  0  0  0
 24 26  1  0  0  0  0
 26 27  1  6  0  0  0
 26 28  1  0  0  0  0
 28 29  1  0  0  0  0
 28 30  1  6  0  0  0
 30 31  1  0  0  0  0
 32 27  1  6  0  0  0
 32 33  1  0  0  0  0
 32 40  1  0  0  0  0
 33 34  1  6  0  0  0
 33 35  1  0  0  0  0
 35 36  1  1  0  0  0
 35 37  1  0  0  0  0
 37 38  1  6  0  0  0
 37 39  1  0  0  0  0
 39 40  1  0  0  0  0
 39 41  1  6  0  0  0
 41 42  1  0  0  0  0
M  CHG  5   4   1  14   1  17   1  34   1  42   1
M  END
>  <CHROM.1>
-139.93081879,-155.43507576,-37.30558162,68.83217568,100.03461277,-166.61914193
60.61136638,-177.55992287,-54.90789932,-65.46024182,-115.43375842,-167.63381231
29.48291923,132.70824178,-105.59387488,-166.34972987,-16.85142539,-64.37430647
-60.83315018,-174.70740752,59.32759837,-129.25402109,30.72858577,10.26807552
53.34034419,1.31459821,1.13942757,-1.39644794

>  <Name>
1j7t

>  <RI>
0

>  <Rbt.Current_Directory>
/home/itssahil/PROJECTS/Mol_Feturizer/New_Systems/rnas/1j7t

>  <Rbt.Executable>
rbdock ($Id: //depot/dev/client3/rdock/2013.1/src/exe/rbdock.cxx#4 $)

>  <Rbt.Library>
libRbt.so (2013.1, Build901 2013/11/27)

>  <Rbt.Parameter_File>
/export/apps/rDock/src/rDock_2013.1_src/data/scripts/dock_solv.prm

>  <Rbt.Receptor>
prm/blind_docking_80.prm

>  <SCORE>
-16.3796

>  <SCORE.INTER>
-35.8088

>  <SCORE.INTER.CONST>
1

>  <SCORE.INTER.POLAR>
-6.98527

>  <SCORE.INTER.ROT>
9

>  <SCORE.INTER.SOLV>
48.4812

>  <SCORE.INTER.VDW>
-26.3487

>  <SCORE.INTER.norm>
-0.85259

>  <SCORE.INTRA>
2.6712

>  <SCORE.INTRA.DIHEDRAL>
3.55628

>  <SCORE.INTRA.DIHEDRAL.0>
46.2143

>  <SCORE.INTRA.POLAR>
-0.0980614

>  <SCORE.INTRA.POLAR.0>
-1.76436

>  <SCORE.INTRA.REPUL>
0

>  <SCORE.INTRA.REPUL.0>
0

>  <SCORE.INTRA.SOLV>
0.535087

>  <SCORE.INTRA.SOLV.lig_0>
-148.643

>  <SCORE.INTRA.VDW>
0.958931

>  <SCORE.INTRA.VDW.0>
-4.83512

>  <SCORE.INTRA.norm>
0.0636001

>  <SCORE.RESTR>
16.758

>  <SCORE.RESTR.CAVITY>
16.758

>  <SCORE.RESTR.norm>
0.399001

>  <SCORE.SYSTEM>
0

>  <SCORE.SYSTEM.CONST>
0

>  <SCORE.SYSTEM.DIHEDRAL>
0

>  <SCORE.SYSTEM.SOLV>
0

>  <SCORE.SYSTEM.norm>
0

>  <SCORE.heavy>
42

>  <SCORE.norm>
-0.389989

>  <RMSD>
5.344

$$$$
1j7t
 OpenBabel11021811393D
libRbt.so/2013.1/901 2013/11/27
 42 45  0  0  0  0  0  0  0  0999 V2000
   30.2170   11.0402   50.3081 C   0  0  2  0  0  0  0  0  0  0  0  0
   31.1701   10.0398   49.8684 O   0  0  0  0  0  0  0  0  0  0  0  0
   28.9798   10.9276   49.3719 C   0  0  2  0  0  0  0  0  0  0  0  0
   28.4021    9.5565   49.2724 N   0  3  0  0  0  0  0  0  0  0  0  0
   29.4097   11.3669   47.9552 C   0  0  1  0  0  0  0  0  0  0  0  0
   28.3282   11.3014   47.0689 O   0  0  0  0  0  0  0  0  0  0  0  0
   29.9934   12.7991   47.9981 C   0  0  2  0  0  0  0  0  0  0  0  0
   30.3739   13.2294   46.7061 O   0  0  0  0  0  0  0  0  0  0  0  0
   31.2020   12.8344   48.9091 C   0  0  2  0  0  0  0  0  0  0  0  0
   30.8325   12.3621   50.1985 O   0  0  0  0  0  0  0  0  0  0  0  0
   31.7617   14.2266   49.0975 C   0  0  0  0  0  0  0  0  0  0  0  0
   30.9062   15.1666   48.4763 O   0  0  0  0  0  0  0  0  0  0  0  0
   33.1480    6.6940   51.5242 C   0  0  2  0  0  0  0  0  0  0  0  0
   33.8911    5.8436   52.4548 N   0  3  0  0  0  0  0  0  0  0  0  0
   34.0231    7.9228   51.1087 C   0  0  0  0  0  0  0  0  0  0  0  0
   33.2266    8.8463   50.1672 C   0  0  2  0  0  0  0  0  0  0  0  0
   34.0132   10.0316   49.8103 N   0  3  0  0  0  0  0  0  0  0  0  0
   31.9103    9.2876   50.8367 C   0  0  2  0  0  0  0  0  0  0  0  0
   31.0399    8.0961   51.2816 C   0  0  2  0  0  0  0  0  0  0  0  0
   29.9387    8.6607   52.0192 O   0  0  0  0  0  0  0  0  0  0  0  0
   31.8563    7.1417   52.1896 C   0  0  1  0  0  0  0  0  0  0  0  0
   31.0766    6.0190   52.4971 O   0  0  0  0  0  0  0  0  0  0  0  0
   30.0936    9.3567   53.2532 C   0  0  1  0  0  0  0  0  0  0  0  0
   29.4547    8.4924   54.3981 C   0  0  2  0  0  0  0  0  0  0  0  0
   28.0714    8.7303   54.5949 O   0  0  0  0  0  0  0  0  0  0  0  0
   30.3487    8.9475   55.5430 C   0  0  2  0  0  0  0  0  0  0  0  0
   30.0902   10.3411   55.8905 O   0  0  0  0  0  0  0  0  0  0  0  0
   31.7399    8.8765   54.9292 C   0  0  2  0  0  0  0  0  0  0  0  0
   31.4947    9.4440   53.6309 O   0  0  0  0  0  0  0  0  0  0  0  0
   32.3540    7.4402   54.8539 C   0  0  0  0  0  0  0  0  0  0  0  0
   32.0067    6.6553   56.0017 O   0  0  0  0  0  0  0  0  0  0  0  0
   29.8985   10.5648   57.2851 C   0  0  2  0  0  0  0  0  0  0  0  0
   28.4196   10.8707   57.7018 C   0  0  2  0  0  0  0  0  0  0  0  0
   27.8537   12.0632   57.0008 N   0  3  0  0  0  0  0  0  0  0  0  0
   28.4114   11.0605   59.2553 C   0  0  1  0  0  0  0  0  0  0  0  0
   28.8237    9.7730   59.8553 O   0  0  0  0  0  0  0  0  0  0  0  0
   29.4104   12.1851   59.7332 C   0  0  2  0  0  0  0  0  0  0  0  0
   28.9733   13.4435   59.1946 O   0  0  0  0  0  0  0  0  0  0  0  0
   30.8629   11.8023   59.2276 C   0  0  1  0  0  0  0  0  0  0  0  0
   30.7997   11.6567   57.7688 O   0  0  0  0  0  0  0  0  0  0  0  0
   31.9625   12.8215   59.6031 C   0  0  0  0  0  0  0  0  0  0  0  0
   32.0396   13.0977   61.0633 N   0  3  0  0  0  0  0  0  0  0  0  0
  1  2  1  6  0  0  0
  1  3  1  0  0  0  0
  1 10  1  0  0  0  0
  3  4  1  6  0  0  0
  3  5  1  0  0  0  0
  5  6  1  6  0  0  0
  5  7  1  0  0  0  0
  7  8  1  6  0  0  0
  7  9  1  0  0  0  0
  9 10  1  0  0  0  0
  9 11  1  1  0  0  0
 11 12  1  0  0  0  0
 13 14  1  1  0  0  0
 13 15  1  0  0  0  0
 13 21  1  0  0  0  0
 15 16  1  0  0  0  0
 16 17  1  1  0  0  0
 16 18  1  0  0  0  0
 18  2  1  6  0  0  0
 18 19  1  0  0  0  0
 19 20  1  1  0  0  0
 19 21  1  0  0  0  0
 21 22  1  6  0  0  0
 23 20  1  6  0  0  0
 23 24  1  0  0  0  0
 23 29  1  0  0  0  0
 24 25  1  1  0  0  0
 24 26  1  0  0  0  0
 26 27  1  6  0  0  0
 26 28  1  0  0  0  0
 28 29  1  0  0  0  0
 28 30  1  6  0  0  0
 30 31  1  0  0  0  0
 32 27  1  6  0  0  0
 32 33  1  0  0  0  0
 32 40  1  0  0  0  0
 33 34  1  6  0  0  0
 33 35  1  0  0  0  0
 35 36  1  1  0  0  0
 35 37  1  0  0  0  0
 37 38  1  6  0  0  0
 37 39  1  0  0  0  0
 39 40  1  0  0  0  0
 39 41  1  6  0  0  0
 41 42  1  0  0  0  0
M  CHG  5   4   1  14   1  17   1  34   1  42   1
M  END
>  <CHROM.1>
-139.94727980,-153.68164558,-28.62086137,-123.92014210,-50.28779604,6.36719985
-64.72488427,-178.79445904,-176.96589892,-64.77840351,-111.75004343,-58.43317198
12.78554345,130.83662629,-107.31609356,-36.87054033,-58.88236535,-62.67022532
-173.44731301,178.44703229,55.27235548,-132.83231821,30.67466655,10.27878043
53.33348790,1.35453174,1.18151696,-1.38795546

>  <Name>
1j7t

>  <RI>
0

>  <Rbt.Current_Directory>
/home/itssahil/PROJECTS/Mol_Feturizer/New_Systems/rnas/1j7t

>  <Rbt.Executable>
rbdock ($Id: //depot/dev/client3/rdock/2013.1/src/exe/rbdock.cxx#4 $)

>  <Rbt.Library>
libRbt.so (2013.1, Build901 2013/11/27)

>  <Rbt.Parameter_File>
/export/apps/rDock/src/rDock_2013.1_src/data/scripts/dock_solv.prm

>  <Rbt.Receptor>
prm/blind_docking_80.prm

>  <SCORE>
-1.73726

>  <SCORE.INTER>
-30.1493

>  <SCORE.INTER.CONST>
1

>  <SCORE.INTER.POLAR>
-6.27682

>  <SCORE.INTER.ROT>
9

>  <SCORE.INTER.SOLV>
47.3764

>  <SCORE.INTER.VDW>
-24.5689

>  <SCORE.INTER.norm>
-0.71784

>  <SCORE.INTRA>
9.65923

>  <SCORE.INTRA.DIHEDRAL>
8.12275

>  <SCORE.INTRA.DIHEDRAL.0>
46.2143

>  <SCORE.INTRA.POLAR>
0.745808

>  <SCORE.INTRA.POLAR.0>
-1.76436

>  <SCORE.INTRA.REPUL>
0

>  <SCORE.INTRA.REPUL.0>
0

>  <SCORE.INTRA.SOLV>
-0.590397

>  <SCORE.INTRA.SOLV.lig_0>
-148.643

>  <SCORE.INTRA.VDW>
3.35731

>  <SCORE.INTRA.VDW.0>
-4.83512

>  <SCORE.INTRA.norm>
0.229982

>  <SCORE.RESTR>
18.7528

>  <SCORE.RESTR.CAVITY>
18.7528

>  <SCORE.RESTR.norm>
0.446495

>  <SCORE.SYSTEM>
0

>  <SCORE.SYSTEM.CONST>
0

>  <SCORE.SYSTEM.DIHEDRAL>
0

>  <SCORE.SYSTEM.SOLV>
0

>  <SCORE.SYSTEM.norm>
0

>  <SCORE.heavy>
42

>  <SCORE.norm>
-0.0413633

>  <RMSD>
5.351

$$$$
1j7t
 OpenBabel11021811393D
libRbt.so/2013.1/901 2013/11/27
 42 45  0  0  0  0  0  0  0  0999 V2000
   30.4097   11.1274   50.3164 C   0  0  2  0  0  0  0  0  0  0  0  0
   31.1193    9.9325   49.9029 O   0  0  0  0  0  0  0  0  0  0  0  0
   29.6266   11.6404   49.0740 C   0  0  2  0  0  0  0  0  0  0  0  0
   28.7511   10.6196   48.4298 N   0  3  0  0  0  0  0  0  0  0  0  0
   30.6537   12.1173   48.0239 C   0  0  1  0  0  0  0  0  0  0  0  0
   30.0037   12.6070   46.8850 O   0  0  0  0  0  0  0  0  0  0  0  0
   31.5732   13.2010   48.6352 C   0  0  2  0  0  0  0  0  0  0  0  0
   32.5084   13.6672   47.6828 O   0  0  0  0  0  0  0  0  0  0  0  0
   32.3175   12.6322   49.8246 C   0  0  2  0  0  0  0  0  0  0  0  0
   31.3808   12.1239   50.7659 O   0  0  0  0  0  0  0  0  0  0  0  0
   33.1509   13.6642   50.5509 C   0  0  0  0  0  0  0  0  0  0  0  0
   34.3637   13.8677   49.8517 O   0  0  0  0  0  0  0  0  0  0  0  0
   33.2043    6.6329   51.5196 C   0  0  2  0  0  0  0  0  0  0  0  0
   33.9806    5.7984   52.4374 N   0  3  0  0  0  0  0  0  0  0  0  0
   34.0417    7.8861   51.0995 C   0  0  0  0  0  0  0  0  0  0  0  0
   33.2100    8.7924   50.1718 C   0  0  2  0  0  0  0  0  0  0  0  0
   33.9608    9.9995   49.8111 N   0  3  0  0  0  0  0  0  0  0  0  0
   31.8906    9.1958   50.8589 C   0  0  2  0  0  0  0  0  0  0  0  0
   31.0572    7.9799   51.3085 C   0  0  2  0  0  0  0  0  0  0  0  0
   29.9505    8.5121   52.0618 O   0  0  0  0  0  0  0  0  0  0  0  0
   31.9093    7.0435   52.2024 C   0  0  1  0  0  0  0  0  0  0  0  0
   31.1631    5.8993   52.5139 O   0  0  0  0  0  0  0  0  0  0  0  0
   30.1041    9.2353   53.2802 C   0  0  1  0  0  0  0  0  0  0  0  0
   29.4901    8.3834   54.4477 C   0  0  2  0  0  0  0  0  0  0  0  0
   28.1046    8.6016   54.6523 O   0  0  0  0  0  0  0  0  0  0  0  0
   30.3860    8.8765   55.5753 C   0  0  2  0  0  0  0  0  0  0  0  0
   30.1066   10.2723   55.8973 O   0  0  0  0  0  0  0  0  0  0  0  0
   31.7728    8.8169   54.9505 C   0  0  2  0  0  0  0  0  0  0  0  0
   31.5067    9.3540   53.6434 O   0  0  0  0  0  0  0  0  0  0  0  0
   32.4108    7.3900   54.8984 C   0  0  0  0  0  0  0  0  0  0  0  0
   31.4366    6.3658   55.1345 O   0  0  0  0  0  0  0  0  0  0  0  0
   29.9047   10.5175   57.2867 C   0  0  2  0  0  0  0  0  0  0  0  0
   28.4234   10.8330   57.6873 C   0  0  2  0  0  0  0  0  0  0  0  0
   27.8657   12.0160   56.9642 N   0  3  0  0  0  0  0  0  0  0  0  0
   28.4036   11.0462   59.2378 C   0  0  1  0  0  0  0  0  0  0  0  0
   28.8082    9.7670   59.8602 O   0  0  0  0  0  0  0  0  0  0  0  0
   29.4016   12.1756   59.7063 C   0  0  2  0  0  0  0  0  0  0  0  0
   28.9717   13.4268   59.1454 O   0  0  0  0  0  0  0  0  0  0  0  0
   30.8571   11.7819   59.2177 C   0  0  1  0  0  0  0  0  0  0  0  0
   30.8048   11.6145   57.7608 O   0  0  0  0  0  0  0  0  0  0  0  0
   31.9562   12.8041   59.5863 C   0  0  0  0  0  0  0  0  0  0  0  0
   32.0900   13.0267   61.0516 N   0  3  0  0  0  0  0  0  0  0  0  0
  1  2  1  6  0  0  0
  1  3  1  0  0  0  0
  1 10  1  0  0  0  0
  3  4  1  6  0  0  0
  3  5  1  0  0  0  0
  5  6  1  6  0  0  0
  5  7  1  0  0  0  0
  7  8  1  6  0  0  0
  7  9  1  0  0  0  0
  9 10  1  0  0  0  0
  9 11  1  1  0  0  0
 11 12  1  0  0  0  0
 13 14  1  1  0  0  0
 13 15  1  0  0  0  0
 13 21  1  0  0  0  0
 15 16  1  0  0  0  0
 16 17  1  1  0  0  0
 16 18  1  0  0  0  0
 18  2  1  6  0  0  0
 18 19  1  0  0  0  0
 19 20  1  1  0  0  0
 19 21  1  0  0  0  0
 21 22  1  6  0  0  0
 23 20  1  6  0  0  0
 23 24  1  0  0  0  0
 23 29  1  0  0  0  0
 24 25  1  1  0  0  0
 24 26  1  0  0  0  0
 26 27  1  6  0  0  0
 26 28  1  0  0  0  0
 28 29  1  0  0  0  0
 28 30  1  6  0  0  0
 30 31  1  0  0  0  0
 32 27  1  6  0  0  0
 32 33  1  0  0  0  0
 32 40  1  0  0  0  0
 33 34  1  6  0  0  0
 33 35  1  0  0  0  0
 35 36  1  1  0  0  0
 35 37  1  0  0  0  0
 37 38  1  6  0  0  0
 37 39  1  0  0  0  0
 39 40  1  0  0  0  0
 39 41  1  6  0  0  0
 41 42  1  0  0  0  0
M  CHG  5   4   1  14   1  17   1  34   1  42   1
M  END
>  <CHROM.1>
-177.31196373,-137.80489810,173.62446945,63.45386870,63.69831882,-79.94815152
-178.02341466,178.77447170,-58.37705927,-63.17090032,-113.33258181,-55.70632201
-178.15987769,130.00807383,-108.26217856,14.93916542,71.36749544,53.52220142
-58.14435964,73.23397291,59.53044281,-23.24842508,31.01747841,10.28527576
53.42679275,0.61993653,1.32231402,-0.65932215

>  <Name>
1j7t

>  <RI>
0

>  <Rbt.Current_Directory>
/home/itssahil/PROJECTS/Mol_Feturizer/New_Systems/rnas/1j7t

>  <Rbt.Executable>
rbdock ($Id: //depot/dev/client3/rdock/2013.1/src/exe/rbdock.cxx#4 $)

>  <Rbt.Library>
libRbt.so (2013.1, Build901 2013/11/27)

>  <Rbt.Parameter_File>
/export/apps/rDock/src/rDock_2013.1_src/data/scripts/dock_solv.prm

>  <Rbt.Receptor>
prm/blind_docking_80.prm

>  <SCORE>
-5.64566

>  <SCORE.INTER>
-24.3815

>  <SCORE.INTER.CONST>
1

>  <SCORE.INTER.POLAR>
-5.00768

>  <SCORE.INTER.ROT>
9

>  <SCORE.INTER.SOLV>
43.0778

>  <SCORE.INTER.VDW>
-23.5213

>  <SCORE.INTER.norm>
-0.580513

>  <SCORE.INTRA>
-1.49256

>  <SCORE.INTRA.DIHEDRAL>
-10.1174

>  <SCORE.INTRA.DIHEDRAL.0>
46.2143

>  <SCORE.INTRA.POLAR>
0.560934

>  <SCORE.INTRA.POLAR.0>
-1.76436

>  <SCORE.INTRA.REPUL>
0

>  <SCORE.INTRA.REPUL.0>
0

>  <SCORE.INTRA.SOLV>
1.59463

>  <SCORE.INTRA.SOLV.lig_0>
-148.643

>  <SCORE.INTRA.VDW>
0.861648

>  <SCORE.INTRA.VDW.0>
-4.83512

>  <SCORE.INTRA.norm>
-0.0355372

>  <SCORE.RESTR>
20.2284

>  <SCORE.RESTR.CAVITY>
20.2284

>  <SCORE.RESTR.norm>
0.481629

>  <SCORE.SYSTEM>
0

>  <SCORE.SYSTEM.CONST>
0

>  <SCORE.SYSTEM.DIHEDRAL>
0

>  <SCORE.SYSTEM.SOLV>
0

>  <SCORE.SYSTEM.norm>
0

>  <SCORE.heavy>
42

>  <SCORE.norm>
-0.13442

>  <RMSD>
5.363

$$$$
1j7t
 OpenBabel11021811393D
libRbt.so/2013.1/901 2013/11/27
 42 45  0  0  0  0  0  0  0  0999 V2000
   30.0641   10.6508   50.6873 C   0  0  2  0  0  0  0  0  0  0  0  0
   30.9896    9.5749   50.3899 O   0  0  0  0  0  0  0  0  0  0  0  0
   28.9660   10.6193   49.5858 C   0  0  2  0  0  0  0  0  0  0  0  0
   28.3042    9.2946   49.4099 N   0  3  0  0  0  0  0  0  0  0  0  0
   29.6237   11.0049   48.2428 C   0  0  1  0  0  0  0  0  0  0  0  0
   28.6759   11.0092   47.2127 O   0  0  0  0  0  0  0  0  0  0  0  0
   30.3041   12.3891   48.3634 C   0  0  2  0  0  0  0  0  0  0  0  0
   30.8947   12.7712   47.1369 O   0  0  0  0  0  0  0  0  0  0  0  0
   31.3715   12.3453   49.4361 C   0  0  2  0  0  0  0  0  0  0  0  0
   30.7889   11.9205   50.6617 O   0  0  0  0  0  0  0  0  0  0  0  0
   32.0047   13.6936   49.6974 C   0  0  0  0  0  0  0  0  0  0  0  0
   33.1787   13.5216   50.4678 O   0  0  0  0  0  0  0  0  0  0  0  0
   32.2100    6.0938   52.4491 C   0  0  2  0  0  0  0  0  0  0  0  0
   32.7461    5.2146   53.4889 N   0  3  0  0  0  0  0  0  0  0  0  0
   33.3256    7.0698   51.9479 C   0  0  0  0  0  0  0  0  0  0  0  0
   32.7525    8.0298   50.8879 C   0  0  2  0  0  0  0  0  0  0  0  0
   33.7715    8.9875   50.4457 N   0  3  0  0  0  0  0  0  0  0  0  0
   31.5422    8.7959   51.4572 C   0  0  2  0  0  0  0  0  0  0  0  0
   30.4383    7.8583   51.9842 C   0  0  2  0  0  0  0  0  0  0  0  0
   29.4627    8.7083   52.6174 O   0  0  0  0  0  0  0  0  0  0  0  0
   31.0253    6.8607   53.0147 C   0  0  1  0  0  0  0  0  0  0  0  0
   30.0268    5.9573   53.4018 O   0  0  0  0  0  0  0  0  0  0  0  0
   29.7315    9.4793   53.7855 C   0  0  1  0  0  0  0  0  0  0  0  0
   28.8368    8.9393   54.9576 C   0  0  2  0  0  0  0  0  0  0  0  0
   27.5535    9.5375   55.0244 O   0  0  0  0  0  0  0  0  0  0  0  0
   29.7611    9.2832   56.1171 C   0  0  2  0  0  0  0  0  0  0  0  0
   29.8538   10.7273   56.3058 O   0  0  0  0  0  0  0  0  0  0  0  0
   31.1152    8.7959   55.6208 C   0  0  2  0  0  0  0  0  0  0  0  0
   31.0878    9.2548   54.2583 O   0  0  0  0  0  0  0  0  0  0  0  0
   31.3415    7.2526   55.7334 C   0  0  0  0  0  0  0  0  0  0  0  0
   32.7081    6.8986   55.4866 O   0  0  0  0  0  0  0  0  0  0  0  0
   29.9708   11.1275   57.6688 C   0  0  2  0  0  0  0  0  0  0  0  0
   28.6571   10.9800   58.5094 C   0  0  2  0  0  0  0  0  0  0  0  0
   27.5127   11.7534   57.9388 N   0  3  0  0  0  0  0  0  0  0  0  0
   28.9918   11.4414   59.9671 C   0  0  1  0  0  0  0  0  0  0  0  0
   30.0098   10.5091   60.4979 O   0  0  0  0  0  0  0  0  0  0  0  0
   29.5718   12.9084   60.0196 C   0  0  2  0  0  0  0  0  0  0  0  0
   28.5594   13.8169   59.5567 O   0  0  0  0  0  0  0  0  0  0  0  0
   30.8679   12.9595   59.1088 C   0  0  1  0  0  0  0  0  0  0  0  0
   30.4784   12.5319   57.7602 O   0  0  0  0  0  0  0  0  0  0  0  0
   31.5500   14.3448   59.0403 C   0  0  0  0  0  0  0  0  0  0  0  0
   30.6846   15.4550   59.5231 N   0  3  0  0  0  0  0  0  0  0  0  0
  1  2  1  6  0  0  0
  1  3  1  0  0  0  0
  1 10  1  0  0  0  0
  3  4  1  6  0  0  0
  3  5  1  0  0  0  0
  5  6  1  6  0  0  0
  5  7  1  0  0  0  0
  7  8  1  6  0  0  0
  7  9  1  0  0  0  0
  9 10  1  0  0  0  0
  9 11  1  1  0  0  0
 11 12  1  0  0  0  0
 13 14  1  1  0  0  0
 13 15  1  0  0  0  0
 13 21  1  0  0  0  0
 15 16  1  0  0  0  0
 16 17  1  1  0  0  0
 16 18  1  0  0  0  0
 18  2  1  6  0  0  0
 18 19  1  0  0  0  0
 19 20  1  1  0  0  0
 19 21  1  0  0  0  0
 21 22  1  6  0  0  0
 23 20  1  6  0  0  0
 23 24  1  0  0  0  0
 23 29  1  0  0  0  0
 24 25  1  1  0  0  0
 24 26  1  0  0  0  0
 26 27  1  6  0  0  0
 26 28  1  0  0  0  0
 28 29  1  0  0  0  0
 28 30  1  6  0  0  0
 30 31  1  0  0  0  0
 32 27  1  6  0  0  0
 32 33  1  0  0  0  0
 32 40  1  0  0  0  0
 33 34  1  6  0  0  0
 33 35  1  0  0  0  0
 35 36  1  6  0  0  0
 35 37  1  0  0  0  0
 37 38  1  6  0  0  0
 37 39  1  0  0  0  0
 39 40  1  0  0  0  0
 39 41  1  6  0  0  0
 41 42  1  0  0  0  0
M  CHG  5   4   1  14   1  17   1  34   1  42   1
M  END
>  <CHROM.1>
-140.92725840,-164.34323448,81.47564264,62.26136152,-58.65652593,-166.61926008
-57.95689089,62.45646748,-176.78831465,-65.17577504,-115.11006496,-176.84591236
49.05403713,144.65196907,-72.68534102,-169.18470514,79.72971359,-73.59702884
-60.60714061,140.10901216,-15.82722312,-63.62000814,30.49959404,10.26563454
53.80804423,0.92616589,1.36644641,-1.14457498

>  <Name>
1j7t

>  <RI>
0

>  <Rbt.Current_Directory>
/home/itssahil/PROJECTS/Mol_Feturizer/New_Systems/rnas/1j7t

>  <Rbt.Executable>
rbdock ($Id: //depot/dev/client3/rdock/2013.1/src/exe/rbdock.cxx#4 $)

>  <Rbt.Library>
libRbt.so (2013.1, Build901 2013/11/27)

>  <Rbt.Parameter_File>
/export/apps/rDock/src/rDock_2013.1_src/data/scripts/dock_solv.prm

>  <Rbt.Receptor>
prm/blind_docking_100.prm

>  <SCORE>
-21.6198

>  <SCORE.INTER>
-29.7085

>  <SCORE.INTER.CONST>
1

>  <SCORE.INTER.POLAR>
-4.22701

>  <SCORE.INTER.ROT>
9

>  <SCORE.INTER.SOLV>
36.4981

>  <SCORE.INTER.VDW>
-27.4816

>  <SCORE.INTER.norm>
-0.707345

>  <SCORE.INTRA>
-3.3793

>  <SCORE.INTRA.DIHEDRAL>
-12.3117

>  <SCORE.INTRA.DIHEDRAL.0>
46.2143

>  <SCORE.INTRA.POLAR>
-0.260042

>  <SCORE.INTRA.POLAR.0>
-1.76436

>  <SCORE.INTRA.REPUL>
0

>  <SCORE.INTRA.REPUL.0>
0

>  <SCORE.INTRA.SOLV>
3.55317

>  <SCORE.INTRA.SOLV.lig_0>
-148.643

>  <SCORE.INTRA.VDW>
1.88411

>  <SCORE.INTRA.VDW.0>
-4.83512

>  <SCORE.INTRA.norm>
-0.0804595

>  <SCORE.RESTR>
11.468

>  <SCORE.RESTR.CAVITY>
11.468

>  <SCORE.RESTR.norm>
0.273048

>  <SCORE.SYSTEM>
0

>  <SCORE.SYSTEM.CONST>
0

>  <SCORE.SYSTEM.DIHEDRAL>
0

>  <SCORE.SYSTEM.SOLV>
0

>  <SCORE.SYSTEM.norm>
0

>  <SCORE.heavy>
42

>  <SCORE.norm>
-0.514756

>  <RMSD>
5.370

$$$$
1j7t
 OpenBabel11021811393D
libRbt.so/2013.1/901 2013/11/27
 42 45  0  0  0  0  0  0  0  0999 V2000
   33.1886    6.8941   53.5273 C   0  0  2  0  0  0  0  0  0  0  0  0
   32.2293    5.9683   52.9571 O   0  0  0  0  0  0  0  0  0  0  0  0
   34.3584    7.0162   52.5091 C   0  0  2  0  0  0  0  0  0  0  0  0
   33.9378    7.3712   51.1233 N   0  3  0  0  0  0  0  0  0  0  0  0
   35.0872    5.6558   52.4516 C   0  0  1  0  0  0  0  0  0  0  0  0
   36.1644    5.7106   51.5594 O   0  0  0  0  0  0  0  0  0  0  0  0
   35.5698    5.2523   53.8650 C   0  0  2  0  0  0  0  0  0  0  0  0
   36.2593    4.0184   53.8312 O   0  0  0  0  0  0  0  0  0  0  0  0
   34.3839    5.1330   54.7985 C   0  0  2  0  0  0  0  0  0  0  0  0
   33.6638    6.3591   54.8024 O   0  0  0  0  0  0  0  0  0  0  0  0
   34.7825    4.8556   56.2307 C   0  0  0  0  0  0  0  0  0  0  0  0
   34.6005    3.4814   56.5130 O   0  0  0  0  0  0  0  0  0  0  0  0
   29.0705    7.9197   50.9417 C   0  0  2  0  0  0  0  0  0  0  0  0
   27.7340    8.4153   50.6108 N   0  3  0  0  0  0  0  0  0  0  0  0
   29.0745    6.3549   50.9427 C   0  0  0  0  0  0  0  0  0  0  0  0
   30.4675    5.8290   51.3385 C   0  0  2  0  0  0  0  0  0  0  0  0
   30.4750    4.3636   51.3969 N   0  3  0  0  0  0  0  0  0  0  0  0
   30.8860    6.3985   52.7083 C   0  0  2  0  0  0  0  0  0  0  0  0
   30.8644    7.9391   52.7445 C   0  0  2  0  0  0  0  0  0  0  0  0
   31.1205    8.3089   54.1131 O   0  0  0  0  0  0  0  0  0  0  0  0
   29.4777    8.4691   52.2996 C   0  0  1  0  0  0  0  0  0  0  0  0
   29.5154    9.8686   52.2443 O   0  0  0  0  0  0  0  0  0  0  0  0
   30.1284    8.2745   55.1357 C   0  0  1  0  0  0  0  0  0  0  0  0
   29.5711    6.8102   55.2421 C   0  0  2  0  0  0  0  0  0  0  0  0
   28.4860    6.5428   54.3703 O   0  0  0  0  0  0  0  0  0  0  0  0
   29.2128    6.8176   56.7216 C   0  0  2  0  0  0  0  0  0  0  0  0
   28.0842    7.7045   56.9853 O   0  0  0  0  0  0  0  0  0  0  0  0
   30.4463    7.4396   57.3610 C   0  0  2  0  0  0  0  0  0  0  0  0
   30.7179    8.5127   56.4431 O   0  0  0  0  0  0  0  0  0  0  0  0
   31.6605    6.4687   57.5309 C   0  0  0  0  0  0  0  0  0  0  0  0
   32.7147    7.0682   58.2946 O   0  0  0  0  0  0  0  0  0  0  0  0
   27.3562    7.3806   58.1670 C   0  0  2  0  0  0  0  0  0  0  0  0
   26.9951    5.8637   58.3184 C   0  0  2  0  0  0  0  0  0  0  0  0
   26.1928    5.3405   57.1712 N   0  3  0  0  0  0  0  0  0  0  0  0
   26.2278    5.7085   59.6737 C   0  0  1  0  0  0  0  0  0  0  0  0
   27.1647    6.0900   60.7527 O   0  0  0  0  0  0  0  0  0  0  0  0
   24.9536    6.6361   59.7577 C   0  0  2  0  0  0  0  0  0  0  0  0
   24.0215    6.2249   58.7443 O   0  0  0  0  0  0  0  0  0  0  0  0
   25.4210    8.1365   59.5521 C   0  0  1  0  0  0  0  0  0  0  0  0
   26.1152    8.2110   58.2614 O   0  0  0  0  0  0  0  0  0  0  0  0
   24.2777    9.1758   59.5902 C   0  0  0  0  0  0  0  0  0  0  0  0
   24.7584   10.5816   59.6755 N   0  3  0  0  0  0  0  0  0  0  0  0
  1  2  1  6  0  0  0
  1  3  1  0  0  0  0
  1 10  1  0  0  0  0
  3  4  1  6  0  0  0
  3  5  1  0  0  0  0
  5  6  1  6  0  0  0
  5  7  1  0  0  0  0
  7  8  1  6  0  0  0
  7  9  1  0  0  0  0
  9 10  1  0  0  0  0
  9 11  1  1  0  0  0
 11 12  1  0  0  0  0
 13 14  1  1  0  0  0
 13 15  1  0  0  0  0
 13 21  1  0  0  0  0
 15 16  1  0  0  0  0
 16 17  1  1  0  0  0
 16 18  1  0  0  0  0
 18  2  1  6  0  0  0
 18 19  1  0  0  0  0
 19 20  1  1  0  0  0
 19 21  1  0  0  0  0
 21 22  1  6  0  0  0
 23 20  1  6  0  0  0
 23 24  1  0  0  0  0
 23 29  1  0  0  0  0
 24 25  1  6  0  0  0
 24 26  1  0  0  0  0
 26 27  1  6  0  0  0
 26 28  1  0  0  0  0
 28 29  1  0  0  0  0
 28 30  1  6  0  0  0
 30 31  1  0  0  0  0
 32 27  1  6  0  0  0
 32 33  1  0  0  0  0
 32 40  1  0  0  0  0
 33 34  1  6  0  0  0
 33 35  1  0  0  0  0
 35 36  1  1  0  0  0
 35 37  1  0  0  0  0
 37 38  1  6  0  0  0
 37 39  1  0  0  0  0
 39 40  1  0  0  0  0
 39 41  1  6  0  0  0
 41 42  1  0  0  0  0
M  CHG  5   4   1  14   1  17   1  34   1  42   1
M  END
>  <CHROM.1>
-120.68361401,138.13026824,68.25476864,59.87925125,-61.41071903,-101.28902761
171.80259228,-53.97275621,-38.34975730,-79.21164614,58.45740198,179.23859230
-179.82935844,155.97656744,-47.31332338,-172.29169601,64.30584260,-70.31012753
177.60867044,-179.87466730,168.17685530,-60.38661101,30.17285428,6.81911779
55.27151255,-0.57604135,-0.34166068,1.78320146

>  <Name>
1j7t

>  <RI>
0

>  <Rbt.Current_Directory>
/home/itssahil/PROJECTS/Mol_Feturizer/New_Systems/rnas/1j7t

>  <Rbt.Executable>
rbdock ($Id: //depot/dev/client3/rdock/2013.1/src/exe/rbdock.cxx#4 $)

>  <Rbt.Library>
libRbt.so (2013.1, Build901 2013/11/27)

>  <Rbt.Parameter_File>
/export/apps/rDock/src/rDock_2013.1_src/data/scripts/dock_solv.prm

>  <Rbt.Receptor>
prm/pocket_docking_4.prm

>  <SCORE>
-38.0148

>  <SCORE.INTER>
-32.0371

>  <SCORE.INTER.CONST>
1

>  <SCORE.INTER.POLAR>
-5.26907

>  <SCORE.INTER.ROT>
9

>  <SCORE.INTER.SOLV>
24.8642

>  <SCORE.INTER.VDW>
-21.6826

>  <SCORE.INTER.norm>
-0.762788

>  <SCORE.INTRA>
-6.82899

>  <SCORE.INTRA.DIHEDRAL>
-20.9751

>  <SCORE.INTRA.DIHEDRAL.0>
46.2143

>  <SCORE.INTRA.POLAR>
0.940424

>  <SCORE.INTRA.POLAR.0>
-1.76436

>  <SCORE.INTRA.REPUL>
0

>  <SCORE.INTRA.REPUL.0>
0

>  <SCORE.INTRA.SOLV>
-3.21482

>  <SCORE.INTRA.SOLV.lig_0>
-148.643

>  <SCORE.INTRA.VDW>
2.06854

>  <SCORE.INTRA.VDW.0>
-4.83512

>  <SCORE.INTRA.norm>
-0.162595

>  <SCORE.RESTR>
0.851309

>  <SCORE.RESTR.CAVITY>
0.851309

>  <SCORE.RESTR.norm>
0.0202693

>  <SCORE.SYSTEM>
0

>  <SCORE.SYSTEM.CONST>
0

>  <SCORE.SYSTEM.DIHEDRAL>
0

>  <SCORE.SYSTEM.SOLV>
0

>  <SCORE.SYSTEM.norm>
0

>  <SCORE.heavy>
42

>  <SCORE.norm>
-0.905114

>  <RMSD>
5.382

$$$$
1j7t
 OpenBabel11021811393D
libRbt.so/2013.1/901 2013/11/27
 42 45  0  0  0  0  0  0  0  0999 V2000
   33.3402    5.0853   53.5091 C   0  0  2  0  0  0  0  0  0  0  0  0
   32.8569    5.6294   54.7632 O   0  0  0  0  0  0  0  0  0  0  0  0
   33.8831    6.2823   52.6769 C   0  0  2  0  0  0  0  0  0  0  0  0
   34.8871    7.1250   53.3878 N   0  3  0  0  0  0  0  0  0  0  0  0
   32.6877    7.1836   52.2982 C   0  0  1  0  0  0  0  0  0  0  0  0
   33.1153    8.2737   51.5312 O   0  0  0  0  0  0  0  0  0  0  0  0
   31.6250    6.3610   51.5316 C   0  0  2  0  0  0  0  0  0  0  0  0
   30.5303    7.1733   51.1562 O   0  0  0  0  0  0  0  0  0  0  0  0
   31.1264    5.2272   52.4022 C   0  0  2  0  0  0  0  0  0  0  0  0
   32.2303    4.4323   52.8164 O   0  0  0  0  0  0  0  0  0  0  0  0
   30.1689    4.3042   51.6823 C   0  0  0  0  0  0  0  0  0  0  0  0
   29.0751    5.0525   51.1875 O   0  0  0  0  0  0  0  0  0  0  0  0
   31.6898    1.9652   56.5124 C   0  0  2  0  0  0  0  0  0  0  0  0
   31.1704    0.9910   57.4729 N   0  3  0  0  0  0  0  0  0  0  0  0
   32.9414    2.6893   57.1103 C   0  0  0  0  0  0  0  0  0  0  0  0
   33.4620    3.7503   56.1219 C   0  0  2  0  0  0  0  0  0  0  0  0
   34.6032    4.4764   56.6888 N   0  3  0  0  0  0  0  0  0  0  0  0
   32.3426    4.7496   55.7698 C   0  0  2  0  0  0  0  0  0  0  0  0
   31.0856    4.0607   55.2037 C   0  0  2  0  0  0  0  0  0  0  0  0
   30.0893    5.0932   55.0751 O   0  0  0  0  0  0  0  0  0  0  0  0
   30.5904    2.9601   56.1760 C   0  0  1  0  0  0  0  0  0  0  0  0
   29.5106    2.2830   55.5941 O   0  0  0  0  0  0  0  0  0  0  0  0
   29.6226    5.8764   56.1706 C   0  0  1  0  0  0  0  0  0  0  0  0
   28.6727    6.9967   55.6151 C   0  0  2  0  0  0  0  0  0  0  0  0
   29.3457    8.1834   55.2308 O   0  0  0  0  0  0  0  0  0  0  0  0
   27.7687    7.1423   56.8312 C   0  0  2  0  0  0  0  0  0  0  0  0
   28.4882    7.7361   57.9535 O   0  0  0  0  0  0  0  0  0  0  0  0
   27.4618    5.6962   57.1945 C   0  0  2  0  0  0  0  0  0  0  0  0
   28.7589    5.0949   57.0404 O   0  0  0  0  0  0  0  0  0  0  0  0
   26.3701    5.0121   56.3080 C   0  0  0  0  0  0  0  0  0  0  0  0
   25.9013    3.7911   56.8940 O   0  0  0  0  0  0  0  0  0  0  0  0
   27.8262    8.8537   58.5404 C   0  0  2  0  0  0  0  0  0  0  0  0
   27.4372    9.9877   57.5320 C   0  0  2  0  0  0  0  0  0  0  0  0
   28.6143   10.5351   56.7916 N   0  3  0  0  0  0  0  0  0  0  0  0
   26.7078   11.1017   58.3546 C   0  0  1  0  0  0  0  0  0  0  0  0
   25.4725   10.5017   58.9037 O   0  0  0  0  0  0  0  0  0  0  0  0
   27.5837   11.6423   59.5513 C   0  0  2  0  0  0  0  0  0  0  0  0
   28.7552   12.2749   59.0107 O   0  0  0  0  0  0  0  0  0  0  0  0
   27.9556   10.4159   60.4839 C   0  0  1  0  0  0  0  0  0  0  0  0
   28.6472    9.4226   59.6543 O   0  0  0  0  0  0  0  0  0  0  0  0
   28.8335   10.7798   61.7029 C   0  0  0  0  0  0  0  0  0  0  0  0
   29.3023    9.5937   62.4697 N   0  3  0  0  0  0  0  0  0  0  0  0
  1  2  1  1  0  0  0
  1  3  1  0  0  0  0
  1 10  1  0  0  0  0
  3  4  1  1  0  0  0
  3  5  1  0  0  0  0
  5  6  1  6  0  0  0
  5  7  1  0  0  0  0
  7  8  1  1  0  0  0
  7  9  1  0  0  0  0
  9 10  1  0  0  0  0
  9 11  1  6  0  0  0
 11 12  1  0  0  0  0
 13 14  1  1  0  0  0
 13 15  1  0  0  0  0
 13 21  1  0  0  0  0
 15 16  1  0  0  0  0
 16 17  1  1  0  0  0
 16 18  1  0  0  0  0
 18  2  1  6  0  0  0
 18 19  1  0  0  0  0
 19 20  1  1  0  0  0
 19 21  1  0  0  0  0
 21 22  1  6  0  0  0
 23 20  1  6  0  0  0
 23 24  1  0  0  0  0
 23 29  1  0  0  0  0
 24 25  1  1  0  0  0
 24 26  1  0  0  0  0
 26 27  1  1  0  0  0
 26 28  1  0  0  0  0
 28 29  1  0  0  0  0
 28 30  1  6  0  0  0
 30 31  1  0  0  0  0
 32 27  1  6  0  0  0
 32 33  1  0  0  0  0
 32 40  1  0  0  0  0
 33 34  1  1  0  0  0
 33 35  1  0  0  0  0
 35 36  1  1  0  0  0
 35 37  1  0  0  0  0
 37 38  1  6  0  0  0
 37 39  1  0  0  0  0
 39 40  1  0  0  0  0
 39 41  1  1  0  0  0
 41 42  1  0  0  0  0
M  CHG  5   4   1  14   1  17   1  34   1  42   1
M  END
>  <CHROM.1>
-177.43466481,58.24454726,171.31828408,-53.15106734,-172.03597389,-56.93966437
-175.01949756,-145.05708796,-81.04397032,-58.95111171,173.56879907,-174.88097779
62.82236428,128.72799236,-53.57625101,-165.84960105,72.05597979,171.61047074
-54.00289405,-107.86109778,-173.12863730,168.20896428,30.05973212,6.58080697
56.01985239,-0.42457212,1.00455549,-0.26701858

>  <Name>
1j7t

>  <RI>
0

>  <Rbt.Current_Directory>
/home/itssahil/PROJECTS/Mol_Feturizer/New_Systems/rnas/1j7t

>  <Rbt.Executable>
rbdock ($Id: //depot/dev/client3/rdock/2013.1/src/exe/rbdock.cxx#4 $)

>  <Rbt.Library>
libRbt.so (2013.1, Build901 2013/11/27)

>  <Rbt.Parameter_File>
/export/apps/rDock/src/rDock_2013.1_src/data/scripts/dock_solv.prm

>  <Rbt.Receptor>
prm/pocket_docking_8.prm

>  <SCORE>
-36.308

>  <SCORE.INTER>
-23.7417

>  <SCORE.INTER.CONST>
1

>  <SCORE.INTER.POLAR>
-5.62483

>  <SCORE.INTER.ROT>
9

>  <SCORE.INTER.SOLV>
23.8899

>  <SCORE.INTER.VDW>
-14.6417

>  <SCORE.INTER.norm>
-0.56528

>  <SCORE.INTRA>
-12.5663

>  <SCORE.INTRA.DIHEDRAL>
-25.6102

>  <SCORE.INTRA.DIHEDRAL.0>
46.2143

>  <SCORE.INTRA.POLAR>
-0.229683

>  <SCORE.INTRA.POLAR.0>
-1.76436

>  <SCORE.INTRA.REPUL>
0

>  <SCORE.INTRA.REPUL.0>
0

>  <SCORE.INTRA.SOLV>
-2.51903

>  <SCORE.INTRA.SOLV.lig_0>
-148.643

>  <SCORE.INTRA.VDW>
2.27926

>  <SCORE.INTRA.VDW.0>
-4.83512

>  <SCORE.INTRA.norm>
-0.299197

>  <SCORE.RESTR>
0

>  <SCORE.RESTR.CAVITY>
0

>  <SCORE.RESTR.norm>
0

>  <SCORE.SYSTEM>
0

>  <SCORE.SYSTEM.CONST>
0

>  <SCORE.SYSTEM.DIHEDRAL>
0

>  <SCORE.SYSTEM.SOLV>
0

>  <SCORE.SYSTEM.norm>
0

>  <SCORE.heavy>
42

>  <SCORE.norm>
-0.864476

>  <RMSD>
5.392

$$$$
1j7t
 OpenBabel11021811393D
libRbt.so/2013.1/901 2013/11/27
 42 45  0  0  0  0  0  0  0  0999 V2000
   33.5220    6.7213   53.7404 C   0  0  2  0  0  0  0  0  0  0  0  0
   32.5411    5.9689   52.9827 O   0  0  0  0  0  0  0  0  0  0  0  0
   34.7859    6.8483   52.8423 C   0  0  2  0  0  0  0  0  0  0  0  0
   34.5260    7.4056   51.4839 N   0  3  0  0  0  0  0  0  0  0  0  0
   35.3947    5.4395   52.6703 C   0  0  1  0  0  0  0  0  0  0  0  0
   36.5493    5.4940   51.8808 O   0  0  0  0  0  0  0  0  0  0  0  0
   35.7094    4.8249   54.0548 C   0  0  2  0  0  0  0  0  0  0  0  0
   36.2881    3.5420   53.9192 O   0  0  0  0  0  0  0  0  0  0  0  0
   34.4375    4.7123   54.8682 C   0  0  2  0  0  0  0  0  0  0  0  0
   33.8304    5.9940   54.9709 O   0  0  0  0  0  0  0  0  0  0  0  0
   34.6782    4.2284   56.2807 C   0  0  0  0  0  0  0  0  0  0  0  0
   35.3696    2.9947   56.2448 O   0  0  0  0  0  0  0  0  0  0  0  0
   29.5833    8.4476   51.2635 C   0  0  2  0  0  0  0  0  0  0  0  0
   28.2903    9.0729   50.9836 N   0  3  0  0  0  0  0  0  0  0  0  0
   29.5113    6.9140   50.9612 C   0  0  0  0  0  0  0  0  0  0  0  0
   30.8560    6.2433   51.3009 C   0  0  2  0  0  0  0  0  0  0  0  0
   30.7894    4.7959   51.0742 N   0  3  0  0  0  0  0  0  0  0  0  0
   31.2341    6.5148   52.7703 C   0  0  2  0  0  0  0  0  0  0  0  0
   31.2856    8.0186   53.1038 C   0  0  2  0  0  0  0  0  0  0  0  0
   31.4922    8.1040   54.5270 O   0  0  0  0  0  0  0  0  0  0  0  0
   29.9498    8.7024   52.7170 C   0  0  1  0  0  0  0  0  0  0  0  0
   30.0581   10.0821   52.9356 O   0  0  0  0  0  0  0  0  0  0  0  0
   30.5175    7.7072   55.4881 C   0  0  1  0  0  0  0  0  0  0  0  0
   30.3630    6.1456   55.4277 C   0  0  2  0  0  0  0  0  0  0  0  0
   29.4101    5.6980   54.4786 O   0  0  0  0  0  0  0  0  0  0  0  0
   29.9765    5.9059   56.8804 C   0  0  2  0  0  0  0  0  0  0  0  0
   28.6476    6.4372   57.1659 O   0  0  0  0  0  0  0  0  0  0  0  0
   30.9852    6.7566   57.6393 C   0  0  2  0  0  0  0  0  0  0  0  0
   30.9887    7.9528   56.8413 O   0  0  0  0  0  0  0  0  0  0  0  0
   32.4073    6.1218   57.7816 C   0  0  0  0  0  0  0  0  0  0  0  0
   32.3346    4.7229   58.0845 O   0  0  0  0  0  0  0  0  0  0  0  0
   27.8270    5.5629   57.9365 C   0  0  2  0  0  0  0  0  0  0  0  0
   27.7744    4.0862   57.4161 C   0  0  2  0  0  0  0  0  0  0  0  0
   27.2917    3.9846   56.0054 N   0  3  0  0  0  0  0  0  0  0  0  0
   26.8531    3.2873   58.3972 C   0  0  1  0  0  0  0  0  0  0  0  0
   27.5063    3.3068   59.7241 O   0  0  0  0  0  0  0  0  0  0  0  0
   25.4150    3.9240   58.5310 C   0  0  2  0  0  0  0  0  0  0  0  0
   24.7624    3.8512   57.2530 O   0  0  0  0  0  0  0  0  0  0  0  0
   25.5823    5.4220   59.0209 C   0  0  1  0  0  0  0  0  0  0  0  0
   26.4399    6.1120   58.0505 O   0  0  0  0  0  0  0  0  0  0  0  0
   24.2542    6.1953   59.1859 C   0  0  0  0  0  0  0  0  0  0  0  0
   24.4259    7.5440   59.7911 N   0  3  0  0  0  0  0  0  0  0  0  0
  1  2  1  6  0  0  0
  1  3  1  0  0  0  0
  1 10  1  0  0  0  0
  3  4  1  6  0  0  0
  3  5  1  0  0  0  0
  5  6  1  6  0  0  0
  5  7  1  0  0  0  0
  7  8  1  6  0  0  0
  7  9  1  0  0  0  0
  9 10  1  0  0  0  0
  9 11  1  1  0  0  0
 11 12  1  0  0  0  0
 13 14  1  1  0  0  0
 13 15  1  0  0  0  0
 13 21  1  0  0  0  0
 15 16  1  0  0  0  0
 16 17  1  1  0  0  0
 16 18  1  0  0  0  0
 18  2  1  6  0  0  0
 18 19  1  0  0  0  0
 19 20  1  1  0  0  0
 19 21  1  0  0  0  0
 21 22  1  6  0  0  0
 23 20  1  6  0  0  0
 23 24  1  0  0  0  0
 23 29  1  0  0  0  0
 24 25  1  6  0  0  0
 24 26  1  0  0  0  0
 26 27  1  6  0  0  0
 26 28  1  0  0  0  0
 28 29  1  0  0  0  0
 28 30  1  6  0  0  0
 30 31  1  0  0  0  0
 32 27  1  6  0  0  0
 32 33  1  0  0  0  0
 32 40  1  0  0  0  0
 33 34  1  6  0  0  0
 33 35  1  0  0  0  0
 35 36  1  1  0  0  0
 35 37  1  0  0  0  0
 37 38  1  6  0  0  0
 37 39  1  0  0  0  0
 39 40  1  0  0  0  0
 39 41  1  6  0  0  0
 41 42  1  0  0  0  0
M  CHG  5   4   1  14   1  17   1  34   1  42   1
M  END
>  <CHROM.1>
-125.34793981,137.16223068,93.72978730,59.84803356,178.83178266,-55.61650022
172.23565191,-45.00295082,70.27013995,-67.93472870,68.74375061,-50.60037900
-40.42087771,135.92080666,-48.71957090,-41.71135987,61.09149455,165.43542362
-70.60798291,176.16584217,173.48655419,166.40869405,30.58014067,5.98299854
55.20158174,-0.52751700,-0.27516294,2.13056432

>  <Name>
1j7t

>  <RI>
0

>  <Rbt.Current_Directory>
/home/itssahil/PROJECTS/Mol_Feturizer/New_Systems/rnas/1j7t

>  <Rbt.Executable>
rbdock ($Id: //depot/dev/client3/rdock/2013.1/src/exe/rbdock.cxx#4 $)

>  <Rbt.Library>
libRbt.so (2013.1, Build901 2013/11/27)

>  <Rbt.Parameter_File>
/export/apps/rDock/src/rDock_2013.1_src/data/scripts/dock_solv.prm

>  <Rbt.Receptor>
prm/pocket_docking_3.prm

>  <SCORE>
-32.3901

>  <SCORE.INTER>
-27.6213

>  <SCORE.INTER.CONST>
1

>  <SCORE.INTER.POLAR>
-5.10859

>  <SCORE.INTER.ROT>
9

>  <SCORE.INTER.SOLV>
23.3032

>  <SCORE.INTER.VDW>
-18.7533

>  <SCORE.INTER.norm>
-0.657649

>  <SCORE.INTRA>
-5.74841

>  <SCORE.INTRA.DIHEDRAL>
-17.499

>  <SCORE.INTRA.DIHEDRAL.0>
46.2143

>  <SCORE.INTRA.POLAR>
-0.144957

>  <SCORE.INTRA.POLAR.0>
-1.76436

>  <SCORE.INTRA.REPUL>
0

>  <SCORE.INTRA.REPUL.0>
0

>  <SCORE.INTRA.SOLV>
-1.08498

>  <SCORE.INTRA.SOLV.lig_0>
-148.643

>  <SCORE.INTRA.VDW>
4.03646

>  <SCORE.INTRA.VDW.0>
-4.83512

>  <SCORE.INTRA.norm>
-0.136867

>  <SCORE.RESTR>
0.979628

>  <SCORE.RESTR.CAVITY>
0.979628

>  <SCORE.RESTR.norm>
0.0233245

>  <SCORE.SYSTEM>
0

>  <SCORE.SYSTEM.CONST>
0

>  <SCORE.SYSTEM.DIHEDRAL>
0

>  <SCORE.SYSTEM.SOLV>
0

>  <SCORE.SYSTEM.norm>
0

>  <SCORE.heavy>
42

>  <SCORE.norm>
-0.771192

>  <RMSD>
5.403

$$$$
1j7t
 OpenBabel11021811393D
libRbt.so/2013.1/901 2013/11/27
 42 45  0  0  0  0  0  0  0  0999 V2000
   30.5856    7.6453   52.8401 C   0  0  2  0  0  0  0  0  0  0  0  0
   29.9475    7.0259   51.6948 O   0  0  0  0  0  0  0  0  0  0  0  0
   31.2996    8.9263   52.3212 C   0  0  2  0  0  0  0  0  0  0  0  0
   30.4222    9.8552   51.5525 N   0  3  0  0  0  0  0  0  0  0  0  0
   32.4558    8.4886   51.3958 C   0  0  1  0  0  0  0  0  0  0  0  0
   33.1478    9.6040   50.9095 O   0  0  0  0  0  0  0  0  0  0  0  0
   33.4142    7.5413   52.1559 C   0  0  2  0  0  0  0  0  0  0  0  0
   34.4930    7.1452   51.3322 O   0  0  0  0  0  0  0  0  0  0  0  0
   32.6624    6.3101   52.6155 C   0  0  2  0  0  0  0  0  0  0  0  0
   31.5516    6.7070   53.4096 O   0  0  0  0  0  0  0  0  0  0  0  0
   33.5025    5.3870   53.4693 C   0  0  0  0  0  0  0  0  0  0  0  0
   34.4741    4.7514   52.6610 O   0  0  0  0  0  0  0  0  0  0  0  0
   26.1180    5.2420   51.6658 C   0  0  2  0  0  0  0  0  0  0  0  0
   25.0421    4.2662   51.8433 N   0  3  0  0  0  0  0  0  0  0  0  0
   27.1875    4.6823   50.6702 C   0  0  0  0  0  0  0  0  0  0  0  0
   28.3464    5.6861   50.5182 C   0  0  2  0  0  0  0  0  0  0  0  0
   29.3846    5.1539   49.6294 N   0  3  0  0  0  0  0  0  0  0  0  0
   28.9637    6.0042   51.8942 C   0  0  2  0  0  0  0  0  0  0  0  0
   27.9264    6.5320   52.9045 C   0  0  2  0  0  0  0  0  0  0  0  0
   28.6140    6.6305   54.1666 O   0  0  0  0  0  0  0  0  0  0  0  0
   26.7371    5.5451   53.0209 C   0  0  1  0  0  0  0  0  0  0  0  0
   25.7638    6.0941   53.8661 O   0  0  0  0  0  0  0  0  0  0  0  0
   28.2432    7.5453   55.1946 C   0  0  1  0  0  0  0  0  0  0  0  0
   27.7347    6.7252   56.4336 C   0  0  2  0  0  0  0  0  0  0  0  0
   26.3509    6.4213   56.3938 O   0  0  0  0  0  0  0  0  0  0  0  0
   28.1410    7.7032   57.5271 C   0  0  2  0  0  0  0  0  0  0  0  0
   27.3289    8.9147   57.4779 O   0  0  0  0  0  0  0  0  0  0  0  0
   29.5594    8.0831   57.1255 C   0  0  2  0  0  0  0  0  0  0  0  0
   29.4046    8.2543   55.7062 O   0  0  0  0  0  0  0  0  0  0  0  0
   30.6526    7.0259   57.4903 C   0  0  0  0  0  0  0  0  0  0  0  0
   30.7533    6.8359   58.9072 O   0  0  0  0  0  0  0  0  0  0  0  0
   26.2894    8.9558   58.4522 C   0  0  2  0  0  0  0  0  0  0  0  0
   25.4118   10.2531   58.4187 C   0  0  2  0  0  0  0  0  0  0  0  0
   26.2130   11.5011   58.6030 N   0  3  0  0  0  0  0  0  0  0  0  0
   24.3242   10.0992   59.5338 C   0  0  1  0  0  0  0  0  0  0  0  0
   23.4828    8.9395   59.1668 O   0  0  0  0  0  0  0  0  0  0  0  0
   24.9508    9.8397   60.9590 C   0  0  2  0  0  0  0  0  0  0  0  0
   25.7211   10.9925   61.3363 O   0  0  0  0  0  0  0  0  0  0  0  0
   25.8479    8.5358   60.8736 C   0  0  1  0  0  0  0  0  0  0  0  0
   26.8503    8.7560   59.8247 O   0  0  0  0  0  0  0  0  0  0  0  0
   26.5515    8.1533   62.1956 C   0  0  0  0  0  0  0  0  0  0  0  0
   25.6060    7.7827   63.2834 N   0  3  0  0  0  0  0  0  0  0  0  0
  1  2  1  6  0  0  0
  1  3  1  0  0  0  0
  1 10  1  0  0  0  0
  3  4  1  6  0  0  0
  3  5  1  0  0  0  0
  5  6  1  1  0  0  0
  5  7  1  0  0  0  0
  7  8  1  6  0  0  0
  7  9  1  0  0  0  0
  9 10  1  0  0  0  0
  9 11  1  1  0  0  0
 11 12  1  0  0  0  0
 13 14  1  1  0  0  0
 13 15  1  0  0  0  0
 13 21  1  0  0  0  0
 15 16  1  0  0  0  0
 16 17  1  6  0  0  0
 16 18  1  0  0  0  0
 18  2  1  6  0  0  0
 18 19  1  0  0  0  0
 19 20  1  1  0  0  0
 19 21  1  0  0  0  0
 21 22  1  1  0  0  0
 23 20  1  6  0  0  0
 23 24  1  0  0  0  0
 23 29  1  0  0  0  0
 24 25  1  6  0  0  0
 24 26  1  0  0  0  0
 26 27  1  6  0  0  0
 26 28  1  0  0  0  0
 28 29  1  0  0  0  0
 28 30  1  6  0  0  0
 30 31  1  0  0  0  0
 32 27  1  6  0  0  0
 32 33  1  0  0  0  0
 32 40  1  0  0  0  0
 33 34  1  1  0  0  0
 33 35  1  0  0  0  0
 35 36  1  6  0  0  0
 35 37  1  0  0  0  0
 37 38  1  6  0  0  0
 37 39  1  0  0  0  0
 39 40  1  0  0  0  0
 39 41  1  1  0  0  0
 41 42  1  0  0  0  0
M  CHG  5   4   1  14   1  17   1  34   1  42   1
M  END
>  <CHROM.1>
-165.74402142,172.61123568,-54.71295741,-171.67039157,71.02155947,-71.19519433
179.15007705,-167.72466851,174.92799315,153.16975031,114.29967384,-29.96375321
-62.99287671,101.38812212,179.70176683,-62.90185599,-65.97581977,-102.03568277
-173.06509116,71.95136985,64.51033465,-158.72763762,28.61292478,7.54762164
55.28648212,-1.00625458,0.18148128,1.17903950

>  <Name>
1j7t

>  <RI>
0

>  <Rbt.Current_Directory>
/home/itssahil/PROJECTS/Mol_Feturizer/New_Systems/rnas/1j7t

>  <Rbt.Executable>
rbdock ($Id: //depot/dev/client3/rdock/2013.1/src/exe/rbdock.cxx#4 $)

>  <Rbt.Library>
libRbt.so (2013.1, Build901 2013/11/27)

>  <Rbt.Parameter_File>
/export/apps/rDock/src/rDock_2013.1_src/data/scripts/dock_solv.prm

>  <Rbt.Receptor>
prm/pocket_docking_8.prm

>  <SCORE>
-45.2533

>  <SCORE.INTER>
-37.5733

>  <SCORE.INTER.CONST>
1

>  <SCORE.INTER.POLAR>
-6.04815

>  <SCORE.INTER.ROT>
9

>  <SCORE.INTER.SOLV>
18.8157

>  <SCORE.INTER.VDW>
-20.7602

>  <SCORE.INTER.norm>
-0.894601

>  <SCORE.INTRA>
-7.68002

>  <SCORE.INTRA.DIHEDRAL>
-18.6314

>  <SCORE.INTRA.DIHEDRAL.0>
46.2143

>  <SCORE.INTRA.POLAR>
1.30397

>  <SCORE.INTRA.POLAR.0>
-1.76436

>  <SCORE.INTRA.REPUL>
0.000187839

>  <SCORE.INTRA.REPUL.0>
0

>  <SCORE.INTRA.SOLV>
-6.2744

>  <SCORE.INTRA.SOLV.lig_0>
-148.643

>  <SCORE.INTRA.VDW>
0.338446

>  <SCORE.INTRA.VDW.0>
-4.83512

>  <SCORE.INTRA.norm>
-0.182858

>  <SCORE.RESTR>
0

>  <SCORE.RESTR.CAVITY>
0

>  <SCORE.RESTR.norm>
0

>  <SCORE.SYSTEM>
0

>  <SCORE.SYSTEM.CONST>
0

>  <SCORE.SYSTEM.DIHEDRAL>
0

>  <SCORE.SYSTEM.SOLV>
0

>  <SCORE.SYSTEM.norm>
0

>  <SCORE.heavy>
42

>  <SCORE.norm>
-1.07746

>  <RMSD>
5.407

$$$$
1j7t
 OpenBabel11021811393D
libRbt.so/2013.1/901 2013/11/27
 42 45  0  0  0  0  0  0  0  0999 V2000
   30.7969   11.3943   50.2658 C   0  0  2  0  0  0  0  0  0  0  0  0
   31.1585   10.0317   49.9265 O   0  0  0  0  0  0  0  0  0  0  0  0
   30.0121   11.9689   49.0517 C   0  0  2  0  0  0  0  0  0  0  0  0
   28.8554   11.1364   48.6129 N   0  3  0  0  0  0  0  0  0  0  0  0
   30.9903   12.0891   47.8627 C   0  0  1  0  0  0  0  0  0  0  0  0
   30.3409   12.6183   46.7412 O   0  0  0  0  0  0  0  0  0  0  0  0
   32.2000   12.9688   48.2578 C   0  0  2  0  0  0  0  0  0  0  0  0
   33.0984   13.1096   47.1751 O   0  0  0  0  0  0  0  0  0  0  0  0
   32.9283   12.3450   49.4293 C   0  0  2  0  0  0  0  0  0  0  0  0
   32.0174   12.1630   50.5059 O   0  0  0  0  0  0  0  0  0  0  0  0
   34.0565   13.2057   49.9521 C   0  0  0  0  0  0  0  0  0  0  0  0
   33.5628   14.4959   50.2569 O   0  0  0  0  0  0  0  0  0  0  0  0
   32.8949    6.5363   51.5436 C   0  0  2  0  0  0  0  0  0  0  0  0
   33.5843    5.6275   52.4603 N   0  3  0  0  0  0  0  0  0  0  0  0
   33.8568    7.6939   51.1157 C   0  0  0  0  0  0  0  0  0  0  0  0
   33.1198    8.6798   50.1891 C   0  0  2  0  0  0  0  0  0  0  0  0
   33.9909    9.8008   49.8211 N   0  3  0  0  0  0  0  0  0  0  0  0
   31.8533    9.2209   50.8812 C   0  0  2  0  0  0  0  0  0  0  0  0
   30.8996    8.1000   51.3385 C   0  0  2  0  0  0  0  0  0  0  0  0
   29.8584    8.7470   52.0953 O   0  0  0  0  0  0  0  0  0  0  0  0
   31.6535    7.0819   52.2312 C   0  0  1  0  0  0  0  0  0  0  0  0
   30.7933    6.0229   52.5498 O   0  0  0  0  0  0  0  0  0  0  0  0
   30.0856    9.4145   53.3338 C   0  0  1  0  0  0  0  0  0  0  0  0
   29.3716    8.6063   54.4754 C   0  0  2  0  0  0  0  0  0  0  0  0
   28.0187    8.9749   54.6817 O   0  0  0  0  0  0  0  0  0  0  0  0
   30.3108    8.9634   55.6189 C   0  0  2  0  0  0  0  0  0  0  0  0
   30.1897   10.3725   55.9788 O   0  0  0  0  0  0  0  0  0  0  0  0
   31.6857    8.7636   54.9969 C   0  0  2  0  0  0  0  0  0  0  0  0
   31.4904    9.3629   53.7045 O   0  0  0  0  0  0  0  0  0  0  0  0
   32.1579    7.2754   54.9070 C   0  0  0  0  0  0  0  0  0  0  0  0
   32.5930    6.7803   56.1796 O   0  0  0  0  0  0  0  0  0  0  0  0
   29.8851   10.5957   57.3532 C   0  0  2  0  0  0  0  0  0  0  0  0
   28.3652   10.8213   57.6585 C   0  0  2  0  0  0  0  0  0  0  0  0
   27.7866   11.9749   56.9049 N   0  3  0  0  0  0  0  0  0  0  0  0
   28.2336   11.0221   59.2052 C   0  0  1  0  0  0  0  0  0  0  0  0
   28.6718    9.7643   59.8482 O   0  0  0  0  0  0  0  0  0  0  0  0
   29.1315   12.2045   59.7408 C   0  0  2  0  0  0  0  0  0  0  0  0
   28.6658   13.4323   59.1575 O   0  0  0  0  0  0  0  0  0  0  0  0
   30.6358   11.8998   59.3457 C   0  0  1  0  0  0  0  0  0  0  0  0
   30.6870   11.7399   57.8879 O   0  0  0  0  0  0  0  0  0  0  0  0
   31.6472   12.9818   59.7877 C   0  0  0  0  0  0  0  0  0  0  0  0
   31.4593   13.4279   61.1949 N   0  3  0  0  0  0  0  0  0  0  0  0
  1  2  1  6  0  0  0
  1  3  1  0  0  0  0
  1 10  1  0  0  0  0
  3  4  1  6  0  0  0
  3  5  1  0  0  0  0
  5  6  1  6  0  0  0
  5  7  1  0  0  0  0
  7  8  1  6  0  0  0
  7  9  1  0  0  0  0
  9 10  1  0  0  0  0
  9 11  1  1  0  0  0
 11 12  1  0  0  0  0
 13 14  1  1  0  0  0
 13 15  1  0  0  0  0
 13 21  1  0  0  0  0
 15 16  1  0  0  0  0
 16 17  1  1  0  0  0
 16 18  1  0  0  0  0
 18  2  1  6  0  0  0
 18 19  1  0  0  0  0
 19 20  1  1  0  0  0
 19 21  1  0  0  0  0
 21 22  1  6  0  0  0
 23 20  1  6  0  0  0
 23 24  1  0  0  0  0
 23 29  1  0  0  0  0
 24 25  1  1  0  0  0
 24 26  1  0  0  0  0
 26 27  1  6  0  0  0
 26 28  1  0  0  0  0
 28 29  1  0  0  0  0
 28 30  1  6  0  0  0
 30 31  1  0  0  0  0
 32 27  1  6  0  0  0
 32 33  1  0  0  0  0
 32 40  1  0  0  0  0
 33 34  1  6  0  0  0
 33 35  1  0  0  0  0
 35 36  1  1  0  0  0
 35 37  1  0  0  0  0
 37 38  1  6  0  0  0
 37 39  1  0  0  0  0
 39 40  1  0  0  0  0
 39 41  1  6  0  0  0
 41 42  1  0  0  0  0
M  CHG  5   4   1  14   1  17   1  34   1  42   1
M  END
>  <CHROM.1>
-177.66084934,-126.41582216,84.73772599,68.28881731,175.85171765,54.18962454
66.94934739,173.54154597,171.03748082,-65.37875957,-112.59275715,-177.50667415
35.11128645,124.49810654,-96.76063098,-76.36077889,-70.44689959,-63.85743037
179.49703997,177.29904288,46.14587708,55.50039067,31.03252140,10.34783178
53.44571497,0.53897309,1.29653586,-0.58050137

>  <Name>
1j7t

>  <RI>
0

>  <Rbt.Current_Directory>
/home/itssahil/PROJECTS/Mol_Feturizer/New_Systems/rnas/1j7t

>  <Rbt.Executable>
rbdock ($Id: //depot/dev/client3/rdock/2013.1/src/exe/rbdock.cxx#4 $)

>  <Rbt.Library>
libRbt.so (2013.1, Build901 2013/11/27)

>  <Rbt.Parameter_File>
/export/apps/rDock/src/rDock_2013.1_src/data/scripts/dock_solv.prm

>  <Rbt.Receptor>
prm/blind_docking_80.prm

>  <SCORE>
-5.31601

>  <SCORE.INTER>
-28.0978

>  <SCORE.INTER.CONST>
1

>  <SCORE.INTER.POLAR>
-5.77883

>  <SCORE.INTER.ROT>
9

>  <SCORE.INTER.SOLV>
40.1532

>  <SCORE.INTER.VDW>
-22.4535

>  <SCORE.INTER.norm>
-0.668996

>  <SCORE.INTRA>
2.73614

>  <SCORE.INTRA.DIHEDRAL>
-13.0759

>  <SCORE.INTRA.DIHEDRAL.0>
46.2143

>  <SCORE.INTRA.POLAR>
1.02883

>  <SCORE.INTRA.POLAR.0>
-1.76436

>  <SCORE.INTRA.REPUL>
0

>  <SCORE.INTRA.REPUL.0>
0

>  <SCORE.INTRA.SOLV>
1.86948

>  <SCORE.INTRA.SOLV.lig_0>
-148.643

>  <SCORE.INTRA.VDW>
4.84137

>  <SCORE.INTRA.VDW.0>
-4.83512

>  <SCORE.INTRA.norm>
0.0651462

>  <SCORE.RESTR>
20.0457

>  <SCORE.RESTR.CAVITY>
20.0457

>  <SCORE.RESTR.norm>
0.477278

>  <SCORE.SYSTEM>
0

>  <SCORE.SYSTEM.CONST>
0

>  <SCORE.SYSTEM.DIHEDRAL>
0

>  <SCORE.SYSTEM.SOLV>
0

>  <SCORE.SYSTEM.norm>
0

>  <SCORE.heavy>
42

>  <SCORE.norm>
-0.126572

>  <RMSD>
5.433

$$$$
1j7t
 OpenBabel11021811393D
libRbt.so/2013.1/901 2013/11/27
 42 45  0  0  0  0  0  0  0  0999 V2000
   28.4836    4.4954   53.8145 C   0  0  2  0  0  0  0  0  0  0  0  0
   29.8614    4.0846   54.0022 O   0  0  0  0  0  0  0  0  0  0  0  0
   28.1914    4.4125   52.2888 C   0  0  2  0  0  0  0  0  0  0  0  0
   28.5107    3.0946   51.6686 N   0  3  0  0  0  0  0  0  0  0  0  0
   29.0400    5.4904   51.5795 C   0  0  1  0  0  0  0  0  0  0  0  0
   28.8053    5.4738   50.1995 O   0  0  0  0  0  0  0  0  0  0  0  0
   28.7259    6.8858   52.1692 C   0  0  2  0  0  0  0  0  0  0  0  0
   29.4775    7.8911   51.5182 O   0  0  0  0  0  0  0  0  0  0  0  0
   29.0494    6.9034   53.6481 C   0  0  2  0  0  0  0  0  0  0  0  0
   28.3272    5.8660   54.2994 O   0  0  0  0  0  0  0  0  0  0  0  0
   28.6596    8.1986   54.3246 C   0  0  0  0  0  0  0  0  0  0  0  0
   28.8195    8.0662   55.7239 O   0  0  0  0  0  0  0  0  0  0  0  0
   31.3369    1.8090   57.2414 C   0  0  2  0  0  0  0  0  0  0  0  0
   31.8381    1.4497   58.5685 N   0  3  0  0  0  0  0  0  0  0  0  0
   32.3180    2.8163   56.5549 C   0  0  0  0  0  0  0  0  0  0  0  0
   31.7692    3.2349   55.1775 C   0  0  2  0  0  0  0  0  0  0  0  0
   32.6501    4.2207   54.5424 N   0  3  0  0  0  0  0  0  0  0  0  0
   30.3548    3.8299   55.3225 C   0  0  2  0  0  0  0  0  0  0  0  0
   29.3732    2.8688   56.0211 C   0  0  2  0  0  0  0  0  0  0  0  0
   28.1582    3.6166   56.2213 O   0  0  0  0  0  0  0  0  0  0  0  0
   29.9476    2.4097   57.3853 C   0  0  1  0  0  0  0  0  0  0  0  0
   29.0859    1.4616   57.9524 O   0  0  0  0  0  0  0  0  0  0  0  0
   28.0197    4.6446   57.1986 C   0  0  1  0  0  0  0  0  0  0  0  0
   26.5758    5.2514   57.0844 C   0  0  2  0  0  0  0  0  0  0  0  0
   26.4700    6.3132   56.1514 O   0  0  0  0  0  0  0  0  0  0  0  0
   26.3931    5.6611   58.5391 C   0  0  2  0  0  0  0  0  0  0  0  0
   27.2757    6.7696   58.8884 O   0  0  0  0  0  0  0  0  0  0  0  0
   26.8764    4.4317   59.2956 C   0  0  2  0  0  0  0  0  0  0  0  0
   28.0547    4.0942   58.5436 O   0  0  0  0  0  0  0  0  0  0  0  0
   25.8481    3.2556   59.3664 C   0  0  0  0  0  0  0  0  0  0  0  0
   26.3665    2.1431   60.1065 O   0  0  0  0  0  0  0  0  0  0  0  0
   26.5935    7.9224   59.3754 C   0  0  2  0  0  0  0  0  0  0  0  0
   25.6588    8.6204   58.3298 C   0  0  2  0  0  0  0  0  0  0  0  0
   26.3857    9.0492   57.0964 N   0  3  0  0  0  0  0  0  0  0  0  0
   24.9893    9.8360   59.0535 C   0  0  1  0  0  0  0  0  0  0  0  0
   24.1607    9.2897   60.1501 O   0  0  0  0  0  0  0  0  0  0  0  0
   26.0477   10.8334   59.6667 C   0  0  2  0  0  0  0  0  0  0  0  0
   26.8126   11.4050   58.5929 O   0  0  0  0  0  0  0  0  0  0  0  0
   26.9641   10.0226   60.6741 C   0  0  1  0  0  0  0  0  0  0  0  0
   27.5689    8.9134   59.9276 O   0  0  0  0  0  0  0  0  0  0  0  0
   28.0718   10.8612   61.3512 C   0  0  0  0  0  0  0  0  0  0  0  0
   28.9457   10.0667   62.2565 N   0  3  0  0  0  0  0  0  0  0  0  0
  1  2  1  6  0  0  0
  1  3  1  0  0  0  0
  1 10  1  0  0  0  0
  3  4  1  6  0  0  0
  3  5  1  0  0  0  0
  5  6  1  6  0  0  0
  5  7  1  0  0  0  0
  7  8  1  6  0  0  0
  7  9  1  0  0  0  0
  9 10  1  0  0  0  0
  9 11  1  1  0  0  0
 11 12  1  0  0  0  0
 13 14  1  1  0  0  0
 13 15  1  0  0  0  0
 13 21  1  0  0  0  0
 15 16  1  0  0  0  0
 16 17  1  1  0  0  0
 16 18  1  0  0  0  0
 18  2  1  6  0  0  0
 18 19  1  0  0  0  0
 19 20  1  1  0  0  0
 19 21  1  0  0  0  0
 21 22  1  6  0  0  0
 23 20  1  6  0  0  0
 23 24  1  0  0  0  0
 23 29  1  0  0  0  0
 24 25  1  6  0  0  0
 24 26  1  0  0  0  0
 26 27  1  1  0  0  0
 26 28  1  0  0  0  0
 28 29  1  0  0  0  0
 28 30  1  6  0  0  0
 30 31  1  0  0  0  0
 32 27  1  6  0  0  0
 32 33  1  0  0  0  0
 32 40  1  0  0  0  0
 33 34  1  6  0  0  0
 33 35  1  0  0  0  0
 35 36  1  1  0  0  0
 35 37  1  0  0  0  0
 37 38  1  6  0  0  0
 37 39  1  0  0  0  0
 39 40  1  0  0  0  0
 39 41  1  6  0  0  0
 41 42  1  0  0  0  0
M  CHG  5   4   1  14   1  17   1  34   1  42   1
M  END
>  <CHROM.1>
-168.96002458,172.43221310,-176.00023450,77.21254619,-51.00761648,171.88352154
67.51861349,27.44495779,-175.49723799,-73.35401281,178.28025178,-56.12946676
52.17186332,122.27151311,-64.89542237,-179.26805760,63.88205958,51.88989089
61.88703831,68.38026213,-178.06471864,-175.58778399,28.27306072,5.91448715
56.70837800,0.32787261,1.15103307,-1.10199843

>  <Name>
1j7t

>  <RI>
0

>  <Rbt.Current_Directory>
/home/itssahil/PROJECTS/Mol_Feturizer/New_Systems/rnas/1j7t

>  <Rbt.Executable>
rbdock ($Id: //depot/dev/client3/rdock/2013.1/src/exe/rbdock.cxx#4 $)

>  <Rbt.Library>
libRbt.so (2013.1, Build901 2013/11/27)

>  <Rbt.Parameter_File>
/export/apps/rDock/src/rDock_2013.1_src/data/scripts/dock_solv.prm

>  <Rbt.Receptor>
prm/pocket_docking_8.prm

>  <SCORE>
-41.1998

>  <SCORE.INTER>
-20.6749

>  <SCORE.INTER.CONST>
1

>  <SCORE.INTER.POLAR>
-4.44718

>  <SCORE.INTER.ROT>
9

>  <SCORE.INTER.SOLV>
14.0191

>  <SCORE.INTER.VDW>
-13.2323

>  <SCORE.INTER.norm>
-0.492258

>  <SCORE.INTRA>
-20.5249

>  <SCORE.INTRA.DIHEDRAL>
-31.4657

>  <SCORE.INTRA.DIHEDRAL.0>
46.2143

>  <SCORE.INTRA.POLAR>
-1.30033

>  <SCORE.INTRA.POLAR.0>
-1.76436

>  <SCORE.INTRA.REPUL>
0

>  <SCORE.INTRA.REPUL.0>
0

>  <SCORE.INTRA.SOLV>
-0.401173

>  <SCORE.INTRA.SOLV.lig_0>
-148.643

>  <SCORE.INTRA.VDW>
-0.170401

>  <SCORE.INTRA.VDW.0>
-4.83512

>  <SCORE.INTRA.norm>
-0.488689

>  <SCORE.RESTR>
0

>  <SCORE.RESTR.CAVITY>
0

>  <SCORE.RESTR.norm>
0

>  <SCORE.SYSTEM>
0

>  <SCORE.SYSTEM.CONST>
0

>  <SCORE.SYSTEM.DIHEDRAL>
0

>  <SCORE.SYSTEM.SOLV>
0

>  <SCORE.SYSTEM.norm>
0

>  <SCORE.heavy>
42

>  <SCORE.norm>
-0.980947

>  <RMSD>
5.442

$$$$
1j7t
 OpenBabel11021811393D
libRbt.so/2013.1/901 2013/11/27
 42 45  0  0  0  0  0  0  0  0999 V2000
   27.7235    6.5488   52.9672 C   0  0  2  0  0  0  0  0  0  0  0  0
   28.0659    5.2925   52.3294 O   0  0  0  0  0  0  0  0  0  0  0  0
   27.2220    7.5028   51.8453 C   0  0  2  0  0  0  0  0  0  0  0  0
   26.1266    6.9439   51.0020 N   0  3  0  0  0  0  0  0  0  0  0  0
   28.4167    7.8253   50.9214 C   0  0  1  0  0  0  0  0  0  0  0  0
   28.0274    8.6969   49.8976 O   0  0  0  0  0  0  0  0  0  0  0  0
   29.5752    8.4353   51.7456 C   0  0  2  0  0  0  0  0  0  0  0  0
   30.6724    8.7581   50.9143 O   0  0  0  0  0  0  0  0  0  0  0  0
   30.0268    7.4513   52.8038 C   0  0  2  0  0  0  0  0  0  0  0  0
   28.9162    7.0919   53.6158 O   0  0  0  0  0  0  0  0  0  0  0  0
   31.0797    8.0183   53.7296 C   0  0  0  0  0  0  0  0  0  0  0  0
   32.2134    8.4018   52.9753 O   0  0  0  0  0  0  0  0  0  0  0  0
   26.4896    1.3729   52.3518 C   0  0  2  0  0  0  0  0  0  0  0  0
   25.9829    0.0854   52.8282 N   0  3  0  0  0  0  0  0  0  0  0  0
   27.9771    1.5601   52.7997 C   0  0  0  0  0  0  0  0  0  0  0  0
   28.4991    2.9355   52.3421 C   0  0  2  0  0  0  0  0  0  0  0  0
   29.8758    3.1501   52.8002 N   0  3  0  0  0  0  0  0  0  0  0  0
   27.5966    4.0597   52.8875 C   0  0  2  0  0  0  0  0  0  0  0  0
   26.1193    3.8857   52.4843 C   0  0  2  0  0  0  0  0  0  0  0  0
   25.3908    4.9088   53.1899 O   0  0  0  0  0  0  0  0  0  0  0  0
   25.6084    2.4834   52.9017 C   0  0  1  0  0  0  0  0  0  0  0  0
   24.2981    2.3129   52.4358 O   0  0  0  0  0  0  0  0  0  0  0  0
   25.3616    5.0151   54.6109 C   0  0  1  0  0  0  0  0  0  0  0  0
   24.4754    6.2513   55.0014 C   0  0  2  0  0  0  0  0  0  0  0  0
   25.1887    7.4747   55.0612 O   0  0  0  0  0  0  0  0  0  0  0  0
   23.9678    5.7435   56.3437 C   0  0  2  0  0  0  0  0  0  0  0  0
   25.0453    5.6865   57.3263 O   0  0  0  0  0  0  0  0  0  0  0  0
   23.5581    4.3122   56.0262 C   0  0  2  0  0  0  0  0  0  0  0  0
   24.6595    3.8889   55.2042 O   0  0  0  0  0  0  0  0  0  0  0  0
   22.1772    4.1667   55.3068 C   0  0  0  0  0  0  0  0  0  0  0  0
   22.3126    4.2386   53.8818 O   0  0  0  0  0  0  0  0  0  0  0  0
   24.6091    5.8405   58.6745 C   0  0  2  0  0  0  0  0  0  0  0  0
   25.7032    5.5402   59.7548 C   0  0  2  0  0  0  0  0  0  0  0  0
   26.2620    4.1584   59.6468 N   0  3  0  0  0  0  0  0  0  0  0  0
   25.0452    5.7858   61.1536 C   0  0  1  0  0  0  0  0  0  0  0  0
   24.6830    7.2182   61.2210 O   0  0  0  0  0  0  0  0  0  0  0  0
   23.7414    4.9227   61.3693 C   0  0  2  0  0  0  0  0  0  0  0  0
   24.1066    3.5330   61.3600 O   0  0  0  0  0  0  0  0  0  0  0  0
   22.7218    5.2700   60.2066 C   0  0  1  0  0  0  0  0  0  0  0  0
   23.3967    5.0024   58.9313 O   0  0  0  0  0  0  0  0  0  0  0  0
   21.3899    4.4881   60.2662 C   0  0  0  0  0  0  0  0  0  0  0  0
   20.6815    4.6242   61.5678 N   0  3  0  0  0  0  0  0  0  0  0  0
  1  2  1  6  0  0  0
  1  3  1  0  0  0  0
  1 10  1  0  0  0  0
  3  4  1  6  0  0  0
  3  5  1  0  0  0  0
  5  6  1  6  0  0  0
  5  7  1  0  0  0  0
  7  8  1  6  0  0  0
  7  9  1  0  0  0  0
  9 10  1  0  0  0  0
  9 11  1  1  0  0  0
 11 12  1  0  0  0  0
 13 14  1  1  0  0  0
 13 15  1  0  0  0  0
 13 21  1  0  0  0  0
 15 16  1  0  0  0  0
 16 17  1  1  0  0  0
 16 18  1  0  0  0  0
 18  2  1  6  0  0  0
 18 19  1  0  0  0  0
 19 20  1  1  0  0  0
 19 21  1  0  0  0  0
 21 22  1  6  0  0  0
 23 20  1  6  0  0  0
 23 24  1  0  0  0  0
 23 29  1  0  0  0  0
 24 25  1  1  0  0  0
 24 26  1  0  0  0  0
 26 27  1  1  0  0  0
 26 28  1  0  0  0  0
 28 29  1  0  0  0  0
 28 30  1  6  0  0  0
 30 31  1  0  0  0  0
 32 27  1  6  0  0  0
 32 33  1  0  0  0  0
 32 40  1  0  0  0  0
 33 34  1  1  0  0  0
 33 35  1  0  0  0  0
 35 36  1  6  0  0  0
 35 37  1  0  0  0  0
 37 38  1  6  0  0  0
 37 39  1  0  0  0  0
 39 40  1  0  0  0  0
 39 41  1  1  0  0  0
 41 42  1  0  0  0  0
M  CHG  5   4   1  14   1  17   1  34   1  42   1
M  END
>  <CHROM.1>
-132.30349834,-159.87618319,136.86300899,-72.11832741,-58.30788778,-59.48743043
172.36918250,-60.70160230,-58.47885509,-59.88784680,179.68890004,-179.76543031
-171.74220425,152.15007895,170.04326324,88.59188307,-64.58501713,164.52502409
67.68504274,177.55877912,54.85954527,-63.62691260,26.06978091,5.26237147
55.10898470,-0.63229082,0.80082755,0.99114856

>  <Name>
1j7t

>  <RI>
0

>  <Rbt.Current_Directory>
/home/itssahil/PROJECTS/Mol_Feturizer/New_Systems/rnas/1j7t

>  <Rbt.Executable>
rbdock ($Id: //depot/dev/client3/rdock/2013.1/src/exe/rbdock.cxx#4 $)

>  <Rbt.Library>
libRbt.so (2013.1, Build901 2013/11/27)

>  <Rbt.Parameter_File>
/export/apps/rDock/src/rDock_2013.1_src/data/scripts/dock_solv.prm

>  <Rbt.Receptor>
prm/pocket_docking_8.prm

>  <SCORE>
-52.7492

>  <SCORE.INTER>
-34.0123

>  <SCORE.INTER.CONST>
1

>  <SCORE.INTER.POLAR>
-5.46114

>  <SCORE.INTER.ROT>
9

>  <SCORE.INTER.SOLV>
16.9561

>  <SCORE.INTER.VDW>
-19.7231

>  <SCORE.INTER.norm>
-0.809817

>  <SCORE.INTRA>
-18.7369

>  <SCORE.INTRA.DIHEDRAL>
-25.9418

>  <SCORE.INTRA.DIHEDRAL.0>
46.2143

>  <SCORE.INTRA.POLAR>
-1.23999

>  <SCORE.INTRA.POLAR.0>
-1.76436

>  <SCORE.INTRA.REPUL>
0

>  <SCORE.INTRA.REPUL.0>
0

>  <SCORE.INTRA.SOLV>
-1.44467

>  <SCORE.INTRA.SOLV.lig_0>
-148.643

>  <SCORE.INTRA.VDW>
-0.827749

>  <SCORE.INTRA.VDW.0>
-4.83512

>  <SCORE.INTRA.norm>
-0.446117

>  <SCORE.RESTR>
0

>  <SCORE.RESTR.CAVITY>
0

>  <SCORE.RESTR.norm>
0

>  <SCORE.SYSTEM>
0

>  <SCORE.SYSTEM.CONST>
0

>  <SCORE.SYSTEM.DIHEDRAL>
0

>  <SCORE.SYSTEM.SOLV>
0

>  <SCORE.SYSTEM.norm>
0

>  <SCORE.heavy>
42

>  <SCORE.norm>
-1.25593

>  <RMSD>
5.469

$$$$
1j7t
 OpenBabel11021811393D
libRbt.so/2013.1/901 2013/11/27
 42 45  0  0  0  0  0  0  0  0999 V2000
   29.8054   10.4275   51.0758 C   0  0  2  0  0  0  0  0  0  0  0  0
   30.6460    9.2527   50.9498 O   0  0  0  0  0  0  0  0  0  0  0  0
   29.0696   10.6042   49.7165 C   0  0  2  0  0  0  0  0  0  0  0  0
   28.3361    9.3933   49.2482 N   0  3  0  0  0  0  0  0  0  0  0  0
   30.1219   10.9669   48.6460 C   0  0  1  0  0  0  0  0  0  0  0  0
   29.5131   11.1548   47.3996 O   0  0  0  0  0  0  0  0  0  0  0  0
   30.8958   12.2371   49.0718 C   0  0  2  0  0  0  0  0  0  0  0  0
   31.8508   12.5994   48.0941 O   0  0  0  0  0  0  0  0  0  0  0  0
   31.6018   11.9917   50.3884 C   0  0  2  0  0  0  0  0  0  0  0  0
   30.6497   11.5861   51.3636 O   0  0  0  0  0  0  0  0  0  0  0  0
   32.2865   13.2253   50.9327 C   0  0  0  0  0  0  0  0  0  0  0  0
   33.3891   13.5542   50.1097 O   0  0  0  0  0  0  0  0  0  0  0  0
   32.9605    6.6734   53.3661 C   0  0  2  0  0  0  0  0  0  0  0  0
   33.8230    6.1860   54.4431 N   0  3  0  0  0  0  0  0  0  0  0  0
   33.7175    7.7523   52.5227 C   0  0  0  0  0  0  0  0  0  0  0  0
   32.7961    8.3035   51.4178 C   0  0  2  0  0  0  0  0  0  0  0  0
   33.4721    9.3550   50.6508 N   0  3  0  0  0  0  0  0  0  0  0  0
   31.5014    8.8700   52.0330 C   0  0  2  0  0  0  0  0  0  0  0  0
   30.7484    7.8359   52.8926 C   0  0  2  0  0  0  0  0  0  0  0  0
   29.6640    8.5504   53.5163 O   0  0  0  0  0  0  0  0  0  0  0  0
   31.6896    7.2460   53.9734 C   0  0  1  0  0  0  0  0  0  0  0  0
   31.0126    6.2390   54.6739 O   0  0  0  0  0  0  0  0  0  0  0  0
   29.8468    9.4965   54.5663 C   0  0  1  0  0  0  0  0  0  0  0  0
   28.6053    9.4248   55.5253 C   0  0  2  0  0  0  0  0  0  0  0  0
   27.5311   10.2654   55.1398 O   0  0  0  0  0  0  0  0  0  0  0  0
   29.3006    9.8314   56.8170 C   0  0  2  0  0  0  0  0  0  0  0  0
   29.7061   11.2327   56.7777 O   0  0  0  0  0  0  0  0  0  0  0  0
   30.5658    8.9853   56.7960 C   0  0  2  0  0  0  0  0  0  0  0  0
   30.9615    9.1199   55.4201 O   0  0  0  0  0  0  0  0  0  0  0  0
   30.3680    7.4942   57.2240 C   0  0  0  0  0  0  0  0  0  0  0  0
   29.0858    6.9944   56.8241 O   0  0  0  0  0  0  0  0  0  0  0  0
   30.1618   11.7397   58.0295 C   0  0  2  0  0  0  0  0  0  0  0  0
   29.1969   11.4723   59.2344 C   0  0  2  0  0  0  0  0  0  0  0  0
   27.8307   12.0392   59.0211 N   0  3  0  0  0  0  0  0  0  0  0  0
   29.8767   12.0762   60.5083 C   0  0  1  0  0  0  0  0  0  0  0  0
   31.1362   11.3321   60.7262 O   0  0  0  0  0  0  0  0  0  0  0  0
   30.2157   13.6090   60.3445 C   0  0  2  0  0  0  0  0  0  0  0  0
   28.9855   14.3352   60.1902 O   0  0  0  0  0  0  0  0  0  0  0  0
   31.1578   13.7738   59.0806 C   0  0  1  0  0  0  0  0  0  0  0  0
   30.4537   13.2034   57.9264 O   0  0  0  0  0  0  0  0  0  0  0  0
   31.5694   15.2314   58.7726 C   0  0  0  0  0  0  0  0  0  0  0  0
   30.4293   16.1873   58.8037 N   0  3  0  0  0  0  0  0  0  0  0  0
  1  2  1  6  0  0  0
  1  3  1  0  0  0  0
  1 10  1  0  0  0  0
  3  4  1  6  0  0  0
  3  5  1  0  0  0  0
  5  6  1  6  0  0  0
  5  7  1  0  0  0  0
  7  8  1  6  0  0  0
  7  9  1  0  0  0  0
  9 10  1  0  0  0  0
  9 11  1  1  0  0  0
 11 12  1  0  0  0  0
 13 14  1  1  0  0  0
 13 15  1  0  0  0  0
 13 21  1  0  0  0  0
 15 16  1  0  0  0  0
 16 17  1  1  0  0  0
 16 18  1  0  0  0  0
 18  2  1  6  0  0  0
 18 19  1  0  0  0  0
 19 20  1  1  0  0  0
 19 21  1  0  0  0  0
 21 22  1  6  0  0  0
 23 20  1  6  0  0  0
 23 24  1  0  0  0  0
 23 29  1  0  0  0  0
 24 25  1  6  0  0  0
 24 26  1  0  0  0  0
 26 27  1  6  0  0  0
 26 28  1  0  0  0  0
 28 29  1  0  0  0  0
 28 30  1  6  0  0  0
 30 31  1  0  0  0  0
 32 27  1  6  0  0  0
 32 33  1  0  0  0  0
 32 40  1  0  0  0  0
 33 34  1  6  0  0  0
 33 35  1  0  0  0  0
 35 36  1  6  0  0  0
 35 37  1  0  0  0  0
 37 38  1  6  0  0  0
 37 39  1  0  0  0  0
 39 40  1  0  0  0  0
 39 41  1  6  0  0  0
 41 42  1  0  0  0  0
M  CHG  5   4   1  14   1  17   1  34   1  42   1
M  END
>  <CHROM.1>
177.07518790,-144.13891739,-168.23138916,-69.13396038,-58.36294383,-69.01131169
-60.65390318,-62.32858333,-162.53789381,-71.85084864,-146.75183947,-59.37145504
178.48693570,170.17213342,-50.70055396,33.67381598,-59.40110528,173.03154077
68.54434674,67.57719970,-46.89892502,155.01829621,30.61779296,10.53725660
54.37626294,0.35905846,1.42585644,-0.60643989

>  <Name>
1j7t

>  <RI>
0

>  <Rbt.Current_Directory>
/home/itssahil/PROJECTS/Mol_Feturizer/New_Systems/rnas/1j7t

>  <Rbt.Executable>
rbdock ($Id: //depot/dev/client3/rdock/2013.1/src/exe/rbdock.cxx#4 $)

>  <Rbt.Library>
libRbt.so (2013.1, Build901 2013/11/27)

>  <Rbt.Parameter_File>
/export/apps/rDock/src/rDock_2013.1_src/data/scripts/dock_solv.prm

>  <Rbt.Receptor>
prm/blind_docking_80.prm

>  <SCORE>
4.02201

>  <SCORE.INTER>
-10.741

>  <SCORE.INTER.CONST>
1

>  <SCORE.INTER.POLAR>
-1.80182

>  <SCORE.INTER.ROT>
9

>  <SCORE.INTER.SOLV>
35.2089

>  <SCORE.INTER.VDW>
-22.4909

>  <SCORE.INTER.norm>
-0.255738

>  <SCORE.INTRA>
-8.78412

>  <SCORE.INTRA.DIHEDRAL>
-28.5968

>  <SCORE.INTRA.DIHEDRAL.0>
46.2143

>  <SCORE.INTRA.POLAR>
0.322772

>  <SCORE.INTRA.POLAR.0>
-1.76436

>  <SCORE.INTRA.REPUL>
0

>  <SCORE.INTRA.REPUL.0>
0

>  <SCORE.INTRA.SOLV>
2.54409

>  <SCORE.INTRA.SOLV.lig_0>
-148.643

>  <SCORE.INTRA.VDW>
3.14481

>  <SCORE.INTRA.VDW.0>
-4.83512

>  <SCORE.INTRA.norm>
-0.209146

>  <SCORE.RESTR>
23.5471

>  <SCORE.RESTR.CAVITY>
23.5471

>  <SCORE.RESTR.norm>
0.560646

>  <SCORE.SYSTEM>
0

>  <SCORE.SYSTEM.CONST>
0

>  <SCORE.SYSTEM.DIHEDRAL>
0

>  <SCORE.SYSTEM.SOLV>
0

>  <SCORE.SYSTEM.norm>
0

>  <SCORE.heavy>
42

>  <SCORE.norm>
0.0957621

>  <RMSD>
5.473

$$$$
1j7t
 OpenBabel11021811393D
libRbt.so/2013.1/901 2013/11/27
 42 45  0  0  0  0  0  0  0  0999 V2000
   28.3289    7.0856   52.2043 C   0  0  2  0  0  0  0  0  0  0  0  0
   28.2850    6.0140   51.2284 O   0  0  0  0  0  0  0  0  0  0  0  0
   28.6621    8.3911   51.4266 C   0  0  2  0  0  0  0  0  0  0  0  0
   27.7598    8.6714   50.2730 N   0  3  0  0  0  0  0  0  0  0  0  0
   30.1035    8.2714   50.8853 C   0  0  1  0  0  0  0  0  0  0  0  0
   30.4661    9.4292   50.1872 O   0  0  0  0  0  0  0  0  0  0  0  0
   31.0872    8.0063   52.0497 C   0  0  2  0  0  0  0  0  0  0  0  0
   32.4169    7.9146   51.5779 O   0  0  0  0  0  0  0  0  0  0  0  0
   30.7187    6.7156   52.7500 C   0  0  2  0  0  0  0  0  0  0  0  0
   29.3681    6.7881   53.1889 O   0  0  0  0  0  0  0  0  0  0  0  0
   31.5625    6.4445   53.9754 C   0  0  0  0  0  0  0  0  0  0  0  0
   31.0810    5.2880   54.6328 O   0  0  0  0  0  0  0  0  0  0  0  0
   25.6956    2.7023   50.8087 C   0  0  2  0  0  0  0  0  0  0  0  0
   25.0034    1.4413   51.0770 N   0  3  0  0  0  0  0  0  0  0  0  0
   27.2320    2.4466   50.6585 C   0  0  0  0  0  0  0  0  0  0  0  0
   27.9703    3.7784   50.4245 C   0  0  2  0  0  0  0  0  0  0  0  0
   29.4184    3.5637   50.3350 N   0  3  0  0  0  0  0  0  0  0  0  0
   27.6687    4.7665   51.5683 C   0  0  2  0  0  0  0  0  0  0  0  0
   26.1596    5.0161   51.7572 C   0  0  2  0  0  0  0  0  0  0  0  0
   26.0348    5.8226   52.9444 O   0  0  0  0  0  0  0  0  0  0  0  0
   25.4105    3.6724   51.9442 C   0  0  1  0  0  0  0  0  0  0  0  0
   24.0329    3.9186   52.0125 O   0  0  0  0  0  0  0  0  0  0  0  0
   26.1651    5.3029   54.2651 C   0  0  1  0  0  0  0  0  0  0  0  0
   25.7455    6.4204   55.2854 C   0  0  2  0  0  0  0  0  0  0  0  0
   26.8064    7.2799   55.6660 O   0  0  0  0  0  0  0  0  0  0  0  0
   25.2250    5.5200   56.3970 C   0  0  2  0  0  0  0  0  0  0  0  0
   26.3132    4.7792   57.0270 O   0  0  0  0  0  0  0  0  0  0  0  0
   24.3641    4.5184   55.6401 C   0  0  2  0  0  0  0  0  0  0  0  0
   25.2023    4.2405   54.5053 O   0  0  0  0  0  0  0  0  0  0  0  0
   22.9488    5.0433   55.2310 C   0  0  0  0  0  0  0  0  0  0  0  0
   22.1981    4.0466   54.5260 O   0  0  0  0  0  0  0  0  0  0  0  0
   27.0747    5.5461   57.9563 C   0  0  2  0  0  0  0  0  0  0  0  0
   28.2711    4.7779   58.6139 C   0  0  2  0  0  0  0  0  0  0  0  0
   27.8408    3.5431   59.3376 N   0  3  0  0  0  0  0  0  0  0  0  0
   28.9900    5.7843   59.5731 C   0  0  1  0  0  0  0  0  0  0  0  0
   29.5241    6.8805   58.7360 O   0  0  0  0  0  0  0  0  0  0  0  0
   28.0122    6.3988   60.6491 C   0  0  2  0  0  0  0  0  0  0  0  0
   27.5401    5.3383   61.4960 O   0  0  0  0  0  0  0  0  0  0  0  0
   26.8224    7.1133   59.8837 C   0  0  1  0  0  0  0  0  0  0  0  0
   26.1871    6.1118   59.0196 O   0  0  0  0  0  0  0  0  0  0  0  0
   25.7609    7.7562   60.8050 C   0  0  0  0  0  0  0  0  0  0  0  0
   24.8170    8.6531   60.0845 N   0  3  0  0  0  0  0  0  0  0  0  0
  1  2  1  6  0  0  0
  1  3  1  0  0  0  0
  1 10  1  0  0  0  0
  3  4  1  6  0  0  0
  3  5  1  0  0  0  0
  5  6  1  1  0  0  0
  5  7  1  0  0  0  0
  7  8  1  6  0  0  0
  7  9  1  0  0  0  0
  9 10  1  0  0  0  0
  9 11  1  1  0  0  0
 11 12  1  0  0  0  0
 13 14  1  1  0  0  0
 13 15  1  0  0  0  0
 13 21  1  0  0  0  0
 15 16  1  0  0  0  0
 16 17  1  1  0  0  0
 16 18  1  0  0  0  0
 18  2  1  6  0  0  0
 18 19  1  0  0  0  0
 19 20  1  1  0  0  0
 19 21  1  0  0  0  0
 21 22  1  6  0  0  0
 23 20  1  6  0  0  0
 23 24  1  0  0  0  0
 23 29  1  0  0  0  0
 24 25  1  1  0  0  0
 24 26  1  0  0  0  0
 26 27  1  6  0  0  0
 26 28  1  0  0  0  0
 28 29  1  0  0  0  0
 28 30  1  6  0  0  0
 30 31  1  0  0  0  0
 32 27  1  6  0  0  0
 32 33  1  0  0  0  0
 32 40  1  0  0  0  0
 33 34  1  1  0  0  0
 33 35  1  0  0  0  0
 35 36  1  6  0  0  0
 35 37  1  0  0  0  0
 37 38  1  1  0  0  0
 37 39  1  0  0  0  0
 39 40  1  0  0  0  0
 39 41  1  1  0  0  0
 41 42  1  0  0  0  0
M  CHG  5   4   1  14   1  17   1  34   1  42   1
M  END
>  <CHROM.1>
-163.80015074,-171.47117304,179.50318789,65.09101072,-51.23556616,174.97007426
-179.41993898,-178.96338694,75.91714230,-76.46731686,-171.20704746,-156.11797605
54.58708572,78.39011097,-178.43980661,-179.90969525,-61.86537378,-66.18069383
-55.04949366,78.51472417,168.03847776,178.09347091,27.39116361,5.74466555
54.59153391,-1.31712686,0.55662298,1.40450357

>  <Name>
1j7t

>  <RI>
0

>  <Rbt.Current_Directory>
/home/itssahil/PROJECTS/Mol_Feturizer/New_Systems/rnas/1j7t

>  <Rbt.Executable>
rbdock ($Id: //depot/dev/client3/rdock/2013.1/src/exe/rbdock.cxx#4 $)

>  <Rbt.Library>
libRbt.so (2013.1, Build901 2013/11/27)

>  <Rbt.Parameter_File>
/export/apps/rDock/src/rDock_2013.1_src/data/scripts/dock_solv.prm

>  <Rbt.Receptor>
prm/pocket_docking_8.prm

>  <SCORE>
-45.1725

>  <SCORE.INTER>
-25.7832

>  <SCORE.INTER.CONST>
1

>  <SCORE.INTER.POLAR>
-4.7153

>  <SCORE.INTER.ROT>
9

>  <SCORE.INTER.SOLV>
17.6333

>  <SCORE.INTER.VDW>
-16.9489

>  <SCORE.INTER.norm>
-0.613886

>  <SCORE.INTRA>
-19.3893

>  <SCORE.INTRA.DIHEDRAL>
-34.7014

>  <SCORE.INTRA.DIHEDRAL.0>
46.2143

>  <SCORE.INTRA.POLAR>
0.31881

>  <SCORE.INTRA.POLAR.0>
-1.76436

>  <SCORE.INTRA.REPUL>
0

>  <SCORE.INTRA.REPUL.0>
0

>  <SCORE.INTRA.SOLV>
-6.29184

>  <SCORE.INTRA.SOLV.lig_0>
-148.643

>  <SCORE.INTRA.VDW>
0.0233372

>  <SCORE.INTRA.VDW.0>
-4.83512

>  <SCORE.INTRA.norm>
-0.46165

>  <SCORE.RESTR>
0

>  <SCORE.RESTR.CAVITY>
0

>  <SCORE.RESTR.norm>
0

>  <SCORE.SYSTEM>
0

>  <SCORE.SYSTEM.CONST>
0

>  <SCORE.SYSTEM.DIHEDRAL>
0

>  <SCORE.SYSTEM.SOLV>
0

>  <SCORE.SYSTEM.norm>
0

>  <SCORE.heavy>
42

>  <SCORE.norm>
-1.07554

>  <RMSD>
5.479

$$$$
1j7t
 OpenBabel11021811393D
libRbt.so/2013.1/901 2013/11/27
 42 45  0  0  0  0  0  0  0  0999 V2000
   31.0887    6.2010   52.3006 C   0  0  2  0  0  0  0  0  0  0  0  0
   30.4200    5.9517   51.0384 O   0  0  0  0  0  0  0  0  0  0  0  0
   32.2287    7.2200   52.0142 C   0  0  2  0  0  0  0  0  0  0  0  0
   31.7873    8.4623   51.3174 N   0  3  0  0  0  0  0  0  0  0  0  0
   33.2812    6.5234   51.1242 C   0  0  1  0  0  0  0  0  0  0  0  0
   34.3438    7.3910   50.8458 O   0  0  0  0  0  0  0  0  0  0  0  0
   33.7937    5.2380   51.8159 C   0  0  2  0  0  0  0  0  0  0  0  0
   34.7751    4.5955   51.0265 O   0  0  0  0  0  0  0  0  0  0  0  0
   32.6408    4.2845   52.0478 C   0  0  2  0  0  0  0  0  0  0  0  0
   31.6330    4.9414   52.8058 O   0  0  0  0  0  0  0  0  0  0  0  0
   33.0394    3.0510   52.8268 C   0  0  0  0  0  0  0  0  0  0  0  0
   33.9003    2.2529   52.0375 O   0  0  0  0  0  0  0  0  0  0  0  0
   26.5260    4.6104   50.0974 C   0  0  2  0  0  0  0  0  0  0  0  0
   25.3363    3.7633   50.0048 N   0  3  0  0  0  0  0  0  0  0  0  0
   27.7269    3.9262   49.3638 C   0  0  0  0  0  0  0  0  0  0  0  0
   28.9940    4.7919   49.5008 C   0  0  2  0  0  0  0  0  0  0  0  0
   30.1431    4.1395   48.8645 N   0  3  0  0  0  0  0  0  0  0  0  0
   29.3092    5.0489   50.9874 C   0  0  2  0  0  0  0  0  0  0  0  0
   28.1325    5.6977   51.7422 C   0  0  2  0  0  0  0  0  0  0  0  0
   28.5176    5.7277   53.1301 O   0  0  0  0  0  0  0  0  0  0  0  0
   26.8462    4.8519   51.5640 C   0  0  1  0  0  0  0  0  0  0  0  0
   25.7717    5.5134   52.1731 O   0  0  0  0  0  0  0  0  0  0  0  0
   27.6771    6.2239   54.1686 C   0  0  1  0  0  0  0  0  0  0  0  0
   28.4187    6.0429   55.5410 C   0  0  2  0  0  0  0  0  0  0  0  0
   28.1988    4.7830   56.1520 O   0  0  0  0  0  0  0  0  0  0  0  0
   27.8069    7.2248   56.2799 C   0  0  2  0  0  0  0  0  0  0  0  0
   26.3900    7.0010   56.5485 O   0  0  0  0  0  0  0  0  0  0  0  0
   27.9098    8.3477   55.2573 C   0  0  2  0  0  0  0  0  0  0  0  0
   27.5062    7.6634   54.0587 O   0  0  0  0  0  0  0  0  0  0  0  0
   29.3269    8.9974   55.1332 C   0  0  0  0  0  0  0  0  0  0  0  0
   30.3198    8.0343   54.7583 O   0  0  0  0  0  0  0  0  0  0  0  0
   26.0428    7.0756   57.9289 C   0  0  2  0  0  0  0  0  0  0  0  0
   25.3504    5.7916   58.5001 C   0  0  2  0  0  0  0  0  0  0  0  0
   24.0977    5.4331   57.7682 N   0  3  0  0  0  0  0  0  0  0  0  0
   25.0729    6.0574   60.0173 C   0  0  1  0  0  0  0  0  0  0  0  0
   26.3847    6.2308   60.6780 O   0  0  0  0  0  0  0  0  0  0  0  0
   24.2095    7.3569   60.2563 C   0  0  2  0  0  0  0  0  0  0  0  0
   22.9159    7.1617   59.6620 O   0  0  0  0  0  0  0  0  0  0  0  0
   24.9749    8.5840   59.6078 C   0  0  1  0  0  0  0  0  0  0  0  0
   25.1862    8.2743   58.1891 O   0  0  0  0  0  0  0  0  0  0  0  0
   24.2448    9.9396   59.7428 C   0  0  0  0  0  0  0  0  0  0  0  0
   25.0159   11.0849   59.1875 N   0  3  0  0  0  0  0  0  0  0  0  0
  1  2  1  6  0  0  0
  1  3  1  0  0  0  0
  1 10  1  0  0  0  0
  3  4  1  6  0  0  0
  3  5  1  0  0  0  0
  5  6  1  1  0  0  0
  5  7  1  0  0  0  0
  7  8  1  6  0  0  0
  7  9  1  0  0  0  0
  9 10  1  0  0  0  0
  9 11  1  1  0  0  0
 11 12  1  0  0  0  0
 13 14  1  1  0  0  0
 13 15  1  0  0  0  0
 13 21  1  0  0  0  0
 15 16  1  0  0  0  0
 16 17  1  1  0  0  0
 16 18  1  0  0  0  0
 18  2  1  6  0  0  0
 18 19  1  0  0  0  0
 19 20  1  1  0  0  0
 19 21  1  0  0  0  0
 21 22  1  6  0  0  0
 23 20  1  6  0  0  0
 23 24  1  0  0  0  0
 23 29  1  0  0  0  0
 24 25  1  1  0  0  0
 24 26  1  0  0  0  0
 26 27  1  6  0  0  0
 26 28  1  0  0  0  0
 28 29  1  0  0  0  0
 28 30  1  6  0  0  0
 30 31  1  0  0  0  0
 32 27  1  6  0  0  0
 32 33  1  0  0  0  0
 32 40  1  0  0  0  0
 33 34  1  6  0  0  0
 33 35  1  0  0  0  0
 35 36  1  1  0  0  0
 35 37  1  0  0  0  0
 37 38  1  6  0  0  0
 37 39  1  0  0  0  0
 39 40  1  0  0  0  0
 39 41  1  6  0  0  0
 41 42  1  0  0  0  0
M  CHG  5   4   1  14   1  17   1  34   1  42   1
M  END
>  <CHROM.1>
-179.66744575,-169.52358253,41.51740326,-167.30074870,51.08312275,-68.05793414
53.45949189,-161.99894760,175.21204098,-178.20784847,177.91533582,64.30286782
-179.60485256,122.83155430,-122.98827305,59.43244884,177.17574445,54.20017734
65.43325744,179.13595033,177.06400003,175.37530959,28.51891235,6.22924769
54.23279261,-0.87106811,0.17206216,1.11134938

>  <Name>
1j7t

>  <RI>
0

>  <Rbt.Current_Directory>
/home/itssahil/PROJECTS/Mol_Feturizer/New_Systems/rnas/1j7t

>  <Rbt.Executable>
rbdock ($Id: //depot/dev/client3/rdock/2013.1/src/exe/rbdock.cxx#4 $)

>  <Rbt.Library>
libRbt.so (2013.1, Build901 2013/11/27)

>  <Rbt.Parameter_File>
/export/apps/rDock/src/rDock_2013.1_src/data/scripts/dock_solv.prm

>  <Rbt.Receptor>
prm/pocket_docking_6.prm

>  <SCORE>
-48.2798

>  <SCORE.INTER>
-33.0601

>  <SCORE.INTER.CONST>
1

>  <SCORE.INTER.POLAR>
-5.6805

>  <SCORE.INTER.ROT>
9

>  <SCORE.INTER.SOLV>
18.7264

>  <SCORE.INTER.VDW>
-18.9472

>  <SCORE.INTER.norm>
-0.787146

>  <SCORE.INTRA>
-15.252

>  <SCORE.INTRA.DIHEDRAL>
-27.5298

>  <SCORE.INTRA.DIHEDRAL.0>
46.2143

>  <SCORE.INTRA.POLAR>
0.456804

>  <SCORE.INTRA.POLAR.0>
-1.76436

>  <SCORE.INTRA.REPUL>
0

>  <SCORE.INTRA.REPUL.0>
0

>  <SCORE.INTRA.SOLV>
-4.95174

>  <SCORE.INTRA.SOLV.lig_0>
-148.643

>  <SCORE.INTRA.VDW>
-0.564373

>  <SCORE.INTRA.VDW.0>
-4.83512

>  <SCORE.INTRA.norm>
-0.363142

>  <SCORE.RESTR>
0.0322931

>  <SCORE.RESTR.CAVITY>
0.0322931

>  <SCORE.RESTR.norm>
0.000768883

>  <SCORE.SYSTEM>
0

>  <SCORE.SYSTEM.CONST>
0

>  <SCORE.SYSTEM.DIHEDRAL>
0

>  <SCORE.SYSTEM.SOLV>
0

>  <SCORE.SYSTEM.norm>
0

>  <SCORE.heavy>
42

>  <SCORE.norm>
-1.14952

>  <RMSD>
5.495

$$$$
1j7t
 OpenBabel11021811393D
libRbt.so/2013.1/901 2013/11/27
 42 45  0  0  0  0  0  0  0  0999 V2000
   32.2495    6.3034   53.1280 C   0  0  2  0  0  0  0  0  0  0  0  0
   31.8477    5.4695   52.0119 O   0  0  0  0  0  0  0  0  0  0  0  0
   33.4674    7.1440   52.6481 C   0  0  2  0  0  0  0  0  0  0  0  0
   33.2349    7.9059   51.3875 N   0  3  0  0  0  0  0  0  0  0  0  0
   34.6506    6.1804   52.4105 C   0  0  1  0  0  0  0  0  0  0  0  0
   35.7846    6.8857   51.9908 O   0  0  0  0  0  0  0  0  0  0  0  0
   34.9518    5.3819   53.7009 C   0  0  2  0  0  0  0  0  0  0  0  0
   36.0470    4.5080   53.5112 O   0  0  0  0  0  0  0  0  0  0  0  0
   33.7356    4.5739   54.1010 C   0  0  2  0  0  0  0  0  0  0  0  0
   32.6217    5.4448   54.2516 O   0  0  0  0  0  0  0  0  0  0  0  0
   33.9095    3.8548   55.4200 C   0  0  0  0  0  0  0  0  0  0  0  0
   32.8144    2.9843   55.6302 O   0  0  0  0  0  0  0  0  0  0  0  0
   28.2802    3.2718   51.4717 C   0  0  2  0  0  0  0  0  0  0  0  0
   27.2499    2.2432   51.6199 N   0  3  0  0  0  0  0  0  0  0  0  0
   29.6151    2.6229   50.9763 C   0  0  0  0  0  0  0  0  0  0  0  0
   30.7162    3.6948   50.8659 C   0  0  2  0  0  0  0  0  0  0  0  0
   31.9894    3.0946   50.4540 N   0  3  0  0  0  0  0  0  0  0  0  0
   30.9017    4.4136   52.2166 C   0  0  2  0  0  0  0  0  0  0  0  0
   29.5952    5.0393   52.7426 C   0  0  2  0  0  0  0  0  0  0  0  0
   29.8918    5.5278   54.0651 O   0  0  0  0  0  0  0  0  0  0  0  0
   28.4743    3.9712   52.8078 C   0  0  1  0  0  0  0  0  0  0  0  0
   27.2747    4.5850   53.1915 O   0  0  0  0  0  0  0  0  0  0  0  0
   28.8976    5.7542   55.0609 C   0  0  1  0  0  0  0  0  0  0  0  0
   29.0603    4.6698   56.1850 C   0  0  2  0  0  0  0  0  0  0  0  0
   28.3440    3.4721   55.9372 O   0  0  0  0  0  0  0  0  0  0  0  0
   28.5438    5.4898   57.3589 C   0  0  2  0  0  0  0  0  0  0  0  0
   27.1111    5.7395   57.2364 O   0  0  0  0  0  0  0  0  0  0  0  0
   29.2602    6.8207   57.1777 C   0  0  2  0  0  0  0  0  0  0  0  0
   29.1329    7.0082   55.7577 O   0  0  0  0  0  0  0  0  0  0  0  0
   30.7484    6.8381   57.6579 C   0  0  0  0  0  0  0  0  0  0  0  0
   30.8530    6.5946   59.0663 O   0  0  0  0  0  0  0  0  0  0  0  0
   26.4816    6.1155   58.4586 C   0  0  2  0  0  0  0  0  0  0  0  0
   24.9827    6.5484   58.3168 C   0  0  2  0  0  0  0  0  0  0  0  0
   24.7959    7.6941   57.3756 N   0  3  0  0  0  0  0  0  0  0  0  0
   24.4684    6.8961   59.7536 C   0  0  1  0  0  0  0  0  0  0  0  0
   24.5368    5.6547   60.5548 O   0  0  0  0  0  0  0  0  0  0  0  0
   25.3449    8.0032   60.4589 C   0  0  2  0  0  0  0  0  0  0  0  0
   25.2300    9.2234   59.7089 O   0  0  0  0  0  0  0  0  0  0  0  0
   26.8421    7.4862   60.5142 C   0  0  1  0  0  0  0  0  0  0  0  0
   27.2615    7.1964   59.1382 O   0  0  0  0  0  0  0  0  0  0  0  0
   27.8378    8.4723   61.1664 C   0  0  0  0  0  0  0  0  0  0  0  0
   29.2084    7.9136   61.3209 N   0  3  0  0  0  0  0  0  0  0  0  0
  1  2  1  6  0  0  0
  1  3  1  0  0  0  0
  1 10  1  0  0  0  0
  3  4  1  6  0  0  0
  3  5  1  0  0  0  0
  5  6  1  1  0  0  0
  5  7  1  0  0  0  0
  7  8  1  6  0  0  0
  7  9  1  0  0  0  0
  9 10  1  0  0  0  0
  9 11  1  1  0  0  0
 11 12  1  0  0  0  0
 13 14  1  1  0  0  0
 13 15  1  0  0  0  0
 13 21  1  0  0  0  0
 15 16  1  0  0  0  0
 16 17  1  1  0  0  0
 16 18  1  0  0  0  0
 18  2  1  6  0  0  0
 18 19  1  0  0  0  0
 19 20  1  1  0  0  0
 19 21  1  0  0  0  0
 21 22  1  6  0  0  0
 23 20  1  6  0  0  0
 23 24  1  0  0  0  0
 23 29  1  0  0  0  0
 24 25  1  6  0  0  0
 24 26  1  0  0  0  0
 26 27  1  6  0  0  0
 26 28  1  0  0  0  0
 28 29  1  0  0  0  0
 28 30  1  6  0  0  0
 30 31  1  0  0  0  0
 32 27  1  6  0  0  0
 32 33  1  0  0  0  0
 32 40  1  0  0  0  0
 33 34  1  6  0  0  0
 33 35  1  0  0  0  0
 35 36  1  1  0  0  0
 35 37  1  0  0  0  0
 37 38  1  6  0  0  0
 37 39  1  0  0  0  0
 39 40  1  0  0  0  0
 39 41  1  6  0  0  0
 41 42  1  0  0  0  0
M  CHG  5   4   1  14   1  17   1  34   1  42   1
M  END
>  <CHROM.1>
169.00785781,-178.37527269,177.44702549,-81.72266508,176.64529475,-171.98461376
63.24290629,63.41201819,-57.24997376,-157.73408318,109.87283146,71.81919909
67.56625647,161.18782716,173.22386558,-62.69436299,-174.04877764,47.51925478
177.35539177,175.88479310,174.61718721,60.80140862,29.73262661,5.68317048
55.45605443,-0.83764497,0.19125395,1.08778801

>  <Name>
1j7t

>  <RI>
0

>  <Rbt.Current_Directory>
/home/itssahil/PROJECTS/Mol_Feturizer/New_Systems/rnas/1j7t

>  <Rbt.Executable>
rbdock ($Id: //depot/dev/client3/rdock/2013.1/src/exe/rbdock.cxx#4 $)

>  <Rbt.Library>
libRbt.so (2013.1, Build901 2013/11/27)

>  <Rbt.Parameter_File>
/export/apps/rDock/src/rDock_2013.1_src/data/scripts/dock_solv.prm

>  <Rbt.Receptor>
prm/pocket_docking_6.prm

>  <SCORE>
-34.9053

>  <SCORE.INTER>
-17.2617

>  <SCORE.INTER.CONST>
1

>  <SCORE.INTER.POLAR>
-4.21162

>  <SCORE.INTER.ROT>
9

>  <SCORE.INTER.SOLV>
10.86

>  <SCORE.INTER.VDW>
-10.6891

>  <SCORE.INTER.norm>
-0.410994

>  <SCORE.INTRA>
-17.6435

>  <SCORE.INTRA.DIHEDRAL>
-30.2807

>  <SCORE.INTRA.DIHEDRAL.0>
46.2143

>  <SCORE.INTRA.POLAR>
-0.196993

>  <SCORE.INTRA.POLAR.0>
-1.76436

>  <SCORE.INTRA.REPUL>
0.0518462

>  <SCORE.INTRA.REPUL.0>
0

>  <SCORE.INTRA.SOLV>
-3.24734

>  <SCORE.INTRA.SOLV.lig_0>
-148.643

>  <SCORE.INTRA.VDW>
-0.468973

>  <SCORE.INTRA.VDW.0>
-4.83512

>  <SCORE.INTRA.norm>
-0.420084

>  <SCORE.RESTR>
0

>  <SCORE.RESTR.CAVITY>
0

>  <SCORE.RESTR.norm>
0

>  <SCORE.SYSTEM>
0

>  <SCORE.SYSTEM.CONST>
0

>  <SCORE.SYSTEM.DIHEDRAL>
0

>  <SCORE.SYSTEM.SOLV>
0

>  <SCORE.SYSTEM.norm>
0

>  <SCORE.heavy>
42

>  <SCORE.norm>
-0.831078

>  <RMSD>
5.517

$$$$
1j7t
 OpenBabel11021811393D
libRbt.so/2013.1/901 2013/11/27
 42 45  0  0  0  0  0  0  0  0999 V2000
   29.9070    9.8815   52.1034 C   0  0  2  0  0  0  0  0  0  0  0  0
   30.6438    8.6385   51.9825 O   0  0  0  0  0  0  0  0  0  0  0  0
   28.8904    9.9201   50.9266 C   0  0  2  0  0  0  0  0  0  0  0  0
   28.0164    8.7162   50.8244 N   0  3  0  0  0  0  0  0  0  0  0  0
   29.6870   10.0432   49.6093 C   0  0  1  0  0  0  0  0  0  0  0  0
   28.8199   10.0989   48.5118 O   0  0  0  0  0  0  0  0  0  0  0  0
   30.5931   11.2964   49.6525 C   0  0  2  0  0  0  0  0  0  0  0  0
   31.3162   11.4398   48.4459 O   0  0  0  0  0  0  0  0  0  0  0  0
   31.5681   11.1862   50.8054 C   0  0  2  0  0  0  0  0  0  0  0  0
   30.8455   10.9994   52.0157 O   0  0  0  0  0  0  0  0  0  0  0  0
   32.4129   12.4272   50.9879 C   0  0  0  0  0  0  0  0  0  0  0  0
   31.5706   13.5575   51.1066 O   0  0  0  0  0  0  0  0  0  0  0  0
   33.5855    6.3144   53.9301 C   0  0  2  0  0  0  0  0  0  0  0  0
   34.6611    5.9187   54.8400 N   0  3  0  0  0  0  0  0  0  0  0  0
   34.0744    7.4713   52.9969 C   0  0  0  0  0  0  0  0  0  0  0  0
   32.9297    7.9242   52.0704 C   0  0  2  0  0  0  0  0  0  0  0  0
   33.3546    9.0450   51.2253 N   0  3  0  0  0  0  0  0  0  0  0  0
   31.7024    8.3461   52.9020 C   0  0  2  0  0  0  0  0  0  0  0  0
   31.2155    7.2340   53.8514 C   0  0  2  0  0  0  0  0  0  0  0  0
   30.1802    7.8256   54.6599 O   0  0  0  0  0  0  0  0  0  0  0  0
   32.3796    6.7449   54.7500 C   0  0  1  0  0  0  0  0  0  0  0  0
   31.9381    5.6684   55.5307 O   0  0  0  0  0  0  0  0  0  0  0  0
   30.4165    8.8731   55.5969 C   0  0  1  0  0  0  0  0  0  0  0  0
   29.0447    9.2880   56.2390 C   0  0  2  0  0  0  0  0  0  0  0  0
   28.3458   10.2828   55.5103 O   0  0  0  0  0  0  0  0  0  0  0  0
   29.5643    9.7397   57.5966 C   0  0  2  0  0  0  0  0  0  0  0  0
   30.3477   10.9654   57.4789 O   0  0  0  0  0  0  0  0  0  0  0  0
   30.5196    8.6178   57.9789 C   0  0  2  0  0  0  0  0  0  0  0  0
   31.1941    8.3956   56.7286 O   0  0  0  0  0  0  0  0  0  0  0  0
   29.8314    7.3267   58.5314 C   0  0  0  0  0  0  0  0  0  0  0  0
   29.4157    7.4898   59.8932 O   0  0  0  0  0  0  0  0  0  0  0  0
   30.0127   11.9621   58.4412 C   0  0  2  0  0  0  0  0  0  0  0  0
   28.4756   12.1945   58.6351 C   0  0  2  0  0  0  0  0  0  0  0  0
   27.7824   12.5802   57.3685 N   0  3  0  0  0  0  0  0  0  0  0  0
   28.3140   13.2951   59.7361 C   0  0  1  0  0  0  0  0  0  0  0  0
   28.8794   12.7473   60.9882 O   0  0  0  0  0  0  0  0  0  0  0  0
   29.0781   14.6285   59.3760 C   0  0  2  0  0  0  0  0  0  0  0  0
   28.4882   15.1873   58.1910 O   0  0  0  0  0  0  0  0  0  0  0  0
   30.6086   14.2775   59.1611 C   0  0  1  0  0  0  0  0  0  0  0  0
   30.6853   13.2567   58.1097 O   0  0  0  0  0  0  0  0  0  0  0  0
   31.4967   15.4845   58.7822 C   0  0  0  0  0  0  0  0  0  0  0  0
   31.1770   16.7186   59.5499 N   0  3  0  0  0  0  0  0  0  0  0  0
  1  2  1  6  0  0  0
  1  3  1  0  0  0  0
  1 10  1  0  0  0  0
  3  4  1  6  0  0  0
  3  5  1  0  0  0  0
  5  6  1  6  0  0  0
  5  7  1  0  0  0  0
  7  8  1  6  0  0  0
  7  9  1  0  0  0  0
  9 10  1  0  0  0  0
  9 11  1  1  0  0  0
 11 12  1  0  0  0  0
 13 14  1  1  0  0  0
 13 15  1  0  0  0  0
 13 21  1  0  0  0  0
 15 16  1  0  0  0  0
 16 17  1  1  0  0  0
 16 18  1  0  0  0  0
 18  2  1  6  0  0  0
 18 19  1  0  0  0  0
 19 20  1  1  0  0  0
 19 21  1  0  0  0  0
 21 22  1  6  0  0  0
 23 20  1  6  0  0  0
 23 24  1  0  0  0  0
 23 29  1  0  0  0  0
 24 25  1  6  0  0  0
 24 26  1  0  0  0  0
 26 27  1  6  0  0  0
 26 28  1  0  0  0  0
 28 29  1  0  0  0  0
 28 30  1  6  0  0  0
 30 31  1  0  0  0  0
 32 27  1  6  0  0  0
 32 33  1  0  0  0  0
 32 40  1  0  0  0  0
 33 34  1  6  0  0  0
 33 35  1  0  0  0  0
 35 36  1  1  0  0  0
 35 37  1  0  0  0  0
 37 38  1  6  0  0  0
 37 39  1  0  0  0  0
 39 40  1  0  0  0  0
 39 41  1  6  0  0  0
 41 42  1  0  0  0  0
M  CHG  5   4   1  14   1  17   1  34   1  42   1
M  END
>  <CHROM.1>
177.26191081,-130.33259145,-56.06964814,69.69413979,-52.45998556,54.12629612
85.36688730,46.95115337,-82.14273526,-65.67086352,177.81725380,88.62975816
49.93985788,133.15054354,-45.47447960,-77.48025805,-175.50856391,39.58340015
175.43972464,-174.67928671,41.39441016,70.98565271,30.55862539,10.36160080
54.93928440,0.79113387,1.29351837,-1.26817338

>  <Name>
1j7t

>  <RI>
0

>  <Rbt.Current_Directory>
/home/itssahil/PROJECTS/Mol_Feturizer/New_Systems/rnas/1j7t

>  <Rbt.Executable>
rbdock ($Id: //depot/dev/client3/rdock/2013.1/src/exe/rbdock.cxx#4 $)

>  <Rbt.Library>
libRbt.so (2013.1, Build901 2013/11/27)

>  <Rbt.Parameter_File>
/export/apps/rDock/src/rDock_2013.1_src/data/scripts/dock_solv.prm

>  <Rbt.Receptor>
prm/blind_docking_80.prm

>  <SCORE>
-15.2517

>  <SCORE.INTER>
-32.0333

>  <SCORE.INTER.CONST>
1

>  <SCORE.INTER.POLAR>
-6.85288

>  <SCORE.INTER.ROT>
9

>  <SCORE.INTER.SOLV>
40.8708

>  <SCORE.INTER.VDW>
-21.7362

>  <SCORE.INTER.norm>
-0.762697

>  <SCORE.INTRA>
-9.61836

>  <SCORE.INTRA.DIHEDRAL>
-18.9456

>  <SCORE.INTRA.DIHEDRAL.0>
46.2143

>  <SCORE.INTRA.POLAR>
-0.293076

>  <SCORE.INTRA.POLAR.0>
-1.76436

>  <SCORE.INTRA.REPUL>
0

>  <SCORE.INTRA.REPUL.0>
0

>  <SCORE.INTRA.SOLV>
1.81756

>  <SCORE.INTRA.SOLV.lig_0>
-148.643

>  <SCORE.INTRA.VDW>
-0.0578955

>  <SCORE.INTRA.VDW.0>
-4.83512

>  <SCORE.INTRA.norm>
-0.229009

>  <SCORE.RESTR>
26.3999

>  <SCORE.RESTR.CAVITY>
26.3999

>  <SCORE.RESTR.norm>
0.628569

>  <SCORE.SYSTEM>
0

>  <SCORE.SYSTEM.CONST>
0

>  <SCORE.SYSTEM.DIHEDRAL>
0

>  <SCORE.SYSTEM.SOLV>
0

>  <SCORE.SYSTEM.norm>
0

>  <SCORE.heavy>
42

>  <SCORE.norm>
-0.363136

>  <RMSD>
5.530

$$$$
1j7t
 OpenBabel11021811393D
libRbt.so/2013.1/901 2013/11/27
 42 45  0  0  0  0  0  0  0  0999 V2000
   29.4440    9.8942   51.7225 C   0  0  2  0  0  0  0  0  0  0  0  0
   30.3633    8.7742   51.6677 O   0  0  0  0  0  0  0  0  0  0  0  0
   28.6323    9.8775   50.3955 C   0  0  2  0  0  0  0  0  0  0  0  0
   27.9699    8.5765   50.0919 N   0  3  0  0  0  0  0  0  0  0  0  0
   29.6014   10.2000   49.2372 C   0  0  1  0  0  0  0  0  0  0  0  0
   28.9207   10.2150   48.0141 O   0  0  0  0  0  0  0  0  0  0  0  0
   30.2974   11.5583   49.4904 C   0  0  2  0  0  0  0  0  0  0  0  0
   31.1742   11.8832   48.4298 O   0  0  0  0  0  0  0  0  0  0  0  0
   31.0826   11.5003   50.7836 C   0  0  2  0  0  0  0  0  0  0  0  0
   30.2119   11.1324   51.8459 O   0  0  0  0  0  0  0  0  0  0  0  0
   31.6984   12.8283   51.1632 C   0  0  0  0  0  0  0  0  0  0  0  0
   32.6793   13.1834   50.2076 O   0  0  0  0  0  0  0  0  0  0  0  0
   33.1637    6.7731   54.1173 C   0  0  2  0  0  0  0  0  0  0  0  0
   34.1820    6.5207   55.1376 N   0  3  0  0  0  0  0  0  0  0  0  0
   33.7177    7.7690   53.0451 C   0  0  0  0  0  0  0  0  0  0  0  0
   32.6320    8.0754   51.9958 C   0  0  2  0  0  0  0  0  0  0  0  0
   33.1167    9.0496   51.0124 N   0  3  0  0  0  0  0  0  0  0  0  0
   31.3652    8.6254   52.6803 C   0  0  2  0  0  0  0  0  0  0  0  0
   30.8129    7.6763   53.7616 C   0  0  2  0  0  0  0  0  0  0  0  0
   29.7411    8.3897   54.4080 O   0  0  0  0  0  0  0  0  0  0  0  0
   31.9191    7.3296   54.7902 C   0  0  1  0  0  0  0  0  0  0  0  0
   31.4219    6.3893   55.7022 O   0  0  0  0  0  0  0  0  0  0  0  0
   29.9465    9.5111   55.2633 C   0  0  1  0  0  0  0  0  0  0  0  0
   28.6674    9.7009   56.1543 C   0  0  2  0  0  0  0  0  0  0  0  0
   27.6672   10.5105   55.5600 O   0  0  0  0  0  0  0  0  0  0  0  0
   29.3386   10.3117   57.3764 C   0  0  2  0  0  0  0  0  0  0  0  0
   29.8379   11.6523   57.0875 O   0  0  0  0  0  0  0  0  0  0  0  0
   30.5445    9.4060   57.5830 C   0  0  2  0  0  0  0  0  0  0  0  0
   31.0003    9.2451   56.2287 O   0  0  0  0  0  0  0  0  0  0  0  0
   30.2316    8.0417   58.2806 C   0  0  0  0  0  0  0  0  0  0  0  0
   29.3845    7.2157   57.4718 O   0  0  0  0  0  0  0  0  0  0  0  0
   30.3919   12.3206   58.2180 C   0  0  2  0  0  0  0  0  0  0  0  0
   30.1854   11.5796   59.5827 C   0  0  2  0  0  0  0  0  0  0  0  0
   28.7452   11.3369   59.8994 N   0  3  0  0  0  0  0  0  0  0  0  0
   30.8771   12.4489   60.6852 C   0  0  1  0  0  0  0  0  0  0  0  0
   32.3219   12.4848   60.3712 O   0  0  0  0  0  0  0  0  0  0  0  0
   30.3296   13.9288   60.7213 C   0  0  2  0  0  0  0  0  0  0  0  0
   28.9393   13.8930   61.0827 O   0  0  0  0  0  0  0  0  0  0  0  0
   30.5480   14.5709   59.2888 C   0  0  1  0  0  0  0  0  0  0  0  0
   29.8628   13.7169   58.3118 O   0  0  0  0  0  0  0  0  0  0  0  0
   30.0441   16.0258   59.1540 C   0  0  0  0  0  0  0  0  0  0  0  0
   31.0660   17.0426   59.5236 N   0  3  0  0  0  0  0  0  0  0  0  0
  1  2  1  6  0  0  0
  1  3  1  0  0  0  0
  1 10  1  0  0  0  0
  3  4  1  6  0  0  0
  3  5  1  0  0  0  0
  5  6  1  6  0  0  0
  5  7  1  0  0  0  0
  7  8  1  6  0  0  0
  7  9  1  0  0  0  0
  9 10  1  0  0  0  0
  9 11  1  1  0  0  0
 11 12  1  0  0  0  0
 13 14  1  1  0  0  0
 13 15  1  0  0  0  0
 13 21  1  0  0  0  0
 15 16  1  0  0  0  0
 16 17  1  6  0  0  0
 16 18  1  0  0  0  0
 18  2  1  6  0  0  0
 18 19  1  0  0  0  0
 19 20  1  1  0  0  0
 19 21  1  0  0  0  0
 21 22  1  1  0  0  0
 23 20  1  6  0  0  0
 23 24  1  0  0  0  0
 23 29  1  0  0  0  0
 24 25  1  6  0  0  0
 24 26  1  0  0  0  0
 26 27  1  6  0  0  0
 26 28  1  0  0  0  0
 28 29  1  0  0  0  0
 28 30  1  6  0  0  0
 30 31  1  0  0  0  0
 32 27  1  6  0  0  0
 32 33  1  0  0  0  0
 32 40  1  0  0  0  0
 33 34  1  1  0  0  0
 33 35  1  0  0  0  0
 35 36  1  6  0  0  0
 35 37  1  0  0  0  0
 37 38  1  6  0  0  0
 37 39  1  0  0  0  0
 39 40  1  0  0  0  0
 39 41  1  1  0  0  0
 41 42  1  0  0  0  0
M  CHG  5   4   1  14   1  17   1  34   1  42   1
M  END
>  <CHROM.1>
172.20043246,-143.44071473,-39.97938680,68.06471733,64.33666103,-65.66195808
-61.75137863,63.88621180,-153.35221104,-70.49238742,-160.39130761,-174.85013562
57.74432688,175.65737885,-7.95522801,64.91404201,-168.21459978,-78.45787152
155.83122905,78.38771427,88.75117742,75.95595796,30.56599644,10.51928950
54.93441121,1.18260208,1.40904931,-1.53888967

>  <Name>
1j7t

>  <RI>
0

>  <Rbt.Current_Directory>
/home/itssahil/PROJECTS/Mol_Feturizer/New_Systems/rnas/1j7t

>  <Rbt.Executable>
rbdock ($Id: //depot/dev/client3/rdock/2013.1/src/exe/rbdock.cxx#4 $)

>  <Rbt.Library>
libRbt.so (2013.1, Build901 2013/11/27)

>  <Rbt.Parameter_File>
/export/apps/rDock/src/rDock_2013.1_src/data/scripts/dock_solv.prm

>  <Rbt.Receptor>
prm/blind_docking_80.prm

>  <SCORE>
-12.4398

>  <SCORE.INTER>
-32.3469

>  <SCORE.INTER.CONST>
1

>  <SCORE.INTER.POLAR>
-4.80166

>  <SCORE.INTER.ROT>
9

>  <SCORE.INTER.SOLV>
38.4631

>  <SCORE.INTER.VDW>
-27.9801

>  <SCORE.INTER.norm>
-0.770165

>  <SCORE.INTRA>
-3.14757

>  <SCORE.INTRA.DIHEDRAL>
-19.5716

>  <SCORE.INTRA.DIHEDRAL.0>
46.2143

>  <SCORE.INTRA.POLAR>
-0.0459233

>  <SCORE.INTRA.POLAR.0>
-1.76436

>  <SCORE.INTRA.REPUL>
0

>  <SCORE.INTRA.REPUL.0>
0

>  <SCORE.INTRA.SOLV>
0.414963

>  <SCORE.INTRA.SOLV.lig_0>
-148.643

>  <SCORE.INTRA.VDW>
6.58689

>  <SCORE.INTRA.VDW.0>
-4.83512

>  <SCORE.INTRA.norm>
-0.0749421

>  <SCORE.RESTR>
23.0547

>  <SCORE.RESTR.CAVITY>
23.0547

>  <SCORE.RESTR.norm>
0.548922

>  <SCORE.SYSTEM>
0

>  <SCORE.SYSTEM.CONST>
0

>  <SCORE.SYSTEM.DIHEDRAL>
0

>  <SCORE.SYSTEM.SOLV>
0

>  <SCORE.SYSTEM.norm>
0

>  <SCORE.heavy>
42

>  <SCORE.norm>
-0.296185

>  <RMSD>
5.546

$$$$
1j7t
 OpenBabel11021811393D
libRbt.so/2013.1/901 2013/11/27
 42 45  0  0  0  0  0  0  0  0999 V2000
   31.7923    4.4230   55.8123 C   0  0  2  0  0  0  0  0  0  0  0  0
   32.8196    5.3480   55.3746 O   0  0  0  0  0  0  0  0  0  0  0  0
   32.4438    3.4958   56.8781 C   0  0  2  0  0  0  0  0  0  0  0  0
   33.1139    4.2166   57.9983 N   0  3  0  0  0  0  0  0  0  0  0  0
   33.5045    2.6244   56.1707 C   0  0  1  0  0  0  0  0  0  0  0  0
   34.1156    1.7546   57.0815 O   0  0  0  0  0  0  0  0  0  0  0  0
   32.8533    1.8317   55.0126 C   0  0  2  0  0  0  0  0  0  0  0  0
   33.8041    1.0101   54.3644 O   0  0  0  0  0  0  0  0  0  0  0  0
   32.2570    2.7911   54.0047 C   0  0  2  0  0  0  0  0  0  0  0  0
   31.3312    3.6474   54.6617 O   0  0  0  0  0  0  0  0  0  0  0  0
   31.4977    2.0927   52.8989 C   0  0  0  0  0  0  0  0  0  0  0  0
   30.4057    1.3835   53.4521 O   0  0  0  0  0  0  0  0  0  0  0  0
   32.9541    8.3548   52.4100 C   0  0  2  0  0  0  0  0  0  0  0  0
   32.8989    9.0217   51.1086 N   0  3  0  0  0  0  0  0  0  0  0  0
   34.0991    7.2883   52.4153 C   0  0  0  0  0  0  0  0  0  0  0  0
   34.1290    6.5498   53.7671 C   0  0  2  0  0  0  0  0  0  0  0  0
   35.1622    5.5089   53.7705 N   0  3  0  0  0  0  0  0  0  0  0  0
   32.7570    5.9109   54.0591 C   0  0  2  0  0  0  0  0  0  0  0  0
   31.6055    6.9349   54.0330 C   0  0  2  0  0  0  0  0  0  0  0  0
   30.3907    6.1716   54.1636 O   0  0  0  0  0  0  0  0  0  0  0  0
   31.6055    7.7116   52.6919 C   0  0  1  0  0  0  0  0  0  0  0  0
   30.6158    8.7024   52.7333 O   0  0  0  0  0  0  0  0  0  0  0  0
   29.4989    6.2962   55.2682 C   0  0  1  0  0  0  0  0  0  0  0  0
   29.0421    7.7948   55.3751 C   0  0  2  0  0  0  0  0  0  0  0  0
   29.9043    8.6049   56.1557 O   0  0  0  0  0  0  0  0  0  0  0  0
   27.6647    7.5630   55.9803 C   0  0  2  0  0  0  0  0  0  0  0  0
   27.7680    7.0687   57.3495 O   0  0  0  0  0  0  0  0  0  0  0  0
   27.1093    6.4336   55.1239 C   0  0  2  0  0  0  0  0  0  0  0  0
   28.2597    5.5769   55.0222 O   0  0  0  0  0  0  0  0  0  0  0  0
   26.5601    6.8749   53.7277 C   0  0  0  0  0  0  0  0  0  0  0  0
   25.4808    7.8093   53.8547 O   0  0  0  0  0  0  0  0  0  0  0  0
   27.4412    8.0381   58.3420 C   0  0  2  0  0  0  0  0  0  0  0  0
   27.9069    7.6727   59.7925 C   0  0  2  0  0  0  0  0  0  0  0  0
   27.3473    6.3724   60.2716 N   0  3  0  0  0  0  0  0  0  0  0  0
   27.4821    8.8579   60.7222 C   0  0  1  0  0  0  0  0  0  0  0  0
   28.2201   10.0564   60.2677 O   0  0  0  0  0  0  0  0  0  0  0  0
   25.9343    9.1587   60.6508 C   0  0  2  0  0  0  0  0  0  0  0  0
   25.2228    8.0130   61.1468 O   0  0  0  0  0  0  0  0  0  0  0  0
   25.5619    9.4739   59.1428 C   0  0  1  0  0  0  0  0  0  0  0  0
   25.9718    8.3195   58.3350 O   0  0  0  0  0  0  0  0  0  0  0  0
   24.0653    9.7751   58.9008 C   0  0  0  0  0  0  0  0  0  0  0  0
   23.1630    8.6716   59.3283 N   0  3  0  0  0  0  0  0  0  0  0  0
  1  2  1  6  0  0  0
  1  3  1  0  0  0  0
  1 10  1  0  0  0  0
  3  4  1  1  0  0  0
  3  5  1  0  0  0  0
  5  6  1  1  0  0  0
  5  7  1  0  0  0  0
  7  8  1  6  0  0  0
  7  9  1  0  0  0  0
  9 10  1  0  0  0  0
  9 11  1  6  0  0  0
 11 12  1  0  0  0  0
 13 14  1  6  0  0  0
 13 15  1  0  0  0  0
 13 21  1  0  0  0  0
 15 16  1  0  0  0  0
 16 17  1  6  0  0  0
 16 18  1  0  0  0  0
 18  2  1  1  0  0  0
 18 19  1  0  0  0  0
 19 20  1  6  0  0  0
 19 21  1  0  0  0  0
 21 22  1  1  0  0  0
 23 20  1  6  0  0  0
 23 24  1  0  0  0  0
 23 29  1  0  0  0  0
 24 25  1  1  0  0  0
 24 26  1  0  0  0  0
 26 27  1  1  0  0  0
 26 28  1  0  0  0  0
 28 29  1  0  0  0  0
 28 30  1  6  0  0  0
 30 31  1  0  0  0  0
 32 27  1  6  0  0  0
 32 33  1  0  0  0  0
 32 40  1  0  0  0  0
 33 34  1  1  0  0  0
 33 35  1  0  0  0  0
 35 36  1  6  0  0  0
 35 37  1  0  0  0  0
 37 38  1  6  0  0  0
 37 39  1  0  0  0  0
 39 40  1  0  0  0  0
 39 41  1  1  0  0  0
 41 42  1  0  0  0  0
M  CHG  5   4   1  14   1  17   1  34   1  42   1
M  END
>  <CHROM.1>
152.64712855,-166.11734147,-59.73902356,-78.21788886,-52.27533931,62.20182138
-68.62989020,-57.70421475,-172.93368981,116.68879135,57.07981441,-62.63757520
176.04165993,105.94340968,-164.23958075,-60.56314095,90.92197516,55.74864202
61.08024407,65.36434669,-57.90907860,146.65738632,29.88847367,6.30364497
55.96120137,-0.08924446,-0.73824170,2.28804798

>  <Name>
1j7t

>  <RI>
0

>  <Rbt.Current_Directory>
/home/itssahil/PROJECTS/Mol_Feturizer/New_Systems/rnas/1j7t

>  <Rbt.Executable>
rbdock ($Id: //depot/dev/client3/rdock/2013.1/src/exe/rbdock.cxx#4 $)

>  <Rbt.Library>
libRbt.so (2013.1, Build901 2013/11/27)

>  <Rbt.Parameter_File>
/export/apps/rDock/src/rDock_2013.1_src/data/scripts/dock_solv.prm

>  <Rbt.Receptor>
prm/pocket_docking_6.prm

>  <SCORE>
-45.247

>  <SCORE.INTER>
-34.2293

>  <SCORE.INTER.CONST>
1

>  <SCORE.INTER.POLAR>
-6.27173

>  <SCORE.INTER.ROT>
9

>  <SCORE.INTER.SOLV>
23.5

>  <SCORE.INTER.VDW>
-19.3471

>  <SCORE.INTER.norm>
-0.814984

>  <SCORE.INTRA>
-11.024

>  <SCORE.INTRA.DIHEDRAL>
-18.7003

>  <SCORE.INTRA.DIHEDRAL.0>
46.2143

>  <SCORE.INTRA.POLAR>
0.278403

>  <SCORE.INTRA.POLAR.0>
-1.76436

>  <SCORE.INTRA.REPUL>
0

>  <SCORE.INTRA.REPUL.0>
0

>  <SCORE.INTRA.SOLV>
-2.60731

>  <SCORE.INTRA.SOLV.lig_0>
-148.643

>  <SCORE.INTRA.VDW>
-1.31675

>  <SCORE.INTRA.VDW.0>
-4.83512

>  <SCORE.INTRA.norm>
-0.262476

>  <SCORE.RESTR>
0.00633483

>  <SCORE.RESTR.CAVITY>
0.00633483

>  <SCORE.RESTR.norm>
0.000150829

>  <SCORE.SYSTEM>
0

>  <SCORE.SYSTEM.CONST>
0

>  <SCORE.SYSTEM.DIHEDRAL>
0

>  <SCORE.SYSTEM.SOLV>
0

>  <SCORE.SYSTEM.norm>
0

>  <SCORE.heavy>
42

>  <SCORE.norm>
-1.07731

>  <RMSD>
5.579

$$$$
1j7t
 OpenBabel11021811393D
libRbt.so/2013.1/901 2013/11/27
 42 45  0  0  0  0  0  0  0  0999 V2000
   32.2120    4.5181   54.1580 C   0  0  2  0  0  0  0  0  0  0  0  0
   31.7302    5.8686   53.9419 O   0  0  0  0  0  0  0  0  0  0  0  0
   32.9249    4.5089   55.5406 C   0  0  2  0  0  0  0  0  0  0  0  0
   32.0996    5.0349   56.6656 N   0  3  0  0  0  0  0  0  0  0  0  0
   34.1932    5.3832   55.4313 C   0  0  1  0  0  0  0  0  0  0  0  0
   34.8875    5.3993   56.6467 O   0  0  0  0  0  0  0  0  0  0  0  0
   35.1005    4.8616   54.2920 C   0  0  2  0  0  0  0  0  0  0  0  0
   36.2790    5.6360   54.1888 O   0  0  0  0  0  0  0  0  0  0  0  0
   34.3546    4.9150   52.9756 C   0  0  2  0  0  0  0  0  0  0  0  0
   33.1476    4.1717   53.0890 O   0  0  0  0  0  0  0  0  0  0  0  0
   35.1333    4.3115   51.8283 C   0  0  0  0  0  0  0  0  0  0  0  0
   35.5681    3.0133   52.1848 O   0  0  0  0  0  0  0  0  0  0  0  0
   28.8457    7.8970   51.6152 C   0  0  2  0  0  0  0  0  0  0  0  0
   27.5992    8.2074   50.9142 N   0  3  0  0  0  0  0  0  0  0  0  0
   29.4932    6.6085   51.0079 C   0  0  0  0  0  0  0  0  0  0  0  0
   30.7804    6.2504   51.7750 C   0  0  2  0  0  0  0  0  0  0  0  0
   31.3722    5.0141   51.2533 N   0  3  0  0  0  0  0  0  0  0  0  0
   30.4793    6.0802   53.2770 C   0  0  2  0  0  0  0  0  0  0  0  0
   29.8151    7.3256   53.8961 C   0  0  2  0  0  0  0  0  0  0  0  0
   29.4575    6.9584   55.2425 O   0  0  0  0  0  0  0  0  0  0  0  0
   28.5468    7.7143   53.0947 C   0  0  1  0  0  0  0  0  0  0  0  0
   28.0200    8.9040   53.6145 O   0  0  0  0  0  0  0  0  0  0  0  0
   28.1333    6.6088   55.6367 C   0  0  1  0  0  0  0  0  0  0  0  0
   28.2104    5.7841   56.9708 C   0  0  2  0  0  0  0  0  0  0  0  0
   28.3741    4.3896   56.7766 O   0  0  0  0  0  0  0  0  0  0  0  0
   26.8674    6.1920   57.5601 C   0  0  2  0  0  0  0  0  0  0  0  0
   25.7625    5.6258   56.7931 O   0  0  0  0  0  0  0  0  0  0  0  0
   26.8522    7.6990   57.3456 C   0  0  2  0  0  0  0  0  0  0  0  0
   27.3702    7.7894   56.0072 O   0  0  0  0  0  0  0  0  0  0  0  0
   27.6956    8.5193   58.3758 C   0  0  0  0  0  0  0  0  0  0  0  0
   27.4409    8.0993   59.7222 O   0  0  0  0  0  0  0  0  0  0  0  0
   25.5388    4.2392   57.0358 C   0  0  2  0  0  0  0  0  0  0  0  0
   24.2054    3.6765   56.4362 C   0  0  2  0  0  0  0  0  0  0  0  0
   22.9945    4.3940   56.9387 N   0  3  0  0  0  0  0  0  0  0  0  0
   24.1545    2.1513   56.7840 C   0  0  1  0  0  0  0  0  0  0  0  0
   25.2981    1.5087   56.1007 O   0  0  0  0  0  0  0  0  0  0  0  0
   24.2728    1.8795   58.3343 C   0  0  2  0  0  0  0  0  0  0  0  0
   23.1305    2.4564   58.9878 O   0  0  0  0  0  0  0  0  0  0  0  0
   25.6287    2.5215   58.8457 C   0  0  1  0  0  0  0  0  0  0  0  0
   25.6005    3.9478   58.5019 O   0  0  0  0  0  0  0  0  0  0  0  0
   25.8863    2.3550   60.3606 C   0  0  0  0  0  0  0  0  0  0  0  0
   25.6658    0.9668   60.8493 N   0  3  0  0  0  0  0  0  0  0  0  0
  1  2  1  6  0  0  0
  1  3  1  0  0  0  0
  1 10  1  0  0  0  0
  3  4  1  1  0  0  0
  3  5  1  0  0  0  0
  5  6  1  1  0  0  0
  5  7  1  0  0  0  0
  7  8  1  6  0  0  0
  7  9  1  0  0  0  0
  9 10  1  0  0  0  0
  9 11  1  6  0  0  0
 11 12  1  0  0  0  0
 13 14  1  6  0  0  0
 13 15  1  0  0  0  0
 13 21  1  0  0  0  0
 15 16  1  0  0  0  0
 16 17  1  6  0  0  0
 16 18  1  0  0  0  0
 18  2  1  1  0  0  0
 18 19  1  0  0  0  0
 19 20  1  1  0  0  0
 19 21  1  0  0  0  0
 21 22  1  1  0  0  0
 23 20  1  1  0  0  0
 23 24  1  0  0  0  0
 23 29  1  0  0  0  0
 24 25  1  6  0  0  0
 24 26  1  0  0  0  0
 26 27  1  6  0  0  0
 26 28  1  0  0  0  0
 28 29  1  0  0  0  0
 28 30  1  1  0  0  0
 30 31  1  0  0  0  0
 32 27  1  1  0  0  0
 32 33  1  0  0  0  0
 32 40  1  0  0  0  0
 33 34  1  1  0  0  0
 33 35  1  0  0  0  0
 35 36  1  6  0  0  0
 35 37  1  0  0  0  0
 37 38  1  1  0  0  0
 37 39  1  0  0  0  0
 39 40  1  0  0  0  0
 39 41  1  1  0  0  0
 41 42  1  0  0  0  0
M  CHG  5   4   1  14   1  17   1  34   1  42   1
M  END
>  <CHROM.1>
-143.71956671,-92.42501321,175.18857838,-65.30471471,39.84882102,52.04508566
178.17895116,-135.99511328,177.12474779,-101.57062094,159.38770880,62.79211797
46.24282572,76.21960753,169.10308610,-46.86858057,61.99321596,-74.00026369
-58.99509203,-178.35713593,47.51654237,24.84442465,29.07287665,5.20570301
55.52411268,-0.49800546,-0.25267261,2.32546531

>  <Name>
1j7t

>  <RI>
0

>  <Rbt.Current_Directory>
/home/itssahil/PROJECTS/Mol_Feturizer/New_Systems/rnas/1j7t

>  <Rbt.Executable>
rbdock ($Id: //depot/dev/client3/rdock/2013.1/src/exe/rbdock.cxx#4 $)

>  <Rbt.Library>
libRbt.so (2013.1, Build901 2013/11/27)

>  <Rbt.Parameter_File>
/export/apps/rDock/src/rDock_2013.1_src/data/scripts/dock_solv.prm

>  <Rbt.Receptor>
prm/pocket_docking_3.prm

>  <SCORE>
-20.575

>  <SCORE.INTER>
-15.328

>  <SCORE.INTER.CONST>
1

>  <SCORE.INTER.POLAR>
-4.24003

>  <SCORE.INTER.ROT>
9

>  <SCORE.INTER.SOLV>
17.251

>  <SCORE.INTER.VDW>
-11.4356

>  <SCORE.INTER.norm>
-0.364953

>  <SCORE.INTRA>
-6.26966

>  <SCORE.INTRA.DIHEDRAL>
-17.3898

>  <SCORE.INTRA.DIHEDRAL.0>
46.2143

>  <SCORE.INTRA.POLAR>
0.0683829

>  <SCORE.INTRA.POLAR.0>
-1.76436

>  <SCORE.INTRA.REPUL>
0

>  <SCORE.INTRA.REPUL.0>
0

>  <SCORE.INTRA.SOLV>
1.57081

>  <SCORE.INTRA.SOLV.lig_0>
-148.643

>  <SCORE.INTRA.VDW>
1.40734

>  <SCORE.INTRA.VDW.0>
-4.83512

>  <SCORE.INTRA.norm>
-0.149278

>  <SCORE.RESTR>
1.02268

>  <SCORE.RESTR.CAVITY>
1.02268

>  <SCORE.RESTR.norm>
0.0243495

>  <SCORE.SYSTEM>
0

>  <SCORE.SYSTEM.CONST>
0

>  <SCORE.SYSTEM.DIHEDRAL>
0

>  <SCORE.SYSTEM.SOLV>
0

>  <SCORE.SYSTEM.norm>
0

>  <SCORE.heavy>
42

>  <SCORE.norm>
-0.489882

>  <RMSD>
5.595

$$$$
1j7t
 OpenBabel11021811393D
libRbt.so/2013.1/901 2013/11/27
 42 45  0  0  0  0  0  0  0  0999 V2000
   32.5312    5.7348   53.2765 C   0  0  2  0  0  0  0  0  0  0  0  0
   31.7639    5.8973   52.0570 O   0  0  0  0  0  0  0  0  0  0  0  0
   33.7873    6.6430   53.1440 C   0  0  2  0  0  0  0  0  0  0  0  0
   33.4895    8.0659   52.8118 N   0  3  0  0  0  0  0  0  0  0  0  0
   34.6776    6.0682   52.0208 C   0  0  1  0  0  0  0  0  0  0  0  0
   35.8360    6.8387   51.8664 O   0  0  0  0  0  0  0  0  0  0  0  0
   35.0393    4.5963   52.3313 C   0  0  2  0  0  0  0  0  0  0  0  0
   35.8728    4.0569   51.3247 O   0  0  0  0  0  0  0  0  0  0  0  0
   33.7768    3.7663   52.4280 C   0  0  2  0  0  0  0  0  0  0  0  0
   32.9174    4.3309   53.4102 O   0  0  0  0  0  0  0  0  0  0  0  0
   34.0381    2.3366   52.8457 C   0  0  0  0  0  0  0  0  0  0  0  0
   34.8405    1.6996   51.8702 O   0  0  0  0  0  0  0  0  0  0  0  0
   27.6754    6.7293   51.3934 C   0  0  2  0  0  0  0  0  0  0  0  0
   26.2186    6.5925   51.3730 N   0  3  0  0  0  0  0  0  0  0  0  0
   28.3307    5.5873   50.5480 C   0  0  0  0  0  0  0  0  0  0  0  0
   29.8662    5.6989   50.6069 C   0  0  2  0  0  0  0  0  0  0  0  0
   30.4980    4.6039   49.8634 N   0  3  0  0  0  0  0  0  0  0  0  0
   30.3497    5.6705   52.0702 C   0  0  2  0  0  0  0  0  0  0  0  0
   29.6988    6.7685   52.9338 C   0  0  2  0  0  0  0  0  0  0  0  0
   30.1237    6.5152   54.2869 O   0  0  0  0  0  0  0  0  0  0  0  0
   28.1543    6.6864   52.8358 C   0  0  1  0  0  0  0  0  0  0  0  0
   27.5901    7.7539   53.5466 O   0  0  0  0  0  0  0  0  0  0  0  0
   29.2688    5.9756   55.2914 C   0  0  1  0  0  0  0  0  0  0  0  0
   30.0774    4.9127   56.1175 C   0  0  2  0  0  0  0  0  0  0  0  0
   30.0340    3.6053   55.5716 O   0  0  0  0  0  0  0  0  0  0  0  0
   29.3554    5.0718   57.4481 C   0  0  2  0  0  0  0  0  0  0  0  0
   27.9869    4.5715   57.3674 O   0  0  0  0  0  0  0  0  0  0  0  0
   29.2841    6.5836   57.6109 C   0  0  2  0  0  0  0  0  0  0  0  0
   28.9216    6.9848   56.2785 O   0  0  0  0  0  0  0  0  0  0  0  0
   30.6069    7.2559   58.1048 C   0  0  0  0  0  0  0  0  0  0  0  0
   30.5704    8.6792   57.9410 O   0  0  0  0  0  0  0  0  0  0  0  0
   27.8459    3.2048   57.7465 C   0  0  2  0  0  0  0  0  0  0  0  0
   27.7842    2.1964   56.5492 C   0  0  2  0  0  0  0  0  0  0  0  0
   26.6671    2.4890   55.6006 N   0  3  0  0  0  0  0  0  0  0  0  0
   27.6546    0.7628   57.1639 C   0  0  1  0  0  0  0  0  0  0  0  0
   28.8853    0.5087   57.9439 O   0  0  0  0  0  0  0  0  0  0  0  0
   26.4092    0.6259   58.1237 C   0  0  2  0  0  0  0  0  0  0  0  0
   25.2132    0.8171   57.3505 O   0  0  0  0  0  0  0  0  0  0  0  0
   26.5477    1.7119   59.2698 C   0  0  1  0  0  0  0  0  0  0  0  0
   26.6479    3.0261   58.6247 O   0  0  0  0  0  0  0  0  0  0  0  0
   25.3873    1.7191   60.2908 C   0  0  0  0  0  0  0  0  0  0  0  0
   25.3819    0.5324   61.1889 N   0  3  0  0  0  0  0  0  0  0  0  0
  1  2  1  6  0  0  0
  1  3  1  0  0  0  0
  1 10  1  0  0  0  0
  3  4  1  6  0  0  0
  3  5  1  0  0  0  0
  5  6  1  1  0  0  0
  5  7  1  0  0  0  0
  7  8  1  6  0  0  0
  7  9  1  0  0  0  0
  9 10  1  0  0  0  0
  9 11  1  1  0  0  0
 11 12  1  0  0  0  0
 13 14  1  1  0  0  0
 13 15  1  0  0  0  0
 13 21  1  0  0  0  0
 15 16  1  0  0  0  0
 16 17  1  6  0  0  0
 16 18  1  0  0  0  0
 18  2  1  6  0  0  0
 18 19  1  0  0  0  0
 19 20  1  1  0  0  0
 19 21  1  0  0  0  0
 21 22  1  1  0  0  0
 23 20  1  6  0  0  0
 23 24  1  0  0  0  0
 23 29  1  0  0  0  0
 24 25  1  6  0  0  0
 24 26  1  0  0  0  0
 26 27  1  6  0  0  0
 26 28  1  0  0  0  0
 28 29  1  0  0  0  0
 28 30  1  6  0  0  0
 30 31  1  0  0  0  0
 32 27  1  6  0  0  0
 32 33  1  0  0  0  0
 32 40  1  0  0  0  0
 33 34  1  6  0  0  0
 33 35  1  0  0  0  0
 35 36  1  1  0  0  0
 35 37  1  0  0  0  0
 37 38  1  6  0  0  0
 37 39  1  0  0  0  0
 39 40  1  0  0  0  0
 39 41  1  1  0  0  0
 41 42  1  0  0  0  0
M  CHG  5   4   1  14   1  17   1  34   1  42   1
M  END
>  <CHROM.1>
-153.97008483,-171.12824450,-144.79866439,-166.62407478,66.02101896,-62.48096671
178.83010658,-175.33500425,42.75213023,-106.37872612,138.19215283,-177.54812408
-177.34942782,92.18810204,-99.00762621,166.55514733,63.97370619,48.39321219
-72.44888166,-178.30280379,70.73363820,-65.37562002,29.94618362,4.60396862
54.76960055,-0.74476084,-0.43303843,2.47503349

>  <Name>
1j7t

>  <RI>
0

>  <Rbt.Current_Directory>
/home/itssahil/PROJECTS/Mol_Feturizer/New_Systems/rnas/1j7t

>  <Rbt.Executable>
rbdock ($Id: //depot/dev/client3/rdock/2013.1/src/exe/rbdock.cxx#4 $)

>  <Rbt.Library>
libRbt.so (2013.1, Build901 2013/11/27)

>  <Rbt.Parameter_File>
/export/apps/rDock/src/rDock_2013.1_src/data/scripts/dock_solv.prm

>  <Rbt.Receptor>
prm/pocket_docking_6.prm

>  <SCORE>
-37.9189

>  <SCORE.INTER>
-28.1181

>  <SCORE.INTER.CONST>
1

>  <SCORE.INTER.POLAR>
-5.82769

>  <SCORE.INTER.ROT>
9

>  <SCORE.INTER.SOLV>
20.869

>  <SCORE.INTER.VDW>
-15.8761

>  <SCORE.INTER.norm>
-0.669479

>  <SCORE.INTRA>
-9.80078

>  <SCORE.INTRA.DIHEDRAL>
-15.1354

>  <SCORE.INTRA.DIHEDRAL.0>
46.2143

>  <SCORE.INTRA.POLAR>
-0.107744

>  <SCORE.INTRA.POLAR.0>
-1.76436

>  <SCORE.INTRA.REPUL>
0.0023534

>  <SCORE.INTRA.REPUL.0>
0

>  <SCORE.INTRA.SOLV>
-5.16727

>  <SCORE.INTRA.SOLV.lig_0>
-148.643

>  <SCORE.INTRA.VDW>
0.705117

>  <SCORE.INTRA.VDW.0>
-4.83512

>  <SCORE.INTRA.norm>
-0.233352

>  <SCORE.RESTR>
0

>  <SCORE.RESTR.CAVITY>
0

>  <SCORE.RESTR.norm>
0

>  <SCORE.SYSTEM>
0

>  <SCORE.SYSTEM.CONST>
0

>  <SCORE.SYSTEM.DIHEDRAL>
0

>  <SCORE.SYSTEM.SOLV>
0

>  <SCORE.SYSTEM.norm>
0

>  <SCORE.heavy>
42

>  <SCORE.norm>
-0.902831

>  <RMSD>
5.619

$$$$
1j7t
 OpenBabel11021811393D
libRbt.so/2013.1/901 2013/11/27
 42 45  0  0  0  0  0  0  0  0999 V2000
   30.4868    5.6875   52.9970 C   0  0  2  0  0  0  0  0  0  0  0  0
   29.6617    5.9078   51.8251 O   0  0  0  0  0  0  0  0  0  0  0  0
   31.3068    6.9899   53.2232 C   0  0  2  0  0  0  0  0  0  0  0  0
   30.4861    8.2327   53.2966 N   0  3  0  0  0  0  0  0  0  0  0  0
   32.2974    7.1423   52.0482 C   0  0  1  0  0  0  0  0  0  0  0  0
   33.0773    8.2939   52.2067 O   0  0  0  0  0  0  0  0  0  0  0  0
   33.1946    5.8862   51.9445 C   0  0  2  0  0  0  0  0  0  0  0  0
   34.1244    6.0145   50.8870 O   0  0  0  0  0  0  0  0  0  0  0  0
   32.3379    4.6609   51.7063 C   0  0  2  0  0  0  0  0  0  0  0  0
   31.3738    4.5525   52.7459 O   0  0  0  0  0  0  0  0  0  0  0  0
   33.1311    3.3734   51.7099 C   0  0  0  0  0  0  0  0  0  0  0  0
   33.7424    3.1998   52.9738 O   0  0  0  0  0  0  0  0  0  0  0  0
   26.0258    4.3545   50.3366 C   0  0  2  0  0  0  0  0  0  0  0  0
   24.9939    3.4086   49.9104 N   0  3  0  0  0  0  0  0  0  0  0  0
   27.3051    4.1833   49.4519 C   0  0  0  0  0  0  0  0  0  0  0  0
   28.4114    5.1436   49.9288 C   0  0  2  0  0  0  0  0  0  0  0  0
   29.6368    4.9588   49.1445 N   0  3  0  0  0  0  0  0  0  0  0  0
   28.7179    4.9090   51.4210 C   0  0  2  0  0  0  0  0  0  0  0  0
   27.4691    5.0442   52.3139 C   0  0  2  0  0  0  0  0  0  0  0  0
   27.8800    4.6471   53.6363 O   0  0  0  0  0  0  0  0  0  0  0  0
   26.3393    4.1136   51.8047 C   0  0  1  0  0  0  0  0  0  0  0  0
   25.1852    4.3289   52.5694 O   0  0  0  0  0  0  0  0  0  0  0  0
   27.5342    5.3672   54.8166 C   0  0  1  0  0  0  0  0  0  0  0  0
   25.9968    5.6845   54.7759 C   0  0  2  0  0  0  0  0  0  0  0  0
   25.6762    6.8934   54.1089 O   0  0  0  0  0  0  0  0  0  0  0  0
   25.7340    5.6950   56.2752 C   0  0  2  0  0  0  0  0  0  0  0  0
   26.3712    6.8425   56.9131 O   0  0  0  0  0  0  0  0  0  0  0  0
   26.4583    4.4433   56.7502 C   0  0  2  0  0  0  0  0  0  0  0  0
   27.6808    4.5335   55.9985 O   0  0  0  0  0  0  0  0  0  0  0  0
   25.6922    3.1034   56.4980 C   0  0  0  0  0  0  0  0  0  0  0  0
   26.3907    1.9818   57.0531 O   0  0  0  0  0  0  0  0  0  0  0  0
   26.1838    6.8991   58.3249 C   0  0  2  0  0  0  0  0  0  0  0  0
   26.5504    8.2744   58.9794 C   0  0  2  0  0  0  0  0  0  0  0  0
   27.9661    8.6797   58.7246 N   0  3  0  0  0  0  0  0  0  0  0  0
   26.2570    8.1454   60.5114 C   0  0  1  0  0  0  0  0  0  0  0  0
   24.8038    7.9139   60.6603 O   0  0  0  0  0  0  0  0  0  0  0  0
   27.0325    6.9426   61.1771 C   0  0  2  0  0  0  0  0  0  0  0  0
   28.4430    7.1991   61.0808 O   0  0  0  0  0  0  0  0  0  0  0  0
   26.6241    5.6121   60.4188 C   0  0  1  0  0  0  0  0  0  0  0  0
   26.9402    5.7976   58.9979 O   0  0  0  0  0  0  0  0  0  0  0  0
   27.3174    4.3349   60.9451 C   0  0  0  0  0  0  0  0  0  0  0  0
   27.3034    4.2226   62.4289 N   0  3  0  0  0  0  0  0  0  0  0  0
  1  2  1  6  0  0  0
  1  3  1  0  0  0  0
  1 10  1  0  0  0  0
  3  4  1  6  0  0  0
  3  5  1  0  0  0  0
  5  6  1  1  0  0  0
  5  7  1  0  0  0  0
  7  8  1  6  0  0  0
  7  9  1  0  0  0  0
  9 10  1  0  0  0  0
  9 11  1  1  0  0  0
 11 12  1  0  0  0  0
 13 14  1  6  0  0  0
 13 15  1  0  0  0  0
 13 21  1  0  0  0  0
 15 16  1  0  0  0  0
 16 17  1  6  0  0  0
 16 18  1  0  0  0  0
 18  2  1  1  0  0  0
 18 19  1  0  0  0  0
 19 20  1  1  0  0  0
 19 21  1  0  0  0  0
 21 22  1  1  0  0  0
 23 20  1  6  0  0  0
 23 24  1  0  0  0  0
 23 29  1  0  0  0  0
 24 25  1  1  0  0  0
 24 26  1  0  0  0  0
 26 27  1  1  0  0  0
 26 28  1  0  0  0  0
 28 29  1  0  0  0  0
 28 30  1  6  0  0  0
 30 31  1  0  0  0  0
 32 27  1  6  0  0  0
 32 33  1  0  0  0  0
 32 40  1  0  0  0  0
 33 34  1  1  0  0  0
 33 35  1  0  0  0  0
 35 36  1  6  0  0  0
 35 37  1  0  0  0  0
 37 38  1  6  0  0  0
 37 39  1  0  0  0  0
 39 40  1  0  0  0  0
 39 41  1  1  0  0  0
 41 42  1  0  0  0  0
M  CHG  5   4   1  14   1  17   1  34   1  42   1
M  END
>  <CHROM.1>
-175.57713387,-158.48289998,55.21981355,-68.05965660,-61.53777306,61.31730334
55.90588728,-176.47710102,-73.15944628,135.14852313,47.48616240,-58.72095734
170.32545150,-178.92636254,-165.94515506,-175.95839374,-177.10852276,-75.90677397
-156.97654448,173.36122664,46.32739003,158.87138392,28.35370016,5.56589119
54.86384606,-1.12516689,0.26194886,1.32506231

>  <Name>
1j7t

>  <RI>
0

>  <Rbt.Current_Directory>
/home/itssahil/PROJECTS/Mol_Feturizer/New_Systems/rnas/1j7t

>  <Rbt.Executable>
rbdock ($Id: //depot/dev/client3/rdock/2013.1/src/exe/rbdock.cxx#4 $)

>  <Rbt.Library>
libRbt.so (2013.1, Build901 2013/11/27)

>  <Rbt.Parameter_File>
/export/apps/rDock/src/rDock_2013.1_src/data/scripts/dock_solv.prm

>  <Rbt.Receptor>
prm/pocket_docking_6.prm

>  <SCORE>
-40.378

>  <SCORE.INTER>
-26.4876

>  <SCORE.INTER.CONST>
1

>  <SCORE.INTER.POLAR>
-5.39968

>  <SCORE.INTER.ROT>
9

>  <SCORE.INTER.SOLV>
13.2384

>  <SCORE.INTER.VDW>
-13.6723

>  <SCORE.INTER.norm>
-0.630657

>  <SCORE.INTRA>
-13.9669

>  <SCORE.INTRA.DIHEDRAL>
-29.3287

>  <SCORE.INTRA.DIHEDRAL.0>
46.2143

>  <SCORE.INTRA.POLAR>
0.90343

>  <SCORE.INTRA.POLAR.0>
-1.76436

>  <SCORE.INTRA.REPUL>
0.000213151

>  <SCORE.INTRA.REPUL.0>
0

>  <SCORE.INTRA.SOLV>
-3.93119

>  <SCORE.INTRA.SOLV.lig_0>
-148.643

>  <SCORE.INTRA.VDW>
-0.409636

>  <SCORE.INTRA.VDW.0>
-4.83512

>  <SCORE.INTRA.norm>
-0.332544

>  <SCORE.RESTR>
0.0763868

>  <SCORE.RESTR.CAVITY>
0.0763868

>  <SCORE.RESTR.norm>
0.00181873

>  <SCORE.SYSTEM>
0

>  <SCORE.SYSTEM.CONST>
0

>  <SCORE.SYSTEM.DIHEDRAL>
0

>  <SCORE.SYSTEM.SOLV>
0

>  <SCORE.SYSTEM.norm>
0

>  <SCORE.heavy>
42

>  <SCORE.norm>
-0.961382

>  <RMSD>
5.628

$$$$
1j7t
 OpenBabel11021811393D
libRbt.so/2013.1/901 2013/11/27
 42 45  0  0  0  0  0  0  0  0999 V2000
   34.3413    4.8053   52.7027 C   0  0  2  0  0  0  0  0  0  0  0  0
   33.7514    5.9755   53.3233 O   0  0  0  0  0  0  0  0  0  0  0  0
   34.1173    3.6150   53.6790 C   0  0  2  0  0  0  0  0  0  0  0  0
   32.7001    3.4173   54.0985 N   0  3  0  0  0  0  0  0  0  0  0  0
   34.9580    3.8724   54.9487 C   0  0  1  0  0  0  0  0  0  0  0  0
   34.8082    2.8213   55.8610 O   0  0  0  0  0  0  0  0  0  0  0  0
   36.4466    4.0582   54.5706 C   0  0  2  0  0  0  0  0  0  0  0  0
   37.2381    4.2740   55.7223 O   0  0  0  0  0  0  0  0  0  0  0  0
   36.5961    5.2406   53.6369 C   0  0  2  0  0  0  0  0  0  0  0  0
   35.7687    5.0464   52.4969 O   0  0  0  0  0  0  0  0  0  0  0  0
   38.0086    5.4180   53.1268 C   0  0  0  0  0  0  0  0  0  0  0  0
   38.5211    4.1661   52.7130 O   0  0  0  0  0  0  0  0  0  0  0  0
   31.3291    9.2664   52.2508 C   0  0  2  0  0  0  0  0  0  0  0  0
   30.2748   10.0663   51.6262 N   0  3  0  0  0  0  0  0  0  0  0  0
   32.2652    8.6646   51.1508 C   0  0  0  0  0  0  0  0  0  0  0  0
   33.3476    7.7820   51.8013 C   0  0  2  0  0  0  0  0  0  0  0  0
   34.2018    7.1662   50.7804 N   0  3  0  0  0  0  0  0  0  0  0  0
   32.6959    6.6785   52.6576 C   0  0  2  0  0  0  0  0  0  0  0  0
   31.7462    7.2419   53.7327 C   0  0  2  0  0  0  0  0  0  0  0  0
   31.1046    6.1012   54.3347 O   0  0  0  0  0  0  0  0  0  0  0  0
   30.6869    8.1685   53.0838 C   0  0  1  0  0  0  0  0  0  0  0  0
   29.9012    8.7457   54.0901 O   0  0  0  0  0  0  0  0  0  0  0  0
   30.3096    6.1783   55.5151 C   0  0  1  0  0  0  0  0  0  0  0  0
   29.5641    4.8094   55.7058 C   0  0  2  0  0  0  0  0  0  0  0  0
   28.3174    4.7349   55.0356 O   0  0  0  0  0  0  0  0  0  0  0  0
   29.4711    4.8188   57.2252 C   0  0  2  0  0  0  0  0  0  0  0  0
   28.5520    5.8527   57.6898 O   0  0  0  0  0  0  0  0  0  0  0  0
   30.8759    5.2299   57.6434 C   0  0  2  0  0  0  0  0  0  0  0  0
   31.1445    6.2820   56.7007 O   0  0  0  0  0  0  0  0  0  0  0  0
   31.9403    4.0853   57.5900 C   0  0  0  0  0  0  0  0  0  0  0  0
   33.1482    4.4539   58.2676 O   0  0  0  0  0  0  0  0  0  0  0  0
   27.2793    5.8277   57.0486 C   0  0  2  0  0  0  0  0  0  0  0  0
   26.3270    7.0093   57.4374 C   0  0  2  0  0  0  0  0  0  0  0  0
   26.0589    7.0798   58.9059 N   0  3  0  0  0  0  0  0  0  0  0  0
   25.0052    6.8200   56.6209 C   0  0  1  0  0  0  0  0  0  0  0  0
   25.3556    6.9359   55.1887 O   0  0  0  0  0  0  0  0  0  0  0  0
   24.3382    5.4108   56.8669 C   0  0  2  0  0  0  0  0  0  0  0  0
   23.9476    5.3248   58.2471 O   0  0  0  0  0  0  0  0  0  0  0  0
   25.3933    4.2918   56.4840 C   0  0  1  0  0  0  0  0  0  0  0  0
   26.5948    4.5203   57.2948 O   0  0  0  0  0  0  0  0  0  0  0  0
   24.8945    2.8431   56.6871 C   0  0  0  0  0  0  0  0  0  0  0  0
   24.7847    2.4501   58.1182 N   0  3  0  0  0  0  0  0  0  0  0  0
  1  2  1  1  0  0  0
  1  3  1  0  0  0  0
  1 10  1  0  0  0  0
  3  4  1  1  0  0  0
  3  5  1  0  0  0  0
  5  6  1  1  0  0  0
  5  7  1  0  0  0  0
  7  8  1  1  0  0  0
  7  9  1  0  0  0  0
  9 10  1  0  0  0  0
  9 11  1  6  0  0  0
 11 12  1  0  0  0  0
 13 14  1  6  0  0  0
 13 15  1  0  0  0  0
 13 21  1  0  0  0  0
 15 16  1  0  0  0  0
 16 17  1  6  0  0  0
 16 18  1  0  0  0  0
 18  2  1  1  0  0  0
 18 19  1  0  0  0  0
 19 20  1  6  0  0  0
 19 21  1  0  0  0  0
 21 22  1  1  0  0  0
 23 20  1  6  0  0  0
 23 24  1  0  0  0  0
 23 29  1  0  0  0  0
 24 25  1  6  0  0  0
 24 26  1  0  0  0  0
 26 27  1  6  0  0  0
 26 28  1  0  0  0  0
 28 29  1  0  0  0  0
 28 30  1  6  0  0  0
 30 31  1  0  0  0  0
 32 27  1  1  0  0  0
 32 33  1  0  0  0  0
 32 40  1  0  0  0  0
 33 34  1  1  0  0  0
 33 35  1  0  0  0  0
 35 36  1  6  0  0  0
 35 37  1  0  0  0  0
 37 38  1  1  0  0  0
 37 39  1  0  0  0  0
 39 40  1  0  0  0  0
 39 41  1  1  0  0  0
 41 42  1  0  0  0  0
M  CHG  5   4   1  14   1  17   1  34   1  42   1
M  END
>  <CHROM.1>
-120.13611112,-91.37215707,-159.94095171,-166.67597081,-56.40984864,45.72421682
70.73617626,-169.44227578,-174.88464358,169.73876701,169.27477841,-60.09993113
67.37850488,50.56959827,-174.60712232,-167.08802573,144.22160897,173.93034952
-59.55829764,76.93875704,-71.84048162,-66.67747966,30.90169766,5.64342464
55.08854941,0.25773170,0.27787524,-0.77738583

>  <Name>
1j7t

>  <RI>
0

>  <Rbt.Current_Directory>
/home/itssahil/PROJECTS/Mol_Feturizer/New_Systems/rnas/1j7t

>  <Rbt.Executable>
rbdock ($Id: //depot/dev/client3/rdock/2013.1/src/exe/rbdock.cxx#4 $)

>  <Rbt.Library>
libRbt.so (2013.1, Build901 2013/11/27)

>  <Rbt.Parameter_File>
/export/apps/rDock/src/rDock_2013.1_src/data/scripts/dock_solv.prm

>  <Rbt.Receptor>
prm/pocket_docking_3.prm

>  <SCORE>
-32.9984

>  <SCORE.INTER>
-19.6137

>  <SCORE.INTER.CONST>
1

>  <SCORE.INTER.POLAR>
-3.53057

>  <SCORE.INTER.ROT>
9

>  <SCORE.INTER.SOLV>
16.8748

>  <SCORE.INTER.VDW>
-16.5322

>  <SCORE.INTER.norm>
-0.466993

>  <SCORE.INTRA>
-14.9691

>  <SCORE.INTRA.DIHEDRAL>
-21.9121

>  <SCORE.INTRA.DIHEDRAL.0>
46.2143

>  <SCORE.INTRA.POLAR>
-1.58313

>  <SCORE.INTRA.POLAR.0>
-1.76436

>  <SCORE.INTRA.REPUL>
0

>  <SCORE.INTRA.REPUL.0>
0

>  <SCORE.INTRA.SOLV>
2.79132

>  <SCORE.INTRA.SOLV.lig_0>
-148.643

>  <SCORE.INTRA.VDW>
-0.0261067

>  <SCORE.INTRA.VDW.0>
-4.83512

>  <SCORE.INTRA.norm>
-0.356408

>  <SCORE.RESTR>
1.58444

>  <SCORE.RESTR.CAVITY>
1.58444

>  <SCORE.RESTR.norm>
0.0377247

>  <SCORE.SYSTEM>
0

>  <SCORE.SYSTEM.CONST>
0

>  <SCORE.SYSTEM.DIHEDRAL>
0

>  <SCORE.SYSTEM.SOLV>
0

>  <SCORE.SYSTEM.norm>
0

>  <SCORE.heavy>
42

>  <SCORE.norm>
-0.785676

>  <RMSD>
5.632

$$$$
1j7t
 OpenBabel11021811393D
libRbt.so/2013.1/901 2013/11/27
 42 45  0  0  0  0  0  0  0  0999 V2000
   32.0848    6.3842   55.9553 C   0  0  2  0  0  0  0  0  0  0  0  0
   31.6158    5.7407   54.7435 O   0  0  0  0  0  0  0  0  0  0  0  0
   33.6355    6.2603   55.9612 C   0  0  2  0  0  0  0  0  0  0  0  0
   34.3007    6.7610   54.7241 N   0  3  0  0  0  0  0  0  0  0  0  0
   33.9961    4.7676   56.1247 C   0  0  1  0  0  0  0  0  0  0  0  0
   35.3850    4.5959   56.1532 O   0  0  0  0  0  0  0  0  0  0  0  0
   33.3505    4.2039   57.4127 C   0  0  2  0  0  0  0  0  0  0  0  0
   33.6863    2.8423   57.5929 O   0  0  0  0  0  0  0  0  0  0  0  0
   31.8446    4.3377   57.3338 C   0  0  2  0  0  0  0  0  0  0  0  0
   31.5049    5.7003   57.1103 O   0  0  0  0  0  0  0  0  0  0  0  0
   31.1446    3.9158   58.6062 C   0  0  0  0  0  0  0  0  0  0  0  0
   31.3553    2.5340   58.8242 O   0  0  0  0  0  0  0  0  0  0  0  0
   28.1326    6.2086   52.3990 C   0  0  2  0  0  0  0  0  0  0  0  0
   26.7257    6.2390   51.9976 N   0  3  0  0  0  0  0  0  0  0  0  0
   28.5373    4.7559   52.8166 C   0  0  0  0  0  0  0  0  0  0  0  0
   30.0043    4.7291   53.2865 C   0  0  2  0  0  0  0  0  0  0  0  0
   30.3849    3.3848   53.7327 N   0  3  0  0  0  0  0  0  0  0  0  0
   30.2163    5.7306   54.4388 C   0  0  2  0  0  0  0  0  0  0  0  0
   29.7995    7.1663   54.0642 C   0  0  2  0  0  0  0  0  0  0  0  0
   29.9059    7.9405   55.2744 O   0  0  0  0  0  0  0  0  0  0  0  0
   28.3392    7.1855   53.5456 C   0  0  1  0  0  0  0  0  0  0  0  0
   28.0190    8.4808   53.1182 O   0  0  0  0  0  0  0  0  0  0  0  0
   29.2363    7.6015   56.4860 C   0  0  1  0  0  0  0  0  0  0  0  0
   29.6613    8.6280   57.5958 C   0  0  2  0  0  0  0  0  0  0  0  0
   30.8342    8.2599   58.3014 O   0  0  0  0  0  0  0  0  0  0  0  0
   28.3842    8.5990   58.4238 C   0  0  2  0  0  0  0  0  0  0  0  0
   28.2223    7.3139   59.0963 O   0  0  0  0  0  0  0  0  0  0  0  0
   27.2965    8.7043   57.3640 C   0  0  2  0  0  0  0  0  0  0  0  0
   27.8019    7.8034   56.3637 O   0  0  0  0  0  0  0  0  0  0  0  0
   27.0541   10.1467   56.8103 C   0  0  0  0  0  0  0  0  0  0  0  0
   26.8922   11.0995   57.8685 O   0  0  0  0  0  0  0  0  0  0  0  0
   27.1044    7.2583   59.9788 C   0  0  2  0  0  0  0  0  0  0  0  0
   27.4167    6.6640   61.3942 C   0  0  2  0  0  0  0  0  0  0  0  0
   27.9753    5.2792   61.3321 N   0  3  0  0  0  0  0  0  0  0  0  0
   26.0843    6.7094   62.2143 C   0  0  1  0  0  0  0  0  0  0  0  0
   25.7102    8.1327   62.3620 O   0  0  0  0  0  0  0  0  0  0  0  0
   24.9042    5.9474   61.4946 C   0  0  2  0  0  0  0  0  0  0  0  0
   25.2473    4.5549   61.4043 O   0  0  0  0  0  0  0  0  0  0  0  0
   24.6984    6.5959   60.0631 C   0  0  1  0  0  0  0  0  0  0  0  0
   25.9765    6.5045   59.3479 O   0  0  0  0  0  0  0  0  0  0  0  0
   23.5800    5.9444   59.2182 C   0  0  0  0  0  0  0  0  0  0  0  0
   23.8529    4.5236   58.8700 N   0  3  0  0  0  0  0  0  0  0  0  0
  1  2  1  6  0  0  0
  1  3  1  0  0  0  0
  1 10  1  0  0  0  0
  3  4  1  6  0  0  0
  3  5  1  0  0  0  0
  5  6  1  1  0  0  0
  5  7  1  0  0  0  0
  7  8  1  6  0  0  0
  7  9  1  0  0  0  0
  9 10  1  0  0  0  0
  9 11  1  1  0  0  0
 11 12  1  0  0  0  0
 13 14  1  1  0  0  0
 13 15  1  0  0  0  0
 13 21  1  0  0  0  0
 15 16  1  0  0  0  0
 16 17  1  1  0  0  0
 16 18  1  0  0  0  0
 18  2  1  6  0  0  0
 18 19  1  0  0  0  0
 19 20  1  1  0  0  0
 19 21  1  0  0  0  0
 21 22  1  6  0  0  0
 23 20  1  6  0  0  0
 23 24  1  0  0  0  0
 23 29  1  0  0  0  0
 24 25  1  1  0  0  0
 24 26  1  0  0  0  0
 26 27  1  6  0  0  0
 26 28  1  0  0  0  0
 28 29  1  0  0  0  0
 28 30  1  6  0  0  0
 30 31  1  0  0  0  0
 32 27  1  6  0  0  0
 32 33  1  0  0  0  0
 32 40  1  0  0  0  0
 33 34  1  6  0  0  0
 33 35  1  0  0  0  0
 35 36  1  6  0  0  0
 35 37  1  0  0  0  0
 37 38  1  6  0  0  0
 37 39  1  0  0  0  0
 39 40  1  0  0  0  0
 39 41  1  6  0  0  0
 41 42  1  0  0  0  0
M  CHG  5   4   1  14   1  17   1  34   1  42   1
M  END
>  <CHROM.1>
-178.13504376,-167.76058842,52.48490745,61.78392944,59.18578344,-64.53007237
68.98293525,-58.08516675,-173.85351000,-55.53075349,176.75899477,-176.32463100
-35.01054651,174.97600741,-132.27371853,-49.91545071,-162.32060147,-88.05934354
167.89146578,75.72010130,-63.82616804,45.28927441,29.10144312,6.30969061
57.18657337,-0.56327306,-0.42532861,1.85340789

>  <Name>
1j7t

>  <RI>
0

>  <Rbt.Current_Directory>
/home/itssahil/PROJECTS/Mol_Feturizer/New_Systems/rnas/1j7t

>  <Rbt.Executable>
rbdock ($Id: //depot/dev/client3/rdock/2013.1/src/exe/rbdock.cxx#4 $)

>  <Rbt.Library>
libRbt.so (2013.1, Build901 2013/11/27)

>  <Rbt.Parameter_File>
/export/apps/rDock/src/rDock_2013.1_src/data/scripts/dock_solv.prm

>  <Rbt.Receptor>
prm/pocket_docking_4.prm

>  <SCORE>
-54.2298

>  <SCORE.INTER>
-35.3316

>  <SCORE.INTER.CONST>
1

>  <SCORE.INTER.POLAR>
-6.76202

>  <SCORE.INTER.ROT>
9

>  <SCORE.INTER.SOLV>
16.5369

>  <SCORE.INTER.VDW>
-16.1266

>  <SCORE.INTER.norm>
-0.841229

>  <SCORE.INTRA>
-18.9211

>  <SCORE.INTRA.DIHEDRAL>
-28.9758

>  <SCORE.INTRA.DIHEDRAL.0>
46.2143

>  <SCORE.INTRA.POLAR>
-0.697306

>  <SCORE.INTRA.POLAR.0>
-1.76436

>  <SCORE.INTRA.REPUL>
0.259925

>  <SCORE.INTRA.REPUL.0>
0

>  <SCORE.INTRA.SOLV>
-3.13925

>  <SCORE.INTRA.SOLV.lig_0>
-148.643

>  <SCORE.INTRA.VDW>
-1.79233

>  <SCORE.INTRA.VDW.0>
-4.83512

>  <SCORE.INTRA.norm>
-0.450502

>  <SCORE.RESTR>
0.0229513

>  <SCORE.RESTR.CAVITY>
0.0229513

>  <SCORE.RESTR.norm>
0.000546459

>  <SCORE.SYSTEM>
0

>  <SCORE.SYSTEM.CONST>
0

>  <SCORE.SYSTEM.DIHEDRAL>
0

>  <SCORE.SYSTEM.SOLV>
0

>  <SCORE.SYSTEM.norm>
0

>  <SCORE.heavy>
42

>  <SCORE.norm>
-1.29118

>  <RMSD>
5.650

$$$$
1j7t
 OpenBabel11021811393D
libRbt.so/2013.1/901 2013/11/27
 42 45  0  0  0  0  0  0  0  0999 V2000
   32.1558    6.2079   55.9198 C   0  0  2  0  0  0  0  0  0  0  0  0
   31.7301    5.6433   54.6539 O   0  0  0  0  0  0  0  0  0  0  0  0
   33.7080    6.1110   55.9583 C   0  0  2  0  0  0  0  0  0  0  0  0
   34.3946    6.7090   54.7774 N   0  3  0  0  0  0  0  0  0  0  0  0
   34.0929    4.6170   56.0266 C   0  0  1  0  0  0  0  0  0  0  0  0
   35.4838    4.4678   56.0799 O   0  0  0  0  0  0  0  0  0  0  0  0
   33.4259    3.9528   57.2544 C   0  0  2  0  0  0  0  0  0  0  0  0
   33.7831    2.5880   57.3478 O   0  0  0  0  0  0  0  0  0  0  0  0
   31.9201    4.0655   57.1449 C   0  0  2  0  0  0  0  0  0  0  0  0
   31.5601    5.4344   57.0083 O   0  0  0  0  0  0  0  0  0  0  0  0
   31.1964    3.5430   58.3656 C   0  0  0  0  0  0  0  0  0  0  0  0
   29.9020    3.1081   57.9960 O   0  0  0  0  0  0  0  0  0  0  0  0
   28.7101    6.7363   51.9093 C   0  0  2  0  0  0  0  0  0  0  0  0
   27.3931    7.0193   51.3375 N   0  3  0  0  0  0  0  0  0  0  0  0
   28.7957    5.2328   52.3342 C   0  0  0  0  0  0  0  0  0  0  0  0
   30.1633    4.9423   52.9815 C   0  0  2  0  0  0  0  0  0  0  0  0
   30.2410    3.5497   53.4348 N   0  3  0  0  0  0  0  0  0  0  0  0
   30.4009    5.8846   54.1779 C   0  0  2  0  0  0  0  0  0  0  0  0
   30.2951    7.3733   53.7936 C   0  0  2  0  0  0  0  0  0  0  0  0
   30.3821    8.1105   55.0282 O   0  0  0  0  0  0  0  0  0  0  0  0
   28.9388    7.6553   53.0987 C   0  0  1  0  0  0  0  0  0  0  0  0
   28.9092    8.9889   52.6702 O   0  0  0  0  0  0  0  0  0  0  0  0
   29.7188    7.7177   56.2269 C   0  0  1  0  0  0  0  0  0  0  0  0
   29.7068    8.9387   57.2144 C   0  0  2  0  0  0  0  0  0  0  0  0
   30.8560    9.0224   58.0399 O   0  0  0  0  0  0  0  0  0  0  0  0
   28.4152    8.6134   57.9516 C   0  0  2  0  0  0  0  0  0  0  0  0
   28.5674    7.4206   58.7785 O   0  0  0  0  0  0  0  0  0  0  0  0
   27.4608    8.2684   56.8170 C   0  0  2  0  0  0  0  0  0  0  0  0
   28.3089    7.4605   55.9829 O   0  0  0  0  0  0  0  0  0  0  0  0
   26.8659    9.5003   56.0593 C   0  0  0  0  0  0  0  0  0  0  0  0
   26.4182   10.5146   56.9675 O   0  0  0  0  0  0  0  0  0  0  0  0
   27.3364    6.8906   59.2635 C   0  0  2  0  0  0  0  0  0  0  0  0
   26.5971    7.7992   60.3038 C   0  0  2  0  0  0  0  0  0  0  0  0
   27.4305    8.1006   61.5071 N   0  3  0  0  0  0  0  0  0  0  0  0
   25.2712    7.0642   60.6933 C   0  0  1  0  0  0  0  0  0  0  0  0
   24.4484    6.9682   59.4680 O   0  0  0  0  0  0  0  0  0  0  0  0
   25.5262    5.6086   61.2477 C   0  0  2  0  0  0  0  0  0  0  0  0
   26.2771    5.7097   62.4686 O   0  0  0  0  0  0  0  0  0  0  0  0
   26.3115    4.7896   60.1410 C   0  0  1  0  0  0  0  0  0  0  0  0
   27.5446    5.5249   59.8379 O   0  0  0  0  0  0  0  0  0  0  0  0
   26.6552    3.3367   60.5411 C   0  0  0  0  0  0  0  0  0  0  0  0
   27.2178    2.5323   59.4226 N   0  3  0  0  0  0  0  0  0  0  0  0
  1  2  1  6  0  0  0
  1  3  1  0  0  0  0
  1 10  1  0  0  0  0
  3  4  1  6  0  0  0
  3  5  1  0  0  0  0
  5  6  1  1  0  0  0
  5  7  1  0  0  0  0
  7  8  1  6  0  0  0
  7  9  1  0  0  0  0
  9 10  1  0  0  0  0
  9 11  1  1  0  0  0
 11 12  1  0  0  0  0
 13 14  1  1  0  0  0
 13 15  1  0  0  0  0
 13 21  1  0  0  0  0
 15 16  1  0  0  0  0
 16 17  1  1  0  0  0
 16 18  1  0  0  0  0
 18  2  1  6  0  0  0
 18 19  1  0  0  0  0
 19 20  1  1  0  0  0
 19 21  1  0  0  0  0
 21 22  1  6  0  0  0
 23 20  1  6  0  0  0
 23 24  1  0  0  0  0
 23 29  1  0  0  0  0
 24 25  1  1  0  0  0
 24 26  1  0  0  0  0
 26 27  1  1  0  0  0
 26 28  1  0  0  0  0
 28 29  1  0  0  0  0
 28 30  1  6  0  0  0
 30 31  1  0  0  0  0
 32 27  1  1  0  0  0
 32 33  1  0  0  0  0
 32 40  1  0  0  0  0
 33 34  1  1  0  0  0
 33 35  1  0  0  0  0
 35 36  1  6  0  0  0
 35 37  1  0  0  0  0
 37 38  1  1  0  0  0
 37 39  1  0  0  0  0
 39 40  1  0  0  0  0
 39 41  1  1  0  0  0
 41 42  1  0  0  0  0
M  CHG  5   4   1  14   1  17   1  34   1  42   1
M  END
>  <CHROM.1>
-164.54638651,-168.90676591,172.84543356,-68.69558388,158.05914464,-153.37731216
68.77348778,-76.82196028,64.82658205,-41.91207809,-164.19098259,-65.10711432
-178.78355586,-167.03103245,-67.55062519,-45.34880742,-58.23151432,167.45040252
-175.77498940,84.73299791,171.85584447,-66.74602567,29.39805540,6.26533307
56.87806833,-0.60923432,-0.55311320,2.04517500

>  <Name>
1j7t

>  <RI>
0

>  <Rbt.Current_Directory>
/home/itssahil/PROJECTS/Mol_Feturizer/New_Systems/rnas/1j7t

>  <Rbt.Executable>
rbdock ($Id: //depot/dev/client3/rdock/2013.1/src/exe/rbdock.cxx#4 $)

>  <Rbt.Library>
libRbt.so (2013.1, Build901 2013/11/27)

>  <Rbt.Parameter_File>
/export/apps/rDock/src/rDock_2013.1_src/data/scripts/dock_solv.prm

>  <Rbt.Receptor>
prm/pocket_docking_5.prm

>  <SCORE>
-37.6796

>  <SCORE.INTER>
-23.21

>  <SCORE.INTER.CONST>
1

>  <SCORE.INTER.POLAR>
-4.61941

>  <SCORE.INTER.ROT>
9

>  <SCORE.INTER.SOLV>
18.6058

>  <SCORE.INTER.VDW>
-15.8772

>  <SCORE.INTER.norm>
-0.552618

>  <SCORE.INTRA>
-14.4696

>  <SCORE.INTRA.DIHEDRAL>
-29.9316

>  <SCORE.INTRA.DIHEDRAL.0>
46.2143

>  <SCORE.INTRA.POLAR>
-0.215267

>  <SCORE.INTRA.POLAR.0>
-1.76436

>  <SCORE.INTRA.REPUL>
0.685594

>  <SCORE.INTRA.REPUL.0>
0

>  <SCORE.INTRA.SOLV>
-4.09978

>  <SCORE.INTRA.SOLV.lig_0>
-148.643

>  <SCORE.INTRA.VDW>
-0.15002

>  <SCORE.INTRA.VDW.0>
-4.83512

>  <SCORE.INTRA.norm>
-0.344515

>  <SCORE.RESTR>
0

>  <SCORE.RESTR.CAVITY>
0

>  <SCORE.RESTR.norm>
0

>  <SCORE.SYSTEM>
0

>  <SCORE.SYSTEM.CONST>
0

>  <SCORE.SYSTEM.DIHEDRAL>
0

>  <SCORE.SYSTEM.SOLV>
0

>  <SCORE.SYSTEM.norm>
0

>  <SCORE.heavy>
42

>  <SCORE.norm>
-0.897133

>  <RMSD>
5.653

$$$$
1j7t
 OpenBabel11021811393D
libRbt.so/2013.1/901 2013/11/27
 42 45  0  0  0  0  0  0  0  0999 V2000
   32.1487    9.1751   50.5940 C   0  0  2  0  0  0  0  0  0  0  0  0
   31.9839    9.4222   52.0132 O   0  0  0  0  0  0  0  0  0  0  0  0
   32.3135   10.5627   49.9102 C   0  0  2  0  0  0  0  0  0  0  0  0
   33.3864   11.4171   50.4954 N   0  3  0  0  0  0  0  0  0  0  0  0
   30.9755   11.3227   50.0404 C   0  0  1  0  0  0  0  0  0  0  0  0
   31.0593   12.5778   49.4262 O   0  0  0  0  0  0  0  0  0  0  0  0
   29.8290   10.4883   49.4217 C   0  0  2  0  0  0  0  0  0  0  0  0
   28.5971   11.1764   49.5113 O   0  0  0  0  0  0  0  0  0  0  0  0
   29.7109    9.1626   50.1432 C   0  0  2  0  0  0  0  0  0  0  0  0
   30.9607    8.4865   50.0914 O   0  0  0  0  0  0  0  0  0  0  0  0
   28.6879    8.2385   49.5214 C   0  0  0  0  0  0  0  0  0  0  0  0
   27.4436    8.4059   50.1733 O   0  0  0  0  0  0  0  0  0  0  0  0
   31.0943    5.4530   53.1545 C   0  0  2  0  0  0  0  0  0  0  0  0
   30.8114    4.2786   53.9803 N   0  3  0  0  0  0  0  0  0  0  0  0
   32.5270    5.9963   53.4719 C   0  0  0  0  0  0  0  0  0  0  0  0
   32.8101    7.2617   52.6400 C   0  0  2  0  0  0  0  0  0  0  0  0
   34.1288    7.8156   52.9645 N   0  3  0  0  0  0  0  0  0  0  0  0
   31.7282    8.3279   52.9013 C   0  0  2  0  0  0  0  0  0  0  0  0
   30.3032    7.8111   52.6230 C   0  0  2  0  0  0  0  0  0  0  0  0
   29.4092    8.8535   53.0583 O   0  0  0  0  0  0  0  0  0  0  0  0
   30.0358    6.5109   53.4230 C   0  0  1  0  0  0  0  0  0  0  0  0
   28.7750    6.0077   53.0763 O   0  0  0  0  0  0  0  0  0  0  0  0
   29.6234    9.6337   54.2316 C   0  0  1  0  0  0  0  0  0  0  0  0
   28.4667    9.3323   55.2501 C   0  0  2  0  0  0  0  0  0  0  0  0
   27.3223   10.1512   55.0800 O   0  0  0  0  0  0  0  0  0  0  0  0
   29.2387    9.5762   56.5392 C   0  0  2  0  0  0  0  0  0  0  0  0
   29.5647   10.9898   56.6978 O   0  0  0  0  0  0  0  0  0  0  0  0
   30.5416    8.8279   56.2950 C   0  0  2  0  0  0  0  0  0  0  0  0
   30.8202    9.2014   54.9346 O   0  0  0  0  0  0  0  0  0  0  0  0
   30.4577    7.2785   56.4904 C   0  0  0  0  0  0  0  0  0  0  0  0
   29.7931    6.9344   57.7126 O   0  0  0  0  0  0  0  0  0  0  0  0
   29.9953   11.3417   58.0102 C   0  0  2  0  0  0  0  0  0  0  0  0
   28.9555   11.0411   59.1428 C   0  0  2  0  0  0  0  0  0  0  0  0
   27.6474   11.7311   58.9281 N   0  3  0  0  0  0  0  0  0  0  0  0
   29.6154   11.4697   60.4958 C   0  0  1  0  0  0  0  0  0  0  0  0
   30.8038   10.6118   60.6937 O   0  0  0  0  0  0  0  0  0  0  0  0
   30.0752   12.9796   60.4937 C   0  0  2  0  0  0  0  0  0  0  0  0
   28.9114   13.8115   60.3585 O   0  0  0  0  0  0  0  0  0  0  0  0
   31.0874   13.1855   59.2917 C   0  0  1  0  0  0  0  0  0  0  0  0
   30.4001   12.7812   58.0599 O   0  0  0  0  0  0  0  0  0  0  0  0
   31.6209   14.6284   59.1419 C   0  0  0  0  0  0  0  0  0  0  0  0
   30.6790   15.6631   59.6486 N   0  3  0  0  0  0  0  0  0  0  0  0
  1  2  1  1  0  0  0
  1  3  1  0  0  0  0
  1 10  1  0  0  0  0
  3  4  1  1  0  0  0
  3  5  1  0  0  0  0
  5  6  1  6  0  0  0
  5  7  1  0  0  0  0
  7  8  1  1  0  0  0
  7  9  1  0  0  0  0
  9 10  1  0  0  0  0
  9 11  1  6  0  0  0
 11 12  1  0  0  0  0
 13 14  1  1  0  0  0
 13 15  1  0  0  0  0
 13 21  1  0  0  0  0
 15 16  1  0  0  0  0
 16 17  1  1  0  0  0
 16 18  1  0  0  0  0
 18  2  1  6  0  0  0
 18 19  1  0  0  0  0
 19 20  1  1  0  0  0
 19 21  1  0  0  0  0
 21 22  1  6  0  0  0
 23 20  1  6  0  0  0
 23 24  1  0  0  0  0
 23 29  1  0  0  0  0
 24 25  1  6  0  0  0
 24 26  1  0  0  0  0
 26 27  1  6  0  0  0
 26 28  1  0  0  0  0
 28 29  1  0  0  0  0
 28 30  1  6  0  0  0
 30 31  1  0  0  0  0
 32 27  1  6  0  0  0
 32 33  1  0  0  0  0
 32 40  1  0  0  0  0
 33 34  1  6  0  0  0
 33 35  1  0  0  0  0
 35 36  1  6  0  0  0
 35 37  1  0  0  0  0
 37 38  1  6  0  0  0
 37 39  1  0  0  0  0
 39 40  1  0  0  0  0
 39 41  1  6  0  0  0
 41 42  1  0  0  0  0
M  CHG  5   4   1  14   1  17   1  34   1  42   1
M  END
>  <CHROM.1>
176.26435968,51.84042225,-71.52729439,58.65614964,63.24726478,-93.57520618
-173.22239068,55.62813356,-77.86437070,-38.91025067,-115.35860224,-178.60911720
178.23473284,165.73382835,-59.15808786,-47.34282728,-59.12768355,45.62475098
70.30600055,70.92290015,-27.96544698,-16.22496115,30.31534867,9.78888001
54.53957586,-0.53804401,1.46700126,0.12755715

>  <Name>
1j7t

>  <RI>
0

>  <Rbt.Current_Directory>
/home/itssahil/PROJECTS/Mol_Feturizer/New_Systems/rnas/1j7t

>  <Rbt.Executable>
rbdock ($Id: //depot/dev/client3/rdock/2013.1/src/exe/rbdock.cxx#4 $)

>  <Rbt.Library>
libRbt.so (2013.1, Build901 2013/11/27)

>  <Rbt.Parameter_File>
/export/apps/rDock/src/rDock_2013.1_src/data/scripts/dock_solv.prm

>  <Rbt.Receptor>
prm/blind_docking_100.prm

>  <SCORE>
-17.5467

>  <SCORE.INTER>
-29.0863

>  <SCORE.INTER.CONST>
1

>  <SCORE.INTER.POLAR>
-6.08966

>  <SCORE.INTER.ROT>
9

>  <SCORE.INTER.SOLV>
31.3559

>  <SCORE.INTER.VDW>
-19.144

>  <SCORE.INTER.norm>
-0.692532

>  <SCORE.INTRA>
-6.56164

>  <SCORE.INTRA.DIHEDRAL>
-22.8116

>  <SCORE.INTRA.DIHEDRAL.0>
46.2143

>  <SCORE.INTRA.POLAR>
0.154355

>  <SCORE.INTRA.POLAR.0>
-1.76436

>  <SCORE.INTRA.REPUL>
0

>  <SCORE.INTRA.REPUL.0>
0

>  <SCORE.INTRA.SOLV>
-0.777854

>  <SCORE.INTRA.SOLV.lig_0>
-148.643

>  <SCORE.INTRA.VDW>
4.70826

>  <SCORE.INTRA.VDW.0>
-4.83512

>  <SCORE.INTRA.norm>
-0.15623

>  <SCORE.RESTR>
18.1012

>  <SCORE.RESTR.CAVITY>
18.1012

>  <SCORE.RESTR.norm>
0.430982

>  <SCORE.SYSTEM>
0

>  <SCORE.SYSTEM.CONST>
0

>  <SCORE.SYSTEM.DIHEDRAL>
0

>  <SCORE.SYSTEM.SOLV>
0

>  <SCORE.SYSTEM.norm>
0

>  <SCORE.heavy>
42

>  <SCORE.norm>
-0.41778

>  <RMSD>
5.657

$$$$
1j7t
 OpenBabel11021811393D
libRbt.so/2013.1/901 2013/11/27
 42 45  0  0  0  0  0  0  0  0999 V2000
   29.0161    7.5322   49.9899 C   0  0  2  0  0  0  0  0  0  0  0  0
   28.3077    8.6754   50.5320 O   0  0  0  0  0  0  0  0  0  0  0  0
   28.7515    6.3391   50.9524 C   0  0  2  0  0  0  0  0  0  0  0  0
   27.3100    6.0728   51.2257 N   0  3  0  0  0  0  0  0  0  0  0  0
   29.4422    6.6476   52.2987 C   0  0  1  0  0  0  0  0  0  0  0  0
   29.2510    5.5967   53.2034 O   0  0  0  0  0  0  0  0  0  0  0  0
   30.9510    6.9058   52.0740 C   0  0  2  0  0  0  0  0  0  0  0  0
   31.6071    7.1694   53.2984 O   0  0  0  0  0  0  0  0  0  0  0  0
   31.1375    8.0876   51.1463 C   0  0  2  0  0  0  0  0  0  0  0  0
   30.4434    7.8439   49.9294 O   0  0  0  0  0  0  0  0  0  0  0  0
   32.5848    8.3328   50.7824 C   0  0  0  0  0  0  0  0  0  0  0  0
   33.3110    7.1242   50.8975 O   0  0  0  0  0  0  0  0  0  0  0  0
   31.5727   11.3552   50.6150 C   0  0  2  0  0  0  0  0  0  0  0  0
   32.3537   12.5844   50.7578 N   0  3  0  0  0  0  0  0  0  0  0  0
   30.5300   11.5163   49.4594 C   0  0  0  0  0  0  0  0  0  0  0  0
   29.6727   10.2420   49.3380 C   0  0  2  0  0  0  0  0  0  0  0  0
   28.6537   10.3960   48.2944 N   0  3  0  0  0  0  0  0  0  0  0  0
   28.9864    9.9278   50.6818 C   0  0  2  0  0  0  0  0  0  0  0  0
   29.9885    9.7909   51.8446 C   0  0  2  0  0  0  0  0  0  0  0  0
   29.1957    9.6578   53.0401 O   0  0  0  0  0  0  0  0  0  0  0  0
   30.8835   11.0528   51.9361 C   0  0  1  0  0  0  0  0  0  0  0  0
   31.8493   10.8615   52.9329 O   0  0  0  0  0  0  0  0  0  0  0  0
   29.7537    9.5855   54.3495 C   0  0  1  0  0  0  0  0  0  0  0  0
   28.6182    9.8799   55.3935 C   0  0  2  0  0  0  0  0  0  0  0  0
   28.4509   11.2560   55.6891 O   0  0  0  0  0  0  0  0  0  0  0  0
   29.1548    9.0415   56.5452 C   0  0  2  0  0  0  0  0  0  0  0  0
   30.3756    9.6224   57.0948 O   0  0  0  0  0  0  0  0  0  0  0  0
   29.5340    7.7362   55.8600 C   0  0  2  0  0  0  0  0  0  0  0  0
   30.1673    8.2284   54.6664 O   0  0  0  0  0  0  0  0  0  0  0  0
   28.3349    6.7792   55.5563 C   0  0  0  0  0  0  0  0  0  0  0  0
   27.5047    7.2883   54.5049 O   0  0  0  0  0  0  0  0  0  0  0  0
   30.1765   10.8660   57.7620 C   0  0  2  0  0  0  0  0  0  0  0  0
   31.1004   11.0968   59.0060 C   0  0  2  0  0  0  0  0  0  0  0  0
   30.9529   10.0320   60.0442 N   0  3  0  0  0  0  0  0  0  0  0  0
   30.7513   12.5105   59.5798 C   0  0  1  0  0  0  0  0  0  0  0  0
   31.0923   13.5022   58.5368 O   0  0  0  0  0  0  0  0  0  0  0  0
   29.2211   12.6576   59.9379 C   0  0  2  0  0  0  0  0  0  0  0  0
   28.9073   11.7321   60.9913 O   0  0  0  0  0  0  0  0  0  0  0  0
   28.3776   12.3654   58.6283 C   0  0  1  0  0  0  0  0  0  0  0  0
   28.7421   11.0244   58.1570 O   0  0  0  0  0  0  0  0  0  0  0  0
   26.8462   12.4531   58.8185 C   0  0  0  0  0  0  0  0  0  0  0  0
   26.3529   13.8433   59.0147 N   0  3  0  0  0  0  0  0  0  0  0  0
  1  2  1  1  0  0  0
  1  3  1  0  0  0  0
  1 10  1  0  0  0  0
  3  4  1  1  0  0  0
  3  5  1  0  0  0  0
  5  6  1  1  0  0  0
  5  7  1  0  0  0  0
  7  8  1  1  0  0  0
  7  9  1  0  0  0  0
  9 10  1  0  0  0  0
  9 11  1  6  0  0  0
 11 12  1  0  0  0  0
 13 14  1  1  0  0  0
 13 15  1  0  0  0  0
 13 21  1  0  0  0  0
 15 16  1  0  0  0  0
 16 17  1  6  0  0  0
 16 18  1  0  0  0  0
 18  2  1  6  0  0  0
 18 19  1  0  0  0  0
 19 20  1  1  0  0  0
 19 21  1  0  0  0  0
 21 22  1  1  0  0  0
 23 20  1  6  0  0  0
 23 24  1  0  0  0  0
 23 29  1  0  0  0  0
 24 25  1  1  0  0  0
 24 26  1  0  0  0  0
 26 27  1  6  0  0  0
 26 28  1  0  0  0  0
 28 29  1  0  0  0  0
 28 30  1  6  0  0  0
 30 31  1  0  0  0  0
 32 27  1  1  0  0  0
 32 33  1  0  0  0  0
 32 40  1  0  0  0  0
 33 34  1  1  0  0  0
 33 35  1  0  0  0  0
 35 36  1  6  0  0  0
 35 37  1  0  0  0  0
 37 38  1  1  0  0  0
 37 39  1  0  0  0  0
 39 40  1  0  0  0  0
 39 41  1  1  0  0  0
 41 42  1  0  0  0  0
M  CHG  5   4   1  14   1  17   1  34   1  42   1
M  END
>  <CHROM.1>
130.76937161,50.13691034,51.75457207,169.20086286,-56.12064565,25.32373203
-167.20718414,179.44693876,-169.33944373,-176.18999571,163.15280259,-49.71078988
-31.66985426,67.77741101,145.13732314,71.02212837,-63.70255056,-28.10129908
-45.53248482,-83.73092240,71.13360111,-170.98495836,29.76547493,9.65112904
54.19819660,1.26265855,-1.21325827,-2.23335639

>  <Name>
1j7t

>  <RI>
0

>  <Rbt.Current_Directory>
/home/itssahil/PROJECTS/Mol_Feturizer/New_Systems/rnas/1j7t

>  <Rbt.Executable>
rbdock ($Id: //depot/dev/client3/rdock/2013.1/src/exe/rbdock.cxx#4 $)

>  <Rbt.Library>
libRbt.so (2013.1, Build901 2013/11/27)

>  <Rbt.Parameter_File>
/export/apps/rDock/src/rDock_2013.1_src/data/scripts/dock_solv.prm

>  <Rbt.Receptor>
prm/blind_docking_100.prm

>  <SCORE>
56.882

>  <SCORE.INTER>
17.8346

>  <SCORE.INTER.CONST>
1

>  <SCORE.INTER.POLAR>
-4.6944

>  <SCORE.INTER.ROT>
9

>  <SCORE.INTER.SOLV>
39.333

>  <SCORE.INTER.VDW>
4.82673

>  <SCORE.INTER.norm>
0.424633

>  <SCORE.INTRA>
21.3033

>  <SCORE.INTRA.DIHEDRAL>
-17.0594

>  <SCORE.INTRA.DIHEDRAL.0>
46.2143

>  <SCORE.INTRA.POLAR>
1.62421

>  <SCORE.INTRA.POLAR.0>
-1.76436

>  <SCORE.INTRA.REPUL>
0

>  <SCORE.INTRA.REPUL.0>
0

>  <SCORE.INTRA.SOLV>
1.61464

>  <SCORE.INTRA.SOLV.lig_0>
-148.643

>  <SCORE.INTRA.VDW>
23.5034

>  <SCORE.INTRA.VDW.0>
-4.83512

>  <SCORE.INTRA.norm>
0.507222

>  <SCORE.RESTR>
17.7441

>  <SCORE.RESTR.CAVITY>
17.7441

>  <SCORE.RESTR.norm>
0.422478

>  <SCORE.SYSTEM>
0

>  <SCORE.SYSTEM.CONST>
0

>  <SCORE.SYSTEM.DIHEDRAL>
0

>  <SCORE.SYSTEM.SOLV>
0

>  <SCORE.SYSTEM.norm>
0

>  <SCORE.heavy>
42

>  <SCORE.norm>
1.35433

>  <RMSD>
5.658

$$$$
1j7t
 OpenBabel11021811393D
libRbt.so/2013.1/901 2013/11/27
 42 45  0  0  0  0  0  0  0  0999 V2000
   31.5638    5.2814   53.7522 C   0  0  2  0  0  0  0  0  0  0  0  0
   31.5471    6.7205   53.5763 O   0  0  0  0  0  0  0  0  0  0  0  0
   32.5136    4.9835   54.9477 C   0  0  2  0  0  0  0  0  0  0  0  0
   32.1911    5.7333   56.1957 N   0  3  0  0  0  0  0  0  0  0  0  0
   33.9499    5.3605   54.5237 C   0  0  1  0  0  0  0  0  0  0  0  0
   34.8549    5.0977   55.5588 O   0  0  0  0  0  0  0  0  0  0  0  0
   34.3456    4.5865   53.2439 C   0  0  2  0  0  0  0  0  0  0  0  0
   35.6667    4.9014   52.8502 O   0  0  0  0  0  0  0  0  0  0  0  0
   33.3956    4.9354   52.1179 C   0  0  2  0  0  0  0  0  0  0  0  0
   32.0617    4.6595   52.5261 O   0  0  0  0  0  0  0  0  0  0  0  0
   33.6438    4.1301   50.8622 C   0  0  0  0  0  0  0  0  0  0  0  0
   32.5886    4.3487   49.9457 O   0  0  0  0  0  0  0  0  0  0  0  0
   30.0586    9.6152   50.8831 C   0  0  2  0  0  0  0  0  0  0  0  0
   29.6327   10.2658   49.6435 N   0  3  0  0  0  0  0  0  0  0  0  0
   31.5827    9.2689   50.8079 C   0  0  0  0  0  0  0  0  0  0  0  0
   32.0243    8.5399   52.0913 C   0  0  2  0  0  0  0  0  0  0  0  0
   33.4388    8.1598   52.0152 N   0  3  0  0  0  0  0  0  0  0  0  0
   31.1662    7.2790   52.3135 C   0  0  2  0  0  0  0  0  0  0  0  0
   29.6570    7.5871   52.3644 C   0  0  2  0  0  0  0  0  0  0  0  0
   28.9914    6.3105   52.4168 O   0  0  0  0  0  0  0  0  0  0  0  0
   29.2225    8.3632   51.0952 C   0  0  1  0  0  0  0  0  0  0  0  0
   27.8722    8.7183   51.2120 O   0  0  0  0  0  0  0  0  0  0  0  0
   27.6866    6.1258   52.9594 C   0  0  1  0  0  0  0  0  0  0  0  0
   27.8243    5.4697   54.3795 C   0  0  2  0  0  0  0  0  0  0  0  0
   27.8666    4.0531   54.3571 O   0  0  0  0  0  0  0  0  0  0  0  0
   26.5743    6.0597   55.0172 C   0  0  2  0  0  0  0  0  0  0  0  0
   25.3654    5.4982   54.4231 O   0  0  0  0  0  0  0  0  0  0  0  0
   26.6505    7.5242   54.6089 C   0  0  2  0  0  0  0  0  0  0  0  0
   27.0494    7.4036   53.2327 O   0  0  0  0  0  0  0  0  0  0  0  0
   27.6424    8.3919   55.4510 C   0  0  0  0  0  0  0  0  0  0  0  0
   28.2641    9.4081   54.6544 O   0  0  0  0  0  0  0  0  0  0  0  0
   24.8519    4.3636   55.1164 C   0  0  2  0  0  0  0  0  0  0  0  0
   23.6891    3.6167   54.3786 C   0  0  2  0  0  0  0  0  0  0  0  0
   22.5196    4.5020   54.0927 N   0  3  0  0  0  0  0  0  0  0  0  0
   23.2829    2.4010   55.2769 C   0  0  1  0  0  0  0  0  0  0  0  0
   24.4566    1.5045   55.3562 O   0  0  0  0  0  0  0  0  0  0  0  0
   22.8787    2.8370   56.7390 C   0  0  2  0  0  0  0  0  0  0  0  0
   21.7042    3.6613   56.6617 O   0  0  0  0  0  0  0  0  0  0  0  0
   24.1023    3.6160   57.3777 C   0  0  1  0  0  0  0  0  0  0  0  0
   24.4167    4.7459   56.4958 O   0  0  0  0  0  0  0  0  0  0  0  0
   23.8569    4.1286   58.8151 C   0  0  0  0  0  0  0  0  0  0  0  0
   24.9652    4.9716   59.3400 N   0  3  0  0  0  0  0  0  0  0  0  0
  1  2  1  6  0  0  0
  1  3  1  0  0  0  0
  1 10  1  0  0  0  0
  3  4  1  1  0  0  0
  3  5  1  0  0  0  0
  5  6  1  1  0  0  0
  5  7  1  0  0  0  0
  7  8  1  6  0  0  0
  7  9  1  0  0  0  0
  9 10  1  0  0  0  0
  9 11  1  6  0  0  0
 11 12  1  0  0  0  0
 13 14  1  6  0  0  0
 13 15  1  0  0  0  0
 13 21  1  0  0  0  0
 15 16  1  0  0  0  0
 16 17  1  6  0  0  0
 16 18  1  0  0  0  0
 18  2  1  1  0  0  0
 18 19  1  0  0  0  0
 19 20  1  6  0  0  0
 19 21  1  0  0  0  0
 21 22  1  1  0  0  0
 23 20  1  1  0  0  0
 23 24  1  0  0  0  0
 23 29  1  0  0  0  0
 24 25  1  6  0  0  0
 24 26  1  0  0  0  0
 26 27  1  6  0  0  0
 26 28  1  0  0  0  0
 28 29  1  0  0  0  0
 28 30  1  1  0  0  0
 30 31  1  0  0  0  0
 32 27  1  6  0  0  0
 32 33  1  0  0  0  0
 32 40  1  0  0  0  0
 33 34  1  1  0  0  0
 33 35  1  0  0  0  0
 35 36  1  1  0  0  0
 35 37  1  0  0  0  0
 37 38  1  6  0  0  0
 37 39  1  0  0  0  0
 39 40  1  0  0  0  0
 39 41  1  1  0  0  0
 41 42  1  0  0  0  0
M  CHG  5   4   1  14   1  17   1  34   1  42   1
M  END
>  <CHROM.1>
158.06340285,-144.57260047,-49.20076860,-158.68311552,-51.62381464,170.26026634
65.54845353,-75.66925214,-55.53445259,155.72452347,-103.68950286,-76.05221508
69.41679681,92.98489191,-171.13327723,145.83833273,61.35550752,-65.11116351
-53.92891841,76.19941632,-174.20588722,-158.28428683,28.75652464,5.84585505
53.89989132,-0.44519142,-0.15155575,2.44439807

>  <Name>
1j7t

>  <RI>
0

>  <Rbt.Current_Directory>
/home/itssahil/PROJECTS/Mol_Feturizer/New_Systems/rnas/1j7t

>  <Rbt.Executable>
rbdock ($Id: //depot/dev/client3/rdock/2013.1/src/exe/rbdock.cxx#4 $)

>  <Rbt.Library>
libRbt.so (2013.1, Build901 2013/11/27)

>  <Rbt.Parameter_File>
/export/apps/rDock/src/rDock_2013.1_src/data/scripts/dock_solv.prm

>  <Rbt.Receptor>
prm/pocket_docking_5.prm

>  <SCORE>
-41.0515

>  <SCORE.INTER>
-32.9761

>  <SCORE.INTER.CONST>
1

>  <SCORE.INTER.POLAR>
-5.69706

>  <SCORE.INTER.ROT>
9

>  <SCORE.INTER.SOLV>
18.9592

>  <SCORE.INTER.VDW>
-18.9136

>  <SCORE.INTER.norm>
-0.785146

>  <SCORE.INTRA>
-8.07537

>  <SCORE.INTRA.DIHEDRAL>
-15.0392

>  <SCORE.INTRA.DIHEDRAL.0>
46.2143

>  <SCORE.INTRA.POLAR>
1.07294

>  <SCORE.INTRA.POLAR.0>
-1.76436

>  <SCORE.INTRA.REPUL>
6.61139e-05

>  <SCORE.INTRA.REPUL.0>
0

>  <SCORE.INTRA.SOLV>
-2.51454

>  <SCORE.INTRA.SOLV.lig_0>
-148.643

>  <SCORE.INTRA.VDW>
-2.94683

>  <SCORE.INTRA.VDW.0>
-4.83512

>  <SCORE.INTRA.norm>
-0.192271

>  <SCORE.RESTR>
0

>  <SCORE.RESTR.CAVITY>
0

>  <SCORE.RESTR.norm>
0

>  <SCORE.SYSTEM>
0

>  <SCORE.SYSTEM.CONST>
0

>  <SCORE.SYSTEM.DIHEDRAL>
0

>  <SCORE.SYSTEM.SOLV>
0

>  <SCORE.SYSTEM.norm>
0

>  <SCORE.heavy>
42

>  <SCORE.norm>
-0.977417

>  <RMSD>
5.673

$$$$
1j7t
 OpenBabel11021811393D
libRbt.so/2013.1/901 2013/11/27
 42 45  0  0  0  0  0  0  0  0999 V2000
   29.6394    4.2566   53.6950 C   0  0  2  0  0  0  0  0  0  0  0  0
   30.9752    4.6658   53.3070 O   0  0  0  0  0  0  0  0  0  0  0  0
   29.7895    2.9415   54.5124 C   0  0  2  0  0  0  0  0  0  0  0  0
   30.7421    3.0295   55.6562 N   0  3  0  0  0  0  0  0  0  0  0  0
   30.2939    1.8384   53.5565 C   0  0  1  0  0  0  0  0  0  0  0  0
   30.4329    0.6226   54.2361 O   0  0  0  0  0  0  0  0  0  0  0  0
   29.3229    1.6872   52.3616 C   0  0  2  0  0  0  0  0  0  0  0  0
   29.7554    0.6663   51.4842 O   0  0  0  0  0  0  0  0  0  0  0  0
   29.2377    2.9930   51.6001 C   0  0  2  0  0  0  0  0  0  0  0  0
   28.8437    4.0305   52.4892 O   0  0  0  0  0  0  0  0  0  0  0  0
   28.2176    2.9628   50.4842 C   0  0  0  0  0  0  0  0  0  0  0  0
   28.5614    1.9499   49.5584 O   0  0  0  0  0  0  0  0  0  0  0  0
   32.6897    8.4572   52.5759 C   0  0  2  0  0  0  0  0  0  0  0  0
   32.9561    9.7659   51.9779 N   0  3  0  0  0  0  0  0  0  0  0  0
   32.9511    7.3271   51.5256 C   0  0  0  0  0  0  0  0  0  0  0  0
   32.6248    5.9507   52.1361 C   0  0  2  0  0  0  0  0  0  0  0  0
   32.8130    4.8835   51.1478 N   0  3  0  0  0  0  0  0  0  0  0  0
   31.1718    5.9231   52.6496 C   0  0  2  0  0  0  0  0  0  0  0  0
   30.8780    7.0436   53.6661 C   0  0  2  0  0  0  0  0  0  0  0  0
   29.4625    6.9835   53.9271 O   0  0  0  0  0  0  0  0  0  0  0  0
   31.2519    8.4241   53.0692 C   0  0  1  0  0  0  0  0  0  0  0  0
   31.0710    9.4125   54.0456 O   0  0  0  0  0  0  0  0  0  0  0  0
   28.8154    7.7557   54.9351 C   0  0  1  0  0  0  0  0  0  0  0  0
   27.2762    7.4481   54.8892 C   0  0  2  0  0  0  0  0  0  0  0  0
   26.5521    8.2686   53.9885 O   0  0  0  0  0  0  0  0  0  0  0  0
   26.9604    7.6831   56.3597 C   0  0  2  0  0  0  0  0  0  0  0  0
   27.0846    9.0954   56.7054 O   0  0  0  0  0  0  0  0  0  0  0  0
   28.0828    6.9358   57.0661 C   0  0  2  0  0  0  0  0  0  0  0  0
   29.2129    7.3182   56.2633 O   0  0  0  0  0  0  0  0  0  0  0  0
   27.8947    5.3852   57.1436 C   0  0  0  0  0  0  0  0  0  0  0  0
   26.7242    5.0307   57.8909 O   0  0  0  0  0  0  0  0  0  0  0  0
   26.6280    9.4134   58.0176 C   0  0  2  0  0  0  0  0  0  0  0  0
   26.7220   10.9313   58.3936 C   0  0  2  0  0  0  0  0  0  0  0  0
   28.1118   11.4707   58.2876 N   0  3  0  0  0  0  0  0  0  0  0  0
   26.1580   11.0793   59.8461 C   0  0  1  0  0  0  0  0  0  0  0  0
   24.7341   10.6812   59.8048 O   0  0  0  0  0  0  0  0  0  0  0  0
   26.9112   10.1598   60.8846 C   0  0  2  0  0  0  0  0  0  0  0  0
   28.2809   10.5869   60.9638 O   0  0  0  0  0  0  0  0  0  0  0  0
   26.7915    8.6581   60.3919 C   0  0  1  0  0  0  0  0  0  0  0  0
   27.3509    8.5908   59.0370 O   0  0  0  0  0  0  0  0  0  0  0  0
   27.4984    7.6265   61.3001 C   0  0  0  0  0  0  0  0  0  0  0  0
   28.9401    7.4449   60.9788 N   0  3  0  0  0  0  0  0  0  0  0  0
  1  2  1  6  0  0  0
  1  3  1  0  0  0  0
  1 10  1  0  0  0  0
  3  4  1  1  0  0  0
  3  5  1  0  0  0  0
  5  6  1  1  0  0  0
  5  7  1  0  0  0  0
  7  8  1  6  0  0  0
  7  9  1  0  0  0  0
  9 10  1  0  0  0  0
  9 11  1  6  0  0  0
 11 12  1  0  0  0  0
 13 14  1  6  0  0  0
 13 15  1  0  0  0  0
 13 21  1  0  0  0  0
 15 16  1  0  0  0  0
 16 17  1  6  0  0  0
 16 18  1  0  0  0  0
 18  2  1  1  0  0  0
 18 19  1  0  0  0  0
 19 20  1  6  0  0  0
 19 21  1  0  0  0  0
 21 22  1  1  0  0  0
 23 20  1  6  0  0  0
 23 24  1  0  0  0  0
 23 29  1  0  0  0  0
 24 25  1  6  0  0  0
 24 26  1  0  0  0  0
 26 27  1  6  0  0  0
 26 28  1  0  0  0  0
 28 29  1  0  0  0  0
 28 30  1  6  0  0  0
 30 31  1  0  0  0  0
 32 27  1  6  0  0  0
 32 33  1  0  0  0  0
 32 40  1  0  0  0  0
 33 34  1  1  0  0  0
 33 35  1  0  0  0  0
 35 36  1  6  0  0  0
 35 37  1  0  0  0  0
 37 38  1  6  0  0  0
 37 39  1  0  0  0  0
 39 40  1  0  0  0  0
 39 41  1  1  0  0  0
 41 42  1  0  0  0  0
M  CHG  5   4   1  14   1  17   1  34   1  42   1
M  END
>  <CHROM.1>
-173.89606077,-169.54663753,69.78806795,-177.85464196,-171.65179714,-60.07928754
-177.68420231,-173.67242524,-166.28833936,172.38764547,178.45684505,-66.17970076
66.50793265,171.89498019,-178.60739895,-62.10585931,-50.63743599,-75.64247249
-76.63178914,169.46297151,-86.18193862,-61.73432933,29.06844816,6.59150488
55.30725414,0.98313537,-0.93195179,-2.74817543

>  <Name>
1j7t

>  <RI>
0

>  <Rbt.Current_Directory>
/home/itssahil/PROJECTS/Mol_Feturizer/New_Systems/rnas/1j7t

>  <Rbt.Executable>
rbdock ($Id: //depot/dev/client3/rdock/2013.1/src/exe/rbdock.cxx#4 $)

>  <Rbt.Library>
libRbt.so (2013.1, Build901 2013/11/27)

>  <Rbt.Parameter_File>
/export/apps/rDock/src/rDock_2013.1_src/data/scripts/dock_solv.prm

>  <Rbt.Receptor>
prm/pocket_docking_8.prm

>  <SCORE>
-45.9864

>  <SCORE.INTER>
-25.6459

>  <SCORE.INTER.CONST>
1

>  <SCORE.INTER.POLAR>
-5.74198

>  <SCORE.INTER.ROT>
9

>  <SCORE.INTER.SOLV>
15.1384

>  <SCORE.INTER.VDW>
-12.6035

>  <SCORE.INTER.norm>
-0.610617

>  <SCORE.INTRA>
-20.3404

>  <SCORE.INTRA.DIHEDRAL>
-37.6213

>  <SCORE.INTRA.DIHEDRAL.0>
46.2143

>  <SCORE.INTRA.POLAR>
0.149773

>  <SCORE.INTRA.POLAR.0>
-1.76436

>  <SCORE.INTRA.REPUL>
0

>  <SCORE.INTRA.REPUL.0>
0

>  <SCORE.INTRA.SOLV>
-3.1354

>  <SCORE.INTRA.SOLV.lig_0>
-148.643

>  <SCORE.INTRA.VDW>
-0.471309

>  <SCORE.INTRA.VDW.0>
-4.83512

>  <SCORE.INTRA.norm>
-0.484296

>  <SCORE.RESTR>
0

>  <SCORE.RESTR.CAVITY>
0

>  <SCORE.RESTR.norm>
0

>  <SCORE.SYSTEM>
0

>  <SCORE.SYSTEM.CONST>
0

>  <SCORE.SYSTEM.DIHEDRAL>
0

>  <SCORE.SYSTEM.SOLV>
0

>  <SCORE.SYSTEM.norm>
0

>  <SCORE.heavy>
42

>  <SCORE.norm>
-1.09491

>  <RMSD>
5.673

$$$$
1j7t
 OpenBabel11021811393D
libRbt.so/2013.1/901 2013/11/27
 42 45  0  0  0  0  0  0  0  0999 V2000
   29.7435    5.5234   51.7531 C   0  0  2  0  0  0  0  0  0  0  0  0
   29.0557    6.7802   51.9766 O   0  0  0  0  0  0  0  0  0  0  0  0
   29.1703    4.9227   50.4376 C   0  0  2  0  0  0  0  0  0  0  0  0
   29.2152    5.8439   49.2658 N   0  3  0  0  0  0  0  0  0  0  0  0
   27.6946    4.5425   50.6879 C   0  0  1  0  0  0  0  0  0  0  0  0
   27.1284    3.9793   49.5382 O   0  0  0  0  0  0  0  0  0  0  0  0
   27.5942    3.5629   51.8811 C   0  0  2  0  0  0  0  0  0  0  0  0
   26.2518    3.1849   52.1139 O   0  0  0  0  0  0  0  0  0  0  0  0
   28.1500    4.2147   53.1294 C   0  0  2  0  0  0  0  0  0  0  0  0
   29.4865    4.6343   52.8851 O   0  0  0  0  0  0  0  0  0  0  0  0
   28.1958    3.2789   54.3165 C   0  0  0  0  0  0  0  0  0  0  0  0
   28.5993    3.9964   55.4670 O   0  0  0  0  0  0  0  0  0  0  0  0
   32.0835    9.5345   50.9306 C   0  0  2  0  0  0  0  0  0  0  0  0
   32.9113   10.7409   50.9054 N   0  3  0  0  0  0  0  0  0  0  0  0
   30.6114    9.8889   50.5360 C   0  0  0  0  0  0  0  0  0  0  0  0
   29.7258    8.6303   50.6087 C   0  0  2  0  0  0  0  0  0  0  0  0
   28.3306    8.9549   50.2938 N   0  3  0  0  0  0  0  0  0  0  0  0
   29.8010    8.0027   52.0145 C   0  0  2  0  0  0  0  0  0  0  0  0
   31.2438    7.6684   52.4410 C   0  0  2  0  0  0  0  0  0  0  0  0
   31.1646    7.2442   53.8154 O   0  0  0  0  0  0  0  0  0  0  0  0
   32.1454    8.9232   52.3213 C   0  0  1  0  0  0  0  0  0  0  0  0
   33.4686    8.5697   52.6169 O   0  0  0  0  0  0  0  0  0  0  0  0
   30.5422    8.0135   54.8411 C   0  0  1  0  0  0  0  0  0  0  0  0
   29.1629    7.3514   55.1950 C   0  0  2  0  0  0  0  0  0  0  0  0
   28.0854    7.8024   54.3922 O   0  0  0  0  0  0  0  0  0  0  0  0
   29.0866    7.7689   56.6569 C   0  0  2  0  0  0  0  0  0  0  0  0
   28.8925    9.2098   56.7832 O   0  0  0  0  0  0  0  0  0  0  0  0
   30.4828    7.4458   57.1700 C   0  0  2  0  0  0  0  0  0  0  0  0
   31.2916    7.9296   56.0840 O   0  0  0  0  0  0  0  0  0  0  0  0
   30.7355    5.9347   57.4842 C   0  0  0  0  0  0  0  0  0  0  0  0
   29.8273    5.4415   58.4771 O   0  0  0  0  0  0  0  0  0  0  0  0
   28.3778    9.6167   58.0485 C   0  0  2  0  0  0  0  0  0  0  0  0
   28.0107   11.1365   58.1478 C   0  0  2  0  0  0  0  0  0  0  0  0
   29.1691   12.0340   57.8545 N   0  3  0  0  0  0  0  0  0  0  0  0
   27.4473   11.3785   59.5879 C   0  0  1  0  0  0  0  0  0  0  0  0
   26.2114   10.5758   59.7144 O   0  0  0  0  0  0  0  0  0  0  0  0
   28.4577   10.9340   60.7160 C   0  0  2  0  0  0  0  0  0  0  0  0
   29.6336   11.7549   60.6254 O   0  0  0  0  0  0  0  0  0  0  0  0
   28.7940    9.4001   60.5010 C   0  0  1  0  0  0  0  0  0  0  0  0
   29.3298    9.2505   59.1431 O   0  0  0  0  0  0  0  0  0  0  0  0
   29.7929    8.8126   61.5237 C   0  0  0  0  0  0  0  0  0  0  0  0
   31.2160    9.0865   61.1854 N   0  3  0  0  0  0  0  0  0  0  0  0
  1  2  1  1  0  0  0
  1  3  1  0  0  0  0
  1 10  1  0  0  0  0
  3  4  1  6  0  0  0
  3  5  1  0  0  0  0
  5  6  1  6  0  0  0
  5  7  1  0  0  0  0
  7  8  1  1  0  0  0
  7  9  1  0  0  0  0
  9 10  1  0  0  0  0
  9 11  1  1  0  0  0
 11 12  1  0  0  0  0
 13 14  1  1  0  0  0
 13 15  1  0  0  0  0
 13 21  1  0  0  0  0
 15 16  1  0  0  0  0
 16 17  1  1  0  0  0
 16 18  1  0  0  0  0
 18  2  1  6  0  0  0
 18 19  1  0  0  0  0
 19 20  1  1  0  0  0
 19 21  1  0  0  0  0
 21 22  1  6  0  0  0
 23 20  1  6  0  0  0
 23 24  1  0  0  0  0
 23 29  1  0  0  0  0
 24 25  1  6  0  0  0
 24 26  1  0  0  0  0
 26 27  1  6  0  0  0
 26 28  1  0  0  0  0
 28 29  1  0  0  0  0
 28 30  1  6  0  0  0
 30 31  1  0  0  0  0
 32 27  1  6  0  0  0
 32 33  1  0  0  0  0
 32 40  1  0  0  0  0
 33 34  1  1  0  0  0
 33 35  1  0  0  0  0
 35 36  1  6  0  0  0
 35 37  1  0  0  0  0
 37 38  1  6  0  0  0
 37 39  1  0  0  0  0
 39 40  1  0  0  0  0
 39 41  1  1  0  0  0
 41 42  1  0  0  0  0
M  CHG  5   4   1  14   1  17   1  34   1  42   1
M  END
>  <CHROM.1>
-118.75312341,96.05216170,-81.33004480,-71.50617892,178.32069256,-174.25020928
-55.41392807,-163.73766903,-164.85021127,-53.27658578,105.54177433,153.57657019
-56.82880949,160.31863900,-173.41454464,-59.31551452,-177.49194245,51.90763310
-60.41683953,169.83394791,-82.45952319,-29.60979499,29.43831968,7.70945201
54.86824866,1.56119654,-1.04522067,-2.01512487

>  <Name>
1j7t

>  <RI>
224

>  <Rbt.Current_Directory>
/home/itssahil/PROJECTS/Mol_Feturizer/New_Systems/rnas/1j7t

>  <Rbt.Executable>
rbdock ($Id: //depot/dev/client3/rdock/2013.1/src/exe/rbdock.cxx#4 $)

>  <Rbt.Library>
libRbt.so (2013.1, Build901 2013/11/27)

>  <Rbt.Parameter_File>
/export/apps/rDock/src/rDock_2013.1_src/data/scripts/dock_solv.prm

>  <Rbt.Receptor>
prm/pocket_docking_7.prm

>  <SCORE>
-48.9466

>  <SCORE.INTER>
-43.6163

>  <SCORE.INTER.CONST>
1

>  <SCORE.INTER.POLAR>
-7.05037

>  <SCORE.INTER.ROT>
9

>  <SCORE.INTER.SOLV>
30.6223

>  <SCORE.INTER.VDW>
-25.3838

>  <SCORE.INTER.norm>
-1.03848

>  <SCORE.INTRA>
-5.3303

>  <SCORE.INTRA.DIHEDRAL>
-15.3537

>  <SCORE.INTRA.DIHEDRAL.0>
46.2143

>  <SCORE.INTRA.POLAR>
0.790293

>  <SCORE.INTRA.POLAR.0>
-1.76436

>  <SCORE.INTRA.REPUL>
0

>  <SCORE.INTRA.REPUL.0>
0

>  <SCORE.INTRA.SOLV>
2.19525

>  <SCORE.INTRA.SOLV.lig_0>
-148.643

>  <SCORE.INTRA.VDW>
-1.43806

>  <SCORE.INTRA.VDW.0>
-4.83512

>  <SCORE.INTRA.norm>
-0.126912

>  <SCORE.RESTR>
0

>  <SCORE.RESTR.CAVITY>
0

>  <SCORE.RESTR.norm>
0

>  <SCORE.SYSTEM>
0

>  <SCORE.SYSTEM.CONST>
0

>  <SCORE.SYSTEM.DIHEDRAL>
0

>  <SCORE.SYSTEM.SOLV>
0

>  <SCORE.SYSTEM.norm>
0

>  <SCORE.heavy>
42

>  <SCORE.norm>
-1.1654

>  <RMSD>
5.693

$$$$
1j7t
 OpenBabel11021811393D
libRbt.so/2013.1/901 2013/11/27
 42 45  0  0  0  0  0  0  0  0999 V2000
   32.0583    5.1444   55.0706 C   0  0  2  0  0  0  0  0  0  0  0  0
   31.8395    6.4882   55.5692 O   0  0  0  0  0  0  0  0  0  0  0  0
   33.3322    4.6015   55.7795 C   0  0  2  0  0  0  0  0  0  0  0  0
   33.2958    4.6870   57.2678 N   0  3  0  0  0  0  0  0  0  0  0  0
   34.5425    5.4235   55.2851 C   0  0  1  0  0  0  0  0  0  0  0  0
   35.7248    4.9672   55.8796 O   0  0  0  0  0  0  0  0  0  0  0  0
   34.6424    5.3457   53.7431 C   0  0  2  0  0  0  0  0  0  0  0  0
   35.7579    6.0749   53.2708 O   0  0  0  0  0  0  0  0  0  0  0  0
   33.3824    5.9053   53.1176 C   0  0  2  0  0  0  0  0  0  0  0  0
   32.2546    5.2019   53.6227 O   0  0  0  0  0  0  0  0  0  0  0  0
   33.3517    5.7576   51.6129 C   0  0  0  0  0  0  0  0  0  0  0  0
   33.1804    4.3942   51.2766 O   0  0  0  0  0  0  0  0  0  0  0  0
   28.8528    9.4759   55.6130 C   0  0  2  0  0  0  0  0  0  0  0  0
   27.5414   10.1245   55.6438 N   0  3  0  0  0  0  0  0  0  0  0  0
   28.9850    8.5999   54.3232 C   0  0  0  0  0  0  0  0  0  0  0  0
   30.3453    7.8767   54.3111 C   0  0  2  0  0  0  0  0  0  0  0  0
   30.4645    7.0086   53.1350 N   0  3  0  0  0  0  0  0  0  0  0  0
   30.5150    7.0330   55.5898 C   0  0  2  0  0  0  0  0  0  0  0  0
   30.3621    7.8660   56.8775 C   0  0  2  0  0  0  0  0  0  0  0  0
   30.3883    6.9237   57.9669 O   0  0  0  0  0  0  0  0  0  0  0  0
   29.0148    8.6316   56.8671 C   0  0  1  0  0  0  0  0  0  0  0  0
   28.9451    9.4570   57.9971 O   0  0  0  0  0  0  0  0  0  0  0  0
   29.2609    6.1461   58.3611 C   0  0  1  0  0  0  0  0  0  0  0  0
   29.3770    4.7265   57.6997 C   0  0  2  0  0  0  0  0  0  0  0  0
   28.8069    4.6468   56.4045 O   0  0  0  0  0  0  0  0  0  0  0  0
   28.6463    3.9251   58.7679 C   0  0  2  0  0  0  0  0  0  0  0  0
   27.2239    4.2508   58.7890 O   0  0  0  0  0  0  0  0  0  0  0  0
   29.2585    4.4520   60.0581 C   0  0  2  0  0  0  0  0  0  0  0  0
   29.2943    5.8637   59.7867 O   0  0  0  0  0  0  0  0  0  0  0  0
   30.6672    3.8681   60.4051 C   0  0  0  0  0  0  0  0  0  0  0  0
   31.4936    3.7520   59.2400 O   0  0  0  0  0  0  0  0  0  0  0  0
   26.5030    3.6309   59.8509 C   0  0  2  0  0  0  0  0  0  0  0  0
   24.9507    3.5798   59.6458 C   0  0  2  0  0  0  0  0  0  0  0  0
   24.3450    4.9330   59.4576 N   0  3  0  0  0  0  0  0  0  0  0  0
   24.3479    2.8492   60.8919 C   0  0  1  0  0  0  0  0  0  0  0  0
   24.8792    1.4689   60.8889 O   0  0  0  0  0  0  0  0  0  0  0  0
   24.7472    3.5429   62.2523 C   0  0  2  0  0  0  0  0  0  0  0  0
   24.1809    4.8633   62.2754 O   0  0  0  0  0  0  0  0  0  0  0  0
   26.3292    3.5805   62.3412 C   0  0  1  0  0  0  0  0  0  0  0  0
   26.8226    4.2901   61.1553 O   0  0  0  0  0  0  0  0  0  0  0  0
   26.8844    4.2504   63.6187 C   0  0  0  0  0  0  0  0  0  0  0  0
   27.1120    5.7134   63.4685 N   0  3  0  0  0  0  0  0  0  0  0  0
  1  2  1  1  0  0  0
  1  3  1  0  0  0  0
  1 10  1  0  0  0  0
  3  4  1  1  0  0  0
  3  5  1  0  0  0  0
  5  6  1  1  0  0  0
  5  7  1  0  0  0  0
  7  8  1  6  0  0  0
  7  9  1  0  0  0  0
  9 10  1  0  0  0  0
  9 11  1  6  0  0  0
 11 12  1  0  0  0  0
 13 14  1  1  0  0  0
 13 15  1  0  0  0  0
 13 21  1  0  0  0  0
 15 16  1  0  0  0  0
 16 17  1  6  0  0  0
 16 18  1  0  0  0  0
 18  2  1  6  0  0  0
 18 19  1  0  0  0  0
 19 20  1  1  0  0  0
 19 21  1  0  0  0  0
 21 22  1  1  0  0  0
 23 20  1  6  0  0  0
 23 24  1  0  0  0  0
 23 29  1  0  0  0  0
 24 25  1  6  0  0  0
 24 26  1  0  0  0  0
 26 27  1  1  0  0  0
 26 28  1  0  0  0  0
 28 29  1  0  0  0  0
 28 30  1  6  0  0  0
 30 31  1  0  0  0  0
 32 27  1  6  0  0  0
 32 33  1  0  0  0  0
 32 40  1  0  0  0  0
 33 34  1  1  0  0  0
 33 35  1  0  0  0  0
 35 36  1  1  0  0  0
 35 37  1  0  0  0  0
 37 38  1  6  0  0  0
 37 39  1  0  0  0  0
 39 40  1  0  0  0  0
 39 41  1  1  0  0  0
 41 42  1  0  0  0  0
M  CHG  5   4   1  14   1  17   1  34   1  42   1
M  END
>  <CHROM.1>
-152.88740276,-96.27157872,-70.43458087,60.51483209,-59.80460565,70.61929705
56.04891941,-46.93591158,-138.17079272,-80.09746857,97.16316133,-61.54992943
-62.67120701,-174.30352251,-161.40085499,40.51917887,177.16797809,164.61963671
-60.79396470,173.24097268,-90.35495067,52.03202904,29.62187341,5.51478442
57.50585207,-0.67585176,-0.49353886,2.35646192

>  <Name>
1j7t

>  <RI>
0

>  <Rbt.Current_Directory>
/home/itssahil/PROJECTS/Mol_Feturizer/New_Systems/rnas/1j7t

>  <Rbt.Executable>
rbdock ($Id: //depot/dev/client3/rdock/2013.1/src/exe/rbdock.cxx#4 $)

>  <Rbt.Library>
libRbt.so (2013.1, Build901 2013/11/27)

>  <Rbt.Parameter_File>
/export/apps/rDock/src/rDock_2013.1_src/data/scripts/dock_solv.prm

>  <Rbt.Receptor>
prm/pocket_docking_3.prm

>  <SCORE>
-25.9036

>  <SCORE.INTER>
-16.7095

>  <SCORE.INTER.CONST>
1

>  <SCORE.INTER.POLAR>
-3.15093

>  <SCORE.INTER.ROT>
9

>  <SCORE.INTER.SOLV>
17.7592

>  <SCORE.INTER.VDW>
-16.1563

>  <SCORE.INTER.norm>
-0.397846

>  <SCORE.INTRA>
-9.81254

>  <SCORE.INTRA.DIHEDRAL>
-20.448

>  <SCORE.INTRA.DIHEDRAL.0>
46.2143

>  <SCORE.INTRA.POLAR>
-0.996361

>  <SCORE.INTRA.POLAR.0>
-1.76436

>  <SCORE.INTRA.REPUL>
0.00193271

>  <SCORE.INTRA.REPUL.0>
0

>  <SCORE.INTRA.SOLV>
6.12841

>  <SCORE.INTRA.SOLV.lig_0>
-148.643

>  <SCORE.INTRA.VDW>
0.725207

>  <SCORE.INTRA.VDW.0>
-4.83512

>  <SCORE.INTRA.norm>
-0.233632

>  <SCORE.RESTR>
0.618422

>  <SCORE.RESTR.CAVITY>
0.618422

>  <SCORE.RESTR.norm>
0.0147243

>  <SCORE.SYSTEM>
0

>  <SCORE.SYSTEM.CONST>
0

>  <SCORE.SYSTEM.DIHEDRAL>
0

>  <SCORE.SYSTEM.SOLV>
0

>  <SCORE.SYSTEM.norm>
0

>  <SCORE.heavy>
42

>  <SCORE.norm>
-0.616753

>  <RMSD>
5.694

$$$$
1j7t
 OpenBabel11021811393D
libRbt.so/2013.1/901 2013/11/27
 42 45  0  0  0  0  0  0  0  0999 V2000
   28.3896    6.0246   51.4925 C   0  0  2  0  0  0  0  0  0  0  0  0
   28.2329    7.1316   52.4159 O   0  0  0  0  0  0  0  0  0  0  0  0
   26.9781    5.4031   51.2891 C   0  0  2  0  0  0  0  0  0  0  0  0
   25.9264    6.3775   50.8792 N   0  3  0  0  0  0  0  0  0  0  0  0
   26.5396    4.7631   52.6244 C   0  0  1  0  0  0  0  0  0  0  0  0
   25.2775    4.1711   52.4968 O   0  0  0  0  0  0  0  0  0  0  0  0
   27.5870    3.7206   53.0822 C   0  0  2  0  0  0  0  0  0  0  0  0
   27.1937    3.1065   54.2936 O   0  0  0  0  0  0  0  0  0  0  0  0
   28.9291    4.3929   53.2793 C   0  0  2  0  0  0  0  0  0  0  0  0
   29.3081    5.0474   52.0752 O   0  0  0  0  0  0  0  0  0  0  0  0
   30.0364    3.4189   53.6144 C   0  0  0  0  0  0  0  0  0  0  0  0
   30.2543    2.5563   52.5145 O   0  0  0  0  0  0  0  0  0  0  0  0
   32.0314    8.8744   51.7977 C   0  0  2  0  0  0  0  0  0  0  0  0
   33.1731    9.7836   51.9037 N   0  3  0  0  0  0  0  0  0  0  0  0
   30.7816    9.6471   51.2600 C   0  0  0  0  0  0  0  0  0  0  0  0
   29.5645    8.7048   51.1932 C   0  0  2  0  0  0  0  0  0  0  0  0
   28.3700    9.4263   50.7418 N   0  3  0  0  0  0  0  0  0  0  0  0
   29.2938    8.0805   52.5762 C   0  0  2  0  0  0  0  0  0  0  0  0
   30.5180    7.3355   53.1432 C   0  0  2  0  0  0  0  0  0  0  0  0
   30.1637    6.9510   54.4856 O   0  0  0  0  0  0  0  0  0  0  0  0
   31.7546    8.2695   53.1649 C   0  0  1  0  0  0  0  0  0  0  0  0
   32.8744    7.5416   53.5883 O   0  0  0  0  0  0  0  0  0  0  0  0
   30.4843    7.7280   55.6365 C   0  0  1  0  0  0  0  0  0  0  0  0
   29.3447    7.5390   56.7003 C   0  0  2  0  0  0  0  0  0  0  0  0
   28.2665    8.4476   56.5560 O   0  0  0  0  0  0  0  0  0  0  0  0
   30.1809    7.7370   57.9568 C   0  0  2  0  0  0  0  0  0  0  0  0
   30.6281    9.1209   58.0786 O   0  0  0  0  0  0  0  0  0  0  0  0
   31.4078    6.8794   57.6803 C   0  0  2  0  0  0  0  0  0  0  0  0
   31.6663    7.2082   56.3045 O   0  0  0  0  0  0  0  0  0  0  0  0
   31.2035    5.3454   57.9061 C   0  0  0  0  0  0  0  0  0  0  0  0
   30.0160    4.8690   57.2605 O   0  0  0  0  0  0  0  0  0  0  0  0
   29.5690   10.0597   58.2466 C   0  0  2  0  0  0  0  0  0  0  0  0
   29.9745   11.5539   58.0073 C   0  0  2  0  0  0  0  0  0  0  0  0
   31.0842   12.0045   58.9011 N   0  3  0  0  0  0  0  0  0  0  0  0
   28.6852   12.4171   58.2129 C   0  0  1  0  0  0  0  0  0  0  0  0
   27.7157   12.0094   57.1731 O   0  0  0  0  0  0  0  0  0  0  0  0
   28.0291   12.1970   59.6315 C   0  0  2  0  0  0  0  0  0  0  0  0
   28.9520   12.6474   60.6366 O   0  0  0  0  0  0  0  0  0  0  0  0
   27.6968   10.6552   59.7877 C   0  0  1  0  0  0  0  0  0  0  0  0
   28.9477    9.9114   59.5995 O   0  0  0  0  0  0  0  0  0  0  0  0
   27.0595   10.2700   61.1421 C   0  0  0  0  0  0  0  0  0  0  0  0
   26.6902    8.8314   61.2346 N   0  3  0  0  0  0  0  0  0  0  0  0
  1  2  1  1  0  0  0
  1  3  1  0  0  0  0
  1 10  1  0  0  0  0
  3  4  1  1  0  0  0
  3  5  1  0  0  0  0
  5  6  1  6  0  0  0
  5  7  1  0  0  0  0
  7  8  1  1  0  0  0
  7  9  1  0  0  0  0
  9 10  1  0  0  0  0
  9 11  1  6  0  0  0
 11 12  1  0  0  0  0
 13 14  1  1  0  0  0
 13 15  1  0  0  0  0
 13 21  1  0  0  0  0
 15 16  1  0  0  0  0
 16 17  1  1  0  0  0
 16 18  1  0  0  0  0
 18  2  1  6  0  0  0
 18 19  1  0  0  0  0
 19 20  1  1  0  0  0
 19 21  1  0  0  0  0
 21 22  1  6  0  0  0
 23 20  1  6  0  0  0
 23 24  1  0  0  0  0
 23 29  1  0  0  0  0
 24 25  1  6  0  0  0
 24 26  1  0  0  0  0
 26 27  1  6  0  0  0
 26 28  1  0  0  0  0
 28 29  1  0  0  0  0
 28 30  1  6  0  0  0
 30 31  1  0  0  0  0
 32 27  1  1  0  0  0
 32 33  1  0  0  0  0
 32 40  1  0  0  0  0
 33 34  1  1  0  0  0
 33 35  1  0  0  0  0
 35 36  1  6  0  0  0
 35 37  1  0  0  0  0
 37 38  1  1  0  0  0
 37 39  1  0  0  0  0
 39 40  1  0  0  0  0
 39 41  1  1  0  0  0
 41 42  1  0  0  0  0
M  CHG  5   4   1  14   1  17   1  34   1  42   1
M  END
>  <CHROM.1>
-166.39790363,58.79019736,-179.31015594,-69.70474049,55.35680632,65.04440015
-61.15641885,-55.42816466,102.01585898,-94.27520234,147.41891908,-53.11288882
176.55551333,64.12253554,-164.81985030,48.89506471,176.23771531,21.57160801
165.94453380,166.79250561,176.88324883,57.90675715,29.28141766,7.80253558
55.26412134,-1.61513250,0.97244722,0.97354608

>  <Name>
1j7t

>  <RI>
0

>  <Rbt.Current_Directory>
/home/itssahil/PROJECTS/Mol_Feturizer/New_Systems/rnas/1j7t

>  <Rbt.Executable>
rbdock ($Id: //depot/dev/client3/rdock/2013.1/src/exe/rbdock.cxx#4 $)

>  <Rbt.Library>
libRbt.so (2013.1, Build901 2013/11/27)

>  <Rbt.Parameter_File>
/export/apps/rDock/src/rDock_2013.1_src/data/scripts/dock_solv.prm

>  <Rbt.Receptor>
prm/pocket_docking_8.prm

>  <SCORE>
-39.6055

>  <SCORE.INTER>
-30.5017

>  <SCORE.INTER.CONST>
1

>  <SCORE.INTER.POLAR>
-6.30587

>  <SCORE.INTER.ROT>
9

>  <SCORE.INTER.SOLV>
34.4054

>  <SCORE.INTER.VDW>
-20.3833

>  <SCORE.INTER.norm>
-0.72623

>  <SCORE.INTRA>
-9.10386

>  <SCORE.INTRA.DIHEDRAL>
-26.3641

>  <SCORE.INTRA.DIHEDRAL.0>
46.2143

>  <SCORE.INTRA.POLAR>
0.874507

>  <SCORE.INTRA.POLAR.0>
-1.76436

>  <SCORE.INTRA.REPUL>
0.226972

>  <SCORE.INTRA.REPUL.0>
0

>  <SCORE.INTRA.SOLV>
-2.66492

>  <SCORE.INTRA.SOLV.lig_0>
-148.643

>  <SCORE.INTRA.VDW>
1.30245

>  <SCORE.INTRA.VDW.0>
-4.83512

>  <SCORE.INTRA.norm>
-0.216758

>  <SCORE.RESTR>
0

>  <SCORE.RESTR.CAVITY>
0

>  <SCORE.RESTR.norm>
0

>  <SCORE.SYSTEM>
0

>  <SCORE.SYSTEM.CONST>
0

>  <SCORE.SYSTEM.DIHEDRAL>
0

>  <SCORE.SYSTEM.SOLV>
0

>  <SCORE.SYSTEM.norm>
0

>  <SCORE.heavy>
42

>  <SCORE.norm>
-0.942989

>  <RMSD>
5.717

$$$$
1j7t
 OpenBabel11021811393D
libRbt.so/2013.1/901 2013/11/27
 42 45  0  0  0  0  0  0  0  0999 V2000
   33.7055    3.8501   53.9706 C   0  0  2  0  0  0  0  0  0  0  0  0
   33.5736    5.2650   54.2589 O   0  0  0  0  0  0  0  0  0  0  0  0
   34.4925    3.2193   55.1550 C   0  0  2  0  0  0  0  0  0  0  0  0
   33.9166    3.5026   56.5010 N   0  3  0  0  0  0  0  0  0  0  0  0
   35.9316    3.7787   55.1257 C   0  0  1  0  0  0  0  0  0  0  0  0
   36.6948    3.2316   56.1638 O   0  0  0  0  0  0  0  0  0  0  0  0
   36.5866    3.4864   53.7549 C   0  0  2  0  0  0  0  0  0  0  0  0
   37.9139    3.9720   53.7144 O   0  0  0  0  0  0  0  0  0  0  0  0
   35.7841    4.1424   52.6514 C   0  0  2  0  0  0  0  0  0  0  0  0
   34.4382    3.6882   52.7156 O   0  0  0  0  0  0  0  0  0  0  0  0
   36.2935    3.8060   51.2678 C   0  0  0  0  0  0  0  0  0  0  0  0
   35.4386    4.3807   50.2982 O   0  0  0  0  0  0  0  0  0  0  0  0
   31.3574    8.6297   52.9879 C   0  0  2  0  0  0  0  0  0  0  0  0
   30.2591    9.4584   52.4896 N   0  3  0  0  0  0  0  0  0  0  0  0
   31.7670    7.5781   51.9040 C   0  0  0  0  0  0  0  0  0  0  0  0
   32.8901    6.6717   52.4431 C   0  0  2  0  0  0  0  0  0  0  0  0
   33.2497    5.6450   51.4594 N   0  3  0  0  0  0  0  0  0  0  0  0
   32.4478    5.9924   53.7541 C   0  0  2  0  0  0  0  0  0  0  0  0
   32.0121    7.0045   54.8316 C   0  0  2  0  0  0  0  0  0  0  0  0
   31.4855    6.2237   55.9217 O   0  0  0  0  0  0  0  0  0  0  0  0
   30.9164    7.9477   54.2733 C   0  0  1  0  0  0  0  0  0  0  0  0
   30.6105    8.9191   55.2355 O   0  0  0  0  0  0  0  0  0  0  0  0
   30.2644    6.5296   56.5900 C   0  0  1  0  0  0  0  0  0  0  0  0
   29.3415    5.2597   56.5508 C   0  0  2  0  0  0  0  0  0  0  0  0
   28.5278    5.1751   55.3933 O   0  0  0  0  0  0  0  0  0  0  0  0
   28.5815    5.4993   57.8478 C   0  0  2  0  0  0  0  0  0  0  0  0
   27.6946    6.6525   57.7326 O   0  0  0  0  0  0  0  0  0  0  0  0
   29.6914    5.8676   58.8223 C   0  0  2  0  0  0  0  0  0  0  0  0
   30.4870    6.7479   58.0099 O   0  0  0  0  0  0  0  0  0  0  0  0
   30.5088    4.6557   59.3781 C   0  0  0  0  0  0  0  0  0  0  0  0
   31.2475    5.0102   60.5540 O   0  0  0  0  0  0  0  0  0  0  0  0
   26.7801    6.7911   58.8170 C   0  0  2  0  0  0  0  0  0  0  0  0
   25.5198    5.8643   58.7331 C   0  0  2  0  0  0  0  0  0  0  0  0
   24.7277    6.0732   57.4832 N   0  3  0  0  0  0  0  0  0  0  0  0
   24.6602    6.1434   60.0110 C   0  0  1  0  0  0  0  0  0  0  0  0
   25.4733    5.7450   61.1805 O   0  0  0  0  0  0  0  0  0  0  0  0
   24.2719    7.6661   60.1589 C   0  0  2  0  0  0  0  0  0  0  0  0
   23.4350    8.0340   59.0503 O   0  0  0  0  0  0  0  0  0  0  0  0
   25.6097    8.5154   60.1923 C   0  0  1  0  0  0  0  0  0  0  0  0
   26.3539    8.2178   58.9632 O   0  0  0  0  0  0  0  0  0  0  0  0
   25.3980   10.0414   60.3175 C   0  0  0  0  0  0  0  0  0  0  0  0
   24.7298   10.6453   59.1329 N   0  3  0  0  0  0  0  0  0  0  0  0
  1  2  1  1  0  0  0
  1  3  1  0  0  0  0
  1 10  1  0  0  0  0
  3  4  1  1  0  0  0
  3  5  1  0  0  0  0
  5  6  1  1  0  0  0
  5  7  1  0  0  0  0
  7  8  1  1  0  0  0
  7  9  1  0  0  0  0
  9 10  1  0  0  0  0
  9 11  1  6  0  0  0
 11 12  1  0  0  0  0
 13 14  1  6  0  0  0
 13 15  1  0  0  0  0
 13 21  1  0  0  0  0
 15 16  1  0  0  0  0
 16 17  1  6  0  0  0
 16 18  1  0  0  0  0
 18  2  1  1  0  0  0
 18 19  1  0  0  0  0
 19 20  1  1  0  0  0
 19 21  1  0  0  0  0
 21 22  1  1  0  0  0
 23 20  1  6  0  0  0
 23 24  1  0  0  0  0
 23 29  1  0  0  0  0
 24 25  1  6  0  0  0
 24 26  1  0  0  0  0
 26 27  1  6  0  0  0
 26 28  1  0  0  0  0
 28 29  1  0  0  0  0
 28 30  1  6  0  0  0
 30 31  1  0  0  0  0
 32 27  1  6  0  0  0
 32 33  1  0  0  0  0
 32 40  1  0  0  0  0
 33 34  1  6  0  0  0
 33 35  1  0  0  0  0
 35 36  1  1  0  0  0
 35 37  1  0  0  0  0
 37 38  1  6  0  0  0
 37 39  1  0  0  0  0
 39 40  1  0  0  0  0
 39 41  1  6  0  0  0
 41 42  1  0  0  0  0
M  CHG  5   4   1  14   1  17   1  34   1  42   1
M  END
>  <CHROM.1>
-151.19997225,-96.00390737,69.17434474,65.36408866,169.32898330,176.02973268
-175.62530218,43.75901329,-0.91830412,-134.16834318,125.45980420,-69.82985497
-171.24452195,169.29095500,-79.98629258,-162.84195743,69.66561643,108.64930396
-178.66325609,-72.74104234,-65.70286027,-82.50425154,30.58912598,6.09132077
56.08548138,-0.32878652,-0.54277156,2.09526480

>  <Name>
1j7t

>  <RI>
0

>  <Rbt.Current_Directory>
/home/itssahil/PROJECTS/Mol_Feturizer/New_Systems/rnas/1j7t

>  <Rbt.Executable>
rbdock ($Id: //depot/dev/client3/rdock/2013.1/src/exe/rbdock.cxx#4 $)

>  <Rbt.Library>
libRbt.so (2013.1, Build901 2013/11/27)

>  <Rbt.Parameter_File>
/export/apps/rDock/src/rDock_2013.1_src/data/scripts/dock_solv.prm

>  <Rbt.Receptor>
prm/pocket_docking_5.prm

>  <SCORE>
-26.788

>  <SCORE.INTER>
-27.5635

>  <SCORE.INTER.CONST>
1

>  <SCORE.INTER.POLAR>
-4.97712

>  <SCORE.INTER.ROT>
9

>  <SCORE.INTER.SOLV>
20.6434

>  <SCORE.INTER.VDW>
-18.2664

>  <SCORE.INTER.norm>
-0.656274

>  <SCORE.INTRA>
0.427571

>  <SCORE.INTRA.DIHEDRAL>
-9.30177

>  <SCORE.INTRA.DIHEDRAL.0>
46.2143

>  <SCORE.INTRA.POLAR>
0.405111

>  <SCORE.INTRA.POLAR.0>
-1.76436

>  <SCORE.INTRA.REPUL>
0

>  <SCORE.INTRA.REPUL.0>
0

>  <SCORE.INTRA.SOLV>
2.52744

>  <SCORE.INTRA.SOLV.lig_0>
-148.643

>  <SCORE.INTRA.VDW>
2.43736

>  <SCORE.INTRA.VDW.0>
-4.83512

>  <SCORE.INTRA.norm>
0.0101803

>  <SCORE.RESTR>
0.347967

>  <SCORE.RESTR.CAVITY>
0.347967

>  <SCORE.RESTR.norm>
0.00828493

>  <SCORE.SYSTEM>
0

>  <SCORE.SYSTEM.CONST>
0

>  <SCORE.SYSTEM.DIHEDRAL>
0

>  <SCORE.SYSTEM.SOLV>
0

>  <SCORE.SYSTEM.norm>
0

>  <SCORE.heavy>
42

>  <SCORE.norm>
-0.637809

>  <RMSD>
5.775

$$$$
1j7t
 OpenBabel11021811393D
libRbt.so/2013.1/901 2013/11/27
 42 45  0  0  0  0  0  0  0  0999 V2000
   31.0294    7.2522   53.9876 C   0  0  2  0  0  0  0  0  0  0  0  0
   29.8655    7.7131   53.2558 O   0  0  0  0  0  0  0  0  0  0  0  0
   32.2745    7.6054   53.1244 C   0  0  2  0  0  0  0  0  0  0  0  0
   32.3565    9.0365   52.7135 N   0  3  0  0  0  0  0  0  0  0  0  0
   32.2292    6.7441   51.8434 C   0  0  1  0  0  0  0  0  0  0  0  0
   33.3386    7.0085   51.0317 O   0  0  0  0  0  0  0  0  0  0  0  0
   32.1707    5.2434   52.2149 C   0  0  2  0  0  0  0  0  0  0  0  0
   32.1501    4.4354   51.0548 O   0  0  0  0  0  0  0  0  0  0  0  0
   30.9293    4.9652   53.0357 C   0  0  2  0  0  0  0  0  0  0  0  0
   30.9256    5.8067   54.1819 O   0  0  0  0  0  0  0  0  0  0  0  0
   30.8585    3.5409   53.5389 C   0  0  0  0  0  0  0  0  0  0  0  0
   31.9536    3.2896   54.3985 O   0  0  0  0  0  0  0  0  0  0  0  0
   25.7291    8.0569   54.0433 C   0  0  2  0  0  0  0  0  0  0  0  0
   24.3625    7.7235   54.4463 N   0  3  0  0  0  0  0  0  0  0  0  0
   26.1674    7.1532   52.8434 C   0  0  0  0  0  0  0  0  0  0  0  0
   27.6229    7.4672   52.4476 C   0  0  2  0  0  0  0  0  0  0  0  0
   28.0683    6.5914   51.3588 N   0  3  0  0  0  0  0  0  0  0  0  0
   28.5576    7.2925   53.6607 C   0  0  2  0  0  0  0  0  0  0  0  0
   28.1332    8.1511   54.8681 C   0  0  2  0  0  0  0  0  0  0  0  0
   28.9959    7.7640   55.9550 O   0  0  0  0  0  0  0  0  0  0  0  0
   26.6540    7.8704   55.2355 C   0  0  1  0  0  0  0  0  0  0  0  0
   26.2639    8.7335   56.2680 O   0  0  0  0  0  0  0  0  0  0  0  0
   28.5941    7.7814   57.3222 C   0  0  1  0  0  0  0  0  0  0  0  0
   29.7901    7.2685   58.2011 C   0  0  2  0  0  0  0  0  0  0  0  0
   29.8186    5.8614   58.3694 O   0  0  0  0  0  0  0  0  0  0  0  0
   29.4861    8.0557   59.4681 C   0  0  2  0  0  0  0  0  0  0  0  0
   28.2692    7.5695   60.1104 O   0  0  0  0  0  0  0  0  0  0  0  0
   29.1982    9.4515   58.9333 C   0  0  2  0  0  0  0  0  0  0  0  0
   28.3857    9.1427   57.7878 O   0  0  0  0  0  0  0  0  0  0  0  0
   30.4659   10.2903   58.5657 C   0  0  0  0  0  0  0  0  0  0  0  0
   30.2549   11.0802   57.3886 O   0  0  0  0  0  0  0  0  0  0  0  0
   27.9764    8.2037   61.3528 C   0  0  2  0  0  0  0  0  0  0  0  0
   26.6428    7.7354   62.0286 C   0  0  2  0  0  0  0  0  0  0  0  0
   25.4466    7.9414   61.1568 N   0  3  0  0  0  0  0  0  0  0  0  0
   26.5125    8.5196   63.3768 C   0  0  1  0  0  0  0  0  0  0  0  0
   27.6516    8.1156   64.2294 O   0  0  0  0  0  0  0  0  0  0  0  0
   26.5612   10.0841   63.1744 C   0  0  2  0  0  0  0  0  0  0  0  0
   25.4216   10.4794   62.3935 O   0  0  0  0  0  0  0  0  0  0  0  0
   27.9238   10.4459   62.4502 C   0  0  1  0  0  0  0  0  0  0  0  0
   27.9707    9.6912   61.1926 O   0  0  0  0  0  0  0  0  0  0  0  0
   28.1173   11.9521   62.1623 C   0  0  0  0  0  0  0  0  0  0  0  0
   29.2037   12.2330   61.1848 N   0  3  0  0  0  0  0  0  0  0  0  0
  1  2  1  6  0  0  0
  1  3  1  0  0  0  0
  1 10  1  0  0  0  0
  3  4  1  6  0  0  0
  3  5  1  0  0  0  0
  5  6  1  6  0  0  0
  5  7  1  0  0  0  0
  7  8  1  6  0  0  0
  7  9  1  0  0  0  0
  9 10  1  0  0  0  0
  9 11  1  1  0  0  0
 11 12  1  0  0  0  0
 13 14  1  1  0  0  0
 13 15  1  0  0  0  0
 13 21  1  0  0  0  0
 15 16  1  0  0  0  0
 16 17  1  6  0  0  0
 16 18  1  0  0  0  0
 18  2  1  6  0  0  0
 18 19  1  0  0  0  0
 19 20  1  1  0  0  0
 19 21  1  0  0  0  0
 21 22  1  1  0  0  0
 23 20  1  6  0  0  0
 23 24  1  0  0  0  0
 23 29  1  0  0  0  0
 24 25  1  1  0  0  0
 24 26  1  0  0  0  0
 26 27  1  6  0  0  0
 26 28  1  0  0  0  0
 28 29  1  0  0  0  0
 28 30  1  6  0  0  0
 30 31  1  0  0  0  0
 32 27  1  6  0  0  0
 32 33  1  0  0  0  0
 32 40  1  0  0  0  0
 33 34  1  6  0  0  0
 33 35  1  0  0  0  0
 35 36  1  1  0  0  0
 35 37  1  0  0  0  0
 37 38  1  6  0  0  0
 37 39  1  0  0  0  0
 39 40  1  0  0  0  0
 39 41  1  6  0  0  0
 41 42  1  0  0  0  0
M  CHG  5   4   1  14   1  17   1  34   1  42   1
M  END
>  <CHROM.1>
167.31358257,-158.72402260,-28.32971046,65.09667626,64.87275534,62.29807695
-60.59446095,-41.23576768,-55.38284361,-148.50811200,178.87957991,-55.42596291
62.02075526,175.93643667,177.64612917,142.22917844,-47.49648972,82.83721776
-177.21339774,-178.04132181,-164.85499260,63.46625024,28.92214050,7.89606880
56.80198678,-1.23234757,-0.11865688,1.26805568

>  <Name>
1j7t

>  <RI>
0

>  <Rbt.Current_Directory>
/home/itssahil/PROJECTS/Mol_Feturizer/New_Systems/rnas/1j7t

>  <Rbt.Executable>
rbdock ($Id: //depot/dev/client3/rdock/2013.1/src/exe/rbdock.cxx#4 $)

>  <Rbt.Library>
libRbt.so (2013.1, Build901 2013/11/27)

>  <Rbt.Parameter_File>
/export/apps/rDock/src/rDock_2013.1_src/data/scripts/dock_solv.prm

>  <Rbt.Receptor>
prm/pocket_docking_6.prm

>  <SCORE>
-35.1764

>  <SCORE.INTER>
-26.5277

>  <SCORE.INTER.CONST>
1

>  <SCORE.INTER.POLAR>
-4.81823

>  <SCORE.INTER.ROT>
9

>  <SCORE.INTER.SOLV>
20.5785

>  <SCORE.INTER.VDW>
-18.0839

>  <SCORE.INTER.norm>
-0.631612

>  <SCORE.INTRA>
-9.20485

>  <SCORE.INTRA.DIHEDRAL>
-29.091

>  <SCORE.INTRA.DIHEDRAL.0>
46.2143

>  <SCORE.INTRA.POLAR>
1.62195

>  <SCORE.INTRA.POLAR.0>
-1.76436

>  <SCORE.INTRA.REPUL>
0

>  <SCORE.INTRA.REPUL.0>
0

>  <SCORE.INTRA.SOLV>
-2.97994

>  <SCORE.INTRA.SOLV.lig_0>
-148.643

>  <SCORE.INTRA.VDW>
1.316

>  <SCORE.INTRA.VDW.0>
-4.83512

>  <SCORE.INTRA.norm>
-0.219163

>  <SCORE.RESTR>
0.556107

>  <SCORE.RESTR.CAVITY>
0.556107

>  <SCORE.RESTR.norm>
0.0132407

>  <SCORE.SYSTEM>
0

>  <SCORE.SYSTEM.CONST>
0

>  <SCORE.SYSTEM.DIHEDRAL>
0

>  <SCORE.SYSTEM.SOLV>
0

>  <SCORE.SYSTEM.norm>
0

>  <SCORE.heavy>
42

>  <SCORE.norm>
-0.837534

>  <RMSD>
5.844

$$$$
1j7t
 OpenBabel11021811393D
libRbt.so/2013.1/901 2013/11/27
 42 45  0  0  0  0  0  0  0  0999 V2000
   32.3120    7.4084   53.7801 C   0  0  2  0  0  0  0  0  0  0  0  0
   31.0204    7.9165   53.3604 O   0  0  0  0  0  0  0  0  0  0  0  0
   32.5046    6.0320   53.0811 C   0  0  2  0  0  0  0  0  0  0  0  0
   32.3269    6.0597   51.6008 N   0  3  0  0  0  0  0  0  0  0  0  0
   31.4681    5.0483   53.6666 C   0  0  1  0  0  0  0  0  0  0  0  0
   31.6051    3.7828   53.0842 O   0  0  0  0  0  0  0  0  0  0  0  0
   31.6280    4.9615   55.2030 C   0  0  2  0  0  0  0  0  0  0  0  0
   30.7014    4.0487   55.7574 O   0  0  0  0  0  0  0  0  0  0  0  0
   31.4101    6.3266   55.8203 C   0  0  2  0  0  0  0  0  0  0  0  0
   32.3121    7.2567   55.2344 O   0  0  0  0  0  0  0  0  0  0  0  0
   31.6647    6.3505   57.3108 C   0  0  0  0  0  0  0  0  0  0  0  0
   31.0810    7.5114   57.8701 O   0  0  0  0  0  0  0  0  0  0  0  0
   29.5993   10.5090   50.3425 C   0  0  2  0  0  0  0  0  0  0  0  0
   29.3643   11.1102   49.0292 N   0  3  0  0  0  0  0  0  0  0  0  0
   31.1236   10.5669   50.6912 C   0  0  0  0  0  0  0  0  0  0  0  0
   31.3819    9.8911   52.0514 C   0  0  2  0  0  0  0  0  0  0  0  0
   32.8137    9.8886   52.3694 N   0  3  0  0  0  0  0  0  0  0  0  0
   30.8576    8.4417   52.0378 C   0  0  2  0  0  0  0  0  0  0  0  0
   29.3637    8.3523   51.6700 C   0  0  2  0  0  0  0  0  0  0  0  0
   29.0673    6.9480   51.5461 O   0  0  0  0  0  0  0  0  0  0  0  0
   29.0958    9.0744   50.3251 C   0  0  1  0  0  0  0  0  0  0  0  0
   27.7192    9.0664   50.0641 O   0  0  0  0  0  0  0  0  0  0  0  0
   27.9619    6.3180   52.1883 C   0  0  1  0  0  0  0  0  0  0  0  0
   28.5123    5.2254   53.1728 C   0  0  2  0  0  0  0  0  0  0  0  0
   28.7104    3.9570   52.5721 O   0  0  0  0  0  0  0  0  0  0  0  0
   27.3936    5.2742   54.2041 C   0  0  2  0  0  0  0  0  0  0  0  0
   26.1499    4.7418   53.6569 O   0  0  0  0  0  0  0  0  0  0  0  0
   27.2003    6.7691   54.4168 C   0  0  2  0  0  0  0  0  0  0  0  0
   27.2668    7.2484   53.0627 O   0  0  0  0  0  0  0  0  0  0  0  0
   28.2595    7.4440   55.3487 C   0  0  0  0  0  0  0  0  0  0  0  0
   28.3663    6.7658   56.6067 O   0  0  0  0  0  0  0  0  0  0  0  0
   25.6471    3.6071   54.3576 C   0  0  2  0  0  0  0  0  0  0  0  0
   24.3009    3.0349   53.7966 C   0  0  2  0  0  0  0  0  0  0  0  0
   23.2004    4.0459   53.7848 N   0  3  0  0  0  0  0  0  0  0  0  0
   23.9302    1.7929   54.6739 C   0  0  1  0  0  0  0  0  0  0  0  0
   24.9976    0.7873   54.4816 O   0  0  0  0  0  0  0  0  0  0  0  0
   23.8351    2.1433   56.2100 C   0  0  2  0  0  0  0  0  0  0  0  0
   22.7596    3.0771   56.3999 O   0  0  0  0  0  0  0  0  0  0  0  0
   25.2270    2.7498   56.6648 C   0  0  1  0  0  0  0  0  0  0  0  0
   25.5017    3.9139   55.8147 O   0  0  0  0  0  0  0  0  0  0  0  0
   25.2914    3.1634   58.1527 C   0  0  0  0  0  0  0  0  0  0  0  0
   26.6720    3.4508   58.6278 N   0  3  0  0  0  0  0  0  0  0  0  0
  1  2  1  6  0  0  0
  1  3  1  0  0  0  0
  1 10  1  0  0  0  0
  3  4  1  6  0  0  0
  3  5  1  0  0  0  0
  5  6  1  6  0  0  0
  5  7  1  0  0  0  0
  7  8  1  1  0  0  0
  7  9  1  0  0  0  0
  9 10  1  0  0  0  0
  9 11  1  1  0  0  0
 11 12  1  0  0  0  0
 13 14  1  6  0  0  0
 13 15  1  0  0  0  0
 13 21  1  0  0  0  0
 15 16  1  0  0  0  0
 16 17  1  6  0  0  0
 16 18  1  0  0  0  0
 18  2  1  1  0  0  0
 18 19  1  0  0  0  0
 19 20  1  6  0  0  0
 19 21  1  0  0  0  0
 21 22  1  1  0  0  0
 23 20  1  1  0  0  0
 23 24  1  0  0  0  0
 23 29  1  0  0  0  0
 24 25  1  6  0  0  0
 24 26  1  0  0  0  0
 26 27  1  6  0  0  0
 26 28  1  0  0  0  0
 28 29  1  0  0  0  0
 28 30  1  1  0  0  0
 30 31  1  0  0  0  0
 32 27  1  6  0  0  0
 32 33  1  0  0  0  0
 32 40  1  0  0  0  0
 33 34  1  1  0  0  0
 33 35  1  0  0  0  0
 35 36  1  1  0  0  0
 35 37  1  0  0  0  0
 37 38  1  6  0  0  0
 37 39  1  0  0  0  0
 39 40  1  0  0  0  0
 39 41  1  1  0  0  0
 41 42  1  0  0  0  0
M  CHG  5   4   1  14   1  17   1  34   1  42   1
M  END
>  <CHROM.1>
-74.59399123,-81.37698313,169.44232186,-60.11702975,61.93951385,-163.09806792
58.54293775,-132.80991403,-179.46965558,130.20487802,-118.45127669,166.75349525
82.64302743,119.54238701,179.14583232,-53.02168053,60.65239099,-72.99182785
174.88316731,-174.86740779,167.58152816,64.75877619,28.60187201,5.98513400
53.91832089,-0.78247871,0.35765436,2.21517457

>  <Name>
1j7t

>  <RI>
0

>  <Rbt.Current_Directory>
/home/itssahil/PROJECTS/Mol_Feturizer/New_Systems/rnas/1j7t

>  <Rbt.Executable>
rbdock ($Id: //depot/dev/client3/rdock/2013.1/src/exe/rbdock.cxx#4 $)

>  <Rbt.Library>
libRbt.so (2013.1, Build901 2013/11/27)

>  <Rbt.Parameter_File>
/export/apps/rDock/src/rDock_2013.1_src/data/scripts/dock_solv.prm

>  <Rbt.Receptor>
prm/pocket_docking_6.prm

>  <SCORE>
-37.3078

>  <SCORE.INTER>
-30.4031

>  <SCORE.INTER.CONST>
1

>  <SCORE.INTER.POLAR>
-5.07694

>  <SCORE.INTER.ROT>
9

>  <SCORE.INTER.SOLV>
22.5422

>  <SCORE.INTER.VDW>
-20.4597

>  <SCORE.INTER.norm>
-0.723884

>  <SCORE.INTRA>
-6.90466

>  <SCORE.INTRA.DIHEDRAL>
-13.2157

>  <SCORE.INTRA.DIHEDRAL.0>
46.2143

>  <SCORE.INTRA.POLAR>
-0.320668

>  <SCORE.INTRA.POLAR.0>
-1.76436

>  <SCORE.INTRA.REPUL>
0.00208651

>  <SCORE.INTRA.REPUL.0>
0

>  <SCORE.INTRA.SOLV>
2.62811

>  <SCORE.INTRA.SOLV.lig_0>
-148.643

>  <SCORE.INTRA.VDW>
-0.531034

>  <SCORE.INTRA.VDW.0>
-4.83512

>  <SCORE.INTRA.norm>
-0.164397

>  <SCORE.RESTR>
0

>  <SCORE.RESTR.CAVITY>
0

>  <SCORE.RESTR.norm>
0

>  <SCORE.SYSTEM>
0

>  <SCORE.SYSTEM.CONST>
0

>  <SCORE.SYSTEM.DIHEDRAL>
0

>  <SCORE.SYSTEM.SOLV>
0

>  <SCORE.SYSTEM.norm>
0

>  <SCORE.heavy>
42

>  <SCORE.norm>
-0.88828

>  <RMSD>
5.867

$$$$
1j7t
 OpenBabel11021811393D
libRbt.so/2013.1/901 2013/11/27
 42 45  0  0  0  0  0  0  0  0999 V2000
   29.2877    5.4676   52.4101 C   0  0  2  0  0  0  0  0  0  0  0  0
   29.1144    6.5282   51.4367 O   0  0  0  0  0  0  0  0  0  0  0  0
   29.9378    4.2690   51.6611 C   0  0  2  0  0  0  0  0  0  0  0  0
   31.1861    4.6072   50.9187 N   0  3  0  0  0  0  0  0  0  0  0  0
   28.9109    3.7264   50.6433 C   0  0  1  0  0  0  0  0  0  0  0  0
   29.4369    2.6314   49.9478 O   0  0  0  0  0  0  0  0  0  0  0  0
   27.6018    3.3338   51.3685 C   0  0  2  0  0  0  0  0  0  0  0  0
   26.6546    2.8139   50.4567 O   0  0  0  0  0  0  0  0  0  0  0  0
   27.0132    4.5460   52.0586 C   0  0  2  0  0  0  0  0  0  0  0  0
   27.9786    5.0967   52.9455 O   0  0  0  0  0  0  0  0  0  0  0  0
   25.7921    4.2204   52.8892 C   0  0  0  0  0  0  0  0  0  0  0  0
   25.3881    5.3719   53.6048 O   0  0  0  0  0  0  0  0  0  0  0  0
   32.0757    9.4909   50.8883 C   0  0  2  0  0  0  0  0  0  0  0  0
   32.8311   10.7371   51.0218 N   0  3  0  0  0  0  0  0  0  0  0  0
   30.6376    9.7932   50.3509 C   0  0  0  0  0  0  0  0  0  0  0  0
   29.8228    8.4892   50.2553 C   0  0  2  0  0  0  0  0  0  0  0  0
   28.4540    8.7609   49.8040 N   0  3  0  0  0  0  0  0  0  0  0  0
   29.7800    7.7825   51.6244 C   0  0  2  0  0  0  0  0  0  0  0  0
   31.1844    7.4967   52.1912 C   0  0  2  0  0  0  0  0  0  0  0  0
   30.9802    6.9868   53.5230 O   0  0  0  0  0  0  0  0  0  0  0  0
   32.0205    8.8006   52.2419 C   0  0  1  0  0  0  0  0  0  0  0  0
   33.3215    8.4976   52.6643 O   0  0  0  0  0  0  0  0  0  0  0  0
   30.8096    7.8202   54.6664 C   0  0  1  0  0  0  0  0  0  0  0  0
   29.2778    7.8993   55.0030 C   0  0  2  0  0  0  0  0  0  0  0  0
   28.5906    8.9322   54.3175 O   0  0  0  0  0  0  0  0  0  0  0  0
   29.3927    8.1001   56.5076 C   0  0  2  0  0  0  0  0  0  0  0  0
   29.9485    9.4123   56.8224 O   0  0  0  0  0  0  0  0  0  0  0  0
   30.4253    7.0551   56.9062 C   0  0  2  0  0  0  0  0  0  0  0  0
   31.3894    7.2073   55.8502 O   0  0  0  0  0  0  0  0  0  0  0  0
   29.8760    5.5950   57.0162 C   0  0  0  0  0  0  0  0  0  0  0  0
   29.1511    5.3927   58.2358 O   0  0  0  0  0  0  0  0  0  0  0  0
   29.2336   10.1171   57.8342 C   0  0  2  0  0  0  0  0  0  0  0  0
   29.5101   11.6585   57.8780 C   0  0  2  0  0  0  0  0  0  0  0  0
   30.9551   11.9837   58.0773 N   0  3  0  0  0  0  0  0  0  0  0  0
   28.6249   12.2502   59.0252 C   0  0  1  0  0  0  0  0  0  0  0  0
   27.2126   12.0253   58.6480 O   0  0  0  0  0  0  0  0  0  0  0  0
   28.8943   11.5562   60.4170 C   0  0  2  0  0  0  0  0  0  0  0  0
   30.2509   11.8252   60.8069 O   0  0  0  0  0  0  0  0  0  0  0  0
   28.6270   10.0025   60.2536 C   0  0  1  0  0  0  0  0  0  0  0  0
   29.4975    9.5143   59.1779 O   0  0  0  0  0  0  0  0  0  0  0  0
   28.8655    9.1720   61.5352 C   0  0  0  0  0  0  0  0  0  0  0  0
   30.3003    8.8638   61.7821 N   0  3  0  0  0  0  0  0  0  0  0  0
  1  2  1  6  0  0  0
  1  3  1  0  0  0  0
  1 10  1  0  0  0  0
  3  4  1  6  0  0  0
  3  5  1  0  0  0  0
  5  6  1  1  0  0  0
  5  7  1  0  0  0  0
  7  8  1  6  0  0  0
  7  9  1  0  0  0  0
  9 10  1  0  0  0  0
  9 11  1  1  0  0  0
 11 12  1  0  0  0  0
 13 14  1  1  0  0  0
 13 15  1  0  0  0  0
 13 21  1  0  0  0  0
 15 16  1  0  0  0  0
 16 17  1  1  0  0  0
 16 18  1  0  0  0  0
 18  2  1  6  0  0  0
 18 19  1  0  0  0  0
 19 20  1  1  0  0  0
 19 21  1  0  0  0  0
 21 22  1  6  0  0  0
 23 20  1  6  0  0  0
 23 24  1  0  0  0  0
 23 29  1  0  0  0  0
 24 25  1  6  0  0  0
 24 26  1  0  0  0  0
 26 27  1  6  0  0  0
 26 28  1  0  0  0  0
 28 29  1  0  0  0  0
 28 30  1  6  0  0  0
 30 31  1  0  0  0  0
 32 27  1  6  0  0  0
 32 33  1  0  0  0  0
 32 40  1  0  0  0  0
 33 34  1  1  0  0  0
 33 35  1  0  0  0  0
 35 36  1  6  0  0  0
 35 37  1  0  0  0  0
 37 38  1  6  0  0  0
 37 39  1  0  0  0  0
 39 40  1  0  0  0  0
 39 41  1  1  0  0  0
 41 42  1  0  0  0  0
M  CHG  5   4   1  14   1  17   1  34   1  42   1
M  END
>  <CHROM.1>
-118.74109108,160.38671604,65.58555529,178.40061412,178.76769933,174.04378886
-58.68532408,-37.97141742,-72.41033880,-84.63503973,100.42212534,122.49363121
-59.46440294,133.11068142,-161.68757134,-77.74955484,-176.76402102,19.58565550
-52.30262822,170.56505011,-80.22252846,-27.63627532,29.53548037,7.75832211
54.67273855,1.64589492,-0.95567815,-2.05638946

>  <Name>
1j7t

>  <RI>
0

>  <Rbt.Current_Directory>
/home/itssahil/PROJECTS/Mol_Feturizer/New_Systems/rnas/1j7t

>  <Rbt.Executable>
rbdock ($Id: //depot/dev/client3/rdock/2013.1/src/exe/rbdock.cxx#4 $)

>  <Rbt.Library>
libRbt.so (2013.1, Build901 2013/11/27)

>  <Rbt.Parameter_File>
/export/apps/rDock/src/rDock_2013.1_src/data/scripts/dock_solv.prm

>  <Rbt.Receptor>
prm/pocket_docking_6.prm

>  <SCORE>
-46.7086

>  <SCORE.INTER>
-46.8226

>  <SCORE.INTER.CONST>
1

>  <SCORE.INTER.POLAR>
-8.17778

>  <SCORE.INTER.ROT>
9

>  <SCORE.INTER.SOLV>
31.9792

>  <SCORE.INTER.VDW>
-24.2155

>  <SCORE.INTER.norm>
-1.11482

>  <SCORE.INTRA>
0.00205172

>  <SCORE.INTRA.DIHEDRAL>
-4.44345

>  <SCORE.INTRA.DIHEDRAL.0>
46.2143

>  <SCORE.INTRA.POLAR>
0.693086

>  <SCORE.INTRA.POLAR.0>
-1.76436

>  <SCORE.INTRA.REPUL>
0.0117752

>  <SCORE.INTRA.REPUL.0>
0

>  <SCORE.INTRA.SOLV>
-3.12152

>  <SCORE.INTRA.SOLV.lig_0>
-148.643

>  <SCORE.INTRA.VDW>
1.36917

>  <SCORE.INTRA.VDW.0>
-4.83512

>  <SCORE.INTRA.norm>
4.88505e-05

>  <SCORE.RESTR>
0.111879

>  <SCORE.RESTR.CAVITY>
0.111879

>  <SCORE.RESTR.norm>
0.00266378

>  <SCORE.SYSTEM>
0

>  <SCORE.SYSTEM.CONST>
0

>  <SCORE.SYSTEM.DIHEDRAL>
0

>  <SCORE.SYSTEM.SOLV>
0

>  <SCORE.SYSTEM.norm>
0

>  <SCORE.heavy>
42

>  <SCORE.norm>
-1.11211

>  <RMSD>
5.879

$$$$
1j7t
 OpenBabel11021811393D
libRbt.so/2013.1/901 2013/11/27
 42 45  0  0  0  0  0  0  0  0999 V2000
   32.3377    6.2615   56.2936 C   0  0  2  0  0  0  0  0  0  0  0  0
   31.6179    5.7850   55.1286 O   0  0  0  0  0  0  0  0  0  0  0  0
   33.8503    6.0242   56.0181 C   0  0  2  0  0  0  0  0  0  0  0  0
   34.3433    6.6018   54.7348 N   0  3  0  0  0  0  0  0  0  0  0  0
   34.0968    4.5001   55.9799 C   0  0  1  0  0  0  0  0  0  0  0  0
   35.4499    4.2249   55.7503 O   0  0  0  0  0  0  0  0  0  0  0  0
   33.6258    3.8532   57.3040 C   0  0  2  0  0  0  0  0  0  0  0  0
   33.8625    2.4593   57.2984 O   0  0  0  0  0  0  0  0  0  0  0  0
   32.1460    4.1047   57.5010 C   0  0  2  0  0  0  0  0  0  0  0  0
   31.8984    5.5045   57.4649 O   0  0  0  0  0  0  0  0  0  0  0  0
   31.6318    3.6041   58.8322 C   0  0  0  0  0  0  0  0  0  0  0  0
   30.2196    3.6846   58.8525 O   0  0  0  0  0  0  0  0  0  0  0  0
   28.2018    7.0428   52.9847 C   0  0  2  0  0  0  0  0  0  0  0  0
   26.8337    7.4635   52.6800 N   0  3  0  0  0  0  0  0  0  0  0  0
   28.1957    5.5940   53.5756 C   0  0  0  0  0  0  0  0  0  0  0  0
   29.6292    5.1657   53.9433 C   0  0  2  0  0  0  0  0  0  0  0  0
   29.6358    3.8299   54.5488 N   0  3  0  0  0  0  0  0  0  0  0  0
   30.2552    6.1761   54.9246 C   0  0  2  0  0  0  0  0  0  0  0  0
   30.2495    7.6176   54.3794 C   0  0  2  0  0  0  0  0  0  0  0  0
   30.7136    8.4530   55.4574 O   0  0  0  0  0  0  0  0  0  0  0  0
   28.8147    8.0310   53.9643 C   0  0  1  0  0  0  0  0  0  0  0  0
   28.8528    9.3040   53.3802 O   0  0  0  0  0  0  0  0  0  0  0  0
   30.0940    8.4979   56.7401 C   0  0  1  0  0  0  0  0  0  0  0  0
   29.6484    9.9759   57.0283 C   0  0  2  0  0  0  0  0  0  0  0  0
   30.6517   10.7711   57.6366 O   0  0  0  0  0  0  0  0  0  0  0  0
   28.4486    9.6754   57.9157 C   0  0  2  0  0  0  0  0  0  0  0  0
   28.8684    9.1179   59.1973 O   0  0  0  0  0  0  0  0  0  0  0  0
   27.7321    8.5739   57.1471 C   0  0  2  0  0  0  0  0  0  0  0  0
   28.8436    7.7564   56.7419 O   0  0  0  0  0  0  0  0  0  0  0  0
   26.8728    9.0670   55.9371 C   0  0  0  0  0  0  0  0  0  0  0  0
   26.7971   10.4974   55.8898 O   0  0  0  0  0  0  0  0  0  0  0  0
   27.7912    8.8299   60.0851 C   0  0  2  0  0  0  0  0  0  0  0  0
   28.1237    9.0262   61.6034 C   0  0  2  0  0  0  0  0  0  0  0  0
   29.2791    8.1938   62.0570 N   0  3  0  0  0  0  0  0  0  0  0  0
   26.8226    8.6877   62.4048 C   0  0  1  0  0  0  0  0  0  0  0  0
   25.7947    9.6736   62.0061 O   0  0  0  0  0  0  0  0  0  0  0  0
   26.2809    7.2378   62.0955 C   0  0  2  0  0  0  0  0  0  0  0  0
   27.2582    6.2812   62.5365 O   0  0  0  0  0  0  0  0  0  0  0  0
   26.0170    7.1319   60.5363 C   0  0  1  0  0  0  0  0  0  0  0  0
   27.2768    7.4445   59.8517 O   0  0  0  0  0  0  0  0  0  0  0  0
   25.4953    5.7551   60.0658 C   0  0  0  0  0  0  0  0  0  0  0  0
   25.1805    5.7068   58.6121 N   0  3  0  0  0  0  0  0  0  0  0  0
  1  2  1  6  0  0  0
  1  3  1  0  0  0  0
  1 10  1  0  0  0  0
  3  4  1  6  0  0  0
  3  5  1  0  0  0  0
  5  6  1  1  0  0  0
  5  7  1  0  0  0  0
  7  8  1  6  0  0  0
  7  9  1  0  0  0  0
  9 10  1  0  0  0  0
  9 11  1  1  0  0  0
 11 12  1  0  0  0  0
 13 14  1  1  0  0  0
 13 15  1  0  0  0  0
 13 21  1  0  0  0  0
 15 16  1  0  0  0  0
 16 17  1  1  0  0  0
 16 18  1  0  0  0  0
 18  2  1  6  0  0  0
 18 19  1  0  0  0  0
 19 20  1  1  0  0  0
 19 21  1  0  0  0  0
 21 22  1  6  0  0  0
 23 20  1  6  0  0  0
 23 24  1  0  0  0  0
 23 29  1  0  0  0  0
 24 25  1  1  0  0  0
 24 26  1  0  0  0  0
 26 27  1  1  0  0  0
 26 28  1  0  0  0  0
 28 29  1  0  0  0  0
 28 30  1  6  0  0  0
 30 31  1  0  0  0  0
 32 27  1  6  0  0  0
 32 33  1  0  0  0  0
 32 40  1  0  0  0  0
 33 34  1  1  0  0  0
 33 35  1  0  0  0  0
 35 36  1  6  0  0  0
 35 37  1  0  0  0  0
 37 38  1  6  0  0  0
 37 39  1  0  0  0  0
 39 40  1  0  0  0  0
 39 41  1  1  0  0  0
 41 42  1  0  0  0  0
M  CHG  5   4   1  14   1  17   1  34   1  42   1
M  END
>  <CHROM.1>
-163.74842217,-160.42667725,-73.95095020,67.12324725,-58.81661489,-170.90690462
165.17017325,26.26855971,61.79273614,-56.71750925,-121.75843994,177.95266326
-58.00419907,179.20164576,-146.78741770,-7.25661112,75.78182079,-76.97414480
-68.57673446,178.74181244,176.63043651,54.89999945,29.52271361,6.96990824
57.31723131,-0.54491124,-0.64242373,1.80342886

>  <Name>
1j7t

>  <RI>
0

>  <Rbt.Current_Directory>
/home/itssahil/PROJECTS/Mol_Feturizer/New_Systems/rnas/1j7t

>  <Rbt.Executable>
rbdock ($Id: //depot/dev/client3/rdock/2013.1/src/exe/rbdock.cxx#4 $)

>  <Rbt.Library>
libRbt.so (2013.1, Build901 2013/11/27)

>  <Rbt.Parameter_File>
/export/apps/rDock/src/rDock_2013.1_src/data/scripts/dock_solv.prm

>  <Rbt.Receptor>
prm/pocket_docking_4.prm

>  <SCORE>
-40.9535

>  <SCORE.INTER>
-31.9073

>  <SCORE.INTER.CONST>
1

>  <SCORE.INTER.POLAR>
-5.8292

>  <SCORE.INTER.ROT>
9

>  <SCORE.INTER.SOLV>
21.2205

>  <SCORE.INTER.VDW>
-18.5144

>  <SCORE.INTER.norm>
-0.759697

>  <SCORE.INTRA>
-9.27534

>  <SCORE.INTRA.DIHEDRAL>
-19.9278

>  <SCORE.INTRA.DIHEDRAL.0>
46.2143

>  <SCORE.INTRA.POLAR>
0.852334

>  <SCORE.INTRA.POLAR.0>
-1.76436

>  <SCORE.INTRA.REPUL>
0

>  <SCORE.INTRA.REPUL.0>
0

>  <SCORE.INTRA.SOLV>
-3.99281

>  <SCORE.INTRA.SOLV.lig_0>
-148.643

>  <SCORE.INTRA.VDW>
-0.212966

>  <SCORE.INTRA.VDW.0>
-4.83512

>  <SCORE.INTRA.norm>
-0.220841

>  <SCORE.RESTR>
0.229048

>  <SCORE.RESTR.CAVITY>
0.229048

>  <SCORE.RESTR.norm>
0.00545352

>  <SCORE.SYSTEM>
0

>  <SCORE.SYSTEM.CONST>
0

>  <SCORE.SYSTEM.DIHEDRAL>
0

>  <SCORE.SYSTEM.SOLV>
0

>  <SCORE.SYSTEM.norm>
0

>  <SCORE.heavy>
42

>  <SCORE.norm>
-0.975084

>  <RMSD>
5.881

$$$$
1j7t
 OpenBabel11021811393D
libRbt.so/2013.1/901 2013/11/27
 42 45  0  0  0  0  0  0  0  0999 V2000
   31.8215    4.5928   52.0552 C   0  0  2  0  0  0  0  0  0  0  0  0
   30.5175    4.4185   51.4456 O   0  0  0  0  0  0  0  0  0  0  0  0
   32.8425    3.8293   51.1637 C   0  0  2  0  0  0  0  0  0  0  0  0
   32.8040    4.2026   49.7206 N   0  3  0  0  0  0  0  0  0  0  0  0
   32.5383    2.3192   51.2730 C   0  0  1  0  0  0  0  0  0  0  0  0
   33.4397    1.5772   50.5008 O   0  0  0  0  0  0  0  0  0  0  0  0
   32.5925    1.8729   52.7534 C   0  0  2  0  0  0  0  0  0  0  0  0
   32.3377    0.4873   52.8738 O   0  0  0  0  0  0  0  0  0  0  0  0
   31.5645    2.6386   53.5590 C   0  0  2  0  0  0  0  0  0  0  0  0
   31.7920    4.0339   53.4061 O   0  0  0  0  0  0  0  0  0  0  0  0
   31.6337    2.3443   55.0407 C   0  0  0  0  0  0  0  0  0  0  0  0
   32.9263    2.6564   55.5234 O   0  0  0  0  0  0  0  0  0  0  0  0
   27.0394    6.8156   51.5141 C   0  0  2  0  0  0  0  0  0  0  0  0
   25.8583    7.5310   51.9986 N   0  3  0  0  0  0  0  0  0  0  0  0
   26.8669    5.2785   51.7504 C   0  0  0  0  0  0  0  0  0  0  0  0
   28.1288    4.5262   51.2864 C   0  0  2  0  0  0  0  0  0  0  0  0
   28.0060    3.0887   51.5501 N   0  3  0  0  0  0  0  0  0  0  0  0
   29.3754    5.0749   52.0080 C   0  0  2  0  0  0  0  0  0  0  0  0
   29.5551    6.5933   51.8150 C   0  0  2  0  0  0  0  0  0  0  0  0
   30.6535    6.9756   52.6651 O   0  0  0  0  0  0  0  0  0  0  0  0
   28.2677    7.3461   52.2364 C   0  0  1  0  0  0  0  0  0  0  0  0
   28.4196    8.7107   51.9575 O   0  0  0  0  0  0  0  0  0  0  0  0
   30.7388    6.6264   54.0443 C   0  0  1  0  0  0  0  0  0  0  0  0
   31.0980    7.9161   54.8650 C   0  0  2  0  0  0  0  0  0  0  0  0
   32.4903    8.1555   54.9804 O   0  0  0  0  0  0  0  0  0  0  0  0
   30.4047    7.5479   56.1692 C   0  0  2  0  0  0  0  0  0  0  0  0
   31.0845    6.4394   56.8317 O   0  0  0  0  0  0  0  0  0  0  0  0
   29.0500    7.0401   55.6956 C   0  0  2  0  0  0  0  0  0  0  0  0
   29.4382    6.2394   54.5660 O   0  0  0  0  0  0  0  0  0  0  0  0
   28.0229    8.1576   55.3187 C   0  0  0  0  0  0  0  0  0  0  0  0
   28.5923    9.1191   54.4214 O   0  0  0  0  0  0  0  0  0  0  0  0
   30.7406    6.2871   58.2066 C   0  0  2  0  0  0  0  0  0  0  0  0
   31.9639    6.1629   59.1774 C   0  0  2  0  0  0  0  0  0  0  0  0
   32.8614    5.0175   58.8370 N   0  3  0  0  0  0  0  0  0  0  0  0
   31.3871    6.0295   60.6263 C   0  0  1  0  0  0  0  0  0  0  0  0
   30.6611    7.2830   60.9251 O   0  0  0  0  0  0  0  0  0  0  0  0
   30.3861    4.8176   60.7701 C   0  0  2  0  0  0  0  0  0  0  0  0
   31.1084    3.5979   60.5351 O   0  0  0  0  0  0  0  0  0  0  0  0
   29.2146    5.0181   59.7216 C   0  0  1  0  0  0  0  0  0  0  0  0
   29.8242    5.1190   58.3906 O   0  0  0  0  0  0  0  0  0  0  0  0
   28.1514    3.8962   59.7249 C   0  0  0  0  0  0  0  0  0  0  0  0
   26.9903    4.1787   58.8380 N   0  3  0  0  0  0  0  0  0  0  0  0
  1  2  1  6  0  0  0
  1  3  1  0  0  0  0
  1 10  1  0  0  0  0
  3  4  1  6  0  0  0
  3  5  1  0  0  0  0
  5  6  1  6  0  0  0
  5  7  1  0  0  0  0
  7  8  1  6  0  0  0
  7  9  1  0  0  0  0
  9 10  1  0  0  0  0
  9 11  1  1  0  0  0
 11 12  1  0  0  0  0
 13 14  1  1  0  0  0
 13 15  1  0  0  0  0
 13 21  1  0  0  0  0
 15 16  1  0  0  0  0
 16 17  1  1  0  0  0
 16 18  1  0  0  0  0
 18  2  1  6  0  0  0
 18 19  1  0  0  0  0
 19 20  1  1  0  0  0
 19 21  1  0  0  0  0
 21 22  1  6  0  0  0
 23 20  1  6  0  0  0
 23 24  1  0  0  0  0
 23 29  1  0  0  0  0
 24 25  1  1  0  0  0
 24 26  1  0  0  0  0
 26 27  1  6  0  0  0
 26 28  1  0  0  0  0
 28 29  1  0  0  0  0
 28 30  1  6  0  0  0
 30 31  1  0  0  0  0
 32 27  1  6  0  0  0
 32 33  1  0  0  0  0
 32 40  1  0  0  0  0
 33 34  1  6  0  0  0
 33 35  1  0  0  0  0
 35 36  1  6  0  0  0
 35 37  1  0  0  0  0
 37 38  1  6  0  0  0
 37 39  1  0  0  0  0
 39 40  1  0  0  0  0
 39 41  1  6  0  0  0
 41 42  1  0  0  0  0
M  CHG  5   4   1  14   1  17   1  34   1  42   1
M  END
>  <CHROM.1>
-176.63715872,-171.32966609,-75.93897104,57.42688250,173.47621517,58.14229201
-64.16870672,14.23837366,-68.01779027,-50.66140676,-131.62708622,75.24657955
90.75880759,163.13693441,-130.16462436,50.32886179,177.83956829,40.64551220
178.99382275,148.52684439,173.84367476,59.78685814,30.32349310,5.26048429
54.78150459,-1.53995782,-0.84662662,1.44695623

>  <Name>
1j7t

>  <RI>
0

>  <Rbt.Current_Directory>
/home/itssahil/PROJECTS/Mol_Feturizer/New_Systems/rnas/1j7t

>  <Rbt.Executable>
rbdock ($Id: //depot/dev/client3/rdock/2013.1/src/exe/rbdock.cxx#4 $)

>  <Rbt.Library>
libRbt.so (2013.1, Build901 2013/11/27)

>  <Rbt.Parameter_File>
/export/apps/rDock/src/rDock_2013.1_src/data/scripts/dock_solv.prm

>  <Rbt.Receptor>
prm/pocket_docking_6.prm

>  <SCORE>
-37.11

>  <SCORE.INTER>
-33.6566

>  <SCORE.INTER.CONST>
1

>  <SCORE.INTER.POLAR>
-6.56802

>  <SCORE.INTER.ROT>
9

>  <SCORE.INTER.SOLV>
23.0798

>  <SCORE.INTER.VDW>
-17.8376

>  <SCORE.INTER.norm>
-0.801348

>  <SCORE.INTRA>
-3.45335

>  <SCORE.INTRA.DIHEDRAL>
-16.4563

>  <SCORE.INTRA.DIHEDRAL.0>
46.2143

>  <SCORE.INTRA.POLAR>
0.886231

>  <SCORE.INTRA.POLAR.0>
-1.76436

>  <SCORE.INTRA.REPUL>
0.15165

>  <SCORE.INTRA.REPUL.0>
0

>  <SCORE.INTRA.SOLV>
-2.79263

>  <SCORE.INTRA.SOLV.lig_0>
-148.643

>  <SCORE.INTRA.VDW>
2.39967

>  <SCORE.INTRA.VDW.0>
-4.83512

>  <SCORE.INTRA.norm>
-0.0822227

>  <SCORE.RESTR>
0

>  <SCORE.RESTR.CAVITY>
0

>  <SCORE.RESTR.norm>
0

>  <SCORE.SYSTEM>
0

>  <SCORE.SYSTEM.CONST>
0

>  <SCORE.SYSTEM.DIHEDRAL>
0

>  <SCORE.SYSTEM.SOLV>
0

>  <SCORE.SYSTEM.norm>
0

>  <SCORE.heavy>
42

>  <SCORE.norm>
-0.883571

>  <RMSD>
5.894

$$$$
1j7t
 OpenBabel11021811393D
libRbt.so/2013.1/901 2013/11/27
 42 45  0  0  0  0  0  0  0  0999 V2000
   32.8195    5.8286   56.5445 C   0  0  2  0  0  0  0  0  0  0  0  0
   32.0032    5.3336   55.4531 O   0  0  0  0  0  0  0  0  0  0  0  0
   33.0896    4.6226   57.4894 C   0  0  2  0  0  0  0  0  0  0  0  0
   33.6616    3.4230   56.8132 N   0  3  0  0  0  0  0  0  0  0  0  0
   31.7487    4.2107   58.1355 C   0  0  1  0  0  0  0  0  0  0  0  0
   31.9334    3.1353   59.0123 O   0  0  0  0  0  0  0  0  0  0  0  0
   31.1240    5.4169   58.8760 C   0  0  2  0  0  0  0  0  0  0  0  0
   29.9046    5.0552   59.4936 O   0  0  0  0  0  0  0  0  0  0  0  0
   30.8700    6.5447   57.8985 C   0  0  2  0  0  0  0  0  0  0  0  0
   32.0866    6.8826   57.2446 O   0  0  0  0  0  0  0  0  0  0  0  0
   30.3677    7.8055   58.5657 C   0  0  0  0  0  0  0  0  0  0  0  0
   31.4398    8.4468   59.2294 O   0  0  0  0  0  0  0  0  0  0  0  0
   32.7676    8.4707   52.7287 C   0  0  2  0  0  0  0  0  0  0  0  0
   32.7941    9.2623   51.4982 N   0  3  0  0  0  0  0  0  0  0  0  0
   33.5236    7.1183   52.5098 C   0  0  0  0  0  0  0  0  0  0  0  0
   33.4561    6.2607   53.7880 C   0  0  2  0  0  0  0  0  0  0  0  0
   34.1140    4.9660   53.5832 N   0  3  0  0  0  0  0  0  0  0  0  0
   31.9893    6.0304   54.2018 C   0  0  2  0  0  0  0  0  0  0  0  0
   31.2121    7.3467   54.3977 C   0  0  2  0  0  0  0  0  0  0  0  0
   29.8401    6.9693   54.6228 O   0  0  0  0  0  0  0  0  0  0  0  0
   31.3207    8.2304   53.1292 C   0  0  1  0  0  0  0  0  0  0  0  0
   30.6929    9.4598   53.3690 O   0  0  0  0  0  0  0  0  0  0  0  0
   29.0782    7.4072   55.7448 C   0  0  1  0  0  0  0  0  0  0  0  0
   27.8622    8.2533   55.2237 C   0  0  2  0  0  0  0  0  0  0  0  0
   28.1500    9.6308   55.0546 O   0  0  0  0  0  0  0  0  0  0  0  0
   26.8798    7.9404   56.3436 C   0  0  2  0  0  0  0  0  0  0  0  0
   27.2985    8.5568   57.5984 O   0  0  0  0  0  0  0  0  0  0  0  0
   27.0218    6.4330   56.5013 C   0  0  2  0  0  0  0  0  0  0  0  0
   28.4496    6.2833   56.4195 O   0  0  0  0  0  0  0  0  0  0  0  0
   26.2636    5.5844   55.4286 C   0  0  0  0  0  0  0  0  0  0  0  0
   24.8432    5.7421   55.5362 O   0  0  0  0  0  0  0  0  0  0  0  0
   26.2356    8.7656   58.5248 C   0  0  2  0  0  0  0  0  0  0  0  0
   25.4346   10.0953   58.3133 C   0  0  2  0  0  0  0  0  0  0  0  0
   26.3001   11.3116   58.3823 N   0  3  0  0  0  0  0  0  0  0  0  0
   24.3087   10.1294   59.4000 C   0  0  1  0  0  0  0  0  0  0  0  0
   23.4133    8.9817   59.1381 O   0  0  0  0  0  0  0  0  0  0  0  0
   24.8785   10.0032   60.8665 C   0  0  2  0  0  0  0  0  0  0  0  0
   25.7022   11.1492   61.1368 O   0  0  0  0  0  0  0  0  0  0  0  0
   25.7020    8.6523   60.9613 C   0  0  1  0  0  0  0  0  0  0  0  0
   26.7448    8.6961   59.9299 O   0  0  0  0  0  0  0  0  0  0  0  0
   26.3445    8.3880   62.3420 C   0  0  0  0  0  0  0  0  0  0  0  0
   25.3862    7.8565   63.3488 N   0  3  0  0  0  0  0  0  0  0  0  0
  1  2  1  6  0  0  0
  1  3  1  0  0  0  0
  1 10  1  0  0  0  0
  3  4  1  6  0  0  0
  3  5  1  0  0  0  0
  5  6  1  1  0  0  0
  5  7  1  0  0  0  0
  7  8  1  6  0  0  0
  7  9  1  0  0  0  0
  9 10  1  0  0  0  0
  9 11  1  1  0  0  0
 11 12  1  0  0  0  0
 13 14  1  6  0  0  0
 13 15  1  0  0  0  0
 13 21  1  0  0  0  0
 15 16  1  0  0  0  0
 16 17  1  6  0  0  0
 16 18  1  0  0  0  0
 18  2  1  1  0  0  0
 18 19  1  0  0  0  0
 19 20  1  6  0  0  0
 19 21  1  0  0  0  0
 21 22  1  1  0  0  0
 23 20  1  6  0  0  0
 23 24  1  0  0  0  0
 23 29  1  0  0  0  0
 24 25  1  1  0  0  0
 24 26  1  0  0  0  0
 26 27  1  1  0  0  0
 26 28  1  0  0  0  0
 28 29  1  0  0  0  0
 28 30  1  6  0  0  0
 30 31  1  0  0  0  0
 32 27  1  6  0  0  0
 32 33  1  0  0  0  0
 32 40  1  0  0  0  0
 33 34  1  1  0  0  0
 33 35  1  0  0  0  0
 35 36  1  6  0  0  0
 35 37  1  0  0  0  0
 37 38  1  6  0  0  0
 37 39  1  0  0  0  0
 39 40  1  0  0  0  0
 39 41  1  1  0  0  0
 41 42  1  0  0  0  0
M  CHG  5   4   1  14   1  17   1  34   1  42   1
M  END
>  <CHROM.1>
-157.13648500,49.96771113,49.94189949,-59.96115129,58.91210446,75.11147827
-60.27812974,175.37887594,-128.19513674,126.74773986,117.81345860,-170.75440800
173.07962991,156.71521857,-84.87049024,-65.52561248,-68.20381752,153.83326479
179.12986388,-173.37148725,79.31681114,71.78290455,29.25225394,7.39739033
57.04788474,-0.40156035,-0.60126456,2.01327663

>  <Name>
1j7t

>  <RI>
0

>  <Rbt.Current_Directory>
/home/itssahil/PROJECTS/Mol_Feturizer/New_Systems/rnas/1j7t

>  <Rbt.Executable>
rbdock ($Id: //depot/dev/client3/rdock/2013.1/src/exe/rbdock.cxx#4 $)

>  <Rbt.Library>
libRbt.so (2013.1, Build901 2013/11/27)

>  <Rbt.Parameter_File>
/export/apps/rDock/src/rDock_2013.1_src/data/scripts/dock_solv.prm

>  <Rbt.Receptor>
prm/pocket_docking_8.prm

>  <SCORE>
-50.2566

>  <SCORE.INTER>
-41.1525

>  <SCORE.INTER.CONST>
1

>  <SCORE.INTER.POLAR>
-7.16033

>  <SCORE.INTER.ROT>
9

>  <SCORE.INTER.SOLV>
20.7123

>  <SCORE.INTER.VDW>
-20.0713

>  <SCORE.INTER.norm>
-0.979822

>  <SCORE.INTRA>
-9.10408

>  <SCORE.INTRA.DIHEDRAL>
-15.1793

>  <SCORE.INTRA.DIHEDRAL.0>
46.2143

>  <SCORE.INTRA.POLAR>
0.0417667

>  <SCORE.INTRA.POLAR.0>
-1.76436

>  <SCORE.INTRA.REPUL>
0.0153381

>  <SCORE.INTRA.REPUL.0>
0

>  <SCORE.INTRA.SOLV>
-1.88817

>  <SCORE.INTRA.SOLV.lig_0>
-148.643

>  <SCORE.INTRA.VDW>
-0.789065

>  <SCORE.INTRA.VDW.0>
-4.83512

>  <SCORE.INTRA.norm>
-0.216764

>  <SCORE.RESTR>
0

>  <SCORE.RESTR.CAVITY>
0

>  <SCORE.RESTR.norm>
0

>  <SCORE.SYSTEM>
0

>  <SCORE.SYSTEM.CONST>
0

>  <SCORE.SYSTEM.DIHEDRAL>
0

>  <SCORE.SYSTEM.SOLV>
0

>  <SCORE.SYSTEM.norm>
0

>  <SCORE.heavy>
42

>  <SCORE.norm>
-1.19659

>  <RMSD>
5.894

$$$$
1j7t
 OpenBabel11021811393D
libRbt.so/2013.1/901 2013/11/27
 42 45  0  0  0  0  0  0  0  0999 V2000
   33.4583    4.7319   54.8502 C   0  0  2  0  0  0  0  0  0  0  0  0
   33.6117    5.0070   53.4349 O   0  0  0  0  0  0  0  0  0  0  0  0
   34.7477    3.9923   55.3089 C   0  0  2  0  0  0  0  0  0  0  0  0
   36.0179    4.6972   54.9726 N   0  3  0  0  0  0  0  0  0  0  0  0
   34.7754    2.6085   54.6239 C   0  0  1  0  0  0  0  0  0  0  0  0
   35.9105    1.8878   55.0135 O   0  0  0  0  0  0  0  0  0  0  0  0
   33.4871    1.8223   54.9640 C   0  0  2  0  0  0  0  0  0  0  0  0
   33.5020    0.5424   54.3633 O   0  0  0  0  0  0  0  0  0  0  0  0
   32.2748    2.5860   54.4751 C   0  0  2  0  0  0  0  0  0  0  0  0
   32.2793    3.8890   55.0444 O   0  0  0  0  0  0  0  0  0  0  0  0
   30.9669    1.9396   54.8733 C   0  0  0  0  0  0  0  0  0  0  0  0
   29.8907    2.6796   54.3298 O   0  0  0  0  0  0  0  0  0  0  0  0
   33.0049    8.9817   52.1382 C   0  0  2  0  0  0  0  0  0  0  0  0
   32.3748   10.1721   51.5662 N   0  3  0  0  0  0  0  0  0  0  0  0
   33.1465    7.8738   51.0423 C   0  0  0  0  0  0  0  0  0  0  0  0
   33.7647    6.6013   51.6522 C   0  0  2  0  0  0  0  0  0  0  0  0
   33.8553    5.5335   50.6509 N   0  3  0  0  0  0  0  0  0  0  0  0
   32.9199    6.1141   52.8457 C   0  0  2  0  0  0  0  0  0  0  0  0
   32.7406    7.1954   53.9292 C   0  0  2  0  0  0  0  0  0  0  0  0
   31.8124    6.6500   54.8865 O   0  0  0  0  0  0  0  0  0  0  0  0
   32.1638    8.4919   53.3063 C   0  0  1  0  0  0  0  0  0  0  0  0
   32.1052    9.4888   54.2891 O   0  0  0  0  0  0  0  0  0  0  0  0
   30.4061    6.8754   54.8344 C   0  0  1  0  0  0  0  0  0  0  0  0
   29.7442    6.1943   56.0851 C   0  0  2  0  0  0  0  0  0  0  0  0
   29.3958    4.8353   55.8831 O   0  0  0  0  0  0  0  0  0  0  0  0
   28.5610    7.1377   56.2496 C   0  0  2  0  0  0  0  0  0  0  0  0
   27.6112    6.9870   55.1519 O   0  0  0  0  0  0  0  0  0  0  0  0
   29.2064    8.5098   56.1147 C   0  0  2  0  0  0  0  0  0  0  0  0
   30.0967    8.2851   55.0081 O   0  0  0  0  0  0  0  0  0  0  0  0
   29.9495    9.0165   57.3941 C   0  0  0  0  0  0  0  0  0  0  0  0
   30.4094   10.3651   57.2397 O   0  0  0  0  0  0  0  0  0  0  0  0
   26.7920    5.8247   55.2496 C   0  0  2  0  0  0  0  0  0  0  0  0
   25.5324    5.8314   54.3180 C   0  0  2  0  0  0  0  0  0  0  0  0
   24.6359    7.0019   54.5621 N   0  3  0  0  0  0  0  0  0  0  0  0
   24.7838    4.4766   54.5502 C   0  0  1  0  0  0  0  0  0  0  0  0
   25.6951    3.3941   54.1195 O   0  0  0  0  0  0  0  0  0  0  0  0
   24.4042    4.2465   56.0649 C   0  0  2  0  0  0  0  0  0  0  0  0
   23.4745    5.2672   56.4630 O   0  0  0  0  0  0  0  0  0  0  0  0
   25.7368    4.2992   56.9212 C   0  0  1  0  0  0  0  0  0  0  0  0
   26.3747    5.5963   56.6681 O   0  0  0  0  0  0  0  0  0  0  0  0
   25.5312    4.1065   58.4409 C   0  0  0  0  0  0  0  0  0  0  0  0
   26.8024    4.1060   59.2147 N   0  3  0  0  0  0  0  0  0  0  0  0
  1  2  1  6  0  0  0
  1  3  1  0  0  0  0
  1 10  1  0  0  0  0
  3  4  1  6  0  0  0
  3  5  1  0  0  0  0
  5  6  1  1  0  0  0
  5  7  1  0  0  0  0
  7  8  1  6  0  0  0
  7  9  1  0  0  0  0
  9 10  1  0  0  0  0
  9 11  1  1  0  0  0
 11 12  1  0  0  0  0
 13 14  1  6  0  0  0
 13 15  1  0  0  0  0
 13 21  1  0  0  0  0
 15 16  1  0  0  0  0
 16 17  1  6  0  0  0
 16 18  1  0  0  0  0
 18  2  1  1  0  0  0
 18 19  1  0  0  0  0
 19 20  1  1  0  0  0
 19 21  1  0  0  0  0
 21 22  1  1  0  0  0
 23 20  1  1  0  0  0
 23 24  1  0  0  0  0
 23 29  1  0  0  0  0
 24 25  1  6  0  0  0
 24 26  1  0  0  0  0
 26 27  1  6  0  0  0
 26 28  1  0  0  0  0
 28 29  1  0  0  0  0
 28 30  1  1  0  0  0
 30 31  1  0  0  0  0
 32 27  1  1  0  0  0
 32 33  1  0  0  0  0
 32 40  1  0  0  0  0
 33 34  1  1  0  0  0
 33 35  1  0  0  0  0
 35 36  1  1  0  0  0
 35 37  1  0  0  0  0
 37 38  1  1  0  0  0
 37 39  1  0  0  0  0
 39 40  1  0  0  0  0
 39 41  1  1  0  0  0
 41 42  1  0  0  0  0
M  CHG  5   4   1  14   1  17   1  34   1  42   1
M  END
>  <CHROM.1>
-153.77336369,151.18004563,172.54020380,49.40525086,177.07263437,-177.43500143
-176.39391297,-167.00480654,-33.55145955,-93.40016787,-176.69080905,176.44167769
63.18219625,76.57434037,164.58669661,-173.95212651,54.73236585,48.71034479
-178.01428633,164.39652400,177.69586009,-66.80135344,30.32302908,5.60825072
54.84751299,-0.03016656,-0.30762702,2.92601406

>  <Name>
1j7t

>  <RI>
0

>  <Rbt.Current_Directory>
/home/itssahil/PROJECTS/Mol_Feturizer/New_Systems/rnas/1j7t

>  <Rbt.Executable>
rbdock ($Id: //depot/dev/client3/rdock/2013.1/src/exe/rbdock.cxx#4 $)

>  <Rbt.Library>
libRbt.so (2013.1, Build901 2013/11/27)

>  <Rbt.Parameter_File>
/export/apps/rDock/src/rDock_2013.1_src/data/scripts/dock_solv.prm

>  <Rbt.Receptor>
prm/pocket_docking_5.prm

>  <SCORE>
-40.5997

>  <SCORE.INTER>
-26.3383

>  <SCORE.INTER.CONST>
1

>  <SCORE.INTER.POLAR>
-6.08772

>  <SCORE.INTER.ROT>
9

>  <SCORE.INTER.SOLV>
22.9815

>  <SCORE.INTER.VDW>
-14.527

>  <SCORE.INTER.norm>
-0.627102

>  <SCORE.INTRA>
-14.545

>  <SCORE.INTRA.DIHEDRAL>
-27.972

>  <SCORE.INTRA.DIHEDRAL.0>
46.2143

>  <SCORE.INTRA.POLAR>
-0.738879

>  <SCORE.INTRA.POLAR.0>
-1.76436

>  <SCORE.INTRA.REPUL>
0.0153001

>  <SCORE.INTRA.REPUL.0>
0

>  <SCORE.INTRA.SOLV>
-5.04243

>  <SCORE.INTRA.SOLV.lig_0>
-148.643

>  <SCORE.INTRA.VDW>
4.39786

>  <SCORE.INTRA.VDW.0>
-4.83512

>  <SCORE.INTRA.norm>
-0.34631

>  <SCORE.RESTR>
0.283556

>  <SCORE.RESTR.CAVITY>
0.283556

>  <SCORE.RESTR.norm>
0.00675133

>  <SCORE.SYSTEM>
0

>  <SCORE.SYSTEM.CONST>
0

>  <SCORE.SYSTEM.DIHEDRAL>
0

>  <SCORE.SYSTEM.SOLV>
0

>  <SCORE.SYSTEM.norm>
0

>  <SCORE.heavy>
42

>  <SCORE.norm>
-0.966661

>  <RMSD>
5.908

$$$$
1j7t
 OpenBabel11021811393D
libRbt.so/2013.1/901 2013/11/27
 42 45  0  0  0  0  0  0  0  0999 V2000
   31.7906   11.1783   51.7492 C   0  0  2  0  0  0  0  0  0  0  0  0
   30.5171   10.7762   51.1843 O   0  0  0  0  0  0  0  0  0  0  0  0
   32.4616   12.1304   50.7180 C   0  0  2  0  0  0  0  0  0  0  0  0
   31.6102   13.2773   50.2898 N   0  3  0  0  0  0  0  0  0  0  0  0
   32.8139   11.3040   49.4619 C   0  0  1  0  0  0  0  0  0  0  0  0
   33.4379   12.1085   48.5012 O   0  0  0  0  0  0  0  0  0  0  0  0
   33.7218   10.1124   49.8482 C   0  0  2  0  0  0  0  0  0  0  0  0
   34.0741    9.3542   48.7080 O   0  0  0  0  0  0  0  0  0  0  0  0
   33.0035    9.2183   50.8365 C   0  0  2  0  0  0  0  0  0  0  0  0
   32.6104    9.9871   51.9662 O   0  0  0  0  0  0  0  0  0  0  0  0
   33.8694    8.0917   51.3544 C   0  0  0  0  0  0  0  0  0  0  0  0
   33.9542    7.0741   50.3754 O   0  0  0  0  0  0  0  0  0  0  0  0
   28.5236    7.1322   50.4129 C   0  0  2  0  0  0  0  0  0  0  0  0
   28.2574    5.7673   49.9573 N   0  3  0  0  0  0  0  0  0  0  0  0
   28.8655    8.0462   49.1897 C   0  0  0  0  0  0  0  0  0  0  0  0
   29.1942    9.4727   49.6698 C   0  0  2  0  0  0  0  0  0  0  0  0
   29.5695   10.3300   48.5405 N   0  3  0  0  0  0  0  0  0  0  0  0
   30.3455    9.4414   50.6940 C   0  0  2  0  0  0  0  0  0  0  0  0
   30.0471    8.5262   51.8976 C   0  0  2  0  0  0  0  0  0  0  0  0
   31.2605    8.4792   52.6727 O   0  0  0  0  0  0  0  0  0  0  0  0
   29.6691    7.1038   51.4122 C   0  0  1  0  0  0  0  0  0  0  0  0
   29.3056    6.3215   52.5163 O   0  0  0  0  0  0  0  0  0  0  0  0
   31.3605    8.9696   54.0072 C   0  0  1  0  0  0  0  0  0  0  0  0
   30.0432    8.5969   54.7765 C   0  0  2  0  0  0  0  0  0  0  0  0
   29.0094    9.5578   54.6464 O   0  0  0  0  0  0  0  0  0  0  0  0
   30.6308    8.4788   56.1758 C   0  0  2  0  0  0  0  0  0  0  0  0
   31.0458    9.7824   56.6839 O   0  0  0  0  0  0  0  0  0  0  0  0
   31.8889    7.6544   55.9413 C   0  0  2  0  0  0  0  0  0  0  0  0
   32.3983    8.2679   54.7447 O   0  0  0  0  0  0  0  0  0  0  0  0
   31.6481    6.1180   55.7765 C   0  0  0  0  0  0  0  0  0  0  0  0
   32.8461    5.4330   55.3896 O   0  0  0  0  0  0  0  0  0  0  0  0
   30.4680   10.1254   57.9409 C   0  0  2  0  0  0  0  0  0  0  0  0
   28.9117   10.3043   57.9190 C   0  0  2  0  0  0  0  0  0  0  0  0
   28.4608   11.3472   56.9481 N   0  3  0  0  0  0  0  0  0  0  0  0
   28.4699   10.6506   59.3800 C   0  0  1  0  0  0  0  0  0  0  0  0
   28.8084    9.4862   60.2268 O   0  0  0  0  0  0  0  0  0  0  0  0
   29.2086   11.9236   59.9502 C   0  0  2  0  0  0  0  0  0  0  0  0
   28.8322   13.0628   59.1595 O   0  0  0  0  0  0  0  0  0  0  0  0
   30.7697   11.6565   59.8901 C   0  0  1  0  0  0  0  0  0  0  0  0
   31.1139   11.3555   58.4957 O   0  0  0  0  0  0  0  0  0  0  0  0
   31.6411   12.8260   60.4018 C   0  0  0  0  0  0  0  0  0  0  0  0
   30.9725   13.6494   61.4456 N   0  3  0  0  0  0  0  0  0  0  0  0
  1  2  1  6  0  0  0
  1  3  1  0  0  0  0
  1 10  1  0  0  0  0
  3  4  1  6  0  0  0
  3  5  1  0  0  0  0
  5  6  1  6  0  0  0
  5  7  1  0  0  0  0
  7  8  1  6  0  0  0
  7  9  1  0  0  0  0
  9 10  1  0  0  0  0
  9 11  1  1  0  0  0
 11 12  1  0  0  0  0
 13 14  1  6  0  0  0
 13 15  1  0  0  0  0
 13 21  1  0  0  0  0
 15 16  1  0  0  0  0
 16 17  1  6  0  0  0
 16 18  1  0  0  0  0
 18  2  1  1  0  0  0
 18 19  1  0  0  0  0
 19 20  1  1  0  0  0
 19 21  1  0  0  0  0
 21 22  1  1  0  0  0
 23 20  1  6  0  0  0
 23 24  1  0  0  0  0
 23 29  1  0  0  0  0
 24 25  1  1  0  0  0
 24 26  1  0  0  0  0
 26 27  1  6  0  0  0
 26 28  1  0  0  0  0
 28 29  1  0  0  0  0
 28 30  1  6  0  0  0
 30 31  1  0  0  0  0
 32 27  1  6  0  0  0
 32 33  1  0  0  0  0
 32 40  1  0  0  0  0
 33 34  1  6  0  0  0
 33 35  1  0  0  0  0
 35 36  1  1  0  0  0
 35 37  1  0  0  0  0
 37 38  1  6  0  0  0
 37 39  1  0  0  0  0
 39 40  1  0  0  0  0
 39 41  1  6  0  0  0
 41 42  1  0  0  0  0
M  CHG  5   4   1  14   1  17   1  34   1  42   1
M  END
>  <CHROM.1>
107.58260897,-156.77183710,81.35037709,-77.91337431,65.97707875,-77.62495451
-58.62823748,60.66333865,-174.21016709,116.74996124,39.43068900,-57.51424647
66.28278777,125.00719046,-64.65657594,172.50543149,-44.98682841,-162.11722942
-163.13301928,-106.16013512,29.35958174,64.13175841,30.89201543,9.64551010
53.84051541,-1.11260514,1.20152521,0.92704055

>  <Name>
1j7t

>  <RI>
0

>  <Rbt.Current_Directory>
/home/itssahil/PROJECTS/Mol_Feturizer/New_Systems/rnas/1j7t

>  <Rbt.Executable>
rbdock ($Id: //depot/dev/client3/rdock/2013.1/src/exe/rbdock.cxx#4 $)

>  <Rbt.Library>
libRbt.so (2013.1, Build901 2013/11/27)

>  <Rbt.Parameter_File>
/export/apps/rDock/src/rDock_2013.1_src/data/scripts/dock_solv.prm

>  <Rbt.Receptor>
prm/blind_docking_80.prm

>  <SCORE>
18.1978

>  <SCORE.INTER>
-18.8531

>  <SCORE.INTER.CONST>
1

>  <SCORE.INTER.POLAR>
-5.06742

>  <SCORE.INTER.ROT>
9

>  <SCORE.INTER.SOLV>
41.1469

>  <SCORE.INTER.VDW>
-18.993

>  <SCORE.INTER.norm>
-0.448884

>  <SCORE.INTRA>
9.85352

>  <SCORE.INTRA.DIHEDRAL>
-4.53539

>  <SCORE.INTRA.DIHEDRAL.0>
46.2143

>  <SCORE.INTRA.POLAR>
0.537328

>  <SCORE.INTRA.POLAR.0>
-1.76436

>  <SCORE.INTRA.REPUL>
0.152578

>  <SCORE.INTRA.REPUL.0>
0

>  <SCORE.INTRA.SOLV>
2.00201

>  <SCORE.INTRA.SOLV.lig_0>
-148.643

>  <SCORE.INTRA.VDW>
8.53041

>  <SCORE.INTRA.VDW.0>
-4.83512

>  <SCORE.INTRA.norm>
0.234608

>  <SCORE.RESTR>
27.1974

>  <SCORE.RESTR.CAVITY>
27.1974

>  <SCORE.RESTR.norm>
0.647558

>  <SCORE.SYSTEM>
0

>  <SCORE.SYSTEM.CONST>
0

>  <SCORE.SYSTEM.DIHEDRAL>
0

>  <SCORE.SYSTEM.SOLV>
0

>  <SCORE.SYSTEM.norm>
0

>  <SCORE.heavy>
42

>  <SCORE.norm>
0.433282

>  <RMSD>
5.915

$$$$
1j7t
 OpenBabel11021811393D
libRbt.so/2013.1/901 2013/11/27
 42 45  0  0  0  0  0  0  0  0999 V2000
   29.7801    6.6867   54.2375 C   0  0  2  0  0  0  0  0  0  0  0  0
   28.7872    6.7348   53.1819 O   0  0  0  0  0  0  0  0  0  0  0  0
   30.4490    8.0902   54.2925 C   0  0  2  0  0  0  0  0  0  0  0  0
   29.4925    9.2265   54.4245 N   0  3  0  0  0  0  0  0  0  0  0  0
   31.2492    8.2908   52.9870 C   0  0  1  0  0  0  0  0  0  0  0  0
   31.8891    9.5358   52.9869 O   0  0  0  0  0  0  0  0  0  0  0  0
   32.2786    7.1487   52.8149 C   0  0  2  0  0  0  0  0  0  0  0  0
   33.0376    7.3251   51.6351 O   0  0  0  0  0  0  0  0  0  0  0  0
   31.5623    5.8166   52.7499 C   0  0  2  0  0  0  0  0  0  0  0  0
   30.7646    5.6546   53.9159 O   0  0  0  0  0  0  0  0  0  0  0  0
   32.5075    4.6372   52.6997 C   0  0  0  0  0  0  0  0  0  0  0  0
   31.7655    3.4455   52.5244 O   0  0  0  0  0  0  0  0  0  0  0  0
   25.2792    4.5676   52.2623 C   0  0  2  0  0  0  0  0  0  0  0  0
   24.3690    3.4549   51.9890 N   0  3  0  0  0  0  0  0  0  0  0  0
   26.4115    4.6086   51.1831 C   0  0  0  0  0  0  0  0  0  0  0  0
   27.3996    5.7487   51.4950 C   0  0  2  0  0  0  0  0  0  0  0  0
   28.4979    5.7681   50.5232 N   0  3  0  0  0  0  0  0  0  0  0  0
   27.9753    5.5853   52.9154 C   0  0  2  0  0  0  0  0  0  0  0  0
   26.8800    5.5142   53.9973 C   0  0  2  0  0  0  0  0  0  0  0  0
   27.5579    5.2067   55.2308 O   0  0  0  0  0  0  0  0  0  0  0  0
   25.8588    4.3990   53.6578 C   0  0  1  0  0  0  0  0  0  0  0  0
   24.8217    4.4216   54.5995 O   0  0  0  0  0  0  0  0  0  0  0  0
   27.5857    6.0851   56.3527 C   0  0  1  0  0  0  0  0  0  0  0  0
   26.2833    5.8556   57.1995 C   0  0  2  0  0  0  0  0  0  0  0  0
   25.1805    6.6429   56.7837 O   0  0  0  0  0  0  0  0  0  0  0  0
   26.8437    6.2165   58.5681 C   0  0  2  0  0  0  0  0  0  0  0  0
   27.1418    7.6424   58.6554 O   0  0  0  0  0  0  0  0  0  0  0  0
   28.1683    5.4668   58.5951 C   0  0  2  0  0  0  0  0  0  0  0  0
   28.6571    5.7284   57.2683 O   0  0  0  0  0  0  0  0  0  0  0  0
   28.0536    3.9383   58.9056 C   0  0  0  0  0  0  0  0  0  0  0  0
   29.3293    3.2882   58.8422 O   0  0  0  0  0  0  0  0  0  0  0  0
   27.2069    8.1405   59.9893 C   0  0  2  0  0  0  0  0  0  0  0  0
   25.9475    7.8278   60.8670 C   0  0  2  0  0  0  0  0  0  0  0  0
   24.6821    8.3619   60.2780 N   0  3  0  0  0  0  0  0  0  0  0  0
   26.2181    8.4284   62.2868 C   0  0  1  0  0  0  0  0  0  0  0  0
   27.3853    7.7143   62.8484 O   0  0  0  0  0  0  0  0  0  0  0  0
   26.5435    9.9721   62.2392 C   0  0  2  0  0  0  0  0  0  0  0  0
   25.3868   10.6679   61.7466 O   0  0  0  0  0  0  0  0  0  0  0  0
   27.8010   10.1825   61.2975 C   0  0  1  0  0  0  0  0  0  0  0  0
   27.4720    9.6129   59.9858 O   0  0  0  0  0  0  0  0  0  0  0  0
   28.2392   11.6554   61.1317 C   0  0  0  0  0  0  0  0  0  0  0  0
   28.7300   12.2725   62.3938 N   0  3  0  0  0  0  0  0  0  0  0  0
  1  2  1  6  0  0  0
  1  3  1  0  0  0  0
  1 10  1  0  0  0  0
  3  4  1  6  0  0  0
  3  5  1  0  0  0  0
  5  6  1  1  0  0  0
  5  7  1  0  0  0  0
  7  8  1  6  0  0  0
  7  9  1  0  0  0  0
  9 10  1  0  0  0  0
  9 11  1  1  0  0  0
 11 12  1  0  0  0  0
 13 14  1  6  0  0  0
 13 15  1  0  0  0  0
 13 21  1  0  0  0  0
 15 16  1  0  0  0  0
 16 17  1  6  0  0  0
 16 18  1  0  0  0  0
 18  2  1  1  0  0  0
 18 19  1  0  0  0  0
 19 20  1  1  0  0  0
 19 21  1  0  0  0  0
 21 22  1  1  0  0  0
 23 20  1  6  0  0  0
 23 24  1  0  0  0  0
 23 29  1  0  0  0  0
 24 25  1  6  0  0  0
 24 26  1  0  0  0  0
 26 27  1  6  0  0  0
 26 28  1  0  0  0  0
 28 29  1  0  0  0  0
 28 30  1  6  0  0  0
 30 31  1  0  0  0  0
 32 27  1  6  0  0  0
 32 33  1  0  0  0  0
 32 40  1  0  0  0  0
 33 34  1  6  0  0  0
 33 35  1  0  0  0  0
 35 36  1  6  0  0  0
 35 37  1  0  0  0  0
 37 38  1  6  0  0  0
 37 39  1  0  0  0  0
 39 40  1  0  0  0  0
 39 41  1  6  0  0  0
 41 42  1  0  0  0  0
M  CHG  5   4   1  14   1  17   1  34   1  42   1
M  END
>  <CHROM.1>
-178.37050421,-160.75841427,145.62862454,76.88689954,-62.76059150,-174.98963203
61.06729004,-54.00105243,69.50567564,116.50949060,84.70956711,172.74854786
-62.72873183,158.79047499,-53.32966790,176.83518696,170.05701459,72.66905266
63.45323816,49.39913229,65.03726453,55.38517341,28.13347037,6.86124701,56.25452457
-1.27373613,0.52575890,1.03442787

>  <Name>
1j7t

>  <RI>
0

>  <Rbt.Current_Directory>
/home/itssahil/PROJECTS/Mol_Feturizer/New_Systems/rnas/1j7t

>  <Rbt.Executable>
rbdock ($Id: //depot/dev/client3/rdock/2013.1/src/exe/rbdock.cxx#4 $)

>  <Rbt.Library>
libRbt.so (2013.1, Build901 2013/11/27)

>  <Rbt.Parameter_File>
/export/apps/rDock/src/rDock_2013.1_src/data/scripts/dock_solv.prm

>  <Rbt.Receptor>
prm/pocket_docking_8.prm

>  <SCORE>
-39.3501

>  <SCORE.INTER>
-28.448

>  <SCORE.INTER.CONST>
1

>  <SCORE.INTER.POLAR>
-6.11046

>  <SCORE.INTER.ROT>
9

>  <SCORE.INTER.SOLV>
15.7206

>  <SCORE.INTER.VDW>
-13.4373

>  <SCORE.INTER.norm>
-0.677333

>  <SCORE.INTRA>
-10.9021

>  <SCORE.INTRA.DIHEDRAL>
-26.1116

>  <SCORE.INTRA.DIHEDRAL.0>
46.2143

>  <SCORE.INTRA.POLAR>
1.64171

>  <SCORE.INTRA.POLAR.0>
-1.76436

>  <SCORE.INTRA.REPUL>
0

>  <SCORE.INTRA.REPUL.0>
0

>  <SCORE.INTRA.SOLV>
-4.59053

>  <SCORE.INTRA.SOLV.lig_0>
-148.643

>  <SCORE.INTRA.VDW>
-1.13287

>  <SCORE.INTRA.VDW.0>
-4.83512

>  <SCORE.INTRA.norm>
-0.259574

>  <SCORE.RESTR>
0

>  <SCORE.RESTR.CAVITY>
0

>  <SCORE.RESTR.norm>
0

>  <SCORE.SYSTEM>
0

>  <SCORE.SYSTEM.CONST>
0

>  <SCORE.SYSTEM.DIHEDRAL>
0

>  <SCORE.SYSTEM.SOLV>
0

>  <SCORE.SYSTEM.norm>
0

>  <SCORE.heavy>
42

>  <SCORE.norm>
-0.936907

>  <RMSD>
5.939

$$$$
1j7t
 OpenBabel11021811393D
libRbt.so/2013.1/901 2013/11/27
 42 45  0  0  0  0  0  0  0  0999 V2000
   31.0581    3.6761   53.1204 C   0  0  2  0  0  0  0  0  0  0  0  0
   30.9959    4.6279   54.2125 O   0  0  0  0  0  0  0  0  0  0  0  0
   30.8623    4.4841   51.8055 C   0  0  2  0  0  0  0  0  0  0  0  0
   31.7925    5.6385   51.6445 N   0  3  0  0  0  0  0  0  0  0  0  0
   29.4181    5.0309   51.7899 C   0  0  1  0  0  0  0  0  0  0  0  0
   29.1779    5.7563   50.6171 O   0  0  0  0  0  0  0  0  0  0  0  0
   28.4086    3.8666   51.9272 C   0  0  2  0  0  0  0  0  0  0  0  0
   27.0781    4.3438   51.8936 O   0  0  0  0  0  0  0  0  0  0  0  0
   28.6411    3.1360   53.2327 C   0  0  2  0  0  0  0  0  0  0  0  0
   29.9906    2.6912   53.2883 O   0  0  0  0  0  0  0  0  0  0  0  0
   27.7699    1.9098   53.3890 C   0  0  0  0  0  0  0  0  0  0  0  0
   27.8659    1.4294   54.7161 O   0  0  0  0  0  0  0  0  0  0  0  0
   31.4623    1.8494   57.3605 C   0  0  2  0  0  0  0  0  0  0  0  0
   31.5960    1.2878   58.7052 N   0  3  0  0  0  0  0  0  0  0  0  0
   32.6532    2.8210   57.0670 C   0  0  0  0  0  0  0  0  0  0  0  0
   32.4903    3.4521   55.6710 C   0  0  2  0  0  0  0  0  0  0  0  0
   33.5701    4.4071   55.4007 N   0  3  0  0  0  0  0  0  0  0  0  0
   31.1313    4.1713   55.5633 C   0  0  2  0  0  0  0  0  0  0  0  0
   29.9404    3.2439   55.8747 C   0  0  2  0  0  0  0  0  0  0  0  0
   28.7721    4.0867   55.8877 O   0  0  0  0  0  0  0  0  0  0  0  0
   30.1284    2.5717   57.2584 C   0  0  1  0  0  0  0  0  0  0  0  0
   29.0865    1.6599   57.4730 O   0  0  0  0  0  0  0  0  0  0  0  0
   28.7356    5.3706   56.5053 C   0  0  1  0  0  0  0  0  0  0  0  0
   27.2421    5.8512   56.5710 C   0  0  2  0  0  0  0  0  0  0  0  0
   26.8100    6.5468   55.4140 O   0  0  0  0  0  0  0  0  0  0  0  0
   27.3401    6.7044   57.8278 C   0  0  2  0  0  0  0  0  0  0  0  0
   28.1438    7.8994   57.5913 O   0  0  0  0  0  0  0  0  0  0  0  0
   28.1180    5.8076   58.7806 C   0  0  2  0  0  0  0  0  0  0  0  0
   29.1313    5.2894   57.9018 O   0  0  0  0  0  0  0  0  0  0  0  0
   27.2741    4.6799   59.4602 C   0  0  0  0  0  0  0  0  0  0  0  0
   28.0475    3.9427   60.4154 O   0  0  0  0  0  0  0  0  0  0  0  0
   27.8382    8.9854   58.4623 C   0  0  2  0  0  0  0  0  0  0  0  0
   28.3890   10.3752   57.9940 C   0  0  2  0  0  0  0  0  0  0  0  0
   29.8728   10.3814   57.8156 N   0  3  0  0  0  0  0  0  0  0  0  0
   27.9342   11.4300   59.0570 C   0  0  1  0  0  0  0  0  0  0  0  0
   26.4557   11.4656   59.0328 O   0  0  0  0  0  0  0  0  0  0  0  0
   28.4082   11.0617   60.5168 C   0  0  2  0  0  0  0  0  0  0  0  0
   29.8446   11.0841   60.5500 O   0  0  0  0  0  0  0  0  0  0  0  0
   27.8345    9.6283   60.8750 C   0  0  1  0  0  0  0  0  0  0  0  0
   28.3116    8.6919   59.8508 O   0  0  0  0  0  0  0  0  0  0  0  0
   28.2276    9.1119   62.2778 C   0  0  0  0  0  0  0  0  0  0  0  0
   27.7754    7.7194   62.5439 N   0  3  0  0  0  0  0  0  0  0  0  0
  1  2  1  1  0  0  0
  1  3  1  0  0  0  0
  1 10  1  0  0  0  0
  3  4  1  1  0  0  0
  3  5  1  0  0  0  0
  5  6  1  6  0  0  0
  5  7  1  0  0  0  0
  7  8  1  1  0  0  0
  7  9  1  0  0  0  0
  9 10  1  0  0  0  0
  9 11  1  6  0  0  0
 11 12  1  0  0  0  0
 13 14  1  1  0  0  0
 13 15  1  0  0  0  0
 13 21  1  0  0  0  0
 15 16  1  0  0  0  0
 16 17  1  1  0  0  0
 16 18  1  0  0  0  0
 18  2  1  6  0  0  0
 18 19  1  0  0  0  0
 19 20  1  1  0  0  0
 19 21  1  0  0  0  0
 21 22  1  6  0  0  0
 23 20  1  1  0  0  0
 23 24  1  0  0  0  0
 23 29  1  0  0  0  0
 24 25  1  6  0  0  0
 24 26  1  0  0  0  0
 26 27  1  6  0  0  0
 26 28  1  0  0  0  0
 28 29  1  0  0  0  0
 28 30  1  6  0  0  0
 30 31  1  0  0  0  0
 32 27  1  6  0  0  0
 32 33  1  0  0  0  0
 32 40  1  0  0  0  0
 33 34  1  1  0  0  0
 33 35  1  0  0  0  0
 35 36  1  1  0  0  0
 35 37  1  0  0  0  0
 37 38  1  6  0  0  0
 37 39  1  0  0  0  0
 39 40  1  0  0  0  0
 39 41  1  1  0  0  0
 41 42  1  0  0  0  0
M  CHG  5   4   1  14   1  17   1  34   1  42   1
M  END
>  <CHROM.1>
179.36386607,57.94305902,56.35707638,63.69078067,-55.18101145,-169.40847596
51.50769859,146.66840552,-176.47858379,-42.88904030,-168.63441126,-75.91839566
-53.81306826,154.82582718,-164.17963565,-175.63685256,-176.99837990,57.51358027
-60.30339197,170.23332989,-175.05165112,-138.46467707,29.18241941,5.67390033
56.61213218,0.73177375,1.28598290,-1.51748994

>  <Name>
1j7t

>  <RI>
0

>  <Rbt.Current_Directory>
/home/itssahil/PROJECTS/Mol_Feturizer/New_Systems/rnas/1j7t

>  <Rbt.Executable>
rbdock ($Id: //depot/dev/client3/rdock/2013.1/src/exe/rbdock.cxx#4 $)

>  <Rbt.Library>
libRbt.so (2013.1, Build901 2013/11/27)

>  <Rbt.Parameter_File>
/export/apps/rDock/src/rDock_2013.1_src/data/scripts/dock_solv.prm

>  <Rbt.Receptor>
prm/pocket_docking_6.prm

>  <SCORE>
-43.0102

>  <SCORE.INTER>
-25.5487

>  <SCORE.INTER.CONST>
1

>  <SCORE.INTER.POLAR>
-5.70248

>  <SCORE.INTER.ROT>
9

>  <SCORE.INTER.SOLV>
17.2356

>  <SCORE.INTER.VDW>
-13.3694

>  <SCORE.INTER.norm>
-0.608301

>  <SCORE.INTRA>
-17.4616

>  <SCORE.INTRA.DIHEDRAL>
-31.8492

>  <SCORE.INTRA.DIHEDRAL.0>
46.2143

>  <SCORE.INTRA.POLAR>
0.114885

>  <SCORE.INTRA.POLAR.0>
-1.76436

>  <SCORE.INTRA.REPUL>
0

>  <SCORE.INTRA.REPUL.0>
0

>  <SCORE.INTRA.SOLV>
-4.24853

>  <SCORE.INTRA.SOLV.lig_0>
-148.643

>  <SCORE.INTRA.VDW>
0.196697

>  <SCORE.INTRA.VDW.0>
-4.83512

>  <SCORE.INTRA.norm>
-0.415751

>  <SCORE.RESTR>
0

>  <SCORE.RESTR.CAVITY>
0

>  <SCORE.RESTR.norm>
0

>  <SCORE.SYSTEM>
0

>  <SCORE.SYSTEM.CONST>
0

>  <SCORE.SYSTEM.DIHEDRAL>
0

>  <SCORE.SYSTEM.SOLV>
0

>  <SCORE.SYSTEM.norm>
0

>  <SCORE.heavy>
42

>  <SCORE.norm>
-1.02405

>  <RMSD>
5.977

$$$$
1j7t
 OpenBabel11021811393D
libRbt.so/2013.1/901 2013/11/27
 42 45  0  0  0  0  0  0  0  0999 V2000
   33.9890    7.0098   51.0222 C   0  0  2  0  0  0  0  0  0  0  0  0
   33.7879    8.3478   51.5436 O   0  0  0  0  0  0  0  0  0  0  0  0
   32.9073    6.1030   51.6762 C   0  0  2  0  0  0  0  0  0  0  0  0
   31.5094    6.5990   51.5233 N   0  3  0  0  0  0  0  0  0  0  0  0
   33.2147    6.0040   53.1864 C   0  0  1  0  0  0  0  0  0  0  0  0
   32.2792    5.1835   53.8275 O   0  0  0  0  0  0  0  0  0  0  0  0
   34.6494    5.4665   53.4016 C   0  0  2  0  0  0  0  0  0  0  0  0
   34.9439    5.3478   54.7794 O   0  0  0  0  0  0  0  0  0  0  0  0
   35.6507    6.4026   52.7589 C   0  0  2  0  0  0  0  0  0  0  0  0
   35.3322    6.5577   51.3817 O   0  0  0  0  0  0  0  0  0  0  0  0
   37.0708    5.8866   52.8236 C   0  0  0  0  0  0  0  0  0  0  0  0
   37.2557    4.8904   51.8363 O   0  0  0  0  0  0  0  0  0  0  0  0
   32.3773   12.1279   50.2908 C   0  0  2  0  0  0  0  0  0  0  0  0
   31.6027   13.1586   49.5987 N   0  3  0  0  0  0  0  0  0  0  0  0
   33.1696   11.2674   49.2515 C   0  0  0  0  0  0  0  0  0  0  0  0
   33.9480   10.1502   49.9723 C   0  0  2  0  0  0  0  0  0  0  0  0
   34.6542    9.3002   49.0080 N   0  3  0  0  0  0  0  0  0  0  0  0
   32.9884    9.2843   50.8120 C   0  0  2  0  0  0  0  0  0  0  0  0
   32.1739   10.1106   51.8264 C   0  0  2  0  0  0  0  0  0  0  0  0
   31.2258    9.1984   52.4133 O   0  0  0  0  0  0  0  0  0  0  0  0
   31.4293   11.2641   51.1076 C   0  0  1  0  0  0  0  0  0  0  0  0
   30.7796   12.0583   52.0616 O   0  0  0  0  0  0  0  0  0  0  0  0
   31.1008    8.9901   53.8176 C   0  0  1  0  0  0  0  0  0  0  0  0
   29.6921    9.5107   54.2766 C   0  0  2  0  0  0  0  0  0  0  0  0
   29.6700   10.8865   54.6170 O   0  0  0  0  0  0  0  0  0  0  0  0
   29.4767    8.5613   55.4468 C   0  0  2  0  0  0  0  0  0  0  0  0
   30.3973    8.8563   56.5400 O   0  0  0  0  0  0  0  0  0  0  0  0
   29.8741    7.2136   54.8612 C   0  0  2  0  0  0  0  0  0  0  0  0
   31.0615    7.5716   54.1334 O   0  0  0  0  0  0  0  0  0  0  0  0
   28.7897    6.5438   53.9550 C   0  0  0  0  0  0  0  0  0  0  0  0
   27.5028    6.5383   54.5857 O   0  0  0  0  0  0  0  0  0  0  0  0
   30.1210   10.0801   57.2164 C   0  0  2  0  0  0  0  0  0  0  0  0
   31.0281   10.3583   58.4630 C   0  0  2  0  0  0  0  0  0  0  0  0
   30.9465    9.2786   59.4931 N   0  3  0  0  0  0  0  0  0  0  0  0
   30.5916   11.7432   59.0472 C   0  0  1  0  0  0  0  0  0  0  0  0
   30.8709   12.7620   58.0120 O   0  0  0  0  0  0  0  0  0  0  0  0
   29.0551   11.7923   59.4048 C   0  0  2  0  0  0  0  0  0  0  0  0
   28.7988   10.8411   60.4509 O   0  0  0  0  0  0  0  0  0  0  0  0
   28.2320   11.4582   58.0922 C   0  0  1  0  0  0  0  0  0  0  0  0
   28.6794   10.1461   57.6111 O   0  0  0  0  0  0  0  0  0  0  0  0
   26.6980   11.4492   58.2815 C   0  0  0  0  0  0  0  0  0  0  0  0
   26.1853   12.6385   59.0145 N   0  3  0  0  0  0  0  0  0  0  0  0
  1  2  1  1  0  0  0
  1  3  1  0  0  0  0
  1 10  1  0  0  0  0
  3  4  1  1  0  0  0
  3  5  1  0  0  0  0
  5  6  1  1  0  0  0
  5  7  1  0  0  0  0
  7  8  1  1  0  0  0
  7  9  1  0  0  0  0
  9 10  1  0  0  0  0
  9 11  1  6  0  0  0
 11 12  1  0  0  0  0
 13 14  1  6  0  0  0
 13 15  1  0  0  0  0
 13 21  1  0  0  0  0
 15 16  1  0  0  0  0
 16 17  1  6  0  0  0
 16 18  1  0  0  0  0
 18  2  1  1  0  0  0
 18 19  1  0  0  0  0
 19 20  1  6  0  0  0
 19 21  1  0  0  0  0
 21 22  1  1  0  0  0
 23 20  1  6  0  0  0
 23 24  1  0  0  0  0
 23 29  1  0  0  0  0
 24 25  1  1  0  0  0
 24 26  1  0  0  0  0
 26 27  1  1  0  0  0
 26 28  1  0  0  0  0
 28 29  1  0  0  0  0
 28 30  1  6  0  0  0
 30 31  1  0  0  0  0
 32 27  1  1  0  0  0
 32 33  1  0  0  0  0
 32 40  1  0  0  0  0
 33 34  1  1  0  0  0
 33 35  1  0  0  0  0
 35 36  1  6  0  0  0
 35 37  1  0  0  0  0
 37 38  1  1  0  0  0
 37 39  1  0  0  0  0
 39 40  1  0  0  0  0
 39 41  1  1  0  0  0
 41 42  1  0  0  0  0
M  CHG  5   4   1  14   1  17   1  34   1  42   1
M  END
>  <CHROM.1>
-94.38668948,-96.10000130,172.67571191,68.48470569,175.26529934,77.80549977
53.91009127,-38.66970539,71.50770248,125.37629171,114.18827720,-170.83144809
-159.37018632,70.10934512,175.41657240,-48.74068466,69.16175377,58.68144401
58.72629415,67.60127995,47.62741436,64.61895587,31.54347666,9.01876162,54.15314340
-0.35193621,-0.89847016,2.23842839

>  <Name>
1j7t

>  <RI>
0

>  <Rbt.Current_Directory>
/home/itssahil/PROJECTS/Mol_Feturizer/New_Systems/rnas/1j7t

>  <Rbt.Executable>
rbdock ($Id: //depot/dev/client3/rdock/2013.1/src/exe/rbdock.cxx#4 $)

>  <Rbt.Library>
libRbt.so (2013.1, Build901 2013/11/27)

>  <Rbt.Parameter_File>
/export/apps/rDock/src/rDock_2013.1_src/data/scripts/dock_solv.prm

>  <Rbt.Receptor>
prm/blind_docking_100.prm

>  <SCORE>
27.4079

>  <SCORE.INTER>
19.4457

>  <SCORE.INTER.CONST>
1

>  <SCORE.INTER.POLAR>
-3.34993

>  <SCORE.INTER.ROT>
9

>  <SCORE.INTER.SOLV>
39.2986

>  <SCORE.INTER.VDW>
1.43071

>  <SCORE.INTER.norm>
0.462993

>  <SCORE.INTRA>
-10.9212

>  <SCORE.INTRA.DIHEDRAL>
-14.8439

>  <SCORE.INTRA.DIHEDRAL.0>
46.2143

>  <SCORE.INTRA.POLAR>
-1.40696

>  <SCORE.INTRA.POLAR.0>
-1.76436

>  <SCORE.INTRA.REPUL>
0.0113306

>  <SCORE.INTRA.REPUL.0>
0

>  <SCORE.INTRA.SOLV>
2.71074

>  <SCORE.INTRA.SOLV.lig_0>
-148.643

>  <SCORE.INTRA.VDW>
-0.127627

>  <SCORE.INTRA.VDW.0>
-4.83512

>  <SCORE.INTRA.norm>
-0.260029

>  <SCORE.RESTR>
18.8834

>  <SCORE.RESTR.CAVITY>
18.8834

>  <SCORE.RESTR.norm>
0.449605

>  <SCORE.SYSTEM>
0

>  <SCORE.SYSTEM.CONST>
0

>  <SCORE.SYSTEM.DIHEDRAL>
0

>  <SCORE.SYSTEM.SOLV>
0

>  <SCORE.SYSTEM.norm>
0

>  <SCORE.heavy>
42

>  <SCORE.norm>
0.652569

>  <RMSD>
5.987

$$$$
1j7t
 OpenBabel11021811393D
libRbt.so/2013.1/901 2013/11/27
 42 45  0  0  0  0  0  0  0  0999 V2000
   28.7388    6.1965   53.1128 C   0  0  2  0  0  0  0  0  0  0  0  0
   27.2900    6.1816   53.0541 O   0  0  0  0  0  0  0  0  0  0  0  0
   29.1883    7.6531   52.8024 C   0  0  2  0  0  0  0  0  0  0  0  0
   28.5461    8.6938   53.6556 N   0  3  0  0  0  0  0  0  0  0  0  0
   28.8353    7.9599   51.3306 C   0  0  1  0  0  0  0  0  0  0  0  0
   29.2330    9.2576   50.9880 O   0  0  0  0  0  0  0  0  0  0  0  0
   29.5017    6.9212   50.3976 C   0  0  2  0  0  0  0  0  0  0  0  0
   29.2084    7.1968   49.0421 O   0  0  0  0  0  0  0  0  0  0  0  0
   29.0080    5.5315   50.7397 C   0  0  2  0  0  0  0  0  0  0  0  0
   29.2634    5.2671   52.1133 O   0  0  0  0  0  0  0  0  0  0  0  0
   29.7016    4.4448   49.9491 C   0  0  0  0  0  0  0  0  0  0  0  0
   31.0866    4.4640   50.2362 O   0  0  0  0  0  0  0  0  0  0  0  0
   24.0352    5.3098   55.6026 C   0  0  2  0  0  0  0  0  0  0  0  0
   23.2036    4.6591   56.6156 N   0  3  0  0  0  0  0  0  0  0  0  0
   24.3284    4.3136   54.4321 C   0  0  0  0  0  0  0  0  0  0  0  0
   25.2441    4.9789   53.3869 C   0  0  2  0  0  0  0  0  0  0  0  0
   25.5731    4.0408   52.3086 N   0  3  0  0  0  0  0  0  0  0  0  0
   26.5445    5.4728   54.0508 C   0  0  2  0  0  0  0  0  0  0  0  0
   26.2848    6.4353   55.2261 C   0  0  2  0  0  0  0  0  0  0  0  0
   27.5686    6.6790   55.8325 O   0  0  0  0  0  0  0  0  0  0  0  0
   25.3247    5.7841   56.2537 C   0  0  1  0  0  0  0  0  0  0  0  0
   25.0254    6.7139   57.2582 O   0  0  0  0  0  0  0  0  0  0  0  0
   27.7317    7.1184   57.1784 C   0  0  1  0  0  0  0  0  0  0  0  0
   29.2662    7.2859   57.4670 C   0  0  2  0  0  0  0  0  0  0  0  0
   29.8988    6.1017   57.9212 O   0  0  0  0  0  0  0  0  0  0  0  0
   29.1758    8.3975   58.5030 C   0  0  2  0  0  0  0  0  0  0  0  0
   28.5773    7.9138   59.7430 O   0  0  0  0  0  0  0  0  0  0  0  0
   28.1924    9.3691   57.8656 C   0  0  2  0  0  0  0  0  0  0  0  0
   27.2009    8.4599   57.3574 O   0  0  0  0  0  0  0  0  0  0  0  0
   28.7990   10.2845   56.7521 C   0  0  0  0  0  0  0  0  0  0  0  0
   29.9121   11.0442   57.2398 O   0  0  0  0  0  0  0  0  0  0  0  0
   28.2078    8.9487   60.6506 C   0  0  2  0  0  0  0  0  0  0  0  0
   29.3646    9.9377   61.0220 C   0  0  2  0  0  0  0  0  0  0  0  0
   30.5461    9.2491   61.6247 N   0  3  0  0  0  0  0  0  0  0  0  0
   28.7614   11.0027   61.9975 C   0  0  1  0  0  0  0  0  0  0  0  0
   27.7196   11.7399   61.2500 O   0  0  0  0  0  0  0  0  0  0  0  0
   28.1023   10.3495   63.2743 C   0  0  2  0  0  0  0  0  0  0  0  0
   29.1283    9.6825   64.0275 O   0  0  0  0  0  0  0  0  0  0  0  0
   26.9800    9.3411   62.7891 C   0  0  1  0  0  0  0  0  0  0  0  0
   27.6166    8.3666   61.8957 O   0  0  0  0  0  0  0  0  0  0  0  0
   26.2456    8.6008   63.9301 C   0  0  0  0  0  0  0  0  0  0  0  0
   25.2109    7.6467   63.4467 N   0  3  0  0  0  0  0  0  0  0  0  0
  1  2  1  6  0  0  0
  1  3  1  0  0  0  0
  1 10  1  0  0  0  0
  3  4  1  1  0  0  0
  3  5  1  0  0  0  0
  5  6  1  6  0  0  0
  5  7  1  0  0  0  0
  7  8  1  6  0  0  0
  7  9  1  0  0  0  0
  9 10  1  0  0  0  0
  9 11  1  6  0  0  0
 11 12  1  0  0  0  0
 13 14  1  1  0  0  0
 13 15  1  0  0  0  0
 13 21  1  0  0  0  0
 15 16  1  0  0  0  0
 16 17  1  6  0  0  0
 16 18  1  0  0  0  0
 18  2  1  6  0  0  0
 18 19  1  0  0  0  0
 19 20  1  1  0  0  0
 19 21  1  0  0  0  0
 21 22  1  1  0  0  0
 23 20  1  6  0  0  0
 23 24  1  0  0  0  0
 23 29  1  0  0  0  0
 24 25  1  1  0  0  0
 24 26  1  0  0  0  0
 26 27  1  1  0  0  0
 26 28  1  0  0  0  0
 28 29  1  0  0  0  0
 28 30  1  6  0  0  0
 30 31  1  0  0  0  0
 32 27  1  6  0  0  0
 32 33  1  0  0  0  0
 32 40  1  0  0  0  0
 33 34  1  1  0  0  0
 33 35  1  0  0  0  0
 35 36  1  6  0  0  0
 35 37  1  0  0  0  0
 37 38  1  6  0  0  0
 37 39  1  0  0  0  0
 39 40  1  0  0  0  0
 39 41  1  1  0  0  0
 41 42  1  0  0  0  0
M  CHG  5   4   1  14   1  17   1  34   1  42   1
M  END
>  <CHROM.1>
-137.10624567,-149.75191210,148.71594173,-61.57496860,-64.60492682,61.30568207
-68.54510997,71.63694775,-58.57283585,-157.57259441,-179.39336700,143.01776292
178.14328939,-167.65977051,-54.61054450,-56.81235834,-61.78572754,-168.22123743
179.66162657,46.02403694,-179.18571921,50.68985123,27.85540548,7.50800708
56.54335538,-1.52905418,0.62979521,1.23061672

>  <Name>
1j7t

>  <RI>
224

>  <Rbt.Current_Directory>
/home/itssahil/PROJECTS/Mol_Feturizer/New_Systems/rnas/1j7t

>  <Rbt.Executable>
rbdock ($Id: //depot/dev/client3/rdock/2013.1/src/exe/rbdock.cxx#4 $)

>  <Rbt.Library>
libRbt.so (2013.1, Build901 2013/11/27)

>  <Rbt.Parameter_File>
/export/apps/rDock/src/rDock_2013.1_src/data/scripts/dock_solv.prm

>  <Rbt.Receptor>
prm/pocket_docking_7.prm

>  <SCORE>
-47.2909

>  <SCORE.INTER>
-37.1559

>  <SCORE.INTER.CONST>
1

>  <SCORE.INTER.POLAR>
-6.64677

>  <SCORE.INTER.ROT>
9

>  <SCORE.INTER.SOLV>
19.9786

>  <SCORE.INTER.VDW>
-18.8742

>  <SCORE.INTER.norm>
-0.884663

>  <SCORE.INTRA>
-10.135

>  <SCORE.INTRA.DIHEDRAL>
-23.7999

>  <SCORE.INTRA.DIHEDRAL.0>
46.2143

>  <SCORE.INTRA.POLAR>
0.598593

>  <SCORE.INTRA.POLAR.0>
-1.76436

>  <SCORE.INTRA.REPUL>
0

>  <SCORE.INTRA.REPUL.0>
0

>  <SCORE.INTRA.SOLV>
-1.69717

>  <SCORE.INTRA.SOLV.lig_0>
-148.643

>  <SCORE.INTRA.VDW>
0.57828

>  <SCORE.INTRA.VDW.0>
-4.83512

>  <SCORE.INTRA.norm>
-0.24131

>  <SCORE.RESTR>
0

>  <SCORE.RESTR.CAVITY>
0

>  <SCORE.RESTR.norm>
0

>  <SCORE.SYSTEM>
0

>  <SCORE.SYSTEM.CONST>
0

>  <SCORE.SYSTEM.DIHEDRAL>
0

>  <SCORE.SYSTEM.SOLV>
0

>  <SCORE.SYSTEM.norm>
0

>  <SCORE.heavy>
42

>  <SCORE.norm>
-1.12597

>  <RMSD>
5.993

$$$$
1j7t
 OpenBabel11021811393D
libRbt.so/2013.1/901 2013/11/27
 42 45  0  0  0  0  0  0  0  0999 V2000
   31.2339   11.7354   48.0067 C   0  0  2  0  0  0  0  0  0  0  0  0
   30.8038   11.3759   49.3440 O   0  0  0  0  0  0  0  0  0  0  0  0
   31.1896   13.2880   47.9202 C   0  0  2  0  0  0  0  0  0  0  0  0
   31.9443   13.9893   48.9983 N   0  3  0  0  0  0  0  0  0  0  0  0
   29.7127   13.7306   48.0078 C   0  0  1  0  0  0  0  0  0  0  0  0
   29.6091   15.1237   47.9187 O   0  0  0  0  0  0  0  0  0  0  0  0
   28.8877   13.0499   46.8900 C   0  0  2  0  0  0  0  0  0  0  0  0
   27.5350   13.4587   46.9390 O   0  0  0  0  0  0  0  0  0  0  0  0
   28.9574   11.5454   47.0433 C   0  0  2  0  0  0  0  0  0  0  0  0
   30.3189   11.1350   47.0369 O   0  0  0  0  0  0  0  0  0  0  0  0
   28.2718   10.8026   45.9186 C   0  0  0  0  0  0  0  0  0  0  0  0
   28.4054   11.5381   44.7176 O   0  0  0  0  0  0  0  0  0  0  0  0
   33.2161    8.0740   50.4054 C   0  0  2  0  0  0  0  0  0  0  0  0
   34.0768    7.1778   51.1783 N   0  3  0  0  0  0  0  0  0  0  0  0
   33.9221    9.4570   50.2121 C   0  0  0  0  0  0  0  0  0  0  0  0
   32.9991   10.4197   49.4408 C   0  0  2  0  0  0  0  0  0  0  0  0
   33.6239   11.7389   49.2972 N   0  3  0  0  0  0  0  0  0  0  0  0
   31.6499   10.5686   50.1710 C   0  0  2  0  0  0  0  0  0  0  0  0
   30.9444    9.2177   50.3998 C   0  0  2  0  0  0  0  0  0  0  0  0
   29.7943    9.5027   51.2193 O   0  0  0  0  0  0  0  0  0  0  0  0
   31.8904    8.2331   51.1328 C   0  0  1  0  0  0  0  0  0  0  0  0
   31.2638    6.9844   51.2386 O   0  0  0  0  0  0  0  0  0  0  0  0
   29.8768    9.8255   52.6050 C   0  0  1  0  0  0  0  0  0  0  0  0
   29.1661    8.6907   53.4255 C   0  0  2  0  0  0  0  0  0  0  0  0
   27.7743    8.8933   53.6013 O   0  0  0  0  0  0  0  0  0  0  0  0
   29.9907    8.7914   54.7011 C   0  0  2  0  0  0  0  0  0  0  0  0
   29.7172   10.0388   55.4074 O   0  0  0  0  0  0  0  0  0  0  0  0
   31.4163    8.8648   54.1724 C   0  0  2  0  0  0  0  0  0  0  0  0
   31.2527    9.7753   53.0715 O   0  0  0  0  0  0  0  0  0  0  0  0
   32.0280    7.4934   53.7355 C   0  0  0  0  0  0  0  0  0  0  0  0
   33.4557    7.5604   53.6296 O   0  0  0  0  0  0  0  0  0  0  0  0
   30.1460   10.0414   56.7667 C   0  0  2  0  0  0  0  0  0  0  0  0
   29.2277    9.2318   57.7443 C   0  0  2  0  0  0  0  0  0  0  0  0
   27.8135    9.7150   57.7465 N   0  3  0  0  0  0  0  0  0  0  0  0
   29.8714    9.3337   59.1673 C   0  0  1  0  0  0  0  0  0  0  0  0
   31.1951    8.6776   59.0964 O   0  0  0  0  0  0  0  0  0  0  0  0
   30.0709   10.8276   59.6360 C   0  0  2  0  0  0  0  0  0  0  0  0
   28.7790   11.4444   59.7586 O   0  0  0  0  0  0  0  0  0  0  0  0
   30.9746   11.5650   58.5629 C   0  0  1  0  0  0  0  0  0  0  0  0
   30.3056   11.4439   57.2625 O   0  0  0  0  0  0  0  0  0  0  0  0
   31.2507   13.0543   58.8709 C   0  0  0  0  0  0  0  0  0  0  0  0
   32.1202   13.2612   60.0608 N   0  3  0  0  0  0  0  0  0  0  0  0
  1  2  1  1  0  0  0
  1  3  1  0  0  0  0
  1 10  1  0  0  0  0
  3  4  1  1  0  0  0
  3  5  1  0  0  0  0
  5  6  1  6  0  0  0
  5  7  1  0  0  0  0
  7  8  1  1  0  0  0
  7  9  1  0  0  0  0
  9 10  1  0  0  0  0
  9 11  1  6  0  0  0
 11 12  1  0  0  0  0
 13 14  1  1  0  0  0
 13 15  1  0  0  0  0
 13 21  1  0  0  0  0
 15 16  1  0  0  0  0
 16 17  1  1  0  0  0
 16 18  1  0  0  0  0
 18  2  1  6  0  0  0
 18 19  1  0  0  0  0
 19 20  1  1  0  0  0
 19 21  1  0  0  0  0
 21 22  1  6  0  0  0
 23 20  1  6  0  0  0
 23 24  1  0  0  0  0
 23 29  1  0  0  0  0
 24 25  1  1  0  0  0
 24 26  1  0  0  0  0
 26 27  1  6  0  0  0
 26 28  1  0  0  0  0
 28 29  1  0  0  0  0
 28 30  1  6  0  0  0
 30 31  1  0  0  0  0
 32 27  1  6  0  0  0
 32 33  1  0  0  0  0
 32 40  1  0  0  0  0
 33 34  1  1  0  0  0
 33 35  1  0  0  0  0
 35 36  1  6  0  0  0
 35 37  1  0  0  0  0
 37 38  1  6  0  0  0
 37 39  1  0  0  0  0
 39 40  1  0  0  0  0
 39 41  1  1  0  0  0
 41 42  1  0  0  0  0
M  CHG  5   4   1  14   1  17   1  34   1  42   1
M  END
>  <CHROM.1>
-124.23229755,7.76694612,-43.69027349,64.33405452,-150.25447522,32.82047119
49.02563591,-170.54236282,139.80589807,-73.08893505,-115.46630238,53.98063246
-70.65015936,163.16269076,-76.07161118,-162.83043907,42.38004889,71.16860283
-60.65239131,-103.94337910,68.29869484,68.25554037,30.63231025,10.51459374
52.44997633,1.59229054,0.99284385,-1.44719192

>  <Name>
1j7t

>  <RI>
0

>  <Rbt.Current_Directory>
/home/itssahil/PROJECTS/Mol_Feturizer/New_Systems/rnas/1j7t

>  <Rbt.Executable>
rbdock ($Id: //depot/dev/client3/rdock/2013.1/src/exe/rbdock.cxx#4 $)

>  <Rbt.Library>
libRbt.so (2013.1, Build901 2013/11/27)

>  <Rbt.Parameter_File>
/export/apps/rDock/src/rDock_2013.1_src/data/scripts/dock_solv.prm

>  <Rbt.Receptor>
prm/blind_docking_80.prm

>  <SCORE>
36.5712

>  <SCORE.INTER>
-3.53111

>  <SCORE.INTER.CONST>
1

>  <SCORE.INTER.POLAR>
-6.03239

>  <SCORE.INTER.ROT>
9

>  <SCORE.INTER.SOLV>
33.3495

>  <SCORE.INTER.VDW>
-2.9626

>  <SCORE.INTER.norm>
-0.0840741

>  <SCORE.INTRA>
21.1528

>  <SCORE.INTRA.DIHEDRAL>
-1.61694

>  <SCORE.INTRA.DIHEDRAL.0>
46.2143

>  <SCORE.INTRA.POLAR>
0.669882

>  <SCORE.INTRA.POLAR.0>
-1.76436

>  <SCORE.INTRA.REPUL>
0.0135613

>  <SCORE.INTRA.REPUL.0>
0

>  <SCORE.INTRA.SOLV>
9.37685

>  <SCORE.INTRA.SOLV.lig_0>
-148.643

>  <SCORE.INTRA.VDW>
14.9274

>  <SCORE.INTRA.VDW.0>
-4.83512

>  <SCORE.INTRA.norm>
0.503638

>  <SCORE.RESTR>
18.9495

>  <SCORE.RESTR.CAVITY>
18.9495

>  <SCORE.RESTR.norm>
0.451178

>  <SCORE.SYSTEM>
0

>  <SCORE.SYSTEM.CONST>
0

>  <SCORE.SYSTEM.DIHEDRAL>
0

>  <SCORE.SYSTEM.SOLV>
0

>  <SCORE.SYSTEM.norm>
0

>  <SCORE.heavy>
42

>  <SCORE.norm>
0.870743

>  <RMSD>
6.007

$$$$
1j7t
 OpenBabel11021811393D
libRbt.so/2013.1/901 2013/11/27
 42 45  0  0  0  0  0  0  0  0999 V2000
   29.3130    5.3694   54.0567 C   0  0  2  0  0  0  0  0  0  0  0  0
   29.6041    5.9029   55.3732 O   0  0  0  0  0  0  0  0  0  0  0  0
   28.5722    6.4883   53.2697 C   0  0  2  0  0  0  0  0  0  0  0  0
   29.2846    7.7979   53.2384 N   0  3  0  0  0  0  0  0  0  0  0  0
   27.1962    6.7107   53.9345 C   0  0  1  0  0  0  0  0  0  0  0  0
   26.4746    7.6999   53.2560 O   0  0  0  0  0  0  0  0  0  0  0  0
   26.4024    5.3831   53.9679 C   0  0  2  0  0  0  0  0  0  0  0  0
   25.1292    5.5694   54.5540 O   0  0  0  0  0  0  0  0  0  0  0  0
   27.1678    4.3465   54.7625 C   0  0  2  0  0  0  0  0  0  0  0  0
   28.4645    4.1873   54.2011 O   0  0  0  0  0  0  0  0  0  0  0  0
   26.5132    2.9834   54.7440 C   0  0  0  0  0  0  0  0  0  0  0  0
   27.2261    2.1065   55.5949 O   0  0  0  0  0  0  0  0  0  0  0  0
   32.0190    2.7086   56.7197 C   0  0  2  0  0  0  0  0  0  0  0  0
   32.8949    1.8922   57.5609 N   0  3  0  0  0  0  0  0  0  0  0  0
   32.7307    4.0537   56.3554 C   0  0  0  0  0  0  0  0  0  0  0  0
   31.7931    4.9372   55.5104 C   0  0  2  0  0  0  0  0  0  0  0  0
   32.4245    6.2252   55.2049 N   0  3  0  0  0  0  0  0  0  0  0  0
   30.4679    5.1810   56.2588 C   0  0  2  0  0  0  0  0  0  0  0  0
   29.7580    3.8716   56.6548 C   0  0  2  0  0  0  0  0  0  0  0  0
   28.6357    4.2582   57.4711 O   0  0  0  0  0  0  0  0  0  0  0  0
   30.7173    2.9619   57.4635 C   0  0  1  0  0  0  0  0  0  0  0  0
   30.0835    1.7399   57.7238 O   0  0  0  0  0  0  0  0  0  0  0  0
   28.7604    5.0189   58.6698 C   0  0  1  0  0  0  0  0  0  0  0  0
   27.3906    5.7322   58.9538 C   0  0  2  0  0  0  0  0  0  0  0  0
   27.2595    6.9967   58.3269 O   0  0  0  0  0  0  0  0  0  0  0  0
   27.4775    5.7801   60.4728 C   0  0  2  0  0  0  0  0  0  0  0  0
   28.5181    6.7045   60.9114 O   0  0  0  0  0  0  0  0  0  0  0  0
   27.9343    4.3715   60.8258 C   0  0  2  0  0  0  0  0  0  0  0  0
   28.9403    4.1512   59.8223 O   0  0  0  0  0  0  0  0  0  0  0  0
   26.8073    3.2876   60.7988 C   0  0  0  0  0  0  0  0  0  0  0  0
   25.6960    3.6589   61.6242 O   0  0  0  0  0  0  0  0  0  0  0  0
   28.0331    7.9964   61.2681 C   0  0  2  0  0  0  0  0  0  0  0  0
   29.0937    9.1449   61.1661 C   0  0  2  0  0  0  0  0  0  0  0  0
   30.3002    8.8980   62.0127 N   0  3  0  0  0  0  0  0  0  0  0  0
   28.3708   10.4731   61.5701 C   0  0  1  0  0  0  0  0  0  0  0  0
   27.3054   10.7120   60.5724 O   0  0  0  0  0  0  0  0  0  0  0  0
   27.7142   10.3932   63.0032 C   0  0  2  0  0  0  0  0  0  0  0  0
   28.7581   10.2182   63.9750 O   0  0  0  0  0  0  0  0  0  0  0  0
   26.6941    9.1802   63.0117 C   0  0  1  0  0  0  0  0  0  0  0  0
   27.4399    7.9719   62.6414 O   0  0  0  0  0  0  0  0  0  0  0  0
   25.9747    8.9562   64.3612 C   0  0  0  0  0  0  0  0  0  0  0  0
   24.7880    9.8337   64.5521 N   0  3  0  0  0  0  0  0  0  0  0  0
  1  2  1  1  0  0  0
  1  3  1  0  0  0  0
  1 10  1  0  0  0  0
  3  4  1  1  0  0  0
  3  5  1  0  0  0  0
  5  6  1  6  0  0  0
  5  7  1  0  0  0  0
  7  8  1  1  0  0  0
  7  9  1  0  0  0  0
  9 10  1  0  0  0  0
  9 11  1  6  0  0  0
 11 12  1  0  0  0  0
 13 14  1  1  0  0  0
 13 15  1  0  0  0  0
 13 21  1  0  0  0  0
 15 16  1  0  0  0  0
 16 17  1  1  0  0  0
 16 18  1  0  0  0  0
 18  2  1  6  0  0  0
 18 19  1  0  0  0  0
 19 20  1  1  0  0  0
 19 21  1  0  0  0  0
 21 22  1  6  0  0  0
 23 20  1  6  0  0  0
 23 24  1  0  0  0  0
 23 29  1  0  0  0  0
 24 25  1  6  0  0  0
 24 26  1  0  0  0  0
 26 27  1  6  0  0  0
 26 28  1  0  0  0  0
 28 29  1  0  0  0  0
 28 30  1  6  0  0  0
 30 31  1  0  0  0  0
 32 27  1  1  0  0  0
 32 33  1  0  0  0  0
 32 40  1  0  0  0  0
 33 34  1  1  0  0  0
 33 35  1  0  0  0  0
 35 36  1  6  0  0  0
 35 37  1  0  0  0  0
 37 38  1  1  0  0  0
 37 39  1  0  0  0  0
 39 40  1  0  0  0  0
 39 41  1  1  0  0  0
 41 42  1  0  0  0  0
M  CHG  5   4   1  14   1  17   1  34   1  42   1
M  END
>  <CHROM.1>
-170.17200994,55.04874468,-49.17433990,-73.38688563,65.58221469,-175.18931700
-59.78591158,-177.63226873,-164.63600625,-57.54168562,157.09730942,152.16464831
59.11255746,97.56400625,-155.88812278,-54.09444766,177.91594541,72.28288553
57.83156625,48.51505438,82.94502136,51.25720092,28.46525304,6.01394985,58.26397125
1.19555751,0.95909656,-1.78139311

>  <Name>
1j7t

>  <RI>
224

>  <Rbt.Current_Directory>
/home/itssahil/PROJECTS/Mol_Feturizer/New_Systems/rnas/1j7t

>  <Rbt.Executable>
rbdock ($Id: //depot/dev/client3/rdock/2013.1/src/exe/rbdock.cxx#4 $)

>  <Rbt.Library>
libRbt.so (2013.1, Build901 2013/11/27)

>  <Rbt.Parameter_File>
/export/apps/rDock/src/rDock_2013.1_src/data/scripts/dock_solv.prm

>  <Rbt.Receptor>
prm/pocket_docking_7.prm

>  <SCORE>
-41.3732

>  <SCORE.INTER>
-29.542

>  <SCORE.INTER.CONST>
1

>  <SCORE.INTER.POLAR>
-5.93275

>  <SCORE.INTER.ROT>
9

>  <SCORE.INTER.SOLV>
17.6333

>  <SCORE.INTER.VDW>
-15.3966

>  <SCORE.INTER.norm>
-0.703381

>  <SCORE.INTRA>
-11.8312

>  <SCORE.INTRA.DIHEDRAL>
-27.361

>  <SCORE.INTRA.DIHEDRAL.0>
46.2143

>  <SCORE.INTRA.POLAR>
1.6523

>  <SCORE.INTRA.POLAR.0>
-1.76436

>  <SCORE.INTRA.REPUL>
0

>  <SCORE.INTRA.REPUL.0>
0

>  <SCORE.INTRA.SOLV>
-4.80993

>  <SCORE.INTRA.SOLV.lig_0>
-148.643

>  <SCORE.INTRA.VDW>
-1.36358

>  <SCORE.INTRA.VDW.0>
-4.83512

>  <SCORE.INTRA.norm>
-0.281695

>  <SCORE.RESTR>
0

>  <SCORE.RESTR.CAVITY>
0

>  <SCORE.RESTR.norm>
0

>  <SCORE.SYSTEM>
0

>  <SCORE.SYSTEM.CONST>
0

>  <SCORE.SYSTEM.DIHEDRAL>
0

>  <SCORE.SYSTEM.SOLV>
0

>  <SCORE.SYSTEM.norm>
0

>  <SCORE.heavy>
42

>  <SCORE.norm>
-0.985076

>  <RMSD>
6.013

$$$$
1j7t
 OpenBabel11021811393D
libRbt.so/2013.1/901 2013/11/27
 42 45  0  0  0  0  0  0  0  0999 V2000
   32.3923    4.4833   54.4269 C   0  0  2  0  0  0  0  0  0  0  0  0
   30.9743    4.7037   54.6350 O   0  0  0  0  0  0  0  0  0  0  0  0
   32.6124    2.9434   54.4112 C   0  0  2  0  0  0  0  0  0  0  0  0
   31.7463    2.2046   53.4481 N   0  3  0  0  0  0  0  0  0  0  0  0
   32.3178    2.4030   55.8276 C   0  0  1  0  0  0  0  0  0  0  0  0
   32.5158    1.0182   55.8783 O   0  0  0  0  0  0  0  0  0  0  0  0
   33.2130    3.1202   56.8658 C   0  0  2  0  0  0  0  0  0  0  0  0
   32.9742    2.6244   58.1682 O   0  0  0  0  0  0  0  0  0  0  0  0
   32.9360    4.6084   56.8425 C   0  0  2  0  0  0  0  0  0  0  0  0
   33.1344    5.1027   55.5241 O   0  0  0  0  0  0  0  0  0  0  0  0
   33.8558    5.3966   57.7478 C   0  0  0  0  0  0  0  0  0  0  0  0
   34.2720    6.5756   57.0859 O   0  0  0  0  0  0  0  0  0  0  0  0
   30.5272    8.1803   52.2766 C   0  0  2  0  0  0  0  0  0  0  0  0
   29.9860    9.4268   51.7337 N   0  3  0  0  0  0  0  0  0  0  0  0
   29.5099    7.0132   52.0501 C   0  0  0  0  0  0  0  0  0  0  0  0
   30.0545    5.7091   52.6636 C   0  0  2  0  0  0  0  0  0  0  0  0
   29.0892    4.6160   52.5076 N   0  3  0  0  0  0  0  0  0  0  0  0
   30.3642    5.9095   54.1601 C   0  0  2  0  0  0  0  0  0  0  0  0
   31.3435    7.0718   54.4152 C   0  0  2  0  0  0  0  0  0  0  0  0
   31.4079    7.2318   55.8455 O   0  0  0  0  0  0  0  0  0  0  0  0
   30.8189    8.3728   53.7563 C   0  0  1  0  0  0  0  0  0  0  0  0
   31.7725    9.3868   53.9156 O   0  0  0  0  0  0  0  0  0  0  0  0
   30.3508    7.7880   56.6228 C   0  0  1  0  0  0  0  0  0  0  0  0
   29.2122    6.7149   56.7584 C   0  0  2  0  0  0  0  0  0  0  0  0
   28.2668    6.7426   55.7027 O   0  0  0  0  0  0  0  0  0  0  0  0
   28.6666    7.1424   58.1136 C   0  0  2  0  0  0  0  0  0  0  0  0
   27.9993    8.4374   58.0275 O   0  0  0  0  0  0  0  0  0  0  0  0
   29.9317    7.3304   58.9390 C   0  0  2  0  0  0  0  0  0  0  0  0
   30.7746    8.0132   57.9950 O   0  0  0  0  0  0  0  0  0  0  0  0
   30.5721    6.0075   59.4733 C   0  0  0  0  0  0  0  0  0  0  0  0
   29.6494    5.2588   60.2747 O   0  0  0  0  0  0  0  0  0  0  0  0
   26.8476    8.5526   58.8593 C   0  0  2  0  0  0  0  0  0  0  0  0
   25.9517    9.8042   58.5673 C   0  0  2  0  0  0  0  0  0  0  0  0
   26.6961   11.0937   58.6956 N   0  3  0  0  0  0  0  0  0  0  0  0
   24.7395    9.7403   59.5553 C   0  0  1  0  0  0  0  0  0  0  0  0
   23.9756    8.5159   59.2316 O   0  0  0  0  0  0  0  0  0  0  0  0
   25.1925    9.6704   61.0657 C   0  0  2  0  0  0  0  0  0  0  0  0
   25.8846   10.8866   61.3919 O   0  0  0  0  0  0  0  0  0  0  0  0
   26.1223    8.3993   61.2436 C   0  0  1  0  0  0  0  0  0  0  0  0
   27.2404    8.5335   60.3028 O   0  0  0  0  0  0  0  0  0  0  0  0
   26.6671    8.1982   62.6760 C   0  0  0  0  0  0  0  0  0  0  0  0
   25.6092    8.2352   63.7221 N   0  3  0  0  0  0  0  0  0  0  0  0
  1  2  1  1  0  0  0
  1  3  1  0  0  0  0
  1 10  1  0  0  0  0
  3  4  1  6  0  0  0
  3  5  1  0  0  0  0
  5  6  1  6  0  0  0
  5  7  1  0  0  0  0
  7  8  1  1  0  0  0
  7  9  1  0  0  0  0
  9 10  1  0  0  0  0
  9 11  1  1  0  0  0
 11 12  1  0  0  0  0
 13 14  1  1  0  0  0
 13 15  1  0  0  0  0
 13 21  1  0  0  0  0
 15 16  1  0  0  0  0
 16 17  1  1  0  0  0
 16 18  1  0  0  0  0
 18  2  1  6  0  0  0
 18 19  1  0  0  0  0
 19 20  1  1  0  0  0
 19 21  1  0  0  0  0
 21 22  1  6  0  0  0
 23 20  1  6  0  0  0
 23 24  1  0  0  0  0
 23 29  1  0  0  0  0
 24 25  1  6  0  0  0
 24 26  1  0  0  0  0
 26 27  1  6  0  0  0
 26 28  1  0  0  0  0
 28 29  1  0  0  0  0
 28 30  1  6  0  0  0
 30 31  1  0  0  0  0
 32 27  1  6  0  0  0
 32 33  1  0  0  0  0
 32 40  1  0  0  0  0
 33 34  1  1  0  0  0
 33 35  1  0  0  0  0
 35 36  1  6  0  0  0
 35 37  1  0  0  0  0
 37 38  1  6  0  0  0
 37 39  1  0  0  0  0
 39 40  1  0  0  0  0
 39 41  1  1  0  0  0
 41 42  1  0  0  0  0
M  CHG  5   4   1  14   1  17   1  34   1  42   1
M  END
>  <CHROM.1>
-153.93608591,82.31927936,-62.95319253,62.57995053,62.52236411,137.73931643
173.66808510,54.59232728,43.95051896,-72.63194113,75.48969186,-83.26801702
-176.11407693,143.53200150,-167.87337619,-57.57756482,-75.95986188,11.73299645
-176.75397291,-86.35208804,51.18593591,14.00170440,29.71156698,6.74085240
56.96062395,-0.44990669,-0.81301726,1.90154517

>  <Name>
1j7t

>  <RI>
0

>  <Rbt.Current_Directory>
/home/itssahil/PROJECTS/Mol_Feturizer/New_Systems/rnas/1j7t

>  <Rbt.Executable>
rbdock ($Id: //depot/dev/client3/rdock/2013.1/src/exe/rbdock.cxx#4 $)

>  <Rbt.Library>
libRbt.so (2013.1, Build901 2013/11/27)

>  <Rbt.Parameter_File>
/export/apps/rDock/src/rDock_2013.1_src/data/scripts/dock_solv.prm

>  <Rbt.Receptor>
prm/pocket_docking_5.prm

>  <SCORE>
-33.6591

>  <SCORE.INTER>
-31.93

>  <SCORE.INTER.CONST>
1

>  <SCORE.INTER.POLAR>
-5.76824

>  <SCORE.INTER.ROT>
9

>  <SCORE.INTER.SOLV>
14.8494

>  <SCORE.INTER.VDW>
-16.609

>  <SCORE.INTER.norm>
-0.760239

>  <SCORE.INTRA>
-1.7567

>  <SCORE.INTRA.DIHEDRAL>
-14.9205

>  <SCORE.INTRA.DIHEDRAL.0>
46.2143

>  <SCORE.INTRA.POLAR>
1.67075

>  <SCORE.INTRA.POLAR.0>
-1.76436

>  <SCORE.INTRA.REPUL>
0.0305207

>  <SCORE.INTRA.REPUL.0>
0

>  <SCORE.INTRA.SOLV>
-1.4138

>  <SCORE.INTRA.SOLV.lig_0>
-148.643

>  <SCORE.INTRA.VDW>
0.577328

>  <SCORE.INTRA.VDW.0>
-4.83512

>  <SCORE.INTRA.norm>
-0.0418262

>  <SCORE.RESTR>
0.0276595

>  <SCORE.RESTR.CAVITY>
0.0276595

>  <SCORE.RESTR.norm>
0.000658559

>  <SCORE.SYSTEM>
0

>  <SCORE.SYSTEM.CONST>
0

>  <SCORE.SYSTEM.DIHEDRAL>
0

>  <SCORE.SYSTEM.SOLV>
0

>  <SCORE.SYSTEM.norm>
0

>  <SCORE.heavy>
42

>  <SCORE.norm>
-0.801407

>  <RMSD>
6.081

$$$$
1j7t
 OpenBabel11021811393D
libRbt.so/2013.1/901 2013/11/27
 42 45  0  0  0  0  0  0  0  0999 V2000
   27.2661    4.8141   53.3633 C   0  0  2  0  0  0  0  0  0  0  0  0
   27.3903    3.4006   53.6616 O   0  0  0  0  0  0  0  0  0  0  0  0
   26.3889    4.9302   52.0838 C   0  0  2  0  0  0  0  0  0  0  0  0
   25.0800    4.2203   52.1646 N   0  3  0  0  0  0  0  0  0  0  0  0
   27.1831    4.3311   50.9026 C   0  0  1  0  0  0  0  0  0  0  0  0
   26.4466    4.4230   49.7158 O   0  0  0  0  0  0  0  0  0  0  0  0
   28.5435    5.0535   50.7574 C   0  0  2  0  0  0  0  0  0  0  0  0
   29.2784    4.5341   49.6669 O   0  0  0  0  0  0  0  0  0  0  0  0
   29.3524    4.8859   52.0261 C   0  0  2  0  0  0  0  0  0  0  0  0
   28.5989    5.3687   53.1311 O   0  0  0  0  0  0  0  0  0  0  0  0
   30.6498    5.6628   52.0088 C   0  0  0  0  0  0  0  0  0  0  0  0
   30.3686    7.0490   51.9801 O   0  0  0  0  0  0  0  0  0  0  0  0
   27.2095    0.9276   57.0820 C   0  0  2  0  0  0  0  0  0  0  0  0
   27.4214    0.4195   58.4379 N   0  3  0  0  0  0  0  0  0  0  0  0
   28.5777    1.0272   56.3294 C   0  0  0  0  0  0  0  0  0  0  0  0
   28.3650    1.6078   54.9182 C   0  0  2  0  0  0  0  0  0  0  0  0
   29.6446    1.7585   54.2175 N   0  3  0  0  0  0  0  0  0  0  0  0
   27.6627    2.9772   55.0025 C   0  0  2  0  0  0  0  0  0  0  0  0
   26.3240    2.9141   55.7636 C   0  0  2  0  0  0  0  0  0  0  0  0
   25.8748    4.2768   55.8931 O   0  0  0  0  0  0  0  0  0  0  0  0
   26.5301    2.2852   57.1650 C   0  0  1  0  0  0  0  0  0  0  0  0
   25.2865    2.1467   57.7953 O   0  0  0  0  0  0  0  0  0  0  0  0
   26.4276    5.2015   56.8260 C   0  0  1  0  0  0  0  0  0  0  0  0
   27.6789    5.8863   56.1693 C   0  0  2  0  0  0  0  0  0  0  0  0
   28.8907    5.1769   56.3626 O   0  0  0  0  0  0  0  0  0  0  0  0
   27.6020    7.2245   56.8907 C   0  0  2  0  0  0  0  0  0  0  0  0
   27.9144    7.0767   58.3085 O   0  0  0  0  0  0  0  0  0  0  0  0
   26.1261    7.5799   56.7791 C   0  0  2  0  0  0  0  0  0  0  0  0
   25.5169    6.3092   57.0651 O   0  0  0  0  0  0  0  0  0  0  0  0
   25.6913    8.1594   55.3931 C   0  0  0  0  0  0  0  0  0  0  0  0
   26.5404    9.2376   54.9803 O   0  0  0  0  0  0  0  0  0  0  0  0
   29.1890    7.5963   58.6786 C   0  0  2  0  0  0  0  0  0  0  0  0
   29.8855    6.8412   59.8614 C   0  0  2  0  0  0  0  0  0  0  0  0
   29.0587    6.8239   61.1062 N   0  3  0  0  0  0  0  0  0  0  0  0
   31.2669    7.5375   60.0992 C   0  0  1  0  0  0  0  0  0  0  0  0
   32.0684    7.3500   58.8704 O   0  0  0  0  0  0  0  0  0  0  0  0
   31.1248    9.0842   60.3804 C   0  0  2  0  0  0  0  0  0  0  0  0
   30.3945    9.2607   61.6052 O   0  0  0  0  0  0  0  0  0  0  0  0
   30.3749    9.7427   59.1491 C   0  0  1  0  0  0  0  0  0  0  0  0
   29.0877    9.0550   58.9954 O   0  0  0  0  0  0  0  0  0  0  0  0
   30.1408   11.2649   59.2797 C   0  0  0  0  0  0  0  0  0  0  0  0
   29.2855   11.8269   58.1993 N   0  3  0  0  0  0  0  0  0  0  0  0
  1  2  1  6  0  0  0
  1  3  1  0  0  0  0
  1 10  1  0  0  0  0
  3  4  1  1  0  0  0
  3  5  1  0  0  0  0
  5  6  1  6  0  0  0
  5  7  1  0  0  0  0
  7  8  1  6  0  0  0
  7  9  1  0  0  0  0
  9 10  1  0  0  0  0
  9 11  1  6  0  0  0
 11 12  1  0  0  0  0
 13 14  1  1  0  0  0
 13 15  1  0  0  0  0
 13 21  1  0  0  0  0
 15 16  1  0  0  0  0
 16 17  1  1  0  0  0
 16 18  1  0  0  0  0
 18  2  1  6  0  0  0
 18 19  1  0  0  0  0
 19 20  1  1  0  0  0
 19 21  1  0  0  0  0
 21 22  1  6  0  0  0
 23 20  1  6  0  0  0
 23 24  1  0  0  0  0
 23 29  1  0  0  0  0
 24 25  1  1  0  0  0
 24 26  1  0  0  0  0
 26 27  1  1  0  0  0
 26 28  1  0  0  0  0
 28 29  1  0  0  0  0
 28 30  1  6  0  0  0
 30 31  1  0  0  0  0
 32 27  1  1  0  0  0
 32 33  1  0  0  0  0
 32 40  1  0  0  0  0
 33 34  1  1  0  0  0
 33 35  1  0  0  0  0
 35 36  1  6  0  0  0
 35 37  1  0  0  0  0
 37 38  1  1  0  0  0
 37 39  1  0  0  0  0
 39 40  1  0  0  0  0
 39 41  1  1  0  0  0
 41 42  1  0  0  0  0
M  CHG  5   4   1  14   1  17   1  34   1  42   1
M  END
>  <CHROM.1>
-155.39922692,-154.21072630,-26.39886594,68.27322375,-60.52558658,65.31298244
-60.39176419,46.14989988,53.78723982,-76.08779121,86.43499696,-55.86106140
-53.41766826,107.18115808,-148.48541495,-50.75722882,-57.37952423,-71.49533171
-64.23613717,165.51357876,-172.58508501,-174.29258138,28.18372296,5.66661337
55.92517225,-2.46373157,1.24737457,1.79778396

>  <Name>
1j7t

>  <RI>
224

>  <Rbt.Current_Directory>
/home/itssahil/PROJECTS/Mol_Feturizer/New_Systems/rnas/1j7t

>  <Rbt.Executable>
rbdock ($Id: //depot/dev/client3/rdock/2013.1/src/exe/rbdock.cxx#4 $)

>  <Rbt.Library>
libRbt.so (2013.1, Build901 2013/11/27)

>  <Rbt.Parameter_File>
/export/apps/rDock/src/rDock_2013.1_src/data/scripts/dock_solv.prm

>  <Rbt.Receptor>
prm/pocket_docking_7.prm

>  <SCORE>
-40.6375

>  <SCORE.INTER>
-29.3932

>  <SCORE.INTER.CONST>
1

>  <SCORE.INTER.POLAR>
-5.3938

>  <SCORE.INTER.ROT>
9

>  <SCORE.INTER.SOLV>
17.4591

>  <SCORE.INTER.VDW>
-17.0358

>  <SCORE.INTER.norm>
-0.699838

>  <SCORE.INTRA>
-11.2443

>  <SCORE.INTRA.DIHEDRAL>
-20.8038

>  <SCORE.INTRA.DIHEDRAL.0>
46.2143

>  <SCORE.INTRA.POLAR>
0.900206

>  <SCORE.INTRA.POLAR.0>
-1.76436

>  <SCORE.INTRA.REPUL>
0

>  <SCORE.INTRA.REPUL.0>
0

>  <SCORE.INTRA.SOLV>
-4.51732

>  <SCORE.INTRA.SOLV.lig_0>
-148.643

>  <SCORE.INTRA.VDW>
-1.64444

>  <SCORE.INTRA.VDW.0>
-4.83512

>  <SCORE.INTRA.norm>
-0.267721

>  <SCORE.RESTR>
0

>  <SCORE.RESTR.CAVITY>
0

>  <SCORE.RESTR.norm>
0

>  <SCORE.SYSTEM>
0

>  <SCORE.SYSTEM.CONST>
0

>  <SCORE.SYSTEM.DIHEDRAL>
0

>  <SCORE.SYSTEM.SOLV>
0

>  <SCORE.SYSTEM.norm>
0

>  <SCORE.heavy>
42

>  <SCORE.norm>
-0.967559

>  <RMSD>
6.088

$$$$
1j7t
 OpenBabel11021811393D
libRbt.so/2013.1/901 2013/11/27
 42 45  0  0  0  0  0  0  0  0999 V2000
   32.8770    5.8868   52.8892 C   0  0  2  0  0  0  0  0  0  0  0  0
   32.9453    7.3348   52.8533 O   0  0  0  0  0  0  0  0  0  0  0  0
   33.0564    5.4629   54.3752 C   0  0  2  0  0  0  0  0  0  0  0  0
   32.1193    6.1280   55.3255 N   0  3  0  0  0  0  0  0  0  0  0  0
   34.4978    5.8152   54.8031 C   0  0  1  0  0  0  0  0  0  0  0  0
   34.7233    5.4401   56.1327 O   0  0  0  0  0  0  0  0  0  0  0  0
   35.5140    5.1256   53.8622 C   0  0  2  0  0  0  0  0  0  0  0  0
   36.8419    5.4181   54.2499 O   0  0  0  0  0  0  0  0  0  0  0  0
   35.2975    5.5951   52.4392 C   0  0  2  0  0  0  0  0  0  0  0  0
   33.9507    5.3408   52.0603 O   0  0  0  0  0  0  0  0  0  0  0  0
   36.1758    4.8781   51.4385 C   0  0  0  0  0  0  0  0  0  0  0  0
   35.8349    3.5054   51.4103 O   0  0  0  0  0  0  0  0  0  0  0  0
   31.9381   10.6775   50.4743 C   0  0  2  0  0  0  0  0  0  0  0  0
   31.4056   11.4899   49.3799 N   0  3  0  0  0  0  0  0  0  0  0  0
   33.0358    9.7036   49.9310 C   0  0  0  0  0  0  0  0  0  0  0  0
   33.5645    8.8123   51.0710 C   0  0  2  0  0  0  0  0  0  0  0  0
   34.5564    7.8559   50.5687 N   0  3  0  0  0  0  0  0  0  0  0  0
   32.4034    8.0455   51.7341 C   0  0  2  0  0  0  0  0  0  0  0  0
   31.2933    8.9793   52.2545 C   0  0  2  0  0  0  0  0  0  0  0  0
   30.2245    8.1201   52.6959 O   0  0  0  0  0  0  0  0  0  0  0  0
   30.7954    9.9093   51.1192 C   0  0  1  0  0  0  0  0  0  0  0  0
   29.8613   10.8139   51.6409 O   0  0  0  0  0  0  0  0  0  0  0  0
   29.6624    8.1734   54.0045 C   0  0  1  0  0  0  0  0  0  0  0  0
   28.8419    9.5053   54.1420 C   0  0  2  0  0  0  0  0  0  0  0  0
   29.6120   10.6133   54.5761 O   0  0  0  0  0  0  0  0  0  0  0  0
   27.8017    9.0213   55.1424 C   0  0  2  0  0  0  0  0  0  0  0  0
   28.4030    8.7751   56.4492 O   0  0  0  0  0  0  0  0  0  0  0  0
   27.3851    7.6752   54.5664 C   0  0  2  0  0  0  0  0  0  0  0  0
   28.6619    7.1344   54.1854 O   0  0  0  0  0  0  0  0  0  0  0  0
   26.3813    7.7533   53.3697 C   0  0  0  0  0  0  0  0  0  0  0  0
   26.4529    6.5856   52.5418 O   0  0  0  0  0  0  0  0  0  0  0  0
   28.8590    9.9535   57.1088 C   0  0  2  0  0  0  0  0  0  0  0  0
   30.0474    9.7281   58.1044 C   0  0  2  0  0  0  0  0  0  0  0  0
   29.7255    8.7404   59.1786 N   0  3  0  0  0  0  0  0  0  0  0  0
   30.4156   11.1270   58.7022 C   0  0  1  0  0  0  0  0  0  0  0  0
   30.8806   11.9728   57.5815 O   0  0  0  0  0  0  0  0  0  0  0  0
   29.1845   11.8332   59.3930 C   0  0  2  0  0  0  0  0  0  0  0  0
   28.7719   11.0370   60.5157 O   0  0  0  0  0  0  0  0  0  0  0  0
   28.0294   11.9750   58.3171 C   0  0  1  0  0  0  0  0  0  0  0  0
   27.7261   10.6305   57.8135 O   0  0  0  0  0  0  0  0  0  0  0  0
   26.7373   12.6377   58.8463 C   0  0  0  0  0  0  0  0  0  0  0  0
   26.8868   14.0934   59.1167 N   0  3  0  0  0  0  0  0  0  0  0  0
  1  2  1  1  0  0  0
  1  3  1  0  0  0  0
  1 10  1  0  0  0  0
  3  4  1  1  0  0  0
  3  5  1  0  0  0  0
  5  6  1  1  0  0  0
  5  7  1  0  0  0  0
  7  8  1  1  0  0  0
  7  9  1  0  0  0  0
  9 10  1  0  0  0  0
  9 11  1  6  0  0  0
 11 12  1  0  0  0  0
 13 14  1  6  0  0  0
 13 15  1  0  0  0  0
 13 21  1  0  0  0  0
 15 16  1  0  0  0  0
 16 17  1  6  0  0  0
 16 18  1  0  0  0  0
 18  2  1  1  0  0  0
 18 19  1  0  0  0  0
 19 20  1  6  0  0  0
 19 21  1  0  0  0  0
 21 22  1  1  0  0  0
 23 20  1  6  0  0  0
 23 24  1  0  0  0  0
 23 29  1  0  0  0  0
 24 25  1  1  0  0  0
 24 26  1  0  0  0  0
 26 27  1  1  0  0  0
 26 28  1  0  0  0  0
 28 29  1  0  0  0  0
 28 30  1  6  0  0  0
 30 31  1  0  0  0  0
 32 27  1  1  0  0  0
 32 33  1  0  0  0  0
 32 40  1  0  0  0  0
 33 34  1  1  0  0  0
 33 35  1  0  0  0  0
 35 36  1  6  0  0  0
 35 37  1  0  0  0  0
 37 38  1  1  0  0  0
 37 39  1  0  0  0  0
 39 40  1  0  0  0  0
 39 41  1  1  0  0  0
 41 42  1  0  0  0  0
M  CHG  5   4   1  14   1  17   1  34   1  42   1
M  END
>  <CHROM.1>
-160.14039103,-118.46650432,-56.43390524,-74.66372341,-57.38920623,64.14638447
-56.44542611,-67.23357574,-104.25282866,125.39860665,70.26888091,81.53399376
-53.89085223,67.65296290,-152.45786111,155.97432383,67.12693144,58.23576026
73.85446795,71.93635635,70.82600385,-84.99127133,31.03449673,8.55565634,54.46160914
-0.61333441,-0.68243061,1.59744382

>  <Name>
1j7t

>  <RI>
0

>  <Rbt.Current_Directory>
/home/itssahil/PROJECTS/Mol_Feturizer/New_Systems/rnas/1j7t

>  <Rbt.Executable>
rbdock ($Id: //depot/dev/client3/rdock/2013.1/src/exe/rbdock.cxx#4 $)

>  <Rbt.Library>
libRbt.so (2013.1, Build901 2013/11/27)

>  <Rbt.Parameter_File>
/export/apps/rDock/src/rDock_2013.1_src/data/scripts/dock_solv.prm

>  <Rbt.Receptor>
prm/blind_docking_80.prm

>  <SCORE>
49.2776

>  <SCORE.INTER>
11.1099

>  <SCORE.INTER.CONST>
1

>  <SCORE.INTER.POLAR>
-3.23572

>  <SCORE.INTER.ROT>
9

>  <SCORE.INTER.SOLV>
27.8818

>  <SCORE.INTER.VDW>
-0.701592

>  <SCORE.INTER.norm>
0.264521

>  <SCORE.INTRA>
-0.742885

>  <SCORE.INTRA.DIHEDRAL>
-13.6548

>  <SCORE.INTRA.DIHEDRAL.0>
46.2143

>  <SCORE.INTRA.POLAR>
1.00021

>  <SCORE.INTRA.POLAR.0>
-1.76436

>  <SCORE.INTRA.REPUL>
0

>  <SCORE.INTRA.REPUL.0>
0

>  <SCORE.INTRA.SOLV>
0.519104

>  <SCORE.INTRA.SOLV.lig_0>
-148.643

>  <SCORE.INTRA.VDW>
2.42427

>  <SCORE.INTRA.VDW.0>
-4.83512

>  <SCORE.INTRA.norm>
-0.0176877

>  <SCORE.RESTR>
38.9106

>  <SCORE.RESTR.CAVITY>
38.9106

>  <SCORE.RESTR.norm>
0.926444

>  <SCORE.SYSTEM>
0

>  <SCORE.SYSTEM.CONST>
0

>  <SCORE.SYSTEM.DIHEDRAL>
0

>  <SCORE.SYSTEM.SOLV>
0

>  <SCORE.SYSTEM.norm>
0

>  <SCORE.heavy>
42

>  <SCORE.norm>
1.17328

>  <RMSD>
6.097

$$$$
1j7t
 OpenBabel11021811393D
libRbt.so/2013.1/901 2013/11/27
 42 45  0  0  0  0  0  0  0  0999 V2000
   31.1701    5.2186   52.3542 C   0  0  2  0  0  0  0  0  0  0  0  0
   30.8078    4.3307   53.4418 O   0  0  0  0  0  0  0  0  0  0  0  0
   32.7134    5.4037   52.4174 C   0  0  2  0  0  0  0  0  0  0  0  0
   33.4891    4.1302   52.4314 N   0  3  0  0  0  0  0  0  0  0  0  0
   33.0502    6.1803   53.7091 C   0  0  1  0  0  0  0  0  0  0  0  0
   34.4301    6.3916   53.8121 O   0  0  0  0  0  0  0  0  0  0  0  0
   32.2892    7.5272   53.7320 C   0  0  2  0  0  0  0  0  0  0  0  0
   32.6004    8.2644   54.8976 O   0  0  0  0  0  0  0  0  0  0  0  0
   30.7970    7.2752   53.6875 C   0  0  2  0  0  0  0  0  0  0  0  0
   30.4858    6.4977   52.5383 O   0  0  0  0  0  0  0  0  0  0  0  0
   29.9840    8.5465   53.5883 C   0  0  0  0  0  0  0  0  0  0  0  0
   28.6060    8.2284   53.6198 O   0  0  0  0  0  0  0  0  0  0  0  0
   26.6241    4.8936   53.2752 C   0  0  2  0  0  0  0  0  0  0  0  0
   25.1907    4.7120   53.5072 N   0  3  0  0  0  0  0  0  0  0  0  0
   27.2153    3.6282   52.5699 C   0  0  0  0  0  0  0  0  0  0  0  0
   28.7335    3.7950   52.3678 C   0  0  2  0  0  0  0  0  0  0  0  0
   29.3137    2.5949   51.7561 N   0  3  0  0  0  0  0  0  0  0  0  0
   29.4268    4.0687   53.7169 C   0  0  2  0  0  0  0  0  0  0  0  0
   28.8453    5.2948   54.4474 C   0  0  2  0  0  0  0  0  0  0  0  0
   29.4779    5.3246   55.7414 O   0  0  0  0  0  0  0  0  0  0  0  0
   27.3107    5.1488   54.6075 C   0  0  1  0  0  0  0  0  0  0  0  0
   26.7941    6.3176   55.1821 O   0  0  0  0  0  0  0  0  0  0  0  0
   29.9589    6.5181   56.3541 C   0  0  1  0  0  0  0  0  0  0  0  0
   29.3075    6.6467   57.7772 C   0  0  2  0  0  0  0  0  0  0  0  0
   28.0563    7.3126   57.7793 O   0  0  0  0  0  0  0  0  0  0  0  0
   30.4333    7.4039   58.4674 C   0  0  2  0  0  0  0  0  0  0  0  0
   30.5500    8.7624   57.9472 O   0  0  0  0  0  0  0  0  0  0  0  0
   31.6715    6.6349   58.0283 C   0  0  2  0  0  0  0  0  0  0  0  0
   31.3819    6.4233   56.6358 O   0  0  0  0  0  0  0  0  0  0  0  0
   31.9260    5.2996   58.8016 C   0  0  0  0  0  0  0  0  0  0  0  0
   33.1519    4.6782   58.3954 O   0  0  0  0  0  0  0  0  0  0  0  0
   29.6511    9.6920   58.5468 C   0  0  2  0  0  0  0  0  0  0  0  0
   29.8080   11.1689   58.0485 C   0  0  2  0  0  0  0  0  0  0  0  0
   31.1834   11.7117   58.2650 N   0  3  0  0  0  0  0  0  0  0  0  0
   28.7299   12.0218   58.7968 C   0  0  1  0  0  0  0  0  0  0  0  0
   27.4045   11.5125   58.3824 O   0  0  0  0  0  0  0  0  0  0  0  0
   28.8489   11.9061   60.3664 C   0  0  2  0  0  0  0  0  0  0  0  0
   30.1143   12.4542   60.7703 O   0  0  0  0  0  0  0  0  0  0  0  0
   28.7189   10.3762   60.7598 C   0  0  1  0  0  0  0  0  0  0  0  0
   29.7650    9.6431   60.0377 O   0  0  0  0  0  0  0  0  0  0  0  0
   28.8327   10.0912   62.2746 C   0  0  0  0  0  0  0  0  0  0  0  0
   27.7552   10.7283   63.0793 N   0  3  0  0  0  0  0  0  0  0  0  0
  1  2  1  1  0  0  0
  1  3  1  0  0  0  0
  1 10  1  0  0  0  0
  3  4  1  1  0  0  0
  3  5  1  0  0  0  0
  5  6  1  6  0  0  0
  5  7  1  0  0  0  0
  7  8  1  1  0  0  0
  7  9  1  0  0  0  0
  9 10  1  0  0  0  0
  9 11  1  6  0  0  0
 11 12  1  0  0  0  0
 13 14  1  1  0  0  0
 13 15  1  0  0  0  0
 13 21  1  0  0  0  0
 15 16  1  0  0  0  0
 16 17  1  1  0  0  0
 16 18  1  0  0  0  0
 18  2  1  6  0  0  0
 18 19  1  0  0  0  0
 19 20  1  1  0  0  0
 19 21  1  0  0  0  0
 21 22  1  6  0  0  0
 23 20  1  1  0  0  0
 23 24  1  0  0  0  0
 23 29  1  0  0  0  0
 24 25  1  6  0  0  0
 24 26  1  0  0  0  0
 26 27  1  6  0  0  0
 26 28  1  0  0  0  0
 28 29  1  0  0  0  0
 28 30  1  1  0  0  0
 30 31  1  0  0  0  0
 32 27  1  6  0  0  0
 32 33  1  0  0  0  0
 32 40  1  0  0  0  0
 33 34  1  1  0  0  0
 33 35  1  0  0  0  0
 35 36  1  6  0  0  0
 35 37  1  0  0  0  0
 37 38  1  6  0  0  0
 37 39  1  0  0  0  0
 39 40  1  0  0  0  0
 39 41  1  1  0  0  0
 41 42  1  0  0  0  0
M  CHG  5   4   1  14   1  17   1  34   1  42   1
M  END
>  <CHROM.1>
174.26289733,45.20966751,-66.31330742,58.79755066,178.10562516,-177.08063317
-61.09366013,-140.75079772,-179.07738398,137.41542702,125.39133093,-65.16595660
56.03604337,83.39986548,177.27823232,-176.19073848,-176.22663985,162.66118406
-93.27723795,-168.46930746,62.54999040,-53.83113207,29.92375189,7.27090907
56.13201011,-1.47441740,0.04450931,0.87350028

>  <Name>
1j7t

>  <RI>
0

>  <Rbt.Current_Directory>
/home/itssahil/PROJECTS/Mol_Feturizer/New_Systems/rnas/1j7t

>  <Rbt.Executable>
rbdock ($Id: //depot/dev/client3/rdock/2013.1/src/exe/rbdock.cxx#4 $)

>  <Rbt.Library>
libRbt.so (2013.1, Build901 2013/11/27)

>  <Rbt.Parameter_File>
/export/apps/rDock/src/rDock_2013.1_src/data/scripts/dock_solv.prm

>  <Rbt.Receptor>
prm/pocket_docking_8.prm

>  <SCORE>
-42.6619

>  <SCORE.INTER>
-26.1865

>  <SCORE.INTER.CONST>
1

>  <SCORE.INTER.POLAR>
-5.58554

>  <SCORE.INTER.ROT>
9

>  <SCORE.INTER.SOLV>
15.6159

>  <SCORE.INTER.VDW>
-13.6445

>  <SCORE.INTER.norm>
-0.623488

>  <SCORE.INTRA>
-16.4754

>  <SCORE.INTRA.DIHEDRAL>
-20.6435

>  <SCORE.INTRA.DIHEDRAL.0>
46.2143

>  <SCORE.INTRA.POLAR>
-1.02186

>  <SCORE.INTRA.POLAR.0>
-1.76436

>  <SCORE.INTRA.REPUL>
0.0163914

>  <SCORE.INTRA.REPUL.0>
0

>  <SCORE.INTRA.SOLV>
-2.66957

>  <SCORE.INTRA.SOLV.lig_0>
-148.643

>  <SCORE.INTRA.VDW>
-1.42652

>  <SCORE.INTRA.VDW.0>
-4.83512

>  <SCORE.INTRA.norm>
-0.392272

>  <SCORE.RESTR>
0

>  <SCORE.RESTR.CAVITY>
0

>  <SCORE.RESTR.norm>
0

>  <SCORE.SYSTEM>
0

>  <SCORE.SYSTEM.CONST>
0

>  <SCORE.SYSTEM.DIHEDRAL>
0

>  <SCORE.SYSTEM.SOLV>
0

>  <SCORE.SYSTEM.norm>
0

>  <SCORE.heavy>
42

>  <SCORE.norm>
-1.01576

>  <RMSD>
6.114

$$$$
1j7t
 OpenBabel11021811393D
libRbt.so/2013.1/901 2013/11/27
 42 45  0  0  0  0  0  0  0  0999 V2000
   31.8807    2.6959   55.9787 C   0  0  2  0  0  0  0  0  0  0  0  0
   30.6854    2.7288   55.1586 O   0  0  0  0  0  0  0  0  0  0  0  0
   31.4126    2.5274   57.4526 C   0  0  2  0  0  0  0  0  0  0  0  0
   30.4989    1.3717   57.6832 N   0  3  0  0  0  0  0  0  0  0  0  0
   30.6666    3.8142   57.8682 C   0  0  1  0  0  0  0  0  0  0  0  0
   30.2342    3.7265   59.1967 O   0  0  0  0  0  0  0  0  0  0  0  0
   31.5833    5.0452   57.6734 C   0  0  2  0  0  0  0  0  0  0  0  0
   30.9262    6.2330   58.0688 O   0  0  0  0  0  0  0  0  0  0  0  0
   31.9857    5.1612   56.2185 C   0  0  2  0  0  0  0  0  0  0  0  0
   32.6093    3.9518   55.8056 O   0  0  0  0  0  0  0  0  0  0  0  0
   32.9785    6.2734   55.9651 C   0  0  0  0  0  0  0  0  0  0  0  0
   32.9086    6.6675   54.6082 O   0  0  0  0  0  0  0  0  0  0  0  0
   32.4301    4.1142   51.5690 C   0  0  2  0  0  0  0  0  0  0  0  0
   32.6254    4.4246   50.1524 N   0  3  0  0  0  0  0  0  0  0  0  0
   32.3002    2.5670   51.7636 C   0  0  0  0  0  0  0  0  0  0  0  0
   32.0457    2.2392   53.2473 C   0  0  2  0  0  0  0  0  0  0  0  0
   31.8677    0.7962   53.4399 N   0  3  0  0  0  0  0  0  0  0  0  0
   30.7932    2.9818   53.7529 C   0  0  2  0  0  0  0  0  0  0  0  0
   30.8820    4.5067   53.5484 C   0  0  2  0  0  0  0  0  0  0  0  0
   29.5933    5.0339   53.9183 O   0  0  0  0  0  0  0  0  0  0  0  0
   31.1863    4.8346   52.0646 C   0  0  1  0  0  0  0  0  0  0  0  0
   31.3616    6.2176   51.9249 O   0  0  0  0  0  0  0  0  0  0  0  0
   29.4188    6.1205   54.8239 C   0  0  1  0  0  0  0  0  0  0  0  0
   28.6991    7.2923   54.0656 C   0  0  2  0  0  0  0  0  0  0  0  0
   29.5842    8.1726   53.3943 O   0  0  0  0  0  0  0  0  0  0  0  0
   27.9677    7.9059   55.2513 C   0  0  2  0  0  0  0  0  0  0  0  0
   28.9032    8.5334   56.1791 O   0  0  0  0  0  0  0  0  0  0  0  0
   27.3773    6.6872   55.9467 C   0  0  2  0  0  0  0  0  0  0  0  0
   28.4851    5.7728   55.8825 O   0  0  0  0  0  0  0  0  0  0  0  0
   26.0822    6.1138   55.2836 C   0  0  0  0  0  0  0  0  0  0  0  0
   25.5459    5.0158   56.0324 O   0  0  0  0  0  0  0  0  0  0  0  0
   28.3635    8.7661   57.4776 C   0  0  2  0  0  0  0  0  0  0  0  0
   27.3083    9.9217   57.5504 C   0  0  2  0  0  0  0  0  0  0  0  0
   27.8485   11.2320   57.0764 N   0  3  0  0  0  0  0  0  0  0  0  0
   26.8218   10.0049   59.0358 C   0  0  1  0  0  0  0  0  0  0  0  0
   26.1539    8.7231   59.3495 O   0  0  0  0  0  0  0  0  0  0  0  0
   28.0111   10.2184   60.0513 C   0  0  2  0  0  0  0  0  0  0  0  0
   28.6211   11.4907   59.7796 O   0  0  0  0  0  0  0  0  0  0  0  0
   29.0368    9.0240   59.8682 C   0  0  1  0  0  0  0  0  0  0  0  0
   29.4609    9.0161   58.4634 O   0  0  0  0  0  0  0  0  0  0  0  0
   30.2773    9.0968   60.7873 C   0  0  0  0  0  0  0  0  0  0  0  0
   29.9632    8.8713   62.2243 N   0  3  0  0  0  0  0  0  0  0  0  0
  1  2  1  6  0  0  0
  1  3  1  0  0  0  0
  1 10  1  0  0  0  0
  3  4  1  6  0  0  0
  3  5  1  0  0  0  0
  5  6  1  1  0  0  0
  5  7  1  0  0  0  0
  7  8  1  6  0  0  0
  7  9  1  0  0  0  0
  9 10  1  0  0  0  0
  9 11  1  1  0  0  0
 11 12  1  0  0  0  0
 13 14  1  6  0  0  0
 13 15  1  0  0  0  0
 13 21  1  0  0  0  0
 15 16  1  0  0  0  0
 16 17  1  6  0  0  0
 16 18  1  0  0  0  0
 18  2  1  1  0  0  0
 18 19  1  0  0  0  0
 19 20  1  6  0  0  0
 19 21  1  0  0  0  0
 21 22  1  1  0  0  0
 23 20  1  6  0  0  0
 23 24  1  0  0  0  0
 23 29  1  0  0  0  0
 24 25  1  1  0  0  0
 24 26  1  0  0  0  0
 26 27  1  1  0  0  0
 26 28  1  0  0  0  0
 28 29  1  0  0  0  0
 28 30  1  6  0  0  0
 30 31  1  0  0  0  0
 32 27  1  6  0  0  0
 32 33  1  0  0  0  0
 32 40  1  0  0  0  0
 33 34  1  1  0  0  0
 33 35  1  0  0  0  0
 35 36  1  1  0  0  0
 35 37  1  0  0  0  0
 37 38  1  6  0  0  0
 37 39  1  0  0  0  0
 39 40  1  0  0  0  0
 39 41  1  1  0  0  0
 41 42  1  0  0  0  0
M  CHG  5   4   1  14   1  17   1  34   1  42   1
M  END
>  <CHROM.1>
175.11421527,39.03713562,-73.91234691,-58.82872686,60.15030141,-157.14707430
169.42341857,-71.06646610,-23.08377161,129.56120921,119.01426246,-67.24406545
178.59672972,-162.06429610,-72.10553615,-176.88072710,-64.49082765,56.19244297
55.96286840,67.63671000,69.00613490,98.08839696,29.93478069,6.10772105,56.10550645
-0.63177698,-1.07037447,1.62690429

>  <Name>
1j7t

>  <RI>
224

>  <Rbt.Current_Directory>
/home/itssahil/PROJECTS/Mol_Feturizer/New_Systems/rnas/1j7t

>  <Rbt.Executable>
rbdock ($Id: //depot/dev/client3/rdock/2013.1/src/exe/rbdock.cxx#4 $)

>  <Rbt.Library>
libRbt.so (2013.1, Build901 2013/11/27)

>  <Rbt.Parameter_File>
/export/apps/rDock/src/rDock_2013.1_src/data/scripts/dock_solv.prm

>  <Rbt.Receptor>
prm/pocket_docking_7.prm

>  <SCORE>
-39.2596

>  <SCORE.INTER>
-29.2011

>  <SCORE.INTER.CONST>
1

>  <SCORE.INTER.POLAR>
-6.50443

>  <SCORE.INTER.ROT>
9

>  <SCORE.INTER.SOLV>
18.5406

>  <SCORE.INTER.VDW>
-13.5662

>  <SCORE.INTER.norm>
-0.695265

>  <SCORE.INTRA>
-10.0585

>  <SCORE.INTRA.DIHEDRAL>
-18.6096

>  <SCORE.INTRA.DIHEDRAL.0>
46.2143

>  <SCORE.INTRA.POLAR>
0.411165

>  <SCORE.INTRA.POLAR.0>
-1.76436

>  <SCORE.INTRA.REPUL>
0.00338289

>  <SCORE.INTRA.REPUL.0>
0

>  <SCORE.INTRA.SOLV>
-2.40589

>  <SCORE.INTRA.SOLV.lig_0>
-148.643

>  <SCORE.INTRA.VDW>
-0.965645

>  <SCORE.INTRA.VDW.0>
-4.83512

>  <SCORE.INTRA.norm>
-0.239489

>  <SCORE.RESTR>
0

>  <SCORE.RESTR.CAVITY>
0

>  <SCORE.RESTR.norm>
0

>  <SCORE.SYSTEM>
0

>  <SCORE.SYSTEM.CONST>
0

>  <SCORE.SYSTEM.DIHEDRAL>
0

>  <SCORE.SYSTEM.SOLV>
0

>  <SCORE.SYSTEM.norm>
0

>  <SCORE.heavy>
42

>  <SCORE.norm>
-0.934753

>  <RMSD>
6.124

$$$$
1j7t
 OpenBabel11021811393D
libRbt.so/2013.1/901 2013/11/27
 42 45  0  0  0  0  0  0  0  0999 V2000
   31.9118    5.6596   56.0166 C   0  0  2  0  0  0  0  0  0  0  0  0
   31.1172    5.1877   54.8992 O   0  0  0  0  0  0  0  0  0  0  0  0
   33.0263    6.5699   55.4257 C   0  0  2  0  0  0  0  0  0  0  0  0
   32.5282    7.6643   54.5437 N   0  3  0  0  0  0  0  0  0  0  0  0
   33.9776    5.6831   54.5929 C   0  0  1  0  0  0  0  0  0  0  0  0
   35.0146    6.4488   54.0472 O   0  0  0  0  0  0  0  0  0  0  0  0
   34.5456    4.5434   55.4716 C   0  0  2  0  0  0  0  0  0  0  0  0
   35.4367    3.7313   54.7331 O   0  0  0  0  0  0  0  0  0  0  0  0
   33.4133    3.6870   55.9975 C   0  0  2  0  0  0  0  0  0  0  0  0
   32.4928    4.5079   56.7051 O   0  0  0  0  0  0  0  0  0  0  0  0
   33.8771    2.6186   56.9622 C   0  0  0  0  0  0  0  0  0  0  0  0
   32.8024    2.2430   57.8019 O   0  0  0  0  0  0  0  0  0  0  0  0
   27.6300    7.5198   54.4002 C   0  0  2  0  0  0  0  0  0  0  0  0
   26.2213    7.9112   54.3387 N   0  3  0  0  0  0  0  0  0  0  0  0
   27.9245    6.4156   53.3313 C   0  0  0  0  0  0  0  0  0  0  0  0
   29.3950    5.9657   53.4256 C   0  0  2  0  0  0  0  0  0  0  0  0
   29.6749    4.8923   52.4663 N   0  3  0  0  0  0  0  0  0  0  0  0
   29.7149    5.4750   54.8512 C   0  0  2  0  0  0  0  0  0  0  0  0
   29.4081    6.5338   55.9283 C   0  0  2  0  0  0  0  0  0  0  0  0
   29.6056    5.8803   57.1969 O   0  0  0  0  0  0  0  0  0  0  0  0
   27.9425    7.0216   55.8023 C   0  0  1  0  0  0  0  0  0  0  0  0
   27.7192    8.0528   56.7242 O   0  0  0  0  0  0  0  0  0  0  0  0
   29.5964    6.5678   58.4453 C   0  0  1  0  0  0  0  0  0  0  0  0
   29.1212    5.5705   59.5614 C   0  0  2  0  0  0  0  0  0  0  0  0
   27.7147    5.5252   59.7316 O   0  0  0  0  0  0  0  0  0  0  0  0
   29.8857    6.1703   60.7332 C   0  0  2  0  0  0  0  0  0  0  0  0
   29.3490    7.4775   61.0978 O   0  0  0  0  0  0  0  0  0  0  0  0
   31.2743    6.3894   60.1491 C   0  0  2  0  0  0  0  0  0  0  0  0
   30.9450    6.9234   58.8552 O   0  0  0  0  0  0  0  0  0  0  0  0
   32.1629    5.1052   60.0637 C   0  0  0  0  0  0  0  0  0  0  0  0
   31.4344    3.9920   59.5307 O   0  0  0  0  0  0  0  0  0  0  0  0
   27.9929    7.4459   61.5353 C   0  0  2  0  0  0  0  0  0  0  0  0
   27.6106    8.5642   62.5637 C   0  0  2  0  0  0  0  0  0  0  0  0
   28.4534    8.5312   63.7974 N   0  3  0  0  0  0  0  0  0  0  0  0
   26.0933    8.3781   62.8998 C   0  0  1  0  0  0  0  0  0  0  0  0
   25.3379    8.5977   61.6473 O   0  0  0  0  0  0  0  0  0  0  0  0
   25.7662    6.9323   63.4419 C   0  0  2  0  0  0  0  0  0  0  0  0
   26.4570    6.7443   64.6877 O   0  0  0  0  0  0  0  0  0  0  0  0
   26.2269    5.8799   62.3500 C   0  0  1  0  0  0  0  0  0  0  0  0
   27.6554    6.1010   62.0971 O   0  0  0  0  0  0  0  0  0  0  0  0
   25.9885    4.4036   62.7407 C   0  0  0  0  0  0  0  0  0  0  0  0
   26.2806    3.4456   61.6400 N   0  3  0  0  0  0  0  0  0  0  0  0
  1  2  1  6  0  0  0
  1  3  1  0  0  0  0
  1 10  1  0  0  0  0
  3  4  1  6  0  0  0
  3  5  1  0  0  0  0
  5  6  1  1  0  0  0
  5  7  1  0  0  0  0
  7  8  1  6  0  0  0
  7  9  1  0  0  0  0
  9 10  1  0  0  0  0
  9 11  1  1  0  0  0
 11 12  1  0  0  0  0
 13 14  1  1  0  0  0
 13 15  1  0  0  0  0
 13 21  1  0  0  0  0
 15 16  1  0  0  0  0
 16 17  1  6  0  0  0
 16 18  1  0  0  0  0
 18  2  1  6  0  0  0
 18 19  1  0  0  0  0
 19 20  1  1  0  0  0
 19 21  1  0  0  0  0
 21 22  1  1  0  0  0
 23 20  1  6  0  0  0
 23 24  1  0  0  0  0
 23 29  1  0  0  0  0
 24 25  1  1  0  0  0
 24 26  1  0  0  0  0
 26 27  1  6  0  0  0
 26 28  1  0  0  0  0
 28 29  1  0  0  0  0
 28 30  1  6  0  0  0
 30 31  1  0  0  0  0
 32 27  1  1  0  0  0
 32 33  1  0  0  0  0
 32 40  1  0  0  0  0
 33 34  1  1  0  0  0
 33 35  1  0  0  0  0
 35 36  1  6  0  0  0
 35 37  1  0  0  0  0
 37 38  1  1  0  0  0
 37 39  1  0  0  0  0
 39 40  1  0  0  0  0
 39 41  1  1  0  0  0
 41 42  1  0  0  0  0
M  CHG  5   4   1  14   1  17   1  34   1  42   1
M  END
>  <CHROM.1>
-120.95417208,133.94321813,51.60480055,71.32247879,-58.28616350,156.25088489
-152.67085813,37.67279136,-153.14523478,171.28731639,151.80611661,-60.34023638
60.61393647,62.23395129,150.61754980,45.74680558,101.81477517,-70.81563895
-175.71289848,-178.44480138,173.26442452,144.86243222,29.77812019,6.00784602
58.17471882,-0.87332382,-0.43517884,1.69875109

>  <Name>
1j7t

>  <RI>
0

>  <Rbt.Current_Directory>
/home/itssahil/PROJECTS/Mol_Feturizer/New_Systems/rnas/1j7t

>  <Rbt.Executable>
rbdock ($Id: //depot/dev/client3/rdock/2013.1/src/exe/rbdock.cxx#4 $)

>  <Rbt.Library>
libRbt.so (2013.1, Build901 2013/11/27)

>  <Rbt.Parameter_File>
/export/apps/rDock/src/rDock_2013.1_src/data/scripts/dock_solv.prm

>  <Rbt.Receptor>
prm/pocket_docking_6.prm

>  <SCORE>
-40.365

>  <SCORE.INTER>
-35.0765

>  <SCORE.INTER.CONST>
1

>  <SCORE.INTER.POLAR>
-6.30074

>  <SCORE.INTER.ROT>
9

>  <SCORE.INTER.SOLV>
19.4144

>  <SCORE.INTER.VDW>
-18.4533

>  <SCORE.INTER.norm>
-0.835155

>  <SCORE.INTRA>
-5.28848

>  <SCORE.INTRA.DIHEDRAL>
-7.53586

>  <SCORE.INTRA.DIHEDRAL.0>
46.2143

>  <SCORE.INTRA.POLAR>
-1.53675

>  <SCORE.INTRA.POLAR.0>
-1.76436

>  <SCORE.INTRA.REPUL>
0

>  <SCORE.INTRA.REPUL.0>
0

>  <SCORE.INTRA.SOLV>
-0.281676

>  <SCORE.INTRA.SOLV.lig_0>
-148.643

>  <SCORE.INTRA.VDW>
3.84525

>  <SCORE.INTRA.VDW.0>
-4.83512

>  <SCORE.INTRA.norm>
-0.125916

>  <SCORE.RESTR>
0

>  <SCORE.RESTR.CAVITY>
0

>  <SCORE.RESTR.norm>
0

>  <SCORE.SYSTEM>
0

>  <SCORE.SYSTEM.CONST>
0

>  <SCORE.SYSTEM.DIHEDRAL>
0

>  <SCORE.SYSTEM.SOLV>
0

>  <SCORE.SYSTEM.norm>
0

>  <SCORE.heavy>
42

>  <SCORE.norm>
-0.961071

>  <RMSD>
6.129

$$$$
1j7t
 OpenBabel11021811393D
libRbt.so/2013.1/901 2013/11/27
 42 45  0  0  0  0  0  0  0  0999 V2000
   25.6577    5.9781   53.7210 C   0  0  2  0  0  0  0  0  0  0  0  0
   27.0176    6.3285   53.3598 O   0  0  0  0  0  0  0  0  0  0  0  0
   25.4088    6.5460   55.1477 C   0  0  2  0  0  0  0  0  0  0  0  0
   25.7100    7.9988   55.2965 N   0  3  0  0  0  0  0  0  0  0  0  0
   26.3073    5.7700   56.1354 C   0  0  1  0  0  0  0  0  0  0  0  0
   26.1133    6.2288   57.4436 O   0  0  0  0  0  0  0  0  0  0  0  0
   26.0143    4.2539   56.0404 C   0  0  2  0  0  0  0  0  0  0  0  0
   26.8122    3.5261   56.9530 O   0  0  0  0  0  0  0  0  0  0  0  0
   26.2941    3.7635   54.6356 C   0  0  2  0  0  0  0  0  0  0  0  0
   25.5247    4.5220   53.7112 O   0  0  0  0  0  0  0  0  0  0  0  0
   25.9201    2.3128   54.4288 C   0  0  0  0  0  0  0  0  0  0  0  0
   26.2221    1.9330   53.1000 O   0  0  0  0  0  0  0  0  0  0  0  0
   29.0471    9.0332   50.8271 C   0  0  2  0  0  0  0  0  0  0  0  0
   29.4008   10.2543   50.1025 N   0  3  0  0  0  0  0  0  0  0  0  0
   27.6354    8.5332   50.3736 C   0  0  0  0  0  0  0  0  0  0  0  0
   27.2381    7.2752   51.1693 C   0  0  2  0  0  0  0  0  0  0  0  0
   25.8938    6.8237   50.7949 N   0  3  0  0  0  0  0  0  0  0  0  0
   27.2786    7.5635   52.6829 C   0  0  2  0  0  0  0  0  0  0  0  0
   28.6508    8.0842   53.1533 C   0  0  2  0  0  0  0  0  0  0  0  0
   28.4844    8.4519   54.5363 O   0  0  0  0  0  0  0  0  0  0  0  0
   29.0724    9.3209   52.3199 C   0  0  1  0  0  0  0  0  0  0  0  0
   30.3635    9.7127   52.6975 O   0  0  0  0  0  0  0  0  0  0  0  0
   29.1878    7.8261   55.6063 C   0  0  1  0  0  0  0  0  0  0  0  0
   30.3731    8.7608   56.0393 C   0  0  2  0  0  0  0  0  0  0  0  0
   31.5696    8.5481   55.3099 O   0  0  0  0  0  0  0  0  0  0  0  0
   30.4425    8.3632   57.5071 C   0  0  2  0  0  0  0  0  0  0  0  0
   30.9250    6.9944   57.6592 O   0  0  0  0  0  0  0  0  0  0  0  0
   28.9800    8.3854   57.9287 C   0  0  2  0  0  0  0  0  0  0  0  0
   28.3604    7.7469   56.7990 O   0  0  0  0  0  0  0  0  0  0  0  0
   28.3977    9.8089   58.2118 C   0  0  0  0  0  0  0  0  0  0  0  0
   28.3998   10.6255   57.0340 O   0  0  0  0  0  0  0  0  0  0  0  0
   30.8708    6.5059   58.9971 C   0  0  2  0  0  0  0  0  0  0  0  0
   32.1700    5.7764   59.4809 C   0  0  2  0  0  0  0  0  0  0  0  0
   32.5361    4.6109   58.6201 N   0  3  0  0  0  0  0  0  0  0  0  0
   31.9253    5.3404   60.9640 C   0  0  1  0  0  0  0  0  0  0  0  0
   31.7427    6.5747   61.7582 O   0  0  0  0  0  0  0  0  0  0  0  0
   30.6398    4.4390   61.1258 C   0  0  2  0  0  0  0  0  0  0  0  0
   30.8448    3.2162   60.3994 O   0  0  0  0  0  0  0  0  0  0  0  0
   29.3956    5.2498   60.5722 C   0  0  1  0  0  0  0  0  0  0  0  0
   29.6863    5.6104   59.1798 O   0  0  0  0  0  0  0  0  0  0  0  0
   28.0512    4.4909   60.6449 C   0  0  0  0  0  0  0  0  0  0  0  0
   27.4233    4.5271   61.9936 N   0  3  0  0  0  0  0  0  0  0  0  0
  1  2  1  1  0  0  0
  1  3  1  0  0  0  0
  1 10  1  0  0  0  0
  3  4  1  6  0  0  0
  3  5  1  0  0  0  0
  5  6  1  1  0  0  0
  5  7  1  0  0  0  0
  7  8  1  1  0  0  0
  7  9  1  0  0  0  0
  9 10  1  0  0  0  0
  9 11  1  1  0  0  0
 11 12  1  0  0  0  0
 13 14  1  6  0  0  0
 13 15  1  0  0  0  0
 13 21  1  0  0  0  0
 15 16  1  0  0  0  0
 16 17  1  6  0  0  0
 16 18  1  0  0  0  0
 18  2  1  1  0  0  0
 18 19  1  0  0  0  0
 19 20  1  1  0  0  0
 19 21  1  0  0  0  0
 21 22  1  1  0  0  0
 23 20  1  6  0  0  0
 23 24  1  0  0  0  0
 23 29  1  0  0  0  0
 24 25  1  6  0  0  0
 24 26  1  0  0  0  0
 26 27  1  6  0  0  0
 26 28  1  0  0  0  0
 28 29  1  0  0  0  0
 28 30  1  6  0  0  0
 30 31  1  0  0  0  0
 32 27  1  6  0  0  0
 32 33  1  0  0  0  0
 32 40  1  0  0  0  0
 33 34  1  6  0  0  0
 33 35  1  0  0  0  0
 35 36  1  1  0  0  0
 35 37  1  0  0  0  0
 37 38  1  6  0  0  0
 37 39  1  0  0  0  0
 39 40  1  0  0  0  0
 39 41  1  6  0  0  0
 41 42  1  0  0  0  0
M  CHG  5   4   1  14   1  17   1  34   1  42   1
M  END
>  <CHROM.1>
-90.25205165,-91.83842260,157.93855239,-169.52579660,-61.56267711,-179.52781974
69.58918148,-153.93395995,-58.07048222,117.30412666,101.22534507,-55.68495917
155.09815266,-173.25354074,-133.68318160,63.48453159,70.47127796,-150.58132481
-34.04740251,105.18589972,80.48230278,96.32424038,28.53116736,6.59953432
56.06867719,2.01947702,-0.78207988,-0.96313122

>  <Name>
1j7t

>  <RI>
224

>  <Rbt.Current_Directory>
/home/itssahil/PROJECTS/Mol_Feturizer/New_Systems/rnas/1j7t

>  <Rbt.Executable>
rbdock ($Id: //depot/dev/client3/rdock/2013.1/src/exe/rbdock.cxx#4 $)

>  <Rbt.Library>
libRbt.so (2013.1, Build901 2013/11/27)

>  <Rbt.Parameter_File>
/export/apps/rDock/src/rDock_2013.1_src/data/scripts/dock_solv.prm

>  <Rbt.Receptor>
prm/pocket_docking_7.prm

>  <SCORE>
-32.1847

>  <SCORE.INTER>
-30.1915

>  <SCORE.INTER.CONST>
1

>  <SCORE.INTER.POLAR>
-4.57103

>  <SCORE.INTER.ROT>
9

>  <SCORE.INTER.SOLV>
34.7977

>  <SCORE.INTER.VDW>
-26.0901

>  <SCORE.INTER.norm>
-0.718845

>  <SCORE.INTRA>
-1.99326

>  <SCORE.INTRA.DIHEDRAL>
2.23482

>  <SCORE.INTRA.DIHEDRAL.0>
46.2143

>  <SCORE.INTRA.POLAR>
-0.285832

>  <SCORE.INTRA.POLAR.0>
-1.76436

>  <SCORE.INTRA.REPUL>
0.0126948

>  <SCORE.INTRA.REPUL.0>
0

>  <SCORE.INTRA.SOLV>
0.287765

>  <SCORE.INTRA.SOLV.lig_0>
-148.643

>  <SCORE.INTRA.VDW>
-2.3462

>  <SCORE.INTRA.VDW.0>
-4.83512

>  <SCORE.INTRA.norm>
-0.0474585

>  <SCORE.RESTR>
0

>  <SCORE.RESTR.CAVITY>
0

>  <SCORE.RESTR.norm>
0

>  <SCORE.SYSTEM>
0

>  <SCORE.SYSTEM.CONST>
0

>  <SCORE.SYSTEM.DIHEDRAL>
0

>  <SCORE.SYSTEM.SOLV>
0

>  <SCORE.SYSTEM.norm>
0

>  <SCORE.heavy>
42

>  <SCORE.norm>
-0.766304

>  <RMSD>
6.145

$$$$
1j7t
 OpenBabel11021811393D
libRbt.so/2013.1/901 2013/11/27
 42 45  0  0  0  0  0  0  0  0999 V2000
   31.5695    4.2945   56.1489 C   0  0  2  0  0  0  0  0  0  0  0  0
   32.6428    4.7985   55.3143 O   0  0  0  0  0  0  0  0  0  0  0  0
   32.2348    3.4997   57.3090 C   0  0  2  0  0  0  0  0  0  0  0  0
   33.2714    4.2598   58.0648 N   0  3  0  0  0  0  0  0  0  0  0  0
   32.9077    2.2469   56.7070 C   0  0  1  0  0  0  0  0  0  0  0  0
   33.5118    1.4809   57.7109 O   0  0  0  0  0  0  0  0  0  0  0  0
   31.8658    1.4058   55.9320 C   0  0  2  0  0  0  0  0  0  0  0  0
   32.4574    0.2415   55.3901 O   0  0  0  0  0  0  0  0  0  0  0  0
   31.2727    2.2299   54.8090 C   0  0  2  0  0  0  0  0  0  0  0  0
   30.7140    3.4222   55.3457 O   0  0  0  0  0  0  0  0  0  0  0  0
   30.1589    1.5171   54.0752 C   0  0  0  0  0  0  0  0  0  0  0  0
   29.6930    2.3334   53.0180 O   0  0  0  0  0  0  0  0  0  0  0  0
   32.9583    8.1643   52.7805 C   0  0  2  0  0  0  0  0  0  0  0  0
   32.7134    9.1010   51.6832 N   0  3  0  0  0  0  0  0  0  0  0  0
   33.4128    6.7802   52.2095 C   0  0  0  0  0  0  0  0  0  0  0  0
   33.6245    5.7765   53.3591 C   0  0  2  0  0  0  0  0  0  0  0  0
   33.9991    4.4577   52.8382 N   0  3  0  0  0  0  0  0  0  0  0  0
   32.3404    5.6486   54.2019 C   0  0  2  0  0  0  0  0  0  0  0  0
   31.8537    7.0023   54.7549 C   0  0  2  0  0  0  0  0  0  0  0  0
   30.5799    6.7440   55.3763 O   0  0  0  0  0  0  0  0  0  0  0  0
   31.6873    8.0263   53.6036 C   0  0  1  0  0  0  0  0  0  0  0  0
   31.3427    9.2730   54.1420 O   0  0  0  0  0  0  0  0  0  0  0  0
   30.1373    7.3969   56.5633 C   0  0  1  0  0  0  0  0  0  0  0  0
   28.5697    7.4833   56.5313 C   0  0  2  0  0  0  0  0  0  0  0  0
   28.0702    8.6359   55.8747 O   0  0  0  0  0  0  0  0  0  0  0  0
   28.3160    7.4446   58.0318 C   0  0  2  0  0  0  0  0  0  0  0  0
   28.7796    8.6695   58.6756 O   0  0  0  0  0  0  0  0  0  0  0  0
   29.2202    6.3107   58.4944 C   0  0  2  0  0  0  0  0  0  0  0  0
   30.4119    6.5861   57.7383 O   0  0  0  0  0  0  0  0  0  0  0  0
   28.6596    4.8739   58.2354 C   0  0  0  0  0  0  0  0  0  0  0  0
   29.3132    3.8954   59.0534 O   0  0  0  0  0  0  0  0  0  0  0  0
   28.0988    8.9802   59.8886 C   0  0  2  0  0  0  0  0  0  0  0  0
   28.7025   10.1847   60.6880 C   0  0  2  0  0  0  0  0  0  0  0  0
   30.1381    9.9804   61.0496 N   0  3  0  0  0  0  0  0  0  0  0  0
   27.8125   10.3822   61.9602 C   0  0  1  0  0  0  0  0  0  0  0  0
   26.4569   10.7458   61.4934 O   0  0  0  0  0  0  0  0  0  0  0  0
   27.7122    9.0743   62.8380 C   0  0  2  0  0  0  0  0  0  0  0  0
   29.0220    8.7569   63.3363 O   0  0  0  0  0  0  0  0  0  0  0  0
   27.1323    7.9130   61.9285 C   0  0  1  0  0  0  0  0  0  0  0  0
   28.0207    7.7731   60.7690 O   0  0  0  0  0  0  0  0  0  0  0  0
   26.9881    6.5498   62.6427 C   0  0  0  0  0  0  0  0  0  0  0  0
   26.4651    6.6617   64.0315 N   0  3  0  0  0  0  0  0  0  0  0  0
  1  2  1  6  0  0  0
  1  3  1  0  0  0  0
  1 10  1  0  0  0  0
  3  4  1  6  0  0  0
  3  5  1  0  0  0  0
  5  6  1  1  0  0  0
  5  7  1  0  0  0  0
  7  8  1  6  0  0  0
  7  9  1  0  0  0  0
  9 10  1  0  0  0  0
  9 11  1  1  0  0  0
 11 12  1  0  0  0  0
 13 14  1  6  0  0  0
 13 15  1  0  0  0  0
 13 21  1  0  0  0  0
 15 16  1  0  0  0  0
 16 17  1  6  0  0  0
 16 18  1  0  0  0  0
 18  2  1  1  0  0  0
 18 19  1  0  0  0  0
 19 20  1  6  0  0  0
 19 21  1  0  0  0  0
 21 22  1  1  0  0  0
 23 20  1  6  0  0  0
 23 24  1  0  0  0  0
 23 29  1  0  0  0  0
 24 25  1  1  0  0  0
 24 26  1  0  0  0  0
 26 27  1  1  0  0  0
 26 28  1  0  0  0  0
 28 29  1  0  0  0  0
 28 30  1  6  0  0  0
 30 31  1  0  0  0  0
 32 27  1  6  0  0  0
 32 33  1  0  0  0  0
 32 40  1  0  0  0  0
 33 34  1  1  0  0  0
 33 35  1  0  0  0  0
 35 36  1  6  0  0  0
 35 37  1  0  0  0  0
 37 38  1  6  0  0  0
 37 39  1  0  0  0  0
 39 40  1  0  0  0  0
 39 41  1  1  0  0  0
 41 42  1  0  0  0  0
M  CHG  5   4   1  14   1  17   1  34   1  42   1
M  END
>  <CHROM.1>
-176.05256371,-168.65986936,172.05520101,3.82086290,-62.66155759,-178.02120975
-174.44629806,-78.49664848,-56.34889912,143.79651316,150.53934445,174.46956586
-55.14896508,154.06899632,172.50662036,-161.09779364,-60.69689325,-61.35178873
55.12768207,175.55354372,41.29893171,154.71306402,30.35923967,6.20280401
57.27159618,0.12713217,-1.08499289,2.74239213

>  <Name>
1j7t

>  <RI>
0

>  <Rbt.Current_Directory>
/home/itssahil/PROJECTS/Mol_Feturizer/New_Systems/rnas/1j7t

>  <Rbt.Executable>
rbdock ($Id: //depot/dev/client3/rdock/2013.1/src/exe/rbdock.cxx#4 $)

>  <Rbt.Library>
libRbt.so (2013.1, Build901 2013/11/27)

>  <Rbt.Parameter_File>
/export/apps/rDock/src/rDock_2013.1_src/data/scripts/dock_solv.prm

>  <Rbt.Receptor>
prm/pocket_docking_8.prm

>  <SCORE>
-36.289

>  <SCORE.INTER>
-26.3884

>  <SCORE.INTER.CONST>
1

>  <SCORE.INTER.POLAR>
-5.31222

>  <SCORE.INTER.ROT>
9

>  <SCORE.INTER.SOLV>
19.4497

>  <SCORE.INTER.VDW>
-15.9681

>  <SCORE.INTER.norm>
-0.628296

>  <SCORE.INTRA>
-9.90059

>  <SCORE.INTRA.DIHEDRAL>
-21.2912

>  <SCORE.INTRA.DIHEDRAL.0>
46.2143

>  <SCORE.INTRA.POLAR>
1.12302

>  <SCORE.INTRA.POLAR.0>
-1.76436

>  <SCORE.INTRA.REPUL>
0

>  <SCORE.INTRA.REPUL.0>
0

>  <SCORE.INTRA.SOLV>
-4.76963

>  <SCORE.INTRA.SOLV.lig_0>
-148.643

>  <SCORE.INTRA.VDW>
-0.688472

>  <SCORE.INTRA.VDW.0>
-4.83512

>  <SCORE.INTRA.norm>
-0.235728

>  <SCORE.RESTR>
0

>  <SCORE.RESTR.CAVITY>
0

>  <SCORE.RESTR.norm>
0

>  <SCORE.SYSTEM>
0

>  <SCORE.SYSTEM.CONST>
0

>  <SCORE.SYSTEM.DIHEDRAL>
0

>  <SCORE.SYSTEM.SOLV>
0

>  <SCORE.SYSTEM.norm>
0

>  <SCORE.heavy>
42

>  <SCORE.norm>
-0.864024

>  <RMSD>
6.147

$$$$
1j7t
 OpenBabel11021811393D
libRbt.so/2013.1/901 2013/11/27
 42 45  0  0  0  0  0  0  0  0999 V2000
   32.1774    3.6820   54.2379 C   0  0  2  0  0  0  0  0  0  0  0  0
   33.1881    4.6681   53.9085 O   0  0  0  0  0  0  0  0  0  0  0  0
   32.3462    3.3495   55.7482 C   0  0  2  0  0  0  0  0  0  0  0  0
   32.3353    4.5384   56.6482 N   0  3  0  0  0  0  0  0  0  0  0  0
   33.6984    2.6264   55.9312 C   0  0  1  0  0  0  0  0  0  0  0  0
   33.8982    2.2866   57.2744 O   0  0  0  0  0  0  0  0  0  0  0  0
   33.7510    1.3655   55.0362 C   0  0  2  0  0  0  0  0  0  0  0  0
   34.9738    0.6760   55.2049 O   0  0  0  0  0  0  0  0  0  0  0  0
   33.6003    1.7605   53.5825 C   0  0  2  0  0  0  0  0  0  0  0  0
   32.3916    2.4911   53.4170 O   0  0  0  0  0  0  0  0  0  0  0  0
   33.5238    0.5721   52.6503 C   0  0  0  0  0  0  0  0  0  0  0  0
   32.3337   -0.1497   52.9035 O   0  0  0  0  0  0  0  0  0  0  0  0
   33.1363    8.6894   52.6142 C   0  0  2  0  0  0  0  0  0  0  0  0
   32.8361    9.8908   51.8346 N   0  3  0  0  0  0  0  0  0  0  0  0
   33.8913    7.6490   51.7221 C   0  0  0  0  0  0  0  0  0  0  0  0
   34.1661    6.3631   52.5251 C   0  0  2  0  0  0  0  0  0  0  0  0
   34.8260    5.3559   51.6879 N   0  3  0  0  0  0  0  0  0  0  0  0
   32.8489    5.7856   53.0791 C   0  0  2  0  0  0  0  0  0  0  0  0
   32.0698    6.7990   53.9400 C   0  0  2  0  0  0  0  0  0  0  0  0
   30.8087    6.1741   54.2475 O   0  0  0  0  0  0  0  0  0  0  0  0
   31.8358    8.1108   53.1486 C   0  0  1  0  0  0  0  0  0  0  0  0
   31.2166    9.0491   53.9847 O   0  0  0  0  0  0  0  0  0  0  0  0
   29.8536    6.7314   55.1465 C   0  0  1  0  0  0  0  0  0  0  0  0
   28.4693    6.0313   54.9020 C   0  0  2  0  0  0  0  0  0  0  0  0
   27.6816    6.6487   53.8983 O   0  0  0  0  0  0  0  0  0  0  0  0
   27.9103    6.1492   56.3130 C   0  0  2  0  0  0  0  0  0  0  0  0
   27.6123    7.5383   56.6466 O   0  0  0  0  0  0  0  0  0  0  0  0
   29.0853    5.7104   57.1756 C   0  0  2  0  0  0  0  0  0  0  0  0
   30.1717    6.3903   56.5234 O   0  0  0  0  0  0  0  0  0  0  0  0
   29.3022    4.1637   57.2555 C   0  0  0  0  0  0  0  0  0  0  0  0
   30.2242    3.8115   58.2947 O   0  0  0  0  0  0  0  0  0  0  0  0
   26.8026    7.6944   57.8092 C   0  0  2  0  0  0  0  0  0  0  0  0
   25.4363    6.9294   57.7629 C   0  0  2  0  0  0  0  0  0  0  0  0
   24.5867    7.3281   56.5998 N   0  3  0  0  0  0  0  0  0  0  0  0
   24.7120    7.2027   59.1232 C   0  0  1  0  0  0  0  0  0  0  0  0
   25.5534    6.6204   60.1912 O   0  0  0  0  0  0  0  0  0  0  0  0
   24.5236    8.7433   59.4100 C   0  0  2  0  0  0  0  0  0  0  0  0
   23.6593    9.2933   58.4024 O   0  0  0  0  0  0  0  0  0  0  0  0
   25.9535    9.4267   59.3943 C   0  0  1  0  0  0  0  0  0  0  0  0
   26.5648    9.1445   58.0905 O   0  0  0  0  0  0  0  0  0  0  0  0
   25.9387   10.9519   59.6444 C   0  0  0  0  0  0  0  0  0  0  0  0
   24.9873   11.6862   58.7668 N   0  3  0  0  0  0  0  0  0  0  0  0
  1  2  1  6  0  0  0
  1  3  1  0  0  0  0
  1 10  1  0  0  0  0
  3  4  1  1  0  0  0
  3  5  1  0  0  0  0
  5  6  1  1  0  0  0
  5  7  1  0  0  0  0
  7  8  1  6  0  0  0
  7  9  1  0  0  0  0
  9 10  1  0  0  0  0
  9 11  1  6  0  0  0
 11 12  1  0  0  0  0
 13 14  1  6  0  0  0
 13 15  1  0  0  0  0
 13 21  1  0  0  0  0
 15 16  1  0  0  0  0
 16 17  1  6  0  0  0
 16 18  1  0  0  0  0
 18  2  1  1  0  0  0
 18 19  1  0  0  0  0
 19 20  1  6  0  0  0
 19 21  1  0  0  0  0
 21 22  1  1  0  0  0
 23 20  1  6  0  0  0
 23 24  1  0  0  0  0
 23 29  1  0  0  0  0
 24 25  1  6  0  0  0
 24 26  1  0  0  0  0
 26 27  1  1  0  0  0
 26 28  1  0  0  0  0
 28 29  1  0  0  0  0
 28 30  1  6  0  0  0
 30 31  1  0  0  0  0
 32 27  1  6  0  0  0
 32 33  1  0  0  0  0
 32 40  1  0  0  0  0
 33 34  1  6  0  0  0
 33 35  1  0  0  0  0
 35 36  1  1  0  0  0
 35 37  1  0  0  0  0
 37 38  1  6  0  0  0
 37 39  1  0  0  0  0
 39 40  1  0  0  0  0
 39 41  1  6  0  0  0
 41 42  1  0  0  0  0
M  CHG  5   4   1  14   1  17   1  34   1  42   1
M  END
>  <CHROM.1>
-137.30347686,-161.19170503,154.08981739,-139.28585088,-65.30066991,66.07663388
101.58355144,-158.74047697,43.65526567,173.12688617,163.01467343,163.42082056
59.35076465,165.91501734,-56.05837550,-167.45376804,61.11515125,-150.31099024
-175.41846933,50.73174745,-51.17506348,-105.54863700,30.10108698,5.95528592
55.64112808,0.27978420,-0.67595522,2.71827588

>  <Name>
1j7t

>  <RI>
0

>  <Rbt.Current_Directory>
/home/itssahil/PROJECTS/Mol_Feturizer/New_Systems/rnas/1j7t

>  <Rbt.Executable>
rbdock ($Id: //depot/dev/client3/rdock/2013.1/src/exe/rbdock.cxx#4 $)

>  <Rbt.Library>
libRbt.so (2013.1, Build901 2013/11/27)

>  <Rbt.Parameter_File>
/export/apps/rDock/src/rDock_2013.1_src/data/scripts/dock_solv.prm

>  <Rbt.Receptor>
prm/pocket_docking_8.prm

>  <SCORE>
-52.0314

>  <SCORE.INTER>
-42.5801

>  <SCORE.INTER.CONST>
1

>  <SCORE.INTER.POLAR>
-8.4398

>  <SCORE.INTER.ROT>
9

>  <SCORE.INTER.SOLV>
26.5172

>  <SCORE.INTER.VDW>
-18.6931

>  <SCORE.INTER.norm>
-1.01381

>  <SCORE.INTRA>
-9.45124

>  <SCORE.INTRA.DIHEDRAL>
-13.6265

>  <SCORE.INTRA.DIHEDRAL.0>
46.2143

>  <SCORE.INTRA.POLAR>
-1.18487

>  <SCORE.INTRA.POLAR.0>
-1.76436

>  <SCORE.INTRA.REPUL>
0.0339051

>  <SCORE.INTRA.REPUL.0>
0

>  <SCORE.INTRA.SOLV>
4.07542

>  <SCORE.INTRA.SOLV.lig_0>
-148.643

>  <SCORE.INTRA.VDW>
-0.816692

>  <SCORE.INTRA.VDW.0>
-4.83512

>  <SCORE.INTRA.norm>
-0.22503

>  <SCORE.RESTR>
0

>  <SCORE.RESTR.CAVITY>
0

>  <SCORE.RESTR.norm>
0

>  <SCORE.SYSTEM>
0

>  <SCORE.SYSTEM.CONST>
0

>  <SCORE.SYSTEM.DIHEDRAL>
0

>  <SCORE.SYSTEM.SOLV>
0

>  <SCORE.SYSTEM.norm>
0

>  <SCORE.heavy>
42

>  <SCORE.norm>
-1.23884

>  <RMSD>
6.156

$$$$
1j7t
 OpenBabel11021811393D
libRbt.so/2013.1/901 2013/11/27
 42 45  0  0  0  0  0  0  0  0999 V2000
   28.8817    7.0300   55.4352 C   0  0  2  0  0  0  0  0  0  0  0  0
   30.0691    7.7754   55.8054 O   0  0  0  0  0  0  0  0  0  0  0  0
   27.7293    8.0637   55.2818 C   0  0  2  0  0  0  0  0  0  0  0  0
   28.0332    9.1969   54.3615 N   0  3  0  0  0  0  0  0  0  0  0  0
   27.4247    8.6519   56.6769 C   0  0  1  0  0  0  0  0  0  0  0  0
   26.3800    9.5807   56.6033 O   0  0  0  0  0  0  0  0  0  0  0  0
   27.0753    7.5156   57.6670 C   0  0  2  0  0  0  0  0  0  0  0  0
   26.7718    8.0349   58.9466 O   0  0  0  0  0  0  0  0  0  0  0  0
   28.2426    6.5586   57.7837 C   0  0  2  0  0  0  0  0  0  0  0  0
   28.5779    6.0667   56.4924 O   0  0  0  0  0  0  0  0  0  0  0  0
   27.9372    5.3535   58.6448 C   0  0  0  0  0  0  0  0  0  0  0  0
   27.7679    5.7645   59.9878 O   0  0  0  0  0  0  0  0  0  0  0  0
   32.4430    4.5844   57.2302 C   0  0  2  0  0  0  0  0  0  0  0  0
   33.6083    3.7950   57.6308 N   0  3  0  0  0  0  0  0  0  0  0  0
   32.5315    4.9316   55.7070 C   0  0  0  0  0  0  0  0  0  0  0  0
   31.3313    5.8040   55.2920 C   0  0  2  0  0  0  0  0  0  0  0  0
   31.4262    6.1839   53.8786 N   0  3  0  0  0  0  0  0  0  0  0  0
   31.2670    7.0753   56.1610 C   0  0  2  0  0  0  0  0  0  0  0  0
   31.2070    6.7634   57.6691 C   0  0  2  0  0  0  0  0  0  0  0  0
   31.3100    8.0326   58.3428 O   0  0  0  0  0  0  0  0  0  0  0  0
   32.3875    5.8459   58.0770 C   0  0  1  0  0  0  0  0  0  0  0  0
   32.2539    5.4959   59.4270 O   0  0  0  0  0  0  0  0  0  0  0  0
   30.2245    8.6472   59.0321 C   0  0  1  0  0  0  0  0  0  0  0  0
   30.8036    9.4999   60.2169 C   0  0  2  0  0  0  0  0  0  0  0  0
   30.9760    8.7709   61.4201 O   0  0  0  0  0  0  0  0  0  0  0  0
   29.7210   10.5688   60.2691 C   0  0  2  0  0  0  0  0  0  0  0  0
   28.4572   10.0148   60.7441 O   0  0  0  0  0  0  0  0  0  0  0  0
   29.5411   10.9341   58.8023 C   0  0  2  0  0  0  0  0  0  0  0  0
   29.5634    9.6323   58.1920 O   0  0  0  0  0  0  0  0  0  0  0  0
   30.6342   11.8911   58.2233 C   0  0  0  0  0  0  0  0  0  0  0  0
   30.4218   13.2475   58.6344 O   0  0  0  0  0  0  0  0  0  0  0  0
   28.1688   10.3143   62.1074 C   0  0  2  0  0  0  0  0  0  0  0  0
   28.5063    9.1641   63.1160 C   0  0  2  0  0  0  0  0  0  0  0  0
   27.7916    7.8894   62.8032 N   0  3  0  0  0  0  0  0  0  0  0  0
   28.1460    9.6883   64.5460 C   0  0  1  0  0  0  0  0  0  0  0  0
   29.0263   10.8443   64.8226 O   0  0  0  0  0  0  0  0  0  0  0  0
   26.6432   10.1578   64.6579 C   0  0  2  0  0  0  0  0  0  0  0  0
   25.7920    9.0199   64.4450 O   0  0  0  0  0  0  0  0  0  0  0  0
   26.3969   11.2869   63.5733 C   0  0  1  0  0  0  0  0  0  0  0  0
   26.7380   10.7233   62.2621 O   0  0  0  0  0  0  0  0  0  0  0  0
   24.9554   11.8439   63.5428 C   0  0  0  0  0  0  0  0  0  0  0  0
   24.7104   12.9073   64.5546 N   0  3  0  0  0  0  0  0  0  0  0  0
  1  2  1  1  0  0  0
  1  3  1  0  0  0  0
  1 10  1  0  0  0  0
  3  4  1  6  0  0  0
  3  5  1  0  0  0  0
  5  6  1  6  0  0  0
  5  7  1  0  0  0  0
  7  8  1  1  0  0  0
  7  9  1  0  0  0  0
  9 10  1  0  0  0  0
  9 11  1  1  0  0  0
 11 12  1  0  0  0  0
 13 14  1  1  0  0  0
 13 15  1  0  0  0  0
 13 21  1  0  0  0  0
 15 16  1  0  0  0  0
 16 17  1  6  0  0  0
 16 18  1  0  0  0  0
 18  2  1  6  0  0  0
 18 19  1  0  0  0  0
 19 20  1  1  0  0  0
 19 21  1  0  0  0  0
 21 22  1  1  0  0  0
 23 20  1  6  0  0  0
 23 24  1  0  0  0  0
 23 29  1  0  0  0  0
 24 25  1  1  0  0  0
 24 26  1  0  0  0  0
 26 27  1  6  0  0  0
 26 28  1  0  0  0  0
 28 29  1  0  0  0  0
 28 30  1  6  0  0  0
 30 31  1  0  0  0  0
 32 27  1  6  0  0  0
 32 33  1  0  0  0  0
 32 40  1  0  0  0  0
 33 34  1  6  0  0  0
 33 35  1  0  0  0  0
 35 36  1  6  0  0  0
 35 37  1  0  0  0  0
 37 38  1  6  0  0  0
 37 39  1  0  0  0  0
 39 40  1  0  0  0  0
 39 41  1  6  0  0  0
 41 42  1  0  0  0  0
M  CHG  5   4   1  14   1  17   1  34   1  42   1
M  END
>  <CHROM.1>
173.19491581,34.58850697,32.52571133,60.61455545,43.87258452,-67.40882903
-60.26142362,-54.52011574,-33.25864750,109.16786921,149.60336160,176.88846270
-44.14653688,102.03296692,-99.13191305,-77.16420022,60.32213284,31.07543149
-59.73450818,-173.28928469,83.41914158,-70.99134126,29.07018415,8.47102931
59.29062037,0.92851185,0.78742075,-1.63969968

>  <Name>
1j7t

>  <RI>
0

>  <Rbt.Current_Directory>
/home/itssahil/PROJECTS/Mol_Feturizer/New_Systems/rnas/1j7t

>  <Rbt.Executable>
rbdock ($Id: //depot/dev/client3/rdock/2013.1/src/exe/rbdock.cxx#4 $)

>  <Rbt.Library>
libRbt.so (2013.1, Build901 2013/11/27)

>  <Rbt.Parameter_File>
/export/apps/rDock/src/rDock_2013.1_src/data/scripts/dock_solv.prm

>  <Rbt.Receptor>
prm/pocket_docking_8.prm

>  <SCORE>
-38.8379

>  <SCORE.INTER>
-34.3545

>  <SCORE.INTER.CONST>
1

>  <SCORE.INTER.POLAR>
-6.20781

>  <SCORE.INTER.ROT>
9

>  <SCORE.INTER.SOLV>
23.0958

>  <SCORE.INTER.VDW>
-19.5089

>  <SCORE.INTER.norm>
-0.817963

>  <SCORE.INTRA>
-4.48342

>  <SCORE.INTRA.DIHEDRAL>
-11.1597

>  <SCORE.INTRA.DIHEDRAL.0>
46.2143

>  <SCORE.INTRA.POLAR>
0.833214

>  <SCORE.INTRA.POLAR.0>
-1.76436

>  <SCORE.INTRA.REPUL>
0.22904

>  <SCORE.INTRA.REPUL.0>
0

>  <SCORE.INTRA.SOLV>
-1.40164

>  <SCORE.INTRA.SOLV.lig_0>
-148.643

>  <SCORE.INTRA.VDW>
-2.18087

>  <SCORE.INTRA.VDW.0>
-4.83512

>  <SCORE.INTRA.norm>
-0.106748

>  <SCORE.RESTR>
0

>  <SCORE.RESTR.CAVITY>
0

>  <SCORE.RESTR.norm>
0

>  <SCORE.SYSTEM>
0

>  <SCORE.SYSTEM.CONST>
0

>  <SCORE.SYSTEM.DIHEDRAL>
0

>  <SCORE.SYSTEM.SOLV>
0

>  <SCORE.SYSTEM.norm>
0

>  <SCORE.heavy>
42

>  <SCORE.norm>
-0.924711

>  <RMSD>
6.159

$$$$
1j7t
 OpenBabel11021811393D
libRbt.so/2013.1/901 2013/11/27
 42 45  0  0  0  0  0  0  0  0999 V2000
   29.3888    6.1184   56.4341 C   0  0  2  0  0  0  0  0  0  0  0  0
   29.5733    7.2700   55.5725 O   0  0  0  0  0  0  0  0  0  0  0  0
   29.7104    6.5828   57.8836 C   0  0  2  0  0  0  0  0  0  0  0  0
   28.9540    7.7883   58.3290 N   0  3  0  0  0  0  0  0  0  0  0  0
   31.2173    6.9121   57.9578 C   0  0  1  0  0  0  0  0  0  0  0  0
   31.5697    7.3221   59.2490 O   0  0  0  0  0  0  0  0  0  0  0  0
   32.0510    5.6811   57.5300 C   0  0  2  0  0  0  0  0  0  0  0  0
   33.4358    5.9547   57.6115 O   0  0  0  0  0  0  0  0  0  0  0  0
   31.7042    5.2944   56.1080 C   0  0  2  0  0  0  0  0  0  0  0  0
   30.3050    5.0595   56.0129 O   0  0  0  0  0  0  0  0  0  0  0  0
   32.3921    4.0264   55.6541 C   0  0  0  0  0  0  0  0  0  0  0  0
   31.9451    2.9397   56.4419 O   0  0  0  0  0  0  0  0  0  0  0  0
   28.3060    8.4922   51.7321 C   0  0  2  0  0  0  0  0  0  0  0  0
   27.9962    8.4690   50.3021 N   0  3  0  0  0  0  0  0  0  0  0  0
   29.8373    8.2557   51.9505 C   0  0  0  0  0  0  0  0  0  0  0  0
   30.1599    8.2307   53.4568 C   0  0  2  0  0  0  0  0  0  0  0  0
   31.5831    7.9564   53.6813 N   0  3  0  0  0  0  0  0  0  0  0  0
   29.3128    7.1576   54.1685 C   0  0  2  0  0  0  0  0  0  0  0  0
   27.7998    7.3501   53.9475 C   0  0  2  0  0  0  0  0  0  0  0  0
   27.1621    6.1982   54.5323 O   0  0  0  0  0  0  0  0  0  0  0  0
   27.4816    7.4238   52.4325 C   0  0  1  0  0  0  0  0  0  0  0  0
   26.1187    7.6991   52.2608 O   0  0  0  0  0  0  0  0  0  0  0  0
   26.5695    6.2010   55.8284 C   0  0  1  0  0  0  0  0  0  0  0  0
   25.0465    6.5545   55.6807 C   0  0  2  0  0  0  0  0  0  0  0  0
   24.7738    7.9452   55.7028 O   0  0  0  0  0  0  0  0  0  0  0  0
   24.5235    5.7835   56.8846 C   0  0  2  0  0  0  0  0  0  0  0  0
   24.9655    6.3950   58.1337 O   0  0  0  0  0  0  0  0  0  0  0  0
   25.2294    4.4411   56.7541 C   0  0  2  0  0  0  0  0  0  0  0  0
   26.5572    4.8643   56.3997 O   0  0  0  0  0  0  0  0  0  0  0  0
   24.6048    3.4682   55.7010 C   0  0  0  0  0  0  0  0  0  0  0  0
   23.2781    3.0705   56.0693 O   0  0  0  0  0  0  0  0  0  0  0  0
   24.8441    5.5440   59.2706 C   0  0  2  0  0  0  0  0  0  0  0  0
   23.3880    5.0447   59.5621 C   0  0  2  0  0  0  0  0  0  0  0  0
   22.4204    6.1649   59.7676 N   0  3  0  0  0  0  0  0  0  0  0  0
   23.4656    4.1151   60.8189 C   0  0  1  0  0  0  0  0  0  0  0  0
   24.3077    2.9554   60.4536 O   0  0  0  0  0  0  0  0  0  0  0  0
   24.1098    4.8361   62.0664 C   0  0  2  0  0  0  0  0  0  0  0  0
   23.2588    5.9275   62.4532 O   0  0  0  0  0  0  0  0  0  0  0  0
   25.5563    5.3363   61.6547 C   0  0  1  0  0  0  0  0  0  0  0  0
   25.4063    6.2109   60.4861 O   0  0  0  0  0  0  0  0  0  0  0  0
   26.3187    6.0843   62.7719 C   0  0  0  0  0  0  0  0  0  0  0  0
   27.4747    6.8765   62.2712 N   0  3  0  0  0  0  0  0  0  0  0  0
  1  2  1  6  0  0  0
  1  3  1  0  0  0  0
  1 10  1  0  0  0  0
  3  4  1  6  0  0  0
  3  5  1  0  0  0  0
  5  6  1  1  0  0  0
  5  7  1  0  0  0  0
  7  8  1  6  0  0  0
  7  9  1  0  0  0  0
  9 10  1  0  0  0  0
  9 11  1  1  0  0  0
 11 12  1  0  0  0  0
 13 14  1  6  0  0  0
 13 15  1  0  0  0  0
 13 21  1  0  0  0  0
 15 16  1  0  0  0  0
 16 17  1  6  0  0  0
 16 18  1  0  0  0  0
 18  2  1  1  0  0  0
 18 19  1  0  0  0  0
 19 20  1  6  0  0  0
 19 21  1  0  0  0  0
 21 22  1  1  0  0  0
 23 20  1  6  0  0  0
 23 24  1  0  0  0  0
 23 29  1  0  0  0  0
 24 25  1  1  0  0  0
 24 26  1  0  0  0  0
 26 27  1  1  0  0  0
 26 28  1  0  0  0  0
 28 29  1  0  0  0  0
 28 30  1  6  0  0  0
 30 31  1  0  0  0  0
 32 27  1  6  0  0  0
 32 33  1  0  0  0  0
 32 40  1  0  0  0  0
 33 34  1  1  0  0  0
 33 35  1  0  0  0  0
 35 36  1  6  0  0  0
 35 37  1  0  0  0  0
 37 38  1  6  0  0  0
 37 39  1  0  0  0  0
 39 40  1  0  0  0  0
 39 41  1  1  0  0  0
 41 42  1  0  0  0  0
M  CHG  5   4   1  14   1  17   1  34   1  42   1
M  END
>  <CHROM.1>
-178.32857298,-154.73817638,-177.76207195,175.03802966,-59.59379795,63.64400248
175.08774848,-150.02652304,178.98602408,99.01263421,92.57935715,64.53273917
58.02860394,-163.22240029,-59.13577341,-64.55320941,61.90294666,-63.47861488
-178.36345935,-178.92381784,-163.23580884,-92.89874642,27.48247298,6.10536755
56.97051701,-0.85807974,0.05284830,1.79594807

>  <Name>
1j7t

>  <RI>
0

>  <Rbt.Current_Directory>
/home/itssahil/PROJECTS/Mol_Feturizer/New_Systems/rnas/1j7t

>  <Rbt.Executable>
rbdock ($Id: //depot/dev/client3/rdock/2013.1/src/exe/rbdock.cxx#4 $)

>  <Rbt.Library>
libRbt.so (2013.1, Build901 2013/11/27)

>  <Rbt.Parameter_File>
/export/apps/rDock/src/rDock_2013.1_src/data/scripts/dock_solv.prm

>  <Rbt.Receptor>
prm/pocket_docking_4.prm

>  <SCORE>
-27.2537

>  <SCORE.INTER>
-15.2758

>  <SCORE.INTER.CONST>
1

>  <SCORE.INTER.POLAR>
-2.29589

>  <SCORE.INTER.ROT>
9

>  <SCORE.INTER.SOLV>
23.0178

>  <SCORE.INTER.VDW>
-19.8035

>  <SCORE.INTER.norm>
-0.36371

>  <SCORE.INTRA>
-11.9779

>  <SCORE.INTRA.DIHEDRAL>
-26.9434

>  <SCORE.INTRA.DIHEDRAL.0>
46.2143

>  <SCORE.INTRA.POLAR>
0.960657

>  <SCORE.INTRA.POLAR.0>
-1.76436

>  <SCORE.INTRA.REPUL>
0

>  <SCORE.INTRA.REPUL.0>
0

>  <SCORE.INTRA.SOLV>
-2.40828

>  <SCORE.INTRA.SOLV.lig_0>
-148.643

>  <SCORE.INTRA.VDW>
-0.568296

>  <SCORE.INTRA.VDW.0>
-4.83512

>  <SCORE.INTRA.norm>
-0.285188

>  <SCORE.RESTR>
0

>  <SCORE.RESTR.CAVITY>
0

>  <SCORE.RESTR.norm>
0

>  <SCORE.SYSTEM>
0

>  <SCORE.SYSTEM.CONST>
0

>  <SCORE.SYSTEM.DIHEDRAL>
0

>  <SCORE.SYSTEM.SOLV>
0

>  <SCORE.SYSTEM.norm>
0

>  <SCORE.heavy>
42

>  <SCORE.norm>
-0.648898

>  <RMSD>
6.174

$$$$
1j7t
 OpenBabel11021811393D
libRbt.so/2013.1/901 2013/11/27
 42 45  0  0  0  0  0  0  0  0999 V2000
   31.0624    3.9477   56.0975 C   0  0  2  0  0  0  0  0  0  0  0  0
   32.2674    4.5641   55.5775 O   0  0  0  0  0  0  0  0  0  0  0  0
   31.4665    3.1894   57.3943 C   0  0  2  0  0  0  0  0  0  0  0  0
   32.1912    4.0217   58.3972 N   0  3  0  0  0  0  0  0  0  0  0  0
   32.3872    2.0154   56.9955 C   0  0  1  0  0  0  0  0  0  0  0  0
   32.7714    1.2839   58.1254 O   0  0  0  0  0  0  0  0  0  0  0  0
   31.6699    1.1025   55.9729 C   0  0  2  0  0  0  0  0  0  0  0  0
   32.4884    0.0081   55.6103 O   0  0  0  0  0  0  0  0  0  0  0  0
   31.3225    1.8955   54.7310 C   0  0  2  0  0  0  0  0  0  0  0  0
   30.5343    3.0209   55.0973 O   0  0  0  0  0  0  0  0  0  0  0  0
   30.5136    1.1030   53.7288 C   0  0  0  0  0  0  0  0  0  0  0  0
   30.2508    1.9064   52.5944 O   0  0  0  0  0  0  0  0  0  0  0  0
   33.0524    7.5113   52.6542 C   0  0  2  0  0  0  0  0  0  0  0  0
   33.0776    8.2241   51.3764 N   0  3  0  0  0  0  0  0  0  0  0  0
   33.7829    6.1349   52.5123 C   0  0  0  0  0  0  0  0  0  0  0  0
   33.7160    5.3600   53.8422 C   0  0  2  0  0  0  0  0  0  0  0  0
   34.3495    4.0437   53.7117 N   0  3  0  0  0  0  0  0  0  0  0  0
   32.2505    5.1816   54.2853 C   0  0  2  0  0  0  0  0  0  0  0  0
   31.4979    6.5210   54.4068 C   0  0  2  0  0  0  0  0  0  0  0  0
   30.1225    6.1826   54.6698 O   0  0  0  0  0  0  0  0  0  0  0  0
   31.6064    7.3219   53.0845 C   0  0  1  0  0  0  0  0  0  0  0  0
   31.0023    8.5747   53.2537 O   0  0  0  0  0  0  0  0  0  0  0  0
   29.3059    6.8815   55.6057 C   0  0  1  0  0  0  0  0  0  0  0  0
   28.0790    7.4928   54.8395 C   0  0  2  0  0  0  0  0  0  0  0  0
   28.3220    8.7799   54.2979 O   0  0  0  0  0  0  0  0  0  0  0  0
   27.0697    7.4612   55.9786 C   0  0  2  0  0  0  0  0  0  0  0  0
   27.4210    8.4216   57.0198 O   0  0  0  0  0  0  0  0  0  0  0  0
   27.2611    6.0658   56.5560 C   0  0  2  0  0  0  0  0  0  0  0  0
   28.6955    5.9636   56.5534 O   0  0  0  0  0  0  0  0  0  0  0  0
   26.5728    4.9181   55.7467 C   0  0  0  0  0  0  0  0  0  0  0  0
   26.6266    3.6697   56.4485 O   0  0  0  0  0  0  0  0  0  0  0  0
   26.4387    8.5512   58.0443 C   0  0  2  0  0  0  0  0  0  0  0  0
   25.6852    9.9246   58.0590 C   0  0  2  0  0  0  0  0  0  0  0  0
   26.6074   11.0912   58.2080 N   0  3  0  0  0  0  0  0  0  0  0  0
   24.6438    9.8634   59.2258 C   0  0  1  0  0  0  0  0  0  0  0  0
   23.6810    8.7900   58.8965 O   0  0  0  0  0  0  0  0  0  0  0  0
   25.3123    9.5350   60.6173 C   0  0  2  0  0  0  0  0  0  0  0  0
   26.2043   10.6081   60.9603 O   0  0  0  0  0  0  0  0  0  0  0  0
   26.0787    8.1542   60.4831 C   0  0  1  0  0  0  0  0  0  0  0  0
   27.0448    8.2889   59.3868 O   0  0  0  0  0  0  0  0  0  0  0  0
   26.8072    7.6970   61.7673 C   0  0  0  0  0  0  0  0  0  0  0  0
   27.5515    6.4190   61.6023 N   0  3  0  0  0  0  0  0  0  0  0  0
  1  2  1  6  0  0  0
  1  3  1  0  0  0  0
  1 10  1  0  0  0  0
  3  4  1  1  0  0  0
  3  5  1  0  0  0  0
  5  6  1  1  0  0  0
  5  7  1  0  0  0  0
  7  8  1  6  0  0  0
  7  9  1  0  0  0  0
  9 10  1  0  0  0  0
  9 11  1  6  0  0  0
 11 12  1  0  0  0  0
 13 14  1  6  0  0  0
 13 15  1  0  0  0  0
 13 21  1  0  0  0  0
 15 16  1  0  0  0  0
 16 17  1  6  0  0  0
 16 18  1  0  0  0  0
 18  2  1  1  0  0  0
 18 19  1  0  0  0  0
 19 20  1  6  0  0  0
 19 21  1  0  0  0  0
 21 22  1  1  0  0  0
 23 20  1  6  0  0  0
 23 24  1  0  0  0  0
 23 29  1  0  0  0  0
 24 25  1  1  0  0  0
 24 26  1  0  0  0  0
 26 27  1  1  0  0  0
 26 28  1  0  0  0  0
 28 29  1  0  0  0  0
 28 30  1  6  0  0  0
 30 31  1  0  0  0  0
 32 27  1  6  0  0  0
 32 33  1  0  0  0  0
 32 40  1  0  0  0  0
 33 34  1  1  0  0  0
 33 35  1  0  0  0  0
 35 36  1  6  0  0  0
 35 37  1  0  0  0  0
 37 38  1  6  0  0  0
 37 39  1  0  0  0  0
 39 40  1  0  0  0  0
 39 41  1  1  0  0  0
 41 42  1  0  0  0  0
M  CHG  5   4   1  14   1  17   1  34   1  42   1
M  END
>  <CHROM.1>
171.40277747,-163.53054381,-59.01887514,-66.69888936,-56.70762233,-179.07886371
173.49167078,166.75449622,-52.37486409,139.03729623,119.54352215,176.70551544
178.55650179,173.33251363,-111.03309162,-171.41709546,-52.48799417,151.69102676
64.67933132,179.85541053,-178.28856625,-71.10377062,29.50663878,5.98423270
56.30660204,0.20117158,-0.83534329,2.56123890

>  <Name>
1j7t

>  <RI>
0

>  <Rbt.Current_Directory>
/home/itssahil/PROJECTS/Mol_Feturizer/New_Systems/rnas/1j7t

>  <Rbt.Executable>
rbdock ($Id: //depot/dev/client3/rdock/2013.1/src/exe/rbdock.cxx#4 $)

>  <Rbt.Library>
libRbt.so (2013.1, Build901 2013/11/27)

>  <Rbt.Parameter_File>
/export/apps/rDock/src/rDock_2013.1_src/data/scripts/dock_solv.prm

>  <Rbt.Receptor>
prm/pocket_docking_8.prm

>  <SCORE>
-52.3514

>  <SCORE.INTER>
-36.9719

>  <SCORE.INTER.CONST>
1

>  <SCORE.INTER.POLAR>
-7.19488

>  <SCORE.INTER.ROT>
9

>  <SCORE.INTER.SOLV>
16.8499

>  <SCORE.INTER.VDW>
-15.8816

>  <SCORE.INTER.norm>
-0.880283

>  <SCORE.INTRA>
-15.3795

>  <SCORE.INTRA.DIHEDRAL>
-20.8088

>  <SCORE.INTRA.DIHEDRAL.0>
46.2143

>  <SCORE.INTRA.POLAR>
-0.222621

>  <SCORE.INTRA.POLAR.0>
-1.76436

>  <SCORE.INTRA.REPUL>
0

>  <SCORE.INTRA.REPUL.0>
0

>  <SCORE.INTRA.SOLV>
-6.53981

>  <SCORE.INTRA.SOLV.lig_0>
-148.643

>  <SCORE.INTRA.VDW>
-0.948273

>  <SCORE.INTRA.VDW.0>
-4.83512

>  <SCORE.INTRA.norm>
-0.366178

>  <SCORE.RESTR>
0

>  <SCORE.RESTR.CAVITY>
0

>  <SCORE.RESTR.norm>
0

>  <SCORE.SYSTEM>
0

>  <SCORE.SYSTEM.CONST>
0

>  <SCORE.SYSTEM.DIHEDRAL>
0

>  <SCORE.SYSTEM.SOLV>
0

>  <SCORE.SYSTEM.norm>
0

>  <SCORE.heavy>
42

>  <SCORE.norm>
-1.24646

>  <RMSD>
6.185

$$$$
1j7t
 OpenBabel11021811393D
libRbt.so/2013.1/901 2013/11/27
 42 45  0  0  0  0  0  0  0  0999 V2000
   27.3466    8.0906   56.9342 C   0  0  2  0  0  0  0  0  0  0  0  0
   27.7338    6.7028   57.0968 O   0  0  0  0  0  0  0  0  0  0  0  0
   25.8183    8.1021   56.6439 C   0  0  2  0  0  0  0  0  0  0  0  0
   24.9931    7.3658   57.6442 N   0  3  0  0  0  0  0  0  0  0  0  0
   25.5881    7.4487   55.2637 C   0  0  1  0  0  0  0  0  0  0  0  0
   24.2261    7.4455   54.9403 O   0  0  0  0  0  0  0  0  0  0  0  0
   26.4037    8.1946   54.1810 C   0  0  2  0  0  0  0  0  0  0  0  0
   26.1902    7.6250   52.9047 O   0  0  0  0  0  0  0  0  0  0  0  0
   27.8793    8.1293   54.5133 C   0  0  2  0  0  0  0  0  0  0  0  0
   28.0921    8.6628   55.8140 O   0  0  0  0  0  0  0  0  0  0  0  0
   28.7368    8.9362   53.5642 C   0  0  0  0  0  0  0  0  0  0  0  0
   29.8603    9.4426   54.2588 O   0  0  0  0  0  0  0  0  0  0  0  0
   31.2294    4.5773   58.1510 C   0  0  2  0  0  0  0  0  0  0  0  0
   32.6268    4.1464   58.2031 N   0  3  0  0  0  0  0  0  0  0  0  0
   30.6598    4.3687   56.7087 C   0  0  0  0  0  0  0  0  0  0  0  0
   29.2035    4.8666   56.6370 C   0  0  2  0  0  0  0  0  0  0  0  0
   28.6708    4.7281   55.2776 N   0  3  0  0  0  0  0  0  0  0  0  0
   29.1199    6.3428   57.0721 C   0  0  2  0  0  0  0  0  0  0  0  0
   29.6998    6.5826   58.4798 C   0  0  2  0  0  0  0  0  0  0  0  0
   29.6947    8.0099   58.6749 O   0  0  0  0  0  0  0  0  0  0  0  0
   31.1481    6.0378   58.5658 C   0  0  1  0  0  0  0  0  0  0  0  0
   31.6151    6.1762   59.8795 O   0  0  0  0  0  0  0  0  0  0  0  0
   29.1320    8.6450   59.8200 C   0  0  1  0  0  0  0  0  0  0  0  0
   29.6245   10.1356   59.8572 C   0  0  2  0  0  0  0  0  0  0  0  0
   30.8576   10.3175   60.5319 O   0  0  0  0  0  0  0  0  0  0  0  0
   28.4192   10.7487   60.5563 C   0  0  2  0  0  0  0  0  0  0  0  0
   28.3378   10.3104   61.9460 O   0  0  0  0  0  0  0  0  0  0  0  0
   27.2476   10.1278   59.8085 C   0  0  2  0  0  0  0  0  0  0  0  0
   27.6886    8.7639   59.6942 O   0  0  0  0  0  0  0  0  0  0  0  0
   26.9325   10.7784   58.4217 C   0  0  0  0  0  0  0  0  0  0  0  0
   26.7387   12.1941   58.5330 O   0  0  0  0  0  0  0  0  0  0  0  0
   27.2857   10.9238   62.6866 C   0  0  2  0  0  0  0  0  0  0  0  0
   27.6126   12.3595   63.2217 C   0  0  2  0  0  0  0  0  0  0  0  0
   28.8213   12.3905   64.1000 N   0  3  0  0  0  0  0  0  0  0  0  0
   26.3399   12.8670   63.9783 C   0  0  1  0  0  0  0  0  0  0  0  0
   25.2487   12.9609   62.9843 O   0  0  0  0  0  0  0  0  0  0  0  0
   25.8911   11.8882   65.1323 C   0  0  2  0  0  0  0  0  0  0  0  0
   26.9301   11.8442   66.1239 O   0  0  0  0  0  0  0  0  0  0  0  0
   25.6267   10.4616   64.4945 C   0  0  1  0  0  0  0  0  0  0  0  0
   26.8603   10.0433   63.8189 O   0  0  0  0  0  0  0  0  0  0  0  0
   25.1924    9.3768   65.5062 C   0  0  0  0  0  0  0  0  0  0  0  0
   24.7456    8.1118   64.8621 N   0  3  0  0  0  0  0  0  0  0  0  0
  1  2  1  6  0  0  0
  1  3  1  0  0  0  0
  1 10  1  0  0  0  0
  3  4  1  1  0  0  0
  3  5  1  0  0  0  0
  5  6  1  6  0  0  0
  5  7  1  0  0  0  0
  7  8  1  6  0  0  0
  7  9  1  0  0  0  0
  9 10  1  0  0  0  0
  9 11  1  6  0  0  0
 11 12  1  0  0  0  0
 13 14  1  6  0  0  0
 13 15  1  0  0  0  0
 13 21  1  0  0  0  0
 15 16  1  0  0  0  0
 16 17  1  6  0  0  0
 16 18  1  0  0  0  0
 18  2  1  1  0  0  0
 18 19  1  0  0  0  0
 19 20  1  6  0  0  0
 19 21  1  0  0  0  0
 21 22  1  1  0  0  0
 23 20  1  6  0  0  0
 23 24  1  0  0  0  0
 23 29  1  0  0  0  0
 24 25  1  1  0  0  0
 24 26  1  0  0  0  0
 26 27  1  1  0  0  0
 26 28  1  0  0  0  0
 28 29  1  0  0  0  0
 28 30  1  6  0  0  0
 30 31  1  0  0  0  0
 32 27  1  1  0  0  0
 32 33  1  0  0  0  0
 32 40  1  0  0  0  0
 33 34  1  1  0  0  0
 33 35  1  0  0  0  0
 35 36  1  6  0  0  0
 35 37  1  0  0  0  0
 37 38  1  1  0  0  0
 37 39  1  0  0  0  0
 39 40  1  0  0  0  0
 39 41  1  1  0  0  0
 41 42  1  0  0  0  0
M  CHG  5   4   1  14   1  17   1  34   1  42   1
M  END
>  <CHROM.1>
165.82366659,-155.12439009,67.60892331,172.85463991,-55.66334132,148.02917128
-71.07309582,-146.96278130,-61.38322515,128.78435247,165.95553074,61.11153132
-78.59344662,175.70679985,-80.88061866,-54.25205384,-176.42955457,43.86842288
-61.71414295,174.15603099,170.93401845,-167.74418989,27.90421730,8.74449723
59.23149739,1.33330866,0.64947554,-1.92094973

>  <Name>
1j7t

>  <RI>
0

>  <Rbt.Current_Directory>
/home/itssahil/PROJECTS/Mol_Feturizer/New_Systems/rnas/1j7t

>  <Rbt.Executable>
rbdock ($Id: //depot/dev/client3/rdock/2013.1/src/exe/rbdock.cxx#4 $)

>  <Rbt.Library>
libRbt.so (2013.1, Build901 2013/11/27)

>  <Rbt.Parameter_File>
/export/apps/rDock/src/rDock_2013.1_src/data/scripts/dock_solv.prm

>  <Rbt.Receptor>
prm/pocket_docking_8.prm

>  <SCORE>
-48.5585

>  <SCORE.INTER>
-36.1913

>  <SCORE.INTER.CONST>
1

>  <SCORE.INTER.POLAR>
-6.63883

>  <SCORE.INTER.ROT>
9

>  <SCORE.INTER.SOLV>
16.1121

>  <SCORE.INTER.VDW>
-16.9688

>  <SCORE.INTER.norm>
-0.861696

>  <SCORE.INTRA>
-12.3672

>  <SCORE.INTRA.DIHEDRAL>
-22.965

>  <SCORE.INTRA.DIHEDRAL.0>
46.2143

>  <SCORE.INTRA.POLAR>
0.842118

>  <SCORE.INTRA.POLAR.0>
-1.76436

>  <SCORE.INTRA.REPUL>
0

>  <SCORE.INTRA.REPUL.0>
0

>  <SCORE.INTRA.SOLV>
-4.75326

>  <SCORE.INTRA.SOLV.lig_0>
-148.643

>  <SCORE.INTRA.VDW>
-1.37127

>  <SCORE.INTRA.VDW.0>
-4.83512

>  <SCORE.INTRA.norm>
-0.294457

>  <SCORE.RESTR>
0

>  <SCORE.RESTR.CAVITY>
0

>  <SCORE.RESTR.norm>
0

>  <SCORE.SYSTEM>
0

>  <SCORE.SYSTEM.CONST>
0

>  <SCORE.SYSTEM.DIHEDRAL>
0

>  <SCORE.SYSTEM.SOLV>
0

>  <SCORE.SYSTEM.norm>
0

>  <SCORE.heavy>
42

>  <SCORE.norm>
-1.15615

>  <RMSD>
6.194

$$$$
1j7t
 OpenBabel11021811393D
libRbt.so/2013.1/901 2013/11/27
 42 45  0  0  0  0  0  0  0  0999 V2000
   27.3854    6.7284   52.5673 C   0  0  2  0  0  0  0  0  0  0  0  0
   28.4561    6.2084   53.3954 O   0  0  0  0  0  0  0  0  0  0  0  0
   26.0496    6.3776   53.2834 C   0  0  2  0  0  0  0  0  0  0  0  0
   25.9743    6.8226   54.7046 N   0  3  0  0  0  0  0  0  0  0  0  0
   25.8799    4.8429   53.2555 C   0  0  1  0  0  0  0  0  0  0  0  0
   24.6817    4.4677   53.8744 O   0  0  0  0  0  0  0  0  0  0  0  0
   25.9236    4.3307   51.7963 C   0  0  2  0  0  0  0  0  0  0  0  0
   25.7483    2.9286   51.7467 O   0  0  0  0  0  0  0  0  0  0  0  0
   27.2530    4.6875   51.1659 C   0  0  2  0  0  0  0  0  0  0  0  0
   27.4518    6.0929   51.2520 O   0  0  0  0  0  0  0  0  0  0  0  0
   27.3304    4.3242   49.7000 C   0  0  0  0  0  0  0  0  0  0  0  0
   28.6166    4.6406   49.2032 O   0  0  0  0  0  0  0  0  0  0  0  0
   32.6431    6.3801   53.9314 C   0  0  2  0  0  0  0  0  0  0  0  0
   34.0592    6.6690   53.7021 N   0  3  0  0  0  0  0  0  0  0  0  0
   32.0941    5.4609   52.7903 C   0  0  0  0  0  0  0  0  0  0  0  0
   30.5914    5.1943   53.0016 C   0  0  2  0  0  0  0  0  0  0  0  0
   30.0478    4.3779   51.9113 N   0  3  0  0  0  0  0  0  0  0  0  0
   29.8171    6.5247   53.0807 C   0  0  2  0  0  0  0  0  0  0  0  0
   30.3549    7.4624   54.1792 C   0  0  2  0  0  0  0  0  0  0  0  0
   29.6440    8.7058   54.0246 O   0  0  0  0  0  0  0  0  0  0  0  0
   31.8764    7.6916   53.9946 C   0  0  1  0  0  0  0  0  0  0  0  0
   32.3588    8.4629   55.0602 O   0  0  0  0  0  0  0  0  0  0  0  0
   29.3825    9.6012   55.1021 C   0  0  1  0  0  0  0  0  0  0  0  0
   28.1216    9.0871   55.8843 C   0  0  2  0  0  0  0  0  0  0  0  0
   26.8906    9.5647   55.3689 O   0  0  0  0  0  0  0  0  0  0  0  0
   28.4848    9.6202   57.2631 C   0  0  2  0  0  0  0  0  0  0  0  0
   28.4206   11.0778   57.2973 O   0  0  0  0  0  0  0  0  0  0  0  0
   29.9471    9.2205   57.4013 C   0  0  2  0  0  0  0  0  0  0  0  0
   30.4450    9.5497   56.0931 O   0  0  0  0  0  0  0  0  0  0  0  0
   30.1873    7.7220   57.7790 C   0  0  0  0  0  0  0  0  0  0  0  0
   31.5832    7.4279   57.9159 O   0  0  0  0  0  0  0  0  0  0  0  0
   28.7146   11.6412   58.5731 C   0  0  2  0  0  0  0  0  0  0  0  0
   27.5657   11.5052   59.6294 C   0  0  2  0  0  0  0  0  0  0  0  0
   26.2848   12.1284   59.1774 N   0  3  0  0  0  0  0  0  0  0  0  0
   28.0836   12.1548   60.9558 C   0  0  1  0  0  0  0  0  0  0  0  0
   29.2475   11.3610   61.4061 O   0  0  0  0  0  0  0  0  0  0  0  0
   28.5383   13.6534   60.7587 C   0  0  2  0  0  0  0  0  0  0  0  0
   27.3926   14.4320   60.3766 O   0  0  0  0  0  0  0  0  0  0  0  0
   29.6671   13.6844   59.6466 C   0  0  1  0  0  0  0  0  0  0  0  0
   29.1094   13.0774   58.4326 O   0  0  0  0  0  0  0  0  0  0  0  0
   30.2102   15.0948   59.3226 C   0  0  0  0  0  0  0  0  0  0  0  0
   31.6532   15.1041   58.9588 N   0  3  0  0  0  0  0  0  0  0  0  0
  1  2  1  1  0  0  0
  1  3  1  0  0  0  0
  1 10  1  0  0  0  0
  3  4  1  1  0  0  0
  3  5  1  0  0  0  0
  5  6  1  6  0  0  0
  5  7  1  0  0  0  0
  7  8  1  1  0  0  0
  7  9  1  0  0  0  0
  9 10  1  0  0  0  0
  9 11  1  6  0  0  0
 11 12  1  0  0  0  0
 13 14  1  6  0  0  0
 13 15  1  0  0  0  0
 13 21  1  0  0  0  0
 15 16  1  0  0  0  0
 16 17  1  6  0  0  0
 16 18  1  0  0  0  0
 18  2  1  1  0  0  0
 18 19  1  0  0  0  0
 19 20  1  6  0  0  0
 19 21  1  0  0  0  0
 21 22  1  1  0  0  0
 23 20  1  6  0  0  0
 23 24  1  0  0  0  0
 23 29  1  0  0  0  0
 24 25  1  6  0  0  0
 24 26  1  0  0  0  0
 26 27  1  6  0  0  0
 26 28  1  0  0  0  0
 28 29  1  0  0  0  0
 28 30  1  6  0  0  0
 30 31  1  0  0  0  0
 32 27  1  6  0  0  0
 32 33  1  0  0  0  0
 32 40  1  0  0  0  0
 33 34  1  6  0  0  0
 33 35  1  0  0  0  0
 35 36  1  6  0  0  0
 35 37  1  0  0  0  0
 37 38  1  6  0  0  0
 37 39  1  0  0  0  0
 39 40  1  0  0  0  0
 39 41  1  6  0  0  0
 41 42  1  0  0  0  0
M  CHG  5   4   1  14   1  17   1  34   1  42   1
M  END
>  <CHROM.1>
-172.13490351,-127.39805854,57.36008903,55.04944148,163.52016505,-177.70914082
-171.04126881,-89.57494582,152.69769251,151.53039760,-81.61110234,-175.34346670
20.34975535,178.37455318,-75.44722027,-178.89003944,-173.67430768,-85.29081620
55.43217569,88.40802044,146.63829501,44.96691017,28.90713336,8.48449505,55.44780677
1.65800018,-0.06560123,-2.36824942

>  <Name>
1j7t

>  <RI>
0

>  <Rbt.Current_Directory>
/home/itssahil/PROJECTS/Mol_Feturizer/New_Systems/rnas/1j7t

>  <Rbt.Executable>
rbdock ($Id: //depot/dev/client3/rdock/2013.1/src/exe/rbdock.cxx#4 $)

>  <Rbt.Library>
libRbt.so (2013.1, Build901 2013/11/27)

>  <Rbt.Parameter_File>
/export/apps/rDock/src/rDock_2013.1_src/data/scripts/dock_solv.prm

>  <Rbt.Receptor>
prm/pocket_docking_8.prm

>  <SCORE>
-44.6027

>  <SCORE.INTER>
-36.7196

>  <SCORE.INTER.CONST>
1

>  <SCORE.INTER.POLAR>
-7.44531

>  <SCORE.INTER.ROT>
9

>  <SCORE.INTER.SOLV>
23.4997

>  <SCORE.INTER.VDW>
-17.0953

>  <SCORE.INTER.norm>
-0.874275

>  <SCORE.INTRA>
-8.32966

>  <SCORE.INTRA.DIHEDRAL>
-12.9565

>  <SCORE.INTRA.DIHEDRAL.0>
46.2143

>  <SCORE.INTRA.POLAR>
-0.838673

>  <SCORE.INTRA.POLAR.0>
-1.76436

>  <SCORE.INTRA.REPUL>
0

>  <SCORE.INTRA.REPUL.0>
0

>  <SCORE.INTRA.SOLV>
2.23547

>  <SCORE.INTRA.SOLV.lig_0>
-148.643

>  <SCORE.INTRA.VDW>
-0.117667

>  <SCORE.INTRA.VDW.0>
-4.83512

>  <SCORE.INTRA.norm>
-0.198325

>  <SCORE.RESTR>
0.44655

>  <SCORE.RESTR.CAVITY>
0.44655

>  <SCORE.RESTR.norm>
0.0106322

>  <SCORE.SYSTEM>
0

>  <SCORE.SYSTEM.CONST>
0

>  <SCORE.SYSTEM.DIHEDRAL>
0

>  <SCORE.SYSTEM.SOLV>
0

>  <SCORE.SYSTEM.norm>
0

>  <SCORE.heavy>
42

>  <SCORE.norm>
-1.06197

>  <RMSD>
6.267

$$$$
1j7t
 OpenBabel11021811393D
libRbt.so/2013.1/901 2013/11/27
 42 45  0  0  0  0  0  0  0  0999 V2000
   31.2708    3.9872   52.9841 C   0  0  2  0  0  0  0  0  0  0  0  0
   32.0676    2.9820   53.6603 O   0  0  0  0  0  0  0  0  0  0  0  0
   31.6619    3.9361   51.4792 C   0  0  2  0  0  0  0  0  0  0  0  0
   31.5652    2.5828   50.8606 N   0  3  0  0  0  0  0  0  0  0  0  0
   33.1237    4.4163   51.3477 C   0  0  1  0  0  0  0  0  0  0  0  0
   33.5274    4.4070   50.0074 O   0  0  0  0  0  0  0  0  0  0  0  0
   33.2734    5.8325   51.9524 C   0  0  2  0  0  0  0  0  0  0  0  0
   34.6014    6.3002   51.8229 O   0  0  0  0  0  0  0  0  0  0  0  0
   32.8965    5.8078   53.4185 C   0  0  2  0  0  0  0  0  0  0  0  0
   31.5763    5.2979   53.5557 O   0  0  0  0  0  0  0  0  0  0  0  0
   32.9037    7.1794   54.0554 C   0  0  0  0  0  0  0  0  0  0  0  0
   32.5045    7.0729   55.4084 O   0  0  0  0  0  0  0  0  0  0  0  0
   31.7716    1.3404   57.5418 C   0  0  2  0  0  0  0  0  0  0  0  0
   31.7836    1.2191   59.0001 N   0  3  0  0  0  0  0  0  0  0  0  0
   33.1953    1.7364   57.0273 C   0  0  0  0  0  0  0  0  0  0  0  0
   33.1754    1.9130   55.4970 C   0  0  2  0  0  0  0  0  0  0  0  0
   34.4898    2.3369   55.0033 N   0  3  0  0  0  0  0  0  0  0  0  0
   32.1152    2.9558   55.0916 C   0  0  2  0  0  0  0  0  0  0  0  0
   30.7066    2.6051   55.6091 C   0  0  2  0  0  0  0  0  0  0  0  0
   29.8722    3.7354   55.2904 O   0  0  0  0  0  0  0  0  0  0  0  0
   30.7364    2.3798   57.1422 C   0  0  1  0  0  0  0  0  0  0  0  0
   29.4689    1.9649   57.5716 O   0  0  0  0  0  0  0  0  0  0  0  0
   28.4791    3.6298   55.0089 C   0  0  1  0  0  0  0  0  0  0  0  0
   28.2935    2.7292   53.7359 C   0  0  2  0  0  0  0  0  0  0  0  0
   28.3471    3.4435   52.5129 O   0  0  0  0  0  0  0  0  0  0  0  0
   26.9282    2.1474   54.0746 C   0  0  2  0  0  0  0  0  0  0  0  0
   25.8890    3.1698   54.0068 O   0  0  0  0  0  0  0  0  0  0  0  0
   27.0877    1.7492   55.5352 C   0  0  2  0  0  0  0  0  0  0  0  0
   27.7899    2.8916   56.0545 O   0  0  0  0  0  0  0  0  0  0  0  0
   27.8575    0.4086   55.7720 C   0  0  0  0  0  0  0  0  0  0  0  0
   29.1234    0.3994   55.1001 O   0  0  0  0  0  0  0  0  0  0  0  0
   24.5658    2.6624   54.1593 C   0  0  2  0  0  0  0  0  0  0  0  0
   23.4324    3.6406   53.6978 C   0  0  2  0  0  0  0  0  0  0  0  0
   23.4680    4.9506   54.4161 N   0  3  0  0  0  0  0  0  0  0  0  0
   22.0709    2.9011   53.9192 C   0  0  1  0  0  0  0  0  0  0  0  0
   22.0699    1.7135   53.0377 O   0  0  0  0  0  0  0  0  0  0  0  0
   21.8765    2.4246   55.4114 C   0  0  2  0  0  0  0  0  0  0  0  0
   21.8208    3.5844   56.2578 O   0  0  0  0  0  0  0  0  0  0  0  0
   23.0908    1.4788   55.7896 C   0  0  1  0  0  0  0  0  0  0  0  0
   24.3275    2.2387   55.5742 O   0  0  0  0  0  0  0  0  0  0  0  0
   23.0562    0.9378   57.2370 C   0  0  0  0  0  0  0  0  0  0  0  0
   23.2143    1.9982   58.2691 N   0  3  0  0  0  0  0  0  0  0  0  0
  1  2  1  1  0  0  0
  1  3  1  0  0  0  0
  1 10  1  0  0  0  0
  3  4  1  1  0  0  0
  3  5  1  0  0  0  0
  5  6  1  6  0  0  0
  5  7  1  0  0  0  0
  7  8  1  1  0  0  0
  7  9  1  0  0  0  0
  9 10  1  0  0  0  0
  9 11  1  6  0  0  0
 11 12  1  0  0  0  0
 13 14  1  1  0  0  0
 13 15  1  0  0  0  0
 13 21  1  0  0  0  0
 15 16  1  0  0  0  0
 16 17  1  1  0  0  0
 16 18  1  0  0  0  0
 18  2  1  6  0  0  0
 18 19  1  0  0  0  0
 19 20  1  1  0  0  0
 19 21  1  0  0  0  0
 21 22  1  6  0  0  0
 23 20  1  1  0  0  0
 23 24  1  0  0  0  0
 23 29  1  0  0  0  0
 24 25  1  6  0  0  0
 24 26  1  0  0  0  0
 26 27  1  1  0  0  0
 26 28  1  0  0  0  0
 28 29  1  0  0  0  0
 28 30  1  6  0  0  0
 30 31  1  0  0  0  0
 32 27  1  1  0  0  0
 32 33  1  0  0  0  0
 32 40  1  0  0  0  0
 33 34  1  1  0  0  0
 33 35  1  0  0  0  0
 35 36  1  6  0  0  0
 35 37  1  0  0  0  0
 37 38  1  1  0  0  0
 37 39  1  0  0  0  0
 39 40  1  0  0  0  0
 39 41  1  1  0  0  0
 41 42  1  0  0  0  0
M  CHG  5   4   1  14   1  17   1  34   1  42   1
M  END
>  <CHROM.1>
168.39406311,-172.63585650,-48.61833141,56.99520955,59.16703772,178.30165357
-161.08747417,37.07673179,172.80739871,149.61478417,-61.46476362,74.02337034
179.17093822,173.04876797,-163.62192865,52.67414241,164.07463401,151.68687174
-52.39616754,66.20515021,-65.70601163,167.63788189,28.83811324,3.13728736
54.64368812,0.25556769,-0.06436018,-1.04222815

>  <Name>
1j7t

>  <RI>
224

>  <Rbt.Current_Directory>
/home/itssahil/PROJECTS/Mol_Feturizer/New_Systems/rnas/1j7t

>  <Rbt.Executable>
rbdock ($Id: //depot/dev/client3/rdock/2013.1/src/exe/rbdock.cxx#4 $)

>  <Rbt.Library>
libRbt.so (2013.1, Build901 2013/11/27)

>  <Rbt.Parameter_File>
/export/apps/rDock/src/rDock_2013.1_src/data/scripts/dock_solv.prm

>  <Rbt.Receptor>
prm/pocket_docking_7.prm

>  <SCORE>
-48.9389

>  <SCORE.INTER>
-35.0211

>  <SCORE.INTER.CONST>
1

>  <SCORE.INTER.POLAR>
-6.86998

>  <SCORE.INTER.ROT>
9

>  <SCORE.INTER.SOLV>
17.6927

>  <SCORE.INTER.VDW>
-15.945

>  <SCORE.INTER.norm>
-0.833836

>  <SCORE.INTRA>
-13.9178

>  <SCORE.INTRA.DIHEDRAL>
-31.2331

>  <SCORE.INTRA.DIHEDRAL.0>
46.2143

>  <SCORE.INTRA.POLAR>
0.440018

>  <SCORE.INTRA.POLAR.0>
-1.76436

>  <SCORE.INTRA.REPUL>
0.0435688

>  <SCORE.INTRA.REPUL.0>
0

>  <SCORE.INTRA.SOLV>
0.522712

>  <SCORE.INTRA.SOLV.lig_0>
-148.643

>  <SCORE.INTRA.VDW>
-0.276558

>  <SCORE.INTRA.VDW.0>
-4.83512

>  <SCORE.INTRA.norm>
-0.331377

>  <SCORE.RESTR>
0

>  <SCORE.RESTR.CAVITY>
0

>  <SCORE.RESTR.norm>
0

>  <SCORE.SYSTEM>
0

>  <SCORE.SYSTEM.CONST>
0

>  <SCORE.SYSTEM.DIHEDRAL>
0

>  <SCORE.SYSTEM.SOLV>
0

>  <SCORE.SYSTEM.norm>
0

>  <SCORE.heavy>
42

>  <SCORE.norm>
-1.16521

>  <RMSD>
6.317

$$$$
1j7t
 OpenBabel11021811393D
libRbt.so/2013.1/901 2013/11/27
 42 45  0  0  0  0  0  0  0  0999 V2000
   27.9740    6.4833   53.1309 C   0  0  2  0  0  0  0  0  0  0  0  0
   26.9504    6.7325   54.1272 O   0  0  0  0  0  0  0  0  0  0  0  0
   27.2408    6.2473   51.7793 C   0  0  2  0  0  0  0  0  0  0  0  0
   26.2863    7.3272   51.3967 N   0  3  0  0  0  0  0  0  0  0  0  0
   26.4468    4.9273   51.8892 C   0  0  1  0  0  0  0  0  0  0  0  0
   25.7764    4.6536   50.6913 O   0  0  0  0  0  0  0  0  0  0  0  0
   27.3986    3.7650   52.2592 C   0  0  2  0  0  0  0  0  0  0  0  0
   26.6945    2.5419   52.3439 O   0  0  0  0  0  0  0  0  0  0  0  0
   28.0631    4.0485   53.5896 C   0  0  2  0  0  0  0  0  0  0  0  0
   28.7372    5.2987   53.5212 O   0  0  0  0  0  0  0  0  0  0  0  0
   29.0990    3.0135   53.9672 C   0  0  0  0  0  0  0  0  0  0  0  0
   29.4200    3.1462   55.3385 O   0  0  0  0  0  0  0  0  0  0  0  0
   29.5325    7.1236   57.4480 C   0  0  2  0  0  0  0  0  0  0  0  0
   30.0097    7.3258   58.8165 N   0  3  0  0  0  0  0  0  0  0  0  0
   28.7988    8.4101   56.9430 C   0  0  0  0  0  0  0  0  0  0  0  0
   28.2521    8.1842   55.5204 C   0  0  2  0  0  0  0  0  0  0  0  0
   27.5144    9.3620   55.0516 N   0  3  0  0  0  0  0  0  0  0  0  0
   27.3243    6.9538   55.4920 C   0  0  2  0  0  0  0  0  0  0  0  0
   28.0131    5.6764   56.0107 C   0  0  2  0  0  0  0  0  0  0  0  0
   26.9871    4.6669   56.0704 O   0  0  0  0  0  0  0  0  0  0  0  0
   28.6053    5.9189   57.4222 C   0  0  1  0  0  0  0  0  0  0  0  0
   29.3110    4.7785   57.8279 O   0  0  0  0  0  0  0  0  0  0  0  0
   26.0591    4.5516   57.1459 C   0  0  1  0  0  0  0  0  0  0  0  0
   24.9326    3.5406   56.7277 C   0  0  2  0  0  0  0  0  0  0  0  0
   23.8491    4.1396   56.0376 O   0  0  0  0  0  0  0  0  0  0  0  0
   24.5898    3.0076   58.1118 C   0  0  2  0  0  0  0  0  0  0  0  0
   23.9394    4.0311   58.9236 O   0  0  0  0  0  0  0  0  0  0  0  0
   25.9613    2.7427   58.7170 C   0  0  2  0  0  0  0  0  0  0  0  0
   26.6750    3.9198   58.3013 O   0  0  0  0  0  0  0  0  0  0  0  0
   26.6474    1.4208   58.2399 C   0  0  0  0  0  0  0  0  0  0  0  0
   27.3536    1.6063   57.0067 O   0  0  0  0  0  0  0  0  0  0  0  0
   23.5493    3.5824   60.2190 C   0  0  2  0  0  0  0  0  0  0  0  0
   22.0352    3.7987   60.5583 C   0  0  2  0  0  0  0  0  0  0  0  0
   21.6180    5.2307   60.4638 N   0  3  0  0  0  0  0  0  0  0  0  0
   21.8017    3.2263   61.9962 C   0  0  1  0  0  0  0  0  0  0  0  0
   22.0793    1.7747   61.9393 O   0  0  0  0  0  0  0  0  0  0  0  0
   22.7535    3.8824   63.0709 C   0  0  2  0  0  0  0  0  0  0  0  0
   22.4414    5.2819   63.1640 O   0  0  0  0  0  0  0  0  0  0  0  0
   24.2523    3.6437   62.6141 C   0  0  1  0  0  0  0  0  0  0  0  0
   24.4025    4.2168   61.2716 O   0  0  0  0  0  0  0  0  0  0  0  0
   25.3153    4.2463   63.5605 C   0  0  0  0  0  0  0  0  0  0  0  0
   26.2721    3.2388   64.0937 N   0  3  0  0  0  0  0  0  0  0  0  0
  1  2  1  1  0  0  0
  1  3  1  0  0  0  0
  1 10  1  0  0  0  0
  3  4  1  1  0  0  0
  3  5  1  0  0  0  0
  5  6  1  6  0  0  0
  5  7  1  0  0  0  0
  7  8  1  1  0  0  0
  7  9  1  0  0  0  0
  9 10  1  0  0  0  0
  9 11  1  6  0  0  0
 11 12  1  0  0  0  0
 13 14  1  1  0  0  0
 13 15  1  0  0  0  0
 13 21  1  0  0  0  0
 15 16  1  0  0  0  0
 16 17  1  1  0  0  0
 16 18  1  0  0  0  0
 18  2  1  6  0  0  0
 18 19  1  0  0  0  0
 19 20  1  1  0  0  0
 19 21  1  0  0  0  0
 21 22  1  6  0  0  0
 23 20  1  6  0  0  0
 23 24  1  0  0  0  0
 23 29  1  0  0  0  0
 24 25  1  1  0  0  0
 24 26  1  0  0  0  0
 26 27  1  1  0  0  0
 26 28  1  0  0  0  0
 28 29  1  0  0  0  0
 28 30  1  6  0  0  0
 30 31  1  0  0  0  0
 32 27  1  6  0  0  0
 32 33  1  0  0  0  0
 32 40  1  0  0  0  0
 33 34  1  1  0  0  0
 33 35  1  0  0  0  0
 35 36  1  6  0  0  0
 35 37  1  0  0  0  0
 37 38  1  6  0  0  0
 37 39  1  0  0  0  0
 39 40  1  0  0  0  0
 39 41  1  1  0  0  0
 41 42  1  0  0  0  0
M  CHG  5   4   1  14   1  17   1  34   1  42   1
M  END
>  <CHROM.1>
178.43856108,59.27302032,-79.81344067,-63.70832969,63.55729532,-165.15204659
61.60221885,-58.34344365,57.46036220,-81.20493774,168.73090838,-81.63754655
-56.04309568,177.94269676,-125.17619823,84.81349738,-57.46938801,37.48320247
177.80588774,179.63953331,121.93854331,-176.11646183,26.20583126,4.70696719
57.21518281,-1.00543300,0.67222946,1.41520460

>  <Name>
1j7t

>  <RI>
224

>  <Rbt.Current_Directory>
/home/itssahil/PROJECTS/Mol_Feturizer/New_Systems/rnas/1j7t

>  <Rbt.Executable>
rbdock ($Id: //depot/dev/client3/rdock/2013.1/src/exe/rbdock.cxx#4 $)

>  <Rbt.Library>
libRbt.so (2013.1, Build901 2013/11/27)

>  <Rbt.Parameter_File>
/export/apps/rDock/src/rDock_2013.1_src/data/scripts/dock_solv.prm

>  <Rbt.Receptor>
prm/pocket_docking_7.prm

>  <SCORE>
-35.2304

>  <SCORE.INTER>
-18.214

>  <SCORE.INTER.CONST>
1

>  <SCORE.INTER.POLAR>
-4.57004

>  <SCORE.INTER.ROT>
9

>  <SCORE.INTER.SOLV>
20.602

>  <SCORE.INTER.VDW>
-13.3766

>  <SCORE.INTER.norm>
-0.433667

>  <SCORE.INTRA>
-17.0164

>  <SCORE.INTRA.DIHEDRAL>
-23.6241

>  <SCORE.INTRA.DIHEDRAL.0>
46.2143

>  <SCORE.INTRA.POLAR>
-1.00284

>  <SCORE.INTRA.POLAR.0>
-1.76436

>  <SCORE.INTRA.REPUL>
0.00530695

>  <SCORE.INTRA.REPUL.0>
0

>  <SCORE.INTRA.SOLV>
-3.5278

>  <SCORE.INTRA.SOLV.lig_0>
-148.643

>  <SCORE.INTRA.VDW>
-0.0573155

>  <SCORE.INTRA.VDW.0>
-4.83512

>  <SCORE.INTRA.norm>
-0.405151

>  <SCORE.RESTR>
0

>  <SCORE.RESTR.CAVITY>
0

>  <SCORE.RESTR.norm>
0

>  <SCORE.SYSTEM>
0

>  <SCORE.SYSTEM.CONST>
0

>  <SCORE.SYSTEM.DIHEDRAL>
0

>  <SCORE.SYSTEM.SOLV>
0

>  <SCORE.SYSTEM.norm>
0

>  <SCORE.heavy>
42

>  <SCORE.norm>
-0.838818

>  <RMSD>
6.323

$$$$
1j7t
 OpenBabel11021811393D
libRbt.so/2013.1/901 2013/11/27
 42 45  0  0  0  0  0  0  0  0999 V2000
   32.2002    4.8404   55.3950 C   0  0  2  0  0  0  0  0  0  0  0  0
   31.6640    4.9271   54.0506 O   0  0  0  0  0  0  0  0  0  0  0  0
   33.4543    3.9227   55.3227 C   0  0  2  0  0  0  0  0  0  0  0  0
   34.4628    4.3327   54.3036 N   0  3  0  0  0  0  0  0  0  0  0  0
   32.9826    2.4934   54.9773 C   0  0  1  0  0  0  0  0  0  0  0  0
   34.0717    1.6162   54.9144 O   0  0  0  0  0  0  0  0  0  0  0  0
   31.9512    2.0079   56.0233 C   0  0  2  0  0  0  0  0  0  0  0  0
   31.5219    0.6914   55.7374 O   0  0  0  0  0  0  0  0  0  0  0  0
   30.7514    2.9311   56.0289 C   0  0  2  0  0  0  0  0  0  0  0  0
   31.1845    4.2630   56.2743 O   0  0  0  0  0  0  0  0  0  0  0  0
   29.7477    2.5920   57.1081 C   0  0  0  0  0  0  0  0  0  0  0  0
   28.5468    3.3024   56.8749 O   0  0  0  0  0  0  0  0  0  0  0  0
   29.4439    7.8717   51.9894 C   0  0  2  0  0  0  0  0  0  0  0  0
   28.3759    8.8074   51.6354 N   0  3  0  0  0  0  0  0  0  0  0  0
   28.8965    6.4060   51.9737 C   0  0  0  0  0  0  0  0  0  0  0  0
   30.0051    5.4219   52.3934 C   0  0  2  0  0  0  0  0  0  0  0  0
   29.4944    4.0477   52.4362 N   0  3  0  0  0  0  0  0  0  0  0  0
   30.5647    5.8038   53.7778 C   0  0  2  0  0  0  0  0  0  0  0  0
   31.0864    7.2530   53.8301 C   0  0  2  0  0  0  0  0  0  0  0  0
   31.4239    7.5054   55.2078 O   0  0  0  0  0  0  0  0  0  0  0  0
   29.9863    8.2389   53.3615 C   0  0  1  0  0  0  0  0  0  0  0  0
   30.5159    9.5355   53.3220 O   0  0  0  0  0  0  0  0  0  0  0  0
   30.4592    7.8196   56.2087 C   0  0  1  0  0  0  0  0  0  0  0  0
   29.7168    6.4981   56.6195 C   0  0  2  0  0  0  0  0  0  0  0  0
   28.5866    6.2001   55.8178 O   0  0  0  0  0  0  0  0  0  0  0  0
   29.3962    6.8646   58.0618 C   0  0  2  0  0  0  0  0  0  0  0  0
   28.4002    7.9293   58.1252 O   0  0  0  0  0  0  0  0  0  0  0  0
   30.7148    7.4373   58.5621 C   0  0  2  0  0  0  0  0  0  0  0  0
   31.1043    8.2470   57.4394 O   0  0  0  0  0  0  0  0  0  0  0  0
   31.7945    6.3711   58.9407 C   0  0  0  0  0  0  0  0  0  0  0  0
   31.3465    5.5178   60.0014 O   0  0  0  0  0  0  0  0  0  0  0  0
   28.1062    8.3701   59.4484 C   0  0  2  0  0  0  0  0  0  0  0  0
   27.1766    7.4106   60.2666 C   0  0  2  0  0  0  0  0  0  0  0  0
   25.8612    7.1685   59.6000 N   0  3  0  0  0  0  0  0  0  0  0  0
   26.9931    8.0490   61.6838 C   0  0  1  0  0  0  0  0  0  0  0  0
   28.3267    8.0869   62.3223 O   0  0  0  0  0  0  0  0  0  0  0  0
   26.4218    9.5188   61.6164 C   0  0  2  0  0  0  0  0  0  0  0  0
   25.1030    9.4707   61.0478 O   0  0  0  0  0  0  0  0  0  0  0  0
   27.4093   10.3923   60.7367 C   0  0  1  0  0  0  0  0  0  0  0  0
   27.5210    9.7468   59.4236 O   0  0  0  0  0  0  0  0  0  0  0  0
   26.9776   11.8657   60.5587 C   0  0  0  0  0  0  0  0  0  0  0  0
   27.9681   12.6863   59.8104 N   0  3  0  0  0  0  0  0  0  0  0  0
  1  2  1  6  0  0  0
  1  3  1  0  0  0  0
  1 10  1  0  0  0  0
  3  4  1  6  0  0  0
  3  5  1  0  0  0  0
  5  6  1  1  0  0  0
  5  7  1  0  0  0  0
  7  8  1  6  0  0  0
  7  9  1  0  0  0  0
  9 10  1  0  0  0  0
  9 11  1  1  0  0  0
 11 12  1  0  0  0  0
 13 14  1  1  0  0  0
 13 15  1  0  0  0  0
 13 21  1  0  0  0  0
 15 16  1  0  0  0  0
 16 17  1  1  0  0  0
 16 18  1  0  0  0  0
 18  2  1  6  0  0  0
 18 19  1  0  0  0  0
 19 20  1  1  0  0  0
 19 21  1  0  0  0  0
 21 22  1  6  0  0  0
 23 20  1  6  0  0  0
 23 24  1  0  0  0  0
 23 29  1  0  0  0  0
 24 25  1  6  0  0  0
 24 26  1  0  0  0  0
 26 27  1  6  0  0  0
 26 28  1  0  0  0  0
 28 29  1  0  0  0  0
 28 30  1  6  0  0  0
 30 31  1  0  0  0  0
 32 27  1  6  0  0  0
 32 33  1  0  0  0  0
 32 40  1  0  0  0  0
 33 34  1  6  0  0  0
 33 35  1  0  0  0  0
 35 36  1  6  0  0  0
 35 37  1  0  0  0  0
 37 38  1  6  0  0  0
 37 39  1  0  0  0  0
 39 40  1  0  0  0  0
 39 41  1  6  0  0  0
 41 42  1  0  0  0  0
M  CHG  5   4   1  14   1  17   1  34   1  42   1
M  END
>  <CHROM.1>
-174.57680429,-166.11683588,56.65102037,60.32452093,-62.36952383,-167.79680290
59.65903823,79.59393025,171.48975540,-79.17760659,76.57769433,62.15861649
172.46246810,-176.84575131,-76.82551709,-61.12397762,-59.85598190,45.59343868
-57.06079633,76.33359040,175.95643918,-65.29489920,29.78651626,6.52922146
56.74522301,-0.37428213,-1.03579113,1.97838206

>  <Name>
1j7t

>  <RI>
0

>  <Rbt.Current_Directory>
/home/itssahil/PROJECTS/Mol_Feturizer/New_Systems/rnas/1j7t

>  <Rbt.Executable>
rbdock ($Id: //depot/dev/client3/rdock/2013.1/src/exe/rbdock.cxx#4 $)

>  <Rbt.Library>
libRbt.so (2013.1, Build901 2013/11/27)

>  <Rbt.Parameter_File>
/export/apps/rDock/src/rDock_2013.1_src/data/scripts/dock_solv.prm

>  <Rbt.Receptor>
prm/pocket_docking_8.prm

>  <SCORE>
-36.9795

>  <SCORE.INTER>
-14.9671

>  <SCORE.INTER.CONST>
1

>  <SCORE.INTER.POLAR>
-3.58908

>  <SCORE.INTER.ROT>
9

>  <SCORE.INTER.SOLV>
10.6927

>  <SCORE.INTER.VDW>
-11.1787

>  <SCORE.INTER.norm>
-0.35636

>  <SCORE.INTRA>
-22.0124

>  <SCORE.INTRA.DIHEDRAL>
-36.3496

>  <SCORE.INTRA.DIHEDRAL.0>
46.2143

>  <SCORE.INTRA.POLAR>
0.0740679

>  <SCORE.INTRA.POLAR.0>
-1.76436

>  <SCORE.INTRA.REPUL>
0

>  <SCORE.INTRA.REPUL.0>
0

>  <SCORE.INTRA.SOLV>
-4.06612

>  <SCORE.INTRA.SOLV.lig_0>
-148.643

>  <SCORE.INTRA.VDW>
-2.05633

>  <SCORE.INTRA.VDW.0>
-4.83512

>  <SCORE.INTRA.norm>
-0.524104

>  <SCORE.RESTR>
0

>  <SCORE.RESTR.CAVITY>
0

>  <SCORE.RESTR.norm>
0

>  <SCORE.SYSTEM>
0

>  <SCORE.SYSTEM.CONST>
0

>  <SCORE.SYSTEM.DIHEDRAL>
0

>  <SCORE.SYSTEM.SOLV>
0

>  <SCORE.SYSTEM.norm>
0

>  <SCORE.heavy>
42

>  <SCORE.norm>
-0.880464

>  <RMSD>
6.342

$$$$
1j7t
 OpenBabel11021811393D
libRbt.so/2013.1/901 2013/11/27
 42 45  0  0  0  0  0  0  0  0999 V2000
   31.1670   11.4477   52.0134 C   0  0  2  0  0  0  0  0  0  0  0  0
   29.9063   11.0046   51.4506 O   0  0  0  0  0  0  0  0  0  0  0  0
   32.0311   11.9702   50.8300 C   0  0  2  0  0  0  0  0  0  0  0  0
   31.3620   12.9985   49.9824 N   0  3  0  0  0  0  0  0  0  0  0  0
   32.3857   10.7675   49.9285 C   0  0  1  0  0  0  0  0  0  0  0  0
   33.1797   11.1762   48.8505 O   0  0  0  0  0  0  0  0  0  0  0  0
   33.1089    9.6789   50.7564 C   0  0  2  0  0  0  0  0  0  0  0  0
   33.4620    8.5767   49.9443 O   0  0  0  0  0  0  0  0  0  0  0  0
   32.2086    9.2022   51.8763 C   0  0  2  0  0  0  0  0  0  0  0  0
   31.8173   10.3148   52.6706 O   0  0  0  0  0  0  0  0  0  0  0  0
   32.8870    8.2197   52.8045 C   0  0  0  0  0  0  0  0  0  0  0  0
   32.9871    6.9608   52.1669 O   0  0  0  0  0  0  0  0  0  0  0  0
   27.7057    7.4397   50.9059 C   0  0  2  0  0  0  0  0  0  0  0  0
   27.3839    6.0314   50.6724 N   0  3  0  0  0  0  0  0  0  0  0  0
   28.4511    8.0301   49.6633 C   0  0  0  0  0  0  0  0  0  0  0  0
   28.8350    9.4991   49.9245 C   0  0  2  0  0  0  0  0  0  0  0  0
   29.5823   10.0529   48.7905 N   0  3  0  0  0  0  0  0  0  0  0  0
   29.6878    9.6108   51.2036 C   0  0  2  0  0  0  0  0  0  0  0  0
   28.9888    9.0114   52.4395 C   0  0  2  0  0  0  0  0  0  0  0  0
   29.9599    9.0477   53.5030 O   0  0  0  0  0  0  0  0  0  0  0  0
   28.5594    7.5489   52.1593 C   0  0  1  0  0  0  0  0  0  0  0  0
   27.8393    7.0616   53.2580 O   0  0  0  0  0  0  0  0  0  0  0  0
   29.8178    9.8530   54.6703 C   0  0  1  0  0  0  0  0  0  0  0  0
   28.5300    9.3921   55.4416 C   0  0  2  0  0  0  0  0  0  0  0  0
   27.3425   10.0391   55.0171 O   0  0  0  0  0  0  0  0  0  0  0  0
   28.9792    9.7463   56.8523 C   0  0  2  0  0  0  0  0  0  0  0  0
   29.0658   11.1923   57.0293 O   0  0  0  0  0  0  0  0  0  0  0  0
   30.3956    9.1908   56.9013 C   0  0  2  0  0  0  0  0  0  0  0  0
   30.8930    9.5973   55.6148 O   0  0  0  0  0  0  0  0  0  0  0  0
   30.4896    7.6457   57.1241 C   0  0  0  0  0  0  0  0  0  0  0  0
   29.8787    7.2509   58.3590 O   0  0  0  0  0  0  0  0  0  0  0  0
   29.8102   11.5922   58.1772 C   0  0  2  0  0  0  0  0  0  0  0  0
   29.1323   11.2522   59.5480 C   0  0  2  0  0  0  0  0  0  0  0  0
   27.7751   11.8611   59.6915 N   0  3  0  0  0  0  0  0  0  0  0  0
   30.1034   11.7427   60.6733 C   0  0  1  0  0  0  0  0  0  0  0  0
   31.3513   10.9589   60.5462 O   0  0  0  0  0  0  0  0  0  0  0  0
   30.4532   13.2764   60.5451 C   0  0  2  0  0  0  0  0  0  0  0  0
   29.2474   14.0367   60.7260 O   0  0  0  0  0  0  0  0  0  0  0  0
   31.0917   13.5191   59.1149 C   0  0  1  0  0  0  0  0  0  0  0  0
   30.1252   13.0534   58.1138 O   0  0  0  0  0  0  0  0  0  0  0  0
   31.4768   14.9876   58.8248 C   0  0  0  0  0  0  0  0  0  0  0  0
   30.7753   15.9670   59.6985 N   0  3  0  0  0  0  0  0  0  0  0  0
  1  2  1  6  0  0  0
  1  3  1  0  0  0  0
  1 10  1  0  0  0  0
  3  4  1  6  0  0  0
  3  5  1  0  0  0  0
  5  6  1  6  0  0  0
  5  7  1  0  0  0  0
  7  8  1  6  0  0  0
  7  9  1  0  0  0  0
  9 10  1  0  0  0  0
  9 11  1  1  0  0  0
 11 12  1  0  0  0  0
 13 14  1  6  0  0  0
 13 15  1  0  0  0  0
 13 21  1  0  0  0  0
 15 16  1  0  0  0  0
 16 17  1  6  0  0  0
 16 18  1  0  0  0  0
 18  2  1  1  0  0  0
 18 19  1  0  0  0  0
 19 20  1  1  0  0  0
 19 21  1  0  0  0  0
 21 22  1  1  0  0  0
 23 20  1  6  0  0  0
 23 24  1  0  0  0  0
 23 29  1  0  0  0  0
 24 25  1  6  0  0  0
 24 26  1  0  0  0  0
 26 27  1  6  0  0  0
 26 28  1  0  0  0  0
 28 29  1  0  0  0  0
 28 30  1  6  0  0  0
 30 31  1  0  0  0  0
 32 27  1  6  0  0  0
 32 33  1  0  0  0  0
 32 40  1  0  0  0  0
 33 34  1  6  0  0  0
 33 35  1  0  0  0  0
 35 36  1  6  0  0  0
 35 37  1  0  0  0  0
 37 38  1  6  0  0  0
 37 39  1  0  0  0  0
 39 40  1  0  0  0  0
 39 41  1  6  0  0  0
 41 42  1  0  0  0  0
M  CHG  5   4   1  14   1  17   1  34   1  42   1
M  END
>  <CHROM.1>
99.43190810,-144.83510786,-160.97609124,-86.26733262,-168.95952588,-74.90564209
-169.88213559,-50.81056971,-52.71685891,114.29357807,61.84098661,177.07177536
-68.11724334,-163.98907727,-68.47452998,-59.81216428,-174.47617589,-67.73137519
-57.12673842,68.47835542,-20.07048901,-27.64030008,30.24009650,10.28372698
54.49400991,-1.44571879,0.97202311,1.11464473

>  <Name>
1j7t

>  <RI>
0

>  <Rbt.Current_Directory>
/home/itssahil/PROJECTS/Mol_Feturizer/New_Systems/rnas/1j7t

>  <Rbt.Executable>
rbdock ($Id: //depot/dev/client3/rdock/2013.1/src/exe/rbdock.cxx#4 $)

>  <Rbt.Library>
libRbt.so (2013.1, Build901 2013/11/27)

>  <Rbt.Parameter_File>
/export/apps/rDock/src/rDock_2013.1_src/data/scripts/dock_solv.prm

>  <Rbt.Receptor>
prm/blind_docking_80.prm

>  <SCORE>
6.85858

>  <SCORE.INTER>
-15.9313

>  <SCORE.INTER.CONST>
1

>  <SCORE.INTER.POLAR>
-4.34985

>  <SCORE.INTER.ROT>
9

>  <SCORE.INTER.SOLV>
32.6713

>  <SCORE.INTER.VDW>
-16.6118

>  <SCORE.INTER.norm>
-0.379317

>  <SCORE.INTRA>
-3.17343

>  <SCORE.INTRA.DIHEDRAL>
-14.1793

>  <SCORE.INTRA.DIHEDRAL.0>
46.2143

>  <SCORE.INTRA.POLAR>
-0.362369

>  <SCORE.INTRA.POLAR.0>
-1.76436

>  <SCORE.INTRA.REPUL>
0.00353541

>  <SCORE.INTRA.REPUL.0>
0

>  <SCORE.INTRA.SOLV>
3.53279

>  <SCORE.INTRA.SOLV.lig_0>
-148.643

>  <SCORE.INTRA.VDW>
3.36418

>  <SCORE.INTRA.VDW.0>
-4.83512

>  <SCORE.INTRA.norm>
-0.0755578

>  <SCORE.RESTR>
25.9633

>  <SCORE.RESTR.CAVITY>
25.9633

>  <SCORE.RESTR.norm>
0.618175

>  <SCORE.SYSTEM>
0

>  <SCORE.SYSTEM.CONST>
0

>  <SCORE.SYSTEM.DIHEDRAL>
0

>  <SCORE.SYSTEM.SOLV>
0

>  <SCORE.SYSTEM.norm>
0

>  <SCORE.heavy>
42

>  <SCORE.norm>
0.1633

>  <RMSD>
6.352

$$$$
1j7t
 OpenBabel11021811393D
libRbt.so/2013.1/901 2013/11/27
 42 45  0  0  0  0  0  0  0  0999 V2000
   30.8874    8.8510   59.2759 C   0  0  2  0  0  0  0  0  0  0  0  0
   29.8007    8.0917   59.8633 O   0  0  0  0  0  0  0  0  0  0  0  0
   30.4196   10.3332   59.2117 C   0  0  2  0  0  0  0  0  0  0  0  0
   29.9387   10.8869   60.5101 N   0  3  0  0  0  0  0  0  0  0  0  0
   29.2599   10.4258   58.1961 C   0  0  1  0  0  0  0  0  0  0  0  0
   28.8066   11.7455   58.0838 O   0  0  0  0  0  0  0  0  0  0  0  0
   29.7160    9.8870   56.8194 C   0  0  2  0  0  0  0  0  0  0  0  0
   28.6743    9.9828   55.8681 O   0  0  0  0  0  0  0  0  0  0  0  0
   30.1387    8.4391   56.9486 C   0  0  2  0  0  0  0  0  0  0  0  0
   31.1572    8.3332   57.9353 O   0  0  0  0  0  0  0  0  0  0  0  0
   30.7099    7.8719   55.6683 C   0  0  0  0  0  0  0  0  0  0  0  0
   29.6857    7.7758   54.6972 O   0  0  0  0  0  0  0  0  0  0  0  0
   31.1592    4.2219   58.8497 C   0  0  2  0  0  0  0  0  0  0  0  0
   31.3004    2.7657   58.8214 N   0  3  0  0  0  0  0  0  0  0  0  0
   31.5100    4.7647   60.2748 C   0  0  0  0  0  0  0  0  0  0  0  0
   31.3155    6.2923   60.3225 C   0  0  2  0  0  0  0  0  0  0  0  0
   31.5883    6.8114   61.6668 N   0  3  0  0  0  0  0  0  0  0  0  0
   29.8764    6.6622   59.9128 C   0  0  2  0  0  0  0  0  0  0  0  0
   29.4938    6.1163   58.5233 C   0  0  2  0  0  0  0  0  0  0  0  0
   28.0924    6.4039   58.3543 O   0  0  0  0  0  0  0  0  0  0  0  0
   29.7356    4.5868   58.4600 C   0  0  1  0  0  0  0  0  0  0  0  0
   29.4770    4.1328   57.1600 O   0  0  0  0  0  0  0  0  0  0  0  0
   27.0577    5.7028   59.0392 C   0  0  1  0  0  0  0  0  0  0  0  0
   26.8352    6.3815   60.4377 C   0  0  2  0  0  0  0  0  0  0  0  0
   27.6709    5.8733   61.4635 O   0  0  0  0  0  0  0  0  0  0  0  0
   25.3560    6.0629   60.6046 C   0  0  2  0  0  0  0  0  0  0  0  0
   25.1453    4.6330   60.8063 O   0  0  0  0  0  0  0  0  0  0  0  0
   24.7804    6.4254   59.2428 C   0  0  2  0  0  0  0  0  0  0  0  0
   25.7793    5.8730   58.3683 O   0  0  0  0  0  0  0  0  0  0  0  0
   24.5536    7.9552   59.0098 C   0  0  0  0  0  0  0  0  0  0  0  0
   23.3158    8.3995   59.5793 O   0  0  0  0  0  0  0  0  0  0  0  0
   25.1820    4.2287   62.1726 C   0  0  2  0  0  0  0  0  0  0  0  0
   25.1855    2.6781   62.3966 C   0  0  2  0  0  0  0  0  0  0  0  0
   24.0008    2.0009   61.7873 N   0  3  0  0  0  0  0  0  0  0  0  0
   25.2519    2.4387   63.9419 C   0  0  1  0  0  0  0  0  0  0  0  0
   26.5372    2.9961   64.4159 O   0  0  0  0  0  0  0  0  0  0  0  0
   24.0748    3.1505   64.7159 C   0  0  2  0  0  0  0  0  0  0  0  0
   22.8315    2.5665   64.2942 O   0  0  0  0  0  0  0  0  0  0  0  0
   24.1362    4.7004   64.3903 C   0  0  1  0  0  0  0  0  0  0  0  0
   24.0534    4.8502   62.9329 O   0  0  0  0  0  0  0  0  0  0  0  0
   23.0295    5.5423   65.0651 C   0  0  0  0  0  0  0  0  0  0  0  0
   21.6618    5.2276   64.5701 N   0  3  0  0  0  0  0  0  0  0  0  0
  1  2  1  6  0  0  0
  1  3  1  0  0  0  0
  1 10  1  0  0  0  0
  3  4  1  1  0  0  0
  3  5  1  0  0  0  0
  5  6  1  6  0  0  0
  5  7  1  0  0  0  0
  7  8  1  6  0  0  0
  7  9  1  0  0  0  0
  9 10  1  0  0  0  0
  9 11  1  6  0  0  0
 11 12  1  0  0  0  0
 13 14  1  1  0  0  0
 13 15  1  0  0  0  0
 13 21  1  0  0  0  0
 15 16  1  0  0  0  0
 16 17  1  1  0  0  0
 16 18  1  0  0  0  0
 18  2  1  6  0  0  0
 18 19  1  0  0  0  0
 19 20  1  1  0  0  0
 19 21  1  0  0  0  0
 21 22  1  6  0  0  0
 23 20  1  6  0  0  0
 23 24  1  0  0  0  0
 23 29  1  0  0  0  0
 24 25  1  1  0  0  0
 24 26  1  0  0  0  0
 26 27  1  6  0  0  0
 26 28  1  0  0  0  0
 28 29  1  0  0  0  0
 28 30  1  1  0  0  0
 30 31  1  0  0  0  0
 32 27  1  6  0  0  0
 32 33  1  0  0  0  0
 32 40  1  0  0  0  0
 33 34  1  1  0  0  0
 33 35  1  0  0  0  0
 35 36  1  1  0  0  0
 35 37  1  0  0  0  0
 37 38  1  6  0  0  0
 37 39  1  0  0  0  0
 39 40  1  0  0  0  0
 39 41  1  1  0  0  0
 41 42  1  0  0  0  0
M  CHG  5   4   1  14   1  17   1  34   1  42   1
M  END
>  <CHROM.1>
172.86477345,42.11556223,-171.64283503,57.64426370,78.30790093,-67.90107733
-171.38190129,-51.92592968,-81.27980575,-73.22643544,85.95287403,-59.36027632
-178.77509193,89.51442982,-170.77699314,-82.46646314,-68.02925052,175.03848992
-179.36360457,73.89605487,-66.02075706,34.12612061,27.56807504,6.26557801
60.10963467,-0.77806660,-0.43003359,2.64481417

>  <Name>
1j7t

>  <RI>
224

>  <Rbt.Current_Directory>
/home/itssahil/PROJECTS/Mol_Feturizer/New_Systems/rnas/1j7t

>  <Rbt.Executable>
rbdock ($Id: //depot/dev/client3/rdock/2013.1/src/exe/rbdock.cxx#4 $)

>  <Rbt.Library>
libRbt.so (2013.1, Build901 2013/11/27)

>  <Rbt.Parameter_File>
/export/apps/rDock/src/rDock_2013.1_src/data/scripts/dock_solv.prm

>  <Rbt.Receptor>
prm/pocket_docking_7.prm

>  <SCORE>
-55.3732

>  <SCORE.INTER>
-40.731

>  <SCORE.INTER.CONST>
1

>  <SCORE.INTER.POLAR>
-7.27415

>  <SCORE.INTER.ROT>
9

>  <SCORE.INTER.SOLV>
21.5157

>  <SCORE.INTER.VDW>
-19.6787

>  <SCORE.INTER.norm>
-0.969787

>  <SCORE.INTRA>
-14.646

>  <SCORE.INTRA.DIHEDRAL>
-28.5349

>  <SCORE.INTRA.DIHEDRAL.0>
46.2143

>  <SCORE.INTRA.POLAR>
0.292186

>  <SCORE.INTRA.POLAR.0>
-1.76436

>  <SCORE.INTRA.REPUL>
0

>  <SCORE.INTRA.REPUL.0>
0

>  <SCORE.INTRA.SOLV>
-2.46377

>  <SCORE.INTRA.SOLV.lig_0>
-148.643

>  <SCORE.INTRA.VDW>
-0.140122

>  <SCORE.INTRA.VDW.0>
-4.83512

>  <SCORE.INTRA.norm>
-0.348715

>  <SCORE.RESTR>
0.00387849

>  <SCORE.RESTR.CAVITY>
0.00387849

>  <SCORE.RESTR.norm>
9.23449e-05

>  <SCORE.SYSTEM>
0

>  <SCORE.SYSTEM.CONST>
0

>  <SCORE.SYSTEM.DIHEDRAL>
0

>  <SCORE.SYSTEM.SOLV>
0

>  <SCORE.SYSTEM.norm>
0

>  <SCORE.heavy>
42

>  <SCORE.norm>
-1.31841

>  <RMSD>
6.375

$$$$
1j7t
 OpenBabel11021811393D
libRbt.so/2013.1/901 2013/11/27
 42 45  0  0  0  0  0  0  0  0999 V2000
   27.9427    6.1626   56.9472 C   0  0  2  0  0  0  0  0  0  0  0  0
   28.0773    7.6057   56.9878 O   0  0  0  0  0  0  0  0  0  0  0  0
   27.1867    5.7430   58.2405 C   0  0  2  0  0  0  0  0  0  0  0  0
   25.8961    6.4565   58.4616 N   0  3  0  0  0  0  0  0  0  0  0  0
   28.1046    6.0344   59.4477 C   0  0  1  0  0  0  0  0  0  0  0  0
   27.4806    5.6602   60.6436 O   0  0  0  0  0  0  0  0  0  0  0  0
   29.4522    5.2930   59.2807 C   0  0  2  0  0  0  0  0  0  0  0  0
   30.3003    5.5295   60.3870 O   0  0  0  0  0  0  0  0  0  0  0  0
   30.1427    5.7603   58.0170 C   0  0  2  0  0  0  0  0  0  0  0  0
   29.2757    5.5629   56.9073 O   0  0  0  0  0  0  0  0  0  0  0  0
   31.4140    4.9972   57.7195 C   0  0  0  0  0  0  0  0  0  0  0  0
   31.1257    3.6146   57.6379 O   0  0  0  0  0  0  0  0  0  0  0  0
   30.5932    8.0351   53.6212 C   0  0  2  0  0  0  0  0  0  0  0  0
   31.3543    8.6406   52.5278 N   0  3  0  0  0  0  0  0  0  0  0  0
   29.0658    8.3135   53.4267 C   0  0  0  0  0  0  0  0  0  0  0  0
   28.2652    7.7197   54.6015 C   0  0  2  0  0  0  0  0  0  0  0  0
   26.8359    8.0179   54.4628 N   0  3  0  0  0  0  0  0  0  0  0  0
   28.7790    8.2850   55.9401 C   0  0  2  0  0  0  0  0  0  0  0  0
   30.2880    8.0492   56.1462 C   0  0  2  0  0  0  0  0  0  0  0  0
   30.6422    8.7619   57.3471 O   0  0  0  0  0  0  0  0  0  0  0  0
   31.0895    8.6036   54.9412 C   0  0  1  0  0  0  0  0  0  0  0  0
   32.4448    8.2880   55.1048 O   0  0  0  0  0  0  0  0  0  0  0  0
   29.9994    8.5556   58.6022 C   0  0  1  0  0  0  0  0  0  0  0  0
   30.9032    9.1652   59.7326 C   0  0  2  0  0  0  0  0  0  0  0  0
   31.8763    8.2673   60.2382 O   0  0  0  0  0  0  0  0  0  0  0  0
   29.8038    9.5346   60.7186 C   0  0  2  0  0  0  0  0  0  0  0  0
   29.1856    8.3419   61.2886 O   0  0  0  0  0  0  0  0  0  0  0  0
   28.7692   10.2088   59.8285 C   0  0  2  0  0  0  0  0  0  0  0  0
   28.7707    9.3272   58.6924 O   0  0  0  0  0  0  0  0  0  0  0  0
   29.0956   11.6892   59.4441 C   0  0  0  0  0  0  0  0  0  0  0  0
   28.1328   12.2222   58.5260 O   0  0  0  0  0  0  0  0  0  0  0  0
   27.9580    8.5934   61.9676 C   0  0  2  0  0  0  0  0  0  0  0  0
   27.9829    9.8303   62.9287 C   0  0  2  0  0  0  0  0  0  0  0  0
   29.0355    9.7243   63.9842 N   0  3  0  0  0  0  0  0  0  0  0  0
   26.5533    9.9536   63.5538 C   0  0  1  0  0  0  0  0  0  0  0  0
   25.6131   10.2249   62.4448 O   0  0  0  0  0  0  0  0  0  0  0  0
   26.0993    8.6342   64.2916 C   0  0  2  0  0  0  0  0  0  0  0  0
   26.9813    8.4054   65.4027 O   0  0  0  0  0  0  0  0  0  0  0  0
   26.1487    7.4429   63.2473 C   0  0  1  0  0  0  0  0  0  0  0  0
   27.5150    7.3761   62.7162 O   0  0  0  0  0  0  0  0  0  0  0  0
   25.7451    6.0669   63.8240 C   0  0  0  0  0  0  0  0  0  0  0  0
   24.3104    5.9848   64.2103 N   0  3  0  0  0  0  0  0  0  0  0  0
  1  2  1  1  0  0  0
  1  3  1  0  0  0  0
  1 10  1  0  0  0  0
  3  4  1  1  0  0  0
  3  5  1  0  0  0  0
  5  6  1  1  0  0  0
  5  7  1  0  0  0  0
  7  8  1  1  0  0  0
  7  9  1  0  0  0  0
  9 10  1  0  0  0  0
  9 11  1  6  0  0  0
 11 12  1  0  0  0  0
 13 14  1  6  0  0  0
 13 15  1  0  0  0  0
 13 21  1  0  0  0  0
 15 16  1  0  0  0  0
 16 17  1  6  0  0  0
 16 18  1  0  0  0  0
 18  2  1  1  0  0  0
 18 19  1  0  0  0  0
 19 20  1  1  0  0  0
 19 21  1  0  0  0  0
 21 22  1  1  0  0  0
 23 20  1  6  0  0  0
 23 24  1  0  0  0  0
 23 29  1  0  0  0  0
 24 25  1  1  0  0  0
 24 26  1  0  0  0  0
 26 27  1  6  0  0  0
 26 28  1  0  0  0  0
 28 29  1  0  0  0  0
 28 30  1  6  0  0  0
 30 31  1  0  0  0  0
 32 27  1  1  0  0  0
 32 33  1  0  0  0  0
 32 40  1  0  0  0  0
 33 34  1  1  0  0  0
 33 35  1  0  0  0  0
 35 36  1  6  0  0  0
 35 37  1  0  0  0  0
 37 38  1  1  0  0  0
 37 39  1  0  0  0  0
 39 40  1  0  0  0  0
 39 41  1  1  0  0  0
 41 42  1  0  0  0  0
M  CHG  5   4   1  14   1  17   1  34   1  42   1
M  END
>  <CHROM.1>
177.89414717,46.66028302,-54.30181377,58.65050414,56.43883718,56.63738520
58.13966553,-174.28500568,-166.44642139,55.48139318,163.45709420,65.99512508
-166.18056797,-166.00170692,-45.42993756,175.57110392,63.85171738,-37.98899431
54.81115557,-95.88684015,67.10528157,59.26105344,28.70967824,7.86144205,59.17734278
0.39682082,-1.15265182,-2.77369292

>  <Name>
1j7t

>  <RI>
0

>  <Rbt.Current_Directory>
/home/itssahil/PROJECTS/Mol_Feturizer/New_Systems/rnas/1j7t

>  <Rbt.Executable>
rbdock ($Id: //depot/dev/client3/rdock/2013.1/src/exe/rbdock.cxx#4 $)

>  <Rbt.Library>
libRbt.so (2013.1, Build901 2013/11/27)

>  <Rbt.Parameter_File>
/export/apps/rDock/src/rDock_2013.1_src/data/scripts/dock_solv.prm

>  <Rbt.Receptor>
prm/pocket_docking_6.prm

>  <SCORE>
-35.9748

>  <SCORE.INTER>
-27.3124

>  <SCORE.INTER.CONST>
1

>  <SCORE.INTER.POLAR>
-4.74743

>  <SCORE.INTER.ROT>
9

>  <SCORE.INTER.SOLV>
14.9757

>  <SCORE.INTER.VDW>
-16.9754

>  <SCORE.INTER.norm>
-0.650295

>  <SCORE.INTRA>
-8.66243

>  <SCORE.INTRA.DIHEDRAL>
-33.4315

>  <SCORE.INTRA.DIHEDRAL.0>
46.2143

>  <SCORE.INTRA.POLAR>
1.74893

>  <SCORE.INTRA.POLAR.0>
-1.76436

>  <SCORE.INTRA.REPUL>
0.374117

>  <SCORE.INTRA.REPUL.0>
0

>  <SCORE.INTRA.SOLV>
-1.00764

>  <SCORE.INTRA.SOLV.lig_0>
-148.643

>  <SCORE.INTRA.VDW>
0.740223

>  <SCORE.INTRA.VDW.0>
-4.83512

>  <SCORE.INTRA.norm>
-0.206248

>  <SCORE.RESTR>
0

>  <SCORE.RESTR.CAVITY>
0

>  <SCORE.RESTR.norm>
0

>  <SCORE.SYSTEM>
0

>  <SCORE.SYSTEM.CONST>
0

>  <SCORE.SYSTEM.DIHEDRAL>
0

>  <SCORE.SYSTEM.SOLV>
0

>  <SCORE.SYSTEM.norm>
0

>  <SCORE.heavy>
42

>  <SCORE.norm>
-0.856543

>  <RMSD>
6.410

$$$$
1j7t
 OpenBabel11021811393D
libRbt.so/2013.1/901 2013/11/27
 42 45  0  0  0  0  0  0  0  0999 V2000
   32.8814    4.3543   54.2219 C   0  0  2  0  0  0  0  0  0  0  0  0
   33.0809    4.1128   52.8061 O   0  0  0  0  0  0  0  0  0  0  0  0
   34.2936    4.4838   54.8613 C   0  0  2  0  0  0  0  0  0  0  0  0
   35.1805    5.4865   54.2043 N   0  3  0  0  0  0  0  0  0  0  0  0
   34.9865    3.1064   54.7749 C   0  0  1  0  0  0  0  0  0  0  0  0
   36.2608    3.1581   55.3521 O   0  0  0  0  0  0  0  0  0  0  0  0
   34.1172    2.0308   55.4683 C   0  0  2  0  0  0  0  0  0  0  0  0
   34.7443    0.7645   55.4192 O   0  0  0  0  0  0  0  0  0  0  0  0
   32.7678    1.9432   54.7874 C   0  0  2  0  0  0  0  0  0  0  0  0
   32.1524    3.2250   54.7975 O   0  0  0  0  0  0  0  0  0  0  0  0
   31.8147    0.9953   55.4803 C   0  0  0  0  0  0  0  0  0  0  0  0
   32.4119    0.5108   56.6676 O   0  0  0  0  0  0  0  0  0  0  0  0
   30.5864    4.2541   49.3994 C   0  0  2  0  0  0  0  0  0  0  0  0
   29.4733    3.9971   48.4849 N   0  3  0  0  0  0  0  0  0  0  0  0
   31.3724    2.9284   49.6696 C   0  0  0  0  0  0  0  0  0  0  0  0
   32.5155    3.1847   50.6702 C   0  0  2  0  0  0  0  0  0  0  0  0
   33.2298    1.9410   50.9764 N   0  3  0  0  0  0  0  0  0  0  0  0
   31.9603    3.7910   51.9740 C   0  0  2  0  0  0  0  0  0  0  0  0
   31.1573    5.0845   51.7347 C   0  0  2  0  0  0  0  0  0  0  0  0
   30.5804    5.4364   53.0070 O   0  0  0  0  0  0  0  0  0  0  0  0
   30.0379    4.8384   50.6915 C   0  0  1  0  0  0  0  0  0  0  0  0
   29.3892    6.0496   50.4173 O   0  0  0  0  0  0  0  0  0  0  0  0
   29.3962    4.8369   53.5261 C   0  0  1  0  0  0  0  0  0  0  0  0
   29.1804    5.3476   54.9953 C   0  0  2  0  0  0  0  0  0  0  0  0
   29.8414    4.5690   55.9781 O   0  0  0  0  0  0  0  0  0  0  0  0
   27.6607    5.2680   55.0355 C   0  0  2  0  0  0  0  0  0  0  0  0
   27.2057    3.8815   55.0139 O   0  0  0  0  0  0  0  0  0  0  0  0
   27.2577    5.9054   53.7131 C   0  0  2  0  0  0  0  0  0  0  0  0
   28.2177    5.3135   52.8210 O   0  0  0  0  0  0  0  0  0  0  0  0
   27.3009    7.4686   53.6954 C   0  0  0  0  0  0  0  0  0  0  0  0
   26.0961    8.0373   54.2235 O   0  0  0  0  0  0  0  0  0  0  0  0
   27.4637    3.1679   56.2204 C   0  0  2  0  0  0  0  0  0  0  0  0
   26.4215    2.0466   56.5534 C   0  0  2  0  0  0  0  0  0  0  0  0
   25.0242    2.5659   56.6603 N   0  3  0  0  0  0  0  0  0  0  0  0
   26.8862    1.3705   57.8863 C   0  0  1  0  0  0  0  0  0  0  0  0
   28.1998    0.7437   57.6238 O   0  0  0  0  0  0  0  0  0  0  0  0
   27.0458    2.4060   59.0668 C   0  0  2  0  0  0  0  0  0  0  0  0
   25.7567    2.9708   59.3567 O   0  0  0  0  0  0  0  0  0  0  0  0
   28.0844    3.5143   58.6140 C   0  0  1  0  0  0  0  0  0  0  0  0
   27.5793    4.1140   57.3736 O   0  0  0  0  0  0  0  0  0  0  0  0
   28.3398    4.6210   59.6623 C   0  0  0  0  0  0  0  0  0  0  0  0
   29.5715    4.4003   60.4678 N   0  3  0  0  0  0  0  0  0  0  0  0
  1  2  1  6  0  0  0
  1  3  1  0  0  0  0
  1 10  1  0  0  0  0
  3  4  1  6  0  0  0
  3  5  1  0  0  0  0
  5  6  1  1  0  0  0
  5  7  1  0  0  0  0
  7  8  1  6  0  0  0
  7  9  1  0  0  0  0
  9 10  1  0  0  0  0
  9 11  1  1  0  0  0
 11 12  1  0  0  0  0
 13 14  1  6  0  0  0
 13 15  1  0  0  0  0
 13 21  1  0  0  0  0
 15 16  1  0  0  0  0
 16 17  1  1  0  0  0
 16 18  1  0  0  0  0
 18  2  1  1  0  0  0
 18 19  1  0  0  0  0
 19 20  1  1  0  0  0
 19 21  1  0  0  0  0
 21 22  1  6  0  0  0
 23 20  1  6  0  0  0
 23 24  1  0  0  0  0
 23 29  1  0  0  0  0
 24 25  1  1  0  0  0
 24 26  1  0  0  0  0
 26 27  1  6  0  0  0
 26 28  1  0  0  0  0
 28 29  1  0  0  0  0
 28 30  1  1  0  0  0
 30 31  1  0  0  0  0
 32 27  1  6  0  0  0
 32 33  1  0  0  0  0
 32 40  1  0  0  0  0
 33 34  1  1  0  0  0
 33 35  1  0  0  0  0
 35 36  1  6  0  0  0
 35 37  1  0  0  0  0
 37 38  1  6  0  0  0
 37 39  1  0  0  0  0
 39 40  1  0  0  0  0
 39 41  1  1  0  0  0
 41 42  1  0  0  0  0
M  CHG  5   4   1  14   1  17   1  34   1  42   1
M  END
>  <CHROM.1>
172.57064228,-163.17982712,-81.15178458,62.60129930,179.94849521,4.70562944
-172.22272322,-63.59926408,-57.12022711,-80.72658665,173.24905604,-53.57570785
46.97393402,70.90065969,149.38410704,-84.08457387,-170.77795897,-69.80802955
-73.78423931,177.69297516,98.18893097,83.65964485,30.18443466,3.76104638
54.65591109,-0.70364631,-0.30548418,1.93025933

>  <Name>
1j7t

>  <RI>
0

>  <Rbt.Current_Directory>
/home/itssahil/PROJECTS/Mol_Feturizer/New_Systems/rnas/1j7t

>  <Rbt.Executable>
rbdock ($Id: //depot/dev/client3/rdock/2013.1/src/exe/rbdock.cxx#4 $)

>  <Rbt.Library>
libRbt.so (2013.1, Build901 2013/11/27)

>  <Rbt.Parameter_File>
/export/apps/rDock/src/rDock_2013.1_src/data/scripts/dock_solv.prm

>  <Rbt.Receptor>
prm/pocket_docking_6.prm

>  <SCORE>
-42.1836

>  <SCORE.INTER>
-28.7064

>  <SCORE.INTER.CONST>
1

>  <SCORE.INTER.POLAR>
-5.81967

>  <SCORE.INTER.ROT>
9

>  <SCORE.INTER.SOLV>
12.9045

>  <SCORE.INTER.VDW>
-13.6402

>  <SCORE.INTER.norm>
-0.683486

>  <SCORE.INTRA>
-13.4777

>  <SCORE.INTRA.DIHEDRAL>
-21.6801

>  <SCORE.INTRA.DIHEDRAL.0>
46.2143

>  <SCORE.INTRA.POLAR>
-0.413773

>  <SCORE.INTRA.POLAR.0>
-1.76436

>  <SCORE.INTRA.REPUL>
0

>  <SCORE.INTRA.REPUL.0>
0

>  <SCORE.INTRA.SOLV>
-5.24795

>  <SCORE.INTRA.SOLV.lig_0>
-148.643

>  <SCORE.INTRA.VDW>
1.39311

>  <SCORE.INTRA.VDW.0>
-4.83512

>  <SCORE.INTRA.norm>
-0.320898

>  <SCORE.RESTR>
0.000573743

>  <SCORE.RESTR.CAVITY>
0.000573743

>  <SCORE.RESTR.norm>
1.36605e-05

>  <SCORE.SYSTEM>
0

>  <SCORE.SYSTEM.CONST>
0

>  <SCORE.SYSTEM.DIHEDRAL>
0

>  <SCORE.SYSTEM.SOLV>
0

>  <SCORE.SYSTEM.norm>
0

>  <SCORE.heavy>
42

>  <SCORE.norm>
-1.00437

>  <RMSD>
6.417

$$$$
1j7t
 OpenBabel11021811393D
libRbt.so/2013.1/901 2013/11/27
 42 45  0  0  0  0  0  0  0  0999 V2000
   30.0355    3.5513   55.7042 C   0  0  2  0  0  0  0  0  0  0  0  0
   30.8483    3.6214   54.5055 O   0  0  0  0  0  0  0  0  0  0  0  0
   29.8474    2.0429   56.0347 C   0  0  2  0  0  0  0  0  0  0  0  0
   31.1175    1.2672   56.1290 N   0  3  0  0  0  0  0  0  0  0  0  0
   28.9861    1.4119   54.9190 C   0  0  1  0  0  0  0  0  0  0  0  0
   28.7691    0.0524   55.1724 O   0  0  0  0  0  0  0  0  0  0  0  0
   27.6403    2.1654   54.7975 C   0  0  2  0  0  0  0  0  0  0  0  0
   26.8266    1.5896   53.7948 O   0  0  0  0  0  0  0  0  0  0  0  0
   27.8939    3.6187   54.4572 C   0  0  2  0  0  0  0  0  0  0  0  0
   28.7466    4.1899   55.4413 O   0  0  0  0  0  0  0  0  0  0  0  0
   26.6317    4.4514   54.4361 C   0  0  0  0  0  0  0  0  0  0  0  0
   26.9527    5.7852   54.0910 O   0  0  0  0  0  0  0  0  0  0  0  0
   32.8302    6.8817   52.6915 C   0  0  2  0  0  0  0  0  0  0  0  0
   33.0662    8.1466   51.9945 N   0  3  0  0  0  0  0  0  0  0  0  0
   32.0507    5.8958   51.7594 C   0  0  0  0  0  0  0  0  0  0  0  0
   31.7574    4.5807   52.5064 C   0  0  2  0  0  0  0  0  0  0  0  0
   30.9799    3.6648   51.6651 N   0  3  0  0  0  0  0  0  0  0  0  0
   30.9813    4.8650   53.8073 C   0  0  2  0  0  0  0  0  0  0  0  0
   31.7137    5.8556   54.7333 C   0  0  2  0  0  0  0  0  0  0  0  0
   30.8040    6.1372   55.8144 O   0  0  0  0  0  0  0  0  0  0  0  0
   32.0517    7.1598   53.9675 C   0  0  1  0  0  0  0  0  0  0  0  0
   32.8035    8.0006   54.7987 O   0  0  0  0  0  0  0  0  0  0  0  0
   31.0364    7.1449   56.7951 C   0  0  1  0  0  0  0  0  0  0  0  0
   29.9066    7.0543   57.8820 C   0  0  2  0  0  0  0  0  0  0  0  0
   28.7498    7.8133   57.5742 O   0  0  0  0  0  0  0  0  0  0  0  0
   30.7051    7.5647   59.0732 C   0  0  2  0  0  0  0  0  0  0  0  0
   31.0193    8.9824   58.9276 O   0  0  0  0  0  0  0  0  0  0  0  0
   32.0103    6.7897   58.9574 C   0  0  2  0  0  0  0  0  0  0  0  0
   32.2536    6.8748   57.5427 O   0  0  0  0  0  0  0  0  0  0  0  0
   31.9477    5.3140   59.4713 C   0  0  0  0  0  0  0  0  0  0  0  0
   32.9434    4.4936   58.8473 O   0  0  0  0  0  0  0  0  0  0  0  0
   29.8898    9.8424   59.0548 C   0  0  2  0  0  0  0  0  0  0  0  0
   30.0650   11.2543   58.3989 C   0  0  2  0  0  0  0  0  0  0  0  0
   31.2336   12.0079   58.9465 N   0  3  0  0  0  0  0  0  0  0  0  0
   28.7251   12.0321   58.6211 C   0  0  1  0  0  0  0  0  0  0  0  0
   27.6662   11.2942   57.8988 O   0  0  0  0  0  0  0  0  0  0  0  0
   28.3263   12.1278   60.1453 C   0  0  2  0  0  0  0  0  0  0  0  0
   29.3287   12.8942   60.8326 O   0  0  0  0  0  0  0  0  0  0  0  0
   28.2161   10.6549   60.7200 C   0  0  1  0  0  0  0  0  0  0  0  0
   29.5061    9.9934   60.4929 O   0  0  0  0  0  0  0  0  0  0  0  0
   27.8464   10.5768   62.2188 C   0  0  0  0  0  0  0  0  0  0  0  0
   27.9160    9.1980   62.7744 N   0  3  0  0  0  0  0  0  0  0  0  0
  1  2  1  6  0  0  0
  1  3  1  0  0  0  0
  1 10  1  0  0  0  0
  3  4  1  6  0  0  0
  3  5  1  0  0  0  0
  5  6  1  1  0  0  0
  5  7  1  0  0  0  0
  7  8  1  6  0  0  0
  7  9  1  0  0  0  0
  9 10  1  0  0  0  0
  9 11  1  1  0  0  0
 11 12  1  0  0  0  0
 13 14  1  6  0  0  0
 13 15  1  0  0  0  0
 13 21  1  0  0  0  0
 15 16  1  0  0  0  0
 16 17  1  6  0  0  0
 16 18  1  0  0  0  0
 18  2  1  1  0  0  0
 18 19  1  0  0  0  0
 19 20  1  1  0  0  0
 19 21  1  0  0  0  0
 21 22  1  1  0  0  0
 23 20  1  6  0  0  0
 23 24  1  0  0  0  0
 23 29  1  0  0  0  0
 24 25  1  6  0  0  0
 24 26  1  0  0  0  0
 26 27  1  6  0  0  0
 26 28  1  0  0  0  0
 28 29  1  0  0  0  0
 28 30  1  6  0  0  0
 30 31  1  0  0  0  0
 32 27  1  1  0  0  0
 32 33  1  0  0  0  0
 32 40  1  0  0  0  0
 33 34  1  1  0  0  0
 33 35  1  0  0  0  0
 35 36  1  6  0  0  0
 35 37  1  0  0  0  0
 37 38  1  1  0  0  0
 37 39  1  0  0  0  0
 39 40  1  0  0  0  0
 39 41  1  1  0  0  0
 41 42  1  0  0  0  0
M  CHG  5   4   1  14   1  17   1  34   1  42   1
M  END
>  <CHROM.1>
168.04648003,-173.51094727,67.61069294,58.34603128,175.95584054,-179.09117467
-60.65475996,88.56184531,-68.45602997,-171.55575156,-174.32289430,57.28571274
-38.62105942,70.08585740,-158.34381144,155.12813772,169.38492140,111.16509022
-157.39120565,62.73266104,-172.76836730,63.53921266,30.05810542,6.64184236
56.63471481,1.47563937,-0.87883794,-2.54987897

>  <Name>
1j7t

>  <RI>
0

>  <Rbt.Current_Directory>
/home/itssahil/PROJECTS/Mol_Feturizer/New_Systems/rnas/1j7t

>  <Rbt.Executable>
rbdock ($Id: //depot/dev/client3/rdock/2013.1/src/exe/rbdock.cxx#4 $)

>  <Rbt.Library>
libRbt.so (2013.1, Build901 2013/11/27)

>  <Rbt.Parameter_File>
/export/apps/rDock/src/rDock_2013.1_src/data/scripts/dock_solv.prm

>  <Rbt.Receptor>
prm/pocket_docking_8.prm

>  <SCORE>
-47.8892

>  <SCORE.INTER>
-37.1717

>  <SCORE.INTER.CONST>
1

>  <SCORE.INTER.POLAR>
-7.243

>  <SCORE.INTER.ROT>
9

>  <SCORE.INTER.SOLV>
17.7501

>  <SCORE.INTER.VDW>
-16.1545

>  <SCORE.INTER.norm>
-0.885039

>  <SCORE.INTRA>
-10.7176

>  <SCORE.INTRA.DIHEDRAL>
-29.155

>  <SCORE.INTRA.DIHEDRAL.0>
46.2143

>  <SCORE.INTRA.POLAR>
1.72223

>  <SCORE.INTRA.POLAR.0>
-1.76436

>  <SCORE.INTRA.REPUL>
0

>  <SCORE.INTRA.REPUL.0>
0

>  <SCORE.INTRA.SOLV>
-6.16607

>  <SCORE.INTRA.SOLV.lig_0>
-148.643

>  <SCORE.INTRA.VDW>
1.08737

>  <SCORE.INTRA.VDW.0>
-4.83512

>  <SCORE.INTRA.norm>
-0.255181

>  <SCORE.RESTR>
0

>  <SCORE.RESTR.CAVITY>
0

>  <SCORE.RESTR.norm>
0

>  <SCORE.SYSTEM>
0

>  <SCORE.SYSTEM.CONST>
0

>  <SCORE.SYSTEM.DIHEDRAL>
0

>  <SCORE.SYSTEM.SOLV>
0

>  <SCORE.SYSTEM.norm>
0

>  <SCORE.heavy>
42

>  <SCORE.norm>
-1.14022

>  <RMSD>
6.436

$$$$
1j7t
 OpenBabel11021811393D
libRbt.so/2013.1/901 2013/11/27
 42 45  0  0  0  0  0  0  0  0999 V2000
   30.8853    3.1136   54.5792 C   0  0  2  0  0  0  0  0  0  0  0  0
   32.1114    3.1768   53.8077 O   0  0  0  0  0  0  0  0  0  0  0  0
   30.7164    1.6369   55.0385 C   0  0  2  0  0  0  0  0  0  0  0  0
   31.8987    1.0712   55.7498 N   0  3  0  0  0  0  0  0  0  0  0  0
   30.4564    0.7725   53.7854 C   0  0  1  0  0  0  0  0  0  0  0  0
   30.2796   -0.5700   54.1403 O   0  0  0  0  0  0  0  0  0  0  0  0
   29.2189    1.3023   53.0229 C   0  0  2  0  0  0  0  0  0  0  0  0
   28.9502    0.5109   51.8825 O   0  0  0  0  0  0  0  0  0  0  0  0
   29.4563    2.7333   52.5894 C   0  0  2  0  0  0  0  0  0  0  0  0
   29.7685    3.5240   53.7293 O   0  0  0  0  0  0  0  0  0  0  0  0
   28.2456    3.3640   51.9384 C   0  0  0  0  0  0  0  0  0  0  0  0
   27.9409    2.6740   50.7417 O   0  0  0  0  0  0  0  0  0  0  0  0
   33.9802    6.3848   51.7916 C   0  0  2  0  0  0  0  0  0  0  0  0
   34.2325    7.4596   50.8311 N   0  3  0  0  0  0  0  0  0  0  0  0
   33.8891    5.0125   51.0455 C   0  0  0  0  0  0  0  0  0  0  0  0
   33.5750    3.8847   52.0470 C   0  0  2  0  0  0  0  0  0  0  0  0
   33.4329    2.5984   51.3570 N   0  3  0  0  0  0  0  0  0  0  0  0
   32.2777    4.1986   52.8179 C   0  0  2  0  0  0  0  0  0  0  0  0
   32.3289    5.5588   53.5408 C   0  0  2  0  0  0  0  0  0  0  0  0
   31.0085    5.7762   54.0743 O   0  0  0  0  0  0  0  0  0  0  0  0
   32.6926    6.6865   52.5419 C   0  0  1  0  0  0  0  0  0  0  0  0
   32.8315    7.8933   53.2401 O   0  0  0  0  0  0  0  0  0  0  0  0
   30.6796    6.8571   54.9430 C   0  0  1  0  0  0  0  0  0  0  0  0
   29.1188    6.9084   55.1083 C   0  0  2  0  0  0  0  0  0  0  0  0
   28.4607    7.6822   54.1198 O   0  0  0  0  0  0  0  0  0  0  0  0
   29.0649    7.4907   56.5137 C   0  0  2  0  0  0  0  0  0  0  0  0
   29.5229    8.8763   56.5271 O   0  0  0  0  0  0  0  0  0  0  0  0
   30.0970    6.6574   57.2605 C   0  0  2  0  0  0  0  0  0  0  0  0
   31.1591    6.6067   56.2924 O   0  0  0  0  0  0  0  0  0  0  0  0
   29.6074    5.2369   57.6944 C   0  0  0  0  0  0  0  0  0  0  0  0
   29.2949    4.4160   56.5620 O   0  0  0  0  0  0  0  0  0  0  0  0
   29.1448    9.6005   57.6950 C   0  0  2  0  0  0  0  0  0  0  0  0
   27.6269    9.9817   57.7662 C   0  0  2  0  0  0  0  0  0  0  0  0
   27.1782   10.7993   56.5984 N   0  3  0  0  0  0  0  0  0  0  0  0
   27.4083   10.7416   59.1169 C   0  0  1  0  0  0  0  0  0  0  0  0
   27.7174    9.7920   60.2079 O   0  0  0  0  0  0  0  0  0  0  0  0
   28.3472   12.0021   59.2613 C   0  0  2  0  0  0  0  0  0  0  0  0
   28.0047   12.9469   58.2342 O   0  0  0  0  0  0  0  0  0  0  0  0
   29.8501   11.5151   59.1342 C   0  0  1  0  0  0  0  0  0  0  0  0
   29.9856   10.8290   57.8442 O   0  0  0  0  0  0  0  0  0  0  0  0
   30.9012   12.6435   59.2379 C   0  0  0  0  0  0  0  0  0  0  0  0
   31.0628   13.1768   60.6178 N   0  3  0  0  0  0  0  0  0  0  0  0
  1  2  1  6  0  0  0
  1  3  1  0  0  0  0
  1 10  1  0  0  0  0
  3  4  1  6  0  0  0
  3  5  1  0  0  0  0
  5  6  1  1  0  0  0
  5  7  1  0  0  0  0
  7  8  1  6  0  0  0
  7  9  1  0  0  0  0
  9 10  1  0  0  0  0
  9 11  1  1  0  0  0
 11 12  1  0  0  0  0
 13 14  1  6  0  0  0
 13 15  1  0  0  0  0
 13 21  1  0  0  0  0
 15 16  1  0  0  0  0
 16 17  1  6  0  0  0
 16 18  1  0  0  0  0
 18  2  1  1  0  0  0
 18 19  1  0  0  0  0
 19 20  1  6  0  0  0
 19 21  1  0  0  0  0
 21 22  1  1  0  0  0
 23 20  1  6  0  0  0
 23 24  1  0  0  0  0
 23 29  1  0  0  0  0
 24 25  1  6  0  0  0
 24 26  1  0  0  0  0
 26 27  1  6  0  0  0
 26 28  1  0  0  0  0
 28 29  1  0  0  0  0
 28 30  1  6  0  0  0
 30 31  1  0  0  0  0
 32 27  1  6  0  0  0
 32 33  1  0  0  0  0
 32 40  1  0  0  0  0
 33 34  1  6  0  0  0
 33 35  1  0  0  0  0
 35 36  1  1  0  0  0
 35 37  1  0  0  0  0
 37 38  1  6  0  0  0
 37 39  1  0  0  0  0
 39 40  1  0  0  0  0
 39 41  1  6  0  0  0
 41 42  1  0  0  0  0
M  CHG  5   4   1  14   1  17   1  34   1  42   1
M  END
>  <CHROM.1>
154.50745555,-172.26773387,-176.58797656,177.72805235,-175.81830508,-63.78882904
-178.44699848,68.83136922,53.48403079,172.71543263,170.26427294,-54.12440010
76.72453276,162.72505079,-73.00613078,63.39770683,-70.10947051,-120.25292778
-66.83954567,177.18067007,72.81751695,-65.78814760,30.33005668,6.27562469
55.10681891,1.32117094,-0.70268694,-2.70927827

>  <Name>
1j7t

>  <RI>
224

>  <Rbt.Current_Directory>
/home/itssahil/PROJECTS/Mol_Feturizer/New_Systems/rnas/1j7t

>  <Rbt.Executable>
rbdock ($Id: //depot/dev/client3/rdock/2013.1/src/exe/rbdock.cxx#4 $)

>  <Rbt.Library>
libRbt.so (2013.1, Build901 2013/11/27)

>  <Rbt.Parameter_File>
/export/apps/rDock/src/rDock_2013.1_src/data/scripts/dock_solv.prm

>  <Rbt.Receptor>
prm/pocket_docking_7.prm

>  <SCORE>
-49.486

>  <SCORE.INTER>
-33.1721

>  <SCORE.INTER.CONST>
1

>  <SCORE.INTER.POLAR>
-6.97148

>  <SCORE.INTER.ROT>
9

>  <SCORE.INTER.SOLV>
23.3687

>  <SCORE.INTER.VDW>
-16.2661

>  <SCORE.INTER.norm>
-0.789813

>  <SCORE.INTRA>
-16.6262

>  <SCORE.INTRA.DIHEDRAL>
-32.6694

>  <SCORE.INTRA.DIHEDRAL.0>
46.2143

>  <SCORE.INTRA.POLAR>
0.687313

>  <SCORE.INTRA.POLAR.0>
-1.76436

>  <SCORE.INTRA.REPUL>
0.0162832

>  <SCORE.INTRA.REPUL.0>
0

>  <SCORE.INTRA.SOLV>
-4.90935

>  <SCORE.INTRA.SOLV.lig_0>
-148.643

>  <SCORE.INTRA.VDW>
-0.255062

>  <SCORE.INTRA.VDW.0>
-4.83512

>  <SCORE.INTRA.norm>
-0.395861

>  <SCORE.RESTR>
0.31227

>  <SCORE.RESTR.CAVITY>
0.31227

>  <SCORE.RESTR.norm>
0.00743499

>  <SCORE.SYSTEM>
0

>  <SCORE.SYSTEM.CONST>
0

>  <SCORE.SYSTEM.DIHEDRAL>
0

>  <SCORE.SYSTEM.SOLV>
0

>  <SCORE.SYSTEM.norm>
0

>  <SCORE.heavy>
42

>  <SCORE.norm>
-1.17824

>  <RMSD>
6.450

$$$$
1j7t
 OpenBabel11021811393D
libRbt.so/2013.1/901 2013/11/27
 42 45  0  0  0  0  0  0  0  0999 V2000
   26.9696    2.8365   52.3186 C   0  0  2  0  0  0  0  0  0  0  0  0
   27.9025    3.9295   52.5125 O   0  0  0  0  0  0  0  0  0  0  0  0
   27.7286    1.5263   52.6756 C   0  0  2  0  0  0  0  0  0  0  0  0
   28.3710    1.5306   54.0213 N   0  3  0  0  0  0  0  0  0  0  0  0
   28.8356    1.3114   51.6204 C   0  0  1  0  0  0  0  0  0  0  0  0
   29.5447    0.1332   51.8822 O   0  0  0  0  0  0  0  0  0  0  0  0
   28.2168    1.2718   50.2030 C   0  0  2  0  0  0  0  0  0  0  0  0
   29.2120    1.0541   49.2224 O   0  0  0  0  0  0  0  0  0  0  0  0
   27.5120    2.5799   49.9131 C   0  0  2  0  0  0  0  0  0  0  0  0
   26.5390    2.8228   50.9213 O   0  0  0  0  0  0  0  0  0  0  0  0
   26.7793    2.5778   48.5901 C   0  0  0  0  0  0  0  0  0  0  0  0
   27.7172    2.5358   47.5320 O   0  0  0  0  0  0  0  0  0  0  0  0
   28.1064    7.8899   53.9691 C   0  0  2  0  0  0  0  0  0  0  0  0
   27.7789    9.1197   54.6914 N   0  3  0  0  0  0  0  0  0  0  0  0
   26.9661    7.5472   52.9539 C   0  0  0  0  0  0  0  0  0  0  0  0
   27.2838    6.2269   52.2262 C   0  0  2  0  0  0  0  0  0  0  0  0
   26.1990    5.8624   51.3089 N   0  3  0  0  0  0  0  0  0  0  0  0
   27.4960    5.0907   53.2458 C   0  0  2  0  0  0  0  0  0  0  0  0
   28.5959    5.4130   54.2762 C   0  0  2  0  0  0  0  0  0  0  0  0
   28.5658    4.3419   55.2391 O   0  0  0  0  0  0  0  0  0  0  0  0
   28.3013    6.7653   54.9736 C   0  0  1  0  0  0  0  0  0  0  0  0
   29.3639    7.0834   55.8296 O   0  0  0  0  0  0  0  0  0  0  0  0
   27.6526    4.2926   56.3321 C   0  0  1  0  0  0  0  0  0  0  0  0
   27.8594    2.9359   57.0954 C   0  0  2  0  0  0  0  0  0  0  0  0
   27.0890    1.8631   56.5811 O   0  0  0  0  0  0  0  0  0  0  0  0
   27.4541    3.4017   58.4868 C   0  0  2  0  0  0  0  0  0  0  0  0
   26.0252    3.6918   58.5491 O   0  0  0  0  0  0  0  0  0  0  0  0
   28.1985    4.7221   58.6272 C   0  0  2  0  0  0  0  0  0  0  0  0
   27.9770    5.2997   57.3291 O   0  0  0  0  0  0  0  0  0  0  0  0
   29.7168    4.5881   58.9772 C   0  0  0  0  0  0  0  0  0  0  0  0
   29.9166    3.8653   60.1985 O   0  0  0  0  0  0  0  0  0  0  0  0
   25.4673    3.5793   59.8559 C   0  0  2  0  0  0  0  0  0  0  0  0
   23.9050    3.6818   59.9117 C   0  0  2  0  0  0  0  0  0  0  0  0
   23.3863    4.9613   59.3396 N   0  3  0  0  0  0  0  0  0  0  0  0
   23.4881    3.5125   61.4108 C   0  0  1  0  0  0  0  0  0  0  0  0
   23.8962    2.1532   61.8272 O   0  0  0  0  0  0  0  0  0  0  0  0
   24.1890    4.5639   62.3566 C   0  0  2  0  0  0  0  0  0  0  0  0
   23.7456    5.8794   61.9853 O   0  0  0  0  0  0  0  0  0  0  0  0
   25.7576    4.4050   62.1943 C   0  0  1  0  0  0  0  0  0  0  0  0
   26.0768    4.5909   60.7742 O   0  0  0  0  0  0  0  0  0  0  0  0
   26.5937    5.3841   63.0495 C   0  0  0  0  0  0  0  0  0  0  0  0
   26.4081    5.1974   64.5142 N   0  3  0  0  0  0  0  0  0  0  0  0
  1  2  1  6  0  0  0
  1  3  1  0  0  0  0
  1 10  1  0  0  0  0
  3  4  1  1  0  0  0
  3  5  1  0  0  0  0
  5  6  1  1  0  0  0
  5  7  1  0  0  0  0
  7  8  1  6  0  0  0
  7  9  1  0  0  0  0
  9 10  1  0  0  0  0
  9 11  1  6  0  0  0
 11 12  1  0  0  0  0
 13 14  1  1  0  0  0
 13 15  1  0  0  0  0
 13 21  1  0  0  0  0
 15 16  1  0  0  0  0
 16 17  1  6  0  0  0
 16 18  1  0  0  0  0
 18  2  1  6  0  0  0
 18 19  1  0  0  0  0
 19 20  1  1  0  0  0
 19 21  1  0  0  0  0
 21 22  1  1  0  0  0
 23 20  1  6  0  0  0
 23 24  1  0  0  0  0
 23 29  1  0  0  0  0
 24 25  1  6  0  0  0
 24 26  1  0  0  0  0
 26 27  1  6  0  0  0
 26 28  1  0  0  0  0
 28 29  1  0  0  0  0
 28 30  1  6  0  0  0
 30 31  1  0  0  0  0
 32 27  1  6  0  0  0
 32 33  1  0  0  0  0
 32 40  1  0  0  0  0
 33 34  1  1  0  0  0
 33 35  1  0  0  0  0
 35 36  1  1  0  0  0
 35 37  1  0  0  0  0
 37 38  1  6  0  0  0
 37 39  1  0  0  0  0
 39 40  1  0  0  0  0
 39 41  1  1  0  0  0
 41 42  1  0  0  0  0
M  CHG  5   4   1  14   1  17   1  34   1  42   1
M  END
>  <CHROM.1>
-132.36273082,-106.15634038,82.55519018,-174.87923178,63.99256644,-68.22924089
175.78481817,-169.35044286,-44.45351554,-82.52404579,176.16472843,174.39854571
-54.22787823,154.86776212,-171.55336484,-58.03951863,69.37705997,-70.72072132
-177.39527427,68.00306467,63.17190506,53.78159878,27.11481818,4.08759941
55.95309294,0.55036570,-1.32056373,-2.71918858

>  <Name>
1j7t

>  <RI>
0

>  <Rbt.Current_Directory>
/home/itssahil/PROJECTS/Mol_Feturizer/New_Systems/rnas/1j7t

>  <Rbt.Executable>
rbdock ($Id: //depot/dev/client3/rdock/2013.1/src/exe/rbdock.cxx#4 $)

>  <Rbt.Library>
libRbt.so (2013.1, Build901 2013/11/27)

>  <Rbt.Parameter_File>
/export/apps/rDock/src/rDock_2013.1_src/data/scripts/dock_solv.prm

>  <Rbt.Receptor>
prm/pocket_docking_8.prm

>  <SCORE>
-40.1347

>  <SCORE.INTER>
-19.2004

>  <SCORE.INTER.CONST>
1

>  <SCORE.INTER.POLAR>
-4.86221

>  <SCORE.INTER.ROT>
9

>  <SCORE.INTER.SOLV>
14.3757

>  <SCORE.INTER.VDW>
-10.9848

>  <SCORE.INTER.norm>
-0.457152

>  <SCORE.INTRA>
-20.9343

>  <SCORE.INTRA.DIHEDRAL>
-23.5382

>  <SCORE.INTRA.DIHEDRAL.0>
46.2143

>  <SCORE.INTRA.POLAR>
-2.22063

>  <SCORE.INTRA.POLAR.0>
-1.76436

>  <SCORE.INTRA.REPUL>
0

>  <SCORE.INTRA.REPUL.0>
0

>  <SCORE.INTRA.SOLV>
0.656762

>  <SCORE.INTRA.SOLV.lig_0>
-148.643

>  <SCORE.INTRA.VDW>
-1.94345

>  <SCORE.INTRA.VDW.0>
-4.83512

>  <SCORE.INTRA.norm>
-0.498436

>  <SCORE.RESTR>
0

>  <SCORE.RESTR.CAVITY>
0

>  <SCORE.RESTR.norm>
0

>  <SCORE.SYSTEM>
0

>  <SCORE.SYSTEM.CONST>
0

>  <SCORE.SYSTEM.DIHEDRAL>
0

>  <SCORE.SYSTEM.SOLV>
0

>  <SCORE.SYSTEM.norm>
0

>  <SCORE.heavy>
42

>  <SCORE.norm>
-0.955589

>  <RMSD>
6.512

$$$$
1j7t
 OpenBabel11021811393D
libRbt.so/2013.1/901 2013/11/27
 42 45  0  0  0  0  0  0  0  0999 V2000
   31.3899   10.5920   52.1413 C   0  0  2  0  0  0  0  0  0  0  0  0
   30.1617   10.2752   51.4386 O   0  0  0  0  0  0  0  0  0  0  0  0
   32.4411   10.9783   51.0615 C   0  0  2  0  0  0  0  0  0  0  0  0
   31.9983   12.0482   50.1220 N   0  3  0  0  0  0  0  0  0  0  0  0
   32.7594    9.7164   50.2300 C   0  0  1  0  0  0  0  0  0  0  0  0
   33.7161   10.0008   49.2485 O   0  0  0  0  0  0  0  0  0  0  0  0
   33.2510    8.5799   51.1575 C   0  0  2  0  0  0  0  0  0  0  0  0
   33.5687    7.4208   50.4128 O   0  0  0  0  0  0  0  0  0  0  0  0
   32.1767    8.2412   52.1691 C   0  0  2  0  0  0  0  0  0  0  0  0
   31.8245    9.4144   52.8912 O   0  0  0  0  0  0  0  0  0  0  0  0
   32.6244    7.2182   53.1889 C   0  0  0  0  0  0  0  0  0  0  0  0
   31.5356    6.8796   54.0262 O   0  0  0  0  0  0  0  0  0  0  0  0
   27.1090    7.3746   51.7795 C   0  0  2  0  0  0  0  0  0  0  0  0
   26.4317    6.0848   51.9166 N   0  3  0  0  0  0  0  0  0  0  0  0
   27.9383    7.4038   50.4529 C   0  0  0  0  0  0  0  0  0  0  0  0
   28.6922    8.7417   50.3287 C   0  0  2  0  0  0  0  0  0  0  0  0
   29.5176    8.7652   49.1166 N   0  3  0  0  0  0  0  0  0  0  0  0
   29.5874    8.9689   51.5626 C   0  0  2  0  0  0  0  0  0  0  0  0
   28.8005    8.9179   52.8868 C   0  0  2  0  0  0  0  0  0  0  0  0
   29.7838    8.9876   53.9374 O   0  0  0  0  0  0  0  0  0  0  0  0
   28.0037    7.5926   52.9894 C   0  0  1  0  0  0  0  0  0  0  0  0
   27.2204    7.6146   54.1508 O   0  0  0  0  0  0  0  0  0  0  0  0
   29.7144    9.9131   55.0190 C   0  0  1  0  0  0  0  0  0  0  0  0
   28.4121    9.6189   55.8456 C   0  0  2  0  0  0  0  0  0  0  0  0
   27.2628   10.2986   55.3699 O   0  0  0  0  0  0  0  0  0  0  0  0
   28.9070   10.0813   57.2089 C   0  0  2  0  0  0  0  0  0  0  0  0
   29.0915   11.5286   57.2385 O   0  0  0  0  0  0  0  0  0  0  0  0
   30.2845    9.4396   57.2995 C   0  0  2  0  0  0  0  0  0  0  0  0
   30.7860    9.6814   55.9737 O   0  0  0  0  0  0  0  0  0  0  0  0
   30.2803    7.9217   57.6758 C   0  0  0  0  0  0  0  0  0  0  0  0
   29.8043    7.1097   56.5951 O   0  0  0  0  0  0  0  0  0  0  0  0
   29.8543   11.9931   58.3494 C   0  0  2  0  0  0  0  0  0  0  0  0
   29.3104   11.5473   59.7493 C   0  0  2  0  0  0  0  0  0  0  0  0
   27.9021   11.9851   59.9912 N   0  3  0  0  0  0  0  0  0  0  0  0
   30.2856   12.1295   60.8262 C   0  0  1  0  0  0  0  0  0  0  0  0
   31.6074   11.5047   60.6024 O   0  0  0  0  0  0  0  0  0  0  0  0
   30.4411   13.6965   60.7182 C   0  0  2  0  0  0  0  0  0  0  0  0
   29.1672   14.3021   60.9924 O   0  0  0  0  0  0  0  0  0  0  0  0
   30.9540   14.0421   59.2589 C   0  0  1  0  0  0  0  0  0  0  0  0
   29.9882   13.4826   58.3062 O   0  0  0  0  0  0  0  0  0  0  0  0
   31.1420   15.5517   58.9854 C   0  0  0  0  0  0  0  0  0  0  0  0
   30.6124   16.4202   60.0716 N   0  3  0  0  0  0  0  0  0  0  0  0
  1  2  1  6  0  0  0
  1  3  1  0  0  0  0
  1 10  1  0  0  0  0
  3  4  1  6  0  0  0
  3  5  1  0  0  0  0
  5  6  1  6  0  0  0
  5  7  1  0  0  0  0
  7  8  1  6  0  0  0
  7  9  1  0  0  0  0
  9 10  1  0  0  0  0
  9 11  1  1  0  0  0
 11 12  1  0  0  0  0
 13 14  1  1  0  0  0
 13 15  1  0  0  0  0
 13 21  1  0  0  0  0
 15 16  1  0  0  0  0
 16 17  1  6  0  0  0
 16 18  1  0  0  0  0
 18  2  1  6  0  0  0
 18 19  1  0  0  0  0
 19 20  1  1  0  0  0
 19 21  1  0  0  0  0
 21 22  1  1  0  0  0
 23 20  1  6  0  0  0
 23 24  1  0  0  0  0
 23 29  1  0  0  0  0
 24 25  1  6  0  0  0
 24 26  1  0  0  0  0
 26 27  1  6  0  0  0
 26 28  1  0  0  0  0
 28 29  1  0  0  0  0
 28 30  1  6  0  0  0
 30 31  1  0  0  0  0
 32 27  1  6  0  0  0
 32 33  1  0  0  0  0
 32 40  1  0  0  0  0
 33 34  1  1  0  0  0
 33 35  1  0  0  0  0
 35 36  1  6  0  0  0
 35 37  1  0  0  0  0
 37 38  1  6  0  0  0
 37 39  1  0  0  0  0
 39 40  1  0  0  0  0
 39 41  1  1  0  0  0
 41 42  1  0  0  0  0
M  CHG  5   4   1  14   1  17   1  34   1  42   1
M  END
>  <CHROM.1>
119.84138766,-157.27129342,174.07763816,-68.00995039,82.18614508,-175.35241232
67.39257193,-17.10173639,109.11460530,128.85674135,62.36460682,62.22207872
-59.79787824,-165.32330974,-54.84304158,71.88068426,175.81095233,175.79041268
71.29167559,68.56356375,-8.74629198,-164.03282628,30.14327221,10.10184473
54.84059491,-1.48049495,0.71424989,1.02537443

>  <Name>
1j7t

>  <RI>
0

>  <Rbt.Current_Directory>
/home/itssahil/PROJECTS/Mol_Feturizer/New_Systems/rnas/1j7t

>  <Rbt.Executable>
rbdock ($Id: //depot/dev/client3/rdock/2013.1/src/exe/rbdock.cxx#4 $)

>  <Rbt.Library>
libRbt.so (2013.1, Build901 2013/11/27)

>  <Rbt.Parameter_File>
/export/apps/rDock/src/rDock_2013.1_src/data/scripts/dock_solv.prm

>  <Rbt.Receptor>
prm/blind_docking_100.prm

>  <SCORE>
1.40454

>  <SCORE.INTER>
-17.7823

>  <SCORE.INTER.CONST>
1

>  <SCORE.INTER.POLAR>
-4.19591

>  <SCORE.INTER.ROT>
9

>  <SCORE.INTER.SOLV>
30.1647

>  <SCORE.INTER.VDW>
-17.5234

>  <SCORE.INTER.norm>
-0.423387

>  <SCORE.INTRA>
2.27086

>  <SCORE.INTRA.DIHEDRAL>
-11.745

>  <SCORE.INTRA.DIHEDRAL.0>
46.2143

>  <SCORE.INTRA.POLAR>
0.646724

>  <SCORE.INTRA.POLAR.0>
-1.76436

>  <SCORE.INTRA.REPUL>
0.142254

>  <SCORE.INTRA.REPUL.0>
0

>  <SCORE.INTRA.SOLV>
3.76842

>  <SCORE.INTRA.SOLV.lig_0>
-148.643

>  <SCORE.INTRA.VDW>
3.34902

>  <SCORE.INTRA.VDW.0>
-4.83512

>  <SCORE.INTRA.norm>
0.0540681

>  <SCORE.RESTR>
16.9159

>  <SCORE.RESTR.CAVITY>
16.9159

>  <SCORE.RESTR.norm>
0.402761

>  <SCORE.SYSTEM>
0

>  <SCORE.SYSTEM.CONST>
0

>  <SCORE.SYSTEM.DIHEDRAL>
0

>  <SCORE.SYSTEM.SOLV>
0

>  <SCORE.SYSTEM.norm>
0

>  <SCORE.heavy>
42

>  <SCORE.norm>
0.0334415

>  <RMSD>
6.518

$$$$
1j7t
 OpenBabel11021811393D
libRbt.so/2013.1/901 2013/11/27
 42 45  0  0  0  0  0  0  0  0999 V2000
   30.0033    7.2737   58.5034 C   0  0  2  0  0  0  0  0  0  0  0  0
   31.1504    7.4554   57.6352 O   0  0  0  0  0  0  0  0  0  0  0  0
   30.1959    8.2330   59.7128 C   0  0  2  0  0  0  0  0  0  0  0  0
   30.4429    9.6557   59.3407 N   0  3  0  0  0  0  0  0  0  0  0  0
   31.4095    7.7369   60.5290 C   0  0  1  0  0  0  0  0  0  0  0  0
   31.6221    8.5560   61.6441 O   0  0  0  0  0  0  0  0  0  0  0  0
   31.1913    6.2685   60.9647 C   0  0  2  0  0  0  0  0  0  0  0  0
   32.2828    5.8011   61.7324 O   0  0  0  0  0  0  0  0  0  0  0  0
   31.0305    5.3885   59.7433 C   0  0  2  0  0  0  0  0  0  0  0  0
   29.9603    5.8811   58.9470 O   0  0  0  0  0  0  0  0  0  0  0  0
   30.6959    3.9542   60.0862 C   0  0  0  0  0  0  0  0  0  0  0  0
   30.7256    3.1690   58.9098 O   0  0  0  0  0  0  0  0  0  0  0  0
   31.6845    6.9162   53.4792 C   0  0  2  0  0  0  0  0  0  0  0  0
   31.7684    6.2815   52.1633 N   0  3  0  0  0  0  0  0  0  0  0  0
   32.7635    6.3076   54.4352 C   0  0  0  0  0  0  0  0  0  0  0  0
   32.6465    6.9384   55.8359 C   0  0  2  0  0  0  0  0  0  0  0  0
   33.6158    6.3407   56.7601 N   0  3  0  0  0  0  0  0  0  0  0  0
   31.2221    6.7465   56.3927 C   0  0  2  0  0  0  0  0  0  0  0  0
   30.1359    7.3126   55.4574 C   0  0  2  0  0  0  0  0  0  0  0  0
   28.8734    6.9215   56.0306 O   0  0  0  0  0  0  0  0  0  0  0  0
   30.2840    6.7143   54.0354 C   0  0  1  0  0  0  0  0  0  0  0  0
   29.3516    7.3186   53.1819 O   0  0  0  0  0  0  0  0  0  0  0  0
   28.3033    5.6256   55.8668 C   0  0  1  0  0  0  0  0  0  0  0  0
   27.0516    5.5077   56.8077 C   0  0  2  0  0  0  0  0  0  0  0  0
   27.3562    5.0584   58.1170 O   0  0  0  0  0  0  0  0  0  0  0  0
   26.2385    4.5296   55.9715 C   0  0  2  0  0  0  0  0  0  0  0  0
   26.8608    3.2097   55.9523 O   0  0  0  0  0  0  0  0  0  0  0  0
   26.3526    5.1128   54.5700 C   0  0  2  0  0  0  0  0  0  0  0  0
   27.7463    5.4651   54.5337 O   0  0  0  0  0  0  0  0  0  0  0  0
   25.4144    6.3312   54.2853 C   0  0  0  0  0  0  0  0  0  0  0  0
   24.1181    6.1485   54.8685 O   0  0  0  0  0  0  0  0  0  0  0  0
   26.4542    2.3614   57.0231 C   0  0  2  0  0  0  0  0  0  0  0  0
   27.1684    0.9676   57.0615 C   0  0  2  0  0  0  0  0  0  0  0  0
   26.9772    0.1824   55.8045 N   0  3  0  0  0  0  0  0  0  0  0  0
   26.6112    0.2016   58.3074 C   0  0  1  0  0  0  0  0  0  0  0  0
   27.0007    0.9749   59.5065 O   0  0  0  0  0  0  0  0  0  0  0  0
   25.0389    0.0655   58.2810 C   0  0  2  0  0  0  0  0  0  0  0  0
   24.6685   -0.7345   57.1464 O   0  0  0  0  0  0  0  0  0  0  0  0
   24.4188    1.5219   58.2007 C   0  0  1  0  0  0  0  0  0  0  0  0
   24.9701    2.1725   57.0066 O   0  0  0  0  0  0  0  0  0  0  0  0
   22.8745    1.5599   58.1495 C   0  0  0  0  0  0  0  0  0  0  0  0
   22.3072    0.9297   56.9266 N   0  3  0  0  0  0  0  0  0  0  0  0
  1  2  1  6  0  0  0
  1  3  1  0  0  0  0
  1 10  1  0  0  0  0
  3  4  1  6  0  0  0
  3  5  1  0  0  0  0
  5  6  1  1  0  0  0
  5  7  1  0  0  0  0
  7  8  1  6  0  0  0
  7  9  1  0  0  0  0
  9 10  1  0  0  0  0
  9 11  1  1  0  0  0
 11 12  1  0  0  0  0
 13 14  1  6  0  0  0
 13 15  1  0  0  0  0
 13 21  1  0  0  0  0
 15 16  1  0  0  0  0
 16 17  1  1  0  0  0
 16 18  1  0  0  0  0
 18  2  1  1  0  0  0
 18 19  1  0  0  0  0
 19 20  1  1  0  0  0
 19 21  1  0  0  0  0
 21 22  1  6  0  0  0
 23 20  1  6  0  0  0
 23 24  1  0  0  0  0
 23 29  1  0  0  0  0
 24 25  1  1  0  0  0
 24 26  1  0  0  0  0
 26 27  1  6  0  0  0
 26 28  1  0  0  0  0
 28 29  1  0  0  0  0
 28 30  1  1  0  0  0
 30 31  1  0  0  0  0
 32 27  1  6  0  0  0
 32 33  1  0  0  0  0
 32 40  1  0  0  0  0
 33 34  1  6  0  0  0
 33 35  1  0  0  0  0
 35 36  1  1  0  0  0
 35 37  1  0  0  0  0
 37 38  1  6  0  0  0
 37 39  1  0  0  0  0
 39 40  1  0  0  0  0
 39 41  1  6  0  0  0
 41 42  1  0  0  0  0
M  CHG  5   4   1  14   1  17   1  34   1  42   1
M  END
>  <CHROM.1>
-176.88032032,-169.63989773,170.15613179,51.93566323,70.07660905,-172.84164388
-174.85662645,177.20631573,56.68917182,-80.31390484,171.37272723,-62.62675155
49.79927246,88.35176380,-176.94858055,-39.88791000,-64.98028457,62.89663796
-60.12162654,65.79045909,-64.18551748,52.02698290,28.58604396,4.84758856
57.14491118,-0.16140131,0.71118692,1.92399542

>  <Name>
1j7t

>  <RI>
224

>  <Rbt.Current_Directory>
/home/itssahil/PROJECTS/Mol_Feturizer/New_Systems/rnas/1j7t

>  <Rbt.Executable>
rbdock ($Id: //depot/dev/client3/rdock/2013.1/src/exe/rbdock.cxx#4 $)

>  <Rbt.Library>
libRbt.so (2013.1, Build901 2013/11/27)

>  <Rbt.Parameter_File>
/export/apps/rDock/src/rDock_2013.1_src/data/scripts/dock_solv.prm

>  <Rbt.Receptor>
prm/pocket_docking_7.prm

>  <SCORE>
-40.6145

>  <SCORE.INTER>
-17.87

>  <SCORE.INTER.CONST>
1

>  <SCORE.INTER.POLAR>
-2.84478

>  <SCORE.INTER.ROT>
9

>  <SCORE.INTER.SOLV>
17.9766

>  <SCORE.INTER.VDW>
-18.023

>  <SCORE.INTER.norm>
-0.425477

>  <SCORE.INTRA>
-22.7445

>  <SCORE.INTRA.DIHEDRAL>
-35.8263

>  <SCORE.INTRA.DIHEDRAL.0>
46.2143

>  <SCORE.INTRA.POLAR>
-0.315602

>  <SCORE.INTRA.POLAR.0>
-1.76436

>  <SCORE.INTRA.REPUL>
0.00457101

>  <SCORE.INTRA.REPUL.0>
0

>  <SCORE.INTRA.SOLV>
-3.69101

>  <SCORE.INTRA.SOLV.lig_0>
-148.643

>  <SCORE.INTRA.VDW>
-1.93564

>  <SCORE.INTRA.VDW.0>
-4.83512

>  <SCORE.INTRA.norm>
-0.541535

>  <SCORE.RESTR>
0

>  <SCORE.RESTR.CAVITY>
0

>  <SCORE.RESTR.norm>
0

>  <SCORE.SYSTEM>
0

>  <SCORE.SYSTEM.CONST>
0

>  <SCORE.SYSTEM.DIHEDRAL>
0

>  <SCORE.SYSTEM.SOLV>
0

>  <SCORE.SYSTEM.norm>
0

>  <SCORE.heavy>
42

>  <SCORE.norm>
-0.967012

>  <RMSD>
6.532

$$$$
1j7t
 OpenBabel11021811393D
libRbt.so/2013.1/901 2013/11/27
 42 45  0  0  0  0  0  0  0  0999 V2000
   26.3639    3.4490   51.8984 C   0  0  2  0  0  0  0  0  0  0  0  0
   27.5832    4.2145   51.7256 O   0  0  0  0  0  0  0  0  0  0  0  0
   26.7662    1.9465   51.8700 C   0  0  2  0  0  0  0  0  0  0  0  0
   27.8441    1.5765   52.8317 N   0  3  0  0  0  0  0  0  0  0  0  0
   27.2622    1.6103   50.4467 C   0  0  1  0  0  0  0  0  0  0  0  0
   27.6245    0.2612   50.3563 O   0  0  0  0  0  0  0  0  0  0  0  0
   26.1667    1.9513   49.4088 C   0  0  2  0  0  0  0  0  0  0  0  0
   26.5928    1.6307   48.0993 O   0  0  0  0  0  0  0  0  0  0  0  0
   25.8367    3.4274   49.4760 C   0  0  2  0  0  0  0  0  0  0  0  0
   25.4482    3.7621   50.8023 O   0  0  0  0  0  0  0  0  0  0  0  0
   24.6894    3.8199   48.5723 C   0  0  0  0  0  0  0  0  0  0  0  0
   24.2445    5.1189   48.9127 O   0  0  0  0  0  0  0  0  0  0  0  0
   28.8909    7.8489   53.4372 C   0  0  2  0  0  0  0  0  0  0  0  0
   28.9684    9.2679   53.7862 N   0  3  0  0  0  0  0  0  0  0  0  0
   29.0671    7.6685   51.8929 C   0  0  0  0  0  0  0  0  0  0  0  0
   28.9374    6.1805   51.5151 C   0  0  2  0  0  0  0  0  0  0  0  0
   29.0464    5.9990   50.0639 N   0  3  0  0  0  0  0  0  0  0  0  0
   27.5864    5.6200   52.0014 C   0  0  2  0  0  0  0  0  0  0  0  0
   27.3738    5.8091   53.5161 C   0  0  2  0  0  0  0  0  0  0  0  0
   26.0233    5.3855   53.7847 O   0  0  0  0  0  0  0  0  0  0  0  0
   27.5523    7.2990   53.9034 C   0  0  1  0  0  0  0  0  0  0  0  0
   27.4541    7.4283   55.2951 O   0  0  0  0  0  0  0  0  0  0  0  0
   25.4493    5.3684   55.0891 C   0  0  1  0  0  0  0  0  0  0  0  0
   23.9531    4.9064   54.9707 C   0  0  2  0  0  0  0  0  0  0  0  0
   23.0412    5.9650   54.7322 O   0  0  0  0  0  0  0  0  0  0  0  0
   23.8182    4.2443   56.3347 C   0  0  2  0  0  0  0  0  0  0  0  0
   23.8565    5.2344   57.4062 O   0  0  0  0  0  0  0  0  0  0  0  0
   25.0900    3.4133   56.4301 C   0  0  2  0  0  0  0  0  0  0  0  0
   26.0611    4.3404   55.9150 O   0  0  0  0  0  0  0  0  0  0  0  0
   25.0586    2.0676   55.6339 C   0  0  0  0  0  0  0  0  0  0  0  0
   26.3448    1.4360   55.6112 O   0  0  0  0  0  0  0  0  0  0  0  0
   23.2603    4.7942   58.6238 C   0  0  2  0  0  0  0  0  0  0  0  0
   22.8768    5.9429   59.6176 C   0  0  2  0  0  0  0  0  0  0  0  0
   24.0449    6.7921   60.0021 N   0  3  0  0  0  0  0  0  0  0  0  0
   22.2221    5.2670   60.8683 C   0  0  1  0  0  0  0  0  0  0  0  0
   20.9865    4.5977   60.4069 O   0  0  0  0  0  0  0  0  0  0  0  0
   23.1626    4.1897   61.5362 C   0  0  2  0  0  0  0  0  0  0  0  0
   24.3360    4.8533   62.0338 O   0  0  0  0  0  0  0  0  0  0  0  0
   23.5227    3.1021   60.4410 C   0  0  1  0  0  0  0  0  0  0  0  0
   24.1440    3.8012   59.3103 O   0  0  0  0  0  0  0  0  0  0  0  0
   24.4594    1.9772   60.9373 C   0  0  0  0  0  0  0  0  0  0  0  0
   25.8424    2.4438   61.2274 N   0  3  0  0  0  0  0  0  0  0  0  0
  1  2  1  6  0  0  0
  1  3  1  0  0  0  0
  1 10  1  0  0  0  0
  3  4  1  1  0  0  0
  3  5  1  0  0  0  0
  5  6  1  1  0  0  0
  5  7  1  0  0  0  0
  7  8  1  6  0  0  0
  7  9  1  0  0  0  0
  9 10  1  0  0  0  0
  9 11  1  6  0  0  0
 11 12  1  0  0  0  0
 13 14  1  6  0  0  0
 13 15  1  0  0  0  0
 13 21  1  0  0  0  0
 15 16  1  0  0  0  0
 16 17  1  6  0  0  0
 16 18  1  0  0  0  0
 18  2  1  1  0  0  0
 18 19  1  0  0  0  0
 19 20  1  6  0  0  0
 19 21  1  0  0  0  0
 21 22  1  1  0  0  0
 23 20  1  6  0  0  0
 23 24  1  0  0  0  0
 23 29  1  0  0  0  0
 24 25  1  1  0  0  0
 24 26  1  0  0  0  0
 26 27  1  1  0  0  0
 26 28  1  0  0  0  0
 28 29  1  0  0  0  0
 28 30  1  6  0  0  0
 30 31  1  0  0  0  0
 32 27  1  6  0  0  0
 32 33  1  0  0  0  0
 32 40  1  0  0  0  0
 33 34  1  1  0  0  0
 33 35  1  0  0  0  0
 35 36  1  6  0  0  0
 35 37  1  0  0  0  0
 37 38  1  6  0  0  0
 37 39  1  0  0  0  0
 39 40  1  0  0  0  0
 39 41  1  1  0  0  0
 41 42  1  0  0  0  0
M  CHG  5   4   1  14   1  17   1  34   1  42   1
M  END
>  <CHROM.1>
-166.19637864,-171.15474686,-49.43719074,-172.99590675,64.36936345,166.62351770
42.70273504,-156.21942599,60.04859342,178.02928187,177.68222908,62.70458333
-61.94782982,158.02480486,-161.44558374,171.64491794,61.39165290,-66.74854059
174.98777407,76.13743926,-68.65497029,-74.84327170,25.70500183,4.42874609
54.79028273,0.79955183,-1.07483988,-2.32670424

>  <Name>
1j7t

>  <RI>
0

>  <Rbt.Current_Directory>
/home/itssahil/PROJECTS/Mol_Feturizer/New_Systems/rnas/1j7t

>  <Rbt.Executable>
rbdock ($Id: //depot/dev/client3/rdock/2013.1/src/exe/rbdock.cxx#4 $)

>  <Rbt.Library>
libRbt.so (2013.1, Build901 2013/11/27)

>  <Rbt.Parameter_File>
/export/apps/rDock/src/rDock_2013.1_src/data/scripts/dock_solv.prm

>  <Rbt.Receptor>
prm/pocket_docking_8.prm

>  <SCORE>
-43.5939

>  <SCORE.INTER>
-20.967

>  <SCORE.INTER.CONST>
1

>  <SCORE.INTER.POLAR>
-4.39802

>  <SCORE.INTER.ROT>
9

>  <SCORE.INTER.SOLV>
20.9271

>  <SCORE.INTER.VDW>
-15.8936

>  <SCORE.INTER.norm>
-0.499213

>  <SCORE.INTRA>
-22.6353

>  <SCORE.INTRA.DIHEDRAL>
-34.1968

>  <SCORE.INTRA.DIHEDRAL.0>
46.2143

>  <SCORE.INTRA.POLAR>
-0.875698

>  <SCORE.INTRA.POLAR.0>
-1.76436

>  <SCORE.INTRA.REPUL>
0

>  <SCORE.INTRA.REPUL.0>
0

>  <SCORE.INTRA.SOLV>
-2.52801

>  <SCORE.INTRA.SOLV.lig_0>
-148.643

>  <SCORE.INTRA.VDW>
-1.2955

>  <SCORE.INTRA.VDW.0>
-4.83512

>  <SCORE.INTRA.norm>
-0.538935

>  <SCORE.RESTR>
0.00829503

>  <SCORE.RESTR.CAVITY>
0.00829503

>  <SCORE.RESTR.norm>
0.000197501

>  <SCORE.SYSTEM>
0

>  <SCORE.SYSTEM.CONST>
0

>  <SCORE.SYSTEM.DIHEDRAL>
0

>  <SCORE.SYSTEM.SOLV>
0

>  <SCORE.SYSTEM.norm>
0

>  <SCORE.heavy>
42

>  <SCORE.norm>
-1.03795

>  <RMSD>
6.590

$$$$
1j7t
 OpenBabel11021811393D
libRbt.so/2013.1/901 2013/11/27
 42 45  0  0  0  0  0  0  0  0999 V2000
   32.0825    4.2946   56.1964 C   0  0  2  0  0  0  0  0  0  0  0  0
   32.5698    4.2896   54.8307 O   0  0  0  0  0  0  0  0  0  0  0  0
   32.6255    3.0040   56.8743 C   0  0  2  0  0  0  0  0  0  0  0  0
   34.1020    2.8240   56.7684 N   0  3  0  0  0  0  0  0  0  0  0  0
   31.9485    1.7892   56.2028 C   0  0  1  0  0  0  0  0  0  0  0  0
   32.3884    0.5949   56.7854 O   0  0  0  0  0  0  0  0  0  0  0  0
   30.4101    1.9134   56.3091 C   0  0  2  0  0  0  0  0  0  0  0  0
   29.7705    0.7993   55.7186 O   0  0  0  0  0  0  0  0  0  0  0  0
   29.9473    3.1769   55.6151 C   0  0  2  0  0  0  0  0  0  0  0  0
   30.6204    4.2957   56.1782 O   0  0  0  0  0  0  0  0  0  0  0  0
   28.4654    3.4323   55.7754 C   0  0  0  0  0  0  0  0  0  0  0  0
   27.7378    2.4378   55.0805 O   0  0  0  0  0  0  0  0  0  0  0  0
   32.5643    7.6377   52.2542 C   0  0  2  0  0  0  0  0  0  0  0  0
   32.1149    8.6499   51.2977 N   0  3  0  0  0  0  0  0  0  0  0  0
   32.4968    6.2178   51.6002 C   0  0  0  0  0  0  0  0  0  0  0  0
   32.9225    5.1441   52.6197 C   0  0  2  0  0  0  0  0  0  0  0  0
   32.8138    3.8014   52.0398 N   0  3  0  0  0  0  0  0  0  0  0  0
   32.0457    5.2286   53.8845 C   0  0  2  0  0  0  0  0  0  0  0  0
   32.0715    6.6255   54.5348 C   0  0  2  0  0  0  0  0  0  0  0  0
   31.0963    6.5896   55.5946 O   0  0  0  0  0  0  0  0  0  0  0  0
   31.6901    7.7106   53.4961 C   0  0  1  0  0  0  0  0  0  0  0  0
   31.8187    8.9761   54.0833 O   0  0  0  0  0  0  0  0  0  0  0  0
   30.8967    7.6584   56.5160 C   0  0  1  0  0  0  0  0  0  0  0  0
   29.4125    7.6074   57.0266 C   0  0  2  0  0  0  0  0  0  0  0  0
   28.4987    8.3211   56.2114 O   0  0  0  0  0  0  0  0  0  0  0  0
   29.6342    8.2050   58.4090 C   0  0  2  0  0  0  0  0  0  0  0  0
   29.9876    9.6182   58.3208 O   0  0  0  0  0  0  0  0  0  0  0  0
   30.8617    7.4535   58.9048 C   0  0  2  0  0  0  0  0  0  0  0  0
   31.6815    7.4601   57.7235 O   0  0  0  0  0  0  0  0  0  0  0  0
   30.5800    6.0098   59.4360 C   0  0  0  0  0  0  0  0  0  0  0  0
   29.6284    6.0165   60.5076 O   0  0  0  0  0  0  0  0  0  0  0  0
   28.9578   10.5015   58.7575 C   0  0  2  0  0  0  0  0  0  0  0  0
   29.3740   12.0105   58.8231 C   0  0  2  0  0  0  0  0  0  0  0  0
   30.5454   12.2513   59.7194 N   0  3  0  0  0  0  0  0  0  0  0  0
   28.1156   12.8126   59.2950 C   0  0  1  0  0  0  0  0  0  0  0  0
   27.0756   12.6451   58.2567 O   0  0  0  0  0  0  0  0  0  0  0  0
   27.5460   12.2907   60.6714 C   0  0  2  0  0  0  0  0  0  0  0  0
   28.5379   12.5077   61.6881 O   0  0  0  0  0  0  0  0  0  0  0  0
   27.1968   10.7531   60.5097 C   0  0  1  0  0  0  0  0  0  0  0  0
   28.4201   10.0639   60.0833 O   0  0  0  0  0  0  0  0  0  0  0  0
   26.6391   10.0841   61.7865 C   0  0  0  0  0  0  0  0  0  0  0  0
   25.8208    8.8721   61.5103 N   0  3  0  0  0  0  0  0  0  0  0  0
  1  2  1  6  0  0  0
  1  3  1  0  0  0  0
  1 10  1  0  0  0  0
  3  4  1  6  0  0  0
  3  5  1  0  0  0  0
  5  6  1  1  0  0  0
  5  7  1  0  0  0  0
  7  8  1  6  0  0  0
  7  9  1  0  0  0  0
  9 10  1  0  0  0  0
  9 11  1  1  0  0  0
 11 12  1  0  0  0  0
 13 14  1  6  0  0  0
 13 15  1  0  0  0  0
 13 21  1  0  0  0  0
 15 16  1  0  0  0  0
 16 17  1  6  0  0  0
 16 18  1  0  0  0  0
 18  2  1  1  0  0  0
 18 19  1  0  0  0  0
 19 20  1  1  0  0  0
 19 21  1  0  0  0  0
 21 22  1  1  0  0  0
 23 20  1  6  0  0  0
 23 24  1  0  0  0  0
 23 29  1  0  0  0  0
 24 25  1  6  0  0  0
 24 26  1  0  0  0  0
 26 27  1  6  0  0  0
 26 28  1  0  0  0  0
 28 29  1  0  0  0  0
 28 30  1  6  0  0  0
 30 31  1  0  0  0  0
 32 27  1  1  0  0  0
 32 33  1  0  0  0  0
 32 40  1  0  0  0  0
 33 34  1  1  0  0  0
 33 35  1  0  0  0  0
 35 36  1  6  0  0  0
 35 37  1  0  0  0  0
 37 38  1  1  0  0  0
 37 39  1  0  0  0  0
 39 40  1  0  0  0  0
 39 41  1  1  0  0  0
 41 42  1  0  0  0  0
M  CHG  5   4   1  14   1  17   1  34   1  42   1
M  END
>  <CHROM.1>
169.00827450,170.14393360,91.59685079,172.13195248,67.33110083,-67.29103957
-63.14121757,-179.75975349,-62.13423439,174.41187063,152.94648193,-52.43655317
55.15545595,108.44931912,173.43684197,-57.76181065,50.62544415,-16.09676370
-179.73726799,-75.29166418,156.41267309,20.17255280,30.31276764,6.94939870
56.86374123,0.72337484,-1.06634097,2.98149581

>  <Name>
1j7t

>  <RI>
224

>  <Rbt.Current_Directory>
/home/itssahil/PROJECTS/Mol_Feturizer/New_Systems/rnas/1j7t

>  <Rbt.Executable>
rbdock ($Id: //depot/dev/client3/rdock/2013.1/src/exe/rbdock.cxx#4 $)

>  <Rbt.Library>
libRbt.so (2013.1, Build901 2013/11/27)

>  <Rbt.Parameter_File>
/export/apps/rDock/src/rDock_2013.1_src/data/scripts/dock_solv.prm

>  <Rbt.Receptor>
prm/pocket_docking_7.prm

>  <SCORE>
-33.6377

>  <SCORE.INTER>
-27.0768

>  <SCORE.INTER.CONST>
1

>  <SCORE.INTER.POLAR>
-5.69109

>  <SCORE.INTER.ROT>
9

>  <SCORE.INTER.SOLV>
17.5584

>  <SCORE.INTER.VDW>
-14.5337

>  <SCORE.INTER.norm>
-0.644685

>  <SCORE.INTRA>
-6.56097

>  <SCORE.INTRA.DIHEDRAL>
-22.8027

>  <SCORE.INTRA.DIHEDRAL.0>
46.2143

>  <SCORE.INTRA.POLAR>
1.58381

>  <SCORE.INTRA.POLAR.0>
-1.76436

>  <SCORE.INTRA.REPUL>
0.0598861

>  <SCORE.INTRA.REPUL.0>
0

>  <SCORE.INTRA.SOLV>
-7.30343

>  <SCORE.INTRA.SOLV.lig_0>
-148.643

>  <SCORE.INTRA.VDW>
2.80769

>  <SCORE.INTRA.VDW.0>
-4.83512

>  <SCORE.INTRA.norm>
-0.156214

>  <SCORE.RESTR>
0

>  <SCORE.RESTR.CAVITY>
0

>  <SCORE.RESTR.norm>
0

>  <SCORE.SYSTEM>
0

>  <SCORE.SYSTEM.CONST>
0

>  <SCORE.SYSTEM.DIHEDRAL>
0

>  <SCORE.SYSTEM.SOLV>
0

>  <SCORE.SYSTEM.norm>
0

>  <SCORE.heavy>
42

>  <SCORE.norm>
-0.800898

>  <RMSD>
6.609

$$$$
1j7t
 OpenBabel11021811393D
libRbt.so/2013.1/901 2013/11/27
 42 45  0  0  0  0  0  0  0  0999 V2000
   31.5101    4.3708   56.4161 C   0  0  2  0  0  0  0  0  0  0  0  0
   32.3308    3.9052   55.3152 O   0  0  0  0  0  0  0  0  0  0  0  0
   31.8151    3.4461   57.6294 C   0  0  2  0  0  0  0  0  0  0  0  0
   33.2620    3.3311   57.9711 N   0  3  0  0  0  0  0  0  0  0  0  0
   31.2905    2.0320   57.2976 C   0  0  1  0  0  0  0  0  0  0  0  0
   31.5238    1.1564   58.3645 O   0  0  0  0  0  0  0  0  0  0  0  0
   29.7817    2.0914   56.9609 C   0  0  2  0  0  0  0  0  0  0  0  0
   29.2760    0.8024   56.6746 O   0  0  0  0  0  0  0  0  0  0  0  0
   29.5573    2.9900   55.7633 C   0  0  2  0  0  0  0  0  0  0  0  0
   30.1025    4.2755   56.0317 O   0  0  0  0  0  0  0  0  0  0  0  0
   28.0938    3.1944   55.4416 C   0  0  0  0  0  0  0  0  0  0  0  0
   27.4816    3.9335   56.4809 O   0  0  0  0  0  0  0  0  0  0  0  0
   33.8202    6.5164   52.3468 C   0  0  2  0  0  0  0  0  0  0  0  0
   33.9207    7.3050   51.1182 N   0  3  0  0  0  0  0  0  0  0  0  0
   33.7354    4.9934   51.9982 C   0  0  0  0  0  0  0  0  0  0  0  0
   33.5802    4.1628   53.2865 C   0  0  2  0  0  0  0  0  0  0  0  0
   33.4452    2.7361   52.9746 N   0  3  0  0  0  0  0  0  0  0  0  0
   32.3460    4.6325   54.0814 C   0  0  2  0  0  0  0  0  0  0  0  0
   32.3896    6.1365   54.4151 C   0  0  2  0  0  0  0  0  0  0  0  0
   31.1154    6.4496   55.0099 O   0  0  0  0  0  0  0  0  0  0  0  0
   32.5944    6.9691   53.1242 C   0  0  1  0  0  0  0  0  0  0  0  0
   32.7314    8.3213   53.4648 O   0  0  0  0  0  0  0  0  0  0  0  0
   30.9283    7.4902   55.9656 C   0  0  1  0  0  0  0  0  0  0  0  0
   29.4017    7.5701   56.3249 C   0  0  2  0  0  0  0  0  0  0  0  0
   28.6515    8.4112   55.4654 O   0  0  0  0  0  0  0  0  0  0  0  0
   29.5377    8.0777   57.7536 C   0  0  2  0  0  0  0  0  0  0  0  0
   30.0359    9.4492   57.7795 O   0  0  0  0  0  0  0  0  0  0  0  0
   30.6276    7.1812   58.3244 C   0  0  2  0  0  0  0  0  0  0  0  0
   31.5613    7.1566   57.2311 O   0  0  0  0  0  0  0  0  0  0  0  0
   30.1517    5.7517   58.7439 C   0  0  0  0  0  0  0  0  0  0  0  0
   29.0942    5.8082   59.7096 O   0  0  0  0  0  0  0  0  0  0  0  0
   29.0151   10.4387   57.6781 C   0  0  2  0  0  0  0  0  0  0  0  0
   29.4875   11.9004   57.9856 C   0  0  2  0  0  0  0  0  0  0  0  0
   30.0809   12.0440   59.3497 N   0  3  0  0  0  0  0  0  0  0  0  0
   28.2439   12.8324   57.7996 C   0  0  1  0  0  0  0  0  0  0  0  0
   27.8412   12.7458   56.3791 O   0  0  0  0  0  0  0  0  0  0  0  0
   27.0221   12.3986   58.6999 C   0  0  2  0  0  0  0  0  0  0  0  0
   27.3987   12.5387   60.0795 O   0  0  0  0  0  0  0  0  0  0  0  0
   26.6523   10.8998   58.3410 C   0  0  1  0  0  0  0  0  0  0  0  0
   27.8540   10.0845   58.5526 O   0  0  0  0  0  0  0  0  0  0  0  0
   25.4758   10.3163   59.1561 C   0  0  0  0  0  0  0  0  0  0  0  0
   25.8754    9.8235   60.5022 N   0  3  0  0  0  0  0  0  0  0  0  0
  1  2  1  6  0  0  0
  1  3  1  0  0  0  0
  1 10  1  0  0  0  0
  3  4  1  6  0  0  0
  3  5  1  0  0  0  0
  5  6  1  1  0  0  0
  5  7  1  0  0  0  0
  7  8  1  6  0  0  0
  7  9  1  0  0  0  0
  9 10  1  0  0  0  0
  9 11  1  1  0  0  0
 11 12  1  0  0  0  0
 13 14  1  6  0  0  0
 13 15  1  0  0  0  0
 13 21  1  0  0  0  0
 15 16  1  0  0  0  0
 16 17  1  6  0  0  0
 16 18  1  0  0  0  0
 18  2  1  1  0  0  0
 18 19  1  0  0  0  0
 19 20  1  6  0  0  0
 19 21  1  0  0  0  0
 21 22  1  1  0  0  0
 23 20  1  6  0  0  0
 23 24  1  0  0  0  0
 23 29  1  0  0  0  0
 24 25  1  6  0  0  0
 24 26  1  0  0  0  0
 26 27  1  6  0  0  0
 26 28  1  0  0  0  0
 28 29  1  0  0  0  0
 28 30  1  6  0  0  0
 30 31  1  0  0  0  0
 32 27  1  1  0  0  0
 32 33  1  0  0  0  0
 32 40  1  0  0  0  0
 33 34  1  1  0  0  0
 33 35  1  0  0  0  0
 35 36  1  6  0  0  0
 35 37  1  0  0  0  0
 37 38  1  1  0  0  0
 37 39  1  0  0  0  0
 39 40  1  0  0  0  0
 39 41  1  1  0  0  0
 41 42  1  0  0  0  0
M  CHG  5   4   1  14   1  17   1  34   1  42   1
M  END
>  <CHROM.1>
-175.04981534,163.58245543,177.66487372,62.36124265,-38.97900152,67.10432013
-177.98951130,71.76185644,65.74608446,151.06475244,177.27847836,-55.34747884
65.02991783,86.91049825,168.49740377,-57.38557778,-53.74414475,-65.21288417
63.21529011,64.45054902,-81.77808825,81.71376516,30.24052644,6.82297308,56.55234847
0.81034855,-0.86464517,2.96589729

>  <Name>
1j7t

>  <RI>
0

>  <Rbt.Current_Directory>
/home/itssahil/PROJECTS/Mol_Feturizer/New_Systems/rnas/1j7t

>  <Rbt.Executable>
rbdock ($Id: //depot/dev/client3/rdock/2013.1/src/exe/rbdock.cxx#4 $)

>  <Rbt.Library>
libRbt.so (2013.1, Build901 2013/11/27)

>  <Rbt.Parameter_File>
/export/apps/rDock/src/rDock_2013.1_src/data/scripts/dock_solv.prm

>  <Rbt.Receptor>
prm/pocket_docking_8.prm

>  <SCORE>
-50.0952

>  <SCORE.INTER>
-37.5471

>  <SCORE.INTER.CONST>
1

>  <SCORE.INTER.POLAR>
-7.09875

>  <SCORE.INTER.ROT>
9

>  <SCORE.INTER.SOLV>
21.5476

>  <SCORE.INTER.VDW>
-18.1514

>  <SCORE.INTER.norm>
-0.89398

>  <SCORE.INTRA>
-12.6939

>  <SCORE.INTRA.DIHEDRAL>
-31.3162

>  <SCORE.INTRA.DIHEDRAL.0>
46.2143

>  <SCORE.INTRA.POLAR>
1.1531

>  <SCORE.INTRA.POLAR.0>
-1.76436

>  <SCORE.INTRA.REPUL>
0

>  <SCORE.INTRA.REPUL.0>
0

>  <SCORE.INTRA.SOLV>
-3.92081

>  <SCORE.INTRA.SOLV.lig_0>
-148.643

>  <SCORE.INTRA.VDW>
1.00406

>  <SCORE.INTRA.VDW.0>
-4.83512

>  <SCORE.INTRA.norm>
-0.302235

>  <SCORE.RESTR>
0.145804

>  <SCORE.RESTR.CAVITY>
0.145804

>  <SCORE.RESTR.norm>
0.00347153

>  <SCORE.SYSTEM>
0

>  <SCORE.SYSTEM.CONST>
0

>  <SCORE.SYSTEM.DIHEDRAL>
0

>  <SCORE.SYSTEM.SOLV>
0

>  <SCORE.SYSTEM.norm>
0

>  <SCORE.heavy>
42

>  <SCORE.norm>
-1.19274

>  <RMSD>
6.616

$$$$
1j7t
 OpenBabel11021811393D
libRbt.so/2013.1/901 2013/11/27
 42 45  0  0  0  0  0  0  0  0999 V2000
   32.4976    5.5060   54.8283 C   0  0  2  0  0  0  0  0  0  0  0  0
   32.2492    5.3678   53.4065 O   0  0  0  0  0  0  0  0  0  0  0  0
   34.0212    5.7712   54.9969 C   0  0  2  0  0  0  0  0  0  0  0  0
   34.5445    6.9084   54.1867 N   0  3  0  0  0  0  0  0  0  0  0  0
   34.7795    4.4949   54.5712 C   0  0  1  0  0  0  0  0  0  0  0  0
   36.1606    4.6697   54.7177 O   0  0  0  0  0  0  0  0  0  0  0  0
   34.2917    3.2855   55.4037 C   0  0  2  0  0  0  0  0  0  0  0  0
   34.9893    2.1094   55.0442 O   0  0  0  0  0  0  0  0  0  0  0  0
   32.8097    3.0717   55.1798 C   0  0  2  0  0  0  0  0  0  0  0  0
   32.1089    4.2668   55.5002 O   0  0  0  0  0  0  0  0  0  0  0  0
   32.2305    1.9788   56.0499 C   0  0  0  0  0  0  0  0  0  0  0  0
   32.7261    0.7243   55.6232 O   0  0  0  0  0  0  0  0  0  0  0  0
   28.6462    6.2922   51.4036 C   0  0  2  0  0  0  0  0  0  0  0  0
   27.2816    6.1863   50.8859 N   0  3  0  0  0  0  0  0  0  0  0  0
   29.5317    5.1452   50.8132 C   0  0  0  0  0  0  0  0  0  0  0  0
   30.9567    5.2238   51.3936 C   0  0  2  0  0  0  0  0  0  0  0  0
   31.7861    4.1233   50.8918 N   0  3  0  0  0  0  0  0  0  0  0  0
   30.9118    5.1706   52.9333 C   0  0  2  0  0  0  0  0  0  0  0  0
   30.0235    6.2734   53.5417 C   0  0  2  0  0  0  0  0  0  0  0  0
   29.9574    5.9977   54.9541 O   0  0  0  0  0  0  0  0  0  0  0  0
   28.6039    6.2248   52.9220 C   0  0  1  0  0  0  0  0  0  0  0  0
   27.8487    7.2967   53.4156 O   0  0  0  0  0  0  0  0  0  0  0  0
   30.0664    7.0039   55.9575 C   0  0  1  0  0  0  0  0  0  0  0  0
   28.9934    8.1140   55.6707 C   0  0  2  0  0  0  0  0  0  0  0  0
   29.4406    9.1335   54.7933 O   0  0  0  0  0  0  0  0  0  0  0  0
   28.7555    8.5665   57.1045 C   0  0  2  0  0  0  0  0  0  0  0  0
   29.9247    9.2569   57.6393 O   0  0  0  0  0  0  0  0  0  0  0  0
   28.6174    7.2479   57.8525 C   0  0  2  0  0  0  0  0  0  0  0  0
   29.6832    6.4854   57.2605 O   0  0  0  0  0  0  0  0  0  0  0  0
   27.2246    6.5515   57.7080 C   0  0  0  0  0  0  0  0  0  0  0  0
   27.0491    5.9847   56.4034 O   0  0  0  0  0  0  0  0  0  0  0  0
   29.6526   10.5711   58.1195 C   0  0  2  0  0  0  0  0  0  0  0  0
   30.6376   11.0807   59.2260 C   0  0  2  0  0  0  0  0  0  0  0  0
   30.6727   10.1911   60.4264 N   0  3  0  0  0  0  0  0  0  0  0  0
   30.1930   12.5337   59.6011 C   0  0  1  0  0  0  0  0  0  0  0  0
   30.3568   13.3673   58.3903 O   0  0  0  0  0  0  0  0  0  0  0  0
   28.6861   12.6050   60.0652 C   0  0  2  0  0  0  0  0  0  0  0  0
   28.5434   11.8405   61.2734 O   0  0  0  0  0  0  0  0  0  0  0  0
   27.7821   12.0312   58.8966 C   0  0  1  0  0  0  0  0  0  0  0  0
   28.2424   10.6677   58.6097 O   0  0  0  0  0  0  0  0  0  0  0  0
   26.2676   12.0166   59.2048 C   0  0  0  0  0  0  0  0  0  0  0  0
   25.7009   13.3703   59.4516 N   0  3  0  0  0  0  0  0  0  0  0  0
  1  2  1  6  0  0  0
  1  3  1  0  0  0  0
  1 10  1  0  0  0  0
  3  4  1  6  0  0  0
  3  5  1  0  0  0  0
  5  6  1  1  0  0  0
  5  7  1  0  0  0  0
  7  8  1  6  0  0  0
  7  9  1  0  0  0  0
  9 10  1  0  0  0  0
  9 11  1  1  0  0  0
 11 12  1  0  0  0  0
 13 14  1  6  0  0  0
 13 15  1  0  0  0  0
 13 21  1  0  0  0  0
 15 16  1  0  0  0  0
 16 17  1  6  0  0  0
 16 18  1  0  0  0  0
 18  2  1  1  0  0  0
 18 19  1  0  0  0  0
 19 20  1  1  0  0  0
 19 21  1  0  0  0  0
 21 22  1  1  0  0  0
 23 20  1  6  0  0  0
 23 24  1  0  0  0  0
 23 29  1  0  0  0  0
 24 25  1  6  0  0  0
 24 26  1  0  0  0  0
 26 27  1  1  0  0  0
 26 28  1  0  0  0  0
 28 29  1  0  0  0  0
 28 30  1  6  0  0  0
 30 31  1  0  0  0  0
 32 27  1  1  0  0  0
 32 33  1  0  0  0  0
 32 40  1  0  0  0  0
 33 34  1  1  0  0  0
 33 35  1  0  0  0  0
 35 36  1  6  0  0  0
 35 37  1  0  0  0  0
 37 38  1  1  0  0  0
 37 39  1  0  0  0  0
 39 40  1  0  0  0  0
 39 41  1  1  0  0  0
 41 42  1  0  0  0  0
M  CHG  5   4   1  14   1  17   1  34   1  42   1
M  END
>  <CHROM.1>
-177.37628793,173.62531188,53.19329166,36.61044118,-46.37381326,-69.50869670
-56.14621420,170.46791707,-62.58219458,137.02776584,54.55128151,-60.82807474
-167.59157136,123.84576743,154.07965841,72.81477081,45.20250012,-54.69386696
-58.48374935,65.11137955,61.40599307,177.45974655,30.37520171,7.25637097
55.86830154,-1.08154429,-0.52261012,0.87994253

>  <Name>
1j7t

>  <RI>
0

>  <Rbt.Current_Directory>
/home/itssahil/PROJECTS/Mol_Feturizer/New_Systems/rnas/1j7t

>  <Rbt.Executable>
rbdock ($Id: //depot/dev/client3/rdock/2013.1/src/exe/rbdock.cxx#4 $)

>  <Rbt.Library>
libRbt.so (2013.1, Build901 2013/11/27)

>  <Rbt.Parameter_File>
/export/apps/rDock/src/rDock_2013.1_src/data/scripts/dock_solv.prm

>  <Rbt.Receptor>
prm/pocket_docking_8.prm

>  <SCORE>
-44.6455

>  <SCORE.INTER>
-36.761

>  <SCORE.INTER.CONST>
1

>  <SCORE.INTER.POLAR>
-7.44758

>  <SCORE.INTER.ROT>
9

>  <SCORE.INTER.SOLV>
22.2934

>  <SCORE.INTER.VDW>
-16.7132

>  <SCORE.INTER.norm>
-0.875262

>  <SCORE.INTRA>
-7.88448

>  <SCORE.INTRA.DIHEDRAL>
-23.2496

>  <SCORE.INTRA.DIHEDRAL.0>
46.2143

>  <SCORE.INTRA.POLAR>
1.26275

>  <SCORE.INTRA.POLAR.0>
-1.76436

>  <SCORE.INTRA.REPUL>
0.0484682

>  <SCORE.INTRA.REPUL.0>
0

>  <SCORE.INTRA.SOLV>
-4.26043

>  <SCORE.INTRA.SOLV.lig_0>
-148.643

>  <SCORE.INTRA.VDW>
1.33486

>  <SCORE.INTRA.VDW.0>
-4.83512

>  <SCORE.INTRA.norm>
-0.187726

>  <SCORE.RESTR>
0

>  <SCORE.RESTR.CAVITY>
0

>  <SCORE.RESTR.norm>
0

>  <SCORE.SYSTEM>
0

>  <SCORE.SYSTEM.CONST>
0

>  <SCORE.SYSTEM.DIHEDRAL>
0

>  <SCORE.SYSTEM.SOLV>
0

>  <SCORE.SYSTEM.norm>
0

>  <SCORE.heavy>
42

>  <SCORE.norm>
-1.06299

>  <RMSD>
6.675

$$$$
1j7t
 OpenBabel11021811393D
libRbt.so/2013.1/901 2013/11/27
 42 45  0  0  0  0  0  0  0  0999 V2000
   30.9906    5.5515   54.8531 C   0  0  2  0  0  0  0  0  0  0  0  0
   30.6707    6.0021   53.5125 O   0  0  0  0  0  0  0  0  0  0  0  0
   32.5388    5.6115   54.9922 C   0  0  2  0  0  0  0  0  0  0  0  0
   33.1402    6.9317   54.6472 N   0  3  0  0  0  0  0  0  0  0  0  0
   33.1459    4.5507   54.0483 C   0  0  1  0  0  0  0  0  0  0  0  0
   34.5425    4.5474   54.1431 O   0  0  0  0  0  0  0  0  0  0  0  0
   32.5734    3.1529   54.3830 C   0  0  2  0  0  0  0  0  0  0  0  0
   33.1331    2.1625   53.5433 O   0  0  0  0  0  0  0  0  0  0  0  0
   31.0694    3.1586   54.2097 C   0  0  2  0  0  0  0  0  0  0  0  0
   30.5069    4.1819   55.0211 O   0  0  0  0  0  0  0  0  0  0  0  0
   30.4194    1.8598   54.6312 C   0  0  0  0  0  0  0  0  0  0  0  0
   30.9186    0.8026   53.8346 O   0  0  0  0  0  0  0  0  0  0  0  0
   27.0851    6.8210   51.4337 C   0  0  2  0  0  0  0  0  0  0  0  0
   25.7533    6.6580   50.8497 N   0  3  0  0  0  0  0  0  0  0  0  0
   28.0783    5.7958   50.7928 C   0  0  0  0  0  0  0  0  0  0  0  0
   29.4700    5.9310   51.4397 C   0  0  2  0  0  0  0  0  0  0  0  0
   30.4004    4.9404   50.8882 N   0  3  0  0  0  0  0  0  0  0  0  0
   29.3713    5.7467   52.9668 C   0  0  2  0  0  0  0  0  0  0  0  0
   28.3781    6.7263   53.6219 C   0  0  2  0  0  0  0  0  0  0  0  0
   28.2803    6.3298   55.0034 O   0  0  0  0  0  0  0  0  0  0  0  0
   26.9909    6.6245   52.9385 C   0  0  1  0  0  0  0  0  0  0  0  0
   26.1370    7.5929   53.4827 O   0  0  0  0  0  0  0  0  0  0  0  0
   28.6966    7.1538   56.0892 C   0  0  1  0  0  0  0  0  0  0  0  0
   27.8381    8.4686   56.0765 C   0  0  2  0  0  0  0  0  0  0  0  0
   28.3765    9.4996   55.2665 O   0  0  0  0  0  0  0  0  0  0  0  0
   27.8555    8.7578   57.5710 C   0  0  2  0  0  0  0  0  0  0  0  0
   29.1900    9.1455   58.0164 O   0  0  0  0  0  0  0  0  0  0  0  0
   27.5448    7.3969   58.1782 C   0  0  2  0  0  0  0  0  0  0  0  0
   28.3666    6.5413   57.3656 O   0  0  0  0  0  0  0  0  0  0  0  0
   26.0348    6.9909   58.1466 C   0  0  0  0  0  0  0  0  0  0  0  0
   25.5553    6.8400   56.8045 O   0  0  0  0  0  0  0  0  0  0  0  0
   29.2776   10.4892   58.4837 C   0  0  2  0  0  0  0  0  0  0  0  0
   30.5626   10.8087   59.3208 C   0  0  2  0  0  0  0  0  0  0  0  0
   30.7046    9.9331   60.5236 N   0  3  0  0  0  0  0  0  0  0  0  0
   30.4867   12.3209   59.7173 C   0  0  1  0  0  0  0  0  0  0  0  0
   30.5225   13.1041   58.4632 O   0  0  0  0  0  0  0  0  0  0  0  0
   29.1622   12.6762   60.4988 C   0  0  2  0  0  0  0  0  0  0  0  0
   29.1586   11.9568   61.7427 O   0  0  0  0  0  0  0  0  0  0  0  0
   27.9290   12.2781   59.5863 C   0  0  1  0  0  0  0  0  0  0  0  0
   28.0561   10.8512   59.2681 O   0  0  0  0  0  0  0  0  0  0  0  0
   26.5464   12.5498   60.2216 C   0  0  0  0  0  0  0  0  0  0  0  0
   25.5112   12.9587   59.2337 N   0  3  0  0  0  0  0  0  0  0  0  0
  1  2  1  6  0  0  0
  1  3  1  0  0  0  0
  1 10  1  0  0  0  0
  3  4  1  6  0  0  0
  3  5  1  0  0  0  0
  5  6  1  1  0  0  0
  5  7  1  0  0  0  0
  7  8  1  6  0  0  0
  7  9  1  0  0  0  0
  9 10  1  0  0  0  0
  9 11  1  1  0  0  0
 11 12  1  0  0  0  0
 13 14  1  6  0  0  0
 13 15  1  0  0  0  0
 13 21  1  0  0  0  0
 15 16  1  0  0  0  0
 16 17  1  6  0  0  0
 16 18  1  0  0  0  0
 18  2  1  1  0  0  0
 18 19  1  0  0  0  0
 19 20  1  1  0  0  0
 19 21  1  0  0  0  0
 21 22  1  1  0  0  0
 23 20  1  6  0  0  0
 23 24  1  0  0  0  0
 23 29  1  0  0  0  0
 24 25  1  6  0  0  0
 24 26  1  0  0  0  0
 26 27  1  1  0  0  0
 26 28  1  0  0  0  0
 28 29  1  0  0  0  0
 28 30  1  6  0  0  0
 30 31  1  0  0  0  0
 32 27  1  1  0  0  0
 32 33  1  0  0  0  0
 32 40  1  0  0  0  0
 33 34  1  1  0  0  0
 33 35  1  0  0  0  0
 35 36  1  6  0  0  0
 35 37  1  0  0  0  0
 37 38  1  1  0  0  0
 37 39  1  0  0  0  0
 39 40  1  0  0  0  0
 39 41  1  1  0  0  0
 41 42  1  0  0  0  0
M  CHG  5   4   1  14   1  17   1  34   1  42   1
M  END
>  <CHROM.1>
164.34266481,-162.71158420,-59.77551198,-78.79838811,-174.77977657,-61.07919568
-61.18564755,80.73410795,-36.70885753,115.93356039,61.56177521,69.84989613
70.46616633,114.61812659,163.90727031,64.21499198,-176.46145589,-31.89327517
-61.28080799,57.19347271,145.67157191,-85.77738497,29.31142275,7.43322342
55.84516372,-1.31277118,-0.42229448,0.82363635

>  <Name>
1j7t

>  <RI>
224

>  <Rbt.Current_Directory>
/home/itssahil/PROJECTS/Mol_Feturizer/New_Systems/rnas/1j7t

>  <Rbt.Executable>
rbdock ($Id: //depot/dev/client3/rdock/2013.1/src/exe/rbdock.cxx#4 $)

>  <Rbt.Library>
libRbt.so (2013.1, Build901 2013/11/27)

>  <Rbt.Parameter_File>
/export/apps/rDock/src/rDock_2013.1_src/data/scripts/dock_solv.prm

>  <Rbt.Receptor>
prm/pocket_docking_7.prm

>  <SCORE>
-52.1422

>  <SCORE.INTER>
-45.923

>  <SCORE.INTER.CONST>
1

>  <SCORE.INTER.POLAR>
-9.42883

>  <SCORE.INTER.ROT>
9

>  <SCORE.INTER.SOLV>
28.7683

>  <SCORE.INTER.VDW>
-18.3753

>  <SCORE.INTER.norm>
-1.0934

>  <SCORE.INTRA>
-6.21921

>  <SCORE.INTRA.DIHEDRAL>
-16.7101

>  <SCORE.INTRA.DIHEDRAL.0>
46.2143

>  <SCORE.INTRA.POLAR>
1.31169

>  <SCORE.INTRA.POLAR.0>
-1.76436

>  <SCORE.INTRA.REPUL>
0.0136218

>  <SCORE.INTRA.REPUL.0>
0

>  <SCORE.INTRA.SOLV>
-3.99661

>  <SCORE.INTRA.SOLV.lig_0>
-148.643

>  <SCORE.INTRA.VDW>
-0.393709

>  <SCORE.INTRA.VDW.0>
-4.83512

>  <SCORE.INTRA.norm>
-0.148076

>  <SCORE.RESTR>
0

>  <SCORE.RESTR.CAVITY>
0

>  <SCORE.RESTR.norm>
0

>  <SCORE.SYSTEM>
0

>  <SCORE.SYSTEM.CONST>
0

>  <SCORE.SYSTEM.DIHEDRAL>
0

>  <SCORE.SYSTEM.SOLV>
0

>  <SCORE.SYSTEM.norm>
0

>  <SCORE.heavy>
42

>  <SCORE.norm>
-1.24148

>  <RMSD>
6.679

$$$$
1j7t
 OpenBabel11021811393D
libRbt.so/2013.1/901 2013/11/27
 42 45  0  0  0  0  0  0  0  0999 V2000
   30.9369    4.2763   56.4094 C   0  0  2  0  0  0  0  0  0  0  0  0
   30.0735    3.8124   57.4779 O   0  0  0  0  0  0  0  0  0  0  0  0
   32.2334    4.8161   57.0786 C   0  0  2  0  0  0  0  0  0  0  0  0
   32.8964    3.8555   58.0067 N   0  3  0  0  0  0  0  0  0  0  0  0
   31.8653    6.0804   57.8854 C   0  0  1  0  0  0  0  0  0  0  0  0
   33.0007    6.6218   58.4995 O   0  0  0  0  0  0  0  0  0  0  0  0
   31.1961    7.1241   56.9599 C   0  0  2  0  0  0  0  0  0  0  0  0
   30.8701    8.2994   57.6751 O   0  0  0  0  0  0  0  0  0  0  0  0
   29.9342    6.5431   56.3580 C   0  0  2  0  0  0  0  0  0  0  0  0
   30.2519    5.3380   55.6734 O   0  0  0  0  0  0  0  0  0  0  0  0
   29.2824    7.4607   55.3480 C   0  0  0  0  0  0  0  0  0  0  0  0
   28.8971    8.6641   55.9842 O   0  0  0  0  0  0  0  0  0  0  0  0
   27.6411    1.2815   55.1272 C   0  0  2  0  0  0  0  0  0  0  0  0
   26.5860    0.3466   54.7343 N   0  3  0  0  0  0  0  0  0  0  0  0
   28.5852    0.6097   56.1787 C   0  0  0  0  0  0  0  0  0  0  0  0
   29.6686    1.6072   56.6315 C   0  0  2  0  0  0  0  0  0  0  0  0
   30.5305    1.0113   57.6577 N   0  3  0  0  0  0  0  0  0  0  0  0
   29.0179    2.8881   57.1897 C   0  0  2  0  0  0  0  0  0  0  0  0
   28.0605    3.5566   56.1839 C   0  0  2  0  0  0  0  0  0  0  0  0
   27.4213    4.6327   56.8972 O   0  0  0  0  0  0  0  0  0  0  0  0
   27.0000    2.5393   55.6916 C   0  0  1  0  0  0  0  0  0  0  0  0
   26.2068    3.1411   54.7059 O   0  0  0  0  0  0  0  0  0  0  0  0
   26.5184    4.4304   57.9812 C   0  0  1  0  0  0  0  0  0  0  0  0
   27.2833    3.6930   59.1376 C   0  0  2  0  0  0  0  0  0  0  0  0
   27.2596    2.2796   59.0333 O   0  0  0  0  0  0  0  0  0  0  0  0
   26.5010    4.2581   60.3148 C   0  0  2  0  0  0  0  0  0  0  0  0
   25.1355    3.7435   60.3350 O   0  0  0  0  0  0  0  0  0  0  0  0
   26.4287    5.7427   59.9861 C   0  0  2  0  0  0  0  0  0  0  0  0
   26.1301    5.6968   58.5803 O   0  0  0  0  0  0  0  0  0  0  0  0
   27.7301    6.5510   60.3007 C   0  0  0  0  0  0  0  0  0  0  0  0
   27.7851    6.9512   61.6757 O   0  0  0  0  0  0  0  0  0  0  0  0
   24.4367    4.0014   61.5501 C   0  0  2  0  0  0  0  0  0  0  0  0
   24.9723    3.2128   62.7933 C   0  0  2  0  0  0  0  0  0  0  0  0
   24.9456    1.7316   62.5969 N   0  3  0  0  0  0  0  0  0  0  0  0
   24.1013    3.6450   64.0199 C   0  0  1  0  0  0  0  0  0  0  0  0
   24.3312    5.0907   64.2316 O   0  0  0  0  0  0  0  0  0  0  0  0
   22.5594    3.4069   63.7815 C   0  0  2  0  0  0  0  0  0  0  0  0
   22.3326    1.9957   63.6331 O   0  0  0  0  0  0  0  0  0  0  0  0
   22.1306    4.2105   62.4844 C   0  0  1  0  0  0  0  0  0  0  0  0
   22.9730    3.7450   61.3767 O   0  0  0  0  0  0  0  0  0  0  0  0
   20.6399    4.0652   62.1030 C   0  0  0  0  0  0  0  0  0  0  0  0
   20.2181    4.9777   61.0057 N   0  3  0  0  0  0  0  0  0  0  0  0
  1  2  1  1  0  0  0
  1  3  1  0  0  0  0
  1 10  1  0  0  0  0
  3  4  1  1  0  0  0
  3  5  1  0  0  0  0
  5  6  1  6  0  0  0
  5  7  1  0  0  0  0
  7  8  1  1  0  0  0
  7  9  1  0  0  0  0
  9 10  1  0  0  0  0
  9 11  1  6  0  0  0
 11 12  1  0  0  0  0
 13 14  1  1  0  0  0
 13 15  1  0  0  0  0
 13 21  1  0  0  0  0
 15 16  1  0  0  0  0
 16 17  1  1  0  0  0
 16 18  1  0  0  0  0
 18  2  1  6  0  0  0
 18 19  1  0  0  0  0
 19 20  1  1  0  0  0
 19 21  1  0  0  0  0
 21 22  1  6  0  0  0
 23 20  1  6  0  0  0
 23 24  1  0  0  0  0
 23 29  1  0  0  0  0
 24 25  1  6  0  0  0
 24 26  1  0  0  0  0
 26 27  1  6  0  0  0
 26 28  1  0  0  0  0
 28 29  1  0  0  0  0
 28 30  1  6  0  0  0
 30 31  1  0  0  0  0
 32 27  1  6  0  0  0
 32 33  1  0  0  0  0
 32 40  1  0  0  0  0
 33 34  1  6  0  0  0
 33 35  1  0  0  0  0
 35 36  1  6  0  0  0
 35 37  1  0  0  0  0
 37 38  1  6  0  0  0
 37 39  1  0  0  0  0
 39 40  1  0  0  0  0
 39 41  1  6  0  0  0
 41 42  1  0  0  0  0
M  CHG  5   4   1  14   1  17   1  34   1  42   1
M  END
>  <CHROM.1>
-160.01567308,61.09235605,-178.50503211,-173.77019821,-59.67996476,-61.88629947
-179.41987279,54.09963263,169.78148414,-66.71128671,61.45820600,-57.81570488
167.60451811,167.47709047,-68.70807072,-83.72695562,93.15326772,142.79504044
-59.50720825,74.37663523,171.66370667,61.01396243,27.29433130,4.24226953
58.85747755,0.31000082,-0.61100343,-2.42970536

>  <Name>
1j7t

>  <RI>
0

>  <Rbt.Current_Directory>
/home/itssahil/PROJECTS/Mol_Feturizer/New_Systems/rnas/1j7t

>  <Rbt.Executable>
rbdock ($Id: //depot/dev/client3/rdock/2013.1/src/exe/rbdock.cxx#4 $)

>  <Rbt.Library>
libRbt.so (2013.1, Build901 2013/11/27)

>  <Rbt.Parameter_File>
/export/apps/rDock/src/rDock_2013.1_src/data/scripts/dock_solv.prm

>  <Rbt.Receptor>
prm/pocket_docking_8.prm

>  <SCORE>
-36.5484

>  <SCORE.INTER>
-24.8541

>  <SCORE.INTER.CONST>
1

>  <SCORE.INTER.POLAR>
-5.67089

>  <SCORE.INTER.ROT>
9

>  <SCORE.INTER.SOLV>
17.4975

>  <SCORE.INTER.VDW>
-13.0989

>  <SCORE.INTER.norm>
-0.591764

>  <SCORE.INTRA>
-11.6943

>  <SCORE.INTRA.DIHEDRAL>
-31.4123

>  <SCORE.INTRA.DIHEDRAL.0>
46.2143

>  <SCORE.INTRA.POLAR>
1.2097

>  <SCORE.INTRA.POLAR.0>
-1.76436

>  <SCORE.INTRA.REPUL>
0

>  <SCORE.INTRA.REPUL.0>
0

>  <SCORE.INTRA.SOLV>
-2.33234

>  <SCORE.INTRA.SOLV.lig_0>
-148.643

>  <SCORE.INTRA.VDW>
1.06506

>  <SCORE.INTRA.VDW.0>
-4.83512

>  <SCORE.INTRA.norm>
-0.278435

>  <SCORE.RESTR>
0

>  <SCORE.RESTR.CAVITY>
0

>  <SCORE.RESTR.norm>
0

>  <SCORE.SYSTEM>
0

>  <SCORE.SYSTEM.CONST>
0

>  <SCORE.SYSTEM.DIHEDRAL>
0

>  <SCORE.SYSTEM.SOLV>
0

>  <SCORE.SYSTEM.norm>
0

>  <SCORE.heavy>
42

>  <SCORE.norm>
-0.870199

>  <RMSD>
6.708

$$$$
1j7t
 OpenBabel11021811393D
libRbt.so/2013.1/901 2013/11/27
 42 45  0  0  0  0  0  0  0  0999 V2000
   30.4436    9.3152   59.2692 C   0  0  2  0  0  0  0  0  0  0  0  0
   29.3901    8.5039   59.8473 O   0  0  0  0  0  0  0  0  0  0  0  0
   30.0358   10.8017   59.4795 C   0  0  2  0  0  0  0  0  0  0  0  0
   29.7124   11.1607   60.8902 N   0  3  0  0  0  0  0  0  0  0  0  0
   28.7847   11.0814   58.6184 C   0  0  1  0  0  0  0  0  0  0  0  0
   28.3796   12.4143   58.7553 O   0  0  0  0  0  0  0  0  0  0  0  0
   29.0763   10.7499   57.1356 C   0  0  2  0  0  0  0  0  0  0  0  0
   27.9493   11.0196   56.3257 O   0  0  0  0  0  0  0  0  0  0  0  0
   29.4474    9.2884   56.9992 C   0  0  2  0  0  0  0  0  0  0  0  0
   30.5545    9.0038   57.8449 O   0  0  0  0  0  0  0  0  0  0  0  0
   29.8618    8.9108   55.5947 C   0  0  0  0  0  0  0  0  0  0  0  0
   28.7971    9.1757   54.7017 O   0  0  0  0  0  0  0  0  0  0  0  0
   31.0177    4.7045   58.9734 C   0  0  2  0  0  0  0  0  0  0  0  0
   31.2493    3.2596   58.9857 N   0  3  0  0  0  0  0  0  0  0  0  0
   31.2868    5.3004   60.3950 C   0  0  0  0  0  0  0  0  0  0  0  0
   30.9969    6.8135   60.3987 C   0  0  2  0  0  0  0  0  0  0  0  0
   31.1924    7.3792   61.7377 N   0  3  0  0  0  0  0  0  0  0  0  0
   29.5521    7.0834   59.9345 C   0  0  2  0  0  0  0  0  0  0  0  0
   29.2503    6.4832   58.5475 C   0  0  2  0  0  0  0  0  0  0  0  0
   27.8401    6.6787   58.3271 O   0  0  0  0  0  0  0  0  0  0  0  0
   29.5879    4.9707   58.5299 C   0  0  1  0  0  0  0  0  0  0  0  0
   29.4011    4.4720   57.2340 O   0  0  0  0  0  0  0  0  0  0  0  0
   26.8379    6.3041   59.2686 C   0  0  1  0  0  0  0  0  0  0  0  0
   25.4515    6.2616   58.5322 C   0  0  2  0  0  0  0  0  0  0  0  0
   24.7728    7.5058   58.5111 O   0  0  0  0  0  0  0  0  0  0  0  0
   24.7849    5.1865   59.3789 C   0  0  2  0  0  0  0  0  0  0  0  0
   24.5158    5.6715   60.7288 O   0  0  0  0  0  0  0  0  0  0  0  0
   25.8678    4.1214   59.4798 C   0  0  2  0  0  0  0  0  0  0  0  0
   27.0294    4.9348   59.7177 O   0  0  0  0  0  0  0  0  0  0  0  0
   26.0163    3.2117   58.2164 C   0  0  0  0  0  0  0  0  0  0  0  0
   26.4267    3.9641   57.0677 O   0  0  0  0  0  0  0  0  0  0  0  0
   23.8949    4.7094   61.5775 C   0  0  2  0  0  0  0  0  0  0  0  0
   22.5900    4.0676   60.9946 C   0  0  2  0  0  0  0  0  0  0  0  0
   21.5414    5.0805   60.6663 N   0  3  0  0  0  0  0  0  0  0  0  0
   22.0775    3.0323   62.0507 C   0  0  1  0  0  0  0  0  0  0  0  0
   23.1145    1.9850   62.1752 O   0  0  0  0  0  0  0  0  0  0  0  0
   21.8404    3.6817   63.4695 C   0  0  2  0  0  0  0  0  0  0  0  0
   20.7925    4.6584   63.3557 O   0  0  0  0  0  0  0  0  0  0  0  0
   23.2031    4.3350   63.9473 C   0  0  1  0  0  0  0  0  0  0  0  0
   23.6139    5.3015   62.9224 O   0  0  0  0  0  0  0  0  0  0  0  0
   23.1320    5.0334   65.3243 C   0  0  0  0  0  0  0  0  0  0  0  0
   23.0404    4.0829   66.4658 N   0  3  0  0  0  0  0  0  0  0  0  0
  1  2  1  6  0  0  0
  1  3  1  0  0  0  0
  1 10  1  0  0  0  0
  3  4  1  1  0  0  0
  3  5  1  0  0  0  0
  5  6  1  6  0  0  0
  5  7  1  0  0  0  0
  7  8  1  6  0  0  0
  7  9  1  0  0  0  0
  9 10  1  0  0  0  0
  9 11  1  6  0  0  0
 11 12  1  0  0  0  0
 13 14  1  1  0  0  0
 13 15  1  0  0  0  0
 13 21  1  0  0  0  0
 15 16  1  0  0  0  0
 16 17  1  1  0  0  0
 16 18  1  0  0  0  0
 18  2  1  6  0  0  0
 18 19  1  0  0  0  0
 19 20  1  1  0  0  0
 19 21  1  0  0  0  0
 21 22  1  6  0  0  0
 23 20  1  6  0  0  0
 23 24  1  0  0  0  0
 23 29  1  0  0  0  0
 24 25  1  1  0  0  0
 24 26  1  0  0  0  0
 26 27  1  1  0  0  0
 26 28  1  0  0  0  0
 28 29  1  0  0  0  0
 28 30  1  6  0  0  0
 30 31  1  0  0  0  0
 32 27  1  6  0  0  0
 32 33  1  0  0  0  0
 32 40  1  0  0  0  0
 33 34  1  1  0  0  0
 33 35  1  0  0  0  0
 35 36  1  1  0  0  0
 35 37  1  0  0  0  0
 37 38  1  6  0  0  0
 37 39  1  0  0  0  0
 39 40  1  0  0  0  0
 39 41  1  1  0  0  0
 41 42  1  0  0  0  0
M  CHG  5   4   1  14   1  17   1  34   1  42   1
M  END
>  <CHROM.1>
-173.31961579,42.45358751,-178.83640953,-68.58075167,-54.77982839,-59.60344103
56.45353253,-56.62766770,-66.46909330,-50.77341121,-163.12730346,168.33370393
174.81378115,-179.77886682,-53.24446124,63.79094093,-174.87914451,-61.58370466
179.18356996,68.73491509,72.56748405,55.05187660,26.97747793,6.48029853,59.82111283
0.54995172,0.57088764,-0.04153618

>  <Name>
1j7t

>  <RI>
0

>  <Rbt.Current_Directory>
/home/itssahil/PROJECTS/Mol_Feturizer/New_Systems/rnas/1j7t

>  <Rbt.Executable>
rbdock ($Id: //depot/dev/client3/rdock/2013.1/src/exe/rbdock.cxx#4 $)

>  <Rbt.Library>
libRbt.so (2013.1, Build901 2013/11/27)

>  <Rbt.Parameter_File>
/export/apps/rDock/src/rDock_2013.1_src/data/scripts/dock_solv.prm

>  <Rbt.Receptor>
prm/pocket_docking_8.prm

>  <SCORE>
-58.7562

>  <SCORE.INTER>
-37.5648

>  <SCORE.INTER.CONST>
1

>  <SCORE.INTER.POLAR>
-7.24481

>  <SCORE.INTER.ROT>
9

>  <SCORE.INTER.SOLV>
19.8823

>  <SCORE.INTER.VDW>
-17.1213

>  <SCORE.INTER.norm>
-0.8944

>  <SCORE.INTRA>
-21.1914

>  <SCORE.INTRA.DIHEDRAL>
-39.285

>  <SCORE.INTRA.DIHEDRAL.0>
46.2143

>  <SCORE.INTRA.POLAR>
-0.10502

>  <SCORE.INTRA.POLAR.0>
-1.76436

>  <SCORE.INTRA.REPUL>
0

>  <SCORE.INTRA.REPUL.0>
0

>  <SCORE.INTRA.SOLV>
-2.47692

>  <SCORE.INTRA.SOLV.lig_0>
-148.643

>  <SCORE.INTRA.VDW>
0.0466661

>  <SCORE.INTRA.VDW.0>
-4.83512

>  <SCORE.INTRA.norm>
-0.504557

>  <SCORE.RESTR>
0

>  <SCORE.RESTR.CAVITY>
0

>  <SCORE.RESTR.norm>
0

>  <SCORE.SYSTEM>
0

>  <SCORE.SYSTEM.CONST>
0

>  <SCORE.SYSTEM.DIHEDRAL>
0

>  <SCORE.SYSTEM.SOLV>
0

>  <SCORE.SYSTEM.norm>
0

>  <SCORE.heavy>
42

>  <SCORE.norm>
-1.39896

>  <RMSD>
6.734

$$$$
1j7t
 OpenBabel11021811393D
libRbt.so/2013.1/901 2013/11/27
 42 45  0  0  0  0  0  0  0  0999 V2000
   27.0759    4.9899   53.0675 C   0  0  2  0  0  0  0  0  0  0  0  0
   28.3031    5.2406   52.3372 O   0  0  0  0  0  0  0  0  0  0  0  0
   27.2782    3.6590   53.8471 C   0  0  2  0  0  0  0  0  0  0  0  0
   28.4993    3.6225   54.7023 N   0  3  0  0  0  0  0  0  0  0  0  0
   27.3834    2.5124   52.8180 C   0  0  1  0  0  0  0  0  0  0  0  0
   27.5510    1.2825   53.4651 O   0  0  0  0  0  0  0  0  0  0  0  0
   26.1241    2.4886   51.9196 C   0  0  2  0  0  0  0  0  0  0  0  0
   26.1905    1.4314   50.9831 O   0  0  0  0  0  0  0  0  0  0  0  0
   25.9975    3.8021   51.1774 C   0  0  2  0  0  0  0  0  0  0  0  0
   25.9730    4.8710   52.1148 O   0  0  0  0  0  0  0  0  0  0  0  0
   24.7257    3.9037   50.3654 C   0  0  0  0  0  0  0  0  0  0  0  0
   23.6081    3.8475   51.2308 O   0  0  0  0  0  0  0  0  0  0  0  0
   30.3136    8.5027   50.5581 C   0  0  2  0  0  0  0  0  0  0  0  0
   30.8649    9.8411   50.3437 N   0  3  0  0  0  0  0  0  0  0  0  0
   28.7538    8.5773   50.6568 C   0  0  0  0  0  0  0  0  0  0  0  0
   28.1728    7.1770   50.9313 C   0  0  2  0  0  0  0  0  0  0  0  0
   26.7150    7.2369   51.0803 N   0  3  0  0  0  0  0  0  0  0  0  0
   28.7943    6.5800   52.2091 C   0  0  2  0  0  0  0  0  0  0  0  0
   30.3332    6.5198   52.1508 C   0  0  2  0  0  0  0  0  0  0  0  0
   30.7650    6.0940   53.4575 O   0  0  0  0  0  0  0  0  0  0  0  0
   30.9152    7.9191   51.8266 C   0  0  1  0  0  0  0  0  0  0  0  0
   32.3049    7.8174   51.6798 O   0  0  0  0  0  0  0  0  0  0  0  0
   30.9451    6.9851   54.5551 C   0  0  1  0  0  0  0  0  0  0  0  0
   29.6434    6.9656   55.4333 C   0  0  2  0  0  0  0  0  0  0  0  0
   28.6557    7.8938   55.0188 O   0  0  0  0  0  0  0  0  0  0  0  0
   30.2817    7.2737   56.7806 C   0  0  2  0  0  0  0  0  0  0  0  0
   30.7836    8.6433   56.8242 O   0  0  0  0  0  0  0  0  0  0  0  0
   31.4851    6.3416   56.8010 C   0  0  2  0  0  0  0  0  0  0  0  0
   31.9753    6.4991   55.4584 O   0  0  0  0  0  0  0  0  0  0  0  0
   31.1594    4.8533   57.1540 C   0  0  0  0  0  0  0  0  0  0  0  0
   30.6042    4.7306   58.4696 O   0  0  0  0  0  0  0  0  0  0  0  0
   30.1744    9.4523   57.8272 C   0  0  2  0  0  0  0  0  0  0  0  0
   28.6590    9.7664   57.5837 C   0  0  2  0  0  0  0  0  0  0  0  0
   28.4106   10.4523   56.2794 N   0  3  0  0  0  0  0  0  0  0  0  0
   28.1716   10.6350   58.7911 C   0  0  1  0  0  0  0  0  0  0  0  0
   28.3011    9.8042   60.0079 O   0  0  0  0  0  0  0  0  0  0  0  0
   29.0298   11.9462   58.9792 C   0  0  2  0  0  0  0  0  0  0  0  0
   28.8558   12.7765   57.8194 O   0  0  0  0  0  0  0  0  0  0  0  0
   30.5439   11.5210   59.1756 C   0  0  1  0  0  0  0  0  0  0  0  0
   30.9363   10.7275   58.0053 O   0  0  0  0  0  0  0  0  0  0  0  0
   31.5239   12.7024   59.3573 C   0  0  0  0  0  0  0  0  0  0  0  0
   31.3619   13.4114   60.6557 N   0  3  0  0  0  0  0  0  0  0  0  0
  1  2  1  6  0  0  0
  1  3  1  0  0  0  0
  1 10  1  0  0  0  0
  3  4  1  6  0  0  0
  3  5  1  0  0  0  0
  5  6  1  1  0  0  0
  5  7  1  0  0  0  0
  7  8  1  6  0  0  0
  7  9  1  0  0  0  0
  9 10  1  0  0  0  0
  9 11  1  1  0  0  0
 11 12  1  0  0  0  0
 13 14  1  1  0  0  0
 13 15  1  0  0  0  0
 13 21  1  0  0  0  0
 15 16  1  0  0  0  0
 16 17  1  1  0  0  0
 16 18  1  0  0  0  0
 18  2  1  6  0  0  0
 18 19  1  0  0  0  0
 19 20  1  1  0  0  0
 19 21  1  0  0  0  0
 21 22  1  6  0  0  0
 23 20  1  6  0  0  0
 23 24  1  0  0  0  0
 23 29  1  0  0  0  0
 24 25  1  6  0  0  0
 24 26  1  0  0  0  0
 26 27  1  6  0  0  0
 26 28  1  0  0  0  0
 28 29  1  0  0  0  0
 28 30  1  6  0  0  0
 30 31  1  0  0  0  0
 32 27  1  6  0  0  0
 32 33  1  0  0  0  0
 32 40  1  0  0  0  0
 33 34  1  6  0  0  0
 33 35  1  0  0  0  0
 35 36  1  1  0  0  0
 35 37  1  0  0  0  0
 37 38  1  6  0  0  0
 37 39  1  0  0  0  0
 39 40  1  0  0  0  0
 39 41  1  6  0  0  0
 41 42  1  0  0  0  0
M  CHG  5   4   1  14   1  17   1  34   1  42   1
M  END
>  <CHROM.1>
-142.17695285,-89.66312225,-49.28494198,58.88452454,175.16108963,62.62381001
172.54434415,153.72743179,-176.16937204,-84.27878536,96.31496454,-53.47445329
74.45327148,118.89757035,-67.39551777,-61.90605142,-61.24303794,178.67910040
-179.37608567,71.24411730,69.76306680,166.12243015,28.98785535,7.18108306
54.62841838,2.55887672,-1.17137369,-1.41731292

>  <Name>
1j7t

>  <RI>
0

>  <Rbt.Current_Directory>
/home/itssahil/PROJECTS/Mol_Feturizer/New_Systems/rnas/1j7t

>  <Rbt.Executable>
rbdock ($Id: //depot/dev/client3/rdock/2013.1/src/exe/rbdock.cxx#4 $)

>  <Rbt.Library>
libRbt.so (2013.1, Build901 2013/11/27)

>  <Rbt.Parameter_File>
/export/apps/rDock/src/rDock_2013.1_src/data/scripts/dock_solv.prm

>  <Rbt.Receptor>
prm/pocket_docking_8.prm

>  <SCORE>
-40.6851

>  <SCORE.INTER>
-31.0227

>  <SCORE.INTER.CONST>
1

>  <SCORE.INTER.POLAR>
-4.74002

>  <SCORE.INTER.ROT>
9

>  <SCORE.INTER.SOLV>
24.9715

>  <SCORE.INTER.VDW>
-22.8055

>  <SCORE.INTER.norm>
-0.738635

>  <SCORE.INTRA>
-9.66239

>  <SCORE.INTRA.DIHEDRAL>
-18.008

>  <SCORE.INTRA.DIHEDRAL.0>
46.2143

>  <SCORE.INTRA.POLAR>
-0.523777

>  <SCORE.INTRA.POLAR.0>
-1.76436

>  <SCORE.INTRA.REPUL>
0

>  <SCORE.INTRA.REPUL.0>
0

>  <SCORE.INTRA.SOLV>
2.92684

>  <SCORE.INTRA.SOLV.lig_0>
-148.643

>  <SCORE.INTRA.VDW>
-0.340992

>  <SCORE.INTRA.VDW.0>
-4.83512

>  <SCORE.INTRA.norm>
-0.230057

>  <SCORE.RESTR>
0

>  <SCORE.RESTR.CAVITY>
0

>  <SCORE.RESTR.norm>
0

>  <SCORE.SYSTEM>
0

>  <SCORE.SYSTEM.CONST>
0

>  <SCORE.SYSTEM.DIHEDRAL>
0

>  <SCORE.SYSTEM.SOLV>
0

>  <SCORE.SYSTEM.norm>
0

>  <SCORE.heavy>
42

>  <SCORE.norm>
-0.968692

>  <RMSD>
6.761

$$$$
1j7t
 OpenBabel11021811393D
libRbt.so/2013.1/901 2013/11/27
 42 45  0  0  0  0  0  0  0  0999 V2000
   30.0021    4.1820   56.9928 C   0  0  2  0  0  0  0  0  0  0  0  0
   29.5220    5.3171   57.7566 O   0  0  0  0  0  0  0  0  0  0  0  0
   31.2993    3.6835   57.6920 C   0  0  2  0  0  0  0  0  0  0  0  0
   31.1478    3.4014   59.1484 N   0  3  0  0  0  0  0  0  0  0  0  0
   32.3808    4.7736   57.5283 C   0  0  1  0  0  0  0  0  0  0  0  0
   33.5809    4.3718   58.1266 O   0  0  0  0  0  0  0  0  0  0  0  0
   32.5971    5.0855   56.0285 C   0  0  2  0  0  0  0  0  0  0  0  0
   33.5999    6.0670   55.8552 O   0  0  0  0  0  0  0  0  0  0  0  0
   31.3050    5.5821   55.4153 C   0  0  2  0  0  0  0  0  0  0  0  0
   30.2834    4.6155   55.6250 O   0  0  0  0  0  0  0  0  0  0  0  0
   31.4024    5.7982   53.9217 C   0  0  0  0  0  0  0  0  0  0  0  0
   31.5943    4.5538   53.2770 O   0  0  0  0  0  0  0  0  0  0  0  0
   27.0004    7.0576   54.8478 C   0  0  2  0  0  0  0  0  0  0  0  0
   25.9386    7.8540   54.2316 N   0  3  0  0  0  0  0  0  0  0  0  0
   26.3777    5.9828   55.7995 C   0  0  0  0  0  0  0  0  0  0  0  0
   27.4940    5.1742   56.4877 C   0  0  2  0  0  0  0  0  0  0  0  0
   26.9291    4.1974   57.4247 N   0  3  0  0  0  0  0  0  0  0  0  0
   28.4497    6.1171   57.2449 C   0  0  2  0  0  0  0  0  0  0  0  0
   29.0571    7.2041   56.3369 C   0  0  2  0  0  0  0  0  0  0  0  0
   29.7901    8.0869   57.2080 O   0  0  0  0  0  0  0  0  0  0  0  0
   27.9351    7.9856   55.6073 C   0  0  1  0  0  0  0  0  0  0  0  0
   28.5140    8.8972   54.7147 O   0  0  0  0  0  0  0  0  0  0  0  0
   29.3831    8.3948   58.5386 C   0  0  1  0  0  0  0  0  0  0  0  0
   30.6310    8.2719   59.4839 C   0  0  2  0  0  0  0  0  0  0  0  0
   30.8390    6.9666   59.9956 O   0  0  0  0  0  0  0  0  0  0  0  0
   30.2228    9.3062   60.5236 C   0  0  2  0  0  0  0  0  0  0  0  0
   29.0754    8.8473   61.3000 O   0  0  0  0  0  0  0  0  0  0  0  0
   29.7607   10.4766   59.6671 C   0  0  2  0  0  0  0  0  0  0  0  0
   28.9997    9.7921   58.6570 O   0  0  0  0  0  0  0  0  0  0  0  0
   30.9120   11.3490   59.0677 C   0  0  0  0  0  0  0  0  0  0  0  0
   30.5706   11.8583   57.7723 O   0  0  0  0  0  0  0  0  0  0  0  0
   28.5076    9.8476   62.1417 C   0  0  2  0  0  0  0  0  0  0  0  0
   28.4755    9.4809   63.6644 C   0  0  2  0  0  0  0  0  0  0  0  0
   27.7245    8.2190   63.9420 N   0  3  0  0  0  0  0  0  0  0  0  0
   27.8461   10.7008   64.4163 C   0  0  1  0  0  0  0  0  0  0  0  0
   28.7531   11.8521   64.2177 O   0  0  0  0  0  0  0  0  0  0  0  0
   26.4170   11.0806   63.8640 C   0  0  2  0  0  0  0  0  0  0  0  0
   25.5250    9.9813   64.1104 O   0  0  0  0  0  0  0  0  0  0  0  0
   26.5529   11.3915   62.3158 C   0  0  1  0  0  0  0  0  0  0  0  0
   27.1317   10.2049   61.6752 O   0  0  0  0  0  0  0  0  0  0  0  0
   25.2258   11.7663   61.6177 C   0  0  0  0  0  0  0  0  0  0  0  0
   25.4008   12.1877   60.2012 N   0  3  0  0  0  0  0  0  0  0  0  0
  1  2  1  1  0  0  0
  1  3  1  0  0  0  0
  1 10  1  0  0  0  0
  3  4  1  1  0  0  0
  3  5  1  0  0  0  0
  5  6  1  6  0  0  0
  5  7  1  0  0  0  0
  7  8  1  1  0  0  0
  7  9  1  0  0  0  0
  9 10  1  0  0  0  0
  9 11  1  6  0  0  0
 11 12  1  0  0  0  0
 13 14  1  1  0  0  0
 13 15  1  0  0  0  0
 13 21  1  0  0  0  0
 15 16  1  0  0  0  0
 16 17  1  1  0  0  0
 16 18  1  0  0  0  0
 18  2  1  6  0  0  0
 18 19  1  0  0  0  0
 19 20  1  1  0  0  0
 19 21  1  0  0  0  0
 21 22  1  6  0  0  0
 23 20  1  6  0  0  0
 23 24  1  0  0  0  0
 23 29  1  0  0  0  0
 24 25  1  1  0  0  0
 24 26  1  0  0  0  0
 26 27  1  1  0  0  0
 26 28  1  0  0  0  0
 28 29  1  0  0  0  0
 28 30  1  6  0  0  0
 30 31  1  0  0  0  0
 32 27  1  6  0  0  0
 32 33  1  0  0  0  0
 32 40  1  0  0  0  0
 33 34  1  6  0  0  0
 33 35  1  0  0  0  0
 35 36  1  6  0  0  0
 35 37  1  0  0  0  0
 37 38  1  6  0  0  0
 37 39  1  0  0  0  0
 39 40  1  0  0  0  0
 39 41  1  6  0  0  0
 41 42  1  0  0  0  0
M  CHG  5   4   1  14   1  17   1  34   1  42   1
M  END
>  <CHROM.1>
170.71982096,34.76408843,67.00295719,56.17546313,59.25137081,66.17799571
-70.27768223,-64.88270339,-61.27865505,-34.21716961,133.55482049,-59.96396868
45.85462758,-170.47209818,-121.75663229,145.98320164,-30.44429267,43.02372961
61.14013720,71.36363005,174.10185308,175.52574678,29.14957899,7.80062895
58.67031482,-1.10943999,-0.65202383,1.18721942

>  <Name>
1j7t

>  <RI>
224

>  <Rbt.Current_Directory>
/home/itssahil/PROJECTS/Mol_Feturizer/New_Systems/rnas/1j7t

>  <Rbt.Executable>
rbdock ($Id: //depot/dev/client3/rdock/2013.1/src/exe/rbdock.cxx#4 $)

>  <Rbt.Library>
libRbt.so (2013.1, Build901 2013/11/27)

>  <Rbt.Parameter_File>
/export/apps/rDock/src/rDock_2013.1_src/data/scripts/dock_solv.prm

>  <Rbt.Receptor>
prm/pocket_docking_7.prm

>  <SCORE>
-40.6332

>  <SCORE.INTER>
-31.8857

>  <SCORE.INTER.CONST>
1

>  <SCORE.INTER.POLAR>
-6.28747

>  <SCORE.INTER.ROT>
9

>  <SCORE.INTER.SOLV>
19.8018

>  <SCORE.INTER.VDW>
-16.4995

>  <SCORE.INTER.norm>
-0.759182

>  <SCORE.INTRA>
-8.86523

>  <SCORE.INTRA.DIHEDRAL>
-16.0529

>  <SCORE.INTRA.DIHEDRAL.0>
46.2143

>  <SCORE.INTRA.POLAR>
-0.0378692

>  <SCORE.INTRA.POLAR.0>
-1.76436

>  <SCORE.INTRA.REPUL>
0.0174695

>  <SCORE.INTRA.REPUL.0>
0

>  <SCORE.INTRA.SOLV>
-4.39094

>  <SCORE.INTRA.SOLV.lig_0>
-148.643

>  <SCORE.INTRA.VDW>
1.39809

>  <SCORE.INTRA.VDW.0>
-4.83512

>  <SCORE.INTRA.norm>
-0.211077

>  <SCORE.RESTR>
0.117736

>  <SCORE.RESTR.CAVITY>
0.117736

>  <SCORE.RESTR.norm>
0.00280323

>  <SCORE.SYSTEM>
0

>  <SCORE.SYSTEM.CONST>
0

>  <SCORE.SYSTEM.DIHEDRAL>
0

>  <SCORE.SYSTEM.SOLV>
0

>  <SCORE.SYSTEM.norm>
0

>  <SCORE.heavy>
42

>  <SCORE.norm>
-0.967456

>  <RMSD>
6.810

$$$$
1j7t
 OpenBabel11021811393D
libRbt.so/2013.1/901 2013/11/27
 42 45  0  0  0  0  0  0  0  0999 V2000
   30.1485    2.7644   54.8479 C   0  0  2  0  0  0  0  0  0  0  0  0
   30.9260    2.5873   56.0590 O   0  0  0  0  0  0  0  0  0  0  0  0
   29.8522    1.3430   54.2896 C   0  0  2  0  0  0  0  0  0  0  0  0
   29.2246    0.4115   55.2705 N   0  3  0  0  0  0  0  0  0  0  0  0
   31.1889    0.7206   53.8303 C   0  0  1  0  0  0  0  0  0  0  0  0
   30.9814   -0.5587   53.3012 O   0  0  0  0  0  0  0  0  0  0  0  0
   31.8706    1.6379   52.7875 C   0  0  2  0  0  0  0  0  0  0  0  0
   33.0872    1.0755   52.3374 O   0  0  0  0  0  0  0  0  0  0  0  0
   32.1473    2.9947   53.3994 C   0  0  2  0  0  0  0  0  0  0  0  0
   30.9319    3.5450   53.8914 O   0  0  0  0  0  0  0  0  0  0  0  0
   32.7074    3.9892   52.4073 C   0  0  0  0  0  0  0  0  0  0  0  0
   32.9891    5.2075   53.0690 O   0  0  0  0  0  0  0  0  0  0  0  0
   31.3402    4.6569   59.7186 C   0  0  2  0  0  0  0  0  0  0  0  0
   31.5489    5.7358   60.6850 N   0  3  0  0  0  0  0  0  0  0  0  0
   32.6214    4.4724   58.8395 C   0  0  0  0  0  0  0  0  0  0  0  0
   32.3885    3.3703   57.7884 C   0  0  2  0  0  0  0  0  0  0  0  0
   33.5610    3.2209   56.9202 N   0  3  0  0  0  0  0  0  0  0  0  0
   31.1533    3.7026   56.9284 C   0  0  2  0  0  0  0  0  0  0  0  0
   29.8810    3.9170   57.7713 C   0  0  2  0  0  0  0  0  0  0  0  0
   28.8664    4.3682   56.8534 O   0  0  0  0  0  0  0  0  0  0  0  0
   30.1307    4.9913   58.8601 C   0  0  1  0  0  0  0  0  0  0  0  0
   28.9951    5.0948   59.6742 O   0  0  0  0  0  0  0  0  0  0  0  0
   27.6467    3.6679   56.6235 C   0  0  1  0  0  0  0  0  0  0  0  0
   26.7930    3.7052   57.9410 C   0  0  2  0  0  0  0  0  0  0  0  0
   27.0735    2.6447   58.8386 O   0  0  0  0  0  0  0  0  0  0  0  0
   25.4092    3.6556   57.3087 C   0  0  2  0  0  0  0  0  0  0  0  0
   25.1572    2.3556   56.6954 O   0  0  0  0  0  0  0  0  0  0  0  0
   25.5170    4.6802   56.1881 C   0  0  2  0  0  0  0  0  0  0  0  0
   26.8166    4.3687   55.6574 O   0  0  0  0  0  0  0  0  0  0  0  0
   25.3929    6.1709   56.6446 C   0  0  0  0  0  0  0  0  0  0  0  0
   25.6096    7.0775   55.5560 O   0  0  0  0  0  0  0  0  0  0  0  0
   23.8655    2.2335   56.1055 C   0  0  2  0  0  0  0  0  0  0  0  0
   22.6713    2.3740   57.1097 C   0  0  2  0  0  0  0  0  0  0  0  0
   22.7251    1.3745   58.2193 N   0  3  0  0  0  0  0  0  0  0  0  0
   21.3535    2.2364   56.2765 C   0  0  1  0  0  0  0  0  0  0  0  0
   21.3176    3.3682   55.3250 O   0  0  0  0  0  0  0  0  0  0  0  0
   21.2912    0.8866   55.4608 C   0  0  2  0  0  0  0  0  0  0  0  0
   21.2686   -0.2086   56.3907 O   0  0  0  0  0  0  0  0  0  0  0  0
   22.5585    0.8250   54.5110 C   0  0  1  0  0  0  0  0  0  0  0  0
   23.7518    0.9432   55.3568 O   0  0  0  0  0  0  0  0  0  0  0  0
   22.6538   -0.4553   53.6503 C   0  0  0  0  0  0  0  0  0  0  0  0
   21.4994   -0.6362   52.7288 N   0  3  0  0  0  0  0  0  0  0  0  0
  1  2  1  1  0  0  0
  1  3  1  0  0  0  0
  1 10  1  0  0  0  0
  3  4  1  1  0  0  0
  3  5  1  0  0  0  0
  5  6  1  6  0  0  0
  5  7  1  0  0  0  0
  7  8  1  1  0  0  0
  7  9  1  0  0  0  0
  9 10  1  0  0  0  0
  9 11  1  6  0  0  0
 11 12  1  0  0  0  0
 13 14  1  1  0  0  0
 13 15  1  0  0  0  0
 13 21  1  0  0  0  0
 15 16  1  0  0  0  0
 16 17  1  6  0  0  0
 16 18  1  0  0  0  0
 18  2  1  6  0  0  0
 18 19  1  0  0  0  0
 19 20  1  6  0  0  0
 19 21  1  0  0  0  0
 21 22  1  1  0  0  0
 23 20  1  1  0  0  0
 23 24  1  0  0  0  0
 23 29  1  0  0  0  0
 24 25  1  1  0  0  0
 24 26  1  0  0  0  0
 26 27  1  6  0  0  0
 26 28  1  0  0  0  0
 28 29  1  0  0  0  0
 28 30  1  1  0  0  0
 30 31  1  0  0  0  0
 32 27  1  1  0  0  0
 32 33  1  0  0  0  0
 32 40  1  0  0  0  0
 33 34  1  1  0  0  0
 33 35  1  0  0  0  0
 35 36  1  6  0  0  0
 35 37  1  0  0  0  0
 37 38  1  1  0  0  0
 37 39  1  0  0  0  0
 39 40  1  0  0  0  0
 39 41  1  1  0  0  0
 41 42  1  0  0  0  0
M  CHG  5   4   1  14   1  17   1  34   1  42   1
M  END
>  <CHROM.1>
-169.06957063,-159.11905369,-87.49619924,176.49228609,174.44701330,-177.56449612
174.71076194,66.44711805,-67.37337778,119.72438649,66.13914939,174.12611461
-62.47916594,178.87740021,-62.15512942,175.38071718,-179.86928689,54.48242589
-72.74495691,71.54432502,60.61519576,-67.12176492,27.77650311,2.85784074
55.99256106,-0.11932290,-0.15279378,-2.20098937

>  <Name>
1j7t

>  <RI>
0

>  <Rbt.Current_Directory>
/home/itssahil/PROJECTS/Mol_Feturizer/New_Systems/rnas/1j7t

>  <Rbt.Executable>
rbdock ($Id: //depot/dev/client3/rdock/2013.1/src/exe/rbdock.cxx#4 $)

>  <Rbt.Library>
libRbt.so (2013.1, Build901 2013/11/27)

>  <Rbt.Parameter_File>
/export/apps/rDock/src/rDock_2013.1_src/data/scripts/dock_solv.prm

>  <Rbt.Receptor>
prm/pocket_docking_8.prm

>  <SCORE>
-32.1452

>  <SCORE.INTER>
-16.5058

>  <SCORE.INTER.CONST>
1

>  <SCORE.INTER.POLAR>
-3.99173

>  <SCORE.INTER.ROT>
9

>  <SCORE.INTER.SOLV>
12.9628

>  <SCORE.INTER.VDW>
-11.619

>  <SCORE.INTER.norm>
-0.392995

>  <SCORE.INTRA>
-15.6394

>  <SCORE.INTRA.DIHEDRAL>
-31.4524

>  <SCORE.INTRA.DIHEDRAL.0>
46.2143

>  <SCORE.INTRA.POLAR>
1.20317

>  <SCORE.INTRA.POLAR.0>
-1.76436

>  <SCORE.INTRA.REPUL>
0

>  <SCORE.INTRA.REPUL.0>
0

>  <SCORE.INTRA.SOLV>
-4.97018

>  <SCORE.INTRA.SOLV.lig_0>
-148.643

>  <SCORE.INTRA.VDW>
-1.51889

>  <SCORE.INTRA.VDW.0>
-4.83512

>  <SCORE.INTRA.norm>
-0.372367

>  <SCORE.RESTR>
0

>  <SCORE.RESTR.CAVITY>
0

>  <SCORE.RESTR.norm>
0

>  <SCORE.SYSTEM>
0

>  <SCORE.SYSTEM.CONST>
0

>  <SCORE.SYSTEM.DIHEDRAL>
0

>  <SCORE.SYSTEM.SOLV>
0

>  <SCORE.SYSTEM.norm>
0

>  <SCORE.heavy>
42

>  <SCORE.norm>
-0.765362

>  <RMSD>
6.825

$$$$
1j7t
 OpenBabel11021811393D
libRbt.so/2013.1/901 2013/11/27
 42 45  0  0  0  0  0  0  0  0999 V2000
   32.8865    3.8078   56.0284 C   0  0  2  0  0  0  0  0  0  0  0  0
   33.1600    4.2896   54.6884 O   0  0  0  0  0  0  0  0  0  0  0  0
   33.9764    2.7479   56.3584 C   0  0  2  0  0  0  0  0  0  0  0  0
   35.3775    3.2220   56.1694 N   0  3  0  0  0  0  0  0  0  0  0  0
   33.7568    1.5311   55.4332 C   0  0  1  0  0  0  0  0  0  0  0  0
   34.7028    0.5336   55.6970 O   0  0  0  0  0  0  0  0  0  0  0  0
   32.3214    0.9818   55.6108 C   0  0  2  0  0  0  0  0  0  0  0  0
   32.1061   -0.1473   54.7874 O   0  0  0  0  0  0  0  0  0  0  0  0
   31.3132    2.0542   55.2564 C   0  0  2  0  0  0  0  0  0  0  0  0
   31.5537    3.2070   56.0534 O   0  0  0  0  0  0  0  0  0  0  0  0
   29.8842    1.6333   55.5165 C   0  0  0  0  0  0  0  0  0  0  0  0
   29.7444    1.2514   56.8714 O   0  0  0  0  0  0  0  0  0  0  0  0
   31.4384    7.0782   52.0223 C   0  0  2  0  0  0  0  0  0  0  0  0
   30.4498    7.8086   51.2283 N   0  3  0  0  0  0  0  0  0  0  0  0
   31.4753    5.5777   51.5800 C   0  0  0  0  0  0  0  0  0  0  0  0
   32.4798    4.7945   52.4466 C   0  0  2  0  0  0  0  0  0  0  0  0
   32.4881    3.3741   52.0813 N   0  3  0  0  0  0  0  0  0  0  0  0
   32.1249    4.9374   53.9397 C   0  0  2  0  0  0  0  0  0  0  0  0
   32.0544    6.4074   54.3970 C   0  0  2  0  0  0  0  0  0  0  0  0
   31.5652    6.3801   55.7518 O   0  0  0  0  0  0  0  0  0  0  0  0
   31.0804    7.2064   53.4944 C   0  0  1  0  0  0  0  0  0  0  0  0
   31.1108    8.5570   53.8659 O   0  0  0  0  0  0  0  0  0  0  0  0
   30.5911    7.2909   56.2544 C   0  0  1  0  0  0  0  0  0  0  0  0
   29.4467    6.4674   56.9459 C   0  0  2  0  0  0  0  0  0  0  0  0
   28.4141    6.0636   56.0629 O   0  0  0  0  0  0  0  0  0  0  0  0
   29.0295    7.4988   57.9848 C   0  0  2  0  0  0  0  0  0  0  0  0
   28.3841    8.6471   57.3565 O   0  0  0  0  0  0  0  0  0  0  0  0
   30.3651    7.9699   58.5430 C   0  0  2  0  0  0  0  0  0  0  0  0
   31.1368    8.0943   57.3361 O   0  0  0  0  0  0  0  0  0  0  0  0
   31.0219    7.0036   59.5826 C   0  0  0  0  0  0  0  0  0  0  0  0
   30.3327    7.0300   60.8388 O   0  0  0  0  0  0  0  0  0  0  0  0
   27.6358    9.4573   58.2594 C   0  0  2  0  0  0  0  0  0  0  0  0
   26.9033   10.6724   57.5953 C   0  0  2  0  0  0  0  0  0  0  0  0
   27.8375   11.5919   56.8776 N   0  3  0  0  0  0  0  0  0  0  0  0
   26.1264   11.4162   58.7324 C   0  0  1  0  0  0  0  0  0  0  0  0
   25.1151   10.4743   59.2594 O   0  0  0  0  0  0  0  0  0  0  0  0
   27.0687   11.8629   59.9173 C   0  0  2  0  0  0  0  0  0  0  0  0
   28.0136   12.8210   59.4133 O   0  0  0  0  0  0  0  0  0  0  0  0
   27.7891   10.5718   60.4885 C   0  0  1  0  0  0  0  0  0  0  0  0
   28.5069    9.9371   59.3771 O   0  0  0  0  0  0  0  0  0  0  0  0
   28.7677   10.8453   61.6532 C   0  0  0  0  0  0  0  0  0  0  0  0
   29.3636    9.6088   62.2281 N   0  3  0  0  0  0  0  0  0  0  0  0
  1  2  1  6  0  0  0
  1  3  1  0  0  0  0
  1 10  1  0  0  0  0
  3  4  1  6  0  0  0
  3  5  1  0  0  0  0
  5  6  1  1  0  0  0
  5  7  1  0  0  0  0
  7  8  1  6  0  0  0
  7  9  1  0  0  0  0
  9 10  1  0  0  0  0
  9 11  1  1  0  0  0
 11 12  1  0  0  0  0
 13 14  1  6  0  0  0
 13 15  1  0  0  0  0
 13 21  1  0  0  0  0
 15 16  1  0  0  0  0
 16 17  1  6  0  0  0
 16 18  1  0  0  0  0
 18  2  1  1  0  0  0
 18 19  1  0  0  0  0
 19 20  1  1  0  0  0
 19 21  1  0  0  0  0
 21 22  1  1  0  0  0
 23 20  1  1  0  0  0
 23 24  1  0  0  0  0
 23 29  1  0  0  0  0
 24 25  1  6  0  0  0
 24 26  1  0  0  0  0
 26 27  1  6  0  0  0
 26 28  1  0  0  0  0
 28 29  1  0  0  0  0
 28 30  1  1  0  0  0
 30 31  1  0  0  0  0
 32 27  1  6  0  0  0
 32 33  1  0  0  0  0
 32 40  1  0  0  0  0
 33 34  1  1  0  0  0
 33 35  1  0  0  0  0
 35 36  1  1  0  0  0
 35 37  1  0  0  0  0
 37 38  1  6  0  0  0
 37 39  1  0  0  0  0
 39 40  1  0  0  0  0
 39 41  1  1  0  0  0
 41 42  1  0  0  0  0
M  CHG  5   4   1  14   1  17   1  34   1  42   1
M  END
>  <CHROM.1>
160.14303673,-156.51258398,-57.68604520,179.74315756,-51.01076938,56.38065498
-67.98218903,-47.98867939,179.58145609,-137.71623593,128.84775959,62.99256381
56.63371008,162.96332864,-178.38259025,-72.73053375,-179.53891338,61.13389820
-66.16933948,176.42461868,176.29477544,-80.70851295,30.45494352,6.47813691
56.53248590,-0.21221463,-1.07579201,1.86852796

>  <Name>
1j7t

>  <RI>
224

>  <Rbt.Current_Directory>
/home/itssahil/PROJECTS/Mol_Feturizer/New_Systems/rnas/1j7t

>  <Rbt.Executable>
rbdock ($Id: //depot/dev/client3/rdock/2013.1/src/exe/rbdock.cxx#4 $)

>  <Rbt.Library>
libRbt.so (2013.1, Build901 2013/11/27)

>  <Rbt.Parameter_File>
/export/apps/rDock/src/rDock_2013.1_src/data/scripts/dock_solv.prm

>  <Rbt.Receptor>
prm/pocket_docking_7.prm

>  <SCORE>
-36.038

>  <SCORE.INTER>
-22.0867

>  <SCORE.INTER.CONST>
1

>  <SCORE.INTER.POLAR>
-4.50001

>  <SCORE.INTER.ROT>
9

>  <SCORE.INTER.SOLV>
21.3035

>  <SCORE.INTER.VDW>
-16.4256

>  <SCORE.INTER.norm>
-0.525874

>  <SCORE.INTRA>
-13.9517

>  <SCORE.INTRA.DIHEDRAL>
-24.652

>  <SCORE.INTRA.DIHEDRAL.0>
46.2143

>  <SCORE.INTRA.POLAR>
0.0894897

>  <SCORE.INTRA.POLAR.0>
-1.76436

>  <SCORE.INTRA.REPUL>
0.0213757

>  <SCORE.INTRA.REPUL.0>
0

>  <SCORE.INTRA.SOLV>
-2.36434

>  <SCORE.INTRA.SOLV.lig_0>
-148.643

>  <SCORE.INTRA.VDW>
-0.854673

>  <SCORE.INTRA.VDW.0>
-4.83512

>  <SCORE.INTRA.norm>
-0.332183

>  <SCORE.RESTR>
0.00043615

>  <SCORE.RESTR.CAVITY>
0.00043615

>  <SCORE.RESTR.norm>
1.03845e-05

>  <SCORE.SYSTEM>
0

>  <SCORE.SYSTEM.CONST>
0

>  <SCORE.SYSTEM.DIHEDRAL>
0

>  <SCORE.SYSTEM.SOLV>
0

>  <SCORE.SYSTEM.norm>
0

>  <SCORE.heavy>
42

>  <SCORE.norm>
-0.858047

>  <RMSD>
6.877

$$$$
1j7t
 OpenBabel11021811393D
libRbt.so/2013.1/901 2013/11/27
 42 45  0  0  0  0  0  0  0  0999 V2000
   27.3267    6.9527   58.0748 C   0  0  2  0  0  0  0  0  0  0  0  0
   28.7599    6.7774   57.9410 O   0  0  0  0  0  0  0  0  0  0  0  0
   26.8404    7.6896   56.7941 C   0  0  2  0  0  0  0  0  0  0  0  0
   27.2448    7.0390   55.5148 N   0  3  0  0  0  0  0  0  0  0  0  0
   27.4303    9.1168   56.8095 C   0  0  1  0  0  0  0  0  0  0  0  0
   27.0116    9.8359   55.6839 O   0  0  0  0  0  0  0  0  0  0  0  0
   27.0162    9.8479   58.1086 C   0  0  2  0  0  0  0  0  0  0  0  0
   27.5288   11.1654   58.1331 O   0  0  0  0  0  0  0  0  0  0  0  0
   27.5356    9.0907   59.3123 C   0  0  2  0  0  0  0  0  0  0  0  0
   27.0563    7.7527   59.2685 O   0  0  0  0  0  0  0  0  0  0  0  0
   27.0728    9.6780   60.6268 C   0  0  0  0  0  0  0  0  0  0  0  0
   27.7442    9.0347   61.6929 O   0  0  0  0  0  0  0  0  0  0  0  0
   31.1371    3.2943   58.1951 C   0  0  2  0  0  0  0  0  0  0  0  0
   31.8213    2.1196   58.7367 N   0  3  0  0  0  0  0  0  0  0  0  0
   31.6717    4.5907   58.8892 C   0  0  0  0  0  0  0  0  0  0  0  0
   30.9194    5.8254   58.3569 C   0  0  2  0  0  0  0  0  0  0  0  0
   31.3707    7.0445   59.0360 N   0  3  0  0  0  0  0  0  0  0  0  0
   29.4011    5.6571   58.5616 C   0  0  2  0  0  0  0  0  0  0  0  0
   28.8512    4.3726   57.9112 C   0  0  2  0  0  0  0  0  0  0  0  0
   27.4726    4.2785   58.3187 O   0  0  0  0  0  0  0  0  0  0  0  0
   29.6403    3.1356   58.4102 C   0  0  1  0  0  0  0  0  0  0  0  0
   29.1896    1.9966   57.7302 O   0  0  0  0  0  0  0  0  0  0  0  0
   27.0564    3.7150   59.5599 C   0  0  1  0  0  0  0  0  0  0  0  0
   25.5584    4.1132   59.8120 C   0  0  2  0  0  0  0  0  0  0  0  0
   25.3971    5.3540   60.4778 O   0  0  0  0  0  0  0  0  0  0  0  0
   25.1403    2.8954   60.6241 C   0  0  2  0  0  0  0  0  0  0  0  0
   25.7869    2.8881   61.9324 O   0  0  0  0  0  0  0  0  0  0  0  0
   25.7194    1.7413   59.8179 C   0  0  2  0  0  0  0  0  0  0  0  0
   27.0177    2.2636   59.4873 O   0  0  0  0  0  0  0  0  0  0  0  0
   24.8906    1.3397   58.5540 C   0  0  0  0  0  0  0  0  0  0  0  0
   23.5301    1.0367   58.8875 O   0  0  0  0  0  0  0  0  0  0  0  0
   25.7092    4.1317   62.6244 C   0  0  2  0  0  0  0  0  0  0  0  0
   27.0130    4.5354   63.3935 C   0  0  2  0  0  0  0  0  0  0  0  0
   27.4310    3.5157   64.4029 N   0  3  0  0  0  0  0  0  0  0  0  0
   26.7398    5.9249   64.0603 C   0  0  1  0  0  0  0  0  0  0  0  0
   26.5051    6.8951   62.9688 O   0  0  0  0  0  0  0  0  0  0  0  0
   25.4734    5.9059   65.0022 C   0  0  2  0  0  0  0  0  0  0  0  0
   25.7282    5.0050   66.0923 O   0  0  0  0  0  0  0  0  0  0  0  0
   24.2245    5.4474   64.1407 C   0  0  1  0  0  0  0  0  0  0  0  0
   24.5431    4.1372   63.5617 O   0  0  0  0  0  0  0  0  0  0  0  0
   22.8980    5.3607   64.9293 C   0  0  0  0  0  0  0  0  0  0  0  0
   21.7526    4.8802   64.1096 N   0  3  0  0  0  0  0  0  0  0  0  0
  1  2  1  6  0  0  0
  1  3  1  0  0  0  0
  1 10  1  0  0  0  0
  3  4  1  6  0  0  0
  3  5  1  0  0  0  0
  5  6  1  6  0  0  0
  5  7  1  0  0  0  0
  7  8  1  6  0  0  0
  7  9  1  0  0  0  0
  9 10  1  0  0  0  0
  9 11  1  1  0  0  0
 11 12  1  0  0  0  0
 13 14  1  1  0  0  0
 13 15  1  0  0  0  0
 13 21  1  0  0  0  0
 15 16  1  0  0  0  0
 16 17  1  1  0  0  0
 16 18  1  0  0  0  0
 18  2  1  6  0  0  0
 18 19  1  0  0  0  0
 19 20  1  1  0  0  0
 19 21  1  0  0  0  0
 21 22  1  6  0  0  0
 23 20  1  6  0  0  0
 23 24  1  0  0  0  0
 23 29  1  0  0  0  0
 24 25  1  1  0  0  0
 24 26  1  0  0  0  0
 26 27  1  1  0  0  0
 26 28  1  0  0  0  0
 28 29  1  0  0  0  0
 28 30  1  6  0  0  0
 30 31  1  0  0  0  0
 32 27  1  1  0  0  0
 32 33  1  0  0  0  0
 32 40  1  0  0  0  0
 33 34  1  1  0  0  0
 33 35  1  0  0  0  0
 35 36  1  6  0  0  0
 35 37  1  0  0  0  0
 37 38  1  1  0  0  0
 37 39  1  0  0  0  0
 39 40  1  0  0  0  0
 39 41  1  1  0  0  0
 41 42  1  0  0  0  0
M  CHG  5   4   1  14   1  17   1  34   1  42   1
M  END
>  <CHROM.1>
-150.53625952,-174.56256281,-44.31626379,-161.10275450,79.38718992,-171.94500010
-76.41893026,94.81036826,-67.77249646,-83.81344612,165.67590511,-60.04574728
57.63460916,47.95428156,-140.19100149,-55.32381257,-175.50631968,-70.96315539
46.73928790,-177.28942109,-177.87599370,61.05484318,27.08466656,5.41927981
60.16215144,0.48759084,0.93752439,-0.14539780

>  <Name>
1j7t

>  <RI>
224

>  <Rbt.Current_Directory>
/home/itssahil/PROJECTS/Mol_Feturizer/New_Systems/rnas/1j7t

>  <Rbt.Executable>
rbdock ($Id: //depot/dev/client3/rdock/2013.1/src/exe/rbdock.cxx#4 $)

>  <Rbt.Library>
libRbt.so (2013.1, Build901 2013/11/27)

>  <Rbt.Parameter_File>
/export/apps/rDock/src/rDock_2013.1_src/data/scripts/dock_solv.prm

>  <Rbt.Receptor>
prm/pocket_docking_7.prm

>  <SCORE>
-49.6309

>  <SCORE.INTER>
-31.5193

>  <SCORE.INTER.CONST>
1

>  <SCORE.INTER.POLAR>
-6.12634

>  <SCORE.INTER.ROT>
9

>  <SCORE.INTER.SOLV>
20.9695

>  <SCORE.INTER.VDW>
-17.1816

>  <SCORE.INTER.norm>
-0.75046

>  <SCORE.INTRA>
-18.1116

>  <SCORE.INTRA.DIHEDRAL>
-23.3697

>  <SCORE.INTRA.DIHEDRAL.0>
46.2143

>  <SCORE.INTRA.POLAR>
-1.96666

>  <SCORE.INTRA.POLAR.0>
-1.76436

>  <SCORE.INTRA.REPUL>
0.014229

>  <SCORE.INTRA.REPUL.0>
0

>  <SCORE.INTRA.SOLV>
-4.58386

>  <SCORE.INTRA.SOLV.lig_0>
-148.643

>  <SCORE.INTRA.VDW>
2.48068

>  <SCORE.INTRA.VDW.0>
-4.83512

>  <SCORE.INTRA.norm>
-0.431229

>  <SCORE.RESTR>
0

>  <SCORE.RESTR.CAVITY>
0

>  <SCORE.RESTR.norm>
0

>  <SCORE.SYSTEM>
0

>  <SCORE.SYSTEM.CONST>
0

>  <SCORE.SYSTEM.DIHEDRAL>
0

>  <SCORE.SYSTEM.SOLV>
0

>  <SCORE.SYSTEM.norm>
0

>  <SCORE.heavy>
42

>  <SCORE.norm>
-1.18169

>  <RMSD>
6.900

$$$$
1j7t
 OpenBabel11021811393D
libRbt.so/2013.1/901 2013/11/27
 42 45  0  0  0  0  0  0  0  0999 V2000
   30.3139    9.8311   58.5243 C   0  0  2  0  0  0  0  0  0  0  0  0
   30.0791    8.8466   59.5627 O   0  0  0  0  0  0  0  0  0  0  0  0
   30.3067   11.2254   59.2141 C   0  0  2  0  0  0  0  0  0  0  0  0
   31.2373   11.3471   60.3728 N   0  3  0  0  0  0  0  0  0  0  0  0
   28.8748   11.5007   59.7227 C   0  0  1  0  0  0  0  0  0  0  0  0
   28.8034   12.7545   60.3411 O   0  0  0  0  0  0  0  0  0  0  0  0
   27.8693   11.4132   58.5501 C   0  0  2  0  0  0  0  0  0  0  0  0
   26.5533   11.6835   58.9907 O   0  0  0  0  0  0  0  0  0  0  0  0
   27.9133   10.0294   57.9376 C   0  0  2  0  0  0  0  0  0  0  0  0
   29.2445    9.7374   57.5316 O   0  0  0  0  0  0  0  0  0  0  0  0
   27.0426    9.8974   56.7082 C   0  0  0  0  0  0  0  0  0  0  0  0
   27.1674    8.5909   56.1802 O   0  0  0  0  0  0  0  0  0  0  0  0
   31.2800    4.7963   59.5956 C   0  0  2  0  0  0  0  0  0  0  0  0
   31.3297    3.3629   59.3052 N   0  3  0  0  0  0  0  0  0  0  0  0
   29.9186    5.1558   60.2782 C   0  0  0  0  0  0  0  0  0  0  0  0
   29.8420    6.6719   60.5412 C   0  0  2  0  0  0  0  0  0  0  0  0
   28.5495    7.0344   61.1322 N   0  3  0  0  0  0  0  0  0  0  0  0
   30.0426    7.4543   59.2285 C   0  0  2  0  0  0  0  0  0  0  0  0
   31.3643    7.0994   58.5197 C   0  0  2  0  0  0  0  0  0  0  0  0
   31.3320    7.7821   57.2515 O   0  0  0  0  0  0  0  0  0  0  0  0
   31.4629    5.5686   58.2987 C   0  0  1  0  0  0  0  0  0  0  0  0
   32.7135    5.2625   57.7461 O   0  0  0  0  0  0  0  0  0  0  0  0
   30.4496    7.4275   56.1900 C   0  0  1  0  0  0  0  0  0  0  0  0
   30.8237    8.2781   54.9241 C   0  0  2  0  0  0  0  0  0  0  0  0
   30.1723    9.5354   54.8626 O   0  0  0  0  0  0  0  0  0  0  0  0
   30.3921    7.2841   53.8550 C   0  0  2  0  0  0  0  0  0  0  0  0
   28.9408    7.1335   53.8317 O   0  0  0  0  0  0  0  0  0  0  0  0
   30.9828    5.9745   54.3585 C   0  0  2  0  0  0  0  0  0  0  0  0
   30.6741    6.0569   55.7605 O   0  0  0  0  0  0  0  0  0  0  0  0
   32.5124    5.7945   54.0869 C   0  0  0  0  0  0  0  0  0  0  0  0
   32.8155    5.8814   52.6888 O   0  0  0  0  0  0  0  0  0  0  0  0
   28.4818    6.0667   53.0054 C   0  0  2  0  0  0  0  0  0  0  0  0
   28.6657    6.3039   51.4678 C   0  0  2  0  0  0  0  0  0  0  0  0
   27.9769    7.5390   50.9845 N   0  3  0  0  0  0  0  0  0  0  0  0
   28.1304    5.0259   50.7399 C   0  0  1  0  0  0  0  0  0  0  0  0
   28.9860    3.8941   51.1577 O   0  0  0  0  0  0  0  0  0  0  0  0
   26.6338    4.6960   51.1177 C   0  0  2  0  0  0  0  0  0  0  0  0
   25.7990    5.7719   50.6592 O   0  0  0  0  0  0  0  0  0  0  0  0
   26.5500    4.5164   52.6902 C   0  0  1  0  0  0  0  0  0  0  0  0
   27.0500    5.7519   53.3042 O   0  0  0  0  0  0  0  0  0  0  0  0
   25.1343    4.2036   53.2258 C   0  0  0  0  0  0  0  0  0  0  0  0
   24.5084    3.0151   52.5852 N   0  3  0  0  0  0  0  0  0  0  0  0
  1  2  1  1  0  0  0
  1  3  1  0  0  0  0
  1 10  1  0  0  0  0
  3  4  1  1  0  0  0
  3  5  1  0  0  0  0
  5  6  1  6  0  0  0
  5  7  1  0  0  0  0
  7  8  1  1  0  0  0
  7  9  1  0  0  0  0
  9 10  1  0  0  0  0
  9 11  1  6  0  0  0
 11 12  1  0  0  0  0
 13 14  1  6  0  0  0
 13 15  1  0  0  0  0
 13 21  1  0  0  0  0
 15 16  1  0  0  0  0
 16 17  1  6  0  0  0
 16 18  1  0  0  0  0
 18  2  1  1  0  0  0
 18 19  1  0  0  0  0
 19 20  1  6  0  0  0
 19 21  1  0  0  0  0
 21 22  1  1  0  0  0
 23 20  1  1  0  0  0
 23 24  1  0  0  0  0
 23 29  1  0  0  0  0
 24 25  1  6  0  0  0
 24 26  1  0  0  0  0
 26 27  1  1  0  0  0
 26 28  1  0  0  0  0
 28 29  1  0  0  0  0
 28 30  1  1  0  0  0
 30 31  1  0  0  0  0
 32 27  1  1  0  0  0
 32 33  1  0  0  0  0
 32 40  1  0  0  0  0
 33 34  1  6  0  0  0
 33 35  1  0  0  0  0
 35 36  1  1  0  0  0
 35 37  1  0  0  0  0
 37 38  1  1  0  0  0
 37 39  1  0  0  0  0
 39 40  1  0  0  0  0
 39 41  1  6  0  0  0
 41 42  1  0  0  0  0
M  CHG  5   4   1  14   1  17   1  34   1  42   1
M  END
>  <CHROM.1>
-179.45542464,177.47360078,-133.91756736,59.62198718,168.54370713,178.49011742
-173.24567124,90.97029321,71.45414109,-69.27897348,-173.38267461,-64.70926955
-62.87831966,-170.55477713,-69.79701070,-57.87637105,-64.29723041,-114.13887072
59.94426700,-166.10986681,54.94371642,58.56325604,29.23419128,7.31680364
56.10467851,1.24237815,-0.77627291,0.81377666

>  <Name>
1j7t

>  <RI>
224

>  <Rbt.Current_Directory>
/home/itssahil/PROJECTS/Mol_Feturizer/New_Systems/rnas/1j7t

>  <Rbt.Executable>
rbdock ($Id: //depot/dev/client3/rdock/2013.1/src/exe/rbdock.cxx#4 $)

>  <Rbt.Library>
libRbt.so (2013.1, Build901 2013/11/27)

>  <Rbt.Parameter_File>
/export/apps/rDock/src/rDock_2013.1_src/data/scripts/dock_solv.prm

>  <Rbt.Receptor>
prm/pocket_docking_7.prm

>  <SCORE>
-48.2807

>  <SCORE.INTER>
-35.0315

>  <SCORE.INTER.CONST>
1

>  <SCORE.INTER.POLAR>
-6.29967

>  <SCORE.INTER.ROT>
9

>  <SCORE.INTER.SOLV>
19.4096

>  <SCORE.INTER.VDW>
-18.4253

>  <SCORE.INTER.norm>
-0.834083

>  <SCORE.INTRA>
-13.2492

>  <SCORE.INTRA.DIHEDRAL>
-32.9357

>  <SCORE.INTRA.DIHEDRAL.0>
46.2143

>  <SCORE.INTRA.POLAR>
1.05495

>  <SCORE.INTRA.POLAR.0>
-1.76436

>  <SCORE.INTRA.REPUL>
0

>  <SCORE.INTRA.REPUL.0>
0

>  <SCORE.INTRA.SOLV>
-4.53413

>  <SCORE.INTRA.SOLV.lig_0>
-148.643

>  <SCORE.INTRA.VDW>
1.89891

>  <SCORE.INTRA.VDW.0>
-4.83512

>  <SCORE.INTRA.norm>
-0.315457

>  <SCORE.RESTR>
0

>  <SCORE.RESTR.CAVITY>
0

>  <SCORE.RESTR.norm>
0

>  <SCORE.SYSTEM>
0

>  <SCORE.SYSTEM.CONST>
0

>  <SCORE.SYSTEM.DIHEDRAL>
0

>  <SCORE.SYSTEM.SOLV>
0

>  <SCORE.SYSTEM.norm>
0

>  <SCORE.heavy>
42

>  <SCORE.norm>
-1.14954

>  <RMSD>
7.293

$$$$
1j7t
 OpenBabel11021811393D
libRbt.so/2013.1/901 2013/11/27
 42 45  0  0  0  0  0  0  0  0999 V2000
   31.2275    4.5307   57.3759 C   0  0  2  0  0  0  0  0  0  0  0  0
   30.1370    3.8110   56.7470 O   0  0  0  0  0  0  0  0  0  0  0  0
   31.6375    5.6714   56.4009 C   0  0  2  0  0  0  0  0  0  0  0  0
   30.5130    6.5505   55.9695 N   0  3  0  0  0  0  0  0  0  0  0  0
   32.2482    5.0255   55.1380 C   0  0  1  0  0  0  0  0  0  0  0  0
   32.6523    6.0087   54.2273 O   0  0  0  0  0  0  0  0  0  0  0  0
   33.4409    4.1209   55.5286 C   0  0  2  0  0  0  0  0  0  0  0  0
   34.0287    3.5359   54.3835 O   0  0  0  0  0  0  0  0  0  0  0  0
   32.9707    3.0242   56.4604 C   0  0  2  0  0  0  0  0  0  0  0  0
   32.3411    3.6084   57.5937 O   0  0  0  0  0  0  0  0  0  0  0  0
   34.1005    2.1652   56.9826 C   0  0  0  0  0  0  0  0  0  0  0  0
   34.6677    1.4319   55.9140 O   0  0  0  0  0  0  0  0  0  0  0  0
   26.9040    1.3197   57.8374 C   0  0  2  0  0  0  0  0  0  0  0  0
   26.1052    0.3107   58.5339 N   0  3  0  0  0  0  0  0  0  0  0  0
   28.1446    0.6460   57.1626 C   0  0  0  0  0  0  0  0  0  0  0  0
   29.0146    1.7119   56.4694 C   0  0  2  0  0  0  0  0  0  0  0  0
   30.2109    1.1047   55.8770 N   0  3  0  0  0  0  0  0  0  0  0  0
   29.4373    2.7977   57.4784 C   0  0  2  0  0  0  0  0  0  0  0  0
   28.2350    3.4599   58.1792 C   0  0  2  0  0  0  0  0  0  0  0  0
   28.7895    4.3247   59.1892 O   0  0  0  0  0  0  0  0  0  0  0  0
   27.3338    2.3833   58.8353 C   0  0  1  0  0  0  0  0  0  0  0  0
   26.1986    3.0004   59.3771 O   0  0  0  0  0  0  0  0  0  0  0  0
   28.3951    5.6830   59.3642 C   0  0  1  0  0  0  0  0  0  0  0  0
   28.4835    6.0362   60.8918 C   0  0  2  0  0  0  0  0  0  0  0  0
   27.3032    5.7427   61.6195 O   0  0  0  0  0  0  0  0  0  0  0  0
   28.7967    7.5198   60.7573 C   0  0  2  0  0  0  0  0  0  0  0  0
   27.6496    8.2544   60.2338 O   0  0  0  0  0  0  0  0  0  0  0  0
   29.8809    7.5369   59.6888 C   0  0  2  0  0  0  0  0  0  0  0  0
   29.3513    6.5877   58.7473 O   0  0  0  0  0  0  0  0  0  0  0  0
   31.3099    7.1523   60.1944 C   0  0  0  0  0  0  0  0  0  0  0  0
   31.5086    7.5354   61.5611 O   0  0  0  0  0  0  0  0  0  0  0  0
   27.7825    9.6712   60.3148 C   0  0  2  0  0  0  0  0  0  0  0  0
   26.4697   10.4703   60.0109 C   0  0  2  0  0  0  0  0  0  0  0  0
   25.9106   10.1751   58.6567 N   0  3  0  0  0  0  0  0  0  0  0  0
   26.8102   11.9894   60.1728 C   0  0  1  0  0  0  0  0  0  0  0  0
   27.1880   12.2045   61.5865 O   0  0  0  0  0  0  0  0  0  0  0  0
   28.0104   12.4421   59.2531 C   0  0  2  0  0  0  0  0  0  0  0  0
   27.6181   12.2851   57.8797 O   0  0  0  0  0  0  0  0  0  0  0  0
   29.2700   11.5488   59.6102 C   0  0  1  0  0  0  0  0  0  0  0  0
   28.8851   10.1454   59.4217 O   0  0  0  0  0  0  0  0  0  0  0  0
   30.5341   11.8596   58.7770 C   0  0  0  0  0  0  0  0  0  0  0  0
   31.5501   12.6558   59.5176 N   0  3  0  0  0  0  0  0  0  0  0  0
  1  2  1  6  0  0  0
  1  3  1  0  0  0  0
  1 10  1  0  0  0  0
  3  4  1  6  0  0  0
  3  5  1  0  0  0  0
  5  6  1  6  0  0  0
  5  7  1  0  0  0  0
  7  8  1  6  0  0  0
  7  9  1  0  0  0  0
  9 10  1  0  0  0  0
  9 11  1  1  0  0  0
 11 12  1  0  0  0  0
 13 14  1  1  0  0  0
 13 15  1  0  0  0  0
 13 21  1  0  0  0  0
 15 16  1  0  0  0  0
 16 17  1  1  0  0  0
 16 18  1  0  0  0  0
 18  2  1  6  0  0  0
 18 19  1  0  0  0  0
 19 20  1  1  0  0  0
 19 21  1  0  0  0  0
 21 22  1  6  0  0  0
 23 20  1  1  0  0  0
 23 24  1  0  0  0  0
 23 29  1  0  0  0  0
 24 25  1  1  0  0  0
 24 26  1  0  0  0  0
 26 27  1  6  0  0  0
 26 28  1  0  0  0  0
 28 29  1  0  0  0  0
 28 30  1  1  0  0  0
 30 31  1  0  0  0  0
 32 27  1  6  0  0  0
 32 33  1  0  0  0  0
 32 40  1  0  0  0  0
 33 34  1  6  0  0  0
 33 35  1  0  0  0  0
 35 36  1  1  0  0  0
 35 37  1  0  0  0  0
 37 38  1  6  0  0  0
 37 39  1  0  0  0  0
 39 40  1  0  0  0  0
 39 41  1  6  0  0  0
 41 42  1  0  0  0  0
M  CHG  5   4   1  14   1  17   1  34   1  42   1
M  END
>  <CHROM.1>
-172.54463245,-146.62291578,-69.49983273,-64.59128543,-50.26279975,-66.59935199
62.48024155,-170.53094538,14.44763712,131.27078394,146.99898309,72.36111312
-56.14327205,168.94816627,-169.14164094,-30.92177140,69.19663260,171.29772157
65.44971335,77.88010553,103.02228463,66.95391099,29.60317328,6.15597973,58.31729614
-1.23519431,0.50939840,0.19895730

>  <Name>
1j7t

>  <RI>
0

>  <Rbt.Current_Directory>
/home/itssahil/PROJECTS/Mol_Feturizer/New_Systems/rnas/1j7t

>  <Rbt.Executable>
rbdock ($Id: //depot/dev/client3/rdock/2013.1/src/exe/rbdock.cxx#4 $)

>  <Rbt.Library>
libRbt.so (2013.1, Build901 2013/11/27)

>  <Rbt.Parameter_File>
/export/apps/rDock/src/rDock_2013.1_src/data/scripts/dock_solv.prm

>  <Rbt.Receptor>
prm/pocket_docking_6.prm

>  <SCORE>
-32.9247

>  <SCORE.INTER>
-21.2922

>  <SCORE.INTER.CONST>
1

>  <SCORE.INTER.POLAR>
-3.33067

>  <SCORE.INTER.ROT>
9

>  <SCORE.INTER.SOLV>
17.2275

>  <SCORE.INTER.VDW>
-18.4351

>  <SCORE.INTER.norm>
-0.506957

>  <SCORE.INTRA>
-11.737

>  <SCORE.INTRA.DIHEDRAL>
-15.1369

>  <SCORE.INTRA.DIHEDRAL.0>
46.2143

>  <SCORE.INTRA.POLAR>
-0.43829

>  <SCORE.INTRA.POLAR.0>
-1.76436

>  <SCORE.INTRA.REPUL>
0

>  <SCORE.INTRA.REPUL.0>
0

>  <SCORE.INTRA.SOLV>
-2.87917

>  <SCORE.INTRA.SOLV.lig_0>
-148.643

>  <SCORE.INTRA.VDW>
-1.23882

>  <SCORE.INTRA.VDW.0>
-4.83512

>  <SCORE.INTRA.norm>
-0.279453

>  <SCORE.RESTR>
0.104519

>  <SCORE.RESTR.CAVITY>
0.104519

>  <SCORE.RESTR.norm>
0.00248856

>  <SCORE.SYSTEM>
0

>  <SCORE.SYSTEM.CONST>
0

>  <SCORE.SYSTEM.DIHEDRAL>
0

>  <SCORE.SYSTEM.SOLV>
0

>  <SCORE.SYSTEM.norm>
0

>  <SCORE.heavy>
42

>  <SCORE.norm>
-0.783922

>  <RMSD>
7.575

$$$$
1j7t
 OpenBabel11021811393D
libRbt.so/2013.1/901 2013/11/27
 42 45  0  0  0  0  0  0  0  0999 V2000
   26.9223    8.6436   59.7015 C   0  0  2  0  0  0  0  0  0  0  0  0
   26.6137    9.1355   58.3729 O   0  0  0  0  0  0  0  0  0  0  0  0
   26.4334    9.7243   60.7080 C   0  0  2  0  0  0  0  0  0  0  0  0
   25.0082   10.1286   60.5377 N   0  3  0  0  0  0  0  0  0  0  0  0
   27.3103   10.9821   60.5235 C   0  0  1  0  0  0  0  0  0  0  0  0
   26.9252   11.9874   61.4183 O   0  0  0  0  0  0  0  0  0  0  0  0
   28.8023   10.6218   60.7175 C   0  0  2  0  0  0  0  0  0  0  0  0
   29.6217   11.7650   60.5738 O   0  0  0  0  0  0  0  0  0  0  0  0
   29.2168    9.5825   59.6976 C   0  0  2  0  0  0  0  0  0  0  0  0
   28.3672    8.4479   59.8110 O   0  0  0  0  0  0  0  0  0  0  0  0
   30.6328    9.0898   59.8954 C   0  0  0  0  0  0  0  0  0  0  0  0
   30.8842    8.0118   59.0145 O   0  0  0  0  0  0  0  0  0  0  0  0
   25.6120    6.7932   55.0027 C   0  0  2  0  0  0  0  0  0  0  0  0
   25.7371    5.9253   53.8311 N   0  3  0  0  0  0  0  0  0  0  0  0
   26.3675    8.1403   54.7523 C   0  0  0  0  0  0  0  0  0  0  0  0
   26.2796    9.0373   56.0018 C   0  0  2  0  0  0  0  0  0  0  0  0
   27.0283   10.2828   55.8041 N   0  3  0  0  0  0  0  0  0  0  0  0
   26.8348    8.2958   57.2337 C   0  0  2  0  0  0  0  0  0  0  0  0
   26.1268    6.9508   57.4884 C   0  0  2  0  0  0  0  0  0  0  0  0
   26.8519    6.3154   58.5589 O   0  0  0  0  0  0  0  0  0  0  0  0
   26.1732    6.0680   56.2155 C   0  0  1  0  0  0  0  0  0  0  0  0
   25.4380    4.8967   56.4400 O   0  0  0  0  0  0  0  0  0  0  0  0
   26.7472    4.9272   58.8639 C   0  0  1  0  0  0  0  0  0  0  0  0
   27.7922    4.5814   59.9839 C   0  0  2  0  0  0  0  0  0  0  0  0
   29.0742    4.2357   59.4878 O   0  0  0  0  0  0  0  0  0  0  0  0
   27.0358    3.4383   60.6460 C   0  0  2  0  0  0  0  0  0  0  0  0
   26.9737    2.2720   59.7711 O   0  0  0  0  0  0  0  0  0  0  0  0
   25.6253    3.9976   60.7685 C   0  0  2  0  0  0  0  0  0  0  0  0
   25.4676    4.6241   59.4838 O   0  0  0  0  0  0  0  0  0  0  0  0
   25.4125    4.9931   61.9557 C   0  0  0  0  0  0  0  0  0  0  0  0
   24.0588    5.4597   62.0189 O   0  0  0  0  0  0  0  0  0  0  0  0
   26.2360    1.1794   60.3131 C   0  0  2  0  0  0  0  0  0  0  0  0
   26.5769   -0.2155   59.6866 C   0  0  2  0  0  0  0  0  0  0  0  0
   26.3653   -0.2551   58.2077 N   0  3  0  0  0  0  0  0  0  0  0  0
   25.6917   -1.2764   60.4218 C   0  0  1  0  0  0  0  0  0  0  0  0
   26.0984   -1.2754   61.8439 O   0  0  0  0  0  0  0  0  0  0  0  0
   24.1511   -0.9442   60.3353 C   0  0  2  0  0  0  0  0  0  0  0  0
   23.7478   -1.0024   58.9574 O   0  0  0  0  0  0  0  0  0  0  0  0
   23.9215    0.4966   60.9544 C   0  0  1  0  0  0  0  0  0  0  0  0
   24.7660    1.4380   60.2102 O   0  0  0  0  0  0  0  0  0  0  0  0
   22.4535    0.9798   60.9284 C   0  0  0  0  0  0  0  0  0  0  0  0
   21.6340    0.4432   62.0487 N   0  3  0  0  0  0  0  0  0  0  0  0
  1  2  1  6  0  0  0
  1  3  1  0  0  0  0
  1 10  1  0  0  0  0
  3  4  1  6  0  0  0
  3  5  1  0  0  0  0
  5  6  1  1  0  0  0
  5  7  1  0  0  0  0
  7  8  1  6  0  0  0
  7  9  1  0  0  0  0
  9 10  1  0  0  0  0
  9 11  1  1  0  0  0
 11 12  1  0  0  0  0
 13 14  1  6  0  0  0
 13 15  1  0  0  0  0
 13 21  1  0  0  0  0
 15 16  1  0  0  0  0
 16 17  1  6  0  0  0
 16 18  1  0  0  0  0
 18  2  1  1  0  0  0
 18 19  1  0  0  0  0
 19 20  1  1  0  0  0
 19 21  1  0  0  0  0
 21 22  1  1  0  0  0
 23 20  1  1  0  0  0
 23 24  1  0  0  0  0
 23 29  1  0  0  0  0
 24 25  1  6  0  0  0
 24 26  1  0  0  0  0
 26 27  1  6  0  0  0
 26 28  1  0  0  0  0
 28 29  1  0  0  0  0
 28 30  1  1  0  0  0
 30 31  1  0  0  0  0
 32 27  1  6  0  0  0
 32 33  1  0  0  0  0
 32 40  1  0  0  0  0
 33 34  1  6  0  0  0
 33 35  1  0  0  0  0
 35 36  1  1  0  0  0
 35 37  1  0  0  0  0
 37 38  1  6  0  0  0
 37 39  1  0  0  0  0
 39 40  1  0  0  0  0
 39 41  1  6  0  0  0
 41 42  1  0  0  0  0
M  CHG  5   4   1  14   1  17   1  34   1  42   1
M  END
>  <CHROM.1>
-174.15287183,174.22181404,-154.14738658,64.53906564,62.79031150,172.82745165
177.40927587,-70.40113317,52.06402778,-163.04185559,174.06277599,78.79517048
175.02253929,-177.88091971,-158.48101060,-179.08454969,-172.96749201,-69.36770417
41.78807714,70.96928013,81.79885465,61.09653091,26.39745764,5.44902671,59.27018183
-0.32814084,1.25338254,1.77243882

>  <Name>
1j7t

>  <RI>
0

>  <Rbt.Current_Directory>
/home/itssahil/PROJECTS/Mol_Feturizer/New_Systems/rnas/1j7t

>  <Rbt.Executable>
rbdock ($Id: //depot/dev/client3/rdock/2013.1/src/exe/rbdock.cxx#4 $)

>  <Rbt.Library>
libRbt.so (2013.1, Build901 2013/11/27)

>  <Rbt.Parameter_File>
/export/apps/rDock/src/rDock_2013.1_src/data/scripts/dock_solv.prm

>  <Rbt.Receptor>
prm/pocket_docking_6.prm

>  <SCORE>
-37.3414

>  <SCORE.INTER>
-22.3579

>  <SCORE.INTER.CONST>
1

>  <SCORE.INTER.POLAR>
-4.236

>  <SCORE.INTER.ROT>
9

>  <SCORE.INTER.SOLV>
17.3172

>  <SCORE.INTER.VDW>
-16.1577

>  <SCORE.INTER.norm>
-0.532331

>  <SCORE.INTRA>
-14.9835

>  <SCORE.INTRA.DIHEDRAL>
-33.5978

>  <SCORE.INTRA.DIHEDRAL.0>
46.2143

>  <SCORE.INTRA.POLAR>
1.10086

>  <SCORE.INTRA.POLAR.0>
-1.76436

>  <SCORE.INTRA.REPUL>
0.0010818

>  <SCORE.INTRA.REPUL.0>
0

>  <SCORE.INTRA.SOLV>
-8.09185

>  <SCORE.INTRA.SOLV.lig_0>
-148.643

>  <SCORE.INTRA.VDW>
2.11294

>  <SCORE.INTRA.VDW.0>
-4.83512

>  <SCORE.INTRA.norm>
-0.356751

>  <SCORE.RESTR>
0

>  <SCORE.RESTR.CAVITY>
0

>  <SCORE.RESTR.norm>
0

>  <SCORE.SYSTEM>
0

>  <SCORE.SYSTEM.CONST>
0

>  <SCORE.SYSTEM.DIHEDRAL>
0

>  <SCORE.SYSTEM.SOLV>
0

>  <SCORE.SYSTEM.norm>
0

>  <SCORE.heavy>
42

>  <SCORE.norm>
-0.889082

>  <RMSD>
7.736

$$$$
1j7t
 OpenBabel11021811393D
libRbt.so/2013.1/901 2013/11/27
 42 45  0  0  0  0  0  0  0  0999 V2000
   29.8186    9.7331   58.3739 C   0  0  2  0  0  0  0  0  0  0  0  0
   29.6280    8.7201   59.3937 O   0  0  0  0  0  0  0  0  0  0  0  0
   29.4098   11.0939   59.0070 C   0  0  2  0  0  0  0  0  0  0  0  0
   30.0938   11.4076   60.2944 N   0  3  0  0  0  0  0  0  0  0  0  0
   27.8887   11.0612   59.2719 C   0  0  1  0  0  0  0  0  0  0  0  0
   27.4588   12.2712   59.8291 O   0  0  0  0  0  0  0  0  0  0  0  0
   27.1276   10.7652   57.9578 C   0  0  2  0  0  0  0  0  0  0  0  0
   25.7304   10.7520   58.1742 O   0  0  0  0  0  0  0  0  0  0  0  0
   27.5573    9.4223   57.4064 C   0  0  2  0  0  0  0  0  0  0  0  0
   28.9679    9.4175   57.2272 O   0  0  0  0  0  0  0  0  0  0  0  0
   26.9446    9.1114   56.0592 C   0  0  0  0  0  0  0  0  0  0  0  0
   25.5599    8.8680   56.2160 O   0  0  0  0  0  0  0  0  0  0  0  0
   30.9641    4.7205   59.6507 C   0  0  2  0  0  0  0  0  0  0  0  0
   31.1368    3.2957   59.3651 N   0  3  0  0  0  0  0  0  0  0  0  0
   29.4729    5.0135   60.0232 C   0  0  0  0  0  0  0  0  0  0  0  0
   29.2764    6.5203   60.2771 C   0  0  2  0  0  0  0  0  0  0  0  0
   27.8722    6.8207   60.5752 N   0  3  0  0  0  0  0  0  0  0  0  0
   29.7243    7.3338   59.0469 C   0  0  2  0  0  0  0  0  0  0  0  0
   31.1824    7.0443   58.6402 C   0  0  2  0  0  0  0  0  0  0  0  0
   31.3977    7.7482   57.4018 O   0  0  0  0  0  0  0  0  0  0  0  0
   31.3918    5.5229   58.4321 C   0  0  1  0  0  0  0  0  0  0  0  0
   32.7445    5.2766   58.1627 O   0  0  0  0  0  0  0  0  0  0  0  0
   30.9352    7.2767   56.1388 C   0  0  1  0  0  0  0  0  0  0  0  0
   31.2893    8.3471   55.0458 C   0  0  2  0  0  0  0  0  0  0  0  0
   30.3006    9.3491   54.8800 O   0  0  0  0  0  0  0  0  0  0  0  0
   31.4484    7.4066   53.8594 C   0  0  2  0  0  0  0  0  0  0  0  0
   30.1654    6.8319   53.4679 O   0  0  0  0  0  0  0  0  0  0  0  0
   32.2994    6.2835   54.4352 C   0  0  2  0  0  0  0  0  0  0  0  0
   31.6764    6.0990   55.7181 O   0  0  0  0  0  0  0  0  0  0  0  0
   33.8260    6.6046   54.5462 C   0  0  0  0  0  0  0  0  0  0  0  0
   34.4131    6.8358   53.2594 O   0  0  0  0  0  0  0  0  0  0  0  0
   30.1878    6.1695   52.2061 C   0  0  2  0  0  0  0  0  0  0  0  0
   28.8389    5.4818   51.8037 C   0  0  2  0  0  0  0  0  0  0  0  0
   28.3821    4.4698   52.8040 N   0  3  0  0  0  0  0  0  0  0  0  0
   29.0558    4.8380   50.3936 C   0  0  1  0  0  0  0  0  0  0  0  0
   29.3346    5.9404   49.4478 O   0  0  0  0  0  0  0  0  0  0  0  0
   30.2699    3.8297   50.3687 C   0  0  2  0  0  0  0  0  0  0  0  0
   29.9699    2.7316   51.2455 O   0  0  0  0  0  0  0  0  0  0  0  0
   31.5697    4.6111   50.8290 C   0  0  1  0  0  0  0  0  0  0  0  0
   31.3017    5.1718   52.1583 O   0  0  0  0  0  0  0  0  0  0  0  0
   32.8531    3.7509   50.8747 C   0  0  0  0  0  0  0  0  0  0  0  0
   33.8029    4.1615   51.9442 N   0  3  0  0  0  0  0  0  0  0  0  0
  1  2  1  1  0  0  0
  1  3  1  0  0  0  0
  1 10  1  0  0  0  0
  3  4  1  1  0  0  0
  3  5  1  0  0  0  0
  5  6  1  6  0  0  0
  5  7  1  0  0  0  0
  7  8  1  1  0  0  0
  7  9  1  0  0  0  0
  9 10  1  0  0  0  0
  9 11  1  6  0  0  0
 11 12  1  0  0  0  0
 13 14  1  6  0  0  0
 13 15  1  0  0  0  0
 13 21  1  0  0  0  0
 15 16  1  0  0  0  0
 16 17  1  6  0  0  0
 16 18  1  0  0  0  0
 18  2  1  1  0  0  0
 18 19  1  0  0  0  0
 19 20  1  6  0  0  0
 19 21  1  0  0  0  0
 21 22  1  1  0  0  0
 23 20  1  1  0  0  0
 23 24  1  0  0  0  0
 23 29  1  0  0  0  0
 24 25  1  6  0  0  0
 24 26  1  0  0  0  0
 26 27  1  1  0  0  0
 26 28  1  0  0  0  0
 28 29  1  0  0  0  0
 28 30  1  1  0  0  0
 30 31  1  0  0  0  0
 32 27  1  1  0  0  0
 32 33  1  0  0  0  0
 32 40  1  0  0  0  0
 33 34  1  1  0  0  0
 33 35  1  0  0  0  0
 35 36  1  6  0  0  0
 35 37  1  0  0  0  0
 37 38  1  1  0  0  0
 37 39  1  0  0  0  0
 39 40  1  0  0  0  0
 39 41  1  1  0  0  0
 41 42  1  0  0  0  0
M  CHG  5   4   1  14   1  17   1  34   1  42   1
M  END
>  <CHROM.1>
170.36583808,-171.94152562,60.81374927,-177.54747741,-60.55837704,-70.04133598
-61.84158894,75.90176764,-60.10028733,-78.22723913,176.90189833,177.29853740
45.48409376,167.55227525,176.95514367,-62.81214515,66.24594480,53.15059556
-70.85969933,173.71815010,-147.38591588,-39.62656457,30.06492005,7.09571660
55.86539470,1.99336037,-0.77234648,1.32021758

>  <Name>
1j7t

>  <RI>
0

>  <Rbt.Current_Directory>
/home/itssahil/PROJECTS/Mol_Feturizer/New_Systems/rnas/1j7t

>  <Rbt.Executable>
rbdock ($Id: //depot/dev/client3/rdock/2013.1/src/exe/rbdock.cxx#4 $)

>  <Rbt.Library>
libRbt.so (2013.1, Build901 2013/11/27)

>  <Rbt.Parameter_File>
/export/apps/rDock/src/rDock_2013.1_src/data/scripts/dock_solv.prm

>  <Rbt.Receptor>
prm/pocket_docking_6.prm

>  <SCORE>
-48.418

>  <SCORE.INTER>
-24.0156

>  <SCORE.INTER.CONST>
1

>  <SCORE.INTER.POLAR>
-4.03787

>  <SCORE.INTER.ROT>
9

>  <SCORE.INTER.SOLV>
13.8204

>  <SCORE.INTER.VDW>
-16.7576

>  <SCORE.INTER.norm>
-0.571799

>  <SCORE.INTRA>
-24.4025

>  <SCORE.INTRA.DIHEDRAL>
-35.3768

>  <SCORE.INTRA.DIHEDRAL.0>
46.2143

>  <SCORE.INTRA.POLAR>
-1.32009

>  <SCORE.INTRA.POLAR.0>
-1.76436

>  <SCORE.INTRA.REPUL>
0

>  <SCORE.INTRA.REPUL.0>
0

>  <SCORE.INTRA.SOLV>
-1.27602

>  <SCORE.INTRA.SOLV.lig_0>
-148.643

>  <SCORE.INTRA.VDW>
-1.58771

>  <SCORE.INTRA.VDW.0>
-4.83512

>  <SCORE.INTRA.norm>
-0.581011

>  <SCORE.RESTR>
0

>  <SCORE.RESTR.CAVITY>
0

>  <SCORE.RESTR.norm>
0

>  <SCORE.SYSTEM>
0

>  <SCORE.SYSTEM.CONST>
0

>  <SCORE.SYSTEM.DIHEDRAL>
0

>  <SCORE.SYSTEM.SOLV>
0

>  <SCORE.SYSTEM.norm>
0

>  <SCORE.heavy>
42

>  <SCORE.norm>
-1.15281

>  <RMSD>
7.818

$$$$
1j7t
 OpenBabel11021811393D
libRbt.so/2013.1/901 2013/11/27
 42 45  0  0  0  0  0  0  0  0999 V2000
   28.0812    6.7157   57.1527 C   0  0  2  0  0  0  0  0  0  0  0  0
   28.0536    5.4262   57.8153 O   0  0  0  0  0  0  0  0  0  0  0  0
   27.0440    7.6191   57.8795 C   0  0  2  0  0  0  0  0  0  0  0  0
   27.2254    7.7037   59.3572 N   0  3  0  0  0  0  0  0  0  0  0  0
   25.6357    7.0481   57.6047 C   0  0  1  0  0  0  0  0  0  0  0  0
   24.6557    7.8332   58.2233 O   0  0  0  0  0  0  0  0  0  0  0  0
   25.3853    6.9646   56.0803 C   0  0  2  0  0  0  0  0  0  0  0  0
   24.0917    6.4637   55.8067 O   0  0  0  0  0  0  0  0  0  0  0  0
   26.4145    6.0579   55.4393 C   0  0  2  0  0  0  0  0  0  0  0  0
   27.7181    6.5349   55.7479 O   0  0  0  0  0  0  0  0  0  0  0  0
   26.3101    6.0160   53.9312 C   0  0  0  0  0  0  0  0  0  0  0  0
   26.5582    7.3057   53.4055 O   0  0  0  0  0  0  0  0  0  0  0  0
   30.7032    2.1603   58.2169 C   0  0  2  0  0  0  0  0  0  0  0  0
   31.6360    1.0831   57.8839 N   0  3  0  0  0  0  0  0  0  0  0  0
   29.3155    1.8915   57.5457 C   0  0  0  0  0  0  0  0  0  0  0  0
   28.3452    3.0479   57.8536 C   0  0  2  0  0  0  0  0  0  0  0  0
   27.0555    2.8385   57.1874 N   0  3  0  0  0  0  0  0  0  0  0  0
   28.9477    4.3898   57.3934 C   0  0  2  0  0  0  0  0  0  0  0  0
   30.3287    4.6681   58.0182 C   0  0  2  0  0  0  0  0  0  0  0  0
   30.8221    5.8611   57.3789 O   0  0  0  0  0  0  0  0  0  0  0  0
   31.2903    3.4827   57.7497 C   0  0  1  0  0  0  0  0  0  0  0  0
   32.5032    3.7143   58.4117 O   0  0  0  0  0  0  0  0  0  0  0  0
   31.0744    5.9562   55.9794 C   0  0  1  0  0  0  0  0  0  0  0  0
   31.7309    7.3517   55.6837 C   0  0  2  0  0  0  0  0  0  0  0  0
   30.7949    8.3894   55.4467 O   0  0  0  0  0  0  0  0  0  0  0  0
   32.5604    6.9527   54.4712 C   0  0  2  0  0  0  0  0  0  0  0  0
   31.7073    6.6517   53.3261 O   0  0  0  0  0  0  0  0  0  0  0  0
   33.2040    5.6487   54.9212 C   0  0  2  0  0  0  0  0  0  0  0  0
   32.0925    5.0041   55.5667 O   0  0  0  0  0  0  0  0  0  0  0  0
   34.4378    5.8155   55.8677 C   0  0  0  0  0  0  0  0  0  0  0  0
   34.1028    6.5558   57.0483 O   0  0  0  0  0  0  0  0  0  0  0  0
   30.9043    7.7484   52.8972 C   0  0  2  0  0  0  0  0  0  0  0  0
   29.6299    7.3463   52.0796 C   0  0  2  0  0  0  0  0  0  0  0  0
   29.9524    6.5541   50.8541 N   0  3  0  0  0  0  0  0  0  0  0  0
   28.8764    8.6715   51.7248 C   0  0  1  0  0  0  0  0  0  0  0  0
   28.4543    9.2895   53.0005 O   0  0  0  0  0  0  0  0  0  0  0  0
   29.7880    9.6957   50.9429 C   0  0  2  0  0  0  0  0  0  0  0  0
   30.1489    9.1141   49.6795 O   0  0  0  0  0  0  0  0  0  0  0  0
   31.0623   10.0022   51.8341 C   0  0  1  0  0  0  0  0  0  0  0  0
   31.7252    8.7232   52.1134 O   0  0  0  0  0  0  0  0  0  0  0  0
   32.0709   10.9841   51.1956 C   0  0  0  0  0  0  0  0  0  0  0  0
   32.7483   10.4354   49.9895 N   0  3  0  0  0  0  0  0  0  0  0  0
  1  2  1  1  0  0  0
  1  3  1  0  0  0  0
  1 10  1  0  0  0  0
  3  4  1  1  0  0  0
  3  5  1  0  0  0  0
  5  6  1  1  0  0  0
  5  7  1  0  0  0  0
  7  8  1  1  0  0  0
  7  9  1  0  0  0  0
  9 10  1  0  0  0  0
  9 11  1  6  0  0  0
 11 12  1  0  0  0  0
 13 14  1  6  0  0  0
 13 15  1  0  0  0  0
 13 21  1  0  0  0  0
 15 16  1  0  0  0  0
 16 17  1  6  0  0  0
 16 18  1  0  0  0  0
 18  2  1  1  0  0  0
 18 19  1  0  0  0  0
 19 20  1  6  0  0  0
 19 21  1  0  0  0  0
 21 22  1  1  0  0  0
 23 20  1  1  0  0  0
 23 24  1  0  0  0  0
 23 29  1  0  0  0  0
 24 25  1  6  0  0  0
 24 26  1  0  0  0  0
 26 27  1  6  0  0  0
 26 28  1  0  0  0  0
 28 29  1  0  0  0  0
 28 30  1  1  0  0  0
 30 31  1  0  0  0  0
 32 27  1  6  0  0  0
 32 33  1  0  0  0  0
 32 40  1  0  0  0  0
 33 34  1  6  0  0  0
 33 35  1  0  0  0  0
 35 36  1  1  0  0  0
 35 37  1  0  0  0  0
 37 38  1  6  0  0  0
 37 39  1  0  0  0  0
 39 40  1  0  0  0  0
 39 41  1  6  0  0  0
 41 42  1  0  0  0  0
M  CHG  5   4   1  14   1  17   1  34   1  42   1
M  END
>  <CHROM.1>
-177.71575436,-158.38061088,-50.20342850,-178.97314626,-56.11882163,62.54005527
-176.17037782,-152.02710729,65.15823387,-61.70224550,-174.53886266,64.30868829
68.09583336,60.80674000,-157.72607360,57.46753446,-166.07900788,65.78431909
-61.70356206,69.99046475,-67.00321204,52.38711134,29.63644191,6.47835607
55.23800072,1.85897498,-0.20287804,2.26814375

>  <Name>
1j7t

>  <RI>
0

>  <Rbt.Current_Directory>
/home/itssahil/PROJECTS/Mol_Feturizer/New_Systems/rnas/1j7t

>  <Rbt.Executable>
rbdock ($Id: //depot/dev/client3/rdock/2013.1/src/exe/rbdock.cxx#4 $)

>  <Rbt.Library>
libRbt.so (2013.1, Build901 2013/11/27)

>  <Rbt.Parameter_File>
/export/apps/rDock/src/rDock_2013.1_src/data/scripts/dock_solv.prm

>  <Rbt.Receptor>
prm/pocket_docking_4.prm

>  <SCORE>
-50.8844

>  <SCORE.INTER>
-30.9985

>  <SCORE.INTER.CONST>
1

>  <SCORE.INTER.POLAR>
-4.54954

>  <SCORE.INTER.ROT>
9

>  <SCORE.INTER.SOLV>
20.8474

>  <SCORE.INTER.VDW>
-22.0497

>  <SCORE.INTER.norm>
-0.73806

>  <SCORE.INTRA>
-21.166

>  <SCORE.INTRA.DIHEDRAL>
-36.7329

>  <SCORE.INTRA.DIHEDRAL.0>
46.2143

>  <SCORE.INTRA.POLAR>
-0.278393

>  <SCORE.INTRA.POLAR.0>
-1.76436

>  <SCORE.INTRA.REPUL>
0

>  <SCORE.INTRA.REPUL.0>
0

>  <SCORE.INTRA.SOLV>
1.04152

>  <SCORE.INTRA.SOLV.lig_0>
-148.643

>  <SCORE.INTRA.VDW>
-2.37378

>  <SCORE.INTRA.VDW.0>
-4.83512

>  <SCORE.INTRA.norm>
-0.503953

>  <SCORE.RESTR>
1.28015

>  <SCORE.RESTR.CAVITY>
1.28015

>  <SCORE.RESTR.norm>
0.0304797

>  <SCORE.SYSTEM>
0

>  <SCORE.SYSTEM.CONST>
0

>  <SCORE.SYSTEM.DIHEDRAL>
0

>  <SCORE.SYSTEM.SOLV>
0

>  <SCORE.SYSTEM.norm>
0

>  <SCORE.heavy>
42

>  <SCORE.norm>
-1.21153

>  <RMSD>
7.821

$$$$
1j7t
 OpenBabel11021811393D
libRbt.so/2013.1/901 2013/11/27
 42 45  0  0  0  0  0  0  0  0999 V2000
   24.9828    7.4332   56.9470 C   0  0  2  0  0  0  0  0  0  0  0  0
   25.4105    7.1133   58.2951 O   0  0  0  0  0  0  0  0  0  0  0  0
   24.8799    6.0868   56.1745 C   0  0  2  0  0  0  0  0  0  0  0  0
   24.0336    5.0550   56.8398 N   0  3  0  0  0  0  0  0  0  0  0  0
   26.3047    5.5100   56.0256 C   0  0  1  0  0  0  0  0  0  0  0  0
   26.2763    4.3008   55.3209 O   0  0  0  0  0  0  0  0  0  0  0  0
   27.2201    6.5343   55.3141 C   0  0  2  0  0  0  0  0  0  0  0  0
   28.5255    6.0170   55.1483 O   0  0  0  0  0  0  0  0  0  0  0  0
   27.2912    7.8106   56.1254 C   0  0  2  0  0  0  0  0  0  0  0  0
   25.9761    8.3111   56.3301 O   0  0  0  0  0  0  0  0  0  0  0  0
   28.0741    8.9069   55.4382 C   0  0  0  0  0  0  0  0  0  0  0  0
   27.9226   10.1158   56.1570 O   0  0  0  0  0  0  0  0  0  0  0  0
   26.3916   11.0112   59.5960 C   0  0  2  0  0  0  0  0  0  0  0  0
   26.6881   12.1475   60.4691 N   0  3  0  0  0  0  0  0  0  0  0  0
   24.9345   10.5038   59.8565 C   0  0  0  0  0  0  0  0  0  0  0  0
   24.6351    9.2768   58.9742 C   0  0  2  0  0  0  0  0  0  0  0  0
   23.2914    8.7549   59.2445 N   0  3  0  0  0  0  0  0  0  0  0  0
   25.6757    8.1683   59.2269 C   0  0  2  0  0  0  0  0  0  0  0  0
   27.1232    8.6483   59.0043 C   0  0  2  0  0  0  0  0  0  0  0  0
   27.9720    7.5636   59.4267 O   0  0  0  0  0  0  0  0  0  0  0  0
   27.4089    9.9115   59.8555 C   0  0  1  0  0  0  0  0  0  0  0  0
   28.6938   10.3855   59.5598 O   0  0  0  0  0  0  0  0  0  0  0  0
   29.0372    7.0446   58.6349 C   0  0  1  0  0  0  0  0  0  0  0  0
   30.3924    7.6196   59.1818 C   0  0  2  0  0  0  0  0  0  0  0  0
   30.7597    8.8653   58.6141 O   0  0  0  0  0  0  0  0  0  0  0  0
   31.2957    6.4549   58.8012 C   0  0  2  0  0  0  0  0  0  0  0  0
   31.4477    6.3583   57.3530 O   0  0  0  0  0  0  0  0  0  0  0  0
   30.4937    5.2457   59.2616 C   0  0  2  0  0  0  0  0  0  0  0  0
   29.1742    5.6093   58.8205 O   0  0  0  0  0  0  0  0  0  0  0  0
   30.5589    4.9583   60.7975 C   0  0  0  0  0  0  0  0  0  0  0  0
   31.9113    4.8996   61.2680 O   0  0  0  0  0  0  0  0  0  0  0  0
   32.3794    5.3649   56.9329 C   0  0  2  0  0  0  0  0  0  0  0  0
   32.6553    5.3365   55.3910 C   0  0  2  0  0  0  0  0  0  0  0  0
   31.4164    5.1221   54.5833 N   0  3  0  0  0  0  0  0  0  0  0  0
   33.7098    4.2086   55.1351 C   0  0  1  0  0  0  0  0  0  0  0  0
   34.9501    4.6017   55.8385 O   0  0  0  0  0  0  0  0  0  0  0  0
   33.2399    2.8048   55.6828 C   0  0  2  0  0  0  0  0  0  0  0  0
   32.0675    2.4004   54.9571 O   0  0  0  0  0  0  0  0  0  0  0  0
   32.9491    2.9525   57.2338 C   0  0  1  0  0  0  0  0  0  0  0  0
   31.9454    4.0105   57.3972 O   0  0  0  0  0  0  0  0  0  0  0  0
   32.4589    1.6577   57.9209 C   0  0  0  0  0  0  0  0  0  0  0  0
   30.9930    1.4371   57.7907 N   0  3  0  0  0  0  0  0  0  0  0  0
  1  2  1  1  0  0  0
  1  3  1  0  0  0  0
  1 10  1  0  0  0  0
  3  4  1  1  0  0  0
  3  5  1  0  0  0  0
  5  6  1  6  0  0  0
  5  7  1  0  0  0  0
  7  8  1  1  0  0  0
  7  9  1  0  0  0  0
  9 10  1  0  0  0  0
  9 11  1  6  0  0  0
 11 12  1  0  0  0  0
 13 14  1  1  0  0  0
 13 15  1  0  0  0  0
 13 21  1  0  0  0  0
 15 16  1  0  0  0  0
 16 17  1  1  0  0  0
 16 18  1  0  0  0  0
 18  2  1  6  0  0  0
 18 19  1  0  0  0  0
 19 20  1  1  0  0  0
 19 21  1  0  0  0  0
 21 22  1  6  0  0  0
 23 20  1  1  0  0  0
 23 24  1  0  0  0  0
 23 29  1  0  0  0  0
 24 25  1  6  0  0  0
 24 26  1  0  0  0  0
 26 27  1  6  0  0  0
 26 28  1  0  0  0  0
 28 29  1  0  0  0  0
 28 30  1  1  0  0  0
 30 31  1  0  0  0  0
 32 27  1  6  0  0  0
 32 33  1  0  0  0  0
 32 40  1  0  0  0  0
 33 34  1  6  0  0  0
 33 35  1  0  0  0  0
 35 36  1  1  0  0  0
 35 37  1  0  0  0  0
 37 38  1  6  0  0  0
 37 39  1  0  0  0  0
 39 40  1  0  0  0  0
 39 41  1  6  0  0  0
 41 42  1  0  0  0  0
M  CHG  5   4   1  14   1  17   1  34   1  42   1
M  END
>  <CHROM.1>
176.11427984,37.35975176,50.75978865,63.21307710,-179.57120974,171.14617909
-173.20609206,-168.97412446,158.97472058,130.10330724,101.62399968,65.60479048
64.46592024,174.52338914,-174.58357734,-51.83602098,65.76562075,-80.89551464
-59.20409392,176.89606470,-84.23644217,-115.19011781,28.89574770,6.57667761
57.63156501,2.48999128,-0.29246331,0.69638536

>  <Name>
1j7t

>  <RI>
0

>  <Rbt.Current_Directory>
/home/itssahil/PROJECTS/Mol_Feturizer/New_Systems/rnas/1j7t

>  <Rbt.Executable>
rbdock ($Id: //depot/dev/client3/rdock/2013.1/src/exe/rbdock.cxx#4 $)

>  <Rbt.Library>
libRbt.so (2013.1, Build901 2013/11/27)

>  <Rbt.Parameter_File>
/export/apps/rDock/src/rDock_2013.1_src/data/scripts/dock_solv.prm

>  <Rbt.Receptor>
prm/pocket_docking_8.prm

>  <SCORE>
-51.4602

>  <SCORE.INTER>
-35.7584

>  <SCORE.INTER.CONST>
1

>  <SCORE.INTER.POLAR>
-5.76503

>  <SCORE.INTER.ROT>
9

>  <SCORE.INTER.SOLV>
19.9904

>  <SCORE.INTER.VDW>
-20.8857

>  <SCORE.INTER.norm>
-0.851391

>  <SCORE.INTRA>
-15.7018

>  <SCORE.INTRA.DIHEDRAL>
-21.6066

>  <SCORE.INTRA.DIHEDRAL.0>
46.2143

>  <SCORE.INTRA.POLAR>
-1.36174

>  <SCORE.INTRA.POLAR.0>
-1.76436

>  <SCORE.INTRA.REPUL>
0.00426242

>  <SCORE.INTRA.REPUL.0>
0

>  <SCORE.INTRA.SOLV>
2.15873

>  <SCORE.INTRA.SOLV.lig_0>
-148.643

>  <SCORE.INTRA.VDW>
-1.36925

>  <SCORE.INTRA.VDW.0>
-4.83512

>  <SCORE.INTRA.norm>
-0.373852

>  <SCORE.RESTR>
0

>  <SCORE.RESTR.CAVITY>
0

>  <SCORE.RESTR.norm>
0

>  <SCORE.SYSTEM>
0

>  <SCORE.SYSTEM.CONST>
0

>  <SCORE.SYSTEM.DIHEDRAL>
0

>  <SCORE.SYSTEM.SOLV>
0

>  <SCORE.SYSTEM.norm>
0

>  <SCORE.heavy>
42

>  <SCORE.norm>
-1.22524

>  <RMSD>
7.821

$$$$
1j7t
 OpenBabel11021811393D
libRbt.so/2013.1/901 2013/11/27
 42 45  0  0  0  0  0  0  0  0999 V2000
   25.9087    5.4921   55.9790 C   0  0  2  0  0  0  0  0  0  0  0  0
   25.1383    4.4374   55.3493 O   0  0  0  0  0  0  0  0  0  0  0  0
   25.4930    6.8256   55.2942 C   0  0  2  0  0  0  0  0  0  0  0  0
   24.0244    7.0842   55.2842 N   0  3  0  0  0  0  0  0  0  0  0  0
   25.9788    6.7832   53.8289 C   0  0  1  0  0  0  0  0  0  0  0  0
   25.6455    7.9691   53.1641 O   0  0  0  0  0  0  0  0  0  0  0  0
   27.5065    6.5433   53.7832 C   0  0  2  0  0  0  0  0  0  0  0  0
   27.9758    6.5224   52.4496 O   0  0  0  0  0  0  0  0  0  0  0  0
   27.8398    5.2244   54.4475 C   0  0  2  0  0  0  0  0  0  0  0  0
   27.3320    5.2257   55.7757 O   0  0  0  0  0  0  0  0  0  0  0  0
   29.3272    4.9708   54.5485 C   0  0  0  0  0  0  0  0  0  0  0  0
   29.5501    3.6785   55.0791 O   0  0  0  0  0  0  0  0  0  0  0  0
   21.9037    2.0466   56.6416 C   0  0  2  0  0  0  0  0  0  0  0  0
   21.1053    1.0967   57.4172 N   0  3  0  0  0  0  0  0  0  0  0  0
   23.1401    1.3194   56.0163 C   0  0  0  0  0  0  0  0  0  0  0  0
   24.0098    2.3261   55.2393 C   0  0  2  0  0  0  0  0  0  0  0  0
   25.2024    1.6716   54.6912 N   0  3  0  0  0  0  0  0  0  0  0  0
   24.4391    3.4856   56.1597 C   0  0  2  0  0  0  0  0  0  0  0  0
   23.2411    4.2033   56.8116 C   0  0  2  0  0  0  0  0  0  0  0  0
   23.8016    5.1422   57.7495 O   0  0  0  0  0  0  0  0  0  0  0  0
   22.3400    3.1831   57.5525 C   0  0  1  0  0  0  0  0  0  0  0  0
   21.2084    3.8433   58.0492 O   0  0  0  0  0  0  0  0  0  0  0  0
   24.9480    4.8649   58.5497 C   0  0  1  0  0  0  0  0  0  0  0  0
   25.3264    6.1635   59.3475 C   0  0  2  0  0  0  0  0  0  0  0  0
   26.1961    7.0363   58.6468 O   0  0  0  0  0  0  0  0  0  0  0  0
   25.9410    5.4991   60.5714 C   0  0  2  0  0  0  0  0  0  0  0  0
   27.2011    4.8432   60.2371 O   0  0  0  0  0  0  0  0  0  0  0  0
   24.9298    4.4110   60.9041 C   0  0  2  0  0  0  0  0  0  0  0  0
   24.6360    3.9009   59.5921 O   0  0  0  0  0  0  0  0  0  0  0  0
   23.6529    4.9071   61.6587 C   0  0  0  0  0  0  0  0  0  0  0  0
   22.8081    5.6933   60.8090 O   0  0  0  0  0  0  0  0  0  0  0  0
   28.2432    5.7431   59.8686 C   0  0  2  0  0  0  0  0  0  0  0  0
   29.5913    5.0540   59.4663 C   0  0  2  0  0  0  0  0  0  0  0  0
   30.1458    4.1864   60.5494 N   0  3  0  0  0  0  0  0  0  0  0  0
   30.5900    6.1943   59.0763 C   0  0  1  0  0  0  0  0  0  0  0  0
   30.0289    6.8812   57.8927 O   0  0  0  0  0  0  0  0  0  0  0  0
   30.7825    7.2520   60.2320 C   0  0  2  0  0  0  0  0  0  0  0  0
   31.3806    6.5926   61.3599 O   0  0  0  0  0  0  0  0  0  0  0  0
   29.3615    7.8558   60.5899 C   0  0  1  0  0  0  0  0  0  0  0  0
   28.4857    6.7379   60.9595 O   0  0  0  0  0  0  0  0  0  0  0  0
   29.3772    8.9038   61.7259 C   0  0  0  0  0  0  0  0  0  0  0  0
   29.7678   10.2654   61.2696 N   0  3  0  0  0  0  0  0  0  0  0  0
  1  2  1  6  0  0  0
  1  3  1  0  0  0  0
  1 10  1  0  0  0  0
  3  4  1  6  0  0  0
  3  5  1  0  0  0  0
  5  6  1  1  0  0  0
  5  7  1  0  0  0  0
  7  8  1  6  0  0  0
  7  9  1  0  0  0  0
  9 10  1  0  0  0  0
  9 11  1  1  0  0  0
 11 12  1  0  0  0  0
 13 14  1  1  0  0  0
 13 15  1  0  0  0  0
 13 21  1  0  0  0  0
 15 16  1  0  0  0  0
 16 17  1  1  0  0  0
 16 18  1  0  0  0  0
 18  2  1  6  0  0  0
 18 19  1  0  0  0  0
 19 20  1  1  0  0  0
 19 21  1  0  0  0  0
 21 22  1  6  0  0  0
 23 20  1  6  0  0  0
 23 24  1  0  0  0  0
 23 29  1  0  0  0  0
 24 25  1  6  0  0  0
 24 26  1  0  0  0  0
 26 27  1  6  0  0  0
 26 28  1  0  0  0  0
 28 29  1  0  0  0  0
 28 30  1  6  0  0  0
 30 31  1  0  0  0  0
 32 27  1  1  0  0  0
 32 33  1  0  0  0  0
 32 40  1  0  0  0  0
 33 34  1  1  0  0  0
 33 35  1  0  0  0  0
 35 36  1  6  0  0  0
 35 37  1  0  0  0  0
 37 38  1  1  0  0  0
 37 39  1  0  0  0  0
 39 40  1  0  0  0  0
 39 41  1  1  0  0  0
 41 42  1  0  0  0  0
M  CHG  5   4   1  14   1  17   1  34   1  42   1
M  END
>  <CHROM.1>
-130.92911243,-166.77771435,30.95753883,-74.88144197,-54.70748662,-175.31488709
179.02063353,173.28336775,54.28759255,-38.09428336,175.18865905,-60.46204865
-37.98714799,66.85623745,-178.31314288,70.19611574,178.48829942,-178.66824370
-57.70600070,163.84147648,81.65526464,-119.97501214,26.33208837,5.30065476
57.72357196,-2.60420698,0.48331542,1.49206029

>  <Name>
1j7t

>  <RI>
0

>  <Rbt.Current_Directory>
/home/itssahil/PROJECTS/Mol_Feturizer/New_Systems/rnas/1j7t

>  <Rbt.Executable>
rbdock ($Id: //depot/dev/client3/rdock/2013.1/src/exe/rbdock.cxx#4 $)

>  <Rbt.Library>
libRbt.so (2013.1, Build901 2013/11/27)

>  <Rbt.Parameter_File>
/export/apps/rDock/src/rDock_2013.1_src/data/scripts/dock_solv.prm

>  <Rbt.Receptor>
prm/pocket_docking_6.prm

>  <SCORE>
-38.2218

>  <SCORE.INTER>
-26.8539

>  <SCORE.INTER.CONST>
1

>  <SCORE.INTER.POLAR>
-5.11274

>  <SCORE.INTER.ROT>
9

>  <SCORE.INTER.SOLV>
17.8599

>  <SCORE.INTER.VDW>
-16.4134

>  <SCORE.INTER.norm>
-0.639379

>  <SCORE.INTRA>
-11.3679

>  <SCORE.INTRA.DIHEDRAL>
-23.622

>  <SCORE.INTRA.DIHEDRAL.0>
46.2143

>  <SCORE.INTRA.POLAR>
0.432371

>  <SCORE.INTRA.POLAR.0>
-1.76436

>  <SCORE.INTRA.REPUL>
0.0120667

>  <SCORE.INTRA.REPUL.0>
0

>  <SCORE.INTRA.SOLV>
-2.71541

>  <SCORE.INTRA.SOLV.lig_0>
-148.643

>  <SCORE.INTRA.VDW>
0.270404

>  <SCORE.INTRA.VDW.0>
-4.83512

>  <SCORE.INTRA.norm>
-0.270664

>  <SCORE.RESTR>
0

>  <SCORE.RESTR.CAVITY>
0

>  <SCORE.RESTR.norm>
0

>  <SCORE.SYSTEM>
0

>  <SCORE.SYSTEM.CONST>
0

>  <SCORE.SYSTEM.DIHEDRAL>
0

>  <SCORE.SYSTEM.SOLV>
0

>  <SCORE.SYSTEM.norm>
0

>  <SCORE.heavy>
42

>  <SCORE.norm>
-0.910044

>  <RMSD>
7.864

$$$$
1j7t
 OpenBabel11021811393D
libRbt.so/2013.1/901 2013/11/27
 42 45  0  0  0  0  0  0  0  0999 V2000
   29.9031    8.8856   57.6890 C   0  0  2  0  0  0  0  0  0  0  0  0
   30.1616    7.8564   58.6772 O   0  0  0  0  0  0  0  0  0  0  0  0
   29.5950   10.1949   58.4707 C   0  0  2  0  0  0  0  0  0  0  0  0
   30.6322   10.5762   59.4718 N   0  3  0  0  0  0  0  0  0  0  0  0
   28.2584   10.0021   59.2199 C   0  0  1  0  0  0  0  0  0  0  0  0
   27.9203   11.1592   59.9314 O   0  0  0  0  0  0  0  0  0  0  0  0
   27.1383    9.6302   58.2196 C   0  0  2  0  0  0  0  0  0  0  0  0
   25.9001    9.4700   58.8831 O   0  0  0  0  0  0  0  0  0  0  0  0
   27.4912    8.3409   57.5089 C   0  0  2  0  0  0  0  0  0  0  0  0
   28.7562    8.4845   56.8755 O   0  0  0  0  0  0  0  0  0  0  0  0
   26.5008    7.9698   56.4279 C   0  0  0  0  0  0  0  0  0  0  0  0
   25.2642    7.6225   57.0207 O   0  0  0  0  0  0  0  0  0  0  0  0
   32.7971    4.5712   58.3451 C   0  0  2  0  0  0  0  0  0  0  0  0
   33.3532    3.2739   57.9591 N   0  3  0  0  0  0  0  0  0  0  0  0
   31.4787    4.3651   59.1624 C   0  0  0  0  0  0  0  0  0  0  0  0
   30.8638    5.7293   59.5289 C   0  0  2  0  0  0  0  0  0  0  0  0
   29.5983    5.5548   60.2494 N   0  3  0  0  0  0  0  0  0  0  0  0
   30.6184    6.5653   58.2575 C   0  0  2  0  0  0  0  0  0  0  0  0
   31.8958    6.7613   57.4178 C   0  0  2  0  0  0  0  0  0  0  0  0
   31.4781    7.4152   56.2040 O   0  0  0  0  0  0  0  0  0  0  0  0
   32.5408    5.3908   57.0904 C   0  0  1  0  0  0  0  0  0  0  0  0
   33.7504    5.6004   56.4151 O   0  0  0  0  0  0  0  0  0  0  0  0
   30.9565    6.7188   55.0752 C   0  0  1  0  0  0  0  0  0  0  0  0
   30.3602    7.7692   54.0718 C   0  0  2  0  0  0  0  0  0  0  0  0
   29.0048    8.0994   54.3224 O   0  0  0  0  0  0  0  0  0  0  0  0
   30.6004    7.0010   52.7797 C   0  0  2  0  0  0  0  0  0  0  0  0
   29.7401    5.8249   52.6991 O   0  0  0  0  0  0  0  0  0  0  0  0
   32.0331    6.5131   52.9425 C   0  0  2  0  0  0  0  0  0  0  0  0
   32.0214    6.0849   54.3152 O   0  0  0  0  0  0  0  0  0  0  0  0
   33.1317    7.5884   52.6551 C   0  0  0  0  0  0  0  0  0  0  0  0
   33.0056    8.1344   51.3360 O   0  0  0  0  0  0  0  0  0  0  0  0
   29.7735    5.1678   51.4347 C   0  0  2  0  0  0  0  0  0  0  0  0
   28.5508    4.2301   51.1518 C   0  0  2  0  0  0  0  0  0  0  0  0
   28.3908    3.1583   52.1809 N   0  3  0  0  0  0  0  0  0  0  0  0
   28.7570    3.6273   49.7222 C   0  0  1  0  0  0  0  0  0  0  0  0
   28.7308    4.7542   48.7646 O   0  0  0  0  0  0  0  0  0  0  0  0
   30.1348    2.8710   49.5770 C   0  0  2  0  0  0  0  0  0  0  0  0
   30.1333    1.7437   50.4679 O   0  0  0  0  0  0  0  0  0  0  0  0
   31.2969    3.8918   49.9229 C   0  0  1  0  0  0  0  0  0  0  0  0
   31.0492    4.4025   51.2761 O   0  0  0  0  0  0  0  0  0  0  0  0
   32.7203    3.2948   49.8430 C   0  0  0  0  0  0  0  0  0  0  0  0
   33.1129    2.8828   48.4679 N   0  3  0  0  0  0  0  0  0  0  0  0
  1  2  1  1  0  0  0
  1  3  1  0  0  0  0
  1 10  1  0  0  0  0
  3  4  1  1  0  0  0
  3  5  1  0  0  0  0
  5  6  1  6  0  0  0
  5  7  1  0  0  0  0
  7  8  1  1  0  0  0
  7  9  1  0  0  0  0
  9 10  1  0  0  0  0
  9 11  1  6  0  0  0
 11 12  1  0  0  0  0
 13 14  1  6  0  0  0
 13 15  1  0  0  0  0
 13 21  1  0  0  0  0
 15 16  1  0  0  0  0
 16 17  1  6  0  0  0
 16 18  1  0  0  0  0
 18  2  1  1  0  0  0
 18 19  1  0  0  0  0
 19 20  1  6  0  0  0
 19 21  1  0  0  0  0
 21 22  1  1  0  0  0
 23 20  1  1  0  0  0
 23 24  1  0  0  0  0
 23 29  1  0  0  0  0
 24 25  1  1  0  0  0
 24 26  1  0  0  0  0
 26 27  1  1  0  0  0
 26 28  1  0  0  0  0
 28 29  1  0  0  0  0
 28 30  1  1  0  0  0
 30 31  1  0  0  0  0
 32 27  1  1  0  0  0
 32 33  1  0  0  0  0
 32 40  1  0  0  0  0
 33 34  1  1  0  0  0
 33 35  1  0  0  0  0
 35 36  1  6  0  0  0
 35 37  1  0  0  0  0
 37 38  1  1  0  0  0
 37 39  1  0  0  0  0
 39 40  1  0  0  0  0
 39 41  1  1  0  0  0
 41 42  1  0  0  0  0
M  CHG  5   4   1  14   1  17   1  34   1  42   1
M  END
>  <CHROM.1>
-173.29300950,177.31115121,-41.23098780,-179.74180309,-170.73045376,-68.21439693
-60.41272020,69.22567825,-43.04416310,-83.80370149,169.14929737,-65.78198164
163.37296577,171.45167744,-160.51899913,-57.01718632,-42.58908526,168.35301744
-57.39118843,-179.19416088,65.08290085,171.47036933,30.20983286,6.40035256
55.04383195,1.80074252,-0.52020277,1.18776198

>  <Name>
1j7t

>  <RI>
224

>  <Rbt.Current_Directory>
/home/itssahil/PROJECTS/Mol_Feturizer/New_Systems/rnas/1j7t

>  <Rbt.Executable>
rbdock ($Id: //depot/dev/client3/rdock/2013.1/src/exe/rbdock.cxx#4 $)

>  <Rbt.Library>
libRbt.so (2013.1, Build901 2013/11/27)

>  <Rbt.Parameter_File>
/export/apps/rDock/src/rDock_2013.1_src/data/scripts/dock_solv.prm

>  <Rbt.Receptor>
prm/pocket_docking_7.prm

>  <SCORE>
-38.9955

>  <SCORE.INTER>
-21.6942

>  <SCORE.INTER.CONST>
1

>  <SCORE.INTER.POLAR>
-4.18495

>  <SCORE.INTER.ROT>
9

>  <SCORE.INTER.SOLV>
14.9175

>  <SCORE.INTER.VDW>
-15.0854

>  <SCORE.INTER.norm>
-0.516528

>  <SCORE.INTRA>
-17.3013

>  <SCORE.INTRA.DIHEDRAL>
-34.4117

>  <SCORE.INTRA.DIHEDRAL.0>
46.2143

>  <SCORE.INTRA.POLAR>
0.407521

>  <SCORE.INTRA.POLAR.0>
-1.76436

>  <SCORE.INTRA.REPUL>
0.0568577

>  <SCORE.INTRA.REPUL.0>
0

>  <SCORE.INTRA.SOLV>
-5.69259

>  <SCORE.INTRA.SOLV.lig_0>
-148.643

>  <SCORE.INTRA.VDW>
1.08102

>  <SCORE.INTRA.VDW.0>
-4.83512

>  <SCORE.INTRA.norm>
-0.411935

>  <SCORE.RESTR>
0

>  <SCORE.RESTR.CAVITY>
0

>  <SCORE.RESTR.norm>
0

>  <SCORE.SYSTEM>
0

>  <SCORE.SYSTEM.CONST>
0

>  <SCORE.SYSTEM.DIHEDRAL>
0

>  <SCORE.SYSTEM.SOLV>
0

>  <SCORE.SYSTEM.norm>
0

>  <SCORE.heavy>
42

>  <SCORE.norm>
-0.928463

>  <RMSD>
7.872

$$$$
1j7t
 OpenBabel11021811393D
libRbt.so/2013.1/901 2013/11/27
 42 45  0  0  0  0  0  0  0  0999 V2000
   27.8187    7.2598   59.7890 C   0  0  2  0  0  0  0  0  0  0  0  0
   28.2129    5.8789   59.9895 O   0  0  0  0  0  0  0  0  0  0  0  0
   27.0288    7.6926   61.0573 C   0  0  2  0  0  0  0  0  0  0  0  0
   27.7466    7.4579   62.3431 N   0  3  0  0  0  0  0  0  0  0  0  0
   25.7089    6.8918   61.0960 C   0  0  1  0  0  0  0  0  0  0  0  0
   24.9454    7.2527   62.2124 O   0  0  0  0  0  0  0  0  0  0  0  0
   24.9099    7.1227   59.7914 C   0  0  2  0  0  0  0  0  0  0  0  0
   23.6863    6.4145   59.8154 O   0  0  0  0  0  0  0  0  0  0  0  0
   25.7256    6.6642   58.6013 C   0  0  2  0  0  0  0  0  0  0  0  0
   26.9747    7.3438   58.5979 O   0  0  0  0  0  0  0  0  0  0  0  0
   25.0612    6.9645   57.2763 C   0  0  0  0  0  0  0  0  0  0  0  0
   25.8926    6.5216   56.2210 O   0  0  0  0  0  0  0  0  0  0  0  0
   31.4954    3.5336   58.7353 C   0  0  2  0  0  0  0  0  0  0  0  0
   32.4752    2.8673   57.8766 N   0  3  0  0  0  0  0  0  0  0  0  0
   30.0587    2.9997   58.4200 C   0  0  0  0  0  0  0  0  0  0  0  0
   29.0185    3.7338   59.2876 C   0  0  2  0  0  0  0  0  0  0  0  0
   27.6601    3.2836   58.9667 N   0  3  0  0  0  0  0  0  0  0  0  0
   29.1184    5.2565   59.0707 C   0  0  2  0  0  0  0  0  0  0  0  0
   30.5313    5.8061   59.3477 C   0  0  2  0  0  0  0  0  0  0  0  0
   30.5040    7.1916   58.9542 O   0  0  0  0  0  0  0  0  0  0  0  0
   31.5832    5.0348   58.5107 C   0  0  1  0  0  0  0  0  0  0  0  0
   32.8650    5.4837   58.8548 O   0  0  0  0  0  0  0  0  0  0  0  0
   30.5990    7.6264   57.6002 C   0  0  1  0  0  0  0  0  0  0  0  0
   29.2417    7.3089   56.8771 C   0  0  2  0  0  0  0  0  0  0  0  0
   29.1806    6.0103   56.3123 O   0  0  0  0  0  0  0  0  0  0  0  0
   29.2611    8.4443   55.8632 C   0  0  2  0  0  0  0  0  0  0  0  0
   30.3104    8.2440   54.8690 O   0  0  0  0  0  0  0  0  0  0  0  0
   29.6551    9.6443   56.7130 C   0  0  2  0  0  0  0  0  0  0  0  0
   30.6979    9.0747   57.5228 O   0  0  0  0  0  0  0  0  0  0  0  0
   28.4957   10.2569   57.5651 C   0  0  0  0  0  0  0  0  0  0  0  0
   27.3863   10.6475   56.7462 O   0  0  0  0  0  0  0  0  0  0  0  0
   29.9359    7.3833   53.7963 C   0  0  2  0  0  0  0  0  0  0  0  0
   30.9338    7.3701   52.5887 C   0  0  2  0  0  0  0  0  0  0  0  0
   31.1404    8.7243   51.9914 N   0  3  0  0  0  0  0  0  0  0  0  0
   30.3668    6.3592   51.5369 C   0  0  1  0  0  0  0  0  0  0  0  0
   30.3627    5.0235   52.1723 O   0  0  0  0  0  0  0  0  0  0  0  0
   28.8946    6.7122   51.0903 C   0  0  2  0  0  0  0  0  0  0  0  0
   28.9124    7.9846   50.4228 O   0  0  0  0  0  0  0  0  0  0  0  0
   27.9797    6.7402   52.3841 C   0  0  1  0  0  0  0  0  0  0  0  0
   28.5589    7.7156   53.3149 O   0  0  0  0  0  0  0  0  0  0  0  0
   26.4986    7.0912   52.1153 C   0  0  0  0  0  0  0  0  0  0  0  0
   25.7784    7.5819   53.3216 N   0  3  0  0  0  0  0  0  0  0  0  0
  1  2  1  1  0  0  0
  1  3  1  0  0  0  0
  1 10  1  0  0  0  0
  3  4  1  1  0  0  0
  3  5  1  0  0  0  0
  5  6  1  1  0  0  0
  5  7  1  0  0  0  0
  7  8  1  1  0  0  0
  7  9  1  0  0  0  0
  9 10  1  0  0  0  0
  9 11  1  6  0  0  0
 11 12  1  0  0  0  0
 13 14  1  6  0  0  0
 13 15  1  0  0  0  0
 13 21  1  0  0  0  0
 15 16  1  0  0  0  0
 16 17  1  6  0  0  0
 16 18  1  0  0  0  0
 18  2  1  1  0  0  0
 18 19  1  0  0  0  0
 19 20  1  6  0  0  0
 19 21  1  0  0  0  0
 21 22  1  1  0  0  0
 23 20  1  1  0  0  0
 23 24  1  0  0  0  0
 23 29  1  0  0  0  0
 24 25  1  6  0  0  0
 24 26  1  0  0  0  0
 26 27  1  6  0  0  0
 26 28  1  0  0  0  0
 28 29  1  0  0  0  0
 28 30  1  1  0  0  0
 30 31  1  0  0  0  0
 32 27  1  1  0  0  0
 32 33  1  0  0  0  0
 32 40  1  0  0  0  0
 33 34  1  6  0  0  0
 33 35  1  0  0  0  0
 35 36  1  1  0  0  0
 35 37  1  0  0  0  0
 37 38  1  1  0  0  0
 37 39  1  0  0  0  0
 39 40  1  0  0  0  0
 39 41  1  6  0  0  0
 41 42  1  0  0  0  0
M  CHG  5   4   1  14   1  17   1  34   1  42   1
M  END
>  <CHROM.1>
-171.22491782,-163.58923872,-154.39102388,82.80522496,173.63155669,179.25981324
67.57205752,103.27144625,-175.38275417,-78.96712596,73.25831712,-57.08759076
-51.99811658,83.31983878,168.87708266,-56.92440286,-43.91710933,165.15439246
-64.92004180,73.25413143,-159.49344404,77.38380003,28.63124154,6.78127273
56.88292208,1.87430561,-0.46571593,1.83443942

>  <Name>
1j7t

>  <RI>
0

>  <Rbt.Current_Directory>
/home/itssahil/PROJECTS/Mol_Feturizer/New_Systems/rnas/1j7t

>  <Rbt.Executable>
rbdock ($Id: //depot/dev/client3/rdock/2013.1/src/exe/rbdock.cxx#4 $)

>  <Rbt.Library>
libRbt.so (2013.1, Build901 2013/11/27)

>  <Rbt.Parameter_File>
/export/apps/rDock/src/rDock_2013.1_src/data/scripts/dock_solv.prm

>  <Rbt.Receptor>
prm/pocket_docking_5.prm

>  <SCORE>
-55.0487

>  <SCORE.INTER>
-39.4412

>  <SCORE.INTER.CONST>
1

>  <SCORE.INTER.POLAR>
-6.86652

>  <SCORE.INTER.ROT>
9

>  <SCORE.INTER.SOLV>
18.584

>  <SCORE.INTER.VDW>
-19.2003

>  <SCORE.INTER.norm>
-0.939075

>  <SCORE.INTRA>
-15.6076

>  <SCORE.INTRA.DIHEDRAL>
-26.3379

>  <SCORE.INTRA.DIHEDRAL.0>
46.2143

>  <SCORE.INTRA.POLAR>
-0.183153

>  <SCORE.INTRA.POLAR.0>
-1.76436

>  <SCORE.INTRA.REPUL>
0

>  <SCORE.INTRA.REPUL.0>
0

>  <SCORE.INTRA.SOLV>
-1.12031

>  <SCORE.INTRA.SOLV.lig_0>
-148.643

>  <SCORE.INTRA.VDW>
-1.25574

>  <SCORE.INTRA.VDW.0>
-4.83512

>  <SCORE.INTRA.norm>
-0.371608

>  <SCORE.RESTR>
0

>  <SCORE.RESTR.CAVITY>
0

>  <SCORE.RESTR.norm>
0

>  <SCORE.SYSTEM>
0

>  <SCORE.SYSTEM.CONST>
0

>  <SCORE.SYSTEM.DIHEDRAL>
0

>  <SCORE.SYSTEM.SOLV>
0

>  <SCORE.SYSTEM.norm>
0

>  <SCORE.heavy>
42

>  <SCORE.norm>
-1.31068

>  <RMSD>
7.905

$$$$
1j7t
 OpenBabel11021811393D
libRbt.so/2013.1/901 2013/11/27
 42 45  0  0  0  0  0  0  0  0999 V2000
   30.2199   12.0173   47.9627 C   0  0  2  0  0  0  0  0  0  0  0  0
   31.1512   13.1201   48.1006 O   0  0  0  0  0  0  0  0  0  0  0  0
   30.3223   11.5210   46.4919 C   0  0  2  0  0  0  0  0  0  0  0  0
   31.7064   11.1923   46.0450 N   0  3  0  0  0  0  0  0  0  0  0  0
   29.7768   12.6347   45.5715 C   0  0  1  0  0  0  0  0  0  0  0  0
   29.8292   12.2363   44.2306 O   0  0  0  0  0  0  0  0  0  0  0  0
   28.3280   12.9956   45.9768 C   0  0  2  0  0  0  0  0  0  0  0  0
   27.8015   13.9997   45.1320 O   0  0  0  0  0  0  0  0  0  0  0  0
   28.3023   13.4876   47.4084 C   0  0  2  0  0  0  0  0  0  0  0  0
   28.8701   12.4971   48.2559 O   0  0  0  0  0  0  0  0  0  0  0  0
   26.9035   13.7506   47.9196 C   0  0  0  0  0  0  0  0  0  0  0  0
   26.2837   14.7334   47.1126 O   0  0  0  0  0  0  0  0  0  0  0  0
   35.0537   11.5772   47.6124 C   0  0  2  0  0  0  0  0  0  0  0  0
   36.4569   11.2503   47.8679 N   0  3  0  0  0  0  0  0  0  0  0  0
   34.8719   13.1296   47.5387 C   0  0  0  0  0  0  0  0  0  0  0  0
   33.3878   13.4794   47.3185 C   0  0  2  0  0  0  0  0  0  0  0  0
   33.1911   14.9327   47.3006 N   0  3  0  0  0  0  0  0  0  0  0  0
   32.5202   12.8587   48.4309 C   0  0  2  0  0  0  0  0  0  0  0  0
   32.7000   11.3323   48.5446 C   0  0  2  0  0  0  0  0  0  0  0  0
   31.9576   10.9296   49.7116 O   0  0  0  0  0  0  0  0  0  0  0  0
   34.1987   10.9778   48.7176 C   0  0  1  0  0  0  0  0  0  0  0  0
   34.3456    9.5844   48.7171 O   0  0  0  0  0  0  0  0  0  0  0  0
   31.9916    9.6097   50.2484 C   0  0  1  0  0  0  0  0  0  0  0  0
   31.9957    9.7077   51.8157 C   0  0  2  0  0  0  0  0  0  0  0  0
   33.2900    9.8240   52.3816 O   0  0  0  0  0  0  0  0  0  0  0  0
   31.2826    8.3977   52.1203 C   0  0  2  0  0  0  0  0  0  0  0  0
   32.1196    7.2516   51.7804 O   0  0  0  0  0  0  0  0  0  0  0  0
   30.1135    8.4192   51.1457 C   0  0  2  0  0  0  0  0  0  0  0  0
   30.7611    8.8942   49.9529 O   0  0  0  0  0  0  0  0  0  0  0  0
   28.9111    9.3203   51.5794 C   0  0  0  0  0  0  0  0  0  0  0  0
   28.9079   10.5712   50.8799 O   0  0  0  0  0  0  0  0  0  0  0  0
   33.2775    7.1158   52.6003 C   0  0  2  0  0  0  0  0  0  0  0  0
   34.4469    6.2997   51.9517 C   0  0  2  0  0  0  0  0  0  0  0  0
   34.0417    4.9154   51.5605 N   0  3  0  0  0  0  0  0  0  0  0  0
   35.6223    6.2833   52.9851 C   0  0  1  0  0  0  0  0  0  0  0  0
   36.0593    7.6839   53.1725 O   0  0  0  0  0  0  0  0  0  0  0  0
   35.1898    5.6960   54.3848 C   0  0  2  0  0  0  0  0  0  0  0  0
   34.8204    4.3186   54.2079 O   0  0  0  0  0  0  0  0  0  0  0  0
   33.9809    6.5630   54.9315 C   0  0  1  0  0  0  0  0  0  0  0  0
   32.9147    6.5207   53.9242 O   0  0  0  0  0  0  0  0  0  0  0  0
   33.4261    6.1008   56.2981 C   0  0  0  0  0  0  0  0  0  0  0  0
   34.3492    6.3714   57.4336 N   0  3  0  0  0  0  0  0  0  0  0  0
  1  2  1  6  0  0  0
  1  3  1  0  0  0  0
  1 10  1  0  0  0  0
  3  4  1  6  0  0  0
  3  5  1  0  0  0  0
  5  6  1  6  0  0  0
  5  7  1  0  0  0  0
  7  8  1  6  0  0  0
  7  9  1  0  0  0  0
  9 10  1  0  0  0  0
  9 11  1  1  0  0  0
 11 12  1  0  0  0  0
 13 14  1  1  0  0  0
 13 15  1  0  0  0  0
 13 21  1  0  0  0  0
 15 16  1  0  0  0  0
 16 17  1  1  0  0  0
 16 18  1  0  0  0  0
 18  2  1  6  0  0  0
 18 19  1  0  0  0  0
 19 20  1  1  0  0  0
 19 21  1  0  0  0  0
 21 22  1  6  0  0  0
 23 20  1  6  0  0  0
 23 24  1  0  0  0  0
 23 29  1  0  0  0  0
 24 25  1  1  0  0  0
 24 26  1  0  0  0  0
 26 27  1  6  0  0  0
 26 28  1  0  0  0  0
 28 29  1  0  0  0  0
 28 30  1  1  0  0  0
 30 31  1  0  0  0  0
 32 27  1  6  0  0  0
 32 33  1  0  0  0  0
 32 40  1  0  0  0  0
 33 34  1  1  0  0  0
 33 35  1  0  0  0  0
 35 36  1  1  0  0  0
 35 37  1  0  0  0  0
 37 38  1  6  0  0  0
 37 39  1  0  0  0  0
 39 40  1  0  0  0  0
 39 41  1  1  0  0  0
 41 42  1  0  0  0  0
M  CHG  5   4   1  14   1  17   1  34   1  42   1
M  END
>  <CHROM.1>
-86.73108428,122.99490781,-52.12454497,-136.73584006,-169.34304995,-59.76998406
-172.20581775,69.92151710,170.89091022,-172.80027963,140.96533541,65.61188972
107.88307572,67.20506823,-156.95432396,101.70482596,66.53438955,-73.47963642
135.44579010,-178.46997710,70.72019867,-5.96972794,32.04407185,10.09882189
49.93554970,1.99462238,0.12560409,-0.87582672

>  <Name>
1j7t

>  <RI>
0

>  <Rbt.Current_Directory>
/home/itssahil/PROJECTS/Mol_Feturizer/New_Systems/rnas/1j7t

>  <Rbt.Executable>
rbdock ($Id: //depot/dev/client3/rdock/2013.1/src/exe/rbdock.cxx#4 $)

>  <Rbt.Library>
libRbt.so (2013.1, Build901 2013/11/27)

>  <Rbt.Parameter_File>
/export/apps/rDock/src/rDock_2013.1_src/data/scripts/dock_solv.prm

>  <Rbt.Receptor>
prm/blind_docking_80.prm

>  <SCORE>
7.13366

>  <SCORE.INTER>
-20.9696

>  <SCORE.INTER.CONST>
1

>  <SCORE.INTER.POLAR>
-3.73305

>  <SCORE.INTER.ROT>
9

>  <SCORE.INTER.SOLV>
39.7063

>  <SCORE.INTER.VDW>
-24.3717

>  <SCORE.INTER.norm>
-0.499277

>  <SCORE.INTRA>
10.3549

>  <SCORE.INTRA.DIHEDRAL>
0.756288

>  <SCORE.INTRA.DIHEDRAL.0>
46.2143

>  <SCORE.INTRA.POLAR>
0.214185

>  <SCORE.INTRA.POLAR.0>
-1.76436

>  <SCORE.INTRA.REPUL>
0

>  <SCORE.INTRA.REPUL.0>
0

>  <SCORE.INTRA.SOLV>
1.45991

>  <SCORE.INTRA.SOLV.lig_0>
-148.643

>  <SCORE.INTRA.VDW>
8.51853

>  <SCORE.INTRA.VDW.0>
-4.83512

>  <SCORE.INTRA.norm>
0.246544

>  <SCORE.RESTR>
17.7484

>  <SCORE.RESTR.CAVITY>
17.7484

>  <SCORE.RESTR.norm>
0.422582

>  <SCORE.SYSTEM>
0

>  <SCORE.SYSTEM.CONST>
0

>  <SCORE.SYSTEM.DIHEDRAL>
0

>  <SCORE.SYSTEM.SOLV>
0

>  <SCORE.SYSTEM.norm>
0

>  <SCORE.heavy>
42

>  <SCORE.norm>
0.169849

>  <RMSD>
7.906

$$$$
1j7t
 OpenBabel11021811393D
libRbt.so/2013.1/901 2013/11/27
 42 45  0  0  0  0  0  0  0  0999 V2000
   30.2852   14.2113   47.4919 C   0  0  2  0  0  0  0  0  0  0  0  0
   30.2983   13.6864   48.8435 O   0  0  0  0  0  0  0  0  0  0  0  0
   29.2456   13.3744   46.6925 C   0  0  2  0  0  0  0  0  0  0  0  0
   27.8941   13.3053   47.3188 N   0  3  0  0  0  0  0  0  0  0  0  0
   29.7860   11.9333   46.5665 C   0  0  1  0  0  0  0  0  0  0  0  0
   28.8959   11.1344   45.8392 O   0  0  0  0  0  0  0  0  0  0  0  0
   31.1800   11.9462   45.8955 C   0  0  2  0  0  0  0  0  0  0  0  0
   31.6842   10.6332   45.7508 O   0  0  0  0  0  0  0  0  0  0  0  0
   32.1453   12.7594   46.7316 C   0  0  2  0  0  0  0  0  0  0  0  0
   31.6210   14.0684   46.9147 O   0  0  0  0  0  0  0  0  0  0  0  0
   33.5022   12.9188   46.0832 C   0  0  0  0  0  0  0  0  0  0  0  0
   34.4412   12.0941   46.7461 O   0  0  0  0  0  0  0  0  0  0  0  0
   34.4560   13.5021   49.5699 C   0  0  2  0  0  0  0  0  0  0  0  0
   35.7430   13.5071   50.2664 N   0  3  0  0  0  0  0  0  0  0  0  0
   33.7488   14.8869   49.7450 C   0  0  0  0  0  0  0  0  0  0  0  0
   32.3717   14.8695   49.0544 C   0  0  2  0  0  0  0  0  0  0  0  0
   31.6714   16.1425   49.2545 N   0  3  0  0  0  0  0  0  0  0  0  0
   31.5094   13.7180   49.6077 C   0  0  2  0  0  0  0  0  0  0  0  0
   32.1938   12.3437   49.4732 C   0  0  2  0  0  0  0  0  0  0  0  0
   31.3467   11.4073   50.1667 O   0  0  0  0  0  0  0  0  0  0  0  0
   33.5992   12.3757   50.1256 C   0  0  1  0  0  0  0  0  0  0  0  0
   34.2389   11.1493   49.9021 O   0  0  0  0  0  0  0  0  0  0  0  0
   31.7053   10.0483   50.4030 C   0  0  1  0  0  0  0  0  0  0  0  0
   31.7630    9.8092   51.9540 C   0  0  2  0  0  0  0  0  0  0  0  0
   33.0230   10.0997   52.5345 O   0  0  0  0  0  0  0  0  0  0  0  0
   31.3813    8.3356   51.9642 C   0  0  2  0  0  0  0  0  0  0  0  0
   32.4391    7.5140   51.3846 O   0  0  0  0  0  0  0  0  0  0  0  0
   30.1920    8.2918   51.0150 C   0  0  2  0  0  0  0  0  0  0  0  0
   30.6565    9.1465   49.9559 O   0  0  0  0  0  0  0  0  0  0  0  0
   28.8390    8.7761   51.6319 C   0  0  0  0  0  0  0  0  0  0  0  0
   27.7207    8.0800   51.0673 O   0  0  0  0  0  0  0  0  0  0  0  0
   33.5278    7.2619   52.2692 C   0  0  2  0  0  0  0  0  0  0  0  0
   34.5995    6.2601   51.7194 C   0  0  2  0  0  0  0  0  0  0  0  0
   34.0223    4.9269   51.3691 N   0  3  0  0  0  0  0  0  0  0  0  0
   35.7125    6.1345   52.8126 C   0  0  1  0  0  0  0  0  0  0  0  0
   36.3327    7.4691   52.9605 O   0  0  0  0  0  0  0  0  0  0  0  0
   35.1383    5.6847   54.2123 C   0  0  2  0  0  0  0  0  0  0  0  0
   34.5878    4.3643   54.0774 O   0  0  0  0  0  0  0  0  0  0  0  0
   34.0394    6.7370   54.6561 C   0  0  1  0  0  0  0  0  0  0  0  0
   33.0249    6.7909   53.5972 O   0  0  0  0  0  0  0  0  0  0  0  0
   33.3634    6.4263   56.0109 C   0  0  0  0  0  0  0  0  0  0  0  0
   34.3291    6.2734   57.1328 N   0  3  0  0  0  0  0  0  0  0  0  0
  1  2  1  1  0  0  0
  1  3  1  0  0  0  0
  1 10  1  0  0  0  0
  3  4  1  1  0  0  0
  3  5  1  0  0  0  0
  5  6  1  6  0  0  0
  5  7  1  0  0  0  0
  7  8  1  1  0  0  0
  7  9  1  0  0  0  0
  9 10  1  0  0  0  0
  9 11  1  6  0  0  0
 11 12  1  0  0  0  0
 13 14  1  1  0  0  0
 13 15  1  0  0  0  0
 13 21  1  0  0  0  0
 15 16  1  0  0  0  0
 16 17  1  1  0  0  0
 16 18  1  0  0  0  0
 18  2  1  6  0  0  0
 18 19  1  0  0  0  0
 19 20  1  1  0  0  0
 19 21  1  0  0  0  0
 21 22  1  6  0  0  0
 23 20  1  1  0  0  0
 23 24  1  0  0  0  0
 23 29  1  0  0  0  0
 24 25  1  6  0  0  0
 24 26  1  0  0  0  0
 26 27  1  6  0  0  0
 26 28  1  0  0  0  0
 28 29  1  0  0  0  0
 28 30  1  1  0  0  0
 30 31  1  0  0  0  0
 32 27  1  6  0  0  0
 32 33  1  0  0  0  0
 32 40  1  0  0  0  0
 33 34  1  1  0  0  0
 33 35  1  0  0  0  0
 35 36  1  1  0  0  0
 35 37  1  0  0  0  0
 37 38  1  6  0  0  0
 37 39  1  0  0  0  0
 39 40  1  0  0  0  0
 39 41  1  1  0  0  0
 41 42  1  0  0  0  0
M  CHG  5   4   1  14   1  17   1  34   1  42   1
M  END
>  <CHROM.1>
148.33233644,25.43019143,81.14420854,64.14970494,-64.05206604,-105.95036765
178.39068443,51.78464143,-165.03923513,-172.68020599,118.49868602,-45.04092352
-165.41039458,78.99222430,173.86741357,-147.86139325,177.77923699,49.98532759
-20.78310311,84.48457181,55.54857933,-82.64770304,32.34550062,10.31365358
50.26425913,1.88249068,-0.39284202,-0.60896744

>  <Name>
1j7t

>  <RI>
0

>  <Rbt.Current_Directory>
/home/itssahil/PROJECTS/Mol_Feturizer/New_Systems/rnas/1j7t

>  <Rbt.Executable>
rbdock ($Id: //depot/dev/client3/rdock/2013.1/src/exe/rbdock.cxx#4 $)

>  <Rbt.Library>
libRbt.so (2013.1, Build901 2013/11/27)

>  <Rbt.Parameter_File>
/export/apps/rDock/src/rDock_2013.1_src/data/scripts/dock_solv.prm

>  <Rbt.Receptor>
prm/blind_docking_80.prm

>  <SCORE>
-7.43307

>  <SCORE.INTER>
-30.463

>  <SCORE.INTER.CONST>
1

>  <SCORE.INTER.POLAR>
-5.45835

>  <SCORE.INTER.ROT>
9

>  <SCORE.INTER.SOLV>
42.8539

>  <SCORE.INTER.VDW>
-25.9988

>  <SCORE.INTER.norm>
-0.725309

>  <SCORE.INTRA>
4.01448

>  <SCORE.INTRA.DIHEDRAL>
-7.62927

>  <SCORE.INTRA.DIHEDRAL.0>
46.2143

>  <SCORE.INTRA.POLAR>
0.703623

>  <SCORE.INTRA.POLAR.0>
-1.76436

>  <SCORE.INTRA.REPUL>
0.17576

>  <SCORE.INTRA.REPUL.0>
0

>  <SCORE.INTRA.SOLV>
-3.03761

>  <SCORE.INTRA.SOLV.lig_0>
-148.643

>  <SCORE.INTRA.VDW>
6.0768

>  <SCORE.INTRA.VDW.0>
-4.83512

>  <SCORE.INTRA.norm>
0.0955828

>  <SCORE.RESTR>
19.0154

>  <SCORE.RESTR.CAVITY>
19.0154

>  <SCORE.RESTR.norm>
0.452749

>  <SCORE.SYSTEM>
0

>  <SCORE.SYSTEM.CONST>
0

>  <SCORE.SYSTEM.DIHEDRAL>
0

>  <SCORE.SYSTEM.SOLV>
0

>  <SCORE.SYSTEM.norm>
0

>  <SCORE.heavy>
42

>  <SCORE.norm>
-0.176978

>  <RMSD>
7.907

$$$$
1j7t
 OpenBabel11021811393D
libRbt.so/2013.1/901 2013/11/27
 42 45  0  0  0  0  0  0  0  0999 V2000
   31.9406   14.1120   47.2705 C   0  0  2  0  0  0  0  0  0  0  0  0
   32.3531   13.7264   48.6060 O   0  0  0  0  0  0  0  0  0  0  0  0
   30.5565   14.8086   47.4089 C   0  0  2  0  0  0  0  0  0  0  0  0
   30.5242   15.9307   48.3904 N   0  3  0  0  0  0  0  0  0  0  0  0
   29.5301   13.7484   47.8640 C   0  0  1  0  0  0  0  0  0  0  0  0
   28.2570   14.3165   47.9904 O   0  0  0  0  0  0  0  0  0  0  0  0
   29.5043   12.5703   46.8615 C   0  0  2  0  0  0  0  0  0  0  0  0
   28.5544   11.5972   47.2486 O   0  0  0  0  0  0  0  0  0  0  0  0
   30.8728   11.9270   46.7891 C   0  0  2  0  0  0  0  0  0  0  0  0
   31.8373   12.9122   46.4411 O   0  0  0  0  0  0  0  0  0  0  0  0
   30.9618   10.8393   45.7421 C   0  0  0  0  0  0  0  0  0  0  0  0
   31.1646   11.4248   44.4703 O   0  0  0  0  0  0  0  0  0  0  0  0
   35.6015   11.2114   47.6207 C   0  0  2  0  0  0  0  0  0  0  0  0
   36.8493   10.4539   47.7246 N   0  3  0  0  0  0  0  0  0  0  0  0
   35.8902   12.7407   47.7832 C   0  0  0  0  0  0  0  0  0  0  0  0
   34.5731   13.5377   47.7233 C   0  0  2  0  0  0  0  0  0  0  0  0
   34.8195   14.9690   47.9277 N   0  3  0  0  0  0  0  0  0  0  0  0
   33.5897   13.0289   48.7955 C   0  0  2  0  0  0  0  0  0  0  0  0
   33.3081   11.5184   48.6764 C   0  0  2  0  0  0  0  0  0  0  0  0
   32.5107   11.1701   49.8246 O   0  0  0  0  0  0  0  0  0  0  0  0
   34.6364   10.7201   48.6879 C   0  0  1  0  0  0  0  0  0  0  0  0
   34.3600    9.3627   48.4775 O   0  0  0  0  0  0  0  0  0  0  0  0
   32.3174    9.8304   50.2705 C   0  0  1  0  0  0  0  0  0  0  0  0
   32.1883    9.8383   51.8355 C   0  0  2  0  0  0  0  0  0  0  0  0
   33.4281    9.7408   52.5156 O   0  0  0  0  0  0  0  0  0  0  0  0
   31.2809    8.6257   51.9881 C   0  0  2  0  0  0  0  0  0  0  0  0
   31.9847    7.3949   51.6425 O   0  0  0  0  0  0  0  0  0  0  0  0
   30.2212    8.8650   50.9218 C   0  0  2  0  0  0  0  0  0  0  0  0
   31.0351    9.3114   49.8235 O   0  0  0  0  0  0  0  0  0  0  0  0
   29.1153    9.8993   51.3129 C   0  0  0  0  0  0  0  0  0  0  0  0
   29.3744   11.1905   50.7476 O   0  0  0  0  0  0  0  0  0  0  0  0
   33.1786    7.1801   52.3908 C   0  0  2  0  0  0  0  0  0  0  0  0
   34.1773    6.1569   51.7506 C   0  0  2  0  0  0  0  0  0  0  0  0
   33.5679    4.8100   51.5317 N   0  3  0  0  0  0  0  0  0  0  0  0
   35.4211    6.0772   52.6973 C   0  0  1  0  0  0  0  0  0  0  0  0
   36.0474    7.4170   52.7101 O   0  0  0  0  0  0  0  0  0  0  0  0
   35.0323    5.6856   54.1761 C   0  0  2  0  0  0  0  0  0  0  0  0
   34.4766    4.3605   54.1668 O   0  0  0  0  0  0  0  0  0  0  0  0
   33.9928    6.7549   54.7126 C   0  0  1  0  0  0  0  0  0  0  0  0
   32.8515    6.7644   53.7903 O   0  0  0  0  0  0  0  0  0  0  0  0
   33.4965    6.5003   56.1541 C   0  0  0  0  0  0  0  0  0  0  0  0
   34.5756    6.0702   57.0842 N   0  3  0  0  0  0  0  0  0  0  0  0
  1  2  1  1  0  0  0
  1  3  1  0  0  0  0
  1 10  1  0  0  0  0
  3  4  1  1  0  0  0
  3  5  1  0  0  0  0
  5  6  1  6  0  0  0
  5  7  1  0  0  0  0
  7  8  1  1  0  0  0
  7  9  1  0  0  0  0
  9 10  1  0  0  0  0
  9 11  1  6  0  0  0
 11 12  1  0  0  0  0
 13 14  1  1  0  0  0
 13 15  1  0  0  0  0
 13 21  1  0  0  0  0
 15 16  1  0  0  0  0
 16 17  1  1  0  0  0
 16 18  1  0  0  0  0
 18  2  1  6  0  0  0
 18 19  1  0  0  0  0
 19 20  1  1  0  0  0
 19 21  1  0  0  0  0
 21 22  1  6  0  0  0
 23 20  1  6  0  0  0
 23 24  1  0  0  0  0
 23 29  1  0  0  0  0
 24 25  1  1  0  0  0
 24 26  1  0  0  0  0
 26 27  1  6  0  0  0
 26 28  1  0  0  0  0
 28 29  1  0  0  0  0
 28 30  1  1  0  0  0
 30 31  1  0  0  0  0
 32 27  1  6  0  0  0
 32 33  1  0  0  0  0
 32 40  1  0  0  0  0
 33 34  1  1  0  0  0
 33 35  1  0  0  0  0
 35 36  1  1  0  0  0
 35 37  1  0  0  0  0
 37 38  1  6  0  0  0
 37 39  1  0  0  0  0
 39 40  1  0  0  0  0
 39 41  1  1  0  0  0
 41 42  1  0  0  0  0
M  CHG  5   4   1  14   1  17   1  34   1  42   1
M  END
>  <CHROM.1>
178.58981150,32.94716367,-178.82200269,66.75227318,70.23930659,81.12316432
73.49620255,-92.95063922,-65.56404692,-163.73122127,146.98041408,11.83117068
-176.19547253,56.25767201,-161.08544598,99.32692455,-49.46357989,177.08746616
49.13689822,62.28801282,41.60222793,92.34276907,32.61828507,10.20909395,50.02114305
-1.84773295,-0.14134567,2.35261465

>  <Name>
1j7t

>  <RI>
0

>  <Rbt.Current_Directory>
/home/itssahil/PROJECTS/Mol_Feturizer/New_Systems/rnas/1j7t

>  <Rbt.Executable>
rbdock ($Id: //depot/dev/client3/rdock/2013.1/src/exe/rbdock.cxx#4 $)

>  <Rbt.Library>
libRbt.so (2013.1, Build901 2013/11/27)

>  <Rbt.Parameter_File>
/export/apps/rDock/src/rDock_2013.1_src/data/scripts/dock_solv.prm

>  <Rbt.Receptor>
prm/blind_docking_80.prm

>  <SCORE>
8.35439

>  <SCORE.INTER>
-10.0922

>  <SCORE.INTER.CONST>
1

>  <SCORE.INTER.POLAR>
-5.1455

>  <SCORE.INTER.ROT>
9

>  <SCORE.INTER.SOLV>
43.862

>  <SCORE.INTER.VDW>
-13.7972

>  <SCORE.INTER.norm>
-0.240291

>  <SCORE.INTRA>
0.831614

>  <SCORE.INTRA.DIHEDRAL>
-15.6846

>  <SCORE.INTRA.DIHEDRAL.0>
46.2143

>  <SCORE.INTRA.POLAR>
1.25109

>  <SCORE.INTRA.POLAR.0>
-1.76436

>  <SCORE.INTRA.REPUL>
0.0543997

>  <SCORE.INTRA.REPUL.0>
0

>  <SCORE.INTRA.SOLV>
-1.78521

>  <SCORE.INTRA.SOLV.lig_0>
-148.643

>  <SCORE.INTRA.VDW>
5.0408

>  <SCORE.INTRA.VDW.0>
-4.83512

>  <SCORE.INTRA.norm>
0.0198003

>  <SCORE.RESTR>
17.615

>  <SCORE.RESTR.CAVITY>
17.615

>  <SCORE.RESTR.norm>
0.419405

>  <SCORE.SYSTEM>
0

>  <SCORE.SYSTEM.CONST>
0

>  <SCORE.SYSTEM.DIHEDRAL>
0

>  <SCORE.SYSTEM.SOLV>
0

>  <SCORE.SYSTEM.norm>
0

>  <SCORE.heavy>
42

>  <SCORE.norm>
0.198914

>  <RMSD>
7.910

$$$$
1j7t
 OpenBabel11021811393D
libRbt.so/2013.1/901 2013/11/27
 42 45  0  0  0  0  0  0  0  0999 V2000
   26.8911   10.4499   59.9234 C   0  0  2  0  0  0  0  0  0  0  0  0
   26.4131   10.2560   58.5682 O   0  0  0  0  0  0  0  0  0  0  0  0
   25.8548   11.3611   60.6416 C   0  0  2  0  0  0  0  0  0  0  0  0
   24.4475   10.8735   60.5695 N   0  3  0  0  0  0  0  0  0  0  0  0
   25.9088   12.7578   59.9850 C   0  0  1  0  0  0  0  0  0  0  0  0
   25.0047   13.6292   60.6038 O   0  0  0  0  0  0  0  0  0  0  0  0
   27.3472   13.3229   60.0575 C   0  0  2  0  0  0  0  0  0  0  0  0
   27.4143   14.6118   59.4802 O   0  0  0  0  0  0  0  0  0  0  0  0
   28.2991   12.4009   59.3254 C   0  0  2  0  0  0  0  0  0  0  0  0
   28.2033   11.0933   59.8759 O   0  0  0  0  0  0  0  0  0  0  0  0
   29.7460   12.8226   59.4500 C   0  0  0  0  0  0  0  0  0  0  0  0
   30.3637   12.7695   58.1784 O   0  0  0  0  0  0  0  0  0  0  0  0
   25.9317    6.8320   56.1408 C   0  0  2  0  0  0  0  0  0  0  0  0
   26.2337    5.6219   55.3755 N   0  3  0  0  0  0  0  0  0  0  0  0
   26.6935    8.0544   55.5295 C   0  0  0  0  0  0  0  0  0  0  0  0
   26.4168    9.3211   56.3616 C   0  0  2  0  0  0  0  0  0  0  0  0
   27.1662   10.4662   55.8340 N   0  3  0  0  0  0  0  0  0  0  0  0
   26.8052    9.0897   57.8351 C   0  0  2  0  0  0  0  0  0  0  0  0
   26.0898    7.8738   58.4556 C   0  0  2  0  0  0  0  0  0  0  0  0
   26.6674    7.6965   59.7635 O   0  0  0  0  0  0  0  0  0  0  0  0
   26.3284    6.6095   57.5916 C   0  0  1  0  0  0  0  0  0  0  0  0
   25.5875    5.5440   58.1196 O   0  0  0  0  0  0  0  0  0  0  0  0
   26.2320    6.7022   60.6870 C   0  0  1  0  0  0  0  0  0  0  0  0
   27.4220    6.3629   61.6538 C   0  0  2  0  0  0  0  0  0  0  0  0
   28.2818    5.3440   61.1725 O   0  0  0  0  0  0  0  0  0  0  0  0
   26.6069    5.9814   62.8815 C   0  0  2  0  0  0  0  0  0  0  0  0
   25.8858    4.7309   62.6666 O   0  0  0  0  0  0  0  0  0  0  0  0
   25.5766    7.0994   62.9592 C   0  0  2  0  0  0  0  0  0  0  0  0
   25.2080    7.2275   61.5752 O   0  0  0  0  0  0  0  0  0  0  0  0
   26.1036    8.4392   63.5700 C   0  0  0  0  0  0  0  0  0  0  0  0
   25.3872    9.5710   63.0605 O   0  0  0  0  0  0  0  0  0  0  0  0
   25.5398    4.0473   63.8684 C   0  0  2  0  0  0  0  0  0  0  0  0
   26.6762    4.0014   64.9459 C   0  0  2  0  0  0  0  0  0  0  0  0
   27.9289    3.3614   64.4415 N   0  3  0  0  0  0  0  0  0  0  0  0
   26.1011    3.2391   66.1860 C   0  0  1  0  0  0  0  0  0  0  0  0
   24.9745    4.0421   66.7090 O   0  0  0  0  0  0  0  0  0  0  0  0
   25.5693    1.7992   65.8184 C   0  0  2  0  0  0  0  0  0  0  0  0
   26.6774    1.0049   65.3646 O   0  0  0  0  0  0  0  0  0  0  0  0
   24.4596    1.9543   64.6974 C   0  0  1  0  0  0  0  0  0  0  0  0
   25.0701    2.6597   63.5647 O   0  0  0  0  0  0  0  0  0  0  0  0
   23.8465    0.6209   64.2125 C   0  0  0  0  0  0  0  0  0  0  0  0
   22.9631    0.7732   63.0246 N   0  3  0  0  0  0  0  0  0  0  0  0
  1  2  1  6  0  0  0
  1  3  1  0  0  0  0
  1 10  1  0  0  0  0
  3  4  1  6  0  0  0
  3  5  1  0  0  0  0
  5  6  1  1  0  0  0
  5  7  1  0  0  0  0
  7  8  1  6  0  0  0
  7  9  1  0  0  0  0
  9 10  1  0  0  0  0
  9 11  1  1  0  0  0
 11 12  1  0  0  0  0
 13 14  1  6  0  0  0
 13 15  1  0  0  0  0
 13 21  1  0  0  0  0
 15 16  1  0  0  0  0
 16 17  1  6  0  0  0
 16 18  1  0  0  0  0
 18  2  1  1  0  0  0
 18 19  1  0  0  0  0
 19 20  1  1  0  0  0
 19 21  1  0  0  0  0
 21 22  1  1  0  0  0
 23 20  1  6  0  0  0
 23 24  1  0  0  0  0
 23 29  1  0  0  0  0
 24 25  1  6  0  0  0
 24 26  1  0  0  0  0
 26 27  1  6  0  0  0
 26 28  1  0  0  0  0
 28 29  1  0  0  0  0
 28 30  1  6  0  0  0
 30 31  1  0  0  0  0
 32 27  1  6  0  0  0
 32 33  1  0  0  0  0
 32 40  1  0  0  0  0
 33 34  1  6  0  0  0
 33 35  1  0  0  0  0
 35 36  1  6  0  0  0
 35 37  1  0  0  0  0
 37 38  1  6  0  0  0
 37 39  1  0  0  0  0
 39 40  1  0  0  0  0
 39 41  1  6  0  0  0
 41 42  1  0  0  0  0
M  CHG  5   4   1  14   1  17   1  34   1  42   1
M  END
>  <CHROM.1>
-154.80093807,-167.39098256,94.32572900,-81.78623482,68.43910156,-133.89971560
-65.46360892,-46.92997374,-56.29615632,177.20922142,154.51083420,69.98402659
178.58596053,156.87088988,-43.24663548,152.06292432,52.64652977,63.47686702
-176.48551400,-98.72118148,-171.28409288,172.29019652,26.33695312,7.43526928
60.96090794,-0.33131063,1.39600696,1.32420516

>  <Name>
1j7t

>  <RI>
0

>  <Rbt.Current_Directory>
/home/itssahil/PROJECTS/Mol_Feturizer/New_Systems/rnas/1j7t

>  <Rbt.Executable>
rbdock ($Id: //depot/dev/client3/rdock/2013.1/src/exe/rbdock.cxx#4 $)

>  <Rbt.Library>
libRbt.so (2013.1, Build901 2013/11/27)

>  <Rbt.Parameter_File>
/export/apps/rDock/src/rDock_2013.1_src/data/scripts/dock_solv.prm

>  <Rbt.Receptor>
prm/pocket_docking_8.prm

>  <SCORE>
-50.4508

>  <SCORE.INTER>
-45.2394

>  <SCORE.INTER.CONST>
1

>  <SCORE.INTER.POLAR>
-8.43335

>  <SCORE.INTER.ROT>
9

>  <SCORE.INTER.SOLV>
25.8547

>  <SCORE.INTER.VDW>
-20.2666

>  <SCORE.INTER.norm>
-1.07713

>  <SCORE.INTRA>
-5.54037

>  <SCORE.INTRA.DIHEDRAL>
-17.22

>  <SCORE.INTRA.DIHEDRAL.0>
46.2143

>  <SCORE.INTRA.POLAR>
0.893684

>  <SCORE.INTRA.POLAR.0>
-1.76436

>  <SCORE.INTRA.REPUL>
0

>  <SCORE.INTRA.REPUL.0>
0

>  <SCORE.INTRA.SOLV>
-1.08717

>  <SCORE.INTRA.SOLV.lig_0>
-148.643

>  <SCORE.INTRA.VDW>
0.574667

>  <SCORE.INTRA.VDW.0>
-4.83512

>  <SCORE.INTRA.norm>
-0.131914

>  <SCORE.RESTR>
0.328915

>  <SCORE.RESTR.CAVITY>
0.328915

>  <SCORE.RESTR.norm>
0.0078313

>  <SCORE.SYSTEM>
0

>  <SCORE.SYSTEM.CONST>
0

>  <SCORE.SYSTEM.DIHEDRAL>
0

>  <SCORE.SYSTEM.SOLV>
0

>  <SCORE.SYSTEM.norm>
0

>  <SCORE.heavy>
42

>  <SCORE.norm>
-1.20121

>  <RMSD>
7.920

$$$$
1j7t
 OpenBabel11021811393D
libRbt.so/2013.1/901 2013/11/27
 42 45  0  0  0  0  0  0  0  0999 V2000
   30.5603   11.2914   50.1039 C   0  0  2  0  0  0  0  0  0  0  0  0
   30.5460    9.8634   49.8526 O   0  0  0  0  0  0  0  0  0  0  0  0
   30.1714   11.9887   48.7688 C   0  0  2  0  0  0  0  0  0  0  0  0
   28.8979   11.5021   48.1648 N   0  3  0  0  0  0  0  0  0  0  0  0
   31.3061   11.7411   47.7509 C   0  0  1  0  0  0  0  0  0  0  0  0
   31.0176   12.3618   46.5298 O   0  0  0  0  0  0  0  0  0  0  0  0
   32.6502   12.2546   48.3194 C   0  0  2  0  0  0  0  0  0  0  0  0
   33.7000   12.0567   47.3932 O   0  0  0  0  0  0  0  0  0  0  0  0
   32.9775   11.5238   49.6043 C   0  0  2  0  0  0  0  0  0  0  0  0
   31.9045   11.6856   50.5232 O   0  0  0  0  0  0  0  0  0  0  0  0
   34.2201   12.0513   50.2861 C   0  0  0  0  0  0  0  0  0  0  0  0
   34.1250   13.4566   50.4177 O   0  0  0  0  0  0  0  0  0  0  0  0
   28.4123    8.6788   53.3011 C   0  0  2  0  0  0  0  0  0  0  0  0
   27.8541    7.8475   54.3682 N   0  3  0  0  0  0  0  0  0  0  0  0
   27.8734    8.1985   51.9128 C   0  0  0  0  0  0  0  0  0  0  0  0
   28.4967    9.0397   50.7826 C   0  0  2  0  0  0  0  0  0  0  0  0
   28.0436    8.5679   49.4700 N   0  3  0  0  0  0  0  0  0  0  0  0
   30.0350    8.9703   50.8490 C   0  0  2  0  0  0  0  0  0  0  0  0
   30.5927    9.4120   52.2161 C   0  0  2  0  0  0  0  0  0  0  0  0
   32.0076    9.1444   52.1745 O   0  0  0  0  0  0  0  0  0  0  0  0
   29.9297    8.5988   53.3567 C   0  0  1  0  0  0  0  0  0  0  0  0
   30.3775    9.0871   54.5912 O   0  0  0  0  0  0  0  0  0  0  0  0
   32.5627    7.8342   52.2549 C   0  0  1  0  0  0  0  0  0  0  0  0
   33.9423    7.9209   53.0000 C   0  0  2  0  0  0  0  0  0  0  0  0
   35.0419    8.1860   52.1458 O   0  0  0  0  0  0  0  0  0  0  0  0
   33.9422    6.5334   53.6263 C   0  0  2  0  0  0  0  0  0  0  0  0
   34.0913    5.4971   52.6097 O   0  0  0  0  0  0  0  0  0  0  0  0
   32.5338    6.4229   54.1932 C   0  0  2  0  0  0  0  0  0  0  0  0
   31.7613    6.9798   53.1158 O   0  0  0  0  0  0  0  0  0  0  0  0
   32.3084    7.1719   55.5475 C   0  0  0  0  0  0  0  0  0  0  0  0
   31.0269    6.8688   56.1131 O   0  0  0  0  0  0  0  0  0  0  0  0
   35.3892    4.9097   52.5666 C   0  0  2  0  0  0  0  0  0  0  0  0
   35.6872    3.8950   53.7225 C   0  0  2  0  0  0  0  0  0  0  0  0
   35.5434    4.5029   55.0801 N   0  3  0  0  0  0  0  0  0  0  0  0
   37.1346    3.3471   53.4891 C   0  0  1  0  0  0  0  0  0  0  0  0
   37.1245    2.6198   52.2013 O   0  0  0  0  0  0  0  0  0  0  0  0
   38.2125    4.4975   53.4128 C   0  0  2  0  0  0  0  0  0  0  0  0
   38.2595    5.1648   54.6846 O   0  0  0  0  0  0  0  0  0  0  0  0
   37.7974    5.4861   52.2456 C   0  0  1  0  0  0  0  0  0  0  0  0
   36.4434    5.9710   52.5367 O   0  0  0  0  0  0  0  0  0  0  0  0
   38.7512    6.6869   52.0519 C   0  0  0  0  0  0  0  0  0  0  0  0
   38.0431    7.9878   51.9081 N   0  3  0  0  0  0  0  0  0  0  0  0
  1  2  1  6  0  0  0
  1  3  1  0  0  0  0
  1 10  1  0  0  0  0
  3  4  1  6  0  0  0
  3  5  1  0  0  0  0
  5  6  1  6  0  0  0
  5  7  1  0  0  0  0
  7  8  1  6  0  0  0
  7  9  1  0  0  0  0
  9 10  1  0  0  0  0
  9 11  1  1  0  0  0
 11 12  1  0  0  0  0
 13 14  1  1  0  0  0
 13 15  1  0  0  0  0
 13 21  1  0  0  0  0
 15 16  1  0  0  0  0
 16 17  1  6  0  0  0
 16 18  1  0  0  0  0
 18  2  1  6  0  0  0
 18 19  1  0  0  0  0
 19 20  1  6  0  0  0
 19 21  1  0  0  0  0
 21 22  1  1  0  0  0
 23 20  1  1  0  0  0
 23 24  1  0  0  0  0
 23 29  1  0  0  0  0
 24 25  1  6  0  0  0
 24 26  1  0  0  0  0
 26 27  1  6  0  0  0
 26 28  1  0  0  0  0
 28 29  1  0  0  0  0
 28 30  1  1  0  0  0
 30 31  1  0  0  0  0
 32 27  1  1  0  0  0
 32 33  1  0  0  0  0
 32 40  1  0  0  0  0
 33 34  1  1  0  0  0
 33 35  1  0  0  0  0
 35 36  1  6  0  0  0
 35 37  1  0  0  0  0
 37 38  1  1  0  0  0
 37 39  1  0  0  0  0
 39 40  1  0  0  0  0
 39 41  1  1  0  0  0
 41 42  1  0  0  0  0
M  CHG  5   4   1  14   1  17   1  34   1  42   1
M  END
>  <CHROM.1>
-140.75570404,77.78855824,175.64464150,70.95409430,-58.42572432,51.02091760
54.19665256,-46.07415011,-94.02248195,-73.69444087,-147.02845340,-38.69664465
-48.49757973,104.71852327,75.73049838,-171.72101609,55.42103110,-172.32834398
-52.74041475,167.07965385,-133.63250264,-99.76652510,32.89159633,8.29547614
51.83695855,-2.30177657,-0.21364639,2.37503010

>  <Name>
1j7t

>  <RI>
0

>  <Rbt.Current_Directory>
/home/itssahil/PROJECTS/Mol_Feturizer/New_Systems/rnas/1j7t

>  <Rbt.Executable>
rbdock ($Id: //depot/dev/client3/rdock/2013.1/src/exe/rbdock.cxx#4 $)

>  <Rbt.Library>
libRbt.so (2013.1, Build901 2013/11/27)

>  <Rbt.Parameter_File>
/export/apps/rDock/src/rDock_2013.1_src/data/scripts/dock_solv.prm

>  <Rbt.Receptor>
prm/blind_docking_100.prm

>  <SCORE>
10.3868

>  <SCORE.INTER>
-4.72682

>  <SCORE.INTER.CONST>
1

>  <SCORE.INTER.POLAR>
-3.86636

>  <SCORE.INTER.ROT>
9

>  <SCORE.INTER.SOLV>
42.7228

>  <SCORE.INTER.VDW>
-14.1043

>  <SCORE.INTER.norm>
-0.112543

>  <SCORE.INTRA>
0.212565

>  <SCORE.INTRA.DIHEDRAL>
-11.8299

>  <SCORE.INTRA.DIHEDRAL.0>
46.2143

>  <SCORE.INTRA.POLAR>
-0.058064

>  <SCORE.INTRA.POLAR.0>
-1.76436

>  <SCORE.INTRA.REPUL>
0

>  <SCORE.INTRA.REPUL.0>
0

>  <SCORE.INTRA.SOLV>
6.65627

>  <SCORE.INTRA.SOLV.lig_0>
-148.643

>  <SCORE.INTRA.VDW>
2.9968

>  <SCORE.INTRA.VDW.0>
-4.83512

>  <SCORE.INTRA.norm>
0.00506106

>  <SCORE.RESTR>
14.901

>  <SCORE.RESTR.CAVITY>
14.901

>  <SCORE.RESTR.norm>
0.354787

>  <SCORE.SYSTEM>
0

>  <SCORE.SYSTEM.CONST>
0

>  <SCORE.SYSTEM.DIHEDRAL>
0

>  <SCORE.SYSTEM.SOLV>
0

>  <SCORE.SYSTEM.norm>
0

>  <SCORE.heavy>
42

>  <SCORE.norm>
0.247304

>  <RMSD>
7.939

$$$$
1j7t
 OpenBabel11021811393D
libRbt.so/2013.1/901 2013/11/27
 42 45  0  0  0  0  0  0  0  0999 V2000
   28.2828    8.2695   59.7820 C   0  0  2  0  0  0  0  0  0  0  0  0
   29.2373    7.3224   60.3247 O   0  0  0  0  0  0  0  0  0  0  0  0
   27.5092    8.8730   60.9893 C   0  0  2  0  0  0  0  0  0  0  0  0
   28.3784    9.4470   62.0563 N   0  3  0  0  0  0  0  0  0  0  0  0
   26.6576    7.7506   61.6217 C   0  0  1  0  0  0  0  0  0  0  0  0
   25.9236    8.2410   62.7081 O   0  0  0  0  0  0  0  0  0  0  0  0
   25.7149    7.1373   60.5592 C   0  0  2  0  0  0  0  0  0  0  0  0
   24.9099    6.1210   61.1232 O   0  0  0  0  0  0  0  0  0  0  0  0
   26.5300    6.5530   59.4251 C   0  0  2  0  0  0  0  0  0  0  0  0
   27.3720    7.5624   58.8828 O   0  0  0  0  0  0  0  0  0  0  0  0
   25.6777    6.0371   58.2873 C   0  0  0  0  0  0  0  0  0  0  0  0
   26.5112    5.4804   57.2889 O   0  0  0  0  0  0  0  0  0  0  0  0
   32.4283    4.9459   58.9043 C   0  0  2  0  0  0  0  0  0  0  0  0
   33.2192    4.0459   58.0641 N   0  3  0  0  0  0  0  0  0  0  0  0
   31.1461    4.2094   59.4160 C   0  0  0  0  0  0  0  0  0  0  0  0
   30.2860    5.1685   60.2610 C   0  0  2  0  0  0  0  0  0  0  0  0
   29.0527    4.5102   60.7046 N   0  3  0  0  0  0  0  0  0  0  0  0
   29.9301    6.4277   59.4466 C   0  0  2  0  0  0  0  0  0  0  0  0
   31.1746    7.1588   58.9062 C   0  0  2  0  0  0  0  0  0  0  0  0
   30.6806    8.2055   58.0484 O   0  0  0  0  0  0  0  0  0  0  0  0
   32.0644    6.1816   58.0967 C   0  0  1  0  0  0  0  0  0  0  0  0
   33.2352    6.8430   57.7030 O   0  0  0  0  0  0  0  0  0  0  0  0
   29.8587    7.9659   56.9090 C   0  0  1  0  0  0  0  0  0  0  0  0
   29.6588    9.3221   56.1430 C   0  0  2  0  0  0  0  0  0  0  0  0
   28.5588   10.0872   56.6051 O   0  0  0  0  0  0  0  0  0  0  0  0
   29.4982    8.7599   54.7375 C   0  0  2  0  0  0  0  0  0  0  0  0
   28.2435    8.0266   54.6042 O   0  0  0  0  0  0  0  0  0  0  0  0
   30.6334    7.7495   54.6500 C   0  0  2  0  0  0  0  0  0  0  0  0
   30.5412    7.1229   55.9410 O   0  0  0  0  0  0  0  0  0  0  0  0
   32.0445    8.3663   54.3779 C   0  0  0  0  0  0  0  0  0  0  0  0
   32.0090    9.3163   53.3054 O   0  0  0  0  0  0  0  0  0  0  0  0
   27.9496    7.6181   53.2707 C   0  0  2  0  0  0  0  0  0  0  0  0
   26.4274    7.3962   52.9744 C   0  0  2  0  0  0  0  0  0  0  0  0
   25.8026    6.3802   53.8750 N   0  3  0  0  0  0  0  0  0  0  0  0
   26.3093    6.9800   51.4703 C   0  0  1  0  0  0  0  0  0  0  0  0
   26.7957    8.1192   50.6620 O   0  0  0  0  0  0  0  0  0  0  0  0
   27.1759    5.7069   51.1245 C   0  0  2  0  0  0  0  0  0  0  0  0
   26.6638    4.5897   51.8690 O   0  0  0  0  0  0  0  0  0  0  0  0
   28.6840    6.0203   51.4981 C   0  0  1  0  0  0  0  0  0  0  0  0
   28.7215    6.3857   52.9188 O   0  0  0  0  0  0  0  0  0  0  0  0
   29.6660    4.8565   51.2326 C   0  0  0  0  0  0  0  0  0  0  0  0
   31.0897    5.2172   51.4724 N   0  3  0  0  0  0  0  0  0  0  0  0
  1  2  1  1  0  0  0
  1  3  1  0  0  0  0
  1 10  1  0  0  0  0
  3  4  1  1  0  0  0
  3  5  1  0  0  0  0
  5  6  1  1  0  0  0
  5  7  1  0  0  0  0
  7  8  1  1  0  0  0
  7  9  1  0  0  0  0
  9 10  1  0  0  0  0
  9 11  1  6  0  0  0
 11 12  1  0  0  0  0
 13 14  1  6  0  0  0
 13 15  1  0  0  0  0
 13 21  1  0  0  0  0
 15 16  1  0  0  0  0
 16 17  1  6  0  0  0
 16 18  1  0  0  0  0
 18  2  1  1  0  0  0
 18 19  1  0  0  0  0
 19 20  1  6  0  0  0
 19 21  1  0  0  0  0
 21 22  1  1  0  0  0
 23 20  1  1  0  0  0
 23 24  1  0  0  0  0
 23 29  1  0  0  0  0
 24 25  1  1  0  0  0
 24 26  1  0  0  0  0
 26 27  1  1  0  0  0
 26 28  1  0  0  0  0
 28 29  1  0  0  0  0
 28 30  1  1  0  0  0
 30 31  1  0  0  0  0
 32 27  1  1  0  0  0
 32 33  1  0  0  0  0
 32 40  1  0  0  0  0
 33 34  1  1  0  0  0
 33 35  1  0  0  0  0
 35 36  1  6  0  0  0
 35 37  1  0  0  0  0
 37 38  1  1  0  0  0
 37 39  1  0  0  0  0
 39 40  1  0  0  0  0
 39 41  1  1  0  0  0
 41 42  1  0  0  0  0
M  CHG  5   4   1  14   1  17   1  34   1  42   1
M  END
>  <CHROM.1>
168.71764298,-152.57715983,-164.28035399,81.60645582,70.28808780,-178.55402251
-69.67974926,174.50316046,17.85349092,-58.60049490,-173.75049700,-60.63703496
-178.67914403,172.48980683,-155.27729109,-47.35746007,-61.75982797,56.70564830
56.85242186,177.97675040,174.67394728,58.23737083,28.85874017,6.95731049
56.71757031,1.62085604,-0.11908854,1.53015071

>  <Name>
1j7t

>  <RI>
0

>  <Rbt.Current_Directory>
/home/itssahil/PROJECTS/Mol_Feturizer/New_Systems/rnas/1j7t

>  <Rbt.Executable>
rbdock ($Id: //depot/dev/client3/rdock/2013.1/src/exe/rbdock.cxx#4 $)

>  <Rbt.Library>
libRbt.so (2013.1, Build901 2013/11/27)

>  <Rbt.Parameter_File>
/export/apps/rDock/src/rDock_2013.1_src/data/scripts/dock_solv.prm

>  <Rbt.Receptor>
prm/pocket_docking_6.prm

>  <SCORE>
-56.1695

>  <SCORE.INTER>
-42.8453

>  <SCORE.INTER.CONST>
1

>  <SCORE.INTER.POLAR>
-6.87342

>  <SCORE.INTER.ROT>
9

>  <SCORE.INTER.SOLV>
20.5904

>  <SCORE.INTER.VDW>
-22.1156

>  <SCORE.INTER.norm>
-1.02013

>  <SCORE.INTRA>
-13.3242

>  <SCORE.INTRA.DIHEDRAL>
-31.3985

>  <SCORE.INTRA.DIHEDRAL.0>
46.2143

>  <SCORE.INTRA.POLAR>
1.08303

>  <SCORE.INTRA.POLAR.0>
-1.76436

>  <SCORE.INTRA.REPUL>
0.325132

>  <SCORE.INTRA.REPUL.0>
0

>  <SCORE.INTRA.SOLV>
-3.13669

>  <SCORE.INTRA.SOLV.lig_0>
-148.643

>  <SCORE.INTRA.VDW>
-1.3646

>  <SCORE.INTRA.VDW.0>
-4.83512

>  <SCORE.INTRA.norm>
-0.317243

>  <SCORE.RESTR>
0

>  <SCORE.RESTR.CAVITY>
0

>  <SCORE.RESTR.norm>
0

>  <SCORE.SYSTEM>
0

>  <SCORE.SYSTEM.CONST>
0

>  <SCORE.SYSTEM.DIHEDRAL>
0

>  <SCORE.SYSTEM.SOLV>
0

>  <SCORE.SYSTEM.norm>
0

>  <SCORE.heavy>
42

>  <SCORE.norm>
-1.33737

>  <RMSD>
7.939

$$$$
1j7t
 OpenBabel11021811393D
libRbt.so/2013.1/901 2013/11/27
 42 45  0  0  0  0  0  0  0  0999 V2000
   25.3850    8.2583   56.9461 C   0  0  2  0  0  0  0  0  0  0  0  0
   25.6688    6.8697   57.2522 O   0  0  0  0  0  0  0  0  0  0  0  0
   24.9416    8.3107   55.4559 C   0  0  2  0  0  0  0  0  0  0  0  0
   23.8263    7.3835   55.1094 N   0  3  0  0  0  0  0  0  0  0  0  0
   26.1586    7.9393   54.5808 C   0  0  1  0  0  0  0  0  0  0  0  0
   25.8223    7.9856   53.2227 O   0  0  0  0  0  0  0  0  0  0  0  0
   27.3396    8.8921   54.8827 C   0  0  2  0  0  0  0  0  0  0  0  0
   28.4586    8.5825   54.0757 O   0  0  0  0  0  0  0  0  0  0  0  0
   27.7322    8.7781   56.3404 C   0  0  2  0  0  0  0  0  0  0  0  0
   26.5981    9.0475   57.1549 O   0  0  0  0  0  0  0  0  0  0  0  0
   28.8046    9.7648   56.7443 C   0  0  0  0  0  0  0  0  0  0  0  0
   28.2959   11.0811   56.6442 O   0  0  0  0  0  0  0  0  0  0  0  0
   27.2912    7.4419   61.1108 C   0  0  2  0  0  0  0  0  0  0  0  0
   27.7920    7.1687   62.4583 N   0  3  0  0  0  0  0  0  0  0  0  0
   25.7829    7.0382   61.0097 C   0  0  0  0  0  0  0  0  0  0  0  0
   25.2649    7.2786   59.5788 C   0  0  2  0  0  0  0  0  0  0  0  0
   23.8665    6.8550   59.4518 N   0  3  0  0  0  0  0  0  0  0  0  0
   26.1279    6.5086   58.5600 C   0  0  2  0  0  0  0  0  0  0  0  0
   27.6239    6.8665   58.6558 C   0  0  2  0  0  0  0  0  0  0  0  0
   28.3072    5.9640   57.7648 O   0  0  0  0  0  0  0  0  0  0  0  0
   28.1329    6.6708   60.1064 C   0  0  1  0  0  0  0  0  0  0  0  0
   29.4648    7.0976   60.1889 O   0  0  0  0  0  0  0  0  0  0  0  0
   29.2266    6.3932   56.7639 C   0  0  1  0  0  0  0  0  0  0  0  0
   30.6568    6.4855   57.4058 C   0  0  2  0  0  0  0  0  0  0  0  0
   30.9379    7.7379   58.0070 O   0  0  0  0  0  0  0  0  0  0  0  0
   31.4774    6.1778   56.1611 C   0  0  2  0  0  0  0  0  0  0  0  0
   31.3931    7.2664   55.1929 O   0  0  0  0  0  0  0  0  0  0  0  0
   30.7504    4.9783   55.5697 C   0  0  2  0  0  0  0  0  0  0  0  0
   29.3800    5.3840   55.7289 O   0  0  0  0  0  0  0  0  0  0  0  0
   31.0600    3.6121   56.2650 C   0  0  0  0  0  0  0  0  0  0  0  0
   30.3805    2.5257   55.6232 O   0  0  0  0  0  0  0  0  0  0  0  0
   31.6906    6.8764   53.8547 C   0  0  2  0  0  0  0  0  0  0  0  0
   32.9549    5.9635   53.7046 C   0  0  2  0  0  0  0  0  0  0  0  0
   34.1957    6.5967   54.2458 N   0  3  0  0  0  0  0  0  0  0  0  0
   33.0989    5.6270   52.1828 C   0  0  1  0  0  0  0  0  0  0  0  0
   31.8994    4.8559   51.7901 O   0  0  0  0  0  0  0  0  0  0  0  0
   33.1868    6.9204   51.2824 C   0  0  2  0  0  0  0  0  0  0  0  0
   34.3834    7.6371   51.6278 O   0  0  0  0  0  0  0  0  0  0  0  0
   31.8866    7.7896   51.5390 C   0  0  1  0  0  0  0  0  0  0  0  0
   31.8246    8.0799   52.9761 O   0  0  0  0  0  0  0  0  0  0  0  0
   31.8285    9.1097   50.7372 C   0  0  0  0  0  0  0  0  0  0  0  0
   30.6263    9.9331   51.0390 N   0  3  0  0  0  0  0  0  0  0  0  0
  1  2  1  6  0  0  0
  1  3  1  0  0  0  0
  1 10  1  0  0  0  0
  3  4  1  1  0  0  0
  3  5  1  0  0  0  0
  5  6  1  6  0  0  0
  5  7  1  0  0  0  0
  7  8  1  6  0  0  0
  7  9  1  0  0  0  0
  9 10  1  0  0  0  0
  9 11  1  1  0  0  0
 11 12  1  0  0  0  0
 13 14  1  1  0  0  0
 13 15  1  0  0  0  0
 13 21  1  0  0  0  0
 15 16  1  0  0  0  0
 16 17  1  1  0  0  0
 16 18  1  0  0  0  0
 18  2  1  6  0  0  0
 18 19  1  0  0  0  0
 19 20  1  6  0  0  0
 19 21  1  0  0  0  0
 21 22  1  6  0  0  0
 23 20  1  1  0  0  0
 23 24  1  0  0  0  0
 23 29  1  0  0  0  0
 24 25  1  6  0  0  0
 24 26  1  0  0  0  0
 26 27  1  6  0  0  0
 26 28  1  0  0  0  0
 28 29  1  0  0  0  0
 28 30  1  1  0  0  0
 30 31  1  0  0  0  0
 32 27  1  1  0  0  0
 32 33  1  0  0  0  0
 32 40  1  0  0  0  0
 33 34  1  6  0  0  0
 33 35  1  0  0  0  0
 35 36  1  6  0  0  0
 35 37  1  0  0  0  0
 37 38  1  1  0  0  0
 37 39  1  0  0  0  0
 39 40  1  0  0  0  0
 39 41  1  6  0  0  0
 41 42  1  0  0  0  0
M  CHG  5   4   1  14   1  17   1  34   1  42   1
M  END
>  <CHROM.1>
178.86312064,43.92225503,-166.77616917,-70.95099291,167.09939943,65.33622036
-68.78393625,-83.58845248,-66.50567111,128.58997425,87.59371690,146.40623526
68.29819056,-157.78828695,-44.92235253,-177.80301041,-173.50061133,-153.85421114
54.75741437,84.91296691,-177.58052651,-178.20217756,29.08894254,7.19415954
55.91106436,2.42205167,-0.41557941,1.94501667

>  <Name>
1j7t

>  <RI>
224

>  <Rbt.Current_Directory>
/home/itssahil/PROJECTS/Mol_Feturizer/New_Systems/rnas/1j7t

>  <Rbt.Executable>
rbdock ($Id: //depot/dev/client3/rdock/2013.1/src/exe/rbdock.cxx#4 $)

>  <Rbt.Library>
libRbt.so (2013.1, Build901 2013/11/27)

>  <Rbt.Parameter_File>
/export/apps/rDock/src/rDock_2013.1_src/data/scripts/dock_solv.prm

>  <Rbt.Receptor>
prm/pocket_docking_7.prm

>  <SCORE>
-45.4138

>  <SCORE.INTER>
-39.5275

>  <SCORE.INTER.CONST>
1

>  <SCORE.INTER.POLAR>
-7.15683

>  <SCORE.INTER.ROT>
9

>  <SCORE.INTER.SOLV>
26.0416

>  <SCORE.INTER.VDW>
-20.776

>  <SCORE.INTER.norm>
-0.94113

>  <SCORE.INTRA>
-5.9153

>  <SCORE.INTRA.DIHEDRAL>
-18.6862

>  <SCORE.INTRA.DIHEDRAL.0>
46.2143

>  <SCORE.INTRA.POLAR>
0.823808

>  <SCORE.INTRA.POLAR.0>
-1.76436

>  <SCORE.INTRA.REPUL>
0

>  <SCORE.INTRA.REPUL.0>
0

>  <SCORE.INTRA.SOLV>
-1.89183

>  <SCORE.INTRA.SOLV.lig_0>
-148.643

>  <SCORE.INTRA.VDW>
1.57277

>  <SCORE.INTRA.VDW.0>
-4.83512

>  <SCORE.INTRA.norm>
-0.140841

>  <SCORE.RESTR>
0.0289323

>  <SCORE.RESTR.CAVITY>
0.0289323

>  <SCORE.RESTR.norm>
0.000688864

>  <SCORE.SYSTEM>
0

>  <SCORE.SYSTEM.CONST>
0

>  <SCORE.SYSTEM.DIHEDRAL>
0

>  <SCORE.SYSTEM.SOLV>
0

>  <SCORE.SYSTEM.norm>
0

>  <SCORE.heavy>
42

>  <SCORE.norm>
-1.08128

>  <RMSD>
7.946

$$$$
1j7t
 OpenBabel11021811393D
libRbt.so/2013.1/901 2013/11/27
 42 45  0  0  0  0  0  0  0  0999 V2000
   29.4961    5.7274   58.4184 C   0  0  2  0  0  0  0  0  0  0  0  0
   29.2716    6.9637   59.1421 O   0  0  0  0  0  0  0  0  0  0  0  0
   30.5166    4.8971   59.2485 C   0  0  2  0  0  0  0  0  0  0  0  0
   30.1325    4.6920   60.6747 N   0  3  0  0  0  0  0  0  0  0  0  0
   31.8711    5.6383   59.2222 C   0  0  1  0  0  0  0  0  0  0  0  0
   32.8372    4.9263   59.9429 O   0  0  0  0  0  0  0  0  0  0  0  0
   32.3300    5.8532   57.7604 C   0  0  2  0  0  0  0  0  0  0  0  0
   33.5802    6.5120   57.7142 O   0  0  0  0  0  0  0  0  0  0  0  0
   31.3044    6.6817   57.0163 C   0  0  2  0  0  0  0  0  0  0  0  0
   30.0364    6.0431   57.0968 O   0  0  0  0  0  0  0  0  0  0  0  0
   31.6224    6.8380   55.5462 C   0  0  0  0  0  0  0  0  0  0  0  0
   32.7722    7.6485   55.3962 O   0  0  0  0  0  0  0  0  0  0  0  0
   26.2256    9.6696   60.2593 C   0  0  2  0  0  0  0  0  0  0  0  0
   24.9011   10.2456   60.4944 N   0  3  0  0  0  0  0  0  0  0  0  0
   26.4211    9.3858   58.7329 C   0  0  0  0  0  0  0  0  0  0  0  0
   27.7952    8.7341   58.4870 C   0  0  2  0  0  0  0  0  0  0  0  0
   27.9735    8.4119   57.0674 N   0  3  0  0  0  0  0  0  0  0  0  0
   27.9364    7.4487   59.3258 C   0  0  2  0  0  0  0  0  0  0  0  0
   27.7213    7.6938   60.8320 C   0  0  2  0  0  0  0  0  0  0  0  0
   27.7278    6.3935   61.4521 O   0  0  0  0  0  0  0  0  0  0  0  0
   26.3599    8.3935   61.0750 C   0  0  1  0  0  0  0  0  0  0  0  0
   26.2336    8.6953   62.4373 O   0  0  0  0  0  0  0  0  0  0  0  0
   26.6088    5.5109   61.4398 C   0  0  1  0  0  0  0  0  0  0  0  0
   27.1260    4.0452   61.6641 C   0  0  2  0  0  0  0  0  0  0  0  0
   27.4936    3.3757   60.4701 O   0  0  0  0  0  0  0  0  0  0  0  0
   25.8942    3.4805   62.3577 C   0  0  2  0  0  0  0  0  0  0  0  0
   24.7695    3.3799   61.4333 O   0  0  0  0  0  0  0  0  0  0  0  0
   25.5585    4.5619   63.3752 C   0  0  2  0  0  0  0  0  0  0  0  0
   25.7443    5.7482   62.5841 O   0  0  0  0  0  0  0  0  0  0  0  0
   26.4442    4.5511   64.6641 C   0  0  0  0  0  0  0  0  0  0  0  0
   26.2099    5.7079   65.4770 O   0  0  0  0  0  0  0  0  0  0  0  0
   24.5812    2.0761   60.8891 C   0  0  2  0  0  0  0  0  0  0  0  0
   23.9951    1.0260   61.8932 C   0  0  2  0  0  0  0  0  0  0  0  0
   24.8396    0.8562   63.1144 N   0  3  0  0  0  0  0  0  0  0  0  0
   23.8410   -0.3202   61.1099 C   0  0  1  0  0  0  0  0  0  0  0  0
   22.8583   -0.0874   60.0293 O   0  0  0  0  0  0  0  0  0  0  0  0
   25.1979   -0.8043   60.4652 C   0  0  2  0  0  0  0  0  0  0  0  0
   26.1314   -1.0840   61.5211 O   0  0  0  0  0  0  0  0  0  0  0  0
   25.7238    0.3410   59.5041 C   0  0  1  0  0  0  0  0  0  0  0  0
   25.8594    1.5632   60.3047 O   0  0  0  0  0  0  0  0  0  0  0  0
   27.0646    0.0251   58.8030 C   0  0  0  0  0  0  0  0  0  0  0  0
   27.7651    1.2350   58.2929 N   0  3  0  0  0  0  0  0  0  0  0  0
  1  2  1  1  0  0  0
  1  3  1  0  0  0  0
  1 10  1  0  0  0  0
  3  4  1  1  0  0  0
  3  5  1  0  0  0  0
  5  6  1  1  0  0  0
  5  7  1  0  0  0  0
  7  8  1  1  0  0  0
  7  9  1  0  0  0  0
  9 10  1  0  0  0  0
  9 11  1  6  0  0  0
 11 12  1  0  0  0  0
 13 14  1  6  0  0  0
 13 15  1  0  0  0  0
 13 21  1  0  0  0  0
 15 16  1  0  0  0  0
 16 17  1  6  0  0  0
 16 18  1  0  0  0  0
 18  2  1  1  0  0  0
 18 19  1  0  0  0  0
 19 20  1  1  0  0  0
 19 21  1  0  0  0  0
 21 22  1  1  0  0  0
 23 20  1  1  0  0  0
 23 24  1  0  0  0  0
 23 29  1  0  0  0  0
 24 25  1  6  0  0  0
 24 26  1  0  0  0  0
 26 27  1  6  0  0  0
 26 28  1  0  0  0  0
 28 29  1  0  0  0  0
 28 30  1  1  0  0  0
 30 31  1  0  0  0  0
 32 27  1  1  0  0  0
 32 33  1  0  0  0  0
 32 40  1  0  0  0  0
 33 34  1  1  0  0  0
 33 35  1  0  0  0  0
 35 36  1  6  0  0  0
 35 37  1  0  0  0  0
 37 38  1  1  0  0  0
 37 39  1  0  0  0  0
 39 40  1  0  0  0  0
 39 41  1  1  0  0  0
 41 42  1  0  0  0  0
M  CHG  5   4   1  14   1  17   1  34   1  42   1
M  END
>  <CHROM.1>
-134.26156980,-111.63899210,-155.55904686,60.45157701,60.76474526,-68.66752802
-172.11078418,23.74700431,72.47680461,-79.22323238,157.38137860,-57.40953023
-65.44613704,98.47686707,73.09007187,171.23856793,-58.77315417,-57.56493042
-62.12103991,175.70863695,-160.41404854,-175.48507110,27.61559665,4.82460907
60.16228899,-0.67482858,-0.66701667,-3.01651673

>  <Name>
1j7t

>  <RI>
0

>  <Rbt.Current_Directory>
/home/itssahil/PROJECTS/Mol_Feturizer/New_Systems/rnas/1j7t

>  <Rbt.Executable>
rbdock ($Id: //depot/dev/client3/rdock/2013.1/src/exe/rbdock.cxx#4 $)

>  <Rbt.Library>
libRbt.so (2013.1, Build901 2013/11/27)

>  <Rbt.Parameter_File>
/export/apps/rDock/src/rDock_2013.1_src/data/scripts/dock_solv.prm

>  <Rbt.Receptor>
prm/pocket_docking_5.prm

>  <SCORE>
-35.0014

>  <SCORE.INTER>
-20.3196

>  <SCORE.INTER.CONST>
1

>  <SCORE.INTER.POLAR>
-2.79423

>  <SCORE.INTER.ROT>
9

>  <SCORE.INTER.SOLV>
18.7954

>  <SCORE.INTER.VDW>
-20.0975

>  <SCORE.INTER.norm>
-0.483801

>  <SCORE.INTRA>
-14.9657

>  <SCORE.INTRA.DIHEDRAL>
-16.3972

>  <SCORE.INTRA.DIHEDRAL.0>
46.2143

>  <SCORE.INTRA.POLAR>
-2.62674

>  <SCORE.INTRA.POLAR.0>
-1.76436

>  <SCORE.INTRA.REPUL>
0.0109192

>  <SCORE.INTRA.REPUL.0>
0

>  <SCORE.INTRA.SOLV>
6.21701

>  <SCORE.INTRA.SOLV.lig_0>
-148.643

>  <SCORE.INTRA.VDW>
-0.999297

>  <SCORE.INTRA.VDW.0>
-4.83512

>  <SCORE.INTRA.norm>
-0.356327

>  <SCORE.RESTR>
0.283999

>  <SCORE.RESTR.CAVITY>
0.283999

>  <SCORE.RESTR.norm>
0.00676187

>  <SCORE.SYSTEM>
0

>  <SCORE.SYSTEM.CONST>
0

>  <SCORE.SYSTEM.DIHEDRAL>
0

>  <SCORE.SYSTEM.SOLV>
0

>  <SCORE.SYSTEM.norm>
0

>  <SCORE.heavy>
42

>  <SCORE.norm>
-0.833366

>  <RMSD>
8.042

$$$$
1j7t
 OpenBabel11021811393D
libRbt.so/2013.1/901 2013/11/27
 42 45  0  0  0  0  0  0  0  0999 V2000
   30.5937   14.2517   47.4154 C   0  0  2  0  0  0  0  0  0  0  0  0
   30.5849   14.1234   48.8597 O   0  0  0  0  0  0  0  0  0  0  0  0
   29.8158   13.0296   46.8487 C   0  0  2  0  0  0  0  0  0  0  0  0
   28.4521   12.8441   47.4227 N   0  3  0  0  0  0  0  0  0  0  0  0
   30.6368   11.7571   47.1514 C   0  0  1  0  0  0  0  0  0  0  0  0
   29.9907   10.6218   46.6481 O   0  0  0  0  0  0  0  0  0  0  0  0
   32.0570   11.8869   46.5517 C   0  0  2  0  0  0  0  0  0  0  0  0
   32.8193   10.7221   46.7993 O   0  0  0  0  0  0  0  0  0  0  0  0
   32.7637   13.0807   47.1578 C   0  0  2  0  0  0  0  0  0  0  0  0
   31.9790   14.2478   46.9475 O   0  0  0  0  0  0  0  0  0  0  0  0
   34.1170   13.3463   46.5373 C   0  0  0  0  0  0  0  0  0  0  0  0
   33.9488   13.7326   45.1869 O   0  0  0  0  0  0  0  0  0  0  0  0
   34.7311   13.5152   49.3952 C   0  0  2  0  0  0  0  0  0  0  0  0
   36.0387   13.3642   50.0346 N   0  3  0  0  0  0  0  0  0  0  0  0
   34.1663   14.9488   49.6672 C   0  0  0  0  0  0  0  0  0  0  0  0
   32.7681   15.0957   49.0370 C   0  0  2  0  0  0  0  0  0  0  0  0
   32.2004   16.4163   49.3281 N   0  3  0  0  0  0  0  0  0  0  0  0
   31.8221   14.0023   49.5712 C   0  0  2  0  0  0  0  0  0  0  0  0
   32.3669   12.5791   49.3413 C   0  0  2  0  0  0  0  0  0  0  0  0
   31.4619   11.6910   50.0252 O   0  0  0  0  0  0  0  0  0  0  0  0
   33.7932   12.4461   49.9329 C   0  0  1  0  0  0  0  0  0  0  0  0
   34.3041   11.1788   49.6232 O   0  0  0  0  0  0  0  0  0  0  0  0
   31.7090   10.2982   50.1995 C   0  0  1  0  0  0  0  0  0  0  0  0
   31.8642   10.0066   51.7347 C   0  0  2  0  0  0  0  0  0  0  0  0
   33.1871   10.1624   52.2192 O   0  0  0  0  0  0  0  0  0  0  0  0
   31.3482    8.5744   51.7404 C   0  0  2  0  0  0  0  0  0  0  0  0
   32.2762    7.6781   51.0584 O   0  0  0  0  0  0  0  0  0  0  0  0
   30.0900    8.6692   50.8888 C   0  0  2  0  0  0  0  0  0  0  0  0
   30.5488    9.5104   49.8166 O   0  0  0  0  0  0  0  0  0  0  0  0
   28.8402    9.2557   51.6236 C   0  0  0  0  0  0  0  0  0  0  0  0
   27.6283    8.9771   50.9111 O   0  0  0  0  0  0  0  0  0  0  0  0
   33.4016    7.2994   51.8469 C   0  0  2  0  0  0  0  0  0  0  0  0
   34.4003    6.3237   51.1363 C   0  0  2  0  0  0  0  0  0  0  0  0
   33.7518    5.0540   50.6884 N   0  3  0  0  0  0  0  0  0  0  0  0
   35.5665    6.0486   52.1432 C   0  0  1  0  0  0  0  0  0  0  0  0
   36.2466    7.3391   52.3876 O   0  0  0  0  0  0  0  0  0  0  0  0
   35.0537    5.4771   53.5222 C   0  0  2  0  0  0  0  0  0  0  0  0
   34.4443    4.1970   53.2880 O   0  0  0  0  0  0  0  0  0  0  0  0
   34.0239    6.5149   54.1342 C   0  0  1  0  0  0  0  0  0  0  0  0
   32.9550    6.7118   53.1482 O   0  0  0  0  0  0  0  0  0  0  0  0
   33.4125    6.0896   55.4886 C   0  0  0  0  0  0  0  0  0  0  0  0
   34.3377    6.2741   56.6395 N   0  3  0  0  0  0  0  0  0  0  0  0
  1  2  1  1  0  0  0
  1  3  1  0  0  0  0
  1 10  1  0  0  0  0
  3  4  1  1  0  0  0
  3  5  1  0  0  0  0
  5  6  1  6  0  0  0
  5  7  1  0  0  0  0
  7  8  1  1  0  0  0
  7  9  1  0  0  0  0
  9 10  1  0  0  0  0
  9 11  1  6  0  0  0
 11 12  1  0  0  0  0
 13 14  1  1  0  0  0
 13 15  1  0  0  0  0
 13 21  1  0  0  0  0
 15 16  1  0  0  0  0
 16 17  1  1  0  0  0
 16 18  1  0  0  0  0
 18  2  1  6  0  0  0
 18 19  1  0  0  0  0
 19 20  1  1  0  0  0
 19 21  1  0  0  0  0
 21 22  1  6  0  0  0
 23 20  1  1  0  0  0
 23 24  1  0  0  0  0
 23 29  1  0  0  0  0
 24 25  1  6  0  0  0
 24 26  1  0  0  0  0
 26 27  1  6  0  0  0
 26 28  1  0  0  0  0
 28 29  1  0  0  0  0
 28 30  1  1  0  0  0
 30 31  1  0  0  0  0
 32 27  1  6  0  0  0
 32 33  1  0  0  0  0
 32 40  1  0  0  0  0
 33 34  1  1  0  0  0
 33 35  1  0  0  0  0
 35 36  1  1  0  0  0
 35 37  1  0  0  0  0
 37 38  1  6  0  0  0
 37 39  1  0  0  0  0
 39 40  1  0  0  0  0
 39 41  1  1  0  0  0
 41 42  1  0  0  0  0
M  CHG  5   4   1  14   1  17   1  34   1  42   1
M  END
>  <CHROM.1>
118.97324629,47.47515249,73.57990302,-165.52350335,-59.75971504,65.99027498
70.20734876,-36.73626254,166.11614937,-171.59822060,115.54104778,146.40059589
130.95600548,79.02104926,179.32213038,-163.79917345,-49.80272820,62.74427308
59.65658303,-166.46025113,76.89414343,-69.52151655,32.53617233,10.43724841
50.10610025,1.78201899,-0.26382529,-0.58891216

>  <Name>
1j7t

>  <RI>
0

>  <Rbt.Current_Directory>
/home/itssahil/PROJECTS/Mol_Feturizer/New_Systems/rnas/1j7t

>  <Rbt.Executable>
rbdock ($Id: //depot/dev/client3/rdock/2013.1/src/exe/rbdock.cxx#4 $)

>  <Rbt.Library>
libRbt.so (2013.1, Build901 2013/11/27)

>  <Rbt.Parameter_File>
/export/apps/rDock/src/rDock_2013.1_src/data/scripts/dock_solv.prm

>  <Rbt.Receptor>
prm/blind_docking_80.prm

>  <SCORE>
10.2865

>  <SCORE.INTER>
-26.8572

>  <SCORE.INTER.CONST>
1

>  <SCORE.INTER.POLAR>
-5.374

>  <SCORE.INTER.ROT>
9

>  <SCORE.INTER.SOLV>
44.3509

>  <SCORE.INTER.VDW>
-24.3751

>  <SCORE.INTER.norm>
-0.639456

>  <SCORE.INTRA>
15.3923

>  <SCORE.INTRA.DIHEDRAL>
-11.1778

>  <SCORE.INTRA.DIHEDRAL.0>
46.2143

>  <SCORE.INTRA.POLAR>
-0.00795799

>  <SCORE.INTRA.POLAR.0>
-1.76436

>  <SCORE.INTRA.REPUL>
0

>  <SCORE.INTRA.REPUL.0>
0

>  <SCORE.INTRA.SOLV>
-2.61606

>  <SCORE.INTRA.SOLV.lig_0>
-148.643

>  <SCORE.INTRA.VDW>
22.3163

>  <SCORE.INTRA.VDW.0>
-4.83512

>  <SCORE.INTRA.norm>
0.366484

>  <SCORE.RESTR>
21.7513

>  <SCORE.RESTR.CAVITY>
21.7513

>  <SCORE.RESTR.norm>
0.517888

>  <SCORE.SYSTEM>
0

>  <SCORE.SYSTEM.CONST>
0

>  <SCORE.SYSTEM.DIHEDRAL>
0

>  <SCORE.SYSTEM.SOLV>
0

>  <SCORE.SYSTEM.norm>
0

>  <SCORE.heavy>
42

>  <SCORE.norm>
0.244917

>  <RMSD>
8.078

$$$$
1j7t
 OpenBabel11021811393D
libRbt.so/2013.1/901 2013/11/27
 42 45  0  0  0  0  0  0  0  0999 V2000
   26.3984    9.2175   60.7530 C   0  0  2  0  0  0  0  0  0  0  0  0
   27.1294    9.8780   59.6891 O   0  0  0  0  0  0  0  0  0  0  0  0
   25.1120   10.0553   61.0047 C   0  0  2  0  0  0  0  0  0  0  0  0
   24.2913   10.3099   59.7859 N   0  3  0  0  0  0  0  0  0  0  0  0
   25.5363   11.4213   61.5867 C   0  0  1  0  0  0  0  0  0  0  0  0
   24.4141   12.2156   61.8496 O   0  0  0  0  0  0  0  0  0  0  0  0
   26.3708   11.2138   62.8728 C   0  0  2  0  0  0  0  0  0  0  0  0
   26.7519   12.4542   63.4344 O   0  0  0  0  0  0  0  0  0  0  0  0
   27.6138   10.4101   62.5549 C   0  0  2  0  0  0  0  0  0  0  0  0
   27.2358    9.1794   61.9510 O   0  0  0  0  0  0  0  0  0  0  0  0
   28.4254   10.0632   63.7829 C   0  0  0  0  0  0  0  0  0  0  0  0
   29.5489    9.2921   63.4030 O   0  0  0  0  0  0  0  0  0  0  0  0
   29.6367    8.2141   56.7238 C   0  0  2  0  0  0  0  0  0  0  0  0
   30.7848    7.5781   56.0766 N   0  3  0  0  0  0  0  0  0  0  0  0
   30.0697    9.5764   57.3603 C   0  0  0  0  0  0  0  0  0  0  0  0
   28.8752   10.2261   58.0847 C   0  0  2  0  0  0  0  0  0  0  0  0
   29.2767   11.4787   58.7333 N   0  3  0  0  0  0  0  0  0  0  0  0
   28.3015    9.2626   59.1422 C   0  0  2  0  0  0  0  0  0  0  0  0
   27.8917    7.9012   58.5474 C   0  0  2  0  0  0  0  0  0  0  0  0
   27.5295    7.0702   59.6671 O   0  0  0  0  0  0  0  0  0  0  0  0
   29.0794    7.2702   57.7774 C   0  0  1  0  0  0  0  0  0  0  0  0
   28.6530    6.0853   57.1633 O   0  0  0  0  0  0  0  0  0  0  0  0
   27.1466    5.7033   59.5403 C   0  0  1  0  0  0  0  0  0  0  0  0
   26.8494    5.1327   60.9729 C   0  0  2  0  0  0  0  0  0  0  0  0
   27.9901    4.6099   61.6320 O   0  0  0  0  0  0  0  0  0  0  0  0
   25.8062    4.0942   60.5846 C   0  0  2  0  0  0  0  0  0  0  0  0
   26.4078    3.0020   59.8265 O   0  0  0  0  0  0  0  0  0  0  0  0
   24.9008    4.8684   59.6369 C   0  0  2  0  0  0  0  0  0  0  0  0
   25.8725    5.5799   58.8512 O   0  0  0  0  0  0  0  0  0  0  0  0
   23.8758    5.8204   60.3361 C   0  0  0  0  0  0  0  0  0  0  0  0
   22.9568    5.0940   61.1617 O   0  0  0  0  0  0  0  0  0  0  0  0
   25.5254    1.9090   59.5850 C   0  0  2  0  0  0  0  0  0  0  0  0
   26.2186    0.5046   59.5447 C   0  0  2  0  0  0  0  0  0  0  0  0
   27.2929    0.4168   58.5096 N   0  3  0  0  0  0  0  0  0  0  0  0
   25.0934   -0.5545   59.2956 C   0  0  1  0  0  0  0  0  0  0  0  0
   24.1790   -0.5024   60.4570 O   0  0  0  0  0  0  0  0  0  0  0  0
   24.2648   -0.2606   57.9848 C   0  0  2  0  0  0  0  0  0  0  0  0
   25.1449   -0.3684   56.8541 O   0  0  0  0  0  0  0  0  0  0  0  0
   23.6432    1.1921   58.1092 C   0  0  1  0  0  0  0  0  0  0  0  0
   24.7507    2.1305   58.3244 O   0  0  0  0  0  0  0  0  0  0  0  0
   22.8096    1.6402   56.8873 C   0  0  0  0  0  0  0  0  0  0  0  0
   22.2528    3.0137   57.0223 N   0  3  0  0  0  0  0  0  0  0  0  0
  1  2  1  6  0  0  0
  1  3  1  0  0  0  0
  1 10  1  0  0  0  0
  3  4  1  6  0  0  0
  3  5  1  0  0  0  0
  5  6  1  1  0  0  0
  5  7  1  0  0  0  0
  7  8  1  6  0  0  0
  7  9  1  0  0  0  0
  9 10  1  0  0  0  0
  9 11  1  1  0  0  0
 11 12  1  0  0  0  0
 13 14  1  1  0  0  0
 13 15  1  0  0  0  0
 13 21  1  0  0  0  0
 15 16  1  0  0  0  0
 16 17  1  1  0  0  0
 16 18  1  0  0  0  0
 18  2  1  6  0  0  0
 18 19  1  0  0  0  0
 19 20  1  1  0  0  0
 19 21  1  0  0  0  0
 21 22  1  6  0  0  0
 23 20  1  1  0  0  0
 23 24  1  0  0  0  0
 23 29  1  0  0  0  0
 24 25  1  6  0  0  0
 24 26  1  0  0  0  0
 26 27  1  6  0  0  0
 26 28  1  0  0  0  0
 28 29  1  0  0  0  0
 28 30  1  1  0  0  0
 30 31  1  0  0  0  0
 32 27  1  6  0  0  0
 32 33  1  0  0  0  0
 32 40  1  0  0  0  0
 33 34  1  6  0  0  0
 33 35  1  0  0  0  0
 35 36  1  1  0  0  0
 35 37  1  0  0  0  0
 37 38  1  6  0  0  0
 37 39  1  0  0  0  0
 39 40  1  0  0  0  0
 39 41  1  6  0  0  0
 41 42  1  0  0  0  0
M  CHG  5   4   1  14   1  17   1  34   1  42   1
M  END
>  <CHROM.1>
-173.81464884,-177.73484521,-162.34871348,-72.76582087,177.71162641,178.79360453
76.59048194,72.71464262,-54.40424496,-177.07821962,179.14298517,68.14182512
-58.49535396,172.04876894,-147.08157468,-62.40217879,-178.39538828,-35.22344412
60.48704990,179.05816617,-179.23896899,-175.61412714,26.47141945,6.27642874
59.68708671,1.23308207,0.64462865,0.45363851

>  <Name>
1j7t

>  <RI>
224

>  <Rbt.Current_Directory>
/home/itssahil/PROJECTS/Mol_Feturizer/New_Systems/rnas/1j7t

>  <Rbt.Executable>
rbdock ($Id: //depot/dev/client3/rdock/2013.1/src/exe/rbdock.cxx#4 $)

>  <Rbt.Library>
libRbt.so (2013.1, Build901 2013/11/27)

>  <Rbt.Parameter_File>
/export/apps/rDock/src/rDock_2013.1_src/data/scripts/dock_solv.prm

>  <Rbt.Receptor>
prm/pocket_docking_7.prm

>  <SCORE>
-42.1848

>  <SCORE.INTER>
-27.6081

>  <SCORE.INTER.CONST>
1

>  <SCORE.INTER.POLAR>
-5.38755

>  <SCORE.INTER.ROT>
9

>  <SCORE.INTER.SOLV>
17.8578

>  <SCORE.INTER.VDW>
-15.9995

>  <SCORE.INTER.norm>
-0.657337

>  <SCORE.INTRA>
-14.5766

>  <SCORE.INTRA.DIHEDRAL>
-35.8285

>  <SCORE.INTRA.DIHEDRAL.0>
46.2143

>  <SCORE.INTRA.POLAR>
1.71794

>  <SCORE.INTRA.POLAR.0>
-1.76436

>  <SCORE.INTRA.REPUL>
0

>  <SCORE.INTRA.REPUL.0>
0

>  <SCORE.INTRA.SOLV>
-7.24544

>  <SCORE.INTRA.SOLV.lig_0>
-148.643

>  <SCORE.INTRA.VDW>
1.11936

>  <SCORE.INTRA.VDW.0>
-4.83512

>  <SCORE.INTRA.norm>
-0.347062

>  <SCORE.RESTR>
0

>  <SCORE.RESTR.CAVITY>
0

>  <SCORE.RESTR.norm>
0

>  <SCORE.SYSTEM>
0

>  <SCORE.SYSTEM.CONST>
0

>  <SCORE.SYSTEM.DIHEDRAL>
0

>  <SCORE.SYSTEM.SOLV>
0

>  <SCORE.SYSTEM.norm>
0

>  <SCORE.heavy>
42

>  <SCORE.norm>
-1.0044

>  <RMSD>
8.086

$$$$
1j7t
 OpenBabel11021811393D
libRbt.so/2013.1/901 2013/11/27
 42 45  0  0  0  0  0  0  0  0999 V2000
   27.2363    6.9073   57.7774 C   0  0  2  0  0  0  0  0  0  0  0  0
   27.6330    6.2625   56.5406 O   0  0  0  0  0  0  0  0  0  0  0  0
   27.0046    8.4102   57.4490 C   0  0  2  0  0  0  0  0  0  0  0  0
   26.0642    8.6584   56.3186 N   0  3  0  0  0  0  0  0  0  0  0  0
   28.3676    9.0356   57.0803 C   0  0  1  0  0  0  0  0  0  0  0  0
   28.2231   10.3972   56.7894 O   0  0  0  0  0  0  0  0  0  0  0  0
   29.3759    8.8289   58.2354 C   0  0  2  0  0  0  0  0  0  0  0  0
   30.6257    9.4136   57.9268 O   0  0  0  0  0  0  0  0  0  0  0  0
   29.5694    7.3491   58.4900 C   0  0  2  0  0  0  0  0  0  0  0  0
   28.3083    6.7498   58.7592 O   0  0  0  0  0  0  0  0  0  0  0  0
   30.4527    7.0638   59.6840 C   0  0  0  0  0  0  0  0  0  0  0  0
   29.7902    7.4662   60.8673 O   0  0  0  0  0  0  0  0  0  0  0  0
   27.8299    2.3148   58.0321 C   0  0  2  0  0  0  0  0  0  0  0  0
   27.9806    0.8603   58.0886 N   0  3  0  0  0  0  0  0  0  0  0  0
   26.6077    2.6903   57.1301 C   0  0  0  0  0  0  0  0  0  0  0  0
   26.4751    4.2218   57.0284 C   0  0  2  0  0  0  0  0  0  0  0  0
   25.3663    4.5921   56.1427 N   0  3  0  0  0  0  0  0  0  0  0  0
   27.7835    4.8388   56.4966 C   0  0  2  0  0  0  0  0  0  0  0  0
   29.0098    4.4625   57.3509 C   0  0  2  0  0  0  0  0  0  0  0  0
   30.1578    4.9748   56.6474 O   0  0  0  0  0  0  0  0  0  0  0  0
   29.1151    2.9229   57.4934 C   0  0  1  0  0  0  0  0  0  0  0  0
   30.1753    2.6114   58.3548 O   0  0  0  0  0  0  0  0  0  0  0  0
   30.2735    4.9759   55.2269 C   0  0  1  0  0  0  0  0  0  0  0  0
   31.3163    6.0739   54.8113 C   0  0  2  0  0  0  0  0  0  0  0  0
   30.7539    7.3622   54.6297 O   0  0  0  0  0  0  0  0  0  0  0  0
   31.8312    5.4182   53.5376 C   0  0  2  0  0  0  0  0  0  0  0  0
   30.8073    5.4127   52.4977 O   0  0  0  0  0  0  0  0  0  0  0  0
   32.0548    3.9762   53.9711 C   0  0  2  0  0  0  0  0  0  0  0  0
   30.8703    3.7387   54.7510 O   0  0  0  0  0  0  0  0  0  0  0  0
   33.3700    3.7282   54.7802 C   0  0  0  0  0  0  0  0  0  0  0  0
   33.5833    2.3330   55.0290 O   0  0  0  0  0  0  0  0  0  0  0  0
   30.1814    6.6768   52.2937 C   0  0  2  0  0  0  0  0  0  0  0  0
   28.8767    6.6292   51.4278 C   0  0  2  0  0  0  0  0  0  0  0  0
   29.1016    6.0452   50.0706 N   0  3  0  0  0  0  0  0  0  0  0  0
   28.3318    8.0938   51.3395 C   0  0  1  0  0  0  0  0  0  0  0  0
   27.9820    8.5138   52.7138 O   0  0  0  0  0  0  0  0  0  0  0  0
   29.3975    9.1022   50.7574 C   0  0  2  0  0  0  0  0  0  0  0  0
   29.6919    8.7242   49.4027 O   0  0  0  0  0  0  0  0  0  0  0  0
   30.6868    9.0431   51.6774 C   0  0  1  0  0  0  0  0  0  0  0  0
   31.1501    7.6510   51.7013 O   0  0  0  0  0  0  0  0  0  0  0  0
   31.8395    9.9690   51.2269 C   0  0  0  0  0  0  0  0  0  0  0  0
   32.9337   10.0822   52.2292 N   0  3  0  0  0  0  0  0  0  0  0  0
  1  2  1  6  0  0  0
  1  3  1  0  0  0  0
  1 10  1  0  0  0  0
  3  4  1  6  0  0  0
  3  5  1  0  0  0  0
  5  6  1  1  0  0  0
  5  7  1  0  0  0  0
  7  8  1  6  0  0  0
  7  9  1  0  0  0  0
  9 10  1  0  0  0  0
  9 11  1  1  0  0  0
 11 12  1  0  0  0  0
 13 14  1  6  0  0  0
 13 15  1  0  0  0  0
 13 21  1  0  0  0  0
 15 16  1  0  0  0  0
 16 17  1  6  0  0  0
 16 18  1  0  0  0  0
 18  2  1  1  0  0  0
 18 19  1  0  0  0  0
 19 20  1  6  0  0  0
 19 21  1  0  0  0  0
 21 22  1  1  0  0  0
 23 20  1  1  0  0  0
 23 24  1  0  0  0  0
 23 29  1  0  0  0  0
 24 25  1  6  0  0  0
 24 26  1  0  0  0  0
 26 27  1  6  0  0  0
 26 28  1  0  0  0  0
 28 29  1  0  0  0  0
 28 30  1  1  0  0  0
 30 31  1  0  0  0  0
 32 27  1  6  0  0  0
 32 33  1  0  0  0  0
 32 40  1  0  0  0  0
 33 34  1  6  0  0  0
 33 35  1  0  0  0  0
 35 36  1  1  0  0  0
 35 37  1  0  0  0  0
 37 38  1  6  0  0  0
 37 39  1  0  0  0  0
 39 40  1  0  0  0  0
 39 41  1  6  0  0  0
 41 42  1  0  0  0  0
M  CHG  5   4   1  14   1  17   1  34   1  42   1
M  END
>  <CHROM.1>
-173.54749073,53.16142429,73.19874458,-122.62895726,-38.08356252,67.79642044
161.63123447,-38.55470641,-57.03029170,-36.93898426,157.70483087,175.39439594
55.66922497,49.13838750,-166.87912293,-173.79543591,57.41591601,-46.67199050
66.48844290,63.73383271,169.63288216,131.09566948,29.49262729,6.31373437
55.29412565,2.14990035,-1.09444771,2.59075906

>  <Name>
1j7t

>  <RI>
0

>  <Rbt.Current_Directory>
/home/itssahil/PROJECTS/Mol_Feturizer/New_Systems/rnas/1j7t

>  <Rbt.Executable>
rbdock ($Id: //depot/dev/client3/rdock/2013.1/src/exe/rbdock.cxx#4 $)

>  <Rbt.Library>
libRbt.so (2013.1, Build901 2013/11/27)

>  <Rbt.Parameter_File>
/export/apps/rDock/src/rDock_2013.1_src/data/scripts/dock_solv.prm

>  <Rbt.Receptor>
prm/pocket_docking_5.prm

>  <SCORE>
-43.3681

>  <SCORE.INTER>
-38.1337

>  <SCORE.INTER.CONST>
1

>  <SCORE.INTER.POLAR>
-7.38405

>  <SCORE.INTER.ROT>
9

>  <SCORE.INTER.SOLV>
26.8835

>  <SCORE.INTER.VDW>
-19.3702

>  <SCORE.INTER.norm>
-0.907946

>  <SCORE.INTRA>
-5.23435

>  <SCORE.INTRA.DIHEDRAL>
-22.0508

>  <SCORE.INTRA.DIHEDRAL.0>
46.2143

>  <SCORE.INTRA.POLAR>
1.62148

>  <SCORE.INTRA.POLAR.0>
-1.76436

>  <SCORE.INTRA.REPUL>
0.0512902

>  <SCORE.INTRA.REPUL.0>
0

>  <SCORE.INTRA.SOLV>
-3.64402

>  <SCORE.INTRA.SOLV.lig_0>
-148.643

>  <SCORE.INTRA.VDW>
1.84356

>  <SCORE.INTRA.VDW.0>
-4.83512

>  <SCORE.INTRA.norm>
-0.124627

>  <SCORE.RESTR>
0

>  <SCORE.RESTR.CAVITY>
0

>  <SCORE.RESTR.norm>
0

>  <SCORE.SYSTEM>
0

>  <SCORE.SYSTEM.CONST>
0

>  <SCORE.SYSTEM.DIHEDRAL>
0

>  <SCORE.SYSTEM.SOLV>
0

>  <SCORE.SYSTEM.norm>
0

>  <SCORE.heavy>
42

>  <SCORE.norm>
-1.03257

>  <RMSD>
8.087

$$$$
1j7t
 OpenBabel11021811393D
libRbt.so/2013.1/901 2013/11/27
 42 45  0  0  0  0  0  0  0  0999 V2000
   30.4254   12.5832   48.3154 C   0  0  2  0  0  0  0  0  0  0  0  0
   31.5985   11.7593   48.0976 O   0  0  0  0  0  0  0  0  0  0  0  0
   29.1876   11.7077   47.9671 C   0  0  2  0  0  0  0  0  0  0  0  0
   29.1368   10.3977   48.6778 N   0  3  0  0  0  0  0  0  0  0  0  0
   29.2128   11.4250   46.4491 C   0  0  1  0  0  0  0  0  0  0  0  0
   28.1087   10.6509   46.0730 O   0  0  0  0  0  0  0  0  0  0  0  0
   29.2386   12.7566   45.6618 C   0  0  2  0  0  0  0  0  0  0  0  0
   29.2403   12.5203   44.2678 O   0  0  0  0  0  0  0  0  0  0  0  0
   30.4743   13.5489   46.0326 C   0  0  2  0  0  0  0  0  0  0  0  0
   30.4975   13.7520   47.4397 O   0  0  0  0  0  0  0  0  0  0  0  0
   30.5142   14.9185   45.3926 C   0  0  0  0  0  0  0  0  0  0  0  0
   30.7703   14.7844   44.0077 O   0  0  0  0  0  0  0  0  0  0  0  0
   35.5885   13.0769   48.5355 C   0  0  2  0  0  0  0  0  0  0  0  0
   36.8794   13.4117   49.1378 N   0  3  0  0  0  0  0  0  0  0  0  0
   34.4597   13.9558   49.1693 C   0  0  0  0  0  0  0  0  0  0  0  0
   33.0919   13.5722   48.5729 C   0  0  2  0  0  0  0  0  0  0  0  0
   32.0148   14.3495   49.1950 N   0  3  0  0  0  0  0  0  0  0  0  0
   32.8215   12.0685   48.7759 C   0  0  2  0  0  0  0  0  0  0  0  0
   33.9324   11.1786   48.1850 C   0  0  2  0  0  0  0  0  0  0  0  0
   33.6199    9.8312   48.5878 O   0  0  0  0  0  0  0  0  0  0  0  0
   35.3143   11.5966   48.7484 C   0  0  1  0  0  0  0  0  0  0  0  0
   36.3148   10.8421   48.1217 O   0  0  0  0  0  0  0  0  0  0  0  0
   33.6512    9.3882   49.9421 C   0  0  1  0  0  0  0  0  0  0  0  0
   32.8994   10.4427   50.8302 C   0  0  2  0  0  0  0  0  0  0  0  0
   33.7261   11.4944   51.2986 O   0  0  0  0  0  0  0  0  0  0  0  0
   32.3942    9.4991   51.9127 C   0  0  2  0  0  0  0  0  0  0  0  0
   33.4956    8.9920   52.7247 O   0  0  0  0  0  0  0  0  0  0  0  0
   31.8409    8.3321   51.1070 C   0  0  2  0  0  0  0  0  0  0  0  0
   32.8678    8.1755   50.1127 O   0  0  0  0  0  0  0  0  0  0  0  0
   30.4278    8.5743   50.4823 C   0  0  0  0  0  0  0  0  0  0  0  0
   29.4553    8.9001   51.4834 O   0  0  0  0  0  0  0  0  0  0  0  0
   33.5123    7.5730   52.8577 C   0  0  2  0  0  0  0  0  0  0  0  0
   34.3933    7.0363   54.0368 C   0  0  2  0  0  0  0  0  0  0  0  0
   35.8206    7.4683   53.9383 N   0  3  0  0  0  0  0  0  0  0  0  0
   34.2639    5.4766   54.0322 C   0  0  1  0  0  0  0  0  0  0  0  0
   32.8464    5.1546   54.3056 O   0  0  0  0  0  0  0  0  0  0  0  0
   34.6699    4.8394   52.6463 C   0  0  2  0  0  0  0  0  0  0  0  0
   36.0622    5.1057   52.4115 O   0  0  0  0  0  0  0  0  0  0  0  0
   33.7520    5.4768   51.5224 C   0  0  1  0  0  0  0  0  0  0  0  0
   33.9351    6.9319   51.5738 O   0  0  0  0  0  0  0  0  0  0  0  0
   34.0394    4.9650   50.0925 C   0  0  0  0  0  0  0  0  0  0  0  0
   33.8983    3.4902   49.9524 N   0  3  0  0  0  0  0  0  0  0  0  0
  1  2  1  6  0  0  0
  1  3  1  0  0  0  0
  1 10  1  0  0  0  0
  3  4  1  1  0  0  0
  3  5  1  0  0  0  0
  5  6  1  6  0  0  0
  5  7  1  0  0  0  0
  7  8  1  6  0  0  0
  7  9  1  0  0  0  0
  9 10  1  0  0  0  0
  9 11  1  6  0  0  0
 11 12  1  0  0  0  0
 13 14  1  1  0  0  0
 13 15  1  0  0  0  0
 13 21  1  0  0  0  0
 15 16  1  0  0  0  0
 16 17  1  1  0  0  0
 16 18  1  0  0  0  0
 18  2  1  6  0  0  0
 18 19  1  0  0  0  0
 19 20  1  1  0  0  0
 19 21  1  0  0  0  0
 21 22  1  6  0  0  0
 23 20  1  6  0  0  0
 23 24  1  0  0  0  0
 23 29  1  0  0  0  0
 24 25  1  1  0  0  0
 24 26  1  0  0  0  0
 26 27  1  1  0  0  0
 26 28  1  0  0  0  0
 28 29  1  0  0  0  0
 28 30  1  6  0  0  0
 30 31  1  0  0  0  0
 32 27  1  6  0  0  0
 32 33  1  0  0  0  0
 32 40  1  0  0  0  0
 33 34  1  6  0  0  0
 33 35  1  0  0  0  0
 35 36  1  6  0  0  0
 35 37  1  0  0  0  0
 37 38  1  6  0  0  0
 37 39  1  0  0  0  0
 39 40  1  0  0  0  0
 39 41  1  6  0  0  0
 41 42  1  0  0  0  0
M  CHG  5   4   1  14   1  17   1  34   1  42   1
M  END
>  <CHROM.1>
-156.70190474,-49.23790939,-57.85881026,65.24937255,-166.92591279,-71.71501010
-169.56163812,52.98826686,22.71728710,-66.35042025,46.76887504,70.73198901
168.96330895,-128.71079624,-162.66832662,-57.50330337,-170.15418999,115.46921113
-173.61993337,67.00108598,58.02761446,-54.17346423,32.62934119,10.03532282
49.57872386,1.95693721,-0.40107489,-0.54424401

>  <Name>
1j7t

>  <RI>
0

>  <Rbt.Current_Directory>
/home/itssahil/PROJECTS/Mol_Feturizer/New_Systems/rnas/1j7t

>  <Rbt.Executable>
rbdock ($Id: //depot/dev/client3/rdock/2013.1/src/exe/rbdock.cxx#4 $)

>  <Rbt.Library>
libRbt.so (2013.1, Build901 2013/11/27)

>  <Rbt.Parameter_File>
/export/apps/rDock/src/rDock_2013.1_src/data/scripts/dock_solv.prm

>  <Rbt.Receptor>
prm/blind_docking_80.prm

>  <SCORE>
32.0973

>  <SCORE.INTER>
-0.698795

>  <SCORE.INTER.CONST>
1

>  <SCORE.INTER.POLAR>
-4.28899

>  <SCORE.INTER.ROT>
9

>  <SCORE.INTER.SOLV>
37.8977

>  <SCORE.INTER.VDW>
-8.4018

>  <SCORE.INTER.norm>
-0.016638

>  <SCORE.INTRA>
13.3209

>  <SCORE.INTRA.DIHEDRAL>
-23.5358

>  <SCORE.INTRA.DIHEDRAL.0>
46.2143

>  <SCORE.INTRA.POLAR>
0.370259

>  <SCORE.INTRA.POLAR.0>
-1.76436

>  <SCORE.INTRA.REPUL>
0

>  <SCORE.INTRA.REPUL.0>
0

>  <SCORE.INTRA.SOLV>
5.22781

>  <SCORE.INTRA.SOLV.lig_0>
-148.643

>  <SCORE.INTRA.VDW>
21.216

>  <SCORE.INTRA.VDW.0>
-4.83512

>  <SCORE.INTRA.norm>
0.317164

>  <SCORE.RESTR>
19.4752

>  <SCORE.RESTR.CAVITY>
19.4752

>  <SCORE.RESTR.norm>
0.463696

>  <SCORE.SYSTEM>
0

>  <SCORE.SYSTEM.CONST>
0

>  <SCORE.SYSTEM.DIHEDRAL>
0

>  <SCORE.SYSTEM.SOLV>
0

>  <SCORE.SYSTEM.norm>
0

>  <SCORE.heavy>
42

>  <SCORE.norm>
0.764222

>  <RMSD>
8.099

$$$$
1j7t
 OpenBabel11021811393D
libRbt.so/2013.1/901 2013/11/27
 42 45  0  0  0  0  0  0  0  0999 V2000
   26.5843    3.3547   55.2856 C   0  0  2  0  0  0  0  0  0  0  0  0
   25.3464    4.0930   55.4444 O   0  0  0  0  0  0  0  0  0  0  0  0
   26.2690    1.8679   55.6176 C   0  0  2  0  0  0  0  0  0  0  0  0
   25.1280    1.2913   54.8501 N   0  3  0  0  0  0  0  0  0  0  0  0
   25.9270    1.7749   57.1207 C   0  0  1  0  0  0  0  0  0  0  0  0
   25.6490    0.4516   57.4824 O   0  0  0  0  0  0  0  0  0  0  0  0
   27.0943    2.3374   57.9661 C   0  0  2  0  0  0  0  0  0  0  0  0
   26.8102    2.2419   59.3479 O   0  0  0  0  0  0  0  0  0  0  0  0
   27.3355    3.7885   57.6081 C   0  0  2  0  0  0  0  0  0  0  0  0
   27.5798    3.8935   56.2112 O   0  0  0  0  0  0  0  0  0  0  0  0
   28.5388    4.3795   58.3079 C   0  0  0  0  0  0  0  0  0  0  0  0
   28.2326    4.5938   59.6722 O   0  0  0  0  0  0  0  0  0  0  0  0
   26.9596    7.9970   55.3783 C   0  0  2  0  0  0  0  0  0  0  0  0
   27.0601    9.4539   55.2842 N   0  3  0  0  0  0  0  0  0  0  0  0
   26.4210    7.4108   54.0312 C   0  0  0  0  0  0  0  0  0  0  0  0
   26.2674    5.8819   54.1425 C   0  0  2  0  0  0  0  0  0  0  0  0
   25.7124    5.3216   52.9060 N   0  3  0  0  0  0  0  0  0  0  0  0
   25.3488    5.5204   55.3263 C   0  0  2  0  0  0  0  0  0  0  0  0
   25.8408    6.1085   56.6631 C   0  0  2  0  0  0  0  0  0  0  0  0
   24.8100    5.8219   57.6278 O   0  0  0  0  0  0  0  0  0  0  0  0
   26.0417    7.6400   56.5366 C   0  0  1  0  0  0  0  0  0  0  0  0
   26.5836    8.1338   57.7305 O   0  0  0  0  0  0  0  0  0  0  0  0
   25.0329    5.8060   59.0354 C   0  0  1  0  0  0  0  0  0  0  0  0
   24.2301    6.9907   59.6818 C   0  0  2  0  0  0  0  0  0  0  0  0
   24.9430    8.2152   59.7208 O   0  0  0  0  0  0  0  0  0  0  0  0
   23.9681    6.3625   61.0434 C   0  0  2  0  0  0  0  0  0  0  0  0
   25.2024    6.2381   61.8119 O   0  0  0  0  0  0  0  0  0  0  0  0
   23.5083    4.9575   60.6802 C   0  0  2  0  0  0  0  0  0  0  0  0
   24.4466    4.6227   59.6433 O   0  0  0  0  0  0  0  0  0  0  0  0
   22.0217    4.8532   60.2058 C   0  0  0  0  0  0  0  0  0  0  0  0
   21.6686    3.5069   59.8638 O   0  0  0  0  0  0  0  0  0  0  0  0
   25.7181    7.4796   62.2855 C   0  0  2  0  0  0  0  0  0  0  0  0
   26.9468    8.0271   61.4824 C   0  0  2  0  0  0  0  0  0  0  0  0
   28.0970    7.0732   61.4592 N   0  3  0  0  0  0  0  0  0  0  0  0
   27.3470    9.3933   62.1327 C   0  0  1  0  0  0  0  0  0  0  0  0
   26.2046   10.3151   61.9517 O   0  0  0  0  0  0  0  0  0  0  0  0
   27.6532    9.2628   63.6756 C   0  0  2  0  0  0  0  0  0  0  0  0
   28.7989    8.4121   63.8438 O   0  0  0  0  0  0  0  0  0  0  0  0
   26.3681    8.6648   64.3848 C   0  0  1  0  0  0  0  0  0  0  0  0
   26.0616    7.3835   63.7384 O   0  0  0  0  0  0  0  0  0  0  0  0
   26.5143    8.4581   65.9096 C   0  0  0  0  0  0  0  0  0  0  0  0
   25.2588    8.0064   66.5686 N   0  3  0  0  0  0  0  0  0  0  0  0
  1  2  1  1  0  0  0
  1  3  1  0  0  0  0
  1 10  1  0  0  0  0
  3  4  1  6  0  0  0
  3  5  1  0  0  0  0
  5  6  1  1  0  0  0
  5  7  1  0  0  0  0
  7  8  1  1  0  0  0
  7  9  1  0  0  0  0
  9 10  1  0  0  0  0
  9 11  1  1  0  0  0
 11 12  1  0  0  0  0
 13 14  1  6  0  0  0
 13 15  1  0  0  0  0
 13 21  1  0  0  0  0
 15 16  1  0  0  0  0
 16 17  1  6  0  0  0
 16 18  1  0  0  0  0
 18  2  1  1  0  0  0
 18 19  1  0  0  0  0
 19 20  1  1  0  0  0
 19 21  1  0  0  0  0
 21 22  1  1  0  0  0
 23 20  1  6  0  0  0
 23 24  1  0  0  0  0
 23 29  1  0  0  0  0
 24 25  1  1  0  0  0
 24 26  1  0  0  0  0
 26 27  1  1  0  0  0
 26 28  1  0  0  0  0
 28 29  1  0  0  0  0
 28 30  1  6  0  0  0
 30 31  1  0  0  0  0
 32 27  1  6  0  0  0
 32 33  1  0  0  0  0
 32 40  1  0  0  0  0
 33 34  1  1  0  0  0
 33 35  1  0  0  0  0
 35 36  1  1  0  0  0
 35 37  1  0  0  0  0
 37 38  1  6  0  0  0
 37 39  1  0  0  0  0
 39 40  1  0  0  0  0
 39 41  1  1  0  0  0
 41 42  1  0  0  0  0
M  CHG  5   4   1  14   1  17   1  34   1  42   1
M  END
>  <CHROM.1>
174.19301118,41.37663006,65.55334331,-172.37277147,56.77166758,-73.39017135
172.29391998,-18.68787857,178.25548588,159.30863862,113.53975982,-62.98475331
48.39252627,71.44082572,-103.49678593,179.14838920,-52.83278736,59.09103450
-159.79904659,-172.14434179,175.06697958,-165.33713900,25.99347256,5.87762348
59.06519582,1.70714315,-1.26334131,-1.93559955

>  <Name>
1j7t

>  <RI>
0

>  <Rbt.Current_Directory>
/home/itssahil/PROJECTS/Mol_Feturizer/New_Systems/rnas/1j7t

>  <Rbt.Executable>
rbdock ($Id: //depot/dev/client3/rdock/2013.1/src/exe/rbdock.cxx#4 $)

>  <Rbt.Library>
libRbt.so (2013.1, Build901 2013/11/27)

>  <Rbt.Parameter_File>
/export/apps/rDock/src/rDock_2013.1_src/data/scripts/dock_solv.prm

>  <Rbt.Receptor>
prm/pocket_docking_6.prm

>  <SCORE>
-28.5312

>  <SCORE.INTER>
-15.6388

>  <SCORE.INTER.CONST>
1

>  <SCORE.INTER.POLAR>
-2.85933

>  <SCORE.INTER.ROT>
9

>  <SCORE.INTER.SOLV>
12.3707

>  <SCORE.INTER.VDW>
-14.6183

>  <SCORE.INTER.norm>
-0.372352

>  <SCORE.INTRA>
-12.8924

>  <SCORE.INTRA.DIHEDRAL>
-20.9044

>  <SCORE.INTRA.DIHEDRAL.0>
46.2143

>  <SCORE.INTRA.POLAR>
-0.894431

>  <SCORE.INTRA.POLAR.0>
-1.76436

>  <SCORE.INTRA.REPUL>
0.221597

>  <SCORE.INTRA.REPUL.0>
0

>  <SCORE.INTRA.SOLV>
-0.272599

>  <SCORE.INTRA.SOLV.lig_0>
-148.643

>  <SCORE.INTRA.VDW>
-0.370835

>  <SCORE.INTRA.VDW.0>
-4.83512

>  <SCORE.INTRA.norm>
-0.306963

>  <SCORE.RESTR>
0

>  <SCORE.RESTR.CAVITY>
0

>  <SCORE.RESTR.norm>
0

>  <SCORE.SYSTEM>
0

>  <SCORE.SYSTEM.CONST>
0

>  <SCORE.SYSTEM.DIHEDRAL>
0

>  <SCORE.SYSTEM.SOLV>
0

>  <SCORE.SYSTEM.norm>
0

>  <SCORE.heavy>
42

>  <SCORE.norm>
-0.679314

>  <RMSD>
8.101

$$$$
1j7t
 OpenBabel11021811393D
libRbt.so/2013.1/901 2013/11/27
 42 45  0  0  0  0  0  0  0  0999 V2000
   32.8117   11.1647   50.5936 C   0  0  2  0  0  0  0  0  0  0  0  0
   31.4526   11.0990   50.0924 O   0  0  0  0  0  0  0  0  0  0  0  0
   33.2139   12.6673   50.6126 C   0  0  2  0  0  0  0  0  0  0  0  0
   32.2642   13.5526   51.3460 N   0  3  0  0  0  0  0  0  0  0  0  0
   33.2925   13.1606   49.1513 C   0  0  1  0  0  0  0  0  0  0  0  0
   33.6678   14.5083   49.1050 O   0  0  0  0  0  0  0  0  0  0  0  0
   34.2888   12.2893   48.3501 C   0  0  2  0  0  0  0  0  0  0  0  0
   34.3920   12.7381   47.0133 O   0  0  0  0  0  0  0  0  0  0  0  0
   33.8297   10.8467   48.3555 C   0  0  2  0  0  0  0  0  0  0  0  0
   33.6841   10.4050   49.6993 O   0  0  0  0  0  0  0  0  0  0  0  0
   34.8132    9.9093   47.6914 C   0  0  0  0  0  0  0  0  0  0  0  0
   36.0906   10.0749   48.2762 O   0  0  0  0  0  0  0  0  0  0  0  0
   28.2486    8.5767   51.1969 C   0  0  2  0  0  0  0  0  0  0  0  0
   27.4224    7.3818   51.3733 N   0  3  0  0  0  0  0  0  0  0  0  0
   28.4562    8.8619   49.6724 C   0  0  0  0  0  0  0  0  0  0  0  0
   29.3659   10.0907   49.4824 C   0  0  2  0  0  0  0  0  0  0  0  0
   29.6151   10.3406   48.0589 N   0  3  0  0  0  0  0  0  0  0  0  0
   30.7092    9.8803   50.2084 C   0  0  2  0  0  0  0  0  0  0  0  0
   30.5335    9.5700   51.7078 C   0  0  2  0  0  0  0  0  0  0  0  0
   31.8469    9.2474   52.2043 O   0  0  0  0  0  0  0  0  0  0  0  0
   29.5796    8.3638   51.9003 C   0  0  1  0  0  0  0  0  0  0  0  0
   29.3573    8.1661   53.2694 O   0  0  0  0  0  0  0  0  0  0  0  0
   32.5437    8.0513   51.8651 C   0  0  1  0  0  0  0  0  0  0  0  0
   32.9418    7.3116   53.1918 C   0  0  2  0  0  0  0  0  0  0  0  0
   34.1876    7.7228   53.7284 O   0  0  0  0  0  0  0  0  0  0  0  0
   32.9153    5.8837   52.6647 C   0  0  2  0  0  0  0  0  0  0  0  0
   34.0059    5.6500   51.7235 O   0  0  0  0  0  0  0  0  0  0  0  0
   31.6122    5.8418   51.8789 C   0  0  2  0  0  0  0  0  0  0  0  0
   31.6640    7.1065   51.1966 O   0  0  0  0  0  0  0  0  0  0  0  0
   30.3233    5.6780   52.7494 C   0  0  0  0  0  0  0  0  0  0  0  0
   30.5020    4.6988   53.7805 O   0  0  0  0  0  0  0  0  0  0  0  0
   35.3041    5.7619   52.3012 C   0  0  2  0  0  0  0  0  0  0  0  0
   36.4828    5.3843   51.3407 C   0  0  2  0  0  0  0  0  0  0  0  0
   36.3754    3.9916   50.8094 N   0  3  0  0  0  0  0  0  0  0  0  0
   37.8111    5.5924   52.1418 C   0  0  1  0  0  0  0  0  0  0  0  0
   37.9018    7.0312   52.4720 O   0  0  0  0  0  0  0  0  0  0  0  0
   37.8455    4.7615   53.4834 C   0  0  2  0  0  0  0  0  0  0  0  0
   37.8148    3.3628   53.1555 O   0  0  0  0  0  0  0  0  0  0  0  0
   36.5953    5.1872   54.3596 C   0  0  1  0  0  0  0  0  0  0  0  0
   35.3905    4.9514   53.5558 O   0  0  0  0  0  0  0  0  0  0  0  0
   36.4752    4.4446   55.7098 C   0  0  0  0  0  0  0  0  0  0  0  0
   36.8606    3.0093   55.6321 N   0  3  0  0  0  0  0  0  0  0  0  0
  1  2  1  6  0  0  0
  1  3  1  0  0  0  0
  1 10  1  0  0  0  0
  3  4  1  1  0  0  0
  3  5  1  0  0  0  0
  5  6  1  1  0  0  0
  5  7  1  0  0  0  0
  7  8  1  6  0  0  0
  7  9  1  0  0  0  0
  9 10  1  0  0  0  0
  9 11  1  1  0  0  0
 11 12  1  0  0  0  0
 13 14  1  6  0  0  0
 13 15  1  0  0  0  0
 13 21  1  0  0  0  0
 15 16  1  0  0  0  0
 16 17  1  6  0  0  0
 16 18  1  0  0  0  0
 18  2  1  1  0  0  0
 18 19  1  0  0  0  0
 19 20  1  6  0  0  0
 19 21  1  0  0  0  0
 21 22  1  1  0  0  0
 23 20  1  1  0  0  0
 23 24  1  0  0  0  0
 23 29  1  0  0  0  0
 24 25  1  6  0  0  0
 24 26  1  0  0  0  0
 26 27  1  6  0  0  0
 26 28  1  0  0  0  0
 28 29  1  0  0  0  0
 28 30  1  1  0  0  0
 30 31  1  0  0  0  0
 32 27  1  6  0  0  0
 32 33  1  0  0  0  0
 32 40  1  0  0  0  0
 33 34  1  1  0  0  0
 33 35  1  0  0  0  0
 35 36  1  1  0  0  0
 35 37  1  0  0  0  0
 37 38  1  6  0  0  0
 37 39  1  0  0  0  0
 39 40  1  0  0  0  0
 39 41  1  1  0  0  0
 41 42  1  0  0  0  0
M  CHG  5   4   1  14   1  17   1  34   1  42   1
M  END
>  <CHROM.1>
-167.54207512,-175.13856660,62.08564383,-62.88566508,178.79351830,53.62203728
-61.84884908,113.72027179,172.05023573,-70.25214244,-124.88673076,-52.72007266
-24.98203167,63.77900572,174.58013176,-43.17147086,176.29228454,-66.06207649
-57.81132590,73.38247966,-38.05145559,117.69990266,33.22208791,8.18866358
51.36062441,-2.08764300,-0.07470833,2.56828937

>  <Name>
1j7t

>  <RI>
0

>  <Rbt.Current_Directory>
/home/itssahil/PROJECTS/Mol_Feturizer/New_Systems/rnas/1j7t

>  <Rbt.Executable>
rbdock ($Id: //depot/dev/client3/rdock/2013.1/src/exe/rbdock.cxx#4 $)

>  <Rbt.Library>
libRbt.so (2013.1, Build901 2013/11/27)

>  <Rbt.Parameter_File>
/export/apps/rDock/src/rDock_2013.1_src/data/scripts/dock_solv.prm

>  <Rbt.Receptor>
prm/blind_docking_100.prm

>  <SCORE>
-4.42376

>  <SCORE.INTER>
-17.7296

>  <SCORE.INTER.CONST>
1

>  <SCORE.INTER.POLAR>
-3.37924

>  <SCORE.INTER.ROT>
9

>  <SCORE.INTER.SOLV>
38.4533

>  <SCORE.INTER.VDW>
-22.9734

>  <SCORE.INTER.norm>
-0.422133

>  <SCORE.INTRA>
-3.57968

>  <SCORE.INTRA.DIHEDRAL>
-21.5648

>  <SCORE.INTRA.DIHEDRAL.0>
46.2143

>  <SCORE.INTRA.POLAR>
0.137729

>  <SCORE.INTRA.POLAR.0>
-1.76436

>  <SCORE.INTRA.REPUL>
0

>  <SCORE.INTRA.REPUL.0>
0

>  <SCORE.INTRA.SOLV>
-0.105521

>  <SCORE.INTRA.SOLV.lig_0>
-148.643

>  <SCORE.INTRA.VDW>
6.7872

>  <SCORE.INTRA.VDW.0>
-4.83512

>  <SCORE.INTRA.norm>
-0.0852305

>  <SCORE.RESTR>
16.8855

>  <SCORE.RESTR.CAVITY>
16.8855

>  <SCORE.RESTR.norm>
0.402036

>  <SCORE.SYSTEM>
0

>  <SCORE.SYSTEM.CONST>
0

>  <SCORE.SYSTEM.DIHEDRAL>
0

>  <SCORE.SYSTEM.SOLV>
0

>  <SCORE.SYSTEM.norm>
0

>  <SCORE.heavy>
42

>  <SCORE.norm>
-0.105328

>  <RMSD>
8.108

$$$$
1j7t
 OpenBabel11021811393D
libRbt.so/2013.1/901 2013/11/27
 42 45  0  0  0  0  0  0  0  0999 V2000
   25.4620    6.8212   56.4771 C   0  0  2  0  0  0  0  0  0  0  0  0
   26.7838    6.2490   56.3098 O   0  0  0  0  0  0  0  0  0  0  0  0
   25.3804    8.0536   55.5312 C   0  0  2  0  0  0  0  0  0  0  0  0
   25.7309    7.7672   54.1104 N   0  3  0  0  0  0  0  0  0  0  0  0
   26.3599    9.1259   56.0562 C   0  0  1  0  0  0  0  0  0  0  0  0
   26.3176   10.2696   55.2502 O   0  0  0  0  0  0  0  0  0  0  0  0
   26.0216    9.4804   57.5237 C   0  0  2  0  0  0  0  0  0  0  0  0
   26.8942   10.4773   58.0175 O   0  0  0  0  0  0  0  0  0  0  0  0
   26.1382    8.2448   58.3908 C   0  0  2  0  0  0  0  0  0  0  0  0
   25.2933    7.2254   57.8722 O   0  0  0  0  0  0  0  0  0  0  0  0
   25.7091    8.4821   59.8214 C   0  0  0  0  0  0  0  0  0  0  0  0
   24.3451    8.8563   59.8486 O   0  0  0  0  0  0  0  0  0  0  0  0
   26.4586    3.1573   59.1704 C   0  0  2  0  0  0  0  0  0  0  0  0
   26.7344    1.9378   59.9309 N   0  3  0  0  0  0  0  0  0  0  0  0
   26.1605    2.7990   57.6767 C   0  0  0  0  0  0  0  0  0  0  0  0
   25.9176    4.0839   56.8621 C   0  0  2  0  0  0  0  0  0  0  0  0
   25.6895    3.7699   55.4477 N   0  3  0  0  0  0  0  0  0  0  0  0
   27.1246    5.0342   56.9877 C   0  0  2  0  0  0  0  0  0  0  0  0
   27.4585    5.3825   58.4514 C   0  0  2  0  0  0  0  0  0  0  0  0
   28.6851    6.1370   58.4114 O   0  0  0  0  0  0  0  0  0  0  0  0
   27.6550    4.0889   59.2817 C   0  0  1  0  0  0  0  0  0  0  0  0
   27.8570    4.4301   60.6255 O   0  0  0  0  0  0  0  0  0  0  0  0
   29.8378    5.7254   57.6813 C   0  0  1  0  0  0  0  0  0  0  0  0
   30.9527    6.8185   57.8498 C   0  0  2  0  0  0  0  0  0  0  0  0
   30.8862    7.8606   56.8915 O   0  0  0  0  0  0  0  0  0  0  0  0
   32.1700    5.9132   57.7233 C   0  0  2  0  0  0  0  0  0  0  0  0
   32.3042    5.3989   56.3642 O   0  0  0  0  0  0  0  0  0  0  0  0
   31.8100    4.7412   58.6256 C   0  0  2  0  0  0  0  0  0  0  0  0
   30.4317    4.5364   58.2704 O   0  0  0  0  0  0  0  0  0  0  0  0
   32.0067    5.0029   60.1549 C   0  0  0  0  0  0  0  0  0  0  0  0
   30.8117    4.7281   60.8968 O   0  0  0  0  0  0  0  0  0  0  0  0
   32.5480    6.4054   55.3849 C   0  0  2  0  0  0  0  0  0  0  0  0
   31.3282    6.7222   54.4543 C   0  0  2  0  0  0  0  0  0  0  0  0
   30.8364    5.5216   53.7127 N   0  3  0  0  0  0  0  0  0  0  0  0
   31.7816    7.8559   53.4750 C   0  0  1  0  0  0  0  0  0  0  0  0
   32.0826    9.0486   54.2963 O   0  0  0  0  0  0  0  0  0  0  0  0
   33.0726    7.4668   52.6545 C   0  0  2  0  0  0  0  0  0  0  0  0
   32.7593    6.3431   51.8155 O   0  0  0  0  0  0  0  0  0  0  0  0
   34.2281    7.1269   53.6846 C   0  0  1  0  0  0  0  0  0  0  0  0
   33.7420    6.0510   54.5560 O   0  0  0  0  0  0  0  0  0  0  0  0
   35.5654    6.7067   53.0333 C   0  0  0  0  0  0  0  0  0  0  0  0
   35.4103    5.6628   51.9842 N   0  3  0  0  0  0  0  0  0  0  0  0
  1  2  1  1  0  0  0
  1  3  1  0  0  0  0
  1 10  1  0  0  0  0
  3  4  1  6  0  0  0
  3  5  1  0  0  0  0
  5  6  1  6  0  0  0
  5  7  1  0  0  0  0
  7  8  1  1  0  0  0
  7  9  1  0  0  0  0
  9 10  1  0  0  0  0
  9 11  1  1  0  0  0
 11 12  1  0  0  0  0
 13 14  1  1  0  0  0
 13 15  1  0  0  0  0
 13 21  1  0  0  0  0
 15 16  1  0  0  0  0
 16 17  1  6  0  0  0
 16 18  1  0  0  0  0
 18  2  1  6  0  0  0
 18 19  1  0  0  0  0
 19 20  1  6  0  0  0
 19 21  1  0  0  0  0
 21 22  1  1  0  0  0
 23 20  1  1  0  0  0
 23 24  1  0  0  0  0
 23 29  1  0  0  0  0
 24 25  1  6  0  0  0
 24 26  1  0  0  0  0
 26 27  1  6  0  0  0
 26 28  1  0  0  0  0
 28 29  1  0  0  0  0
 28 30  1  1  0  0  0
 30 31  1  0  0  0  0
 32 27  1  1  0  0  0
 32 33  1  0  0  0  0
 32 40  1  0  0  0  0
 33 34  1  6  0  0  0
 33 35  1  0  0  0  0
 35 36  1  1  0  0  0
 35 37  1  0  0  0  0
 37 38  1  1  0  0  0
 37 39  1  0  0  0  0
 39 40  1  0  0  0  0
 39 41  1  6  0  0  0
 41 42  1  0  0  0  0
M  CHG  5   4   1  14   1  17   1  34   1  42   1
M  END
>  <CHROM.1>
-175.55060605,42.64553940,68.29932984,-70.07429846,70.75120060,61.81618886
60.33921553,-51.34740971,60.49775173,-48.69229380,178.54980353,166.73588668
58.54059698,64.05914533,-106.83392876,126.05437419,64.78777719,48.70225032
-22.68882366,77.33629545,-48.89163621,-97.03450468,29.15551110,6.37283928
56.68266285,2.73605484,-0.37889049,2.32922542

>  <Name>
1j7t

>  <RI>
0

>  <Rbt.Current_Directory>
/home/itssahil/PROJECTS/Mol_Feturizer/New_Systems/rnas/1j7t

>  <Rbt.Executable>
rbdock ($Id: //depot/dev/client3/rdock/2013.1/src/exe/rbdock.cxx#4 $)

>  <Rbt.Library>
libRbt.so (2013.1, Build901 2013/11/27)

>  <Rbt.Parameter_File>
/export/apps/rDock/src/rDock_2013.1_src/data/scripts/dock_solv.prm

>  <Rbt.Receptor>
prm/pocket_docking_4.prm

>  <SCORE>
-52.3793

>  <SCORE.INTER>
-36.5339

>  <SCORE.INTER.CONST>
1

>  <SCORE.INTER.POLAR>
-6.1993

>  <SCORE.INTER.ROT>
9

>  <SCORE.INTER.SOLV>
18.6896

>  <SCORE.INTER.VDW>
-19.5215

>  <SCORE.INTER.norm>
-0.869856

>  <SCORE.INTRA>
-15.8596

>  <SCORE.INTRA.DIHEDRAL>
-20.119

>  <SCORE.INTRA.DIHEDRAL.0>
46.2143

>  <SCORE.INTRA.POLAR>
-2.00164

>  <SCORE.INTRA.POLAR.0>
-1.76436

>  <SCORE.INTRA.REPUL>
0

>  <SCORE.INTRA.REPUL.0>
0

>  <SCORE.INTRA.SOLV>
1.0047

>  <SCORE.INTRA.SOLV.lig_0>
-148.643

>  <SCORE.INTRA.VDW>
0.503159

>  <SCORE.INTRA.VDW.0>
-4.83512

>  <SCORE.INTRA.norm>
-0.377608

>  <SCORE.RESTR>
0.0141751

>  <SCORE.RESTR.CAVITY>
0.0141751

>  <SCORE.RESTR.norm>
0.000337503

>  <SCORE.SYSTEM>
0

>  <SCORE.SYSTEM.CONST>
0

>  <SCORE.SYSTEM.DIHEDRAL>
0

>  <SCORE.SYSTEM.SOLV>
0

>  <SCORE.SYSTEM.norm>
0

>  <SCORE.heavy>
42

>  <SCORE.norm>
-1.24713

>  <RMSD>
8.147

$$$$
1j7t
 OpenBabel11021811393D
libRbt.so/2013.1/901 2013/11/27
 42 45  0  0  0  0  0  0  0  0999 V2000
   26.9251    4.3461   56.3263 C   0  0  2  0  0  0  0  0  0  0  0  0
   28.3070    4.2064   55.9100 O   0  0  0  0  0  0  0  0  0  0  0  0
   26.0439    3.9357   55.1118 C   0  0  2  0  0  0  0  0  0  0  0  0
   26.3624    2.5952   54.5414 N   0  3  0  0  0  0  0  0  0  0  0  0
   26.2439    4.9866   53.9981 C   0  0  1  0  0  0  0  0  0  0  0  0
   25.4596    4.6768   52.8808 O   0  0  0  0  0  0  0  0  0  0  0  0
   25.8995    6.3973   54.5318 C   0  0  2  0  0  0  0  0  0  0  0  0
   26.0555    7.3730   53.5204 O   0  0  0  0  0  0  0  0  0  0  0  0
   26.8033    6.7409   55.6967 C   0  0  2  0  0  0  0  0  0  0  0  0
   26.6805    5.7389   56.6982 O   0  0  0  0  0  0  0  0  0  0  0  0
   26.4518    8.0582   56.3511 C   0  0  0  0  0  0  0  0  0  0  0  0
   27.3031    8.2758   57.4597 O   0  0  0  0  0  0  0  0  0  0  0  0
   30.0852    5.6354   59.4659 C   0  0  2  0  0  0  0  0  0  0  0  0
   31.0933    6.0029   60.4609 N   0  3  0  0  0  0  0  0  0  0  0  0
   30.1388    4.0952   59.1951 C   0  0  0  0  0  0  0  0  0  0  0  0
   29.1122    3.7116   58.1123 C   0  0  2  0  0  0  0  0  0  0  0  0
   29.1860    2.2790   57.8072 N   0  3  0  0  0  0  0  0  0  0  0  0
   29.3619    4.5229   56.8258 C   0  0  2  0  0  0  0  0  0  0  0  0
   29.3421    6.0448   57.0682 C   0  0  2  0  0  0  0  0  0  0  0  0
   29.7418    6.6515   55.8242 O   0  0  0  0  0  0  0  0  0  0  0  0
   30.3400    6.4245   58.1914 C   0  0  1  0  0  0  0  0  0  0  0  0
   30.2301    7.7949   58.4615 O   0  0  0  0  0  0  0  0  0  0  0  0
   30.9784    6.3703   55.1739 C   0  0  1  0  0  0  0  0  0  0  0  0
   32.0824    7.3148   55.7699 C   0  0  2  0  0  0  0  0  0  0  0  0
   32.1810    8.5687   55.1165 O   0  0  0  0  0  0  0  0  0  0  0  0
   33.2834    6.3995   55.5767 C   0  0  2  0  0  0  0  0  0  0  0  0
   33.6019    6.2411   54.1614 O   0  0  0  0  0  0  0  0  0  0  0  0
   32.7682    5.0604   56.0854 C   0  0  2  0  0  0  0  0  0  0  0  0
   31.4519    5.0368   55.5070 O   0  0  0  0  0  0  0  0  0  0  0  0
   32.7463    4.9116   57.6420 C   0  0  0  0  0  0  0  0  0  0  0  0
   34.0149    5.2387   58.2229 O   0  0  0  0  0  0  0  0  0  0  0  0
   34.8643    5.6263   53.9166 C   0  0  2  0  0  0  0  0  0  0  0  0
   35.4326    5.8500   52.4739 C   0  0  2  0  0  0  0  0  0  0  0  0
   34.5102    5.3614   51.4043 N   0  3  0  0  0  0  0  0  0  0  0  0
   36.8193    5.1270   52.4106 C   0  0  1  0  0  0  0  0  0  0  0  0
   37.7065    5.7967   53.3863 O   0  0  0  0  0  0  0  0  0  0  0  0
   36.7214    3.5961   52.7823 C   0  0  2  0  0  0  0  0  0  0  0  0
   35.9050    2.9386   51.7995 O   0  0  0  0  0  0  0  0  0  0  0  0
   36.0996    3.4800   54.2355 C   0  0  1  0  0  0  0  0  0  0  0  0
   34.8005    4.1621   54.2170 O   0  0  0  0  0  0  0  0  0  0  0  0
   35.9209    2.0310   54.7431 C   0  0  0  0  0  0  0  0  0  0  0  0
   34.9464    1.2399   53.9437 N   0  3  0  0  0  0  0  0  0  0  0  0
  1  2  1  6  0  0  0
  1  3  1  0  0  0  0
  1 10  1  0  0  0  0
  3  4  1  6  0  0  0
  3  5  1  0  0  0  0
  5  6  1  6  0  0  0
  5  7  1  0  0  0  0
  7  8  1  6  0  0  0
  7  9  1  0  0  0  0
  9 10  1  0  0  0  0
  9 11  1  1  0  0  0
 11 12  1  0  0  0  0
 13 14  1  1  0  0  0
 13 15  1  0  0  0  0
 13 21  1  0  0  0  0
 15 16  1  0  0  0  0
 16 17  1  6  0  0  0
 16 18  1  0  0  0  0
 18  2  1  6  0  0  0
 18 19  1  0  0  0  0
 19 20  1  6  0  0  0
 19 21  1  0  0  0  0
 21 22  1  1  0  0  0
 23 20  1  1  0  0  0
 23 24  1  0  0  0  0
 23 29  1  0  0  0  0
 24 25  1  6  0  0  0
 24 26  1  0  0  0  0
 26 27  1  6  0  0  0
 26 28  1  0  0  0  0
 28 29  1  0  0  0  0
 28 30  1  1  0  0  0
 30 31  1  0  0  0  0
 32 27  1  6  0  0  0
 32 33  1  0  0  0  0
 32 40  1  0  0  0  0
 33 34  1  6  0  0  0
 33 35  1  0  0  0  0
 35 36  1  1  0  0  0
 35 37  1  0  0  0  0
 37 38  1  6  0  0  0
 37 39  1  0  0  0  0
 39 40  1  0  0  0  0
 39 41  1  6  0  0  0
 41 42  1  0  0  0  0
M  CHG  5   4   1  14   1  17   1  34   1  42   1
M  END
>  <CHROM.1>
179.70224407,53.60707532,62.80127252,88.15046917,69.99997622,177.53061395
-57.03758493,175.01616391,179.48336826,-57.53493913,-86.01707178,-173.73499203
61.01100105,167.91669850,-161.44137715,-51.87310070,67.15611340,176.93178422
58.52424809,66.83753567,-64.31547900,-78.09252182,31.04551816,5.25399734
55.52914485,2.82990156,-0.07403857,1.31475948

>  <Name>
1j7t

>  <RI>
0

>  <Rbt.Current_Directory>
/home/itssahil/PROJECTS/Mol_Feturizer/New_Systems/rnas/1j7t

>  <Rbt.Executable>
rbdock ($Id: //depot/dev/client3/rdock/2013.1/src/exe/rbdock.cxx#4 $)

>  <Rbt.Library>
libRbt.so (2013.1, Build901 2013/11/27)

>  <Rbt.Parameter_File>
/export/apps/rDock/src/rDock_2013.1_src/data/scripts/dock_solv.prm

>  <Rbt.Receptor>
prm/pocket_docking_6.prm

>  <SCORE>
-38.854

>  <SCORE.INTER>
-24.219

>  <SCORE.INTER.CONST>
1

>  <SCORE.INTER.POLAR>
-4.51129

>  <SCORE.INTER.ROT>
9

>  <SCORE.INTER.SOLV>
13.3575

>  <SCORE.INTER.VDW>
-15.1609

>  <SCORE.INTER.norm>
-0.576643

>  <SCORE.INTRA>
-14.635

>  <SCORE.INTRA.DIHEDRAL>
-34.6574

>  <SCORE.INTRA.DIHEDRAL.0>
46.2143

>  <SCORE.INTRA.POLAR>
0.400301

>  <SCORE.INTRA.POLAR.0>
-1.76436

>  <SCORE.INTRA.REPUL>
0

>  <SCORE.INTRA.REPUL.0>
0

>  <SCORE.INTRA.SOLV>
0.417082

>  <SCORE.INTRA.SOLV.lig_0>
-148.643

>  <SCORE.INTRA.VDW>
1.12412

>  <SCORE.INTRA.VDW.0>
-4.83512

>  <SCORE.INTRA.norm>
-0.348453

>  <SCORE.RESTR>
0

>  <SCORE.RESTR.CAVITY>
0

>  <SCORE.RESTR.norm>
0

>  <SCORE.SYSTEM>
0

>  <SCORE.SYSTEM.CONST>
0

>  <SCORE.SYSTEM.DIHEDRAL>
0

>  <SCORE.SYSTEM.SOLV>
0

>  <SCORE.SYSTEM.norm>
0

>  <SCORE.heavy>
42

>  <SCORE.norm>
-0.925095

>  <RMSD>
8.156

$$$$
1j7t
 OpenBabel11021811393D
libRbt.so/2013.1/901 2013/11/27
 42 45  0  0  0  0  0  0  0  0999 V2000
   31.1987    7.8112   53.0042 C   0  0  2  0  0  0  0  0  0  0  0  0
   30.7940    8.5980   54.1530 O   0  0  0  0  0  0  0  0  0  0  0  0
   31.8549    8.7939   51.9924 C   0  0  2  0  0  0  0  0  0  0  0  0
   32.9531    9.6264   52.5620 N   0  3  0  0  0  0  0  0  0  0  0  0
   30.7575    9.7466   51.4697 C   0  0  1  0  0  0  0  0  0  0  0  0
   31.2885   10.6474   50.5390 O   0  0  0  0  0  0  0  0  0  0  0  0
   29.6023    8.9314   50.8417 C   0  0  2  0  0  0  0  0  0  0  0  0
   28.5956    9.7865   50.3370 O   0  0  0  0  0  0  0  0  0  0  0  0
   28.9975    8.0121   51.8814 C   0  0  2  0  0  0  0  0  0  0  0  0
   30.0157    7.1794   52.4216 O   0  0  0  0  0  0  0  0  0  0  0  0
   27.9367    7.0945   51.3160 C   0  0  0  0  0  0  0  0  0  0  0  0
   28.5258    6.2149   50.3776 O   0  0  0  0  0  0  0  0  0  0  0  0
   30.2127    7.7258   58.2456 C   0  0  2  0  0  0  0  0  0  0  0  0
   29.7070    7.1113   59.4736 N   0  3  0  0  0  0  0  0  0  0  0  0
   29.0432    8.4285   57.4795 C   0  0  0  0  0  0  0  0  0  0  0  0
   29.5620    9.0347   56.1616 C   0  0  2  0  0  0  0  0  0  0  0  0
   28.4677    9.6513   55.4043 N   0  3  0  0  0  0  0  0  0  0  0  0
   30.2329    7.9476   55.2992 C   0  0  2  0  0  0  0  0  0  0  0  0
   31.3718    7.2192   56.0391 C   0  0  2  0  0  0  0  0  0  0  0  0
   31.7858    6.1446   55.1736 O   0  0  0  0  0  0  0  0  0  0  0  0
   30.8615    6.6512   57.3877 C   0  0  1  0  0  0  0  0  0  0  0  0
   31.9361    6.0836   58.0848 O   0  0  0  0  0  0  0  0  0  0  0  0
   33.1501    5.8391   54.8968 C   0  0  1  0  0  0  0  0  0  0  0  0
   33.9057    5.6474   56.2600 C   0  0  2  0  0  0  0  0  0  0  0  0
   34.4271    6.8485   56.8028 O   0  0  0  0  0  0  0  0  0  0  0  0
   34.9569    4.6511   55.7913 C   0  0  2  0  0  0  0  0  0  0  0  0
   35.9090    5.2797   54.8814 O   0  0  0  0  0  0  0  0  0  0  0  0
   34.1366    3.6553   54.9834 C   0  0  2  0  0  0  0  0  0  0  0  0
   33.2741    4.5426   54.2510 O   0  0  0  0  0  0  0  0  0  0  0  0
   33.3442    2.6102   55.8353 C   0  0  0  0  0  0  0  0  0  0  0  0
   32.1589    3.1805   56.4041 O   0  0  0  0  0  0  0  0  0  0  0  0
   37.0939    4.5177   54.6650 C   0  0  2  0  0  0  0  0  0  0  0  0
   38.2593    5.3021   53.9716 C   0  0  2  0  0  0  0  0  0  0  0  0
   37.8704    5.8649   52.6429 N   0  3  0  0  0  0  0  0  0  0  0  0
   39.4657    4.3131   53.8453 C   0  0  1  0  0  0  0  0  0  0  0  0
   39.8797    3.9509   55.2183 O   0  0  0  0  0  0  0  0  0  0  0  0
   39.0880    2.9938   53.0654 C   0  0  2  0  0  0  0  0  0  0  0  0
   38.7414    3.3443   51.7157 O   0  0  0  0  0  0  0  0  0  0  0  0
   37.8790    2.3024   53.8219 C   0  0  1  0  0  0  0  0  0  0  0  0
   36.7836    3.2765   53.8892 O   0  0  0  0  0  0  0  0  0  0  0  0
   37.3756    0.9957   53.1676 C   0  0  0  0  0  0  0  0  0  0  0  0
   36.2103    0.3929   53.8700 N   0  3  0  0  0  0  0  0  0  0  0  0
  1  2  1  1  0  0  0
  1  3  1  0  0  0  0
  1 10  1  0  0  0  0
  3  4  1  1  0  0  0
  3  5  1  0  0  0  0
  5  6  1  6  0  0  0
  5  7  1  0  0  0  0
  7  8  1  1  0  0  0
  7  9  1  0  0  0  0
  9 10  1  0  0  0  0
  9 11  1  6  0  0  0
 11 12  1  0  0  0  0
 13 14  1  1  0  0  0
 13 15  1  0  0  0  0
 13 21  1  0  0  0  0
 15 16  1  0  0  0  0
 16 17  1  6  0  0  0
 16 18  1  0  0  0  0
 18  2  1  6  0  0  0
 18 19  1  0  0  0  0
 19 20  1  6  0  0  0
 19 21  1  0  0  0  0
 21 22  1  1  0  0  0
 23 20  1  1  0  0  0
 23 24  1  0  0  0  0
 23 29  1  0  0  0  0
 24 25  1  6  0  0  0
 24 26  1  0  0  0  0
 26 27  1  6  0  0  0
 26 28  1  0  0  0  0
 28 29  1  0  0  0  0
 28 30  1  1  0  0  0
 30 31  1  0  0  0  0
 32 27  1  6  0  0  0
 32 33  1  0  0  0  0
 32 40  1  0  0  0  0
 33 34  1  6  0  0  0
 33 35  1  0  0  0  0
 35 36  1  1  0  0  0
 35 37  1  0  0  0  0
 37 38  1  6  0  0  0
 37 39  1  0  0  0  0
 39 40  1  0  0  0  0
 39 41  1  6  0  0  0
 41 42  1  0  0  0  0
M  CHG  5   4   1  14   1  17   1  34   1  42   1
M  END
>  <CHROM.1>
-175.90951622,-164.80336923,15.31998302,71.74855248,65.88965623,64.39474396
-147.21991160,69.48410235,31.28134759,134.61451489,53.73366962,-52.09418656
-171.91211295,165.26326423,-166.50150880,77.61288812,-61.23613656,48.71131608
-174.20249865,-174.34759371,-177.97470111,57.74636681,33.08352170,6.14293404
54.25835594,-2.94131243,-0.54578710,1.86159079

>  <Name>
1j7t

>  <RI>
0

>  <Rbt.Current_Directory>
/home/itssahil/PROJECTS/Mol_Feturizer/New_Systems/rnas/1j7t

>  <Rbt.Executable>
rbdock ($Id: //depot/dev/client3/rdock/2013.1/src/exe/rbdock.cxx#4 $)

>  <Rbt.Library>
libRbt.so (2013.1, Build901 2013/11/27)

>  <Rbt.Parameter_File>
/export/apps/rDock/src/rDock_2013.1_src/data/scripts/dock_solv.prm

>  <Rbt.Receptor>
prm/pocket_docking_8.prm

>  <SCORE>
-51.8203

>  <SCORE.INTER>
-40.6042

>  <SCORE.INTER.CONST>
1

>  <SCORE.INTER.POLAR>
-6.76603

>  <SCORE.INTER.ROT>
9

>  <SCORE.INTER.SOLV>
27.2588

>  <SCORE.INTER.VDW>
-23.2023

>  <SCORE.INTER.norm>
-0.966767

>  <SCORE.INTRA>
-11.2334

>  <SCORE.INTRA.DIHEDRAL>
-23.8657

>  <SCORE.INTRA.DIHEDRAL.0>
46.2143

>  <SCORE.INTRA.POLAR>
0.774388

>  <SCORE.INTRA.POLAR.0>
-1.76436

>  <SCORE.INTRA.REPUL>
0

>  <SCORE.INTRA.REPUL.0>
0

>  <SCORE.INTRA.SOLV>
-3.16708

>  <SCORE.INTRA.SOLV.lig_0>
-148.643

>  <SCORE.INTRA.VDW>
-0.34998

>  <SCORE.INTRA.VDW.0>
-4.83512

>  <SCORE.INTRA.norm>
-0.267463

>  <SCORE.RESTR>
0.0174124

>  <SCORE.RESTR.CAVITY>
0.0174124

>  <SCORE.RESTR.norm>
0.00041458

>  <SCORE.SYSTEM>
0

>  <SCORE.SYSTEM.CONST>
0

>  <SCORE.SYSTEM.DIHEDRAL>
0

>  <SCORE.SYSTEM.SOLV>
0

>  <SCORE.SYSTEM.norm>
0

>  <SCORE.heavy>
42

>  <SCORE.norm>
-1.23382

>  <RMSD>
8.182

$$$$
1j7t
 OpenBabel11021811393D
libRbt.so/2013.1/901 2013/11/27
 42 45  0  0  0  0  0  0  0  0999 V2000
   32.4925   12.2094   50.4569 C   0  0  2  0  0  0  0  0  0  0  0  0
   31.1940   11.9590   49.8621 O   0  0  0  0  0  0  0  0  0  0  0  0
   33.0828   13.4593   49.7431 C   0  0  2  0  0  0  0  0  0  0  0  0
   32.1872   14.6516   49.7422 N   0  3  0  0  0  0  0  0  0  0  0  0
   33.3719   13.0800   48.2743 C   0  0  1  0  0  0  0  0  0  0  0  0
   33.9221   14.1661   47.5835 O   0  0  0  0  0  0  0  0  0  0  0  0
   34.3222   11.8604   48.2185 C   0  0  2  0  0  0  0  0  0  0  0  0
   34.6172   11.5096   46.8810 O   0  0  0  0  0  0  0  0  0  0  0  0
   33.6811   10.6773   48.9123 C   0  0  2  0  0  0  0  0  0  0  0  0
   33.3445   11.0400   50.2453 O   0  0  0  0  0  0  0  0  0  0  0  0
   34.5963    9.4768   49.0039 C   0  0  0  0  0  0  0  0  0  0  0  0
   34.1550    8.6260   50.0444 O   0  0  0  0  0  0  0  0  0  0  0  0
   28.1041    9.2250   50.7706 C   0  0  2  0  0  0  0  0  0  0  0  0
   27.3817    7.9703   50.9834 N   0  3  0  0  0  0  0  0  0  0  0  0
   28.5677    9.3279   49.2797 C   0  0  0  0  0  0  0  0  0  0  0  0
   29.3709   10.6246   49.0629 C   0  0  2  0  0  0  0  0  0  0  0  0
   29.8595   10.7114   47.6828 N   0  3  0  0  0  0  0  0  0  0  0  0
   30.5663   10.6832   50.0342 C   0  0  2  0  0  0  0  0  0  0  0  0
   30.1411   10.5563   51.5101 C   0  0  2  0  0  0  0  0  0  0  0  0
   31.3618   10.4701   52.2702 O   0  0  0  0  0  0  0  0  0  0  0  0
   29.2920    9.2766   51.7181 C   0  0  1  0  0  0  0  0  0  0  0  0
   28.8348    9.2372   53.0419 O   0  0  0  0  0  0  0  0  0  0  0  0
   32.3466    9.4607   52.0644 C   0  0  1  0  0  0  0  0  0  0  0  0
   32.3889    8.5375   53.3341 C   0  0  2  0  0  0  0  0  0  0  0  0
   33.2667    8.9945   54.3488 O   0  0  0  0  0  0  0  0  0  0  0  0
   32.8195    7.2458   52.6533 C   0  0  2  0  0  0  0  0  0  0  0  0
   34.1933    7.3386   52.1697 O   0  0  0  0  0  0  0  0  0  0  0  0
   31.9061    7.1886   51.4369 C   0  0  2  0  0  0  0  0  0  0  0  0
   31.9521    8.5567   50.9964 O   0  0  0  0  0  0  0  0  0  0  0  0
   30.4504    6.6972   51.7290 C   0  0  0  0  0  0  0  0  0  0  0  0
   29.6798    6.5807   50.5262 O   0  0  0  0  0  0  0  0  0  0  0  0
   34.8902    6.0953   52.1617 C   0  0  2  0  0  0  0  0  0  0  0  0
   34.5367    5.1390   53.3511 C   0  0  2  0  0  0  0  0  0  0  0  0
   34.7905    5.7569   54.6880 N   0  3  0  0  0  0  0  0  0  0  0  0
   35.3761    3.8328   53.1537 C   0  0  1  0  0  0  0  0  0  0  0  0
   34.9281    3.2122   51.8881 O   0  0  0  0  0  0  0  0  0  0  0  0
   36.9256    4.1176   53.0576 C   0  0  2  0  0  0  0  0  0  0  0  0
   37.3676    4.6675   54.3094 O   0  0  0  0  0  0  0  0  0  0  0  0
   37.1692    5.1220   51.8560 C   0  0  1  0  0  0  0  0  0  0  0  0
   36.3680    6.3239   52.1143 O   0  0  0  0  0  0  0  0  0  0  0  0
   38.6477    5.5171   51.6394 C   0  0  0  0  0  0  0  0  0  0  0  0
   38.8683    6.9884   51.6065 N   0  3  0  0  0  0  0  0  0  0  0  0
  1  2  1  6  0  0  0
  1  3  1  0  0  0  0
  1 10  1  0  0  0  0
  3  4  1  6  0  0  0
  3  5  1  0  0  0  0
  5  6  1  6  0  0  0
  5  7  1  0  0  0  0
  7  8  1  6  0  0  0
  7  9  1  0  0  0  0
  9 10  1  0  0  0  0
  9 11  1  1  0  0  0
 11 12  1  0  0  0  0
 13 14  1  6  0  0  0
 13 15  1  0  0  0  0
 13 21  1  0  0  0  0
 15 16  1  0  0  0  0
 16 17  1  6  0  0  0
 16 18  1  0  0  0  0
 18  2  1  1  0  0  0
 18 19  1  0  0  0  0
 19 20  1  1  0  0  0
 19 21  1  0  0  0  0
 21 22  1  1  0  0  0
 23 20  1  1  0  0  0
 23 24  1  0  0  0  0
 23 29  1  0  0  0  0
 24 25  1  1  0  0  0
 24 26  1  0  0  0  0
 26 27  1  6  0  0  0
 26 28  1  0  0  0  0
 28 29  1  0  0  0  0
 28 30  1  1  0  0  0
 30 31  1  0  0  0  0
 32 27  1  1  0  0  0
 32 33  1  0  0  0  0
 32 40  1  0  0  0  0
 33 34  1  1  0  0  0
 33 35  1  0  0  0  0
 35 36  1  6  0  0  0
 35 37  1  0  0  0  0
 37 38  1  1  0  0  0
 37 39  1  0  0  0  0
 39 40  1  0  0  0  0
 39 41  1  1  0  0  0
 41 42  1  0  0  0  0
M  CHG  5   4   1  14   1  17   1  34   1  42   1
M  END
>  <CHROM.1>
162.70452922,-168.41222015,-55.57380644,-63.46702612,171.65398641,158.76585927
52.68303852,-155.59502432,-54.91721070,-58.13558530,-113.00683322,72.63386004
64.13778082,149.52149123,-35.84988232,-175.94187875,31.73059645,61.68001447
-49.26995873,-164.08655097,-126.88381758,-174.53899473,32.94907003,8.77086429
51.05599331,-2.18681222,-0.09266412,2.58713327

>  <Name>
1j7t

>  <RI>
0

>  <Rbt.Current_Directory>
/home/itssahil/PROJECTS/Mol_Feturizer/New_Systems/rnas/1j7t

>  <Rbt.Executable>
rbdock ($Id: //depot/dev/client3/rdock/2013.1/src/exe/rbdock.cxx#4 $)

>  <Rbt.Library>
libRbt.so (2013.1, Build901 2013/11/27)

>  <Rbt.Parameter_File>
/export/apps/rDock/src/rDock_2013.1_src/data/scripts/dock_solv.prm

>  <Rbt.Receptor>
prm/blind_docking_100.prm

>  <SCORE>
-3.89794

>  <SCORE.INTER>
-17.1315

>  <SCORE.INTER.CONST>
1

>  <SCORE.INTER.POLAR>
-6.09879

>  <SCORE.INTER.ROT>
9

>  <SCORE.INTER.SOLV>
46.7242

>  <SCORE.INTER.VDW>
-16.2664

>  <SCORE.INTER.norm>
-0.407892

>  <SCORE.INTRA>
1.5848

>  <SCORE.INTRA.DIHEDRAL>
-16.2006

>  <SCORE.INTRA.DIHEDRAL.0>
46.2143

>  <SCORE.INTRA.POLAR>
-0.142837

>  <SCORE.INTRA.POLAR.0>
-1.76436

>  <SCORE.INTRA.REPUL>
0.585523

>  <SCORE.INTRA.REPUL.0>
0

>  <SCORE.INTRA.SOLV>
4.34873

>  <SCORE.INTRA.SOLV.lig_0>
-148.643

>  <SCORE.INTRA.VDW>
5.06876

>  <SCORE.INTRA.VDW.0>
-4.83512

>  <SCORE.INTRA.norm>
0.0377334

>  <SCORE.RESTR>
11.6487

>  <SCORE.RESTR.CAVITY>
11.6487

>  <SCORE.RESTR.norm>
0.27735

>  <SCORE.SYSTEM>
0

>  <SCORE.SYSTEM.CONST>
0

>  <SCORE.SYSTEM.DIHEDRAL>
0

>  <SCORE.SYSTEM.SOLV>
0

>  <SCORE.SYSTEM.norm>
0

>  <SCORE.heavy>
42

>  <SCORE.norm>
-0.092808

>  <RMSD>
8.203

$$$$
1j7t
 OpenBabel11021811393D
libRbt.so/2013.1/901 2013/11/27
 42 45  0  0  0  0  0  0  0  0999 V2000
   30.8925   11.2225   50.5851 C   0  0  2  0  0  0  0  0  0  0  0  0
   31.0555    9.8127   50.2874 O   0  0  0  0  0  0  0  0  0  0  0  0
   30.1581   11.8586   49.3702 C   0  0  2  0  0  0  0  0  0  0  0  0
   28.8867   11.1782   48.9904 N   0  3  0  0  0  0  0  0  0  0  0  0
   31.1086   11.8045   48.1542 C   0  0  1  0  0  0  0  0  0  0  0  0
   30.5048   12.3802   47.0301 O   0  0  0  0  0  0  0  0  0  0  0  0
   32.4376   12.5230   48.4873 C   0  0  2  0  0  0  0  0  0  0  0  0
   33.3150   12.5036   47.3787 O   0  0  0  0  0  0  0  0  0  0  0  0
   33.1081   11.8444   49.6629 C   0  0  2  0  0  0  0  0  0  0  0  0
   32.2125   11.8244   50.7672 O   0  0  0  0  0  0  0  0  0  0  0  0
   34.3575   12.5594   50.1263 C   0  0  0  0  0  0  0  0  0  0  0  0
   34.0350   13.8907   50.4798 O   0  0  0  0  0  0  0  0  0  0  0  0
   29.0399    8.2345   53.6482 C   0  0  2  0  0  0  0  0  0  0  0  0
   28.5942    7.3050   54.6867 N   0  3  0  0  0  0  0  0  0  0  0  0
   28.6332    7.6938   52.2373 C   0  0  0  0  0  0  0  0  0  0  0  0
   29.1434    8.6450   51.1381 C   0  0  2  0  0  0  0  0  0  0  0  0
   28.8175    8.1257   49.8058 N   0  3  0  0  0  0  0  0  0  0  0  0
   30.6689    8.8312   51.2563 C   0  0  2  0  0  0  0  0  0  0  0  0
   31.1011    9.3374   52.6463 C   0  0  2  0  0  0  0  0  0  0  0  0
   32.5415    9.3094   52.6502 O   0  0  0  0  0  0  0  0  0  0  0  0
   30.5468    8.4071   53.7549 C   0  0  1  0  0  0  0  0  0  0  0  0
   30.8673    8.9430   55.0091 O   0  0  0  0  0  0  0  0  0  0  0  0
   33.3081    8.2226   52.1381 C   0  0  1  0  0  0  0  0  0  0  0  0
   33.4686    7.1468   53.2708 C   0  0  2  0  0  0  0  0  0  0  0  0
   34.5882    7.3609   54.1132 O   0  0  0  0  0  0  0  0  0  0  0  0
   33.5625    5.9099   52.3885 C   0  0  2  0  0  0  0  0  0  0  0  0
   34.8106    5.8964   51.6324 O   0  0  0  0  0  0  0  0  0  0  0  0
   32.4261    6.1194   51.3975 C   0  0  2  0  0  0  0  0  0  0  0  0
   32.5813    7.5167   51.0956 O   0  0  0  0  0  0  0  0  0  0  0  0
   31.0025    5.7748   51.9455 C   0  0  0  0  0  0  0  0  0  0  0  0
   30.0410    5.6643   50.8885 O   0  0  0  0  0  0  0  0  0  0  0  0
   35.9192    5.3643   52.3531 C   0  0  2  0  0  0  0  0  0  0  0  0
   36.8862    6.4401   52.9546 C   0  0  2  0  0  0  0  0  0  0  0  0
   37.4555    7.3536   51.9178 N   0  3  0  0  0  0  0  0  0  0  0  0
   38.0121    5.6675   53.7196 C   0  0  1  0  0  0  0  0  0  0  0  0
   37.3630    4.9316   54.8262 O   0  0  0  0  0  0  0  0  0  0  0  0
   38.7694    4.6331   52.7989 C   0  0  2  0  0  0  0  0  0  0  0  0
   39.4456    5.3572   51.7581 O   0  0  0  0  0  0  0  0  0  0  0  0
   37.7009    3.6206   52.2114 C   0  0  1  0  0  0  0  0  0  0  0  0
   36.6898    4.4089   51.4975 O   0  0  0  0  0  0  0  0  0  0  0  0
   38.2863    2.5457   51.2676 C   0  0  0  0  0  0  0  0  0  0  0  0
   39.3755    1.7434   51.8879 N   0  3  0  0  0  0  0  0  0  0  0  0
  1  2  1  6  0  0  0
  1  3  1  0  0  0  0
  1 10  1  0  0  0  0
  3  4  1  6  0  0  0
  3  5  1  0  0  0  0
  5  6  1  6  0  0  0
  5  7  1  0  0  0  0
  7  8  1  6  0  0  0
  7  9  1  0  0  0  0
  9 10  1  0  0  0  0
  9 11  1  1  0  0  0
 11 12  1  0  0  0  0
 13 14  1  1  0  0  0
 13 15  1  0  0  0  0
 13 21  1  0  0  0  0
 15 16  1  0  0  0  0
 16 17  1  6  0  0  0
 16 18  1  0  0  0  0
 18  2  1  6  0  0  0
 18 19  1  0  0  0  0
 19 20  1  6  0  0  0
 19 21  1  0  0  0  0
 21 22  1  1  0  0  0
 23 20  1  1  0  0  0
 23 24  1  0  0  0  0
 23 29  1  0  0  0  0
 24 25  1  6  0  0  0
 24 26  1  0  0  0  0
 26 27  1  6  0  0  0
 26 28  1  0  0  0  0
 28 29  1  0  0  0  0
 28 30  1  1  0  0  0
 30 31  1  0  0  0  0
 32 27  1  6  0  0  0
 32 33  1  0  0  0  0
 32 40  1  0  0  0  0
 33 34  1  6  0  0  0
 33 35  1  0  0  0  0
 35 36  1  1  0  0  0
 35 37  1  0  0  0  0
 37 38  1  6  0  0  0
 37 39  1  0  0  0  0
 39 40  1  0  0  0  0
 39 41  1  6  0  0  0
 41 42  1  0  0  0  0
M  CHG  5   4   1  14   1  17   1  34   1  42   1
M  END
>  <CHROM.1>
-130.27690840,81.23344452,-97.92925302,-61.45737549,-60.77270953,58.03108895
-58.98586696,-55.88378673,-178.00284281,-44.03955937,-85.78835589,-47.94997412
70.12036483,84.04395759,-100.59756432,-165.17800012,173.66517223,-76.64132866
-54.18868743,77.86321752,55.84416759,67.48858702,33.19457701,8.09752918,51.51507689
-2.38285070,-0.19473767,2.56482338

>  <Name>
1j7t

>  <RI>
0

>  <Rbt.Current_Directory>
/home/itssahil/PROJECTS/Mol_Feturizer/New_Systems/rnas/1j7t

>  <Rbt.Executable>
rbdock ($Id: //depot/dev/client3/rdock/2013.1/src/exe/rbdock.cxx#4 $)

>  <Rbt.Library>
libRbt.so (2013.1, Build901 2013/11/27)

>  <Rbt.Parameter_File>
/export/apps/rDock/src/rDock_2013.1_src/data/scripts/dock_solv.prm

>  <Rbt.Receptor>
prm/blind_docking_100.prm

>  <SCORE>
-11.285

>  <SCORE.INTER>
-24.956

>  <SCORE.INTER.CONST>
1

>  <SCORE.INTER.POLAR>
-2.20278

>  <SCORE.INTER.ROT>
9

>  <SCORE.INTER.SOLV>
33.2075

>  <SCORE.INTER.VDW>
-29.9639

>  <SCORE.INTER.norm>
-0.59419

>  <SCORE.INTRA>
0.81155

>  <SCORE.INTRA.DIHEDRAL>
-17.9842

>  <SCORE.INTRA.DIHEDRAL.0>
46.2143

>  <SCORE.INTRA.POLAR>
0.134898

>  <SCORE.INTRA.POLAR.0>
-1.76436

>  <SCORE.INTRA.REPUL>
0

>  <SCORE.INTRA.REPUL.0>
0

>  <SCORE.INTRA.SOLV>
5.93404

>  <SCORE.INTRA.SOLV.lig_0>
-148.643

>  <SCORE.INTRA.VDW>
6.37795

>  <SCORE.INTRA.VDW.0>
-4.83512

>  <SCORE.INTRA.norm>
0.0193226

>  <SCORE.RESTR>
12.8594

>  <SCORE.RESTR.CAVITY>
12.8594

>  <SCORE.RESTR.norm>
0.306176

>  <SCORE.SYSTEM>
0

>  <SCORE.SYSTEM.CONST>
0

>  <SCORE.SYSTEM.DIHEDRAL>
0

>  <SCORE.SYSTEM.SOLV>
0

>  <SCORE.SYSTEM.norm>
0

>  <SCORE.heavy>
42

>  <SCORE.norm>
-0.268691

>  <RMSD>
8.212

$$$$
1j7t
 OpenBabel11021811393D
libRbt.so/2013.1/901 2013/11/27
 42 45  0  0  0  0  0  0  0  0999 V2000
   27.1788    8.2921   61.3216 C   0  0  2  0  0  0  0  0  0  0  0  0
   27.0553    8.0134   59.9040 O   0  0  0  0  0  0  0  0  0  0  0  0
   26.5962    9.7156   61.5544 C   0  0  2  0  0  0  0  0  0  0  0  0
   25.2160    9.9131   61.0257 N   0  3  0  0  0  0  0  0  0  0  0  0
   27.5240   10.7330   60.8551 C   0  0  1  0  0  0  0  0  0  0  0  0
   27.0564   12.0387   61.0451 O   0  0  0  0  0  0  0  0  0  0  0  0
   28.9687   10.5881   61.3893 C   0  0  2  0  0  0  0  0  0  0  0  0
   29.8312   11.5262   60.7768 O   0  0  0  0  0  0  0  0  0  0  0  0
   29.4804    9.1900   61.1145 C   0  0  2  0  0  0  0  0  0  0  0  0
   28.5922    8.2423   61.6933 O   0  0  0  0  0  0  0  0  0  0  0  0
   30.8456    8.9306   61.7112 C   0  0  0  0  0  0  0  0  0  0  0  0
   31.2913    7.6443   61.3267 O   0  0  0  0  0  0  0  0  0  0  0  0
   29.7759    4.7905   59.6596 C   0  0  2  0  0  0  0  0  0  0  0  0
   30.4809    3.6059   59.1687 N   0  3  0  0  0  0  0  0  0  0  0  0
   28.2682    4.4513   59.9047 C   0  0  0  0  0  0  0  0  0  0  0  0
   27.5119    5.7084   60.3750 C   0  0  2  0  0  0  0  0  0  0  0  0
   26.0854    5.4214   60.5582 N   0  3  0  0  0  0  0  0  0  0  0  0
   27.6779    6.8481   59.3507 C   0  0  2  0  0  0  0  0  0  0  0  0
   29.1551    7.1852   59.0689 C   0  0  2  0  0  0  0  0  0  0  0  0
   29.1468    8.1429   57.9927 O   0  0  0  0  0  0  0  0  0  0  0  0
   29.9267    5.9106   58.6425 C   0  0  1  0  0  0  0  0  0  0  0  0
   31.2841    6.2230   58.4905 O   0  0  0  0  0  0  0  0  0  0  0  0
   28.7392    7.8285   56.6637 C   0  0  1  0  0  0  0  0  0  0  0  0
   28.7204    9.1531   55.8204 C   0  0  2  0  0  0  0  0  0  0  0  0
   27.4926    9.8584   55.8840 O   0  0  0  0  0  0  0  0  0  0  0  0
   29.0401    8.5521   54.4588 C   0  0  2  0  0  0  0  0  0  0  0  0
   27.9311    7.7399   53.9686 O   0  0  0  0  0  0  0  0  0  0  0  0
   30.1960    7.6123   54.7714 C   0  0  2  0  0  0  0  0  0  0  0  0
   29.7347    7.0089   55.9925 O   0  0  0  0  0  0  0  0  0  0  0  0
   31.5869    8.3093   54.9305 C   0  0  0  0  0  0  0  0  0  0  0  0
   32.6538    7.4746   54.4626 O   0  0  0  0  0  0  0  0  0  0  0  0
   28.2838    6.8581   52.9058 C   0  0  2  0  0  0  0  0  0  0  0  0
   27.0712    6.3172   52.0743 C   0  0  2  0  0  0  0  0  0  0  0  0
   26.0708    5.5894   52.9127 N   0  3  0  0  0  0  0  0  0  0  0  0
   27.6589    5.3968   50.9531 C   0  0  1  0  0  0  0  0  0  0  0  0
   28.4973    6.2492   50.0823 O   0  0  0  0  0  0  0  0  0  0  0  0
   28.5518    4.2314   51.5326 C   0  0  2  0  0  0  0  0  0  0  0  0
   27.7212    3.3735   52.3317 O   0  0  0  0  0  0  0  0  0  0  0  0
   29.7182    4.8815   52.3864 C   0  0  1  0  0  0  0  0  0  0  0  0
   29.0970    5.7139   53.4231 O   0  0  0  0  0  0  0  0  0  0  0  0
   30.6786    3.8627   53.0414 C   0  0  0  0  0  0  0  0  0  0  0  0
   30.2966    2.4459   52.7942 N   0  3  0  0  0  0  0  0  0  0  0  0
  1  2  1  6  0  0  0
  1  3  1  0  0  0  0
  1 10  1  0  0  0  0
  3  4  1  6  0  0  0
  3  5  1  0  0  0  0
  5  6  1  1  0  0  0
  5  7  1  0  0  0  0
  7  8  1  6  0  0  0
  7  9  1  0  0  0  0
  9 10  1  0  0  0  0
  9 11  1  1  0  0  0
 11 12  1  0  0  0  0
 13 14  1  6  0  0  0
 13 15  1  0  0  0  0
 13 21  1  0  0  0  0
 15 16  1  0  0  0  0
 16 17  1  6  0  0  0
 16 18  1  0  0  0  0
 18  2  1  1  0  0  0
 18 19  1  0  0  0  0
 19 20  1  6  0  0  0
 19 21  1  0  0  0  0
 21 22  1  1  0  0  0
 23 20  1  1  0  0  0
 23 24  1  0  0  0  0
 23 29  1  0  0  0  0
 24 25  1  6  0  0  0
 24 26  1  0  0  0  0
 26 27  1  1  0  0  0
 26 28  1  0  0  0  0
 28 29  1  0  0  0  0
 28 30  1  1  0  0  0
 30 31  1  0  0  0  0
 32 27  1  1  0  0  0
 32 33  1  0  0  0  0
 32 40  1  0  0  0  0
 33 34  1  1  0  0  0
 33 35  1  0  0  0  0
 35 36  1  6  0  0  0
 35 37  1  0  0  0  0
 37 38  1  1  0  0  0
 37 39  1  0  0  0  0
 39 40  1  0  0  0  0
 39 41  1  1  0  0  0
 41 42  1  0  0  0  0
M  CHG  5   4   1  14   1  17   1  34   1  42   1
M  END
>  <CHROM.1>
171.27130759,38.68579718,-45.69489001,-179.51560578,166.15643788,-175.69196036
-176.16069114,-55.05482868,60.98169501,-67.67844318,174.02436627,170.96959559
168.81555781,-163.38539220,-161.84127432,-146.43051532,169.82931566,-86.44139808
-75.87294970,68.54963939,-2.37804544,-169.80792857,28.78175981,7.17113652
57.09353260,-1.71771872,1.13781554,-1.84801797

>  <Name>
1j7t

>  <RI>
0

>  <Rbt.Current_Directory>
/home/itssahil/PROJECTS/Mol_Feturizer/New_Systems/rnas/1j7t

>  <Rbt.Executable>
rbdock ($Id: //depot/dev/client3/rdock/2013.1/src/exe/rbdock.cxx#4 $)

>  <Rbt.Library>
libRbt.so (2013.1, Build901 2013/11/27)

>  <Rbt.Parameter_File>
/export/apps/rDock/src/rDock_2013.1_src/data/scripts/dock_solv.prm

>  <Rbt.Receptor>
prm/pocket_docking_8.prm

>  <SCORE>
-43.0417

>  <SCORE.INTER>
-32.7694

>  <SCORE.INTER.CONST>
1

>  <SCORE.INTER.POLAR>
-6.04564

>  <SCORE.INTER.ROT>
9

>  <SCORE.INTER.SOLV>
12.7185

>  <SCORE.INTER.VDW>
-15.5337

>  <SCORE.INTER.norm>
-0.780224

>  <SCORE.INTRA>
-10.2723

>  <SCORE.INTRA.DIHEDRAL>
-25.3458

>  <SCORE.INTRA.DIHEDRAL.0>
46.2143

>  <SCORE.INTRA.POLAR>
0.465976

>  <SCORE.INTRA.POLAR.0>
-1.76436

>  <SCORE.INTRA.REPUL>
0

>  <SCORE.INTRA.REPUL.0>
0

>  <SCORE.INTRA.SOLV>
-2.57368

>  <SCORE.INTRA.SOLV.lig_0>
-148.643

>  <SCORE.INTRA.VDW>
2.10311

>  <SCORE.INTRA.VDW.0>
-4.83512

>  <SCORE.INTRA.norm>
-0.244579

>  <SCORE.RESTR>
0

>  <SCORE.RESTR.CAVITY>
0

>  <SCORE.RESTR.norm>
0

>  <SCORE.SYSTEM>
0

>  <SCORE.SYSTEM.CONST>
0

>  <SCORE.SYSTEM.DIHEDRAL>
0

>  <SCORE.SYSTEM.SOLV>
0

>  <SCORE.SYSTEM.norm>
0

>  <SCORE.heavy>
42

>  <SCORE.norm>
-1.0248

>  <RMSD>
8.225

$$$$
1j7t
 OpenBabel11021811393D
libRbt.so/2013.1/901 2013/11/27
 42 45  0  0  0  0  0  0  0  0999 V2000
   29.4724    8.3468   59.4866 C   0  0  2  0  0  0  0  0  0  0  0  0
   28.2069    8.8285   60.0052 O   0  0  0  0  0  0  0  0  0  0  0  0
   30.5917    9.1489   60.2105 C   0  0  2  0  0  0  0  0  0  0  0  0
   30.5079    9.1220   61.6991 N   0  3  0  0  0  0  0  0  0  0  0  0
   30.4966   10.6215   59.7550 C   0  0  1  0  0  0  0  0  0  0  0  0
   31.4941   11.3917   60.3643 O   0  0  0  0  0  0  0  0  0  0  0  0
   30.6058   10.7082   58.2142 C   0  0  2  0  0  0  0  0  0  0  0  0
   30.5426   12.0514   57.7772 O   0  0  0  0  0  0  0  0  0  0  0  0
   29.4796    9.9245   57.5742 C   0  0  2  0  0  0  0  0  0  0  0  0
   29.5145    8.5829   58.0442 O   0  0  0  0  0  0  0  0  0  0  0  0
   29.5828    9.8623   56.0667 C   0  0  0  0  0  0  0  0  0  0  0  0
   28.4498    9.1958   55.5439 O   0  0  0  0  0  0  0  0  0  0  0  0
   24.4496    6.9043   60.1746 C   0  0  2  0  0  0  0  0  0  0  0  0
   23.1778    6.3082   59.7640 N   0  3  0  0  0  0  0  0  0  0  0  0
   24.4711    8.4243   59.8040 C   0  0  0  0  0  0  0  0  0  0  0  0
   25.8274    9.0447   60.1904 C   0  0  2  0  0  0  0  0  0  0  0  0
   25.8849   10.4575   59.8010 N   0  3  0  0  0  0  0  0  0  0  0  0
   26.9798    8.2788   59.5115 C   0  0  2  0  0  0  0  0  0  0  0  0
   26.9670    6.7725   59.8372 C   0  0  2  0  0  0  0  0  0  0  0  0
   27.9915    6.1788   59.0165 O   0  0  0  0  0  0  0  0  0  0  0  0
   25.5862    6.1586   59.4936 C   0  0  1  0  0  0  0  0  0  0  0  0
   25.5672    4.8153   59.8914 O   0  0  0  0  0  0  0  0  0  0  0  0
   28.1147    6.4184   57.6170 C   0  0  1  0  0  0  0  0  0  0  0  0
   29.1606    5.4063   57.0271 C   0  0  2  0  0  0  0  0  0  0  0  0
   30.5006    5.8647   57.0848 O   0  0  0  0  0  0  0  0  0  0  0  0
   28.5869    5.2904   55.6219 C   0  0  2  0  0  0  0  0  0  0  0  0
   28.7585    6.5348   54.8791 O   0  0  0  0  0  0  0  0  0  0  0  0
   27.0978    5.1116   55.8826 C   0  0  2  0  0  0  0  0  0  0  0  0
   26.8836    6.0842   56.9199 O   0  0  0  0  0  0  0  0  0  0  0  0
   26.6728    3.6688   56.3110 C   0  0  0  0  0  0  0  0  0  0  0  0
   27.3111    2.6685   55.5073 O   0  0  0  0  0  0  0  0  0  0  0  0
   29.1174    6.3493   53.5122 C   0  0  2  0  0  0  0  0  0  0  0  0
   29.7565    7.6048   52.8270 C   0  0  2  0  0  0  0  0  0  0  0  0
   28.8680    8.8056   52.8712 N   0  3  0  0  0  0  0  0  0  0  0  0
   30.0995    7.1983   51.3549 C   0  0  1  0  0  0  0  0  0  0  0  0
   31.1104    6.1207   51.4232 O   0  0  0  0  0  0  0  0  0  0  0  0
   28.8416    6.6636   50.5657 C   0  0  2  0  0  0  0  0  0  0  0  0
   27.8859    7.7307   50.4521 O   0  0  0  0  0  0  0  0  0  0  0  0
   28.2495    5.4267   51.3604 C   0  0  1  0  0  0  0  0  0  0  0  0
   27.9373    5.8825   52.7199 O   0  0  0  0  0  0  0  0  0  0  0  0
   26.9924    4.7949   50.7204 C   0  0  0  0  0  0  0  0  0  0  0  0
   26.4324    3.6635   51.5083 N   0  3  0  0  0  0  0  0  0  0  0  0
  1  2  1  1  0  0  0
  1  3  1  0  0  0  0
  1 10  1  0  0  0  0
  3  4  1  1  0  0  0
  3  5  1  0  0  0  0
  5  6  1  1  0  0  0
  5  7  1  0  0  0  0
  7  8  1  1  0  0  0
  7  9  1  0  0  0  0
  9 10  1  0  0  0  0
  9 11  1  6  0  0  0
 11 12  1  0  0  0  0
 13 14  1  6  0  0  0
 13 15  1  0  0  0  0
 13 21  1  0  0  0  0
 15 16  1  0  0  0  0
 16 17  1  6  0  0  0
 16 18  1  0  0  0  0
 18  2  1  1  0  0  0
 18 19  1  0  0  0  0
 19 20  1  6  0  0  0
 19 21  1  0  0  0  0
 21 22  1  1  0  0  0
 23 20  1  1  0  0  0
 23 24  1  0  0  0  0
 23 29  1  0  0  0  0
 24 25  1  6  0  0  0
 24 26  1  0  0  0  0
 26 27  1  6  0  0  0
 26 28  1  0  0  0  0
 28 29  1  0  0  0  0
 28 30  1  1  0  0  0
 30 31  1  0  0  0  0
 32 27  1  1  0  0  0
 32 33  1  0  0  0  0
 32 40  1  0  0  0  0
 33 34  1  6  0  0  0
 33 35  1  0  0  0  0
 35 36  1  1  0  0  0
 35 37  1  0  0  0  0
 37 38  1  1  0  0  0
 37 39  1  0  0  0  0
 39 40  1  0  0  0  0
 39 41  1  6  0  0  0
 41 42  1  0  0  0  0
M  CHG  5   4   1  14   1  17   1  34   1  42   1
M  END
>  <CHROM.1>
179.41759138,-176.82458708,-171.91461258,-74.36508942,-49.55725883,-175.98367168
-66.43630595,53.34336833,-51.32024825,-49.07735251,-169.56173878,83.22712244
-156.75712751,140.09148036,-160.84969657,-44.10841688,-61.77429807,47.03787331
-164.19335902,173.28140635,-178.19820742,-39.66091238,28.18957825,7.34543466
56.61367580,-1.62454698,-0.76071215,-1.98239084

>  <Name>
1j7t

>  <RI>
0

>  <Rbt.Current_Directory>
/home/itssahil/PROJECTS/Mol_Feturizer/New_Systems/rnas/1j7t

>  <Rbt.Executable>
rbdock ($Id: //depot/dev/client3/rdock/2013.1/src/exe/rbdock.cxx#4 $)

>  <Rbt.Library>
libRbt.so (2013.1, Build901 2013/11/27)

>  <Rbt.Parameter_File>
/export/apps/rDock/src/rDock_2013.1_src/data/scripts/dock_solv.prm

>  <Rbt.Receptor>
prm/pocket_docking_8.prm

>  <SCORE>
-42.7911

>  <SCORE.INTER>
-27.4009

>  <SCORE.INTER.CONST>
1

>  <SCORE.INTER.POLAR>
-4.84145

>  <SCORE.INTER.ROT>
9

>  <SCORE.INTER.SOLV>
20.3181

>  <SCORE.INTER.VDW>
-18.5018

>  <SCORE.INTER.norm>
-0.652402

>  <SCORE.INTRA>
-15.3902

>  <SCORE.INTRA.DIHEDRAL>
-27.3043

>  <SCORE.INTRA.DIHEDRAL.0>
46.2143

>  <SCORE.INTRA.POLAR>
-0.890881

>  <SCORE.INTRA.POLAR.0>
-1.76436

>  <SCORE.INTRA.REPUL>
0.650774

>  <SCORE.INTRA.REPUL.0>
0

>  <SCORE.INTRA.SOLV>
-0.913086

>  <SCORE.INTRA.SOLV.lig_0>
-148.643

>  <SCORE.INTRA.VDW>
-1.50639

>  <SCORE.INTRA.VDW.0>
-4.83512

>  <SCORE.INTRA.norm>
-0.366433

>  <SCORE.RESTR>
0

>  <SCORE.RESTR.CAVITY>
0

>  <SCORE.RESTR.norm>
0

>  <SCORE.SYSTEM>
0

>  <SCORE.SYSTEM.CONST>
0

>  <SCORE.SYSTEM.DIHEDRAL>
0

>  <SCORE.SYSTEM.SOLV>
0

>  <SCORE.SYSTEM.norm>
0

>  <SCORE.heavy>
42

>  <SCORE.norm>
-1.01884

>  <RMSD>
8.250

$$$$
1j7t
 OpenBabel11021811393D
libRbt.so/2013.1/901 2013/11/27
 42 45  0  0  0  0  0  0  0  0999 V2000
   30.7708    3.4321   58.8299 C   0  0  2  0  0  0  0  0  0  0  0  0
   31.6958    4.4582   58.3892 O   0  0  0  0  0  0  0  0  0  0  0  0
   31.0898    2.1522   58.0053 C   0  0  2  0  0  0  0  0  0  0  0  0
   32.5184    1.7269   58.0511 N   0  3  0  0  0  0  0  0  0  0  0  0
   30.7225    2.4284   56.5309 C   0  0  1  0  0  0  0  0  0  0  0  0
   30.9742    1.3010   55.7402 O   0  0  0  0  0  0  0  0  0  0  0  0
   29.2374    2.8487   56.4240 C   0  0  2  0  0  0  0  0  0  0  0  0
   28.8742    3.0858   55.0783 O   0  0  0  0  0  0  0  0  0  0  0  0
   29.0001    4.1072   57.2314 C   0  0  2  0  0  0  0  0  0  0  0  0
   29.4039    3.8856   58.5767 O   0  0  0  0  0  0  0  0  0  0  0  0
   27.5454    4.5186   57.2739 C   0  0  0  0  0  0  0  0  0  0  0  0
   26.8278    3.6277   58.1060 O   0  0  0  0  0  0  0  0  0  0  0  0
   29.5589    7.9174   59.5361 C   0  0  2  0  0  0  0  0  0  0  0  0
   29.2610    9.2897   59.9480 N   0  3  0  0  0  0  0  0  0  0  0  0
   30.4371    7.2127   60.6226 C   0  0  0  0  0  0  0  0  0  0  0  0
   30.7939    5.7837   60.1704 C   0  0  2  0  0  0  0  0  0  0  0  0
   31.6620    5.1267   61.1531 N   0  3  0  0  0  0  0  0  0  0  0  0
   31.5021    5.8160   58.8017 C   0  0  2  0  0  0  0  0  0  0  0  0
   30.6708    6.5296   57.7178 C   0  0  2  0  0  0  0  0  0  0  0  0
   31.5200    6.6163   56.5573 O   0  0  0  0  0  0  0  0  0  0  0  0
   30.2709    7.9494   58.1930 C   0  0  1  0  0  0  0  0  0  0  0  0
   29.4339    8.5372   57.2354 O   0  0  0  0  0  0  0  0  0  0  0  0
   31.0422    6.4804   55.2215 C   0  0  1  0  0  0  0  0  0  0  0  0
   32.1709    6.9516   54.2366 C   0  0  2  0  0  0  0  0  0  0  0  0
   32.1482    8.3412   53.9580 O   0  0  0  0  0  0  0  0  0  0  0  0
   31.8192    6.0590   53.0548 C   0  0  2  0  0  0  0  0  0  0  0  0
   30.5541    6.4620   52.4491 O   0  0  0  0  0  0  0  0  0  0  0  0
   31.6035    4.7033   53.7126 C   0  0  2  0  0  0  0  0  0  0  0  0
   30.8482    5.0816   54.8763 O   0  0  0  0  0  0  0  0  0  0  0  0
   32.9142    3.9283   54.0693 C   0  0  0  0  0  0  0  0  0  0  0  0
   33.7064    4.6413   55.0274 O   0  0  0  0  0  0  0  0  0  0  0  0
   30.0522    5.5387   51.4862 C   0  0  2  0  0  0  0  0  0  0  0  0
   29.3137    6.1966   50.2713 C   0  0  2  0  0  0  0  0  0  0  0  0
   28.1558    7.0455   50.6862 N   0  3  0  0  0  0  0  0  0  0  0  0
   28.8633    5.0341   49.3250 C   0  0  1  0  0  0  0  0  0  0  0  0
   30.0901    4.3666   48.8381 O   0  0  0  0  0  0  0  0  0  0  0  0
   27.9644    3.9668   50.0625 C   0  0  2  0  0  0  0  0  0  0  0  0
   26.7485    4.6062   50.4838 O   0  0  0  0  0  0  0  0  0  0  0  0
   28.7849    3.3961   51.2926 C   0  0  1  0  0  0  0  0  0  0  0  0
   29.1587    4.5333   52.1413 O   0  0  0  0  0  0  0  0  0  0  0  0
   28.0295    2.3428   52.1347 C   0  0  0  0  0  0  0  0  0  0  0  0
   27.8924    1.0273   51.4525 N   0  3  0  0  0  0  0  0  0  0  0  0
  1  2  1  6  0  0  0
  1  3  1  0  0  0  0
  1 10  1  0  0  0  0
  3  4  1  6  0  0  0
  3  5  1  0  0  0  0
  5  6  1  6  0  0  0
  5  7  1  0  0  0  0
  7  8  1  6  0  0  0
  7  9  1  0  0  0  0
  9 10  1  0  0  0  0
  9 11  1  1  0  0  0
 11 12  1  0  0  0  0
 13 14  1  1  0  0  0
 13 15  1  0  0  0  0
 13 21  1  0  0  0  0
 15 16  1  0  0  0  0
 16 17  1  1  0  0  0
 16 18  1  0  0  0  0
 18  2  1  6  0  0  0
 18 19  1  0  0  0  0
 19 20  1  6  0  0  0
 19 21  1  0  0  0  0
 21 22  1  6  0  0  0
 23 20  1  1  0  0  0
 23 24  1  0  0  0  0
 23 29  1  0  0  0  0
 24 25  1  6  0  0  0
 24 26  1  0  0  0  0
 26 27  1  1  0  0  0
 26 28  1  0  0  0  0
 28 29  1  0  0  0  0
 28 30  1  1  0  0  0
 30 31  1  0  0  0  0
 32 27  1  1  0  0  0
 32 33  1  0  0  0  0
 32 40  1  0  0  0  0
 33 34  1  1  0  0  0
 33 35  1  0  0  0  0
 35 36  1  1  0  0  0
 35 37  1  0  0  0  0
 37 38  1  1  0  0  0
 37 39  1  0  0  0  0
 39 40  1  0  0  0  0
 39 41  1  1  0  0  0
 41 42  1  0  0  0  0
M  CHG  5   4   1  14   1  17   1  34   1  42   1
M  END
>  <CHROM.1>
169.37684425,28.79486927,-70.27677713,51.51506370,-62.01612508,72.49729382
-59.11121875,-53.69465133,-68.93195606,143.38824989,167.30999663,72.67828111
140.57776767,-169.95728006,-144.60187370,62.59098980,67.25702065,65.11684375
-47.20966700,45.70330497,72.55077031,167.99778567,30.12294235,4.96975530
55.29852626,0.50905068,1.36097087,2.47526233

>  <Name>
1j7t

>  <RI>
0

>  <Rbt.Current_Directory>
/home/itssahil/PROJECTS/Mol_Feturizer/New_Systems/rnas/1j7t

>  <Rbt.Executable>
rbdock ($Id: //depot/dev/client3/rdock/2013.1/src/exe/rbdock.cxx#4 $)

>  <Rbt.Library>
libRbt.so (2013.1, Build901 2013/11/27)

>  <Rbt.Parameter_File>
/export/apps/rDock/src/rDock_2013.1_src/data/scripts/dock_solv.prm

>  <Rbt.Receptor>
prm/pocket_docking_8.prm

>  <SCORE>
-46.9607

>  <SCORE.INTER>
-35.9382

>  <SCORE.INTER.CONST>
1

>  <SCORE.INTER.POLAR>
-6.37623

>  <SCORE.INTER.ROT>
9

>  <SCORE.INTER.SOLV>
19.6415

>  <SCORE.INTER.VDW>
-18.8519

>  <SCORE.INTER.norm>
-0.855671

>  <SCORE.INTRA>
-11.0225

>  <SCORE.INTRA.DIHEDRAL>
-20.3396

>  <SCORE.INTRA.DIHEDRAL.0>
46.2143

>  <SCORE.INTRA.POLAR>
0.58616

>  <SCORE.INTRA.POLAR.0>
-1.76436

>  <SCORE.INTRA.REPUL>
0

>  <SCORE.INTRA.REPUL.0>
0

>  <SCORE.INTRA.SOLV>
-2.09657

>  <SCORE.INTRA.SOLV.lig_0>
-148.643

>  <SCORE.INTRA.VDW>
-1.79737

>  <SCORE.INTRA.VDW.0>
-4.83512

>  <SCORE.INTRA.norm>
-0.26244

>  <SCORE.RESTR>
0

>  <SCORE.RESTR.CAVITY>
0

>  <SCORE.RESTR.norm>
0

>  <SCORE.SYSTEM>
0

>  <SCORE.SYSTEM.CONST>
0

>  <SCORE.SYSTEM.DIHEDRAL>
0

>  <SCORE.SYSTEM.SOLV>
0

>  <SCORE.SYSTEM.norm>
0

>  <SCORE.heavy>
42

>  <SCORE.norm>
-1.11811

>  <RMSD>
8.264

$$$$
1j7t
 OpenBabel11021811393D
libRbt.so/2013.1/901 2013/11/27
 42 45  0  0  0  0  0  0  0  0999 V2000
   32.1811   11.0310   49.3177 C   0  0  2  0  0  0  0  0  0  0  0  0
   31.5744   10.9640   50.6330 O   0  0  0  0  0  0  0  0  0  0  0  0
   33.0929   12.2914   49.3047 C   0  0  2  0  0  0  0  0  0  0  0  0
   34.0800   12.3522   50.4207 N   0  3  0  0  0  0  0  0  0  0  0  0
   32.1874   13.5386   49.4016 C   0  0  1  0  0  0  0  0  0  0  0  0
   32.9553   14.7088   49.3780 O   0  0  0  0  0  0  0  0  0  0  0  0
   31.1585   13.5382   48.2463 C   0  0  2  0  0  0  0  0  0  0  0  0
   30.3324   14.6842   48.3040 O   0  0  0  0  0  0  0  0  0  0  0  0
   30.2938   12.2983   48.3285 C   0  0  2  0  0  0  0  0  0  0  0  0
   31.1245   11.1443   48.3133 O   0  0  0  0  0  0  0  0  0  0  0  0
   29.3379   12.1640   47.1644 C   0  0  0  0  0  0  0  0  0  0  0  0
   28.2382   13.0333   47.3548 O   0  0  0  0  0  0  0  0  0  0  0  0
   29.2183    8.3759   52.9991 C   0  0  2  0  0  0  0  0  0  0  0  0
   28.6395    7.1561   53.5634 N   0  3  0  0  0  0  0  0  0  0  0  0
   28.8871    8.4673   51.4726 C   0  0  0  0  0  0  0  0  0  0  0  0
   29.5360    9.7253   50.8641 C   0  0  2  0  0  0  0  0  0  0  0  0
   29.2806    9.7986   49.4218 N   0  3  0  0  0  0  0  0  0  0  0  0
   31.0566    9.7187   51.1154 C   0  0  2  0  0  0  0  0  0  0  0  0
   31.4126    9.6016   52.6103 C   0  0  2  0  0  0  0  0  0  0  0  0
   32.8442    9.4508   52.6682 O   0  0  0  0  0  0  0  0  0  0  0  0
   30.7205    8.3630   53.2336 C   0  0  1  0  0  0  0  0  0  0  0  0
   30.9773    8.3358   54.6107 O   0  0  0  0  0  0  0  0  0  0  0  0
   33.5408    8.3389   52.1119 C   0  0  1  0  0  0  0  0  0  0  0  0
   33.7915    7.2862   53.2499 C   0  0  2  0  0  0  0  0  0  0  0  0
   34.9898    7.4987   53.9765 O   0  0  0  0  0  0  0  0  0  0  0  0
   33.7807    6.0282   52.3929 C   0  0  2  0  0  0  0  0  0  0  0  0
   34.9505    5.9747   51.5219 O   0  0  0  0  0  0  0  0  0  0  0  0
   32.5583    6.2360   51.5097 C   0  0  2  0  0  0  0  0  0  0  0  0
   32.7064    7.6231   51.1607 O   0  0  0  0  0  0  0  0  0  0  0  0
   31.1882    5.9300   52.1989 C   0  0  0  0  0  0  0  0  0  0  0  0
   31.3445    5.6869   53.6026 O   0  0  0  0  0  0  0  0  0  0  0  0
   36.1592    5.6320   52.1951 C   0  0  2  0  0  0  0  0  0  0  0  0
   37.3707    5.3262   51.2500 C   0  0  2  0  0  0  0  0  0  0  0  0
   37.0922    4.2153   50.2900 N   0  3  0  0  0  0  0  0  0  0  0  0
   38.5959    4.9988   52.1673 C   0  0  1  0  0  0  0  0  0  0  0  0
   38.8930    6.2171   52.9515 O   0  0  0  0  0  0  0  0  0  0  0  0
   38.3042    3.8119   53.1662 C   0  0  2  0  0  0  0  0  0  0  0  0
   38.0723    2.6177   52.4015 O   0  0  0  0  0  0  0  0  0  0  0  0
   37.0426    4.2030   54.0422 C   0  0  1  0  0  0  0  0  0  0  0  0
   35.9334    4.4797   53.1222 O   0  0  0  0  0  0  0  0  0  0  0  0
   36.6146    3.1279   55.0669 C   0  0  0  0  0  0  0  0  0  0  0  0
   37.6780    2.7935   56.0528 N   0  3  0  0  0  0  0  0  0  0  0  0
  1  2  1  1  0  0  0
  1  3  1  0  0  0  0
  1 10  1  0  0  0  0
  3  4  1  1  0  0  0
  3  5  1  0  0  0  0
  5  6  1  6  0  0  0
  5  7  1  0  0  0  0
  7  8  1  1  0  0  0
  7  9  1  0  0  0  0
  9 10  1  0  0  0  0
  9 11  1  6  0  0  0
 11 12  1  0  0  0  0
 13 14  1  6  0  0  0
 13 15  1  0  0  0  0
 13 21  1  0  0  0  0
 15 16  1  0  0  0  0
 16 17  1  6  0  0  0
 16 18  1  0  0  0  0
 18  2  1  1  0  0  0
 18 19  1  0  0  0  0
 19 20  1  6  0  0  0
 19 21  1  0  0  0  0
 21 22  1  1  0  0  0
 23 20  1  1  0  0  0
 23 24  1  0  0  0  0
 23 29  1  0  0  0  0
 24 25  1  6  0  0  0
 24 26  1  0  0  0  0
 26 27  1  6  0  0  0
 26 28  1  0  0  0  0
 28 29  1  0  0  0  0
 28 30  1  1  0  0  0
 30 31  1  0  0  0  0
 32 27  1  6  0  0  0
 32 33  1  0  0  0  0
 32 40  1  0  0  0  0
 33 34  1  6  0  0  0
 33 35  1  0  0  0  0
 35 36  1  1  0  0  0
 35 37  1  0  0  0  0
 37 38  1  6  0  0  0
 37 39  1  0  0  0  0
 39 40  1  0  0  0  0
 39 41  1  1  0  0  0
 41 42  1  0  0  0  0
M  CHG  5   4   1  14   1  17   1  34   1  42   1
M  END
>  <CHROM.1>
-158.91434768,-98.09113117,71.33328772,-71.12601530,62.67591516,-77.85172743
57.21937339,92.02468071,-124.59157687,-63.39789123,-95.97966091,-169.65952263
170.69079399,75.04637766,169.87788177,8.11871092,-58.50856453,56.30728799
70.87231822,59.62282494,59.53774644,-17.41758323,33.10334892,8.30262225,51.51754893
-2.20363719,-0.18793185,2.52350979

>  <Name>
1j7t

>  <RI>
0

>  <Rbt.Current_Directory>
/home/itssahil/PROJECTS/Mol_Feturizer/New_Systems/rnas/1j7t

>  <Rbt.Executable>
rbdock ($Id: //depot/dev/client3/rdock/2013.1/src/exe/rbdock.cxx#4 $)

>  <Rbt.Library>
libRbt.so (2013.1, Build901 2013/11/27)

>  <Rbt.Parameter_File>
/export/apps/rDock/src/rDock_2013.1_src/data/scripts/dock_solv.prm

>  <Rbt.Receptor>
prm/blind_docking_100.prm

>  <SCORE>
3.28408

>  <SCORE.INTER>
-14.0411

>  <SCORE.INTER.CONST>
1

>  <SCORE.INTER.POLAR>
-3.96729

>  <SCORE.INTER.ROT>
9

>  <SCORE.INTER.SOLV>
32.4278

>  <SCORE.INTER.VDW>
-16.5457

>  <SCORE.INTER.norm>
-0.334312

>  <SCORE.INTRA>
0.296649

>  <SCORE.INTRA.DIHEDRAL>
-15.4042

>  <SCORE.INTRA.DIHEDRAL.0>
46.2143

>  <SCORE.INTRA.POLAR>
-0.876899

>  <SCORE.INTRA.POLAR.0>
-1.76436

>  <SCORE.INTRA.REPUL>
0

>  <SCORE.INTRA.REPUL.0>
0

>  <SCORE.INTRA.SOLV>
5.85166

>  <SCORE.INTRA.SOLV.lig_0>
-148.643

>  <SCORE.INTRA.VDW>
8.05439

>  <SCORE.INTRA.VDW.0>
-4.83512

>  <SCORE.INTRA.norm>
0.00706307

>  <SCORE.RESTR>
17.0285

>  <SCORE.RESTR.CAVITY>
17.0285

>  <SCORE.RESTR.norm>
0.405441

>  <SCORE.SYSTEM>
0

>  <SCORE.SYSTEM.CONST>
0

>  <SCORE.SYSTEM.DIHEDRAL>
0

>  <SCORE.SYSTEM.SOLV>
0

>  <SCORE.SYSTEM.norm>
0

>  <SCORE.heavy>
42

>  <SCORE.norm>
0.0781924

>  <RMSD>
8.272

$$$$
1j7t
 OpenBabel11021811393D
libRbt.so/2013.1/901 2013/11/27
 42 45  0  0  0  0  0  0  0  0999 V2000
   28.7025    7.6260   60.1186 C   0  0  2  0  0  0  0  0  0  0  0  0
   29.9981    7.0259   60.3714 O   0  0  0  0  0  0  0  0  0  0  0  0
   28.9128    9.1673   60.1094 C   0  0  2  0  0  0  0  0  0  0  0  0
   29.9805    9.6404   59.1821 N   0  3  0  0  0  0  0  0  0  0  0  0
   29.2953    9.6070   61.5395 C   0  0  1  0  0  0  0  0  0  0  0  0
   29.4822   10.9931   61.5962 O   0  0  0  0  0  0  0  0  0  0  0  0
   28.2030    9.1627   62.5411 C   0  0  2  0  0  0  0  0  0  0  0  0
   28.5237    9.5747   63.8551 O   0  0  0  0  0  0  0  0  0  0  0  0
   28.0629    7.6555   62.5136 C   0  0  2  0  0  0  0  0  0  0  0  0
   27.7821    7.2339   61.1850 O   0  0  0  0  0  0  0  0  0  0  0  0
   26.9321    7.1495   63.3809 C   0  0  0  0  0  0  0  0  0  0  0  0
   26.9501    5.7351   63.4012 O   0  0  0  0  0  0  0  0  0  0  0  0
   32.8140    4.3448   58.7189 C   0  0  2  0  0  0  0  0  0  0  0  0
   33.4269    3.3411   57.8481 N   0  3  0  0  0  0  0  0  0  0  0  0
   31.5679    3.7347   59.4423 C   0  0  0  0  0  0  0  0  0  0  0  0
   30.8909    4.8025   60.3227 C   0  0  2  0  0  0  0  0  0  0  0  0
   29.6891    4.2624   60.9669 N   0  3  0  0  0  0  0  0  0  0  0  0
   30.5094    6.0322   59.4754 C   0  0  2  0  0  0  0  0  0  0  0  0
   31.7139    6.6380   58.7288 C   0  0  2  0  0  0  0  0  0  0  0  0
   31.1764    7.6633   57.8714 O   0  0  0  0  0  0  0  0  0  0  0  0
   32.4239    5.5521   57.8810 C   0  0  1  0  0  0  0  0  0  0  0  0
   33.5707    6.1027   57.2940 O   0  0  0  0  0  0  0  0  0  0  0  0
   30.3429    7.3915   56.7478 C   0  0  1  0  0  0  0  0  0  0  0  0
   30.2403    8.6931   55.8752 C   0  0  2  0  0  0  0  0  0  0  0  0
   29.1952    9.5671   56.2662 O   0  0  0  0  0  0  0  0  0  0  0  0
   30.0447    8.0334   54.5174 C   0  0  2  0  0  0  0  0  0  0  0  0
   28.7422    7.3807   54.4322 O   0  0  0  0  0  0  0  0  0  0  0  0
   31.1068    6.9428   54.5196 C   0  0  2  0  0  0  0  0  0  0  0  0
   30.9675    6.4289   55.8553 O   0  0  0  0  0  0  0  0  0  0  0  0
   32.5582    7.4366   54.2111 C   0  0  0  0  0  0  0  0  0  0  0  0
   32.5582    8.5465   53.3045 O   0  0  0  0  0  0  0  0  0  0  0  0
   28.2896    7.1617   53.0985 C   0  0  2  0  0  0  0  0  0  0  0  0
   26.7331    7.1887   52.9227 C   0  0  2  0  0  0  0  0  0  0  0  0
   26.0347    6.1805   53.7767 N   0  3  0  0  0  0  0  0  0  0  0  0
   26.4397    6.9556   51.4030 C   0  0  1  0  0  0  0  0  0  0  0  0
   27.0270    8.0947   50.6647 O   0  0  0  0  0  0  0  0  0  0  0  0
   27.0780    5.6175   50.8614 C   0  0  2  0  0  0  0  0  0  0  0  0
   26.4636    4.5105   51.5409 O   0  0  0  0  0  0  0  0  0  0  0  0
   28.6400    5.6744   51.1238 C   0  0  1  0  0  0  0  0  0  0  0  0
   28.8400    5.8776   52.5632 O   0  0  0  0  0  0  0  0  0  0  0  0
   29.4144    4.4192   50.6615 C   0  0  0  0  0  0  0  0  0  0  0  0
   28.5537    3.2145   50.5118 N   0  3  0  0  0  0  0  0  0  0  0  0
  1  2  1  1  0  0  0
  1  3  1  0  0  0  0
  1 10  1  0  0  0  0
  3  4  1  6  0  0  0
  3  5  1  0  0  0  0
  5  6  1  6  0  0  0
  5  7  1  0  0  0  0
  7  8  1  1  0  0  0
  7  9  1  0  0  0  0
  9 10  1  0  0  0  0
  9 11  1  1  0  0  0
 11 12  1  0  0  0  0
 13 14  1  6  0  0  0
 13 15  1  0  0  0  0
 13 21  1  0  0  0  0
 15 16  1  0  0  0  0
 16 17  1  6  0  0  0
 16 18  1  0  0  0  0
 18  2  1  1  0  0  0
 18 19  1  0  0  0  0
 19 20  1  6  0  0  0
 19 21  1  0  0  0  0
 21 22  1  1  0  0  0
 23 20  1  1  0  0  0
 23 24  1  0  0  0  0
 23 29  1  0  0  0  0
 24 25  1  1  0  0  0
 24 26  1  0  0  0  0
 26 27  1  1  0  0  0
 26 28  1  0  0  0  0
 28 29  1  0  0  0  0
 28 30  1  1  0  0  0
 30 31  1  0  0  0  0
 32 27  1  1  0  0  0
 32 33  1  0  0  0  0
 32 40  1  0  0  0  0
 33 34  1  1  0  0  0
 33 35  1  0  0  0  0
 35 36  1  6  0  0  0
 35 37  1  0  0  0  0
 37 38  1  1  0  0  0
 37 39  1  0  0  0  0
 39 40  1  0  0  0  0
 39 41  1  1  0  0  0
 41 42  1  0  0  0  0
M  CHG  5   4   1  14   1  17   1  34   1  42   1
M  END
>  <CHROM.1>
-126.26429964,-127.05132255,138.62509909,-163.83446778,65.06946348,-174.42770679
-62.77722918,71.43001502,-65.38455673,-67.81422998,-166.68681157,69.46708004
-24.38568202,158.98263428,-149.56939841,-32.45629783,146.70331384,60.09066602
166.60936100,135.61237782,-20.69359055,-58.41178017,29.51141183,6.85835268
56.97558313,1.48242152,-0.51726655,1.36321247

>  <Name>
1j7t

>  <RI>
0

>  <Rbt.Current_Directory>
/home/itssahil/PROJECTS/Mol_Feturizer/New_Systems/rnas/1j7t

>  <Rbt.Executable>
rbdock ($Id: //depot/dev/client3/rdock/2013.1/src/exe/rbdock.cxx#4 $)

>  <Rbt.Library>
libRbt.so (2013.1, Build901 2013/11/27)

>  <Rbt.Parameter_File>
/export/apps/rDock/src/rDock_2013.1_src/data/scripts/dock_solv.prm

>  <Rbt.Receptor>
prm/pocket_docking_5.prm

>  <SCORE>
-39.4388

>  <SCORE.INTER>
-42.837

>  <SCORE.INTER.CONST>
1

>  <SCORE.INTER.POLAR>
-6.65456

>  <SCORE.INTER.ROT>
9

>  <SCORE.INTER.SOLV>
23.3498

>  <SCORE.INTER.VDW>
-23.7594

>  <SCORE.INTER.norm>
-1.01993

>  <SCORE.INTRA>
3.23082

>  <SCORE.INTRA.DIHEDRAL>
1.78542

>  <SCORE.INTRA.DIHEDRAL.0>
46.2143

>  <SCORE.INTRA.POLAR>
0.0385516

>  <SCORE.INTRA.POLAR.0>
-1.76436

>  <SCORE.INTRA.REPUL>
0

>  <SCORE.INTRA.REPUL.0>
0

>  <SCORE.INTRA.SOLV>
4.69583

>  <SCORE.INTRA.SOLV.lig_0>
-148.643

>  <SCORE.INTRA.VDW>
-0.140885

>  <SCORE.INTRA.VDW.0>
-4.83512

>  <SCORE.INTRA.norm>
0.0769243

>  <SCORE.RESTR>
0.167374

>  <SCORE.RESTR.CAVITY>
0.167374

>  <SCORE.RESTR.norm>
0.00398511

>  <SCORE.SYSTEM>
0

>  <SCORE.SYSTEM.CONST>
0

>  <SCORE.SYSTEM.DIHEDRAL>
0

>  <SCORE.SYSTEM.SOLV>
0

>  <SCORE.SYSTEM.norm>
0

>  <SCORE.heavy>
42

>  <SCORE.norm>
-0.939018

>  <RMSD>
8.277

$$$$
1j7t
 OpenBabel11021811393D
libRbt.so/2013.1/901 2013/11/27
 42 45  0  0  0  0  0  0  0  0999 V2000
   28.3561    8.9952   60.9241 C   0  0  2  0  0  0  0  0  0  0  0  0
   28.0988    7.6136   61.2809 O   0  0  0  0  0  0  0  0  0  0  0  0
   27.7351    9.8747   62.0470 C   0  0  2  0  0  0  0  0  0  0  0  0
   28.1797    9.5221   63.4260 N   0  3  0  0  0  0  0  0  0  0  0  0
   26.2002    9.7155   61.9864 C   0  0  1  0  0  0  0  0  0  0  0  0
   25.5837   10.5003   62.9680 O   0  0  0  0  0  0  0  0  0  0  0  0
   25.6825   10.0965   60.5792 C   0  0  2  0  0  0  0  0  0  0  0  0
   24.2753    9.9781   60.5085 O   0  0  0  0  0  0  0  0  0  0  0  0
   26.3095    9.1929   59.5388 C   0  0  2  0  0  0  0  0  0  0  0  0
   27.7257    9.2774   59.6352 O   0  0  0  0  0  0  0  0  0  0  0  0
   25.9442    9.5771   58.1225 C   0  0  0  0  0  0  0  0  0  0  0  0
   24.5702    9.3209   57.9041 O   0  0  0  0  0  0  0  0  0  0  0  0
   30.4016    4.2063   60.3135 C   0  0  2  0  0  0  0  0  0  0  0  0
   30.9954    3.1041   59.5560 N   0  3  0  0  0  0  0  0  0  0  0  0
   28.8466    4.0407   60.3668 C   0  0  0  0  0  0  0  0  0  0  0  0
   28.2133    5.2251   61.1216 C   0  0  2  0  0  0  0  0  0  0  0  0
   26.7509    5.1138   61.1347 N   0  3  0  0  0  0  0  0  0  0  0  0
   28.6197    6.5586   60.4641 C   0  0  2  0  0  0  0  0  0  0  0  0
   30.1479    6.7363   60.3733 C   0  0  2  0  0  0  0  0  0  0  0  0
   30.3645    7.9358   59.6054 O   0  0  0  0  0  0  0  0  0  0  0  0
   30.7900    5.5214   59.6566 C   0  0  1  0  0  0  0  0  0  0  0  0
   32.1842    5.6587   59.6764 O   0  0  0  0  0  0  0  0  0  0  0  0
   30.5710    7.9401   58.1953 C   0  0  1  0  0  0  0  0  0  0  0  0
   29.2046    7.6231   57.4892 C   0  0  2  0  0  0  0  0  0  0  0  0
   28.9566    6.2390   57.3109 O   0  0  0  0  0  0  0  0  0  0  0  0
   29.4368    8.3999   56.2007 C   0  0  2  0  0  0  0  0  0  0  0  0
   30.4726    7.7717   55.3870 O   0  0  0  0  0  0  0  0  0  0  0  0
   29.9885    9.7260   56.7049 C   0  0  2  0  0  0  0  0  0  0  0  0
   30.9010    9.2738   57.7201 O   0  0  0  0  0  0  0  0  0  0  0  0
   28.9140   10.7187   57.2579 C   0  0  0  0  0  0  0  0  0  0  0  0
   29.5123   11.7788   58.0143 O   0  0  0  0  0  0  0  0  0  0  0  0
   29.9669    6.9525   54.3359 C   0  0  2  0  0  0  0  0  0  0  0  0
   31.0566    6.3954   53.3581 C   0  0  2  0  0  0  0  0  0  0  0  0
   31.8568    7.4751   52.7044 N   0  3  0  0  0  0  0  0  0  0  0  0
   30.3146    5.5108   52.3013 C   0  0  1  0  0  0  0  0  0  0  0  0
   29.7002    4.3806   53.0312 O   0  0  0  0  0  0  0  0  0  0  0  0
   29.1789    6.3004   51.5411 C   0  0  2  0  0  0  0  0  0  0  0  0
   29.7865    7.3626   50.7879 O   0  0  0  0  0  0  0  0  0  0  0  0
   28.1569    6.8542   52.6186 C   0  0  1  0  0  0  0  0  0  0  0  0
   28.9150    7.6833   53.5627 O   0  0  0  0  0  0  0  0  0  0  0  0
   26.9848    7.6722   52.0305 C   0  0  0  0  0  0  0  0  0  0  0  0
   26.0750    6.8681   51.1701 N   0  3  0  0  0  0  0  0  0  0  0  0
  1  2  1  1  0  0  0
  1  3  1  0  0  0  0
  1 10  1  0  0  0  0
  3  4  1  1  0  0  0
  3  5  1  0  0  0  0
  5  6  1  1  0  0  0
  5  7  1  0  0  0  0
  7  8  1  1  0  0  0
  7  9  1  0  0  0  0
  9 10  1  0  0  0  0
  9 11  1  6  0  0  0
 11 12  1  0  0  0  0
 13 14  1  6  0  0  0
 13 15  1  0  0  0  0
 13 21  1  0  0  0  0
 15 16  1  0  0  0  0
 16 17  1  6  0  0  0
 16 18  1  0  0  0  0
 18  2  1  1  0  0  0
 18 19  1  0  0  0  0
 19 20  1  6  0  0  0
 19 21  1  0  0  0  0
 21 22  1  1  0  0  0
 23 20  1  1  0  0  0
 23 24  1  0  0  0  0
 23 29  1  0  0  0  0
 24 25  1  6  0  0  0
 24 26  1  0  0  0  0
 26 27  1  6  0  0  0
 26 28  1  0  0  0  0
 28 29  1  0  0  0  0
 28 30  1  1  0  0  0
 30 31  1  0  0  0  0
 32 27  1  1  0  0  0
 32 33  1  0  0  0  0
 32 40  1  0  0  0  0
 33 34  1  6  0  0  0
 33 35  1  0  0  0  0
 35 36  1  1  0  0  0
 35 37  1  0  0  0  0
 37 38  1  1  0  0  0
 37 39  1  0  0  0  0
 39 40  1  0  0  0  0
 39 41  1  6  0  0  0
 41 42  1  0  0  0  0
M  CHG  5   4   1  14   1  17   1  34   1  42   1
M  END
>  <CHROM.1>
-176.64266864,178.43712707,-71.59380726,54.78867621,-32.72846792,-68.44397127
-61.48244328,-171.09884287,64.56839361,-93.56481076,72.72860538,-54.57871509
75.74023162,98.78192691,173.68454554,165.22260105,62.27241250,47.28483840
178.62443882,68.19039149,65.00093987,168.77991396,28.69510147,7.63871749
57.67705498,1.91647378,-0.83955377,1.62457335

>  <Name>
1j7t

>  <RI>
0

>  <Rbt.Current_Directory>
/home/itssahil/PROJECTS/Mol_Feturizer/New_Systems/rnas/1j7t

>  <Rbt.Executable>
rbdock ($Id: //depot/dev/client3/rdock/2013.1/src/exe/rbdock.cxx#4 $)

>  <Rbt.Library>
libRbt.so (2013.1, Build901 2013/11/27)

>  <Rbt.Parameter_File>
/export/apps/rDock/src/rDock_2013.1_src/data/scripts/dock_solv.prm

>  <Rbt.Receptor>
prm/pocket_docking_6.prm

>  <SCORE>
-48.4496

>  <SCORE.INTER>
-35.2332

>  <SCORE.INTER.CONST>
1

>  <SCORE.INTER.POLAR>
-6.22604

>  <SCORE.INTER.ROT>
9

>  <SCORE.INTER.SOLV>
22.1785

>  <SCORE.INTER.VDW>
-19.7282

>  <SCORE.INTER.norm>
-0.838886

>  <SCORE.INTRA>
-13.2164

>  <SCORE.INTRA.DIHEDRAL>
-28.1126

>  <SCORE.INTRA.DIHEDRAL.0>
46.2143

>  <SCORE.INTRA.POLAR>
1.18074

>  <SCORE.INTRA.POLAR.0>
-1.76436

>  <SCORE.INTRA.REPUL>
0

>  <SCORE.INTRA.REPUL.0>
0

>  <SCORE.INTRA.SOLV>
-5.12441

>  <SCORE.INTRA.SOLV.lig_0>
-148.643

>  <SCORE.INTRA.VDW>
-0.6124

>  <SCORE.INTRA.VDW.0>
-4.83512

>  <SCORE.INTRA.norm>
-0.314676

>  <SCORE.RESTR>
0

>  <SCORE.RESTR.CAVITY>
0

>  <SCORE.RESTR.norm>
0

>  <SCORE.SYSTEM>
0

>  <SCORE.SYSTEM.CONST>
0

>  <SCORE.SYSTEM.DIHEDRAL>
0

>  <SCORE.SYSTEM.SOLV>
0

>  <SCORE.SYSTEM.norm>
0

>  <SCORE.heavy>
42

>  <SCORE.norm>
-1.15356

>  <RMSD>
8.279

$$$$
1j7t
 OpenBabel11021811393D
libRbt.so/2013.1/901 2013/11/27
 42 45  0  0  0  0  0  0  0  0999 V2000
   27.6217    9.6739   58.7931 C   0  0  2  0  0  0  0  0  0  0  0  0
   28.2553    9.2131   57.5730 O   0  0  0  0  0  0  0  0  0  0  0  0
   28.1189   11.1272   59.0391 C   0  0  2  0  0  0  0  0  0  0  0  0
   27.9292   12.0499   57.8832 N   0  3  0  0  0  0  0  0  0  0  0  0
   29.6287   11.0691   59.3589 C   0  0  1  0  0  0  0  0  0  0  0  0
   30.1302   12.3524   59.6064 O   0  0  0  0  0  0  0  0  0  0  0  0
   29.8786   10.1426   60.5725 C   0  0  2  0  0  0  0  0  0  0  0  0
   31.2541   10.0922   60.8958 O   0  0  0  0  0  0  0  0  0  0  0  0
   29.3904    8.7440   60.2604 C   0  0  2  0  0  0  0  0  0  0  0  0
   28.0176    8.7963   59.8937 O   0  0  0  0  0  0  0  0  0  0  0  0
   29.4920    7.8037   61.4405 C   0  0  0  0  0  0  0  0  0  0  0  0
   30.7941    7.2533   61.4939 O   0  0  0  0  0  0  0  0  0  0  0  0
   25.0188    6.9827   56.0241 C   0  0  2  0  0  0  0  0  0  0  0  0
   24.2499    6.0275   55.2256 N   0  3  0  0  0  0  0  0  0  0  0  0
   25.6776    8.0513   55.0900 C   0  0  0  0  0  0  0  0  0  0  0  0
   26.5279    9.0302   55.9220 C   0  0  2  0  0  0  0  0  0  0  0  0
   27.1964   10.0071   55.0560 N   0  3  0  0  0  0  0  0  0  0  0  0
   27.5852    8.2613   56.7384 C   0  0  2  0  0  0  0  0  0  0  0  0
   26.9661    7.1822   57.6481 C   0  0  2  0  0  0  0  0  0  0  0  0
   28.0735    6.4566   58.2160 O   0  0  0  0  0  0  0  0  0  0  0  0
   26.0718    6.2263   56.8184 C   0  0  1  0  0  0  0  0  0  0  0  0
   25.4427    5.3190   57.6811 O   0  0  0  0  0  0  0  0  0  0  0  0
   29.0670    5.7995   57.4335 C   0  0  1  0  0  0  0  0  0  0  0  0
   29.8937    4.8491   58.3711 C   0  0  2  0  0  0  0  0  0  0  0  0
   30.9987    5.4778   58.9978 O   0  0  0  0  0  0  0  0  0  0  0  0
   30.2628    3.7902   57.3417 C   0  0  2  0  0  0  0  0  0  0  0  0
   31.2056    4.3167   56.3600 O   0  0  0  0  0  0  0  0  0  0  0  0
   28.9418    3.5451   56.6261 C   0  0  2  0  0  0  0  0  0  0  0  0
   28.4596    4.8913   56.4745 O   0  0  0  0  0  0  0  0  0  0  0  0
   27.9365    2.6269   57.3955 C   0  0  0  0  0  0  0  0  0  0  0  0
   28.5308    1.3719   57.7502 O   0  0  0  0  0  0  0  0  0  0  0  0
   32.0802    3.3342   55.8112 C   0  0  2  0  0  0  0  0  0  0  0  0
   32.7437    2.3856   56.8667 C   0  0  2  0  0  0  0  0  0  0  0  0
   33.5334    3.1257   57.8973 N   0  3  0  0  0  0  0  0  0  0  0  0
   33.6382    1.3740   56.0752 C   0  0  1  0  0  0  0  0  0  0  0  0
   32.7392    0.5784   55.2114 O   0  0  0  0  0  0  0  0  0  0  0  0
   34.7078    2.0949   55.1656 C   0  0  2  0  0  0  0  0  0  0  0  0
   35.6136    2.8206   56.0128 O   0  0  0  0  0  0  0  0  0  0  0  0
   33.9390    3.0565   54.1674 C   0  0  1  0  0  0  0  0  0  0  0  0
   33.1373    3.9832   54.9746 O   0  0  0  0  0  0  0  0  0  0  0  0
   34.8550    3.8549   53.2121 C   0  0  0  0  0  0  0  0  0  0  0  0
   34.1257    4.4721   52.0712 N   0  3  0  0  0  0  0  0  0  0  0  0
  1  2  1  6  0  0  0
  1  3  1  0  0  0  0
  1 10  1  0  0  0  0
  3  4  1  6  0  0  0
  3  5  1  0  0  0  0
  5  6  1  1  0  0  0
  5  7  1  0  0  0  0
  7  8  1  6  0  0  0
  7  9  1  0  0  0  0
  9 10  1  0  0  0  0
  9 11  1  1  0  0  0
 11 12  1  0  0  0  0
 13 14  1  6  0  0  0
 13 15  1  0  0  0  0
 13 21  1  0  0  0  0
 15 16  1  0  0  0  0
 16 17  1  6  0  0  0
 16 18  1  0  0  0  0
 18  2  1  1  0  0  0
 18 19  1  0  0  0  0
 19 20  1  6  0  0  0
 19 21  1  0  0  0  0
 21 22  1  1  0  0  0
 23 20  1  1  0  0  0
 23 24  1  0  0  0  0
 23 29  1  0  0  0  0
 24 25  1  6  0  0  0
 24 26  1  0  0  0  0
 26 27  1  6  0  0  0
 26 28  1  0  0  0  0
 28 29  1  0  0  0  0
 28 30  1  1  0  0  0
 30 31  1  0  0  0  0
 32 27  1  1  0  0  0
 32 33  1  0  0  0  0
 32 40  1  0  0  0  0
 33 34  1  1  0  0  0
 33 35  1  0  0  0  0
 35 36  1  6  0  0  0
 35 37  1  0  0  0  0
 37 38  1  1  0  0  0
 37 39  1  0  0  0  0
 39 40  1  0  0  0  0
 39 41  1  1  0  0  0
 41 42  1  0  0  0  0
M  CHG  5   4   1  14   1  17   1  34   1  42   1
M  END
>  <CHROM.1>
-149.88028887,78.80997802,55.36121914,178.79279021,-121.05545664,-84.99542055
176.63967869,-35.06317762,-63.84423581,-57.23616985,-166.65394144,59.88729633
63.90911487,150.55627234,-46.80604445,-54.39450688,80.78515323,145.56024121
-176.01130392,82.91070057,165.22041262,-40.15445106,29.78735942,6.18208065
57.27592733,-2.20929894,0.21768344,-2.57498838

>  <Name>
1j7t

>  <RI>
224

>  <Rbt.Current_Directory>
/home/itssahil/PROJECTS/Mol_Feturizer/New_Systems/rnas/1j7t

>  <Rbt.Executable>
rbdock ($Id: //depot/dev/client3/rdock/2013.1/src/exe/rbdock.cxx#4 $)

>  <Rbt.Library>
libRbt.so (2013.1, Build901 2013/11/27)

>  <Rbt.Parameter_File>
/export/apps/rDock/src/rDock_2013.1_src/data/scripts/dock_solv.prm

>  <Rbt.Receptor>
prm/pocket_docking_7.prm

>  <SCORE>
-40.2852

>  <SCORE.INTER>
-30.8669

>  <SCORE.INTER.CONST>
1

>  <SCORE.INTER.POLAR>
-6.40187

>  <SCORE.INTER.ROT>
9

>  <SCORE.INTER.SOLV>
25.9725

>  <SCORE.INTER.VDW>
-17.4958

>  <SCORE.INTER.norm>
-0.734926

>  <SCORE.INTRA>
-9.41836

>  <SCORE.INTRA.DIHEDRAL>
-16.3171

>  <SCORE.INTRA.DIHEDRAL.0>
46.2143

>  <SCORE.INTRA.POLAR>
-0.467454

>  <SCORE.INTRA.POLAR.0>
-1.76436

>  <SCORE.INTRA.REPUL>
0.0093198

>  <SCORE.INTRA.REPUL.0>
0

>  <SCORE.INTRA.SOLV>
-0.86458

>  <SCORE.INTRA.SOLV.lig_0>
-148.643

>  <SCORE.INTRA.VDW>
0.715234

>  <SCORE.INTRA.VDW.0>
-4.83512

>  <SCORE.INTRA.norm>
-0.224247

>  <SCORE.RESTR>
0

>  <SCORE.RESTR.CAVITY>
0

>  <SCORE.RESTR.norm>
0

>  <SCORE.SYSTEM>
0

>  <SCORE.SYSTEM.CONST>
0

>  <SCORE.SYSTEM.DIHEDRAL>
0

>  <SCORE.SYSTEM.SOLV>
0

>  <SCORE.SYSTEM.norm>
0

>  <SCORE.heavy>
42

>  <SCORE.norm>
-0.959172

>  <RMSD>
8.291

$$$$
1j7t
 OpenBabel11021811393D
libRbt.so/2013.1/901 2013/11/27
 42 45  0  0  0  0  0  0  0  0999 V2000
   29.1960    8.9226   59.8263 C   0  0  2  0  0  0  0  0  0  0  0  0
   27.8462    8.5490   60.2014 O   0  0  0  0  0  0  0  0  0  0  0  0
   29.4393   10.3549   60.3828 C   0  0  2  0  0  0  0  0  0  0  0  0
   29.1610   10.5079   61.8398 N   0  3  0  0  0  0  0  0  0  0  0  0
   28.5174   11.3290   59.6173 C   0  0  1  0  0  0  0  0  0  0  0  0
   28.7051   12.6415   60.0662 O   0  0  0  0  0  0  0  0  0  0  0  0
   28.7858   11.2293   58.0969 C   0  0  2  0  0  0  0  0  0  0  0  0
   27.9662   12.1297   57.3782 O   0  0  0  0  0  0  0  0  0  0  0  0
   28.5128    9.8192   57.6183 C   0  0  2  0  0  0  0  0  0  0  0  0
   29.3046    8.9068   58.3683 O   0  0  0  0  0  0  0  0  0  0  0  0
   28.8644    9.6089   56.1625 C   0  0  0  0  0  0  0  0  0  0  0  0
   30.2694    9.5153   56.0258 O   0  0  0  0  0  0  0  0  0  0  0  0
   26.4728    4.7109   61.3111 C   0  0  2  0  0  0  0  0  0  0  0  0
   26.0217    3.3215   61.2245 N   0  3  0  0  0  0  0  0  0  0  0  0
   25.4790    5.6438   60.5427 C   0  0  0  0  0  0  0  0  0  0  0  0
   25.9764    7.1012   60.5901 C   0  0  2  0  0  0  0  0  0  0  0  0
   25.0845    7.9821   59.8286 N   0  3  0  0  0  0  0  0  0  0  0  0
   27.4041    7.1990   60.0177 C   0  0  2  0  0  0  0  0  0  0  0  0
   28.3996    6.2692   60.7385 C   0  0  2  0  0  0  0  0  0  0  0  0
   29.6327    6.3554   59.9985 O   0  0  0  0  0  0  0  0  0  0  0  0
   27.8755    4.8107   60.7330 C   0  0  1  0  0  0  0  0  0  0  0  0
   28.7459    4.0055   61.4793 O   0  0  0  0  0  0  0  0  0  0  0  0
   29.7265    6.1170   58.5965 C   0  0  1  0  0  0  0  0  0  0  0  0
   31.2279    6.2715   58.1628 C   0  0  2  0  0  0  0  0  0  0  0  0
   31.5953    7.5977   57.8234 O   0  0  0  0  0  0  0  0  0  0  0  0
   31.2222    5.2936   56.9963 C   0  0  2  0  0  0  0  0  0  0  0  0
   30.4220    5.8025   55.8870 O   0  0  0  0  0  0  0  0  0  0  0  0
   30.4938    4.0882   57.5742 C   0  0  2  0  0  0  0  0  0  0  0  0
   29.4194    4.7316   58.2810 O   0  0  0  0  0  0  0  0  0  0  0  0
   31.3632    3.1748   58.4993 C   0  0  0  0  0  0  0  0  0  0  0  0
   32.6316    2.8731   57.9041 O   0  0  0  0  0  0  0  0  0  0  0  0
   31.1515    6.6150   54.9709 C   0  0  2  0  0  0  0  0  0  0  0  0
   30.3171    7.1394   53.7531 C   0  0  2  0  0  0  0  0  0  0  0  0
   29.7089    6.0369   52.9481 N   0  3  0  0  0  0  0  0  0  0  0  0
   31.2766    8.0212   52.8862 C   0  0  1  0  0  0  0  0  0  0  0  0
   31.6858    9.1721   53.7202 O   0  0  0  0  0  0  0  0  0  0  0  0
   32.5704    7.2402   52.4306 C   0  0  2  0  0  0  0  0  0  0  0  0
   32.1726    6.1572   51.5743 O   0  0  0  0  0  0  0  0  0  0  0  0
   33.3152    6.7195   53.7291 C   0  0  1  0  0  0  0  0  0  0  0  0
   32.3661    5.8912   54.4817 O   0  0  0  0  0  0  0  0  0  0  0  0
   34.6040    5.9132   53.4498 C   0  0  0  0  0  0  0  0  0  0  0  0
   35.2658    5.4092   54.6838 N   0  3  0  0  0  0  0  0  0  0  0  0
  1  2  1  6  0  0  0
  1  3  1  0  0  0  0
  1 10  1  0  0  0  0
  3  4  1  1  0  0  0
  3  5  1  0  0  0  0
  5  6  1  1  0  0  0
  5  7  1  0  0  0  0
  7  8  1  6  0  0  0
  7  9  1  0  0  0  0
  9 10  1  0  0  0  0
  9 11  1  6  0  0  0
 11 12  1  0  0  0  0
 13 14  1  6  0  0  0
 13 15  1  0  0  0  0
 13 21  1  0  0  0  0
 15 16  1  0  0  0  0
 16 17  1  6  0  0  0
 16 18  1  0  0  0  0
 18  2  1  1  0  0  0
 18 19  1  0  0  0  0
 19 20  1  6  0  0  0
 19 21  1  0  0  0  0
 21 22  1  1  0  0  0
 23 20  1  1  0  0  0
 23 24  1  0  0  0  0
 23 29  1  0  0  0  0
 24 25  1  6  0  0  0
 24 26  1  0  0  0  0
 26 27  1  6  0  0  0
 26 28  1  0  0  0  0
 28 29  1  0  0  0  0
 28 30  1  1  0  0  0
 30 31  1  0  0  0  0
 32 27  1  6  0  0  0
 32 33  1  0  0  0  0
 32 40  1  0  0  0  0
 33 34  1  6  0  0  0
 33 35  1  0  0  0  0
 35 36  1  1  0  0  0
 35 37  1  0  0  0  0
 37 38  1  6  0  0  0
 37 39  1  0  0  0  0
 39 40  1  0  0  0  0
 39 41  1  6  0  0  0
 41 42  1  0  0  0  0
M  CHG  5   4   1  14   1  17   1  34   1  42   1
M  END
>  <CHROM.1>
-169.92618646,176.36964266,141.88294953,65.27358955,-58.00534117,75.47694817
-178.66032587,-49.02008206,-174.95675519,-54.17794685,-178.66867031,-73.20306428
-47.10784464,88.50397202,178.47487080,-47.46158061,165.19845639,46.62782504
97.65830235,-178.89340400,-178.64484484,-177.78184152,29.78508379,7.17424131
57.61671887,3.05849186,-0.93369468,2.85329016

>  <Name>
1j7t

>  <RI>
0

>  <Rbt.Current_Directory>
/home/itssahil/PROJECTS/Mol_Feturizer/New_Systems/rnas/1j7t

>  <Rbt.Executable>
rbdock ($Id: //depot/dev/client3/rdock/2013.1/src/exe/rbdock.cxx#4 $)

>  <Rbt.Library>
libRbt.so (2013.1, Build901 2013/11/27)

>  <Rbt.Parameter_File>
/export/apps/rDock/src/rDock_2013.1_src/data/scripts/dock_solv.prm

>  <Rbt.Receptor>
prm/pocket_docking_6.prm

>  <SCORE>
-58.7804

>  <SCORE.INTER>
-38.1554

>  <SCORE.INTER.CONST>
1

>  <SCORE.INTER.POLAR>
-7.40834

>  <SCORE.INTER.ROT>
9

>  <SCORE.INTER.SOLV>
16.8623

>  <SCORE.INTER.VDW>
-15.9632

>  <SCORE.INTER.norm>
-0.908461

>  <SCORE.INTRA>
-20.6251

>  <SCORE.INTRA.DIHEDRAL>
-29.1439

>  <SCORE.INTRA.DIHEDRAL.0>
46.2143

>  <SCORE.INTRA.POLAR>
-1.22029

>  <SCORE.INTRA.POLAR.0>
-1.76436

>  <SCORE.INTRA.REPUL>
0

>  <SCORE.INTRA.REPUL.0>
0

>  <SCORE.INTRA.SOLV>
-3.81316

>  <SCORE.INTRA.SOLV.lig_0>
-148.643

>  <SCORE.INTRA.VDW>
0.00240799

>  <SCORE.INTRA.VDW.0>
-4.83512

>  <SCORE.INTRA.norm>
-0.491073

>  <SCORE.RESTR>
0

>  <SCORE.RESTR.CAVITY>
0

>  <SCORE.RESTR.norm>
0

>  <SCORE.SYSTEM>
0

>  <SCORE.SYSTEM.CONST>
0

>  <SCORE.SYSTEM.DIHEDRAL>
0

>  <SCORE.SYSTEM.SOLV>
0

>  <SCORE.SYSTEM.norm>
0

>  <SCORE.heavy>
42

>  <SCORE.norm>
-1.39953

>  <RMSD>
8.371

$$$$
1j7t
 OpenBabel11021811393D
libRbt.so/2013.1/901 2013/11/27
 42 45  0  0  0  0  0  0  0  0999 V2000
   27.7010    7.1467   61.2937 C   0  0  2  0  0  0  0  0  0  0  0  0
   27.6005    6.9928   59.8554 O   0  0  0  0  0  0  0  0  0  0  0  0
   26.7125    8.2782   61.6969 C   0  0  2  0  0  0  0  0  0  0  0  0
   25.3155    8.0801   61.2144 N   0  3  0  0  0  0  0  0  0  0  0  0
   27.2366    9.6052   61.1059 C   0  0  1  0  0  0  0  0  0  0  0  0
   26.3920   10.6667   61.4513 O   0  0  0  0  0  0  0  0  0  0  0  0
   28.6784    9.8728   61.5990 C   0  0  2  0  0  0  0  0  0  0  0  0
   29.1699   11.0952   61.0859 O   0  0  0  0  0  0  0  0  0  0  0  0
   29.5896    8.7470   61.1580 C   0  0  2  0  0  0  0  0  0  0  0  0
   29.0749    7.5110   61.6368 O   0  0  0  0  0  0  0  0  0  0  0  0
   30.9952    8.8750   61.7012 C   0  0  0  0  0  0  0  0  0  0  0  0
   31.6567    7.6290   61.5951 O   0  0  0  0  0  0  0  0  0  0  0  0
   30.4501    3.9018   59.4385 C   0  0  2  0  0  0  0  0  0  0  0  0
   31.2716    2.8443   58.8485 N   0  3  0  0  0  0  0  0  0  0  0  0
   28.9372    3.5107   59.3570 C   0  0  0  0  0  0  0  0  0  0  0  0
   28.0655    4.6431   59.9328 C   0  0  2  0  0  0  0  0  0  0  0  0
   26.6406    4.3162   59.8153 N   0  3  0  0  0  0  0  0  0  0  0  0
   28.3501    5.9663   59.1952 C   0  0  2  0  0  0  0  0  0  0  0  0
   29.8390    6.3623   59.2358 C   0  0  2  0  0  0  0  0  0  0  0  0
   29.9675    7.5164   58.3832 O   0  0  0  0  0  0  0  0  0  0  0  0
   30.7194    5.2042   58.7015 C   0  0  1  0  0  0  0  0  0  0  0  0
   32.0700    5.5492   58.8426 O   0  0  0  0  0  0  0  0  0  0  0  0
   29.2578    7.6710   57.1570 C   0  0  1  0  0  0  0  0  0  0  0  0
   29.6189    9.0708   56.5437 C   0  0  2  0  0  0  0  0  0  0  0  0
   28.7916   10.1285   56.9974 O   0  0  0  0  0  0  0  0  0  0  0  0
   29.4512    8.7169   55.0726 C   0  0  2  0  0  0  0  0  0  0  0  0
   28.0494    8.4769   54.7456 O   0  0  0  0  0  0  0  0  0  0  0  0
   30.1836    7.3869   54.9633 C   0  0  2  0  0  0  0  0  0  0  0  0
   29.7305    6.7268   56.1578 O   0  0  0  0  0  0  0  0  0  0  0  0
   31.7419    7.4975   54.8889 C   0  0  0  0  0  0  0  0  0  0  0  0
   32.1705    8.1259   53.6743 O   0  0  0  0  0  0  0  0  0  0  0  0
   27.8011    8.2992   53.3534 C   0  0  2  0  0  0  0  0  0  0  0  0
   27.4722    6.8272   52.9298 C   0  0  2  0  0  0  0  0  0  0  0  0
   28.5549    5.8631   53.2922 N   0  3  0  0  0  0  0  0  0  0  0  0
   27.2098    6.8424   51.3868 C   0  0  1  0  0  0  0  0  0  0  0  0
   26.0185    7.6875   51.1542 O   0  0  0  0  0  0  0  0  0  0  0  0
   28.4222    7.4406   50.5724 C   0  0  2  0  0  0  0  0  0  0  0  0
   29.5621    6.5851   50.7554 O   0  0  0  0  0  0  0  0  0  0  0  0
   28.6976    8.9082   51.1040 C   0  0  1  0  0  0  0  0  0  0  0  0
   28.9500    8.8163   52.5466 O   0  0  0  0  0  0  0  0  0  0  0  0
   29.8766    9.6303   50.4130 C   0  0  0  0  0  0  0  0  0  0  0  0
   29.5298   10.1837   49.0758 N   0  3  0  0  0  0  0  0  0  0  0  0
  1  2  1  6  0  0  0
  1  3  1  0  0  0  0
  1 10  1  0  0  0  0
  3  4  1  6  0  0  0
  3  5  1  0  0  0  0
  5  6  1  1  0  0  0
  5  7  1  0  0  0  0
  7  8  1  6  0  0  0
  7  9  1  0  0  0  0
  9 10  1  0  0  0  0
  9 11  1  1  0  0  0
 11 12  1  0  0  0  0
 13 14  1  6  0  0  0
 13 15  1  0  0  0  0
 13 21  1  0  0  0  0
 15 16  1  0  0  0  0
 16 17  1  6  0  0  0
 16 18  1  0  0  0  0
 18  2  1  1  0  0  0
 18 19  1  0  0  0  0
 19 20  1  6  0  0  0
 19 21  1  0  0  0  0
 21 22  1  1  0  0  0
 23 20  1  1  0  0  0
 23 24  1  0  0  0  0
 23 29  1  0  0  0  0
 24 25  1  1  0  0  0
 24 26  1  0  0  0  0
 26 27  1  1  0  0  0
 26 28  1  0  0  0  0
 28 29  1  0  0  0  0
 28 30  1  1  0  0  0
 30 31  1  0  0  0  0
 32 27  1  1  0  0  0
 32 33  1  0  0  0  0
 32 40  1  0  0  0  0
 33 34  1  6  0  0  0
 33 35  1  0  0  0  0
 35 36  1  1  0  0  0
 35 37  1  0  0  0  0
 37 38  1  1  0  0  0
 37 39  1  0  0  0  0
 39 40  1  0  0  0  0
 39 41  1  6  0  0  0
 41 42  1  0  0  0  0
M  CHG  5   4   1  14   1  17   1  34   1  42   1
M  END
>  <CHROM.1>
-176.74961975,51.21516839,-65.91823028,-169.49294236,-53.41630119,162.56892723
-44.53304565,82.23073268,57.03595084,-38.38153454,177.98573105,70.61830586
-51.82745307,172.82952063,107.30064607,-66.66762355,70.57286705,-56.19723899
-50.52333303,177.10253703,78.76272172,-129.39143961,28.99358508,7.51431945
56.97609038,1.61305528,-1.11882602,1.67809329

>  <Name>
1j7t

>  <RI>
0

>  <Rbt.Current_Directory>
/home/itssahil/PROJECTS/Mol_Feturizer/New_Systems/rnas/1j7t

>  <Rbt.Executable>
rbdock ($Id: //depot/dev/client3/rdock/2013.1/src/exe/rbdock.cxx#4 $)

>  <Rbt.Library>
libRbt.so (2013.1, Build901 2013/11/27)

>  <Rbt.Parameter_File>
/export/apps/rDock/src/rDock_2013.1_src/data/scripts/dock_solv.prm

>  <Rbt.Receptor>
prm/pocket_docking_5.prm

>  <SCORE>
-47.9404

>  <SCORE.INTER>
-38.6936

>  <SCORE.INTER.CONST>
1

>  <SCORE.INTER.POLAR>
-5.59165

>  <SCORE.INTER.ROT>
9

>  <SCORE.INTER.SOLV>
22.3732

>  <SCORE.INTER.VDW>
-24.2146

>  <SCORE.INTER.norm>
-0.921275

>  <SCORE.INTRA>
-9.36432

>  <SCORE.INTRA.DIHEDRAL>
-25.6904

>  <SCORE.INTRA.DIHEDRAL.0>
46.2143

>  <SCORE.INTRA.POLAR>
0.778968

>  <SCORE.INTRA.POLAR.0>
-1.76436

>  <SCORE.INTRA.REPUL>
0.0508348

>  <SCORE.INTRA.REPUL.0>
0

>  <SCORE.INTRA.SOLV>
-1.38565

>  <SCORE.INTRA.SOLV.lig_0>
-148.643

>  <SCORE.INTRA.VDW>
1.27102

>  <SCORE.INTRA.VDW.0>
-4.83512

>  <SCORE.INTRA.norm>
-0.22296

>  <SCORE.RESTR>
0.117496

>  <SCORE.RESTR.CAVITY>
0.117496

>  <SCORE.RESTR.norm>
0.00279753

>  <SCORE.SYSTEM>
0

>  <SCORE.SYSTEM.CONST>
0

>  <SCORE.SYSTEM.DIHEDRAL>
0

>  <SCORE.SYSTEM.SOLV>
0

>  <SCORE.SYSTEM.norm>
0

>  <SCORE.heavy>
42

>  <SCORE.norm>
-1.14144

>  <RMSD>
8.375

$$$$
1j7t
 OpenBabel11021811393D
libRbt.so/2013.1/901 2013/11/27
 42 45  0  0  0  0  0  0  0  0999 V2000
   30.8825    8.3797   59.2037 C   0  0  2  0  0  0  0  0  0  0  0  0
   29.7975    7.5463   59.6842 O   0  0  0  0  0  0  0  0  0  0  0  0
   31.0123    9.5695   60.1975 C   0  0  2  0  0  0  0  0  0  0  0  0
   31.1558    9.1688   61.6266 N   0  3  0  0  0  0  0  0  0  0  0  0
   29.7421   10.4389   60.0722 C   0  0  1  0  0  0  0  0  0  0  0  0
   29.8100   11.5388   60.9354 O   0  0  0  0  0  0  0  0  0  0  0  0
   29.5607   10.9052   58.6082 C   0  0  2  0  0  0  0  0  0  0  0  0
   28.4138   11.7214   58.4755 O   0  0  0  0  0  0  0  0  0  0  0  0
   29.4220    9.7025   57.6992 C   0  0  2  0  0  0  0  0  0  0  0  0
   30.5544    8.8579   57.8614 O   0  0  0  0  0  0  0  0  0  0  0  0
   29.3582   10.0713   56.2339 C   0  0  0  0  0  0  0  0  0  0  0  0
   29.2802    8.8934   55.4544 O   0  0  0  0  0  0  0  0  0  0  0  0
   28.4748    3.5715   59.1372 C   0  0  2  0  0  0  0  0  0  0  0  0
   28.0993    2.3117   58.4943 N   0  3  0  0  0  0  0  0  0  0  0  0
   27.5382    4.7232   58.6425 C   0  0  0  0  0  0  0  0  0  0  0  0
   27.9612    6.0607   59.2797 C   0  0  2  0  0  0  0  0  0  0  0  0
   27.1272    7.1612   58.7854 N   0  3  0  0  0  0  0  0  0  0  0  0
   29.4408    6.3588   58.9673 C   0  0  2  0  0  0  0  0  0  0  0  0
   30.3845    5.2274   59.4193 C   0  0  2  0  0  0  0  0  0  0  0  0
   31.6913    5.5767   58.9235 O   0  0  0  0  0  0  0  0  0  0  0  0
   29.9301    3.8737   58.8170 C   0  0  1  0  0  0  0  0  0  0  0  0
   30.7412    2.8491   59.3222 O   0  0  0  0  0  0  0  0  0  0  0  0
   32.0508    5.5182   57.5456 C   0  0  1  0  0  0  0  0  0  0  0  0
   33.6157    5.5878   57.4342 C   0  0  2  0  0  0  0  0  0  0  0  0
   34.1300    6.9071   57.3714 O   0  0  0  0  0  0  0  0  0  0  0  0
   33.7820    4.7776   56.1562 C   0  0  2  0  0  0  0  0  0  0  0  0
   33.2577    5.5013   55.0025 O   0  0  0  0  0  0  0  0  0  0  0  0
   32.8747    3.5798   56.3995 C   0  0  2  0  0  0  0  0  0  0  0  0
   31.7240    4.2215   56.9756 O   0  0  0  0  0  0  0  0  0  0  0  0
   33.4775    2.4748   57.3277 C   0  0  0  0  0  0  0  0  0  0  0  0
   34.4777    1.7030   56.6510 O   0  0  0  0  0  0  0  0  0  0  0  0
   33.5782    4.9038   53.7487 C   0  0  2  0  0  0  0  0  0  0  0  0
   33.1868    5.7600   52.4965 C   0  0  2  0  0  0  0  0  0  0  0  0
   31.7291    6.0861   52.4487 N   0  3  0  0  0  0  0  0  0  0  0  0
   33.6366    4.9544   51.2321 C   0  0  1  0  0  0  0  0  0  0  0  0
   35.1096    4.8343   51.2915 O   0  0  0  0  0  0  0  0  0  0  0  0
   33.0117    3.5058   51.1832 C   0  0  2  0  0  0  0  0  0  0  0  0
   31.5846    3.6275   51.0681 O   0  0  0  0  0  0  0  0  0  0  0  0
   33.4315    2.7424   52.5073 C   0  0  1  0  0  0  0  0  0  0  0  0
   32.9662    3.5425   53.6460 O   0  0  0  0  0  0  0  0  0  0  0  0
   32.8794    1.3032   52.6206 C   0  0  0  0  0  0  0  0  0  0  0  0
   33.5577    0.3362   51.7154 N   0  3  0  0  0  0  0  0  0  0  0  0
  1  2  1  1  0  0  0
  1  3  1  0  0  0  0
  1 10  1  0  0  0  0
  3  4  1  1  0  0  0
  3  5  1  0  0  0  0
  5  6  1  1  0  0  0
  5  7  1  0  0  0  0
  7  8  1  1  0  0  0
  7  9  1  0  0  0  0
  9 10  1  0  0  0  0
  9 11  1  6  0  0  0
 11 12  1  0  0  0  0
 13 14  1  6  0  0  0
 13 15  1  0  0  0  0
 13 21  1  0  0  0  0
 15 16  1  0  0  0  0
 16 17  1  6  0  0  0
 16 18  1  0  0  0  0
 18  2  1  1  0  0  0
 18 19  1  0  0  0  0
 19 20  1  6  0  0  0
 19 21  1  0  0  0  0
 21 22  1  1  0  0  0
 23 20  1  1  0  0  0
 23 24  1  0  0  0  0
 23 29  1  0  0  0  0
 24 25  1  6  0  0  0
 24 26  1  0  0  0  0
 26 27  1  6  0  0  0
 26 28  1  0  0  0  0
 28 29  1  0  0  0  0
 28 30  1  1  0  0  0
 30 31  1  0  0  0  0
 32 27  1  1  0  0  0
 32 33  1  0  0  0  0
 32 40  1  0  0  0  0
 33 34  1  6  0  0  0
 33 35  1  0  0  0  0
 35 36  1  1  0  0  0
 35 37  1  0  0  0  0
 37 38  1  1  0  0  0
 37 39  1  0  0  0  0
 39 40  1  0  0  0  0
 39 41  1  6  0  0  0
 41 42  1  0  0  0  0
M  CHG  5   4   1  14   1  17   1  34   1  42   1
M  END
>  <CHROM.1>
-179.84765260,-154.63784222,44.65908114,-51.25991272,-58.17341041,177.81287242
-58.11668042,-166.37232804,-178.13320356,-71.71814414,-164.92040441,62.60219123
170.33350692,170.12675361,-172.43017322,-74.64895612,-61.92324832,165.19522101
-86.05977853,178.44739867,73.31925212,-61.76469102,31.29185277,5.85772807
56.66706115,-2.69522960,-1.10627337,2.90890079

>  <Name>
1j7t

>  <RI>
0

>  <Rbt.Current_Directory>
/home/itssahil/PROJECTS/Mol_Feturizer/New_Systems/rnas/1j7t

>  <Rbt.Executable>
rbdock ($Id: //depot/dev/client3/rdock/2013.1/src/exe/rbdock.cxx#4 $)

>  <Rbt.Library>
libRbt.so (2013.1, Build901 2013/11/27)

>  <Rbt.Parameter_File>
/export/apps/rDock/src/rDock_2013.1_src/data/scripts/dock_solv.prm

>  <Rbt.Receptor>
prm/pocket_docking_8.prm

>  <SCORE>
-45.5407

>  <SCORE.INTER>
-29.6405

>  <SCORE.INTER.CONST>
1

>  <SCORE.INTER.POLAR>
-5.72502

>  <SCORE.INTER.ROT>
9

>  <SCORE.INTER.SOLV>
20.6595

>  <SCORE.INTER.VDW>
-17.1634

>  <SCORE.INTER.norm>
-0.705727

>  <SCORE.INTRA>
-15.9001

>  <SCORE.INTRA.DIHEDRAL>
-33.667

>  <SCORE.INTRA.DIHEDRAL.0>
46.2143

>  <SCORE.INTRA.POLAR>
0.924611

>  <SCORE.INTRA.POLAR.0>
-1.76436

>  <SCORE.INTRA.REPUL>
0.0922053

>  <SCORE.INTRA.REPUL.0>
0

>  <SCORE.INTRA.SOLV>
-4.7508

>  <SCORE.INTRA.SOLV.lig_0>
-148.643

>  <SCORE.INTRA.VDW>
-0.295952

>  <SCORE.INTRA.VDW.0>
-4.83512

>  <SCORE.INTRA.norm>
-0.378575

>  <SCORE.RESTR>
0

>  <SCORE.RESTR.CAVITY>
0

>  <SCORE.RESTR.norm>
0

>  <SCORE.SYSTEM>
0

>  <SCORE.SYSTEM.CONST>
0

>  <SCORE.SYSTEM.DIHEDRAL>
0

>  <SCORE.SYSTEM.SOLV>
0

>  <SCORE.SYSTEM.norm>
0

>  <SCORE.heavy>
42

>  <SCORE.norm>
-1.0843

>  <RMSD>
8.384

$$$$
1j7t
 OpenBabel11021811393D
libRbt.so/2013.1/901 2013/11/27
 42 45  0  0  0  0  0  0  0  0999 V2000
   34.0197   12.5879   47.0599 C   0  0  2  0  0  0  0  0  0  0  0  0
   33.3619   11.3504   47.4320 O   0  0  0  0  0  0  0  0  0  0  0  0
   35.2954   12.7043   47.9426 C   0  0  2  0  0  0  0  0  0  0  0  0
   36.1922   11.5139   47.8935 N   0  3  0  0  0  0  0  0  0  0  0  0
   34.8479   12.9031   49.4072 C   0  0  1  0  0  0  0  0  0  0  0  0
   35.9587   13.0309   50.2494 O   0  0  0  0  0  0  0  0  0  0  0  0
   33.9335   14.1461   49.5185 C   0  0  2  0  0  0  0  0  0  0  0  0
   33.5294   14.3588   50.8566 O   0  0  0  0  0  0  0  0  0  0  0  0
   32.7055   13.9599   48.6527 C   0  0  2  0  0  0  0  0  0  0  0  0
   33.1093   13.7036   47.3135 O   0  0  0  0  0  0  0  0  0  0  0  0
   31.8163   15.1825   48.6147 C   0  0  0  0  0  0  0  0  0  0  0  0
   32.5631   16.2946   48.1599 O   0  0  0  0  0  0  0  0  0  0  0  0
   29.4550   12.9179   47.7881 C   0  0  2  0  0  0  0  0  0  0  0  0
   28.0146   13.0087   48.0300 N   0  3  0  0  0  0  0  0  0  0  0  0
   29.7368   11.9313   46.6068 C   0  0  0  0  0  0  0  0  0  0  0  0
   31.2547   11.7952   46.3808 C   0  0  2  0  0  0  0  0  0  0  0  0
   31.5390   10.8324   45.3117 N   0  3  0  0  0  0  0  0  0  0  0  0
   31.9510   11.3403   47.6785 C   0  0  2  0  0  0  0  0  0  0  0  0
   31.6680   12.2798   48.8670 C   0  0  2  0  0  0  0  0  0  0  0  0
   32.2470   11.6447   50.0233 O   0  0  0  0  0  0  0  0  0  0  0  0
   30.1407   12.4548   49.0637 C   0  0  1  0  0  0  0  0  0  0  0  0
   29.9114   13.3892   50.0821 O   0  0  0  0  0  0  0  0  0  0  0  0
   32.1974   10.2396   50.2560 C   0  0  1  0  0  0  0  0  0  0  0  0
   32.0680    9.9933   51.8015 C   0  0  2  0  0  0  0  0  0  0  0  0
   33.3109    9.9234   52.4791 O   0  0  0  0  0  0  0  0  0  0  0  0
   31.2947    8.6830   51.7520 C   0  0  2  0  0  0  0  0  0  0  0  0
   32.1257    7.6009   51.2341 O   0  0  0  0  0  0  0  0  0  0  0  0
   30.2158    8.9706   50.7174 C   0  0  2  0  0  0  0  0  0  0  0  0
   30.9777    9.6635   49.7138 O   0  0  0  0  0  0  0  0  0  0  0  0
   29.0059    9.8103   51.2436 C   0  0  0  0  0  0  0  0  0  0  0  0
   27.8840    9.7365   50.3549 O   0  0  0  0  0  0  0  0  0  0  0  0
   33.2661    7.3100   52.0380 C   0  0  2  0  0  0  0  0  0  0  0  0
   34.2656    6.2809   51.4085 C   0  0  2  0  0  0  0  0  0  0  0  0
   33.6251    4.9680   51.0930 N   0  3  0  0  0  0  0  0  0  0  0  0
   35.4488    6.1143   52.4194 C   0  0  1  0  0  0  0  0  0  0  0  0
   36.1178    7.4287   52.5300 O   0  0  0  0  0  0  0  0  0  0  0  0
   34.9616    5.6715   53.8539 C   0  0  2  0  0  0  0  0  0  0  0  0
   34.3634    4.3690   53.7515 O   0  0  0  0  0  0  0  0  0  0  0  0
   33.9290    6.7527   54.3799 C   0  0  1  0  0  0  0  0  0  0  0  0
   32.8443    6.8444   53.3959 O   0  0  0  0  0  0  0  0  0  0  0  0
   33.3414    6.4522   55.7776 C   0  0  0  0  0  0  0  0  0  0  0  0
   34.3791    6.2019   56.8145 N   0  3  0  0  0  0  0  0  0  0  0  0
  1  2  1  1  0  0  0
  1  3  1  0  0  0  0
  1 10  1  0  0  0  0
  3  4  1  1  0  0  0
  3  5  1  0  0  0  0
  5  6  1  1  0  0  0
  5  7  1  0  0  0  0
  7  8  1  1  0  0  0
  7  9  1  0  0  0  0
  9 10  1  0  0  0  0
  9 11  1  6  0  0  0
 11 12  1  0  0  0  0
 13 14  1  1  0  0  0
 13 15  1  0  0  0  0
 13 21  1  0  0  0  0
 15 16  1  0  0  0  0
 16 17  1  6  0  0  0
 16 18  1  0  0  0  0
 18  2  1  6  0  0  0
 18 19  1  0  0  0  0
 19 20  1  1  0  0  0
 19 21  1  0  0  0  0
 21 22  1  1  0  0  0
 23 20  1  1  0  0  0
 23 24  1  0  0  0  0
 23 29  1  0  0  0  0
 24 25  1  6  0  0  0
 24 26  1  0  0  0  0
 26 27  1  6  0  0  0
 26 28  1  0  0  0  0
 28 29  1  0  0  0  0
 28 30  1  1  0  0  0
 30 31  1  0  0  0  0
 32 27  1  6  0  0  0
 32 33  1  0  0  0  0
 32 40  1  0  0  0  0
 33 34  1  1  0  0  0
 33 35  1  0  0  0  0
 35 36  1  1  0  0  0
 35 37  1  0  0  0  0
 37 38  1  6  0  0  0
 37 39  1  0  0  0  0
 39 40  1  0  0  0  0
 39 41  1  1  0  0  0
 41 42  1  0  0  0  0
M  CHG  5   4   1  14   1  17   1  34   1  42   1
M  END
>  <CHROM.1>
133.00856710,60.24188212,66.86331943,68.20066429,-179.79864198,57.07059785
-173.77544056,-121.55990320,-117.51132226,-39.19620150,-145.33729261,-162.71270401
-171.67258873,62.32782173,-172.57501704,-164.20424460,67.84468508,173.06549168
178.03844936,-174.20559160,52.94953644,60.27077180,32.60100519,10.38184873
50.26196740,-1.80626557,0.15841714,2.50644300

>  <Name>
1j7t

>  <RI>
0

>  <Rbt.Current_Directory>
/home/itssahil/PROJECTS/Mol_Feturizer/New_Systems/rnas/1j7t

>  <Rbt.Executable>
rbdock ($Id: //depot/dev/client3/rdock/2013.1/src/exe/rbdock.cxx#4 $)

>  <Rbt.Library>
libRbt.so (2013.1, Build901 2013/11/27)

>  <Rbt.Parameter_File>
/export/apps/rDock/src/rDock_2013.1_src/data/scripts/dock_solv.prm

>  <Rbt.Receptor>
prm/blind_docking_80.prm

>  <SCORE>
73.0278

>  <SCORE.INTER>
42.4051

>  <SCORE.INTER.CONST>
1

>  <SCORE.INTER.POLAR>
-4.35947

>  <SCORE.INTER.ROT>
9

>  <SCORE.INTER.SOLV>
52.2888

>  <SCORE.INTER.VDW>
15.772

>  <SCORE.INTER.norm>
1.00965

>  <SCORE.INTRA>
13.1325

>  <SCORE.INTRA.DIHEDRAL>
-21.4266

>  <SCORE.INTRA.DIHEDRAL.0>
46.2143

>  <SCORE.INTRA.POLAR>
1.05125

>  <SCORE.INTRA.POLAR.0>
-1.76436

>  <SCORE.INTRA.REPUL>
0.0779657

>  <SCORE.INTRA.REPUL.0>
0

>  <SCORE.INTRA.SOLV>
-2.47452

>  <SCORE.INTRA.SOLV.lig_0>
-148.643

>  <SCORE.INTRA.VDW>
21.1189

>  <SCORE.INTRA.VDW.0>
-4.83512

>  <SCORE.INTRA.norm>
0.312678

>  <SCORE.RESTR>
17.4902

>  <SCORE.RESTR.CAVITY>
17.4902

>  <SCORE.RESTR.norm>
0.416433

>  <SCORE.SYSTEM>
0

>  <SCORE.SYSTEM.CONST>
0

>  <SCORE.SYSTEM.DIHEDRAL>
0

>  <SCORE.SYSTEM.SOLV>
0

>  <SCORE.SYSTEM.norm>
0

>  <SCORE.heavy>
42

>  <SCORE.norm>
1.73876

>  <RMSD>
8.399

$$$$
1j7t
 OpenBabel11021811393D
libRbt.so/2013.1/901 2013/11/27
 42 45  0  0  0  0  0  0  0  0999 V2000
   25.7580    6.0275   57.6264 C   0  0  2  0  0  0  0  0  0  0  0  0
   26.7069    5.6445   58.6537 O   0  0  0  0  0  0  0  0  0  0  0  0
   24.3514    6.0342   58.2907 C   0  0  2  0  0  0  0  0  0  0  0  0
   24.2559    6.8600   59.5286 N   0  3  0  0  0  0  0  0  0  0  0  0
   23.9893    4.5791   58.6601 C   0  0  1  0  0  0  0  0  0  0  0  0
   22.7210    4.5208   59.2497 O   0  0  0  0  0  0  0  0  0  0  0  0
   24.0469    3.6820   57.4010 C   0  0  2  0  0  0  0  0  0  0  0  0
   23.6974    2.3481   57.7135 O   0  0  0  0  0  0  0  0  0  0  0  0
   25.4434    3.7054   56.8168 C   0  0  2  0  0  0  0  0  0  0  0  0
   25.8147    5.0500   56.5404 O   0  0  0  0  0  0  0  0  0  0  0  0
   25.5538    2.9450   55.5143 C   0  0  0  0  0  0  0  0  0  0  0  0
   24.5995    3.4421   54.5959 O   0  0  0  0  0  0  0  0  0  0  0  0
   30.6291    6.8248   59.6887 C   0  0  2  0  0  0  0  0  0  0  0  0
   32.0576    7.1265   59.5893 N   0  3  0  0  0  0  0  0  0  0  0  0
   30.3817    5.3088   59.3907 C   0  0  0  0  0  0  0  0  0  0  0  0
   28.8739    4.9971   59.4463 C   0  0  2  0  0  0  0  0  0  0  0  0
   28.6190    3.5910   59.1163 N   0  3  0  0  0  0  0  0  0  0  0  0
   28.1032    5.9016   58.4646 C   0  0  2  0  0  0  0  0  0  0  0  0
   28.3503    7.4016   58.7177 C   0  0  2  0  0  0  0  0  0  0  0  0
   27.6992    8.1001   57.6390 O   0  0  0  0  0  0  0  0  0  0  0  0
   29.8698    7.7063   58.7099 C   0  0  1  0  0  0  0  0  0  0  0  0
   30.0716    9.0526   59.0412 O   0  0  0  0  0  0  0  0  0  0  0  0
   28.3903    8.6079   56.5007 C   0  0  1  0  0  0  0  0  0  0  0  0
   28.9804    7.3972   55.6932 C   0  0  2  0  0  0  0  0  0  0  0  0
   30.2685    6.9916   56.1236 O   0  0  0  0  0  0  0  0  0  0  0  0
   28.9391    8.0178   54.3038 C   0  0  2  0  0  0  0  0  0  0  0  0
   29.9091    9.1014   54.1824 O   0  0  0  0  0  0  0  0  0  0  0  0
   27.5491    8.6366   54.2554 C   0  0  2  0  0  0  0  0  0  0  0  0
   27.4678    9.2278   55.5637 O   0  0  0  0  0  0  0  0  0  0  0  0
   26.3881    7.6267   53.9762 C   0  0  0  0  0  0  0  0  0  0  0  0
   26.8360    6.2681   54.0632 O   0  0  0  0  0  0  0  0  0  0  0  0
   31.0814    8.7510   53.4514 C   0  0  2  0  0  0  0  0  0  0  0  0
   30.8931    8.7012   51.8969 C   0  0  2  0  0  0  0  0  0  0  0  0
   29.8278    7.7433   51.4715 N   0  3  0  0  0  0  0  0  0  0  0  0
   32.2817    8.3271   51.2791 C   0  0  1  0  0  0  0  0  0  0  0  0
   33.2188    9.4208   51.6154 O   0  0  0  0  0  0  0  0  0  0  0  0
   32.8553    6.9737   51.8540 C   0  0  2  0  0  0  0  0  0  0  0  0
   31.9714    5.9057   51.4762 O   0  0  0  0  0  0  0  0  0  0  0  0
   32.9672    7.1145   53.4287 C   0  0  1  0  0  0  0  0  0  0  0  0
   31.6326    7.4484   53.9392 O   0  0  0  0  0  0  0  0  0  0  0  0
   33.5015    5.8559   54.1492 C   0  0  0  0  0  0  0  0  0  0  0  0
   33.6261    6.0254   55.6224 N   0  3  0  0  0  0  0  0  0  0  0  0
  1  2  1  1  0  0  0
  1  3  1  0  0  0  0
  1 10  1  0  0  0  0
  3  4  1  1  0  0  0
  3  5  1  0  0  0  0
  5  6  1  6  0  0  0
  5  7  1  0  0  0  0
  7  8  1  1  0  0  0
  7  9  1  0  0  0  0
  9 10  1  0  0  0  0
  9 11  1  6  0  0  0
 11 12  1  0  0  0  0
 13 14  1  6  0  0  0
 13 15  1  0  0  0  0
 13 21  1  0  0  0  0
 15 16  1  0  0  0  0
 16 17  1  6  0  0  0
 16 18  1  0  0  0  0
 18  2  1  1  0  0  0
 18 19  1  0  0  0  0
 19 20  1  6  0  0  0
 19 21  1  0  0  0  0
 21 22  1  1  0  0  0
 23 20  1  1  0  0  0
 23 24  1  0  0  0  0
 23 29  1  0  0  0  0
 24 25  1  1  0  0  0
 24 26  1  0  0  0  0
 26 27  1  1  0  0  0
 26 28  1  0  0  0  0
 28 29  1  0  0  0  0
 28 30  1  1  0  0  0
 30 31  1  0  0  0  0
 32 27  1  1  0  0  0
 32 33  1  0  0  0  0
 32 40  1  0  0  0  0
 33 34  1  1  0  0  0
 33 35  1  0  0  0  0
 35 36  1  1  0  0  0
 35 37  1  0  0  0  0
 37 38  1  1  0  0  0
 37 39  1  0  0  0  0
 39 40  1  0  0  0  0
 39 41  1  1  0  0  0
 41 42  1  0  0  0  0
M  CHG  5   4   1  14   1  17   1  34   1  42   1
M  END
>  <CHROM.1>
-162.70008247,-161.46130919,55.06271451,-62.72716166,66.27349643,55.05057458
-61.17648923,-58.19134850,62.55429245,-100.12353250,65.00738083,-175.61066192
-165.64521185,103.49940363,76.70327278,10.74473406,86.44510434,-58.69748979
62.19544610,60.80238190,178.67998478,-57.52660343,28.56631739,6.52693772
56.08086192,2.52632532,0.36869830,1.64413646

>  <Name>
1j7t

>  <RI>
0

>  <Rbt.Current_Directory>
/home/itssahil/PROJECTS/Mol_Feturizer/New_Systems/rnas/1j7t

>  <Rbt.Executable>
rbdock ($Id: //depot/dev/client3/rdock/2013.1/src/exe/rbdock.cxx#4 $)

>  <Rbt.Library>
libRbt.so (2013.1, Build901 2013/11/27)

>  <Rbt.Parameter_File>
/export/apps/rDock/src/rDock_2013.1_src/data/scripts/dock_solv.prm

>  <Rbt.Receptor>
prm/pocket_docking_2.prm

>  <SCORE>
-14.0172

>  <SCORE.INTER>
-9.0555

>  <SCORE.INTER.CONST>
1

>  <SCORE.INTER.POLAR>
-1.69172

>  <SCORE.INTER.ROT>
9

>  <SCORE.INTER.SOLV>
17.1602

>  <SCORE.INTER.VDW>
-15.718

>  <SCORE.INTER.norm>
-0.215607

>  <SCORE.INTRA>
-9.3521

>  <SCORE.INTRA.DIHEDRAL>
-20.9341

>  <SCORE.INTRA.DIHEDRAL.0>
46.2143

>  <SCORE.INTRA.POLAR>
0.175097

>  <SCORE.INTRA.POLAR.0>
-1.76436

>  <SCORE.INTRA.REPUL>
0

>  <SCORE.INTRA.REPUL.0>
0

>  <SCORE.INTRA.SOLV>
2.34323

>  <SCORE.INTRA.SOLV.lig_0>
-148.643

>  <SCORE.INTRA.VDW>
-0.651984

>  <SCORE.INTRA.VDW.0>
-4.83512

>  <SCORE.INTRA.norm>
-0.222669

>  <SCORE.RESTR>
4.39044

>  <SCORE.RESTR.CAVITY>
4.39044

>  <SCORE.RESTR.norm>
0.104534

>  <SCORE.SYSTEM>
0

>  <SCORE.SYSTEM.CONST>
0

>  <SCORE.SYSTEM.DIHEDRAL>
0

>  <SCORE.SYSTEM.SOLV>
0

>  <SCORE.SYSTEM.norm>
0

>  <SCORE.heavy>
42

>  <SCORE.norm>
-0.333742

>  <RMSD>
8.441

$$$$
1j7t
 OpenBabel11021811393D
libRbt.so/2013.1/901 2013/11/27
 42 45  0  0  0  0  0  0  0  0999 V2000
   28.4030    4.1437   57.3773 C   0  0  2  0  0  0  0  0  0  0  0  0
   28.6759    5.4448   57.9562 O   0  0  0  0  0  0  0  0  0  0  0  0
   29.4643    3.9135   56.2634 C   0  0  2  0  0  0  0  0  0  0  0  0
   30.8768    4.0832   56.7103 N   0  3  0  0  0  0  0  0  0  0  0  0
   29.1981    4.9292   55.1310 C   0  0  1  0  0  0  0  0  0  0  0  0
   30.1168    4.7580   54.0887 O   0  0  0  0  0  0  0  0  0  0  0  0
   27.7490    4.7763   54.6111 C   0  0  2  0  0  0  0  0  0  0  0  0
   27.4909    5.6836   53.5578 O   0  0  0  0  0  0  0  0  0  0  0  0
   26.7695    5.0310   55.7370 C   0  0  2  0  0  0  0  0  0  0  0  0
   27.0531    4.1484   56.8152 O   0  0  0  0  0  0  0  0  0  0  0  0
   25.3314    4.7858   55.3383 C   0  0  0  0  0  0  0  0  0  0  0  0
   25.1604    3.4213   55.0064 O   0  0  0  0  0  0  0  0  0  0  0  0
   25.7524    5.3432   61.0043 C   0  0  2  0  0  0  0  0  0  0  0  0
   24.9890    5.6863   62.2047 N   0  3  0  0  0  0  0  0  0  0  0  0
   27.2213    4.9706   61.3941 C   0  0  0  0  0  0  0  0  0  0  0  0
   28.0417    4.6561   60.1285 C   0  0  2  0  0  0  0  0  0  0  0  0
   29.4359    4.3569   60.4713 N   0  3  0  0  0  0  0  0  0  0  0  0
   27.9986    5.8480   59.1522 C   0  0  2  0  0  0  0  0  0  0  0  0
   26.5616    6.2549   58.7721 C   0  0  2  0  0  0  0  0  0  0  0  0
   26.6818    7.4613   57.9940 O   0  0  0  0  0  0  0  0  0  0  0  0
   25.7228    6.5242   60.0471 C   0  0  1  0  0  0  0  0  0  0  0  0
   24.3979    6.7929   59.6789 O   0  0  0  0  0  0  0  0  0  0  0  0
   27.3267    7.5170   56.7243 C   0  0  1  0  0  0  0  0  0  0  0  0
   27.0097    8.9057   56.0633 C   0  0  2  0  0  0  0  0  0  0  0  0
   25.8134    8.9217   55.3034 O   0  0  0  0  0  0  0  0  0  0  0  0
   28.2853    9.0575   55.2465 C   0  0  2  0  0  0  0  0  0  0  0  0
   28.3312    8.0875   54.1572 O   0  0  0  0  0  0  0  0  0  0  0  0
   29.3691    8.6787   56.2461 C   0  0  2  0  0  0  0  0  0  0  0  0
   28.7727    7.5305   56.8735 O   0  0  0  0  0  0  0  0  0  0  0  0
   29.7417    9.8005   57.2701 C   0  0  0  0  0  0  0  0  0  0  0  0
   30.7811    9.3789   58.1622 O   0  0  0  0  0  0  0  0  0  0  0  0
   28.9538    8.5760   52.9718 C   0  0  2  0  0  0  0  0  0  0  0  0
   28.0074    8.6717   51.7270 C   0  0  2  0  0  0  0  0  0  0  0  0
   27.3858    7.3608   51.3682 N   0  3  0  0  0  0  0  0  0  0  0  0
   28.8600    9.2450   50.5463 C   0  0  1  0  0  0  0  0  0  0  0  0
   29.2836   10.6079   50.9344 O   0  0  0  0  0  0  0  0  0  0  0  0
   30.1465    8.3792   50.2523 C   0  0  2  0  0  0  0  0  0  0  0  0
   29.7298    7.0735   49.8207 O   0  0  0  0  0  0  0  0  0  0  0  0
   31.0098    8.3114   51.5798 C   0  0  1  0  0  0  0  0  0  0  0  0
   30.1565    7.7524   52.6347 O   0  0  0  0  0  0  0  0  0  0  0  0
   32.3058    7.4778   51.4607 C   0  0  0  0  0  0  0  0  0  0  0  0
   33.3245    7.8171   52.4911 N   0  3  0  0  0  0  0  0  0  0  0  0
  1  2  1  6  0  0  0
  1  3  1  0  0  0  0
  1 10  1  0  0  0  0
  3  4  1  1  0  0  0
  3  5  1  0  0  0  0
  5  6  1  6  0  0  0
  5  7  1  0  0  0  0
  7  8  1  6  0  0  0
  7  9  1  0  0  0  0
  9 10  1  0  0  0  0
  9 11  1  6  0  0  0
 11 12  1  0  0  0  0
 13 14  1  1  0  0  0
 13 15  1  0  0  0  0
 13 21  1  0  0  0  0
 15 16  1  0  0  0  0
 16 17  1  1  0  0  0
 16 18  1  0  0  0  0
 18  2  1  6  0  0  0
 18 19  1  0  0  0  0
 19 20  1  6  0  0  0
 19 21  1  0  0  0  0
 21 22  1  6  0  0  0
 23 20  1  1  0  0  0
 23 24  1  0  0  0  0
 23 29  1  0  0  0  0
 24 25  1  6  0  0  0
 24 26  1  0  0  0  0
 26 27  1  6  0  0  0
 26 28  1  0  0  0  0
 28 29  1  0  0  0  0
 28 30  1  1  0  0  0
 30 31  1  0  0  0  0
 32 27  1  1  0  0  0
 32 33  1  0  0  0  0
 32 40  1  0  0  0  0
 33 34  1  6  0  0  0
 33 35  1  0  0  0  0
 35 36  1  1  0  0  0
 35 37  1  0  0  0  0
 37 38  1  1  0  0  0
 37 39  1  0  0  0  0
 39 40  1  0  0  0  0
 39 41  1  6  0  0  0
 41 42  1  0  0  0  0
M  CHG  5   4   1  14   1  17   1  34   1  42   1
M  END
>  <CHROM.1>
-170.01838749,45.18481340,54.22577039,-65.43955257,-158.16518356,63.34767809
-59.01019571,-176.45418028,-18.48610511,64.55012365,168.76431094,-175.49907842
-162.98362018,145.21054264,-115.98373452,-179.05528185,-141.42118387,-147.25999192
-170.00374126,65.80290586,158.74234990,-81.22384214,28.29158245,6.71329446
55.72562161,-1.94548126,0.32386456,-1.12873694

>  <Name>
1j7t

>  <RI>
0

>  <Rbt.Current_Directory>
/home/itssahil/PROJECTS/Mol_Feturizer/New_Systems/rnas/1j7t

>  <Rbt.Executable>
rbdock ($Id: //depot/dev/client3/rdock/2013.1/src/exe/rbdock.cxx#4 $)

>  <Rbt.Library>
libRbt.so (2013.1, Build901 2013/11/27)

>  <Rbt.Parameter_File>
/export/apps/rDock/src/rDock_2013.1_src/data/scripts/dock_solv.prm

>  <Rbt.Receptor>
prm/pocket_docking_4.prm

>  <SCORE>
-28.6573

>  <SCORE.INTER>
-29.4487

>  <SCORE.INTER.CONST>
1

>  <SCORE.INTER.POLAR>
-5.21057

>  <SCORE.INTER.ROT>
9

>  <SCORE.INTER.SOLV>
19.5797

>  <SCORE.INTER.VDW>
-18.3904

>  <SCORE.INTER.norm>
-0.701159

>  <SCORE.INTRA>
0.791352

>  <SCORE.INTRA.DIHEDRAL>
-15.1211

>  <SCORE.INTRA.DIHEDRAL.0>
46.2143

>  <SCORE.INTRA.POLAR>
1.39681

>  <SCORE.INTRA.POLAR.0>
-1.76436

>  <SCORE.INTRA.REPUL>
0.583157

>  <SCORE.INTRA.REPUL.0>
0

>  <SCORE.INTRA.SOLV>
-0.173694

>  <SCORE.INTRA.SOLV.lig_0>
-148.643

>  <SCORE.INTRA.VDW>
0.77381

>  <SCORE.INTRA.VDW.0>
-4.83512

>  <SCORE.INTRA.norm>
0.0188417

>  <SCORE.RESTR>
0

>  <SCORE.RESTR.CAVITY>
0

>  <SCORE.RESTR.norm>
0

>  <SCORE.SYSTEM>
0

>  <SCORE.SYSTEM.CONST>
0

>  <SCORE.SYSTEM.DIHEDRAL>
0

>  <SCORE.SYSTEM.SOLV>
0

>  <SCORE.SYSTEM.norm>
0

>  <SCORE.heavy>
42

>  <SCORE.norm>
-0.682317

>  <RMSD>
8.445

$$$$
1j7t
 OpenBabel11021811393D
libRbt.so/2013.1/901 2013/11/27
 42 45  0  0  0  0  0  0  0  0999 V2000
   27.2276    7.1520   60.5458 C   0  0  2  0  0  0  0  0  0  0  0  0
   27.3280    5.9885   59.6862 O   0  0  0  0  0  0  0  0  0  0  0  0
   26.0839    6.8661   61.5608 C   0  0  2  0  0  0  0  0  0  0  0  0
   26.2260    5.5832   62.3076 N   0  3  0  0  0  0  0  0  0  0  0  0
   24.7521    6.8176   60.7806 C   0  0  1  0  0  0  0  0  0  0  0  0
   23.6802    6.5784   61.6486 O   0  0  0  0  0  0  0  0  0  0  0  0
   24.5421    8.1408   60.0068 C   0  0  2  0  0  0  0  0  0  0  0  0
   23.3166    8.1257   59.3018 O   0  0  0  0  0  0  0  0  0  0  0  0
   25.6765    8.3480   59.0259 C   0  0  2  0  0  0  0  0  0  0  0  0
   26.9139    8.3215   59.7261 O   0  0  0  0  0  0  0  0  0  0  0  0
   25.6069    9.6794   58.3119 C   0  0  0  0  0  0  0  0  0  0  0  0
   26.1454    9.5451   57.0107 O   0  0  0  0  0  0  0  0  0  0  0  0
   31.3999    4.8793   59.4922 C   0  0  2  0  0  0  0  0  0  0  0  0
   32.7209    4.5424   58.9604 N   0  3  0  0  0  0  0  0  0  0  0  0
   30.3405    3.8456   58.9846 C   0  0  0  0  0  0  0  0  0  0  0  0
   28.9399    4.2247   59.5025 C   0  0  2  0  0  0  0  0  0  0  0  0
   27.9257    3.2964   58.9919 N   0  3  0  0  0  0  0  0  0  0  0  0
   28.5812    5.6614   59.0747 C   0  0  2  0  0  0  0  0  0  0  0  0
   29.6229    6.6983   59.5380 C   0  0  2  0  0  0  0  0  0  0  0  0
   29.2358    7.9484   58.9355 O   0  0  0  0  0  0  0  0  0  0  0  0
   31.0390    6.2910   59.0580 C   0  0  1  0  0  0  0  0  0  0  0  0
   31.9782    7.1926   59.5759 O   0  0  0  0  0  0  0  0  0  0  0  0
   29.7959    8.4429   57.7218 C   0  0  1  0  0  0  0  0  0  0  0  0
   28.6726    8.4624   56.6246 C   0  0  2  0  0  0  0  0  0  0  0  0
   28.5452    7.2451   55.9098 O   0  0  0  0  0  0  0  0  0  0  0  0
   29.1892    9.6338   55.8011 C   0  0  2  0  0  0  0  0  0  0  0  0
   30.4277    9.2868   55.1116 O   0  0  0  0  0  0  0  0  0  0  0  0
   29.5291   10.6669   56.8661 C   0  0  2  0  0  0  0  0  0  0  0  0
   30.1720    9.8411   57.8522 O   0  0  0  0  0  0  0  0  0  0  0  0
   28.3025   11.4487   57.4405 C   0  0  0  0  0  0  0  0  0  0  0  0
   28.7061   12.4420   58.3915 O   0  0  0  0  0  0  0  0  0  0  0  0
   30.2371    8.8112   53.7816 C   0  0  2  0  0  0  0  0  0  0  0  0
   31.1840    7.6347   53.3650 C   0  0  2  0  0  0  0  0  0  0  0  0
   32.6320    7.9844   53.4852 N   0  3  0  0  0  0  0  0  0  0  0  0
   30.8081    7.2419   51.8973 C   0  0  1  0  0  0  0  0  0  0  0  0
   29.4129    6.7517   51.9195 O   0  0  0  0  0  0  0  0  0  0  0  0
   30.9004    8.4629   50.9013 C   0  0  2  0  0  0  0  0  0  0  0  0
   32.2679    8.8997   50.8393 O   0  0  0  0  0  0  0  0  0  0  0  0
   29.9417    9.6074   51.4335 C   0  0  1  0  0  0  0  0  0  0  0  0
   30.3600    9.9348   52.8014 O   0  0  0  0  0  0  0  0  0  0  0  0
   29.9316   10.8892   50.5700 C   0  0  0  0  0  0  0  0  0  0  0  0
   29.4315   10.6667   49.1862 N   0  3  0  0  0  0  0  0  0  0  0  0
  1  2  1  6  0  0  0
  1  3  1  0  0  0  0
  1 10  1  0  0  0  0
  3  4  1  6  0  0  0
  3  5  1  0  0  0  0
  5  6  1  1  0  0  0
  5  7  1  0  0  0  0
  7  8  1  6  0  0  0
  7  9  1  0  0  0  0
  9 10  1  0  0  0  0
  9 11  1  1  0  0  0
 11 12  1  0  0  0  0
 13 14  1  6  0  0  0
 13 15  1  0  0  0  0
 13 21  1  0  0  0  0
 15 16  1  0  0  0  0
 16 17  1  6  0  0  0
 16 18  1  0  0  0  0
 18  2  1  1  0  0  0
 18 19  1  0  0  0  0
 19 20  1  6  0  0  0
 19 21  1  0  0  0  0
 21 22  1  1  0  0  0
 23 20  1  1  0  0  0
 23 24  1  0  0  0  0
 23 29  1  0  0  0  0
 24 25  1  6  0  0  0
 24 26  1  0  0  0  0
 26 27  1  1  0  0  0
 26 28  1  0  0  0  0
 28 29  1  0  0  0  0
 28 30  1  1  0  0  0
 30 31  1  0  0  0  0
 32 27  1  1  0  0  0
 32 33  1  0  0  0  0
 32 40  1  0  0  0  0
 33 34  1  6  0  0  0
 33 35  1  0  0  0  0
 35 36  1  1  0  0  0
 35 37  1  0  0  0  0
 37 38  1  1  0  0  0
 37 39  1  0  0  0  0
 39 40  1  0  0  0  0
 39 41  1  6  0  0  0
 41 42  1  0  0  0  0
M  CHG  5   4   1  14   1  17   1  34   1  42   1
M  END
>  <CHROM.1>
-152.35347593,123.01767341,-63.33073287,-173.55535142,73.50037049,-148.25281006
63.08296794,-179.52844382,-179.55208057,-96.48497121,113.84637555,-172.37912145
-57.38119572,93.77677203,-141.24090504,-177.40269339,-178.87041810,33.22177680
-179.27917392,177.79677467,62.76308328,52.80723941,28.79732385,7.86360183
56.97631357,2.09179624,-0.59094033,2.17552811

>  <Name>
1j7t

>  <RI>
0

>  <Rbt.Current_Directory>
/home/itssahil/PROJECTS/Mol_Feturizer/New_Systems/rnas/1j7t

>  <Rbt.Executable>
rbdock ($Id: //depot/dev/client3/rdock/2013.1/src/exe/rbdock.cxx#4 $)

>  <Rbt.Library>
libRbt.so (2013.1, Build901 2013/11/27)

>  <Rbt.Parameter_File>
/export/apps/rDock/src/rDock_2013.1_src/data/scripts/dock_solv.prm

>  <Rbt.Receptor>
prm/pocket_docking_6.prm

>  <SCORE>
-39.4859

>  <SCORE.INTER>
-37.7454

>  <SCORE.INTER.CONST>
1

>  <SCORE.INTER.POLAR>
-5.54952

>  <SCORE.INTER.ROT>
9

>  <SCORE.INTER.SOLV>
28.7188

>  <SCORE.INTER.VDW>
-25.8382

>  <SCORE.INTER.norm>
-0.898701

>  <SCORE.INTRA>
-1.74046

>  <SCORE.INTRA.DIHEDRAL>
-8.44487

>  <SCORE.INTRA.DIHEDRAL.0>
46.2143

>  <SCORE.INTRA.POLAR>
0.837336

>  <SCORE.INTRA.POLAR.0>
-1.76436

>  <SCORE.INTRA.REPUL>
0

>  <SCORE.INTRA.REPUL.0>
0

>  <SCORE.INTRA.SOLV>
-4.42742

>  <SCORE.INTRA.SOLV.lig_0>
-148.643

>  <SCORE.INTRA.VDW>
1.84874

>  <SCORE.INTRA.VDW.0>
-4.83512

>  <SCORE.INTRA.norm>
-0.0414395

>  <SCORE.RESTR>
0

>  <SCORE.RESTR.CAVITY>
0

>  <SCORE.RESTR.norm>
0

>  <SCORE.SYSTEM>
0

>  <SCORE.SYSTEM.CONST>
0

>  <SCORE.SYSTEM.DIHEDRAL>
0

>  <SCORE.SYSTEM.SOLV>
0

>  <SCORE.SYSTEM.norm>
0

>  <SCORE.heavy>
42

>  <SCORE.norm>
-0.940141

>  <RMSD>
8.452

$$$$
1j7t
 OpenBabel11021811393D
libRbt.so/2013.1/901 2013/11/27
 42 45  0  0  0  0  0  0  0  0999 V2000
   32.7657   12.1474   47.1918 C   0  0  2  0  0  0  0  0  0  0  0  0
   31.6666   11.2973   47.6064 O   0  0  0  0  0  0  0  0  0  0  0  0
   33.9728   11.8056   48.1116 C   0  0  2  0  0  0  0  0  0  0  0  0
   34.3240   10.3572   48.1588 N   0  3  0  0  0  0  0  0  0  0  0  0
   33.6246   12.2580   49.5466 C   0  0  1  0  0  0  0  0  0  0  0  0
   34.6853   11.9893   50.4196 O   0  0  0  0  0  0  0  0  0  0  0  0
   33.2775   13.7656   49.5580 C   0  0  2  0  0  0  0  0  0  0  0  0
   32.9761   14.2055   50.8675 O   0  0  0  0  0  0  0  0  0  0  0  0
   32.0864   14.0256   48.6605 C   0  0  2  0  0  0  0  0  0  0  0  0
   32.3702   13.5459   47.3523 O   0  0  0  0  0  0  0  0  0  0  0  0
   31.7559   15.4951   48.5250 C   0  0  0  0  0  0  0  0  0  0  0  0
   32.5600   16.2432   49.4167 O   0  0  0  0  0  0  0  0  0  0  0  0
   28.2771   13.2545   46.0164 C   0  0  2  0  0  0  0  0  0  0  0  0
   26.9768   13.4812   45.3845 N   0  3  0  0  0  0  0  0  0  0  0  0
   29.2417   12.5412   45.0118 C   0  0  0  0  0  0  0  0  0  0  0  0
   30.5959   12.2567   45.6891 C   0  0  2  0  0  0  0  0  0  0  0  0
   31.4946   11.5398   44.7783 N   0  3  0  0  0  0  0  0  0  0  0  0
   30.3904   11.4219   46.9683 C   0  0  2  0  0  0  0  0  0  0  0  0
   29.4220   12.0882   47.9651 C   0  0  2  0  0  0  0  0  0  0  0  0
   29.2131   11.1288   49.0193 O   0  0  0  0  0  0  0  0  0  0  0  0
   28.0766   12.4184   47.2704 C   0  0  1  0  0  0  0  0  0  0  0  0
   27.2533   13.1122   48.1669 O   0  0  0  0  0  0  0  0  0  0  0  0
   30.2636   10.3670   49.6086 C   0  0  1  0  0  0  0  0  0  0  0  0
   30.4736   10.8629   51.0837 C   0  0  2  0  0  0  0  0  0  0  0  0
   31.3782   11.9476   51.2029 O   0  0  0  0  0  0  0  0  0  0  0  0
   30.9641    9.5549   51.6884 C   0  0  2  0  0  0  0  0  0  0  0  0
   32.2876    9.2050   51.1827 O   0  0  0  0  0  0  0  0  0  0  0  0
   29.9758    8.5388   51.1333 C   0  0  2  0  0  0  0  0  0  0  0  0
   29.8737    8.9755   49.7671 O   0  0  0  0  0  0  0  0  0  0  0  0
   28.5915    8.5016   51.8601 C   0  0  0  0  0  0  0  0  0  0  0  0
   28.6096    9.2656   53.0726 O   0  0  0  0  0  0  0  0  0  0  0  0
   33.1006    8.5055   52.1214 C   0  0  2  0  0  0  0  0  0  0  0  0
   33.9516    7.3407   51.5104 C   0  0  2  0  0  0  0  0  0  0  0  0
   33.1158    6.3092   50.8242 N   0  3  0  0  0  0  0  0  0  0  0  0
   34.7844    6.7191   52.6808 C   0  0  1  0  0  0  0  0  0  0  0  0
   35.6966    7.7728   53.1760 O   0  0  0  0  0  0  0  0  0  0  0  0
   33.8773    6.2312   53.8768 C   0  0  2  0  0  0  0  0  0  0  0  0
   33.0326    5.1685   53.4056 O   0  0  0  0  0  0  0  0  0  0  0  0
   33.0322    7.4690   54.3920 C   0  0  1  0  0  0  0  0  0  0  0  0
   32.2681    7.9887   53.2521 O   0  0  0  0  0  0  0  0  0  0  0  0
   32.0727    7.1491   55.5608 C   0  0  0  0  0  0  0  0  0  0  0  0
   30.7902    7.9012   55.4965 N   0  3  0  0  0  0  0  0  0  0  0  0
  1  2  1  1  0  0  0
  1  3  1  0  0  0  0
  1 10  1  0  0  0  0
  3  4  1  1  0  0  0
  3  5  1  0  0  0  0
  5  6  1  1  0  0  0
  5  7  1  0  0  0  0
  7  8  1  1  0  0  0
  7  9  1  0  0  0  0
  9 10  1  0  0  0  0
  9 11  1  6  0  0  0
 11 12  1  0  0  0  0
 13 14  1  6  0  0  0
 13 15  1  0  0  0  0
 13 21  1  0  0  0  0
 15 16  1  0  0  0  0
 16 17  1  6  0  0  0
 16 18  1  0  0  0  0
 18  2  1  1  0  0  0
 18 19  1  0  0  0  0
 19 20  1  1  0  0  0
 19 21  1  0  0  0  0
 21 22  1  1  0  0  0
 23 20  1  1  0  0  0
 23 24  1  0  0  0  0
 23 29  1  0  0  0  0
 24 25  1  6  0  0  0
 24 26  1  0  0  0  0
 26 27  1  6  0  0  0
 26 28  1  0  0  0  0
 28 29  1  0  0  0  0
 28 30  1  1  0  0  0
 30 31  1  0  0  0  0
 32 27  1  6  0  0  0
 32 33  1  0  0  0  0
 32 40  1  0  0  0  0
 33 34  1  1  0  0  0
 33 35  1  0  0  0  0
 35 36  1  1  0  0  0
 35 37  1  0  0  0  0
 37 38  1  6  0  0  0
 37 39  1  0  0  0  0
 39 40  1  0  0  0  0
 39 41  1  1  0  0  0
 41 42  1  0  0  0  0
M  CHG  5   4   1  14   1  17   1  34   1  42   1
M  END
>  <CHROM.1>
177.63080452,13.89037089,-27.44871543,67.24842824,-43.24038167,-7.17543204
-57.23194060,-136.66995536,153.45358611,43.72082893,110.90573841,-40.59818300
-159.65710724,147.72994159,140.02875789,-10.79569440,-66.06089353,31.99440549
-174.62211281,78.02287514,-143.97798092,-149.04384231,31.55497108,10.62025431
49.99405151,-1.87101926,0.20571433,2.38291597

>  <Name>
1j7t

>  <RI>
0

>  <Rbt.Current_Directory>
/home/itssahil/PROJECTS/Mol_Feturizer/New_Systems/rnas/1j7t

>  <Rbt.Executable>
rbdock ($Id: //depot/dev/client3/rdock/2013.1/src/exe/rbdock.cxx#4 $)

>  <Rbt.Library>
libRbt.so (2013.1, Build901 2013/11/27)

>  <Rbt.Parameter_File>
/export/apps/rDock/src/rDock_2013.1_src/data/scripts/dock_solv.prm

>  <Rbt.Receptor>
prm/blind_docking_80.prm

>  <SCORE>
12.6345

>  <SCORE.INTER>
-18.3104

>  <SCORE.INTER.CONST>
1

>  <SCORE.INTER.POLAR>
-4.44796

>  <SCORE.INTER.ROT>
9

>  <SCORE.INTER.SOLV>
43.2146

>  <SCORE.INTER.VDW>
-21.3852

>  <SCORE.INTER.norm>
-0.435961

>  <SCORE.INTRA>
13.4072

>  <SCORE.INTRA.DIHEDRAL>
7.77086

>  <SCORE.INTRA.DIHEDRAL.0>
46.2143

>  <SCORE.INTRA.POLAR>
-0.408971

>  <SCORE.INTRA.POLAR.0>
-1.76436

>  <SCORE.INTRA.REPUL>
0.230622

>  <SCORE.INTRA.REPUL.0>
0

>  <SCORE.INTRA.SOLV>
2.81599

>  <SCORE.INTRA.SOLV.lig_0>
-148.643

>  <SCORE.INTRA.VDW>
8.3512

>  <SCORE.INTRA.VDW.0>
-4.83512

>  <SCORE.INTRA.norm>
0.31922

>  <SCORE.RESTR>
17.5376

>  <SCORE.RESTR.CAVITY>
17.5376

>  <SCORE.RESTR.norm>
0.417563

>  <SCORE.SYSTEM>
0

>  <SCORE.SYSTEM.CONST>
0

>  <SCORE.SYSTEM.DIHEDRAL>
0

>  <SCORE.SYSTEM.SOLV>
0

>  <SCORE.SYSTEM.norm>
0

>  <SCORE.heavy>
42

>  <SCORE.norm>
0.300821

>  <RMSD>
8.466

$$$$
1j7t
 OpenBabel11021811393D
libRbt.so/2013.1/901 2013/11/27
 42 45  0  0  0  0  0  0  0  0999 V2000
   32.5867   11.6015   47.7096 C   0  0  2  0  0  0  0  0  0  0  0  0
   31.5349   10.6532   47.3981 O   0  0  0  0  0  0  0  0  0  0  0  0
   33.8093   10.7745   48.2009 C   0  0  2  0  0  0  0  0  0  0  0  0
   34.2387    9.6922   47.2694 N   0  3  0  0  0  0  0  0  0  0  0  0
   33.4349   10.1213   49.5493 C   0  0  1  0  0  0  0  0  0  0  0  0
   34.5074    9.3740   50.0501 O   0  0  0  0  0  0  0  0  0  0  0  0
   33.0063   11.2075   50.5641 C   0  0  2  0  0  0  0  0  0  0  0  0
   32.6795   10.6320   51.8136 O   0  0  0  0  0  0  0  0  0  0  0  0
   31.8041   11.9600   50.0345 C   0  0  2  0  0  0  0  0  0  0  0  0
   32.1155   12.5047   48.7585 O   0  0  0  0  0  0  0  0  0  0  0  0
   31.3944   13.1184   50.9161 C   0  0  0  0  0  0  0  0  0  0  0  0
   32.4634   14.0401   51.0102 O   0  0  0  0  0  0  0  0  0  0  0  0
   28.5749   13.4108   46.1809 C   0  0  2  0  0  0  0  0  0  0  0  0
   27.3600   13.9668   45.5838 N   0  3  0  0  0  0  0  0  0  0  0  0
   29.4703   12.7689   45.0698 C   0  0  0  0  0  0  0  0  0  0  0  0
   30.7271   12.1392   45.7004 C   0  0  2  0  0  0  0  0  0  0  0  0
   31.5519   11.4855   44.6789 N   0  3  0  0  0  0  0  0  0  0  0  0
   30.3285   11.1078   46.7742 C   0  0  2  0  0  0  0  0  0  0  0  0
   29.4226   11.7066   47.8678 C   0  0  2  0  0  0  0  0  0  0  0  0
   29.0134   10.6008   48.6956 O   0  0  0  0  0  0  0  0  0  0  0  0
   28.1825   12.3825   47.2298 C   0  0  1  0  0  0  0  0  0  0  0  0
   27.4291   13.0047   48.2340 O   0  0  0  0  0  0  0  0  0  0  0  0
   29.9263    9.7849   49.4251 C   0  0  1  0  0  0  0  0  0  0  0  0
   29.5148    9.8067   50.9405 C   0  0  2  0  0  0  0  0  0  0  0  0
   30.0903   10.8717   51.6778 O   0  0  0  0  0  0  0  0  0  0  0  0
   30.0160    8.4217   51.3250 C   0  0  2  0  0  0  0  0  0  0  0  0
   31.4740    8.3636   51.2984 O   0  0  0  0  0  0  0  0  0  0  0  0
   29.4998    7.5518   50.1874 C   0  0  2  0  0  0  0  0  0  0  0  0
   29.7888    8.3864   49.0527 O   0  0  0  0  0  0  0  0  0  0  0  0
   27.9866    7.1691   50.2855 C   0  0  0  0  0  0  0  0  0  0  0  0
   27.1504    8.3309   50.3557 O   0  0  0  0  0  0  0  0  0  0  0  0
   32.0179    7.1828   51.8825 C   0  0  2  0  0  0  0  0  0  0  0  0
   32.8969    7.4275   53.1560 C   0  0  2  0  0  0  0  0  0  0  0  0
   34.0509    8.3414   52.8982 N   0  3  0  0  0  0  0  0  0  0  0  0
   33.3765    6.0248   53.6581 C   0  0  1  0  0  0  0  0  0  0  0  0
   32.1694    5.2630   54.0458 O   0  0  0  0  0  0  0  0  0  0  0  0
   34.1505    5.2157   52.5456 C   0  0  2  0  0  0  0  0  0  0  0  0
   35.3515    5.9310   52.2129 O   0  0  0  0  0  0  0  0  0  0  0  0
   33.1929    5.0602   51.2923 C   0  0  1  0  0  0  0  0  0  0  0  0
   32.7973    6.4079   50.8674 O   0  0  0  0  0  0  0  0  0  0  0  0
   33.8152    4.2988   50.0998 C   0  0  0  0  0  0  0  0  0  0  0  0
   32.8264    3.9357   49.0486 N   0  3  0  0  0  0  0  0  0  0  0  0
  1  2  1  1  0  0  0
  1  3  1  0  0  0  0
  1 10  1  0  0  0  0
  3  4  1  6  0  0  0
  3  5  1  0  0  0  0
  5  6  1  1  0  0  0
  5  7  1  0  0  0  0
  7  8  1  1  0  0  0
  7  9  1  0  0  0  0
  9 10  1  0  0  0  0
  9 11  1  1  0  0  0
 11 12  1  0  0  0  0
 13 14  1  6  0  0  0
 13 15  1  0  0  0  0
 13 21  1  0  0  0  0
 15 16  1  0  0  0  0
 16 17  1  6  0  0  0
 16 18  1  0  0  0  0
 18  2  1  1  0  0  0
 18 19  1  0  0  0  0
 19 20  1  1  0  0  0
 19 21  1  0  0  0  0
 21 22  1  1  0  0  0
 23 20  1  6  0  0  0
 23 24  1  0  0  0  0
 23 29  1  0  0  0  0
 24 25  1  1  0  0  0
 24 26  1  0  0  0  0
 26 27  1  6  0  0  0
 26 28  1  0  0  0  0
 28 29  1  0  0  0  0
 28 30  1  1  0  0  0
 30 31  1  0  0  0  0
 32 27  1  6  0  0  0
 32 33  1  0  0  0  0
 32 40  1  0  0  0  0
 33 34  1  6  0  0  0
 33 35  1  0  0  0  0
 35 36  1  6  0  0  0
 35 37  1  0  0  0  0
 37 38  1  6  0  0  0
 37 39  1  0  0  0  0
 39 40  1  0  0  0  0
 39 41  1  6  0  0  0
 41 42  1  0  0  0  0
M  CHG  5   4   1  14   1  17   1  34   1  42   1
M  END
>  <CHROM.1>
-172.90815238,41.15600897,103.17293076,-90.55393087,175.86556798,60.27661925
-106.86250322,54.02795987,139.55397588,61.03615174,124.04954924,-148.48574647
60.81706978,168.95273737,-116.43564720,57.13357150,-167.26362403,-38.74959395
-169.67189720,-159.65835035,168.82275175,-64.36292466,31.38807721,9.56805179
49.66270056,-2.00228482,0.12568280,2.54426867

>  <Name>
1j7t

>  <RI>
0

>  <Rbt.Current_Directory>
/home/itssahil/PROJECTS/Mol_Feturizer/New_Systems/rnas/1j7t

>  <Rbt.Executable>
rbdock ($Id: //depot/dev/client3/rdock/2013.1/src/exe/rbdock.cxx#4 $)

>  <Rbt.Library>
libRbt.so (2013.1, Build901 2013/11/27)

>  <Rbt.Parameter_File>
/export/apps/rDock/src/rDock_2013.1_src/data/scripts/dock_solv.prm

>  <Rbt.Receptor>
prm/blind_docking_80.prm

>  <SCORE>
119.049

>  <SCORE.INTER>
90.1388

>  <SCORE.INTER.CONST>
1

>  <SCORE.INTER.POLAR>
-3.24676

>  <SCORE.INTER.ROT>
9

>  <SCORE.INTER.SOLV>
52.1841

>  <SCORE.INTER.VDW>
43.9204

>  <SCORE.INTER.norm>
2.14616

>  <SCORE.INTRA>
10.7041

>  <SCORE.INTRA.DIHEDRAL>
-4.7589

>  <SCORE.INTRA.DIHEDRAL.0>
46.2143

>  <SCORE.INTRA.POLAR>
0.356654

>  <SCORE.INTRA.POLAR.0>
-1.76436

>  <SCORE.INTRA.REPUL>
0.867253

>  <SCORE.INTRA.REPUL.0>
0

>  <SCORE.INTRA.SOLV>
3.38852

>  <SCORE.INTRA.SOLV.lig_0>
-148.643

>  <SCORE.INTRA.VDW>
5.84041

>  <SCORE.INTRA.VDW.0>
-4.83512

>  <SCORE.INTRA.norm>
0.25486

>  <SCORE.RESTR>
18.2057

>  <SCORE.RESTR.CAVITY>
18.2057

>  <SCORE.RESTR.norm>
0.43347

>  <SCORE.SYSTEM>
0

>  <SCORE.SYSTEM.CONST>
0

>  <SCORE.SYSTEM.DIHEDRAL>
0

>  <SCORE.SYSTEM.SOLV>
0

>  <SCORE.SYSTEM.norm>
0

>  <SCORE.heavy>
42

>  <SCORE.norm>
2.83449

>  <RMSD>
8.468

$$$$
1j7t
 OpenBabel11021811393D
libRbt.so/2013.1/901 2013/11/27
 42 45  0  0  0  0  0  0  0  0999 V2000
   29.1046    8.6905   60.8122 C   0  0  2  0  0  0  0  0  0  0  0  0
   27.7096    8.3867   61.0658 O   0  0  0  0  0  0  0  0  0  0  0  0
   29.4678    9.9171   61.6975 C   0  0  2  0  0  0  0  0  0  0  0  0
   29.1466    9.7525   63.1443 N   0  3  0  0  0  0  0  0  0  0  0  0
   28.6810   11.1373   61.1711 C   0  0  1  0  0  0  0  0  0  0  0  0
   28.9814   12.2795   61.9226 O   0  0  0  0  0  0  0  0  0  0  0  0
   29.0004   11.3694   59.6752 C   0  0  2  0  0  0  0  0  0  0  0  0
   28.3059   12.4963   59.1784 O   0  0  0  0  0  0  0  0  0  0  0  0
   28.6066   10.1491   58.8703 C   0  0  2  0  0  0  0  0  0  0  0  0
   29.2710    9.0062   59.3942 O   0  0  0  0  0  0  0  0  0  0  0  0
   28.9950   10.2502   57.4122 C   0  0  0  0  0  0  0  0  0  0  0  0
   28.1994   11.2342   56.7797 O   0  0  0  0  0  0  0  0  0  0  0  0
   25.6423    4.7367   60.5643 C   0  0  2  0  0  0  0  0  0  0  0  0
   24.9841    3.5917   59.9340 N   0  3  0  0  0  0  0  0  0  0  0  0
   24.8860    6.0562   60.1967 C   0  0  0  0  0  0  0  0  0  0  0  0
   25.6041    7.2692   60.8183 C   0  0  2  0  0  0  0  0  0  0  0  0
   24.9390    8.5202   60.4392 N   0  3  0  0  0  0  0  0  0  0  0  0
   27.0756    7.3126   60.3616 C   0  0  2  0  0  0  0  0  0  0  0  0
   27.8385    6.0135   60.6866 C   0  0  2  0  0  0  0  0  0  0  0  0
   29.1322    6.1456   60.0666 O   0  0  0  0  0  0  0  0  0  0  0  0
   27.0900    4.7886   60.1026 C   0  0  1  0  0  0  0  0  0  0  0  0
   27.7476    3.6159   60.4966 O   0  0  0  0  0  0  0  0  0  0  0  0
   29.3696    5.9005   58.6829 C   0  0  1  0  0  0  0  0  0  0  0  0
   30.8475    6.3130   58.3488 C   0  0  2  0  0  0  0  0  0  0  0  0
   30.9977    7.6767   57.9926 O   0  0  0  0  0  0  0  0  0  0  0  0
   31.1011    5.3272   57.2169 C   0  0  2  0  0  0  0  0  0  0  0  0
   30.3071    5.6626   56.0392 O   0  0  0  0  0  0  0  0  0  0  0  0
   30.5577    4.0224   57.7822 C   0  0  2  0  0  0  0  0  0  0  0  0
   29.3372    4.4765   58.3921 O   0  0  0  0  0  0  0  0  0  0  0  0
   31.5050    3.2980   58.7939 C   0  0  0  0  0  0  0  0  0  0  0  0
   32.6711    2.7748   58.1456 O   0  0  0  0  0  0  0  0  0  0  0  0
   30.6793    4.9448   54.8655 C   0  0  2  0  0  0  0  0  0  0  0  0
   29.8306    5.2851   53.5933 C   0  0  2  0  0  0  0  0  0  0  0  0
   28.3687    5.0451   53.7895 N   0  3  0  0  0  0  0  0  0  0  0  0
   30.4013    4.4233   52.4180 C   0  0  1  0  0  0  0  0  0  0  0  0
   31.7975    4.8575   52.1952 O   0  0  0  0  0  0  0  0  0  0  0  0
   30.3968    2.8786   52.7423 C   0  0  2  0  0  0  0  0  0  0  0  0
   29.0349    2.4491   52.9017 O   0  0  0  0  0  0  0  0  0  0  0  0
   31.2437    2.6490   54.0622 C   0  0  1  0  0  0  0  0  0  0  0  0
   30.6456    3.4710   55.1205 O   0  0  0  0  0  0  0  0  0  0  0  0
   31.3219    1.1768   54.5265 C   0  0  0  0  0  0  0  0  0  0  0  0
   29.9968    0.5936   54.8709 N   0  3  0  0  0  0  0  0  0  0  0  0
  1  2  1  6  0  0  0
  1  3  1  0  0  0  0
  1 10  1  0  0  0  0
  3  4  1  1  0  0  0
  3  5  1  0  0  0  0
  5  6  1  1  0  0  0
  5  7  1  0  0  0  0
  7  8  1  6  0  0  0
  7  9  1  0  0  0  0
  9 10  1  0  0  0  0
  9 11  1  6  0  0  0
 11 12  1  0  0  0  0
 13 14  1  6  0  0  0
 13 15  1  0  0  0  0
 13 21  1  0  0  0  0
 15 16  1  0  0  0  0
 16 17  1  6  0  0  0
 16 18  1  0  0  0  0
 18  2  1  1  0  0  0
 18 19  1  0  0  0  0
 19 20  1  6  0  0  0
 19 21  1  0  0  0  0
 21 22  1  1  0  0  0
 23 20  1  1  0  0  0
 23 24  1  0  0  0  0
 23 29  1  0  0  0  0
 24 25  1  6  0  0  0
 24 26  1  0  0  0  0
 26 27  1  6  0  0  0
 26 28  1  0  0  0  0
 28 29  1  0  0  0  0
 28 30  1  1  0  0  0
 30 31  1  0  0  0  0
 32 27  1  1  0  0  0
 32 33  1  0  0  0  0
 32 40  1  0  0  0  0
 33 34  1  1  0  0  0
 33 35  1  0  0  0  0
 35 36  1  1  0  0  0
 35 37  1  0  0  0  0
 37 38  1  1  0  0  0
 37 39  1  0  0  0  0
 39 40  1  0  0  0  0
 39 41  1  1  0  0  0
 41 42  1  0  0  0  0
M  CHG  5   4   1  14   1  17   1  34   1  42   1
M  END
>  <CHROM.1>
178.51330622,-178.49123535,-78.84005619,37.05335406,-174.03196301,-69.25806488
-176.32431792,66.73388482,74.43182213,-80.68176798,173.25478470,70.21581349
54.92680719,168.60969100,179.59895784,-69.07603532,173.90659385,-69.52097862
-59.78983167,70.54351118,-62.03768365,64.43560827,29.05611264,6.33681284
58.01855203,-2.10334155,-1.02184100,-2.84503566

>  <Name>
1j7t

>  <RI>
224

>  <Rbt.Current_Directory>
/home/itssahil/PROJECTS/Mol_Feturizer/New_Systems/rnas/1j7t

>  <Rbt.Executable>
rbdock ($Id: //depot/dev/client3/rdock/2013.1/src/exe/rbdock.cxx#4 $)

>  <Rbt.Library>
libRbt.so (2013.1, Build901 2013/11/27)

>  <Rbt.Parameter_File>
/export/apps/rDock/src/rDock_2013.1_src/data/scripts/dock_solv.prm

>  <Rbt.Receptor>
prm/pocket_docking_7.prm

>  <SCORE>
-49.6641

>  <SCORE.INTER>
-28.0275

>  <SCORE.INTER.CONST>
1

>  <SCORE.INTER.POLAR>
-6.00416

>  <SCORE.INTER.ROT>
9

>  <SCORE.INTER.SOLV>
13.1667

>  <SCORE.INTER.VDW>
-12.66

>  <SCORE.INTER.norm>
-0.667321

>  <SCORE.INTRA>
-21.6366

>  <SCORE.INTRA.DIHEDRAL>
-36.5331

>  <SCORE.INTRA.DIHEDRAL.0>
46.2143

>  <SCORE.INTRA.POLAR>
-0.734528

>  <SCORE.INTRA.POLAR.0>
-1.76436

>  <SCORE.INTRA.REPUL>
0.00580922

>  <SCORE.INTRA.REPUL.0>
0

>  <SCORE.INTRA.SOLV>
-2.3793

>  <SCORE.INTRA.SOLV.lig_0>
-148.643

>  <SCORE.INTRA.VDW>
0.287956

>  <SCORE.INTRA.VDW.0>
-4.83512

>  <SCORE.INTRA.norm>
-0.515158

>  <SCORE.RESTR>
0

>  <SCORE.RESTR.CAVITY>
0

>  <SCORE.RESTR.norm>
0

>  <SCORE.SYSTEM>
0

>  <SCORE.SYSTEM.CONST>
0

>  <SCORE.SYSTEM.DIHEDRAL>
0

>  <SCORE.SYSTEM.SOLV>
0

>  <SCORE.SYSTEM.norm>
0

>  <SCORE.heavy>
42

>  <SCORE.norm>
-1.18248

>  <RMSD>
8.468

$$$$
1j7t
 OpenBabel11021811393D
libRbt.so/2013.1/901 2013/11/27
 42 45  0  0  0  0  0  0  0  0999 V2000
   32.8211   12.1660   47.1038 C   0  0  2  0  0  0  0  0  0  0  0  0
   31.7527   11.2483   47.4485 O   0  0  0  0  0  0  0  0  0  0  0  0
   34.0220   11.8308   48.0342 C   0  0  2  0  0  0  0  0  0  0  0  0
   34.4370   10.3987   48.0168 N   0  3  0  0  0  0  0  0  0  0  0  0
   33.6224   12.1930   49.4813 C   0  0  1  0  0  0  0  0  0  0  0  0
   34.6748   11.9267   50.3650 O   0  0  0  0  0  0  0  0  0  0  0  0
   33.2075   13.6814   49.5603 C   0  0  2  0  0  0  0  0  0  0  0  0
   32.8579   14.0397   50.8826 O   0  0  0  0  0  0  0  0  0  0  0  0
   32.0258   13.9346   48.6485 C   0  0  2  0  0  0  0  0  0  0  0  0
   32.3595   13.5357   47.3250 O   0  0  0  0  0  0  0  0  0  0  0  0
   31.6325   15.3932   48.5792 C   0  0  0  0  0  0  0  0  0  0  0  0
   30.2927   15.4997   48.1378 O   0  0  0  0  0  0  0  0  0  0  0  0
   28.3118   13.2590   46.0464 C   0  0  2  0  0  0  0  0  0  0  0  0
   26.9976   13.5088   45.4534 N   0  3  0  0  0  0  0  0  0  0  0  0
   29.2660   12.6233   44.9816 C   0  0  0  0  0  0  0  0  0  0  0  0
   30.6357   12.3137   45.6153 C   0  0  2  0  0  0  0  0  0  0  0  0
   31.5257   11.6676   44.6450 N   0  3  0  0  0  0  0  0  0  0  0  0
   30.4635   11.3968   46.8422 C   0  0  2  0  0  0  0  0  0  0  0  0
   29.5061   11.9861   47.8964 C   0  0  2  0  0  0  0  0  0  0  0  0
   29.3278   10.9592   48.8909 O   0  0  0  0  0  0  0  0  0  0  0  0
   28.1443   12.3425   47.2480 C   0  0  1  0  0  0  0  0  0  0  0  0
   27.3296   12.9675   48.2012 O   0  0  0  0  0  0  0  0  0  0  0  0
   30.4065   10.3578   49.6022 C   0  0  1  0  0  0  0  0  0  0  0  0
   30.5079   11.0299   51.0178 C   0  0  2  0  0  0  0  0  0  0  0  0
   31.3177   12.1929   51.0460 O   0  0  0  0  0  0  0  0  0  0  0  0
   31.0713    9.8425   51.7859 C   0  0  2  0  0  0  0  0  0  0  0  0
   32.4403    9.5506   51.3732 O   0  0  0  0  0  0  0  0  0  0  0  0
   30.1930    8.6922   51.3139 C   0  0  2  0  0  0  0  0  0  0  0  0
   30.1205    8.9648   49.9039 O   0  0  0  0  0  0  0  0  0  0  0  0
   28.7836    8.6203   51.9880 C   0  0  0  0  0  0  0  0  0  0  0  0
   28.0770    7.4316   51.6116 O   0  0  0  0  0  0  0  0  0  0  0  0
   33.1442    8.6912   52.2662 C   0  0  2  0  0  0  0  0  0  0  0  0
   34.1696    7.7284   51.5763 C   0  0  2  0  0  0  0  0  0  0  0  0
   33.5368    6.8448   50.5505 N   0  3  0  0  0  0  0  0  0  0  0  0
   34.8498    6.8937   52.7122 C   0  0  1  0  0  0  0  0  0  0  0  0
   35.5867    7.8448   53.5724 O   0  0  0  0  0  0  0  0  0  0  0  0
   33.8034    6.1136   53.5998 C   0  0  2  0  0  0  0  0  0  0  0  0
   33.1299    5.1511   52.7725 O   0  0  0  0  0  0  0  0  0  0  0  0
   32.7935    7.1693   54.2144 C   0  0  1  0  0  0  0  0  0  0  0  0
   32.1840    7.9008   53.0978 O   0  0  0  0  0  0  0  0  0  0  0  0
   31.6869    6.5569   55.1029 C   0  0  0  0  0  0  0  0  0  0  0  0
   30.5421    7.4773   55.3410 N   0  3  0  0  0  0  0  0  0  0  0  0
  1  2  1  1  0  0  0
  1  3  1  0  0  0  0
  1 10  1  0  0  0  0
  3  4  1  1  0  0  0
  3  5  1  0  0  0  0
  5  6  1  1  0  0  0
  5  7  1  0  0  0  0
  7  8  1  1  0  0  0
  7  9  1  0  0  0  0
  9 10  1  0  0  0  0
  9 11  1  6  0  0  0
 11 12  1  0  0  0  0
 13 14  1  6  0  0  0
 13 15  1  0  0  0  0
 13 21  1  0  0  0  0
 15 16  1  0  0  0  0
 16 17  1  6  0  0  0
 16 18  1  0  0  0  0
 18  2  1  1  0  0  0
 18 19  1  0  0  0  0
 19 20  1  1  0  0  0
 19 21  1  0  0  0  0
 21 22  1  1  0  0  0
 23 20  1  6  0  0  0
 23 24  1  0  0  0  0
 23 29  1  0  0  0  0
 24 25  1  6  0  0  0
 24 26  1  0  0  0  0
 26 27  1  6  0  0  0
 26 28  1  0  0  0  0
 28 29  1  0  0  0  0
 28 30  1  1  0  0  0
 30 31  1  0  0  0  0
 32 27  1  6  0  0  0
 32 33  1  0  0  0  0
 32 40  1  0  0  0  0
 33 34  1  6  0  0  0
 33 35  1  0  0  0  0
 35 36  1  1  0  0  0
 35 37  1  0  0  0  0
 37 38  1  6  0  0  0
 37 39  1  0  0  0  0
 39 40  1  0  0  0  0
 39 41  1  6  0  0  0
 41 42  1  0  0  0  0
M  CHG  5   4   1  14   1  17   1  34   1  42   1
M  END
>  <CHROM.1>
174.10437047,16.02352767,-24.30084113,-168.76545264,-176.92485238,-158.88767834
-52.43562162,107.22393644,150.74556488,56.47544879,99.73280021,-42.27185032
-138.68801326,164.87219352,146.42530231,-173.29352641,-54.93996618,-87.06755791
-175.25143624,87.62831809,-163.20437496,-59.04045289,31.50515919,10.56015313
49.86478199,-1.87590442,0.15237188,2.37719293

>  <Name>
1j7t

>  <RI>
0

>  <Rbt.Current_Directory>
/home/itssahil/PROJECTS/Mol_Feturizer/New_Systems/rnas/1j7t

>  <Rbt.Executable>
rbdock ($Id: //depot/dev/client3/rdock/2013.1/src/exe/rbdock.cxx#4 $)

>  <Rbt.Library>
libRbt.so (2013.1, Build901 2013/11/27)

>  <Rbt.Parameter_File>
/export/apps/rDock/src/rDock_2013.1_src/data/scripts/dock_solv.prm

>  <Rbt.Receptor>
prm/blind_docking_80.prm

>  <SCORE>
10.9396

>  <SCORE.INTER>
-11.1691

>  <SCORE.INTER.CONST>
1

>  <SCORE.INTER.POLAR>
-5.33536

>  <SCORE.INTER.ROT>
9

>  <SCORE.INTER.SOLV>
42.5069

>  <SCORE.INTER.VDW>
-13.4305

>  <SCORE.INTER.norm>
-0.265931

>  <SCORE.INTRA>
4.98765

>  <SCORE.INTRA.DIHEDRAL>
-6.49015

>  <SCORE.INTRA.DIHEDRAL.0>
46.2143

>  <SCORE.INTRA.POLAR>
0.762697

>  <SCORE.INTRA.POLAR.0>
-1.76436

>  <SCORE.INTRA.REPUL>
0.0697653

>  <SCORE.INTRA.REPUL.0>
0

>  <SCORE.INTRA.SOLV>
0.92435

>  <SCORE.INTRA.SOLV.lig_0>
-148.643

>  <SCORE.INTRA.VDW>
4.82856

>  <SCORE.INTRA.VDW.0>
-4.83512

>  <SCORE.INTRA.norm>
0.118754

>  <SCORE.RESTR>
17.121

>  <SCORE.RESTR.CAVITY>
17.121

>  <SCORE.RESTR.norm>
0.407644

>  <SCORE.SYSTEM>
0

>  <SCORE.SYSTEM.CONST>
0

>  <SCORE.SYSTEM.DIHEDRAL>
0

>  <SCORE.SYSTEM.SOLV>
0

>  <SCORE.SYSTEM.norm>
0

>  <SCORE.heavy>
42

>  <SCORE.norm>
0.260467

>  <RMSD>
8.497

$$$$
1j7t
 OpenBabel11021811393D
libRbt.so/2013.1/901 2013/11/27
 42 45  0  0  0  0  0  0  0  0999 V2000
   28.5356    8.6398   59.6955 C   0  0  2  0  0  0  0  0  0  0  0  0
   28.8731    7.3265   60.2091 O   0  0  0  0  0  0  0  0  0  0  0  0
   27.9049    9.4368   60.8732 C   0  0  2  0  0  0  0  0  0  0  0  0
   28.7374    9.4757   62.1097 N   0  3  0  0  0  0  0  0  0  0  0  0
   26.5546    8.7772   61.2290 C   0  0  1  0  0  0  0  0  0  0  0  0
   25.9306    9.4647   62.2766 O   0  0  0  0  0  0  0  0  0  0  0  0
   25.6394    8.7362   59.9823 C   0  0  2  0  0  0  0  0  0  0  0  0
   24.3883    8.1547   60.2919 O   0  0  0  0  0  0  0  0  0  0  0  0
   26.3024    7.9320   58.8842 C   0  0  2  0  0  0  0  0  0  0  0  0
   27.5794    8.4890   58.5996 O   0  0  0  0  0  0  0  0  0  0  0  0
   25.5224    7.9423   57.5886 C   0  0  0  0  0  0  0  0  0  0  0  0
   24.3273    7.2032   57.7520 O   0  0  0  0  0  0  0  0  0  0  0  0
   31.4211    4.1896   58.9777 C   0  0  2  0  0  0  0  0  0  0  0  0
   32.0544    3.1619   58.1506 N   0  3  0  0  0  0  0  0  0  0  0  0
   29.9037    3.8596   59.1705 C   0  0  0  0  0  0  0  0  0  0  0  0
   29.2224    4.9648   59.9999 C   0  0  2  0  0  0  0  0  0  0  0  0
   27.7874    4.6989   60.1450 N   0  3  0  0  0  0  0  0  0  0  0  0
   29.4238    6.3384   59.3304 C   0  0  2  0  0  0  0  0  0  0  0  0
   30.9098    6.6779   59.1029 C   0  0  2  0  0  0  0  0  0  0  0  0
   30.9270    7.8990   58.3387 O   0  0  0  0  0  0  0  0  0  0  0  0
   31.6065    5.5430   58.3102 C   0  0  1  0  0  0  0  0  0  0  0  0
   32.9744    5.8273   58.2045 O   0  0  0  0  0  0  0  0  0  0  0  0
   30.7352    7.9459   56.9272 C   0  0  1  0  0  0  0  0  0  0  0  0
   29.2251    7.6461   56.6179 C   0  0  2  0  0  0  0  0  0  0  0  0
   28.9299    6.2672   56.4746 O   0  0  0  0  0  0  0  0  0  0  0  0
   29.0959    8.4616   55.3390 C   0  0  2  0  0  0  0  0  0  0  0  0
   29.8626    7.8610   54.2522 O   0  0  0  0  0  0  0  0  0  0  0  0
   29.7728    9.7737   55.7096 C   0  0  2  0  0  0  0  0  0  0  0  0
   30.9281    9.2941   56.4188 O   0  0  0  0  0  0  0  0  0  0  0  0
   28.8987   10.7463   56.5674 C   0  0  0  0  0  0  0  0  0  0  0  0
   27.4990   10.4907   56.3959 O   0  0  0  0  0  0  0  0  0  0  0  0
   29.6839    8.5035   52.9926 C   0  0  2  0  0  0  0  0  0  0  0  0
   29.8457    7.5638   51.7495 C   0  0  2  0  0  0  0  0  0  0  0  0
   31.1812    6.8953   51.6970 N   0  3  0  0  0  0  0  0  0  0  0  0
   29.5914    8.4393   50.4773 C   0  0  1  0  0  0  0  0  0  0  0  0
   28.1914    8.9117   50.5442 O   0  0  0  0  0  0  0  0  0  0  0  0
   30.5465    9.6938   50.4049 C   0  0  2  0  0  0  0  0  0  0  0  0
   31.9011    9.2303   50.2825 O   0  0  0  0  0  0  0  0  0  0  0  0
   30.3356   10.5512   51.7211 C   0  0  1  0  0  0  0  0  0  0  0  0
   30.6049    9.6758   52.8676 O   0  0  0  0  0  0  0  0  0  0  0  0
   31.2192   11.8161   51.8115 C   0  0  0  0  0  0  0  0  0  0  0  0
   31.2967   12.5764   50.5345 N   0  3  0  0  0  0  0  0  0  0  0  0
  1  2  1  1  0  0  0
  1  3  1  0  0  0  0
  1 10  1  0  0  0  0
  3  4  1  1  0  0  0
  3  5  1  0  0  0  0
  5  6  1  1  0  0  0
  5  7  1  0  0  0  0
  7  8  1  1  0  0  0
  7  9  1  0  0  0  0
  9 10  1  0  0  0  0
  9 11  1  6  0  0  0
 11 12  1  0  0  0  0
 13 14  1  6  0  0  0
 13 15  1  0  0  0  0
 13 21  1  0  0  0  0
 15 16  1  0  0  0  0
 16 17  1  6  0  0  0
 16 18  1  0  0  0  0
 18  2  1  1  0  0  0
 18 19  1  0  0  0  0
 19 20  1  6  0  0  0
 19 21  1  0  0  0  0
 21 22  1  1  0  0  0
 23 20  1  1  0  0  0
 23 24  1  0  0  0  0
 23 29  1  0  0  0  0
 24 25  1  6  0  0  0
 24 26  1  0  0  0  0
 26 27  1  6  0  0  0
 26 28  1  0  0  0  0
 28 29  1  0  0  0  0
 28 30  1  1  0  0  0
 30 31  1  0  0  0  0
 32 27  1  1  0  0  0
 32 33  1  0  0  0  0
 32 40  1  0  0  0  0
 33 34  1  6  0  0  0
 33 35  1  0  0  0  0
 35 36  1  1  0  0  0
 35 37  1  0  0  0  0
 37 38  1  1  0  0  0
 37 39  1  0  0  0  0
 39 40  1  0  0  0  0
 39 41  1  6  0  0  0
 41 42  1  0  0  0  0
M  CHG  5   4   1  14   1  17   1  34   1  42   1
M  END
>  <CHROM.1>
177.28306910,-160.85581633,69.22399260,179.37968241,-43.59478837,-69.28686202
54.98354009,127.08644041,-171.04371482,-80.75134179,72.00273996,-46.51965583
173.76292714,174.35688950,-150.45462936,-23.55141254,73.75300386,-55.19465728
-178.53165023,179.05348098,43.22545733,151.51356710,29.17482730,8.02557277
56.63737123,1.96250142,-0.70092479,2.08785756

>  <Name>
1j7t

>  <RI>
224

>  <Rbt.Current_Directory>
/home/itssahil/PROJECTS/Mol_Feturizer/New_Systems/rnas/1j7t

>  <Rbt.Executable>
rbdock ($Id: //depot/dev/client3/rdock/2013.1/src/exe/rbdock.cxx#4 $)

>  <Rbt.Library>
libRbt.so (2013.1, Build901 2013/11/27)

>  <Rbt.Parameter_File>
/export/apps/rDock/src/rDock_2013.1_src/data/scripts/dock_solv.prm

>  <Rbt.Receptor>
prm/pocket_docking_7.prm

>  <SCORE>
-41.8814

>  <SCORE.INTER>
-27.5085

>  <SCORE.INTER.CONST>
1

>  <SCORE.INTER.POLAR>
-4.70259

>  <SCORE.INTER.ROT>
9

>  <SCORE.INTER.SOLV>
23.6021

>  <SCORE.INTER.VDW>
-20.1311

>  <SCORE.INTER.norm>
-0.654964

>  <SCORE.INTRA>
-14.4206

>  <SCORE.INTRA.DIHEDRAL>
-24.0016

>  <SCORE.INTRA.DIHEDRAL.0>
46.2143

>  <SCORE.INTRA.POLAR>
-0.137836

>  <SCORE.INTRA.POLAR.0>
-1.76436

>  <SCORE.INTRA.REPUL>
0

>  <SCORE.INTRA.REPUL.0>
0

>  <SCORE.INTRA.SOLV>
-2.01128

>  <SCORE.INTRA.SOLV.lig_0>
-148.643

>  <SCORE.INTRA.VDW>
-0.945475

>  <SCORE.INTRA.VDW.0>
-4.83512

>  <SCORE.INTRA.norm>
-0.343346

>  <SCORE.RESTR>
0.0476772

>  <SCORE.RESTR.CAVITY>
0.0476772

>  <SCORE.RESTR.norm>
0.00113517

>  <SCORE.SYSTEM>
0

>  <SCORE.SYSTEM.CONST>
0

>  <SCORE.SYSTEM.DIHEDRAL>
0

>  <SCORE.SYSTEM.SOLV>
0

>  <SCORE.SYSTEM.norm>
0

>  <SCORE.heavy>
42

>  <SCORE.norm>
-0.997175

>  <RMSD>
8.503

$$$$
1j7t
 OpenBabel11021811393D
libRbt.so/2013.1/901 2013/11/27
 42 45  0  0  0  0  0  0  0  0999 V2000
   32.7859   12.2739   47.2568 C   0  0  2  0  0  0  0  0  0  0  0  0
   31.7706   11.2949   47.5932 O   0  0  0  0  0  0  0  0  0  0  0  0
   34.0301   11.9538   48.1340 C   0  0  2  0  0  0  0  0  0  0  0  0
   34.5067   10.5439   48.0405 N   0  3  0  0  0  0  0  0  0  0  0  0
   33.6626   12.2352   49.6073 C   0  0  1  0  0  0  0  0  0  0  0  0
   34.7540   11.9792   50.4456 O   0  0  0  0  0  0  0  0  0  0  0  0
   33.1856   13.6985   49.7649 C   0  0  2  0  0  0  0  0  0  0  0  0
   32.8641   13.9837   51.1119 O   0  0  0  0  0  0  0  0  0  0  0  0
   31.9647   13.9369   48.9019 C   0  0  2  0  0  0  0  0  0  0  0  0
   32.2722   13.6106   47.5525 O   0  0  0  0  0  0  0  0  0  0  0  0
   31.5058   15.3778   48.9095 C   0  0  0  0  0  0  0  0  0  0  0  0
   30.2920   15.4897   48.1915 O   0  0  0  0  0  0  0  0  0  0  0  0
   28.3911   13.2456   45.9740 C   0  0  2  0  0  0  0  0  0  0  0  0
   27.0563   13.4752   45.4201 N   0  3  0  0  0  0  0  0  0  0  0  0
   29.2055   12.3001   45.0300 C   0  0  0  0  0  0  0  0  0  0  0  0
   30.5942   12.0166   45.6340 C   0  0  2  0  0  0  0  0  0  0  0  0
   31.3517   11.0884   44.7881 N   0  3  0  0  0  0  0  0  0  0  0  0
   30.4519   11.4209   47.0484 C   0  0  2  0  0  0  0  0  0  0  0  0
   29.6298   12.3193   47.9930 C   0  0  2  0  0  0  0  0  0  0  0  0
   29.4544   11.5649   49.2077 O   0  0  0  0  0  0  0  0  0  0  0  0
   28.2514   12.6442   47.3634 C   0  0  1  0  0  0  0  0  0  0  0  0
   27.5658   13.5411   48.1932 O   0  0  0  0  0  0  0  0  0  0  0  0
   30.2954   10.4786   49.5869 C   0  0  1  0  0  0  0  0  0  0  0  0
   30.6359   10.6194   51.1134 C   0  0  2  0  0  0  0  0  0  0  0  0
   31.7778   11.4166   51.3770 O   0  0  0  0  0  0  0  0  0  0  0  0
   30.8013    9.1418   51.4397 C   0  0  2  0  0  0  0  0  0  0  0  0
   31.9947    8.5929   50.8039 O   0  0  0  0  0  0  0  0  0  0  0  0
   29.5900    8.5131   50.7655 C   0  0  2  0  0  0  0  0  0  0  0  0
   29.5815    9.2145   49.5102 O   0  0  0  0  0  0  0  0  0  0  0  0
   28.2463    8.6653   51.5510 C   0  0  0  0  0  0  0  0  0  0  0  0
   27.1859    7.9239   50.9346 O   0  0  0  0  0  0  0  0  0  0  0  0
   32.9235    8.0136   51.7167 C   0  0  2  0  0  0  0  0  0  0  0  0
   33.6350    6.7196   51.1936 C   0  0  2  0  0  0  0  0  0  0  0  0
   32.6732    5.6367   50.8254 N   0  3  0  0  0  0  0  0  0  0  0  0
   34.6217    6.2539   52.3158 C   0  0  1  0  0  0  0  0  0  0  0  0
   35.6299    7.3231   52.4829 O   0  0  0  0  0  0  0  0  0  0  0  0
   33.8983    6.0192   53.6989 C   0  0  2  0  0  0  0  0  0  0  0  0
   32.9603    4.9414   53.5467 O   0  0  0  0  0  0  0  0  0  0  0  0
   33.1797    7.3691   54.1153 C   0  0  1  0  0  0  0  0  0  0  0  0
   32.2628    7.7356   53.0299 O   0  0  0  0  0  0  0  0  0  0  0  0
   32.4052    7.2982   55.4510 C   0  0  0  0  0  0  0  0  0  0  0  0
   31.2627    8.2490   55.5238 N   0  3  0  0  0  0  0  0  0  0  0  0
  1  2  1  1  0  0  0
  1  3  1  0  0  0  0
  1 10  1  0  0  0  0
  3  4  1  1  0  0  0
  3  5  1  0  0  0  0
  5  6  1  1  0  0  0
  5  7  1  0  0  0  0
  7  8  1  1  0  0  0
  7  9  1  0  0  0  0
  9 10  1  0  0  0  0
  9 11  1  6  0  0  0
 11 12  1  0  0  0  0
 13 14  1  6  0  0  0
 13 15  1  0  0  0  0
 13 21  1  0  0  0  0
 15 16  1  0  0  0  0
 16 17  1  6  0  0  0
 16 18  1  0  0  0  0
 18  2  1  1  0  0  0
 18 19  1  0  0  0  0
 19 20  1  1  0  0  0
 19 21  1  0  0  0  0
 21 22  1  1  0  0  0
 23 20  1  1  0  0  0
 23 24  1  0  0  0  0
 23 29  1  0  0  0  0
 24 25  1  6  0  0  0
 24 26  1  0  0  0  0
 26 27  1  6  0  0  0
 26 28  1  0  0  0  0
 28 29  1  0  0  0  0
 28 30  1  1  0  0  0
 30 31  1  0  0  0  0
 32 27  1  6  0  0  0
 32 33  1  0  0  0  0
 32 40  1  0  0  0  0
 33 34  1  1  0  0  0
 33 35  1  0  0  0  0
 35 36  1  1  0  0  0
 35 37  1  0  0  0  0
 37 38  1  6  0  0  0
 37 39  1  0  0  0  0
 39 40  1  0  0  0  0
 39 41  1  1  0  0  0
 41 42  1  0  0  0  0
M  CHG  5   4   1  14   1  17   1  34   1  42   1
M  END
>  <CHROM.1>
173.26033074,34.01158912,-149.14307059,-156.83710054,-38.48585549,-174.24984575
-53.04576817,-153.52148556,-58.08521801,20.95238377,136.20109430,160.76627103
-167.70706479,122.35421929,142.39908372,-173.45789536,179.45521781,-72.40752973
53.84630938,179.25950486,-152.43500956,-43.67573381,31.44050843,10.46902005
49.85635379,-1.90137632,0.22848740,2.44361607

>  <Name>
1j7t

>  <RI>
0

>  <Rbt.Current_Directory>
/home/itssahil/PROJECTS/Mol_Feturizer/New_Systems/rnas/1j7t

>  <Rbt.Executable>
rbdock ($Id: //depot/dev/client3/rdock/2013.1/src/exe/rbdock.cxx#4 $)

>  <Rbt.Library>
libRbt.so (2013.1, Build901 2013/11/27)

>  <Rbt.Parameter_File>
/export/apps/rDock/src/rDock_2013.1_src/data/scripts/dock_solv.prm

>  <Rbt.Receptor>
prm/blind_docking_80.prm

>  <SCORE>
7.99252

>  <SCORE.INTER>
-8.24908

>  <SCORE.INTER.CONST>
1

>  <SCORE.INTER.POLAR>
-4.56406

>  <SCORE.INTER.ROT>
9

>  <SCORE.INTER.SOLV>
43.7794

>  <SCORE.INTER.VDW>
-14.479

>  <SCORE.INTER.norm>
-0.196407

>  <SCORE.INTRA>
-0.801061

>  <SCORE.INTRA.DIHEDRAL>
-5.72394

>  <SCORE.INTRA.DIHEDRAL.0>
46.2143

>  <SCORE.INTRA.POLAR>
-0.149691

>  <SCORE.INTRA.POLAR.0>
-1.76436

>  <SCORE.INTRA.REPUL>
0.148487

>  <SCORE.INTRA.REPUL.0>
0

>  <SCORE.INTRA.SOLV>
-2.09302

>  <SCORE.INTRA.SOLV.lig_0>
-148.643

>  <SCORE.INTRA.VDW>
2.87394

>  <SCORE.INTRA.VDW.0>
-4.83512

>  <SCORE.INTRA.norm>
-0.0190729

>  <SCORE.RESTR>
17.0427

>  <SCORE.RESTR.CAVITY>
17.0427

>  <SCORE.RESTR.norm>
0.405778

>  <SCORE.SYSTEM>
0

>  <SCORE.SYSTEM.CONST>
0

>  <SCORE.SYSTEM.DIHEDRAL>
0

>  <SCORE.SYSTEM.SOLV>
0

>  <SCORE.SYSTEM.norm>
0

>  <SCORE.heavy>
42

>  <SCORE.norm>
0.190298

>  <RMSD>
8.517

$$$$
1j7t
 OpenBabel11021811393D
libRbt.so/2013.1/901 2013/11/27
 42 45  0  0  0  0  0  0  0  0999 V2000
   27.9621    4.9641   58.9736 C   0  0  2  0  0  0  0  0  0  0  0  0
   29.2007    4.2528   59.2236 O   0  0  0  0  0  0  0  0  0  0  0  0
   27.5981    5.7127   60.2878 C   0  0  2  0  0  0  0  0  0  0  0  0
   28.6851    6.5793   60.8274 N   0  3  0  0  0  0  0  0  0  0  0  0
   27.2541    4.6568   61.3609 C   0  0  1  0  0  0  0  0  0  0  0  0
   26.9013    5.2752   62.5662 O   0  0  0  0  0  0  0  0  0  0  0  0
   26.1088    3.7452   60.8602 C   0  0  2  0  0  0  0  0  0  0  0  0
   25.7634    2.7836   61.8376 O   0  0  0  0  0  0  0  0  0  0  0  0
   26.5344    3.0343   59.5931 C   0  0  2  0  0  0  0  0  0  0  0  0
   26.9229    3.9974   58.6219 O   0  0  0  0  0  0  0  0  0  0  0  0
   25.4264    2.2119   58.9743 C   0  0  0  0  0  0  0  0  0  0  0  0
   24.3419    3.0569   58.6412 O   0  0  0  0  0  0  0  0  0  0  0  0
   33.1970    4.6166   57.9022 C   0  0  2  0  0  0  0  0  0  0  0  0
   34.3611    4.7326   57.0232 N   0  3  0  0  0  0  0  0  0  0  0  0
   32.4685    3.2555   57.6468 C   0  0  0  0  0  0  0  0  0  0  0  0
   31.2145    3.1508   58.5356 C   0  0  2  0  0  0  0  0  0  0  0  0
   30.4893    1.9039   58.2702 N   0  3  0  0  0  0  0  0  0  0  0  0
   30.2793    4.3503   58.2863 C   0  0  2  0  0  0  0  0  0  0  0  0
   30.9790    5.7062   58.5040 C   0  0  2  0  0  0  0  0  0  0  0  0
   30.0368    6.7123   58.0852 O   0  0  0  0  0  0  0  0  0  0  0  0
   32.2669    5.7918   57.6462 C   0  0  1  0  0  0  0  0  0  0  0  0
   32.9357    6.9880   57.9373 O   0  0  0  0  0  0  0  0  0  0  0  0
   30.0264    7.2852   56.7803 C   0  0  1  0  0  0  0  0  0  0  0  0
   28.5391    7.5935   56.3817 C   0  0  2  0  0  0  0  0  0  0  0  0
   27.8726    6.5073   55.7614 O   0  0  0  0  0  0  0  0  0  0  0  0
   28.7973    8.7861   55.4717 C   0  0  2  0  0  0  0  0  0  0  0  0
   29.4723    8.3753   54.2447 O   0  0  0  0  0  0  0  0  0  0  0  0
   29.7815    9.6179   56.2821 C   0  0  2  0  0  0  0  0  0  0  0  0
   30.6597    8.5937   56.7796 O   0  0  0  0  0  0  0  0  0  0  0  0
   29.1387   10.4696   57.4255 C   0  0  0  0  0  0  0  0  0  0  0  0
   27.9274   11.1039   56.9959 O   0  0  0  0  0  0  0  0  0  0  0  0
   28.6325    8.3757   53.0931 C   0  0  2  0  0  0  0  0  0  0  0  0
   28.2304    6.9527   52.5756 C   0  0  2  0  0  0  0  0  0  0  0  0
   29.4121    6.1030   52.2364 N   0  3  0  0  0  0  0  0  0  0  0  0
   27.2993    7.1626   51.3352 C   0  0  1  0  0  0  0  0  0  0  0  0
   26.0862    7.8615   51.8123 O   0  0  0  0  0  0  0  0  0  0  0  0
   27.9779    8.0368   50.2097 C   0  0  2  0  0  0  0  0  0  0  0  0
   29.1233    7.3282   49.7092 O   0  0  0  0  0  0  0  0  0  0  0  0
   28.3813    9.4319   50.8445 C   0  0  1  0  0  0  0  0  0  0  0  0
   29.2625    9.1606   51.9861 O   0  0  0  0  0  0  0  0  0  0  0  0
   29.0789   10.4043   49.8664 C   0  0  0  0  0  0  0  0  0  0  0  0
   30.5635   10.3813   49.9673 N   0  3  0  0  0  0  0  0  0  0  0  0
  1  2  1  1  0  0  0
  1  3  1  0  0  0  0
  1 10  1  0  0  0  0
  3  4  1  1  0  0  0
  3  5  1  0  0  0  0
  5  6  1  1  0  0  0
  5  7  1  0  0  0  0
  7  8  1  1  0  0  0
  7  9  1  0  0  0  0
  9 10  1  0  0  0  0
  9 11  1  6  0  0  0
 11 12  1  0  0  0  0
 13 14  1  6  0  0  0
 13 15  1  0  0  0  0
 13 21  1  0  0  0  0
 15 16  1  0  0  0  0
 16 17  1  6  0  0  0
 16 18  1  0  0  0  0
 18  2  1  1  0  0  0
 18 19  1  0  0  0  0
 19 20  1  6  0  0  0
 19 21  1  0  0  0  0
 21 22  1  1  0  0  0
 23 20  1  1  0  0  0
 23 24  1  0  0  0  0
 23 29  1  0  0  0  0
 24 25  1  6  0  0  0
 24 26  1  0  0  0  0
 26 27  1  6  0  0  0
 26 28  1  0  0  0  0
 28 29  1  0  0  0  0
 28 30  1  1  0  0  0
 30 31  1  0  0  0  0
 32 27  1  1  0  0  0
 32 33  1  0  0  0  0
 32 40  1  0  0  0  0
 33 34  1  6  0  0  0
 33 35  1  0  0  0  0
 35 36  1  1  0  0  0
 35 37  1  0  0  0  0
 37 38  1  1  0  0  0
 37 39  1  0  0  0  0
 39 40  1  0  0  0  0
 39 41  1  6  0  0  0
 41 42  1  0  0  0  0
M  CHG  5   4   1  14   1  17   1  34   1  42   1
M  END
>  <CHROM.1>
-131.66665839,-160.29015638,149.37081180,59.42463813,172.23663871,60.31637986
179.16560512,-61.55867802,-74.93081002,-94.89659250,145.90082908,-59.00800161
65.07799499,106.12566027,-107.15167726,-42.68754763,66.62192225,-70.59429073
-168.60063317,76.79157924,-97.04055385,-145.80978238,28.97299040,6.35409228
56.45372085,1.66920561,0.09193373,2.07795769

>  <Name>
1j7t

>  <RI>
0

>  <Rbt.Current_Directory>
/home/itssahil/PROJECTS/Mol_Feturizer/New_Systems/rnas/1j7t

>  <Rbt.Executable>
rbdock ($Id: //depot/dev/client3/rdock/2013.1/src/exe/rbdock.cxx#4 $)

>  <Rbt.Library>
libRbt.so (2013.1, Build901 2013/11/27)

>  <Rbt.Parameter_File>
/export/apps/rDock/src/rDock_2013.1_src/data/scripts/dock_solv.prm

>  <Rbt.Receptor>
prm/pocket_docking_3.prm

>  <SCORE>
-40.4158

>  <SCORE.INTER>
-37.0867

>  <SCORE.INTER.CONST>
1

>  <SCORE.INTER.POLAR>
-4.97549

>  <SCORE.INTER.ROT>
9

>  <SCORE.INTER.SOLV>
22.5199

>  <SCORE.INTER.VDW>
-25.2461

>  <SCORE.INTER.norm>
-0.883016

>  <SCORE.INTRA>
-5.43795

>  <SCORE.INTRA.DIHEDRAL>
-4.28138

>  <SCORE.INTRA.DIHEDRAL.0>
46.2143

>  <SCORE.INTRA.POLAR>
-0.375005

>  <SCORE.INTRA.POLAR.0>
-1.76436

>  <SCORE.INTRA.REPUL>
0

>  <SCORE.INTRA.REPUL.0>
0

>  <SCORE.INTRA.SOLV>
-1.96973

>  <SCORE.INTRA.SOLV.lig_0>
-148.643

>  <SCORE.INTRA.VDW>
-1.03738

>  <SCORE.INTRA.VDW.0>
-4.83512

>  <SCORE.INTRA.norm>
-0.129475

>  <SCORE.RESTR>
2.10883

>  <SCORE.RESTR.CAVITY>
2.10883

>  <SCORE.RESTR.norm>
0.0502102

>  <SCORE.SYSTEM>
0

>  <SCORE.SYSTEM.CONST>
0

>  <SCORE.SYSTEM.DIHEDRAL>
0

>  <SCORE.SYSTEM.SOLV>
0

>  <SCORE.SYSTEM.norm>
0

>  <SCORE.heavy>
42

>  <SCORE.norm>
-0.962281

>  <RMSD>
8.564

$$$$
1j7t
 OpenBabel11021811393D
libRbt.so/2013.1/901 2013/11/27
 42 45  0  0  0  0  0  0  0  0999 V2000
   28.1412    7.4562   59.6692 C   0  0  2  0  0  0  0  0  0  0  0  0
   26.8385    7.6045   60.2885 O   0  0  0  0  0  0  0  0  0  0  0  0
   29.0942    8.4626   60.3754 C   0  0  2  0  0  0  0  0  0  0  0  0
   29.1239    8.3476   61.8619 N   0  3  0  0  0  0  0  0  0  0  0  0
   28.6315    9.8919   60.0178 C   0  0  1  0  0  0  0  0  0  0  0  0
   29.4656   10.8444   60.6149 O   0  0  0  0  0  0  0  0  0  0  0  0
   28.6091   10.0735   58.4815 C   0  0  2  0  0  0  0  0  0  0  0  0
   28.2083   11.3837   58.1326 O   0  0  0  0  0  0  0  0  0  0  0  0
   27.6510    9.0793   57.8605 C   0  0  2  0  0  0  0  0  0  0  0  0
   28.0263    7.7625   58.2440 O   0  0  0  0  0  0  0  0  0  0  0  0
   27.6593    9.1132   56.3486 C   0  0  0  0  0  0  0  0  0  0  0  0
   26.9555   10.2550   55.8989 O   0  0  0  0  0  0  0  0  0  0  0  0
   23.4285    5.1344   60.6334 C   0  0  2  0  0  0  0  0  0  0  0  0
   22.2923    4.2829   60.2795 N   0  3  0  0  0  0  0  0  0  0  0  0
   23.2310    6.5654   60.0320 C   0  0  0  0  0  0  0  0  0  0  0  0
   24.4481    7.4509   60.3610 C   0  0  2  0  0  0  0  0  0  0  0  0
   24.3041    8.7805   59.7589 N   0  3  0  0  0  0  0  0  0  0  0  0
   25.7438    6.7933   59.8469 C   0  0  2  0  0  0  0  0  0  0  0  0
   25.9503    5.3705   60.4021 C   0  0  2  0  0  0  0  0  0  0  0  0
   27.1008    4.8388   59.7171 O   0  0  0  0  0  0  0  0  0  0  0  0
   24.7055    4.4936   60.1135 C   0  0  1  0  0  0  0  0  0  0  0  0
   24.8761    3.2394   60.7144 O   0  0  0  0  0  0  0  0  0  0  0  0
   27.2231    4.8020   58.2976 C   0  0  1  0  0  0  0  0  0  0  0  0
   28.5315    4.0157   57.9291 C   0  0  2  0  0  0  0  0  0  0  0  0
   29.6929    4.8261   57.8714 O   0  0  0  0  0  0  0  0  0  0  0  0
   28.0803    3.4527   56.5887 C   0  0  2  0  0  0  0  0  0  0  0  0
   27.9450    4.5104   55.5924 O   0  0  0  0  0  0  0  0  0  0  0  0
   26.6843    2.9307   56.8985 C   0  0  2  0  0  0  0  0  0  0  0  0
   26.1641    4.0031   57.7030 O   0  0  0  0  0  0  0  0  0  0  0  0
   26.6452    1.5509   57.6336 C   0  0  0  0  0  0  0  0  0  0  0  0
   26.8595    1.6960   59.0432 O   0  0  0  0  0  0  0  0  0  0  0  0
   27.6689    4.0359   54.2770 C   0  0  2  0  0  0  0  0  0  0  0  0
   28.1438    4.9859   53.1253 C   0  0  2  0  0  0  0  0  0  0  0  0
   27.5453    6.3522   53.2158 N   0  3  0  0  0  0  0  0  0  0  0  0
   27.7767    4.2866   51.7741 C   0  0  1  0  0  0  0  0  0  0  0  0
   28.5502    3.0276   51.7089 O   0  0  0  0  0  0  0  0  0  0  0  0
   26.2398    3.9430   51.6682 C   0  0  2  0  0  0  0  0  0  0  0  0
   25.4953    5.1720   51.6743 O   0  0  0  0  0  0  0  0  0  0  0  0
   25.8554    3.0171   52.8958 C   0  0  1  0  0  0  0  0  0  0  0  0
   26.2107    3.7389   54.1230 O   0  0  0  0  0  0  0  0  0  0  0  0
   24.3671    2.6033   52.9462 C   0  0  0  0  0  0  0  0  0  0  0  0
   24.0314    1.7422   54.1127 N   0  3  0  0  0  0  0  0  0  0  0  0
  1  2  1  1  0  0  0
  1  3  1  0  0  0  0
  1 10  1  0  0  0  0
  3  4  1  1  0  0  0
  3  5  1  0  0  0  0
  5  6  1  1  0  0  0
  5  7  1  0  0  0  0
  7  8  1  1  0  0  0
  7  9  1  0  0  0  0
  9 10  1  0  0  0  0
  9 11  1  6  0  0  0
 11 12  1  0  0  0  0
 13 14  1  6  0  0  0
 13 15  1  0  0  0  0
 13 21  1  0  0  0  0
 15 16  1  0  0  0  0
 16 17  1  6  0  0  0
 16 18  1  0  0  0  0
 18  2  1  1  0  0  0
 18 19  1  0  0  0  0
 19 20  1  6  0  0  0
 19 21  1  0  0  0  0
 21 22  1  1  0  0  0
 23 20  1  1  0  0  0
 23 24  1  0  0  0  0
 23 29  1  0  0  0  0
 24 25  1  6  0  0  0
 24 26  1  0  0  0  0
 26 27  1  6  0  0  0
 26 28  1  0  0  0  0
 28 29  1  0  0  0  0
 28 30  1  1  0  0  0
 30 31  1  0  0  0  0
 32 27  1  1  0  0  0
 32 33  1  0  0  0  0
 32 40  1  0  0  0  0
 33 34  1  1  0  0  0
 33 35  1  0  0  0  0
 35 36  1  1  0  0  0
 35 37  1  0  0  0  0
 37 38  1  1  0  0  0
 37 39  1  0  0  0  0
 39 40  1  0  0  0  0
 39 41  1  1  0  0  0
 41 42  1  0  0  0  0
M  CHG  5   4   1  14   1  17   1  34   1  42   1
M  END
>  <CHROM.1>
-179.66129076,-163.26203212,57.37716030,-168.11189258,-60.78516226,-75.62881573
-174.73228785,71.07570365,-45.01054599,-53.57070007,-173.87705548,70.79961509
-61.27589673,173.42253178,-153.58285383,81.32436489,-83.84642957,-69.54251246
-58.42593628,72.97221249,-179.61776558,71.81224321,26.75970242,5.78125596
57.34799315,-1.39887448,-1.02369677,-2.07880121

>  <Name>
1j7t

>  <RI>
0

>  <Rbt.Current_Directory>
/home/itssahil/PROJECTS/Mol_Feturizer/New_Systems/rnas/1j7t

>  <Rbt.Executable>
rbdock ($Id: //depot/dev/client3/rdock/2013.1/src/exe/rbdock.cxx#4 $)

>  <Rbt.Library>
libRbt.so (2013.1, Build901 2013/11/27)

>  <Rbt.Parameter_File>
/export/apps/rDock/src/rDock_2013.1_src/data/scripts/dock_solv.prm

>  <Rbt.Receptor>
prm/pocket_docking_5.prm

>  <SCORE>
-28.162

>  <SCORE.INTER>
-12.7614

>  <SCORE.INTER.CONST>
1

>  <SCORE.INTER.POLAR>
-2.87482

>  <SCORE.INTER.ROT>
9

>  <SCORE.INTER.SOLV>
10.1428

>  <SCORE.INTER.VDW>
-11.9058

>  <SCORE.INTER.norm>
-0.303844

>  <SCORE.INTRA>
-15.4006

>  <SCORE.INTRA.DIHEDRAL>
-32.3999

>  <SCORE.INTRA.DIHEDRAL.0>
46.2143

>  <SCORE.INTRA.POLAR>
1.11182

>  <SCORE.INTRA.POLAR.0>
-1.76436

>  <SCORE.INTRA.REPUL>
0.238933

>  <SCORE.INTRA.REPUL.0>
0

>  <SCORE.INTRA.SOLV>
-2.9278

>  <SCORE.INTRA.SOLV.lig_0>
-148.643

>  <SCORE.INTRA.VDW>
-2.7116

>  <SCORE.INTRA.VDW.0>
-4.83512

>  <SCORE.INTRA.norm>
-0.366681

>  <SCORE.RESTR>
0

>  <SCORE.RESTR.CAVITY>
0

>  <SCORE.RESTR.norm>
0

>  <SCORE.SYSTEM>
0

>  <SCORE.SYSTEM.CONST>
0

>  <SCORE.SYSTEM.DIHEDRAL>
0

>  <SCORE.SYSTEM.SOLV>
0

>  <SCORE.SYSTEM.norm>
0

>  <SCORE.heavy>
42

>  <SCORE.norm>
-0.670525

>  <RMSD>
8.564

$$$$
1j7t
 OpenBabel11021811393D
libRbt.so/2013.1/901 2013/11/27
 42 45  0  0  0  0  0  0  0  0999 V2000
   28.2102    5.4990   59.2328 C   0  0  2  0  0  0  0  0  0  0  0  0
   27.0505    4.6915   58.9080 O   0  0  0  0  0  0  0  0  0  0  0  0
   28.1131    5.8400   60.7476 C   0  0  2  0  0  0  0  0  0  0  0  0
   27.9420    4.6564   61.6383 N   0  3  0  0  0  0  0  0  0  0  0  0
   26.8970    6.7695   60.9522 C   0  0  1  0  0  0  0  0  0  0  0  0
   26.7686    7.1243   62.3002 O   0  0  0  0  0  0  0  0  0  0  0  0
   27.0385    8.0308   60.0676 C   0  0  2  0  0  0  0  0  0  0  0  0
   25.9445    8.9065   60.2561 O   0  0  0  0  0  0  0  0  0  0  0  0
   27.1084    7.6305   58.6092 C   0  0  2  0  0  0  0  0  0  0  0  0
   28.1818    6.7166   58.4237 O   0  0  0  0  0  0  0  0  0  0  0  0
   27.3653    8.7999   57.6853 C   0  0  0  0  0  0  0  0  0  0  0  0
   27.3663    8.3496   56.3442 O   0  0  0  0  0  0  0  0  0  0  0  0
   26.4260    1.0330   56.8897 C   0  0  2  0  0  0  0  0  0  0  0  0
   26.4554   -0.0023   55.8560 N   0  3  0  0  0  0  0  0  0  0  0  0
   25.6636    2.2932   56.3615 C   0  0  0  0  0  0  0  0  0  0  0  0
   25.6727    3.4040   57.4292 C   0  0  2  0  0  0  0  0  0  0  0  0
   25.0085    4.6127   56.9305 N   0  3  0  0  0  0  0  0  0  0  0  0
   27.1199    3.7451   57.8351 C   0  0  2  0  0  0  0  0  0  0  0  0
   27.9041    2.5157   58.3339 C   0  0  2  0  0  0  0  0  0  0  0  0
   29.2621    2.9584   58.5211 O   0  0  0  0  0  0  0  0  0  0  0  0
   27.8538    1.3806   57.2799 C   0  0  1  0  0  0  0  0  0  0  0  0
   28.4859    0.2425   57.7979 O   0  0  0  0  0  0  0  0  0  0  0  0
   29.9270    3.8526   57.6325 C   0  0  1  0  0  0  0  0  0  0  0  0
   31.4716    3.5808   57.7134 C   0  0  2  0  0  0  0  0  0  0  0  0
   32.1327    4.3158   58.7292 O   0  0  0  0  0  0  0  0  0  0  0  0
   31.8411    3.9835   56.2926 C   0  0  2  0  0  0  0  0  0  0  0  0
   31.6890    5.4216   56.0968 O   0  0  0  0  0  0  0  0  0  0  0  0
   30.7719    3.2899   55.4601 C   0  0  2  0  0  0  0  0  0  0  0  0
   29.5985    3.5534   56.2484 O   0  0  0  0  0  0  0  0  0  0  0  0
   31.0095    1.7624   55.2234 C   0  0  0  0  0  0  0  0  0  0  0  0
   32.3217    1.5045   54.7081 O   0  0  0  0  0  0  0  0  0  0  0  0
   31.7643    5.8323   54.7341 C   0  0  2  0  0  0  0  0  0  0  0  0
   33.2202    5.9856   54.1761 C   0  0  2  0  0  0  0  0  0  0  0  0
   34.0417    6.9597   54.9569 N   0  3  0  0  0  0  0  0  0  0  0  0
   33.0931    6.4143   52.6762 C   0  0  1  0  0  0  0  0  0  0  0  0
   32.4178    5.3095   51.9614 O   0  0  0  0  0  0  0  0  0  0  0  0
   32.2424    7.7311   52.4928 C   0  0  2  0  0  0  0  0  0  0  0  0
   32.9308    8.8136   53.1402 O   0  0  0  0  0  0  0  0  0  0  0  0
   30.8096    7.4848   53.1240 C   0  0  1  0  0  0  0  0  0  0  0  0
   31.0038    7.1040   54.5278 O   0  0  0  0  0  0  0  0  0  0  0  0
   29.8542    8.6969   53.0395 C   0  0  0  0  0  0  0  0  0  0  0  0
   28.4795    8.4019   53.5272 N   0  3  0  0  0  0  0  0  0  0  0  0
  1  2  1  6  0  0  0
  1  3  1  0  0  0  0
  1 10  1  0  0  0  0
  3  4  1  1  0  0  0
  3  5  1  0  0  0  0
  5  6  1  1  0  0  0
  5  7  1  0  0  0  0
  7  8  1  6  0  0  0
  7  9  1  0  0  0  0
  9 10  1  0  0  0  0
  9 11  1  6  0  0  0
 11 12  1  0  0  0  0
 13 14  1  6  0  0  0
 13 15  1  0  0  0  0
 13 21  1  0  0  0  0
 15 16  1  0  0  0  0
 16 17  1  6  0  0  0
 16 18  1  0  0  0  0
 18  2  1  1  0  0  0
 18 19  1  0  0  0  0
 19 20  1  6  0  0  0
 19 21  1  0  0  0  0
 21 22  1  1  0  0  0
 23 20  1  1  0  0  0
 23 24  1  0  0  0  0
 23 29  1  0  0  0  0
 24 25  1  1  0  0  0
 24 26  1  0  0  0  0
 26 27  1  1  0  0  0
 26 28  1  0  0  0  0
 28 29  1  0  0  0  0
 28 30  1  1  0  0  0
 30 31  1  0  0  0  0
 32 27  1  1  0  0  0
 32 33  1  0  0  0  0
 32 40  1  0  0  0  0
 33 34  1  1  0  0  0
 33 35  1  0  0  0  0
 35 36  1  6  0  0  0
 35 37  1  0  0  0  0
 37 38  1  1  0  0  0
 37 39  1  0  0  0  0
 39 40  1  0  0  0  0
 39 41  1  1  0  0  0
 41 42  1  0  0  0  0
M  CHG  5   4   1  14   1  17   1  34   1  42   1
M  END
>  <CHROM.1>
-151.96303350,-161.41165740,157.12895421,-173.78671915,-170.07530046,-177.84026700
61.64238305,-67.29841890,63.07320498,-39.62062894,-153.10066760,-137.61145381
150.57734466,-168.43291021,-81.50402768,-51.91362072,-57.15240231,34.19761715
64.06740482,68.28950588,174.81477354,-49.06244662,29.24828664,5.14221863
56.78372195,2.97135163,-0.82153965,-3.09984642

>  <Name>
1j7t

>  <RI>
0

>  <Rbt.Current_Directory>
/home/itssahil/PROJECTS/Mol_Feturizer/New_Systems/rnas/1j7t

>  <Rbt.Executable>
rbdock ($Id: //depot/dev/client3/rdock/2013.1/src/exe/rbdock.cxx#4 $)

>  <Rbt.Library>
libRbt.so (2013.1, Build901 2013/11/27)

>  <Rbt.Parameter_File>
/export/apps/rDock/src/rDock_2013.1_src/data/scripts/dock_solv.prm

>  <Rbt.Receptor>
prm/pocket_docking_5.prm

>  <SCORE>
-39.3779

>  <SCORE.INTER>
-30.1654

>  <SCORE.INTER.CONST>
1

>  <SCORE.INTER.POLAR>
-6.59267

>  <SCORE.INTER.ROT>
9

>  <SCORE.INTER.SOLV>
18.9869

>  <SCORE.INTER.VDW>
-14.0636

>  <SCORE.INTER.norm>
-0.718223

>  <SCORE.INTRA>
-9.22095

>  <SCORE.INTRA.DIHEDRAL>
-19.7672

>  <SCORE.INTRA.DIHEDRAL.0>
46.2143

>  <SCORE.INTRA.POLAR>
0.0760126

>  <SCORE.INTRA.POLAR.0>
-1.76436

>  <SCORE.INTRA.REPUL>
0.127083

>  <SCORE.INTRA.REPUL.0>
0

>  <SCORE.INTRA.SOLV>
-4.10793

>  <SCORE.INTRA.SOLV.lig_0>
-148.643

>  <SCORE.INTRA.VDW>
1.82277

>  <SCORE.INTRA.VDW.0>
-4.83512

>  <SCORE.INTRA.norm>
-0.219546

>  <SCORE.RESTR>
0.00838918

>  <SCORE.RESTR.CAVITY>
0.00838918

>  <SCORE.RESTR.norm>
0.000199742

>  <SCORE.SYSTEM>
0

>  <SCORE.SYSTEM.CONST>
0

>  <SCORE.SYSTEM.DIHEDRAL>
0

>  <SCORE.SYSTEM.SOLV>
0

>  <SCORE.SYSTEM.norm>
0

>  <SCORE.heavy>
42

>  <SCORE.norm>
-0.937569

>  <RMSD>
8.576

$$$$
1j7t
 OpenBabel11021811393D
libRbt.so/2013.1/901 2013/11/27
 42 45  0  0  0  0  0  0  0  0999 V2000
   25.7102    6.7450   60.1339 C   0  0  2  0  0  0  0  0  0  0  0  0
   26.2308    6.4470   58.8138 O   0  0  0  0  0  0  0  0  0  0  0  0
   24.2150    7.1343   59.9523 C   0  0  2  0  0  0  0  0  0  0  0  0
   23.4021    6.1342   59.2022 N   0  3  0  0  0  0  0  0  0  0  0  0
   24.1584    8.4699   59.1790 C   0  0  1  0  0  0  0  0  0  0  0  0
   22.8321    8.8800   58.9992 O   0  0  0  0  0  0  0  0  0  0  0  0
   24.9668    9.5533   59.9316 C   0  0  2  0  0  0  0  0  0  0  0  0
   24.9101   10.7912   59.2507 O   0  0  0  0  0  0  0  0  0  0  0  0
   26.4124    9.1214   60.0569 C   0  0  2  0  0  0  0  0  0  0  0  0
   26.4705    7.8564   60.7037 O   0  0  0  0  0  0  0  0  0  0  0  0
   27.2459   10.0741   60.8844 C   0  0  0  0  0  0  0  0  0  0  0  0
   28.4248    9.4194   61.3121 O   0  0  0  0  0  0  0  0  0  0  0  0
   29.5655    4.1583   60.0346 C   0  0  2  0  0  0  0  0  0  0  0  0
   30.8309    3.4243   59.9987 N   0  3  0  0  0  0  0  0  0  0  0  0
   28.5262    3.4774   59.0834 C   0  0  0  0  0  0  0  0  0  0  0  0
   27.2082    4.2752   59.0809 C   0  0  2  0  0  0  0  0  0  0  0  0
   26.2402    3.6811   58.1529 N   0  3  0  0  0  0  0  0  0  0  0  0
   27.4695    5.7404   58.6800 C   0  0  2  0  0  0  0  0  0  0  0  0
   28.5109    6.4285   59.5840 C   0  0  2  0  0  0  0  0  0  0  0  0
   28.7593    7.7192   58.9944 O   0  0  0  0  0  0  0  0  0  0  0  0
   29.8201    5.6001   59.6248 C   0  0  1  0  0  0  0  0  0  0  0  0
   30.7116    6.1916   60.5295 O   0  0  0  0  0  0  0  0  0  0  0  0
   29.6230    7.9210   57.8788 C   0  0  1  0  0  0  0  0  0  0  0  0
   28.7836    8.5333   56.7013 C   0  0  2  0  0  0  0  0  0  0  0  0
   28.1638    7.5650   55.8723 O   0  0  0  0  0  0  0  0  0  0  0  0
   29.8936    9.3300   56.0302 C   0  0  2  0  0  0  0  0  0  0  0  0
   30.8773    8.4456   55.4139 O   0  0  0  0  0  0  0  0  0  0  0  0
   30.5684   10.0199   57.2074 C   0  0  2  0  0  0  0  0  0  0  0  0
   30.6127    8.9470   58.1638 O   0  0  0  0  0  0  0  0  0  0  0  0
   29.8190   11.2810   57.7494 C   0  0  0  0  0  0  0  0  0  0  0  0
   30.6629   12.4394   57.7481 O   0  0  0  0  0  0  0  0  0  0  0  0
   30.7297    8.3081   54.0029 C   0  0  2  0  0  0  0  0  0  0  0  0
   31.5358    7.1216   53.3729 C   0  0  2  0  0  0  0  0  0  0  0  0
   33.0039    7.2121   53.6373 N   0  3  0  0  0  0  0  0  0  0  0  0
   31.2277    7.1222   51.8384 C   0  0  1  0  0  0  0  0  0  0  0  0
   29.7810    6.8571   51.6828 O   0  0  0  0  0  0  0  0  0  0  0  0
   31.5662    8.5034   51.1535 C   0  0  2  0  0  0  0  0  0  0  0  0
   32.9814    8.7300   51.2568 O   0  0  0  0  0  0  0  0  0  0  0  0
   30.7347    9.6353   51.8880 C   0  0  1  0  0  0  0  0  0  0  0  0
   31.0838    9.5873   53.3125 O   0  0  0  0  0  0  0  0  0  0  0  0
   30.9700   11.0617   51.3410 C   0  0  0  0  0  0  0  0  0  0  0  0
   31.7188   11.0863   50.0552 N   0  3  0  0  0  0  0  0  0  0  0  0
  1  2  1  6  0  0  0
  1  3  1  0  0  0  0
  1 10  1  0  0  0  0
  3  4  1  6  0  0  0
  3  5  1  0  0  0  0
  5  6  1  1  0  0  0
  5  7  1  0  0  0  0
  7  8  1  6  0  0  0
  7  9  1  0  0  0  0
  9 10  1  0  0  0  0
  9 11  1  1  0  0  0
 11 12  1  0  0  0  0
 13 14  1  6  0  0  0
 13 15  1  0  0  0  0
 13 21  1  0  0  0  0
 15 16  1  0  0  0  0
 16 17  1  6  0  0  0
 16 18  1  0  0  0  0
 18  2  1  1  0  0  0
 18 19  1  0  0  0  0
 19 20  1  6  0  0  0
 19 21  1  0  0  0  0
 21 22  1  1  0  0  0
 23 20  1  1  0  0  0
 23 24  1  0  0  0  0
 23 29  1  0  0  0  0
 24 25  1  6  0  0  0
 24 26  1  0  0  0  0
 26 27  1  1  0  0  0
 26 28  1  0  0  0  0
 28 29  1  0  0  0  0
 28 30  1  1  0  0  0
 30 31  1  0  0  0  0
 32 27  1  1  0  0  0
 32 33  1  0  0  0  0
 32 40  1  0  0  0  0
 33 34  1  6  0  0  0
 33 35  1  0  0  0  0
 35 36  1  1  0  0  0
 35 37  1  0  0  0  0
 37 38  1  1  0  0  0
 37 39  1  0  0  0  0
 39 40  1  0  0  0  0
 39 41  1  6  0  0  0
 41 42  1  0  0  0  0
M  CHG  5   4   1  14   1  17   1  34   1  42   1
M  END
>  <CHROM.1>
-164.31295732,72.40149196,87.64838669,62.18180006,71.62420355,161.40631977
49.04317761,-172.36030148,-134.71259223,-80.01608322,119.42859470,-53.20934752
-177.45670309,101.08252964,-166.09908669,-123.98268335,-161.00318025,-117.27764088
54.67578755,137.43818485,11.60931558,159.82124306,28.74614942,7.89744888
57.08888985,2.51582062,-0.80103381,2.60573349

>  <Name>
1j7t

>  <RI>
224

>  <Rbt.Current_Directory>
/home/itssahil/PROJECTS/Mol_Feturizer/New_Systems/rnas/1j7t

>  <Rbt.Executable>
rbdock ($Id: //depot/dev/client3/rdock/2013.1/src/exe/rbdock.cxx#4 $)

>  <Rbt.Library>
libRbt.so (2013.1, Build901 2013/11/27)

>  <Rbt.Parameter_File>
/export/apps/rDock/src/rDock_2013.1_src/data/scripts/dock_solv.prm

>  <Rbt.Receptor>
prm/pocket_docking_7.prm

>  <SCORE>
-48.5467

>  <SCORE.INTER>
-49.6224

>  <SCORE.INTER.CONST>
1

>  <SCORE.INTER.POLAR>
-9.07564

>  <SCORE.INTER.ROT>
9

>  <SCORE.INTER.SOLV>
25.6105

>  <SCORE.INTER.VDW>
-20.9663

>  <SCORE.INTER.norm>
-1.18149

>  <SCORE.INTRA>
1.07565

>  <SCORE.INTRA.DIHEDRAL>
0.705223

>  <SCORE.INTRA.DIHEDRAL.0>
46.2143

>  <SCORE.INTRA.POLAR>
0.125668

>  <SCORE.INTRA.POLAR.0>
-1.76436

>  <SCORE.INTRA.REPUL>
0

>  <SCORE.INTRA.REPUL.0>
0

>  <SCORE.INTRA.SOLV>
-1.78807

>  <SCORE.INTRA.SOLV.lig_0>
-148.643

>  <SCORE.INTRA.VDW>
1.1898

>  <SCORE.INTRA.VDW.0>
-4.83512

>  <SCORE.INTRA.norm>
0.0256107

>  <SCORE.RESTR>
0

>  <SCORE.RESTR.CAVITY>
0

>  <SCORE.RESTR.norm>
0

>  <SCORE.SYSTEM>
0

>  <SCORE.SYSTEM.CONST>
0

>  <SCORE.SYSTEM.DIHEDRAL>
0

>  <SCORE.SYSTEM.SOLV>
0

>  <SCORE.SYSTEM.norm>
0

>  <SCORE.heavy>
42

>  <SCORE.norm>
-1.15587

>  <RMSD>
8.608

$$$$
1j7t
 OpenBabel11021811393D
libRbt.so/2013.1/901 2013/11/27
 42 45  0  0  0  0  0  0  0  0999 V2000
   32.6292   11.7171   49.3730 C   0  0  2  0  0  0  0  0  0  0  0  0
   31.9990   12.6450   48.4540 O   0  0  0  0  0  0  0  0  0  0  0  0
   33.3720   12.5721   50.4394 C   0  0  2  0  0  0  0  0  0  0  0  0
   32.5219   13.5949   51.1138 N   0  3  0  0  0  0  0  0  0  0  0  0
   34.5353   13.3072   49.7384 C   0  0  1  0  0  0  0  0  0  0  0  0
   35.2528   14.0833   50.6562 O   0  0  0  0  0  0  0  0  0  0  0  0
   35.4660   12.2856   49.0430 C   0  0  2  0  0  0  0  0  0  0  0  0
   36.5510   12.9370   48.4123 O   0  0  0  0  0  0  0  0  0  0  0  0
   34.6872   11.5026   48.0074 C   0  0  2  0  0  0  0  0  0  0  0  0
   33.5708   10.8803   48.6306 O   0  0  0  0  0  0  0  0  0  0  0  0
   35.4988   10.4008   47.3637 C   0  0  0  0  0  0  0  0  0  0  0  0
   36.5885   10.9668   46.6613 O   0  0  0  0  0  0  0  0  0  0  0  0
   28.6731   12.9548   45.8674 C   0  0  2  0  0  0  0  0  0  0  0  0
   27.5633   12.5887   44.9868 N   0  3  0  0  0  0  0  0  0  0  0  0
   30.0257   12.4606   45.2553 C   0  0  0  0  0  0  0  0  0  0  0  0
   31.1918   12.8009   46.2030 C   0  0  2  0  0  0  0  0  0  0  0  0
   32.4618   12.2970   45.6698 N   0  3  0  0  0  0  0  0  0  0  0  0
   30.9441   12.1925   47.5973 C   0  0  2  0  0  0  0  0  0  0  0  0
   29.6044   12.6409   48.2132 C   0  0  2  0  0  0  0  0  0  0  0  0
   29.4471   11.8765   49.4242 O   0  0  0  0  0  0  0  0  0  0  0  0
   28.4368   12.3425   47.2389 C   0  0  1  0  0  0  0  0  0  0  0  0
   27.2466   12.8493   47.7771 O   0  0  0  0  0  0  0  0  0  0  0  0
   30.2729   10.7664   49.7660 C   0  0  1  0  0  0  0  0  0  0  0  0
   30.1054   10.4725   51.2995 C   0  0  2  0  0  0  0  0  0  0  0  0
   30.9892   11.2098   52.1267 O   0  0  0  0  0  0  0  0  0  0  0  0
   30.3656    8.9730   51.2664 C   0  0  2  0  0  0  0  0  0  0  0  0
   31.7605    8.6879   50.9458 O   0  0  0  0  0  0  0  0  0  0  0  0
   29.5191    8.5129   50.0878 C   0  0  2  0  0  0  0  0  0  0  0  0
   29.7994    9.5480   49.1298 O   0  0  0  0  0  0  0  0  0  0  0  0
   27.9916    8.3684   50.3907 C   0  0  0  0  0  0  0  0  0  0  0  0
   27.7510    8.0851   51.7749 O   0  0  0  0  0  0  0  0  0  0  0  0
   32.3138    7.5999   51.6817 C   0  0  2  0  0  0  0  0  0  0  0  0
   31.4576    7.1374   52.9095 C   0  0  2  0  0  0  0  0  0  0  0  0
   31.2159    8.2345   53.8951 N   0  3  0  0  0  0  0  0  0  0  0  0
   32.2109    5.9322   53.5652 C   0  0  1  0  0  0  0  0  0  0  0  0
   32.2463    4.8427   52.5656 O   0  0  0  0  0  0  0  0  0  0  0  0
   33.6921    6.2938   53.9733 C   0  0  2  0  0  0  0  0  0  0  0  0
   33.6514    7.3125   54.9859 O   0  0  0  0  0  0  0  0  0  0  0  0
   34.4555    6.7864   52.6746 C   0  0  1  0  0  0  0  0  0  0  0  0
   33.7061    7.9218   52.1245 O   0  0  0  0  0  0  0  0  0  0  0  0
   35.9263    7.1978   52.9120 C   0  0  0  0  0  0  0  0  0  0  0  0
   36.8311    6.8357   51.7874 N   0  3  0  0  0  0  0  0  0  0  0  0
  1  2  1  6  0  0  0
  1  3  1  0  0  0  0
  1 10  1  0  0  0  0
  3  4  1  6  0  0  0
  3  5  1  0  0  0  0
  5  6  1  1  0  0  0
  5  7  1  0  0  0  0
  7  8  1  6  0  0  0
  7  9  1  0  0  0  0
  9 10  1  0  0  0  0
  9 11  1  1  0  0  0
 11 12  1  0  0  0  0
 13 14  1  6  0  0  0
 13 15  1  0  0  0  0
 13 21  1  0  0  0  0
 15 16  1  0  0  0  0
 16 17  1  6  0  0  0
 16 18  1  0  0  0  0
 18  2  1  1  0  0  0
 18 19  1  0  0  0  0
 19 20  1  1  0  0  0
 19 21  1  0  0  0  0
 21 22  1  1  0  0  0
 23 20  1  6  0  0  0
 23 24  1  0  0  0  0
 23 29  1  0  0  0  0
 24 25  1  1  0  0  0
 24 26  1  0  0  0  0
 26 27  1  6  0  0  0
 26 28  1  0  0  0  0
 28 29  1  0  0  0  0
 28 30  1  1  0  0  0
 30 31  1  0  0  0  0
 32 27  1  1  0  0  0
 32 33  1  0  0  0  0
 32 40  1  0  0  0  0
 33 34  1  1  0  0  0
 33 35  1  0  0  0  0
 35 36  1  6  0  0  0
 35 37  1  0  0  0  0
 37 38  1  1  0  0  0
 37 39  1  0  0  0  0
 39 40  1  0  0  0  0
 39 41  1  1  0  0  0
 41 42  1  0  0  0  0
M  CHG  5   4   1  14   1  17   1  34   1  42   1
M  END
>  <CHROM.1>
-162.29488576,-137.21973407,-131.60565454,85.77017070,-58.58557585,-62.97551356
177.74829121,25.35424732,-69.14677253,-10.95055431,163.01650570,-132.00990748
62.38924384,140.80865292,-13.57160170,-27.13257472,82.48127013,-137.99627914
-53.28120276,-88.69899972,143.54006684,22.60267894,32.03640979,10.31183852
49.91739335,-1.90547830,0.08817235,2.35216086

>  <Name>
1j7t

>  <RI>
0

>  <Rbt.Current_Directory>
/home/itssahil/PROJECTS/Mol_Feturizer/New_Systems/rnas/1j7t

>  <Rbt.Executable>
rbdock ($Id: //depot/dev/client3/rdock/2013.1/src/exe/rbdock.cxx#4 $)

>  <Rbt.Library>
libRbt.so (2013.1, Build901 2013/11/27)

>  <Rbt.Parameter_File>
/export/apps/rDock/src/rDock_2013.1_src/data/scripts/dock_solv.prm

>  <Rbt.Receptor>
prm/blind_docking_80.prm

>  <SCORE>
5.49755

>  <SCORE.INTER>
-31.7979

>  <SCORE.INTER.CONST>
1

>  <SCORE.INTER.POLAR>
-5.61833

>  <SCORE.INTER.ROT>
9

>  <SCORE.INTER.SOLV>
44.2014

>  <SCORE.INTER.VDW>
-26.8047

>  <SCORE.INTER.norm>
-0.757093

>  <SCORE.INTRA>
22.8562

>  <SCORE.INTRA.DIHEDRAL>
13.5039

>  <SCORE.INTRA.DIHEDRAL.0>
46.2143

>  <SCORE.INTRA.POLAR>
1.59786

>  <SCORE.INTRA.POLAR.0>
-1.76436

>  <SCORE.INTRA.REPUL>
0.19593

>  <SCORE.INTRA.REPUL.0>
0

>  <SCORE.INTRA.SOLV>
2.67825

>  <SCORE.INTRA.SOLV.lig_0>
-148.643

>  <SCORE.INTRA.VDW>
8.35277

>  <SCORE.INTRA.VDW.0>
-4.83512

>  <SCORE.INTRA.norm>
0.544196

>  <SCORE.RESTR>
14.4392

>  <SCORE.RESTR.CAVITY>
14.4392

>  <SCORE.RESTR.norm>
0.343791

>  <SCORE.SYSTEM>
0

>  <SCORE.SYSTEM.CONST>
0

>  <SCORE.SYSTEM.DIHEDRAL>
0

>  <SCORE.SYSTEM.SOLV>
0

>  <SCORE.SYSTEM.norm>
0

>  <SCORE.heavy>
42

>  <SCORE.norm>
0.130894

>  <RMSD>
8.613

$$$$
1j7t
 OpenBabel11021811393D
libRbt.so/2013.1/901 2013/11/27
 42 45  0  0  0  0  0  0  0  0999 V2000
   28.2758    5.4725   59.1896 C   0  0  2  0  0  0  0  0  0  0  0  0
   27.2575    6.4401   58.8297 O   0  0  0  0  0  0  0  0  0  0  0  0
   28.8587    5.9193   60.5610 C   0  0  2  0  0  0  0  0  0  0  0  0
   27.8378    6.1350   61.6263 N   0  3  0  0  0  0  0  0  0  0  0  0
   29.6145    7.2493   60.3497 C   0  0  1  0  0  0  0  0  0  0  0  0
   30.1769    7.6936   61.5521 O   0  0  0  0  0  0  0  0  0  0  0  0
   30.7076    7.0725   59.2691 C   0  0  2  0  0  0  0  0  0  0  0  0
   31.4267    8.2743   59.0753 O   0  0  0  0  0  0  0  0  0  0  0  0
   30.0727    6.6570   57.9590 C   0  0  2  0  0  0  0  0  0  0  0  0
   29.3138    5.4714   58.1598 O   0  0  0  0  0  0  0  0  0  0  0  0
   31.0869    6.3494   56.8802 C   0  0  0  0  0  0  0  0  0  0  0  0
   31.7030    7.5502   56.4563 O   0  0  0  0  0  0  0  0  0  0  0  0
   24.0095    6.2623   56.1339 C   0  0  2  0  0  0  0  0  0  0  0  0
   23.2435    6.1539   54.8919 N   0  3  0  0  0  0  0  0  0  0  0  0
   24.9216    7.5330   56.0895 C   0  0  0  0  0  0  0  0  0  0  0  0
   25.7661    7.6242   57.3749 C   0  0  2  0  0  0  0  0  0  0  0  0
   26.6666    8.7808   57.3268 N   0  3  0  0  0  0  0  0  0  0  0  0
   26.5938    6.3379   57.5646 C   0  0  2  0  0  0  0  0  0  0  0  0
   25.7227    5.0667   57.5845 C   0  0  2  0  0  0  0  0  0  0  0  0
   26.6397    3.9558   57.6086 O   0  0  0  0  0  0  0  0  0  0  0  0
   24.8377    5.0000   56.3141 C   0  0  1  0  0  0  0  0  0  0  0  0
   23.9852    3.8918   56.4040 O   0  0  0  0  0  0  0  0  0  0  0  0
   27.7254    3.8127   56.6965 C   0  0  1  0  0  0  0  0  0  0  0  0
   28.1905    2.3128   56.7048 C   0  0  2  0  0  0  0  0  0  0  0  0
   29.1615    2.0169   57.6941 O   0  0  0  0  0  0  0  0  0  0  0  0
   28.6961    2.2307   55.2713 C   0  0  2  0  0  0  0  0  0  0  0  0
   29.9028    3.0317   55.0922 O   0  0  0  0  0  0  0  0  0  0  0  0
   27.5782    2.9000   54.4840 C   0  0  2  0  0  0  0  0  0  0  0  0
   27.2884    4.0284   55.3269 O   0  0  0  0  0  0  0  0  0  0  0  0
   26.3246    2.0011   54.2265 C   0  0  0  0  0  0  0  0  0  0  0  0
   26.6515    0.8506   53.4369 O   0  0  0  0  0  0  0  0  0  0  0  0
   30.0839    3.5182   53.7648 C   0  0  2  0  0  0  0  0  0  0  0  0
   30.4486    2.4197   52.7090 C   0  0  2  0  0  0  0  0  0  0  0  0
   31.6934    1.6699   53.0577 N   0  3  0  0  0  0  0  0  0  0  0  0
   30.5806    3.1399   51.3257 C   0  0  1  0  0  0  0  0  0  0  0  0
   29.2525    3.7014   50.9965 O   0  0  0  0  0  0  0  0  0  0  0  0
   31.6347    4.3144   51.3527 C   0  0  2  0  0  0  0  0  0  0  0  0
   32.9328    3.7575   51.6163 O   0  0  0  0  0  0  0  0  0  0  0  0
   31.1978    5.3438   52.4759 C   0  0  1  0  0  0  0  0  0  0  0  0
   31.1100    4.6068   53.7418 O   0  0  0  0  0  0  0  0  0  0  0  0
   32.1453    6.5537   52.6412 C   0  0  0  0  0  0  0  0  0  0  0  0
   32.0024    7.5690   51.5626 N   0  3  0  0  0  0  0  0  0  0  0  0
  1  2  1  6  0  0  0
  1  3  1  0  0  0  0
  1 10  1  0  0  0  0
  3  4  1  1  0  0  0
  3  5  1  0  0  0  0
  5  6  1  1  0  0  0
  5  7  1  0  0  0  0
  7  8  1  6  0  0  0
  7  9  1  0  0  0  0
  9 10  1  0  0  0  0
  9 11  1  6  0  0  0
 11 12  1  0  0  0  0
 13 14  1  6  0  0  0
 13 15  1  0  0  0  0
 13 21  1  0  0  0  0
 15 16  1  0  0  0  0
 16 17  1  6  0  0  0
 16 18  1  0  0  0  0
 18  2  1  1  0  0  0
 18 19  1  0  0  0  0
 19 20  1  6  0  0  0
 19 21  1  0  0  0  0
 21 22  1  1  0  0  0
 23 20  1  1  0  0  0
 23 24  1  0  0  0  0
 23 29  1  0  0  0  0
 24 25  1  1  0  0  0
 24 26  1  0  0  0  0
 26 27  1  1  0  0  0
 26 28  1  0  0  0  0
 28 29  1  0  0  0  0
 28 30  1  1  0  0  0
 30 31  1  0  0  0  0
 32 27  1  1  0  0  0
 32 33  1  0  0  0  0
 32 40  1  0  0  0  0
 33 34  1  1  0  0  0
 33 35  1  0  0  0  0
 35 36  1  1  0  0  0
 35 37  1  0  0  0  0
 37 38  1  1  0  0  0
 37 39  1  0  0  0  0
 39 40  1  0  0  0  0
 39 41  1  1  0  0  0
 41 42  1  0  0  0  0
M  CHG  5   4   1  14   1  17   1  34   1  42   1
M  END
>  <CHROM.1>
176.14125468,-170.27761591,-72.57091686,39.26677603,61.94583363,-70.69500618
-179.66146117,50.59496149,65.08278589,-50.62410024,-161.43094833,178.50882421
74.37297118,-152.26196209,-70.31164517,-62.36573593,60.10583248,165.56547510
-176.90804411,177.94374079,75.48685113,-59.16024122,28.68108045,5.02602800
55.97947704,-1.99287249,-0.27680507,-2.11162649

>  <Name>
1j7t

>  <RI>
0

>  <Rbt.Current_Directory>
/home/itssahil/PROJECTS/Mol_Feturizer/New_Systems/rnas/1j7t

>  <Rbt.Executable>
rbdock ($Id: //depot/dev/client3/rdock/2013.1/src/exe/rbdock.cxx#4 $)

>  <Rbt.Library>
libRbt.so (2013.1, Build901 2013/11/27)

>  <Rbt.Parameter_File>
/export/apps/rDock/src/rDock_2013.1_src/data/scripts/dock_solv.prm

>  <Rbt.Receptor>
prm/pocket_docking_8.prm

>  <SCORE>
-36.54

>  <SCORE.INTER>
-20.5302

>  <SCORE.INTER.CONST>
1

>  <SCORE.INTER.POLAR>
-5.2216

>  <SCORE.INTER.ROT>
9

>  <SCORE.INTER.SOLV>
17.3108

>  <SCORE.INTER.VDW>
-11.6518

>  <SCORE.INTER.norm>
-0.488815

>  <SCORE.INTRA>
-16.0098

>  <SCORE.INTRA.DIHEDRAL>
-34.1661

>  <SCORE.INTRA.DIHEDRAL.0>
46.2143

>  <SCORE.INTRA.POLAR>
0.905636

>  <SCORE.INTRA.POLAR.0>
-1.76436

>  <SCORE.INTRA.REPUL>
0.1076

>  <SCORE.INTRA.REPUL.0>
0

>  <SCORE.INTRA.SOLV>
-5.94954

>  <SCORE.INTRA.SOLV.lig_0>
-148.643

>  <SCORE.INTRA.VDW>
0.430866

>  <SCORE.INTRA.VDW.0>
-4.83512

>  <SCORE.INTRA.norm>
-0.381185

>  <SCORE.RESTR>
0

>  <SCORE.RESTR.CAVITY>
0

>  <SCORE.RESTR.norm>
0

>  <SCORE.SYSTEM>
0

>  <SCORE.SYSTEM.CONST>
0

>  <SCORE.SYSTEM.DIHEDRAL>
0

>  <SCORE.SYSTEM.SOLV>
0

>  <SCORE.SYSTEM.norm>
0

>  <SCORE.heavy>
42

>  <SCORE.norm>
-0.87

>  <RMSD>
8.639

$$$$
1j7t
 OpenBabel11021811393D
libRbt.so/2013.1/901 2013/11/27
 42 45  0  0  0  0  0  0  0  0999 V2000
   28.5763    8.0605   58.6395 C   0  0  2  0  0  0  0  0  0  0  0  0
   27.3733    8.2030   59.4363 O   0  0  0  0  0  0  0  0  0  0  0  0
   29.7273    7.6963   59.6207 C   0  0  2  0  0  0  0  0  0  0  0  0
   29.4471    6.5201   60.4934 N   0  3  0  0  0  0  0  0  0  0  0  0
   29.9828    8.9158   60.5330 C   0  0  1  0  0  0  0  0  0  0  0  0
   31.0241    8.6510   61.4303 O   0  0  0  0  0  0  0  0  0  0  0  0
   30.3063   10.1618   59.6748 C   0  0  2  0  0  0  0  0  0  0  0  0
   30.5650   11.2860   60.4924 O   0  0  0  0  0  0  0  0  0  0  0  0
   29.1412   10.4715   58.7590 C   0  0  2  0  0  0  0  0  0  0  0  0
   28.8511    9.3283   57.9647 O   0  0  0  0  0  0  0  0  0  0  0  0
   29.4253   11.6077   57.8022 C   0  0  0  0  0  0  0  0  0  0  0  0
   28.2867   11.8406   56.9957 O   0  0  0  0  0  0  0  0  0  0  0  0
   24.0348    5.6183   59.5859 C   0  0  2  0  0  0  0  0  0  0  0  0
   22.7960    4.9316   59.2185 N   0  3  0  0  0  0  0  0  0  0  0  0
   23.7714    7.1540   59.7298 C   0  0  0  0  0  0  0  0  0  0  0  0
   25.0834    7.8871   60.0688 C   0  0  2  0  0  0  0  0  0  0  0  0
   24.8653    9.3349   60.1545 N   0  3  0  0  0  0  0  0  0  0  0  0
   26.1535    7.5927   58.9992 C   0  0  2  0  0  0  0  0  0  0  0  0
   26.4137    6.0847   58.8165 C   0  0  2  0  0  0  0  0  0  0  0  0
   27.3061    5.9679   57.6916 O   0  0  0  0  0  0  0  0  0  0  0  0
   25.0863    5.3404   58.5235 C   0  0  1  0  0  0  0  0  0  0  0  0
   25.3344    3.9628   58.4619 O   0  0  0  0  0  0  0  0  0  0  0  0
   26.8789    5.5929   56.3847 C   0  0  1  0  0  0  0  0  0  0  0  0
   26.1965    6.8342   55.7067 C   0  0  2  0  0  0  0  0  0  0  0  0
   24.8101    6.9484   55.9786 O   0  0  0  0  0  0  0  0  0  0  0  0
   26.5372    6.5098   54.2590 C   0  0  2  0  0  0  0  0  0  0  0  0
   25.8033    5.3365   53.7959 O   0  0  0  0  0  0  0  0  0  0  0  0
   28.0092    6.1300   54.3392 C   0  0  2  0  0  0  0  0  0  0  0  0
   28.0165    5.3144   55.5235 O   0  0  0  0  0  0  0  0  0  0  0  0
   28.9970    7.3388   54.4327 C   0  0  0  0  0  0  0  0  0  0  0  0
   28.5742    8.2931   55.4148 O   0  0  0  0  0  0  0  0  0  0  0  0
   25.8690    5.1304   52.3871 C   0  0  2  0  0  0  0  0  0  0  0  0
   25.0257    3.9187   51.8627 C   0  0  2  0  0  0  0  0  0  0  0  0
   25.4141    2.6229   52.4977 N   0  3  0  0  0  0  0  0  0  0  0  0
   25.2062    3.8734   50.3086 C   0  0  1  0  0  0  0  0  0  0  0  0
   24.6375    5.1261   49.7657 O   0  0  0  0  0  0  0  0  0  0  0  0
   26.7215    3.7764   49.8777 C   0  0  2  0  0  0  0  0  0  0  0  0
   27.2544    2.5315   50.3585 O   0  0  0  0  0  0  0  0  0  0  0  0
   27.4894    5.0200   50.4906 C   0  0  1  0  0  0  0  0  0  0  0  0
   27.2912    4.9902   51.9443 O   0  0  0  0  0  0  0  0  0  0  0  0
   29.0011    5.0620   50.1710 C   0  0  0  0  0  0  0  0  0  0  0  0
   29.6719    6.3029   50.6451 N   0  3  0  0  0  0  0  0  0  0  0  0
  1  2  1  1  0  0  0
  1  3  1  0  0  0  0
  1 10  1  0  0  0  0
  3  4  1  1  0  0  0
  3  5  1  0  0  0  0
  5  6  1  1  0  0  0
  5  7  1  0  0  0  0
  7  8  1  1  0  0  0
  7  9  1  0  0  0  0
  9 10  1  0  0  0  0
  9 11  1  6  0  0  0
 11 12  1  0  0  0  0
 13 14  1  6  0  0  0
 13 15  1  0  0  0  0
 13 21  1  0  0  0  0
 15 16  1  0  0  0  0
 16 17  1  6  0  0  0
 16 18  1  0  0  0  0
 18  2  1  1  0  0  0
 18 19  1  0  0  0  0
 19 20  1  6  0  0  0
 19 21  1  0  0  0  0
 21 22  1  1  0  0  0
 23 20  1  1  0  0  0
 23 24  1  0  0  0  0
 23 29  1  0  0  0  0
 24 25  1  6  0  0  0
 24 26  1  0  0  0  0
 26 27  1  1  0  0  0
 26 28  1  0  0  0  0
 28 29  1  0  0  0  0
 28 30  1  1  0  0  0
 30 31  1  0  0  0  0
 32 27  1  1  0  0  0
 32 33  1  0  0  0  0
 32 40  1  0  0  0  0
 33 34  1  1  0  0  0
 33 35  1  0  0  0  0
 35 36  1  6  0  0  0
 35 37  1  0  0  0  0
 37 38  1  1  0  0  0
 37 39  1  0  0  0  0
 39 40  1  0  0  0  0
 39 41  1  1  0  0  0
 41 42  1  0  0  0  0
M  CHG  5   4   1  14   1  17   1  34   1  42   1
M  END
>  <CHROM.1>
-134.16175875,178.34560388,-33.73756275,57.12573161,-61.25282215,-179.40790628
-84.09431029,-67.89989022,-56.32740665,-101.73274695,77.45976708,-63.11289362
71.78807581,168.33433576,-176.95833852,47.38097507,168.68525918,162.25547464
84.70665723,178.79910453,174.45054502,67.13608800,27.17811224,6.74960303
56.17927783,-1.34729858,-0.62841941,-1.92520300

>  <Name>
1j7t

>  <RI>
224

>  <Rbt.Current_Directory>
/home/itssahil/PROJECTS/Mol_Feturizer/New_Systems/rnas/1j7t

>  <Rbt.Executable>
rbdock ($Id: //depot/dev/client3/rdock/2013.1/src/exe/rbdock.cxx#4 $)

>  <Rbt.Library>
libRbt.so (2013.1, Build901 2013/11/27)

>  <Rbt.Parameter_File>
/export/apps/rDock/src/rDock_2013.1_src/data/scripts/dock_solv.prm

>  <Rbt.Receptor>
prm/pocket_docking_7.prm

>  <SCORE>
-33.5822

>  <SCORE.INTER>
-24.6038

>  <SCORE.INTER.CONST>
1

>  <SCORE.INTER.POLAR>
-4.07403

>  <SCORE.INTER.ROT>
9

>  <SCORE.INTER.SOLV>
15.0867

>  <SCORE.INTER.VDW>
-17.4513

>  <SCORE.INTER.norm>
-0.585804

>  <SCORE.INTRA>
-8.97846

>  <SCORE.INTRA.DIHEDRAL>
-21.8689

>  <SCORE.INTRA.DIHEDRAL.0>
46.2143

>  <SCORE.INTRA.POLAR>
0.852953

>  <SCORE.INTRA.POLAR.0>
-1.76436

>  <SCORE.INTRA.REPUL>
0.0066779

>  <SCORE.INTRA.REPUL.0>
0

>  <SCORE.INTRA.SOLV>
-2.84239

>  <SCORE.INTRA.SOLV.lig_0>
-148.643

>  <SCORE.INTRA.VDW>
0.443745

>  <SCORE.INTRA.VDW.0>
-4.83512

>  <SCORE.INTRA.norm>
-0.213773

>  <SCORE.RESTR>
0

>  <SCORE.RESTR.CAVITY>
0

>  <SCORE.RESTR.norm>
0

>  <SCORE.SYSTEM>
0

>  <SCORE.SYSTEM.CONST>
0

>  <SCORE.SYSTEM.DIHEDRAL>
0

>  <SCORE.SYSTEM.SOLV>
0

>  <SCORE.SYSTEM.norm>
0

>  <SCORE.heavy>
42

>  <SCORE.norm>
-0.799577

>  <RMSD>
8.643

$$$$
1j7t
 OpenBabel11021811393D
libRbt.so/2013.1/901 2013/11/27
 42 45  0  0  0  0  0  0  0  0999 V2000
   33.3652   12.7978   50.0034 C   0  0  2  0  0  0  0  0  0  0  0  0
   32.5776   13.3439   48.9153 O   0  0  0  0  0  0  0  0  0  0  0  0
   34.5845   13.7442   50.1976 C   0  0  2  0  0  0  0  0  0  0  0  0
   34.2294   15.1808   50.3807 N   0  3  0  0  0  0  0  0  0  0  0  0
   35.4822   13.6315   48.9460 C   0  0  1  0  0  0  0  0  0  0  0  0
   36.6089   14.4528   49.0716 O   0  0  0  0  0  0  0  0  0  0  0  0
   35.9027   12.1591   48.7256 C   0  0  2  0  0  0  0  0  0  0  0  0
   36.7437   12.0367   47.5956 O   0  0  0  0  0  0  0  0  0  0  0  0
   34.6736   11.2981   48.5251 C   0  0  2  0  0  0  0  0  0  0  0  0
   33.8055   11.4514   49.6409 O   0  0  0  0  0  0  0  0  0  0  0  0
   34.9935    9.8238   48.4196 C   0  0  0  0  0  0  0  0  0  0  0  0
   34.0665    9.0840   49.1906 O   0  0  0  0  0  0  0  0  0  0  0  0
   29.4031   12.2313   46.3593 C   0  0  2  0  0  0  0  0  0  0  0  0
   28.5085   11.4209   45.5320 N   0  3  0  0  0  0  0  0  0  0  0  0
   30.8543   12.1894   45.7757 C   0  0  0  0  0  0  0  0  0  0  0  0
   31.8092   13.0016   46.6713 C   0  0  2  0  0  0  0  0  0  0  0  0
   33.1849   12.9288   46.1683 N   0  3  0  0  0  0  0  0  0  0  0  0
   31.7643   12.4744   48.1189 C   0  0  2  0  0  0  0  0  0  0  0  0
   30.3412   12.4785   48.7104 C   0  0  2  0  0  0  0  0  0  0  0  0
   30.4391   11.8208   49.9884 O   0  0  0  0  0  0  0  0  0  0  0  0
   29.3706   11.7024   47.7844 C   0  0  1  0  0  0  0  0  0  0  0  0
   28.0685   11.8063   48.2910 O   0  0  0  0  0  0  0  0  0  0  0  0
   31.0950   10.5702   50.1809 C   0  0  1  0  0  0  0  0  0  0  0  0
   30.9842   10.1759   51.6969 C   0  0  2  0  0  0  0  0  0  0  0  0
   32.0288   10.6926   52.5036 O   0  0  0  0  0  0  0  0  0  0  0  0
   30.9952    8.6626   51.5326 C   0  0  2  0  0  0  0  0  0  0  0  0
   32.3010    8.1917   51.0823 O   0  0  0  0  0  0  0  0  0  0  0  0
   30.0089    8.4430   50.3940 C   0  0  2  0  0  0  0  0  0  0  0  0
   30.3890    9.4998   49.4959 O   0  0  0  0  0  0  0  0  0  0  0  0
   28.5017    8.5136   50.8055 C   0  0  0  0  0  0  0  0  0  0  0  0
   27.6942    9.0748   49.7630 O   0  0  0  0  0  0  0  0  0  0  0  0
   32.6436    6.8919   51.5564 C   0  0  2  0  0  0  0  0  0  0  0  0
   33.0058    6.8250   53.0792 C   0  0  2  0  0  0  0  0  0  0  0  0
   34.1439    7.7217   53.4452 N   0  3  0  0  0  0  0  0  0  0  0  0
   33.3250    5.3286   53.4087 C   0  0  1  0  0  0  0  0  0  0  0  0
   32.0861    4.5554   53.1745 O   0  0  0  0  0  0  0  0  0  0  0  0
   34.4703    4.7388   52.4967 C   0  0  2  0  0  0  0  0  0  0  0  0
   35.6857    5.4553   52.7690 O   0  0  0  0  0  0  0  0  0  0  0  0
   34.0243    4.8920   50.9836 C   0  0  1  0  0  0  0  0  0  0  0  0
   33.7582    6.3147   50.7423 O   0  0  0  0  0  0  0  0  0  0  0  0
   35.0545    4.3722   49.9552 C   0  0  0  0  0  0  0  0  0  0  0  0
   36.4341    4.2638   50.5025 N   0  3  0  0  0  0  0  0  0  0  0  0
  1  2  1  6  0  0  0
  1  3  1  0  0  0  0
  1 10  1  0  0  0  0
  3  4  1  6  0  0  0
  3  5  1  0  0  0  0
  5  6  1  1  0  0  0
  5  7  1  0  0  0  0
  7  8  1  6  0  0  0
  7  9  1  0  0  0  0
  9 10  1  0  0  0  0
  9 11  1  1  0  0  0
 11 12  1  0  0  0  0
 13 14  1  6  0  0  0
 13 15  1  0  0  0  0
 13 21  1  0  0  0  0
 15 16  1  0  0  0  0
 16 17  1  6  0  0  0
 16 18  1  0  0  0  0
 18  2  1  1  0  0  0
 18 19  1  0  0  0  0
 19 20  1  1  0  0  0
 19 21  1  0  0  0  0
 21 22  1  1  0  0  0
 23 20  1  1  0  0  0
 23 24  1  0  0  0  0
 23 29  1  0  0  0  0
 24 25  1  1  0  0  0
 24 26  1  0  0  0  0
 26 27  1  6  0  0  0
 26 28  1  0  0  0  0
 28 29  1  0  0  0  0
 28 30  1  1  0  0  0
 30 31  1  0  0  0  0
 32 27  1  6  0  0  0
 32 33  1  0  0  0  0
 32 40  1  0  0  0  0
 33 34  1  6  0  0  0
 33 35  1  0  0  0  0
 35 36  1  6  0  0  0
 35 37  1  0  0  0  0
 37 38  1  6  0  0  0
 37 39  1  0  0  0  0
 39 40  1  0  0  0  0
 39 41  1  6  0  0  0
 41 42  1  0  0  0  0
M  CHG  5   4   1  14   1  17   1  34   1  42   1
M  END
>  <CHROM.1>
152.93411766,-143.95415540,157.67815798,64.70799121,176.62243032,136.26051160
-72.25965570,172.96852724,38.37225870,-48.80083642,-179.59912831,-81.45112982
46.87305518,148.39521371,-72.52963336,145.79890427,-52.30619398,-88.65750925
-176.24446758,78.54454588,-20.04904109,-44.07587542,32.63446353,9.90947647
49.82901646,-1.79555352,0.13295476,2.65765276

>  <Name>
1j7t

>  <RI>
0

>  <Rbt.Current_Directory>
/home/itssahil/PROJECTS/Mol_Feturizer/New_Systems/rnas/1j7t

>  <Rbt.Executable>
rbdock ($Id: //depot/dev/client3/rdock/2013.1/src/exe/rbdock.cxx#4 $)

>  <Rbt.Library>
libRbt.so (2013.1, Build901 2013/11/27)

>  <Rbt.Parameter_File>
/export/apps/rDock/src/rDock_2013.1_src/data/scripts/dock_solv.prm

>  <Rbt.Receptor>
prm/blind_docking_80.prm

>  <SCORE>
-8.46505

>  <SCORE.INTER>
-26.7748

>  <SCORE.INTER.CONST>
1

>  <SCORE.INTER.POLAR>
-4.38639

>  <SCORE.INTER.ROT>
9

>  <SCORE.INTER.SOLV>
39.3266

>  <SCORE.INTER.VDW>
-25.9374

>  <SCORE.INTER.norm>
-0.637496

>  <SCORE.INTRA>
-2.40272

>  <SCORE.INTRA.DIHEDRAL>
-11.0638

>  <SCORE.INTRA.DIHEDRAL.0>
46.2143

>  <SCORE.INTRA.POLAR>
-0.351696

>  <SCORE.INTRA.POLAR.0>
-1.76436

>  <SCORE.INTRA.REPUL>
0.880084

>  <SCORE.INTRA.REPUL.0>
0

>  <SCORE.INTRA.SOLV>
2.95579

>  <SCORE.INTRA.SOLV.lig_0>
-148.643

>  <SCORE.INTRA.VDW>
-1.55334

>  <SCORE.INTRA.VDW.0>
-4.83512

>  <SCORE.INTRA.norm>
-0.0572075

>  <SCORE.RESTR>
20.7125

>  <SCORE.RESTR.CAVITY>
20.7125

>  <SCORE.RESTR.norm>
0.493155

>  <SCORE.SYSTEM>
0

>  <SCORE.SYSTEM.CONST>
0

>  <SCORE.SYSTEM.DIHEDRAL>
0

>  <SCORE.SYSTEM.SOLV>
0

>  <SCORE.SYSTEM.norm>
0

>  <SCORE.heavy>
42

>  <SCORE.norm>
-0.201549

>  <RMSD>
8.698

$$$$
1j7t
 OpenBabel11021811393D
libRbt.so/2013.1/901 2013/11/27
 42 45  0  0  0  0  0  0  0  0999 V2000
   28.0864    6.8209   58.3427 C   0  0  2  0  0  0  0  0  0  0  0  0
   26.9111    5.9808   58.2184 O   0  0  0  0  0  0  0  0  0  0  0  0
   28.2792    7.1061   59.8598 C   0  0  2  0  0  0  0  0  0  0  0  0
   28.3239    5.8871   60.7175 N   0  3  0  0  0  0  0  0  0  0  0  0
   27.0989    7.9805   60.3365 C   0  0  1  0  0  0  0  0  0  0  0  0
   27.2277    8.2840   61.6969 O   0  0  0  0  0  0  0  0  0  0  0  0
   27.0240    9.2758   59.4937 C   0  0  2  0  0  0  0  0  0  0  0  0
   25.9619   10.1016   59.9285 O   0  0  0  0  0  0  0  0  0  0  0  0
   26.8175    8.9284   58.0347 C   0  0  2  0  0  0  0  0  0  0  0  0
   27.8612    8.0634   57.6054 O   0  0  0  0  0  0  0  0  0  0  0  0
   26.8508   10.1376   57.1271 C   0  0  0  0  0  0  0  0  0  0  0  0
   28.1946   10.4868   56.8563 O   0  0  0  0  0  0  0  0  0  0  0  0
   25.6135    2.6573   55.9559 C   0  0  2  0  0  0  0  0  0  0  0  0
   25.4034    1.7406   54.8348 N   0  3  0  0  0  0  0  0  0  0  0  0
   24.9740    4.0488   55.6348 C   0  0  0  0  0  0  0  0  0  0  0  0
   25.2354    5.0317   56.7921 C   0  0  2  0  0  0  0  0  0  0  0  0
   24.6889    6.3575   56.4844 N   0  3  0  0  0  0  0  0  0  0  0  0
   26.7482    5.1512   57.0622 C   0  0  2  0  0  0  0  0  0  0  0  0
   27.4102    3.7906   57.3546 C   0  0  2  0  0  0  0  0  0  0  0  0
   28.8265    4.0442   57.4275 O   0  0  0  0  0  0  0  0  0  0  0  0
   27.1064    2.7872   56.2132 C   0  0  1  0  0  0  0  0  0  0  0  0
   27.6325    1.5331   56.5500 O   0  0  0  0  0  0  0  0  0  0  0  0
   29.6658    4.1530   56.2808 C   0  0  1  0  0  0  0  0  0  0  0  0
   30.9122    5.0317   56.6555 C   0  0  2  0  0  0  0  0  0  0  0  0
   30.7119    6.4227   56.4714 O   0  0  0  0  0  0  0  0  0  0  0  0
   31.9200    4.4018   55.7042 C   0  0  2  0  0  0  0  0  0  0  0  0
   31.6008    4.7166   54.3155 O   0  0  0  0  0  0  0  0  0  0  0  0
   31.6826    2.9116   55.9048 C   0  0  2  0  0  0  0  0  0  0  0  0
   30.2456    2.8657   55.9344 O   0  0  0  0  0  0  0  0  0  0  0  0
   32.3325    2.3087   57.1932 C   0  0  0  0  0  0  0  0  0  0  0  0
   33.6710    2.7844   57.3830 O   0  0  0  0  0  0  0  0  0  0  0  0
   32.1039    5.9757   53.8761 C   0  0  2  0  0  0  0  0  0  0  0  0
   31.2939    6.6324   52.7069 C   0  0  2  0  0  0  0  0  0  0  0  0
   31.2156    5.7623   51.4944 N   0  3  0  0  0  0  0  0  0  0  0  0
   31.9801    8.0023   52.3872 C   0  0  1  0  0  0  0  0  0  0  0  0
   31.8530    8.8473   53.5945 O   0  0  0  0  0  0  0  0  0  0  0  0
   33.5112    7.8455   52.0374 C   0  0  2  0  0  0  0  0  0  0  0  0
   33.6276    7.0719   50.8321 O   0  0  0  0  0  0  0  0  0  0  0  0
   34.2270    7.1374   53.2615 C   0  0  1  0  0  0  0  0  0  0  0  0
   33.5455    5.8586   53.4934 O   0  0  0  0  0  0  0  0  0  0  0  0
   35.7408    6.8940   53.0664 C   0  0  0  0  0  0  0  0  0  0  0  0
   36.0462    5.6778   52.2649 N   0  3  0  0  0  0  0  0  0  0  0  0
  1  2  1  1  0  0  0
  1  3  1  0  0  0  0
  1 10  1  0  0  0  0
  3  4  1  1  0  0  0
  3  5  1  0  0  0  0
  5  6  1  1  0  0  0
  5  7  1  0  0  0  0
  7  8  1  1  0  0  0
  7  9  1  0  0  0  0
  9 10  1  0  0  0  0
  9 11  1  6  0  0  0
 11 12  1  0  0  0  0
 13 14  1  6  0  0  0
 13 15  1  0  0  0  0
 13 21  1  0  0  0  0
 15 16  1  0  0  0  0
 16 17  1  6  0  0  0
 16 18  1  0  0  0  0
 18  2  1  1  0  0  0
 18 19  1  0  0  0  0
 19 20  1  6  0  0  0
 19 21  1  0  0  0  0
 21 22  1  1  0  0  0
 23 20  1  1  0  0  0
 23 24  1  0  0  0  0
 23 29  1  0  0  0  0
 24 25  1  6  0  0  0
 24 26  1  0  0  0  0
 26 27  1  6  0  0  0
 26 28  1  0  0  0  0
 28 29  1  0  0  0  0
 28 30  1  1  0  0  0
 30 31  1  0  0  0  0
 32 27  1  6  0  0  0
 32 33  1  0  0  0  0
 32 40  1  0  0  0  0
 33 34  1  6  0  0  0
 33 35  1  0  0  0  0
 35 36  1  1  0  0  0
 35 37  1  0  0  0  0
 37 38  1  6  0  0  0
 37 39  1  0  0  0  0
 39 40  1  0  0  0  0
 39 41  1  6  0  0  0
 41 42  1  0  0  0  0
M  CHG  5   4   1  14   1  17   1  34   1  42   1
M  END
>  <CHROM.1>
-156.79681210,-148.64314202,165.78972025,-57.61700342,61.20544878,81.22632484
173.63783524,-54.48208389,-167.95700672,-81.42179615,154.77990354,169.90774335
175.63853025,84.21795001,-153.65475569,-43.77183428,173.31556452,135.84323503
-60.93468471,169.24476060,-81.50576986,78.54561357,29.54713974,5.89960745
56.12332111,-2.93321154,-0.64211938,-2.93096371

>  <Name>
1j7t

>  <RI>
0

>  <Rbt.Current_Directory>
/home/itssahil/PROJECTS/Mol_Feturizer/New_Systems/rnas/1j7t

>  <Rbt.Executable>
rbdock ($Id: //depot/dev/client3/rdock/2013.1/src/exe/rbdock.cxx#4 $)

>  <Rbt.Library>
libRbt.so (2013.1, Build901 2013/11/27)

>  <Rbt.Parameter_File>
/export/apps/rDock/src/rDock_2013.1_src/data/scripts/dock_solv.prm

>  <Rbt.Receptor>
prm/pocket_docking_4.prm

>  <SCORE>
-43.9017

>  <SCORE.INTER>
-32.8302

>  <SCORE.INTER.CONST>
1

>  <SCORE.INTER.POLAR>
-6.42221

>  <SCORE.INTER.ROT>
9

>  <SCORE.INTER.SOLV>
11.5987

>  <SCORE.INTER.VDW>
-13.9456

>  <SCORE.INTER.norm>
-0.781671

>  <SCORE.INTRA>
-11.1448

>  <SCORE.INTRA.DIHEDRAL>
-19.2634

>  <SCORE.INTRA.DIHEDRAL.0>
46.2143

>  <SCORE.INTRA.POLAR>
0.0409943

>  <SCORE.INTRA.POLAR.0>
-1.76436

>  <SCORE.INTRA.REPUL>
0.131234

>  <SCORE.INTRA.REPUL.0>
0

>  <SCORE.INTRA.SOLV>
-1.74581

>  <SCORE.INTRA.SOLV.lig_0>
-148.643

>  <SCORE.INTRA.VDW>
-1.43573

>  <SCORE.INTRA.VDW.0>
-4.83512

>  <SCORE.INTRA.norm>
-0.265351

>  <SCORE.RESTR>
0.073207

>  <SCORE.RESTR.CAVITY>
0.073207

>  <SCORE.RESTR.norm>
0.00174302

>  <SCORE.SYSTEM>
0

>  <SCORE.SYSTEM.CONST>
0

>  <SCORE.SYSTEM.DIHEDRAL>
0

>  <SCORE.SYSTEM.SOLV>
0

>  <SCORE.SYSTEM.norm>
0

>  <SCORE.heavy>
42

>  <SCORE.norm>
-1.04528

>  <RMSD>
8.711

$$$$
1j7t
 OpenBabel11021811393D
libRbt.so/2013.1/901 2013/11/27
 42 45  0  0  0  0  0  0  0  0999 V2000
   27.9981    8.7255   60.3289 C   0  0  2  0  0  0  0  0  0  0  0  0
   26.5636    8.8658   60.4871 O   0  0  0  0  0  0  0  0  0  0  0  0
   28.6610    9.5529   61.4674 C   0  0  2  0  0  0  0  0  0  0  0  0
   28.1766    9.2187   62.8375 N   0  3  0  0  0  0  0  0  0  0  0  0
   28.3649   11.0463   61.2089 C   0  0  1  0  0  0  0  0  0  0  0  0
   28.9531   11.8442   62.1974 O   0  0  0  0  0  0  0  0  0  0  0  0
   28.8741   11.4530   59.8057 C   0  0  2  0  0  0  0  0  0  0  0  0
   28.6318   12.8236   59.5571 O   0  0  0  0  0  0  0  0  0  0  0  0
   28.1773   10.6256   58.7465 C   0  0  2  0  0  0  0  0  0  0  0  0
   28.3836    9.2450   59.0175 O   0  0  0  0  0  0  0  0  0  0  0  0
   28.7053   10.8810   57.3525 C   0  0  0  0  0  0  0  0  0  0  0  0
   27.8523   10.2670   56.4056 O   0  0  0  0  0  0  0  0  0  0  0  0
   23.3433    6.1824   61.0134 C   0  0  2  0  0  0  0  0  0  0  0  0
   22.4182    5.0686   60.8009 N   0  3  0  0  0  0  0  0  0  0  0  0
   23.2732    7.1728   59.8040 C   0  0  0  0  0  0  0  0  0  0  0  0
   24.2811    8.3213   60.0007 C   0  0  2  0  0  0  0  0  0  0  0  0
   24.2670    9.2308   58.8503 N   0  3  0  0  0  0  0  0  0  0  0  0
   25.7034    7.7592   60.1921 C   0  0  2  0  0  0  0  0  0  0  0  0
   25.7961    6.7586   61.3607 C   0  0  2  0  0  0  0  0  0  0  0  0
   27.1278    6.2113   61.3117 O   0  0  0  0  0  0  0  0  0  0  0  0
   24.7489    5.6294   61.1874 C   0  0  1  0  0  0  0  0  0  0  0  0
   24.7848    4.7915   62.3098 O   0  0  0  0  0  0  0  0  0  0  0  0
   27.6474    5.5068   60.1871 C   0  0  1  0  0  0  0  0  0  0  0  0
   28.3478    4.1973   60.6978 C   0  0  2  0  0  0  0  0  0  0  0  0
   29.7107    4.3718   61.0456 O   0  0  0  0  0  0  0  0  0  0  0  0
   28.1095    3.3272   59.4717 C   0  0  2  0  0  0  0  0  0  0  0  0
   28.8957    3.7941   58.3343 O   0  0  0  0  0  0  0  0  0  0  0  0
   26.6434    3.5887   59.1562 C   0  0  2  0  0  0  0  0  0  0  0  0
   26.5747    5.0134   59.3391 O   0  0  0  0  0  0  0  0  0  0  0  0
   25.6274    2.8146   60.0586 C   0  0  0  0  0  0  0  0  0  0  0  0
   24.2764    3.0096   59.6220 O   0  0  0  0  0  0  0  0  0  0  0  0
   28.7578    2.9905   57.1653 C   0  0  2  0  0  0  0  0  0  0  0  0
   28.9969    1.4589   57.3918 C   0  0  2  0  0  0  0  0  0  0  0  0
   30.3490    1.1591   57.9533 N   0  3  0  0  0  0  0  0  0  0  0  0
   28.7786    0.7523   56.0123 C   0  0  1  0  0  0  0  0  0  0  0  0
   27.3662    0.9672   55.6296 O   0  0  0  0  0  0  0  0  0  0  0  0
   29.7059    1.3393   54.8779 C   0  0  2  0  0  0  0  0  0  0  0  0
   31.0752    1.0778   55.2261 O   0  0  0  0  0  0  0  0  0  0  0  0
   29.4164    2.8930   54.7587 C   0  0  1  0  0  0  0  0  0  0  0  0
   29.6553    3.4903   56.0776 O   0  0  0  0  0  0  0  0  0  0  0  0
   30.2648    3.6240   53.6935 C   0  0  0  0  0  0  0  0  0  0  0  0
   29.8655    3.3027   52.2964 N   0  3  0  0  0  0  0  0  0  0  0  0
  1  2  1  1  0  0  0
  1  3  1  0  0  0  0
  1 10  1  0  0  0  0
  3  4  1  1  0  0  0
  3  5  1  0  0  0  0
  5  6  1  1  0  0  0
  5  7  1  0  0  0  0
  7  8  1  6  0  0  0
  7  9  1  0  0  0  0
  9 10  1  0  0  0  0
  9 11  1  6  0  0  0
 11 12  1  0  0  0  0
 13 14  1  6  0  0  0
 13 15  1  0  0  0  0
 13 21  1  0  0  0  0
 15 16  1  0  0  0  0
 16 17  1  6  0  0  0
 16 18  1  0  0  0  0
 18  2  1  1  0  0  0
 18 19  1  0  0  0  0
 19 20  1  6  0  0  0
 19 21  1  0  0  0  0
 21 22  1  1  0  0  0
 23 20  1  1  0  0  0
 23 24  1  0  0  0  0
 23 29  1  0  0  0  0
 24 25  1  6  0  0  0
 24 26  1  0  0  0  0
 26 27  1  6  0  0  0
 26 28  1  0  0  0  0
 28 29  1  0  0  0  0
 28 30  1  1  0  0  0
 30 31  1  0  0  0  0
 32 27  1  1  0  0  0
 32 33  1  0  0  0  0
 32 40  1  0  0  0  0
 33 34  1  6  0  0  0
 33 35  1  0  0  0  0
 35 36  1  6  0  0  0
 35 37  1  0  0  0  0
 37 38  1  1  0  0  0
 37 39  1  0  0  0  0
 39 40  1  0  0  0  0
 39 41  1  6  0  0  0
 41 42  1  0  0  0  0
M  CHG  5   4   1  14   1  17   1  34   1  42   1
M  END
>  <CHROM.1>
-144.17048195,-161.72520129,-175.54850974,58.91918294,62.17512444,-169.33401915
171.31303161,-162.78527305,59.67942175,-59.40382571,-133.31753056,176.65847953
56.00650004,177.71882862,-51.80831096,-174.41139647,177.79479698,81.94387534
-67.62307841,48.10556479,72.05845996,62.02690018,27.51380698,5.96061778,58.92422463
-1.88053262,-0.75581160,-2.83240155

>  <Name>
1j7t

>  <RI>
224

>  <Rbt.Current_Directory>
/home/itssahil/PROJECTS/Mol_Feturizer/New_Systems/rnas/1j7t

>  <Rbt.Executable>
rbdock ($Id: //depot/dev/client3/rdock/2013.1/src/exe/rbdock.cxx#4 $)

>  <Rbt.Library>
libRbt.so (2013.1, Build901 2013/11/27)

>  <Rbt.Parameter_File>
/export/apps/rDock/src/rDock_2013.1_src/data/scripts/dock_solv.prm

>  <Rbt.Receptor>
prm/pocket_docking_7.prm

>  <SCORE>
-46.4529

>  <SCORE.INTER>
-32.3335

>  <SCORE.INTER.CONST>
1

>  <SCORE.INTER.POLAR>
-5.35788

>  <SCORE.INTER.ROT>
9

>  <SCORE.INTER.SOLV>
16.7305

>  <SCORE.INTER.VDW>
-18.8729

>  <SCORE.INTER.norm>
-0.769846

>  <SCORE.INTRA>
-14.1194

>  <SCORE.INTRA.DIHEDRAL>
-28.4576

>  <SCORE.INTRA.DIHEDRAL.0>
46.2143

>  <SCORE.INTRA.POLAR>
0.587097

>  <SCORE.INTRA.POLAR.0>
-1.76436

>  <SCORE.INTRA.REPUL>
0

>  <SCORE.INTRA.REPUL.0>
0

>  <SCORE.INTRA.SOLV>
-1.65972

>  <SCORE.INTRA.SOLV.lig_0>
-148.643

>  <SCORE.INTRA.VDW>
-1.05687

>  <SCORE.INTRA.VDW.0>
-4.83512

>  <SCORE.INTRA.norm>
-0.336176

>  <SCORE.RESTR>
0

>  <SCORE.RESTR.CAVITY>
0

>  <SCORE.RESTR.norm>
0

>  <SCORE.SYSTEM>
0

>  <SCORE.SYSTEM.CONST>
0

>  <SCORE.SYSTEM.DIHEDRAL>
0

>  <SCORE.SYSTEM.SOLV>
0

>  <SCORE.SYSTEM.norm>
0

>  <SCORE.heavy>
42

>  <SCORE.norm>
-1.10602

>  <RMSD>
8.716

$$$$
1j7t
 OpenBabel11021811393D
libRbt.so/2013.1/901 2013/11/27
 42 45  0  0  0  0  0  0  0  0999 V2000
   25.9130    8.6496   60.6036 C   0  0  2  0  0  0  0  0  0  0  0  0
   25.6318    7.9866   59.3451 O   0  0  0  0  0  0  0  0  0  0  0  0
   25.5121   10.1423   60.4270 C   0  0  2  0  0  0  0  0  0  0  0  0
   24.1192   10.3551   59.9388 N   0  3  0  0  0  0  0  0  0  0  0  0
   26.4776   10.7798   59.4041 C   0  0  1  0  0  0  0  0  0  0  0  0
   26.1739   12.1332   59.2161 O   0  0  0  0  0  0  0  0  0  0  0  0
   27.9405   10.6100   59.8782 C   0  0  2  0  0  0  0  0  0  0  0  0
   28.8406   11.2062   58.9653 O   0  0  0  0  0  0  0  0  0  0  0  0
   28.2702    9.1384   60.0110 C   0  0  2  0  0  0  0  0  0  0  0  0
   27.3404    8.5265   60.8959 O   0  0  0  0  0  0  0  0  0  0  0  0
   29.6475    8.8889   60.5833 C   0  0  0  0  0  0  0  0  0  0  0  0
   29.6738    9.2891   61.9399 O   0  0  0  0  0  0  0  0  0  0  0  0
   25.7531    4.0148   60.7798 C   0  0  2  0  0  0  0  0  0  0  0  0
   25.6403    2.5568   60.8348 N   0  3  0  0  0  0  0  0  0  0  0  0
   24.3472    4.6495   60.5171 C   0  0  0  0  0  0  0  0  0  0  0  0
   24.4693    6.1816   60.4098 C   0  0  2  0  0  0  0  0  0  0  0  0
   23.1685    6.7892   60.1101 N   0  3  0  0  0  0  0  0  0  0  0  0
   25.4787    6.5629   59.3092 C   0  0  2  0  0  0  0  0  0  0  0  0
   26.8661    5.9286   59.5279 C   0  0  2  0  0  0  0  0  0  0  0  0
   27.6381    6.2443   58.3532 O   0  0  0  0  0  0  0  0  0  0  0  0
   26.7375    4.3921   59.6842 C   0  0  1  0  0  0  0  0  0  0  0  0
   27.9957    3.8522   59.9816 O   0  0  0  0  0  0  0  0  0  0  0  0
   27.2058    5.9533   57.0267 C   0  0  1  0  0  0  0  0  0  0  0  0
   28.1367    6.7173   56.0188 C   0  0  2  0  0  0  0  0  0  0  0  0
   27.7063    8.0350   55.7236 O   0  0  0  0  0  0  0  0  0  0  0  0
   28.0476    5.7418   54.8536 C   0  0  2  0  0  0  0  0  0  0  0  0
   26.7133    5.7485   54.2626 O   0  0  0  0  0  0  0  0  0  0  0  0
   28.2443    4.3930   55.5312 C   0  0  2  0  0  0  0  0  0  0  0  0
   27.4247    4.5534   56.7017 O   0  0  0  0  0  0  0  0  0  0  0  0
   29.7281    4.0399   55.8770 C   0  0  0  0  0  0  0  0  0  0  0  0
   30.5349    3.9307   54.6976 O   0  0  0  0  0  0  0  0  0  0  0  0
   26.5598    4.8494   53.1674 C   0  0  2  0  0  0  0  0  0  0  0  0
   27.0386    5.4126   51.7861 C   0  0  2  0  0  0  0  0  0  0  0  0
   26.3369    6.6739   51.3987 N   0  3  0  0  0  0  0  0  0  0  0  0
   26.8133    4.2819   50.7275 C   0  0  1  0  0  0  0  0  0  0  0  0
   27.6796    3.1458   51.1101 O   0  0  0  0  0  0  0  0  0  0  0  0
   25.3160    3.7846   50.6822 C   0  0  2  0  0  0  0  0  0  0  0  0
   24.4847    4.8760   50.2549 O   0  0  0  0  0  0  0  0  0  0  0  0
   24.9206    3.2769   52.1306 C   0  0  1  0  0  0  0  0  0  0  0  0
   25.1406    4.3874   53.0643 O   0  0  0  0  0  0  0  0  0  0  0  0
   23.4665    2.7686   52.2578 C   0  0  0  0  0  0  0  0  0  0  0  0
   22.4676    3.8624   52.3999 N   0  3  0  0  0  0  0  0  0  0  0  0
  1  2  1  6  0  0  0
  1  3  1  0  0  0  0
  1 10  1  0  0  0  0
  3  4  1  6  0  0  0
  3  5  1  0  0  0  0
  5  6  1  1  0  0  0
  5  7  1  0  0  0  0
  7  8  1  6  0  0  0
  7  9  1  0  0  0  0
  9 10  1  0  0  0  0
  9 11  1  1  0  0  0
 11 12  1  0  0  0  0
 13 14  1  6  0  0  0
 13 15  1  0  0  0  0
 13 21  1  0  0  0  0
 15 16  1  0  0  0  0
 16 17  1  6  0  0  0
 16 18  1  0  0  0  0
 18  2  1  1  0  0  0
 18 19  1  0  0  0  0
 19 20  1  6  0  0  0
 19 21  1  0  0  0  0
 21 22  1  1  0  0  0
 23 20  1  1  0  0  0
 23 24  1  0  0  0  0
 23 29  1  0  0  0  0
 24 25  1  6  0  0  0
 24 26  1  0  0  0  0
 26 27  1  1  0  0  0
 26 28  1  0  0  0  0
 28 29  1  0  0  0  0
 28 30  1  1  0  0  0
 30 31  1  0  0  0  0
 32 27  1  1  0  0  0
 32 33  1  0  0  0  0
 32 40  1  0  0  0  0
 33 34  1  6  0  0  0
 33 35  1  0  0  0  0
 35 36  1  1  0  0  0
 35 37  1  0  0  0  0
 37 38  1  1  0  0  0
 37 39  1  0  0  0  0
 39 40  1  0  0  0  0
 39 41  1  6  0  0  0
 41 42  1  0  0  0  0
M  CHG  5   4   1  14   1  17   1  34   1  42   1
M  END
>  <CHROM.1>
-159.74868533,50.41816821,179.49208366,-98.45121082,-67.76499444,68.53430436
-133.30037489,-159.76127723,170.47693944,-53.78351538,167.52104480,63.10165241
179.78426094,-179.70065925,-83.72628788,-63.08683334,-175.87598521,63.29809167
-60.91877208,175.52600725,-79.94062303,-30.70078131,26.60226565,6.33680211
56.89630000,1.28541110,1.21925607,1.34364612

>  <Name>
1j7t

>  <RI>
0

>  <Rbt.Current_Directory>
/home/itssahil/PROJECTS/Mol_Feturizer/New_Systems/rnas/1j7t

>  <Rbt.Executable>
rbdock ($Id: //depot/dev/client3/rdock/2013.1/src/exe/rbdock.cxx#4 $)

>  <Rbt.Library>
libRbt.so (2013.1, Build901 2013/11/27)

>  <Rbt.Parameter_File>
/export/apps/rDock/src/rDock_2013.1_src/data/scripts/dock_solv.prm

>  <Rbt.Receptor>
prm/pocket_docking_6.prm

>  <SCORE>
-47.6248

>  <SCORE.INTER>
-38.6874

>  <SCORE.INTER.CONST>
1

>  <SCORE.INTER.POLAR>
-7.62923

>  <SCORE.INTER.ROT>
9

>  <SCORE.INTER.SOLV>
24.0996

>  <SCORE.INTER.VDW>
-17.9941

>  <SCORE.INTER.norm>
-0.921129

>  <SCORE.INTRA>
-8.93744

>  <SCORE.INTRA.DIHEDRAL>
-23.3329

>  <SCORE.INTRA.DIHEDRAL.0>
46.2143

>  <SCORE.INTRA.POLAR>
1.12111

>  <SCORE.INTRA.POLAR.0>
-1.76436

>  <SCORE.INTRA.REPUL>
0.024455

>  <SCORE.INTRA.REPUL.0>
0

>  <SCORE.INTRA.SOLV>
-1.01888

>  <SCORE.INTRA.SOLV.lig_0>
-148.643

>  <SCORE.INTRA.VDW>
-0.695613

>  <SCORE.INTRA.VDW.0>
-4.83512

>  <SCORE.INTRA.norm>
-0.212796

>  <SCORE.RESTR>
5.03609e-05

>  <SCORE.RESTR.CAVITY>
5.03609e-05

>  <SCORE.RESTR.norm>
1.19907e-06

>  <SCORE.SYSTEM>
0

>  <SCORE.SYSTEM.CONST>
0

>  <SCORE.SYSTEM.DIHEDRAL>
0

>  <SCORE.SYSTEM.SOLV>
0

>  <SCORE.SYSTEM.norm>
0

>  <SCORE.heavy>
42

>  <SCORE.norm>
-1.13392

>  <RMSD>
8.718

$$$$
1j7t
 OpenBabel11021811393D
libRbt.so/2013.1/901 2013/11/27
 42 45  0  0  0  0  0  0  0  0999 V2000
   26.8074    5.7807   56.9425 C   0  0  2  0  0  0  0  0  0  0  0  0
   26.1912    5.9587   55.6420 O   0  0  0  0  0  0  0  0  0  0  0  0
   25.7821    5.0147   57.8269 C   0  0  2  0  0  0  0  0  0  0  0  0
   25.2749    3.7465   57.2286 N   0  3  0  0  0  0  0  0  0  0  0  0
   24.5724    5.9431   58.0710 C   0  0  1  0  0  0  0  0  0  0  0  0
   23.6198    5.3102   58.8782 O   0  0  0  0  0  0  0  0  0  0  0  0
   25.0421    7.2675   58.7182 C   0  0  2  0  0  0  0  0  0  0  0  0
   23.9459    8.1243   58.9701 O   0  0  0  0  0  0  0  0  0  0  0  0
   26.0202    7.9695   57.8003 C   0  0  2  0  0  0  0  0  0  0  0  0
   27.1035    7.0950   57.5108 O   0  0  0  0  0  0  0  0  0  0  0  0
   26.6171    9.2168   58.4127 C   0  0  0  0  0  0  0  0  0  0  0  0
   27.2367    8.8885   59.6413 O   0  0  0  0  0  0  0  0  0  0  0  0
   27.6599    6.3256   51.6979 C   0  0  2  0  0  0  0  0  0  0  0  0
   28.4084    6.8085   50.5368 N   0  3  0  0  0  0  0  0  0  0  0  0
   26.7109    7.4515   52.2272 C   0  0  0  0  0  0  0  0  0  0  0  0
   25.9570    6.9637   53.4791 C   0  0  2  0  0  0  0  0  0  0  0  0
   25.1023    8.0255   54.0205 N   0  3  0  0  0  0  0  0  0  0  0  0
   26.9548    6.5073   54.5616 C   0  0  2  0  0  0  0  0  0  0  0  0
   27.9212    5.4170   54.0590 C   0  0  2  0  0  0  0  0  0  0  0  0
   28.8770    5.2133   55.1175 O   0  0  0  0  0  0  0  0  0  0  0  0
   28.6437    5.8892   52.7718 C   0  0  1  0  0  0  0  0  0  0  0  0
   29.4382    4.8451   52.2800 O   0  0  0  0  0  0  0  0  0  0  0  0
   30.1121    4.5248   54.9397 C   0  0  1  0  0  0  0  0  0  0  0  0
   31.2860    5.5025   55.3032 C   0  0  2  0  0  0  0  0  0  0  0  0
   31.7301    6.2974   54.2169 O   0  0  0  0  0  0  0  0  0  0  0  0
   32.2920    4.4684   55.7889 C   0  0  2  0  0  0  0  0  0  0  0  0
   32.7737    3.6440   54.6852 O   0  0  0  0  0  0  0  0  0  0  0  0
   31.4482    3.5803   56.6926 C   0  0  2  0  0  0  0  0  0  0  0  0
   30.2525    3.4470   55.9051 O   0  0  0  0  0  0  0  0  0  0  0  0
   31.1710    4.1641   58.1167 C   0  0  0  0  0  0  0  0  0  0  0  0
   31.3792    3.1832   59.1406 O   0  0  0  0  0  0  0  0  0  0  0  0
   33.5004    4.3677   53.6954 C   0  0  2  0  0  0  0  0  0  0  0  0
   33.3276    3.8312   52.2337 C   0  0  2  0  0  0  0  0  0  0  0  0
   33.7292    2.3989   52.0897 N   0  3  0  0  0  0  0  0  0  0  0  0
   34.1737    4.7611   51.3014 C   0  0  1  0  0  0  0  0  0  0  0  0
   33.5886    6.1167   51.3886 O   0  0  0  0  0  0  0  0  0  0  0  0
   35.6897    4.8349   51.7344 C   0  0  2  0  0  0  0  0  0  0  0  0
   36.2692    3.5275   51.5937 O   0  0  0  0  0  0  0  0  0  0  0  0
   35.7506    5.3464   53.2333 C   0  0  1  0  0  0  0  0  0  0  0  0
   34.9531    4.4231   54.0488 O   0  0  0  0  0  0  0  0  0  0  0  0
   37.1778    5.4576   53.8160 C   0  0  0  0  0  0  0  0  0  0  0  0
   37.9136    4.1641   53.8303 N   0  3  0  0  0  0  0  0  0  0  0  0
  1  2  1  6  0  0  0
  1  3  1  0  0  0  0
  1 10  1  0  0  0  0
  3  4  1  6  0  0  0
  3  5  1  0  0  0  0
  5  6  1  1  0  0  0
  5  7  1  0  0  0  0
  7  8  1  6  0  0  0
  7  9  1  0  0  0  0
  9 10  1  0  0  0  0
  9 11  1  1  0  0  0
 11 12  1  0  0  0  0
 13 14  1  6  0  0  0
 13 15  1  0  0  0  0
 13 21  1  0  0  0  0
 15 16  1  0  0  0  0
 16 17  1  1  0  0  0
 16 18  1  0  0  0  0
 18  2  1  1  0  0  0
 18 19  1  0  0  0  0
 19 20  1  1  0  0  0
 19 21  1  0  0  0  0
 21 22  1  6  0  0  0
 23 20  1  1  0  0  0
 23 24  1  0  0  0  0
 23 29  1  0  0  0  0
 24 25  1  6  0  0  0
 24 26  1  0  0  0  0
 26 27  1  6  0  0  0
 26 28  1  0  0  0  0
 28 29  1  0  0  0  0
 28 30  1  1  0  0  0
 30 31  1  0  0  0  0
 32 27  1  1  0  0  0
 32 33  1  0  0  0  0
 32 40  1  0  0  0  0
 33 34  1  1  0  0  0
 33 35  1  0  0  0  0
 35 36  1  1  0  0  0
 35 37  1  0  0  0  0
 37 38  1  1  0  0  0
 37 39  1  0  0  0  0
 39 40  1  0  0  0  0
 39 41  1  1  0  0  0
 41 42  1  0  0  0  0
M  CHG  5   4   1  14   1  17   1  34   1  42   1
M  END
>  <CHROM.1>
-173.21284005,-163.25361603,-60.18881583,-163.70586617,-38.56189110,56.26184188
-177.12772063,60.78853530,-158.33219827,-164.75143084,120.59249599,-63.68685435
60.71350552,63.79751871,-146.57672892,-134.17809233,-80.00732531,172.02873428
-81.86628873,66.74153058,-59.98544228,-84.66682635,29.82276720,5.50554253
55.00776383,-2.75775839,0.31526288,-1.41974641

>  <Name>
1j7t

>  <RI>
0

>  <Rbt.Current_Directory>
/home/itssahil/PROJECTS/Mol_Feturizer/New_Systems/rnas/1j7t

>  <Rbt.Executable>
rbdock ($Id: //depot/dev/client3/rdock/2013.1/src/exe/rbdock.cxx#4 $)

>  <Rbt.Library>
libRbt.so (2013.1, Build901 2013/11/27)

>  <Rbt.Parameter_File>
/export/apps/rDock/src/rDock_2013.1_src/data/scripts/dock_solv.prm

>  <Rbt.Receptor>
prm/pocket_docking_4.prm

>  <SCORE>
-36.1151

>  <SCORE.INTER>
-26.5243

>  <SCORE.INTER.CONST>
1

>  <SCORE.INTER.POLAR>
-5.26223

>  <SCORE.INTER.ROT>
9

>  <SCORE.INTER.SOLV>
13.0862

>  <SCORE.INTER.VDW>
-14.1041

>  <SCORE.INTER.norm>
-0.63153

>  <SCORE.INTRA>
-9.59086

>  <SCORE.INTRA.DIHEDRAL>
-17.1908

>  <SCORE.INTRA.DIHEDRAL.0>
46.2143

>  <SCORE.INTRA.POLAR>
0.248873

>  <SCORE.INTRA.POLAR.0>
-1.76436

>  <SCORE.INTRA.REPUL>
0

>  <SCORE.INTRA.REPUL.0>
0

>  <SCORE.INTRA.SOLV>
-2.65491

>  <SCORE.INTRA.SOLV.lig_0>
-148.643

>  <SCORE.INTRA.VDW>
-0.51417

>  <SCORE.INTRA.VDW.0>
-4.83512

>  <SCORE.INTRA.norm>
-0.228354

>  <SCORE.RESTR>
0

>  <SCORE.RESTR.CAVITY>
0

>  <SCORE.RESTR.norm>
0

>  <SCORE.SYSTEM>
0

>  <SCORE.SYSTEM.CONST>
0

>  <SCORE.SYSTEM.DIHEDRAL>
0

>  <SCORE.SYSTEM.SOLV>
0

>  <SCORE.SYSTEM.norm>
0

>  <SCORE.heavy>
42

>  <SCORE.norm>
-0.859884

>  <RMSD>
8.720

$$$$
1j7t
 OpenBabel11021811393D
libRbt.so/2013.1/901 2013/11/27
 42 45  0  0  0  0  0  0  0  0999 V2000
   28.8759    3.2652   58.5822 C   0  0  2  0  0  0  0  0  0  0  0  0
   29.3547    4.2996   57.6858 O   0  0  0  0  0  0  0  0  0  0  0  0
   27.9550    2.3324   57.7444 C   0  0  2  0  0  0  0  0  0  0  0  0
   28.5811    1.8004   56.5000 N   0  3  0  0  0  0  0  0  0  0  0  0
   26.7000    3.1362   57.3398 C   0  0  1  0  0  0  0  0  0  0  0  0
   25.8232    2.3395   56.5941 O   0  0  0  0  0  0  0  0  0  0  0  0
   25.9951    3.6896   58.6008 C   0  0  2  0  0  0  0  0  0  0  0  0
   24.8301    4.4116   58.2535 O   0  0  0  0  0  0  0  0  0  0  0  0
   26.9372    4.6017   59.3577 C   0  0  2  0  0  0  0  0  0  0  0  0
   28.1280    3.8909   59.6718 O   0  0  0  0  0  0  0  0  0  0  0  0
   26.3624    5.0920   60.6677 C   0  0  0  0  0  0  0  0  0  0  0  0
   27.1925    6.1088   61.1954 O   0  0  0  0  0  0  0  0  0  0  0  0
   30.8610    6.9577   60.6036 C   0  0  2  0  0  0  0  0  0  0  0  0
   31.5840    8.0668   61.2269 N   0  3  0  0  0  0  0  0  0  0  0  0
   31.8724    5.9757   59.9245 C   0  0  0  0  0  0  0  0  0  0  0  0
   31.1124    4.8324   59.2252 C   0  0  2  0  0  0  0  0  0  0  0  0
   32.0428    3.9313   58.5373 N   0  3  0  0  0  0  0  0  0  0  0  0
   30.1048    5.4025   58.2077 C   0  0  2  0  0  0  0  0  0  0  0  0
   29.1125    6.3951   58.8444 C   0  0  2  0  0  0  0  0  0  0  0  0
   28.3515    6.9516   57.7550 O   0  0  0  0  0  0  0  0  0  0  0  0
   29.8774    7.5187   59.5890 C   0  0  1  0  0  0  0  0  0  0  0  0
   28.9564    8.3485   60.2418 O   0  0  0  0  0  0  0  0  0  0  0  0
   28.9443    7.4888   56.5755 C   0  0  1  0  0  0  0  0  0  0  0  0
   27.7986    7.9617   55.6113 C   0  0  2  0  0  0  0  0  0  0  0  0
   27.3208    6.9472   54.7444 O   0  0  0  0  0  0  0  0  0  0  0  0
   28.5463    9.0920   54.9181 C   0  0  2  0  0  0  0  0  0  0  0  0
   29.6105    8.5733   54.0647 O   0  0  0  0  0  0  0  0  0  0  0  0
   29.2035    9.8209   56.0817 C   0  0  2  0  0  0  0  0  0  0  0  0
   29.6727    8.7124   56.8683 O   0  0  0  0  0  0  0  0  0  0  0  0
   28.2549   10.7713   56.8835 C   0  0  0  0  0  0  0  0  0  0  0  0
   28.5592   12.1506   56.6410 O   0  0  0  0  0  0  0  0  0  0  0  0
   29.6051    9.1062   52.7427 C   0  0  2  0  0  0  0  0  0  0  0  0
   29.8777    8.0562   51.6125 C   0  0  2  0  0  0  0  0  0  0  0  0
   31.1848    7.3508   51.7783 N   0  3  0  0  0  0  0  0  0  0  0  0
   29.8074    8.8219   50.2493 C   0  0  1  0  0  0  0  0  0  0  0  0
   28.4276    9.3349   50.1066 O   0  0  0  0  0  0  0  0  0  0  0  0
   30.8097   10.0395   50.1864 C   0  0  2  0  0  0  0  0  0  0  0  0
   32.1514    9.5316   50.2680 O   0  0  0  0  0  0  0  0  0  0  0  0
   30.4767   11.0154   51.3900 C   0  0  1  0  0  0  0  0  0  0  0  0
   30.5768   10.2383   52.6307 O   0  0  0  0  0  0  0  0  0  0  0  0
   31.3893   12.2597   51.4787 C   0  0  0  0  0  0  0  0  0  0  0  0
   31.5149   12.9945   50.1907 N   0  3  0  0  0  0  0  0  0  0  0  0
  1  2  1  6  0  0  0
  1  3  1  0  0  0  0
  1 10  1  0  0  0  0
  3  4  1  6  0  0  0
  3  5  1  0  0  0  0
  5  6  1  1  0  0  0
  5  7  1  0  0  0  0
  7  8  1  6  0  0  0
  7  9  1  0  0  0  0
  9 10  1  0  0  0  0
  9 11  1  1  0  0  0
 11 12  1  0  0  0  0
 13 14  1  6  0  0  0
 13 15  1  0  0  0  0
 13 21  1  0  0  0  0
 15 16  1  0  0  0  0
 16 17  1  6  0  0  0
 16 18  1  0  0  0  0
 18  2  1  1  0  0  0
 18 19  1  0  0  0  0
 19 20  1  6  0  0  0
 19 21  1  0  0  0  0
 21 22  1  1  0  0  0
 23 20  1  1  0  0  0
 23 24  1  0  0  0  0
 23 29  1  0  0  0  0
 24 25  1  6  0  0  0
 24 26  1  0  0  0  0
 26 27  1  6  0  0  0
 26 28  1  0  0  0  0
 28 29  1  0  0  0  0
 28 30  1  1  0  0  0
 30 31  1  0  0  0  0
 32 27  1  1  0  0  0
 32 33  1  0  0  0  0
 32 40  1  0  0  0  0
 33 34  1  1  0  0  0
 33 35  1  0  0  0  0
 35 36  1  1  0  0  0
 35 37  1  0  0  0  0
 37 38  1  1  0  0  0
 37 39  1  0  0  0  0
 39 40  1  0  0  0  0
 39 41  1  1  0  0  0
 41 42  1  0  0  0  0
M  CHG  5   4   1  14   1  17   1  34   1  42   1
M  END
>  <CHROM.1>
172.72608502,43.15729921,72.84537081,63.26264808,61.53540150,-169.89405276
-172.76923594,-51.92420713,67.40606120,-49.60576085,178.56360468,-67.73977297
-178.50237025,130.32842324,-138.02473285,-108.51155432,179.95629160,67.75263194
66.90033443,178.15251307,50.03691827,149.14485379,29.15176627,7.14665403
56.20722879,2.12967612,1.13703684,1.69806960

>  <Name>
1j7t

>  <RI>
0

>  <Rbt.Current_Directory>
/home/itssahil/PROJECTS/Mol_Feturizer/New_Systems/rnas/1j7t

>  <Rbt.Executable>
rbdock ($Id: //depot/dev/client3/rdock/2013.1/src/exe/rbdock.cxx#4 $)

>  <Rbt.Library>
libRbt.so (2013.1, Build901 2013/11/27)

>  <Rbt.Parameter_File>
/export/apps/rDock/src/rDock_2013.1_src/data/scripts/dock_solv.prm

>  <Rbt.Receptor>
prm/pocket_docking_6.prm

>  <SCORE>
-41.9996

>  <SCORE.INTER>
-29.685

>  <SCORE.INTER.CONST>
1

>  <SCORE.INTER.POLAR>
-3.72786

>  <SCORE.INTER.ROT>
9

>  <SCORE.INTER.SOLV>
26.4586

>  <SCORE.INTER.VDW>
-25.7833

>  <SCORE.INTER.norm>
-0.706785

>  <SCORE.INTRA>
-12.3146

>  <SCORE.INTRA.DIHEDRAL>
-22.4545

>  <SCORE.INTRA.DIHEDRAL.0>
46.2143

>  <SCORE.INTRA.POLAR>
0.423344

>  <SCORE.INTRA.POLAR.0>
-1.76436

>  <SCORE.INTRA.REPUL>
0

>  <SCORE.INTRA.REPUL.0>
0

>  <SCORE.INTRA.SOLV>
-4.75272

>  <SCORE.INTRA.SOLV.lig_0>
-148.643

>  <SCORE.INTRA.VDW>
-0.150338

>  <SCORE.INTRA.VDW.0>
-4.83512

>  <SCORE.INTRA.norm>
-0.293204

>  <SCORE.RESTR>
0

>  <SCORE.RESTR.CAVITY>
0

>  <SCORE.RESTR.norm>
0

>  <SCORE.SYSTEM>
0

>  <SCORE.SYSTEM.CONST>
0

>  <SCORE.SYSTEM.DIHEDRAL>
0

>  <SCORE.SYSTEM.SOLV>
0

>  <SCORE.SYSTEM.norm>
0

>  <SCORE.heavy>
42

>  <SCORE.norm>
-0.99999

>  <RMSD>
8.752

$$$$
1j7t
 OpenBabel11021811393D
libRbt.so/2013.1/901 2013/11/27
 42 45  0  0  0  0  0  0  0  0999 V2000
   32.9416   12.2112   47.1999 C   0  0  2  0  0  0  0  0  0  0  0  0
   31.7712   11.4241   47.5362 O   0  0  0  0  0  0  0  0  0  0  0  0
   34.0484   11.8360   48.2267 C   0  0  2  0  0  0  0  0  0  0  0  0
   34.3231   10.3742   48.3336 N   0  3  0  0  0  0  0  0  0  0  0  0
   33.6025   12.3394   49.6169 C   0  0  1  0  0  0  0  0  0  0  0  0
   34.5711   12.0429   50.5830 O   0  0  0  0  0  0  0  0  0  0  0  0
   33.3297   13.8615   49.5675 C   0  0  2  0  0  0  0  0  0  0  0  0
   32.9403   14.3472   50.8370 O   0  0  0  0  0  0  0  0  0  0  0  0
   32.2330   14.1548   48.5660 C   0  0  2  0  0  0  0  0  0  0  0  0
   32.6027   13.6303   47.2971 O   0  0  0  0  0  0  0  0  0  0  0  0
   31.9874   15.6345   48.3725 C   0  0  0  0  0  0  0  0  0  0  0  0
   32.5877   16.3544   49.4320 O   0  0  0  0  0  0  0  0  0  0  0  0
   28.7340   13.9698   46.0722 C   0  0  2  0  0  0  0  0  0  0  0  0
   27.4549   14.4349   45.5347 N   0  3  0  0  0  0  0  0  0  0  0  0
   29.4175   12.9956   45.0562 C   0  0  0  0  0  0  0  0  0  0  0  0
   30.7413   12.4654   45.6393 C   0  0  2  0  0  0  0  0  0  0  0  0
   31.3694   11.5086   44.7222 N   0  3  0  0  0  0  0  0  0  0  0  0
   30.4930   11.7841   46.9994 C   0  0  2  0  0  0  0  0  0  0  0  0
   29.7951   12.7129   48.0121 C   0  0  2  0  0  0  0  0  0  0  0  0
   29.4941   11.8961   49.1600 O   0  0  0  0  0  0  0  0  0  0  0  0
   28.4878   13.2844   47.4069 C   0  0  1  0  0  0  0  0  0  0  0  0
   27.9265   14.2013   48.3055 O   0  0  0  0  0  0  0  0  0  0  0  0
   30.4297   11.0005   49.7547 C   0  0  1  0  0  0  0  0  0  0  0  0
   30.3841   11.1921   51.3127 C   0  0  2  0  0  0  0  0  0  0  0  0
   31.2534   12.2030   51.7938 O   0  0  0  0  0  0  0  0  0  0  0  0
   30.7661    9.7761   51.7204 C   0  0  2  0  0  0  0  0  0  0  0  0
   32.1570    9.4891   51.3847 O   0  0  0  0  0  0  0  0  0  0  0  0
   29.8886    8.9203   50.8177 C   0  0  2  0  0  0  0  0  0  0  0  0
   30.0206    9.6181   49.5673 O   0  0  0  0  0  0  0  0  0  0  0  0
   28.4007    8.7868   51.2802 C   0  0  0  0  0  0  0  0  0  0  0  0
   27.5077    8.6753   50.1648 O   0  0  0  0  0  0  0  0  0  0  0  0
   32.5844    8.1805   51.7541 C   0  0  2  0  0  0  0  0  0  0  0  0
   31.5875    7.4032   52.6794 C   0  0  2  0  0  0  0  0  0  0  0  0
   31.2932    8.1269   53.9534 N   0  3  0  0  0  0  0  0  0  0  0  0
   32.2167    5.9960   52.9506 C   0  0  1  0  0  0  0  0  0  0  0  0
   32.3078    5.2994   51.6491 O   0  0  0  0  0  0  0  0  0  0  0  0
   33.6624    6.0898   53.5772 C   0  0  2  0  0  0  0  0  0  0  0  0
   33.5617    6.7157   54.8667 O   0  0  0  0  0  0  0  0  0  0  0  0
   34.5757    6.9259   52.5879 C   0  0  1  0  0  0  0  0  0  0  0  0
   33.9365    8.2322   52.3926 O   0  0  0  0  0  0  0  0  0  0  0  0
   36.0307    7.1239   53.0704 C   0  0  0  0  0  0  0  0  0  0  0  0
   37.0451    6.8680   52.0120 N   0  3  0  0  0  0  0  0  0  0  0  0
  1  2  1  1  0  0  0
  1  3  1  0  0  0  0
  1 10  1  0  0  0  0
  3  4  1  1  0  0  0
  3  5  1  0  0  0  0
  5  6  1  1  0  0  0
  5  7  1  0  0  0  0
  7  8  1  1  0  0  0
  7  9  1  0  0  0  0
  9 10  1  0  0  0  0
  9 11  1  6  0  0  0
 11 12  1  0  0  0  0
 13 14  1  6  0  0  0
 13 15  1  0  0  0  0
 13 21  1  0  0  0  0
 15 16  1  0  0  0  0
 16 17  1  6  0  0  0
 16 18  1  0  0  0  0
 18  2  1  1  0  0  0
 18 19  1  0  0  0  0
 19 20  1  1  0  0  0
 19 21  1  0  0  0  0
 21 22  1  1  0  0  0
 23 20  1  6  0  0  0
 23 24  1  0  0  0  0
 23 29  1  0  0  0  0
 24 25  1  6  0  0  0
 24 26  1  0  0  0  0
 26 27  1  6  0  0  0
 26 28  1  0  0  0  0
 28 29  1  0  0  0  0
 28 30  1  1  0  0  0
 30 31  1  0  0  0  0
 32 27  1  1  0  0  0
 32 33  1  0  0  0  0
 32 40  1  0  0  0  0
 33 34  1  1  0  0  0
 33 35  1  0  0  0  0
 35 36  1  6  0  0  0
 35 37  1  0  0  0  0
 37 38  1  1  0  0  0
 37 39  1  0  0  0  0
 39 40  1  0  0  0  0
 39 41  1  1  0  0  0
 41 42  1  0  0  0  0
M  CHG  5   4   1  14   1  17   1  34   1  42   1
M  END
>  <CHROM.1>
164.10053186,29.24288064,-47.91971775,-92.44182197,93.81966864,-15.76284111
-50.87509651,-40.96683621,162.30641228,46.24911028,134.25809419,85.35793184
47.90375149,179.35499418,-10.99873455,147.24802409,67.68360316,-63.90773531
-60.01603358,79.96527312,134.09958938,153.77125213,31.68820854,10.81009694
49.82501886,-1.93494818,0.23889527,2.51183342

>  <Name>
1j7t

>  <RI>
0

>  <Rbt.Current_Directory>
/home/itssahil/PROJECTS/Mol_Feturizer/New_Systems/rnas/1j7t

>  <Rbt.Executable>
rbdock ($Id: //depot/dev/client3/rdock/2013.1/src/exe/rbdock.cxx#4 $)

>  <Rbt.Library>
libRbt.so (2013.1, Build901 2013/11/27)

>  <Rbt.Parameter_File>
/export/apps/rDock/src/rDock_2013.1_src/data/scripts/dock_solv.prm

>  <Rbt.Receptor>
prm/blind_docking_80.prm

>  <SCORE>
4.72578

>  <SCORE.INTER>
-24.1832

>  <SCORE.INTER.CONST>
1

>  <SCORE.INTER.POLAR>
-4.15063

>  <SCORE.INTER.ROT>
9

>  <SCORE.INTER.SOLV>
45.7862

>  <SCORE.INTER.VDW>
-27.1488

>  <SCORE.INTER.norm>
-0.575791

>  <SCORE.INTRA>
11.339

>  <SCORE.INTRA.DIHEDRAL>
2.42771

>  <SCORE.INTRA.DIHEDRAL.0>
46.2143

>  <SCORE.INTRA.POLAR>
0.646439

>  <SCORE.INTRA.POLAR.0>
-1.76436

>  <SCORE.INTRA.REPUL>
0.0278905

>  <SCORE.INTRA.REPUL.0>
0

>  <SCORE.INTRA.SOLV>
-0.237505

>  <SCORE.INTRA.SOLV.lig_0>
-148.643

>  <SCORE.INTRA.VDW>
7.90653

>  <SCORE.INTRA.VDW.0>
-4.83512

>  <SCORE.INTRA.norm>
0.269976

>  <SCORE.RESTR>
17.57

>  <SCORE.RESTR.CAVITY>
17.57

>  <SCORE.RESTR.norm>
0.418334

>  <SCORE.SYSTEM>
0

>  <SCORE.SYSTEM.CONST>
0

>  <SCORE.SYSTEM.DIHEDRAL>
0

>  <SCORE.SYSTEM.SOLV>
0

>  <SCORE.SYSTEM.norm>
0

>  <SCORE.heavy>
42

>  <SCORE.norm>
0.112518

>  <RMSD>
8.753

$$$$
1j7t
 OpenBabel11021811393D
libRbt.so/2013.1/901 2013/11/27
 42 45  0  0  0  0  0  0  0  0999 V2000
   27.6510    7.3445   59.9282 C   0  0  2  0  0  0  0  0  0  0  0  0
   26.5205    6.4776   59.6580 O   0  0  0  0  0  0  0  0  0  0  0  0
   27.6512    7.6227   61.4588 C   0  0  2  0  0  0  0  0  0  0  0  0
   27.6214    6.3986   62.3099 N   0  3  0  0  0  0  0  0  0  0  0  0
   26.4007    8.4651   61.7926 C   0  0  1  0  0  0  0  0  0  0  0  0
   26.3559    8.7611   63.1600 O   0  0  0  0  0  0  0  0  0  0  0  0
   26.3968    9.7645   60.9530 C   0  0  2  0  0  0  0  0  0  0  0  0
   25.2699   10.5616   61.2593 O   0  0  0  0  0  0  0  0  0  0  0  0
   26.3775    9.4234   59.4781 C   0  0  2  0  0  0  0  0  0  0  0  0
   27.4866    8.5869   59.1748 O   0  0  0  0  0  0  0  0  0  0  0  0
   26.4910   10.6400   58.5869 C   0  0  0  0  0  0  0  0  0  0  0  0
   27.7315   11.2796   58.8182 O   0  0  0  0  0  0  0  0  0  0  0  0
   25.7567    2.9623   57.4429 C   0  0  2  0  0  0  0  0  0  0  0  0
   25.7499    1.9833   56.3552 N   0  3  0  0  0  0  0  0  0  0  0  0
   25.0524    4.2804   56.9791 C   0  0  0  0  0  0  0  0  0  0  0  0
   25.1006    5.3311   58.1049 C   0  0  2  0  0  0  0  0  0  0  0  0
   24.4920    6.5921   57.6683 N   0  3  0  0  0  0  0  0  0  0  0  0
   26.5579    5.5878   58.5362 C   0  0  2  0  0  0  0  0  0  0  0  0
   27.2853    4.3011   58.9724 C   0  0  2  0  0  0  0  0  0  0  0  0
   28.6595    4.6747   59.1903 O   0  0  0  0  0  0  0  0  0  0  0  0
   27.1949    3.2271   57.8588 C   0  0  1  0  0  0  0  0  0  0  0  0
   27.7743    2.0370   58.3182 O   0  0  0  0  0  0  0  0  0  0  0  0
   29.4996    5.2105   58.1712 C   0  0  1  0  0  0  0  0  0  0  0  0
   30.9252    5.4619   58.7799 C   0  0  2  0  0  0  0  0  0  0  0  0
   31.0766    6.7353   59.3836 O   0  0  0  0  0  0  0  0  0  0  0  0
   31.7450    5.2555   57.5139 C   0  0  2  0  0  0  0  0  0  0  0  0
   31.5140    6.3320   56.5561 O   0  0  0  0  0  0  0  0  0  0  0  0
   31.1448    3.9839   56.9309 C   0  0  2  0  0  0  0  0  0  0  0  0
   29.7415    4.2302   57.1253 O   0  0  0  0  0  0  0  0  0  0  0  0
   31.6245    2.6585   57.6084 C   0  0  0  0  0  0  0  0  0  0  0  0
   31.2467    2.6034   58.9898 O   0  0  0  0  0  0  0  0  0  0  0  0
   32.3184    6.2464   55.3826 C   0  0  2  0  0  0  0  0  0  0  0  0
   32.3055    7.5303   54.4850 C   0  0  2  0  0  0  0  0  0  0  0  0
   30.9328    7.9065   54.0295 N   0  3  0  0  0  0  0  0  0  0  0  0
   33.2562    7.2516   53.2732 C   0  0  1  0  0  0  0  0  0  0  0  0
   34.6171    7.0606   53.8200 O   0  0  0  0  0  0  0  0  0  0  0  0
   32.8473    5.9569   52.4683 C   0  0  2  0  0  0  0  0  0  0  0  0
   31.5486    6.1688   51.8911 O   0  0  0  0  0  0  0  0  0  0  0  0
   32.8513    4.7301   53.4717 C   0  0  1  0  0  0  0  0  0  0  0  0
   31.9313    5.0524   54.5686 O   0  0  0  0  0  0  0  0  0  0  0  0
   32.4519    3.3793   52.8355 C   0  0  0  0  0  0  0  0  0  0  0  0
   31.2272    3.4607   51.9940 N   0  3  0  0  0  0  0  0  0  0  0  0
  1  2  1  1  0  0  0
  1  3  1  0  0  0  0
  1 10  1  0  0  0  0
  3  4  1  1  0  0  0
  3  5  1  0  0  0  0
  5  6  1  1  0  0  0
  5  7  1  0  0  0  0
  7  8  1  1  0  0  0
  7  9  1  0  0  0  0
  9 10  1  0  0  0  0
  9 11  1  6  0  0  0
 11 12  1  0  0  0  0
 13 14  1  6  0  0  0
 13 15  1  0  0  0  0
 13 21  1  0  0  0  0
 15 16  1  0  0  0  0
 16 17  1  6  0  0  0
 16 18  1  0  0  0  0
 18  2  1  1  0  0  0
 18 19  1  0  0  0  0
 19 20  1  6  0  0  0
 19 21  1  0  0  0  0
 21 22  1  1  0  0  0
 23 20  1  1  0  0  0
 23 24  1  0  0  0  0
 23 29  1  0  0  0  0
 24 25  1  6  0  0  0
 24 26  1  0  0  0  0
 26 27  1  6  0  0  0
 26 28  1  0  0  0  0
 28 29  1  0  0  0  0
 28 30  1  1  0  0  0
 30 31  1  0  0  0  0
 32 27  1  1  0  0  0
 32 33  1  0  0  0  0
 32 40  1  0  0  0  0
 33 34  1  6  0  0  0
 33 35  1  0  0  0  0
 35 36  1  1  0  0  0
 35 37  1  0  0  0  0
 37 38  1  1  0  0  0
 37 39  1  0  0  0  0
 39 40  1  0  0  0  0
 39 41  1  6  0  0  0
 41 42  1  0  0  0  0
M  CHG  5   4   1  14   1  17   1  34   1  42   1
M  END
>  <CHROM.1>
-152.62137043,-153.41697648,80.27716680,62.12238142,-43.84077735,62.32509355
-65.01977481,177.88746843,-172.74551885,-60.84339335,-178.78603386,-162.68986936
-58.64252424,176.10038267,-168.04297523,62.54150144,-142.40942219,170.01296040
-173.97281658,82.91657195,-47.16085607,128.99461030,29.04928399,6.04799036
57.50634858,-2.62692017,-0.74388064,-2.84564888

>  <Name>
1j7t

>  <RI>
0

>  <Rbt.Current_Directory>
/home/itssahil/PROJECTS/Mol_Feturizer/New_Systems/rnas/1j7t

>  <Rbt.Executable>
rbdock ($Id: //depot/dev/client3/rdock/2013.1/src/exe/rbdock.cxx#4 $)

>  <Rbt.Library>
libRbt.so (2013.1, Build901 2013/11/27)

>  <Rbt.Parameter_File>
/export/apps/rDock/src/rDock_2013.1_src/data/scripts/dock_solv.prm

>  <Rbt.Receptor>
prm/pocket_docking_5.prm

>  <SCORE>
-34.335

>  <SCORE.INTER>
-21.2443

>  <SCORE.INTER.CONST>
1

>  <SCORE.INTER.POLAR>
-4.76023

>  <SCORE.INTER.ROT>
9

>  <SCORE.INTER.SOLV>
10.1585

>  <SCORE.INTER.VDW>
-11.2816

>  <SCORE.INTER.norm>
-0.505816

>  <SCORE.INTRA>
-13.1175

>  <SCORE.INTRA.DIHEDRAL>
-23.1003

>  <SCORE.INTRA.DIHEDRAL.0>
46.2143

>  <SCORE.INTRA.POLAR>
-0.0962696

>  <SCORE.INTRA.POLAR.0>
-1.76436

>  <SCORE.INTRA.REPUL>
0

>  <SCORE.INTRA.REPUL.0>
0

>  <SCORE.INTRA.SOLV>
-0.603546

>  <SCORE.INTRA.SOLV.lig_0>
-148.643

>  <SCORE.INTRA.VDW>
-0.938248

>  <SCORE.INTRA.VDW.0>
-4.83512

>  <SCORE.INTRA.norm>
-0.312321

>  <SCORE.RESTR>
0.0267629

>  <SCORE.RESTR.CAVITY>
0.0267629

>  <SCORE.RESTR.norm>
0.000637211

>  <SCORE.SYSTEM>
0

>  <SCORE.SYSTEM.CONST>
0

>  <SCORE.SYSTEM.DIHEDRAL>
0

>  <SCORE.SYSTEM.SOLV>
0

>  <SCORE.SYSTEM.norm>
0

>  <SCORE.heavy>
42

>  <SCORE.norm>
-0.817499

>  <RMSD>
8.761

$$$$
1j7t
 OpenBabel11021811393D
libRbt.so/2013.1/901 2013/11/27
 42 45  0  0  0  0  0  0  0  0999 V2000
   28.2904    4.5869   58.7632 C   0  0  2  0  0  0  0  0  0  0  0  0
   28.2814    6.0281   58.9231 O   0  0  0  0  0  0  0  0  0  0  0  0
   29.0115    3.9987   60.0098 C   0  0  2  0  0  0  0  0  0  0  0  0
   28.4542    4.4504   61.3171 N   0  3  0  0  0  0  0  0  0  0  0  0
   30.4943    4.4261   59.9514 C   0  0  1  0  0  0  0  0  0  0  0  0
   31.1999    3.9099   61.0446 O   0  0  0  0  0  0  0  0  0  0  0  0
   31.1298    3.9563   58.6213 C   0  0  2  0  0  0  0  0  0  0  0  0
   32.4948    4.3192   58.5567 O   0  0  0  0  0  0  0  0  0  0  0  0
   30.3950    4.5782   57.4528 C   0  0  2  0  0  0  0  0  0  0  0  0
   29.0140    4.2503   57.5380 O   0  0  0  0  0  0  0  0  0  0  0  0
   30.8815    4.0763   56.1118 C   0  0  0  0  0  0  0  0  0  0  0  0
   30.6329    2.6874   56.0099 O   0  0  0  0  0  0  0  0  0  0  0  0
   25.4001    8.9884   59.8074 C   0  0  2  0  0  0  0  0  0  0  0  0
   24.1691    9.7790   59.7721 N   0  3  0  0  0  0  0  0  0  0  0  0
   26.1300    9.0751   58.4261 C   0  0  0  0  0  0  0  0  0  0  0  0
   27.4012    8.2047   58.4432 C   0  0  2  0  0  0  0  0  0  0  0  0
   28.0697    8.2316   57.1380 N   0  3  0  0  0  0  0  0  0  0  0  0
   27.0493    6.7493   58.8087 C   0  0  2  0  0  0  0  0  0  0  0  0
   26.3042    6.6365   60.1531 C   0  0  2  0  0  0  0  0  0  0  0  0
   25.9112    5.2559   60.2759 O   0  0  0  0  0  0  0  0  0  0  0  0
   25.0519    7.5494   60.1533 C   0  0  1  0  0  0  0  0  0  0  0  0
   24.4504    7.5061   61.4180 O   0  0  0  0  0  0  0  0  0  0  0  0
   25.3038    4.5145   59.2212 C   0  0  1  0  0  0  0  0  0  0  0  0
   24.4855    3.3306   59.8494 C   0  0  2  0  0  0  0  0  0  0  0  0
   25.2452    2.1520   60.0562 O   0  0  0  0  0  0  0  0  0  0  0  0
   23.4085    3.2149   58.7798 C   0  0  2  0  0  0  0  0  0  0  0  0
   23.9625    2.7096   57.5278 O   0  0  0  0  0  0  0  0  0  0  0  0
   23.0059    4.6653   58.5528 C   0  0  2  0  0  0  0  0  0  0  0  0
   24.2926    5.3072   58.5411 O   0  0  0  0  0  0  0  0  0  0  0  0
   22.0450    5.2590   59.6346 C   0  0  0  0  0  0  0  0  0  0  0  0
   22.6321    5.2223   60.9414 O   0  0  0  0  0  0  0  0  0  0  0  0
   23.0295    2.6815   56.4506 C   0  0  2  0  0  0  0  0  0  0  0  0
   21.5637    2.3141   56.8636 C   0  0  2  0  0  0  0  0  0  0  0  0
   21.4670    0.9854   57.5408 N   0  3  0  0  0  0  0  0  0  0  0  0
   20.6960    2.3594   55.5617 C   0  0  1  0  0  0  0  0  0  0  0  0
   20.7216    3.7532   55.0675 O   0  0  0  0  0  0  0  0  0  0  0  0
   21.2525    1.4103   54.4299 C   0  0  2  0  0  0  0  0  0  0  0  0
   21.1728    0.0522   54.8924 O   0  0  0  0  0  0  0  0  0  0  0  0
   22.7464    1.8379   54.1177 C   0  0  1  0  0  0  0  0  0  0  0  0
   23.5017    1.7571   55.3732 O   0  0  0  0  0  0  0  0  0  0  0  0
   23.4444    0.9861   53.0332 C   0  0  0  0  0  0  0  0  0  0  0  0
   24.8511    1.3962   52.7730 N   0  3  0  0  0  0  0  0  0  0  0  0
  1  2  1  1  0  0  0
  1  3  1  0  0  0  0
  1 10  1  0  0  0  0
  3  4  1  1  0  0  0
  3  5  1  0  0  0  0
  5  6  1  1  0  0  0
  5  7  1  0  0  0  0
  7  8  1  1  0  0  0
  7  9  1  0  0  0  0
  9 10  1  0  0  0  0
  9 11  1  6  0  0  0
 11 12  1  0  0  0  0
 13 14  1  6  0  0  0
 13 15  1  0  0  0  0
 13 21  1  0  0  0  0
 15 16  1  0  0  0  0
 16 17  1  6  0  0  0
 16 18  1  0  0  0  0
 18  2  1  1  0  0  0
 18 19  1  0  0  0  0
 19 20  1  6  0  0  0
 19 21  1  0  0  0  0
 21 22  1  1  0  0  0
 23 20  1  1  0  0  0
 23 24  1  0  0  0  0
 23 29  1  0  0  0  0
 24 25  1  6  0  0  0
 24 26  1  0  0  0  0
 26 27  1  6  0  0  0
 26 28  1  0  0  0  0
 28 29  1  0  0  0  0
 28 30  1  1  0  0  0
 30 31  1  0  0  0  0
 32 27  1  1  0  0  0
 32 33  1  0  0  0  0
 32 40  1  0  0  0  0
 33 34  1  6  0  0  0
 33 35  1  0  0  0  0
 35 36  1  6  0  0  0
 35 37  1  0  0  0  0
 37 38  1  1  0  0  0
 37 39  1  0  0  0  0
 39 40  1  0  0  0  0
 39 41  1  6  0  0  0
 41 42  1  0  0  0  0
M  CHG  5   4   1  14   1  17   1  34   1  42   1
M  END
>  <CHROM.1>
-127.79453476,-157.05844860,144.57992604,-61.41497342,76.06767378,63.06280626
58.01956394,-169.73796076,-52.72049095,-46.28114529,-156.15361970,-53.52364618
178.86659201,-175.07166090,-36.16684791,59.78171622,178.16147604,50.69984669
-60.44436439,72.77339880,-179.19314718,53.18151615,25.70059466,4.38797307
58.05625915,-0.61131118,0.04182652,-2.42423375

>  <Name>
1j7t

>  <RI>
0

>  <Rbt.Current_Directory>
/home/itssahil/PROJECTS/Mol_Feturizer/New_Systems/rnas/1j7t

>  <Rbt.Executable>
rbdock ($Id: //depot/dev/client3/rdock/2013.1/src/exe/rbdock.cxx#4 $)

>  <Rbt.Library>
libRbt.so (2013.1, Build901 2013/11/27)

>  <Rbt.Parameter_File>
/export/apps/rDock/src/rDock_2013.1_src/data/scripts/dock_solv.prm

>  <Rbt.Receptor>
prm/pocket_docking_6.prm

>  <SCORE>
-34.8941

>  <SCORE.INTER>
-22.3432

>  <SCORE.INTER.CONST>
1

>  <SCORE.INTER.POLAR>
-4.63396

>  <SCORE.INTER.ROT>
9

>  <SCORE.INTER.SOLV>
15.6241

>  <SCORE.INTER.VDW>
-14.257

>  <SCORE.INTER.norm>
-0.531981

>  <SCORE.INTRA>
-12.5509

>  <SCORE.INTRA.DIHEDRAL>
-25.1835

>  <SCORE.INTRA.DIHEDRAL.0>
46.2143

>  <SCORE.INTRA.POLAR>
-0.034948

>  <SCORE.INTRA.POLAR.0>
-1.76436

>  <SCORE.INTRA.REPUL>
0

>  <SCORE.INTRA.REPUL.0>
0

>  <SCORE.INTRA.SOLV>
-0.117037

>  <SCORE.INTRA.SOLV.lig_0>
-148.643

>  <SCORE.INTRA.VDW>
0.218168

>  <SCORE.INTRA.VDW.0>
-4.83512

>  <SCORE.INTRA.norm>
-0.298832

>  <SCORE.RESTR>
0

>  <SCORE.RESTR.CAVITY>
0

>  <SCORE.RESTR.norm>
0

>  <SCORE.SYSTEM>
0

>  <SCORE.SYSTEM.CONST>
0

>  <SCORE.SYSTEM.DIHEDRAL>
0

>  <SCORE.SYSTEM.SOLV>
0

>  <SCORE.SYSTEM.norm>
0

>  <SCORE.heavy>
42

>  <SCORE.norm>
-0.830812

>  <RMSD>
8.763

$$$$
1j7t
 OpenBabel11021811393D
libRbt.so/2013.1/901 2013/11/27
 42 45  0  0  0  0  0  0  0  0999 V2000
   29.1366    5.2701   60.2902 C   0  0  2  0  0  0  0  0  0  0  0  0
   28.0316    6.2037   60.1902 O   0  0  0  0  0  0  0  0  0  0  0  0
   30.4319    6.0668   59.9623 C   0  0  2  0  0  0  0  0  0  0  0  0
   30.6201    7.3029   60.7747 N   0  3  0  0  0  0  0  0  0  0  0  0
   30.3774    6.4785   58.4749 C   0  0  1  0  0  0  0  0  0  0  0  0
   31.5298    7.1878   58.1167 O   0  0  0  0  0  0  0  0  0  0  0  0
   30.2094    5.2253   57.5833 C   0  0  2  0  0  0  0  0  0  0  0  0
   30.1787    5.5784   56.2146 O   0  0  0  0  0  0  0  0  0  0  0  0
   28.9242    4.5091   57.9402 C   0  0  2  0  0  0  0  0  0  0  0  0
   28.9334    4.1899   59.3258 O   0  0  0  0  0  0  0  0  0  0  0  0
   28.7442    3.2068   57.1928 C   0  0  0  0  0  0  0  0  0  0  0  0
   28.0917    3.4557   55.9626 O   0  0  0  0  0  0  0  0  0  0  0  0
   24.8473    3.4752   59.6770 C   0  0  2  0  0  0  0  0  0  0  0  0
   23.5024    2.8985   59.6777 N   0  3  0  0  0  0  0  0  0  0  0  0
   25.2827    3.8162   61.1407 C   0  0  0  0  0  0  0  0  0  0  0  0
   26.6784    4.4687   61.1398 C   0  0  2  0  0  0  0  0  0  0  0  0
   27.0798    4.8442   62.4995 N   0  3  0  0  0  0  0  0  0  0  0  0
   26.6843    5.7200   60.2399 C   0  0  2  0  0  0  0  0  0  0  0  0
   26.2327    5.4184   58.7976 C   0  0  2  0  0  0  0  0  0  0  0  0
   26.1404    6.6938   58.1341 O   0  0  0  0  0  0  0  0  0  0  0  0
   24.8502    4.7181   58.8012 C   0  0  1  0  0  0  0  0  0  0  0  0
   24.5091    4.3648   57.4890 O   0  0  0  0  0  0  0  0  0  0  0  0
   26.3753    6.8736   56.7400 C   0  0  1  0  0  0  0  0  0  0  0  0
   25.7139    8.2257   56.2922 C   0  0  2  0  0  0  0  0  0  0  0  0
   24.3551    8.1021   55.9080 O   0  0  0  0  0  0  0  0  0  0  0  0
   26.6677    8.5726   55.1576 C   0  0  2  0  0  0  0  0  0  0  0  0
   26.5106    7.6503   54.0376 O   0  0  0  0  0  0  0  0  0  0  0  0
   28.0334    8.3145   55.7785 C   0  0  2  0  0  0  0  0  0  0  0  0
   27.7892    7.0782   56.4710 O   0  0  0  0  0  0  0  0  0  0  0  0
   28.5500    9.4457   56.7269 C   0  0  0  0  0  0  0  0  0  0  0  0
   27.6895    9.6207   57.8595 O   0  0  0  0  0  0  0  0  0  0  0  0
   27.4919    7.8069   53.0158 C   0  0  2  0  0  0  0  0  0  0  0  0
   26.9407    7.6843   51.5545 C   0  0  2  0  0  0  0  0  0  0  0  0
   26.2667    6.3757   51.2960 N   0  3  0  0  0  0  0  0  0  0  0  0
   28.1514    7.9073   50.5880 C   0  0  1  0  0  0  0  0  0  0  0  0
   28.6358    9.2877   50.8052 O   0  0  0  0  0  0  0  0  0  0  0  0
   29.3388    6.9045   50.8636 C   0  0  2  0  0  0  0  0  0  0  0  0
   28.8804    5.5691   50.5963 O   0  0  0  0  0  0  0  0  0  0  0  0
   29.7921    7.0792   52.3722 C   0  0  1  0  0  0  0  0  0  0  0  0
   28.6168    6.8414   53.2180 O   0  0  0  0  0  0  0  0  0  0  0  0
   30.9455    6.1470   52.8077 C   0  0  0  0  0  0  0  0  0  0  0  0
   30.5603    4.7103   52.8531 N   0  3  0  0  0  0  0  0  0  0  0  0
  1  2  1  6  0  0  0
  1  3  1  0  0  0  0
  1 10  1  0  0  0  0
  3  4  1  1  0  0  0
  3  5  1  0  0  0  0
  5  6  1  6  0  0  0
  5  7  1  0  0  0  0
  7  8  1  6  0  0  0
  7  9  1  0  0  0  0
  9 10  1  0  0  0  0
  9 11  1  6  0  0  0
 11 12  1  0  0  0  0
 13 14  1  1  0  0  0
 13 15  1  0  0  0  0
 13 21  1  0  0  0  0
 15 16  1  0  0  0  0
 16 17  1  1  0  0  0
 16 18  1  0  0  0  0
 18  2  1  6  0  0  0
 18 19  1  0  0  0  0
 19 20  1  6  0  0  0
 19 21  1  0  0  0  0
 21 22  1  6  0  0  0
 23 20  1  1  0  0  0
 23 24  1  0  0  0  0
 23 29  1  0  0  0  0
 24 25  1  6  0  0  0
 24 26  1  0  0  0  0
 26 27  1  6  0  0  0
 26 28  1  0  0  0  0
 28 29  1  0  0  0  0
 28 30  1  1  0  0  0
 30 31  1  0  0  0  0
 32 27  1  1  0  0  0
 32 33  1  0  0  0  0
 32 40  1  0  0  0  0
 33 34  1  1  0  0  0
 33 35  1  0  0  0  0
 35 36  1  1  0  0  0
 35 37  1  0  0  0  0
 37 38  1  1  0  0  0
 37 39  1  0  0  0  0
 39 40  1  0  0  0  0
 39 41  1  1  0  0  0
 41 42  1  0  0  0  0
M  CHG  5   4   1  14   1  17   1  34   1  42   1
M  END
>  <CHROM.1>
170.57711556,31.25728872,-67.89640207,169.85559909,-61.40106148,-88.20036341
-150.44849418,50.76905208,-65.04118027,149.40501450,160.42488846,173.32444315
62.87739002,-172.12196044,-139.72528603,62.24641237,43.55295187,62.89607877
-69.37832883,75.73245261,-67.71167164,166.81529213,27.81139608,6.21170950
56.51750496,-1.73911047,-0.15029831,-1.32399136

>  <Name>
1j7t

>  <RI>
0

>  <Rbt.Current_Directory>
/home/itssahil/PROJECTS/Mol_Feturizer/New_Systems/rnas/1j7t

>  <Rbt.Executable>
rbdock ($Id: //depot/dev/client3/rdock/2013.1/src/exe/rbdock.cxx#4 $)

>  <Rbt.Library>
libRbt.so (2013.1, Build901 2013/11/27)

>  <Rbt.Parameter_File>
/export/apps/rDock/src/rDock_2013.1_src/data/scripts/dock_solv.prm

>  <Rbt.Receptor>
prm/pocket_docking_4.prm

>  <SCORE>
-45.5222

>  <SCORE.INTER>
-30.865

>  <SCORE.INTER.CONST>
1

>  <SCORE.INTER.POLAR>
-4.83313

>  <SCORE.INTER.ROT>
9

>  <SCORE.INTER.SOLV>
14.2134

>  <SCORE.INTER.VDW>
-18.8041

>  <SCORE.INTER.norm>
-0.734882

>  <SCORE.INTRA>
-14.6572

>  <SCORE.INTRA.DIHEDRAL>
-20.0803

>  <SCORE.INTRA.DIHEDRAL.0>
46.2143

>  <SCORE.INTRA.POLAR>
-0.841573

>  <SCORE.INTRA.POLAR.0>
-1.76436

>  <SCORE.INTRA.REPUL>
0.11892

>  <SCORE.INTRA.REPUL.0>
0

>  <SCORE.INTRA.SOLV>
0.644781

>  <SCORE.INTRA.SOLV.lig_0>
-148.643

>  <SCORE.INTRA.VDW>
-2.67267

>  <SCORE.INTRA.VDW.0>
-4.83512

>  <SCORE.INTRA.norm>
-0.348981

>  <SCORE.RESTR>
0

>  <SCORE.RESTR.CAVITY>
0

>  <SCORE.RESTR.norm>
0

>  <SCORE.SYSTEM>
0

>  <SCORE.SYSTEM.CONST>
0

>  <SCORE.SYSTEM.DIHEDRAL>
0

>  <SCORE.SYSTEM.SOLV>
0

>  <SCORE.SYSTEM.norm>
0

>  <SCORE.heavy>
42

>  <SCORE.norm>
-1.08386

>  <RMSD>
8.772

$$$$
1j7t
 OpenBabel11021811393D
libRbt.so/2013.1/901 2013/11/27
 42 45  0  0  0  0  0  0  0  0999 V2000
   23.8481    4.9478   56.5888 C   0  0  2  0  0  0  0  0  0  0  0  0
   24.3455    4.5216   57.8824 O   0  0  0  0  0  0  0  0  0  0  0  0
   22.7719    3.9116   56.1550 C   0  0  2  0  0  0  0  0  0  0  0  0
   21.6959    3.6794   57.1609 N   0  3  0  0  0  0  0  0  0  0  0  0
   23.4811    2.5642   55.8970 C   0  0  1  0  0  0  0  0  0  0  0  0
   22.5605    1.5930   55.4861 O   0  0  0  0  0  0  0  0  0  0  0  0
   24.5932    2.7446   54.8366 C   0  0  2  0  0  0  0  0  0  0  0  0
   25.2416    1.5168   54.5696 O   0  0  0  0  0  0  0  0  0  0  0  0
   25.6141    3.7485   55.3283 C   0  0  2  0  0  0  0  0  0  0  0  0
   24.9588    4.9718   55.6381 O   0  0  0  0  0  0  0  0  0  0  0  0
   26.6738    4.0691   54.2981 C   0  0  0  0  0  0  0  0  0  0  0  0
   27.5720    5.0252   54.8276 O   0  0  0  0  0  0  0  0  0  0  0  0
   26.9430    6.3149   60.6904 C   0  0  2  0  0  0  0  0  0  0  0  0
   28.1402    6.9016   61.2937 N   0  3  0  0  0  0  0  0  0  0  0  0
   27.2207    4.8279   60.2905 C   0  0  0  0  0  0  0  0  0  0  0  0
   25.9784    4.2213   59.6106 C   0  0  2  0  0  0  0  0  0  0  0  0
   26.2391    2.8436   59.1805 N   0  3  0  0  0  0  0  0  0  0  0  0
   25.5672    5.0695   58.3911 C   0  0  2  0  0  0  0  0  0  0  0  0
   25.3138    6.5464   58.7511 C   0  0  2  0  0  0  0  0  0  0  0  0
   25.0976    7.2296   57.5014 O   0  0  0  0  0  0  0  0  0  0  0  0
   26.5456    7.1427   59.4786 C   0  0  1  0  0  0  0  0  0  0  0  0
   26.2526    8.4516   59.8835 O   0  0  0  0  0  0  0  0  0  0  0  0
   26.0459    7.2415   56.4375 C   0  0  1  0  0  0  0  0  0  0  0  0
   25.8439    8.5562   55.6027 C   0  0  2  0  0  0  0  0  0  0  0  0
   24.8859    8.4373   54.5649 O   0  0  0  0  0  0  0  0  0  0  0  0
   27.2786    8.7383   55.1276 C   0  0  2  0  0  0  0  0  0  0  0  0
   27.6522    7.7007   54.1718 O   0  0  0  0  0  0  0  0  0  0  0  0
   28.0836    8.5049   56.3984 C   0  0  2  0  0  0  0  0  0  0  0  0
   27.4015    7.3646   56.9480 O   0  0  0  0  0  0  0  0  0  0  0  0
   28.1232    9.7178   57.3849 C   0  0  0  0  0  0  0  0  0  0  0  0
   29.1012    9.5300   58.4155 O   0  0  0  0  0  0  0  0  0  0  0  0
   28.8596    7.9716   53.4645 C   0  0  2  0  0  0  0  0  0  0  0  0
   28.7079    8.9739   52.2701 C   0  0  2  0  0  0  0  0  0  0  0  0
   27.7149    8.5168   51.2511 N   0  3  0  0  0  0  0  0  0  0  0  0
   30.1302    9.1583   51.6434 C   0  0  1  0  0  0  0  0  0  0  0  0
   30.9886    9.7716   52.6800 O   0  0  0  0  0  0  0  0  0  0  0  0
   30.7763    7.7898   51.1951 C   0  0  2  0  0  0  0  0  0  0  0  0
   29.9703    7.2251   50.1482 O   0  0  0  0  0  0  0  0  0  0  0  0
   30.8456    6.8387   52.4611 C   0  0  1  0  0  0  0  0  0  0  0  0
   29.4820    6.6985   52.9847 O   0  0  0  0  0  0  0  0  0  0  0  0
   31.4435    5.4410   52.1818 C   0  0  0  0  0  0  0  0  0  0  0  0
   32.8061    5.4886   51.5856 N   0  3  0  0  0  0  0  0  0  0  0  0
  1  2  1  1  0  0  0
  1  3  1  0  0  0  0
  1 10  1  0  0  0  0
  3  4  1  1  0  0  0
  3  5  1  0  0  0  0
  5  6  1  6  0  0  0
  5  7  1  0  0  0  0
  7  8  1  1  0  0  0
  7  9  1  0  0  0  0
  9 10  1  0  0  0  0
  9 11  1  6  0  0  0
 11 12  1  0  0  0  0
 13 14  1  6  0  0  0
 13 15  1  0  0  0  0
 13 21  1  0  0  0  0
 15 16  1  0  0  0  0
 16 17  1  6  0  0  0
 16 18  1  0  0  0  0
 18  2  1  1  0  0  0
 18 19  1  0  0  0  0
 19 20  1  6  0  0  0
 19 21  1  0  0  0  0
 21 22  1  1  0  0  0
 23 20  1  1  0  0  0
 23 24  1  0  0  0  0
 23 29  1  0  0  0  0
 24 25  1  6  0  0  0
 24 26  1  0  0  0  0
 26 27  1  6  0  0  0
 26 28  1  0  0  0  0
 28 29  1  0  0  0  0
 28 30  1  1  0  0  0
 30 31  1  0  0  0  0
 32 27  1  6  0  0  0
 32 33  1  0  0  0  0
 32 40  1  0  0  0  0
 33 34  1  6  0  0  0
 33 35  1  0  0  0  0
 35 36  1  1  0  0  0
 35 37  1  0  0  0  0
 37 38  1  6  0  0  0
 37 39  1  0  0  0  0
 39 40  1  0  0  0  0
 39 41  1  6  0  0  0
 41 42  1  0  0  0  0
M  CHG  5   4   1  14   1  17   1  34   1  42   1
M  END
>  <CHROM.1>
164.35259172,-168.26820915,75.14815853,-76.55614443,66.62590238,179.11957443
-170.20362259,70.95132300,-176.57874537,-57.69894198,-152.59085564,-175.34896276
-161.00802028,166.74008529,-79.56866263,-168.42299714,67.72689281,49.37079880
64.21817646,170.75558839,56.20321867,172.51798895,26.98501171,6.23576155
55.70987462,2.68867937,0.79495283,1.12925346

>  <Name>
1j7t

>  <RI>
0

>  <Rbt.Current_Directory>
/home/itssahil/PROJECTS/Mol_Feturizer/New_Systems/rnas/1j7t

>  <Rbt.Executable>
rbdock ($Id: //depot/dev/client3/rdock/2013.1/src/exe/rbdock.cxx#4 $)

>  <Rbt.Library>
libRbt.so (2013.1, Build901 2013/11/27)

>  <Rbt.Parameter_File>
/export/apps/rDock/src/rDock_2013.1_src/data/scripts/dock_solv.prm

>  <Rbt.Receptor>
prm/pocket_docking_5.prm

>  <SCORE>
-39.9657

>  <SCORE.INTER>
-22.6867

>  <SCORE.INTER.CONST>
1

>  <SCORE.INTER.POLAR>
-4.37236

>  <SCORE.INTER.ROT>
9

>  <SCORE.INTER.SOLV>
16.7949

>  <SCORE.INTER.VDW>
-15.7482

>  <SCORE.INTER.norm>
-0.540159

>  <SCORE.INTRA>
-17.279

>  <SCORE.INTRA.DIHEDRAL>
-31.9901

>  <SCORE.INTRA.DIHEDRAL.0>
46.2143

>  <SCORE.INTRA.POLAR>
-0.0139958

>  <SCORE.INTRA.POLAR.0>
-1.76436

>  <SCORE.INTRA.REPUL>
0.320346

>  <SCORE.INTRA.REPUL.0>
0

>  <SCORE.INTRA.SOLV>
-2.45448

>  <SCORE.INTRA.SOLV.lig_0>
-148.643

>  <SCORE.INTRA.VDW>
-1.61085

>  <SCORE.INTRA.VDW.0>
-4.83512

>  <SCORE.INTRA.norm>
-0.411405

>  <SCORE.RESTR>
0

>  <SCORE.RESTR.CAVITY>
0

>  <SCORE.RESTR.norm>
0

>  <SCORE.SYSTEM>
0

>  <SCORE.SYSTEM.CONST>
0

>  <SCORE.SYSTEM.DIHEDRAL>
0

>  <SCORE.SYSTEM.SOLV>
0

>  <SCORE.SYSTEM.norm>
0

>  <SCORE.heavy>
42

>  <SCORE.norm>
-0.951564

>  <RMSD>
8.776

$$$$
1j7t
 OpenBabel11021811393D
libRbt.so/2013.1/901 2013/11/27
 42 45  0  0  0  0  0  0  0  0999 V2000
   30.9091    8.5109   51.3878 C   0  0  2  0  0  0  0  0  0  0  0  0
   30.8417    9.8765   50.9051 O   0  0  0  0  0  0  0  0  0  0  0  0
   29.5662    7.8281   51.0001 C   0  0  2  0  0  0  0  0  0  0  0  0
   29.2133    7.9333   49.5551 N   0  3  0  0  0  0  0  0  0  0  0  0
   28.4369    8.4949   51.8155 C   0  0  1  0  0  0  0  0  0  0  0  0
   27.2013    7.9078   51.5189 O   0  0  0  0  0  0  0  0  0  0  0  0
   28.7416    8.3892   53.3287 C   0  0  2  0  0  0  0  0  0  0  0  0
   27.7082    8.9754   54.0951 O   0  0  0  0  0  0  0  0  0  0  0  0
   30.0481    9.0879   53.6399 C   0  0  2  0  0  0  0  0  0  0  0  0
   31.0821    8.5290   52.8396 O   0  0  0  0  0  0  0  0  0  0  0  0
   30.4767    8.9286   55.0814 C   0  0  0  0  0  0  0  0  0  0  0  0
   30.2094    7.6070   55.5093 O   0  0  0  0  0  0  0  0  0  0  0  0
   33.8978   10.9861   48.2074 C   0  0  2  0  0  0  0  0  0  0  0  0
   35.1059   11.6037   47.6594 N   0  3  0  0  0  0  0  0  0  0  0  0
   32.8889   12.0942   48.6578 C   0  0  0  0  0  0  0  0  0  0  0  0
   31.6361   11.4487   49.2803 C   0  0  2  0  0  0  0  0  0  0  0  0
   30.7027   12.4745   49.7571 N   0  3  0  0  0  0  0  0  0  0  0  0
   32.0328   10.5316   50.4538 C   0  0  2  0  0  0  0  0  0  0  0  0
   33.0479    9.4465   50.0449 C   0  0  2  0  0  0  0  0  0  0  0  0
   33.4338    8.7824   51.2637 O   0  0  0  0  0  0  0  0  0  0  0  0
   34.2868   10.0928   49.3747 C   0  0  1  0  0  0  0  0  0  0  0  0
   35.1458    9.0825   48.9227 O   0  0  0  0  0  0  0  0  0  0  0  0
   33.8320    7.4152   51.3220 C   0  0  1  0  0  0  0  0  0  0  0  0
   34.9345    7.2627   52.4298 C   0  0  2  0  0  0  0  0  0  0  0  0
   36.2541    7.4850   51.9628 O   0  0  0  0  0  0  0  0  0  0  0  0
   34.6374    5.8273   52.8405 C   0  0  2  0  0  0  0  0  0  0  0  0
   34.9932    4.8918   51.7784 O   0  0  0  0  0  0  0  0  0  0  0  0
   33.1205    5.8235   52.9682 C   0  0  2  0  0  0  0  0  0  0  0  0
   32.7463    6.5754   51.8010 O   0  0  0  0  0  0  0  0  0  0  0  0
   32.5695    6.4490   54.2914 C   0  0  0  0  0  0  0  0  0  0  0  0
   33.0628    7.7793   54.4934 O   0  0  0  0  0  0  0  0  0  0  0  0
   36.3902    4.6248   51.6850 C   0  0  2  0  0  0  0  0  0  0  0  0
   36.7498    3.1603   51.2605 C   0  0  2  0  0  0  0  0  0  0  0  0
   36.1842    2.1321   52.1859 N   0  3  0  0  0  0  0  0  0  0  0  0
   38.3111    3.0738   51.1915 C   0  0  1  0  0  0  0  0  0  0  0  0
   38.7541    4.0046   50.1309 O   0  0  0  0  0  0  0  0  0  0  0  0
   39.0010    3.4877   52.5494 C   0  0  2  0  0  0  0  0  0  0  0  0
   38.6131    2.5473   53.5642 O   0  0  0  0  0  0  0  0  0  0  0  0
   38.5412    4.9616   52.9074 C   0  0  1  0  0  0  0  0  0  0  0  0
   37.0752    4.9648   52.9709 O   0  0  0  0  0  0  0  0  0  0  0  0
   39.1219    5.5116   54.2300 C   0  0  0  0  0  0  0  0  0  0  0  0
   40.6065    5.6150   54.2267 N   0  3  0  0  0  0  0  0  0  0  0  0
  1  2  1  1  0  0  0
  1  3  1  0  0  0  0
  1 10  1  0  0  0  0
  3  4  1  6  0  0  0
  3  5  1  0  0  0  0
  5  6  1  1  0  0  0
  5  7  1  0  0  0  0
  7  8  1  1  0  0  0
  7  9  1  0  0  0  0
  9 10  1  0  0  0  0
  9 11  1  1  0  0  0
 11 12  1  0  0  0  0
 13 14  1  1  0  0  0
 13 15  1  0  0  0  0
 13 21  1  0  0  0  0
 15 16  1  0  0  0  0
 16 17  1  1  0  0  0
 16 18  1  0  0  0  0
 18  2  1  6  0  0  0
 18 19  1  0  0  0  0
 19 20  1  1  0  0  0
 19 21  1  0  0  0  0
 21 22  1  6  0  0  0
 23 20  1  1  0  0  0
 23 24  1  0  0  0  0
 23 29  1  0  0  0  0
 24 25  1  6  0  0  0
 24 26  1  0  0  0  0
 26 27  1  6  0  0  0
 26 28  1  0  0  0  0
 28 29  1  0  0  0  0
 28 30  1  1  0  0  0
 30 31  1  0  0  0  0
 32 27  1  1  0  0  0
 32 33  1  0  0  0  0
 32 40  1  0  0  0  0
 33 34  1  1  0  0  0
 33 35  1  0  0  0  0
 35 36  1  6  0  0  0
 35 37  1  0  0  0  0
 37 38  1  1  0  0  0
 37 39  1  0  0  0  0
 39 40  1  0  0  0  0
 39 41  1  1  0  0  0
 41 42  1  0  0  0  0
M  CHG  5   4   1  14   1  17   1  34   1  42   1
M  END
>  <CHROM.1>
-146.92569751,144.89881973,-51.32987659,68.11049469,177.16491203,40.19150575
-179.65218838,62.60965430,-55.50540385,150.27497012,145.81548439,-62.81906130
168.13008955,77.87285610,145.31134164,54.54143445,-64.32348750,171.00475455
-170.91157614,72.21305812,62.11149383,174.10012927,33.63209929,7.42099180
51.80505687,2.63601041,0.34450937,-0.75244284

>  <Name>
1j7t

>  <RI>
0

>  <Rbt.Current_Directory>
/home/itssahil/PROJECTS/Mol_Feturizer/New_Systems/rnas/1j7t

>  <Rbt.Executable>
rbdock ($Id: //depot/dev/client3/rdock/2013.1/src/exe/rbdock.cxx#4 $)

>  <Rbt.Library>
libRbt.so (2013.1, Build901 2013/11/27)

>  <Rbt.Parameter_File>
/export/apps/rDock/src/rDock_2013.1_src/data/scripts/dock_solv.prm

>  <Rbt.Receptor>
prm/blind_docking_100.prm

>  <SCORE>
-4.45706

>  <SCORE.INTER>
-15.513

>  <SCORE.INTER.CONST>
1

>  <SCORE.INTER.POLAR>
-3.06113

>  <SCORE.INTER.ROT>
9

>  <SCORE.INTER.SOLV>
36.2894

>  <SCORE.INTER.VDW>
-21.8347

>  <SCORE.INTER.norm>
-0.369356

>  <SCORE.INTRA>
-3.05285

>  <SCORE.INTRA.DIHEDRAL>
-19.0145

>  <SCORE.INTRA.DIHEDRAL.0>
46.2143

>  <SCORE.INTRA.POLAR>
1.14874

>  <SCORE.INTRA.POLAR.0>
-1.76436

>  <SCORE.INTRA.REPUL>
0.0368047

>  <SCORE.INTRA.REPUL.0>
0

>  <SCORE.INTRA.SOLV>
-1.94484

>  <SCORE.INTRA.SOLV.lig_0>
-148.643

>  <SCORE.INTRA.VDW>
3.33709

>  <SCORE.INTRA.VDW.0>
-4.83512

>  <SCORE.INTRA.norm>
-0.0726868

>  <SCORE.RESTR>
14.1087

>  <SCORE.RESTR.CAVITY>
14.1087

>  <SCORE.RESTR.norm>
0.335923

>  <SCORE.SYSTEM>
0

>  <SCORE.SYSTEM.CONST>
0

>  <SCORE.SYSTEM.DIHEDRAL>
0

>  <SCORE.SYSTEM.SOLV>
0

>  <SCORE.SYSTEM.norm>
0

>  <SCORE.heavy>
42

>  <SCORE.norm>
-0.106121

>  <RMSD>
8.798

$$$$
1j7t
 OpenBabel11021811393D
libRbt.so/2013.1/901 2013/11/27
 42 45  0  0  0  0  0  0  0  0999 V2000
   27.3404    6.8208   60.8045 C   0  0  2  0  0  0  0  0  0  0  0  0
   28.5045    6.5895   59.9716 O   0  0  0  0  0  0  0  0  0  0  0  0
   26.7344    5.4258   61.1311 C   0  0  2  0  0  0  0  0  0  0  0  0
   27.7016    4.4525   61.7149 N   0  3  0  0  0  0  0  0  0  0  0  0
   26.1857    4.8230   59.8194 C   0  0  1  0  0  0  0  0  0  0  0  0
   25.6110    3.5686   60.0555 O   0  0  0  0  0  0  0  0  0  0  0  0
   25.1535    5.7848   59.1846 C   0  0  2  0  0  0  0  0  0  0  0  0
   24.6222    5.2416   57.9922 O   0  0  0  0  0  0  0  0  0  0  0  0
   25.8111    7.1129   58.8752 C   0  0  2  0  0  0  0  0  0  0  0  0
   26.3834    7.6422   60.0644 O   0  0  0  0  0  0  0  0  0  0  0  0
   24.8386    8.1498   58.3592 C   0  0  0  0  0  0  0  0  0  0  0  0
   25.3096    8.6672   57.1297 O   0  0  0  0  0  0  0  0  0  0  0  0
   29.1293   10.5867   58.7550 C   0  0  2  0  0  0  0  0  0  0  0  0
   29.7486   11.7773   58.1716 N   0  3  0  0  0  0  0  0  0  0  0  0
   30.0255   10.0308   59.9109 C   0  0  0  0  0  0  0  0  0  0  0  0
   29.4016    8.7491   60.4954 C   0  0  2  0  0  0  0  0  0  0  0  0
   30.2563    8.1842   61.5448 N   0  3  0  0  0  0  0  0  0  0  0  0
   29.1924    7.7006   59.3852 C   0  0  2  0  0  0  0  0  0  0  0  0
   28.3352    8.2306   58.2193 C   0  0  2  0  0  0  0  0  0  0  0  0
   28.3628    7.2062   57.2068 O   0  0  0  0  0  0  0  0  0  0  0  0
   28.9364    9.5463   57.6632 C   0  0  1  0  0  0  0  0  0  0  0  0
   28.0864   10.0596   56.6747 O   0  0  0  0  0  0  0  0  0  0  0  0
   29.4427    7.0327   56.2931 C   0  0  1  0  0  0  0  0  0  0  0  0
   30.6891    6.5022   57.0875 C   0  0  2  0  0  0  0  0  0  0  0  0
   31.4993    7.5267   57.6380 O   0  0  0  0  0  0  0  0  0  0  0  0
   31.3427    5.7063   55.9665 C   0  0  2  0  0  0  0  0  0  0  0  0
   31.8652    6.5900   54.9292 O   0  0  0  0  0  0  0  0  0  0  0  0
   30.1687    4.9415   55.3713 C   0  0  2  0  0  0  0  0  0  0  0  0
   29.1598    5.9658   55.3471 O   0  0  0  0  0  0  0  0  0  0  0  0
   29.7272    3.6785   56.1810 C   0  0  0  0  0  0  0  0  0  0  0  0
   30.7784    2.7076   56.2618 O   0  0  0  0  0  0  0  0  0  0  0  0
   32.9576    6.0412   54.1964 C   0  0  2  0  0  0  0  0  0  0  0  0
   33.9271    7.1026   53.5736 C   0  0  2  0  0  0  0  0  0  0  0  0
   33.2334    8.0515   52.6506 N   0  3  0  0  0  0  0  0  0  0  0  0
   35.0605    6.3121   52.8386 C   0  0  1  0  0  0  0  0  0  0  0  0
   35.7906    5.5380   53.8659 O   0  0  0  0  0  0  0  0  0  0  0  0
   34.4966    5.3114   51.7560 C   0  0  2  0  0  0  0  0  0  0  0  0
   33.8375    6.0718   50.7303 O   0  0  0  0  0  0  0  0  0  0  0  0
   33.5007    4.3124   52.4786 C   0  0  1  0  0  0  0  0  0  0  0  0
   32.4608    5.1176   53.1294 O   0  0  0  0  0  0  0  0  0  0  0  0
   32.8452    3.2711   51.5432 C   0  0  0  0  0  0  0  0  0  0  0  0
   31.9503    2.3178   52.2537 N   0  3  0  0  0  0  0  0  0  0  0  0
  1  2  1  6  0  0  0
  1  3  1  0  0  0  0
  1 10  1  0  0  0  0
  3  4  1  6  0  0  0
  3  5  1  0  0  0  0
  5  6  1  1  0  0  0
  5  7  1  0  0  0  0
  7  8  1  6  0  0  0
  7  9  1  0  0  0  0
  9 10  1  0  0  0  0
  9 11  1  1  0  0  0
 11 12  1  0  0  0  0
 13 14  1  6  0  0  0
 13 15  1  0  0  0  0
 13 21  1  0  0  0  0
 15 16  1  0  0  0  0
 16 17  1  1  0  0  0
 16 18  1  0  0  0  0
 18  2  1  1  0  0  0
 18 19  1  0  0  0  0
 19 20  1  6  0  0  0
 19 21  1  0  0  0  0
 21 22  1  6  0  0  0
 23 20  1  1  0  0  0
 23 24  1  0  0  0  0
 23 29  1  0  0  0  0
 24 25  1  6  0  0  0
 24 26  1  0  0  0  0
 26 27  1  6  0  0  0
 26 28  1  0  0  0  0
 28 29  1  0  0  0  0
 28 30  1  1  0  0  0
 30 31  1  0  0  0  0
 32 27  1  6  0  0  0
 32 33  1  0  0  0  0
 32 40  1  0  0  0  0
 33 34  1  6  0  0  0
 33 35  1  0  0  0  0
 35 36  1  1  0  0  0
 35 37  1  0  0  0  0
 37 38  1  6  0  0  0
 37 39  1  0  0  0  0
 39 40  1  0  0  0  0
 39 41  1  6  0  0  0
 41 42  1  0  0  0  0
M  CHG  5   4   1  14   1  17   1  34   1  42   1
M  END
>  <CHROM.1>
173.11840645,47.32453044,49.29604886,58.97341471,-55.42412475,-126.21543399
-63.16972650,-63.66886550,-176.51189101,-80.60467273,69.59879831,76.82529262
47.48591499,153.46415921,-153.75365985,-61.45282984,61.28516360,163.68212617
-53.87735284,73.96917474,178.08593857,52.72688396,29.77416919,6.57421578
56.82251367,2.67889749,0.71461319,0.39322416

>  <Name>
1j7t

>  <RI>
0

>  <Rbt.Current_Directory>
/home/itssahil/PROJECTS/Mol_Feturizer/New_Systems/rnas/1j7t

>  <Rbt.Executable>
rbdock ($Id: //depot/dev/client3/rdock/2013.1/src/exe/rbdock.cxx#4 $)

>  <Rbt.Library>
libRbt.so (2013.1, Build901 2013/11/27)

>  <Rbt.Parameter_File>
/export/apps/rDock/src/rDock_2013.1_src/data/scripts/dock_solv.prm

>  <Rbt.Receptor>
prm/pocket_docking_5.prm

>  <SCORE>
-43.0118

>  <SCORE.INTER>
-30.4527

>  <SCORE.INTER.CONST>
1

>  <SCORE.INTER.POLAR>
-6.08068

>  <SCORE.INTER.ROT>
9

>  <SCORE.INTER.SOLV>
19.4676

>  <SCORE.INTER.VDW>
-16.1221

>  <SCORE.INTER.norm>
-0.725065

>  <SCORE.INTRA>
-12.5591

>  <SCORE.INTRA.DIHEDRAL>
-26.9761

>  <SCORE.INTRA.DIHEDRAL.0>
46.2143

>  <SCORE.INTRA.POLAR>
0.165454

>  <SCORE.INTRA.POLAR.0>
-1.76436

>  <SCORE.INTRA.REPUL>
0

>  <SCORE.INTRA.REPUL.0>
0

>  <SCORE.INTRA.SOLV>
-3.64687

>  <SCORE.INTRA.SOLV.lig_0>
-148.643

>  <SCORE.INTRA.VDW>
2.18991

>  <SCORE.INTRA.VDW.0>
-4.83512

>  <SCORE.INTRA.norm>
-0.299025

>  <SCORE.RESTR>
0

>  <SCORE.RESTR.CAVITY>
0

>  <SCORE.RESTR.norm>
0

>  <SCORE.SYSTEM>
0

>  <SCORE.SYSTEM.CONST>
0

>  <SCORE.SYSTEM.DIHEDRAL>
0

>  <SCORE.SYSTEM.SOLV>
0

>  <SCORE.SYSTEM.norm>
0

>  <SCORE.heavy>
42

>  <SCORE.norm>
-1.02409

>  <RMSD>
8.803

$$$$
1j7t
 OpenBabel11021811393D
libRbt.so/2013.1/901 2013/11/27
 42 45  0  0  0  0  0  0  0  0999 V2000
   28.2823    7.0475   59.8293 C   0  0  2  0  0  0  0  0  0  0  0  0
   29.5661    6.4589   60.1578 O   0  0  0  0  0  0  0  0  0  0  0  0
   27.9927    8.1304   60.9079 C   0  0  2  0  0  0  0  0  0  0  0  0
   29.0813    9.1341   61.0846 N   0  3  0  0  0  0  0  0  0  0  0  0
   27.7808    7.4150   62.2600 C   0  0  1  0  0  0  0  0  0  0  0  0
   27.4992    8.3424   63.2700 O   0  0  0  0  0  0  0  0  0  0  0  0
   26.6391    6.3780   62.1383 C   0  0  2  0  0  0  0  0  0  0  0  0
   26.4141    5.7260   63.3726 O   0  0  0  0  0  0  0  0  0  0  0  0
   26.9922    5.3457   61.0887 C   0  0  2  0  0  0  0  0  0  0  0  0
   27.2605    6.0018   59.8560 O   0  0  0  0  0  0  0  0  0  0  0  0
   25.8744    4.3616   60.8257 C   0  0  0  0  0  0  0  0  0  0  0  0
   25.7793    3.4560   61.9083 O   0  0  0  0  0  0  0  0  0  0  0  0
   32.6766    4.5091   58.0672 C   0  0  2  0  0  0  0  0  0  0  0  0
   33.3817    3.5967   57.1662 N   0  3  0  0  0  0  0  0  0  0  0  0
   31.9175    3.6937   59.1660 C   0  0  0  0  0  0  0  0  0  0  0  0
   31.1341    4.6480   60.0874 C   0  0  2  0  0  0  0  0  0  0  0  0
   30.3731    3.8968   61.0912 N   0  3  0  0  0  0  0  0  0  0  0  0
   30.1694    5.5200   59.2601 C   0  0  2  0  0  0  0  0  0  0  0  0
   30.8870    6.3143   58.1512 C   0  0  2  0  0  0  0  0  0  0  0  0
   29.8484    6.9460   57.3780 O   0  0  0  0  0  0  0  0  0  0  0  0
   31.7140    5.3593   57.2535 C   0  0  1  0  0  0  0  0  0  0  0  0
   32.4344    6.1143   56.3186 O   0  0  0  0  0  0  0  0  0  0  0  0
   30.0973    7.9567   56.4045 C   0  0  1  0  0  0  0  0  0  0  0  0
   28.8338    8.0824   55.4805 C   0  0  2  0  0  0  0  0  0  0  0  0
   28.8435    7.2022   54.3696 O   0  0  0  0  0  0  0  0  0  0  0  0
   28.9656    9.5570   55.1262 C   0  0  2  0  0  0  0  0  0  0  0  0
   30.1234    9.7908   54.2691 O   0  0  0  0  0  0  0  0  0  0  0  0
   29.2541   10.2003   56.4753 C   0  0  2  0  0  0  0  0  0  0  0  0
   30.1987    9.2667   57.0265 O   0  0  0  0  0  0  0  0  0  0  0  0
   28.0016   10.4025   57.3897 C   0  0  0  0  0  0  0  0  0  0  0  0
   28.3608   10.9443   58.6670 O   0  0  0  0  0  0  0  0  0  0  0  0
   30.1605    8.9661   53.1072 C   0  0  2  0  0  0  0  0  0  0  0  0
   31.3919    9.2105   52.1701 C   0  0  2  0  0  0  0  0  0  0  0  0
   31.4843   10.6224   51.6891 N   0  3  0  0  0  0  0  0  0  0  0  0
   31.2666    8.2047   50.9774 C   0  0  1  0  0  0  0  0  0  0  0  0
   31.3563    6.8414   51.5438 O   0  0  0  0  0  0  0  0  0  0  0  0
   29.8951    8.3448   50.2088 C   0  0  2  0  0  0  0  0  0  0  0  0
   29.8370    9.6507   49.6121 O   0  0  0  0  0  0  0  0  0  0  0  0
   28.7210    8.1218   51.2499 C   0  0  1  0  0  0  0  0  0  0  0  0
   28.8916    9.1040   52.3267 O   0  0  0  0  0  0  0  0  0  0  0  0
   27.3011    8.2446   50.6519 C   0  0  0  0  0  0  0  0  0  0  0  0
   26.2676    7.5026   51.4239 N   0  3  0  0  0  0  0  0  0  0  0  0
  1  2  1  1  0  0  0
  1  3  1  0  0  0  0
  1 10  1  0  0  0  0
  3  4  1  1  0  0  0
  3  5  1  0  0  0  0
  5  6  1  1  0  0  0
  5  7  1  0  0  0  0
  7  8  1  1  0  0  0
  7  9  1  0  0  0  0
  9 10  1  0  0  0  0
  9 11  1  6  0  0  0
 11 12  1  0  0  0  0
 13 14  1  6  0  0  0
 13 15  1  0  0  0  0
 13 21  1  0  0  0  0
 15 16  1  0  0  0  0
 16 17  1  1  0  0  0
 16 18  1  0  0  0  0
 18  2  1  1  0  0  0
 18 19  1  0  0  0  0
 19 20  1  6  0  0  0
 19 21  1  0  0  0  0
 21 22  1  6  0  0  0
 23 20  1  1  0  0  0
 23 24  1  0  0  0  0
 23 29  1  0  0  0  0
 24 25  1  6  0  0  0
 24 26  1  0  0  0  0
 26 27  1  6  0  0  0
 26 28  1  0  0  0  0
 28 29  1  0  0  0  0
 28 30  1  1  0  0  0
 30 31  1  0  0  0  0
 32 27  1  1  0  0  0
 32 33  1  0  0  0  0
 32 40  1  0  0  0  0
 33 34  1  6  0  0  0
 33 35  1  0  0  0  0
 35 36  1  1  0  0  0
 35 37  1  0  0  0  0
 37 38  1  1  0  0  0
 37 39  1  0  0  0  0
 39 40  1  0  0  0  0
 39 41  1  6  0  0  0
 41 42  1  0  0  0  0
M  CHG  5   4   1  14   1  17   1  34   1  42   1
M  END
>  <CHROM.1>
-173.50460415,-156.10316174,78.07184228,56.95253006,-51.75370608,-73.91679571
-173.35441926,33.32987761,56.88080824,168.58541818,162.80995100,86.96863434
179.85395587,52.80591141,179.59393127,176.83632228,174.35641650,92.55835067
-64.56646348,66.70048383,155.61722221,59.57359960,29.34377612,7.30084256
56.93007738,1.79908429,-0.72610674,2.01053237

>  <Name>
1j7t

>  <RI>
0

>  <Rbt.Current_Directory>
/home/itssahil/PROJECTS/Mol_Feturizer/New_Systems/rnas/1j7t

>  <Rbt.Executable>
rbdock ($Id: //depot/dev/client3/rdock/2013.1/src/exe/rbdock.cxx#4 $)

>  <Rbt.Library>
libRbt.so (2013.1, Build901 2013/11/27)

>  <Rbt.Parameter_File>
/export/apps/rDock/src/rDock_2013.1_src/data/scripts/dock_solv.prm

>  <Rbt.Receptor>
prm/pocket_docking_4.prm

>  <SCORE>
-52.1624

>  <SCORE.INTER>
-38.5018

>  <SCORE.INTER.CONST>
1

>  <SCORE.INTER.POLAR>
-6.37483

>  <SCORE.INTER.ROT>
9

>  <SCORE.INTER.SOLV>
31.6723

>  <SCORE.INTER.VDW>
-24.5758

>  <SCORE.INTER.norm>
-0.916709

>  <SCORE.INTRA>
-13.6606

>  <SCORE.INTRA.DIHEDRAL>
-29.6241

>  <SCORE.INTRA.DIHEDRAL.0>
46.2143

>  <SCORE.INTRA.POLAR>
0.557935

>  <SCORE.INTRA.POLAR.0>
-1.76436

>  <SCORE.INTRA.REPUL>
0

>  <SCORE.INTRA.REPUL.0>
0

>  <SCORE.INTRA.SOLV>
-1.47941

>  <SCORE.INTRA.SOLV.lig_0>
-148.643

>  <SCORE.INTRA.VDW>
-0.00587467

>  <SCORE.INTRA.VDW.0>
-4.83512

>  <SCORE.INTRA.norm>
-0.325253

>  <SCORE.RESTR>
0

>  <SCORE.RESTR.CAVITY>
0

>  <SCORE.RESTR.norm>
0

>  <SCORE.SYSTEM>
0

>  <SCORE.SYSTEM.CONST>
0

>  <SCORE.SYSTEM.DIHEDRAL>
0

>  <SCORE.SYSTEM.SOLV>
0

>  <SCORE.SYSTEM.norm>
0

>  <SCORE.heavy>
42

>  <SCORE.norm>
-1.24196

>  <RMSD>
8.809

$$$$
1j7t
 OpenBabel11021811393D
libRbt.so/2013.1/901 2013/11/27
 42 45  0  0  0  0  0  0  0  0999 V2000
   26.7145    3.2874   58.2031 C   0  0  2  0  0  0  0  0  0  0  0  0
   27.7071    4.3421   58.1332 O   0  0  0  0  0  0  0  0  0  0  0  0
   27.2484    2.1072   57.3416 C   0  0  2  0  0  0  0  0  0  0  0  0
   28.6246    1.6556   57.6960 N   0  3  0  0  0  0  0  0  0  0  0  0
   27.2613    2.5596   55.8651 C   0  0  1  0  0  0  0  0  0  0  0  0
   27.7194    1.5281   55.0371 O   0  0  0  0  0  0  0  0  0  0  0  0
   25.8458    3.0143   55.4372 C   0  0  2  0  0  0  0  0  0  0  0  0
   25.8309    3.4129   54.0807 O   0  0  0  0  0  0  0  0  0  0  0  0
   25.3957    4.1739   56.3002 C   0  0  2  0  0  0  0  0  0  0  0  0
   25.4499    3.7901   57.6684 O   0  0  0  0  0  0  0  0  0  0  0  0
   23.9720    4.6018   56.0224 C   0  0  0  0  0  0  0  0  0  0  0  0
   23.9562    5.9613   55.6318 O   0  0  0  0  0  0  0  0  0  0  0  0
   26.0310    6.8393   61.1003 C   0  0  2  0  0  0  0  0  0  0  0  0
   25.8172    7.9766   61.9959 N   0  3  0  0  0  0  0  0  0  0  0  0
   27.4097    6.1674   61.4104 C   0  0  0  0  0  0  0  0  0  0  0  0
   27.6607    4.9996   60.4373 C   0  0  2  0  0  0  0  0  0  0  0  0
   28.9734    4.3918   60.6790 N   0  3  0  0  0  0  0  0  0  0  0  0
   27.5848    5.4918   58.9787 C   0  0  2  0  0  0  0  0  0  0  0  0
   26.2466    6.1833   58.6524 C   0  0  2  0  0  0  0  0  0  0  0  0
   26.3889    6.7191   57.3227 O   0  0  0  0  0  0  0  0  0  0  0  0
   25.9710    7.3269   59.6614 C   0  0  1  0  0  0  0  0  0  0  0  0
   24.7057    7.8717   59.4060 O   0  0  0  0  0  0  0  0  0  0  0  0
   27.6348    7.1413   56.7744 C   0  0  1  0  0  0  0  0  0  0  0  0
   27.3601    7.8629   55.4070 C   0  0  2  0  0  0  0  0  0  0  0  0
   27.3217    6.9883   54.2923 O   0  0  0  0  0  0  0  0  0  0  0  0
   28.5412    8.8231   55.4231 C   0  0  2  0  0  0  0  0  0  0  0  0
   29.8030    8.1078   55.2613 O   0  0  0  0  0  0  0  0  0  0  0  0
   28.5036    9.3752   56.8412 C   0  0  2  0  0  0  0  0  0  0  0  0
   28.2410    8.1782   57.5934 O   0  0  0  0  0  0  0  0  0  0  0  0
   27.4334   10.4890   57.0860 C   0  0  0  0  0  0  0  0  0  0  0  0
   27.8201   11.7344   56.4917 O   0  0  0  0  0  0  0  0  0  0  0  0
   30.2541    8.0261   53.9118 C   0  0  2  0  0  0  0  0  0  0  0  0
   31.4808    7.0777   53.6879 C   0  0  2  0  0  0  0  0  0  0  0  0
   32.6694    7.4623   54.5081 N   0  3  0  0  0  0  0  0  0  0  0  0
   31.8067    7.1039   52.1572 C   0  0  1  0  0  0  0  0  0  0  0  0
   30.6327    6.5470   51.4507 O   0  0  0  0  0  0  0  0  0  0  0  0
   32.0756    8.5636   51.6204 C   0  0  2  0  0  0  0  0  0  0  0  0
   33.2502    9.0794   52.2677 O   0  0  0  0  0  0  0  0  0  0  0  0
   30.7972    9.4473   51.9319 C   0  0  1  0  0  0  0  0  0  0  0  0
   30.5614    9.3900   53.3791 O   0  0  0  0  0  0  0  0  0  0  0  0
   30.9100   10.9209   51.4796 C   0  0  0  0  0  0  0  0  0  0  0  0
   31.3757   11.0747   50.0746 N   0  3  0  0  0  0  0  0  0  0  0  0
  1  2  1  6  0  0  0
  1  3  1  0  0  0  0
  1 10  1  0  0  0  0
  3  4  1  1  0  0  0
  3  5  1  0  0  0  0
  5  6  1  6  0  0  0
  5  7  1  0  0  0  0
  7  8  1  6  0  0  0
  7  9  1  0  0  0  0
  9 10  1  0  0  0  0
  9 11  1  6  0  0  0
 11 12  1  0  0  0  0
 13 14  1  1  0  0  0
 13 15  1  0  0  0  0
 13 21  1  0  0  0  0
 15 16  1  0  0  0  0
 16 17  1  1  0  0  0
 16 18  1  0  0  0  0
 18  2  1  6  0  0  0
 18 19  1  0  0  0  0
 19 20  1  6  0  0  0
 19 21  1  0  0  0  0
 21 22  1  6  0  0  0
 23 20  1  1  0  0  0
 23 24  1  0  0  0  0
 23 29  1  0  0  0  0
 24 25  1  6  0  0  0
 24 26  1  0  0  0  0
 26 27  1  1  0  0  0
 26 28  1  0  0  0  0
 28 29  1  0  0  0  0
 28 30  1  6  0  0  0
 30 31  1  0  0  0  0
 32 27  1  1  0  0  0
 32 33  1  0  0  0  0
 32 40  1  0  0  0  0
 33 34  1  1  0  0  0
 33 35  1  0  0  0  0
 35 36  1  6  0  0  0
 35 37  1  0  0  0  0
 37 38  1  1  0  0  0
 37 39  1  0  0  0  0
 39 40  1  0  0  0  0
 39 41  1  1  0  0  0
 41 42  1  0  0  0  0
M  CHG  5   4   1  14   1  17   1  34   1  42   1
M  END
>  <CHROM.1>
-171.31899011,61.72921872,-63.97353799,-68.24625925,52.51984927,-121.35650544
-44.41514711,-164.77764135,-90.57522304,-29.56220549,-171.38170694,-59.44230339
-53.95158913,93.54946781,-170.91477532,-73.93547902,-56.67987502,-70.76203292
-58.29215418,88.74982379,49.19634543,130.40034041,28.14283391,6.62208188
56.13375492,-2.99450625,0.99746210,0.40839748

>  <Name>
1j7t

>  <RI>
0

>  <Rbt.Current_Directory>
/home/itssahil/PROJECTS/Mol_Feturizer/New_Systems/rnas/1j7t

>  <Rbt.Executable>
rbdock ($Id: //depot/dev/client3/rdock/2013.1/src/exe/rbdock.cxx#4 $)

>  <Rbt.Library>
libRbt.so (2013.1, Build901 2013/11/27)

>  <Rbt.Parameter_File>
/export/apps/rDock/src/rDock_2013.1_src/data/scripts/dock_solv.prm

>  <Rbt.Receptor>
prm/pocket_docking_6.prm

>  <SCORE>
-45.6175

>  <SCORE.INTER>
-34.4191

>  <SCORE.INTER.CONST>
1

>  <SCORE.INTER.POLAR>
-6.21879

>  <SCORE.INTER.ROT>
9

>  <SCORE.INTER.SOLV>
21.6721

>  <SCORE.INTER.VDW>
-19.0408

>  <SCORE.INTER.norm>
-0.819502

>  <SCORE.INTRA>
-11.2508

>  <SCORE.INTRA.DIHEDRAL>
-18.8772

>  <SCORE.INTRA.DIHEDRAL.0>
46.2143

>  <SCORE.INTRA.POLAR>
-0.0054961

>  <SCORE.INTRA.POLAR.0>
-1.76436

>  <SCORE.INTRA.REPUL>
0

>  <SCORE.INTRA.REPUL.0>
0

>  <SCORE.INTRA.SOLV>
-3.88482

>  <SCORE.INTRA.SOLV.lig_0>
-148.643

>  <SCORE.INTRA.VDW>
0.148855

>  <SCORE.INTRA.VDW.0>
-4.83512

>  <SCORE.INTRA.norm>
-0.267877

>  <SCORE.RESTR>
0.0524121

>  <SCORE.RESTR.CAVITY>
0.0524121

>  <SCORE.RESTR.norm>
0.00124791

>  <SCORE.SYSTEM>
0

>  <SCORE.SYSTEM.CONST>
0

>  <SCORE.SYSTEM.DIHEDRAL>
0

>  <SCORE.SYSTEM.SOLV>
0

>  <SCORE.SYSTEM.norm>
0

>  <SCORE.heavy>
42

>  <SCORE.norm>
-1.08613

>  <RMSD>
8.811

$$$$
1j7t
 OpenBabel11021811393D
libRbt.so/2013.1/901 2013/11/27
 42 45  0  0  0  0  0  0  0  0999 V2000
   32.6199   12.4826   47.2460 C   0  0  2  0  0  0  0  0  0  0  0  0
   31.5963   11.5291   47.6275 O   0  0  0  0  0  0  0  0  0  0  0  0
   33.8961   12.1255   48.0609 C   0  0  2  0  0  0  0  0  0  0  0  0
   34.3299   10.7040   47.9392 N   0  3  0  0  0  0  0  0  0  0  0  0
   33.6076   12.4092   49.5512 C   0  0  1  0  0  0  0  0  0  0  0  0
   34.7310   12.1203   50.3348 O   0  0  0  0  0  0  0  0  0  0  0  0
   33.1780   13.8838   49.7370 C   0  0  2  0  0  0  0  0  0  0  0  0
   32.9295   14.1707   51.0990 O   0  0  0  0  0  0  0  0  0  0  0  0
   31.9236   14.1586   48.9350 C   0  0  2  0  0  0  0  0  0  0  0  0
   32.1568   13.8310   47.5711 O   0  0  0  0  0  0  0  0  0  0  0  0
   31.5041   15.6111   48.9700 C   0  0  0  0  0  0  0  0  0  0  0  0
   30.2281   15.7476   48.3747 O   0  0  0  0  0  0  0  0  0  0  0  0
   28.1803   13.2755   45.8585 C   0  0  2  0  0  0  0  0  0  0  0  0
   26.8709   13.4225   45.2220 N   0  3  0  0  0  0  0  0  0  0  0  0
   29.1327   12.4457   44.9349 C   0  0  0  0  0  0  0  0  0  0  0  0
   30.4969   12.2468   45.6227 C   0  0  2  0  0  0  0  0  0  0  0  0
   31.3846   11.4250   44.7936 N   0  3  0  0  0  0  0  0  0  0  0  0
   30.3111   11.5740   46.9969 C   0  0  2  0  0  0  0  0  0  0  0  0
   29.3550   12.3562   47.9185 C   0  0  2  0  0  0  0  0  0  0  0  0
   29.1630   11.5323   49.0846 O   0  0  0  0  0  0  0  0  0  0  0  0
   27.9993   12.5983   47.2077 C   0  0  1  0  0  0  0  0  0  0  0  0
   27.1867   13.3956   48.0244 O   0  0  0  0  0  0  0  0  0  0  0  0
   30.1807   10.7008   49.6360 C   0  0  1  0  0  0  0  0  0  0  0  0
   30.3312   11.0404   51.1618 C   0  0  2  0  0  0  0  0  0  0  0  0
   31.2390   12.0954   51.4297 O   0  0  0  0  0  0  0  0  0  0  0  0
   30.7842    9.6711   51.6488 C   0  0  2  0  0  0  0  0  0  0  0  0
   32.1252    9.3579   51.1657 O   0  0  0  0  0  0  0  0  0  0  0  0
   29.8121    8.7300   50.9512 C   0  0  2  0  0  0  0  0  0  0  0  0
   29.7726    9.3055   49.6341 O   0  0  0  0  0  0  0  0  0  0  0  0
   28.3976    8.6363   51.6117 C   0  0  0  0  0  0  0  0  0  0  0  0
   27.6577    7.5113   51.1208 O   0  0  0  0  0  0  0  0  0  0  0  0
   32.5950    8.0695   51.5539 C   0  0  2  0  0  0  0  0  0  0  0  0
   31.8283    7.4293   52.7608 C   0  0  2  0  0  0  0  0  0  0  0  0
   31.8651    8.2800   53.9890 N   0  3  0  0  0  0  0  0  0  0  0  0
   32.4681    6.0240   53.0165 C   0  0  1  0  0  0  0  0  0  0  0  0
   32.2281    5.2077   51.8067 O   0  0  0  0  0  0  0  0  0  0  0  0
   34.0235    6.1045   53.2730 C   0  0  2  0  0  0  0  0  0  0  0  0
   34.2494    6.8500   54.4804 O   0  0  0  0  0  0  0  0  0  0  0  0
   34.6952    6.8012   52.0179 C   0  0  1  0  0  0  0  0  0  0  0  0
   34.0612    8.1137   51.8481 O   0  0  0  0  0  0  0  0  0  0  0  0
   36.2278    6.9717   52.1224 C   0  0  0  0  0  0  0  0  0  0  0  0
   36.9798    5.7044   51.9150 N   0  3  0  0  0  0  0  0  0  0  0  0
  1  2  1  1  0  0  0
  1  3  1  0  0  0  0
  1 10  1  0  0  0  0
  3  4  1  1  0  0  0
  3  5  1  0  0  0  0
  5  6  1  1  0  0  0
  5  7  1  0  0  0  0
  7  8  1  1  0  0  0
  7  9  1  0  0  0  0
  9 10  1  0  0  0  0
  9 11  1  6  0  0  0
 11 12  1  0  0  0  0
 13 14  1  6  0  0  0
 13 15  1  0  0  0  0
 13 21  1  0  0  0  0
 15 16  1  0  0  0  0
 16 17  1  6  0  0  0
 16 18  1  0  0  0  0
 18  2  1  1  0  0  0
 18 19  1  0  0  0  0
 19 20  1  1  0  0  0
 19 21  1  0  0  0  0
 21 22  1  1  0  0  0
 23 20  1  1  0  0  0
 23 24  1  0  0  0  0
 23 29  1  0  0  0  0
 24 25  1  6  0  0  0
 24 26  1  0  0  0  0
 26 27  1  6  0  0  0
 26 28  1  0  0  0  0
 28 29  1  0  0  0  0
 28 30  1  1  0  0  0
 30 31  1  0  0  0  0
 32 27  1  1  0  0  0
 32 33  1  0  0  0  0
 32 40  1  0  0  0  0
 33 34  1  1  0  0  0
 33 35  1  0  0  0  0
 35 36  1  6  0  0  0
 35 37  1  0  0  0  0
 37 38  1  1  0  0  0
 37 39  1  0  0  0  0
 39 40  1  0  0  0  0
 39 41  1  1  0  0  0
 41 42  1  0  0  0  0
M  CHG  5   4   1  14   1  17   1  34   1  42   1
M  END
>  <CHROM.1>
-177.54219428,24.31208074,-162.51175330,64.59387552,-62.39472738,-171.17945192
177.83460345,-143.01563250,165.02852008,34.54192700,126.87624932,52.65501039
-160.46301737,-178.22892615,-18.51851865,-165.59891797,-67.64450917,-22.43827299
174.73504360,-76.74265908,75.07659951,-56.26201609,31.54064146,10.60376563
49.73681290,-2.01938414,0.20644463,2.52111492

>  <Name>
1j7t

>  <RI>
0

>  <Rbt.Current_Directory>
/home/itssahil/PROJECTS/Mol_Feturizer/New_Systems/rnas/1j7t

>  <Rbt.Executable>
rbdock ($Id: //depot/dev/client3/rdock/2013.1/src/exe/rbdock.cxx#4 $)

>  <Rbt.Library>
libRbt.so (2013.1, Build901 2013/11/27)

>  <Rbt.Parameter_File>
/export/apps/rDock/src/rDock_2013.1_src/data/scripts/dock_solv.prm

>  <Rbt.Receptor>
prm/blind_docking_80.prm

>  <SCORE>
-17.8558

>  <SCORE.INTER>
-35.4322

>  <SCORE.INTER.CONST>
1

>  <SCORE.INTER.POLAR>
-5.94628

>  <SCORE.INTER.ROT>
9

>  <SCORE.INTER.SOLV>
42.3013

>  <SCORE.INTER.VDW>
-27.5009

>  <SCORE.INTER.norm>
-0.843623

>  <SCORE.INTRA>
1.90781

>  <SCORE.INTRA.DIHEDRAL>
-14.0991

>  <SCORE.INTRA.DIHEDRAL.0>
46.2143

>  <SCORE.INTRA.POLAR>
0.712103

>  <SCORE.INTRA.POLAR.0>
-1.76436

>  <SCORE.INTRA.REPUL>
0.191601

>  <SCORE.INTRA.REPUL.0>
0

>  <SCORE.INTRA.SOLV>
-0.835124

>  <SCORE.INTRA.SOLV.lig_0>
-148.643

>  <SCORE.INTRA.VDW>
5.99577

>  <SCORE.INTRA.VDW.0>
-4.83512

>  <SCORE.INTRA.norm>
0.0454241

>  <SCORE.RESTR>
15.6686

>  <SCORE.RESTR.CAVITY>
15.6686

>  <SCORE.RESTR.norm>
0.373061

>  <SCORE.SYSTEM>
0

>  <SCORE.SYSTEM.CONST>
0

>  <SCORE.SYSTEM.DIHEDRAL>
0

>  <SCORE.SYSTEM.SOLV>
0

>  <SCORE.SYSTEM.norm>
0

>  <SCORE.heavy>
42

>  <SCORE.norm>
-0.425138

>  <RMSD>
8.816

$$$$
1j7t
 OpenBabel11021811393D
libRbt.so/2013.1/901 2013/11/27
 42 45  0  0  0  0  0  0  0  0999 V2000
   25.2558    5.4474   58.7523 C   0  0  2  0  0  0  0  0  0  0  0  0
   25.9190    4.2200   59.1475 O   0  0  0  0  0  0  0  0  0  0  0  0
   24.0361    5.6273   59.7010 C   0  0  2  0  0  0  0  0  0  0  0  0
   24.3685    5.5700   61.1535 N   0  3  0  0  0  0  0  0  0  0  0  0
   23.0244    4.5002   59.3993 C   0  0  1  0  0  0  0  0  0  0  0  0
   21.8936    4.6209   60.2155 O   0  0  0  0  0  0  0  0  0  0  0  0
   22.6242    4.5324   57.9052 C   0  0  2  0  0  0  0  0  0  0  0  0
   21.6810    3.5207   57.6121 O   0  0  0  0  0  0  0  0  0  0  0  0
   23.8508    4.3332   57.0403 C   0  0  2  0  0  0  0  0  0  0  0  0
   24.8187    5.3238   57.3624 O   0  0  0  0  0  0  0  0  0  0  0  0
   23.5619    4.4688   55.5621 C   0  0  0  0  0  0  0  0  0  0  0  0
   23.7527    5.8133   55.1659 O   0  0  0  0  0  0  0  0  0  0  0  0
   29.3657    2.2458   57.7085 C   0  0  2  0  0  0  0  0  0  0  0  0
   30.2904    1.5427   56.8186 N   0  3  0  0  0  0  0  0  0  0  0  0
   28.0733    1.3894   57.9201 C   0  0  0  0  0  0  0  0  0  0  0  0
   27.0763    2.1477   58.8172 C   0  0  2  0  0  0  0  0  0  0  0  0
   25.8362    1.3822   58.9823 N   0  3  0  0  0  0  0  0  0  0  0  0
   26.7504    3.5263   58.2099 C   0  0  2  0  0  0  0  0  0  0  0  0
   28.0088    4.3817   57.9649 C   0  0  2  0  0  0  0  0  0  0  0  0
   27.5614    5.5557   57.2600 O   0  0  0  0  0  0  0  0  0  0  0  0
   29.0322    3.5999   57.1027 C   0  0  1  0  0  0  0  0  0  0  0  0
   30.2045    4.3571   56.9793 O   0  0  0  0  0  0  0  0  0  0  0  0
   28.4434    6.5615   56.7685 C   0  0  1  0  0  0  0  0  0  0  0  0
   27.8416    7.1492   55.4424 C   0  0  2  0  0  0  0  0  0  0  0  0
   28.2200    6.4400   54.2750 O   0  0  0  0  0  0  0  0  0  0  0  0
   28.4124    8.5566   55.5459 C   0  0  2  0  0  0  0  0  0  0  0  0
   29.8611    8.5511   55.3699 O   0  0  0  0  0  0  0  0  0  0  0  0
   28.1261    8.9275   56.9943 C   0  0  2  0  0  0  0  0  0  0  0  0
   28.4811    7.7058   57.6643 O   0  0  0  0  0  0  0  0  0  0  0  0
   26.6534    9.3680   57.2824 C   0  0  0  0  0  0  0  0  0  0  0  0
   26.4491    9.6554   58.6715 O   0  0  0  0  0  0  0  0  0  0  0  0
   30.2815    8.3001   54.0313 C   0  0  2  0  0  0  0  0  0  0  0  0
   31.2952    7.1159   53.8747 C   0  0  2  0  0  0  0  0  0  0  0  0
   32.5398    7.3068   54.6796 N   0  3  0  0  0  0  0  0  0  0  0  0
   31.6134    6.9843   52.3479 C   0  0  1  0  0  0  0  0  0  0  0  0
   30.3495    6.6288   51.6669 O   0  0  0  0  0  0  0  0  0  0  0  0
   32.1637    8.3266   51.7262 C   0  0  2  0  0  0  0  0  0  0  0  0
   33.4199    8.6380   52.3505 O   0  0  0  0  0  0  0  0  0  0  0  0
   31.0869    9.4630   51.9738 C   0  0  1  0  0  0  0  0  0  0  0  0
   30.8505    9.5413   53.4199 O   0  0  0  0  0  0  0  0  0  0  0  0
   31.4872   10.8550   51.4344 C   0  0  0  0  0  0  0  0  0  0  0  0
   31.2197   11.0256   49.9804 N   0  3  0  0  0  0  0  0  0  0  0  0
  1  2  1  1  0  0  0
  1  3  1  0  0  0  0
  1 10  1  0  0  0  0
  3  4  1  1  0  0  0
  3  5  1  0  0  0  0
  5  6  1  1  0  0  0
  5  7  1  0  0  0  0
  7  8  1  1  0  0  0
  7  9  1  0  0  0  0
  9 10  1  0  0  0  0
  9 11  1  6  0  0  0
 11 12  1  0  0  0  0
 13 14  1  6  0  0  0
 13 15  1  0  0  0  0
 13 21  1  0  0  0  0
 15 16  1  0  0  0  0
 16 17  1  6  0  0  0
 16 18  1  0  0  0  0
 18  2  1  1  0  0  0
 18 19  1  0  0  0  0
 19 20  1  6  0  0  0
 19 21  1  0  0  0  0
 21 22  1  1  0  0  0
 23 20  1  1  0  0  0
 23 24  1  0  0  0  0
 23 29  1  0  0  0  0
 24 25  1  6  0  0  0
 24 26  1  0  0  0  0
 26 27  1  1  0  0  0
 26 28  1  0  0  0  0
 28 29  1  0  0  0  0
 28 30  1  6  0  0  0
 30 31  1  0  0  0  0
 32 27  1  1  0  0  0
 32 33  1  0  0  0  0
 32 40  1  0  0  0  0
 33 34  1  1  0  0  0
 33 35  1  0  0  0  0
 35 36  1  6  0  0  0
 35 37  1  0  0  0  0
 37 38  1  1  0  0  0
 37 39  1  0  0  0  0
 39 40  1  0  0  0  0
 39 41  1  1  0  0  0
 41 42  1  0  0  0  0
M  CHG  5   4   1  14   1  17   1  34   1  42   1
M  END
>  <CHROM.1>
157.30234980,-169.00967814,-177.92826283,-176.60013698,168.82512704,90.90252640
-56.45538584,72.41423857,-177.62412011,-175.70750236,146.80067524,65.07501409
-175.57126444,72.03823723,-125.95110257,177.94933753,179.42650347,-64.20168935
-66.70979130,166.61232090,82.19577893,68.82515498,27.75311743,6.08324667
56.23317690,2.41739595,-0.45784829,2.69183482

>  <Name>
1j7t

>  <RI>
0

>  <Rbt.Current_Directory>
/home/itssahil/PROJECTS/Mol_Feturizer/New_Systems/rnas/1j7t

>  <Rbt.Executable>
rbdock ($Id: //depot/dev/client3/rdock/2013.1/src/exe/rbdock.cxx#4 $)

>  <Rbt.Library>
libRbt.so (2013.1, Build901 2013/11/27)

>  <Rbt.Parameter_File>
/export/apps/rDock/src/rDock_2013.1_src/data/scripts/dock_solv.prm

>  <Rbt.Receptor>
prm/pocket_docking_4.prm

>  <SCORE>
-42.0691

>  <SCORE.INTER>
-30.8355

>  <SCORE.INTER.CONST>
1

>  <SCORE.INTER.POLAR>
-4.92117

>  <SCORE.INTER.ROT>
9

>  <SCORE.INTER.SOLV>
15.2014

>  <SCORE.INTER.VDW>
-18.8202

>  <SCORE.INTER.norm>
-0.734178

>  <SCORE.INTRA>
-12.0119

>  <SCORE.INTRA.DIHEDRAL>
-23.9495

>  <SCORE.INTRA.DIHEDRAL.0>
46.2143

>  <SCORE.INTRA.POLAR>
1.11723

>  <SCORE.INTRA.POLAR.0>
-1.76436

>  <SCORE.INTRA.REPUL>
0

>  <SCORE.INTRA.REPUL.0>
0

>  <SCORE.INTRA.SOLV>
-6.01644

>  <SCORE.INTRA.SOLV.lig_0>
-148.643

>  <SCORE.INTRA.VDW>
-0.82748

>  <SCORE.INTRA.VDW.0>
-4.83512

>  <SCORE.INTRA.norm>
-0.285997

>  <SCORE.RESTR>
0.778214

>  <SCORE.RESTR.CAVITY>
0.778214

>  <SCORE.RESTR.norm>
0.0185289

>  <SCORE.SYSTEM>
0

>  <SCORE.SYSTEM.CONST>
0

>  <SCORE.SYSTEM.DIHEDRAL>
0

>  <SCORE.SYSTEM.SOLV>
0

>  <SCORE.SYSTEM.norm>
0

>  <SCORE.heavy>
42

>  <SCORE.norm>
-1.00165

>  <RMSD>
8.882

$$$$
1j7t
 OpenBabel11021811393D
libRbt.so/2013.1/901 2013/11/27
 42 45  0  0  0  0  0  0  0  0999 V2000
   25.0390    4.3650   59.6174 C   0  0  2  0  0  0  0  0  0  0  0  0
   25.4886    4.7237   58.2864 O   0  0  0  0  0  0  0  0  0  0  0  0
   23.6206    4.9786   59.7956 C   0  0  2  0  0  0  0  0  0  0  0  0
   22.6513    4.6182   58.7213 N   0  3  0  0  0  0  0  0  0  0  0  0
   23.7626    6.5163   59.8123 C   0  0  1  0  0  0  0  0  0  0  0  0
   22.5143    7.1251   59.9871 O   0  0  0  0  0  0  0  0  0  0  0  0
   24.7405    6.9466   60.9313 C   0  0  2  0  0  0  0  0  0  0  0  0
   24.8685    8.3539   60.9779 O   0  0  0  0  0  0  0  0  0  0  0  0
   26.1026    6.3320   60.6879 C   0  0  2  0  0  0  0  0  0  0  0  0
   25.9713    4.9190   60.5982 O   0  0  0  0  0  0  0  0  0  0  0  0
   27.0859    6.6098   61.8027 C   0  0  0  0  0  0  0  0  0  0  0  0
   28.3601    6.1120   61.4423 O   0  0  0  0  0  0  0  0  0  0  0  0
   29.5109    3.5049   58.7155 C   0  0  2  0  0  0  0  0  0  0  0  0
   30.9011    3.1766   58.3980 N   0  3  0  0  0  0  0  0  0  0  0  0
   28.5454    2.5589   57.9273 C   0  0  0  0  0  0  0  0  0  0  0  0
   27.0801    2.9332   58.2210 C   0  0  2  0  0  0  0  0  0  0  0  0
   26.1612    2.0908   57.4484 N   0  3  0  0  0  0  0  0  0  0  0  0
   26.8267    4.4147   57.8796 C   0  0  2  0  0  0  0  0  0  0  0  0
   27.7829    5.3688   58.6217 C   0  0  2  0  0  0  0  0  0  0  0  0
   27.5305    6.6820   58.0858 O   0  0  0  0  0  0  0  0  0  0  0  0
   29.2562    4.9624   58.3650 C   0  0  1  0  0  0  0  0  0  0  0  0
   30.0995    5.7800   59.1288 O   0  0  0  0  0  0  0  0  0  0  0  0
   28.0704    7.1441   56.8504 C   0  0  1  0  0  0  0  0  0  0  0  0
   27.4071    8.5238   56.5002 C   0  0  2  0  0  0  0  0  0  0  0  0
   26.1963    8.4118   55.7719 O   0  0  0  0  0  0  0  0  0  0  0  0
   28.5646    9.1337   55.7220 C   0  0  2  0  0  0  0  0  0  0  0  0
   28.7666    8.4434   54.4522 O   0  0  0  0  0  0  0  0  0  0  0  0
   29.7627    8.8257   56.6091 C   0  0  2  0  0  0  0  0  0  0  0  0
   29.4814    7.4667   56.9857 O   0  0  0  0  0  0  0  0  0  0  0  0
   29.9289    9.7719   57.8431 C   0  0  0  0  0  0  0  0  0  0  0  0
   28.8365    9.6409   58.7615 O   0  0  0  0  0  0  0  0  0  0  0  0
   29.9909    8.7735   53.8012 C   0  0  2  0  0  0  0  0  0  0  0  0
   29.8717    8.9920   52.2545 C   0  0  2  0  0  0  0  0  0  0  0  0
   29.3217    7.7999   51.5405 N   0  3  0  0  0  0  0  0  0  0  0  0
   31.2996    9.3651   51.7333 C   0  0  1  0  0  0  0  0  0  0  0  0
   31.6777   10.6444   52.3721 O   0  0  0  0  0  0  0  0  0  0  0  0
   32.3817    8.2763   52.1002 C   0  0  2  0  0  0  0  0  0  0  0  0
   32.0416    7.0507   51.4316 O   0  0  0  0  0  0  0  0  0  0  0  0
   32.3927    8.1027   53.6756 C   0  0  1  0  0  0  0  0  0  0  0  0
   31.0328    7.7396   54.0904 O   0  0  0  0  0  0  0  0  0  0  0  0
   33.3963    7.0499   54.1982 C   0  0  0  0  0  0  0  0  0  0  0  0
   34.7823    7.2529   53.6959 N   0  3  0  0  0  0  0  0  0  0  0  0
  1  2  1  6  0  0  0
  1  3  1  0  0  0  0
  1 10  1  0  0  0  0
  3  4  1  6  0  0  0
  3  5  1  0  0  0  0
  5  6  1  1  0  0  0
  5  7  1  0  0  0  0
  7  8  1  6  0  0  0
  7  9  1  0  0  0  0
  9 10  1  0  0  0  0
  9 11  1  1  0  0  0
 11 12  1  0  0  0  0
 13 14  1  6  0  0  0
 13 15  1  0  0  0  0
 13 21  1  0  0  0  0
 15 16  1  0  0  0  0
 16 17  1  6  0  0  0
 16 18  1  0  0  0  0
 18  2  1  1  0  0  0
 18 19  1  0  0  0  0
 19 20  1  6  0  0  0
 19 21  1  0  0  0  0
 21 22  1  1  0  0  0
 23 20  1  1  0  0  0
 23 24  1  0  0  0  0
 23 29  1  0  0  0  0
 24 25  1  6  0  0  0
 24 26  1  0  0  0  0
 26 27  1  6  0  0  0
 26 28  1  0  0  0  0
 28 29  1  0  0  0  0
 28 30  1  1  0  0  0
 30 31  1  0  0  0  0
 32 27  1  6  0  0  0
 32 33  1  0  0  0  0
 32 40  1  0  0  0  0
 33 34  1  6  0  0  0
 33 35  1  0  0  0  0
 35 36  1  1  0  0  0
 35 37  1  0  0  0  0
 37 38  1  6  0  0  0
 37 39  1  0  0  0  0
 39 40  1  0  0  0  0
 39 41  1  6  0  0  0
 41 42  1  0  0  0  0
M  CHG  5   4   1  14   1  17   1  34   1  42   1
M  END
>  <CHROM.1>
173.56676022,49.46840934,144.26090540,-174.25299792,65.71831653,-174.56913229
-64.70984443,-57.05746963,-57.83589637,-80.36645974,171.62201630,168.59460216
-56.92488404,-167.75640813,-137.57340646,64.44975727,178.63001876,47.89256314
173.74880171,71.89107084,52.41686716,-113.39533778,28.31732950,6.70519795
57.03208906,-2.45773318,0.57337366,-0.57966092

>  <Name>
1j7t

>  <RI>
0

>  <Rbt.Current_Directory>
/home/itssahil/PROJECTS/Mol_Feturizer/New_Systems/rnas/1j7t

>  <Rbt.Executable>
rbdock ($Id: //depot/dev/client3/rdock/2013.1/src/exe/rbdock.cxx#4 $)

>  <Rbt.Library>
libRbt.so (2013.1, Build901 2013/11/27)

>  <Rbt.Parameter_File>
/export/apps/rDock/src/rDock_2013.1_src/data/scripts/dock_solv.prm

>  <Rbt.Receptor>
prm/pocket_docking_3.prm

>  <SCORE>
-40.0004

>  <SCORE.INTER>
-28.1588

>  <SCORE.INTER.CONST>
1

>  <SCORE.INTER.POLAR>
-4.88284

>  <SCORE.INTER.ROT>
9

>  <SCORE.INTER.SOLV>
20.3445

>  <SCORE.INTER.VDW>
-18.8779

>  <SCORE.INTER.norm>
-0.670448

>  <SCORE.INTRA>
-13.009

>  <SCORE.INTRA.DIHEDRAL>
-27.6212

>  <SCORE.INTRA.DIHEDRAL.0>
46.2143

>  <SCORE.INTRA.POLAR>
0.522452

>  <SCORE.INTRA.POLAR.0>
-1.76436

>  <SCORE.INTRA.REPUL>
0

>  <SCORE.INTRA.REPUL.0>
0

>  <SCORE.INTRA.SOLV>
-3.23588

>  <SCORE.INTRA.SOLV.lig_0>
-148.643

>  <SCORE.INTRA.VDW>
0.643225

>  <SCORE.INTRA.VDW.0>
-4.83512

>  <SCORE.INTRA.norm>
-0.309737

>  <SCORE.RESTR>
1.16733

>  <SCORE.RESTR.CAVITY>
1.16733

>  <SCORE.RESTR.norm>
0.0277936

>  <SCORE.SYSTEM>
0

>  <SCORE.SYSTEM.CONST>
0

>  <SCORE.SYSTEM.DIHEDRAL>
0

>  <SCORE.SYSTEM.SOLV>
0

>  <SCORE.SYSTEM.norm>
0

>  <SCORE.heavy>
42

>  <SCORE.norm>
-0.952391

>  <RMSD>
8.887

$$$$
1j7t
 OpenBabel11021811393D
libRbt.so/2013.1/901 2013/11/27
 42 45  0  0  0  0  0  0  0  0999 V2000
   26.0180    5.4564   56.5701 C   0  0  2  0  0  0  0  0  0  0  0  0
   25.6226    6.8484   56.4788 O   0  0  0  0  0  0  0  0  0  0  0  0
   25.0770    4.6567   55.6240 C   0  0  2  0  0  0  0  0  0  0  0  0
   25.0235    5.1711   54.2254 N   0  3  0  0  0  0  0  0  0  0  0  0
   23.6485    4.7153   56.2077 C   0  0  1  0  0  0  0  0  0  0  0  0
   22.7569    3.9960   55.4033 O   0  0  0  0  0  0  0  0  0  0  0  0
   23.6433    4.1655   57.6538 C   0  0  2  0  0  0  0  0  0  0  0  0
   22.3394    4.1904   58.2000 O   0  0  0  0  0  0  0  0  0  0  0  0
   24.5617    4.9977   58.5233 C   0  0  2  0  0  0  0  0  0  0  0  0
   25.8646    5.0096   57.9539 O   0  0  0  0  0  0  0  0  0  0  0  0
   24.7031    4.4531   59.9270 C   0  0  0  0  0  0  0  0  0  0  0  0
   25.3878    5.3944   60.7310 O   0  0  0  0  0  0  0  0  0  0  0  0
   27.4161   10.5751   57.3409 C   0  0  2  0  0  0  0  0  0  0  0  0
   28.1217   11.6427   58.0507 N   0  3  0  0  0  0  0  0  0  0  0  0
   26.0963   10.2116   58.0987 C   0  0  0  0  0  0  0  0  0  0  0  0
   25.3750    9.0546   57.3814 C   0  0  2  0  0  0  0  0  0  0  0  0
   24.1625    8.6647   58.1086 N   0  3  0  0  0  0  0  0  0  0  0  0
   26.3106    7.8363   57.2549 C   0  0  2  0  0  0  0  0  0  0  0  0
   27.6318    8.1721   56.5360 C   0  0  2  0  0  0  0  0  0  0  0  0
   28.4509    6.9912   56.6357 O   0  0  0  0  0  0  0  0  0  0  0  0
   28.3334    9.3677   57.2288 C   0  0  1  0  0  0  0  0  0  0  0  0
   29.4770    9.7170   56.4987 O   0  0  0  0  0  0  0  0  0  0  0  0
   29.7125    6.8524   55.9875 C   0  0  1  0  0  0  0  0  0  0  0  0
   30.7811    6.4322   57.0588 C   0  0  2  0  0  0  0  0  0  0  0  0
   31.3947    7.5259   57.7192 O   0  0  0  0  0  0  0  0  0  0  0  0
   31.7063    5.6378   56.1475 C   0  0  2  0  0  0  0  0  0  0  0  0
   32.3952    6.5133   55.2048 O   0  0  0  0  0  0  0  0  0  0  0  0
   30.7341    4.7783   55.3516 C   0  0  2  0  0  0  0  0  0  0  0  0
   29.7015    5.7350   55.0578 O   0  0  0  0  0  0  0  0  0  0  0  0
   30.1943    3.5211   56.1091 C   0  0  0  0  0  0  0  0  0  0  0  0
   29.1053    2.9078   55.4078 O   0  0  0  0  0  0  0  0  0  0  0  0
   33.4024    5.8598   54.4366 C   0  0  2  0  0  0  0  0  0  0  0  0
   34.4750    6.8170   53.8141 C   0  0  2  0  0  0  0  0  0  0  0  0
   33.8771    7.8601   52.9266 N   0  3  0  0  0  0  0  0  0  0  0  0
   35.4951    5.9188   53.0380 C   0  0  1  0  0  0  0  0  0  0  0  0
   36.1515    5.0428   54.0326 O   0  0  0  0  0  0  0  0  0  0  0  0
   34.7985    5.0145   51.9480 C   0  0  2  0  0  0  0  0  0  0  0  0
   34.2110    5.8688   50.9531 O   0  0  0  0  0  0  0  0  0  0  0  0
   33.7087    4.1200   52.6720 C   0  0  1  0  0  0  0  0  0  0  0  0
   32.7815    5.0240   53.3623 O   0  0  0  0  0  0  0  0  0  0  0  0
   32.9192    3.1825   51.7303 C   0  0  0  0  0  0  0  0  0  0  0  0
   32.1103    3.9087   50.7141 N   0  3  0  0  0  0  0  0  0  0  0  0
  1  2  1  1  0  0  0
  1  3  1  0  0  0  0
  1 10  1  0  0  0  0
  3  4  1  6  0  0  0
  3  5  1  0  0  0  0
  5  6  1  6  0  0  0
  5  7  1  0  0  0  0
  7  8  1  1  0  0  0
  7  9  1  0  0  0  0
  9 10  1  0  0  0  0
  9 11  1  1  0  0  0
 11 12  1  0  0  0  0
 13 14  1  1  0  0  0
 13 15  1  0  0  0  0
 13 21  1  0  0  0  0
 15 16  1  0  0  0  0
 16 17  1  1  0  0  0
 16 18  1  0  0  0  0
 18  2  1  6  0  0  0
 18 19  1  0  0  0  0
 19 20  1  1  0  0  0
 19 21  1  0  0  0  0
 21 22  1  6  0  0  0
 23 20  1  1  0  0  0
 23 24  1  0  0  0  0
 23 29  1  0  0  0  0
 24 25  1  6  0  0  0
 24 26  1  0  0  0  0
 26 27  1  6  0  0  0
 26 28  1  0  0  0  0
 28 29  1  0  0  0  0
 28 30  1  1  0  0  0
 30 31  1  0  0  0  0
 32 27  1  6  0  0  0
 32 33  1  0  0  0  0
 32 40  1  0  0  0  0
 33 34  1  6  0  0  0
 33 35  1  0  0  0  0
 35 36  1  1  0  0  0
 35 37  1  0  0  0  0
 37 38  1  6  0  0  0
 37 39  1  0  0  0  0
 39 40  1  0  0  0  0
 39 41  1  6  0  0  0
 41 42  1  0  0  0  0
M  CHG  5   4   1  14   1  17   1  34   1  42   1
M  END
>  <CHROM.1>
179.55198970,-158.57811775,36.19811568,61.07518695,-61.06643223,-170.36225414
61.55945190,-53.14321101,56.94781901,174.09828602,127.19048000,151.74138746
174.53239156,172.42771027,-159.31474470,168.93566937,174.07838036,76.14551294
-53.55421940,69.57325084,-63.01499743,55.65862282,28.93373844,6.18882687
55.80361153,2.86353465,0.39159178,0.47037242

>  <Name>
1j7t

>  <RI>
0

>  <Rbt.Current_Directory>
/home/itssahil/PROJECTS/Mol_Feturizer/New_Systems/rnas/1j7t

>  <Rbt.Executable>
rbdock ($Id: //depot/dev/client3/rdock/2013.1/src/exe/rbdock.cxx#4 $)

>  <Rbt.Library>
libRbt.so (2013.1, Build901 2013/11/27)

>  <Rbt.Parameter_File>
/export/apps/rDock/src/rDock_2013.1_src/data/scripts/dock_solv.prm

>  <Rbt.Receptor>
prm/pocket_docking_4.prm

>  <SCORE>
-44.2071

>  <SCORE.INTER>
-27.3097

>  <SCORE.INTER.CONST>
1

>  <SCORE.INTER.POLAR>
-5.73515

>  <SCORE.INTER.ROT>
9

>  <SCORE.INTER.SOLV>
18.058

>  <SCORE.INTER.VDW>
-14.7087

>  <SCORE.INTER.norm>
-0.650232

>  <SCORE.INTRA>
-17.0784

>  <SCORE.INTRA.DIHEDRAL>
-27.3751

>  <SCORE.INTRA.DIHEDRAL.0>
46.2143

>  <SCORE.INTRA.POLAR>
0.0950333

>  <SCORE.INTRA.POLAR.0>
-1.76436

>  <SCORE.INTRA.REPUL>
0

>  <SCORE.INTRA.REPUL.0>
0

>  <SCORE.INTRA.SOLV>
-3.54534

>  <SCORE.INTRA.SOLV.lig_0>
-148.643

>  <SCORE.INTRA.VDW>
-1.94131

>  <SCORE.INTRA.VDW.0>
-4.83512

>  <SCORE.INTRA.norm>
-0.406629

>  <SCORE.RESTR>
0.181092

>  <SCORE.RESTR.CAVITY>
0.181092

>  <SCORE.RESTR.norm>
0.00431171

>  <SCORE.SYSTEM>
0

>  <SCORE.SYSTEM.CONST>
0

>  <SCORE.SYSTEM.DIHEDRAL>
0

>  <SCORE.SYSTEM.SOLV>
0

>  <SCORE.SYSTEM.norm>
0

>  <SCORE.heavy>
42

>  <SCORE.norm>
-1.05255

>  <RMSD>
8.918

$$$$
1j7t
 OpenBabel11021811393D
libRbt.so/2013.1/901 2013/11/27
 42 45  0  0  0  0  0  0  0  0999 V2000
   26.2240    6.1313   57.8838 C   0  0  2  0  0  0  0  0  0  0  0  0
   26.9615    5.6372   59.0303 O   0  0  0  0  0  0  0  0  0  0  0  0
   24.7957    6.4890   58.3857 C   0  0  2  0  0  0  0  0  0  0  0  0
   24.7646    7.4108   59.5574 N   0  3  0  0  0  0  0  0  0  0  0  0
   24.0887    5.1777   58.7928 C   0  0  1  0  0  0  0  0  0  0  0  0
   22.7877    5.4368   59.2395 O   0  0  0  0  0  0  0  0  0  0  0  0
   24.0695    4.1929   57.5997 C   0  0  2  0  0  0  0  0  0  0  0  0
   23.4070    2.9926   57.9450 O   0  0  0  0  0  0  0  0  0  0  0  0
   25.4869    3.8730   57.1745 C   0  0  2  0  0  0  0  0  0  0  0  0
   26.1694    5.0820   56.8670 O   0  0  0  0  0  0  0  0  0  0  0  0
   25.5531    3.0067   55.9367 C   0  0  0  0  0  0  0  0  0  0  0  0
   26.9050    2.7223   55.6322 O   0  0  0  0  0  0  0  0  0  0  0  0
   31.1424    5.9434   59.5546 C   0  0  2  0  0  0  0  0  0  0  0  0
   32.5756    5.6640   59.4581 N   0  3  0  0  0  0  0  0  0  0  0  0
   30.4099    4.7444   60.2434 C   0  0  0  0  0  0  0  0  0  0  0  0
   28.8941    5.0133   60.3028 C   0  0  2  0  0  0  0  0  0  0  0  0
   28.1851    3.8754   60.8973 N   0  3  0  0  0  0  0  0  0  0  0  0
   28.3412    5.2793   58.8888 C   0  0  2  0  0  0  0  0  0  0  0  0
   29.0637    6.4386   58.1753 C   0  0  2  0  0  0  0  0  0  0  0  0
   28.5502    6.4597   56.8294 O   0  0  0  0  0  0  0  0  0  0  0  0
   30.5935    6.1912   58.1585 C   0  0  1  0  0  0  0  0  0  0  0  0
   31.2340    7.3032   57.5961 O   0  0  0  0  0  0  0  0  0  0  0  0
   28.8342    7.4984   55.8958 C   0  0  1  0  0  0  0  0  0  0  0  0
   28.4697    6.9892   54.4557 C   0  0  2  0  0  0  0  0  0  0  0  0
   29.5244    6.3021   53.8041 O   0  0  0  0  0  0  0  0  0  0  0  0
   28.1027    8.3295   53.8342 C   0  0  2  0  0  0  0  0  0  0  0  0
   29.2798    9.1786   53.6815 O   0  0  0  0  0  0  0  0  0  0  0  0
   27.2155    8.9596   54.8987 C   0  0  2  0  0  0  0  0  0  0  0  0
   27.9479    8.6337   56.0925 O   0  0  0  0  0  0  0  0  0  0  0  0
   25.7448    8.4286   54.9289 C   0  0  0  0  0  0  0  0  0  0  0  0
   25.1596    8.5646   56.2301 O   0  0  0  0  0  0  0  0  0  0  0  0
   29.4988    9.6316   52.3480 C   0  0  2  0  0  0  0  0  0  0  0  0
   29.8700    8.5036   51.3261 C   0  0  2  0  0  0  0  0  0  0  0  0
   31.0946    7.7431   51.7204 N   0  3  0  0  0  0  0  0  0  0  0  0
   30.0448    9.1896   49.9302 C   0  0  1  0  0  0  0  0  0  0  0  0
   28.7336    9.7635   49.5578 O   0  0  0  0  0  0  0  0  0  0  0  0
   31.1164   10.3482   49.9549 C   0  0  2  0  0  0  0  0  0  0  0  0
   32.3992    9.7777   50.2611 O   0  0  0  0  0  0  0  0  0  0  0  0
   30.6704   11.4097   51.0441 C   0  0  1  0  0  0  0  0  0  0  0  0
   30.5421   10.7036   52.3240 O   0  0  0  0  0  0  0  0  0  0  0  0
   31.6329   12.6085   51.2038 C   0  0  0  0  0  0  0  0  0  0  0  0
   32.1746   13.1087   49.9111 N   0  3  0  0  0  0  0  0  0  0  0  0
  1  2  1  1  0  0  0
  1  3  1  0  0  0  0
  1 10  1  0  0  0  0
  3  4  1  1  0  0  0
  3  5  1  0  0  0  0
  5  6  1  6  0  0  0
  5  7  1  0  0  0  0
  7  8  1  1  0  0  0
  7  9  1  0  0  0  0
  9 10  1  0  0  0  0
  9 11  1  6  0  0  0
 11 12  1  0  0  0  0
 13 14  1  6  0  0  0
 13 15  1  0  0  0  0
 13 21  1  0  0  0  0
 15 16  1  0  0  0  0
 16 17  1  6  0  0  0
 16 18  1  0  0  0  0
 18  2  1  1  0  0  0
 18 19  1  0  0  0  0
 19 20  1  6  0  0  0
 19 21  1  0  0  0  0
 21 22  1  1  0  0  0
 23 20  1  1  0  0  0
 23 24  1  0  0  0  0
 23 29  1  0  0  0  0
 24 25  1  6  0  0  0
 24 26  1  0  0  0  0
 26 27  1  1  0  0  0
 26 28  1  0  0  0  0
 28 29  1  0  0  0  0
 28 30  1  1  0  0  0
 30 31  1  0  0  0  0
 32 27  1  1  0  0  0
 32 33  1  0  0  0  0
 32 40  1  0  0  0  0
 33 34  1  1  0  0  0
 33 35  1  0  0  0  0
 35 36  1  1  0  0  0
 35 37  1  0  0  0  0
 37 38  1  1  0  0  0
 37 39  1  0  0  0  0
 39 40  1  0  0  0  0
 39 41  1  1  0  0  0
 41 42  1  0  0  0  0
M  CHG  5   4   1  14   1  17   1  34   1  42   1
M  END
>  <CHROM.1>
-177.28961520,171.15477127,-68.74193555,-172.44902881,169.26548982,-178.24646267
63.58746361,-175.80787211,62.63741488,171.34551171,163.76384594,81.18981800
60.23826898,124.12952567,-66.60916605,153.84953350,-179.70404567,-159.20290318
50.55042569,-94.27564061,40.00641679,-67.61259670,28.30094072,7.15283250
55.65336733,2.02568396,0.19209053,2.10045933

>  <Name>
1j7t

>  <RI>
0

>  <Rbt.Current_Directory>
/home/itssahil/PROJECTS/Mol_Feturizer/New_Systems/rnas/1j7t

>  <Rbt.Executable>
rbdock ($Id: //depot/dev/client3/rdock/2013.1/src/exe/rbdock.cxx#4 $)

>  <Rbt.Library>
libRbt.so (2013.1, Build901 2013/11/27)

>  <Rbt.Parameter_File>
/export/apps/rDock/src/rDock_2013.1_src/data/scripts/dock_solv.prm

>  <Rbt.Receptor>
prm/pocket_docking_2.prm

>  <SCORE>
-29.3729

>  <SCORE.INTER>
-24.0706

>  <SCORE.INTER.CONST>
1

>  <SCORE.INTER.POLAR>
-2.88975

>  <SCORE.INTER.ROT>
9

>  <SCORE.INTER.SOLV>
25.1687

>  <SCORE.INTER.VDW>
-24.4042

>  <SCORE.INTER.norm>
-0.57311

>  <SCORE.INTRA>
-11.3379

>  <SCORE.INTRA.DIHEDRAL>
-24.1042

>  <SCORE.INTRA.DIHEDRAL.0>
46.2143

>  <SCORE.INTRA.POLAR>
0.589447

>  <SCORE.INTRA.POLAR.0>
-1.76436

>  <SCORE.INTRA.REPUL>
0

>  <SCORE.INTRA.REPUL.0>
0

>  <SCORE.INTRA.SOLV>
-2.6285

>  <SCORE.INTRA.SOLV.lig_0>
-148.643

>  <SCORE.INTRA.VDW>
0.0243236

>  <SCORE.INTRA.VDW.0>
-4.83512

>  <SCORE.INTRA.norm>
-0.26995

>  <SCORE.RESTR>
6.03566

>  <SCORE.RESTR.CAVITY>
6.03566

>  <SCORE.RESTR.norm>
0.143706

>  <SCORE.SYSTEM>
0

>  <SCORE.SYSTEM.CONST>
0

>  <SCORE.SYSTEM.DIHEDRAL>
0

>  <SCORE.SYSTEM.SOLV>
0

>  <SCORE.SYSTEM.norm>
0

>  <SCORE.heavy>
42

>  <SCORE.norm>
-0.699355

>  <RMSD>
8.935

$$$$
1j7t
 OpenBabel11021811393D
libRbt.so/2013.1/901 2013/11/27
 42 45  0  0  0  0  0  0  0  0999 V2000
   24.2628    2.3928   58.4570 C   0  0  2  0  0  0  0  0  0  0  0  0
   24.9965    1.3205   57.8133 O   0  0  0  0  0  0  0  0  0  0  0  0
   22.9584    1.7674   59.0293 C   0  0  2  0  0  0  0  0  0  0  0  0
   23.1744    0.5816   59.9072 N   0  3  0  0  0  0  0  0  0  0  0  0
   22.0776    1.3252   57.8403 C   0  0  1  0  0  0  0  0  0  0  0  0
   20.8775    0.7671   58.2962 O   0  0  0  0  0  0  0  0  0  0  0  0
   21.7999    2.5291   56.9092 C   0  0  2  0  0  0  0  0  0  0  0  0
   20.9763    2.1502   55.8241 O   0  0  0  0  0  0  0  0  0  0  0  0
   23.1059    3.0765   56.3736 C   0  0  2  0  0  0  0  0  0  0  0  0
   23.9535    3.4193   57.4626 O   0  0  0  0  0  0  0  0  0  0  0  0
   22.9283    4.3301   55.5465 C   0  0  0  0  0  0  0  0  0  0  0  0
   24.1594    4.6729   54.9398 O   0  0  0  0  0  0  0  0  0  0  0  0
   29.0856    1.0497   56.7867 C   0  0  2  0  0  0  0  0  0  0  0  0
   30.3662    1.2891   56.1203 N   0  3  0  0  0  0  0  0  0  0  0  0
   28.0406    0.5074   55.7561 C   0  0  0  0  0  0  0  0  0  0  0  0
   26.6772    0.3003   56.4431 C   0  0  2  0  0  0  0  0  0  0  0  0
   25.6710   -0.1571   55.4791 N   0  3  0  0  0  0  0  0  0  0  0  0
   26.2015    1.6128   57.0964 C   0  0  2  0  0  0  0  0  0  0  0  0
   27.2246    2.1850   58.0969 C   0  0  2  0  0  0  0  0  0  0  0  0
   26.7142    3.4715   58.4966 O   0  0  0  0  0  0  0  0  0  0  0  0
   28.6085    2.3477   57.4186 C   0  0  1  0  0  0  0  0  0  0  0  0
   29.5423    2.7726   58.3729 O   0  0  0  0  0  0  0  0  0  0  0  0
   27.1376    4.1541   59.6738 C   0  0  1  0  0  0  0  0  0  0  0  0
   26.1215    5.3137   59.9718 C   0  0  2  0  0  0  0  0  0  0  0  0
   26.4317    6.5327   59.3184 O   0  0  0  0  0  0  0  0  0  0  0  0
   26.2647    5.3486   61.4869 C   0  0  2  0  0  0  0  0  0  0  0  0
   27.5792    5.8461   61.8799 O   0  0  0  0  0  0  0  0  0  0  0  0
   26.1991    3.8749   61.8627 C   0  0  2  0  0  0  0  0  0  0  0  0
   27.0301    3.2956   60.8421 O   0  0  0  0  0  0  0  0  0  0  0  0
   24.7593    3.2650   61.8869 C   0  0  0  0  0  0  0  0  0  0  0  0
   23.8998    3.9727   62.7893 O   0  0  0  0  0  0  0  0  0  0  0  0
   27.8332    7.1906   61.4807 C   0  0  2  0  0  0  0  0  0  0  0  0
   28.8910    7.3448   60.3355 C   0  0  2  0  0  0  0  0  0  0  0  0
   30.2167    6.7505   60.6859 N   0  3  0  0  0  0  0  0  0  0  0  0
   29.0113    8.8743   60.0259 C   0  0  1  0  0  0  0  0  0  0  0  0
   27.6936    9.3245   59.5274 O   0  0  0  0  0  0  0  0  0  0  0  0
   29.3867    9.7228   61.3028 C   0  0  2  0  0  0  0  0  0  0  0  0
   30.6921    9.3221   61.7501 O   0  0  0  0  0  0  0  0  0  0  0  0
   28.2816    9.4647   62.4092 C   0  0  1  0  0  0  0  0  0  0  0  0
   28.2349    8.0196   62.6596 O   0  0  0  0  0  0  0  0  0  0  0  0
   28.5165   10.2173   63.7387 C   0  0  0  0  0  0  0  0  0  0  0  0
   28.6096   11.6935   63.5746 N   0  3  0  0  0  0  0  0  0  0  0  0
  1  2  1  6  0  0  0
  1  3  1  0  0  0  0
  1 10  1  0  0  0  0
  3  4  1  1  0  0  0
  3  5  1  0  0  0  0
  5  6  1  1  0  0  0
  5  7  1  0  0  0  0
  7  8  1  6  0  0  0
  7  9  1  0  0  0  0
  9 10  1  0  0  0  0
  9 11  1  1  0  0  0
 11 12  1  0  0  0  0
 13 14  1  6  0  0  0
 13 15  1  0  0  0  0
 13 21  1  0  0  0  0
 15 16  1  0  0  0  0
 16 17  1  6  0  0  0
 16 18  1  0  0  0  0
 18  2  1  1  0  0  0
 18 19  1  0  0  0  0
 19 20  1  6  0  0  0
 19 21  1  0  0  0  0
 21 22  1  1  0  0  0
 23 20  1  6  0  0  0
 23 24  1  0  0  0  0
 23 29  1  0  0  0  0
 24 25  1  6  0  0  0
 24 26  1  0  0  0  0
 26 27  1  6  0  0  0
 26 28  1  0  0  0  0
 28 29  1  0  0  0  0
 28 30  1  6  0  0  0
 30 31  1  0  0  0  0
 32 27  1  1  0  0  0
 32 33  1  0  0  0  0
 32 40  1  0  0  0  0
 33 34  1  1  0  0  0
 33 35  1  0  0  0  0
 35 36  1  1  0  0  0
 35 37  1  0  0  0  0
 37 38  1  1  0  0  0
 37 39  1  0  0  0  0
 39 40  1  0  0  0  0
 39 41  1  1  0  0  0
 41 42  1  0  0  0  0
M  CHG  5   4   1  14   1  17   1  34   1  42   1
M  END
>  <CHROM.1>
175.08535751,-175.64496100,-175.45800097,61.83947593,-56.01021315,-172.22186021
-57.07490956,168.68833828,61.22154081,161.19752102,-165.57927323,-63.36239813
66.31484146,62.98831701,-109.34607094,-57.54885192,65.50336227,23.97974666
-29.84970058,172.57142039,57.60480420,163.22744353,26.34074384,4.37880708
59.18447507,2.06097564,-0.15738402,-2.46813333

>  <Name>
1j7t

>  <RI>
224

>  <Rbt.Current_Directory>
/home/itssahil/PROJECTS/Mol_Feturizer/New_Systems/rnas/1j7t

>  <Rbt.Executable>
rbdock ($Id: //depot/dev/client3/rdock/2013.1/src/exe/rbdock.cxx#4 $)

>  <Rbt.Library>
libRbt.so (2013.1, Build901 2013/11/27)

>  <Rbt.Parameter_File>
/export/apps/rDock/src/rDock_2013.1_src/data/scripts/dock_solv.prm

>  <Rbt.Receptor>
prm/pocket_docking_7.prm

>  <SCORE>
-38.6515

>  <SCORE.INTER>
-21.8037

>  <SCORE.INTER.CONST>
1

>  <SCORE.INTER.POLAR>
-3.83306

>  <SCORE.INTER.ROT>
9

>  <SCORE.INTER.SOLV>
9.09877

>  <SCORE.INTER.VDW>
-14.3918

>  <SCORE.INTER.norm>
-0.519135

>  <SCORE.INTRA>
-16.8478

>  <SCORE.INTRA.DIHEDRAL>
-28.0778

>  <SCORE.INTRA.DIHEDRAL.0>
46.2143

>  <SCORE.INTRA.POLAR>
0.0532493

>  <SCORE.INTRA.POLAR.0>
-1.76436

>  <SCORE.INTRA.REPUL>
0

>  <SCORE.INTRA.REPUL.0>
0

>  <SCORE.INTRA.SOLV>
-5.00038

>  <SCORE.INTRA.SOLV.lig_0>
-148.643

>  <SCORE.INTRA.VDW>
-0.489767

>  <SCORE.INTRA.VDW.0>
-4.83512

>  <SCORE.INTRA.norm>
-0.401139

>  <SCORE.RESTR>
0

>  <SCORE.RESTR.CAVITY>
0

>  <SCORE.RESTR.norm>
0

>  <SCORE.SYSTEM>
0

>  <SCORE.SYSTEM.CONST>
0

>  <SCORE.SYSTEM.DIHEDRAL>
0

>  <SCORE.SYSTEM.SOLV>
0

>  <SCORE.SYSTEM.norm>
0

>  <SCORE.heavy>
42

>  <SCORE.norm>
-0.920274

>  <RMSD>
8.937

$$$$
1j7t
 OpenBabel11021811393D
libRbt.so/2013.1/901 2013/11/27
 42 45  0  0  0  0  0  0  0  0999 V2000
   25.8784    7.2220   58.8275 C   0  0  2  0  0  0  0  0  0  0  0  0
   26.3639    8.1075   59.8681 O   0  0  0  0  0  0  0  0  0  0  0  0
   24.3248    7.2943   58.8615 C   0  0  2  0  0  0  0  0  0  0  0  0
   23.7679    8.6750   58.7775 N   0  3  0  0  0  0  0  0  0  0  0  0
   23.8451    6.6674   60.1888 C   0  0  1  0  0  0  0  0  0  0  0  0
   22.4478    6.6900   60.2685 O   0  0  0  0  0  0  0  0  0  0  0  0
   24.3750    5.2192   60.3136 C   0  0  2  0  0  0  0  0  0  0  0  0
   23.9289    4.6188   61.5135 O   0  0  0  0  0  0  0  0  0  0  0  0
   25.8888    5.2223   60.2929 C   0  0  2  0  0  0  0  0  0  0  0  0
   26.3412    5.8634   59.1070 O   0  0  0  0  0  0  0  0  0  0  0  0
   26.4843    3.8322   60.2926 C   0  0  0  0  0  0  0  0  0  0  0  0
   26.2480    3.2179   61.5448 O   0  0  0  0  0  0  0  0  0  0  0  0
   29.4794   10.9174   60.3638 C   0  0  2  0  0  0  0  0  0  0  0  0
   30.8015   11.5432   60.3202 N   0  3  0  0  0  0  0  0  0  0  0  0
   29.5347    9.6122   61.2251 C   0  0  0  0  0  0  0  0  0  0  0  0
   28.1562    8.9241   61.2332 C   0  0  2  0  0  0  0  0  0  0  0  0
   28.2034    7.6700   61.9921 N   0  3  0  0  0  0  0  0  0  0  0  0
   27.6938    8.6337   59.7919 C   0  0  2  0  0  0  0  0  0  0  0  0
   27.6564    9.8985   58.9122 C   0  0  2  0  0  0  0  0  0  0  0  0
   27.3638    9.4460   57.5761 O   0  0  0  0  0  0  0  0  0  0  0  0
   29.0292   10.6170   58.9429 C   0  0  1  0  0  0  0  0  0  0  0  0
   28.9394   11.8135   58.2194 O   0  0  0  0  0  0  0  0  0  0  0  0
   28.2765    8.6902   56.7844 C   0  0  1  0  0  0  0  0  0  0  0  0
   28.0943    7.1686   57.1273 C   0  0  2  0  0  0  0  0  0  0  0  0
   28.8853    6.7256   58.2168 O   0  0  0  0  0  0  0  0  0  0  0  0
   28.4893    6.5893   55.7761 C   0  0  2  0  0  0  0  0  0  0  0  0
   29.9124    6.7820   55.5166 O   0  0  0  0  0  0  0  0  0  0  0  0
   27.7201    7.4668   54.7986 C   0  0  2  0  0  0  0  0  0  0  0  0
   27.9321    8.7674   55.3742 O   0  0  0  0  0  0  0  0  0  0  0  0
   26.2041    7.1130   54.6484 C   0  0  0  0  0  0  0  0  0  0  0  0
   25.5836    7.8751   53.6053 O   0  0  0  0  0  0  0  0  0  0  0  0
   30.3726    6.1611   54.3191 C   0  0  2  0  0  0  0  0  0  0  0  0
   30.4615    4.5984   54.3844 C   0  0  2  0  0  0  0  0  0  0  0  0
   31.3527    4.1129   55.4814 N   0  3  0  0  0  0  0  0  0  0  0  0
   30.9573    4.1088   52.9829 C   0  0  1  0  0  0  0  0  0  0  0  0
   29.9243    4.4910   51.9957 O   0  0  0  0  0  0  0  0  0  0  0  0
   32.3286    4.7671   52.5619 C   0  0  2  0  0  0  0  0  0  0  0  0
   33.3413    4.3472   53.4908 O   0  0  0  0  0  0  0  0  0  0  0  0
   32.1427    6.3411   52.5672 C   0  0  1  0  0  0  0  0  0  0  0  0
   31.6946    6.7294   53.9095 O   0  0  0  0  0  0  0  0  0  0  0  0
   33.4117    7.1385   52.1897 C   0  0  0  0  0  0  0  0  0  0  0  0
   33.2514    8.6106   52.3376 N   0  3  0  0  0  0  0  0  0  0  0  0
  1  2  1  1  0  0  0
  1  3  1  0  0  0  0
  1 10  1  0  0  0  0
  3  4  1  1  0  0  0
  3  5  1  0  0  0  0
  5  6  1  6  0  0  0
  5  7  1  0  0  0  0
  7  8  1  1  0  0  0
  7  9  1  0  0  0  0
  9 10  1  0  0  0  0
  9 11  1  6  0  0  0
 11 12  1  0  0  0  0
 13 14  1  6  0  0  0
 13 15  1  0  0  0  0
 13 21  1  0  0  0  0
 15 16  1  0  0  0  0
 16 17  1  1  0  0  0
 16 18  1  0  0  0  0
 18  2  1  1  0  0  0
 18 19  1  0  0  0  0
 19 20  1  6  0  0  0
 19 21  1  0  0  0  0
 21 22  1  6  0  0  0
 23 20  1  1  0  0  0
 23 24  1  0  0  0  0
 23 29  1  0  0  0  0
 24 25  1  1  0  0  0
 24 26  1  0  0  0  0
 26 27  1  6  0  0  0
 26 28  1  0  0  0  0
 28 29  1  0  0  0  0
 28 30  1  1  0  0  0
 30 31  1  0  0  0  0
 32 27  1  1  0  0  0
 32 33  1  0  0  0  0
 32 40  1  0  0  0  0
 33 34  1  1  0  0  0
 33 35  1  0  0  0  0
 35 36  1  6  0  0  0
 35 37  1  0  0  0  0
 37 38  1  1  0  0  0
 37 39  1  0  0  0  0
 39 40  1  0  0  0  0
 39 41  1  1  0  0  0
 41 42  1  0  0  0  0
M  CHG  5   4   1  14   1  17   1  34   1  42   1
M  END
>  <CHROM.1>
-157.49709319,-153.06723150,44.63688511,43.43614644,-57.49839875,-69.02158900
62.37962473,178.26141791,67.50118771,-69.08216435,86.36880481,175.00908368
151.41487404,174.87856901,-72.19474772,-173.33443527,171.35118333,44.74416587
63.46021029,-178.23134802,-174.06259241,-165.89023917,28.26229374,7.14792361
57.30392232,2.55242141,0.69754318,0.65727758

>  <Name>
1j7t

>  <RI>
224

>  <Rbt.Current_Directory>
/home/itssahil/PROJECTS/Mol_Feturizer/New_Systems/rnas/1j7t

>  <Rbt.Executable>
rbdock ($Id: //depot/dev/client3/rdock/2013.1/src/exe/rbdock.cxx#4 $)

>  <Rbt.Library>
libRbt.so (2013.1, Build901 2013/11/27)

>  <Rbt.Parameter_File>
/export/apps/rDock/src/rDock_2013.1_src/data/scripts/dock_solv.prm

>  <Rbt.Receptor>
prm/pocket_docking_7.prm

>  <SCORE>
-39.9742

>  <SCORE.INTER>
-23.692

>  <SCORE.INTER.CONST>
1

>  <SCORE.INTER.POLAR>
-4.84027

>  <SCORE.INTER.ROT>
9

>  <SCORE.INTER.SOLV>
22.7018

>  <SCORE.INTER.VDW>
-16.8277

>  <SCORE.INTER.norm>
-0.564094

>  <SCORE.INTRA>
-16.2823

>  <SCORE.INTRA.DIHEDRAL>
-28.865

>  <SCORE.INTRA.DIHEDRAL.0>
46.2143

>  <SCORE.INTRA.POLAR>
0.100319

>  <SCORE.INTRA.POLAR.0>
-1.76436

>  <SCORE.INTRA.REPUL>
0

>  <SCORE.INTRA.REPUL.0>
0

>  <SCORE.INTRA.SOLV>
-3.88794

>  <SCORE.INTRA.SOLV.lig_0>
-148.643

>  <SCORE.INTRA.VDW>
-0.246876

>  <SCORE.INTRA.VDW.0>
-4.83512

>  <SCORE.INTRA.norm>
-0.387673

>  <SCORE.RESTR>
0

>  <SCORE.RESTR.CAVITY>
0

>  <SCORE.RESTR.norm>
0

>  <SCORE.SYSTEM>
0

>  <SCORE.SYSTEM.CONST>
0

>  <SCORE.SYSTEM.DIHEDRAL>
0

>  <SCORE.SYSTEM.SOLV>
0

>  <SCORE.SYSTEM.norm>
0

>  <SCORE.heavy>
42

>  <SCORE.norm>
-0.951768

>  <RMSD>
8.943

$$$$
1j7t
 OpenBabel11021811393D
libRbt.so/2013.1/901 2013/11/27
 42 45  0  0  0  0  0  0  0  0999 V2000
   29.0742    4.3885   60.2137 C   0  0  2  0  0  0  0  0  0  0  0  0
   28.7320    5.7968   60.2600 O   0  0  0  0  0  0  0  0  0  0  0  0
   30.6211    4.3040   60.0723 C   0  0  2  0  0  0  0  0  0  0  0  0
   31.3792    5.0685   61.1040 N   0  3  0  0  0  0  0  0  0  0  0  0
   31.0065    4.8645   58.6858 C   0  0  1  0  0  0  0  0  0  0  0  0
   32.3917    4.7987   58.4948 O   0  0  0  0  0  0  0  0  0  0  0  0
   30.2652    4.0852   57.5738 C   0  0  2  0  0  0  0  0  0  0  0  0
   30.6208    4.5689   56.2937 O   0  0  0  0  0  0  0  0  0  0  0  0
   28.7690    4.2239   57.7589 C   0  0  2  0  0  0  0  0  0  0  0  0
   28.4133    3.7775   59.0613 O   0  0  0  0  0  0  0  0  0  0  0  0
   27.9710    3.3932   56.7791 C   0  0  0  0  0  0  0  0  0  0  0  0
   26.6001    3.7257   56.8861 O   0  0  0  0  0  0  0  0  0  0  0  0
   24.5527    5.4043   59.7829 C   0  0  2  0  0  0  0  0  0  0  0  0
   23.1244    5.7217   59.7596 N   0  3  0  0  0  0  0  0  0  0  0  0
   25.1074    5.5457   61.2392 C   0  0  0  0  0  0  0  0  0  0  0  0
   26.6212    5.2599   61.2596 C   0  0  2  0  0  0  0  0  0  0  0  0
   27.1683    5.4405   62.6083 N   0  3  0  0  0  0  0  0  0  0  0  0
   27.3563    6.1948   60.2792 C   0  0  2  0  0  0  0  0  0  0  0  0
   26.8115    6.0965   58.8408 C   0  0  2  0  0  0  0  0  0  0  0  0
   27.4814    7.1274   58.0899 O   0  0  0  0  0  0  0  0  0  0  0  0
   25.2805    6.3362   58.8270 C   0  0  1  0  0  0  0  0  0  0  0  0
   24.7955    6.1423   57.5269 O   0  0  0  0  0  0  0  0  0  0  0  0
   27.4575    7.2051   56.6670 C   0  0  1  0  0  0  0  0  0  0  0  0
   26.8206    8.5793   56.2523 C   0  0  2  0  0  0  0  0  0  0  0  0
   25.4082    8.5476   56.1377 O   0  0  0  0  0  0  0  0  0  0  0  0
   27.5621    8.7783   54.9378 C   0  0  2  0  0  0  0  0  0  0  0  0
   27.1286    7.8085   53.9371 O   0  0  0  0  0  0  0  0  0  0  0  0
   28.9994    8.4436   55.3110 C   0  0  2  0  0  0  0  0  0  0  0  0
   28.8048    7.2746   56.1254 O   0  0  0  0  0  0  0  0  0  0  0  0
   29.7669    9.5810   56.0613 C   0  0  0  0  0  0  0  0  0  0  0  0
   28.8739   10.5926   56.5442 O   0  0  0  0  0  0  0  0  0  0  0  0
   27.9816    7.7304   52.7979 C   0  0  2  0  0  0  0  0  0  0  0  0
   27.2713    8.0031   51.4284 C   0  0  2  0  0  0  0  0  0  0  0  0
   26.1332    7.0701   51.1687 N   0  3  0  0  0  0  0  0  0  0  0  0
   28.3664    7.8967   50.3152 C   0  0  1  0  0  0  0  0  0  0  0  0
   29.3524    8.9698   50.5678 O   0  0  0  0  0  0  0  0  0  0  0  0
   29.1145    6.5070   50.3328 C   0  0  2  0  0  0  0  0  0  0  0  0
   28.1639    5.4726   50.0306 O   0  0  0  0  0  0  0  0  0  0  0  0
   29.7592    6.3116   51.7674 C   0  0  1  0  0  0  0  0  0  0  0  0
   28.6782    6.4071   52.7552 O   0  0  0  0  0  0  0  0  0  0  0  0
   30.5195    4.9789   51.9532 C   0  0  0  0  0  0  0  0  0  0  0  0
   31.7041    4.8442   51.0626 N   0  3  0  0  0  0  0  0  0  0  0  0
  1  2  1  6  0  0  0
  1  3  1  0  0  0  0
  1 10  1  0  0  0  0
  3  4  1  1  0  0  0
  3  5  1  0  0  0  0
  5  6  1  6  0  0  0
  5  7  1  0  0  0  0
  7  8  1  6  0  0  0
  7  9  1  0  0  0  0
  9 10  1  0  0  0  0
  9 11  1  6  0  0  0
 11 12  1  0  0  0  0
 13 14  1  1  0  0  0
 13 15  1  0  0  0  0
 13 21  1  0  0  0  0
 15 16  1  0  0  0  0
 16 17  1  1  0  0  0
 16 18  1  0  0  0  0
 18  2  1  6  0  0  0
 18 19  1  0  0  0  0
 19 20  1  6  0  0  0
 19 21  1  0  0  0  0
 21 22  1  6  0  0  0
 23 20  1  1  0  0  0
 23 24  1  0  0  0  0
 23 29  1  0  0  0  0
 24 25  1  6  0  0  0
 24 26  1  0  0  0  0
 26 27  1  6  0  0  0
 26 28  1  0  0  0  0
 28 29  1  0  0  0  0
 28 30  1  1  0  0  0
 30 31  1  0  0  0  0
 32 27  1  1  0  0  0
 32 33  1  0  0  0  0
 32 40  1  0  0  0  0
 33 34  1  6  0  0  0
 33 35  1  0  0  0  0
 35 36  1  1  0  0  0
 35 37  1  0  0  0  0
 37 38  1  1  0  0  0
 37 39  1  0  0  0  0
 39 40  1  0  0  0  0
 39 41  1  6  0  0  0
 41 42  1  0  0  0  0
M  CHG  5   4   1  14   1  17   1  34   1  42   1
M  END
>  <CHROM.1>
174.93474599,43.14507107,38.67725743,-64.33395607,165.69130417,-171.48223600
-175.11304437,44.25079821,-176.96928366,167.20902645,120.36735688,-69.18589816
40.01867466,-166.31060656,-122.70159438,14.40954345,-70.34262579,-128.02906635
-62.01583939,50.44228536,63.54193372,-140.42013158,28.14211798,6.26447408
56.34940029,-1.72318834,0.41592420,-1.30272893

>  <Name>
1j7t

>  <RI>
0

>  <Rbt.Current_Directory>
/home/itssahil/PROJECTS/Mol_Feturizer/New_Systems/rnas/1j7t

>  <Rbt.Executable>
rbdock ($Id: //depot/dev/client3/rdock/2013.1/src/exe/rbdock.cxx#4 $)

>  <Rbt.Library>
libRbt.so (2013.1, Build901 2013/11/27)

>  <Rbt.Parameter_File>
/export/apps/rDock/src/rDock_2013.1_src/data/scripts/dock_solv.prm

>  <Rbt.Receptor>
prm/pocket_docking_5.prm

>  <SCORE>
-53.9929

>  <SCORE.INTER>
-46.4864

>  <SCORE.INTER.CONST>
1

>  <SCORE.INTER.POLAR>
-7.28973

>  <SCORE.INTER.ROT>
9

>  <SCORE.INTER.SOLV>
27.1248

>  <SCORE.INTER.VDW>
-25.3334

>  <SCORE.INTER.norm>
-1.10682

>  <SCORE.INTRA>
-7.50651

>  <SCORE.INTRA.DIHEDRAL>
-11.7118

>  <SCORE.INTRA.DIHEDRAL.0>
46.2143

>  <SCORE.INTRA.POLAR>
-0.119321

>  <SCORE.INTRA.POLAR.0>
-1.76436

>  <SCORE.INTRA.REPUL>
0

>  <SCORE.INTRA.REPUL.0>
0

>  <SCORE.INTRA.SOLV>
-2.36486

>  <SCORE.INTRA.SOLV.lig_0>
-148.643

>  <SCORE.INTRA.VDW>
-0.0624888

>  <SCORE.INTRA.VDW.0>
-4.83512

>  <SCORE.INTRA.norm>
-0.178726

>  <SCORE.RESTR>
0

>  <SCORE.RESTR.CAVITY>
0

>  <SCORE.RESTR.norm>
0

>  <SCORE.SYSTEM>
0

>  <SCORE.SYSTEM.CONST>
0

>  <SCORE.SYSTEM.DIHEDRAL>
0

>  <SCORE.SYSTEM.SOLV>
0

>  <SCORE.SYSTEM.norm>
0

>  <SCORE.heavy>
42

>  <SCORE.norm>
-1.28554

>  <RMSD>
8.958

$$$$
1j7t
 OpenBabel11021811393D
libRbt.so/2013.1/901 2013/11/27
 42 45  0  0  0  0  0  0  0  0999 V2000
   25.3951    6.0468   56.0406 C   0  0  2  0  0  0  0  0  0  0  0  0
   24.9431    7.2683   56.6777 O   0  0  0  0  0  0  0  0  0  0  0  0
   24.1219    5.2383   55.6595 C   0  0  2  0  0  0  0  0  0  0  0  0
   23.1251    5.9986   54.8521 N   0  3  0  0  0  0  0  0  0  0  0  0
   23.4321    4.7874   56.9655 C   0  0  1  0  0  0  0  0  0  0  0  0
   22.2837    4.0383   56.6837 O   0  0  0  0  0  0  0  0  0  0  0  0
   24.4187    3.9681   57.8310 C   0  0  2  0  0  0  0  0  0  0  0  0
   23.7998    3.5268   59.0233 O   0  0  0  0  0  0  0  0  0  0  0  0
   25.6223    4.8170   58.1812 C   0  0  2  0  0  0  0  0  0  0  0  0
   26.2225    5.2975   56.9850 O   0  0  0  0  0  0  0  0  0  0  0  0
   26.6905    4.0509   58.9290 C   0  0  0  0  0  0  0  0  0  0  0  0
   27.7577    4.9221   59.2503 O   0  0  0  0  0  0  0  0  0  0  0  0
   27.1419   10.7216   57.7207 C   0  0  2  0  0  0  0  0  0  0  0  0
   28.0751   11.6159   58.4068 N   0  3  0  0  0  0  0  0  0  0  0  0
   26.0386   10.2346   58.7176 C   0  0  0  0  0  0  0  0  0  0  0  0
   25.0823    9.2543   58.0118 C   0  0  2  0  0  0  0  0  0  0  0  0
   24.0728    8.7458   58.9463 N   0  3  0  0  0  0  0  0  0  0  0  0
   25.8710    8.0715   57.4162 C   0  0  2  0  0  0  0  0  0  0  0  0
   26.9838    8.5238   56.4506 C   0  0  2  0  0  0  0  0  0  0  0  0
   27.7205    7.3344   56.1068 O   0  0  0  0  0  0  0  0  0  0  0  0
   27.9174    9.5470   57.1457 C   0  0  1  0  0  0  0  0  0  0  0  0
   28.8570   10.0172   56.2189 O   0  0  0  0  0  0  0  0  0  0  0  0
   28.5167    7.2152   54.9309 C   0  0  1  0  0  0  0  0  0  0  0  0
   29.2515    5.8277   54.9634 C   0  0  2  0  0  0  0  0  0  0  0  0
   30.4971    5.8520   55.6393 O   0  0  0  0  0  0  0  0  0  0  0  0
   29.3455    5.5927   53.4624 C   0  0  2  0  0  0  0  0  0  0  0  0
   30.2731    6.5317   52.8398 O   0  0  0  0  0  0  0  0  0  0  0  0
   27.9443    5.9423   52.9810 C   0  0  2  0  0  0  0  0  0  0  0  0
   27.6835    7.1340   53.7424 O   0  0  0  0  0  0  0  0  0  0  0  0
   26.8708    4.8294   53.2152 C   0  0  0  0  0  0  0  0  0  0  0  0
   25.5919    5.2092   52.6916 O   0  0  0  0  0  0  0  0  0  0  0  0
   31.6305    6.0971   52.8480 C   0  0  2  0  0  0  0  0  0  0  0  0
   32.6385    7.1105   53.4894 C   0  0  2  0  0  0  0  0  0  0  0  0
   32.6263    8.4453   52.8175 N   0  3  0  0  0  0  0  0  0  0  0  0
   34.0556    6.4489   53.4264 C   0  0  1  0  0  0  0  0  0  0  0  0
   34.0055    5.2278   54.2595 O   0  0  0  0  0  0  0  0  0  0  0  0
   34.4700    6.0439   51.9582 C   0  0  2  0  0  0  0  0  0  0  0  0
   34.5731    7.2386   51.1665 O   0  0  0  0  0  0  0  0  0  0  0  0
   33.3692    5.0555   51.3897 C   0  0  1  0  0  0  0  0  0  0  0  0
   32.0754    5.7438   51.4639 O   0  0  0  0  0  0  0  0  0  0  0  0
   33.6230    4.5764   49.9422 C   0  0  0  0  0  0  0  0  0  0  0  0
   34.9750    3.9876   49.7422 N   0  3  0  0  0  0  0  0  0  0  0  0
  1  2  1  1  0  0  0
  1  3  1  0  0  0  0
  1 10  1  0  0  0  0
  3  4  1  1  0  0  0
  3  5  1  0  0  0  0
  5  6  1  6  0  0  0
  5  7  1  0  0  0  0
  7  8  1  1  0  0  0
  7  9  1  0  0  0  0
  9 10  1  0  0  0  0
  9 11  1  6  0  0  0
 11 12  1  0  0  0  0
 13 14  1  1  0  0  0
 13 15  1  0  0  0  0
 13 21  1  0  0  0  0
 15 16  1  0  0  0  0
 16 17  1  1  0  0  0
 16 18  1  0  0  0  0
 18  2  1  6  0  0  0
 18 19  1  0  0  0  0
 19 20  1  1  0  0  0
 19 21  1  0  0  0  0
 21 22  1  6  0  0  0
 23 20  1  1  0  0  0
 23 24  1  0  0  0  0
 23 29  1  0  0  0  0
 24 25  1  6  0  0  0
 24 26  1  0  0  0  0
 26 27  1  6  0  0  0
 26 28  1  0  0  0  0
 28 29  1  0  0  0  0
 28 30  1  1  0  0  0
 30 31  1  0  0  0  0
 32 27  1  6  0  0  0
 32 33  1  0  0  0  0
 32 40  1  0  0  0  0
 33 34  1  6  0  0  0
 33 35  1  0  0  0  0
 35 36  1  1  0  0  0
 35 37  1  0  0  0  0
 37 38  1  6  0  0  0
 37 39  1  0  0  0  0
 39 40  1  0  0  0  0
 39 41  1  6  0  0  0
 41 42  1  0  0  0  0
M  CHG  5   4   1  14   1  17   1  34   1  42   1
M  END
>  <CHROM.1>
165.44115799,-177.73020913,63.86111790,-175.90993764,-62.37736282,-178.32933510
58.06644347,-56.63581838,-68.72226298,158.02444132,175.42883222,-51.86435830
60.74960721,86.87940221,-125.38294131,-177.77255618,60.23137738,163.24604429
-52.30337886,170.94510206,53.10061178,48.06411518,28.32933421,6.52996366
55.21584521,2.78655964,0.48399477,0.56574385

>  <Name>
1j7t

>  <RI>
0

>  <Rbt.Current_Directory>
/home/itssahil/PROJECTS/Mol_Feturizer/New_Systems/rnas/1j7t

>  <Rbt.Executable>
rbdock ($Id: //depot/dev/client3/rdock/2013.1/src/exe/rbdock.cxx#4 $)

>  <Rbt.Library>
libRbt.so (2013.1, Build901 2013/11/27)

>  <Rbt.Parameter_File>
/export/apps/rDock/src/rDock_2013.1_src/data/scripts/dock_solv.prm

>  <Rbt.Receptor>
prm/pocket_docking_5.prm

>  <SCORE>
-48.8896

>  <SCORE.INTER>
-32.3455

>  <SCORE.INTER.CONST>
1

>  <SCORE.INTER.POLAR>
-5.96699

>  <SCORE.INTER.ROT>
9

>  <SCORE.INTER.SOLV>
23.4227

>  <SCORE.INTER.VDW>
-19.0813

>  <SCORE.INTER.norm>
-0.770131

>  <SCORE.INTRA>
-16.544

>  <SCORE.INTRA.DIHEDRAL>
-29.868

>  <SCORE.INTRA.DIHEDRAL.0>
46.2143

>  <SCORE.INTRA.POLAR>
0.906875

>  <SCORE.INTRA.POLAR.0>
-1.76436

>  <SCORE.INTRA.REPUL>
0

>  <SCORE.INTRA.REPUL.0>
0

>  <SCORE.INTRA.SOLV>
-4.80342

>  <SCORE.INTRA.SOLV.lig_0>
-148.643

>  <SCORE.INTRA.VDW>
-2.2917

>  <SCORE.INTRA.VDW.0>
-4.83512

>  <SCORE.INTRA.norm>
-0.393906

>  <SCORE.RESTR>
0

>  <SCORE.RESTR.CAVITY>
0

>  <SCORE.RESTR.norm>
0

>  <SCORE.SYSTEM>
0

>  <SCORE.SYSTEM.CONST>
0

>  <SCORE.SYSTEM.DIHEDRAL>
0

>  <SCORE.SYSTEM.SOLV>
0

>  <SCORE.SYSTEM.norm>
0

>  <SCORE.heavy>
42

>  <SCORE.norm>
-1.16404

>  <RMSD>
9.014

$$$$
1j7t
 OpenBabel11021811393D
libRbt.so/2013.1/901 2013/11/27
 42 45  0  0  0  0  0  0  0  0999 V2000
   25.9796    6.4596   58.9447 C   0  0  2  0  0  0  0  0  0  0  0  0
   27.1968    6.2450   59.7028 O   0  0  0  0  0  0  0  0  0  0  0  0
   24.8828    6.8853   59.9624 C   0  0  2  0  0  0  0  0  0  0  0  0
   25.2574    8.0400   60.8285 N   0  3  0  0  0  0  0  0  0  0  0  0
   24.5862    5.6788   60.8796 C   0  0  1  0  0  0  0  0  0  0  0  0
   23.5905    5.9993   61.8099 O   0  0  0  0  0  0  0  0  0  0  0  0
   24.1649    4.4569   60.0293 C   0  0  2  0  0  0  0  0  0  0  0  0
   23.8678    3.3461   60.8520 O   0  0  0  0  0  0  0  0  0  0  0  0
   25.2810    4.0845   59.0764 C   0  0  2  0  0  0  0  0  0  0  0  0
   25.6114    5.2124   58.2760 O   0  0  0  0  0  0  0  0  0  0  0  0
   24.9022    2.9704   58.1266 C   0  0  0  0  0  0  0  0  0  0  0  0
   26.0381    2.1697   57.8622 O   0  0  0  0  0  0  0  0  0  0  0  0
   31.0794    4.8487   58.7952 C   0  0  2  0  0  0  0  0  0  0  0  0
   32.1694    4.0032   58.3069 N   0  3  0  0  0  0  0  0  0  0  0  0
   30.2797    4.0974   59.9108 C   0  0  0  0  0  0  0  0  0  0  0  0
   29.1013    4.9648   60.3933 C   0  0  2  0  0  0  0  0  0  0  0  0
   28.3085    4.2538   61.4017 N   0  3  0  0  0  0  0  0  0  0  0  0
   28.1960    5.3472   59.2059 C   0  0  2  0  0  0  0  0  0  0  0  0
   28.9638    6.0650   58.0787 C   0  0  2  0  0  0  0  0  0  0  0  0
   28.0297    6.2123   56.9918 O   0  0  0  0  0  0  0  0  0  0  0  0
   30.1776    5.2140   57.6269 C   0  0  1  0  0  0  0  0  0  0  0  0
   30.9146    5.9313   56.6754 O   0  0  0  0  0  0  0  0  0  0  0  0
   28.3956    6.6908   55.7002 C   0  0  1  0  0  0  0  0  0  0  0  0
   27.0865    7.0540   54.9126 C   0  0  2  0  0  0  0  0  0  0  0  0
   26.5233    5.9661   54.1996 O   0  0  0  0  0  0  0  0  0  0  0  0
   27.6556    8.1625   54.0381 C   0  0  2  0  0  0  0  0  0  0  0  0
   28.5902    7.6280   53.0529 O   0  0  0  0  0  0  0  0  0  0  0  0
   28.4577    8.9925   55.0306 C   0  0  2  0  0  0  0  0  0  0  0  0
   29.1019    7.9580   55.7938 O   0  0  0  0  0  0  0  0  0  0  0  0
   27.6077    9.9582   55.9199 C   0  0  0  0  0  0  0  0  0  0  0  0
   26.6766    9.2408   56.7397 O   0  0  0  0  0  0  0  0  0  0  0  0
   29.7071    8.4749   52.7942 C   0  0  2  0  0  0  0  0  0  0  0  0
   29.6790    9.1878   51.3995 C   0  0  2  0  0  0  0  0  0  0  0  0
   29.6042    8.2267   50.2576 N   0  3  0  0  0  0  0  0  0  0  0  0
   30.9618   10.0806   51.3155 C   0  0  1  0  0  0  0  0  0  0  0  0
   30.8543   11.1018   52.3800 O   0  0  0  0  0  0  0  0  0  0  0  0
   32.2891    9.2556   51.5370 C   0  0  2  0  0  0  0  0  0  0  0  0
   32.4186    8.3031   50.4690 O   0  0  0  0  0  0  0  0  0  0  0  0
   32.1981    8.5446   52.9506 C   0  0  1  0  0  0  0  0  0  0  0  0
   30.9868    7.7163   52.9523 O   0  0  0  0  0  0  0  0  0  0  0  0
   33.4245    7.6763   53.3123 C   0  0  0  0  0  0  0  0  0  0  0  0
   33.2852    6.9684   54.6139 N   0  3  0  0  0  0  0  0  0  0  0  0
  1  2  1  1  0  0  0
  1  3  1  0  0  0  0
  1 10  1  0  0  0  0
  3  4  1  1  0  0  0
  3  5  1  0  0  0  0
  5  6  1  1  0  0  0
  5  7  1  0  0  0  0
  7  8  1  1  0  0  0
  7  9  1  0  0  0  0
  9 10  1  0  0  0  0
  9 11  1  6  0  0  0
 11 12  1  0  0  0  0
 13 14  1  6  0  0  0
 13 15  1  0  0  0  0
 13 21  1  0  0  0  0
 15 16  1  0  0  0  0
 16 17  1  1  0  0  0
 16 18  1  0  0  0  0
 18  2  1  1  0  0  0
 18 19  1  0  0  0  0
 19 20  1  6  0  0  0
 19 21  1  0  0  0  0
 21 22  1  6  0  0  0
 23 20  1  1  0  0  0
 23 24  1  0  0  0  0
 23 29  1  0  0  0  0
 24 25  1  6  0  0  0
 24 26  1  0  0  0  0
 26 27  1  6  0  0  0
 26 28  1  0  0  0  0
 28 29  1  0  0  0  0
 28 30  1  1  0  0  0
 30 31  1  0  0  0  0
 32 27  1  6  0  0  0
 32 33  1  0  0  0  0
 32 40  1  0  0  0  0
 33 34  1  6  0  0  0
 33 35  1  0  0  0  0
 35 36  1  1  0  0  0
 35 37  1  0  0  0  0
 37 38  1  6  0  0  0
 37 39  1  0  0  0  0
 39 40  1  0  0  0  0
 39 41  1  6  0  0  0
 41 42  1  0  0  0  0
M  CHG  5   4   1  14   1  17   1  34   1  42   1
M  END
>  <CHROM.1>
153.96492319,-161.27122100,-173.53772882,-179.76191876,-50.42048745,-145.88345174
-59.88938548,-168.80667619,-168.59107367,-172.44048456,-165.93018666,-58.16579224
176.51906485,-143.30009519,-107.74367829,61.84072600,-174.27710217,-73.10947116
177.66976183,178.36825632,-177.21121775,97.72608943,28.43284042,6.64122343
56.50998429,2.14085024,-0.25919384,2.18142192

>  <Name>
1j7t

>  <RI>
0

>  <Rbt.Current_Directory>
/home/itssahil/PROJECTS/Mol_Feturizer/New_Systems/rnas/1j7t

>  <Rbt.Executable>
rbdock ($Id: //depot/dev/client3/rdock/2013.1/src/exe/rbdock.cxx#4 $)

>  <Rbt.Library>
libRbt.so (2013.1, Build901 2013/11/27)

>  <Rbt.Parameter_File>
/export/apps/rDock/src/rDock_2013.1_src/data/scripts/dock_solv.prm

>  <Rbt.Receptor>
prm/pocket_docking_3.prm

>  <SCORE>
-37.0507

>  <SCORE.INTER>
-29.6922

>  <SCORE.INTER.CONST>
1

>  <SCORE.INTER.POLAR>
-5.2479

>  <SCORE.INTER.ROT>
9

>  <SCORE.INTER.SOLV>
24.5128

>  <SCORE.INTER.VDW>
-20.0727

>  <SCORE.INTER.norm>
-0.706958

>  <SCORE.INTRA>
-8.03162

>  <SCORE.INTRA.DIHEDRAL>
-21.3305

>  <SCORE.INTRA.DIHEDRAL.0>
46.2143

>  <SCORE.INTRA.POLAR>
0.914891

>  <SCORE.INTRA.POLAR.0>
-1.76436

>  <SCORE.INTRA.REPUL>
0.012199

>  <SCORE.INTRA.REPUL.0>
0

>  <SCORE.INTRA.SOLV>
-3.29366

>  <SCORE.INTRA.SOLV.lig_0>
-148.643

>  <SCORE.INTRA.VDW>
1.10881

>  <SCORE.INTRA.VDW.0>
-4.83512

>  <SCORE.INTRA.norm>
-0.191229

>  <SCORE.RESTR>
0.673142

>  <SCORE.RESTR.CAVITY>
0.673142

>  <SCORE.RESTR.norm>
0.0160272

>  <SCORE.SYSTEM>
0

>  <SCORE.SYSTEM.CONST>
0

>  <SCORE.SYSTEM.DIHEDRAL>
0

>  <SCORE.SYSTEM.SOLV>
0

>  <SCORE.SYSTEM.norm>
0

>  <SCORE.heavy>
42

>  <SCORE.norm>
-0.882159

>  <RMSD>
9.020

$$$$
1j7t
 OpenBabel11021811393D
libRbt.so/2013.1/901 2013/11/27
 42 45  0  0  0  0  0  0  0  0999 V2000
   27.8838    7.8952   60.4680 C   0  0  2  0  0  0  0  0  0  0  0  0
   28.6592    6.7602   60.9299 O   0  0  0  0  0  0  0  0  0  0  0  0
   27.3647    8.6331   61.7353 C   0  0  2  0  0  0  0  0  0  0  0  0
   28.4259    8.9959   62.7181 N   0  3  0  0  0  0  0  0  0  0  0  0
   26.3528    7.7087   62.4470 C   0  0  1  0  0  0  0  0  0  0  0  0
   25.8376    8.3294   63.5911 O   0  0  0  0  0  0  0  0  0  0  0  0
   25.2122    7.3231   61.4755 C   0  0  2  0  0  0  0  0  0  0  0  0
   24.2623    6.4933   62.1144 O   0  0  0  0  0  0  0  0  0  0  0  0
   25.7822    6.5941   60.2773 C   0  0  2  0  0  0  0  0  0  0  0  0
   26.7686    7.4090   59.6569 O   0  0  0  0  0  0  0  0  0  0  0  0
   24.7436    6.2854   59.2222 C   0  0  0  0  0  0  0  0  0  0  0  0
   25.3428    5.5523   58.1712 O   0  0  0  0  0  0  0  0  0  0  0  0
   31.9413    4.8670   59.0613 C   0  0  2  0  0  0  0  0  0  0  0  0
   32.7281    4.0542   58.1330 N   0  3  0  0  0  0  0  0  0  0  0  0
   30.9235    3.9624   59.8322 C   0  0  0  0  0  0  0  0  0  0  0  0
   30.0595    4.8216   60.7751 C   0  0  2  0  0  0  0  0  0  0  0  0
   29.0632    3.9969   61.4665 N   0  3  0  0  0  0  0  0  0  0  0  0
   29.3437    5.9328   59.9821 C   0  0  2  0  0  0  0  0  0  0  0  0
   30.3210    6.8232   59.1902 C   0  0  2  0  0  0  0  0  0  0  0  0
   29.5031    7.6984   58.3898 O   0  0  0  0  0  0  0  0  0  0  0  0
   31.2231    5.9541   58.2776 C   0  0  1  0  0  0  0  0  0  0  0  0
   32.1670    6.7749   57.6464 O   0  0  0  0  0  0  0  0  0  0  0  0
   29.9717    8.3572   57.2161 C   0  0  1  0  0  0  0  0  0  0  0  0
   28.8504    8.2818   56.1193 C   0  0  2  0  0  0  0  0  0  0  0  0
   28.9053    7.1129   55.3196 O   0  0  0  0  0  0  0  0  0  0  0  0
   29.1753    9.5736   55.3826 C   0  0  2  0  0  0  0  0  0  0  0  0
   30.4471    9.4699   54.6744 O   0  0  0  0  0  0  0  0  0  0  0  0
   29.3613   10.5689   56.5193 C   0  0  2  0  0  0  0  0  0  0  0  0
   30.1304    9.7838   57.4465 O   0  0  0  0  0  0  0  0  0  0  0  0
   28.0338   11.1111   57.1435 C   0  0  0  0  0  0  0  0  0  0  0  0
   28.2885   12.0079   58.2321 O   0  0  0  0  0  0  0  0  0  0  0  0
   30.3184    9.1099   53.3013 C   0  0  2  0  0  0  0  0  0  0  0  0
   31.2241    7.9138   52.8504 C   0  0  2  0  0  0  0  0  0  0  0  0
   32.6781    8.1653   53.0867 N   0  3  0  0  0  0  0  0  0  0  0  0
   30.9244    7.6579   51.3356 C   0  0  1  0  0  0  0  0  0  0  0  0
   29.5057    7.2525   51.2330 O   0  0  0  0  0  0  0  0  0  0  0  0
   31.1493    8.9438   50.4484 C   0  0  2  0  0  0  0  0  0  0  0  0
   32.5400    9.3008   50.5054 O   0  0  0  0  0  0  0  0  0  0  0  0
   30.2224   10.0999   51.0110 C   0  0  1  0  0  0  0  0  0  0  0  0
   30.5674   10.2958   52.4238 O   0  0  0  0  0  0  0  0  0  0  0  0
   30.3401   11.4424   50.2541 C   0  0  0  0  0  0  0  0  0  0  0  0
   29.6225   11.4516   48.9505 N   0  3  0  0  0  0  0  0  0  0  0  0
  1  2  1  1  0  0  0
  1  3  1  0  0  0  0
  1 10  1  0  0  0  0
  3  4  1  1  0  0  0
  3  5  1  0  0  0  0
  5  6  1  1  0  0  0
  5  7  1  0  0  0  0
  7  8  1  1  0  0  0
  7  9  1  0  0  0  0
  9 10  1  0  0  0  0
  9 11  1  6  0  0  0
 11 12  1  0  0  0  0
 13 14  1  6  0  0  0
 13 15  1  0  0  0  0
 13 21  1  0  0  0  0
 15 16  1  0  0  0  0
 16 17  1  6  0  0  0
 16 18  1  0  0  0  0
 18  2  1  1  0  0  0
 18 19  1  0  0  0  0
 19 20  1  6  0  0  0
 19 21  1  0  0  0  0
 21 22  1  1  0  0  0
 23 20  1  1  0  0  0
 23 24  1  0  0  0  0
 23 29  1  0  0  0  0
 24 25  1  6  0  0  0
 24 26  1  0  0  0  0
 26 27  1  1  0  0  0
 26 28  1  0  0  0  0
 28 29  1  0  0  0  0
 28 30  1  1  0  0  0
 30 31  1  0  0  0  0
 32 27  1  1  0  0  0
 32 33  1  0  0  0  0
 32 40  1  0  0  0  0
 33 34  1  6  0  0  0
 33 35  1  0  0  0  0
 35 36  1  1  0  0  0
 35 37  1  0  0  0  0
 37 38  1  1  0  0  0
 37 39  1  0  0  0  0
 39 40  1  0  0  0  0
 39 41  1  6  0  0  0
 41 42  1  0  0  0  0
M  CHG  5   4   1  14   1  17   1  34   1  42   1
M  END
>  <CHROM.1>
-175.93001639,-179.63447831,61.97113838,-175.37885870,72.86070592,-177.28303224
-54.27260696,-57.83364792,77.67118428,-158.59481307,138.12130360,-47.11348208
-61.60042091,95.79478241,-129.48870526,178.16988053,94.73123375,-77.91320557
-177.07941733,174.03626919,76.87462042,-23.03984695,29.19733235,7.88115538
57.10902793,2.00602751,-0.69062071,2.12926052

>  <Name>
1j7t

>  <RI>
0

>  <Rbt.Current_Directory>
/home/itssahil/PROJECTS/Mol_Feturizer/New_Systems/rnas/1j7t

>  <Rbt.Executable>
rbdock ($Id: //depot/dev/client3/rdock/2013.1/src/exe/rbdock.cxx#4 $)

>  <Rbt.Library>
libRbt.so (2013.1, Build901 2013/11/27)

>  <Rbt.Parameter_File>
/export/apps/rDock/src/rDock_2013.1_src/data/scripts/dock_solv.prm

>  <Rbt.Receptor>
prm/pocket_docking_5.prm

>  <SCORE>
-42.4038

>  <SCORE.INTER>
-34.0407

>  <SCORE.INTER.CONST>
1

>  <SCORE.INTER.POLAR>
-5.53717

>  <SCORE.INTER.ROT>
9

>  <SCORE.INTER.SOLV>
32.1843

>  <SCORE.INTER.VDW>
-24.5647

>  <SCORE.INTER.norm>
-0.810493

>  <SCORE.INTRA>
-8.40963

>  <SCORE.INTRA.DIHEDRAL>
-15.3783

>  <SCORE.INTRA.DIHEDRAL.0>
46.2143

>  <SCORE.INTRA.POLAR>
0.818294

>  <SCORE.INTRA.POLAR.0>
-1.76436

>  <SCORE.INTRA.REPUL>
0.00277125

>  <SCORE.INTRA.REPUL.0>
0

>  <SCORE.INTRA.SOLV>
-8.09159

>  <SCORE.INTRA.SOLV.lig_0>
-148.643

>  <SCORE.INTRA.VDW>
0.529242

>  <SCORE.INTRA.VDW.0>
-4.83512

>  <SCORE.INTRA.norm>
-0.200229

>  <SCORE.RESTR>
0.0465503

>  <SCORE.RESTR.CAVITY>
0.0465503

>  <SCORE.RESTR.norm>
0.00110834

>  <SCORE.SYSTEM>
0

>  <SCORE.SYSTEM.CONST>
0

>  <SCORE.SYSTEM.DIHEDRAL>
0

>  <SCORE.SYSTEM.SOLV>
0

>  <SCORE.SYSTEM.norm>
0

>  <SCORE.heavy>
42

>  <SCORE.norm>
-1.00961

>  <RMSD>
9.033

$$$$
1j7t
 OpenBabel11021811393D
libRbt.so/2013.1/901 2013/11/27
 42 45  0  0  0  0  0  0  0  0999 V2000
   26.5031    3.6138   57.6108 C   0  0  2  0  0  0  0  0  0  0  0  0
   26.8090    4.0430   58.9617 O   0  0  0  0  0  0  0  0  0  0  0  0
   25.9150    2.1774   57.7157 C   0  0  2  0  0  0  0  0  0  0  0  0
   24.7665    2.0465   58.6577 N   0  3  0  0  0  0  0  0  0  0  0  0
   27.0379    1.2344   58.2003 C   0  0  1  0  0  0  0  0  0  0  0  0
   26.5693   -0.0811   58.2984 O   0  0  0  0  0  0  0  0  0  0  0  0
   28.2476    1.3119   57.2389 C   0  0  2  0  0  0  0  0  0  0  0  0
   29.2798    0.4389   57.6529 O   0  0  0  0  0  0  0  0  0  0  0  0
   28.7816    2.7280   57.1980 C   0  0  2  0  0  0  0  0  0  0  0  0
   27.7348    3.6143   56.8228 O   0  0  0  0  0  0  0  0  0  0  0  0
   29.8935    2.9132   56.1899 C   0  0  0  0  0  0  0  0  0  0  0  0
   30.9937    2.0986   56.5466 O   0  0  0  0  0  0  0  0  0  0  0  0
   27.0799    7.7911   60.8922 C   0  0  2  0  0  0  0  0  0  0  0  0
   27.4814    9.1628   61.2058 N   0  3  0  0  0  0  0  0  0  0  0  0
   28.3194    6.8396   60.9760 C   0  0  0  0  0  0  0  0  0  0  0  0
   27.9107    5.4028   60.5988 C   0  0  2  0  0  0  0  0  0  0  0  0
   29.0720    4.5073   60.6200 N   0  3  0  0  0  0  0  0  0  0  0  0
   27.2704    5.3784   59.1970 C   0  0  2  0  0  0  0  0  0  0  0  0
   26.0626    6.3281   59.0773 C   0  0  2  0  0  0  0  0  0  0  0  0
   25.6790    6.3118   57.6888 O   0  0  0  0  0  0  0  0  0  0  0  0
   26.4618    7.7637   59.5033 C   0  0  1  0  0  0  0  0  0  0  0  0
   25.3256    8.5833   59.4824 O   0  0  0  0  0  0  0  0  0  0  0  0
   26.5755    6.6108   56.6220 C   0  0  1  0  0  0  0  0  0  0  0  0
   25.7448    7.1744   55.4144 C   0  0  2  0  0  0  0  0  0  0  0  0
   25.2523    6.1749   54.5384 O   0  0  0  0  0  0  0  0  0  0  0  0
   26.8132    8.0775   54.8142 C   0  0  2  0  0  0  0  0  0  0  0  0
   27.8987    7.2940   54.2331 O   0  0  0  0  0  0  0  0  0  0  0  0
   27.3675    8.7969   56.0358 C   0  0  2  0  0  0  0  0  0  0  0  0
   27.4577    7.7112   56.9744 O   0  0  0  0  0  0  0  0  0  0  0  0
   26.4863    9.9772   56.5612 C   0  0  0  0  0  0  0  0  0  0  0  0
   27.2041   10.8020   57.4877 O   0  0  0  0  0  0  0  0  0  0  0  0
   28.5297    7.9164   53.1168 C   0  0  2  0  0  0  0  0  0  0  0  0
   27.7051    7.8645   51.7858 C   0  0  2  0  0  0  0  0  0  0  0  0
   27.3751    6.4701   51.3612 N   0  3  0  0  0  0  0  0  0  0  0  0
   28.5448    8.6126   50.6972 C   0  0  1  0  0  0  0  0  0  0  0  0
   28.6686   10.0209   51.1319 O   0  0  0  0  0  0  0  0  0  0  0  0
   29.9919    8.0061   50.5263 C   0  0  2  0  0  0  0  0  0  0  0  0
   29.8682    6.6563   50.0493 O   0  0  0  0  0  0  0  0  0  0  0  0
   30.7222    8.0681   51.9316 C   0  0  1  0  0  0  0  0  0  0  0  0
   29.8911    7.3369   52.8950 O   0  0  0  0  0  0  0  0  0  0  0  0
   32.1560    7.4909   51.9358 C   0  0  0  0  0  0  0  0  0  0  0  0
   33.0949    8.2323   51.0507 N   0  3  0  0  0  0  0  0  0  0  0  0
  1  2  1  1  0  0  0
  1  3  1  0  0  0  0
  1 10  1  0  0  0  0
  3  4  1  1  0  0  0
  3  5  1  0  0  0  0
  5  6  1  6  0  0  0
  5  7  1  0  0  0  0
  7  8  1  1  0  0  0
  7  9  1  0  0  0  0
  9 10  1  0  0  0  0
  9 11  1  6  0  0  0
 11 12  1  0  0  0  0
 13 14  1  6  0  0  0
 13 15  1  0  0  0  0
 13 21  1  0  0  0  0
 15 16  1  0  0  0  0
 16 17  1  6  0  0  0
 16 18  1  0  0  0  0
 18  2  1  1  0  0  0
 18 19  1  0  0  0  0
 19 20  1  6  0  0  0
 19 21  1  0  0  0  0
 21 22  1  1  0  0  0
 23 20  1  1  0  0  0
 23 24  1  0  0  0  0
 23 29  1  0  0  0  0
 24 25  1  6  0  0  0
 24 26  1  0  0  0  0
 26 27  1  1  0  0  0
 26 28  1  0  0  0  0
 28 29  1  0  0  0  0
 28 30  1  1  0  0  0
 30 31  1  0  0  0  0
 32 27  1  1  0  0  0
 32 33  1  0  0  0  0
 32 40  1  0  0  0  0
 33 34  1  6  0  0  0
 33 35  1  0  0  0  0
 35 36  1  1  0  0  0
 35 37  1  0  0  0  0
 37 38  1  1  0  0  0
 37 39  1  0  0  0  0
 39 40  1  0  0  0  0
 39 41  1  6  0  0  0
 41 42  1  0  0  0  0
M  CHG  5   4   1  14   1  17   1  34   1  42   1
M  END
>  <CHROM.1>
-175.04875080,-162.84882381,60.17809359,167.04754099,-57.00335361,-62.41786643
-58.34191722,-63.95856706,174.52304877,-55.14482802,-152.66228483,-64.81675185
179.29918987,149.19905847,-75.67206319,-165.94669898,167.35291149,59.73838289
-177.02984528,67.32070135,62.74208251,-109.90184519,27.88820078,6.02147884
56.16876053,-2.27844404,1.14331191,-0.38728456

>  <Name>
1j7t

>  <RI>
0

>  <Rbt.Current_Directory>
/home/itssahil/PROJECTS/Mol_Feturizer/New_Systems/rnas/1j7t

>  <Rbt.Executable>
rbdock ($Id: //depot/dev/client3/rdock/2013.1/src/exe/rbdock.cxx#4 $)

>  <Rbt.Library>
libRbt.so (2013.1, Build901 2013/11/27)

>  <Rbt.Parameter_File>
/export/apps/rDock/src/rDock_2013.1_src/data/scripts/dock_solv.prm

>  <Rbt.Receptor>
prm/pocket_docking_8.prm

>  <SCORE>
-45.9431

>  <SCORE.INTER>
-32.23

>  <SCORE.INTER.CONST>
1

>  <SCORE.INTER.POLAR>
-5.70042

>  <SCORE.INTER.ROT>
9

>  <SCORE.INTER.SOLV>
19.651

>  <SCORE.INTER.VDW>
-18.6356

>  <SCORE.INTER.norm>
-0.76738

>  <SCORE.INTRA>
-13.7131

>  <SCORE.INTRA.DIHEDRAL>
-30.0305

>  <SCORE.INTRA.DIHEDRAL.0>
46.2143

>  <SCORE.INTRA.POLAR>
1.32968

>  <SCORE.INTRA.POLAR.0>
-1.76436

>  <SCORE.INTRA.REPUL>
0.0178062

>  <SCORE.INTRA.REPUL.0>
0

>  <SCORE.INTRA.SOLV>
-4.17993

>  <SCORE.INTRA.SOLV.lig_0>
-148.643

>  <SCORE.INTRA.VDW>
-1.2178

>  <SCORE.INTRA.VDW.0>
-4.83512

>  <SCORE.INTRA.norm>
-0.326502

>  <SCORE.RESTR>
0

>  <SCORE.RESTR.CAVITY>
0

>  <SCORE.RESTR.norm>
0

>  <SCORE.SYSTEM>
0

>  <SCORE.SYSTEM.CONST>
0

>  <SCORE.SYSTEM.DIHEDRAL>
0

>  <SCORE.SYSTEM.SOLV>
0

>  <SCORE.SYSTEM.norm>
0

>  <SCORE.heavy>
42

>  <SCORE.norm>
-1.09388

>  <RMSD>
9.060

$$$$
1j7t
 OpenBabel11021811393D
libRbt.so/2013.1/901 2013/11/27
 42 45  0  0  0  0  0  0  0  0999 V2000
   28.9368    5.5685   58.5896 C   0  0  2  0  0  0  0  0  0  0  0  0
   27.8507    5.5468   59.5500 O   0  0  0  0  0  0  0  0  0  0  0  0
   29.6969    4.2192   58.7369 C   0  0  2  0  0  0  0  0  0  0  0  0
   28.8331    3.0081   58.6332 N   0  3  0  0  0  0  0  0  0  0  0  0
   30.3770    4.2015   60.1233 C   0  0  1  0  0  0  0  0  0  0  0  0
   31.0926    3.0124   60.3066 O   0  0  0  0  0  0  0  0  0  0  0  0
   31.3090    5.4273   60.2727 C   0  0  2  0  0  0  0  0  0  0  0  0
   31.9588    5.4188   61.5284 O   0  0  0  0  0  0  0  0  0  0  0  0
   30.5054    6.7033   60.1382 C   0  0  2  0  0  0  0  0  0  0  0  0
   29.8167    6.6959   58.8942 O   0  0  0  0  0  0  0  0  0  0  0  0
   31.3633    7.9486   60.1555 C   0  0  0  0  0  0  0  0  0  0  0  0
   32.1075    8.0249   58.9548 O   0  0  0  0  0  0  0  0  0  0  0  0
   24.3305    7.8705   59.3112 C   0  0  2  0  0  0  0  0  0  0  0  0
   23.4040    8.9981   59.4187 N   0  3  0  0  0  0  0  0  0  0  0  0
   24.8292    7.4516   60.7339 C   0  0  0  0  0  0  0  0  0  0  0  0
   25.8424    6.2965   60.6214 C   0  0  2  0  0  0  0  0  0  0  0  0
   26.3611    5.9266   61.9424 N   0  3  0  0  0  0  0  0  0  0  0  0
   27.0146    6.6994   59.7052 C   0  0  2  0  0  0  0  0  0  0  0  0
   26.5501    7.1434   58.3044 C   0  0  2  0  0  0  0  0  0  0  0  0
   27.7264    7.6315   57.6308 O   0  0  0  0  0  0  0  0  0  0  0  0
   25.4946    8.2724   58.4194 C   0  0  1  0  0  0  0  0  0  0  0  0
   25.0157    8.5874   57.1410 O   0  0  0  0  0  0  0  0  0  0  0  0
   27.8241    7.7627   56.2151 C   0  0  1  0  0  0  0  0  0  0  0  0
   28.3859    9.1912   55.8833 C   0  0  2  0  0  0  0  0  0  0  0  0
   27.3869   10.1902   55.7698 O   0  0  0  0  0  0  0  0  0  0  0  0
   29.0978    8.8513   54.5815 C   0  0  2  0  0  0  0  0  0  0  0  0
   28.1413    8.5332   53.5262 O   0  0  0  0  0  0  0  0  0  0  0  0
   29.8403    7.5693   54.9315 C   0  0  2  0  0  0  0  0  0  0  0  0
   28.8320    6.8644   55.6760 O   0  0  0  0  0  0  0  0  0  0  0  0
   31.1595    7.7739   55.7462 C   0  0  0  0  0  0  0  0  0  0  0  0
   32.2020    8.3292   54.9346 O   0  0  0  0  0  0  0  0  0  0  0  0
   28.7441    8.2068   52.2765 C   0  0  2  0  0  0  0  0  0  0  0  0
   27.7718    8.2522   51.0490 C   0  0  2  0  0  0  0  0  0  0  0  0
   26.5988    7.3393   51.2034 N   0  3  0  0  0  0  0  0  0  0  0  0
   28.6169    7.8919   49.7817 C   0  0  1  0  0  0  0  0  0  0  0  0
   29.6404    8.9478   49.6240 O   0  0  0  0  0  0  0  0  0  0  0  0
   29.3440    6.4973   49.9154 C   0  0  2  0  0  0  0  0  0  0  0  0
   28.3453    5.4686   50.0110 O   0  0  0  0  0  0  0  0  0  0  0  0
   30.2658    6.5429   51.2038 C   0  0  1  0  0  0  0  0  0  0  0  0
   29.4091    6.8685   52.3498 O   0  0  0  0  0  0  0  0  0  0  0  0
   31.0396    5.2350   51.4859 C   0  0  0  0  0  0  0  0  0  0  0  0
   31.9316    5.3196   52.6741 N   0  3  0  0  0  0  0  0  0  0  0  0
  1  2  1  1  0  0  0
  1  3  1  0  0  0  0
  1 10  1  0  0  0  0
  3  4  1  1  0  0  0
  3  5  1  0  0  0  0
  5  6  1  6  0  0  0
  5  7  1  0  0  0  0
  7  8  1  1  0  0  0
  7  9  1  0  0  0  0
  9 10  1  0  0  0  0
  9 11  1  6  0  0  0
 11 12  1  0  0  0  0
 13 14  1  1  0  0  0
 13 15  1  0  0  0  0
 13 21  1  0  0  0  0
 15 16  1  0  0  0  0
 16 17  1  1  0  0  0
 16 18  1  0  0  0  0
 18  2  1  6  0  0  0
 18 19  1  0  0  0  0
 19 20  1  6  0  0  0
 19 21  1  0  0  0  0
 21 22  1  6  0  0  0
 23 20  1  1  0  0  0
 23 24  1  0  0  0  0
 23 29  1  0  0  0  0
 24 25  1  6  0  0  0
 24 26  1  0  0  0  0
 26 27  1  6  0  0  0
 26 28  1  0  0  0  0
 28 29  1  0  0  0  0
 28 30  1  1  0  0  0
 30 31  1  0  0  0  0
 32 27  1  1  0  0  0
 32 33  1  0  0  0  0
 32 40  1  0  0  0  0
 33 34  1  1  0  0  0
 33 35  1  0  0  0  0
 35 36  1  1  0  0  0
 35 37  1  0  0  0  0
 37 38  1  1  0  0  0
 37 39  1  0  0  0  0
 39 40  1  0  0  0  0
 39 41  1  1  0  0  0
 41 42  1  0  0  0  0
M  CHG  5   4   1  14   1  17   1  34   1  42   1
M  END
>  <CHROM.1>
176.26304449,171.46635483,84.77853265,75.49303665,-64.23627775,70.54466020
-63.20623682,170.84685403,-170.01823426,160.64399425,131.45163338,173.00954871
-173.21061675,179.91112284,-163.82426596,-72.23130093,63.47742014,-140.51118081
-62.60914509,-79.02095337,178.06988221,173.65342105,28.70617320,6.95214600
56.37841620,-1.68799018,0.42795486,-1.38796651

>  <Name>
1j7t

>  <RI>
224

>  <Rbt.Current_Directory>
/home/itssahil/PROJECTS/Mol_Feturizer/New_Systems/rnas/1j7t

>  <Rbt.Executable>
rbdock ($Id: //depot/dev/client3/rdock/2013.1/src/exe/rbdock.cxx#4 $)

>  <Rbt.Library>
libRbt.so (2013.1, Build901 2013/11/27)

>  <Rbt.Parameter_File>
/export/apps/rDock/src/rDock_2013.1_src/data/scripts/dock_solv.prm

>  <Rbt.Receptor>
prm/pocket_docking_7.prm

>  <SCORE>
-54.7116

>  <SCORE.INTER>
-42.5456

>  <SCORE.INTER.CONST>
1

>  <SCORE.INTER.POLAR>
-6.07735

>  <SCORE.INTER.ROT>
9

>  <SCORE.INTER.SOLV>
30.3704

>  <SCORE.INTER.VDW>
-27.8293

>  <SCORE.INTER.norm>
-1.01299

>  <SCORE.INTRA>
-12.1735

>  <SCORE.INTRA.DIHEDRAL>
-26.9236

>  <SCORE.INTRA.DIHEDRAL.0>
46.2143

>  <SCORE.INTRA.POLAR>
0.653433

>  <SCORE.INTRA.POLAR.0>
-1.76436

>  <SCORE.INTRA.REPUL>
0

>  <SCORE.INTRA.REPUL.0>
0

>  <SCORE.INTRA.SOLV>
-4.09624

>  <SCORE.INTRA.SOLV.lig_0>
-148.643

>  <SCORE.INTRA.VDW>
1.11475

>  <SCORE.INTRA.VDW.0>
-4.83512

>  <SCORE.INTRA.norm>
-0.289846

>  <SCORE.RESTR>
0.00752091

>  <SCORE.RESTR.CAVITY>
0.00752091

>  <SCORE.RESTR.norm>
0.000179069

>  <SCORE.SYSTEM>
0

>  <SCORE.SYSTEM.CONST>
0

>  <SCORE.SYSTEM.DIHEDRAL>
0

>  <SCORE.SYSTEM.SOLV>
0

>  <SCORE.SYSTEM.norm>
0

>  <SCORE.heavy>
42

>  <SCORE.norm>
-1.30266

>  <RMSD>
9.081

$$$$
1j7t
 OpenBabel11021811393D
libRbt.so/2013.1/901 2013/11/27
 42 45  0  0  0  0  0  0  0  0999 V2000
   25.2874    5.4443   59.3340 C   0  0  2  0  0  0  0  0  0  0  0  0
   26.1499    5.8137   58.2285 O   0  0  0  0  0  0  0  0  0  0  0  0
   24.7587    6.7684   59.9563 C   0  0  2  0  0  0  0  0  0  0  0  0
   24.1154    7.6961   58.9820 N   0  3  0  0  0  0  0  0  0  0  0  0
   25.9535    7.5063   60.5986 C   0  0  1  0  0  0  0  0  0  0  0  0
   25.5335    8.7029   61.1913 O   0  0  0  0  0  0  0  0  0  0  0  0
   26.6423    6.5940   61.6410 C   0  0  2  0  0  0  0  0  0  0  0  0
   27.7273    7.2590   62.2572 O   0  0  0  0  0  0  0  0  0  0  0  0
   27.1487    5.3359   60.9680 C   0  0  2  0  0  0  0  0  0  0  0  0
   26.0675    4.6865   60.3114 O   0  0  0  0  0  0  0  0  0  0  0  0
   27.7323    4.3367   61.9417 C   0  0  0  0  0  0  0  0  0  0  0  0
   26.6962    3.7931   62.7369 O   0  0  0  0  0  0  0  0  0  0  0  0
   27.9392    2.0427   57.5759 C   0  0  2  0  0  0  0  0  0  0  0  0
   28.6819    0.9516   56.9440 N   0  3  0  0  0  0  0  0  0  0  0  0
   26.6952    2.4171   56.7037 C   0  0  0  0  0  0  0  0  0  0  0  0
   25.9379    3.5980   57.3403 C   0  0  2  0  0  0  0  0  0  0  0  0
   24.7987    3.9975   56.5074 N   0  3  0  0  0  0  0  0  0  0  0  0
   26.8823    4.8016   57.5280 C   0  0  2  0  0  0  0  0  0  0  0  0
   28.1314    4.4541   58.3611 C   0  0  2  0  0  0  0  0  0  0  0  0
   28.9782    5.6187   58.3140 O   0  0  0  0  0  0  0  0  0  0  0  0
   28.8664    3.2354   57.7476 C   0  0  1  0  0  0  0  0  0  0  0  0
   29.9375    2.8779   58.5771 O   0  0  0  0  0  0  0  0  0  0  0  0
   29.1895    6.3899   57.1342 C   0  0  1  0  0  0  0  0  0  0  0  0
   30.1390    7.5904   57.4854 C   0  0  2  0  0  0  0  0  0  0  0  0
   29.4600    8.7434   57.9529 O   0  0  0  0  0  0  0  0  0  0  0  0
   30.8044    7.7503   56.1257 C   0  0  2  0  0  0  0  0  0  0  0  0
   29.8598    8.2533   55.1335 O   0  0  0  0  0  0  0  0  0  0  0  0
   31.1461    6.3153   55.7500 C   0  0  2  0  0  0  0  0  0  0  0  0
   29.9421    5.6355   56.1454 O   0  0  0  0  0  0  0  0  0  0  0  0
   32.4217    5.7380   56.4467 C   0  0  0  0  0  0  0  0  0  0  0  0
   33.5727    6.5573   56.2059 O   0  0  0  0  0  0  0  0  0  0  0  0
   30.4714    8.7094   53.9296 C   0  0  2  0  0  0  0  0  0  0  0  0
   29.4858    9.3596   52.9001 C   0  0  2  0  0  0  0  0  0  0  0  0
   28.3827    8.4382   52.4907 N   0  3  0  0  0  0  0  0  0  0  0  0
   30.3413    9.8130   51.6703 C   0  0  1  0  0  0  0  0  0  0  0  0
   31.2850   10.8454   52.1510 O   0  0  0  0  0  0  0  0  0  0  0  0
   31.1677    8.6265   51.0373 C   0  0  2  0  0  0  0  0  0  0  0  0
   30.2462    7.6525   50.5206 O   0  0  0  0  0  0  0  0  0  0  0  0
   32.0972    8.0152   52.1662 C   0  0  1  0  0  0  0  0  0  0  0  0
   31.2312    7.5989   53.2753 O   0  0  0  0  0  0  0  0  0  0  0  0
   32.9654    6.8221   51.7061 C   0  0  0  0  0  0  0  0  0  0  0  0
   34.4146    7.1468   51.6111 N   0  3  0  0  0  0  0  0  0  0  0  0
  1  2  1  6  0  0  0
  1  3  1  0  0  0  0
  1 10  1  0  0  0  0
  3  4  1  6  0  0  0
  3  5  1  0  0  0  0
  5  6  1  1  0  0  0
  5  7  1  0  0  0  0
  7  8  1  6  0  0  0
  7  9  1  0  0  0  0
  9 10  1  0  0  0  0
  9 11  1  1  0  0  0
 11 12  1  0  0  0  0
 13 14  1  6  0  0  0
 13 15  1  0  0  0  0
 13 21  1  0  0  0  0
 15 16  1  0  0  0  0
 16 17  1  6  0  0  0
 16 18  1  0  0  0  0
 18  2  1  1  0  0  0
 18 19  1  0  0  0  0
 19 20  1  6  0  0  0
 19 21  1  0  0  0  0
 21 22  1  1  0  0  0
 23 20  1  1  0  0  0
 23 24  1  0  0  0  0
 23 29  1  0  0  0  0
 24 25  1  6  0  0  0
 24 26  1  0  0  0  0
 26 27  1  6  0  0  0
 26 28  1  0  0  0  0
 28 29  1  0  0  0  0
 28 30  1  1  0  0  0
 30 31  1  0  0  0  0
 32 27  1  1  0  0  0
 32 33  1  0  0  0  0
 32 40  1  0  0  0  0
 33 34  1  6  0  0  0
 33 35  1  0  0  0  0
 35 36  1  1  0  0  0
 35 37  1  0  0  0  0
 37 38  1  1  0  0  0
 37 39  1  0  0  0  0
 39 40  1  0  0  0  0
 39 41  1  6  0  0  0
 41 42  1  0  0  0  0
M  CHG  5   4   1  14   1  17   1  34   1  42   1
M  END
>  <CHROM.1>
174.54641257,41.66852276,-55.44823319,53.90657954,-165.92886347,69.33645170
165.76937114,-177.80743433,-52.36693714,-41.33940696,178.64795610,-50.38680025
-73.38985687,166.64280247,-175.27067748,-55.89104166,-178.16181478,150.63347715
-83.23383932,79.11330038,109.33230573,-127.93350548,28.79901702,6.29127825
56.79864805,2.50492439,-0.86325221,2.74156650

>  <Name>
1j7t

>  <RI>
0

>  <Rbt.Current_Directory>
/home/itssahil/PROJECTS/Mol_Feturizer/New_Systems/rnas/1j7t

>  <Rbt.Executable>
rbdock ($Id: //depot/dev/client3/rdock/2013.1/src/exe/rbdock.cxx#4 $)

>  <Rbt.Library>
libRbt.so (2013.1, Build901 2013/11/27)

>  <Rbt.Parameter_File>
/export/apps/rDock/src/rDock_2013.1_src/data/scripts/dock_solv.prm

>  <Rbt.Receptor>
prm/pocket_docking_5.prm

>  <SCORE>
-49.3218

>  <SCORE.INTER>
-39.5175

>  <SCORE.INTER.CONST>
1

>  <SCORE.INTER.POLAR>
-6.75367

>  <SCORE.INTER.ROT>
9

>  <SCORE.INTER.SOLV>
24.0459

>  <SCORE.INTER.VDW>
-21.4481

>  <SCORE.INTER.norm>
-0.940893

>  <SCORE.INTRA>
-9.80427

>  <SCORE.INTRA.DIHEDRAL>
-23.2979

>  <SCORE.INTRA.DIHEDRAL.0>
46.2143

>  <SCORE.INTRA.POLAR>
1.01102

>  <SCORE.INTRA.POLAR.0>
-1.76436

>  <SCORE.INTRA.REPUL>
0

>  <SCORE.INTRA.REPUL.0>
0

>  <SCORE.INTRA.SOLV>
-6.65301

>  <SCORE.INTRA.SOLV.lig_0>
-148.643

>  <SCORE.INTRA.VDW>
1.73376

>  <SCORE.INTRA.VDW.0>
-4.83512

>  <SCORE.INTRA.norm>
-0.233435

>  <SCORE.RESTR>
0

>  <SCORE.RESTR.CAVITY>
0

>  <SCORE.RESTR.norm>
0

>  <SCORE.SYSTEM>
0

>  <SCORE.SYSTEM.CONST>
0

>  <SCORE.SYSTEM.DIHEDRAL>
0

>  <SCORE.SYSTEM.SOLV>
0

>  <SCORE.SYSTEM.norm>
0

>  <SCORE.heavy>
42

>  <SCORE.norm>
-1.17433

>  <RMSD>
9.091

$$$$
1j7t
 OpenBabel11021811393D
libRbt.so/2013.1/901 2013/11/27
 42 45  0  0  0  0  0  0  0  0999 V2000
   26.2324    6.5328   57.5284 C   0  0  2  0  0  0  0  0  0  0  0  0
   25.2376    7.5819   57.6384 O   0  0  0  0  0  0  0  0  0  0  0  0
   25.7663    5.5866   56.3850 C   0  0  2  0  0  0  0  0  0  0  0  0
   25.4780    6.2730   55.0929 N   0  3  0  0  0  0  0  0  0  0  0  0
   24.4739    4.8782   56.8463 C   0  0  1  0  0  0  0  0  0  0  0  0
   24.0148    3.9978   55.8597 O   0  0  0  0  0  0  0  0  0  0  0  0
   24.7267    4.1253   58.1741 C   0  0  2  0  0  0  0  0  0  0  0  0
   23.5603    3.4513   58.6035 O   0  0  0  0  0  0  0  0  0  0  0  0
   25.1575    5.1040   59.2458 C   0  0  2  0  0  0  0  0  0  0  0  0
   26.3059    5.8139   58.7996 O   0  0  0  0  0  0  0  0  0  0  0  0
   25.5378    4.4303   60.5453 C   0  0  0  0  0  0  0  0  0  0  0  0
   26.6534    3.5874   60.3304 O   0  0  0  0  0  0  0  0  0  0  0  0
   25.1977   11.5097   59.1938 C   0  0  2  0  0  0  0  0  0  0  0  0
   25.3453   12.6375   60.1145 N   0  3  0  0  0  0  0  0  0  0  0  0
   24.1480   10.4949   59.7567 C   0  0  0  0  0  0  0  0  0  0  0  0
   24.0254    9.2821   58.8144 C   0  0  2  0  0  0  0  0  0  0  0  0
   23.0847    8.2949   59.3541 N   0  3  0  0  0  0  0  0  0  0  0  0
   25.4024    8.6201   58.6113 C   0  0  2  0  0  0  0  0  0  0  0  0
   26.4643    9.6043   58.0830 C   0  0  2  0  0  0  0  0  0  0  0  0
   27.7137    8.8872   58.0964 O   0  0  0  0  0  0  0  0  0  0  0  0
   26.5530   10.8470   59.0047 C   0  0  1  0  0  0  0  0  0  0  0  0
   27.4497   11.7694   58.4496 O   0  0  0  0  0  0  0  0  0  0  0  0
   28.5564    8.7548   56.9547 C   0  0  1  0  0  0  0  0  0  0  0  0
   30.0277    9.1064   57.3763 C   0  0  2  0  0  0  0  0  0  0  0  0
   30.3407   10.4853   57.2772 O   0  0  0  0  0  0  0  0  0  0  0  0
   30.7606    8.2140   56.3845 C   0  0  2  0  0  0  0  0  0  0  0  0
   30.5992    8.7019   55.0186 O   0  0  0  0  0  0  0  0  0  0  0  0
   30.0031    6.8983   56.4958 C   0  0  2  0  0  0  0  0  0  0  0  0
   28.6442    7.3676   56.5289 O   0  0  0  0  0  0  0  0  0  0  0  0
   30.3721    6.0295   57.7427 C   0  0  0  0  0  0  0  0  0  0  0  0
   30.4167    6.8149   58.9406 O   0  0  0  0  0  0  0  0  0  0  0  0
   31.3652    7.9861   54.0530 C   0  0  2  0  0  0  0  0  0  0  0  0
   31.4086    8.6452   52.6324 C   0  0  2  0  0  0  0  0  0  0  0  0
   30.0504    8.8343   52.0384 N   0  3  0  0  0  0  0  0  0  0  0  0
   32.3073    7.7337   51.7318 C   0  0  1  0  0  0  0  0  0  0  0  0
   33.6677    7.7510   52.3119 O   0  0  0  0  0  0  0  0  0  0  0  0
   31.7971    6.2410   51.6812 C   0  0  2  0  0  0  0  0  0  0  0  0
   30.4992    6.2223   51.0649 O   0  0  0  0  0  0  0  0  0  0  0  0
   31.7512    5.6847   53.1646 C   0  0  1  0  0  0  0  0  0  0  0  0
   30.8826    6.5741   53.9443 O   0  0  0  0  0  0  0  0  0  0  0  0
   31.2513    4.2273   53.2883 C   0  0  0  0  0  0  0  0  0  0  0  0
   30.2414    3.8587   52.2592 N   0  3  0  0  0  0  0  0  0  0  0  0
  1  2  1  1  0  0  0
  1  3  1  0  0  0  0
  1 10  1  0  0  0  0
  3  4  1  6  0  0  0
  3  5  1  0  0  0  0
  5  6  1  6  0  0  0
  5  7  1  0  0  0  0
  7  8  1  1  0  0  0
  7  9  1  0  0  0  0
  9 10  1  0  0  0  0
  9 11  1  1  0  0  0
 11 12  1  0  0  0  0
 13 14  1  1  0  0  0
 13 15  1  0  0  0  0
 13 21  1  0  0  0  0
 15 16  1  0  0  0  0
 16 17  1  1  0  0  0
 16 18  1  0  0  0  0
 18  2  1  6  0  0  0
 18 19  1  0  0  0  0
 19 20  1  1  0  0  0
 19 21  1  0  0  0  0
 21 22  1  6  0  0  0
 23 20  1  1  0  0  0
 23 24  1  0  0  0  0
 23 29  1  0  0  0  0
 24 25  1  6  0  0  0
 24 26  1  0  0  0  0
 26 27  1  6  0  0  0
 26 28  1  0  0  0  0
 28 29  1  0  0  0  0
 28 30  1  1  0  0  0
 30 31  1  0  0  0  0
 32 27  1  1  0  0  0
 32 33  1  0  0  0  0
 32 40  1  0  0  0  0
 33 34  1  6  0  0  0
 33 35  1  0  0  0  0
 35 36  1  1  0  0  0
 35 37  1  0  0  0  0
 37 38  1  1  0  0  0
 37 39  1  0  0  0  0
 39 40  1  0  0  0  0
 39 41  1  6  0  0  0
 41 42  1  0  0  0  0
M  CHG  5   4   1  14   1  17   1  34   1  42   1
M  END
>  <CHROM.1>
-179.50572341,-161.51892571,-49.92692822,-176.32698154,176.49382712,62.63009790
178.56052409,-178.03957059,164.59177979,125.91245614,131.89473173,-50.51714253
166.10048695,174.31895357,-169.59481168,46.18994992,174.54692011,-67.99431445
-70.00412362,70.53514005,-32.27717661,-148.09559448,27.92899001,7.35299706
56.54678226,2.80729910,0.69248165,0.37710395

>  <Name>
1j7t

>  <RI>
224

>  <Rbt.Current_Directory>
/home/itssahil/PROJECTS/Mol_Feturizer/New_Systems/rnas/1j7t

>  <Rbt.Executable>
rbdock ($Id: //depot/dev/client3/rdock/2013.1/src/exe/rbdock.cxx#4 $)

>  <Rbt.Library>
libRbt.so (2013.1, Build901 2013/11/27)

>  <Rbt.Parameter_File>
/export/apps/rDock/src/rDock_2013.1_src/data/scripts/dock_solv.prm

>  <Rbt.Receptor>
prm/pocket_docking_7.prm

>  <SCORE>
-44.8447

>  <SCORE.INTER>
-34.8433

>  <SCORE.INTER.CONST>
1

>  <SCORE.INTER.POLAR>
-6.22292

>  <SCORE.INTER.ROT>
9

>  <SCORE.INTER.SOLV>
20.2758

>  <SCORE.INTER.VDW>
-18.8444

>  <SCORE.INTER.norm>
-0.829601

>  <SCORE.INTRA>
-10.0015

>  <SCORE.INTRA.DIHEDRAL>
-21.3824

>  <SCORE.INTRA.DIHEDRAL.0>
46.2143

>  <SCORE.INTRA.POLAR>
0.575596

>  <SCORE.INTRA.POLAR.0>
-1.76436

>  <SCORE.INTRA.REPUL>
0.0649375

>  <SCORE.INTRA.REPUL.0>
0

>  <SCORE.INTRA.SOLV>
-1.25401

>  <SCORE.INTRA.SOLV.lig_0>
-148.643

>  <SCORE.INTRA.VDW>
-0.96499

>  <SCORE.INTRA.VDW.0>
-4.83512

>  <SCORE.INTRA.norm>
-0.23813

>  <SCORE.RESTR>
0

>  <SCORE.RESTR.CAVITY>
0

>  <SCORE.RESTR.norm>
0

>  <SCORE.SYSTEM>
0

>  <SCORE.SYSTEM.CONST>
0

>  <SCORE.SYSTEM.DIHEDRAL>
0

>  <SCORE.SYSTEM.SOLV>
0

>  <SCORE.SYSTEM.norm>
0

>  <SCORE.heavy>
42

>  <SCORE.norm>
-1.06773

>  <RMSD>
9.094

$$$$
1j7t
 OpenBabel11021811393D
libRbt.so/2013.1/901 2013/11/27
 42 45  0  0  0  0  0  0  0  0999 V2000
   26.0735    5.7384   57.3159 C   0  0  2  0  0  0  0  0  0  0  0  0
   25.5487    6.9342   57.9461 O   0  0  0  0  0  0  0  0  0  0  0  0
   24.8587    4.9731   56.7172 C   0  0  2  0  0  0  0  0  0  0  0  0
   23.9945    5.7909   55.8182 N   0  3  0  0  0  0  0  0  0  0  0  0
   23.9859    4.4694   57.8874 C   0  0  1  0  0  0  0  0  0  0  0  0
   22.8811    3.7562   57.4075 O   0  0  0  0  0  0  0  0  0  0  0  0
   24.8310    3.5900   58.8392 C   0  0  2  0  0  0  0  0  0  0  0  0
   24.0447    3.1004   59.9075 O   0  0  0  0  0  0  0  0  0  0  0  0
   25.9818    4.3984   59.3998 C   0  0  2  0  0  0  0  0  0  0  0  0
   26.7507    4.9277   58.3271 O   0  0  0  0  0  0  0  0  0  0  0  0
   26.9249    3.5766   60.2496 C   0  0  0  0  0  0  0  0  0  0  0  0
   27.5940    2.6339   59.4341 O   0  0  0  0  0  0  0  0  0  0  0  0
   27.3058   10.6583   58.8903 C   0  0  2  0  0  0  0  0  0  0  0  0
   28.1811   11.6654   59.4911 N   0  3  0  0  0  0  0  0  0  0  0  0
   26.4658    9.9486   60.0034 C   0  0  0  0  0  0  0  0  0  0  0  0
   25.5786    8.8538   59.3805 C   0  0  2  0  0  0  0  0  0  0  0  0
   24.8236    8.1415   60.4167 N   0  3  0  0  0  0  0  0  0  0  0  0
   26.4416    7.8484   58.5930 C   0  0  2  0  0  0  0  0  0  0  0  0
   27.3013    8.5241   57.5069 C   0  0  2  0  0  0  0  0  0  0  0  0
   28.1545    7.4922   56.9751 O   0  0  0  0  0  0  0  0  0  0  0  0
   28.1579    9.6578   58.1257 C   0  0  1  0  0  0  0  0  0  0  0  0
   28.8521   10.3203   57.1048 O   0  0  0  0  0  0  0  0  0  0  0  0
   29.0076    7.6803   55.8491 C   0  0  1  0  0  0  0  0  0  0  0  0
   29.4005    6.2708   55.2789 C   0  0  2  0  0  0  0  0  0  0  0  0
   30.5511    5.7057   55.8838 O   0  0  0  0  0  0  0  0  0  0  0  0
   29.5766    6.6648   53.8191 C   0  0  2  0  0  0  0  0  0  0  0  0
   30.7473    7.5180   53.6419 O   0  0  0  0  0  0  0  0  0  0  0  0
   28.3426    7.5149   53.5513 C   0  0  2  0  0  0  0  0  0  0  0  0
   28.2912    8.3069   54.7503 O   0  0  0  0  0  0  0  0  0  0  0  0
   27.0268    6.7064   53.3050 C   0  0  0  0  0  0  0  0  0  0  0  0
   25.9949    7.5312   52.7494 O   0  0  0  0  0  0  0  0  0  0  0  0
   31.9597    6.8008   53.4242 C   0  0  2  0  0  0  0  0  0  0  0  0
   33.2058    7.6995   53.1176 C   0  0  2  0  0  0  0  0  0  0  0  0
   33.0111    8.5734   51.9210 N   0  3  0  0  0  0  0  0  0  0  0  0
   34.4287    6.7399   52.9349 C   0  0  1  0  0  0  0  0  0  0  0  0
   34.6394    6.0495   54.2258 O   0  0  0  0  0  0  0  0  0  0  0  0
   34.1852    5.6555   51.8142 C   0  0  2  0  0  0  0  0  0  0  0  0
   34.0378    6.3274   50.5526 O   0  0  0  0  0  0  0  0  0  0  0  0
   32.8856    4.8331   52.1972 C   0  0  1  0  0  0  0  0  0  0  0  0
   31.7814    5.7896   52.3360 O   0  0  0  0  0  0  0  0  0  0  0  0
   32.4992    3.7340   51.1816 C   0  0  0  0  0  0  0  0  0  0  0  0
   31.3284    2.9200   51.6075 N   0  3  0  0  0  0  0  0  0  0  0  0
  1  2  1  1  0  0  0
  1  3  1  0  0  0  0
  1 10  1  0  0  0  0
  3  4  1  6  0  0  0
  3  5  1  0  0  0  0
  5  6  1  6  0  0  0
  5  7  1  0  0  0  0
  7  8  1  1  0  0  0
  7  9  1  0  0  0  0
  9 10  1  0  0  0  0
  9 11  1  1  0  0  0
 11 12  1  0  0  0  0
 13 14  1  1  0  0  0
 13 15  1  0  0  0  0
 13 21  1  0  0  0  0
 15 16  1  0  0  0  0
 16 17  1  1  0  0  0
 16 18  1  0  0  0  0
 18  2  1  6  0  0  0
 18 19  1  0  0  0  0
 19 20  1  1  0  0  0
 19 21  1  0  0  0  0
 21 22  1  6  0  0  0
 23 20  1  1  0  0  0
 23 24  1  0  0  0  0
 23 29  1  0  0  0  0
 24 25  1  1  0  0  0
 24 26  1  0  0  0  0
 26 27  1  1  0  0  0
 26 28  1  0  0  0  0
 28 29  1  0  0  0  0
 28 30  1  1  0  0  0
 30 31  1  0  0  0  0
 32 27  1  6  0  0  0
 32 33  1  0  0  0  0
 32 40  1  0  0  0  0
 33 34  1  6  0  0  0
 33 35  1  0  0  0  0
 35 36  1  1  0  0  0
 35 37  1  0  0  0  0
 37 38  1  6  0  0  0
 37 39  1  0  0  0  0
 39 40  1  0  0  0  0
 39 41  1  6  0  0  0
 41 42  1  0  0  0  0
M  CHG  5   4   1  14   1  17   1  34   1  42   1
M  END
>  <CHROM.1>
179.92290394,-169.52812807,171.55528175,-63.89495258,-55.09590189,66.90305110
65.31125069,-169.75118013,67.51711391,173.27625181,-161.42270778,71.97264040
-49.37596166,87.85313315,175.32226417,-165.98861984,-35.15910912,-62.97876218
-79.41429347,72.64012973,176.28962811,-49.72487693,28.51090833,6.56657477
55.93813668,2.88329103,0.67674506,0.39664982

>  <Name>
1j7t

>  <RI>
0

>  <Rbt.Current_Directory>
/home/itssahil/PROJECTS/Mol_Feturizer/New_Systems/rnas/1j7t

>  <Rbt.Executable>
rbdock ($Id: //depot/dev/client3/rdock/2013.1/src/exe/rbdock.cxx#4 $)

>  <Rbt.Library>
libRbt.so (2013.1, Build901 2013/11/27)

>  <Rbt.Parameter_File>
/export/apps/rDock/src/rDock_2013.1_src/data/scripts/dock_solv.prm

>  <Rbt.Receptor>
prm/pocket_docking_5.prm

>  <SCORE>
-41.3903

>  <SCORE.INTER>
-25.993

>  <SCORE.INTER.CONST>
1

>  <SCORE.INTER.POLAR>
-5.37055

>  <SCORE.INTER.ROT>
9

>  <SCORE.INTER.SOLV>
14.8317

>  <SCORE.INTER.VDW>
-13.9708

>  <SCORE.INTER.norm>
-0.618882

>  <SCORE.INTRA>
-15.4009

>  <SCORE.INTRA.DIHEDRAL>
-31.7387

>  <SCORE.INTRA.DIHEDRAL.0>
46.2143

>  <SCORE.INTRA.POLAR>
1.22033

>  <SCORE.INTRA.POLAR.0>
-1.76436

>  <SCORE.INTRA.REPUL>
0.0267594

>  <SCORE.INTRA.REPUL.0>
0

>  <SCORE.INTRA.SOLV>
-5.50396

>  <SCORE.INTRA.SOLV.lig_0>
-148.643

>  <SCORE.INTRA.VDW>
-1.06255

>  <SCORE.INTRA.VDW.0>
-4.83512

>  <SCORE.INTRA.norm>
-0.366689

>  <SCORE.RESTR>
0.00363446

>  <SCORE.RESTR.CAVITY>
0.00363446

>  <SCORE.RESTR.norm>
8.65348e-05

>  <SCORE.SYSTEM>
0

>  <SCORE.SYSTEM.CONST>
0

>  <SCORE.SYSTEM.DIHEDRAL>
0

>  <SCORE.SYSTEM.SOLV>
0

>  <SCORE.SYSTEM.norm>
0

>  <SCORE.heavy>
42

>  <SCORE.norm>
-0.985484

>  <RMSD>
9.103

$$$$
1j7t
 OpenBabel11021811393D
libRbt.so/2013.1/901 2013/11/27
 42 45  0  0  0  0  0  0  0  0999 V2000
   27.1610    2.9065   59.2944 C   0  0  2  0  0  0  0  0  0  0  0  0
   27.3614    3.9047   58.2621 O   0  0  0  0  0  0  0  0  0  0  0  0
   25.7584    2.2795   59.0502 C   0  0  2  0  0  0  0  0  0  0  0  0
   25.5451    1.7601   57.6688 N   0  3  0  0  0  0  0  0  0  0  0  0
   24.6946    3.3660   59.3197 C   0  0  1  0  0  0  0  0  0  0  0  0
   23.4061    2.8526   59.1306 O   0  0  0  0  0  0  0  0  0  0  0  0
   24.8550    3.9211   60.7549 C   0  0  2  0  0  0  0  0  0  0  0  0
   23.8759    4.9033   61.0299 O   0  0  0  0  0  0  0  0  0  0  0  0
   26.2306    4.5318   60.9189 C   0  0  2  0  0  0  0  0  0  0  0  0
   27.2177    3.5586   60.6020 O   0  0  0  0  0  0  0  0  0  0  0  0
   26.5096    4.9932   62.3318 C   0  0  0  0  0  0  0  0  0  0  0  0
   26.4827    3.8805   63.2050 O   0  0  0  0  0  0  0  0  0  0  0  0
   30.1441    6.4236   60.2011 C   0  0  2  0  0  0  0  0  0  0  0  0
   31.2238    7.3866   60.4206 N   0  3  0  0  0  0  0  0  0  0  0  0
   30.6986    5.1578   59.4671 C   0  0  0  0  0  0  0  0  0  0  0  0
   29.5556    4.1626   59.1905 C   0  0  2  0  0  0  0  0  0  0  0  0
   30.0482    2.9933   58.4547 N   0  3  0  0  0  0  0  0  0  0  0  0
   28.4363    4.8441   58.3792 C   0  0  2  0  0  0  0  0  0  0  0  0
   27.8896    6.1108   59.0661 C   0  0  2  0  0  0  0  0  0  0  0  0
   26.9780    6.7117   58.1263 O   0  0  0  0  0  0  0  0  0  0  0  0
   29.0462    7.0909   59.3881 C   0  0  1  0  0  0  0  0  0  0  0  0
   28.5380    8.1852   60.1002 O   0  0  0  0  0  0  0  0  0  0  0  0
   27.3307    7.0305   56.7828 C   0  0  1  0  0  0  0  0  0  0  0  0
   26.8389    8.4886   56.4696 C   0  0  2  0  0  0  0  0  0  0  0  0
   25.5064    8.5561   55.9911 O   0  0  0  0  0  0  0  0  0  0  0  0
   27.9025    8.8654   55.4478 C   0  0  2  0  0  0  0  0  0  0  0  0
   27.7389    8.1049   54.2130 O   0  0  0  0  0  0  0  0  0  0  0  0
   29.1874    8.3922   56.1130 C   0  0  2  0  0  0  0  0  0  0  0  0
   28.7738    7.1149   56.6280 O   0  0  0  0  0  0  0  0  0  0  0  0
   29.7409    9.3412   57.2260 C   0  0  0  0  0  0  0  0  0  0  0  0
   29.8555   10.6920   56.7609 O   0  0  0  0  0  0  0  0  0  0  0  0
   28.6006    8.5217   53.1570 C   0  0  2  0  0  0  0  0  0  0  0  0
   27.9735    8.4270   51.7244 C   0  0  2  0  0  0  0  0  0  0  0  0
   27.5200    7.0455   51.3793 N   0  3  0  0  0  0  0  0  0  0  0  0
   29.0531    8.9454   50.7167 C   0  0  1  0  0  0  0  0  0  0  0  0
   29.3049   10.3669   51.0386 O   0  0  0  0  0  0  0  0  0  0  0  0
   30.4135    8.1526   50.8259 C   0  0  2  0  0  0  0  0  0  0  0  0
   30.1758    6.7843   50.4571 O   0  0  0  0  0  0  0  0  0  0  0  0
   30.9388    8.2768   52.3160 C   0  0  1  0  0  0  0  0  0  0  0  0
   29.8878    7.7605   53.2004 O   0  0  0  0  0  0  0  0  0  0  0  0
   32.2654    7.5334   52.5929 C   0  0  0  0  0  0  0  0  0  0  0  0
   33.2960    7.7507   51.5417 N   0  3  0  0  0  0  0  0  0  0  0  0
  1  2  1  6  0  0  0
  1  3  1  0  0  0  0
  1 10  1  0  0  0  0
  3  4  1  6  0  0  0
  3  5  1  0  0  0  0
  5  6  1  1  0  0  0
  5  7  1  0  0  0  0
  7  8  1  6  0  0  0
  7  9  1  0  0  0  0
  9 10  1  0  0  0  0
  9 11  1  1  0  0  0
 11 12  1  0  0  0  0
 13 14  1  6  0  0  0
 13 15  1  0  0  0  0
 13 21  1  0  0  0  0
 15 16  1  0  0  0  0
 16 17  1  6  0  0  0
 16 18  1  0  0  0  0
 18  2  1  1  0  0  0
 18 19  1  0  0  0  0
 19 20  1  6  0  0  0
 19 21  1  0  0  0  0
 21 22  1  1  0  0  0
 23 20  1  1  0  0  0
 23 24  1  0  0  0  0
 23 29  1  0  0  0  0
 24 25  1  6  0  0  0
 24 26  1  0  0  0  0
 26 27  1  6  0  0  0
 26 28  1  0  0  0  0
 28 29  1  0  0  0  0
 28 30  1  1  0  0  0
 30 31  1  0  0  0  0
 32 27  1  1  0  0  0
 32 33  1  0  0  0  0
 32 40  1  0  0  0  0
 33 34  1  6  0  0  0
 33 35  1  0  0  0  0
 35 36  1  1  0  0  0
 35 37  1  0  0  0  0
 37 38  1  1  0  0  0
 37 39  1  0  0  0  0
 39 40  1  0  0  0  0
 39 41  1  6  0  0  0
 41 42  1  0  0  0  0
M  CHG  5   4   1  14   1  17   1  34   1  42   1
M  END
>  <CHROM.1>
167.12961496,28.63972096,-46.86477854,178.52756217,-58.83132072,62.66975193
50.20961535,-164.12607998,-13.43309886,-53.51253170,-133.07679643,66.03516264
70.85845427,172.85315405,-145.03057426,-51.66789905,175.28952112,-179.17001710
179.94336521,62.80097083,45.18833087,-155.83430587,28.18721758,6.38211468
56.86533684,2.01590975,0.61834478,1.78741799

>  <Name>
1j7t

>  <RI>
0

>  <Rbt.Current_Directory>
/home/itssahil/PROJECTS/Mol_Feturizer/New_Systems/rnas/1j7t

>  <Rbt.Executable>
rbdock ($Id: //depot/dev/client3/rdock/2013.1/src/exe/rbdock.cxx#4 $)

>  <Rbt.Library>
libRbt.so (2013.1, Build901 2013/11/27)

>  <Rbt.Parameter_File>
/export/apps/rDock/src/rDock_2013.1_src/data/scripts/dock_solv.prm

>  <Rbt.Receptor>
prm/pocket_docking_3.prm

>  <SCORE>
-35.9188

>  <SCORE.INTER>
-29.7947

>  <SCORE.INTER.CONST>
1

>  <SCORE.INTER.POLAR>
-4.51889

>  <SCORE.INTER.ROT>
9

>  <SCORE.INTER.SOLV>
18.3737

>  <SCORE.INTER.VDW>
-20.5247

>  <SCORE.INTER.norm>
-0.709398

>  <SCORE.INTRA>
-6.33753

>  <SCORE.INTRA.DIHEDRAL>
-22.0228

>  <SCORE.INTRA.DIHEDRAL.0>
46.2143

>  <SCORE.INTRA.POLAR>
1.25055

>  <SCORE.INTRA.POLAR.0>
-1.76436

>  <SCORE.INTRA.REPUL>
0

>  <SCORE.INTRA.REPUL.0>
0

>  <SCORE.INTRA.SOLV>
-3.91111

>  <SCORE.INTRA.SOLV.lig_0>
-148.643

>  <SCORE.INTRA.VDW>
2.37755

>  <SCORE.INTRA.VDW.0>
-4.83512

>  <SCORE.INTRA.norm>
-0.150894

>  <SCORE.RESTR>
0.213499

>  <SCORE.RESTR.CAVITY>
0.213499

>  <SCORE.RESTR.norm>
0.00508331

>  <SCORE.SYSTEM>
0

>  <SCORE.SYSTEM.CONST>
0

>  <SCORE.SYSTEM.DIHEDRAL>
0

>  <SCORE.SYSTEM.SOLV>
0

>  <SCORE.SYSTEM.norm>
0

>  <SCORE.heavy>
42

>  <SCORE.norm>
-0.855209

>  <RMSD>
9.110

$$$$
1j7t
 OpenBabel11021811393D
libRbt.so/2013.1/901 2013/11/27
 42 45  0  0  0  0  0  0  0  0999 V2000
   25.9338    5.0348   57.4111 C   0  0  2  0  0  0  0  0  0  0  0  0
   25.6533    6.2007   58.2263 O   0  0  0  0  0  0  0  0  0  0  0  0
   24.6163    4.6780   56.6649 C   0  0  2  0  0  0  0  0  0  0  0  0
   24.0120    5.8079   55.9021 N   0  3  0  0  0  0  0  0  0  0  0  0
   23.5850    4.2059   57.7130 C   0  0  1  0  0  0  0  0  0  0  0  0
   22.3792    3.8543   57.0951 O   0  0  0  0  0  0  0  0  0  0  0  0
   24.1539    3.0127   58.5169 C   0  0  2  0  0  0  0  0  0  0  0  0
   23.2160    2.5507   59.4687 O   0  0  0  0  0  0  0  0  0  0  0  0
   25.4210    3.4319   59.2316 C   0  0  2  0  0  0  0  0  0  0  0  0
   26.3511    3.9367   58.2818 O   0  0  0  0  0  0  0  0  0  0  0  0
   26.1041    2.2880   59.9469 C   0  0  0  0  0  0  0  0  0  0  0  0
   25.3778    1.9624   61.1164 O   0  0  0  0  0  0  0  0  0  0  0  0
   26.7949   10.2671   58.1276 C   0  0  2  0  0  0  0  0  0  0  0  0
   27.6208   11.4742   58.0816 N   0  3  0  0  0  0  0  0  0  0  0  0
   27.1055    9.4569   59.4297 C   0  0  0  0  0  0  0  0  0  0  0  0
   26.2735    8.1605   59.4582 C   0  0  2  0  0  0  0  0  0  0  0  0
   26.5918    7.3620   60.6465 N   0  3  0  0  0  0  0  0  0  0  0  0
   26.5415    7.3238   58.1918 C   0  0  2  0  0  0  0  0  0  0  0  0
   26.2700    8.1066   56.8924 C   0  0  2  0  0  0  0  0  0  0  0  0
   26.7111    7.2569   55.8159 O   0  0  0  0  0  0  0  0  0  0  0  0
   27.0699    9.4340   56.8858 C   0  0  1  0  0  0  0  0  0  0  0  0
   26.7292   10.1717   55.7444 O   0  0  0  0  0  0  0  0  0  0  0  0
   28.0665    6.8545   55.6368 C   0  0  1  0  0  0  0  0  0  0  0  0
   28.0889    5.5477   54.7662 C   0  0  2  0  0  0  0  0  0  0  0  0
   27.9769    4.3524   55.5196 O   0  0  0  0  0  0  0  0  0  0  0  0
   29.4394    5.7533   54.0945 C   0  0  2  0  0  0  0  0  0  0  0  0
   30.5301    5.6229   55.0553 O   0  0  0  0  0  0  0  0  0  0  0  0
   29.3789    7.2115   53.6619 C   0  0  2  0  0  0  0  0  0  0  0  0
   28.7944    7.8180   54.8273 O   0  0  0  0  0  0  0  0  0  0  0  0
   28.5506    7.4791   52.3626 C   0  0  0  0  0  0  0  0  0  0  0  0
   28.4322    8.8810   52.0897 O   0  0  0  0  0  0  0  0  0  0  0  0
   31.7867    5.2995   54.4654 C   0  0  2  0  0  0  0  0  0  0  0  0
   32.9386    5.0208   55.4900 C   0  0  2  0  0  0  0  0  0  0  0  0
   33.1877    6.1714   56.4106 N   0  3  0  0  0  0  0  0  0  0  0  0
   34.2154    4.6644   54.6580 C   0  0  1  0  0  0  0  0  0  0  0  0
   33.9203    3.4196   53.9157 O   0  0  0  0  0  0  0  0  0  0  0  0
   34.5981    5.7929   53.6229 C   0  0  2  0  0  0  0  0  0  0  0  0
   34.9393    6.9839   54.3507 O   0  0  0  0  0  0  0  0  0  0  0  0
   33.3571    6.0250   52.6647 C   0  0  1  0  0  0  0  0  0  0  0  0
   32.2058    6.3693   53.5070 O   0  0  0  0  0  0  0  0  0  0  0  0
   33.5678    7.1214   51.5958 C   0  0  0  0  0  0  0  0  0  0  0  0
   32.3078    7.7997   51.1874 N   0  3  0  0  0  0  0  0  0  0  0  0
  1  2  1  1  0  0  0
  1  3  1  0  0  0  0
  1 10  1  0  0  0  0
  3  4  1  1  0  0  0
  3  5  1  0  0  0  0
  5  6  1  6  0  0  0
  5  7  1  0  0  0  0
  7  8  1  1  0  0  0
  7  9  1  0  0  0  0
  9 10  1  0  0  0  0
  9 11  1  6  0  0  0
 11 12  1  0  0  0  0
 13 14  1  6  0  0  0
 13 15  1  0  0  0  0
 13 21  1  0  0  0  0
 15 16  1  0  0  0  0
 16 17  1  1  0  0  0
 16 18  1  0  0  0  0
 18  2  1  1  0  0  0
 18 19  1  0  0  0  0
 19 20  1  6  0  0  0
 19 21  1  0  0  0  0
 21 22  1  6  0  0  0
 23 20  1  6  0  0  0
 23 24  1  0  0  0  0
 23 29  1  0  0  0  0
 24 25  1  1  0  0  0
 24 26  1  0  0  0  0
 26 27  1  1  0  0  0
 26 28  1  0  0  0  0
 28 29  1  0  0  0  0
 28 30  1  6  0  0  0
 30 31  1  0  0  0  0
 32 27  1  1  0  0  0
 32 33  1  0  0  0  0
 32 40  1  0  0  0  0
 33 34  1  6  0  0  0
 33 35  1  0  0  0  0
 35 36  1  6  0  0  0
 35 37  1  0  0  0  0
 37 38  1  1  0  0  0
 37 39  1  0  0  0  0
 39 40  1  0  0  0  0
 39 41  1  6  0  0  0
 41 42  1  0  0  0  0
M  CHG  5   4   1  14   1  17   1  34   1  42   1
M  END
>  <CHROM.1>
-131.40971429,-161.15728489,34.22692574,-171.52516420,57.08818722,-74.36650208
-168.22443732,85.86346610,-64.15335310,-63.51139665,158.14987654,75.30239933
176.20075597,157.54055092,-174.42317700,174.46004491,-64.35196097,168.75787409
63.33502747,63.01075739,-151.07107800,-87.83948814,28.34207258,6.20175886
56.16361554,-2.85955678,0.52988568,-0.24167561

>  <Name>
1j7t

>  <RI>
0

>  <Rbt.Current_Directory>
/home/itssahil/PROJECTS/Mol_Feturizer/New_Systems/rnas/1j7t

>  <Rbt.Executable>
rbdock ($Id: //depot/dev/client3/rdock/2013.1/src/exe/rbdock.cxx#4 $)

>  <Rbt.Library>
libRbt.so (2013.1, Build901 2013/11/27)

>  <Rbt.Parameter_File>
/export/apps/rDock/src/rDock_2013.1_src/data/scripts/dock_solv.prm

>  <Rbt.Receptor>
prm/pocket_docking_4.prm

>  <SCORE>
-39.32

>  <SCORE.INTER>
-25.8789

>  <SCORE.INTER.CONST>
1

>  <SCORE.INTER.POLAR>
-5.63129

>  <SCORE.INTER.ROT>
9

>  <SCORE.INTER.SOLV>
18.2832

>  <SCORE.INTER.VDW>
-14.1761

>  <SCORE.INTER.norm>
-0.616165

>  <SCORE.INTRA>
-13.4909

>  <SCORE.INTRA.DIHEDRAL>
-22.4601

>  <SCORE.INTRA.DIHEDRAL.0>
46.2143

>  <SCORE.INTRA.POLAR>
-0.0671057

>  <SCORE.INTRA.POLAR.0>
-1.76436

>  <SCORE.INTRA.REPUL>
0

>  <SCORE.INTRA.REPUL.0>
0

>  <SCORE.INTRA.SOLV>
-1.37383

>  <SCORE.INTRA.SOLV.lig_0>
-148.643

>  <SCORE.INTRA.VDW>
-1.34573

>  <SCORE.INTRA.VDW.0>
-4.83512

>  <SCORE.INTRA.norm>
-0.321211

>  <SCORE.RESTR>
0.0497659

>  <SCORE.RESTR.CAVITY>
0.0497659

>  <SCORE.RESTR.norm>
0.0011849

>  <SCORE.SYSTEM>
0

>  <SCORE.SYSTEM.CONST>
0

>  <SCORE.SYSTEM.DIHEDRAL>
0

>  <SCORE.SYSTEM.SOLV>
0

>  <SCORE.SYSTEM.norm>
0

>  <SCORE.heavy>
42

>  <SCORE.norm>
-0.936191

>  <RMSD>
9.112

$$$$
1j7t
 OpenBabel11021811393D
libRbt.so/2013.1/901 2013/11/27
 42 45  0  0  0  0  0  0  0  0999 V2000
   26.9383    7.7566   61.1910 C   0  0  2  0  0  0  0  0  0  0  0  0
   27.8771    6.7099   61.5454 O   0  0  0  0  0  0  0  0  0  0  0  0
   26.3031    8.2617   62.5182 C   0  0  2  0  0  0  0  0  0  0  0  0
   27.2890    8.6721   63.5589 N   0  3  0  0  0  0  0  0  0  0  0  0
   25.4421    7.1203   63.1019 C   0  0  1  0  0  0  0  0  0  0  0  0
   24.8297    7.5244   64.2941 O   0  0  0  0  0  0  0  0  0  0  0  0
   24.3812    6.6741   62.0681 C   0  0  2  0  0  0  0  0  0  0  0  0
   23.5672    5.6430   62.5911 O   0  0  0  0  0  0  0  0  0  0  0  0
   25.0648    6.1778   60.8117 C   0  0  2  0  0  0  0  0  0  0  0  0
   25.9170    7.1978   60.3063 O   0  0  0  0  0  0  0  0  0  0  0  0
   24.0933    5.8321   59.7055 C   0  0  0  0  0  0  0  0  0  0  0  0
   24.4639    6.5137   58.5226 O   0  0  0  0  0  0  0  0  0  0  0  0
   31.1035    4.6597   59.7467 C   0  0  2  0  0  0  0  0  0  0  0  0
   31.9187    3.9550   58.7566 N   0  3  0  0  0  0  0  0  0  0  0  0
   29.7996    3.8462   60.0412 C   0  0  0  0  0  0  0  0  0  0  0  0
   28.9153    4.6084   61.0465 C   0  0  2  0  0  0  0  0  0  0  0  0
   27.6634    3.8855   61.2933 N   0  3  0  0  0  0  0  0  0  0  0  0
   28.5959    6.0200   60.5164 C   0  0  2  0  0  0  0  0  0  0  0  0
   29.8629    6.8350   60.1914 C   0  0  2  0  0  0  0  0  0  0  0  0
   29.4056    8.0505   59.5678 O   0  0  0  0  0  0  0  0  0  0  0  0
   30.7755    6.0469   59.2178 C   0  0  1  0  0  0  0  0  0  0  0  0
   31.9632    6.7628   59.0182 O   0  0  0  0  0  0  0  0  0  0  0  0
   29.9215    8.5434   58.3341 C   0  0  1  0  0  0  0  0  0  0  0  0
   28.7381    9.1666   57.5111 C   0  0  2  0  0  0  0  0  0  0  0  0
   28.0516    8.2339   56.6939 O   0  0  0  0  0  0  0  0  0  0  0  0
   29.5302   10.2196   56.7488 C   0  0  2  0  0  0  0  0  0  0  0  0
   30.4247    9.6024   55.7748 O   0  0  0  0  0  0  0  0  0  0  0  0
   30.3936   10.8413   57.8375 C   0  0  2  0  0  0  0  0  0  0  0  0
   30.8155    9.6684   58.5544 O   0  0  0  0  0  0  0  0  0  0  0  0
   29.6577   11.8753   58.7515 C   0  0  0  0  0  0  0  0  0  0  0  0
   30.5458   12.4568   59.7143 O   0  0  0  0  0  0  0  0  0  0  0  0
   29.7903    9.2467   54.5490 C   0  0  2  0  0  0  0  0  0  0  0  0
   29.5192    7.7138   54.3729 C   0  0  2  0  0  0  0  0  0  0  0  0
   30.7634    6.8905   54.4591 N   0  3  0  0  0  0  0  0  0  0  0  0
   28.8040    7.5307   52.9928 C   0  0  1  0  0  0  0  0  0  0  0  0
   27.5098    8.2420   53.0732 O   0  0  0  0  0  0  0  0  0  0  0  0
   29.6381    8.1303   51.7945 C   0  0  2  0  0  0  0  0  0  0  0  0
   30.8699    7.3988   51.6839 O   0  0  0  0  0  0  0  0  0  0  0  0
   29.8916    9.6668   52.0898 C   0  0  1  0  0  0  0  0  0  0  0  0
   30.5758    9.7617   53.3845 O   0  0  0  0  0  0  0  0  0  0  0  0
   30.7171   10.4004   51.0084 C   0  0  0  0  0  0  0  0  0  0  0  0
   32.1544   10.5526   51.3630 N   0  3  0  0  0  0  0  0  0  0  0  0
  1  2  1  1  0  0  0
  1  3  1  0  0  0  0
  1 10  1  0  0  0  0
  3  4  1  1  0  0  0
  3  5  1  0  0  0  0
  5  6  1  1  0  0  0
  5  7  1  0  0  0  0
  7  8  1  1  0  0  0
  7  9  1  0  0  0  0
  9 10  1  0  0  0  0
  9 11  1  6  0  0  0
 11 12  1  0  0  0  0
 13 14  1  6  0  0  0
 13 15  1  0  0  0  0
 13 21  1  0  0  0  0
 15 16  1  0  0  0  0
 16 17  1  6  0  0  0
 16 18  1  0  0  0  0
 18  2  1  1  0  0  0
 18 19  1  0  0  0  0
 19 20  1  6  0  0  0
 19 21  1  0  0  0  0
 21 22  1  1  0  0  0
 23 20  1  1  0  0  0
 23 24  1  0  0  0  0
 23 29  1  0  0  0  0
 24 25  1  6  0  0  0
 24 26  1  0  0  0  0
 26 27  1  6  0  0  0
 26 28  1  0  0  0  0
 28 29  1  0  0  0  0
 28 30  1  1  0  0  0
 30 31  1  0  0  0  0
 32 27  1  1  0  0  0
 32 33  1  0  0  0  0
 32 40  1  0  0  0  0
 33 34  1  6  0  0  0
 33 35  1  0  0  0  0
 35 36  1  1  0  0  0
 35 37  1  0  0  0  0
 37 38  1  1  0  0  0
 37 39  1  0  0  0  0
 39 40  1  0  0  0  0
 39 41  1  6  0  0  0
 41 42  1  0  0  0  0
M  CHG  5   4   1  14   1  17   1  34   1  42   1
M  END
>  <CHROM.1>
178.20492446,-151.97921734,-173.70294528,-63.84050107,-66.98413844,127.13626087
-164.80196046,-78.06812286,85.68710692,-129.55694336,142.26578211,-67.21637154
166.07705522,81.89090176,-104.85851098,-177.61036293,44.02072748,-69.63134400
-62.39096828,159.41501839,-99.16106335,-179.26204077,28.68879526,7.73229445
58.09914042,2.69560937,-1.09339313,2.93666439

>  <Name>
1j7t

>  <RI>
0

>  <Rbt.Current_Directory>
/home/itssahil/PROJECTS/Mol_Feturizer/New_Systems/rnas/1j7t

>  <Rbt.Executable>
rbdock ($Id: //depot/dev/client3/rdock/2013.1/src/exe/rbdock.cxx#4 $)

>  <Rbt.Library>
libRbt.so (2013.1, Build901 2013/11/27)

>  <Rbt.Parameter_File>
/export/apps/rDock/src/rDock_2013.1_src/data/scripts/dock_solv.prm

>  <Rbt.Receptor>
prm/pocket_docking_8.prm

>  <SCORE>
-35.288

>  <SCORE.INTER>
-36.3631

>  <SCORE.INTER.CONST>
1

>  <SCORE.INTER.POLAR>
-5.57448

>  <SCORE.INTER.ROT>
9

>  <SCORE.INTER.SOLV>
21.0498

>  <SCORE.INTER.VDW>
-22.2771

>  <SCORE.INTER.norm>
-0.865787

>  <SCORE.INTRA>
1.07508

>  <SCORE.INTRA.DIHEDRAL>
-5.58335

>  <SCORE.INTRA.DIHEDRAL.0>
46.2143

>  <SCORE.INTRA.POLAR>
0.965665

>  <SCORE.INTRA.POLAR.0>
-1.76436

>  <SCORE.INTRA.REPUL>
0

>  <SCORE.INTRA.REPUL.0>
0

>  <SCORE.INTRA.SOLV>
-2.40156

>  <SCORE.INTRA.SOLV.lig_0>
-148.643

>  <SCORE.INTRA.VDW>
1.78428

>  <SCORE.INTRA.VDW.0>
-4.83512

>  <SCORE.INTRA.norm>
0.0255972

>  <SCORE.RESTR>
0

>  <SCORE.RESTR.CAVITY>
0

>  <SCORE.RESTR.norm>
0

>  <SCORE.SYSTEM>
0

>  <SCORE.SYSTEM.CONST>
0

>  <SCORE.SYSTEM.DIHEDRAL>
0

>  <SCORE.SYSTEM.SOLV>
0

>  <SCORE.SYSTEM.norm>
0

>  <SCORE.heavy>
42

>  <SCORE.norm>
-0.84019

>  <RMSD>
9.132

$$$$
1j7t
 OpenBabel11021811393D
libRbt.so/2013.1/901 2013/11/27
 42 45  0  0  0  0  0  0  0  0999 V2000
   28.1092    9.5268   59.8325 C   0  0  2  0  0  0  0  0  0  0  0  0
   28.1257    8.4932   60.8493 O   0  0  0  0  0  0  0  0  0  0  0  0
   28.9372   10.7206   60.3886 C   0  0  2  0  0  0  0  0  0  0  0  0
   30.3083   10.3603   60.8509 N   0  3  0  0  0  0  0  0  0  0  0  0
   28.1711   11.3163   61.5899 C   0  0  1  0  0  0  0  0  0  0  0  0
   28.8637   12.4093   62.1238 O   0  0  0  0  0  0  0  0  0  0  0  0
   26.7457   11.7332   61.1562 C   0  0  2  0  0  0  0  0  0  0  0  0
   26.0337   12.3016   62.2374 O   0  0  0  0  0  0  0  0  0  0  0  0
   25.9902   10.5251   60.6445 C   0  0  2  0  0  0  0  0  0  0  0  0
   26.7246    9.9260   59.5845 O   0  0  0  0  0  0  0  0  0  0  0  0
   24.6260   10.8701   60.0906 C   0  0  0  0  0  0  0  0  0  0  0  0
   24.7738   11.5062   58.8357 O   0  0  0  0  0  0  0  0  0  0  0  0
   27.7215    4.2945   60.6136 C   0  0  2  0  0  0  0  0  0  0  0  0
   27.1505    2.9680   60.3773 N   0  3  0  0  0  0  0  0  0  0  0  0
   26.8963    5.0430   61.7123 C   0  0  0  0  0  0  0  0  0  0  0  0
   27.4645    6.4585   61.9292 C   0  0  2  0  0  0  0  0  0  0  0  0
   26.6695    7.1943   62.9179 N   0  3  0  0  0  0  0  0  0  0  0  0
   27.4796    7.2393   60.6004 C   0  0  2  0  0  0  0  0  0  0  0  0
   28.2631    6.5113   59.4907 C   0  0  2  0  0  0  0  0  0  0  0  0
   28.0546    7.2767   58.2882 O   0  0  0  0  0  0  0  0  0  0  0  0
   27.7229    5.0706   59.3062 C   0  0  1  0  0  0  0  0  0  0  0  0
   28.5147    4.3985   58.3657 O   0  0  0  0  0  0  0  0  0  0  0  0
   29.0898    7.5702   57.3536 C   0  0  1  0  0  0  0  0  0  0  0  0
   28.4349    8.1405   56.0452 C   0  0  2  0  0  0  0  0  0  0  0  0
   28.0593    7.1450   55.1087 O   0  0  0  0  0  0  0  0  0  0  0  0
   29.5811    9.0365   55.5973 C   0  0  2  0  0  0  0  0  0  0  0  0
   30.7301    8.2459   55.1679 O   0  0  0  0  0  0  0  0  0  0  0  0
   29.9690    9.7511   56.8842 C   0  0  2  0  0  0  0  0  0  0  0  0
   29.9233    8.6642   57.8245 O   0  0  0  0  0  0  0  0  0  0  0  0
   29.0326   10.9372   57.2868 C   0  0  0  0  0  0  0  0  0  0  0  0
   27.7538   10.8427   56.6467 O   0  0  0  0  0  0  0  0  0  0  0  0
   30.8362    8.0978   53.7543 C   0  0  2  0  0  0  0  0  0  0  0  0
   31.8287    6.9799   53.2858 C   0  0  2  0  0  0  0  0  0  0  0  0
   33.2187    7.1873   53.7943 N   0  3  0  0  0  0  0  0  0  0  0  0
   31.7872    6.9567   51.7214 C   0  0  1  0  0  0  0  0  0  0  0  0
   30.4136    6.5768   51.3260 O   0  0  0  0  0  0  0  0  0  0  0  0
   32.1274    8.3608   51.0858 C   0  0  2  0  0  0  0  0  0  0  0  0
   33.4820    8.6998   51.4248 O   0  0  0  0  0  0  0  0  0  0  0  0
   31.0964    9.4223   51.6537 C   0  0  1  0  0  0  0  0  0  0  0  0
   31.2006    9.4015   53.1173 O   0  0  0  0  0  0  0  0  0  0  0  0
   31.3082   10.8632   51.1360 C   0  0  0  0  0  0  0  0  0  0  0  0
   32.2820   10.9518   50.0142 N   0  3  0  0  0  0  0  0  0  0  0  0
  1  2  1  1  0  0  0
  1  3  1  0  0  0  0
  1 10  1  0  0  0  0
  3  4  1  1  0  0  0
  3  5  1  0  0  0  0
  5  6  1  6  0  0  0
  5  7  1  0  0  0  0
  7  8  1  1  0  0  0
  7  9  1  0  0  0  0
  9 10  1  0  0  0  0
  9 11  1  6  0  0  0
 11 12  1  0  0  0  0
 13 14  1  6  0  0  0
 13 15  1  0  0  0  0
 13 21  1  0  0  0  0
 15 16  1  0  0  0  0
 16 17  1  1  0  0  0
 16 18  1  0  0  0  0
 18  2  1  1  0  0  0
 18 19  1  0  0  0  0
 19 20  1  6  0  0  0
 19 21  1  0  0  0  0
 21 22  1  6  0  0  0
 23 20  1  1  0  0  0
 23 24  1  0  0  0  0
 23 29  1  0  0  0  0
 24 25  1  6  0  0  0
 24 26  1  0  0  0  0
 26 27  1  1  0  0  0
 26 28  1  0  0  0  0
 28 29  1  0  0  0  0
 28 30  1  1  0  0  0
 30 31  1  0  0  0  0
 32 27  1  1  0  0  0
 32 33  1  0  0  0  0
 32 40  1  0  0  0  0
 33 34  1  6  0  0  0
 33 35  1  0  0  0  0
 35 36  1  1  0  0  0
 35 37  1  0  0  0  0
 37 38  1  1  0  0  0
 37 39  1  0  0  0  0
 39 40  1  0  0  0  0
 39 41  1  6  0  0  0
 41 42  1  0  0  0  0
M  CHG  5   4   1  14   1  17   1  34   1  42   1
M  END
>  <CHROM.1>
-177.72763509,-170.71089208,85.44793563,-73.47221954,177.88208314,73.81808286
-60.98005112,77.47831864,88.82401126,137.56907466,167.93524934,-177.31408350
-172.39078122,99.45806041,-165.47561660,20.12961421,-68.02261006,-152.10043232
-173.95870133,62.77578757,10.41008015,-53.27579902,28.95211263,8.58739264
57.40898372,3.08211412,-1.10000109,3.04462826

>  <Name>
1j7t

>  <RI>
224

>  <Rbt.Current_Directory>
/home/itssahil/PROJECTS/Mol_Feturizer/New_Systems/rnas/1j7t

>  <Rbt.Executable>
rbdock ($Id: //depot/dev/client3/rdock/2013.1/src/exe/rbdock.cxx#4 $)

>  <Rbt.Library>
libRbt.so (2013.1, Build901 2013/11/27)

>  <Rbt.Parameter_File>
/export/apps/rDock/src/rDock_2013.1_src/data/scripts/dock_solv.prm

>  <Rbt.Receptor>
prm/pocket_docking_7.prm

>  <SCORE>
-43.8558

>  <SCORE.INTER>
-40.5249

>  <SCORE.INTER.CONST>
1

>  <SCORE.INTER.POLAR>
-6.79758

>  <SCORE.INTER.ROT>
9

>  <SCORE.INTER.SOLV>
21.4767

>  <SCORE.INTER.VDW>
-21.1169

>  <SCORE.INTER.norm>
-0.964879

>  <SCORE.INTRA>
-3.33221

>  <SCORE.INTRA.DIHEDRAL>
-15.9641

>  <SCORE.INTRA.DIHEDRAL.0>
46.2143

>  <SCORE.INTRA.POLAR>
1.2333

>  <SCORE.INTRA.POLAR.0>
-1.76436

>  <SCORE.INTRA.REPUL>
0.0531798

>  <SCORE.INTRA.REPUL.0>
0

>  <SCORE.INTRA.SOLV>
-1.34106

>  <SCORE.INTRA.SOLV.lig_0>
-148.643

>  <SCORE.INTRA.VDW>
0.861233

>  <SCORE.INTRA.VDW.0>
-4.83512

>  <SCORE.INTRA.norm>
-0.0793383

>  <SCORE.RESTR>
0.00135384

>  <SCORE.RESTR.CAVITY>
0.00135384

>  <SCORE.RESTR.norm>
3.22342e-05

>  <SCORE.SYSTEM>
0

>  <SCORE.SYSTEM.CONST>
0

>  <SCORE.SYSTEM.DIHEDRAL>
0

>  <SCORE.SYSTEM.SOLV>
0

>  <SCORE.SYSTEM.norm>
0

>  <SCORE.heavy>
42

>  <SCORE.norm>
-1.04418

>  <RMSD>
9.199

$$$$
1j7t
 OpenBabel11021811393D
libRbt.so/2013.1/901 2013/11/27
 42 45  0  0  0  0  0  0  0  0999 V2000
   29.1611    4.3870   60.7683 C   0  0  2  0  0  0  0  0  0  0  0  0
   28.8225    5.7955   60.7050 O   0  0  0  0  0  0  0  0  0  0  0  0
   30.6767    4.2715   60.4369 C   0  0  2  0  0  0  0  0  0  0  0  0
   31.5600    5.1354   61.2718 N   0  3  0  0  0  0  0  0  0  0  0  0
   30.8758    4.6742   58.9594 C   0  0  1  0  0  0  0  0  0  0  0  0
   32.2245    4.5737   58.5981 O   0  0  0  0  0  0  0  0  0  0  0  0
   29.9988    3.7866   58.0448 C   0  0  2  0  0  0  0  0  0  0  0  0
   30.1825    4.1249   56.6843 O   0  0  0  0  0  0  0  0  0  0  0  0
   28.5390    3.9603   58.4067 C   0  0  2  0  0  0  0  0  0  0  0  0
   28.3579    3.6616   59.7851 O   0  0  0  0  0  0  0  0  0  0  0  0
   27.6232    3.0365   57.6353 C   0  0  0  0  0  0  0  0  0  0  0  0
   27.4240    1.8462   58.3733 O   0  0  0  0  0  0  0  0  0  0  0  0
   24.6918    5.6219   59.8359 C   0  0  2  0  0  0  0  0  0  0  0  0
   23.2688    5.9602   59.7943 N   0  3  0  0  0  0  0  0  0  0  0  0
   25.1349    5.3583   61.3133 C   0  0  0  0  0  0  0  0  0  0  0  0
   26.6434    5.0496   61.3669 C   0  0  2  0  0  0  0  0  0  0  0  0
   27.0870    4.8526   62.7509 N   0  3  0  0  0  0  0  0  0  0  0  0
   27.4485    6.1991   60.7296 C   0  0  2  0  0  0  0  0  0  0  0  0
   27.0139    6.4993   59.2818 C   0  0  2  0  0  0  0  0  0  0  0  0
   27.7364    7.6811   58.8859 O   0  0  0  0  0  0  0  0  0  0  0  0
   25.4878    6.7620   59.2209 C   0  0  1  0  0  0  0  0  0  0  0  0
   25.1025    6.9320   57.8846 O   0  0  0  0  0  0  0  0  0  0  0  0
   28.1930    7.9150   57.5563 C   0  0  1  0  0  0  0  0  0  0  0  0
   27.6736    9.3216   57.0898 C   0  0  2  0  0  0  0  0  0  0  0  0
   26.3866    9.2920   56.4966 O   0  0  0  0  0  0  0  0  0  0  0  0
   28.8071    9.6698   56.1353 C   0  0  2  0  0  0  0  0  0  0  0  0
   28.7825    8.8130   54.9542 O   0  0  0  0  0  0  0  0  0  0  0  0
   30.0462    9.3069   56.9416 C   0  0  2  0  0  0  0  0  0  0  0  0
   29.6396    8.0538   57.5179 O   0  0  0  0  0  0  0  0  0  0  0  0
   30.4621   10.3605   58.0199 C   0  0  0  0  0  0  0  0  0  0  0  0
   30.5088   11.6853   57.4751 O   0  0  0  0  0  0  0  0  0  0  0  0
   29.8737    9.0241   54.0620 C   0  0  2  0  0  0  0  0  0  0  0  0
   29.4716    9.1423   52.5524 C   0  0  2  0  0  0  0  0  0  0  0  0
   28.7420    7.9387   52.0500 N   0  3  0  0  0  0  0  0  0  0  0  0
   30.7892    9.3931   51.7457 C   0  0  1  0  0  0  0  0  0  0  0  0
   31.3399   10.6886   52.1996 O   0  0  0  0  0  0  0  0  0  0  0  0
   31.8710    8.2697   51.9886 C   0  0  2  0  0  0  0  0  0  0  0  0
   31.3544    7.0234   51.4941 O   0  0  0  0  0  0  0  0  0  0  0  0
   32.1745    8.2047   53.5428 C   0  0  1  0  0  0  0  0  0  0  0  0
   30.9037    7.9524   54.2319 O   0  0  0  0  0  0  0  0  0  0  0  0
   33.2106    7.1325   53.9500 C   0  0  0  0  0  0  0  0  0  0  0  0
   32.9916    5.8170   53.2898 N   0  3  0  0  0  0  0  0  0  0  0  0
  1  2  1  6  0  0  0
  1  3  1  0  0  0  0
  1 10  1  0  0  0  0
  3  4  1  1  0  0  0
  3  5  1  0  0  0  0
  5  6  1  6  0  0  0
  5  7  1  0  0  0  0
  7  8  1  6  0  0  0
  7  9  1  0  0  0  0
  9 10  1  0  0  0  0
  9 11  1  6  0  0  0
 11 12  1  0  0  0  0
 13 14  1  1  0  0  0
 13 15  1  0  0  0  0
 13 21  1  0  0  0  0
 15 16  1  0  0  0  0
 16 17  1  1  0  0  0
 16 18  1  0  0  0  0
 18  2  1  6  0  0  0
 18 19  1  0  0  0  0
 19 20  1  1  0  0  0
 19 21  1  0  0  0  0
 21 22  1  6  0  0  0
 23 20  1  1  0  0  0
 23 24  1  0  0  0  0
 23 29  1  0  0  0  0
 24 25  1  6  0  0  0
 24 26  1  0  0  0  0
 26 27  1  6  0  0  0
 26 28  1  0  0  0  0
 28 29  1  0  0  0  0
 28 30  1  1  0  0  0
 30 31  1  0  0  0  0
 32 27  1  1  0  0  0
 32 33  1  0  0  0  0
 32 40  1  0  0  0  0
 33 34  1  6  0  0  0
 33 35  1  0  0  0  0
 35 36  1  1  0  0  0
 35 37  1  0  0  0  0
 37 38  1  1  0  0  0
 37 39  1  0  0  0  0
 39 40  1  0  0  0  0
 39 41  1  6  0  0  0
 41 42  1  0  0  0  0
M  CHG  5   4   1  14   1  17   1  34   1  42   1
M  END
>  <CHROM.1>
168.91193692,21.88726682,156.69490538,-62.50086873,177.46496426,92.20840304
-41.06886272,-64.75696419,78.58444123,146.13586011,126.92096087,171.81575330
-169.52589940,-175.86430834,-133.36526789,-49.20439339,70.51165557,-65.49901794
-61.03030237,72.52867147,-44.81442857,-110.55378395,29.01325566,6.78057235
57.21602657,-2.10028690,0.56815781,-0.78409856

>  <Name>
1j7t

>  <RI>
0

>  <Rbt.Current_Directory>
/home/itssahil/PROJECTS/Mol_Feturizer/New_Systems/rnas/1j7t

>  <Rbt.Executable>
rbdock ($Id: //depot/dev/client3/rdock/2013.1/src/exe/rbdock.cxx#4 $)

>  <Rbt.Library>
libRbt.so (2013.1, Build901 2013/11/27)

>  <Rbt.Parameter_File>
/export/apps/rDock/src/rDock_2013.1_src/data/scripts/dock_solv.prm

>  <Rbt.Receptor>
prm/pocket_docking_5.prm

>  <SCORE>
-47.4059

>  <SCORE.INTER>
-41.7431

>  <SCORE.INTER.CONST>
1

>  <SCORE.INTER.POLAR>
-5.86217

>  <SCORE.INTER.ROT>
9

>  <SCORE.INTER.SOLV>
25.0039

>  <SCORE.INTER.VDW>
-26.2228

>  <SCORE.INTER.norm>
-0.993883

>  <SCORE.INTRA>
-5.66281

>  <SCORE.INTRA.DIHEDRAL>
-9.06863

>  <SCORE.INTRA.DIHEDRAL.0>
46.2143

>  <SCORE.INTRA.POLAR>
-0.899704

>  <SCORE.INTRA.POLAR.0>
-1.76436

>  <SCORE.INTRA.REPUL>
0.00524075

>  <SCORE.INTRA.REPUL.0>
0

>  <SCORE.INTRA.SOLV>
-1.75273

>  <SCORE.INTRA.SOLV.lig_0>
-148.643

>  <SCORE.INTRA.VDW>
2.78066

>  <SCORE.INTRA.VDW.0>
-4.83512

>  <SCORE.INTRA.norm>
-0.134829

>  <SCORE.RESTR>
0

>  <SCORE.RESTR.CAVITY>
0

>  <SCORE.RESTR.norm>
0

>  <SCORE.SYSTEM>
0

>  <SCORE.SYSTEM.CONST>
0

>  <SCORE.SYSTEM.DIHEDRAL>
0

>  <SCORE.SYSTEM.SOLV>
0

>  <SCORE.SYSTEM.norm>
0

>  <SCORE.heavy>
42

>  <SCORE.norm>
-1.12871

>  <RMSD>
9.201

$$$$
1j7t
 OpenBabel11021811393D
libRbt.so/2013.1/901 2013/11/27
 42 45  0  0  0  0  0  0  0  0999 V2000
   27.3998    6.5113   60.8939 C   0  0  2  0  0  0  0  0  0  0  0  0
   28.0055    7.1644   59.7498 O   0  0  0  0  0  0  0  0  0  0  0  0
   27.6831    4.9887   60.7470 C   0  0  2  0  0  0  0  0  0  0  0  0
   29.1208    4.6428   60.5547 N   0  3  0  0  0  0  0  0  0  0  0  0
   26.9009    4.4722   59.5197 C   0  0  1  0  0  0  0  0  0  0  0  0
   27.1056    3.0983   59.3466 O   0  0  0  0  0  0  0  0  0  0  0  0
   25.3940    4.7828   59.6818 C   0  0  2  0  0  0  0  0  0  0  0  0
   24.6559    4.2987   58.5773 O   0  0  0  0  0  0  0  0  0  0  0  0
   25.1872    6.2779   59.8001 C   0  0  2  0  0  0  0  0  0  0  0  0
   25.9616    6.7751   60.8841 O   0  0  0  0  0  0  0  0  0  0  0  0
   23.7502    6.6572   60.0793 C   0  0  0  0  0  0  0  0  0  0  0  0
   23.5588    8.0277   59.7855 O   0  0  0  0  0  0  0  0  0  0  0  0
   29.6865   11.0239   59.3938 C   0  0  2  0  0  0  0  0  0  0  0  0
   30.6057   12.1538   59.5346 N   0  3  0  0  0  0  0  0  0  0  0  0
   29.1538   10.5906   60.7998 C   0  0  0  0  0  0  0  0  0  0  0  0
   28.2238    9.3701   60.6609 C   0  0  2  0  0  0  0  0  0  0  0  0
   27.7574    8.9170   61.9755 N   0  3  0  0  0  0  0  0  0  0  0  0
   28.9576    8.2152   59.9515 C   0  0  2  0  0  0  0  0  0  0  0  0
   29.5175    8.6220   58.5745 C   0  0  2  0  0  0  0  0  0  0  0  0
   30.2988    7.5020   58.1156 O   0  0  0  0  0  0  0  0  0  0  0  0
   30.4144    9.8789   58.7075 C   0  0  1  0  0  0  0  0  0  0  0  0
   30.8280   10.2868   57.4325 O   0  0  0  0  0  0  0  0  0  0  0  0
   30.5854    7.2536   56.7418 C   0  0  1  0  0  0  0  0  0  0  0  0
   31.5239    5.9981   56.6462 C   0  0  2  0  0  0  0  0  0  0  0  0
   32.9049    6.3038   56.7376 O   0  0  0  0  0  0  0  0  0  0  0  0
   31.0729    5.4889   55.2844 C   0  0  2  0  0  0  0  0  0  0  0  0
   31.4917    6.3940   54.2190 O   0  0  0  0  0  0  0  0  0  0  0  0
   29.5559    5.5662   55.3844 C   0  0  2  0  0  0  0  0  0  0  0  0
   29.3892    6.8427   56.0251 O   0  0  0  0  0  0  0  0  0  0  0  0
   28.8882    4.3986   56.1823 C   0  0  0  0  0  0  0  0  0  0  0  0
   29.2736    4.4126   57.5626 O   0  0  0  0  0  0  0  0  0  0  0  0
   32.7902    6.1176   53.7004 C   0  0  2  0  0  0  0  0  0  0  0  0
   33.3922    7.2522   52.8035 C   0  0  2  0  0  0  0  0  0  0  0  0
   32.5296    7.5827   51.6286 N   0  3  0  0  0  0  0  0  0  0  0  0
   34.8144    6.7763   52.3558 C   0  0  1  0  0  0  0  0  0  0  0  0
   35.6358    6.6429   53.5785 O   0  0  0  0  0  0  0  0  0  0  0  0
   34.7810    5.3838   51.6135 C   0  0  2  0  0  0  0  0  0  0  0  0
   34.0299    5.5321   50.3975 O   0  0  0  0  0  0  0  0  0  0  0  0
   34.1200    4.3216   52.5865 C   0  0  1  0  0  0  0  0  0  0  0  0
   32.7898    4.8227   52.9510 O   0  0  0  0  0  0  0  0  0  0  0  0
   33.9975    2.8987   51.9954 C   0  0  0  0  0  0  0  0  0  0  0  0
   33.4641    1.9004   52.9616 N   0  3  0  0  0  0  0  0  0  0  0  0
  1  2  1  6  0  0  0
  1  3  1  0  0  0  0
  1 10  1  0  0  0  0
  3  4  1  6  0  0  0
  3  5  1  0  0  0  0
  5  6  1  1  0  0  0
  5  7  1  0  0  0  0
  7  8  1  6  0  0  0
  7  9  1  0  0  0  0
  9 10  1  0  0  0  0
  9 11  1  1  0  0  0
 11 12  1  0  0  0  0
 13 14  1  1  0  0  0
 13 15  1  0  0  0  0
 13 21  1  0  0  0  0
 15 16  1  0  0  0  0
 16 17  1  1  0  0  0
 16 18  1  0  0  0  0
 18  2  1  6  0  0  0
 18 19  1  0  0  0  0
 19 20  1  1  0  0  0
 19 21  1  0  0  0  0
 21 22  1  6  0  0  0
 23 20  1  1  0  0  0
 23 24  1  0  0  0  0
 23 29  1  0  0  0  0
 24 25  1  6  0  0  0
 24 26  1  0  0  0  0
 26 27  1  6  0  0  0
 26 28  1  0  0  0  0
 28 29  1  0  0  0  0
 28 30  1  1  0  0  0
 30 31  1  0  0  0  0
 32 27  1  6  0  0  0
 32 33  1  0  0  0  0
 32 40  1  0  0  0  0
 33 34  1  6  0  0  0
 33 35  1  0  0  0  0
 35 36  1  1  0  0  0
 35 37  1  0  0  0  0
 37 38  1  6  0  0  0
 37 39  1  0  0  0  0
 39 40  1  0  0  0  0
 39 41  1  6  0  0  0
 41 42  1  0  0  0  0
M  CHG  5   4   1  14   1  17   1  34   1  42   1
M  END
>  <CHROM.1>
-124.13808342,-63.26550390,171.01198937,65.50845739,176.60776147,-162.74420287
176.37510111,-178.11545429,154.39375938,156.63078052,176.79786524,-63.98679273
-174.65957014,88.23829231,-166.63736682,64.73866147,171.93887789,45.59066107
-57.54727470,76.03325957,175.87931432,66.33063411,29.93031694,6.56118539
57.04235256,2.62047585,0.69276619,0.50545812

>  <Name>
1j7t

>  <RI>
0

>  <Rbt.Current_Directory>
/home/itssahil/PROJECTS/Mol_Feturizer/New_Systems/rnas/1j7t

>  <Rbt.Executable>
rbdock ($Id: //depot/dev/client3/rdock/2013.1/src/exe/rbdock.cxx#4 $)

>  <Rbt.Library>
libRbt.so (2013.1, Build901 2013/11/27)

>  <Rbt.Parameter_File>
/export/apps/rDock/src/rDock_2013.1_src/data/scripts/dock_solv.prm

>  <Rbt.Receptor>
prm/pocket_docking_5.prm

>  <SCORE>
-42.7289

>  <SCORE.INTER>
-24.4081

>  <SCORE.INTER.CONST>
1

>  <SCORE.INTER.POLAR>
-4.18284

>  <SCORE.INTER.ROT>
9

>  <SCORE.INTER.SOLV>
16.1424

>  <SCORE.INTER.VDW>
-17.3101

>  <SCORE.INTER.norm>
-0.581145

>  <SCORE.INTRA>
-19.0563

>  <SCORE.INTRA.DIHEDRAL>
-26.602

>  <SCORE.INTRA.DIHEDRAL.0>
46.2143

>  <SCORE.INTRA.POLAR>
-1.82312

>  <SCORE.INTRA.POLAR.0>
-1.76436

>  <SCORE.INTRA.REPUL>
0

>  <SCORE.INTRA.REPUL.0>
0

>  <SCORE.INTRA.SOLV>
-0.377315

>  <SCORE.INTRA.SOLV.lig_0>
-148.643

>  <SCORE.INTRA.VDW>
0.631982

>  <SCORE.INTRA.VDW.0>
-4.83512

>  <SCORE.INTRA.norm>
-0.453721

>  <SCORE.RESTR>
0.73543

>  <SCORE.RESTR.CAVITY>
0.73543

>  <SCORE.RESTR.norm>
0.0175102

>  <SCORE.SYSTEM>
0

>  <SCORE.SYSTEM.CONST>
0

>  <SCORE.SYSTEM.DIHEDRAL>
0

>  <SCORE.SYSTEM.SOLV>
0

>  <SCORE.SYSTEM.norm>
0

>  <SCORE.heavy>
42

>  <SCORE.norm>
-1.01736

>  <RMSD>
9.219

$$$$
1j7t
 OpenBabel11021811393D
libRbt.so/2013.1/901 2013/11/27
 42 45  0  0  0  0  0  0  0  0999 V2000
   25.2111    6.1708   60.4083 C   0  0  2  0  0  0  0  0  0  0  0  0
   26.0883    7.2132   59.9120 O   0  0  0  0  0  0  0  0  0  0  0  0
   25.3430    6.1696   61.9584 C   0  0  2  0  0  0  0  0  0  0  0  0
   25.1150    7.4965   62.5995 N   0  3  0  0  0  0  0  0  0  0  0  0
   26.7720    5.7069   62.3170 C   0  0  1  0  0  0  0  0  0  0  0  0
   26.9449    5.6706   63.7057 O   0  0  0  0  0  0  0  0  0  0  0  0
   27.0512    4.3175   61.6964 C   0  0  2  0  0  0  0  0  0  0  0  0
   28.3484    3.8652   62.0310 O   0  0  0  0  0  0  0  0  0  0  0  0
   26.9251    4.3930   60.1896 C   0  0  2  0  0  0  0  0  0  0  0  0
   25.6360    4.8878   59.8501 O   0  0  0  0  0  0  0  0  0  0  0  0
   27.0684    3.0473   59.5147 C   0  0  0  0  0  0  0  0  0  0  0  0
   26.1844    2.1215   60.1170 O   0  0  0  0  0  0  0  0  0  0  0  0
   25.6208    6.4247   55.7879 C   0  0  2  0  0  0  0  0  0  0  0  0
   25.6930    6.5646   54.3331 N   0  3  0  0  0  0  0  0  0  0  0  0
   24.8015    7.6099   56.3982 C   0  0  0  0  0  0  0  0  0  0  0  0
   24.7645    7.4929   57.9340 C   0  0  2  0  0  0  0  0  0  0  0  0
   24.0456    8.6257   58.5266 N   0  3  0  0  0  0  0  0  0  0  0  0
   26.1964    7.4411   58.5021 C   0  0  2  0  0  0  0  0  0  0  0  0
   27.0359    6.2988   57.8975 C   0  0  2  0  0  0  0  0  0  0  0  0
   28.3735    6.4777   58.4017 O   0  0  0  0  0  0  0  0  0  0  0  0
   27.0329    6.3885   56.3503 C   0  0  1  0  0  0  0  0  0  0  0  0
   27.7166    5.2849   55.8235 O   0  0  0  0  0  0  0  0  0  0  0  0
   29.5151    6.6361   57.5634 C   0  0  1  0  0  0  0  0  0  0  0  0
   30.7503    6.9960   58.4638 C   0  0  2  0  0  0  0  0  0  0  0  0
   30.9031    8.3848   58.7026 O   0  0  0  0  0  0  0  0  0  0  0  0
   31.8402    6.3741   57.6021 C   0  0  2  0  0  0  0  0  0  0  0  0
   32.0130    7.1147   56.3566 O   0  0  0  0  0  0  0  0  0  0  0  0
   31.2533    5.0140   57.2514 C   0  0  2  0  0  0  0  0  0  0  0  0
   29.8932    5.3724   56.9522 O   0  0  0  0  0  0  0  0  0  0  0  0
   31.3594    3.9394   58.3827 C   0  0  0  0  0  0  0  0  0  0  0  0
   30.1292    3.8095   59.1063 O   0  0  0  0  0  0  0  0  0  0  0  0
   32.4434    6.3123   55.2600 C   0  0  2  0  0  0  0  0  0  0  0  0
   33.1546    7.1031   54.1097 C   0  0  2  0  0  0  0  0  0  0  0  0
   32.2984    8.1834   53.5323 N   0  3  0  0  0  0  0  0  0  0  0  0
   33.5690    6.0562   53.0224 C   0  0  1  0  0  0  0  0  0  0  0  0
   34.5443    5.1377   53.6491 O   0  0  0  0  0  0  0  0  0  0  0  0
   32.3435    5.2120   52.4966 C   0  0  2  0  0  0  0  0  0  0  0  0
   31.4256    6.1002   51.8382 O   0  0  0  0  0  0  0  0  0  0  0  0
   31.6734    4.4890   53.7377 C   0  0  1  0  0  0  0  0  0  0  0  0
   31.2975    5.5268   54.7047 O   0  0  0  0  0  0  0  0  0  0  0  0
   30.4377    3.6286   53.3889 C   0  0  0  0  0  0  0  0  0  0  0  0
   29.5250    3.4083   54.5435 N   0  3  0  0  0  0  0  0  0  0  0  0
  1  2  1  6  0  0  0
  1  3  1  0  0  0  0
  1 10  1  0  0  0  0
  3  4  1  6  0  0  0
  3  5  1  0  0  0  0
  5  6  1  1  0  0  0
  5  7  1  0  0  0  0
  7  8  1  6  0  0  0
  7  9  1  0  0  0  0
  9 10  1  0  0  0  0
  9 11  1  6  0  0  0
 11 12  1  0  0  0  0
 13 14  1  6  0  0  0
 13 15  1  0  0  0  0
 13 21  1  0  0  0  0
 15 16  1  0  0  0  0
 16 17  1  1  0  0  0
 16 18  1  0  0  0  0
 18  2  1  1  0  0  0
 18 19  1  0  0  0  0
 19 20  1  1  0  0  0
 19 21  1  0  0  0  0
 21 22  1  6  0  0  0
 23 20  1  1  0  0  0
 23 24  1  0  0  0  0
 23 29  1  0  0  0  0
 24 25  1  6  0  0  0
 24 26  1  0  0  0  0
 26 27  1  6  0  0  0
 26 28  1  0  0  0  0
 28 29  1  0  0  0  0
 28 30  1  1  0  0  0
 30 31  1  0  0  0  0
 32 27  1  1  0  0  0
 32 33  1  0  0  0  0
 32 40  1  0  0  0  0
 33 34  1  6  0  0  0
 33 35  1  0  0  0  0
 35 36  1  1  0  0  0
 35 37  1  0  0  0  0
 37 38  1  1  0  0  0
 37 39  1  0  0  0  0
 39 40  1  0  0  0  0
 39 41  1  6  0  0  0
 41 42  1  0  0  0  0
M  CHG  5   4   1  14   1  17   1  34   1  42   1
M  END
>  <CHROM.1>
179.03727273,47.47782782,-59.23799062,67.62345137,68.83512568,51.92588698
-69.62688087,-172.53629158,-59.00647751,-122.62923195,172.47325027,64.80342617
63.58563179,-149.61845658,-157.47048459,99.56630983,174.75875135,-65.66814603
60.54822933,71.08402472,-157.15615934,153.21264655,28.75895863,5.81536173
57.51089518,2.35163434,-0.31578834,1.86583552

>  <Name>
1j7t

>  <RI>
0

>  <Rbt.Current_Directory>
/home/itssahil/PROJECTS/Mol_Feturizer/New_Systems/rnas/1j7t

>  <Rbt.Executable>
rbdock ($Id: //depot/dev/client3/rdock/2013.1/src/exe/rbdock.cxx#4 $)

>  <Rbt.Library>
libRbt.so (2013.1, Build901 2013/11/27)

>  <Rbt.Parameter_File>
/export/apps/rDock/src/rDock_2013.1_src/data/scripts/dock_solv.prm

>  <Rbt.Receptor>
prm/pocket_docking_4.prm

>  <SCORE>
-36.6321

>  <SCORE.INTER>
-28.4458

>  <SCORE.INTER.CONST>
1

>  <SCORE.INTER.POLAR>
-5.36908

>  <SCORE.INTER.ROT>
9

>  <SCORE.INTER.SOLV>
18.8343

>  <SCORE.INTER.VDW>
-16.945

>  <SCORE.INTER.norm>
-0.67728

>  <SCORE.INTRA>
-8.2029

>  <SCORE.INTRA.DIHEDRAL>
-22.2165

>  <SCORE.INTRA.DIHEDRAL.0>
46.2143

>  <SCORE.INTRA.POLAR>
-0.585962

>  <SCORE.INTRA.POLAR.0>
-1.76436

>  <SCORE.INTRA.REPUL>
0.0192496

>  <SCORE.INTRA.REPUL.0>
0

>  <SCORE.INTRA.SOLV>
2.85343

>  <SCORE.INTRA.SOLV.lig_0>
-148.643

>  <SCORE.INTRA.VDW>
3.37466

>  <SCORE.INTRA.VDW.0>
-4.83512

>  <SCORE.INTRA.norm>
-0.195307

>  <SCORE.RESTR>
0.0165201

>  <SCORE.RESTR.CAVITY>
0.0165201

>  <SCORE.RESTR.norm>
0.000393335

>  <SCORE.SYSTEM>
0

>  <SCORE.SYSTEM.CONST>
0

>  <SCORE.SYSTEM.DIHEDRAL>
0

>  <SCORE.SYSTEM.SOLV>
0

>  <SCORE.SYSTEM.norm>
0

>  <SCORE.heavy>
42

>  <SCORE.norm>
-0.872194

>  <RMSD>
9.228

$$$$
1j7t
 OpenBabel11021811393D
libRbt.so/2013.1/901 2013/11/27
 42 45  0  0  0  0  0  0  0  0999 V2000
   26.8025    6.6869   61.6521 C   0  0  2  0  0  0  0  0  0  0  0  0
   26.0679    7.6428   60.8464 O   0  0  0  0  0  0  0  0  0  0  0  0
   26.3007    6.8499   63.1155 C   0  0  2  0  0  0  0  0  0  0  0  0
   24.8214    6.7536   63.2766 N   0  3  0  0  0  0  0  0  0  0  0  0
   26.7453    8.2393   63.6223 C   0  0  1  0  0  0  0  0  0  0  0  0
   26.3339    8.4366   64.9457 O   0  0  0  0  0  0  0  0  0  0  0  0
   28.2812    8.3814   63.5019 C   0  0  2  0  0  0  0  0  0  0  0  0
   28.7120    9.6399   63.9812 O   0  0  0  0  0  0  0  0  0  0  0  0
   28.6993    8.2317   62.0546 C   0  0  2  0  0  0  0  0  0  0  0  0
   28.2308    6.9849   61.5567 O   0  0  0  0  0  0  0  0  0  0  0  0
   30.1999    8.2412   61.8672 C   0  0  0  0  0  0  0  0  0  0  0  0
   30.5022    8.3613   60.4904 O   0  0  0  0  0  0  0  0  0  0  0  0
   24.7011    7.5146   56.8509 C   0  0  2  0  0  0  0  0  0  0  0  0
   24.6963    7.4522   55.3889 N   0  3  0  0  0  0  0  0  0  0  0  0
   25.4311    8.8140   57.3275 C   0  0  0  0  0  0  0  0  0  0  0  0
   25.4813    8.8592   58.8667 C   0  0  2  0  0  0  0  0  0  0  0  0
   26.2098   10.0446   59.3305 N   0  3  0  0  0  0  0  0  0  0  0  0
   26.1622    7.5912   59.4181 C   0  0  2  0  0  0  0  0  0  0  0  0
   25.4799    6.2939   58.9419 C   0  0  2  0  0  0  0  0  0  0  0  0
   26.3128    5.2131   59.4039 O   0  0  0  0  0  0  0  0  0  0  0  0
   25.3860    6.2710   57.3951 C   0  0  1  0  0  0  0  0  0  0  0  0
   24.6741    5.1330   56.9936 O   0  0  0  0  0  0  0  0  0  0  0  0
   27.6665    5.0338   58.9956 C   0  0  1  0  0  0  0  0  0  0  0  0
   28.3064    3.8983   59.8715 C   0  0  2  0  0  0  0  0  0  0  0  0
   28.8767    4.3594   61.0843 O   0  0  0  0  0  0  0  0  0  0  0  0
   29.3102    3.3742   58.8541 C   0  0  2  0  0  0  0  0  0  0  0  0
   30.3694    4.3481   58.6103 O   0  0  0  0  0  0  0  0  0  0  0  0
   28.4769    3.2728   57.5842 C   0  0  2  0  0  0  0  0  0  0  0  0
   27.7381    4.5051   57.6433 O   0  0  0  0  0  0  0  0  0  0  0  0
   27.5493    2.0162   57.5039 C   0  0  0  0  0  0  0  0  0  0  0  0
   28.2758    0.8055   57.7497 O   0  0  0  0  0  0  0  0  0  0  0  0
   31.4154    3.8685   57.7692 C   0  0  2  0  0  0  0  0  0  0  0  0
   32.8078    4.5469   58.0047 C   0  0  2  0  0  0  0  0  0  0  0  0
   32.7686    6.0301   57.8262 N   0  3  0  0  0  0  0  0  0  0  0  0
   33.8175    3.8759   57.0147 C   0  0  1  0  0  0  0  0  0  0  0  0
   33.9096    2.4471   57.3857 O   0  0  0  0  0  0  0  0  0  0  0  0
   33.3502    3.9797   55.5107 C   0  0  2  0  0  0  0  0  0  0  0  0
   33.3171    5.3668   55.1372 O   0  0  0  0  0  0  0  0  0  0  0  0
   31.9214    3.3044   55.3901 C   0  0  1  0  0  0  0  0  0  0  0  0
   31.0269    3.9903   56.3296 O   0  0  0  0  0  0  0  0  0  0  0  0
   31.3127    3.3398   53.9698 C   0  0  0  0  0  0  0  0  0  0  0  0
   30.0137    2.6214   53.8647 N   0  3  0  0  0  0  0  0  0  0  0  0
  1  2  1  6  0  0  0
  1  3  1  0  0  0  0
  1 10  1  0  0  0  0
  3  4  1  6  0  0  0
  3  5  1  0  0  0  0
  5  6  1  1  0  0  0
  5  7  1  0  0  0  0
  7  8  1  6  0  0  0
  7  9  1  0  0  0  0
  9 10  1  0  0  0  0
  9 11  1  1  0  0  0
 11 12  1  0  0  0  0
 13 14  1  6  0  0  0
 13 15  1  0  0  0  0
 13 21  1  0  0  0  0
 15 16  1  0  0  0  0
 16 17  1  6  0  0  0
 16 18  1  0  0  0  0
 18  2  1  1  0  0  0
 18 19  1  0  0  0  0
 19 20  1  6  0  0  0
 19 21  1  0  0  0  0
 21 22  1  1  0  0  0
 23 20  1  1  0  0  0
 23 24  1  0  0  0  0
 23 29  1  0  0  0  0
 24 25  1  1  0  0  0
 24 26  1  0  0  0  0
 26 27  1  6  0  0  0
 26 28  1  0  0  0  0
 28 29  1  0  0  0  0
 28 30  1  1  0  0  0
 30 31  1  0  0  0  0
 32 27  1  1  0  0  0
 32 33  1  0  0  0  0
 32 40  1  0  0  0  0
 33 34  1  6  0  0  0
 33 35  1  0  0  0  0
 35 36  1  1  0  0  0
 35 37  1  0  0  0  0
 37 38  1  1  0  0  0
 37 39  1  0  0  0  0
 39 40  1  0  0  0  0
 39 41  1  6  0  0  0
 41 42  1  0  0  0  0
M  CHG  5   4   1  14   1  17   1  34   1  42   1
M  END
>  <CHROM.1>
-170.42735908,-170.44804257,175.36477535,63.15122198,65.38274533,-168.64082649
62.94414743,-179.54095832,-58.51171730,-61.81389565,171.20644640,-175.74342759
-62.65943384,174.03639774,-152.91680777,-51.92593910,64.48244746,56.09061854
-59.33368106,67.08602237,176.18946802,-59.96887617,28.54420714,5.78398265
58.97770559,-2.20574943,0.24058491,-2.07330310

>  <Name>
1j7t

>  <RI>
0

>  <Rbt.Current_Directory>
/home/itssahil/PROJECTS/Mol_Feturizer/New_Systems/rnas/1j7t

>  <Rbt.Executable>
rbdock ($Id: //depot/dev/client3/rdock/2013.1/src/exe/rbdock.cxx#4 $)

>  <Rbt.Library>
libRbt.so (2013.1, Build901 2013/11/27)

>  <Rbt.Parameter_File>
/export/apps/rDock/src/rDock_2013.1_src/data/scripts/dock_solv.prm

>  <Rbt.Receptor>
prm/pocket_docking_5.prm

>  <SCORE>
-41.1533

>  <SCORE.INTER>
-20.5748

>  <SCORE.INTER.CONST>
1

>  <SCORE.INTER.POLAR>
-2.87049

>  <SCORE.INTER.ROT>
9

>  <SCORE.INTER.SOLV>
15.5433

>  <SCORE.INTER.VDW>
-18.9293

>  <SCORE.INTER.norm>
-0.489877

>  <SCORE.INTRA>
-20.6208

>  <SCORE.INTRA.DIHEDRAL>
-39.4949

>  <SCORE.INTRA.DIHEDRAL.0>
46.2143

>  <SCORE.INTRA.POLAR>
1.27551

>  <SCORE.INTRA.POLAR.0>
-1.76436

>  <SCORE.INTRA.REPUL>
0

>  <SCORE.INTRA.REPUL.0>
0

>  <SCORE.INTRA.SOLV>
-5.93777

>  <SCORE.INTRA.SOLV.lig_0>
-148.643

>  <SCORE.INTRA.VDW>
-2.24123

>  <SCORE.INTRA.VDW.0>
-4.83512

>  <SCORE.INTRA.norm>
-0.490972

>  <SCORE.RESTR>
0.0423662

>  <SCORE.RESTR.CAVITY>
0.0423662

>  <SCORE.RESTR.norm>
0.00100872

>  <SCORE.SYSTEM>
0

>  <SCORE.SYSTEM.CONST>
0

>  <SCORE.SYSTEM.DIHEDRAL>
0

>  <SCORE.SYSTEM.SOLV>
0

>  <SCORE.SYSTEM.norm>
0

>  <SCORE.heavy>
42

>  <SCORE.norm>
-0.97984

>  <RMSD>
9.231

$$$$
1j7t
 OpenBabel11021811393D
libRbt.so/2013.1/901 2013/11/27
 42 45  0  0  0  0  0  0  0  0999 V2000
   28.1824    6.0034   61.0289 C   0  0  2  0  0  0  0  0  0  0  0  0
   28.4972    6.6090   59.7495 O   0  0  0  0  0  0  0  0  0  0  0  0
   28.2318    4.4622   60.8233 C   0  0  2  0  0  0  0  0  0  0  0  0
   29.4995    3.9588   60.2208 N   0  3  0  0  0  0  0  0  0  0  0  0
   27.0696    4.0666   59.8865 C   0  0  1  0  0  0  0  0  0  0  0  0
   27.0538    2.6825   59.6773 O   0  0  0  0  0  0  0  0  0  0  0  0
   25.7232    4.5435   60.4808 C   0  0  2  0  0  0  0  0  0  0  0  0
   24.6425    4.1720   59.6481 O   0  0  0  0  0  0  0  0  0  0  0  0
   25.7349    6.0493   60.6369 C   0  0  2  0  0  0  0  0  0  0  0  0
   26.8454    6.4299   61.4393 O   0  0  0  0  0  0  0  0  0  0  0  0
   24.4971    6.5838   61.3219 C   0  0  0  0  0  0  0  0  0  0  0  0
   23.3470    6.1562   60.6178 O   0  0  0  0  0  0  0  0  0  0  0  0
   29.3300   10.5488   61.0273 C   0  0  2  0  0  0  0  0  0  0  0  0
   29.8648   11.9104   61.0632 N   0  3  0  0  0  0  0  0  0  0  0  0
   30.5030    9.5135   61.0533 C   0  0  0  0  0  0  0  0  0  0  0  0
   29.9462    8.0797   60.9663 C   0  0  2  0  0  0  0  0  0  0  0  0
   31.0352    7.0978   60.9353 N   0  3  0  0  0  0  0  0  0  0  0  0
   29.0752    7.9187   59.7049 C   0  0  2  0  0  0  0  0  0  0  0  0
   27.9270    8.9446   59.6391 C   0  0  2  0  0  0  0  0  0  0  0  0
   27.3113    8.7711   58.3483 O   0  0  0  0  0  0  0  0  0  0  0  0
   28.4828   10.3848   59.7754 C   0  0  1  0  0  0  0  0  0  0  0  0
   27.4137   11.2896   59.8140 O   0  0  0  0  0  0  0  0  0  0  0  0
   28.0110    8.9253   57.1164 C   0  0  1  0  0  0  0  0  0  0  0  0
   28.4785    7.5084   56.6265 C   0  0  2  0  0  0  0  0  0  0  0  0
   29.7402    7.1109   57.1357 O   0  0  0  0  0  0  0  0  0  0  0  0
   28.4511    7.7731   55.1277 C   0  0  2  0  0  0  0  0  0  0  0  0
   29.5027    8.7073   54.7390 O   0  0  0  0  0  0  0  0  0  0  0  0
   27.1155    8.4783   54.9374 C   0  0  2  0  0  0  0  0  0  0  0  0
   27.1176    9.3750   56.0614 O   0  0  0  0  0  0  0  0  0  0  0  0
   25.8688    7.5341   54.9208 C   0  0  0  0  0  0  0  0  0  0  0  0
   25.9135    6.6177   53.8198 O   0  0  0  0  0  0  0  0  0  0  0  0
   30.1127    8.4052   53.4868 C   0  0  2  0  0  0  0  0  0  0  0  0
   30.8732    7.0363   53.4424 C   0  0  2  0  0  0  0  0  0  0  0  0
   31.9515    6.9375   54.4724 N   0  3  0  0  0  0  0  0  0  0  0  0
   31.4459    6.8771   51.9945 C   0  0  1  0  0  0  0  0  0  0  0  0
   30.2915    6.8163   51.0719 O   0  0  0  0  0  0  0  0  0  0  0  0
   32.3688    8.0860   51.5722 C   0  0  2  0  0  0  0  0  0  0  0  0
   33.5177    8.1069   52.4350 O   0  0  0  0  0  0  0  0  0  0  0  0
   31.5204    9.4195   51.6911 C   0  0  1  0  0  0  0  0  0  0  0  0
   31.0308    9.5111   53.0714 O   0  0  0  0  0  0  0  0  0  0  0  0
   32.2936   10.7068   51.3253 C   0  0  0  0  0  0  0  0  0  0  0  0
   33.1991   10.5412   50.1560 N   0  3  0  0  0  0  0  0  0  0  0  0
  1  2  1  6  0  0  0
  1  3  1  0  0  0  0
  1 10  1  0  0  0  0
  3  4  1  6  0  0  0
  3  5  1  0  0  0  0
  5  6  1  1  0  0  0
  5  7  1  0  0  0  0
  7  8  1  6  0  0  0
  7  9  1  0  0  0  0
  9 10  1  0  0  0  0
  9 11  1  1  0  0  0
 11 12  1  0  0  0  0
 13 14  1  6  0  0  0
 13 15  1  0  0  0  0
 13 21  1  0  0  0  0
 15 16  1  0  0  0  0
 16 17  1  6  0  0  0
 16 18  1  0  0  0  0
 18  2  1  1  0  0  0
 18 19  1  0  0  0  0
 19 20  1  6  0  0  0
 19 21  1  0  0  0  0
 21 22  1  1  0  0  0
 23 20  1  1  0  0  0
 23 24  1  0  0  0  0
 23 29  1  0  0  0  0
 24 25  1  1  0  0  0
 24 26  1  0  0  0  0
 26 27  1  1  0  0  0
 26 28  1  0  0  0  0
 28 29  1  0  0  0  0
 28 30  1  1  0  0  0
 30 31  1  0  0  0  0
 32 27  1  1  0  0  0
 32 33  1  0  0  0  0
 32 40  1  0  0  0  0
 33 34  1  1  0  0  0
 33 35  1  0  0  0  0
 35 36  1  6  0  0  0
 35 37  1  0  0  0  0
 37 38  1  1  0  0  0
 37 39  1  0  0  0  0
 39 40  1  0  0  0  0
 39 41  1  1  0  0  0
 41 42  1  0  0  0  0
M  CHG  5   4   1  14   1  17   1  34   1  42   1
M  END
>  <CHROM.1>
-153.74741763,31.80398170,-173.80564031,174.03396360,-62.47459805,-55.70345642
172.25481757,-59.23184148,16.34806790,-59.28434388,96.19956768,-59.66033199
-56.88160176,142.25607592,-63.37173992,-62.97403433,-150.45899222,-124.52301411
-175.70305042,-86.60259358,39.57663457,162.85657496,28.79443647,7.62181147
57.19632689,-2.37160218,-0.87180840,-1.97080707

>  <Name>
1j7t

>  <RI>
224

>  <Rbt.Current_Directory>
/home/itssahil/PROJECTS/Mol_Feturizer/New_Systems/rnas/1j7t

>  <Rbt.Executable>
rbdock ($Id: //depot/dev/client3/rdock/2013.1/src/exe/rbdock.cxx#4 $)

>  <Rbt.Library>
libRbt.so (2013.1, Build901 2013/11/27)

>  <Rbt.Parameter_File>
/export/apps/rDock/src/rDock_2013.1_src/data/scripts/dock_solv.prm

>  <Rbt.Receptor>
prm/pocket_docking_7.prm

>  <SCORE>
-46.9837

>  <SCORE.INTER>
-47.9615

>  <SCORE.INTER.CONST>
1

>  <SCORE.INTER.POLAR>
-7.89486

>  <SCORE.INTER.ROT>
9

>  <SCORE.INTER.SOLV>
21.866

>  <SCORE.INTER.VDW>
-22.5468

>  <SCORE.INTER.norm>
-1.14194

>  <SCORE.INTRA>
0.977755

>  <SCORE.INTRA.DIHEDRAL>
-14.0758

>  <SCORE.INTRA.DIHEDRAL.0>
46.2143

>  <SCORE.INTRA.POLAR>
1.67912

>  <SCORE.INTRA.POLAR.0>
-1.76436

>  <SCORE.INTRA.REPUL>
0

>  <SCORE.INTRA.REPUL.0>
0

>  <SCORE.INTRA.SOLV>
1.43941

>  <SCORE.INTRA.SOLV.lig_0>
-148.643

>  <SCORE.INTRA.VDW>
1.58694

>  <SCORE.INTRA.VDW.0>
-4.83512

>  <SCORE.INTRA.norm>
0.0232799

>  <SCORE.RESTR>
0

>  <SCORE.RESTR.CAVITY>
0

>  <SCORE.RESTR.norm>
0

>  <SCORE.SYSTEM>
0

>  <SCORE.SYSTEM.CONST>
0

>  <SCORE.SYSTEM.DIHEDRAL>
0

>  <SCORE.SYSTEM.SOLV>
0

>  <SCORE.SYSTEM.norm>
0

>  <SCORE.heavy>
42

>  <SCORE.norm>
-1.11866

>  <RMSD>
9.250

$$$$
1j7t
 OpenBabel11021811393D
libRbt.so/2013.1/901 2013/11/27
 42 45  0  0  0  0  0  0  0  0999 V2000
   27.0826    6.2912   58.8603 C   0  0  2  0  0  0  0  0  0  0  0  0
   28.3539    6.3980   59.5496 O   0  0  0  0  0  0  0  0  0  0  0  0
   26.3225    7.6261   59.1054 C   0  0  2  0  0  0  0  0  0  0  0  0
   27.0935    8.8515   58.7482 N   0  3  0  0  0  0  0  0  0  0  0  0
   25.9685    7.7071   60.6064 C   0  0  1  0  0  0  0  0  0  0  0  0
   25.2659    8.8854   60.8847 O   0  0  0  0  0  0  0  0  0  0  0  0
   25.1418    6.4678   61.0241 C   0  0  2  0  0  0  0  0  0  0  0  0
   24.7885    6.5327   62.3916 O   0  0  0  0  0  0  0  0  0  0  0  0
   25.9444    5.2079   60.7779 C   0  0  2  0  0  0  0  0  0  0  0  0
   26.3375    5.1606   59.4122 O   0  0  0  0  0  0  0  0  0  0  0  0
   25.1612    3.9435   61.0514 C   0  0  0  0  0  0  0  0  0  0  0  0
   26.0021    2.8201   60.8719 O   0  0  0  0  0  0  0  0  0  0  0  0
   32.4472    5.6207   58.8508 C   0  0  2  0  0  0  0  0  0  0  0  0
   33.6752    4.9892   58.3662 N   0  3  0  0  0  0  0  0  0  0  0  0
   31.6681    4.6307   59.7788 C   0  0  0  0  0  0  0  0  0  0  0  0
   30.3504    5.2739   60.2519 C   0  0  2  0  0  0  0  0  0  0  0  0
   29.5812    4.3392   61.0799 N   0  3  0  0  0  0  0  0  0  0  0  0
   29.4998    5.7052   59.0411 C   0  0  2  0  0  0  0  0  0  0  0  0
   30.2527    6.6600   58.0942 C   0  0  2  0  0  0  0  0  0  0  0  0
   29.3968    6.8429   56.9498 O   0  0  0  0  0  0  0  0  0  0  0  0
   31.6008    6.0330   57.6569 C   0  0  1  0  0  0  0  0  0  0  0  0
   32.3094    6.9592   56.8804 O   0  0  0  0  0  0  0  0  0  0  0  0
   29.5830    7.8761   55.9859 C   0  0  1  0  0  0  0  0  0  0  0  0
   29.2358    7.3029   54.5657 C   0  0  2  0  0  0  0  0  0  0  0  0
   30.3303    6.6836   53.9118 O   0  0  0  0  0  0  0  0  0  0  0  0
   28.7546    8.5939   53.9185 C   0  0  2  0  0  0  0  0  0  0  0  0
   29.8587    9.5281   53.7233 O   0  0  0  0  0  0  0  0  0  0  0  0
   27.8383    9.1802   54.9834 C   0  0  2  0  0  0  0  0  0  0  0  0
   28.6136    8.9435   56.1711 O   0  0  0  0  0  0  0  0  0  0  0  0
   26.4146    8.5370   55.0538 C   0  0  0  0  0  0  0  0  0  0  0  0
   25.7052    8.9491   56.2290 O   0  0  0  0  0  0  0  0  0  0  0  0
   29.9487   10.0510   52.4005 C   0  0  2  0  0  0  0  0  0  0  0  0
   30.1885    8.9759   51.2865 C   0  0  2  0  0  0  0  0  0  0  0  0
   31.4308    8.1757   51.5098 N   0  3  0  0  0  0  0  0  0  0  0  0
   30.2331    9.7356   49.9188 C   0  0  1  0  0  0  0  0  0  0  0  0
   28.9029   10.3497   49.7162 O   0  0  0  0  0  0  0  0  0  0  0  0
   31.3259   10.8742   49.8940 C   0  0  2  0  0  0  0  0  0  0  0  0
   32.6210   10.2677   50.0339 O   0  0  0  0  0  0  0  0  0  0  0  0
   31.0172   11.8804   51.0790 C   0  0  1  0  0  0  0  0  0  0  0  0
   31.0066   11.1062   52.3256 O   0  0  0  0  0  0  0  0  0  0  0  0
   32.0163   13.0533   51.2018 C   0  0  0  0  0  0  0  0  0  0  0  0
   32.2459   13.7717   49.9189 N   0  3  0  0  0  0  0  0  0  0  0  0
  1  2  1  1  0  0  0
  1  3  1  0  0  0  0
  1 10  1  0  0  0  0
  3  4  1  1  0  0  0
  3  5  1  0  0  0  0
  5  6  1  6  0  0  0
  5  7  1  0  0  0  0
  7  8  1  1  0  0  0
  7  9  1  0  0  0  0
  9 10  1  0  0  0  0
  9 11  1  6  0  0  0
 11 12  1  0  0  0  0
 13 14  1  6  0  0  0
 13 15  1  0  0  0  0
 13 21  1  0  0  0  0
 15 16  1  0  0  0  0
 16 17  1  6  0  0  0
 16 18  1  0  0  0  0
 18  2  1  1  0  0  0
 18 19  1  0  0  0  0
 19 20  1  6  0  0  0
 19 21  1  0  0  0  0
 21 22  1  1  0  0  0
 23 20  1  1  0  0  0
 23 24  1  0  0  0  0
 23 29  1  0  0  0  0
 24 25  1  6  0  0  0
 24 26  1  0  0  0  0
 26 27  1  1  0  0  0
 26 28  1  0  0  0  0
 28 29  1  0  0  0  0
 28 30  1  1  0  0  0
 30 31  1  0  0  0  0
 32 27  1  1  0  0  0
 32 33  1  0  0  0  0
 32 40  1  0  0  0  0
 33 34  1  1  0  0  0
 33 35  1  0  0  0  0
 35 36  1  1  0  0  0
 35 37  1  0  0  0  0
 37 38  1  1  0  0  0
 37 39  1  0  0  0  0
 39 40  1  0  0  0  0
 39 41  1  1  0  0  0
 41 42  1  0  0  0  0
M  CHG  5   4   1  14   1  17   1  34   1  42   1
M  END
>  <CHROM.1>
-149.79351298,-146.22748614,-46.79883193,171.31200150,73.35083732,-176.69014776
81.17017542,110.13240765,-28.89768423,165.48174688,142.56426607,65.64802897
67.77786140,129.25364767,-61.32484271,168.76918367,-170.37590338,-62.55469780
-55.82904983,80.71767324,50.29424138,-52.39083168,29.09163844,7.78351931
56.28541913,1.94157947,-0.34820814,2.19433251

>  <Name>
1j7t

>  <RI>
0

>  <Rbt.Current_Directory>
/home/itssahil/PROJECTS/Mol_Feturizer/New_Systems/rnas/1j7t

>  <Rbt.Executable>
rbdock ($Id: //depot/dev/client3/rdock/2013.1/src/exe/rbdock.cxx#4 $)

>  <Rbt.Library>
libRbt.so (2013.1, Build901 2013/11/27)

>  <Rbt.Parameter_File>
/export/apps/rDock/src/rDock_2013.1_src/data/scripts/dock_solv.prm

>  <Rbt.Receptor>
prm/pocket_docking_4.prm

>  <SCORE>
-50.4506

>  <SCORE.INTER>
-38.2103

>  <SCORE.INTER.CONST>
1

>  <SCORE.INTER.POLAR>
-5.91931

>  <SCORE.INTER.ROT>
9

>  <SCORE.INTER.SOLV>
30.5979

>  <SCORE.INTER.VDW>
-25.5418

>  <SCORE.INTER.norm>
-0.909769

>  <SCORE.INTRA>
-12.2403

>  <SCORE.INTRA.DIHEDRAL>
-12.6287

>  <SCORE.INTRA.DIHEDRAL.0>
46.2143

>  <SCORE.INTRA.POLAR>
-1.78029

>  <SCORE.INTRA.POLAR.0>
-1.76436

>  <SCORE.INTRA.REPUL>
0

>  <SCORE.INTRA.REPUL.0>
0

>  <SCORE.INTRA.SOLV>
3.88724

>  <SCORE.INTRA.SOLV.lig_0>
-148.643

>  <SCORE.INTRA.VDW>
-1.81658

>  <SCORE.INTRA.VDW.0>
-4.83512

>  <SCORE.INTRA.norm>
-0.291435

>  <SCORE.RESTR>
0

>  <SCORE.RESTR.CAVITY>
0

>  <SCORE.RESTR.norm>
0

>  <SCORE.SYSTEM>
0

>  <SCORE.SYSTEM.CONST>
0

>  <SCORE.SYSTEM.DIHEDRAL>
0

>  <SCORE.SYSTEM.SOLV>
0

>  <SCORE.SYSTEM.norm>
0

>  <SCORE.heavy>
42

>  <SCORE.norm>
-1.2012

>  <RMSD>
9.256

$$$$
1j7t
 OpenBabel11021811393D
libRbt.so/2013.1/901 2013/11/27
 42 45  0  0  0  0  0  0  0  0999 V2000
   28.7684    5.8324   60.0384 C   0  0  2  0  0  0  0  0  0  0  0  0
   28.2921    6.9697   59.2755 O   0  0  0  0  0  0  0  0  0  0  0  0
   30.1995    5.5090   59.5212 C   0  0  2  0  0  0  0  0  0  0  0  0
   31.1372    6.6684   59.5305 N   0  3  0  0  0  0  0  0  0  0  0  0
   30.0804    5.0049   58.0663 C   0  0  1  0  0  0  0  0  0  0  0  0
   31.3413    4.6817   57.5515 O   0  0  0  0  0  0  0  0  0  0  0  0
   29.1361    3.7809   58.0046 C   0  0  2  0  0  0  0  0  0  0  0  0
   29.0299    3.2899   56.6830 O   0  0  0  0  0  0  0  0  0  0  0  0
   27.7598    4.1680   58.5025 C   0  0  2  0  0  0  0  0  0  0  0  0
   27.8682    4.7017   59.8161 O   0  0  0  0  0  0  0  0  0  0  0  0
   26.8078    2.9958   58.5843 C   0  0  0  0  0  0  0  0  0  0  0  0
   27.1408    2.1952   59.7021 O   0  0  0  0  0  0  0  0  0  0  0  0
   25.2877    9.8042   60.1630 C   0  0  2  0  0  0  0  0  0  0  0  0
   24.5767   10.9218   60.7849 N   0  3  0  0  0  0  0  0  0  0  0  0
   25.5801    8.6975   61.2299 C   0  0  0  0  0  0  0  0  0  0  0  0
   26.3714    7.5408   60.5901 C   0  0  2  0  0  0  0  0  0  0  0  0
   26.7010    6.5186   61.5889 N   0  3  0  0  0  0  0  0  0  0  0  0
   27.6702    8.0695   59.9504 C   0  0  2  0  0  0  0  0  0  0  0  0
   27.4140    9.1812   58.9142 C   0  0  2  0  0  0  0  0  0  0  0  0
   28.7120    9.6736   58.5291 O   0  0  0  0  0  0  0  0  0  0  0  0
   26.5763   10.3226   59.5446 C   0  0  1  0  0  0  0  0  0  0  0  0
   26.2721   11.2699   58.5581 O   0  0  0  0  0  0  0  0  0  0  0  0
   29.1367    9.7944   57.1741 C   0  0  1  0  0  0  0  0  0  0  0  0
   29.2877    8.3539   56.5674 C   0  0  2  0  0  0  0  0  0  0  0  0
   30.5647    7.7740   56.7727 O   0  0  0  0  0  0  0  0  0  0  0  0
   28.9663    8.6902   55.1180 C   0  0  2  0  0  0  0  0  0  0  0  0
   30.0230    9.4987   54.5186 O   0  0  0  0  0  0  0  0  0  0  0  0
   27.7300    9.5693   55.2453 C   0  0  2  0  0  0  0  0  0  0  0  0
   28.1020   10.4044   56.3552 O   0  0  0  0  0  0  0  0  0  0  0  0
   26.3941    8.7950   55.4936 C   0  0  0  0  0  0  0  0  0  0  0  0
   26.0478    7.9655   54.3774 O   0  0  0  0  0  0  0  0  0  0  0  0
   30.4742    9.0184   53.2548 C   0  0  2  0  0  0  0  0  0  0  0  0
   31.1407    7.6011   53.2931 C   0  0  2  0  0  0  0  0  0  0  0  0
   32.3162    7.5370   54.2136 N   0  3  0  0  0  0  0  0  0  0  0  0
   31.5424    7.2440   51.8231 C   0  0  1  0  0  0  0  0  0  0  0  0
   30.2932    7.1671   51.0349 O   0  0  0  0  0  0  0  0  0  0  0  0
   32.4859    8.3293   51.1727 C   0  0  2  0  0  0  0  0  0  0  0  0
   33.7207    8.3604   51.9069 O   0  0  0  0  0  0  0  0  0  0  0  0
   31.7382    9.7259   51.2210 C   0  0  1  0  0  0  0  0  0  0  0  0
   31.4075   10.0027   52.6236 O   0  0  0  0  0  0  0  0  0  0  0  0
   32.5442   10.9061   50.6323 C   0  0  0  0  0  0  0  0  0  0  0  0
   31.9259   12.2341   50.8943 N   0  3  0  0  0  0  0  0  0  0  0  0
  1  2  1  6  0  0  0
  1  3  1  0  0  0  0
  1 10  1  0  0  0  0
  3  4  1  6  0  0  0
  3  5  1  0  0  0  0
  5  6  1  1  0  0  0
  5  7  1  0  0  0  0
  7  8  1  6  0  0  0
  7  9  1  0  0  0  0
  9 10  1  0  0  0  0
  9 11  1  1  0  0  0
 11 12  1  0  0  0  0
 13 14  1  1  0  0  0
 13 15  1  0  0  0  0
 13 21  1  0  0  0  0
 15 16  1  0  0  0  0
 16 17  1  1  0  0  0
 16 18  1  0  0  0  0
 18  2  1  6  0  0  0
 18 19  1  0  0  0  0
 19 20  1  1  0  0  0
 19 21  1  0  0  0  0
 21 22  1  6  0  0  0
 23 20  1  1  0  0  0
 23 24  1  0  0  0  0
 23 29  1  0  0  0  0
 24 25  1  6  0  0  0
 24 26  1  0  0  0  0
 26 27  1  1  0  0  0
 26 28  1  0  0  0  0
 28 29  1  0  0  0  0
 28 30  1  1  0  0  0
 30 31  1  0  0  0  0
 32 27  1  1  0  0  0
 32 33  1  0  0  0  0
 32 40  1  0  0  0  0
 33 34  1  1  0  0  0
 33 35  1  0  0  0  0
 35 36  1  6  0  0  0
 35 37  1  0  0  0  0
 37 38  1  1  0  0  0
 37 39  1  0  0  0  0
 39 40  1  0  0  0  0
 39 41  1  1  0  0  0
 41 42  1  0  0  0  0
M  CHG  5   4   1  14   1  17   1  34   1  42   1
M  END
>  <CHROM.1>
-133.47680693,-64.33310807,51.10679920,52.08971726,-59.21074241,74.66200577
-57.30449951,-43.11299091,36.08140037,128.43560215,-67.76829807,-160.82189655
-51.93387015,130.75880472,-63.27887180,-64.82158012,68.37761729,-36.83100081
66.16277101,67.92612799,-170.24637796,-40.30805977,29.03914247,7.77606338
56.62769175,-2.45094188,0.89815808,-0.51017581

>  <Name>
1j7t

>  <RI>
0

>  <Rbt.Current_Directory>
/home/itssahil/PROJECTS/Mol_Feturizer/New_Systems/rnas/1j7t

>  <Rbt.Executable>
rbdock ($Id: //depot/dev/client3/rdock/2013.1/src/exe/rbdock.cxx#4 $)

>  <Rbt.Library>
libRbt.so (2013.1, Build901 2013/11/27)

>  <Rbt.Parameter_File>
/export/apps/rDock/src/rDock_2013.1_src/data/scripts/dock_solv.prm

>  <Rbt.Receptor>
prm/pocket_docking_6.prm

>  <SCORE>
-49.4581

>  <SCORE.INTER>
-37.4133

>  <SCORE.INTER.CONST>
1

>  <SCORE.INTER.POLAR>
-6.61287

>  <SCORE.INTER.ROT>
9

>  <SCORE.INTER.SOLV>
23.1264

>  <SCORE.INTER.VDW>
-20.2081

>  <SCORE.INTER.norm>
-0.890794

>  <SCORE.INTRA>
-12.0447

>  <SCORE.INTRA.DIHEDRAL>
-17.1552

>  <SCORE.INTRA.DIHEDRAL.0>
46.2143

>  <SCORE.INTRA.POLAR>
-1.70704

>  <SCORE.INTRA.POLAR.0>
-1.76436

>  <SCORE.INTRA.REPUL>
0

>  <SCORE.INTRA.REPUL.0>
0

>  <SCORE.INTRA.SOLV>
2.28189

>  <SCORE.INTRA.SOLV.lig_0>
-148.643

>  <SCORE.INTRA.VDW>
1.19585

>  <SCORE.INTRA.VDW.0>
-4.83512

>  <SCORE.INTRA.norm>
-0.28678

>  <SCORE.RESTR>
0

>  <SCORE.RESTR.CAVITY>
0

>  <SCORE.RESTR.norm>
0

>  <SCORE.SYSTEM>
0

>  <SCORE.SYSTEM.CONST>
0

>  <SCORE.SYSTEM.DIHEDRAL>
0

>  <SCORE.SYSTEM.SOLV>
0

>  <SCORE.SYSTEM.norm>
0

>  <SCORE.heavy>
42

>  <SCORE.norm>
-1.17757

>  <RMSD>
9.272

$$$$
1j7t
 OpenBabel11021811393D
libRbt.so/2013.1/901 2013/11/27
 42 45  0  0  0  0  0  0  0  0999 V2000
   27.6763    6.9245   61.2815 C   0  0  2  0  0  0  0  0  0  0  0  0
   26.6251    7.7294   60.6902 O   0  0  0  0  0  0  0  0  0  0  0  0
   28.8873    7.8705   61.5239 C   0  0  2  0  0  0  0  0  0  0  0  0
   28.5656    9.0991   62.3054 N   0  3  0  0  0  0  0  0  0  0  0  0
   29.4338    8.3109   60.1483 C   0  0  1  0  0  0  0  0  0  0  0  0
   30.5398    9.1548   60.3040 O   0  0  0  0  0  0  0  0  0  0  0  0
   29.8097    7.0697   59.3047 C   0  0  2  0  0  0  0  0  0  0  0  0
   30.3330    7.4516   58.0479 O   0  0  0  0  0  0  0  0  0  0  0  0
   28.5862    6.2041   59.0907 C   0  0  2  0  0  0  0  0  0  0  0  0
   28.0325    5.8529   60.3525 O   0  0  0  0  0  0  0  0  0  0  0  0
   28.8945    4.9091   58.3731 C   0  0  0  0  0  0  0  0  0  0  0  0
   29.4726    5.1941   57.1138 O   0  0  0  0  0  0  0  0  0  0  0  0
   23.8259    4.6343   60.0323 C   0  0  2  0  0  0  0  0  0  0  0  0
   22.5746    3.9381   59.7304 N   0  3  0  0  0  0  0  0  0  0  0  0
   23.6538    5.5078   61.3190 C   0  0  0  0  0  0  0  0  0  0  0  0
   24.9539    6.2804   61.6126 C   0  0  2  0  0  0  0  0  0  0  0  0
   24.7931    7.1461   62.7855 N   0  3  0  0  0  0  0  0  0  0  0  0
   25.3551    7.1364   60.3952 C   0  0  2  0  0  0  0  0  0  0  0  0
   25.5050    6.3051   59.1062 C   0  0  2  0  0  0  0  0  0  0  0  0
   25.7228    7.2534   58.0438 O   0  0  0  0  0  0  0  0  0  0  0  0
   24.2143    5.4904   58.8373 C   0  0  1  0  0  0  0  0  0  0  0  0
   24.4124    4.6690   57.7197 O   0  0  0  0  0  0  0  0  0  0  0  0
   26.3504    6.9198   56.8085 C   0  0  1  0  0  0  0  0  0  0  0  0
   25.4704    7.4786   55.6340 C   0  0  2  0  0  0  0  0  0  0  0  0
   24.4555    6.5887   55.2015 O   0  0  0  0  0  0  0  0  0  0  0  0
   26.5812    7.7187   54.6212 C   0  0  2  0  0  0  0  0  0  0  0  0
   27.1425    6.4579   54.1470 O   0  0  0  0  0  0  0  0  0  0  0  0
   27.6489    8.4134   55.4547 C   0  0  2  0  0  0  0  0  0  0  0  0
   27.6124    7.6253   56.6569 O   0  0  0  0  0  0  0  0  0  0  0  0
   27.3914    9.9328   55.7209 C   0  0  0  0  0  0  0  0  0  0  0  0
   26.4068   10.1315   56.7432 O   0  0  0  0  0  0  0  0  0  0  0  0
   27.5541    6.4833   52.7826 C   0  0  2  0  0  0  0  0  0  0  0  0
   28.4880    5.2990   52.3584 C   0  0  2  0  0  0  0  0  0  0  0  0
   29.7371    5.2234   53.1753 N   0  3  0  0  0  0  0  0  0  0  0  0
   28.8069    5.4892   50.8380 C   0  0  1  0  0  0  0  0  0  0  0  0
   27.5267    5.3785   50.1055 O   0  0  0  0  0  0  0  0  0  0  0  0
   29.4492    6.8967   50.5255 C   0  0  2  0  0  0  0  0  0  0  0  0
   30.7192    6.9776   51.1929 O   0  0  0  0  0  0  0  0  0  0  0  0
   28.4487    8.0183   51.0282 C   0  0  1  0  0  0  0  0  0  0  0  0
   28.2084    7.7889   52.4575 O   0  0  0  0  0  0  0  0  0  0  0  0
   28.9442    9.4658   50.8082 C   0  0  0  0  0  0  0  0  0  0  0  0
   29.2016    9.7924   49.3794 N   0  3  0  0  0  0  0  0  0  0  0  0
  1  2  1  6  0  0  0
  1  3  1  0  0  0  0
  1 10  1  0  0  0  0
  3  4  1  1  0  0  0
  3  5  1  0  0  0  0
  5  6  1  1  0  0  0
  5  7  1  0  0  0  0
  7  8  1  6  0  0  0
  7  9  1  0  0  0  0
  9 10  1  0  0  0  0
  9 11  1  1  0  0  0
 11 12  1  0  0  0  0
 13 14  1  6  0  0  0
 13 15  1  0  0  0  0
 13 21  1  0  0  0  0
 15 16  1  0  0  0  0
 16 17  1  1  0  0  0
 16 18  1  0  0  0  0
 18  2  1  1  0  0  0
 18 19  1  0  0  0  0
 19 20  1  6  0  0  0
 19 21  1  0  0  0  0
 21 22  1  6  0  0  0
 23 20  1  1  0  0  0
 23 24  1  0  0  0  0
 23 29  1  0  0  0  0
 24 25  1  6  0  0  0
 24 26  1  0  0  0  0
 26 27  1  1  0  0  0
 26 28  1  0  0  0  0
 28 29  1  0  0  0  0
 28 30  1  1  0  0  0
 30 31  1  0  0  0  0
 32 27  1  1  0  0  0
 32 33  1  0  0  0  0
 32 40  1  0  0  0  0
 33 34  1  1  0  0  0
 33 35  1  0  0  0  0
 35 36  1  6  0  0  0
 35 37  1  0  0  0  0
 37 38  1  1  0  0  0
 37 39  1  0  0  0  0
 39 40  1  0  0  0  0
 39 41  1  1  0  0  0
 41 42  1  0  0  0  0
M  CHG  5   4   1  14   1  17   1  34   1  42   1
M  END
>  <CHROM.1>
-177.77922392,44.59980784,57.69612060,177.33316946,-70.12426661,-58.73831775
-45.16015990,171.63920562,-65.53681428,157.69191022,131.65661801,172.67223170
-167.64829361,145.68341257,164.65374779,77.42190374,64.22611253,50.57575403
172.84761739,87.95653331,59.51242355,32.66699203,27.35132445,6.97196961,56.73181430
-1.86891040,-0.49430165,-1.65367851

>  <Name>
1j7t

>  <RI>
0

>  <Rbt.Current_Directory>
/home/itssahil/PROJECTS/Mol_Feturizer/New_Systems/rnas/1j7t

>  <Rbt.Executable>
rbdock ($Id: //depot/dev/client3/rdock/2013.1/src/exe/rbdock.cxx#4 $)

>  <Rbt.Library>
libRbt.so (2013.1, Build901 2013/11/27)

>  <Rbt.Parameter_File>
/export/apps/rDock/src/rDock_2013.1_src/data/scripts/dock_solv.prm

>  <Rbt.Receptor>
prm/pocket_docking_4.prm

>  <SCORE>
-43.9135

>  <SCORE.INTER>
-23.1294

>  <SCORE.INTER.CONST>
1

>  <SCORE.INTER.POLAR>
-3.33729

>  <SCORE.INTER.ROT>
9

>  <SCORE.INTER.SOLV>
15.7632

>  <SCORE.INTER.VDW>
-19.1497

>  <SCORE.INTER.norm>
-0.5507

>  <SCORE.INTRA>
-20.7841

>  <SCORE.INTRA.DIHEDRAL>
-21.5478

>  <SCORE.INTRA.DIHEDRAL.0>
46.2143

>  <SCORE.INTRA.POLAR>
-1.95001

>  <SCORE.INTRA.POLAR.0>
-1.76436

>  <SCORE.INTRA.REPUL>
0

>  <SCORE.INTRA.REPUL.0>
0

>  <SCORE.INTRA.SOLV>
-1.80082

>  <SCORE.INTRA.SOLV.lig_0>
-148.643

>  <SCORE.INTRA.VDW>
-2.47979

>  <SCORE.INTRA.VDW.0>
-4.83512

>  <SCORE.INTRA.norm>
-0.49486

>  <SCORE.RESTR>
0

>  <SCORE.RESTR.CAVITY>
0

>  <SCORE.RESTR.norm>
0

>  <SCORE.SYSTEM>
0

>  <SCORE.SYSTEM.CONST>
0

>  <SCORE.SYSTEM.DIHEDRAL>
0

>  <SCORE.SYSTEM.SOLV>
0

>  <SCORE.SYSTEM.norm>
0

>  <SCORE.heavy>
42

>  <SCORE.norm>
-1.04556

>  <RMSD>
9.275

$$$$
1j7t
 OpenBabel11021811393D
libRbt.so/2013.1/901 2013/11/27
 42 45  0  0  0  0  0  0  0  0999 V2000
   28.1738    5.7785   59.3476 C   0  0  2  0  0  0  0  0  0  0  0  0
   26.8354    5.8145   58.7910 O   0  0  0  0  0  0  0  0  0  0  0  0
   28.1311    4.8096   60.5640 C   0  0  2  0  0  0  0  0  0  0  0  0
   27.5749    3.4598   60.2604 N   0  3  0  0  0  0  0  0  0  0  0  0
   27.2504    5.4524   61.6576 C   0  0  1  0  0  0  0  0  0  0  0  0
   27.1880    4.6292   62.7880 O   0  0  0  0  0  0  0  0  0  0  0  0
   27.8020    6.8491   62.0300 C   0  0  2  0  0  0  0  0  0  0  0  0
   27.0216    7.4468   63.0463 O   0  0  0  0  0  0  0  0  0  0  0  0
   27.7986    7.7451   60.8098 C   0  0  2  0  0  0  0  0  0  0  0  0
   28.5477    7.1272   59.7710 O   0  0  0  0  0  0  0  0  0  0  0  0
   28.4334    9.0941   61.0633 C   0  0  0  0  0  0  0  0  0  0  0  0
   28.3675    9.8749   59.8855 O   0  0  0  0  0  0  0  0  0  0  0  0
   25.4045    7.2486   55.0837 C   0  0  2  0  0  0  0  0  0  0  0  0
   25.0478    8.1568   53.9932 N   0  3  0  0  0  0  0  0  0  0  0  0
   24.5835    7.6066   56.3667 C   0  0  0  0  0  0  0  0  0  0  0  0
   24.9915    6.6841   57.5313 C   0  0  2  0  0  0  0  0  0  0  0  0
   24.2700    7.0409   58.7573 N   0  3  0  0  0  0  0  0  0  0  0  0
   26.5090    6.7791   57.7838 C   0  0  2  0  0  0  0  0  0  0  0  0
   27.3429    6.4581   56.5282 C   0  0  2  0  0  0  0  0  0  0  0  0
   28.7121    6.7402   56.8765 O   0  0  0  0  0  0  0  0  0  0  0  0
   26.8990    7.3530   55.3433 C   0  0  1  0  0  0  0  0  0  0  0  0
   27.6001    6.9732   54.1912 O   0  0  0  0  0  0  0  0  0  0  0  0
   29.8013    6.5877   55.9702 C   0  0  1  0  0  0  0  0  0  0  0  0
   31.0687    7.2758   56.5917 C   0  0  2  0  0  0  0  0  0  0  0  0
   31.1840    8.6546   56.2839 O   0  0  0  0  0  0  0  0  0  0  0  0
   32.1330    6.3906   55.9588 C   0  0  2  0  0  0  0  0  0  0  0  0
   32.2131    6.6118   54.5185 O   0  0  0  0  0  0  0  0  0  0  0  0
   31.5776    4.9905   56.1794 C   0  0  2  0  0  0  0  0  0  0  0  0
   30.1917    5.1922   55.8535 O   0  0  0  0  0  0  0  0  0  0  0  0
   31.7818    4.4207   57.6214 C   0  0  0  0  0  0  0  0  0  0  0  0
   33.1480    4.0586   57.8588 O   0  0  0  0  0  0  0  0  0  0  0  0
   33.4222    6.1437   53.9264 C   0  0  2  0  0  0  0  0  0  0  0  0
   33.5397    6.4026   52.3858 C   0  0  2  0  0  0  0  0  0  0  0  0
   32.4222    5.7879   51.6068 N   0  3  0  0  0  0  0  0  0  0  0  0
   34.9302    5.8453   51.9324 C   0  0  1  0  0  0  0  0  0  0  0  0
   35.9669    6.6337   52.6332 O   0  0  0  0  0  0  0  0  0  0  0  0
   35.1197    4.3213   52.2972 C   0  0  2  0  0  0  0  0  0  0  0  0
   34.1472    3.5531   51.5701 O   0  0  0  0  0  0  0  0  0  0  0  0
   34.9414    4.1631   53.8641 C   0  0  1  0  0  0  0  0  0  0  0  0
   33.6167    4.6884   54.2142 O   0  0  0  0  0  0  0  0  0  0  0  0
   35.0818    2.7139   54.3829 C   0  0  0  0  0  0  0  0  0  0  0  0
   34.0984    2.3677   55.4449 N   0  3  0  0  0  0  0  0  0  0  0  0
  1  2  1  1  0  0  0
  1  3  1  0  0  0  0
  1 10  1  0  0  0  0
  3  4  1  6  0  0  0
  3  5  1  0  0  0  0
  5  6  1  1  0  0  0
  5  7  1  0  0  0  0
  7  8  1  1  0  0  0
  7  9  1  0  0  0  0
  9 10  1  0  0  0  0
  9 11  1  1  0  0  0
 11 12  1  0  0  0  0
 13 14  1  6  0  0  0
 13 15  1  0  0  0  0
 13 21  1  0  0  0  0
 15 16  1  0  0  0  0
 16 17  1  1  0  0  0
 16 18  1  0  0  0  0
 18  2  1  1  0  0  0
 18 19  1  0  0  0  0
 19 20  1  1  0  0  0
 19 21  1  0  0  0  0
 21 22  1  6  0  0  0
 23 20  1  1  0  0  0
 23 24  1  0  0  0  0
 23 29  1  0  0  0  0
 24 25  1  6  0  0  0
 24 26  1  0  0  0  0
 26 27  1  6  0  0  0
 26 28  1  0  0  0  0
 28 29  1  0  0  0  0
 28 30  1  1  0  0  0
 30 31  1  0  0  0  0
 32 27  1  6  0  0  0
 32 33  1  0  0  0  0
 32 40  1  0  0  0  0
 33 34  1  6  0  0  0
 33 35  1  0  0  0  0
 35 36  1  1  0  0  0
 35 37  1  0  0  0  0
 37 38  1  6  0  0  0
 37 39  1  0  0  0  0
 39 40  1  0  0  0  0
 39 41  1  6  0  0  0
 41 42  1  0  0  0  0
M  CHG  5   4   1  14   1  17   1  34   1  42   1
M  END
>  <CHROM.1>
170.39544571,-172.94098351,-151.86367920,63.91042351,64.71320624,-178.92944571
179.29388049,-126.41444898,53.08239170,-179.07586607,167.82990629,-65.10258839
-58.13919213,161.95776935,-178.65309051,-72.96313330,-172.81789057,171.90836002
-56.46763894,-178.43867195,-139.84389536,73.56186077,29.87785828,6.08400007
56.75859510,-2.49955924,0.41051060,-1.35973520

>  <Name>
1j7t

>  <RI>
0

>  <Rbt.Current_Directory>
/home/itssahil/PROJECTS/Mol_Feturizer/New_Systems/rnas/1j7t

>  <Rbt.Executable>
rbdock ($Id: //depot/dev/client3/rdock/2013.1/src/exe/rbdock.cxx#4 $)

>  <Rbt.Library>
libRbt.so (2013.1, Build901 2013/11/27)

>  <Rbt.Parameter_File>
/export/apps/rDock/src/rDock_2013.1_src/data/scripts/dock_solv.prm

>  <Rbt.Receptor>
prm/pocket_docking_4.prm

>  <SCORE>
-53.4484

>  <SCORE.INTER>
-35.5515

>  <SCORE.INTER.CONST>
1

>  <SCORE.INTER.POLAR>
-6.76807

>  <SCORE.INTER.ROT>
9

>  <SCORE.INTER.SOLV>
22.4508

>  <SCORE.INTER.VDW>
-18.2244

>  <SCORE.INTER.norm>
-0.846465

>  <SCORE.INTRA>
-17.8968

>  <SCORE.INTRA.DIHEDRAL>
-31.6054

>  <SCORE.INTRA.DIHEDRAL.0>
46.2143

>  <SCORE.INTRA.POLAR>
-0.17379

>  <SCORE.INTRA.POLAR.0>
-1.76436

>  <SCORE.INTRA.REPUL>
0.0444491

>  <SCORE.INTRA.REPUL.0>
0

>  <SCORE.INTRA.SOLV>
-3.3977

>  <SCORE.INTRA.SOLV.lig_0>
-148.643

>  <SCORE.INTRA.VDW>
-0.0266413

>  <SCORE.INTRA.VDW.0>
-4.83512

>  <SCORE.INTRA.norm>
-0.426115

>  <SCORE.RESTR>
0

>  <SCORE.RESTR.CAVITY>
0

>  <SCORE.RESTR.norm>
0

>  <SCORE.SYSTEM>
0

>  <SCORE.SYSTEM.CONST>
0

>  <SCORE.SYSTEM.DIHEDRAL>
0

>  <SCORE.SYSTEM.SOLV>
0

>  <SCORE.SYSTEM.norm>
0

>  <SCORE.heavy>
42

>  <SCORE.norm>
-1.27258

>  <RMSD>
9.290

$$$$
1j7t
 OpenBabel11021811393D
libRbt.so/2013.1/901 2013/11/27
 42 45  0  0  0  0  0  0  0  0999 V2000
   25.6980   11.0885   61.9745 C   0  0  2  0  0  0  0  0  0  0  0  0
   26.8177   11.9768   61.7304 O   0  0  0  0  0  0  0  0  0  0  0  0
   24.6014   11.9297   62.6886 C   0  0  2  0  0  0  0  0  0  0  0  0
   24.2232   13.1845   61.9772 N   0  3  0  0  0  0  0  0  0  0  0  0
   25.1295   12.3163   64.0874 C   0  0  1  0  0  0  0  0  0  0  0  0
   24.1744   13.0642   64.7860 O   0  0  0  0  0  0  0  0  0  0  0  0
   25.5121   11.0441   64.8803 C   0  0  2  0  0  0  0  0  0  0  0  0
   25.9784   11.3748   66.1734 O   0  0  0  0  0  0  0  0  0  0  0  0
   26.5935   10.2841   64.1419 C   0  0  2  0  0  0  0  0  0  0  0  0
   26.1438    9.9866   62.8261 O   0  0  0  0  0  0  0  0  0  0  0  0
   26.9410    8.9646   64.7938 C   0  0  0  0  0  0  0  0  0  0  0  0
   25.8417    8.0809   64.6846 O   0  0  0  0  0  0  0  0  0  0  0  0
   29.9564   11.6837   58.9178 C   0  0  2  0  0  0  0  0  0  0  0  0
   31.1642   11.2236   58.2316 N   0  3  0  0  0  0  0  0  0  0  0  0
   30.3160   12.1767   60.3587 C   0  0  0  0  0  0  0  0  0  0  0  0
   29.0401   12.6163   61.1020 C   0  0  2  0  0  0  0  0  0  0  0  0
   29.3520   13.0312   62.4737 N   0  3  0  0  0  0  0  0  0  0  0  0
   28.0158   11.4651   61.1353 C   0  0  2  0  0  0  0  0  0  0  0  0
   27.6634   10.9406   59.7296 C   0  0  2  0  0  0  0  0  0  0  0  0
   26.8314    9.7824   59.9337 O   0  0  0  0  0  0  0  0  0  0  0  0
   28.9512   10.5439   58.9642 C   0  0  1  0  0  0  0  0  0  0  0  0
   28.6131   10.1669   57.6578 O   0  0  0  0  0  0  0  0  0  0  0  0
   27.2089    8.4646   59.5436 C   0  0  1  0  0  0  0  0  0  0  0  0
   27.5628    7.6434   60.8345 C   0  0  2  0  0  0  0  0  0  0  0  0
   28.9156    7.7635   61.2400 O   0  0  0  0  0  0  0  0  0  0  0  0
   27.1687    6.2617   60.3318 C   0  0  2  0  0  0  0  0  0  0  0  0
   28.0816    5.8002   59.2910 O   0  0  0  0  0  0  0  0  0  0  0  0
   25.8173    6.5166   59.6790 C   0  0  2  0  0  0  0  0  0  0  0  0
   26.0801    7.7442   58.9779 O   0  0  0  0  0  0  0  0  0  0  0  0
   24.6170    6.6350   60.6744 C   0  0  0  0  0  0  0  0  0  0  0  0
   25.0292    7.1667   61.9398 O   0  0  0  0  0  0  0  0  0  0  0  0
   27.6885    4.5758   58.6763 C   0  0  2  0  0  0  0  0  0  0  0  0
   28.8482    3.7980   57.9661 C   0  0  2  0  0  0  0  0  0  0  0  0
   29.5245    4.6051   56.9056 N   0  3  0  0  0  0  0  0  0  0  0  0
   28.2282    2.4854   57.3808 C   0  0  1  0  0  0  0  0  0  0  0  0
   27.7413    1.6840   58.5246 O   0  0  0  0  0  0  0  0  0  0  0  0
   27.0174    2.7689   56.4088 C   0  0  2  0  0  0  0  0  0  0  0  0
   27.5058    3.4983   55.2712 O   0  0  0  0  0  0  0  0  0  0  0  0
   25.9242    3.5914   57.2091 C   0  0  1  0  0  0  0  0  0  0  0  0
   26.5681    4.8099   57.7129 O   0  0  0  0  0  0  0  0  0  0  0  0
   24.6718    3.9658   56.3844 C   0  0  0  0  0  0  0  0  0  0  0  0
   23.8081    2.7989   56.0571 N   0  3  0  0  0  0  0  0  0  0  0  0
  1  2  1  1  0  0  0
  1  3  1  0  0  0  0
  1 10  1  0  0  0  0
  3  4  1  6  0  0  0
  3  5  1  0  0  0  0
  5  6  1  1  0  0  0
  5  7  1  0  0  0  0
  7  8  1  1  0  0  0
  7  9  1  0  0  0  0
  9 10  1  0  0  0  0
  9 11  1  1  0  0  0
 11 12  1  0  0  0  0
 13 14  1  1  0  0  0
 13 15  1  0  0  0  0
 13 21  1  0  0  0  0
 15 16  1  0  0  0  0
 16 17  1  1  0  0  0
 16 18  1  0  0  0  0
 18  2  1  6  0  0  0
 18 19  1  0  0  0  0
 19 20  1  1  0  0  0
 19 21  1  0  0  0  0
 21 22  1  6  0  0  0
 23 20  1  1  0  0  0
 23 24  1  0  0  0  0
 23 29  1  0  0  0  0
 24 25  1  6  0  0  0
 24 26  1  0  0  0  0
 26 27  1  6  0  0  0
 26 28  1  0  0  0  0
 28 29  1  0  0  0  0
 28 30  1  1  0  0  0
 30 31  1  0  0  0  0
 32 27  1  6  0  0  0
 32 33  1  0  0  0  0
 32 40  1  0  0  0  0
 33 34  1  6  0  0  0
 33 35  1  0  0  0  0
 35 36  1  1  0  0  0
 35 37  1  0  0  0  0
 37 38  1  6  0  0  0
 37 39  1  0  0  0  0
 39 40  1  0  0  0  0
 39 41  1  6  0  0  0
 41 42  1  0  0  0  0
M  CHG  5   4   1  14   1  17   1  34   1  42   1
M  END
>  <CHROM.1>
177.05071150,-176.01000659,-159.88514317,68.32361472,58.49839438,67.32510626
61.85078691,45.57773117,70.57648315,-115.98745977,106.99835677,169.29421198
179.37914789,-173.67309454,-158.73383117,30.34796488,155.16563419,-69.88655511
-60.44113757,-175.52459647,70.19943343,-53.49843074,27.02545726,8.31546919
60.34302832,1.63583034,0.73338620,0.58524446

>  <Name>
1j7t

>  <RI>
0

>  <Rbt.Current_Directory>
/home/itssahil/PROJECTS/Mol_Feturizer/New_Systems/rnas/1j7t

>  <Rbt.Executable>
rbdock ($Id: //depot/dev/client3/rdock/2013.1/src/exe/rbdock.cxx#4 $)

>  <Rbt.Library>
libRbt.so (2013.1, Build901 2013/11/27)

>  <Rbt.Parameter_File>
/export/apps/rDock/src/rDock_2013.1_src/data/scripts/dock_solv.prm

>  <Rbt.Receptor>
prm/pocket_docking_8.prm

>  <SCORE>
-49.2848

>  <SCORE.INTER>
-38.3204

>  <SCORE.INTER.CONST>
1

>  <SCORE.INTER.POLAR>
-8.39131

>  <SCORE.INTER.ROT>
9

>  <SCORE.INTER.SOLV>
21.8148

>  <SCORE.INTER.VDW>
-14.4475

>  <SCORE.INTER.norm>
-0.91239

>  <SCORE.INTRA>
-10.9644

>  <SCORE.INTRA.DIHEDRAL>
-21.1233

>  <SCORE.INTRA.DIHEDRAL.0>
46.2143

>  <SCORE.INTRA.POLAR>
-0.118583

>  <SCORE.INTRA.POLAR.0>
-1.76436

>  <SCORE.INTRA.REPUL>
0

>  <SCORE.INTRA.REPUL.0>
0

>  <SCORE.INTRA.SOLV>
-4.38118

>  <SCORE.INTRA.SOLV.lig_0>
-148.643

>  <SCORE.INTRA.VDW>
2.19103

>  <SCORE.INTRA.VDW.0>
-4.83512

>  <SCORE.INTRA.norm>
-0.261057

>  <SCORE.RESTR>
0

>  <SCORE.RESTR.CAVITY>
0

>  <SCORE.RESTR.norm>
0

>  <SCORE.SYSTEM>
0

>  <SCORE.SYSTEM.CONST>
0

>  <SCORE.SYSTEM.DIHEDRAL>
0

>  <SCORE.SYSTEM.SOLV>
0

>  <SCORE.SYSTEM.norm>
0

>  <SCORE.heavy>
42

>  <SCORE.norm>
-1.17345

>  <RMSD>
9.308

$$$$
1j7t
 OpenBabel11021811393D
libRbt.so/2013.1/901 2013/11/27
 42 45  0  0  0  0  0  0  0  0999 V2000
   26.3429    3.1656   59.5203 C   0  0  2  0  0  0  0  0  0  0  0  0
   27.1453    4.2606   59.0107 O   0  0  0  0  0  0  0  0  0  0  0  0
   26.3600    2.0504   58.4358 C   0  0  2  0  0  0  0  0  0  0  0  0
   27.7233    1.6365   57.9956 N   0  3  0  0  0  0  0  0  0  0  0  0
   25.5988    2.5741   57.1983 C   0  0  1  0  0  0  0  0  0  0  0  0
   25.5674    1.6027   56.1909 O   0  0  0  0  0  0  0  0  0  0  0  0
   24.1637    2.9932   57.5964 C   0  0  2  0  0  0  0  0  0  0  0  0
   23.4416    3.4562   56.4724 O   0  0  0  0  0  0  0  0  0  0  0  0
   24.2191    4.0910   58.6375 C   0  0  2  0  0  0  0  0  0  0  0  0
   24.9806    3.6437   59.7519 O   0  0  0  0  0  0  0  0  0  0  0  0
   22.8554    4.4757   59.1661 C   0  0  0  0  0  0  0  0  0  0  0  0
   22.8631    5.8396   59.5417 O   0  0  0  0  0  0  0  0  0  0  0  0
   25.9732    7.1842   61.8262 C   0  0  2  0  0  0  0  0  0  0  0  0
   25.9319    8.4257   62.5996 N   0  3  0  0  0  0  0  0  0  0  0  0
   27.3361    6.4527   62.0632 C   0  0  0  0  0  0  0  0  0  0  0  0
   27.4036    5.1697   61.2129 C   0  0  2  0  0  0  0  0  0  0  0  0
   28.6969    4.4991   61.3818 N   0  3  0  0  0  0  0  0  0  0  0  0
   27.1896    5.5023   59.7232 C   0  0  2  0  0  0  0  0  0  0  0  0
   25.8663    6.2484   59.4637 C   0  0  2  0  0  0  0  0  0  0  0  0
   25.8862    6.6226   58.0727 O   0  0  0  0  0  0  0  0  0  0  0  0
   25.7771    7.5132   60.3549 C   0  0  1  0  0  0  0  0  0  0  0  0
   24.5254    8.1165   60.1747 O   0  0  0  0  0  0  0  0  0  0  0  0
   27.0684    7.0174   57.3815 C   0  0  1  0  0  0  0  0  0  0  0  0
   27.1882    6.1641   56.0686 C   0  0  2  0  0  0  0  0  0  0  0  0
   27.8660    4.9316   56.2432 O   0  0  0  0  0  0  0  0  0  0  0  0
   27.9271    7.1817   55.2109 C   0  0  2  0  0  0  0  0  0  0  0  0
   29.2899    7.3847   55.6920 O   0  0  0  0  0  0  0  0  0  0  0  0
   27.1509    8.4650   55.4717 C   0  0  2  0  0  0  0  0  0  0  0  0
   26.9569    8.3824   56.8941 O   0  0  0  0  0  0  0  0  0  0  0  0
   25.8051    8.5919   54.6853 C   0  0  0  0  0  0  0  0  0  0  0  0
   25.8827    7.9652   53.3987 O   0  0  0  0  0  0  0  0  0  0  0  0
   30.1924    7.8565   54.6948 C   0  0  2  0  0  0  0  0  0  0  0  0
   29.5921    7.9276   53.2495 C   0  0  2  0  0  0  0  0  0  0  0  0
   29.0818    6.6084   52.7672 N   0  3  0  0  0  0  0  0  0  0  0  0
   30.7160    8.4853   52.3137 C   0  0  1  0  0  0  0  0  0  0  0  0
   31.0273    9.8563   52.7732 O   0  0  0  0  0  0  0  0  0  0  0  0
   32.0351    7.6204   52.3697 C   0  0  2  0  0  0  0  0  0  0  0  0
   31.7413    6.3061   51.8688 O   0  0  0  0  0  0  0  0  0  0  0  0
   32.5339    7.5782   53.8735 C   0  0  1  0  0  0  0  0  0  0  0  0
   31.4413    7.0328   54.6872 O   0  0  0  0  0  0  0  0  0  0  0  0
   33.8180    6.7483   54.1007 C   0  0  0  0  0  0  0  0  0  0  0  0
   34.8776    7.0088   53.0888 N   0  3  0  0  0  0  0  0  0  0  0  0
  1  2  1  6  0  0  0
  1  3  1  0  0  0  0
  1 10  1  0  0  0  0
  3  4  1  6  0  0  0
  3  5  1  0  0  0  0
  5  6  1  6  0  0  0
  5  7  1  0  0  0  0
  7  8  1  6  0  0  0
  7  9  1  0  0  0  0
  9 10  1  0  0  0  0
  9 11  1  1  0  0  0
 11 12  1  0  0  0  0
 13 14  1  1  0  0  0
 13 15  1  0  0  0  0
 13 21  1  0  0  0  0
 15 16  1  0  0  0  0
 16 17  1  6  0  0  0
 16 18  1  0  0  0  0
 18  2  1  6  0  0  0
 18 19  1  0  0  0  0
 19 20  1  6  0  0  0
 19 21  1  0  0  0  0
 21 22  1  1  0  0  0
 23 20  1  6  0  0  0
 23 24  1  0  0  0  0
 23 29  1  0  0  0  0
 24 25  1  1  0  0  0
 24 26  1  0  0  0  0
 26 27  1  1  0  0  0
 26 28  1  0  0  0  0
 28 29  1  0  0  0  0
 28 30  1  6  0  0  0
 30 31  1  0  0  0  0
 32 27  1  1  0  0  0
 32 33  1  0  0  0  0
 32 40  1  0  0  0  0
 33 34  1  6  0  0  0
 33 35  1  0  0  0  0
 35 36  1  1  0  0  0
 35 37  1  0  0  0  0
 37 38  1  1  0  0  0
 37 39  1  0  0  0  0
 39 40  1  0  0  0  0
 39 41  1  6  0  0  0
 41 42  1  0  0  0  0
M  CHG  5   4   1  14   1  17   1  34   1  42   1
M  END
>  <CHROM.1>
172.70008943,46.14000918,178.30875565,178.83477878,-58.58736552,-150.00512323
73.93927141,179.38062314,149.14848809,-35.92620909,128.44187883,-63.92947701
-54.37252035,155.63700656,-5.92566175,-33.17671459,165.26317226,137.21347199
169.92638498,76.37062025,44.94148282,172.43352732,27.58176598,6.05551220
56.94897633,2.85920104,0.81765426,0.76126914

>  <Name>
1j7t

>  <RI>
0

>  <Rbt.Current_Directory>
/home/itssahil/PROJECTS/Mol_Feturizer/New_Systems/rnas/1j7t

>  <Rbt.Executable>
rbdock ($Id: //depot/dev/client3/rdock/2013.1/src/exe/rbdock.cxx#4 $)

>  <Rbt.Library>
libRbt.so (2013.1, Build901 2013/11/27)

>  <Rbt.Parameter_File>
/export/apps/rDock/src/rDock_2013.1_src/data/scripts/dock_solv.prm

>  <Rbt.Receptor>
prm/pocket_docking_2.prm

>  <SCORE>
-29.1819

>  <SCORE.INTER>
-35.5845

>  <SCORE.INTER.CONST>
1

>  <SCORE.INTER.POLAR>
-6.95892

>  <SCORE.INTER.ROT>
9

>  <SCORE.INTER.SOLV>
19.6653

>  <SCORE.INTER.VDW>
-16.6817

>  <SCORE.INTER.norm>
-0.84725

>  <SCORE.INTRA>
-0.151973

>  <SCORE.INTRA.DIHEDRAL>
-11.5246

>  <SCORE.INTRA.DIHEDRAL.0>
46.2143

>  <SCORE.INTRA.POLAR>
0.531482

>  <SCORE.INTRA.POLAR.0>
-1.76436

>  <SCORE.INTRA.REPUL>
0

>  <SCORE.INTRA.REPUL.0>
0

>  <SCORE.INTRA.SOLV>
0.910668

>  <SCORE.INTRA.SOLV.lig_0>
-148.643

>  <SCORE.INTRA.VDW>
3.34798

>  <SCORE.INTRA.VDW.0>
-4.83512

>  <SCORE.INTRA.norm>
-0.0036184

>  <SCORE.RESTR>
6.55456

>  <SCORE.RESTR.CAVITY>
6.55456

>  <SCORE.RESTR.norm>
0.156061

>  <SCORE.SYSTEM>
0

>  <SCORE.SYSTEM.CONST>
0

>  <SCORE.SYSTEM.DIHEDRAL>
0

>  <SCORE.SYSTEM.SOLV>
0

>  <SCORE.SYSTEM.norm>
0

>  <SCORE.heavy>
42

>  <SCORE.norm>
-0.694807

>  <RMSD>
9.320

$$$$
1j7t
 OpenBabel11021811393D
libRbt.so/2013.1/901 2013/11/27
 42 45  0  0  0  0  0  0  0  0999 V2000
   25.5778    7.2591   59.1117 C   0  0  2  0  0  0  0  0  0  0  0  0
   26.1435    7.6189   60.3974 O   0  0  0  0  0  0  0  0  0  0  0  0
   24.0340    7.3984   59.2426 C   0  0  2  0  0  0  0  0  0  0  0  0
   23.5731    8.7238   59.7472 N   0  3  0  0  0  0  0  0  0  0  0  0
   23.5371    6.3159   60.2255 C   0  0  1  0  0  0  0  0  0  0  0  0
   22.1464    6.3827   60.3711 O   0  0  0  0  0  0  0  0  0  0  0  0
   23.9670    4.9140   59.7323 C   0  0  2  0  0  0  0  0  0  0  0  0
   23.5030    3.9053   60.6078 O   0  0  0  0  0  0  0  0  0  0  0  0
   25.4766    4.8402   59.6456 C   0  0  2  0  0  0  0  0  0  0  0  0
   25.9500    5.8800   58.7990 O   0  0  0  0  0  0  0  0  0  0  0  0
   25.9737    3.5382   59.0585 C   0  0  0  0  0  0  0  0  0  0  0  0
   25.5355    3.4280   57.7179 O   0  0  0  0  0  0  0  0  0  0  0  0
   29.9203    9.3542   61.1539 C   0  0  2  0  0  0  0  0  0  0  0  0
   31.3650    9.5082   61.3289 N   0  3  0  0  0  0  0  0  0  0  0  0
   29.3588    8.3469   62.2116 C   0  0  0  0  0  0  0  0  0  0  0  0
   27.8463    8.1445   61.9996 C   0  0  2  0  0  0  0  0  0  0  0  0
   27.3131    7.1618   62.9488 N   0  3  0  0  0  0  0  0  0  0  0  0
   27.5656    7.6709   60.5600 C   0  0  2  0  0  0  0  0  0  0  0  0
   28.1323    8.6311   59.4960 C   0  0  2  0  0  0  0  0  0  0  0  0
   27.9317    7.9814   58.2259 O   0  0  0  0  0  0  0  0  0  0  0  0
   29.6438    8.8726   59.7385 C   0  0  1  0  0  0  0  0  0  0  0  0
   30.1111    9.8242   58.8225 O   0  0  0  0  0  0  0  0  0  0  0  0
   28.3512    8.5384   56.9830 C   0  0  1  0  0  0  0  0  0  0  0  0
   28.3711    7.3965   55.9051 C   0  0  2  0  0  0  0  0  0  0  0  0
   29.5955    6.6851   55.8432 O   0  0  0  0  0  0  0  0  0  0  0  0
   28.0648    8.2453   54.6791 C   0  0  2  0  0  0  0  0  0  0  0  0
   29.1810    9.1291   54.3587 O   0  0  0  0  0  0  0  0  0  0  0  0
   26.9103    9.1157   55.1553 C   0  0  2  0  0  0  0  0  0  0  0  0
   27.3644    9.4754   56.4714 O   0  0  0  0  0  0  0  0  0  0  0  0
   25.5153    8.4090   55.1703 C   0  0  0  0  0  0  0  0  0  0  0  0
   24.9773    8.2718   53.8490 O   0  0  0  0  0  0  0  0  0  0  0  0
   29.8658    8.7858   53.1567 C   0  0  2  0  0  0  0  0  0  0  0  0
   30.5828    7.3932   53.1868 C   0  0  2  0  0  0  0  0  0  0  0  0
   31.5838    7.2792   54.2906 N   0  3  0  0  0  0  0  0  0  0  0  0
   31.2485    7.1904   51.7848 C   0  0  1  0  0  0  0  0  0  0  0  0
   30.1591    7.1491   50.7853 O   0  0  0  0  0  0  0  0  0  0  0  0
   32.2369    8.3621   51.4088 C   0  0  2  0  0  0  0  0  0  0  0  0
   33.3237    8.3626   52.3488 O   0  0  0  0  0  0  0  0  0  0  0  0
   31.4260    9.7233   51.4475 C   0  0  1  0  0  0  0  0  0  0  0  0
   30.8456    9.8548   52.7889 O   0  0  0  0  0  0  0  0  0  0  0  0
   32.2639   10.9792   51.1162 C   0  0  0  0  0  0  0  0  0  0  0  0
   31.4608   12.2312   51.0701 N   0  3  0  0  0  0  0  0  0  0  0  0
  1  2  1  1  0  0  0
  1  3  1  0  0  0  0
  1 10  1  0  0  0  0
  3  4  1  1  0  0  0
  3  5  1  0  0  0  0
  5  6  1  6  0  0  0
  5  7  1  0  0  0  0
  7  8  1  1  0  0  0
  7  9  1  0  0  0  0
  9 10  1  0  0  0  0
  9 11  1  6  0  0  0
 11 12  1  0  0  0  0
 13 14  1  6  0  0  0
 13 15  1  0  0  0  0
 13 21  1  0  0  0  0
 15 16  1  0  0  0  0
 16 17  1  1  0  0  0
 16 18  1  0  0  0  0
 18  2  1  1  0  0  0
 18 19  1  0  0  0  0
 19 20  1  6  0  0  0
 19 21  1  0  0  0  0
 21 22  1  6  0  0  0
 23 20  1  1  0  0  0
 23 24  1  0  0  0  0
 23 29  1  0  0  0  0
 24 25  1  6  0  0  0
 24 26  1  0  0  0  0
 26 27  1  1  0  0  0
 26 28  1  0  0  0  0
 28 29  1  0  0  0  0
 28 30  1  1  0  0  0
 30 31  1  0  0  0  0
 32 27  1  1  0  0  0
 32 33  1  0  0  0  0
 32 40  1  0  0  0  0
 33 34  1  1  0  0  0
 33 35  1  0  0  0  0
 35 36  1  6  0  0  0
 35 37  1  0  0  0  0
 37 38  1  1  0  0  0
 37 39  1  0  0  0  0
 39 40  1  0  0  0  0
 39 41  1  1  0  0  0
 41 42  1  0  0  0  0
M  CHG  5   4   1  14   1  17   1  34   1  42   1
M  END
>  <CHROM.1>
-175.90056006,177.27735450,59.13014845,179.44685713,172.43835592,63.91653232
179.28911468,170.82664572,-167.03537977,-178.56355723,162.89498539,156.10734638
68.56289931,110.72360100,-64.10434492,-75.29998652,174.27460251,62.20956413
-171.71490017,179.93577451,176.13397645,-176.54047215,28.04580399,7.80958967
56.96538091,2.26658709,0.51098399,1.49729264

>  <Name>
1j7t

>  <RI>
0

>  <Rbt.Current_Directory>
/home/itssahil/PROJECTS/Mol_Feturizer/New_Systems/rnas/1j7t

>  <Rbt.Executable>
rbdock ($Id: //depot/dev/client3/rdock/2013.1/src/exe/rbdock.cxx#4 $)

>  <Rbt.Library>
libRbt.so (2013.1, Build901 2013/11/27)

>  <Rbt.Parameter_File>
/export/apps/rDock/src/rDock_2013.1_src/data/scripts/dock_solv.prm

>  <Rbt.Receptor>
prm/pocket_docking_5.prm

>  <SCORE>
-54.2805

>  <SCORE.INTER>
-37.9655

>  <SCORE.INTER.CONST>
1

>  <SCORE.INTER.POLAR>
-5.68658

>  <SCORE.INTER.ROT>
9

>  <SCORE.INTER.SOLV>
35.8011

>  <SCORE.INTER.VDW>
-27.8888

>  <SCORE.INTER.norm>
-0.90394

>  <SCORE.INTRA>
-16.315

>  <SCORE.INTRA.DIHEDRAL>
-32.4307

>  <SCORE.INTRA.DIHEDRAL.0>
46.2143

>  <SCORE.INTRA.POLAR>
0.435558

>  <SCORE.INTRA.POLAR.0>
-1.76436

>  <SCORE.INTRA.REPUL>
0

>  <SCORE.INTRA.REPUL.0>
0

>  <SCORE.INTRA.SOLV>
-4.58976

>  <SCORE.INTRA.SOLV.lig_0>
-148.643

>  <SCORE.INTRA.VDW>
0.714289

>  <SCORE.INTRA.VDW.0>
-4.83512

>  <SCORE.INTRA.norm>
-0.388453

>  <SCORE.RESTR>
0

>  <SCORE.RESTR.CAVITY>
0

>  <SCORE.RESTR.norm>
0

>  <SCORE.SYSTEM>
0

>  <SCORE.SYSTEM.CONST>
0

>  <SCORE.SYSTEM.DIHEDRAL>
0

>  <SCORE.SYSTEM.SOLV>
0

>  <SCORE.SYSTEM.norm>
0

>  <SCORE.heavy>
42

>  <SCORE.norm>
-1.29239

>  <RMSD>
9.320

$$$$
1j7t
 OpenBabel11021811393D
libRbt.so/2013.1/901 2013/11/27
 42 45  0  0  0  0  0  0  0  0999 V2000
   24.2316    6.1771   59.8610 C   0  0  2  0  0  0  0  0  0  0  0  0
   24.9351    5.9472   58.6142 O   0  0  0  0  0  0  0  0  0  0  0  0
   24.1948    7.7166   60.0815 C   0  0  2  0  0  0  0  0  0  0  0  0
   23.6437    8.4929   58.9338 N   0  3  0  0  0  0  0  0  0  0  0  0
   25.6402    8.1992   60.3323 C   0  0  1  0  0  0  0  0  0  0  0  0
   25.6674    9.5810   60.5543 O   0  0  0  0  0  0  0  0  0  0  0  0
   26.2513    7.4416   61.5348 C   0  0  2  0  0  0  0  0  0  0  0  0
   27.5686    7.8842   61.7952 O   0  0  0  0  0  0  0  0  0  0  0  0
   26.2745    5.9553   61.2479 C   0  0  2  0  0  0  0  0  0  0  0  0
   24.9571    5.5147   60.9440 O   0  0  0  0  0  0  0  0  0  0  0  0
   26.7503    5.1320   62.4238 C   0  0  0  0  0  0  0  0  0  0  0  0
   26.7645    3.7634   62.0662 O   0  0  0  0  0  0  0  0  0  0  0  0
   24.8697    1.7245   58.7265 C   0  0  2  0  0  0  0  0  0  0  0  0
   25.0336    0.3247   58.3326 N   0  3  0  0  0  0  0  0  0  0  0  0
   23.8768    2.4406   57.7519 C   0  0  0  0  0  0  0  0  0  0  0  0
   23.7391    3.9268   58.1336 C   0  0  2  0  0  0  0  0  0  0  0  0
   22.8531    4.6263   57.1973 N   0  3  0  0  0  0  0  0  0  0  0  0
   25.1212    4.6092   58.1381 C   0  0  2  0  0  0  0  0  0  0  0  0
   26.1287    3.9075   59.0697 C   0  0  2  0  0  0  0  0  0  0  0  0
   27.3957    4.5559   58.8466 O   0  0  0  0  0  0  0  0  0  0  0  0
   26.2308    2.4020   58.7167 C   0  0  1  0  0  0  0  0  0  0  0  0
   27.0737    1.7685   59.6393 O   0  0  0  0  0  0  0  0  0  0  0  0
   27.7829    5.1154   57.5943 C   0  0  1  0  0  0  0  0  0  0  0  0
   29.3108    5.4724   57.6575 C   0  0  2  0  0  0  0  0  0  0  0  0
   29.5783    6.7688   58.1643 O   0  0  0  0  0  0  0  0  0  0  0  0
   29.6426    5.2835   56.1839 C   0  0  2  0  0  0  0  0  0  0  0  0
   29.0150    6.3169   55.3666 O   0  0  0  0  0  0  0  0  0  0  0  0
   28.9636    3.9612   55.8555 C   0  0  2  0  0  0  0  0  0  0  0  0
   27.7062    4.1241   56.5337 O   0  0  0  0  0  0  0  0  0  0  0  0
   29.7412    2.6876   56.3234 C   0  0  0  0  0  0  0  0  0  0  0  0
   31.0697    2.6517   55.7868 O   0  0  0  0  0  0  0  0  0  0  0  0
   29.4184    6.2993   53.9997 C   0  0  2  0  0  0  0  0  0  0  0  0
   28.9561    7.5416   53.1647 C   0  0  2  0  0  0  0  0  0  0  0  0
   27.4725    7.7219   53.1650 N   0  3  0  0  0  0  0  0  0  0  0  0
   29.5108    7.3505   51.7137 C   0  0  1  0  0  0  0  0  0  0  0  0
   30.9870    7.3552   51.8058 O   0  0  0  0  0  0  0  0  0  0  0  0
   29.0481    5.9889   51.0631 C   0  0  2  0  0  0  0  0  0  0  0  0
   27.6182    6.0121   50.9230 O   0  0  0  0  0  0  0  0  0  0  0  0
   29.5274    4.8054   52.0020 C   0  0  1  0  0  0  0  0  0  0  0  0
   28.9599    5.0400   53.3347 O   0  0  0  0  0  0  0  0  0  0  0  0
   29.1336    3.3947   51.5081 C   0  0  0  0  0  0  0  0  0  0  0  0
   27.6630    3.1970   51.3937 N   0  3  0  0  0  0  0  0  0  0  0  0
  1  2  1  6  0  0  0
  1  3  1  0  0  0  0
  1 10  1  0  0  0  0
  3  4  1  6  0  0  0
  3  5  1  0  0  0  0
  5  6  1  1  0  0  0
  5  7  1  0  0  0  0
  7  8  1  6  0  0  0
  7  9  1  0  0  0  0
  9 10  1  0  0  0  0
  9 11  1  1  0  0  0
 11 12  1  0  0  0  0
 13 14  1  6  0  0  0
 13 15  1  0  0  0  0
 13 21  1  0  0  0  0
 15 16  1  0  0  0  0
 16 17  1  6  0  0  0
 16 18  1  0  0  0  0
 18  2  1  1  0  0  0
 18 19  1  0  0  0  0
 19 20  1  6  0  0  0
 19 21  1  0  0  0  0
 21 22  1  1  0  0  0
 23 20  1  1  0  0  0
 23 24  1  0  0  0  0
 23 29  1  0  0  0  0
 24 25  1  6  0  0  0
 24 26  1  0  0  0  0
 26 27  1  6  0  0  0
 26 28  1  0  0  0  0
 28 29  1  0  0  0  0
 28 30  1  1  0  0  0
 30 31  1  0  0  0  0
 32 27  1  1  0  0  0
 32 33  1  0  0  0  0
 32 40  1  0  0  0  0
 33 34  1  6  0  0  0
 33 35  1  0  0  0  0
 35 36  1  1  0  0  0
 35 37  1  0  0  0  0
 37 38  1  1  0  0  0
 37 39  1  0  0  0  0
 39 40  1  0  0  0  0
 39 41  1  6  0  0  0
 41 42  1  0  0  0  0
M  CHG  5   4   1  14   1  17   1  34   1  42   1
M  END
>  <CHROM.1>
-179.62334635,51.95657248,-72.84058150,179.78829820,-58.62414166,-178.98350544
-48.57259650,-166.67602426,-60.12401666,-31.31967061,-169.02710313,63.80489319
-56.50821159,172.56696654,-169.84844883,-56.40664363,-174.65259993,158.11040819
-179.14643378,78.43530808,-60.56025171,42.69109593,27.14861296,5.22124042
57.04312270,-2.92926661,-1.11927925,-2.91348757

>  <Name>
1j7t

>  <RI>
0

>  <Rbt.Current_Directory>
/home/itssahil/PROJECTS/Mol_Feturizer/New_Systems/rnas/1j7t

>  <Rbt.Executable>
rbdock ($Id: //depot/dev/client3/rdock/2013.1/src/exe/rbdock.cxx#4 $)

>  <Rbt.Library>
libRbt.so (2013.1, Build901 2013/11/27)

>  <Rbt.Parameter_File>
/export/apps/rDock/src/rDock_2013.1_src/data/scripts/dock_solv.prm

>  <Rbt.Receptor>
prm/pocket_docking_6.prm

>  <SCORE>
-37.5089

>  <SCORE.INTER>
-19.2532

>  <SCORE.INTER.CONST>
1

>  <SCORE.INTER.POLAR>
-4.36392

>  <SCORE.INTER.ROT>
9

>  <SCORE.INTER.SOLV>
14.1843

>  <SCORE.INTER.VDW>
-12.6171

>  <SCORE.INTER.norm>
-0.458409

>  <SCORE.INTRA>
-18.2557

>  <SCORE.INTRA.DIHEDRAL>
-35.4041

>  <SCORE.INTRA.DIHEDRAL.0>
46.2143

>  <SCORE.INTRA.POLAR>
0.108015

>  <SCORE.INTRA.POLAR.0>
-1.76436

>  <SCORE.INTRA.REPUL>
0.00842646

>  <SCORE.INTRA.REPUL.0>
0

>  <SCORE.INTRA.SOLV>
-2.00872

>  <SCORE.INTRA.SOLV.lig_0>
-148.643

>  <SCORE.INTRA.VDW>
0.0412965

>  <SCORE.INTRA.VDW.0>
-4.83512

>  <SCORE.INTRA.norm>
-0.43466

>  <SCORE.RESTR>
0

>  <SCORE.RESTR.CAVITY>
0

>  <SCORE.RESTR.norm>
0

>  <SCORE.SYSTEM>
0

>  <SCORE.SYSTEM.CONST>
0

>  <SCORE.SYSTEM.DIHEDRAL>
0

>  <SCORE.SYSTEM.SOLV>
0

>  <SCORE.SYSTEM.norm>
0

>  <SCORE.heavy>
42

>  <SCORE.norm>
-0.893069

>  <RMSD>
9.321

$$$$
1j7t
 OpenBabel11021811393D
libRbt.so/2013.1/901 2013/11/27
 42 45  0  0  0  0  0  0  0  0999 V2000
   29.4440    5.3059   58.6755 C   0  0  2  0  0  0  0  0  0  0  0  0
   30.3406    6.1287   57.8872 O   0  0  0  0  0  0  0  0  0  0  0  0
   30.2496    4.0477   59.1091 C   0  0  2  0  0  0  0  0  0  0  0  0
   31.5414    4.3453   59.7919 N   0  3  0  0  0  0  0  0  0  0  0  0
   30.5600    3.2183   57.8439 C   0  0  1  0  0  0  0  0  0  0  0  0
   31.2728    2.0602   58.1758 O   0  0  0  0  0  0  0  0  0  0  0  0
   29.2464    2.8584   57.1100 C   0  0  2  0  0  0  0  0  0  0  0  0
   29.5069    2.0798   55.9588 O   0  0  0  0  0  0  0  0  0  0  0  0
   28.5234    4.1239   56.7002 C   0  0  2  0  0  0  0  0  0  0  0  0
   28.2972    4.9292   57.8501 O   0  0  0  0  0  0  0  0  0  0  0  0
   27.1701    3.8587   56.0794 C   0  0  0  0  0  0  0  0  0  0  0  0
   26.5611    5.0878   55.7337 O   0  0  0  0  0  0  0  0  0  0  0  0
   27.6005    8.9396   56.3256 C   0  0  2  0  0  0  0  0  0  0  0  0
   27.0457   10.1790   55.7801 N   0  3  0  0  0  0  0  0  0  0  0  0
   28.1605    9.1933   57.7645 C   0  0  0  0  0  0  0  0  0  0  0  0
   28.7895    7.9027   58.3233 C   0  0  2  0  0  0  0  0  0  0  0  0
   29.3677    8.1361   59.6508 N   0  3  0  0  0  0  0  0  0  0  0  0
   29.8853    7.3849   57.3711 C   0  0  2  0  0  0  0  0  0  0  0  0
   29.3679    7.1522   55.9382 C   0  0  2  0  0  0  0  0  0  0  0  0
   30.5254    6.8273   55.1445 O   0  0  0  0  0  0  0  0  0  0  0  0
   28.6918    8.4363   55.3943 C   0  0  1  0  0  0  0  0  0  0  0  0
   28.1424    8.1691   54.1334 O   0  0  0  0  0  0  0  0  0  0  0  0
   30.6226    7.0975   53.7485 C   0  0  1  0  0  0  0  0  0  0  0  0
   32.0520    7.6751   53.4497 C   0  0  2  0  0  0  0  0  0  0  0  0
   32.1447    9.0825   53.5894 O   0  0  0  0  0  0  0  0  0  0  0  0
   32.2020    7.1652   52.0232 C   0  0  2  0  0  0  0  0  0  0  0  0
   31.2861    7.8535   51.1193 O   0  0  0  0  0  0  0  0  0  0  0  0
   31.7390    5.7194   52.1347 C   0  0  2  0  0  0  0  0  0  0  0  0
   30.5813    5.8675   52.9747 O   0  0  0  0  0  0  0  0  0  0  0  0
   32.7960    4.7336   52.7321 C   0  0  0  0  0  0  0  0  0  0  0  0
   32.3108    3.3852   52.7510 O   0  0  0  0  0  0  0  0  0  0  0  0
   31.4639    9.2671   51.0796 C   0  0  2  0  0  0  0  0  0  0  0  0
   30.1601   10.0829   50.7815 C   0  0  2  0  0  0  0  0  0  0  0  0
   29.5198    9.7011   49.4862 N   0  3  0  0  0  0  0  0  0  0  0  0
   30.5525   11.5979   50.8033 C   0  0  1  0  0  0  0  0  0  0  0  0
   31.0129   11.9106   52.1736 O   0  0  0  0  0  0  0  0  0  0  0  0
   31.7133   11.9372   49.7891 C   0  0  2  0  0  0  0  0  0  0  0  0
   31.2424   11.6861   48.4550 O   0  0  0  0  0  0  0  0  0  0  0  0
   32.9643   11.0336   50.1505 C   0  0  1  0  0  0  0  0  0  0  0  0
   32.5295    9.6331   50.0952 O   0  0  0  0  0  0  0  0  0  0  0  0
   34.1895   11.2362   49.2303 C   0  0  0  0  0  0  0  0  0  0  0  0
   34.7034   12.6328   49.2281 N   0  3  0  0  0  0  0  0  0  0  0  0
  1  2  1  6  0  0  0
  1  3  1  0  0  0  0
  1 10  1  0  0  0  0
  3  4  1  6  0  0  0
  3  5  1  0  0  0  0
  5  6  1  1  0  0  0
  5  7  1  0  0  0  0
  7  8  1  6  0  0  0
  7  9  1  0  0  0  0
  9 10  1  0  0  0  0
  9 11  1  1  0  0  0
 11 12  1  0  0  0  0
 13 14  1  6  0  0  0
 13 15  1  0  0  0  0
 13 21  1  0  0  0  0
 15 16  1  0  0  0  0
 16 17  1  1  0  0  0
 16 18  1  0  0  0  0
 18  2  1  1  0  0  0
 18 19  1  0  0  0  0
 19 20  1  6  0  0  0
 19 21  1  0  0  0  0
 21 22  1  6  0  0  0
 23 20  1  1  0  0  0
 23 24  1  0  0  0  0
 23 29  1  0  0  0  0
 24 25  1  6  0  0  0
 24 26  1  0  0  0  0
 26 27  1  6  0  0  0
 26 28  1  0  0  0  0
 28 29  1  0  0  0  0
 28 30  1  1  0  0  0
 30 31  1  0  0  0  0
 32 27  1  6  0  0  0
 32 33  1  0  0  0  0
 32 40  1  0  0  0  0
 33 34  1  6  0  0  0
 33 35  1  0  0  0  0
 35 36  1  1  0  0  0
 35 37  1  0  0  0  0
 37 38  1  6  0  0  0
 37 39  1  0  0  0  0
 39 40  1  0  0  0  0
 39 41  1  6  0  0  0
 41 42  1  0  0  0  0
M  CHG  5   4   1  14   1  17   1  34   1  42   1
M  END
>  <CHROM.1>
-178.44737341,27.75635564,-162.48192094,54.98239896,64.76509247,179.66949149
-178.47551923,-171.05149079,178.09078413,-151.83717218,136.94239633,60.98123963
162.85390163,58.87890182,-149.59800694,-177.43658292,67.99416125,62.55392407
88.46539696,-177.66795766,59.15268738,65.30521572,30.38955750,7.37662836
54.32667763,2.01610261,-0.92807122,2.61151848

>  <Name>
1j7t

>  <RI>
0

>  <Rbt.Current_Directory>
/home/itssahil/PROJECTS/Mol_Feturizer/New_Systems/rnas/1j7t

>  <Rbt.Executable>
rbdock ($Id: //depot/dev/client3/rdock/2013.1/src/exe/rbdock.cxx#4 $)

>  <Rbt.Library>
libRbt.so (2013.1, Build901 2013/11/27)

>  <Rbt.Parameter_File>
/export/apps/rDock/src/rDock_2013.1_src/data/scripts/dock_solv.prm

>  <Rbt.Receptor>
prm/pocket_docking_6.prm

>  <SCORE>
-53.1614

>  <SCORE.INTER>
-47.3326

>  <SCORE.INTER.CONST>
1

>  <SCORE.INTER.POLAR>
-7.6752

>  <SCORE.INTER.ROT>
9

>  <SCORE.INTER.SOLV>
27.1529

>  <SCORE.INTER.VDW>
-24.622

>  <SCORE.INTER.norm>
-1.12697

>  <SCORE.INTRA>
-5.82881

>  <SCORE.INTRA.DIHEDRAL>
-22.7225

>  <SCORE.INTRA.DIHEDRAL.0>
46.2143

>  <SCORE.INTRA.POLAR>
1.23348

>  <SCORE.INTRA.POLAR.0>
-1.76436

>  <SCORE.INTRA.REPUL>
0

>  <SCORE.INTRA.REPUL.0>
0

>  <SCORE.INTRA.SOLV>
-3.48448

>  <SCORE.INTRA.SOLV.lig_0>
-148.643

>  <SCORE.INTRA.VDW>
3.08088

>  <SCORE.INTRA.VDW.0>
-4.83512

>  <SCORE.INTRA.norm>
-0.138781

>  <SCORE.RESTR>
0

>  <SCORE.RESTR.CAVITY>
0

>  <SCORE.RESTR.norm>
0

>  <SCORE.SYSTEM>
0

>  <SCORE.SYSTEM.CONST>
0

>  <SCORE.SYSTEM.DIHEDRAL>
0

>  <SCORE.SYSTEM.SOLV>
0

>  <SCORE.SYSTEM.norm>
0

>  <SCORE.heavy>
42

>  <SCORE.norm>
-1.26575

>  <RMSD>
9.333

$$$$
1j7t
 OpenBabel11021811393D
libRbt.so/2013.1/901 2013/11/27
 42 45  0  0  0  0  0  0  0  0999 V2000
   28.0428    8.9807   60.0662 C   0  0  2  0  0  0  0  0  0  0  0  0
   27.9696    7.8753   61.0017 O   0  0  0  0  0  0  0  0  0  0  0  0
   28.7259   10.1612   60.8145 C   0  0  2  0  0  0  0  0  0  0  0  0
   30.0361    9.8215   61.4401 N   0  3  0  0  0  0  0  0  0  0  0  0
   27.7726   10.6347   61.9334 C   0  0  1  0  0  0  0  0  0  0  0  0
   28.3300   11.7110   62.6336 O   0  0  0  0  0  0  0  0  0  0  0  0
   26.4021   11.0265   61.3320 C   0  0  2  0  0  0  0  0  0  0  0  0
   25.5202   11.4839   62.3382 O   0  0  0  0  0  0  0  0  0  0  0  0
   25.7852    9.8314   60.6370 C   0  0  2  0  0  0  0  0  0  0  0  0
   26.6877    9.3427   59.6528 O   0  0  0  0  0  0  0  0  0  0  0  0
   24.4952   10.1630   59.9207 C   0  0  0  0  0  0  0  0  0  0  0  0
   24.7641   11.0495   58.8516 O   0  0  0  0  0  0  0  0  0  0  0  0
   27.5126    3.7088   60.4733 C   0  0  2  0  0  0  0  0  0  0  0  0
   26.9443    2.4130   60.1001 N   0  3  0  0  0  0  0  0  0  0  0  0
   26.5917    4.4129   61.5243 C   0  0  0  0  0  0  0  0  0  0  0  0
   27.1610    5.7988   61.8834 C   0  0  2  0  0  0  0  0  0  0  0  0
   26.2814    6.4958   62.8276 N   0  3  0  0  0  0  0  0  0  0  0  0
   27.3293    6.6546   60.6126 C   0  0  2  0  0  0  0  0  0  0  0  0
   28.2103    5.9727   59.5477 C   0  0  2  0  0  0  0  0  0  0  0  0
   28.1427    6.8114   58.3783 O   0  0  0  0  0  0  0  0  0  0  0  0
   27.6650    4.5590   59.2221 C   0  0  1  0  0  0  0  0  0  0  0  0
   28.5376    3.9229   58.3294 O   0  0  0  0  0  0  0  0  0  0  0  0
   29.1973    6.9186   57.4257 C   0  0  1  0  0  0  0  0  0  0  0  0
   28.5792    7.3197   56.0389 C   0  0  2  0  0  0  0  0  0  0  0  0
   28.1653    6.2155   55.2525 O   0  0  0  0  0  0  0  0  0  0  0  0
   29.7688    8.0887   55.4814 C   0  0  2  0  0  0  0  0  0  0  0  0
   30.8835    7.1935   55.1883 O   0  0  0  0  0  0  0  0  0  0  0  0
   30.1795    8.9661   56.6556 C   0  0  2  0  0  0  0  0  0  0  0  0
   30.0768    8.0316   57.7437 O   0  0  0  0  0  0  0  0  0  0  0  0
   29.2957   10.2388   56.8675 C   0  0  0  0  0  0  0  0  0  0  0  0
   30.0647   11.3399   57.3674 O   0  0  0  0  0  0  0  0  0  0  0  0
   31.7783    7.6878   54.1951 C   0  0  2  0  0  0  0  0  0  0  0  0
   31.1240    7.9477   52.7956 C   0  0  2  0  0  0  0  0  0  0  0  0
   30.4843    6.7268   52.2179 N   0  3  0  0  0  0  0  0  0  0  0  0
   32.2489    8.5037   51.8601 C   0  0  1  0  0  0  0  0  0  0  0  0
   32.6938    9.7939   52.4303 O   0  0  0  0  0  0  0  0  0  0  0  0
   33.4921    7.5356   51.7668 C   0  0  2  0  0  0  0  0  0  0  0  0
   33.0677    6.3041   51.1599 O   0  0  0  0  0  0  0  0  0  0  0  0
   34.0503    7.3065   53.2323 C   0  0  1  0  0  0  0  0  0  0  0  0
   32.9522    6.7723   54.0459 O   0  0  0  0  0  0  0  0  0  0  0  0
   35.2689    6.3593   53.3141 C   0  0  0  0  0  0  0  0  0  0  0  0
   36.3601    6.7156   52.3670 N   0  3  0  0  0  0  0  0  0  0  0  0
  1  2  1  1  0  0  0
  1  3  1  0  0  0  0
  1 10  1  0  0  0  0
  3  4  1  1  0  0  0
  3  5  1  0  0  0  0
  5  6  1  6  0  0  0
  5  7  1  0  0  0  0
  7  8  1  1  0  0  0
  7  9  1  0  0  0  0
  9 10  1  0  0  0  0
  9 11  1  6  0  0  0
 11 12  1  0  0  0  0
 13 14  1  6  0  0  0
 13 15  1  0  0  0  0
 13 21  1  0  0  0  0
 15 16  1  0  0  0  0
 16 17  1  1  0  0  0
 16 18  1  0  0  0  0
 18  2  1  1  0  0  0
 18 19  1  0  0  0  0
 19 20  1  6  0  0  0
 19 21  1  0  0  0  0
 21 22  1  6  0  0  0
 23 20  1  1  0  0  0
 23 24  1  0  0  0  0
 23 29  1  0  0  0  0
 24 25  1  6  0  0  0
 24 26  1  0  0  0  0
 26 27  1  1  0  0  0
 26 28  1  0  0  0  0
 28 29  1  0  0  0  0
 28 30  1  1  0  0  0
 30 31  1  0  0  0  0
 32 27  1  1  0  0  0
 32 33  1  0  0  0  0
 32 40  1  0  0  0  0
 33 34  1  6  0  0  0
 33 35  1  0  0  0  0
 35 36  1  1  0  0  0
 35 37  1  0  0  0  0
 37 38  1  1  0  0  0
 37 39  1  0  0  0  0
 39 40  1  0  0  0  0
 39 41  1  6  0  0  0
 41 42  1  0  0  0  0
M  CHG  5   4   1  14   1  17   1  34   1  42   1
M  END
>  <CHROM.1>
177.23350701,-168.83903751,-171.23188653,59.36384145,179.71693425,65.78788767
-60.68483563,-45.63867176,-54.81485641,150.70332426,153.62731713,-51.37088347
64.47790466,155.33538442,-60.29316061,-146.29513636,175.64012792,48.63990590
164.09305483,72.75552977,50.59072049,41.21092126,29.26331125,7.83965698,57.62852603
-2.98819055,-0.92910624,-3.09431673

>  <Name>
1j7t

>  <RI>
224

>  <Rbt.Current_Directory>
/home/itssahil/PROJECTS/Mol_Feturizer/New_Systems/rnas/1j7t

>  <Rbt.Executable>
rbdock ($Id: //depot/dev/client3/rdock/2013.1/src/exe/rbdock.cxx#4 $)

>  <Rbt.Library>
libRbt.so (2013.1, Build901 2013/11/27)

>  <Rbt.Parameter_File>
/export/apps/rDock/src/rDock_2013.1_src/data/scripts/dock_solv.prm

>  <Rbt.Receptor>
prm/pocket_docking_7.prm

>  <SCORE>
-50.6912

>  <SCORE.INTER>
-36.4217

>  <SCORE.INTER.CONST>
1

>  <SCORE.INTER.POLAR>
-5.5615

>  <SCORE.INTER.ROT>
9

>  <SCORE.INTER.SOLV>
22.0378

>  <SCORE.INTER.VDW>
-22.6887

>  <SCORE.INTER.norm>
-0.867183

>  <SCORE.INTRA>
-14.2696

>  <SCORE.INTRA.DIHEDRAL>
-28.2502

>  <SCORE.INTRA.DIHEDRAL.0>
46.2143

>  <SCORE.INTRA.POLAR>
1.12139

>  <SCORE.INTRA.POLAR.0>
-1.76436

>  <SCORE.INTRA.REPUL>
0

>  <SCORE.INTRA.REPUL.0>
0

>  <SCORE.INTRA.SOLV>
-4.80675

>  <SCORE.INTRA.SOLV.lig_0>
-148.643

>  <SCORE.INTRA.VDW>
-1.55377

>  <SCORE.INTRA.VDW.0>
-4.83512

>  <SCORE.INTRA.norm>
-0.339751

>  <SCORE.RESTR>
0

>  <SCORE.RESTR.CAVITY>
0

>  <SCORE.RESTR.norm>
0

>  <SCORE.SYSTEM>
0

>  <SCORE.SYSTEM.CONST>
0

>  <SCORE.SYSTEM.DIHEDRAL>
0

>  <SCORE.SYSTEM.SOLV>
0

>  <SCORE.SYSTEM.norm>
0

>  <SCORE.heavy>
42

>  <SCORE.norm>
-1.20693

>  <RMSD>
9.342

$$$$
1j7t
 OpenBabel11021811393D
libRbt.so/2013.1/901 2013/11/27
 42 45  0  0  0  0  0  0  0  0999 V2000
   25.8106    7.6506   59.6249 C   0  0  2  0  0  0  0  0  0  0  0  0
   25.7373    8.7877   60.5216 O   0  0  0  0  0  0  0  0  0  0  0  0
   24.3682    7.3946   59.1014 C   0  0  2  0  0  0  0  0  0  0  0  0
   23.7081    8.5881   58.4985 N   0  3  0  0  0  0  0  0  0  0  0  0
   23.5037    6.9227   60.2909 C   0  0  1  0  0  0  0  0  0  0  0  0
   22.1931    6.6604   59.8748 O   0  0  0  0  0  0  0  0  0  0  0  0
   24.1323    5.6658   60.9378 C   0  0  2  0  0  0  0  0  0  0  0  0
   23.3439    5.2041   62.0170 O   0  0  0  0  0  0  0  0  0  0  0  0
   25.5232    5.9879   61.4414 C   0  0  2  0  0  0  0  0  0  0  0  0
   26.3066    6.4925   60.3673 O   0  0  0  0  0  0  0  0  0  0  0  0
   26.2520    4.7789   61.9835 C   0  0  0  0  0  0  0  0  0  0  0  0
   27.1673    5.1885   62.9814 O   0  0  0  0  0  0  0  0  0  0  0  0
   28.6100   11.8591   60.9248 C   0  0  2  0  0  0  0  0  0  0  0  0
   29.8176   12.5841   61.3215 N   0  3  0  0  0  0  0  0  0  0  0  0
   27.7804   11.4695   62.1931 C   0  0  0  0  0  0  0  0  0  0  0  0
   26.5330   10.6635   61.7831 C   0  0  2  0  0  0  0  0  0  0  0  0
   25.7716   10.2435   62.9642 N   0  3  0  0  0  0  0  0  0  0  0  0
   26.9420    9.4205   60.9686 C   0  0  2  0  0  0  0  0  0  0  0  0
   27.7845    9.7728   59.7271 C   0  0  2  0  0  0  0  0  0  0  0  0
   28.2153    8.5166   59.1686 O   0  0  0  0  0  0  0  0  0  0  0  0
   29.0134   10.6248   60.1340 C   0  0  1  0  0  0  0  0  0  0  0  0
   29.7055   11.0157   58.9802 O   0  0  0  0  0  0  0  0  0  0  0  0
   28.3217    8.2741   57.7683 C   0  0  1  0  0  0  0  0  0  0  0  0
   29.7468    7.6857   57.4699 C   0  0  2  0  0  0  0  0  0  0  0  0
   30.7386    8.6709   57.2359 O   0  0  0  0  0  0  0  0  0  0  0  0
   29.3872    6.8425   56.2546 C   0  0  2  0  0  0  0  0  0  0  0  0
   29.0454    7.6843   55.1125 O   0  0  0  0  0  0  0  0  0  0  0  0
   28.1155    6.1359   56.7027 C   0  0  2  0  0  0  0  0  0  0  0  0
   27.4190    7.2132   57.3523 O   0  0  0  0  0  0  0  0  0  0  0  0
   28.3413    4.9082   57.6448 C   0  0  0  0  0  0  0  0  0  0  0  0
   28.8225    5.3112   58.9332 O   0  0  0  0  0  0  0  0  0  0  0  0
   29.5571    7.2105   53.8695 C   0  0  2  0  0  0  0  0  0  0  0  0
   29.1350    8.0588   52.6218 C   0  0  2  0  0  0  0  0  0  0  0  0
   27.6525    8.1545   52.4595 N   0  3  0  0  0  0  0  0  0  0  0  0
   29.8082    7.4007   51.3714 C   0  0  1  0  0  0  0  0  0  0  0  0
   31.2718    7.5100   51.5546 O   0  0  0  0  0  0  0  0  0  0  0  0
   29.4299    5.8766   51.2121 C   0  0  2  0  0  0  0  0  0  0  0  0
   28.0157    5.7789   50.9775 O   0  0  0  0  0  0  0  0  0  0  0  0
   29.8593    5.1205   52.5372 C   0  0  1  0  0  0  0  0  0  0  0  0
   29.1819    5.7773   53.6610 O   0  0  0  0  0  0  0  0  0  0  0  0
   29.5382    3.6086   52.5461 C   0  0  0  0  0  0  0  0  0  0  0  0
   30.0060    2.9115   53.7748 N   0  3  0  0  0  0  0  0  0  0  0  0
  1  2  1  1  0  0  0
  1  3  1  0  0  0  0
  1 10  1  0  0  0  0
  3  4  1  1  0  0  0
  3  5  1  0  0  0  0
  5  6  1  6  0  0  0
  5  7  1  0  0  0  0
  7  8  1  1  0  0  0
  7  9  1  0  0  0  0
  9 10  1  0  0  0  0
  9 11  1  6  0  0  0
 11 12  1  0  0  0  0
 13 14  1  1  0  0  0
 13 15  1  0  0  0  0
 13 21  1  0  0  0  0
 15 16  1  0  0  0  0
 16 17  1  1  0  0  0
 16 18  1  0  0  0  0
 18  2  1  6  0  0  0
 18 19  1  0  0  0  0
 19 20  1  1  0  0  0
 19 21  1  0  0  0  0
 21 22  1  6  0  0  0
 23 20  1  1  0  0  0
 23 24  1  0  0  0  0
 23 29  1  0  0  0  0
 24 25  1  6  0  0  0
 24 26  1  0  0  0  0
 26 27  1  6  0  0  0
 26 28  1  0  0  0  0
 28 29  1  0  0  0  0
 28 30  1  1  0  0  0
 30 31  1  0  0  0  0
 32 27  1  1  0  0  0
 32 33  1  0  0  0  0
 32 40  1  0  0  0  0
 33 34  1  6  0  0  0
 33 35  1  0  0  0  0
 35 36  1  1  0  0  0
 35 37  1  0  0  0  0
 37 38  1  1  0  0  0
 37 39  1  0  0  0  0
 39 40  1  0  0  0  0
 39 41  1  6  0  0  0
 41 42  1  0  0  0  0
M  CHG  5   4   1  14   1  17   1  34   1  42   1
M  END
>  <CHROM.1>
-168.35290160,174.50533164,45.92117594,-70.55575766,178.35888891,-151.18991969
-72.55564722,58.68729550,57.48079414,143.08907891,128.86653817,162.73749054
-69.59788674,139.60225046,176.83487862,69.00952080,65.24072375,-32.49090453
-68.26660947,63.06048769,177.41182868,50.89866659,27.65002877,7.50891579
57.78691713,2.14112752,0.82645075,0.87949792

>  <Name>
1j7t

>  <RI>
224

>  <Rbt.Current_Directory>
/home/itssahil/PROJECTS/Mol_Feturizer/New_Systems/rnas/1j7t

>  <Rbt.Executable>
rbdock ($Id: //depot/dev/client3/rdock/2013.1/src/exe/rbdock.cxx#4 $)

>  <Rbt.Library>
libRbt.so (2013.1, Build901 2013/11/27)

>  <Rbt.Parameter_File>
/export/apps/rDock/src/rDock_2013.1_src/data/scripts/dock_solv.prm

>  <Rbt.Receptor>
prm/pocket_docking_7.prm

>  <SCORE>
-41.1136

>  <SCORE.INTER>
-26.9707

>  <SCORE.INTER.CONST>
1

>  <SCORE.INTER.POLAR>
-5.75884

>  <SCORE.INTER.ROT>
9

>  <SCORE.INTER.SOLV>
19.3505

>  <SCORE.INTER.VDW>
-14.8345

>  <SCORE.INTER.norm>
-0.64216

>  <SCORE.INTRA>
-14.1429

>  <SCORE.INTRA.DIHEDRAL>
-19.4213

>  <SCORE.INTRA.DIHEDRAL.0>
46.2143

>  <SCORE.INTRA.POLAR>
-0.029123

>  <SCORE.INTRA.POLAR.0>
-1.76436

>  <SCORE.INTRA.REPUL>
0

>  <SCORE.INTRA.REPUL.0>
0

>  <SCORE.INTRA.SOLV>
-5.21408

>  <SCORE.INTRA.SOLV.lig_0>
-148.643

>  <SCORE.INTRA.VDW>
-1.72617

>  <SCORE.INTRA.VDW.0>
-4.83512

>  <SCORE.INTRA.norm>
-0.336735

>  <SCORE.RESTR>
0

>  <SCORE.RESTR.CAVITY>
0

>  <SCORE.RESTR.norm>
0

>  <SCORE.SYSTEM>
0

>  <SCORE.SYSTEM.CONST>
0

>  <SCORE.SYSTEM.DIHEDRAL>
0

>  <SCORE.SYSTEM.SOLV>
0

>  <SCORE.SYSTEM.norm>
0

>  <SCORE.heavy>
42

>  <SCORE.norm>
-0.978895

>  <RMSD>
9.349

$$$$
1j7t
 OpenBabel11021811393D
libRbt.so/2013.1/901 2013/11/27
 42 45  0  0  0  0  0  0  0  0999 V2000
   26.1455    6.7267   60.3141 C   0  0  2  0  0  0  0  0  0  0  0  0
   27.5169    6.7782   59.8461 O   0  0  0  0  0  0  0  0  0  0  0  0
   26.1481    5.8969   61.6299 C   0  0  2  0  0  0  0  0  0  0  0  0
   27.1127    6.3759   62.6613 N   0  3  0  0  0  0  0  0  0  0  0  0
   26.5147    4.4390   61.2760 C   0  0  1  0  0  0  0  0  0  0  0  0
   26.5169    3.6383   62.4242 O   0  0  0  0  0  0  0  0  0  0  0  0
   25.5242    3.8831   60.2255 C   0  0  2  0  0  0  0  0  0  0  0  0
   25.8294    2.5407   59.9030 O   0  0  0  0  0  0  0  0  0  0  0  0
   25.5854    4.7223   58.9669 C   0  0  2  0  0  0  0  0  0  0  0  0
   25.3205    6.0804   59.2944 O   0  0  0  0  0  0  0  0  0  0  0  0
   24.5606    4.3143   57.9323 C   0  0  0  0  0  0  0  0  0  0  0  0
   23.2612    4.5702   58.4294 O   0  0  0  0  0  0  0  0  0  0  0  0
   26.9486    9.7272   56.8749 C   0  0  2  0  0  0  0  0  0  0  0  0
   27.2140   10.6600   55.7791 N   0  3  0  0  0  0  0  0  0  0  0  0
   27.8112   10.1104   58.1229 C   0  0  0  0  0  0  0  0  0  0  0  0
   27.5712    9.1019   59.2627 C   0  0  2  0  0  0  0  0  0  0  0  0
   28.4127    9.4149   60.4224 N   0  3  0  0  0  0  0  0  0  0  0  0
   27.8732    7.6688   58.7825 C   0  0  2  0  0  0  0  0  0  0  0  0
   27.0568    7.2738   57.5364 C   0  0  2  0  0  0  0  0  0  0  0  0
   27.5587    5.9884   57.1224 O   0  0  0  0  0  0  0  0  0  0  0  0
   27.2605    8.3148   56.4065 C   0  0  1  0  0  0  0  0  0  0  0  0
   26.4322    7.9886   55.3246 O   0  0  0  0  0  0  0  0  0  0  0  0
   28.6205    5.8234   56.1861 C   0  0  1  0  0  0  0  0  0  0  0  0
   29.9192    6.4731   56.7838 C   0  0  2  0  0  0  0  0  0  0  0  0
   30.0590    7.8530   56.4916 O   0  0  0  0  0  0  0  0  0  0  0  0
   30.9458    5.5724   56.1115 C   0  0  2  0  0  0  0  0  0  0  0  0
   30.9941    5.8119   54.6728 O   0  0  0  0  0  0  0  0  0  0  0  0
   30.3634    4.1826   56.3276 C   0  0  2  0  0  0  0  0  0  0  0  0
   28.9747    4.4210   56.0406 O   0  0  0  0  0  0  0  0  0  0  0  0
   30.5911    3.5880   57.7560 C   0  0  0  0  0  0  0  0  0  0  0  0
   30.0240    2.2777   57.8804 O   0  0  0  0  0  0  0  0  0  0  0  0
   32.2958    5.6821   54.1068 C   0  0  2  0  0  0  0  0  0  0  0  0
   33.2130    6.9404   54.2791 C   0  0  2  0  0  0  0  0  0  0  0  0
   32.6176    8.1780   53.6898 N   0  3  0  0  0  0  0  0  0  0  0  0
   34.5908    6.5965   53.6210 C   0  0  1  0  0  0  0  0  0  0  0  0
   35.1709    5.4702   54.3841 O   0  0  0  0  0  0  0  0  0  0  0  0
   34.4487    6.1645   52.1095 C   0  0  2  0  0  0  0  0  0  0  0  0
   33.9384    7.2802   51.3615 O   0  0  0  0  0  0  0  0  0  0  0  0
   33.4736    4.9168   52.0424 C   0  0  1  0  0  0  0  0  0  0  0  0
   32.2030    5.3143   52.6596 O   0  0  0  0  0  0  0  0  0  0  0  0
   33.2155    4.3800   50.6162 C   0  0  0  0  0  0  0  0  0  0  0  0
   32.3468    3.1721   50.5868 N   0  3  0  0  0  0  0  0  0  0  0  0
  1  2  1  6  0  0  0
  1  3  1  0  0  0  0
  1 10  1  0  0  0  0
  3  4  1  1  0  0  0
  3  5  1  0  0  0  0
  5  6  1  1  0  0  0
  5  7  1  0  0  0  0
  7  8  1  6  0  0  0
  7  9  1  0  0  0  0
  9 10  1  0  0  0  0
  9 11  1  6  0  0  0
 11 12  1  0  0  0  0
 13 14  1  6  0  0  0
 13 15  1  0  0  0  0
 13 21  1  0  0  0  0
 15 16  1  0  0  0  0
 16 17  1  1  0  0  0
 16 18  1  0  0  0  0
 18  2  1  1  0  0  0
 18 19  1  0  0  0  0
 19 20  1  6  0  0  0
 19 21  1  0  0  0  0
 21 22  1  6  0  0  0
 23 20  1  1  0  0  0
 23 24  1  0  0  0  0
 23 29  1  0  0  0  0
 24 25  1  6  0  0  0
 24 26  1  0  0  0  0
 26 27  1  6  0  0  0
 26 28  1  0  0  0  0
 28 29  1  0  0  0  0
 28 30  1  1  0  0  0
 30 31  1  0  0  0  0
 32 27  1  6  0  0  0
 32 33  1  0  0  0  0
 32 40  1  0  0  0  0
 33 34  1  6  0  0  0
 33 35  1  0  0  0  0
 35 36  1  1  0  0  0
 35 37  1  0  0  0  0
 37 38  1  6  0  0  0
 37 39  1  0  0  0  0
 39 40  1  0  0  0  0
 39 41  1  6  0  0  0
 41 42  1  0  0  0  0
M  CHG  5   4   1  14   1  17   1  34   1  42   1
M  END
>  <CHROM.1>
-169.00074106,61.04591720,-73.31356125,-172.96373476,167.15475091,65.51282556
82.22554029,-59.01562975,-46.71657541,-90.97614180,62.43018471,-170.70606189
-47.36422716,145.06023744,-81.18185216,-179.61750359,-175.72435121,55.12880877
-73.63603712,68.25290115,177.39310738,-25.14610522,29.09503420,6.09081632
56.80950107,3.03356038,-0.79387270,2.98626114

>  <Name>
1j7t

>  <RI>
0

>  <Rbt.Current_Directory>
/home/itssahil/PROJECTS/Mol_Feturizer/New_Systems/rnas/1j7t

>  <Rbt.Executable>
rbdock ($Id: //depot/dev/client3/rdock/2013.1/src/exe/rbdock.cxx#4 $)

>  <Rbt.Library>
libRbt.so (2013.1, Build901 2013/11/27)

>  <Rbt.Parameter_File>
/export/apps/rDock/src/rDock_2013.1_src/data/scripts/dock_solv.prm

>  <Rbt.Receptor>
prm/pocket_docking_5.prm

>  <SCORE>
-45.4574

>  <SCORE.INTER>
-34.6631

>  <SCORE.INTER.CONST>
1

>  <SCORE.INTER.POLAR>
-7.40431

>  <SCORE.INTER.ROT>
9

>  <SCORE.INTER.SOLV>
19.8493

>  <SCORE.INTER.VDW>
-14.6441

>  <SCORE.INTER.norm>
-0.825312

>  <SCORE.INTRA>
-10.7943

>  <SCORE.INTRA.DIHEDRAL>
-25.9183

>  <SCORE.INTRA.DIHEDRAL.0>
46.2143

>  <SCORE.INTRA.POLAR>
1.25078

>  <SCORE.INTRA.POLAR.0>
-1.76436

>  <SCORE.INTRA.REPUL>
0

>  <SCORE.INTRA.REPUL.0>
0

>  <SCORE.INTRA.SOLV>
-3.04533

>  <SCORE.INTRA.SOLV.lig_0>
-148.643

>  <SCORE.INTRA.VDW>
-0.565117

>  <SCORE.INTRA.VDW.0>
-4.83512

>  <SCORE.INTRA.norm>
-0.257007

>  <SCORE.RESTR>
0

>  <SCORE.RESTR.CAVITY>
0

>  <SCORE.RESTR.norm>
0

>  <SCORE.SYSTEM>
0

>  <SCORE.SYSTEM.CONST>
0

>  <SCORE.SYSTEM.DIHEDRAL>
0

>  <SCORE.SYSTEM.SOLV>
0

>  <SCORE.SYSTEM.norm>
0

>  <SCORE.heavy>
42

>  <SCORE.norm>
-1.08232

>  <RMSD>
9.351

$$$$
1j7t
 OpenBabel11021811393D
libRbt.so/2013.1/901 2013/11/27
 42 45  0  0  0  0  0  0  0  0999 V2000
   26.4951    6.0901   61.1645 C   0  0  2  0  0  0  0  0  0  0  0  0
   27.6087    7.0143   61.2555 O   0  0  0  0  0  0  0  0  0  0  0  0
   27.0969    4.6846   60.8776 C   0  0  2  0  0  0  0  0  0  0  0  0
   28.1514    4.2550   61.8405 N   0  3  0  0  0  0  0  0  0  0  0  0
   27.7232    4.7108   59.4663 C   0  0  1  0  0  0  0  0  0  0  0  0
   28.2689    3.4623   59.1454 O   0  0  0  0  0  0  0  0  0  0  0  0
   26.6601    5.1259   58.4217 C   0  0  2  0  0  0  0  0  0  0  0  0
   27.2080    5.1354   57.1183 O   0  0  0  0  0  0  0  0  0  0  0  0
   26.1308    6.5063   58.7478 C   0  0  2  0  0  0  0  0  0  0  0  0
   25.6171    6.5114   60.0737 O   0  0  0  0  0  0  0  0  0  0  0  0
   25.0010    6.9375   57.8397 C   0  0  0  0  0  0  0  0  0  0  0  0
   25.5192    7.2614   56.5639 O   0  0  0  0  0  0  0  0  0  0  0  0
   25.4836   10.6471   60.8875 C   0  0  2  0  0  0  0  0  0  0  0  0
   25.1443   12.0684   60.9653 N   0  3  0  0  0  0  0  0  0  0  0  0
   25.6872   10.0673   62.3266 C   0  0  0  0  0  0  0  0  0  0  0  0
   26.0925    8.5830   62.2473 C   0  0  2  0  0  0  0  0  0  0  0  0
   26.3399    8.0372   63.5859 N   0  3  0  0  0  0  0  0  0  0  0  0
   27.3594    8.4188   61.3849 C   0  0  2  0  0  0  0  0  0  0  0  0
   27.1966    9.0064   59.9695 C   0  0  2  0  0  0  0  0  0  0  0  0
   28.4945    8.9196   59.3504 O   0  0  0  0  0  0  0  0  0  0  0  0
   26.7418   10.4858   60.0493 C   0  0  1  0  0  0  0  0  0  0  0  0
   26.5042   10.9653   58.7544 O   0  0  0  0  0  0  0  0  0  0  0  0
   28.6893    8.6164   57.9716 C   0  0  1  0  0  0  0  0  0  0  0  0
   30.0988    9.1542   57.5359 C   0  0  2  0  0  0  0  0  0  0  0  0
   30.0901   10.5020   57.0974 O   0  0  0  0  0  0  0  0  0  0  0  0
   30.3982    8.1322   56.4481 C   0  0  2  0  0  0  0  0  0  0  0  0
   29.5182    8.3145   55.2983 O   0  0  0  0  0  0  0  0  0  0  0  0
   30.0203    6.8161   57.1130 C   0  0  2  0  0  0  0  0  0  0  0  0
   28.7902    7.1814   57.7620 O   0  0  0  0  0  0  0  0  0  0  0  0
   31.0849    6.2528   58.1107 C   0  0  0  0  0  0  0  0  0  0  0  0
   30.8804    4.8584   58.3713 O   0  0  0  0  0  0  0  0  0  0  0  0
   30.1675    8.8576   54.1516 C   0  0  2  0  0  0  0  0  0  0  0  0
   29.1988    9.4043   53.0483 C   0  0  2  0  0  0  0  0  0  0  0  0
   28.2487    8.3668   52.5440 N   0  3  0  0  0  0  0  0  0  0  0  0
   30.0919    9.9736   51.8959 C   0  0  1  0  0  0  0  0  0  0  0  0
   30.8654   11.1016   52.4588 O   0  0  0  0  0  0  0  0  0  0  0  0
   31.1008    8.9018   51.3260 C   0  0  2  0  0  0  0  0  0  0  0  0
   30.3453    7.8351   50.7294 O   0  0  0  0  0  0  0  0  0  0  0  0
   32.0012    8.3857   52.5239 C   0  0  1  0  0  0  0  0  0  0  0  0
   31.1032    7.8539   53.5554 O   0  0  0  0  0  0  0  0  0  0  0  0
   33.0383    7.3096   52.1297 C   0  0  0  0  0  0  0  0  0  0  0  0
   32.4294    5.9898   51.8102 N   0  3  0  0  0  0  0  0  0  0  0  0
  1  2  1  6  0  0  0
  1  3  1  0  0  0  0
  1 10  1  0  0  0  0
  3  4  1  1  0  0  0
  3  5  1  0  0  0  0
  5  6  1  6  0  0  0
  5  7  1  0  0  0  0
  7  8  1  6  0  0  0
  7  9  1  0  0  0  0
  9 10  1  0  0  0  0
  9 11  1  6  0  0  0
 11 12  1  0  0  0  0
 13 14  1  1  0  0  0
 13 15  1  0  0  0  0
 13 21  1  0  0  0  0
 15 16  1  0  0  0  0
 16 17  1  1  0  0  0
 16 18  1  0  0  0  0
 18  2  1  6  0  0  0
 18 19  1  0  0  0  0
 19 20  1  1  0  0  0
 19 21  1  0  0  0  0
 21 22  1  6  0  0  0
 23 20  1  1  0  0  0
 23 24  1  0  0  0  0
 23 29  1  0  0  0  0
 24 25  1  6  0  0  0
 24 26  1  0  0  0  0
 26 27  1  6  0  0  0
 26 28  1  0  0  0  0
 28 29  1  0  0  0  0
 28 30  1  1  0  0  0
 30 31  1  0  0  0  0
 32 27  1  1  0  0  0
 32 33  1  0  0  0  0
 32 40  1  0  0  0  0
 33 34  1  6  0  0  0
 33 35  1  0  0  0  0
 35 36  1  1  0  0  0
 35 37  1  0  0  0  0
 37 38  1  1  0  0  0
 37 39  1  0  0  0  0
 39 40  1  0  0  0  0
 39 41  1  6  0  0  0
 41 42  1  0  0  0  0
M  CHG  5   4   1  14   1  17   1  34   1  42   1
M  END
>  <CHROM.1>
173.89425058,35.25617726,87.53050007,-138.77376080,51.25322902,-73.65057517
53.26311160,91.26398848,-56.57580430,143.03768007,157.73606569,-179.50524137
65.45139334,107.90879531,-164.90385893,-161.75735296,-176.85977682,29.87091096
-179.51133295,172.32605656,-71.05487837,-139.84653476,28.45664737,7.80245943
57.44686700,-2.64920193,1.02503191,-0.48920801

>  <Name>
1j7t

>  <RI>
0

>  <Rbt.Current_Directory>
/home/itssahil/PROJECTS/Mol_Feturizer/New_Systems/rnas/1j7t

>  <Rbt.Executable>
rbdock ($Id: //depot/dev/client3/rdock/2013.1/src/exe/rbdock.cxx#4 $)

>  <Rbt.Library>
libRbt.so (2013.1, Build901 2013/11/27)

>  <Rbt.Parameter_File>
/export/apps/rDock/src/rDock_2013.1_src/data/scripts/dock_solv.prm

>  <Rbt.Receptor>
prm/pocket_docking_6.prm

>  <SCORE>
-43.169

>  <SCORE.INTER>
-32.3348

>  <SCORE.INTER.CONST>
1

>  <SCORE.INTER.POLAR>
-5.85805

>  <SCORE.INTER.ROT>
9

>  <SCORE.INTER.SOLV>
21.2575

>  <SCORE.INTER.VDW>
-18.7155

>  <SCORE.INTER.norm>
-0.769876

>  <SCORE.INTRA>
-10.8342

>  <SCORE.INTRA.DIHEDRAL>
-11.6963

>  <SCORE.INTRA.DIHEDRAL.0>
46.2143

>  <SCORE.INTRA.POLAR>
-0.914961

>  <SCORE.INTRA.POLAR.0>
-1.76436

>  <SCORE.INTRA.REPUL>
0.0296911

>  <SCORE.INTRA.REPUL.0>
0

>  <SCORE.INTRA.SOLV>
-0.112448

>  <SCORE.INTRA.SOLV.lig_0>
-148.643

>  <SCORE.INTRA.VDW>
-1.9674

>  <SCORE.INTRA.VDW.0>
-4.83512

>  <SCORE.INTRA.norm>
-0.257957

>  <SCORE.RESTR>
0

>  <SCORE.RESTR.CAVITY>
0

>  <SCORE.RESTR.norm>
0

>  <SCORE.SYSTEM>
0

>  <SCORE.SYSTEM.CONST>
0

>  <SCORE.SYSTEM.DIHEDRAL>
0

>  <SCORE.SYSTEM.SOLV>
0

>  <SCORE.SYSTEM.norm>
0

>  <SCORE.heavy>
42

>  <SCORE.norm>
-1.02783

>  <RMSD>
9.359

$$$$
1j7t
 OpenBabel11021811393D
libRbt.so/2013.1/901 2013/11/27
 42 45  0  0  0  0  0  0  0  0999 V2000
   25.1506    4.4208   58.3010 C   0  0  2  0  0  0  0  0  0  0  0  0
   25.5567    4.9392   59.5929 O   0  0  0  0  0  0  0  0  0  0  0  0
   23.7565    3.7592   58.4979 C   0  0  2  0  0  0  0  0  0  0  0  0
   22.7369    4.6424   59.1335 N   0  3  0  0  0  0  0  0  0  0  0  0
   23.9384    2.5177   59.3982 C   0  0  1  0  0  0  0  0  0  0  0  0
   22.7139    1.8694   59.5979 O   0  0  0  0  0  0  0  0  0  0  0  0
   24.9702    1.5522   58.7683 C   0  0  2  0  0  0  0  0  0  0  0  0
   25.1359    0.3973   59.5670 O   0  0  0  0  0  0  0  0  0  0  0  0
   26.3054    2.2506   58.6225 C   0  0  2  0  0  0  0  0  0  0  0  0
   26.1346    3.4354   57.8549 O   0  0  0  0  0  0  0  0  0  0  0  0
   27.3385    1.4106   57.9055 C   0  0  0  0  0  0  0  0  0  0  0  0
   28.4963    2.1882   57.6686 O   0  0  0  0  0  0  0  0  0  0  0  0
   27.3199    8.5336   60.9420 C   0  0  2  0  0  0  0  0  0  0  0  0
   28.2501    9.6547   61.0797 N   0  3  0  0  0  0  0  0  0  0  0  0
   28.0445    7.1922   61.2943 C   0  0  0  0  0  0  0  0  0  0  0  0
   27.0822    6.0042   61.1034 C   0  0  2  0  0  0  0  0  0  0  0  0
   27.7610    4.7334   61.3777 N   0  3  0  0  0  0  0  0  0  0  0  0
   26.5282    5.9892   59.6651 C   0  0  2  0  0  0  0  0  0  0  0  0
   25.8325    7.3096   59.2810 C   0  0  2  0  0  0  0  0  0  0  0  0
   25.5147    7.1996   57.8802 O   0  0  0  0  0  0  0  0  0  0  0  0
   26.7844    8.5092   59.5191 C   0  0  1  0  0  0  0  0  0  0  0  0
   26.0966    9.7019   59.2592 O   0  0  0  0  0  0  0  0  0  0  0  0
   26.4846    6.9227   56.8733 C   0  0  1  0  0  0  0  0  0  0  0  0
   25.8435    7.2113   55.4692 C   0  0  2  0  0  0  0  0  0  0  0  0
   25.1519    6.1056   54.9142 O   0  0  0  0  0  0  0  0  0  0  0  0
   27.1109    7.6085   54.7255 C   0  0  2  0  0  0  0  0  0  0  0  0
   27.9952    6.4619   54.5430 O   0  0  0  0  0  0  0  0  0  0  0  0
   27.7870    8.5604   55.7022 C   0  0  2  0  0  0  0  0  0  0  0  0
   27.5925    7.8613   56.9437 O   0  0  0  0  0  0  0  0  0  0  0  0
   27.1966   10.0084   55.7260 C   0  0  0  0  0  0  0  0  0  0  0  0
   27.7706   10.7968   56.7762 O   0  0  0  0  0  0  0  0  0  0  0  0
   28.8524    6.5656   53.4091 C   0  0  2  0  0  0  0  0  0  0  0  0
   29.3650    5.1954   52.8485 C   0  0  2  0  0  0  0  0  0  0  0  0
   30.1073    4.3925   53.8672 N   0  3  0  0  0  0  0  0  0  0  0  0
   30.2609    5.5154   51.6056 C   0  0  1  0  0  0  0  0  0  0  0  0
   29.3923    6.1545   50.5934 O   0  0  0  0  0  0  0  0  0  0  0  0
   31.4457    6.4994   51.9506 C   0  0  2  0  0  0  0  0  0  0  0  0
   32.3182    5.8522   52.8911 O   0  0  0  0  0  0  0  0  0  0  0  0
   30.8243    7.8306   52.5454 C   0  0  1  0  0  0  0  0  0  0  0  0
   30.0141    7.4586   53.7110 O   0  0  0  0  0  0  0  0  0  0  0  0
   31.8649    8.8985   52.9527 C   0  0  0  0  0  0  0  0  0  0  0  0
   32.6021    9.4774   51.7968 N   0  3  0  0  0  0  0  0  0  0  0  0
  1  2  1  1  0  0  0
  1  3  1  0  0  0  0
  1 10  1  0  0  0  0
  3  4  1  1  0  0  0
  3  5  1  0  0  0  0
  5  6  1  6  0  0  0
  5  7  1  0  0  0  0
  7  8  1  1  0  0  0
  7  9  1  0  0  0  0
  9 10  1  0  0  0  0
  9 11  1  6  0  0  0
 11 12  1  0  0  0  0
 13 14  1  6  0  0  0
 13 15  1  0  0  0  0
 13 21  1  0  0  0  0
 15 16  1  0  0  0  0
 16 17  1  6  0  0  0
 16 18  1  0  0  0  0
 18  2  1  1  0  0  0
 18 19  1  0  0  0  0
 19 20  1  6  0  0  0
 19 21  1  0  0  0  0
 21 22  1  1  0  0  0
 23 20  1  1  0  0  0
 23 24  1  0  0  0  0
 23 29  1  0  0  0  0
 24 25  1  6  0  0  0
 24 26  1  0  0  0  0
 26 27  1  1  0  0  0
 26 28  1  0  0  0  0
 28 29  1  0  0  0  0
 28 30  1  1  0  0  0
 30 31  1  0  0  0  0
 32 27  1  1  0  0  0
 32 33  1  0  0  0  0
 32 40  1  0  0  0  0
 33 34  1  1  0  0  0
 33 35  1  0  0  0  0
 35 36  1  6  0  0  0
 35 37  1  0  0  0  0
 37 38  1  1  0  0  0
 37 39  1  0  0  0  0
 39 40  1  0  0  0  0
 39 41  1  1  0  0  0
 41 42  1  0  0  0  0
M  CHG  5   4   1  14   1  17   1  34   1  42   1
M  END
>  <CHROM.1>
-157.82743697,-161.90906830,-58.42922862,-71.30976714,62.44317035,173.00406647
-61.90393758,178.69805473,-75.11579095,-55.83605512,-166.84463211,-62.66063007
60.87748238,153.37878543,-156.33244257,172.96405633,-166.83146005,47.26980367
176.71745206,173.26347212,67.15090857,-151.52316541,27.42690723,6.03697470
56.81461856,-3.13402902,0.96916333,0.45477854

>  <Name>
1j7t

>  <RI>
0

>  <Rbt.Current_Directory>
/home/itssahil/PROJECTS/Mol_Feturizer/New_Systems/rnas/1j7t

>  <Rbt.Executable>
rbdock ($Id: //depot/dev/client3/rdock/2013.1/src/exe/rbdock.cxx#4 $)

>  <Rbt.Library>
libRbt.so (2013.1, Build901 2013/11/27)

>  <Rbt.Parameter_File>
/export/apps/rDock/src/rDock_2013.1_src/data/scripts/dock_solv.prm

>  <Rbt.Receptor>
prm/pocket_docking_4.prm

>  <SCORE>
-35.0977

>  <SCORE.INTER>
-18.7061

>  <SCORE.INTER.CONST>
1

>  <SCORE.INTER.POLAR>
-3.91729

>  <SCORE.INTER.ROT>
9

>  <SCORE.INTER.SOLV>
12.7975

>  <SCORE.INTER.VDW>
-13.279

>  <SCORE.INTER.norm>
-0.445384

>  <SCORE.INTRA>
-16.4624

>  <SCORE.INTRA.DIHEDRAL>
-30.8156

>  <SCORE.INTRA.DIHEDRAL.0>
46.2143

>  <SCORE.INTRA.POLAR>
0.972553

>  <SCORE.INTRA.POLAR.0>
-1.76436

>  <SCORE.INTRA.REPUL>
0

>  <SCORE.INTRA.REPUL.0>
0

>  <SCORE.INTRA.SOLV>
-5.44279

>  <SCORE.INTRA.SOLV.lig_0>
-148.643

>  <SCORE.INTRA.VDW>
-1.63984

>  <SCORE.INTRA.VDW.0>
-4.83512

>  <SCORE.INTRA.norm>
-0.391961

>  <SCORE.RESTR>
0.0708169

>  <SCORE.RESTR.CAVITY>
0.0708169

>  <SCORE.RESTR.norm>
0.00168612

>  <SCORE.SYSTEM>
0

>  <SCORE.SYSTEM.CONST>
0

>  <SCORE.SYSTEM.DIHEDRAL>
0

>  <SCORE.SYSTEM.SOLV>
0

>  <SCORE.SYSTEM.norm>
0

>  <SCORE.heavy>
42

>  <SCORE.norm>
-0.835659

>  <RMSD>
9.381

$$$$
1j7t
 OpenBabel11021811393D
libRbt.so/2013.1/901 2013/11/27
 42 45  0  0  0  0  0  0  0  0999 V2000
   27.4250    6.9941   60.3733 C   0  0  2  0  0  0  0  0  0  0  0  0
   28.7737    6.5927   60.7233 O   0  0  0  0  0  0  0  0  0  0  0  0
   26.8825    7.8386   61.5618 C   0  0  2  0  0  0  0  0  0  0  0  0
   27.7586    8.9767   61.9627 N   0  3  0  0  0  0  0  0  0  0  0  0
   26.7277    6.9044   62.7818 C   0  0  1  0  0  0  0  0  0  0  0  0
   26.2252    7.6090   63.8821 O   0  0  0  0  0  0  0  0  0  0  0  0
   25.8024    5.7165   62.4263 C   0  0  2  0  0  0  0  0  0  0  0  0
   25.6299    4.8593   63.5374 O   0  0  0  0  0  0  0  0  0  0  0  0
   26.3964    4.9280   61.2785 C   0  0  2  0  0  0  0  0  0  0  0  0
   26.6106    5.7963   60.1730 O   0  0  0  0  0  0  0  0  0  0  0  0
   25.4931    3.8167   60.7927 C   0  0  0  0  0  0  0  0  0  0  0  0
   25.4678    2.7767   61.7514 O   0  0  0  0  0  0  0  0  0  0  0  0
   32.1842    4.9157   58.8781 C   0  0  2  0  0  0  0  0  0  0  0  0
   33.0264    4.0977   58.0048 N   0  3  0  0  0  0  0  0  0  0  0  0
   31.3438    3.9954   59.8243 C   0  0  0  0  0  0  0  0  0  0  0  0
   30.4196    4.8509   60.7118 C   0  0  2  0  0  0  0  0  0  0  0  0
   29.5852    4.0013   61.5678 N   0  3  0  0  0  0  0  0  0  0  0  0
   29.5158    5.7442   59.8396 C   0  0  2  0  0  0  0  0  0  0  0  0
   30.3170    6.6427   58.8772 C   0  0  2  0  0  0  0  0  0  0  0  0
   29.3445    7.2898   58.0340 O   0  0  0  0  0  0  0  0  0  0  0  0
   31.2818    5.7865   58.0183 C   0  0  1  0  0  0  0  0  0  0  0  0
   32.0681    6.6333   57.2260 O   0  0  0  0  0  0  0  0  0  0  0  0
   29.6903    8.1655   56.9640 C   0  0  1  0  0  0  0  0  0  0  0  0
   28.7119    7.8998   55.7648 C   0  0  2  0  0  0  0  0  0  0  0  0
   29.1445    6.8760   54.8852 O   0  0  0  0  0  0  0  0  0  0  0  0
   28.7141    9.2986   55.1644 C   0  0  2  0  0  0  0  0  0  0  0  0
   30.0098    9.6150   54.5721 O   0  0  0  0  0  0  0  0  0  0  0  0
   28.5376   10.1875   56.3875 C   0  0  2  0  0  0  0  0  0  0  0  0
   29.4297    9.5510   57.3185 O   0  0  0  0  0  0  0  0  0  0  0  0
   27.0723   10.2842   56.9254 C   0  0  0  0  0  0  0  0  0  0  0  0
   26.9878   11.1253   58.0827 O   0  0  0  0  0  0  0  0  0  0  0  0
   30.0278    9.5500   53.1484 C   0  0  2  0  0  0  0  0  0  0  0  0
   29.9832    8.0992   52.5587 C   0  0  2  0  0  0  0  0  0  0  0  0
   31.1124    7.2439   53.0351 N   0  3  0  0  0  0  0  0  0  0  0  0
   29.9862    8.2381   50.9998 C   0  0  1  0  0  0  0  0  0  0  0  0
   28.7457    8.9494   50.6218 O   0  0  0  0  0  0  0  0  0  0  0  0
   31.2239    9.0604   50.4676 C   0  0  2  0  0  0  0  0  0  0  0  0
   32.4241    8.3376   50.7867 O   0  0  0  0  0  0  0  0  0  0  0  0
   31.1986   10.4893   51.1530 C   0  0  1  0  0  0  0  0  0  0  0  0
   31.2135   10.2836   52.6059 O   0  0  0  0  0  0  0  0  0  0  0  0
   32.3656   11.4173   50.7455 C   0  0  0  0  0  0  0  0  0  0  0  0
   32.4122   11.7033   49.2858 N   0  3  0  0  0  0  0  0  0  0  0  0
  1  2  1  1  0  0  0
  1  3  1  0  0  0  0
  1 10  1  0  0  0  0
  3  4  1  1  0  0  0
  3  5  1  0  0  0  0
  5  6  1  1  0  0  0
  5  7  1  0  0  0  0
  7  8  1  1  0  0  0
  7  9  1  0  0  0  0
  9 10  1  0  0  0  0
  9 11  1  6  0  0  0
 11 12  1  0  0  0  0
 13 14  1  6  0  0  0
 13 15  1  0  0  0  0
 13 21  1  0  0  0  0
 15 16  1  0  0  0  0
 16 17  1  6  0  0  0
 16 18  1  0  0  0  0
 18  2  1  1  0  0  0
 18 19  1  0  0  0  0
 19 20  1  6  0  0  0
 19 21  1  0  0  0  0
 21 22  1  1  0  0  0
 23 20  1  1  0  0  0
 23 24  1  0  0  0  0
 23 29  1  0  0  0  0
 24 25  1  6  0  0  0
 24 26  1  0  0  0  0
 26 27  1  1  0  0  0
 26 28  1  0  0  0  0
 28 29  1  0  0  0  0
 28 30  1  1  0  0  0
 30 31  1  0  0  0  0
 32 27  1  1  0  0  0
 32 33  1  0  0  0  0
 32 40  1  0  0  0  0
 33 34  1  6  0  0  0
 33 35  1  0  0  0  0
 35 36  1  1  0  0  0
 35 37  1  0  0  0  0
 37 38  1  1  0  0  0
 37 39  1  0  0  0  0
 39 40  1  0  0  0  0
 39 41  1  6  0  0  0
 41 42  1  0  0  0  0
M  CHG  5   4   1  14   1  17   1  34   1  42   1
M  END
>  <CHROM.1>
177.14470064,-146.95688492,-68.09757835,-177.50897040,-55.20917911,-71.97023801
-63.77006177,65.53112278,50.25445610,-177.17379888,141.17440917,-35.08688940
179.31510970,103.95048947,-72.95822077,179.40911469,-178.33625262,59.51031102
-70.85052938,60.18145707,60.06547593,-175.28378531,29.22746718,7.44662955
57.23507391,2.01703618,-0.72525511,2.25372952

>  <Name>
1j7t

>  <RI>
0

>  <Rbt.Current_Directory>
/home/itssahil/PROJECTS/Mol_Feturizer/New_Systems/rnas/1j7t

>  <Rbt.Executable>
rbdock ($Id: //depot/dev/client3/rdock/2013.1/src/exe/rbdock.cxx#4 $)

>  <Rbt.Library>
libRbt.so (2013.1, Build901 2013/11/27)

>  <Rbt.Parameter_File>
/export/apps/rDock/src/rDock_2013.1_src/data/scripts/dock_solv.prm

>  <Rbt.Receptor>
prm/pocket_docking_4.prm

>  <SCORE>
-46.9239

>  <SCORE.INTER>
-35.9729

>  <SCORE.INTER.CONST>
1

>  <SCORE.INTER.POLAR>
-6.16655

>  <SCORE.INTER.ROT>
9

>  <SCORE.INTER.SOLV>
23.5313

>  <SCORE.INTER.VDW>
-20.8706

>  <SCORE.INTER.norm>
-0.856499

>  <SCORE.INTRA>
-10.951

>  <SCORE.INTRA.DIHEDRAL>
-25.3336

>  <SCORE.INTRA.DIHEDRAL.0>
46.2143

>  <SCORE.INTRA.POLAR>
1.04355

>  <SCORE.INTRA.POLAR.0>
-1.76436

>  <SCORE.INTRA.REPUL>
0.0466026

>  <SCORE.INTRA.REPUL.0>
0

>  <SCORE.INTRA.SOLV>
-0.530915

>  <SCORE.INTRA.SOLV.lig_0>
-148.643

>  <SCORE.INTRA.VDW>
-1.79983

>  <SCORE.INTRA.VDW.0>
-4.83512

>  <SCORE.INTRA.norm>
-0.260738

>  <SCORE.RESTR>
0

>  <SCORE.RESTR.CAVITY>
0

>  <SCORE.RESTR.norm>
0

>  <SCORE.SYSTEM>
0

>  <SCORE.SYSTEM.CONST>
0

>  <SCORE.SYSTEM.DIHEDRAL>
0

>  <SCORE.SYSTEM.SOLV>
0

>  <SCORE.SYSTEM.norm>
0

>  <SCORE.heavy>
42

>  <SCORE.norm>
-1.11724

>  <RMSD>
9.413

$$$$
1j7t
 OpenBabel11021811393D
libRbt.so/2013.1/901 2013/11/27
 42 45  0  0  0  0  0  0  0  0999 V2000
   25.0418    5.0504   57.9228 C   0  0  2  0  0  0  0  0  0  0  0  0
   24.6688    6.4280   57.6665 O   0  0  0  0  0  0  0  0  0  0  0  0
   23.7567    4.1930   57.7392 C   0  0  2  0  0  0  0  0  0  0  0  0
   23.0628    4.3902   56.4341 N   0  3  0  0  0  0  0  0  0  0  0  0
   22.7676    4.5654   58.8652 C   0  0  1  0  0  0  0  0  0  0  0  0
   21.5936    3.8103   58.7602 O   0  0  0  0  0  0  0  0  0  0  0  0
   23.4313    4.3521   60.2463 C   0  0  2  0  0  0  0  0  0  0  0  0
   22.5343    4.6672   61.2929 O   0  0  0  0  0  0  0  0  0  0  0  0
   24.6610    5.2270   60.3662 C   0  0  2  0  0  0  0  0  0  0  0  0
   25.5468    4.9425   59.2908 O   0  0  0  0  0  0  0  0  0  0  0  0
   25.4346    4.9902   61.6439 C   0  0  0  0  0  0  0  0  0  0  0  0
   26.5395    5.8721   61.6963 O   0  0  0  0  0  0  0  0  0  0  0  0
   26.7350   10.0938   57.2910 C   0  0  2  0  0  0  0  0  0  0  0  0
   27.6285   11.2168   57.5767 N   0  3  0  0  0  0  0  0  0  0  0  0
   25.6371    9.9893   58.4010 C   0  0  0  0  0  0  0  0  0  0  0  0
   24.7236    8.7785   58.1303 C   0  0  2  0  0  0  0  0  0  0  0  0
   23.7210    8.6336   59.1908 N   0  3  0  0  0  0  0  0  0  0  0  0
   25.5596    7.4871   58.0357 C   0  0  2  0  0  0  0  0  0  0  0  0
   26.6678    7.5719   56.9680 C   0  0  2  0  0  0  0  0  0  0  0  0
   27.4490    6.3697   57.1084 O   0  0  0  0  0  0  0  0  0  0  0  0
   27.5572    8.8173   57.2123 C   0  0  1  0  0  0  0  0  0  0  0  0
   28.4912    8.9274   56.1738 O   0  0  0  0  0  0  0  0  0  0  0  0
   28.3030    5.8631   56.0860 C   0  0  1  0  0  0  0  0  0  0  0  0
   29.7318    5.6343   56.6962 C   0  0  2  0  0  0  0  0  0  0  0  0
   30.5704    6.7757   56.6412 O   0  0  0  0  0  0  0  0  0  0  0  0
   30.1690    4.4790   55.8067 C   0  0  2  0  0  0  0  0  0  0  0  0
   30.3780    4.9229   54.4323 O   0  0  0  0  0  0  0  0  0  0  0  0
   28.9484    3.5695   55.8161 C   0  0  2  0  0  0  0  0  0  0  0  0
   27.8897    4.5320   55.6728 O   0  0  0  0  0  0  0  0  0  0  0  0
   28.7935    2.6885   57.0989 C   0  0  0  0  0  0  0  0  0  0  0  0
   29.1843    3.4000   58.2800 O   0  0  0  0  0  0  0  0  0  0  0  0
   31.6927    5.4090   54.1737 C   0  0  2  0  0  0  0  0  0  0  0  0
   31.8773    6.0833   52.7717 C   0  0  2  0  0  0  0  0  0  0  0  0
   31.5338    5.1711   51.6389 N   0  3  0  0  0  0  0  0  0  0  0  0
   33.3633    6.5676   52.6885 C   0  0  1  0  0  0  0  0  0  0  0  0
   33.5500    7.5889   53.7418 O   0  0  0  0  0  0  0  0  0  0  0  0
   34.3956    5.3979   52.9282 C   0  0  2  0  0  0  0  0  0  0  0  0
   34.2499    4.4359   51.8708 O   0  0  0  0  0  0  0  0  0  0  0  0
   34.0975    4.7600   54.3482 C   0  0  1  0  0  0  0  0  0  0  0  0
   32.6989    4.3157   54.3490 O   0  0  0  0  0  0  0  0  0  0  0  0
   35.0201    3.5794   54.7278 C   0  0  0  0  0  0  0  0  0  0  0  0
   34.6403    2.9189   56.0061 N   0  3  0  0  0  0  0  0  0  0  0  0
  1  2  1  1  0  0  0
  1  3  1  0  0  0  0
  1 10  1  0  0  0  0
  3  4  1  6  0  0  0
  3  5  1  0  0  0  0
  5  6  1  1  0  0  0
  5  7  1  0  0  0  0
  7  8  1  1  0  0  0
  7  9  1  0  0  0  0
  9 10  1  0  0  0  0
  9 11  1  1  0  0  0
 11 12  1  0  0  0  0
 13 14  1  1  0  0  0
 13 15  1  0  0  0  0
 13 21  1  0  0  0  0
 15 16  1  0  0  0  0
 16 17  1  1  0  0  0
 16 18  1  0  0  0  0
 18  2  1  6  0  0  0
 18 19  1  0  0  0  0
 19 20  1  1  0  0  0
 19 21  1  0  0  0  0
 21 22  1  6  0  0  0
 23 20  1  1  0  0  0
 23 24  1  0  0  0  0
 23 29  1  0  0  0  0
 24 25  1  6  0  0  0
 24 26  1  0  0  0  0
 26 27  1  6  0  0  0
 26 28  1  0  0  0  0
 28 29  1  0  0  0  0
 28 30  1  1  0  0  0
 30 31  1  0  0  0  0
 32 27  1  6  0  0  0
 32 33  1  0  0  0  0
 32 40  1  0  0  0  0
 33 34  1  6  0  0  0
 33 35  1  0  0  0  0
 35 36  1  1  0  0  0
 35 37  1  0  0  0  0
 37 38  1  6  0  0  0
 37 39  1  0  0  0  0
 39 40  1  0  0  0  0
 39 41  1  6  0  0  0
 41 42  1  0  0  0  0
M  CHG  5   4   1  14   1  17   1  34   1  42   1
M  END
>  <CHROM.1>
166.48941810,-159.63865452,172.51287664,-72.92630888,63.13613731,-178.20171642
61.32137661,-62.68894700,165.96441260,160.53525001,127.12908794,-58.16273758
42.02905141,87.67841519,-171.40761217,37.84011742,-176.75395267,173.87638128
-60.42927391,176.81914789,-174.67443010,-82.47866908,28.19680272,5.81616678
56.76339582,3.12143430,0.54735382,-0.12316591

>  <Name>
1j7t

>  <RI>
0

>  <Rbt.Current_Directory>
/home/itssahil/PROJECTS/Mol_Feturizer/New_Systems/rnas/1j7t

>  <Rbt.Executable>
rbdock ($Id: //depot/dev/client3/rdock/2013.1/src/exe/rbdock.cxx#4 $)

>  <Rbt.Library>
libRbt.so (2013.1, Build901 2013/11/27)

>  <Rbt.Parameter_File>
/export/apps/rDock/src/rDock_2013.1_src/data/scripts/dock_solv.prm

>  <Rbt.Receptor>
prm/pocket_docking_6.prm

>  <SCORE>
-37.7279

>  <SCORE.INTER>
-21.627

>  <SCORE.INTER.CONST>
1

>  <SCORE.INTER.POLAR>
-4.72305

>  <SCORE.INTER.ROT>
9

>  <SCORE.INTER.SOLV>
18.0563

>  <SCORE.INTER.VDW>
-14.2933

>  <SCORE.INTER.norm>
-0.514928

>  <SCORE.INTRA>
-16.1009

>  <SCORE.INTRA.DIHEDRAL>
-25.1306

>  <SCORE.INTRA.DIHEDRAL.0>
46.2143

>  <SCORE.INTRA.POLAR>
0.197893

>  <SCORE.INTRA.POLAR.0>
-1.76436

>  <SCORE.INTRA.REPUL>
0.0159869

>  <SCORE.INTRA.REPUL.0>
0

>  <SCORE.INTRA.SOLV>
-4.47299

>  <SCORE.INTRA.SOLV.lig_0>
-148.643

>  <SCORE.INTRA.VDW>
-2.05182

>  <SCORE.INTRA.VDW.0>
-4.83512

>  <SCORE.INTRA.norm>
-0.383354

>  <SCORE.RESTR>
0

>  <SCORE.RESTR.CAVITY>
0

>  <SCORE.RESTR.norm>
0

>  <SCORE.SYSTEM>
0

>  <SCORE.SYSTEM.CONST>
0

>  <SCORE.SYSTEM.DIHEDRAL>
0

>  <SCORE.SYSTEM.SOLV>
0

>  <SCORE.SYSTEM.norm>
0

>  <SCORE.heavy>
42

>  <SCORE.norm>
-0.898282

>  <RMSD>
9.415

$$$$
1j7t
 OpenBabel11021811393D
libRbt.so/2013.1/901 2013/11/27
 42 45  0  0  0  0  0  0  0  0999 V2000
   26.4470    5.2912   59.7207 C   0  0  2  0  0  0  0  0  0  0  0  0
   26.9484    6.6365   59.9239 O   0  0  0  0  0  0  0  0  0  0  0  0
   24.9704    5.4260   59.2499 C   0  0  2  0  0  0  0  0  0  0  0  0
   24.7759    6.3193   58.0719 N   0  3  0  0  0  0  0  0  0  0  0  0
   24.1441    5.9978   60.4226 C   0  0  1  0  0  0  0  0  0  0  0  0
   22.7979    6.1264   60.0610 O   0  0  0  0  0  0  0  0  0  0  0  0
   24.2901    5.0899   61.6667 C   0  0  2  0  0  0  0  0  0  0  0  0
   23.5233    5.5845   62.7468 O   0  0  0  0  0  0  0  0  0  0  0  0
   25.7441    5.0174   62.0823 C   0  0  2  0  0  0  0  0  0  0  0  0
   26.5243    4.5604   60.9848 O   0  0  0  0  0  0  0  0  0  0  0  0
   25.9873    4.0542   63.2225 C   0  0  0  0  0  0  0  0  0  0  0  0
   27.3079    4.2164   63.7031 O   0  0  0  0  0  0  0  0  0  0  0  0
   30.6528    8.4240   60.8887 C   0  0  2  0  0  0  0  0  0  0  0  0
   31.9269    8.7009   61.5529 N   0  3  0  0  0  0  0  0  0  0  0  0
   29.4727    8.6072   61.8998 C   0  0  0  0  0  0  0  0  0  0  0  0
   28.1333    8.2691   61.2177 C   0  0  2  0  0  0  0  0  0  0  0  0
   27.0208    8.3836   62.1665 N   0  3  0  0  0  0  0  0  0  0  0  0
   28.1708    6.8397   60.6423 C   0  0  2  0  0  0  0  0  0  0  0  0
   29.3409    6.6224   59.6631 C   0  0  2  0  0  0  0  0  0  0  0  0
   29.3343    5.2185   59.3398 O   0  0  0  0  0  0  0  0  0  0  0  0
   30.6836    7.0088   60.3338 C   0  0  1  0  0  0  0  0  0  0  0  0
   31.7166    6.8987   59.3938 O   0  0  0  0  0  0  0  0  0  0  0  0
   29.4696    4.7167   58.0128 C   0  0  1  0  0  0  0  0  0  0  0  0
   30.8888    5.1141   57.4705 C   0  0  2  0  0  0  0  0  0  0  0  0
   30.9311    6.3864   56.8473 O   0  0  0  0  0  0  0  0  0  0  0  0
   31.1032    3.9366   56.5300 C   0  0  2  0  0  0  0  0  0  0  0  0
   30.1964    4.0029   55.3885 O   0  0  0  0  0  0  0  0  0  0  0  0
   30.6838    2.7473   57.3826 C   0  0  2  0  0  0  0  0  0  0  0  0
   29.4943    3.2632   58.0044 O   0  0  0  0  0  0  0  0  0  0  0  0
   31.7514    2.2733   58.4224 C   0  0  0  0  0  0  0  0  0  0  0  0
   31.4948    0.9371   58.8728 O   0  0  0  0  0  0  0  0  0  0  0  0
   30.5210    5.0244   54.4489 C   0  0  2  0  0  0  0  0  0  0  0  0
   29.6717    4.9971   53.1328 C   0  0  2  0  0  0  0  0  0  0  0  0
   29.7787    3.6992   52.3996 N   0  3  0  0  0  0  0  0  0  0  0  0
   30.1551    6.1963   52.2507 C   0  0  1  0  0  0  0  0  0  0  0  0
   29.8495    7.4374   52.9948 O   0  0  0  0  0  0  0  0  0  0  0  0
   31.7059    6.1482   51.9609 C   0  0  2  0  0  0  0  0  0  0  0  0
   31.9901    4.9701   51.1889 O   0  0  0  0  0  0  0  0  0  0  0  0
   32.4676    6.1378   53.3508 C   0  0  1  0  0  0  0  0  0  0  0  0
   31.9788    4.9842   54.1148 O   0  0  0  0  0  0  0  0  0  0  0  0
   34.0078    6.0742   53.2381 C   0  0  0  0  0  0  0  0  0  0  0  0
   34.6748    5.6258   54.4905 N   0  3  0  0  0  0  0  0  0  0  0  0
  1  2  1  1  0  0  0
  1  3  1  0  0  0  0
  1 10  1  0  0  0  0
  3  4  1  6  0  0  0
  3  5  1  0  0  0  0
  5  6  1  6  0  0  0
  5  7  1  0  0  0  0
  7  8  1  1  0  0  0
  7  9  1  0  0  0  0
  9 10  1  0  0  0  0
  9 11  1  1  0  0  0
 11 12  1  0  0  0  0
 13 14  1  1  0  0  0
 13 15  1  0  0  0  0
 13 21  1  0  0  0  0
 15 16  1  0  0  0  0
 16 17  1  1  0  0  0
 16 18  1  0  0  0  0
 18  2  1  6  0  0  0
 18 19  1  0  0  0  0
 19 20  1  1  0  0  0
 19 21  1  0  0  0  0
 21 22  1  6  0  0  0
 23 20  1  1  0  0  0
 23 24  1  0  0  0  0
 23 29  1  0  0  0  0
 24 25  1  6  0  0  0
 24 26  1  0  0  0  0
 26 27  1  6  0  0  0
 26 28  1  0  0  0  0
 28 29  1  0  0  0  0
 28 30  1  1  0  0  0
 30 31  1  0  0  0  0
 32 27  1  1  0  0  0
 32 33  1  0  0  0  0
 32 40  1  0  0  0  0
 33 34  1  6  0  0  0
 33 35  1  0  0  0  0
 35 36  1  1  0  0  0
 35 37  1  0  0  0  0
 37 38  1  1  0  0  0
 37 39  1  0  0  0  0
 39 40  1  0  0  0  0
 39 41  1  6  0  0  0
 41 42  1  0  0  0  0
M  CHG  5   4   1  14   1  17   1  34   1  42   1
M  END
>  <CHROM.1>
165.87222164,-155.91360570,176.03278258,-60.60924647,50.84756931,-169.79613036
66.29349107,67.03113726,-60.60765214,134.39769121,63.82273870,150.98334970
-179.83909230,72.11753782,172.70194571,-161.25836781,-59.54842456,45.56421314
178.10988374,178.63345374,-161.22462944,121.08702183,29.11719826,5.56656410
58.08112410,2.20673478,0.17118018,1.35023447

>  <Name>
1j7t

>  <RI>
0

>  <Rbt.Current_Directory>
/home/itssahil/PROJECTS/Mol_Feturizer/New_Systems/rnas/1j7t

>  <Rbt.Executable>
rbdock ($Id: //depot/dev/client3/rdock/2013.1/src/exe/rbdock.cxx#4 $)

>  <Rbt.Library>
libRbt.so (2013.1, Build901 2013/11/27)

>  <Rbt.Parameter_File>
/export/apps/rDock/src/rDock_2013.1_src/data/scripts/dock_solv.prm

>  <Rbt.Receptor>
prm/pocket_docking_6.prm

>  <SCORE>
-39.6987

>  <SCORE.INTER>
-28.227

>  <SCORE.INTER.CONST>
1

>  <SCORE.INTER.POLAR>
-4.90293

>  <SCORE.INTER.ROT>
9

>  <SCORE.INTER.SOLV>
20.5044

>  <SCORE.INTER.VDW>
-18.9097

>  <SCORE.INTER.norm>
-0.672072

>  <SCORE.INTRA>
-11.4717

>  <SCORE.INTRA.DIHEDRAL>
-23.8607

>  <SCORE.INTRA.DIHEDRAL.0>
46.2143

>  <SCORE.INTRA.POLAR>
0.8293

>  <SCORE.INTRA.POLAR.0>
-1.76436

>  <SCORE.INTRA.REPUL>
0.007875

>  <SCORE.INTRA.REPUL.0>
0

>  <SCORE.INTRA.SOLV>
-3.4554

>  <SCORE.INTRA.SOLV.lig_0>
-148.643

>  <SCORE.INTRA.VDW>
-0.672639

>  <SCORE.INTRA.VDW.0>
-4.83512

>  <SCORE.INTRA.norm>
-0.273136

>  <SCORE.RESTR>
0

>  <SCORE.RESTR.CAVITY>
0

>  <SCORE.RESTR.norm>
0

>  <SCORE.SYSTEM>
0

>  <SCORE.SYSTEM.CONST>
0

>  <SCORE.SYSTEM.DIHEDRAL>
0

>  <SCORE.SYSTEM.SOLV>
0

>  <SCORE.SYSTEM.norm>
0

>  <SCORE.heavy>
42

>  <SCORE.norm>
-0.945208

>  <RMSD>
9.442

$$$$
1j7t
 OpenBabel11021811393D
libRbt.so/2013.1/901 2013/11/27
 42 45  0  0  0  0  0  0  0  0999 V2000
   25.9549    6.6361   56.9707 C   0  0  2  0  0  0  0  0  0  0  0  0
   24.9631    7.6245   57.3472 O   0  0  0  0  0  0  0  0  0  0  0  0
   25.1971    5.2941   56.7585 C   0  0  2  0  0  0  0  0  0  0  0  0
   24.0473    5.3759   55.8125 N   0  3  0  0  0  0  0  0  0  0  0  0
   24.6548    4.8287   58.1275 C   0  0  1  0  0  0  0  0  0  0  0  0
   23.9743    3.6120   58.0009 O   0  0  0  0  0  0  0  0  0  0  0  0
   25.8156    4.7011   59.1423 C   0  0  2  0  0  0  0  0  0  0  0  0
   25.3432    4.2549   60.3981 O   0  0  0  0  0  0  0  0  0  0  0  0
   26.4963    6.0422   59.3160 C   0  0  2  0  0  0  0  0  0  0  0  0
   26.9355    6.5138   58.0484 O   0  0  0  0  0  0  0  0  0  0  0  0
   27.7180    5.9761   60.2049 C   0  0  0  0  0  0  0  0  0  0  0  0
   27.3136    5.8073   61.5500 O   0  0  0  0  0  0  0  0  0  0  0  0
   25.0746   11.3949   59.2499 C   0  0  2  0  0  0  0  0  0  0  0  0
   25.3462   12.4434   60.2339 N   0  3  0  0  0  0  0  0  0  0  0  0
   24.1715   10.2867   59.8861 C   0  0  0  0  0  0  0  0  0  0  0  0
   23.9235    9.1567   58.8686 C   0  0  2  0  0  0  0  0  0  0  0  0
   23.1226    8.0830   59.4659 N   0  3  0  0  0  0  0  0  0  0  0  0
   25.2635    8.5801   58.3710 C   0  0  2  0  0  0  0  0  0  0  0  0
   26.1856    9.6554   57.7638 C   0  0  2  0  0  0  0  0  0  0  0  0
   27.4396    8.9991   57.4951 O   0  0  0  0  0  0  0  0  0  0  0  0
   26.3958   10.8155   58.7697 C   0  0  1  0  0  0  0  0  0  0  0  0
   27.1526   11.8238   58.1586 O   0  0  0  0  0  0  0  0  0  0  0  0
   28.2551    9.2944   56.3642 C   0  0  1  0  0  0  0  0  0  0  0  0
   29.7495    9.3903   56.8371 C   0  0  2  0  0  0  0  0  0  0  0  0
   30.1317   10.6819   57.2783 O   0  0  0  0  0  0  0  0  0  0  0  0
   30.4184    8.9334   55.5483 C   0  0  2  0  0  0  0  0  0  0  0  0
   30.2596    9.9277   54.4919 O   0  0  0  0  0  0  0  0  0  0  0  0
   29.5958    7.7131   55.1593 C   0  0  2  0  0  0  0  0  0  0  0  0
   28.2638    8.1863   55.4234 O   0  0  0  0  0  0  0  0  0  0  0  0
   29.9402    6.4078   55.9488 C   0  0  0  0  0  0  0  0  0  0  0  0
   28.8900    5.4374   55.8511 O   0  0  0  0  0  0  0  0  0  0  0  0
   30.2606    9.3805   53.1758 C   0  0  2  0  0  0  0  0  0  0  0  0
   31.3166    8.2479   52.9386 C   0  0  2  0  0  0  0  0  0  0  0  0
   32.7168    8.6931   53.2120 N   0  3  0  0  0  0  0  0  0  0  0  0
   31.1462    7.7652   51.4595 C   0  0  1  0  0  0  0  0  0  0  0  0
   29.7888    7.1898   51.3410 O   0  0  0  0  0  0  0  0  0  0  0  0
   31.2900    8.9425   50.4181 C   0  0  2  0  0  0  0  0  0  0  0  0
   32.6278    9.4611   50.4965 O   0  0  0  0  0  0  0  0  0  0  0  0
   30.2099   10.0477   50.7702 C   0  0  1  0  0  0  0  0  0  0  0  0
   30.4384   10.4633   52.1589 O   0  0  0  0  0  0  0  0  0  0  0  0
   30.2328   11.2853   49.8447 C   0  0  0  0  0  0  0  0  0  0  0  0
   29.8669   10.9772   48.4355 N   0  3  0  0  0  0  0  0  0  0  0  0
  1  2  1  1  0  0  0
  1  3  1  0  0  0  0
  1 10  1  0  0  0  0
  3  4  1  6  0  0  0
  3  5  1  0  0  0  0
  5  6  1  6  0  0  0
  5  7  1  0  0  0  0
  7  8  1  1  0  0  0
  7  9  1  0  0  0  0
  9 10  1  0  0  0  0
  9 11  1  1  0  0  0
 11 12  1  0  0  0  0
 13 14  1  1  0  0  0
 13 15  1  0  0  0  0
 13 21  1  0  0  0  0
 15 16  1  0  0  0  0
 16 17  1  1  0  0  0
 16 18  1  0  0  0  0
 18  2  1  6  0  0  0
 18 19  1  0  0  0  0
 19 20  1  1  0  0  0
 19 21  1  0  0  0  0
 21 22  1  6  0  0  0
 23 20  1  1  0  0  0
 23 24  1  0  0  0  0
 23 29  1  0  0  0  0
 24 25  1  6  0  0  0
 24 26  1  0  0  0  0
 26 27  1  6  0  0  0
 26 28  1  0  0  0  0
 28 29  1  0  0  0  0
 28 30  1  1  0  0  0
 30 31  1  0  0  0  0
 32 27  1  1  0  0  0
 32 33  1  0  0  0  0
 32 40  1  0  0  0  0
 33 34  1  6  0  0  0
 33 35  1  0  0  0  0
 35 36  1  1  0  0  0
 35 37  1  0  0  0  0
 37 38  1  1  0  0  0
 37 39  1  0  0  0  0
 39 40  1  0  0  0  0
 39 41  1  6  0  0  0
 41 42  1  0  0  0  0
M  CHG  5   4   1  14   1  17   1  34   1  42   1
M  END
>  <CHROM.1>
139.43890333,-161.46954357,53.67587610,-64.31933342,-53.56754878,-72.85492243
-173.87213804,169.70819729,174.08997956,143.82707373,136.00529088,-52.91779185
48.84836664,-151.75746857,-41.01419465,161.78887958,-72.74745044,49.11174883
63.52388254,178.11091016,65.03237358,-177.64280132,27.80128031,8.24265660
56.11915967,-3.04505993,0.95082313,0.17702731

>  <Name>
1j7t

>  <RI>
0

>  <Rbt.Current_Directory>
/home/itssahil/PROJECTS/Mol_Feturizer/New_Systems/rnas/1j7t

>  <Rbt.Executable>
rbdock ($Id: //depot/dev/client3/rdock/2013.1/src/exe/rbdock.cxx#4 $)

>  <Rbt.Library>
libRbt.so (2013.1, Build901 2013/11/27)

>  <Rbt.Parameter_File>
/export/apps/rDock/src/rDock_2013.1_src/data/scripts/dock_solv.prm

>  <Rbt.Receptor>
prm/pocket_docking_6.prm

>  <SCORE>
-55.2915

>  <SCORE.INTER>
-46.3902

>  <SCORE.INTER.CONST>
1

>  <SCORE.INTER.POLAR>
-8.03887

>  <SCORE.INTER.ROT>
9

>  <SCORE.INTER.SOLV>
31.4857

>  <SCORE.INTER.VDW>
-24.2258

>  <SCORE.INTER.norm>
-1.10453

>  <SCORE.INTRA>
-9.27928

>  <SCORE.INTRA.DIHEDRAL>
-18.5505

>  <SCORE.INTRA.DIHEDRAL.0>
46.2143

>  <SCORE.INTRA.POLAR>
-0.200419

>  <SCORE.INTRA.POLAR.0>
-1.76436

>  <SCORE.INTRA.REPUL>
0

>  <SCORE.INTRA.REPUL.0>
0

>  <SCORE.INTRA.SOLV>
-2.31926

>  <SCORE.INTRA.SOLV.lig_0>
-148.643

>  <SCORE.INTRA.VDW>
1.83701

>  <SCORE.INTRA.VDW.0>
-4.83512

>  <SCORE.INTRA.norm>
-0.220935

>  <SCORE.RESTR>
0.377973

>  <SCORE.RESTR.CAVITY>
0.377973

>  <SCORE.RESTR.norm>
0.00899937

>  <SCORE.SYSTEM>
0

>  <SCORE.SYSTEM.CONST>
0

>  <SCORE.SYSTEM.DIHEDRAL>
0

>  <SCORE.SYSTEM.SOLV>
0

>  <SCORE.SYSTEM.norm>
0

>  <SCORE.heavy>
42

>  <SCORE.norm>
-1.31646

>  <RMSD>
9.460

$$$$
1j7t
 OpenBabel11021811393D
libRbt.so/2013.1/901 2013/11/27
 42 45  0  0  0  0  0  0  0  0999 V2000
   27.5330    5.0233   59.1820 C   0  0  2  0  0  0  0  0  0  0  0  0
   26.4760    5.0806   58.1911 O   0  0  0  0  0  0  0  0  0  0  0  0
   27.3767    3.6689   59.9313 C   0  0  2  0  0  0  0  0  0  0  0  0
   27.3267    2.4726   59.0426 N   0  3  0  0  0  0  0  0  0  0  0  0
   26.0612    3.7174   60.7387 C   0  0  1  0  0  0  0  0  0  0  0  0
   25.8745    2.5261   61.4497 O   0  0  0  0  0  0  0  0  0  0  0  0
   26.0729    4.9298   61.6998 C   0  0  2  0  0  0  0  0  0  0  0  0
   24.8850    4.9805   62.4649 O   0  0  0  0  0  0  0  0  0  0  0  0
   26.2081    6.2126   60.9072 C   0  0  2  0  0  0  0  0  0  0  0  0
   27.3799    6.1476   60.1043 O   0  0  0  0  0  0  0  0  0  0  0  0
   26.3455    7.4382   61.7824 C   0  0  0  0  0  0  0  0  0  0  0  0
   27.4910    7.3063   62.6019 O   0  0  0  0  0  0  0  0  0  0  0  0
   25.8295    6.6992   54.3427 C   0  0  2  0  0  0  0  0  0  0  0  0
   25.8546    7.6161   53.2025 N   0  3  0  0  0  0  0  0  0  0  0  0
   25.0797    7.3628   55.5451 C   0  0  0  0  0  0  0  0  0  0  0  0
   25.0937    6.4201   56.7635 C   0  0  2  0  0  0  0  0  0  0  0  0
   24.4415    7.0484   57.9172 N   0  3  0  0  0  0  0  0  0  0  0  0
   26.5420    6.0457   57.1349 C   0  0  2  0  0  0  0  0  0  0  0  0
   27.3139    5.4145   55.9598 C   0  0  2  0  0  0  0  0  0  0  0  0
   28.6748    5.2690   56.4094 O   0  0  0  0  0  0  0  0  0  0  0  0
   27.2585    6.3413   54.7189 C   0  0  1  0  0  0  0  0  0  0  0  0
   27.8791    5.7015   53.6379 O   0  0  0  0  0  0  0  0  0  0  0  0
   29.8068    5.5977   55.6084 C   0  0  1  0  0  0  0  0  0  0  0  0
   30.2251    7.0792   55.9183 C   0  0  2  0  0  0  0  0  0  0  0  0
   29.5553    8.0441   55.1251 O   0  0  0  0  0  0  0  0  0  0  0  0
   31.7162    6.9501   55.6405 C   0  0  2  0  0  0  0  0  0  0  0  0
   31.9705    6.7427   54.2185 O   0  0  0  0  0  0  0  0  0  0  0  0
   32.0810    5.6625   56.3660 C   0  0  2  0  0  0  0  0  0  0  0  0
   30.9705    4.8226   56.0065 O   0  0  0  0  0  0  0  0  0  0  0  0
   32.2537    5.8050   57.9138 C   0  0  0  0  0  0  0  0  0  0  0  0
   32.8894    7.0408   58.2639 O   0  0  0  0  0  0  0  0  0  0  0  0
   33.3458    6.5498   53.8977 C   0  0  2  0  0  0  0  0  0  0  0  0
   33.6708    6.5783   52.3654 C   0  0  2  0  0  0  0  0  0  0  0  0
   32.9084    5.5525   51.5910 N   0  3  0  0  0  0  0  0  0  0  0  0
   35.2160    6.3753   52.2210 C   0  0  1  0  0  0  0  0  0  0  0  0
   35.8715    7.5296   52.8734 O   0  0  0  0  0  0  0  0  0  0  0  0
   35.7196    5.0491   52.9129 C   0  0  2  0  0  0  0  0  0  0  0  0
   35.1247    3.9279   52.2392 O   0  0  0  0  0  0  0  0  0  0  0  0
   35.3064    5.1026   54.4421 C   0  0  1  0  0  0  0  0  0  0  0  0
   33.8506    5.2774   54.5014 O   0  0  0  0  0  0  0  0  0  0  0  0
   35.7163    3.8578   55.2616 C   0  0  0  0  0  0  0  0  0  0  0  0
   34.6504    2.8220   55.3375 N   0  3  0  0  0  0  0  0  0  0  0  0
  1  2  1  6  0  0  0
  1  3  1  0  0  0  0
  1 10  1  0  0  0  0
  3  4  1  6  0  0  0
  3  5  1  0  0  0  0
  5  6  1  1  0  0  0
  5  7  1  0  0  0  0
  7  8  1  6  0  0  0
  7  9  1  0  0  0  0
  9 10  1  0  0  0  0
  9 11  1  1  0  0  0
 11 12  1  0  0  0  0
 13 14  1  6  0  0  0
 13 15  1  0  0  0  0
 13 21  1  0  0  0  0
 15 16  1  0  0  0  0
 16 17  1  1  0  0  0
 16 18  1  0  0  0  0
 18  2  1  1  0  0  0
 18 19  1  0  0  0  0
 19 20  1  1  0  0  0
 19 21  1  0  0  0  0
 21 22  1  6  0  0  0
 23 20  1  1  0  0  0
 23 24  1  0  0  0  0
 23 29  1  0  0  0  0
 24 25  1  6  0  0  0
 24 26  1  0  0  0  0
 26 27  1  6  0  0  0
 26 28  1  0  0  0  0
 28 29  1  0  0  0  0
 28 30  1  1  0  0  0
 30 31  1  0  0  0  0
 32 27  1  6  0  0  0
 32 33  1  0  0  0  0
 32 40  1  0  0  0  0
 33 34  1  6  0  0  0
 33 35  1  0  0  0  0
 35 36  1  1  0  0  0
 35 37  1  0  0  0  0
 37 38  1  6  0  0  0
 37 39  1  0  0  0  0
 39 40  1  0  0  0  0
 39 41  1  1  0  0  0
 41 42  1  0  0  0  0
M  CHG  5   4   1  14   1  17   1  34   1  42   1
M  END
>  <CHROM.1>
-165.02550821,-149.14972179,-104.44365486,53.42788554,-59.27656714,59.47505502
-176.30669446,163.86787867,174.79392215,-136.28967157,93.07686133,78.15664821
-178.63702715,-177.16458441,-169.71460873,-38.22629128,177.81066048,36.62487676
-173.87266341,173.29617027,-93.25093475,97.13914237,29.66571996,5.69729657
56.58960485,-2.51534786,0.21449789,-1.26432697

>  <Name>
1j7t

>  <RI>
0

>  <Rbt.Current_Directory>
/home/itssahil/PROJECTS/Mol_Feturizer/New_Systems/rnas/1j7t

>  <Rbt.Executable>
rbdock ($Id: //depot/dev/client3/rdock/2013.1/src/exe/rbdock.cxx#4 $)

>  <Rbt.Library>
libRbt.so (2013.1, Build901 2013/11/27)

>  <Rbt.Parameter_File>
/export/apps/rDock/src/rDock_2013.1_src/data/scripts/dock_solv.prm

>  <Rbt.Receptor>
prm/pocket_docking_3.prm

>  <SCORE>
-32.7452

>  <SCORE.INTER>
-27.8518

>  <SCORE.INTER.CONST>
1

>  <SCORE.INTER.POLAR>
-5.3712

>  <SCORE.INTER.ROT>
9

>  <SCORE.INTER.SOLV>
19.1915

>  <SCORE.INTER.VDW>
-16.661

>  <SCORE.INTER.norm>
-0.663137

>  <SCORE.INTRA>
-4.99991

>  <SCORE.INTRA.DIHEDRAL>
-15.9883

>  <SCORE.INTRA.DIHEDRAL.0>
46.2143

>  <SCORE.INTRA.POLAR>
0.530156

>  <SCORE.INTRA.POLAR.0>
-1.76436

>  <SCORE.INTRA.REPUL>
0

>  <SCORE.INTRA.REPUL.0>
0

>  <SCORE.INTRA.SOLV>
-0.554596

>  <SCORE.INTRA.SOLV.lig_0>
-148.643

>  <SCORE.INTRA.VDW>
1.469

>  <SCORE.INTRA.VDW.0>
-4.83512

>  <SCORE.INTRA.norm>
-0.119045

>  <SCORE.RESTR>
0.106464

>  <SCORE.RESTR.CAVITY>
0.106464

>  <SCORE.RESTR.norm>
0.00253486

>  <SCORE.SYSTEM>
0

>  <SCORE.SYSTEM.CONST>
0

>  <SCORE.SYSTEM.DIHEDRAL>
0

>  <SCORE.SYSTEM.SOLV>
0

>  <SCORE.SYSTEM.norm>
0

>  <SCORE.heavy>
42

>  <SCORE.norm>
-0.779648

>  <RMSD>
9.470

$$$$
1j7t
 OpenBabel11021811393D
libRbt.so/2013.1/901 2013/11/27
 42 45  0  0  0  0  0  0  0  0999 V2000
   26.0646    6.1146   61.1752 C   0  0  2  0  0  0  0  0  0  0  0  0
   27.2665    6.9165   61.2975 O   0  0  0  0  0  0  0  0  0  0  0  0
   26.5017    4.6259   61.2882 C   0  0  2  0  0  0  0  0  0  0  0  0
   27.3096    4.3087   62.5007 N   0  3  0  0  0  0  0  0  0  0  0  0
   27.3519    4.2808   60.0460 C   0  0  1  0  0  0  0  0  0  0  0  0
   27.7619    2.9429   60.0849 O   0  0  0  0  0  0  0  0  0  0  0  0
   26.5472    4.5671   58.7561 C   0  0  2  0  0  0  0  0  0  0  0  0
   27.3006    4.2374   57.6059 O   0  0  0  0  0  0  0  0  0  0  0  0
   26.1708    6.0325   58.6997 C   0  0  2  0  0  0  0  0  0  0  0  0
   25.4492    6.3778   59.8752 O   0  0  0  0  0  0  0  0  0  0  0  0
   25.2805    6.3710   57.5250 C   0  0  0  0  0  0  0  0  0  0  0  0
   24.0961    5.6006   57.5939 O   0  0  0  0  0  0  0  0  0  0  0  0
   25.5316   10.6678   60.4221 C   0  0  2  0  0  0  0  0  0  0  0  0
   25.3582   12.1126   60.2677 N   0  3  0  0  0  0  0  0  0  0  0  0
   25.7854   10.3182   61.9260 C   0  0  0  0  0  0  0  0  0  0  0  0
   26.0171    8.8035   62.0860 C   0  0  2  0  0  0  0  0  0  0  0  0
   26.3100    8.4649   63.4826 N   0  3  0  0  0  0  0  0  0  0  0  0
   27.1846    8.3426   61.1914 C   0  0  2  0  0  0  0  0  0  0  0  0
   26.9739    8.6988   59.7069 C   0  0  2  0  0  0  0  0  0  0  0  0
   28.2003    8.3508   59.0358 O   0  0  0  0  0  0  0  0  0  0  0  0
   26.6927   10.2149   59.5512 C   0  0  1  0  0  0  0  0  0  0  0  0
   26.4058   10.4949   58.2087 O   0  0  0  0  0  0  0  0  0  0  0  0
   28.3781    8.4433   57.6248 C   0  0  1  0  0  0  0  0  0  0  0  0
   29.6293    9.3475   57.3370 C   0  0  2  0  0  0  0  0  0  0  0  0
   29.3324   10.7309   57.2527 O   0  0  0  0  0  0  0  0  0  0  0  0
   30.0663    8.7087   56.0262 C   0  0  2  0  0  0  0  0  0  0  0  0
   29.1083    8.9857   54.9608 O   0  0  0  0  0  0  0  0  0  0  0  0
   29.9903    7.2206   56.3382 C   0  0  2  0  0  0  0  0  0  0  0  0
   28.7483    7.1560   57.0598 O   0  0  0  0  0  0  0  0  0  0  0  0
   31.1959    6.6577   57.1600 C   0  0  0  0  0  0  0  0  0  0  0  0
   31.5461    7.5239   58.2468 O   0  0  0  0  0  0  0  0  0  0  0  0
   29.6897    9.0510   53.6610 C   0  0  2  0  0  0  0  0  0  0  0  0
   28.6585    9.0469   52.4817 C   0  0  2  0  0  0  0  0  0  0  0  0
   27.7734    7.8427   52.4886 N   0  3  0  0  0  0  0  0  0  0  0  0
   29.4808    9.1473   51.1538 C   0  0  1  0  0  0  0  0  0  0  0  0
   30.1847   10.4480   51.1728 O   0  0  0  0  0  0  0  0  0  0  0  0
   30.5501    7.9946   51.0151 C   0  0  2  0  0  0  0  0  0  0  0  0
   29.8590    6.7370   50.9396 O   0  0  0  0  0  0  0  0  0  0  0  0
   31.5133    8.0612   52.2720 C   0  0  1  0  0  0  0  0  0  0  0  0
   30.6804    7.9456   53.4746 O   0  0  0  0  0  0  0  0  0  0  0  0
   32.6151    6.9775   52.2943 C   0  0  0  0  0  0  0  0  0  0  0  0
   33.5082    7.0659   53.4814 N   0  3  0  0  0  0  0  0  0  0  0  0
  1  2  1  6  0  0  0
  1  3  1  0  0  0  0
  1 10  1  0  0  0  0
  3  4  1  1  0  0  0
  3  5  1  0  0  0  0
  5  6  1  1  0  0  0
  5  7  1  0  0  0  0
  7  8  1  6  0  0  0
  7  9  1  0  0  0  0
  9 10  1  0  0  0  0
  9 11  1  6  0  0  0
 11 12  1  0  0  0  0
 13 14  1  1  0  0  0
 13 15  1  0  0  0  0
 13 21  1  0  0  0  0
 15 16  1  0  0  0  0
 16 17  1  1  0  0  0
 16 18  1  0  0  0  0
 18  2  1  6  0  0  0
 18 19  1  0  0  0  0
 19 20  1  6  0  0  0
 19 21  1  0  0  0  0
 21 22  1  6  0  0  0
 23 20  1  1  0  0  0
 23 24  1  0  0  0  0
 23 29  1  0  0  0  0
 24 25  1  6  0  0  0
 24 26  1  0  0  0  0
 26 27  1  6  0  0  0
 26 28  1  0  0  0  0
 28 29  1  0  0  0  0
 28 30  1  1  0  0  0
 30 31  1  0  0  0  0
 32 27  1  1  0  0  0
 32 33  1  0  0  0  0
 32 40  1  0  0  0  0
 33 34  1  6  0  0  0
 33 35  1  0  0  0  0
 35 36  1  1  0  0  0
 35 37  1  0  0  0  0
 37 38  1  1  0  0  0
 37 39  1  0  0  0  0
 39 40  1  0  0  0  0
 39 41  1  6  0  0  0
 41 42  1  0  0  0  0
M  CHG  5   4   1  14   1  17   1  34   1  42   1
M  END
>  <CHROM.1>
178.13380147,47.31051451,174.55575054,64.09350706,175.39175438,58.64514903
153.15263495,147.82616358,58.84862170,175.54334723,124.60108350,157.43736843
161.17297309,149.79580115,167.81117732,44.31334532,167.55241096,172.85260065
-67.22192125,66.76191907,179.77347077,-51.38206959,28.19795946,7.69910352
57.34498562,-2.78157899,1.07669939,-0.28599317

>  <Name>
1j7t

>  <RI>
224

>  <Rbt.Current_Directory>
/home/itssahil/PROJECTS/Mol_Feturizer/New_Systems/rnas/1j7t

>  <Rbt.Executable>
rbdock ($Id: //depot/dev/client3/rdock/2013.1/src/exe/rbdock.cxx#4 $)

>  <Rbt.Library>
libRbt.so (2013.1, Build901 2013/11/27)

>  <Rbt.Parameter_File>
/export/apps/rDock/src/rDock_2013.1_src/data/scripts/dock_solv.prm

>  <Rbt.Receptor>
prm/pocket_docking_7.prm

>  <SCORE>
-42.9878

>  <SCORE.INTER>
-30.7896

>  <SCORE.INTER.CONST>
1

>  <SCORE.INTER.POLAR>
-5.35885

>  <SCORE.INTER.ROT>
9

>  <SCORE.INTER.SOLV>
20.4391

>  <SCORE.INTER.VDW>
-19.0766

>  <SCORE.INTER.norm>
-0.733087

>  <SCORE.INTRA>
-12.1982

>  <SCORE.INTRA.DIHEDRAL>
-22.2483

>  <SCORE.INTRA.DIHEDRAL.0>
46.2143

>  <SCORE.INTRA.POLAR>
0.221284

>  <SCORE.INTRA.POLAR.0>
-1.76436

>  <SCORE.INTRA.REPUL>
0

>  <SCORE.INTRA.REPUL.0>
0

>  <SCORE.INTRA.SOLV>
-3.00648

>  <SCORE.INTRA.SOLV.lig_0>
-148.643

>  <SCORE.INTRA.VDW>
-0.323111

>  <SCORE.INTRA.VDW.0>
-4.83512

>  <SCORE.INTRA.norm>
-0.290432

>  <SCORE.RESTR>
0

>  <SCORE.RESTR.CAVITY>
0

>  <SCORE.RESTR.norm>
0

>  <SCORE.SYSTEM>
0

>  <SCORE.SYSTEM.CONST>
0

>  <SCORE.SYSTEM.DIHEDRAL>
0

>  <SCORE.SYSTEM.SOLV>
0

>  <SCORE.SYSTEM.norm>
0

>  <SCORE.heavy>
42

>  <SCORE.norm>
-1.02352

>  <RMSD>
9.474

$$$$
1j7t
 OpenBabel11021811393D
libRbt.so/2013.1/901 2013/11/27
 42 45  0  0  0  0  0  0  0  0999 V2000
   26.8676    2.6381   55.7983 C   0  0  2  0  0  0  0  0  0  0  0  0
   26.0126    3.7065   56.2780 O   0  0  0  0  0  0  0  0  0  0  0  0
   26.0112    1.7761   54.8269 C   0  0  2  0  0  0  0  0  0  0  0  0
   25.3503    2.5470   53.7349 N   0  3  0  0  0  0  0  0  0  0  0  0
   24.9080    1.0781   55.6520 C   0  0  1  0  0  0  0  0  0  0  0  0
   24.1123    0.2720   54.8294 O   0  0  0  0  0  0  0  0  0  0  0  0
   25.5439    0.2398   56.7861 C   0  0  2  0  0  0  0  0  0  0  0  0
   24.5509   -0.4256   57.5414 O   0  0  0  0  0  0  0  0  0  0  0  0
   26.3452    1.1395   57.7029 C   0  0  2  0  0  0  0  0  0  0  0  0
   27.3174    1.8423   56.9395 O   0  0  0  0  0  0  0  0  0  0  0  0
   27.0960    0.3783   58.7725 C   0  0  0  0  0  0  0  0  0  0  0  0
   26.1735   -0.1903   59.6819 O   0  0  0  0  0  0  0  0  0  0  0  0
   25.8266    7.8882   55.7061 C   0  0  2  0  0  0  0  0  0  0  0  0
   26.2173    9.2968   55.6396 N   0  3  0  0  0  0  0  0  0  0  0  0
   25.9753    7.3615   57.1720 C   0  0  0  0  0  0  0  0  0  0  0  0
   25.6116    5.8658   57.2370 C   0  0  2  0  0  0  0  0  0  0  0  0
   25.7972    5.3421   58.5943 N   0  3  0  0  0  0  0  0  0  0  0  0
   26.4821    5.0595   56.2533 C   0  0  2  0  0  0  0  0  0  0  0  0
   26.3764    5.5744   54.8045 C   0  0  2  0  0  0  0  0  0  0  0  0
   27.3519    4.8336   54.0463 O   0  0  0  0  0  0  0  0  0  0  0  0
   26.6950    7.0899   54.7468 C   0  0  1  0  0  0  0  0  0  0  0  0
   26.4942    7.5535   53.4400 O   0  0  0  0  0  0  0  0  0  0  0  0
   28.7390    5.1597   54.0185 C   0  0  1  0  0  0  0  0  0  0  0  0
   29.4000    4.6448   55.3467 C   0  0  2  0  0  0  0  0  0  0  0  0
   29.3430    5.5740   56.4155 O   0  0  0  0  0  0  0  0  0  0  0  0
   30.7987    4.3784   54.8080 C   0  0  2  0  0  0  0  0  0  0  0  0
   31.4785    5.6247   54.4697 O   0  0  0  0  0  0  0  0  0  0  0  0
   30.5204    3.6380   53.5074 C   0  0  2  0  0  0  0  0  0  0  0  0
   29.4300    4.4131   52.9800 O   0  0  0  0  0  0  0  0  0  0  0  0
   30.1602    2.1254   53.6748 C   0  0  0  0  0  0  0  0  0  0  0  0
   29.9991    1.4763   52.4072 O   0  0  0  0  0  0  0  0  0  0  0  0
   32.8389    5.4555   54.0797 C   0  0  2  0  0  0  0  0  0  0  0  0
   33.7132    6.7520   54.1749 C   0  0  2  0  0  0  0  0  0  0  0  0
   33.1746    7.8772   53.3519 N   0  3  0  0  0  0  0  0  0  0  0  0
   35.1628    6.3604   53.7333 C   0  0  1  0  0  0  0  0  0  0  0  0
   35.6645    5.3691   54.7096 O   0  0  0  0  0  0  0  0  0  0  0  0
   35.2039    5.7177   52.2922 C   0  0  2  0  0  0  0  0  0  0  0  0
   34.7699    6.7026   51.3402 O   0  0  0  0  0  0  0  0  0  0  0  0
   34.2597    4.4447   52.2925 C   0  0  1  0  0  0  0  0  0  0  0  0
   32.9206    4.8868   52.6983 O   0  0  0  0  0  0  0  0  0  0  0  0
   34.1770    3.7068   50.9369 C   0  0  0  0  0  0  0  0  0  0  0  0
   33.4452    2.4131   51.0111 N   0  3  0  0  0  0  0  0  0  0  0  0
  1  2  1  1  0  0  0
  1  3  1  0  0  0  0
  1 10  1  0  0  0  0
  3  4  1  6  0  0  0
  3  5  1  0  0  0  0
  5  6  1  6  0  0  0
  5  7  1  0  0  0  0
  7  8  1  1  0  0  0
  7  9  1  0  0  0  0
  9 10  1  0  0  0  0
  9 11  1  1  0  0  0
 11 12  1  0  0  0  0
 13 14  1  1  0  0  0
 13 15  1  0  0  0  0
 13 21  1  0  0  0  0
 15 16  1  0  0  0  0
 16 17  1  1  0  0  0
 16 18  1  0  0  0  0
 18  2  1  6  0  0  0
 18 19  1  0  0  0  0
 19 20  1  6  0  0  0
 19 21  1  0  0  0  0
 21 22  1  6  0  0  0
 23 20  1  1  0  0  0
 23 24  1  0  0  0  0
 23 29  1  0  0  0  0
 24 25  1  1  0  0  0
 24 26  1  0  0  0  0
 26 27  1  6  0  0  0
 26 28  1  0  0  0  0
 28 29  1  0  0  0  0
 28 30  1  1  0  0  0
 30 31  1  0  0  0  0
 32 27  1  6  0  0  0
 32 33  1  0  0  0  0
 32 40  1  0  0  0  0
 33 34  1  6  0  0  0
 33 35  1  0  0  0  0
 35 36  1  1  0  0  0
 35 37  1  0  0  0  0
 37 38  1  6  0  0  0
 37 39  1  0  0  0  0
 39 40  1  0  0  0  0
 39 41  1  6  0  0  0
 41 42  1  0  0  0  0
M  CHG  5   4   1  14   1  17   1  34   1  42   1
M  END
>  <CHROM.1>
-131.37239214,-160.64153696,34.82333027,56.13020157,-174.49994832,-67.97936201
-62.59685431,-165.13805103,61.92920904,-81.06124987,77.80359373,57.13119420
179.70974889,174.31131532,-160.55816596,-176.15442143,-177.69492494,46.72658840
56.54381722,161.55989506,171.75064321,60.81496993,28.99844183,4.21399325
54.85751141,-2.80474403,0.44661290,-0.02439891

>  <Name>
1j7t

>  <RI>
0

>  <Rbt.Current_Directory>
/home/itssahil/PROJECTS/Mol_Feturizer/New_Systems/rnas/1j7t

>  <Rbt.Executable>
rbdock ($Id: //depot/dev/client3/rdock/2013.1/src/exe/rbdock.cxx#4 $)

>  <Rbt.Library>
libRbt.so (2013.1, Build901 2013/11/27)

>  <Rbt.Parameter_File>
/export/apps/rDock/src/rDock_2013.1_src/data/scripts/dock_solv.prm

>  <Rbt.Receptor>
prm/pocket_docking_6.prm

>  <SCORE>
-33.4004

>  <SCORE.INTER>
-16.3666

>  <SCORE.INTER.CONST>
1

>  <SCORE.INTER.POLAR>
-4.17747

>  <SCORE.INTER.ROT>
9

>  <SCORE.INTER.SOLV>
12.9825

>  <SCORE.INTER.VDW>
-10.9137

>  <SCORE.INTER.norm>
-0.389681

>  <SCORE.INTRA>
-17.0484

>  <SCORE.INTRA.DIHEDRAL>
-27.2159

>  <SCORE.INTRA.DIHEDRAL.0>
46.2143

>  <SCORE.INTRA.POLAR>
-0.527883

>  <SCORE.INTRA.POLAR.0>
-1.76436

>  <SCORE.INTRA.REPUL>
0

>  <SCORE.INTRA.REPUL.0>
0

>  <SCORE.INTRA.SOLV>
-1.96277

>  <SCORE.INTRA.SOLV.lig_0>
-148.643

>  <SCORE.INTRA.VDW>
-0.664243

>  <SCORE.INTRA.VDW.0>
-4.83512

>  <SCORE.INTRA.norm>
-0.405914

>  <SCORE.RESTR>
0.0146298

>  <SCORE.RESTR.CAVITY>
0.0146298

>  <SCORE.RESTR.norm>
0.000348328

>  <SCORE.SYSTEM>
0

>  <SCORE.SYSTEM.CONST>
0

>  <SCORE.SYSTEM.DIHEDRAL>
0

>  <SCORE.SYSTEM.SOLV>
0

>  <SCORE.SYSTEM.norm>
0

>  <SCORE.heavy>
42

>  <SCORE.norm>
-0.795246

>  <RMSD>
9.509

$$$$
1j7t
 OpenBabel11021811393D
libRbt.so/2013.1/901 2013/11/27
 42 45  0  0  0  0  0  0  0  0999 V2000
   28.5502    9.7925   61.9827 C   0  0  2  0  0  0  0  0  0  0  0  0
   28.7568    9.6545   60.5542 O   0  0  0  0  0  0  0  0  0  0  0  0
   27.5507    8.6773   62.4042 C   0  0  2  0  0  0  0  0  0  0  0  0
   27.9481    7.3013   61.9891 N   0  3  0  0  0  0  0  0  0  0  0  0
   26.1826    8.9922   61.7607 C   0  0  1  0  0  0  0  0  0  0  0  0
   25.2347    8.0267   62.1196 O   0  0  0  0  0  0  0  0  0  0  0  0
   25.7101   10.4036   62.1828 C   0  0  2  0  0  0  0  0  0  0  0  0
   24.4477   10.7036   61.6211 O   0  0  0  0  0  0  0  0  0  0  0  0
   26.7153   11.4399   61.7270 C   0  0  2  0  0  0  0  0  0  0  0  0
   27.9952   11.1174   62.2559 O   0  0  0  0  0  0  0  0  0  0  0  0
   26.3845   12.8363   62.2039 C   0  0  0  0  0  0  0  0  0  0  0  0
   25.7537   12.7656   63.4681 O   0  0  0  0  0  0  0  0  0  0  0  0
   30.7864   13.2636   59.7153 C   0  0  2  0  0  0  0  0  0  0  0  0
   31.6718   14.2407   59.0807 N   0  3  0  0  0  0  0  0  0  0  0  0
   31.6267   12.0735   60.2864 C   0  0  0  0  0  0  0  0  0  0  0  0
   30.6942   11.0188   60.9122 C   0  0  2  0  0  0  0  0  0  0  0  0
   31.4617    9.8703   61.4050 N   0  3  0  0  0  0  0  0  0  0  0  0
   29.6590   10.5371   59.8769 C   0  0  2  0  0  0  0  0  0  0  0  0
   28.8348   11.6928   59.2768 C   0  0  2  0  0  0  0  0  0  0  0  0
   28.0358   11.1101   58.2291 O   0  0  0  0  0  0  0  0  0  0  0  0
   29.7743   12.7769   58.6904 C   0  0  1  0  0  0  0  0  0  0  0  0
   29.0058   13.8597   58.2432 O   0  0  0  0  0  0  0  0  0  0  0  0
   28.5239   10.8632   56.9131 C   0  0  1  0  0  0  0  0  0  0  0  0
   29.1643    9.4297   56.8784 C   0  0  2  0  0  0  0  0  0  0  0  0
   30.5335    9.4023   57.2438 O   0  0  0  0  0  0  0  0  0  0  0  0
   28.8878    9.0999   55.4183 C   0  0  2  0  0  0  0  0  0  0  0  0
   29.6949    9.9296   54.5295 O   0  0  0  0  0  0  0  0  0  0  0  0
   27.4352    9.5226   55.2495 C   0  0  2  0  0  0  0  0  0  0  0  0
   27.4305   10.7732   55.9592 O   0  0  0  0  0  0  0  0  0  0  0  0
   26.3849    8.5075   55.8084 C   0  0  0  0  0  0  0  0  0  0  0  0
   25.7925    8.9757   57.0265 O   0  0  0  0  0  0  0  0  0  0  0  0
   29.6918    9.4974   53.1713 C   0  0  2  0  0  0  0  0  0  0  0  0
   30.0910    7.9972   52.9607 C   0  0  2  0  0  0  0  0  0  0  0  0
   31.4458    7.6753   53.5033 N   0  3  0  0  0  0  0  0  0  0  0  0
   30.0052    7.7116   51.4242 C   0  0  1  0  0  0  0  0  0  0  0  0
   28.5932    7.8944   51.0237 O   0  0  0  0  0  0  0  0  0  0  0  0
   30.9038    8.6928   50.5750 C   0  0  2  0  0  0  0  0  0  0  0  0
   32.2795    8.4718   50.9261 O   0  0  0  0  0  0  0  0  0  0  0  0
   30.4479   10.1775   50.8909 C   0  0  1  0  0  0  0  0  0  0  0  0
   30.5687   10.3790   52.3394 O   0  0  0  0  0  0  0  0  0  0  0  0
   31.2496   11.2676   50.1439 C   0  0  0  0  0  0  0  0  0  0  0  0
   30.7220   11.5629   48.7841 N   0  3  0  0  0  0  0  0  0  0  0  0
  1  2  1  6  0  0  0
  1  3  1  0  0  0  0
  1 10  1  0  0  0  0
  3  4  1  6  0  0  0
  3  5  1  0  0  0  0
  5  6  1  1  0  0  0
  5  7  1  0  0  0  0
  7  8  1  6  0  0  0
  7  9  1  0  0  0  0
  9 10  1  0  0  0  0
  9 11  1  1  0  0  0
 11 12  1  0  0  0  0
 13 14  1  6  0  0  0
 13 15  1  0  0  0  0
 13 21  1  0  0  0  0
 15 16  1  0  0  0  0
 16 17  1  6  0  0  0
 16 18  1  0  0  0  0
 18  2  1  1  0  0  0
 18 19  1  0  0  0  0
 19 20  1  6  0  0  0
 19 21  1  0  0  0  0
 21 22  1  1  0  0  0
 23 20  1  1  0  0  0
 23 24  1  0  0  0  0
 23 29  1  0  0  0  0
 24 25  1  6  0  0  0
 24 26  1  0  0  0  0
 26 27  1  6  0  0  0
 26 28  1  0  0  0  0
 28 29  1  0  0  0  0
 28 30  1  1  0  0  0
 30 31  1  0  0  0  0
 32 27  1  1  0  0  0
 32 33  1  0  0  0  0
 32 40  1  0  0  0  0
 33 34  1  6  0  0  0
 33 35  1  0  0  0  0
 35 36  1  6  0  0  0
 35 37  1  0  0  0  0
 37 38  1  1  0  0  0
 37 39  1  0  0  0  0
 39 40  1  0  0  0  0
 39 41  1  6  0  0  0
 41 42  1  0  0  0  0
M  CHG  5   4   1  14   1  17   1  34   1  42   1
M  END
>  <CHROM.1>
-178.78122329,26.08690148,-58.44852273,163.55855194,77.41830629,32.70372903
61.17628968,60.78430211,172.24948569,-82.39930724,88.80724137,-167.99729234
-68.31890381,168.00369959,-53.68201720,106.21855182,-39.13614278,31.05771251
-57.72640039,176.69718329,85.91814318,-75.11318926,28.86850426,10.23434022
57.39496720,-1.95604580,-0.72562715,-1.95652753

>  <Name>
1j7t

>  <RI>
0

>  <Rbt.Current_Directory>
/home/itssahil/PROJECTS/Mol_Feturizer/New_Systems/rnas/1j7t

>  <Rbt.Executable>
rbdock ($Id: //depot/dev/client3/rdock/2013.1/src/exe/rbdock.cxx#4 $)

>  <Rbt.Library>
libRbt.so (2013.1, Build901 2013/11/27)

>  <Rbt.Parameter_File>
/export/apps/rDock/src/rDock_2013.1_src/data/scripts/dock_solv.prm

>  <Rbt.Receptor>
prm/blind_docking_100.prm

>  <SCORE>
-12.9597

>  <SCORE.INTER>
-29.5752

>  <SCORE.INTER.CONST>
1

>  <SCORE.INTER.POLAR>
-7.36465

>  <SCORE.INTER.ROT>
9

>  <SCORE.INTER.SOLV>
32.9686

>  <SCORE.INTER.VDW>
-15.7575

>  <SCORE.INTER.norm>
-0.704172

>  <SCORE.INTRA>
-7.01874

>  <SCORE.INTRA.DIHEDRAL>
-17.9304

>  <SCORE.INTRA.DIHEDRAL.0>
46.2143

>  <SCORE.INTRA.POLAR>
0.386629

>  <SCORE.INTRA.POLAR.0>
-1.76436

>  <SCORE.INTRA.REPUL>
0

>  <SCORE.INTRA.REPUL.0>
0

>  <SCORE.INTRA.SOLV>
-3.93108

>  <SCORE.INTRA.SOLV.lig_0>
-148.643

>  <SCORE.INTRA.VDW>
2.59748

>  <SCORE.INTRA.VDW.0>
-4.83512

>  <SCORE.INTRA.norm>
-0.167113

>  <SCORE.RESTR>
23.6342

>  <SCORE.RESTR.CAVITY>
23.6342

>  <SCORE.RESTR.norm>
0.56272

>  <SCORE.SYSTEM>
0

>  <SCORE.SYSTEM.CONST>
0

>  <SCORE.SYSTEM.DIHEDRAL>
0

>  <SCORE.SYSTEM.SOLV>
0

>  <SCORE.SYSTEM.norm>
0

>  <SCORE.heavy>
42

>  <SCORE.norm>
-0.308565

>  <RMSD>
9.522

$$$$
1j7t
 OpenBabel11021811393D
libRbt.so/2013.1/901 2013/11/27
 42 45  0  0  0  0  0  0  0  0999 V2000
   24.7854    5.9936   59.7222 C   0  0  2  0  0  0  0  0  0  0  0  0
   24.7172    7.1397   60.6077 O   0  0  0  0  0  0  0  0  0  0  0  0
   23.6131    5.0493   60.1145 C   0  0  2  0  0  0  0  0  0  0  0  0
   22.2736    5.7041   60.1405 N   0  3  0  0  0  0  0  0  0  0  0  0
   23.8984    4.4929   61.5265 C   0  0  1  0  0  0  0  0  0  0  0  0
   22.8802    3.6201   61.9278 O   0  0  0  0  0  0  0  0  0  0  0  0
   25.2698    3.7771   61.5476 C   0  0  2  0  0  0  0  0  0  0  0  0
   25.5412    3.2409   62.8274 O   0  0  0  0  0  0  0  0  0  0  0  0
   26.3651    4.7540   61.1762 C   0  0  2  0  0  0  0  0  0  0  0  0
   26.0735    5.3270   59.9079 O   0  0  0  0  0  0  0  0  0  0  0  0
   27.7252    4.1032   61.0595 C   0  0  0  0  0  0  0  0  0  0  0  0
   28.2691    3.9128   62.3514 O   0  0  0  0  0  0  0  0  0  0  0  0
   26.9261   10.6950   61.1815 C   0  0  2  0  0  0  0  0  0  0  0  0
   28.0492   11.6136   61.3717 N   0  3  0  0  0  0  0  0  0  0  0  0
   26.8566    9.6828   62.3728 C   0  0  0  0  0  0  0  0  0  0  0  0
   25.7054    8.6830   62.1520 C   0  0  2  0  0  0  0  0  0  0  0  0
   25.6592    7.6931   63.2332 N   0  3  0  0  0  0  0  0  0  0  0  0
   25.8756    7.9594   60.8018 C   0  0  2  0  0  0  0  0  0  0  0  0
   25.9747    8.9341   59.6121 C   0  0  2  0  0  0  0  0  0  0  0  0
   26.2855    8.1264   58.4604 O   0  0  0  0  0  0  0  0  0  0  0  0
   27.1013    9.9699   59.8566 C   0  0  1  0  0  0  0  0  0  0  0  0
   27.1042   10.9028   58.8113 O   0  0  0  0  0  0  0  0  0  0  0  0
   27.5124    7.4182   58.3046 C   0  0  1  0  0  0  0  0  0  0  0  0
   27.5737    6.8396   56.8460 C   0  0  2  0  0  0  0  0  0  0  0  0
   26.9767    5.5615   56.7085 O   0  0  0  0  0  0  0  0  0  0  0  0
   29.0849    6.8598   56.6641 C   0  0  2  0  0  0  0  0  0  0  0  0
   29.7315    5.8727   57.5227 O   0  0  0  0  0  0  0  0  0  0  0  0
   29.4653    8.2399   57.1818 C   0  0  2  0  0  0  0  0  0  0  0  0
   28.6485    8.3233   58.3623 O   0  0  0  0  0  0  0  0  0  0  0  0
   29.2030    9.4136   56.1821 C   0  0  0  0  0  0  0  0  0  0  0  0
   27.8026    9.6802   56.0347 O   0  0  0  0  0  0  0  0  0  0  0  0
   30.6893    5.0587   56.8508 C   0  0  2  0  0  0  0  0  0  0  0  0
   31.2795    3.8932   57.7155 C   0  0  2  0  0  0  0  0  0  0  0  0
   31.9385    4.3751   58.9672 N   0  3  0  0  0  0  0  0  0  0  0  0
   32.2817    3.1090   56.8043 C   0  0  1  0  0  0  0  0  0  0  0  0
   31.4996    2.5323   55.6892 O   0  0  0  0  0  0  0  0  0  0  0  0
   33.4091    4.0373   56.2055 C   0  0  2  0  0  0  0  0  0  0  0  0
   34.2020    4.5500   57.2887 O   0  0  0  0  0  0  0  0  0  0  0  0
   32.7082    5.2005   55.3884 C   0  0  1  0  0  0  0  0  0  0  0  0
   31.7996    5.8996   56.3044 O   0  0  0  0  0  0  0  0  0  0  0  0
   33.6845    6.2134   54.7481 C   0  0  0  0  0  0  0  0  0  0  0  0
   34.4387    5.6582   53.5915 N   0  3  0  0  0  0  0  0  0  0  0  0
  1  2  1  1  0  0  0
  1  3  1  0  0  0  0
  1 10  1  0  0  0  0
  3  4  1  1  0  0  0
  3  5  1  0  0  0  0
  5  6  1  6  0  0  0
  5  7  1  0  0  0  0
  7  8  1  1  0  0  0
  7  9  1  0  0  0  0
  9 10  1  0  0  0  0
  9 11  1  6  0  0  0
 11 12  1  0  0  0  0
 13 14  1  1  0  0  0
 13 15  1  0  0  0  0
 13 21  1  0  0  0  0
 15 16  1  0  0  0  0
 16 17  1  1  0  0  0
 16 18  1  0  0  0  0
 18  2  1  6  0  0  0
 18 19  1  0  0  0  0
 19 20  1  6  0  0  0
 19 21  1  0  0  0  0
 21 22  1  6  0  0  0
 23 20  1  6  0  0  0
 23 24  1  0  0  0  0
 23 29  1  0  0  0  0
 24 25  1  1  0  0  0
 24 26  1  0  0  0  0
 26 27  1  1  0  0  0
 26 28  1  0  0  0  0
 28 29  1  0  0  0  0
 28 30  1  6  0  0  0
 30 31  1  0  0  0  0
 32 27  1  1  0  0  0
 32 33  1  0  0  0  0
 32 40  1  0  0  0  0
 33 34  1  1  0  0  0
 33 35  1  0  0  0  0
 35 36  1  6  0  0  0
 35 37  1  0  0  0  0
 37 38  1  1  0  0  0
 37 39  1  0  0  0  0
 39 40  1  0  0  0  0
 39 41  1  1  0  0  0
 41 42  1  0  0  0  0
M  CHG  5   4   1  14   1  17   1  34   1  42   1
M  END
>  <CHROM.1>
159.62657944,-157.12796388,165.69455719,-173.06601247,-176.61679229,-79.14842628
-175.04049728,-178.62716286,-54.80603157,-65.91442567,-171.49623071,67.58206362
68.31333158,131.91603857,-173.66266403,71.60483403,60.53783105,-177.23017265
56.61640762,70.55763965,71.67939451,-173.07946471,28.12848168,6.41843754
58.91969104,3.07085300,0.63689394,-0.16081890

>  <Name>
1j7t

>  <RI>
224

>  <Rbt.Current_Directory>
/home/itssahil/PROJECTS/Mol_Feturizer/New_Systems/rnas/1j7t

>  <Rbt.Executable>
rbdock ($Id: //depot/dev/client3/rdock/2013.1/src/exe/rbdock.cxx#4 $)

>  <Rbt.Library>
libRbt.so (2013.1, Build901 2013/11/27)

>  <Rbt.Parameter_File>
/export/apps/rDock/src/rDock_2013.1_src/data/scripts/dock_solv.prm

>  <Rbt.Receptor>
prm/pocket_docking_7.prm

>  <SCORE>
-38.6864

>  <SCORE.INTER>
-19.9905

>  <SCORE.INTER.CONST>
1

>  <SCORE.INTER.POLAR>
-4.32826

>  <SCORE.INTER.ROT>
9

>  <SCORE.INTER.SOLV>
14.8643

>  <SCORE.INTER.VDW>
-13.4542

>  <SCORE.INTER.norm>
-0.475964

>  <SCORE.INTRA>
-18.6959

>  <SCORE.INTRA.DIHEDRAL>
-30.0405

>  <SCORE.INTRA.DIHEDRAL.0>
46.2143

>  <SCORE.INTRA.POLAR>
-0.0229302

>  <SCORE.INTRA.POLAR.0>
-1.76436

>  <SCORE.INTRA.REPUL>
0

>  <SCORE.INTRA.REPUL.0>
0

>  <SCORE.INTRA.SOLV>
-3.18544

>  <SCORE.INTRA.SOLV.lig_0>
-148.643

>  <SCORE.INTRA.VDW>
-2.00496

>  <SCORE.INTRA.VDW.0>
-4.83512

>  <SCORE.INTRA.norm>
-0.445141

>  <SCORE.RESTR>
0

>  <SCORE.RESTR.CAVITY>
0

>  <SCORE.RESTR.norm>
0

>  <SCORE.SYSTEM>
0

>  <SCORE.SYSTEM.CONST>
0

>  <SCORE.SYSTEM.DIHEDRAL>
0

>  <SCORE.SYSTEM.SOLV>
0

>  <SCORE.SYSTEM.norm>
0

>  <SCORE.heavy>
42

>  <SCORE.norm>
-0.921105

>  <RMSD>
9.550

$$$$
1j7t
 OpenBabel11021811393D
libRbt.so/2013.1/901 2013/11/27
 42 45  0  0  0  0  0  0  0  0999 V2000
   26.8761    4.8281   59.6483 C   0  0  2  0  0  0  0  0  0  0  0  0
   26.1536    3.5898   59.8652 O   0  0  0  0  0  0  0  0  0  0  0  0
   27.5981    5.1694   60.9833 C   0  0  2  0  0  0  0  0  0  0  0  0
   28.4475    4.0703   61.5257 N   0  3  0  0  0  0  0  0  0  0  0  0
   26.5211    5.5035   62.0385 C   0  0  1  0  0  0  0  0  0  0  0  0
   27.1152    5.8358   63.2617 O   0  0  0  0  0  0  0  0  0  0  0  0
   25.6261    6.6606   61.5350 C   0  0  2  0  0  0  0  0  0  0  0  0
   24.6455    6.9970   62.4964 O   0  0  0  0  0  0  0  0  0  0  0  0
   24.9404    6.2568   60.2469 C   0  0  2  0  0  0  0  0  0  0  0  0
   25.9223    5.8772   59.2910 O   0  0  0  0  0  0  0  0  0  0  0  0
   24.1370    7.3779   59.6266 C   0  0  0  0  0  0  0  0  0  0  0  0
   25.0030    8.4395   59.2744 O   0  0  0  0  0  0  0  0  0  0  0  0
   25.7896    0.0003   57.6671 C   0  0  2  0  0  0  0  0  0  0  0  0
   25.5034   -0.9361   56.5797 N   0  3  0  0  0  0  0  0  0  0  0  0
   24.4715    0.7113   58.1203 C   0  0  0  0  0  0  0  0  0  0  0  0
   24.7762    1.7338   59.2317 C   0  0  2  0  0  0  0  0  0  0  0  0
   23.5594    2.4484   59.6314 N   0  3  0  0  0  0  0  0  0  0  0  0
   25.8320    2.7487   58.7513 C   0  0  2  0  0  0  0  0  0  0  0  0
   27.1322    2.0739   58.2726 C   0  0  2  0  0  0  0  0  0  0  0  0
   27.9451    3.1251   57.7160 O   0  0  0  0  0  0  0  0  0  0  0  0
   26.8201    1.0108   57.1889 C   0  0  1  0  0  0  0  0  0  0  0  0
   28.0028    0.3434   56.8441 O   0  0  0  0  0  0  0  0  0  0  0  0
   27.9534    3.4632   56.3316 C   0  0  1  0  0  0  0  0  0  0  0  0
   28.6587    4.8559   56.1615 C   0  0  2  0  0  0  0  0  0  0  0  0
   27.7830    5.9634   56.2864 O   0  0  0  0  0  0  0  0  0  0  0  0
   29.2260    4.6466   54.7645 C   0  0  2  0  0  0  0  0  0  0  0  0
   28.1627    4.6025   53.7659 O   0  0  0  0  0  0  0  0  0  0  0  0
   29.8308    3.2526   54.8549 C   0  0  2  0  0  0  0  0  0  0  0  0
   28.8020    2.5549   55.5776 O   0  0  0  0  0  0  0  0  0  0  0  0
   31.2216    3.1830   55.5667 C   0  0  0  0  0  0  0  0  0  0  0  0
   32.2201    3.9208   54.8507 O   0  0  0  0  0  0  0  0  0  0  0  0
   27.7431    5.8857   53.3089 C   0  0  2  0  0  0  0  0  0  0  0  0
   26.8108    5.8596   52.0501 C   0  0  2  0  0  0  0  0  0  0  0  0
   27.4377    5.1776   50.8773 N   0  3  0  0  0  0  0  0  0  0  0  0
   26.4432    7.3450   51.7215 C   0  0  1  0  0  0  0  0  0  0  0  0
   25.6807    7.8720   52.8740 O   0  0  0  0  0  0  0  0  0  0  0  0
   27.7178    8.2496   51.5010 C   0  0  2  0  0  0  0  0  0  0  0  0
   28.4250    7.7689   50.3462 O   0  0  0  0  0  0  0  0  0  0  0  0
   28.6090    8.1737   52.8094 C   0  0  1  0  0  0  0  0  0  0  0  0
   28.9277    6.7611   53.0468 O   0  0  0  0  0  0  0  0  0  0  0  0
   29.9141    8.9994   52.7457 C   0  0  0  0  0  0  0  0  0  0  0  0
   30.1769    9.5882   51.4045 N   0  3  0  0  0  0  0  0  0  0  0  0
  1  2  1  1  0  0  0
  1  3  1  0  0  0  0
  1 10  1  0  0  0  0
  3  4  1  1  0  0  0
  3  5  1  0  0  0  0
  5  6  1  1  0  0  0
  5  7  1  0  0  0  0
  7  8  1  1  0  0  0
  7  9  1  0  0  0  0
  9 10  1  0  0  0  0
  9 11  1  6  0  0  0
 11 12  1  0  0  0  0
 13 14  1  6  0  0  0
 13 15  1  0  0  0  0
 13 21  1  0  0  0  0
 15 16  1  0  0  0  0
 16 17  1  6  0  0  0
 16 18  1  0  0  0  0
 18  2  1  1  0  0  0
 18 19  1  0  0  0  0
 19 20  1  6  0  0  0
 19 21  1  0  0  0  0
 21 22  1  1  0  0  0
 23 20  1  1  0  0  0
 23 24  1  0  0  0  0
 23 29  1  0  0  0  0
 24 25  1  6  0  0  0
 24 26  1  0  0  0  0
 26 27  1  6  0  0  0
 26 28  1  0  0  0  0
 28 29  1  0  0  0  0
 28 30  1  1  0  0  0
 30 31  1  0  0  0  0
 32 27  1  6  0  0  0
 32 33  1  0  0  0  0
 32 40  1  0  0  0  0
 33 34  1  6  0  0  0
 33 35  1  0  0  0  0
 35 36  1  1  0  0  0
 35 37  1  0  0  0  0
 37 38  1  6  0  0  0
 37 39  1  0  0  0  0
 39 40  1  0  0  0  0
 39 41  1  6  0  0  0
 41 42  1  0  0  0  0
M  CHG  5   4   1  14   1  17   1  34   1  42   1
M  END
>  <CHROM.1>
-155.58561642,-165.57052557,-79.57426069,179.55445933,172.08298164,62.82834798
-62.08044638,-48.04245852,-57.82491625,-93.59796012,165.88442343,173.72447282
-54.54906760,84.21671976,168.71869503,-63.22522027,-169.15300447,-43.65036299
-62.47943114,55.01894762,-6.85656578,76.87156267,27.26029717,4.83189634,56.66954735
2.63087276,-1.21700208,2.94288152

>  <Name>
1j7t

>  <RI>
0

>  <Rbt.Current_Directory>
/home/itssahil/PROJECTS/Mol_Feturizer/New_Systems/rnas/1j7t

>  <Rbt.Executable>
rbdock ($Id: //depot/dev/client3/rdock/2013.1/src/exe/rbdock.cxx#4 $)

>  <Rbt.Library>
libRbt.so (2013.1, Build901 2013/11/27)

>  <Rbt.Parameter_File>
/export/apps/rDock/src/rDock_2013.1_src/data/scripts/dock_solv.prm

>  <Rbt.Receptor>
prm/pocket_docking_6.prm

>  <SCORE>
-42.5509

>  <SCORE.INTER>
-29.8397

>  <SCORE.INTER.CONST>
1

>  <SCORE.INTER.POLAR>
-4.95504

>  <SCORE.INTER.ROT>
9

>  <SCORE.INTER.SOLV>
19.1067

>  <SCORE.INTER.VDW>
-19.3453

>  <SCORE.INTER.norm>
-0.71047

>  <SCORE.INTRA>
-12.7112

>  <SCORE.INTRA.DIHEDRAL>
-24.6996

>  <SCORE.INTRA.DIHEDRAL.0>
46.2143

>  <SCORE.INTRA.POLAR>
0.064939

>  <SCORE.INTRA.POLAR.0>
-1.76436

>  <SCORE.INTRA.REPUL>
0

>  <SCORE.INTRA.REPUL.0>
0

>  <SCORE.INTRA.SOLV>
-3.14507

>  <SCORE.INTRA.SOLV.lig_0>
-148.643

>  <SCORE.INTRA.VDW>
0.9904

>  <SCORE.INTRA.VDW.0>
-4.83512

>  <SCORE.INTRA.norm>
-0.302647

>  <SCORE.RESTR>
0

>  <SCORE.RESTR.CAVITY>
0

>  <SCORE.RESTR.norm>
0

>  <SCORE.SYSTEM>
0

>  <SCORE.SYSTEM.CONST>
0

>  <SCORE.SYSTEM.DIHEDRAL>
0

>  <SCORE.SYSTEM.SOLV>
0

>  <SCORE.SYSTEM.norm>
0

>  <SCORE.heavy>
42

>  <SCORE.norm>
-1.01312

>  <RMSD>
9.557

$$$$
1j7t
 OpenBabel11021811393D
libRbt.so/2013.1/901 2013/11/27
 42 45  0  0  0  0  0  0  0  0999 V2000
   27.9049    8.7622   60.7639 C   0  0  2  0  0  0  0  0  0  0  0  0
   26.5123    8.4881   60.4676 O   0  0  0  0  0  0  0  0  0  0  0  0
   28.0818    8.5919   62.3001 C   0  0  2  0  0  0  0  0  0  0  0  0
   27.6037    7.2854   62.8367 N   0  3  0  0  0  0  0  0  0  0  0  0
   27.2858    9.7143   63.0011 C   0  0  1  0  0  0  0  0  0  0  0  0
   27.4215    9.6212   64.3912 O   0  0  0  0  0  0  0  0  0  0  0  0
   27.7635   11.0972   62.4981 C   0  0  2  0  0  0  0  0  0  0  0  0
   27.0615   12.1408   63.1439 O   0  0  0  0  0  0  0  0  0  0  0  0
   27.5465   11.2035   61.0035 C   0  0  2  0  0  0  0  0  0  0  0  0
   28.2165   10.1307   60.3539 O   0  0  0  0  0  0  0  0  0  0  0  0
   28.0965   12.4831   60.4143 C   0  0  0  0  0  0  0  0  0  0  0  0
   27.8175   12.5218   59.0280 O   0  0  0  0  0  0  0  0  0  0  0  0
   24.4489    7.6723   56.8724 C   0  0  2  0  0  0  0  0  0  0  0  0
   23.8969    7.8248   55.5258 N   0  3  0  0  0  0  0  0  0  0  0  0
   23.8513    8.7637   57.8212 C   0  0  0  0  0  0  0  0  0  0  0  0
   24.4667    8.6372   59.2280 C   0  0  2  0  0  0  0  0  0  0  0  0
   23.9576    9.6869   60.1167 N   0  3  0  0  0  0  0  0  0  0  0  0
   26.0032    8.7317   59.1511 C   0  0  2  0  0  0  0  0  0  0  0  0
   26.6175    7.6851   58.2012 C   0  0  2  0  0  0  0  0  0  0  0  0
   28.0208    7.9995   58.1160 O   0  0  0  0  0  0  0  0  0  0  0  0
   25.9637    7.7803   56.7993 C   0  0  1  0  0  0  0  0  0  0  0  0
   26.4657    6.7556   55.9862 O   0  0  0  0  0  0  0  0  0  0  0  0
   28.8767    7.5039   57.0898 C   0  0  1  0  0  0  0  0  0  0  0  0
   30.2120    8.3301   57.1105 C   0  0  2  0  0  0  0  0  0  0  0  0
   30.1732    9.5064   56.3208 O   0  0  0  0  0  0  0  0  0  0  0  0
   31.1493    7.2472   56.5948 C   0  0  2  0  0  0  0  0  0  0  0  0
   30.8797    6.9415   55.1935 O   0  0  0  0  0  0  0  0  0  0  0  0
   30.7418    6.0329   57.4175 C   0  0  2  0  0  0  0  0  0  0  0  0
   29.3088    6.1467   57.3807 O   0  0  0  0  0  0  0  0  0  0  0  0
   31.3078    6.0050   58.8751 C   0  0  0  0  0  0  0  0  0  0  0  0
   32.7359    6.1248   58.8907 O   0  0  0  0  0  0  0  0  0  0  0  0
   31.7873    7.5547   54.2814 C   0  0  2  0  0  0  0  0  0  0  0  0
   31.1522    7.9838   52.9151 C   0  0  2  0  0  0  0  0  0  0  0  0
   30.5241    6.8425   52.1829 N   0  3  0  0  0  0  0  0  0  0  0  0
   32.2889    8.6513   52.0712 C   0  0  1  0  0  0  0  0  0  0  0  0
   32.7222    9.8622   52.8017 O   0  0  0  0  0  0  0  0  0  0  0  0
   33.5358    7.7031   51.8778 C   0  0  2  0  0  0  0  0  0  0  0  0
   33.1232    6.5551   51.1184 O   0  0  0  0  0  0  0  0  0  0  0  0
   34.0738    7.2964   53.3120 C   0  0  1  0  0  0  0  0  0  0  0  0
   32.9656    6.6655   54.0381 O   0  0  0  0  0  0  0  0  0  0  0  0
   35.2935    6.3473   53.2946 C   0  0  0  0  0  0  0  0  0  0  0  0
   36.3571    6.7680   52.3425 N   0  3  0  0  0  0  0  0  0  0  0  0
  1  2  1  1  0  0  0
  1  3  1  0  0  0  0
  1 10  1  0  0  0  0
  3  4  1  1  0  0  0
  3  5  1  0  0  0  0
  5  6  1  1  0  0  0
  5  7  1  0  0  0  0
  7  8  1  1  0  0  0
  7  9  1  0  0  0  0
  9 10  1  0  0  0  0
  9 11  1  6  0  0  0
 11 12  1  0  0  0  0
 13 14  1  6  0  0  0
 13 15  1  0  0  0  0
 13 21  1  0  0  0  0
 15 16  1  0  0  0  0
 16 17  1  1  0  0  0
 16 18  1  0  0  0  0
 18  2  1  1  0  0  0
 18 19  1  0  0  0  0
 19 20  1  6  0  0  0
 19 21  1  0  0  0  0
 21 22  1  6  0  0  0
 23 20  1  1  0  0  0
 23 24  1  0  0  0  0
 23 29  1  0  0  0  0
 24 25  1  6  0  0  0
 24 26  1  0  0  0  0
 26 27  1  6  0  0  0
 26 28  1  0  0  0  0
 28 29  1  0  0  0  0
 28 30  1  1  0  0  0
 30 31  1  0  0  0  0
 32 27  1  1  0  0  0
 32 33  1  0  0  0  0
 32 40  1  0  0  0  0
 33 34  1  6  0  0  0
 33 35  1  0  0  0  0
 35 36  1  1  0  0  0
 35 37  1  0  0  0  0
 37 38  1  1  0  0  0
 37 39  1  0  0  0  0
 39 40  1  0  0  0  0
 39 41  1  6  0  0  0
 41 42  1  0  0  0  0
M  CHG  5   4   1  14   1  17   1  34   1  42   1
M  END
>  <CHROM.1>
172.01620793,-168.18125387,-42.78548644,-69.23579595,-63.13708860,-178.22712428
179.72847259,-163.98235758,59.74805017,-163.06344733,165.87457626,-58.98000559
-57.38550706,100.55843927,-145.62244300,-55.03283165,-62.16090315,49.87433338
165.16469672,176.45615737,46.55602414,39.68628237,29.16144417,8.32454641
57.44083998,-2.23955362,0.04066856,-1.83706292

>  <Name>
1j7t

>  <RI>
0

>  <Rbt.Current_Directory>
/home/itssahil/PROJECTS/Mol_Feturizer/New_Systems/rnas/1j7t

>  <Rbt.Executable>
rbdock ($Id: //depot/dev/client3/rdock/2013.1/src/exe/rbdock.cxx#4 $)

>  <Rbt.Library>
libRbt.so (2013.1, Build901 2013/11/27)

>  <Rbt.Parameter_File>
/export/apps/rDock/src/rDock_2013.1_src/data/scripts/dock_solv.prm

>  <Rbt.Receptor>
prm/pocket_docking_8.prm

>  <SCORE>
-41.7654

>  <SCORE.INTER>
-28.6913

>  <SCORE.INTER.CONST>
1

>  <SCORE.INTER.POLAR>
-5.42189

>  <SCORE.INTER.ROT>
9

>  <SCORE.INTER.SOLV>
30.8962

>  <SCORE.INTER.VDW>
-20.9533

>  <SCORE.INTER.norm>
-0.683126

>  <SCORE.INTRA>
-13.0741

>  <SCORE.INTRA.DIHEDRAL>
-27.9645

>  <SCORE.INTRA.DIHEDRAL.0>
46.2143

>  <SCORE.INTRA.POLAR>
0.985928

>  <SCORE.INTRA.POLAR.0>
-1.76436

>  <SCORE.INTRA.REPUL>
0

>  <SCORE.INTRA.REPUL.0>
0

>  <SCORE.INTRA.SOLV>
-6.29151

>  <SCORE.INTRA.SOLV.lig_0>
-148.643

>  <SCORE.INTRA.VDW>
0.701717

>  <SCORE.INTRA.VDW.0>
-4.83512

>  <SCORE.INTRA.norm>
-0.311289

>  <SCORE.RESTR>
0

>  <SCORE.RESTR.CAVITY>
0

>  <SCORE.RESTR.norm>
0

>  <SCORE.SYSTEM>
0

>  <SCORE.SYSTEM.CONST>
0

>  <SCORE.SYSTEM.DIHEDRAL>
0

>  <SCORE.SYSTEM.SOLV>
0

>  <SCORE.SYSTEM.norm>
0

>  <SCORE.heavy>
42

>  <SCORE.norm>
-0.994415

>  <RMSD>
9.569

$$$$
1j7t
 OpenBabel11021811393D
libRbt.so/2013.1/901 2013/11/27
 42 45  0  0  0  0  0  0  0  0999 V2000
   34.6465    7.3076   53.0320 C   0  0  2  0  0  0  0  0  0  0  0  0
   33.5347    6.7168   53.7514 O   0  0  0  0  0  0  0  0  0  0  0  0
   34.5408    6.8202   51.5584 C   0  0  2  0  0  0  0  0  0  0  0  0
   33.2170    7.0680   50.9184 N   0  3  0  0  0  0  0  0  0  0  0  0
   34.8023    5.2983   51.5374 C   0  0  1  0  0  0  0  0  0  0  0  0
   34.7359    4.8044   50.2293 O   0  0  0  0  0  0  0  0  0  0  0  0
   36.1806    4.9881   52.1680 C   0  0  2  0  0  0  0  0  0  0  0  0
   36.4494    3.6003   52.1392 O   0  0  0  0  0  0  0  0  0  0  0  0
   36.2093    5.4697   53.6030 C   0  0  2  0  0  0  0  0  0  0  0  0
   35.8977    6.8566   53.6395 O   0  0  0  0  0  0  0  0  0  0  0  0
   37.5643    5.3089   54.2551 C   0  0  0  0  0  0  0  0  0  0  0  0
   37.7850    3.9437   54.5530 O   0  0  0  0  0  0  0  0  0  0  0  0
   30.0562    8.0407   55.7503 C   0  0  2  0  0  0  0  0  0  0  0  0
   29.1618    8.8194   56.6075 N   0  3  0  0  0  0  0  0  0  0  0  0
   31.1837    7.3827   56.6130 C   0  0  0  0  0  0  0  0  0  0  0  0
   32.1558    6.6020   55.7081 C   0  0  2  0  0  0  0  0  0  0  0  0
   33.2500    6.0229   56.4944 N   0  3  0  0  0  0  0  0  0  0  0  0
   32.7391    7.5284   54.6231 C   0  0  2  0  0  0  0  0  0  0  0  0
   31.6491    8.2122   53.7749 C   0  0  2  0  0  0  0  0  0  0  0  0
   32.3361    9.1509   52.9251 O   0  0  0  0  0  0  0  0  0  0  0  0
   30.6435    8.9573   54.6889 C   0  0  1  0  0  0  0  0  0  0  0  0
   29.6097    9.4839   53.9035 O   0  0  0  0  0  0  0  0  0  0  0  0
   31.6722   10.1669   52.1779 C   0  0  1  0  0  0  0  0  0  0  0  0
   31.6840    9.7600   50.6612 C   0  0  2  0  0  0  0  0  0  0  0  0
   32.8382   10.1891   49.9593 O   0  0  0  0  0  0  0  0  0  0  0  0
   30.3910   10.4437   50.2394 C   0  0  2  0  0  0  0  0  0  0  0  0
   30.5282   11.8962   50.2738 O   0  0  0  0  0  0  0  0  0  0  0  0
   29.4260   10.0460   51.3475 C   0  0  2  0  0  0  0  0  0  0  0  0
   30.2574   10.2174   52.5081 O   0  0  0  0  0  0  0  0  0  0  0  0
   28.8469    8.5982   51.2283 C   0  0  0  0  0  0  0  0  0  0  0  0
   27.8637    8.3366   52.2377 O   0  0  0  0  0  0  0  0  0  0  0  0
   30.8286   12.4802   49.0089 C   0  0  2  0  0  0  0  0  0  0  0  0
   29.7060   12.3154   47.9286 C   0  0  2  0  0  0  0  0  0  0  0  0
   29.3616   10.8857   47.6627 N   0  3  0  0  0  0  0  0  0  0  0  0
   30.2080   13.0356   46.6328 C   0  0  1  0  0  0  0  0  0  0  0  0
   30.3546   14.4708   46.9592 O   0  0  0  0  0  0  0  0  0  0  0  0
   31.6006   12.4845   46.1347 C   0  0  2  0  0  0  0  0  0  0  0  0
   31.4403   11.1053   45.7647 O   0  0  0  0  0  0  0  0  0  0  0  0
   32.6495   12.6596   47.3099 C   0  0  1  0  0  0  0  0  0  0  0  0
   32.1242   11.9494   48.4816 O   0  0  0  0  0  0  0  0  0  0  0  0
   34.0707   12.1472   46.9831 C   0  0  0  0  0  0  0  0  0  0  0  0
   34.7920   11.6074   48.1676 N   0  3  0  0  0  0  0  0  0  0  0  0
  1  2  1  1  0  0  0
  1  3  1  0  0  0  0
  1 10  1  0  0  0  0
  3  4  1  1  0  0  0
  3  5  1  0  0  0  0
  5  6  1  6  0  0  0
  5  7  1  0  0  0  0
  7  8  1  1  0  0  0
  7  9  1  0  0  0  0
  9 10  1  0  0  0  0
  9 11  1  6  0  0  0
 11 12  1  0  0  0  0
 13 14  1  1  0  0  0
 13 15  1  0  0  0  0
 13 21  1  0  0  0  0
 15 16  1  0  0  0  0
 16 17  1  1  0  0  0
 16 18  1  0  0  0  0
 18  2  1  6  0  0  0
 18 19  1  0  0  0  0
 19 20  1  6  0  0  0
 19 21  1  0  0  0  0
 21 22  1  6  0  0  0
 23 20  1  1  0  0  0
 23 24  1  0  0  0  0
 23 29  1  0  0  0  0
 24 25  1  6  0  0  0
 24 26  1  0  0  0  0
 26 27  1  1  0  0  0
 26 28  1  0  0  0  0
 28 29  1  0  0  0  0
 28 30  1  6  0  0  0
 30 31  1  0  0  0  0
 32 27  1  1  0  0  0
 32 33  1  0  0  0  0
 32 40  1  0  0  0  0
 33 34  1  6  0  0  0
 33 35  1  0  0  0  0
 35 36  1  1  0  0  0
 35 37  1  0  0  0  0
 37 38  1  1  0  0  0
 37 39  1  0  0  0  0
 39 40  1  0  0  0  0
 39 41  1  6  0  0  0
 41 42  1  0  0  0  0
M  CHG  5   4   1  14   1  17   1  34   1  42   1
M  END
>  <CHROM.1>
-133.53857963,-152.71907362,32.71834188,59.36690061,63.91261176,-74.28120161
-64.68327893,62.26715231,-168.12145977,-167.23654010,-106.83280754,77.95579542
-174.81243881,97.03079273,64.42111413,-175.04764914,-57.28199538,-49.03620538
61.58990925,64.04738208,-147.72783140,20.39808132,32.36364640,8.86448446
51.51773712,-1.11690608,0.53430542,-1.02566507

>  <Name>
1j7t

>  <RI>
0

>  <Rbt.Current_Directory>
/home/itssahil/PROJECTS/Mol_Feturizer/New_Systems/rnas/1j7t

>  <Rbt.Executable>
rbdock ($Id: //depot/dev/client3/rdock/2013.1/src/exe/rbdock.cxx#4 $)

>  <Rbt.Library>
libRbt.so (2013.1, Build901 2013/11/27)

>  <Rbt.Parameter_File>
/export/apps/rDock/src/rDock_2013.1_src/data/scripts/dock_solv.prm

>  <Rbt.Receptor>
prm/blind_docking_80.prm

>  <SCORE>
10.5725

>  <SCORE.INTER>
-28.4804

>  <SCORE.INTER.CONST>
1

>  <SCORE.INTER.POLAR>
-3.39595

>  <SCORE.INTER.ROT>
9

>  <SCORE.INTER.SOLV>
26.9103

>  <SCORE.INTER.VDW>
-26.2372

>  <SCORE.INTER.norm>
-0.678105

>  <SCORE.INTRA>
11.6603

>  <SCORE.INTRA.DIHEDRAL>
-13.9513

>  <SCORE.INTRA.DIHEDRAL.0>
46.2143

>  <SCORE.INTRA.POLAR>
-1.51317

>  <SCORE.INTRA.POLAR.0>
-1.76436

>  <SCORE.INTRA.REPUL>
0.0354958

>  <SCORE.INTRA.REPUL.0>
0

>  <SCORE.INTRA.SOLV>
8.07516

>  <SCORE.INTRA.SOLV.lig_0>
-148.643

>  <SCORE.INTRA.VDW>
19.5657

>  <SCORE.INTRA.VDW.0>
-4.83512

>  <SCORE.INTRA.norm>
0.277627

>  <SCORE.RESTR>
27.3925

>  <SCORE.RESTR.CAVITY>
27.3925

>  <SCORE.RESTR.norm>
0.652203

>  <SCORE.SYSTEM>
0

>  <SCORE.SYSTEM.CONST>
0

>  <SCORE.SYSTEM.DIHEDRAL>
0

>  <SCORE.SYSTEM.SOLV>
0

>  <SCORE.SYSTEM.norm>
0

>  <SCORE.heavy>
42

>  <SCORE.norm>
0.251726

>  <RMSD>
9.631

$$$$
1j7t
 OpenBabel11021811393D
libRbt.so/2013.1/901 2013/11/27
 42 45  0  0  0  0  0  0  0  0999 V2000
   24.6514    4.1311   60.1378 C   0  0  2  0  0  0  0  0  0  0  0  0
   24.5880    5.1741   59.1324 O   0  0  0  0  0  0  0  0  0  0  0  0
   25.4598    4.7071   61.3356 C   0  0  2  0  0  0  0  0  0  0  0  0
   24.9506    6.0080   61.8570 N   0  3  0  0  0  0  0  0  0  0  0  0
   26.9178    4.9178   60.8723 C   0  0  1  0  0  0  0  0  0  0  0  0
   27.6998    5.4218   61.9182 O   0  0  0  0  0  0  0  0  0  0  0  0
   27.5045    3.5869   60.3451 C   0  0  2  0  0  0  0  0  0  0  0  0
   28.8475    3.7531   59.9352 O   0  0  0  0  0  0  0  0  0  0  0  0
   26.6850    3.0928   59.1720 C   0  0  2  0  0  0  0  0  0  0  0  0
   25.3256    2.9648   59.5692 O   0  0  0  0  0  0  0  0  0  0  0  0
   27.1240    1.7346   58.6725 C   0  0  0  0  0  0  0  0  0  0  0  0
   26.8973    0.7664   59.6787 O   0  0  0  0  0  0  0  0  0  0  0  0
   22.5784    3.0244   56.1012 C   0  0  2  0  0  0  0  0  0  0  0  0
   21.7961    2.7229   54.9018 N   0  3  0  0  0  0  0  0  0  0  0  0
   21.7064    3.8332   57.1180 C   0  0  0  0  0  0  0  0  0  0  0  0
   22.5411    4.1949   58.3614 C   0  0  2  0  0  0  0  0  0  0  0  0
   21.7547    4.9999   59.3019 N   0  3  0  0  0  0  0  0  0  0  0  0
   23.8043    4.9764   57.9499 C   0  0  2  0  0  0  0  0  0  0  0  0
   24.6691    4.2144   56.9268 C   0  0  2  0  0  0  0  0  0  0  0  0
   25.7109    5.1261   56.5284 O   0  0  0  0  0  0  0  0  0  0  0  0
   23.8171    3.8082   55.6976 C   0  0  1  0  0  0  0  0  0  0  0  0
   24.5985    3.0320   54.8316 O   0  0  0  0  0  0  0  0  0  0  0  0
   27.0999    4.8542   56.6954 C   0  0  1  0  0  0  0  0  0  0  0  0
   27.5722    3.9260   55.5200 C   0  0  2  0  0  0  0  0  0  0  0  0
   27.4100    2.5420   55.7791 O   0  0  0  0  0  0  0  0  0  0  0  0
   29.0186    4.3935   55.4375 C   0  0  2  0  0  0  0  0  0  0  0  0
   29.7739    3.9780   56.6150 O   0  0  0  0  0  0  0  0  0  0  0  0
   28.8834    5.9089   55.4884 C   0  0  2  0  0  0  0  0  0  0  0  0
   27.8926    6.0601   56.5195 O   0  0  0  0  0  0  0  0  0  0  0  0
   28.4582    6.5777   54.1402 C   0  0  0  0  0  0  0  0  0  0  0  0
   28.4253    8.0066   54.2455 O   0  0  0  0  0  0  0  0  0  0  0  0
   31.1837    3.9281   56.4115 C   0  0  2  0  0  0  0  0  0  0  0  0
   31.9853    3.2169   57.5544 C   0  0  2  0  0  0  0  0  0  0  0  0
   31.7736    3.8489   58.8920 N   0  3  0  0  0  0  0  0  0  0  0  0
   33.4943    3.2424   57.1397 C   0  0  1  0  0  0  0  0  0  0  0  0
   33.6200    2.4485   55.8981 O   0  0  0  0  0  0  0  0  0  0  0  0
   34.0213    4.7040   56.8620 C   0  0  2  0  0  0  0  0  0  0  0  0
   33.9508    5.4552   58.0850 O   0  0  0  0  0  0  0  0  0  0  0  0
   33.1216    5.3455   55.7258 C   0  0  1  0  0  0  0  0  0  0  0  0
   31.7292    5.3030   56.1869 O   0  0  0  0  0  0  0  0  0  0  0  0
   33.5020    6.7951   55.3477 C   0  0  0  0  0  0  0  0  0  0  0  0
   32.7575    7.3138   54.1682 N   0  3  0  0  0  0  0  0  0  0  0  0
  1  2  1  6  0  0  0
  1  3  1  0  0  0  0
  1 10  1  0  0  0  0
  3  4  1  6  0  0  0
  3  5  1  0  0  0  0
  5  6  1  1  0  0  0
  5  7  1  0  0  0  0
  7  8  1  6  0  0  0
  7  9  1  0  0  0  0
  9 10  1  0  0  0  0
  9 11  1  1  0  0  0
 11 12  1  0  0  0  0
 13 14  1  6  0  0  0
 13 15  1  0  0  0  0
 13 21  1  0  0  0  0
 15 16  1  0  0  0  0
 16 17  1  1  0  0  0
 16 18  1  0  0  0  0
 18  2  1  1  0  0  0
 18 19  1  0  0  0  0
 19 20  1  6  0  0  0
 19 21  1  0  0  0  0
 21 22  1  6  0  0  0
 23 20  1  6  0  0  0
 23 24  1  0  0  0  0
 23 29  1  0  0  0  0
 24 25  1  1  0  0  0
 24 26  1  0  0  0  0
 26 27  1  1  0  0  0
 26 28  1  0  0  0  0
 28 29  1  0  0  0  0
 28 30  1  6  0  0  0
 30 31  1  0  0  0  0
 32 27  1  1  0  0  0
 32 33  1  0  0  0  0
 32 40  1  0  0  0  0
 33 34  1  1  0  0  0
 33 35  1  0  0  0  0
 35 36  1  6  0  0  0
 35 37  1  0  0  0  0
 37 38  1  1  0  0  0
 37 39  1  0  0  0  0
 39 40  1  0  0  0  0
 39 41  1  1  0  0  0
 41 42  1  0  0  0  0
M  CHG  5   4   1  14   1  17   1  34   1  42   1
M  END
>  <CHROM.1>
-174.71810627,36.93732970,-54.44424617,60.69506293,161.98760584,64.63486343
60.24790837,-176.01727543,-69.29287057,120.83705373,80.89886534,174.74491650
177.10694873,158.01775966,-168.29448624,-176.71890933,-60.97094559,171.31554864
-64.85099376,82.47947589,172.83088101,63.01670257,27.75943113,4.39050948
57.46479091,-2.91539731,-0.06802906,-1.38499304

>  <Name>
1j7t

>  <RI>
0

>  <Rbt.Current_Directory>
/home/itssahil/PROJECTS/Mol_Feturizer/New_Systems/rnas/1j7t

>  <Rbt.Executable>
rbdock ($Id: //depot/dev/client3/rdock/2013.1/src/exe/rbdock.cxx#4 $)

>  <Rbt.Library>
libRbt.so (2013.1, Build901 2013/11/27)

>  <Rbt.Parameter_File>
/export/apps/rDock/src/rDock_2013.1_src/data/scripts/dock_solv.prm

>  <Rbt.Receptor>
prm/pocket_docking_6.prm

>  <SCORE>
-34.8906

>  <SCORE.INTER>
-17.9047

>  <SCORE.INTER.CONST>
1

>  <SCORE.INTER.POLAR>
-3.53207

>  <SCORE.INTER.ROT>
9

>  <SCORE.INTER.SOLV>
16.0458

>  <SCORE.INTER.VDW>
-15.1115

>  <SCORE.INTER.norm>
-0.426302

>  <SCORE.INTRA>
-16.9859

>  <SCORE.INTRA.DIHEDRAL>
-26.4446

>  <SCORE.INTRA.DIHEDRAL.0>
46.2143

>  <SCORE.INTRA.POLAR>
-0.116359

>  <SCORE.INTRA.POLAR.0>
-1.76436

>  <SCORE.INTRA.REPUL>
0

>  <SCORE.INTRA.REPUL.0>
0

>  <SCORE.INTRA.SOLV>
-1.12693

>  <SCORE.INTRA.SOLV.lig_0>
-148.643

>  <SCORE.INTRA.VDW>
-2.80449

>  <SCORE.INTRA.VDW.0>
-4.83512

>  <SCORE.INTRA.norm>
-0.404426

>  <SCORE.RESTR>
0

>  <SCORE.RESTR.CAVITY>
0

>  <SCORE.RESTR.norm>
0

>  <SCORE.SYSTEM>
0

>  <SCORE.SYSTEM.CONST>
0

>  <SCORE.SYSTEM.DIHEDRAL>
0

>  <SCORE.SYSTEM.SOLV>
0

>  <SCORE.SYSTEM.norm>
0

>  <SCORE.heavy>
42

>  <SCORE.norm>
-0.830728

>  <RMSD>
9.631

$$$$
1j7t
 OpenBabel11021811393D
libRbt.so/2013.1/901 2013/11/27
 42 45  0  0  0  0  0  0  0  0999 V2000
   26.5517    5.0001   59.4040 C   0  0  2  0  0  0  0  0  0  0  0  0
   25.5984    6.0581   59.1313 O   0  0  0  0  0  0  0  0  0  0  0  0
   25.8767    3.6640   58.9809 C   0  0  2  0  0  0  0  0  0  0  0  0
   25.3537    3.6502   57.5845 N   0  3  0  0  0  0  0  0  0  0  0  0
   24.6914    3.4028   59.9357 C   0  0  1  0  0  0  0  0  0  0  0  0
   24.0528    2.1999   59.6118 O   0  0  0  0  0  0  0  0  0  0  0  0
   25.1860    3.3800   61.4015 C   0  0  2  0  0  0  0  0  0  0  0  0
   24.1186    3.1206   62.2917 O   0  0  0  0  0  0  0  0  0  0  0  0
   25.8130    4.7124   61.7531 C   0  0  2  0  0  0  0  0  0  0  0  0
   26.8597    4.9963   60.8334 O   0  0  0  0  0  0  0  0  0  0  0  0
   26.4278    4.7319   63.1346 C   0  0  0  0  0  0  0  0  0  0  0  0
   27.5930    3.9298   63.1434 O   0  0  0  0  0  0  0  0  0  0  0  0
   26.1442   10.1780   58.3720 C   0  0  2  0  0  0  0  0  0  0  0  0
   26.4835   11.5890   58.5598 N   0  3  0  0  0  0  0  0  0  0  0  0
   25.0043    9.7667   59.3618 C   0  0  0  0  0  0  0  0  0  0  0  0
   24.6778    8.2696   59.2012 C   0  0  2  0  0  0  0  0  0  0  0  0
   23.6480    7.8543   60.1594 N   0  3  0  0  0  0  0  0  0  0  0  0
   25.9459    7.4191   59.4113 C   0  0  2  0  0  0  0  0  0  0  0  0
   27.0958    7.8213   58.4672 C   0  0  2  0  0  0  0  0  0  0  0  0
   28.2420    7.0561   58.8870 O   0  0  0  0  0  0  0  0  0  0  0  0
   27.3915    9.3374   58.5937 C   0  0  1  0  0  0  0  0  0  0  0  0
   28.3685    9.6961   57.6557 O   0  0  0  0  0  0  0  0  0  0  0  0
   29.3463    6.7627   58.0352 C   0  0  1  0  0  0  0  0  0  0  0  0
   30.5203    6.2017   58.9145 C   0  0  2  0  0  0  0  0  0  0  0  0
   31.3714    7.2034   59.4449 O   0  0  0  0  0  0  0  0  0  0  0  0
   31.1678    5.3030   57.8703 C   0  0  2  0  0  0  0  0  0  0  0  0
   31.7907    6.0906   56.8114 O   0  0  0  0  0  0  0  0  0  0  0  0
   29.9729    4.5803   57.2643 C   0  0  2  0  0  0  0  0  0  0  0  0
   29.0349    5.6628   57.1371 O   0  0  0  0  0  0  0  0  0  0  0  0
   29.4156    3.3963   58.1207 C   0  0  0  0  0  0  0  0  0  0  0  0
   30.3866    2.3540   58.2780 O   0  0  0  0  0  0  0  0  0  0  0  0
   32.4380    5.3082   55.8112 C   0  0  2  0  0  0  0  0  0  0  0  0
   33.6572    4.4687   56.3241 C   0  0  2  0  0  0  0  0  0  0  0  0
   34.7187    5.3115   56.9537 N   0  3  0  0  0  0  0  0  0  0  0  0
   34.2111    3.6692   55.0978 C   0  0  1  0  0  0  0  0  0  0  0  0
   33.1421    2.7462   54.6586 O   0  0  0  0  0  0  0  0  0  0  0  0
   34.5989    4.6070   53.8889 C   0  0  2  0  0  0  0  0  0  0  0  0
   35.6764    5.4631   54.3021 O   0  0  0  0  0  0  0  0  0  0  0  0
   33.3136    5.4375   53.4764 C   0  0  1  0  0  0  0  0  0  0  0  0
   32.8604    6.1707   54.6641 O   0  0  0  0  0  0  0  0  0  0  0  0
   33.5348    6.4239   52.3072 C   0  0  0  0  0  0  0  0  0  0  0  0
   32.2778    7.0512   51.8163 N   0  3  0  0  0  0  0  0  0  0  0  0
  1  2  1  1  0  0  0
  1  3  1  0  0  0  0
  1 10  1  0  0  0  0
  3  4  1  6  0  0  0
  3  5  1  0  0  0  0
  5  6  1  6  0  0  0
  5  7  1  0  0  0  0
  7  8  1  1  0  0  0
  7  9  1  0  0  0  0
  9 10  1  0  0  0  0
  9 11  1  1  0  0  0
 11 12  1  0  0  0  0
 13 14  1  1  0  0  0
 13 15  1  0  0  0  0
 13 21  1  0  0  0  0
 15 16  1  0  0  0  0
 16 17  1  1  0  0  0
 16 18  1  0  0  0  0
 18  2  1  6  0  0  0
 18 19  1  0  0  0  0
 19 20  1  1  0  0  0
 19 21  1  0  0  0  0
 21 22  1  6  0  0  0
 23 20  1  1  0  0  0
 23 24  1  0  0  0  0
 23 29  1  0  0  0  0
 24 25  1  6  0  0  0
 24 26  1  0  0  0  0
 26 27  1  6  0  0  0
 26 28  1  0  0  0  0
 28 29  1  0  0  0  0
 28 30  1  1  0  0  0
 30 31  1  0  0  0  0
 32 27  1  1  0  0  0
 32 33  1  0  0  0  0
 32 40  1  0  0  0  0
 33 34  1  6  0  0  0
 33 35  1  0  0  0  0
 35 36  1  6  0  0  0
 35 37  1  0  0  0  0
 37 38  1  1  0  0  0
 37 39  1  0  0  0  0
 39 40  1  0  0  0  0
 39 41  1  6  0  0  0
 41 42  1  0  0  0  0
M  CHG  5   4   1  14   1  17   1  34   1  42   1
M  END
>  <CHROM.1>
-179.48177200,-172.40985866,-178.61855604,-173.42483095,64.84934640,70.67952637
76.83283484,-92.43743105,-179.20589695,157.02805993,167.55654913,-59.64812616
178.56333247,178.92291550,-63.94717474,-62.76307151,170.96468900,-21.68006645
-178.65241633,-73.78890757,172.02639368,91.38267744,28.92587622,5.75469951
58.02383702,-3.00137277,0.59565070,-0.32416839

>  <Name>
1j7t

>  <RI>
0

>  <Rbt.Current_Directory>
/home/itssahil/PROJECTS/Mol_Feturizer/New_Systems/rnas/1j7t

>  <Rbt.Executable>
rbdock ($Id: //depot/dev/client3/rdock/2013.1/src/exe/rbdock.cxx#4 $)

>  <Rbt.Library>
libRbt.so (2013.1, Build901 2013/11/27)

>  <Rbt.Parameter_File>
/export/apps/rDock/src/rDock_2013.1_src/data/scripts/dock_solv.prm

>  <Rbt.Receptor>
prm/pocket_docking_5.prm

>  <SCORE>
-34.0641

>  <SCORE.INTER>
-21.2109

>  <SCORE.INTER.CONST>
1

>  <SCORE.INTER.POLAR>
-4.61105

>  <SCORE.INTER.ROT>
9

>  <SCORE.INTER.SOLV>
22.0502

>  <SCORE.INTER.VDW>
-15.7205

>  <SCORE.INTER.norm>
-0.50502

>  <SCORE.INTRA>
-12.8807

>  <SCORE.INTRA.DIHEDRAL>
-31.9199

>  <SCORE.INTRA.DIHEDRAL.0>
46.2143

>  <SCORE.INTRA.POLAR>
1.73969

>  <SCORE.INTRA.POLAR.0>
-1.76436

>  <SCORE.INTRA.REPUL>
0

>  <SCORE.INTRA.REPUL.0>
0

>  <SCORE.INTRA.SOLV>
-6.56548

>  <SCORE.INTRA.SOLV.lig_0>
-148.643

>  <SCORE.INTRA.VDW>
0.447071

>  <SCORE.INTRA.VDW.0>
-4.83512

>  <SCORE.INTRA.norm>
-0.306682

>  <SCORE.RESTR>
0.0273989

>  <SCORE.RESTR.CAVITY>
0.0273989

>  <SCORE.RESTR.norm>
0.000652355

>  <SCORE.SYSTEM>
0

>  <SCORE.SYSTEM.CONST>
0

>  <SCORE.SYSTEM.DIHEDRAL>
0

>  <SCORE.SYSTEM.SOLV>
0

>  <SCORE.SYSTEM.norm>
0

>  <SCORE.heavy>
42

>  <SCORE.norm>
-0.81105

>  <RMSD>
9.653

$$$$
1j7t
 OpenBabel11021811393D
libRbt.so/2013.1/901 2013/11/27
 42 45  0  0  0  0  0  0  0  0999 V2000
   27.9513    5.1783   60.5952 C   0  0  2  0  0  0  0  0  0  0  0  0
   27.2575    5.8747   59.5293 O   0  0  0  0  0  0  0  0  0  0  0  0
   27.4189    3.7166   60.6011 C   0  0  2  0  0  0  0  0  0  0  0  0
   27.5006    3.0233   59.2834 N   0  3  0  0  0  0  0  0  0  0  0  0
   25.9359    3.7488   61.0308 C   0  0  1  0  0  0  0  0  0  0  0  0
   25.4054    2.4540   61.0700 O   0  0  0  0  0  0  0  0  0  0  0  0
   25.7981    4.4365   62.4098 C   0  0  2  0  0  0  0  0  0  0  0  0
   24.4489    4.4574   62.8323 O   0  0  0  0  0  0  0  0  0  0  0  0
   26.3152    5.8571   62.3297 C   0  0  2  0  0  0  0  0  0  0  0  0
   27.6589    5.8425   61.8646 O   0  0  0  0  0  0  0  0  0  0  0  0
   26.3237    6.5611   63.6681 C   0  0  0  0  0  0  0  0  0  0  0  0
   26.6762    5.6405   64.6827 O   0  0  0  0  0  0  0  0  0  0  0  0
   27.4985    9.4481   57.2885 C   0  0  2  0  0  0  0  0  0  0  0  0
   27.7819   10.8349   56.9172 N   0  3  0  0  0  0  0  0  0  0  0  0
   26.4985    9.4112   58.4914 C   0  0  0  0  0  0  0  0  0  0  0  0
   26.2354    7.9540   58.9171 C   0  0  2  0  0  0  0  0  0  0  0  0
   25.3414    7.9029   60.0787 N   0  3  0  0  0  0  0  0  0  0  0  0
   27.5620    7.2482   59.2601 C   0  0  2  0  0  0  0  0  0  0  0  0
   28.5774    7.2932   58.1017 C   0  0  2  0  0  0  0  0  0  0  0  0
   29.8016    6.7415   58.6234 O   0  0  0  0  0  0  0  0  0  0  0  0
   28.8052    8.7554   57.6414 C   0  0  1  0  0  0  0  0  0  0  0  0
   29.6520    8.7605   56.5252 O   0  0  0  0  0  0  0  0  0  0  0  0
   30.9228    6.4067   57.8097 C   0  0  1  0  0  0  0  0  0  0  0  0
   31.8629    5.4481   58.6241 C   0  0  2  0  0  0  0  0  0  0  0  0
   32.8185    6.1227   59.4245 O   0  0  0  0  0  0  0  0  0  0  0  0
   32.4478    4.6676   57.4554 C   0  0  2  0  0  0  0  0  0  0  0  0
   33.3239    5.5089   56.6466 O   0  0  0  0  0  0  0  0  0  0  0  0
   31.2172    4.3464   56.6189 C   0  0  2  0  0  0  0  0  0  0  0  0
   30.5178    5.6018   56.6689 O   0  0  0  0  0  0  0  0  0  0  0  0
   30.3548    3.1535   57.1472 C   0  0  0  0  0  0  0  0  0  0  0  0
   29.2180    2.9103   56.3091 O   0  0  0  0  0  0  0  0  0  0  0  0
   33.7212    4.9151   55.4133 C   0  0  2  0  0  0  0  0  0  0  0  0
   34.9732    3.9785   55.5110 C   0  0  2  0  0  0  0  0  0  0  0  0
   36.1792    4.6759   56.0519 N   0  3  0  0  0  0  0  0  0  0  0  0
   35.2337    3.4109   54.0758 C   0  0  1  0  0  0  0  0  0  0  0  0
   34.0538    2.5996   53.7057 O   0  0  0  0  0  0  0  0  0  0  0  0
   35.4234    4.5497   52.9995 C   0  0  2  0  0  0  0  0  0  0  0  0
   36.6032    5.2999   53.3311 O   0  0  0  0  0  0  0  0  0  0  0  0
   34.1259    5.4600   53.0104 C   0  0  1  0  0  0  0  0  0  0  0  0
   33.9531    5.9682   54.3761 O   0  0  0  0  0  0  0  0  0  0  0  0
   34.1627    6.6416   52.0147 C   0  0  0  0  0  0  0  0  0  0  0  0
   34.0234    6.2226   50.5936 N   0  3  0  0  0  0  0  0  0  0  0  0
  1  2  1  6  0  0  0
  1  3  1  0  0  0  0
  1 10  1  0  0  0  0
  3  4  1  6  0  0  0
  3  5  1  0  0  0  0
  5  6  1  1  0  0  0
  5  7  1  0  0  0  0
  7  8  1  6  0  0  0
  7  9  1  0  0  0  0
  9 10  1  0  0  0  0
  9 11  1  1  0  0  0
 11 12  1  0  0  0  0
 13 14  1  1  0  0  0
 13 15  1  0  0  0  0
 13 21  1  0  0  0  0
 15 16  1  0  0  0  0
 16 17  1  1  0  0  0
 16 18  1  0  0  0  0
 18  2  1  6  0  0  0
 18 19  1  0  0  0  0
 19 20  1  1  0  0  0
 19 21  1  0  0  0  0
 21 22  1  6  0  0  0
 23 20  1  1  0  0  0
 23 24  1  0  0  0  0
 23 29  1  0  0  0  0
 24 25  1  6  0  0  0
 24 26  1  0  0  0  0
 26 27  1  6  0  0  0
 26 28  1  0  0  0  0
 28 29  1  0  0  0  0
 28 30  1  1  0  0  0
 30 31  1  0  0  0  0
 32 27  1  1  0  0  0
 32 33  1  0  0  0  0
 32 40  1  0  0  0  0
 33 34  1  6  0  0  0
 33 35  1  0  0  0  0
 35 36  1  6  0  0  0
 35 37  1  0  0  0  0
 37 38  1  1  0  0  0
 37 39  1  0  0  0  0
 39 40  1  0  0  0  0
 39 41  1  6  0  0  0
 41 42  1  0  0  0  0
M  CHG  5   4   1  14   1  17   1  34   1  42   1
M  END
>  <CHROM.1>
-178.70319198,-141.38865065,-30.86121545,54.34579922,-59.46142926,36.85488858
-66.83847714,-34.68761958,58.97593604,169.48848876,-162.66873048,66.86917994
62.43616203,-169.71207420,-85.20360215,-179.91187230,179.36973734,85.04683863
-59.82488041,175.59604384,72.08817902,108.37725747,30.03734325,5.68395418
57.84074430,-2.85268493,0.68853680,-0.53542899

>  <Name>
1j7t

>  <RI>
0

>  <Rbt.Current_Directory>
/home/itssahil/PROJECTS/Mol_Feturizer/New_Systems/rnas/1j7t

>  <Rbt.Executable>
rbdock ($Id: //depot/dev/client3/rdock/2013.1/src/exe/rbdock.cxx#4 $)

>  <Rbt.Library>
libRbt.so (2013.1, Build901 2013/11/27)

>  <Rbt.Parameter_File>
/export/apps/rDock/src/rDock_2013.1_src/data/scripts/dock_solv.prm

>  <Rbt.Receptor>
prm/pocket_docking_4.prm

>  <SCORE>
-35.3497

>  <SCORE.INTER>
-27.8245

>  <SCORE.INTER.CONST>
1

>  <SCORE.INTER.POLAR>
-5.86284

>  <SCORE.INTER.ROT>
9

>  <SCORE.INTER.SOLV>
25.192

>  <SCORE.INTER.VDW>
-17.0042

>  <SCORE.INTER.norm>
-0.662487

>  <SCORE.INTRA>
-7.60797

>  <SCORE.INTRA.DIHEDRAL>
-24.6249

>  <SCORE.INTRA.DIHEDRAL.0>
46.2143

>  <SCORE.INTRA.POLAR>
1.692

>  <SCORE.INTRA.POLAR.0>
-1.76436

>  <SCORE.INTRA.REPUL>
0

>  <SCORE.INTRA.REPUL.0>
0

>  <SCORE.INTRA.SOLV>
-1.53772

>  <SCORE.INTRA.SOLV.lig_0>
-148.643

>  <SCORE.INTRA.VDW>
-0.279475

>  <SCORE.INTRA.VDW.0>
-4.83512

>  <SCORE.INTRA.norm>
-0.181142

>  <SCORE.RESTR>
0.0827417

>  <SCORE.RESTR.CAVITY>
0.0827417

>  <SCORE.RESTR.norm>
0.00197004

>  <SCORE.SYSTEM>
0

>  <SCORE.SYSTEM.CONST>
0

>  <SCORE.SYSTEM.DIHEDRAL>
0

>  <SCORE.SYSTEM.SOLV>
0

>  <SCORE.SYSTEM.norm>
0

>  <SCORE.heavy>
42

>  <SCORE.norm>
-0.84166

>  <RMSD>
9.759

$$$$
1j7t
 OpenBabel11021811393D
libRbt.so/2013.1/901 2013/11/27
 42 45  0  0  0  0  0  0  0  0999 V2000
   27.7137    9.2697   60.9467 C   0  0  2  0  0  0  0  0  0  0  0  0
   27.1700    7.9478   61.1908 O   0  0  0  0  0  0  0  0  0  0  0  0
   28.9470    9.4303   61.8812 C   0  0  2  0  0  0  0  0  0  0  0  0
   29.9569    8.3393   61.7656 N   0  3  0  0  0  0  0  0  0  0  0  0
   28.4419    9.4587   63.3403 C   0  0  1  0  0  0  0  0  0  0  0  0
   29.5111    9.6184   64.2295 O   0  0  0  0  0  0  0  0  0  0  0  0
   27.4076   10.5949   63.5216 C   0  0  2  0  0  0  0  0  0  0  0  0
   26.9477   10.6521   64.8574 O   0  0  0  0  0  0  0  0  0  0  0  0
   26.2282   10.3682   62.5999 C   0  0  2  0  0  0  0  0  0  0  0  0
   26.6919   10.2678   61.2594 O   0  0  0  0  0  0  0  0  0  0  0  0
   25.2250   11.4994   62.6317 C   0  0  0  0  0  0  0  0  0  0  0  0
   24.4280   11.3900   63.7954 O   0  0  0  0  0  0  0  0  0  0  0  0
   24.5786    5.2660   59.2056 C   0  0  2  0  0  0  0  0  0  0  0  0
   23.4271    4.7367   58.4741 N   0  3  0  0  0  0  0  0  0  0  0  0
   24.1179    5.8302   60.5905 C   0  0  0  0  0  0  0  0  0  0  0  0
   25.3196    6.4327   61.3433 C   0  0  2  0  0  0  0  0  0  0  0  0
   24.8963    7.0147   62.6213 N   0  3  0  0  0  0  0  0  0  0  0  0
   25.9993    7.5184   60.4861 C   0  0  2  0  0  0  0  0  0  0  0  0
   26.4392    6.9971   59.1041 C   0  0  2  0  0  0  0  0  0  0  0  0
   26.9053    8.1483   58.3740 O   0  0  0  0  0  0  0  0  0  0  0  0
   25.2408    6.3475   58.3668 C   0  0  1  0  0  0  0  0  0  0  0  0
   25.6877    5.7935   57.1599 O   0  0  0  0  0  0  0  0  0  0  0  0
   27.8469    8.0742   57.3068 C   0  0  1  0  0  0  0  0  0  0  0  0
   27.5964    9.2818   56.3347 C   0  0  2  0  0  0  0  0  0  0  0  0
   26.6374    9.0182   55.3248 O   0  0  0  0  0  0  0  0  0  0  0  0
   29.0216    9.4575   55.8295 C   0  0  2  0  0  0  0  0  0  0  0  0
   29.4246    8.3340   54.9899 O   0  0  0  0  0  0  0  0  0  0  0  0
   29.8408    9.3918   57.1109 C   0  0  2  0  0  0  0  0  0  0  0  0
   29.2003    8.2970   57.7884 O   0  0  0  0  0  0  0  0  0  0  0  0
   29.8450   10.7064   57.9580 C   0  0  0  0  0  0  0  0  0  0  0  0
   28.5493   10.9906   58.5005 O   0  0  0  0  0  0  0  0  0  0  0  0
   28.6765    8.2149   53.7825 C   0  0  2  0  0  0  0  0  0  0  0  0
   28.3375    6.7435   53.3648 C   0  0  2  0  0  0  0  0  0  0  0  0
   29.5548    5.8937   53.1932 N   0  3  0  0  0  0  0  0  0  0  0  0
   27.5021    6.8234   52.0437 C   0  0  1  0  0  0  0  0  0  0  0  0
   26.2452    7.5343   52.3635 O   0  0  0  0  0  0  0  0  0  0  0  0
   28.2523    7.6103   50.8996 C   0  0  2  0  0  0  0  0  0  0  0  0
   29.4437    6.8861   50.5523 O   0  0  0  0  0  0  0  0  0  0  0  0
   28.5840    9.0643   51.4363 C   0  0  1  0  0  0  0  0  0  0  0  0
   29.3782    8.9135   52.6610 O   0  0  0  0  0  0  0  0  0  0  0  0
   29.3403    9.9624   50.4312 C   0  0  0  0  0  0  0  0  0  0  0  0
   30.7406    9.5240   50.1832 N   0  3  0  0  0  0  0  0  0  0  0  0
  1  2  1  1  0  0  0
  1  3  1  0  0  0  0
  1 10  1  0  0  0  0
  3  4  1  1  0  0  0
  3  5  1  0  0  0  0
  5  6  1  1  0  0  0
  5  7  1  0  0  0  0
  7  8  1  1  0  0  0
  7  9  1  0  0  0  0
  9 10  1  0  0  0  0
  9 11  1  6  0  0  0
 11 12  1  0  0  0  0
 13 14  1  6  0  0  0
 13 15  1  0  0  0  0
 13 21  1  0  0  0  0
 15 16  1  0  0  0  0
 16 17  1  1  0  0  0
 16 18  1  0  0  0  0
 18  2  1  1  0  0  0
 18 19  1  0  0  0  0
 19 20  1  6  0  0  0
 19 21  1  0  0  0  0
 21 22  1  6  0  0  0
 23 20  1  1  0  0  0
 23 24  1  0  0  0  0
 23 29  1  0  0  0  0
 24 25  1  6  0  0  0
 24 26  1  0  0  0  0
 26 27  1  6  0  0  0
 26 28  1  0  0  0  0
 28 29  1  0  0  0  0
 28 30  1  1  0  0  0
 30 31  1  0  0  0  0
 32 27  1  1  0  0  0
 32 33  1  0  0  0  0
 32 40  1  0  0  0  0
 33 34  1  6  0  0  0
 33 35  1  0  0  0  0
 35 36  1  1  0  0  0
 35 37  1  0  0  0  0
 37 38  1  1  0  0  0
 37 39  1  0  0  0  0
 39 40  1  0  0  0  0
 39 41  1  6  0  0  0
 41 42  1  0  0  0  0
M  CHG  5   4   1  14   1  17   1  34   1  42   1
M  END
>  <CHROM.1>
178.77839034,-155.37641863,166.65003233,-172.54661914,-177.40595647,-77.96657134
-70.77284916,-177.79357926,174.00010738,154.78237978,152.45058084,-60.82642870
-176.79970764,64.52012421,-141.19545917,66.80856079,-63.86487315,-72.66610419
53.85003070,75.60198925,-69.31562691,-95.23229069,27.51194810,8.41785401
57.85398115,-1.85308521,-0.75121424,-1.87796619

>  <Name>
1j7t

>  <RI>
0

>  <Rbt.Current_Directory>
/home/itssahil/PROJECTS/Mol_Feturizer/New_Systems/rnas/1j7t

>  <Rbt.Executable>
rbdock ($Id: //depot/dev/client3/rdock/2013.1/src/exe/rbdock.cxx#4 $)

>  <Rbt.Library>
libRbt.so (2013.1, Build901 2013/11/27)

>  <Rbt.Parameter_File>
/export/apps/rDock/src/rDock_2013.1_src/data/scripts/dock_solv.prm

>  <Rbt.Receptor>
prm/pocket_docking_8.prm

>  <SCORE>
-56.2834

>  <SCORE.INTER>
-42.0764

>  <SCORE.INTER.CONST>
1

>  <SCORE.INTER.POLAR>
-6.31343

>  <SCORE.INTER.ROT>
9

>  <SCORE.INTER.SOLV>
18.4544

>  <SCORE.INTER.VDW>
-22.7576

>  <SCORE.INTER.norm>
-1.00182

>  <SCORE.INTRA>
-14.2071

>  <SCORE.INTRA.DIHEDRAL>
-24.8796

>  <SCORE.INTRA.DIHEDRAL.0>
46.2143

>  <SCORE.INTRA.POLAR>
-0.0817307

>  <SCORE.INTRA.POLAR.0>
-1.76436

>  <SCORE.INTRA.REPUL>
0.0180954

>  <SCORE.INTRA.REPUL.0>
0

>  <SCORE.INTRA.SOLV>
-0.358006

>  <SCORE.INTRA.SOLV.lig_0>
-148.643

>  <SCORE.INTRA.VDW>
-1.40089

>  <SCORE.INTRA.VDW.0>
-4.83512

>  <SCORE.INTRA.norm>
-0.338264

>  <SCORE.RESTR>
0

>  <SCORE.RESTR.CAVITY>
0

>  <SCORE.RESTR.norm>
0

>  <SCORE.SYSTEM>
0

>  <SCORE.SYSTEM.CONST>
0

>  <SCORE.SYSTEM.DIHEDRAL>
0

>  <SCORE.SYSTEM.SOLV>
0

>  <SCORE.SYSTEM.norm>
0

>  <SCORE.heavy>
42

>  <SCORE.norm>
-1.34008

>  <RMSD>
9.805

$$$$
1j7t
 OpenBabel11021811393D
libRbt.so/2013.1/901 2013/11/27
 42 45  0  0  0  0  0  0  0  0999 V2000
   25.5512    6.8637   61.8422 C   0  0  2  0  0  0  0  0  0  0  0  0
   26.8074    7.5879   61.8534 O   0  0  0  0  0  0  0  0  0  0  0  0
   25.6678    5.7406   62.9124 C   0  0  2  0  0  0  0  0  0  0  0  0
   26.0699    6.2166   64.2672 N   0  3  0  0  0  0  0  0  0  0  0  0
   26.7286    4.7274   62.4296 C   0  0  1  0  0  0  0  0  0  0  0  0
   26.8656    3.6808   63.3491 O   0  0  0  0  0  0  0  0  0  0  0  0
   26.3436    4.1805   61.0346 C   0  0  2  0  0  0  0  0  0  0  0  0
   27.2917    3.2338   60.5829 O   0  0  0  0  0  0  0  0  0  0  0  0
   26.2661    5.3190   60.0397 C   0  0  2  0  0  0  0  0  0  0  0  0
   25.3444    6.2935   60.5117 O   0  0  0  0  0  0  0  0  0  0  0  0
   25.7800    4.8822   58.6759 C   0  0  0  0  0  0  0  0  0  0  0  0
   25.7155    6.0043   57.8168 O   0  0  0  0  0  0  0  0  0  0  0  0
   25.5963   10.9373   59.5813 C   0  0  2  0  0  0  0  0  0  0  0  0
   25.5780   12.2716   58.9807 N   0  3  0  0  0  0  0  0  0  0  0  0
   25.5239   11.0525   61.1401 C   0  0  0  0  0  0  0  0  0  0  0  0
   25.5921    9.6520   61.7785 C   0  0  2  0  0  0  0  0  0  0  0  0
   25.5796    9.7444   63.2422 N   0  3  0  0  0  0  0  0  0  0  0  0
   26.8677    8.9168   61.3225 C   0  0  2  0  0  0  0  0  0  0  0  0
   26.9791    8.8128   59.7889 C   0  0  2  0  0  0  0  0  0  0  0  0
   28.2785    8.2514   59.5211 O   0  0  0  0  0  0  0  0  0  0  0  0
   26.8618   10.2170   59.1437 C   0  0  1  0  0  0  0  0  0  0  0  0
   26.8647   10.0850   57.7489 O   0  0  0  0  0  0  0  0  0  0  0  0
   28.6491    7.6914   58.2640 C   0  0  1  0  0  0  0  0  0  0  0  0
   30.1948    7.8861   58.0664 C   0  0  2  0  0  0  0  0  0  0  0  0
   30.5471    9.1207   57.4659 O   0  0  0  0  0  0  0  0  0  0  0  0
   30.4634    6.6595   57.2060 C   0  0  2  0  0  0  0  0  0  0  0  0
   29.8615    6.8019   55.8842 O   0  0  0  0  0  0  0  0  0  0  0  0
   29.7054    5.5631   57.9413 C   0  0  2  0  0  0  0  0  0  0  0  0
   28.4832    6.2472   58.2666 O   0  0  0  0  0  0  0  0  0  0  0  0
   30.4322    4.9926   59.2031 C   0  0  0  0  0  0  0  0  0  0  0  0
   29.9279    3.7010   59.5656 O   0  0  0  0  0  0  0  0  0  0  0  0
   30.7449    7.3314   54.8989 C   0  0  2  0  0  0  0  0  0  0  0  0
   30.0459    7.8028   53.5785 C   0  0  2  0  0  0  0  0  0  0  0  0
   29.2721    6.7128   52.9101 N   0  3  0  0  0  0  0  0  0  0  0  0
   31.1666    8.3677   52.6434 C   0  0  1  0  0  0  0  0  0  0  0  0
   31.7524    9.5431   53.3237 O   0  0  0  0  0  0  0  0  0  0  0  0
   32.3128    7.3177   52.3693 C   0  0  2  0  0  0  0  0  0  0  0  0
   31.7507    6.2029   51.6579 O   0  0  0  0  0  0  0  0  0  0  0  0
   32.9224    6.8772   53.7645 C   0  0  1  0  0  0  0  0  0  0  0  0
   31.8240    6.3456   54.5795 O   0  0  0  0  0  0  0  0  0  0  0  0
   34.0548    5.8298   53.6680 C   0  0  0  0  0  0  0  0  0  0  0  0
   34.6753    5.5065   54.9814 N   0  3  0  0  0  0  0  0  0  0  0  0
  1  2  1  6  0  0  0
  1  3  1  0  0  0  0
  1 10  1  0  0  0  0
  3  4  1  1  0  0  0
  3  5  1  0  0  0  0
  5  6  1  1  0  0  0
  5  7  1  0  0  0  0
  7  8  1  6  0  0  0
  7  9  1  0  0  0  0
  9 10  1  0  0  0  0
  9 11  1  6  0  0  0
 11 12  1  0  0  0  0
 13 14  1  6  0  0  0
 13 15  1  0  0  0  0
 13 21  1  0  0  0  0
 15 16  1  0  0  0  0
 16 17  1  1  0  0  0
 16 18  1  0  0  0  0
 18  2  1  1  0  0  0
 18 19  1  0  0  0  0
 19 20  1  1  0  0  0
 19 21  1  0  0  0  0
 21 22  1  6  0  0  0
 23 20  1  1  0  0  0
 23 24  1  0  0  0  0
 23 29  1  0  0  0  0
 24 25  1  6  0  0  0
 24 26  1  0  0  0  0
 26 27  1  6  0  0  0
 26 28  1  0  0  0  0
 28 29  1  0  0  0  0
 28 30  1  1  0  0  0
 30 31  1  0  0  0  0
 32 27  1  1  0  0  0
 32 33  1  0  0  0  0
 32 40  1  0  0  0  0
 33 34  1  6  0  0  0
 33 35  1  0  0  0  0
 35 36  1  1  0  0  0
 35 37  1  0  0  0  0
 37 38  1  1  0  0  0
 37 39  1  0  0  0  0
 39 40  1  0  0  0  0
 39 41  1  6  0  0  0
 41 42  1  0  0  0  0
M  CHG  5   4   1  14   1  17   1  34   1  42   1
M  END
>  <CHROM.1>
-159.41195983,41.05786226,-163.67271013,175.55380440,-178.03408828,179.02845953
-52.26111283,-62.57819836,-30.46670939,163.99959436,150.36950869,-60.16209948
-53.29072772,93.64283480,-166.43918773,-159.78521060,-69.01105583,53.78977616
-176.60661849,79.96721819,175.85965024,-71.38847977,28.50585569,7.15360030
58.27142502,-2.74574290,0.87952306,-0.52602459

>  <Name>
1j7t

>  <RI>
224

>  <Rbt.Current_Directory>
/home/itssahil/PROJECTS/Mol_Feturizer/New_Systems/rnas/1j7t

>  <Rbt.Executable>
rbdock ($Id: //depot/dev/client3/rdock/2013.1/src/exe/rbdock.cxx#4 $)

>  <Rbt.Library>
libRbt.so (2013.1, Build901 2013/11/27)

>  <Rbt.Parameter_File>
/export/apps/rDock/src/rDock_2013.1_src/data/scripts/dock_solv.prm

>  <Rbt.Receptor>
prm/pocket_docking_7.prm

>  <SCORE>
-48.739

>  <SCORE.INTER>
-32.5249

>  <SCORE.INTER.CONST>
1

>  <SCORE.INTER.POLAR>
-6.59171

>  <SCORE.INTER.ROT>
9

>  <SCORE.INTER.SOLV>
19.0876

>  <SCORE.INTER.VDW>
-15.6734

>  <SCORE.INTER.norm>
-0.774402

>  <SCORE.INTRA>
-16.2142

>  <SCORE.INTRA.DIHEDRAL>
-25.4534

>  <SCORE.INTRA.DIHEDRAL.0>
46.2143

>  <SCORE.INTRA.POLAR>
-0.0321632

>  <SCORE.INTRA.POLAR.0>
-1.76436

>  <SCORE.INTRA.REPUL>
0

>  <SCORE.INTRA.REPUL.0>
0

>  <SCORE.INTRA.SOLV>
-2.44455

>  <SCORE.INTRA.SOLV.lig_0>
-148.643

>  <SCORE.INTRA.VDW>
-2.15583

>  <SCORE.INTRA.VDW.0>
-4.83512

>  <SCORE.INTRA.norm>
-0.386052

>  <SCORE.RESTR>
0

>  <SCORE.RESTR.CAVITY>
0

>  <SCORE.RESTR.norm>
0

>  <SCORE.SYSTEM>
0

>  <SCORE.SYSTEM.CONST>
0

>  <SCORE.SYSTEM.DIHEDRAL>
0

>  <SCORE.SYSTEM.SOLV>
0

>  <SCORE.SYSTEM.norm>
0

>  <SCORE.heavy>
42

>  <SCORE.norm>
-1.16045

>  <RMSD>
9.828

$$$$
1j7t
 OpenBabel11021811393D
libRbt.so/2013.1/901 2013/11/27
 42 45  0  0  0  0  0  0  0  0999 V2000
   25.8691    7.7567   59.7973 C   0  0  2  0  0  0  0  0  0  0  0  0
   25.7107    8.9513   60.6037 O   0  0  0  0  0  0  0  0  0  0  0  0
   24.4570    7.3821   59.2627 C   0  0  2  0  0  0  0  0  0  0  0  0
   23.7492    8.4887   58.5570 N   0  3  0  0  0  0  0  0  0  0  0  0
   23.5884    6.9519   60.4650 C   0  0  1  0  0  0  0  0  0  0  0  0
   22.3054    6.5863   60.0409 O   0  0  0  0  0  0  0  0  0  0  0  0
   24.2671    5.7836   61.2187 C   0  0  2  0  0  0  0  0  0  0  0  0
   23.4768    5.3597   62.3118 O   0  0  0  0  0  0  0  0  0  0  0  0
   25.6247    6.2198   61.7272 C   0  0  2  0  0  0  0  0  0  0  0  0
   26.4075    6.6865   60.6357 O   0  0  0  0  0  0  0  0  0  0  0  0
   26.4036    5.0970   62.3750 C   0  0  0  0  0  0  0  0  0  0  0  0
   26.4503    3.9882   61.4977 O   0  0  0  0  0  0  0  0  0  0  0  0
   28.2363   12.2891   61.1766 C   0  0  2  0  0  0  0  0  0  0  0  0
   29.3815   13.1087   61.5743 N   0  3  0  0  0  0  0  0  0  0  0  0
   27.5636   11.6616   62.4423 C   0  0  0  0  0  0  0  0  0  0  0  0
   26.3873   10.7587   62.0244 C   0  0  2  0  0  0  0  0  0  0  0  0
   25.7783   10.1195   63.1956 N   0  3  0  0  0  0  0  0  0  0  0  0
   26.8676    9.6739   61.0405 C   0  0  2  0  0  0  0  0  0  0  0  0
   27.5596   10.2632   59.7958 C   0  0  2  0  0  0  0  0  0  0  0  0
   28.0840    9.1396   59.0623 O   0  0  0  0  0  0  0  0  0  0  0  0
   28.7122   11.2095   60.2175 C   0  0  1  0  0  0  0  0  0  0  0  0
   29.2580   11.8086   59.0746 O   0  0  0  0  0  0  0  0  0  0  0  0
   28.6580    9.2481   57.7623 C   0  0  1  0  0  0  0  0  0  0  0  0
   29.0330    7.8083   57.2600 C   0  0  2  0  0  0  0  0  0  0  0  0
   30.3286    7.3832   57.6470 O   0  0  0  0  0  0  0  0  0  0  0  0
   28.8596    8.0439   55.7661 C   0  0  2  0  0  0  0  0  0  0  0  0
   29.8916    8.9380   55.2511 O   0  0  0  0  0  0  0  0  0  0  0  0
   27.5318    8.7851   55.6966 C   0  0  2  0  0  0  0  0  0  0  0  0
   27.6741    9.7035   56.7938 O   0  0  0  0  0  0  0  0  0  0  0  0
   26.2641    7.8788   55.8286 C   0  0  0  0  0  0  0  0  0  0  0  0
   26.1964    6.9071   54.7774 O   0  0  0  0  0  0  0  0  0  0  0  0
   30.3155    8.6314   53.9252 C   0  0  2  0  0  0  0  0  0  0  0  0
   31.1983    7.3432   53.8017 C   0  0  2  0  0  0  0  0  0  0  0  0
   32.4359    7.4051   54.6371 N   0  3  0  0  0  0  0  0  0  0  0  0
   31.5383    7.1646   52.2843 C   0  0  1  0  0  0  0  0  0  0  0  0
   30.2606    6.9422   51.5732 O   0  0  0  0  0  0  0  0  0  0  0  0
   32.2462    8.4341   51.6691 C   0  0  2  0  0  0  0  0  0  0  0  0
   33.5128    8.6131   52.3235 O   0  0  0  0  0  0  0  0  0  0  0  0
   31.2931    9.6824   51.8822 C   0  0  1  0  0  0  0  0  0  0  0  0
   31.0307    9.7984   53.3213 O   0  0  0  0  0  0  0  0  0  0  0  0
   31.8554   11.0182   51.3450 C   0  0  0  0  0  0  0  0  0  0  0  0
   32.5664   10.8809   50.0450 N   0  3  0  0  0  0  0  0  0  0  0  0
  1  2  1  1  0  0  0
  1  3  1  0  0  0  0
  1 10  1  0  0  0  0
  3  4  1  1  0  0  0
  3  5  1  0  0  0  0
  5  6  1  6  0  0  0
  5  7  1  0  0  0  0
  7  8  1  1  0  0  0
  7  9  1  0  0  0  0
  9 10  1  0  0  0  0
  9 11  1  6  0  0  0
 11 12  1  0  0  0  0
 13 14  1  1  0  0  0
 13 15  1  0  0  0  0
 13 21  1  0  0  0  0
 15 16  1  0  0  0  0
 16 17  1  1  0  0  0
 16 18  1  0  0  0  0
 18  2  1  6  0  0  0
 18 19  1  0  0  0  0
 19 20  1  6  0  0  0
 19 21  1  0  0  0  0
 21 22  1  6  0  0  0
 23 20  1  1  0  0  0
 23 24  1  0  0  0  0
 23 29  1  0  0  0  0
 24 25  1  6  0  0  0
 24 26  1  0  0  0  0
 26 27  1  1  0  0  0
 26 28  1  0  0  0  0
 28 29  1  0  0  0  0
 28 30  1  1  0  0  0
 30 31  1  0  0  0  0
 32 27  1  1  0  0  0
 32 33  1  0  0  0  0
 32 40  1  0  0  0  0
 33 34  1  1  0  0  0
 33 35  1  0  0  0  0
 35 36  1  6  0  0  0
 35 37  1  0  0  0  0
 37 38  1  1  0  0  0
 37 39  1  0  0  0  0
 39 40  1  0  0  0  0
 39 41  1  1  0  0  0
 41 42  1  0  0  0  0
M  CHG  5   4   1  14   1  17   1  34   1  42   1
M  END
>  <CHROM.1>
-169.02478245,-172.28328250,59.70189050,28.26483747,-54.93893174,51.91411034
-179.46557555,-52.97802282,-69.18233638,172.15687355,-176.61852928,-63.29910573
177.24154131,145.12483509,-72.65673114,-60.82191019,62.44201739,57.69814581
63.59612248,64.10581728,39.66164211,51.23318299,28.07739888,8.55480585,57.64434835
2.55504937,0.81983449,0.85575215

>  <Name>
1j7t

>  <RI>
224

>  <Rbt.Current_Directory>
/home/itssahil/PROJECTS/Mol_Feturizer/New_Systems/rnas/1j7t

>  <Rbt.Executable>
rbdock ($Id: //depot/dev/client3/rdock/2013.1/src/exe/rbdock.cxx#4 $)

>  <Rbt.Library>
libRbt.so (2013.1, Build901 2013/11/27)

>  <Rbt.Parameter_File>
/export/apps/rDock/src/rDock_2013.1_src/data/scripts/dock_solv.prm

>  <Rbt.Receptor>
prm/pocket_docking_7.prm

>  <SCORE>
-53.5289

>  <SCORE.INTER>
-38.6817

>  <SCORE.INTER.CONST>
1

>  <SCORE.INTER.POLAR>
-6.43144

>  <SCORE.INTER.ROT>
9

>  <SCORE.INTER.SOLV>
21.2395

>  <SCORE.INTER.VDW>
-21.0295

>  <SCORE.INTER.norm>
-0.920993

>  <SCORE.INTRA>
-14.8472

>  <SCORE.INTRA.DIHEDRAL>
-32.8027

>  <SCORE.INTRA.DIHEDRAL.0>
46.2143

>  <SCORE.INTRA.POLAR>
1.33658

>  <SCORE.INTRA.POLAR.0>
-1.76436

>  <SCORE.INTRA.REPUL>
0

>  <SCORE.INTRA.REPUL.0>
0

>  <SCORE.INTRA.SOLV>
-4.15212

>  <SCORE.INTRA.SOLV.lig_0>
-148.643

>  <SCORE.INTRA.VDW>
-0.914117

>  <SCORE.INTRA.VDW.0>
-4.83512

>  <SCORE.INTRA.norm>
-0.353504

>  <SCORE.RESTR>
0

>  <SCORE.RESTR.CAVITY>
0

>  <SCORE.RESTR.norm>
0

>  <SCORE.SYSTEM>
0

>  <SCORE.SYSTEM.CONST>
0

>  <SCORE.SYSTEM.DIHEDRAL>
0

>  <SCORE.SYSTEM.SOLV>
0

>  <SCORE.SYSTEM.norm>
0

>  <SCORE.heavy>
42

>  <SCORE.norm>
-1.2745

>  <RMSD>
9.845

$$$$
1j7t
 OpenBabel11021811393D
libRbt.so/2013.1/901 2013/11/27
 42 45  0  0  0  0  0  0  0  0999 V2000
   29.2944    4.8302   57.7417 C   0  0  2  0  0  0  0  0  0  0  0  0
   29.9335    5.7524   56.8233 O   0  0  0  0  0  0  0  0  0  0  0  0
   30.4313    4.0525   58.4648 C   0  0  2  0  0  0  0  0  0  0  0  0
   31.4605    4.9184   59.1087 N   0  3  0  0  0  0  0  0  0  0  0  0
   31.1424    3.1637   57.4211 C   0  0  1  0  0  0  0  0  0  0  0  0
   32.1693    2.4247   58.0202 O   0  0  0  0  0  0  0  0  0  0  0  0
   30.1198    2.2233   56.7402 C   0  0  2  0  0  0  0  0  0  0  0  0
   30.7545    1.3849   55.7951 O   0  0  0  0  0  0  0  0  0  0  0  0
   29.0549    3.0418   56.0415 C   0  0  2  0  0  0  0  0  0  0  0  0
   28.4431    3.9168   56.9808 O   0  0  0  0  0  0  0  0  0  0  0  0
   27.9505    2.1954   55.4491 C   0  0  0  0  0  0  0  0  0  0  0  0
   27.2399    1.5521   56.4895 O   0  0  0  0  0  0  0  0  0  0  0  0
   26.7159    6.8430   54.3121 C   0  0  2  0  0  0  0  0  0  0  0  0
   25.8401    7.6320   53.4450 N   0  3  0  0  0  0  0  0  0  0  0  0
   26.7740    7.4844   55.7381 C   0  0  0  0  0  0  0  0  0  0  0  0
   27.7334    6.6846   56.6401 C   0  0  2  0  0  0  0  0  0  0  0  0
   27.8414    7.3034   57.9654 N   0  3  0  0  0  0  0  0  0  0  0  0
   29.1317    6.6042   55.9967 C   0  0  2  0  0  0  0  0  0  0  0  0
   29.1010    6.0010   54.5788 C   0  0  2  0  0  0  0  0  0  0  0  0
   30.4376    6.1377   54.0589 O   0  0  0  0  0  0  0  0  0  0  0  0
   28.0995    6.7758   53.6853 C   0  0  1  0  0  0  0  0  0  0  0  0
   28.0155    6.1477   52.4357 O   0  0  0  0  0  0  0  0  0  0  0  0
   30.7895    7.0544   53.0260 C   0  0  1  0  0  0  0  0  0  0  0  0
   31.3478    8.3639   53.6890 C   0  0  2  0  0  0  0  0  0  0  0  0
   30.3495    9.3182   54.0079 O   0  0  0  0  0  0  0  0  0  0  0  0
   32.2999    8.7848   52.5783 C   0  0  2  0  0  0  0  0  0  0  0  0
   31.5671    9.2091   51.3897 O   0  0  0  0  0  0  0  0  0  0  0  0
   33.0135    7.4836   52.2390 C   0  0  2  0  0  0  0  0  0  0  0  0
   31.9129    6.5582   52.2481 O   0  0  0  0  0  0  0  0  0  0  0  0
   34.1512    7.0781   53.2324 C   0  0  0  0  0  0  0  0  0  0  0  0
   34.8054    5.8704   52.8234 O   0  0  0  0  0  0  0  0  0  0  0  0
   32.0625   10.4088   50.8008 C   0  0  2  0  0  0  0  0  0  0  0  0
   30.9580   11.3643   50.2339 C   0  0  2  0  0  0  0  0  0  0  0  0
   30.0986   10.7102   49.2010 N   0  3  0  0  0  0  0  0  0  0  0  0
   31.6913   12.6215   49.6583 C   0  0  1  0  0  0  0  0  0  0  0  0
   32.3697   13.2886   50.7907 O   0  0  0  0  0  0  0  0  0  0  0  0
   32.7716   12.2469   48.5702 C   0  0  2  0  0  0  0  0  0  0  0  0
   32.1016   11.6508   47.4474 O   0  0  0  0  0  0  0  0  0  0  0  0
   33.8120   11.2501   49.2305 C   0  0  1  0  0  0  0  0  0  0  0  0
   33.0604   10.0937   49.7316 O   0  0  0  0  0  0  0  0  0  0  0  0
   34.9338   10.7716   48.2810 C   0  0  0  0  0  0  0  0  0  0  0  0
   35.9648   11.8105   48.0122 N   0  3  0  0  0  0  0  0  0  0  0  0
  1  2  1  6  0  0  0
  1  3  1  0  0  0  0
  1 10  1  0  0  0  0
  3  4  1  6  0  0  0
  3  5  1  0  0  0  0
  5  6  1  1  0  0  0
  5  7  1  0  0  0  0
  7  8  1  6  0  0  0
  7  9  1  0  0  0  0
  9 10  1  0  0  0  0
  9 11  1  1  0  0  0
 11 12  1  0  0  0  0
 13 14  1  6  0  0  0
 13 15  1  0  0  0  0
 13 21  1  0  0  0  0
 15 16  1  0  0  0  0
 16 17  1  1  0  0  0
 16 18  1  0  0  0  0
 18  2  1  1  0  0  0
 18 19  1  0  0  0  0
 19 20  1  6  0  0  0
 19 21  1  0  0  0  0
 21 22  1  6  0  0  0
 23 20  1  1  0  0  0
 23 24  1  0  0  0  0
 23 29  1  0  0  0  0
 24 25  1  6  0  0  0
 24 26  1  0  0  0  0
 26 27  1  6  0  0  0
 26 28  1  0  0  0  0
 28 29  1  0  0  0  0
 28 30  1  1  0  0  0
 30 31  1  0  0  0  0
 32 27  1  6  0  0  0
 32 33  1  0  0  0  0
 32 40  1  0  0  0  0
 33 34  1  6  0  0  0
 33 35  1  0  0  0  0
 35 36  1  1  0  0  0
 35 37  1  0  0  0  0
 37 38  1  6  0  0  0
 37 39  1  0  0  0  0
 39 40  1  0  0  0  0
 39 41  1  6  0  0  0
 41 42  1  0  0  0  0
M  CHG  5   4   1  14   1  17   1  34   1  42   1
M  END
>  <CHROM.1>
179.30668484,19.83528966,-166.59097175,-170.84080688,93.93311408,65.29910160
52.20876529,-80.20486740,-52.45637268,-108.74527889,95.88457788,-60.26723863
-49.46317035,135.22945168,-142.23443909,-177.99964636,-167.89992492,-57.21131257
47.94559034,178.28526105,74.38849458,-8.49434206,30.67446730,7.20477210,53.58604805
1.91834466,-0.22417813,2.42759924

>  <Name>
1j7t

>  <RI>
0

>  <Rbt.Current_Directory>
/home/itssahil/PROJECTS/Mol_Feturizer/New_Systems/rnas/1j7t

>  <Rbt.Executable>
rbdock ($Id: //depot/dev/client3/rdock/2013.1/src/exe/rbdock.cxx#4 $)

>  <Rbt.Library>
libRbt.so (2013.1, Build901 2013/11/27)

>  <Rbt.Parameter_File>
/export/apps/rDock/src/rDock_2013.1_src/data/scripts/dock_solv.prm

>  <Rbt.Receptor>
prm/pocket_docking_6.prm

>  <SCORE>
-37.4447

>  <SCORE.INTER>
-39.2569

>  <SCORE.INTER.CONST>
1

>  <SCORE.INTER.POLAR>
-5.78165

>  <SCORE.INTER.ROT>
9

>  <SCORE.INTER.SOLV>
21.6513

>  <SCORE.INTER.VDW>
-23.7162

>  <SCORE.INTER.norm>
-0.934688

>  <SCORE.INTRA>
1.81215

>  <SCORE.INTRA.DIHEDRAL>
-5.58321

>  <SCORE.INTRA.DIHEDRAL.0>
46.2143

>  <SCORE.INTRA.POLAR>
1.13213

>  <SCORE.INTRA.POLAR.0>
-1.76436

>  <SCORE.INTRA.REPUL>
0

>  <SCORE.INTRA.REPUL.0>
0

>  <SCORE.INTRA.SOLV>
-5.92549

>  <SCORE.INTRA.SOLV.lig_0>
-148.643

>  <SCORE.INTRA.VDW>
3.71725

>  <SCORE.INTRA.VDW.0>
-4.83512

>  <SCORE.INTRA.norm>
0.0431464

>  <SCORE.RESTR>
0

>  <SCORE.RESTR.CAVITY>
0

>  <SCORE.RESTR.norm>
0

>  <SCORE.SYSTEM>
0

>  <SCORE.SYSTEM.CONST>
0

>  <SCORE.SYSTEM.DIHEDRAL>
0

>  <SCORE.SYSTEM.SOLV>
0

>  <SCORE.SYSTEM.norm>
0

>  <SCORE.heavy>
42

>  <SCORE.norm>
-0.891542

>  <RMSD>
9.860

$$$$
1j7t
 OpenBabel11021811393D
libRbt.so/2013.1/901 2013/11/27
 42 45  0  0  0  0  0  0  0  0999 V2000
   26.7917   10.5535   61.4630 C   0  0  2  0  0  0  0  0  0  0  0  0
   27.3339   11.8704   61.1905 O   0  0  0  0  0  0  0  0  0  0  0  0
   25.2492   10.6552   61.2882 C   0  0  2  0  0  0  0  0  0  0  0  0
   24.8110   11.2218   59.9803 N   0  3  0  0  0  0  0  0  0  0  0  0
   24.6991   11.5641   62.4090 C   0  0  1  0  0  0  0  0  0  0  0  0
   23.3075   11.6799   62.3117 O   0  0  0  0  0  0  0  0  0  0  0  0
   25.1041   11.0038   63.7930 C   0  0  2  0  0  0  0  0  0  0  0  0
   24.5917   11.8104   64.8351 O   0  0  0  0  0  0  0  0  0  0  0  0
   26.6130   10.9492   63.9038 C   0  0  2  0  0  0  0  0  0  0  0  0
   27.1351   10.1734   62.8325 O   0  0  0  0  0  0  0  0  0  0  0  0
   27.0902   10.3023   65.1848 C   0  0  0  0  0  0  0  0  0  0  0  0
   26.6381    8.9627   65.2332 O   0  0  0  0  0  0  0  0  0  0  0  0
   30.8824   13.7126   59.8257 C   0  0  2  0  0  0  0  0  0  0  0  0
   32.2975   13.9571   59.5444 N   0  3  0  0  0  0  0  0  0  0  0  0
   30.6504   13.6389   61.3714 C   0  0  0  0  0  0  0  0  0  0  0  0
   29.1705   13.3330   61.6710 C   0  0  2  0  0  0  0  0  0  0  0  0
   28.9454   13.2072   63.1148 N   0  3  0  0  0  0  0  0  0  0  0  0
   28.7402   12.0296   60.9699 C   0  0  2  0  0  0  0  0  0  0  0  0
   28.9832   12.0636   59.4484 C   0  0  2  0  0  0  0  0  0  0  0  0
   28.6840   10.7389   58.9676 O   0  0  0  0  0  0  0  0  0  0  0  0
   30.4612   12.4191   59.1467 C   0  0  1  0  0  0  0  0  0  0  0  0
   30.6318   12.5425   57.7615 O   0  0  0  0  0  0  0  0  0  0  0  0
   29.0865   10.2574   57.6880 C   0  0  1  0  0  0  0  0  0  0  0  0
   28.9802    8.6907   57.6876 C   0  0  2  0  0  0  0  0  0  0  0  0
   30.1484    8.0346   58.1501 O   0  0  0  0  0  0  0  0  0  0  0  0
   28.6803    8.4904   56.2086 C   0  0  2  0  0  0  0  0  0  0  0  0
   29.8401    8.8214   55.3870 O   0  0  0  0  0  0  0  0  0  0  0  0
   27.6108    9.5397   55.9395 C   0  0  2  0  0  0  0  0  0  0  0  0
   28.1457   10.6650   56.6574 O   0  0  0  0  0  0  0  0  0  0  0  0
   26.1722    9.1502   56.4131 C   0  0  0  0  0  0  0  0  0  0  0  0
   25.6482    8.0477   55.6622 O   0  0  0  0  0  0  0  0  0  0  0  0
   29.5821    8.8020   53.9854 C   0  0  2  0  0  0  0  0  0  0  0  0
   29.2012    7.3959   53.4092 C   0  0  2  0  0  0  0  0  0  0  0  0
   30.2508    6.3620   53.6599 N   0  3  0  0  0  0  0  0  0  0  0  0
   28.9354    7.5847   51.8784 C   0  0  1  0  0  0  0  0  0  0  0  0
   27.7736    8.4901   51.7448 O   0  0  0  0  0  0  0  0  0  0  0  0
   30.1658    8.2247   51.1248 C   0  0  2  0  0  0  0  0  0  0  0  0
   31.2758    7.3161   51.2082 O   0  0  0  0  0  0  0  0  0  0  0  0
   30.4933    9.6168   51.8081 C   0  0  1  0  0  0  0  0  0  0  0  0
   30.7461    9.3628   53.2311 O   0  0  0  0  0  0  0  0  0  0  0  0
   31.6948   10.3678   51.1907 C   0  0  0  0  0  0  0  0  0  0  0  0
   33.0019    9.9906   51.7939 N   0  3  0  0  0  0  0  0  0  0  0  0
  1  2  1  1  0  0  0
  1  3  1  0  0  0  0
  1 10  1  0  0  0  0
  3  4  1  6  0  0  0
  3  5  1  0  0  0  0
  5  6  1  1  0  0  0
  5  7  1  0  0  0  0
  7  8  1  1  0  0  0
  7  9  1  0  0  0  0
  9 10  1  0  0  0  0
  9 11  1  1  0  0  0
 11 12  1  0  0  0  0
 13 14  1  1  0  0  0
 13 15  1  0  0  0  0
 13 21  1  0  0  0  0
 15 16  1  0  0  0  0
 16 17  1  1  0  0  0
 16 18  1  0  0  0  0
 18  2  1  6  0  0  0
 18 19  1  0  0  0  0
 19 20  1  1  0  0  0
 19 21  1  0  0  0  0
 21 22  1  6  0  0  0
 23 20  1  1  0  0  0
 23 24  1  0  0  0  0
 23 29  1  0  0  0  0
 24 25  1  6  0  0  0
 24 26  1  0  0  0  0
 26 27  1  6  0  0  0
 26 28  1  0  0  0  0
 28 29  1  0  0  0  0
 28 30  1  1  0  0  0
 30 31  1  0  0  0  0
 32 27  1  1  0  0  0
 32 33  1  0  0  0  0
 32 40  1  0  0  0  0
 33 34  1  6  0  0  0
 33 35  1  0  0  0  0
 35 36  1  1  0  0  0
 35 37  1  0  0  0  0
 37 38  1  1  0  0  0
 37 39  1  0  0  0  0
 39 40  1  0  0  0  0
 39 41  1  6  0  0  0
 41 42  1  0  0  0  0
M  CHG  5   4   1  14   1  17   1  34   1  42   1
M  END
>  <CHROM.1>
-165.69351837,-140.46504046,-154.79561725,60.87774053,77.83412870,61.61553175
-68.52786916,-7.67391497,64.60880999,-164.11263885,162.95738062,59.58424495
63.63882791,-173.25023392,-64.31557334,-66.48465827,-61.18765098,-78.14833593
-58.55968069,159.92426028,-87.83999500,-87.81657585,28.48477808,10.30747632
58.11819699,1.94953351,0.53029940,1.10216565

>  <Name>
1j7t

>  <RI>
0

>  <Rbt.Current_Directory>
/home/itssahil/PROJECTS/Mol_Feturizer/New_Systems/rnas/1j7t

>  <Rbt.Executable>
rbdock ($Id: //depot/dev/client3/rdock/2013.1/src/exe/rbdock.cxx#4 $)

>  <Rbt.Library>
libRbt.so (2013.1, Build901 2013/11/27)

>  <Rbt.Parameter_File>
/export/apps/rDock/src/rDock_2013.1_src/data/scripts/dock_solv.prm

>  <Rbt.Receptor>
prm/pocket_docking_8.prm

>  <SCORE>
-60.2789

>  <SCORE.INTER>
-51.9322

>  <SCORE.INTER.CONST>
1

>  <SCORE.INTER.POLAR>
-8.9034

>  <SCORE.INTER.ROT>
9

>  <SCORE.INTER.SOLV>
34.2171

>  <SCORE.INTER.VDW>
-25.9492

>  <SCORE.INTER.norm>
-1.23648

>  <SCORE.INTRA>
-8.72122

>  <SCORE.INTRA.DIHEDRAL>
-22.9765

>  <SCORE.INTRA.DIHEDRAL.0>
46.2143

>  <SCORE.INTRA.POLAR>
0.819549

>  <SCORE.INTRA.POLAR.0>
-1.76436

>  <SCORE.INTRA.REPUL>
0

>  <SCORE.INTRA.REPUL.0>
0

>  <SCORE.INTRA.SOLV>
-1.41168

>  <SCORE.INTRA.SOLV.lig_0>
-148.643

>  <SCORE.INTRA.VDW>
0.686381

>  <SCORE.INTRA.VDW.0>
-4.83512

>  <SCORE.INTRA.norm>
-0.207648

>  <SCORE.RESTR>
0.374558

>  <SCORE.RESTR.CAVITY>
0.374558

>  <SCORE.RESTR.norm>
0.00891805

>  <SCORE.SYSTEM>
0

>  <SCORE.SYSTEM.CONST>
0

>  <SCORE.SYSTEM.DIHEDRAL>
0

>  <SCORE.SYSTEM.SOLV>
0

>  <SCORE.SYSTEM.norm>
0

>  <SCORE.heavy>
42

>  <SCORE.norm>
-1.43521

>  <RMSD>
9.951

$$$$
1j7t
 OpenBabel11021811393D
libRbt.so/2013.1/901 2013/11/27
 42 45  0  0  0  0  0  0  0  0999 V2000
   26.5782   10.3909   61.1844 C   0  0  2  0  0  0  0  0  0  0  0  0
   27.1917   11.6166   60.7113 O   0  0  0  0  0  0  0  0  0  0  0  0
   25.0384   10.6042   61.1242 C   0  0  2  0  0  0  0  0  0  0  0  0
   24.5276   11.0533   59.7972 N   0  3  0  0  0  0  0  0  0  0  0  0
   24.6626   11.6790   62.1675 C   0  0  1  0  0  0  0  0  0  0  0  0
   23.2807   11.9022   62.1700 O   0  0  0  0  0  0  0  0  0  0  0  0
   25.1478   11.2477   63.5718 C   0  0  2  0  0  0  0  0  0  0  0  0
   24.7945   12.2091   64.5465 O   0  0  0  0  0  0  0  0  0  0  0  0
   26.6520   11.0766   63.5657 C   0  0  2  0  0  0  0  0  0  0  0  0
   27.0145   10.1416   62.5576 O   0  0  0  0  0  0  0  0  0  0  0  0
   27.1929   10.5416   64.8727 C   0  0  0  0  0  0  0  0  0  0  0  0
   28.5839   10.3153   64.7498 O   0  0  0  0  0  0  0  0  0  0  0  0
   30.9413   13.4105   59.9562 C   0  0  2  0  0  0  0  0  0  0  0  0
   32.3867   13.5994   59.8275 N   0  3  0  0  0  0  0  0  0  0  0  0
   30.5750   13.0919   61.4437 C   0  0  0  0  0  0  0  0  0  0  0  0
   29.0601   12.8440   61.5748 C   0  0  2  0  0  0  0  0  0  0  0  0
   28.7063   12.4910   62.9536 N   0  3  0  0  0  0  0  0  0  0  0  0
   28.6183   11.7119   60.6267 C   0  0  2  0  0  0  0  0  0  0  0  0
   28.9914   11.9867   59.1568 C   0  0  2  0  0  0  0  0  0  0  0  0
   28.6602   10.7871   58.4309 O   0  0  0  0  0  0  0  0  0  0  0  0
   30.5073   12.2838   59.0321 C   0  0  1  0  0  0  0  0  0  0  0  0
   30.8018   12.6283   57.7064 O   0  0  0  0  0  0  0  0  0  0  0  0
   29.2587   10.4298   57.1878 C   0  0  1  0  0  0  0  0  0  0  0  0
   29.5877    8.8946   57.2147 C   0  0  2  0  0  0  0  0  0  0  0  0
   30.8600    8.5882   57.7591 O   0  0  0  0  0  0  0  0  0  0  0  0
   29.4475    8.6129   55.7253 C   0  0  2  0  0  0  0  0  0  0  0  0
   30.5204    9.2475   54.9664 O   0  0  0  0  0  0  0  0  0  0  0  0
   28.1496    9.3253   55.3713 C   0  0  2  0  0  0  0  0  0  0  0  0
   28.3084   10.5576   56.0952 O   0  0  0  0  0  0  0  0  0  0  0  0
   26.8469    8.5561   55.7676 C   0  0  0  0  0  0  0  0  0  0  0  0
   26.1781    8.0208   54.6186 O   0  0  0  0  0  0  0  0  0  0  0  0
   30.6206    8.7982   53.6175 C   0  0  2  0  0  0  0  0  0  0  0  0
   31.3266    7.4109   53.4403 C   0  0  2  0  0  0  0  0  0  0  0  0
   32.7135    7.3900   53.9966 N   0  3  0  0  0  0  0  0  0  0  0  0
   31.3170    7.0843   51.9096 C   0  0  1  0  0  0  0  0  0  0  0  0
   29.9019    6.9600   51.4979 O   0  0  0  0  0  0  0  0  0  0  0  0
   31.9987    8.2152   51.0450 C   0  0  2  0  0  0  0  0  0  0  0  0
   33.3868    8.2937   51.4079 O   0  0  0  0  0  0  0  0  0  0  0  0
   31.2396    9.5776   51.3275 C   0  0  1  0  0  0  0  0  0  0  0  0
   31.3018    9.8276   52.7721 O   0  0  0  0  0  0  0  0  0  0  0  0
   31.8028   10.7967   50.5623 C   0  0  0  0  0  0  0  0  0  0  0  0
   33.1844   11.1667   50.9733 N   0  3  0  0  0  0  0  0  0  0  0  0
  1  2  1  1  0  0  0
  1  3  1  0  0  0  0
  1 10  1  0  0  0  0
  3  4  1  6  0  0  0
  3  5  1  0  0  0  0
  5  6  1  1  0  0  0
  5  7  1  0  0  0  0
  7  8  1  1  0  0  0
  7  9  1  0  0  0  0
  9 10  1  0  0  0  0
  9 11  1  1  0  0  0
 11 12  1  0  0  0  0
 13 14  1  1  0  0  0
 13 15  1  0  0  0  0
 13 21  1  0  0  0  0
 15 16  1  0  0  0  0
 16 17  1  1  0  0  0
 16 18  1  0  0  0  0
 18  2  1  6  0  0  0
 18 19  1  0  0  0  0
 19 20  1  6  0  0  0
 19 21  1  0  0  0  0
 21 22  1  6  0  0  0
 23 20  1  1  0  0  0
 23 24  1  0  0  0  0
 23 29  1  0  0  0  0
 24 25  1  6  0  0  0
 24 26  1  0  0  0  0
 26 27  1  6  0  0  0
 26 28  1  0  0  0  0
 28 29  1  0  0  0  0
 28 30  1  1  0  0  0
 30 31  1  0  0  0  0
 32 27  1  1  0  0  0
 32 33  1  0  0  0  0
 32 40  1  0  0  0  0
 33 34  1  6  0  0  0
 33 35  1  0  0  0  0
 35 36  1  6  0  0  0
 35 37  1  0  0  0  0
 37 38  1  1  0  0  0
 37 39  1  0  0  0  0
 39 40  1  0  0  0  0
 39 41  1  6  0  0  0
 41 42  1  0  0  0  0
M  CHG  5   4   1  14   1  17   1  34   1  42   1
M  END
>  <CHROM.1>
-178.73834786,-118.34513782,-6.31914013,-80.11094592,60.47937546,175.55977439
-62.11680538,36.41299557,-43.96706785,-156.72593857,137.36417710,68.78155206
167.68463229,167.27414912,-78.54272931,-107.53610975,-52.40670484,-148.51591289
-66.97576092,74.97850382,-65.45177200,-77.01014321,29.01173616,10.36518211
57.82674173,2.02892642,0.38378692,1.12522538

>  <Name>
1j7t

>  <RI>
0

>  <Rbt.Current_Directory>
/home/itssahil/PROJECTS/Mol_Feturizer/New_Systems/rnas/1j7t

>  <Rbt.Executable>
rbdock ($Id: //depot/dev/client3/rdock/2013.1/src/exe/rbdock.cxx#4 $)

>  <Rbt.Library>
libRbt.so (2013.1, Build901 2013/11/27)

>  <Rbt.Parameter_File>
/export/apps/rDock/src/rDock_2013.1_src/data/scripts/dock_solv.prm

>  <Rbt.Receptor>
prm/blind_docking_100.prm

>  <SCORE>
-41.4095

>  <SCORE.INTER>
-69.6849

>  <SCORE.INTER.CONST>
1

>  <SCORE.INTER.POLAR>
-13.5626

>  <SCORE.INTER.ROT>
9

>  <SCORE.INTER.SOLV>
37.4487

>  <SCORE.INTER.VDW>
-23.3307

>  <SCORE.INTER.norm>
-1.65916

>  <SCORE.INTRA>
11.6007

>  <SCORE.INTRA.DIHEDRAL>
-10.8734

>  <SCORE.INTRA.DIHEDRAL.0>
46.2143

>  <SCORE.INTRA.POLAR>
0.722506

>  <SCORE.INTRA.POLAR.0>
-1.76436

>  <SCORE.INTRA.REPUL>
0

>  <SCORE.INTRA.REPUL.0>
0

>  <SCORE.INTRA.SOLV>
3.49447

>  <SCORE.INTRA.SOLV.lig_0>
-148.643

>  <SCORE.INTRA.VDW>
12.8337

>  <SCORE.INTRA.VDW.0>
-4.83512

>  <SCORE.INTRA.norm>
0.276208

>  <SCORE.RESTR>
16.6747

>  <SCORE.RESTR.CAVITY>
16.6747

>  <SCORE.RESTR.norm>
0.397016

>  <SCORE.SYSTEM>
0

>  <SCORE.SYSTEM.CONST>
0

>  <SCORE.SYSTEM.DIHEDRAL>
0

>  <SCORE.SYSTEM.SOLV>
0

>  <SCORE.SYSTEM.norm>
0

>  <SCORE.heavy>
42

>  <SCORE.norm>
-0.98594

>  <RMSD>
9.993

$$$$
1j7t
 OpenBabel11021811393D
libRbt.so/2013.1/901 2013/11/27
 42 45  0  0  0  0  0  0  0  0999 V2000
   28.6290   11.3812   61.5123 C   0  0  2  0  0  0  0  0  0  0  0  0
   28.7581   12.6290   62.2394 O   0  0  0  0  0  0  0  0  0  0  0  0
   27.1455   11.2757   61.0561 C   0  0  2  0  0  0  0  0  0  0  0  0
   26.6447   12.4603   60.3014 N   0  3  0  0  0  0  0  0  0  0  0  0
   26.2679   11.1080   62.3157 C   0  0  1  0  0  0  0  0  0  0  0  0
   24.9179   10.9911   61.9644 O   0  0  0  0  0  0  0  0  0  0  0  0
   26.7299    9.8720   63.1235 C   0  0  2  0  0  0  0  0  0  0  0  0
   25.9248    9.6876   64.2710 O   0  0  0  0  0  0  0  0  0  0  0  0
   28.1715   10.0473   63.5514 C   0  0  2  0  0  0  0  0  0  0  0  0
   28.9782   10.2752   62.4028 O   0  0  0  0  0  0  0  0  0  0  0  0
   28.7356    8.8287   64.2469 C   0  0  0  0  0  0  0  0  0  0  0  0
   28.2827    8.7988   65.5868 O   0  0  0  0  0  0  0  0  0  0  0  0
   30.2235   15.9736   60.1146 C   0  0  2  0  0  0  0  0  0  0  0  0
   31.1276   17.0073   59.6094 N   0  3  0  0  0  0  0  0  0  0  0  0
   30.0731   16.1079   61.6663 C   0  0  0  0  0  0  0  0  0  0  0  0
   29.1605   14.9913   62.2087 C   0  0  2  0  0  0  0  0  0  0  0  0
   29.0515   15.0696   63.6692 N   0  3  0  0  0  0  0  0  0  0  0  0
   29.7111   13.6081   61.8095 C   0  0  2  0  0  0  0  0  0  0  0  0
   29.8956   13.4573   60.2869 C   0  0  2  0  0  0  0  0  0  0  0  0
   30.5549   12.1918   60.0889 O   0  0  0  0  0  0  0  0  0  0  0  0
   30.7738   14.6083   59.7340 C   0  0  1  0  0  0  0  0  0  0  0  0
   30.8428   14.5058   58.3384 O   0  0  0  0  0  0  0  0  0  0  0  0
   30.5582   11.4928   58.8469 C   0  0  1  0  0  0  0  0  0  0  0  0
   29.3406   10.5013   58.8284 C   0  0  2  0  0  0  0  0  0  0  0  0
   29.6249    9.2304   59.3880 O   0  0  0  0  0  0  0  0  0  0  0  0
   29.0851   10.4939   57.3277 C   0  0  2  0  0  0  0  0  0  0  0  0
   30.1675    9.8251   56.6130 O   0  0  0  0  0  0  0  0  0  0  0  0
   29.1430   11.9728   56.9717 C   0  0  2  0  0  0  0  0  0  0  0  0
   30.2831   12.3942   57.7400 O   0  0  0  0  0  0  0  0  0  0  0  0
   27.8506   12.7838   57.3149 C   0  0  0  0  0  0  0  0  0  0  0  0
   28.0536   13.6534   58.4358 O   0  0  0  0  0  0  0  0  0  0  0  0
   29.7602    9.1975   55.3998 C   0  0  2  0  0  0  0  0  0  0  0  0
   30.0206    7.6537   55.3420 C   0  0  2  0  0  0  0  0  0  0  0  0
   31.4592    7.2999   55.5384 N   0  3  0  0  0  0  0  0  0  0  0  0
   29.4896    7.1512   53.9581 C   0  0  1  0  0  0  0  0  0  0  0  0
   28.0308    7.3941   53.9351 O   0  0  0  0  0  0  0  0  0  0  0  0
   30.1493    7.9132   52.7435 C   0  0  2  0  0  0  0  0  0  0  0  0
   31.5577    7.6284   52.7359 O   0  0  0  0  0  0  0  0  0  0  0  0
   29.8640    9.4623   52.9192 C   0  0  1  0  0  0  0  0  0  0  0  0
   30.4001    9.8659   54.2242 O   0  0  0  0  0  0  0  0  0  0  0  0
   30.4645   10.3553   51.8097 C   0  0  0  0  0  0  0  0  0  0  0  0
   31.9114   10.1057   51.5675 N   0  3  0  0  0  0  0  0  0  0  0  0
  1  2  1  1  0  0  0
  1  3  1  0  0  0  0
  1 10  1  0  0  0  0
  3  4  1  1  0  0  0
  3  5  1  0  0  0  0
  5  6  1  6  0  0  0
  5  7  1  0  0  0  0
  7  8  1  1  0  0  0
  7  9  1  0  0  0  0
  9 10  1  0  0  0  0
  9 11  1  6  0  0  0
 11 12  1  0  0  0  0
 13 14  1  1  0  0  0
 13 15  1  0  0  0  0
 13 21  1  0  0  0  0
 15 16  1  0  0  0  0
 16 17  1  1  0  0  0
 16 18  1  0  0  0  0
 18  2  1  6  0  0  0
 18 19  1  0  0  0  0
 19 20  1  1  0  0  0
 19 21  1  0  0  0  0
 21 22  1  6  0  0  0
 23 20  1  1  0  0  0
 23 24  1  0  0  0  0
 23 29  1  0  0  0  0
 24 25  1  6  0  0  0
 24 26  1  0  0  0  0
 26 27  1  6  0  0  0
 26 28  1  0  0  0  0
 28 29  1  0  0  0  0
 28 30  1  1  0  0  0
 30 31  1  0  0  0  0
 32 27  1  1  0  0  0
 32 33  1  0  0  0  0
 32 40  1  0  0  0  0
 33 34  1  6  0  0  0
 33 35  1  0  0  0  0
 35 36  1  1  0  0  0
 35 37  1  0  0  0  0
 37 38  1  1  0  0  0
 37 39  1  0  0  0  0
 39 40  1  0  0  0  0
 39 41  1  6  0  0  0
 41 42  1  0  0  0  0
M  CHG  5   4   1  14   1  17   1  34   1  42   1
M  END
>  <CHROM.1>
-122.69660081,150.68712298,154.98528245,164.04573987,175.22878553,-78.68736590
175.30023603,-170.15093206,74.82309644,160.74153780,-91.87574828,153.97914029
-173.90656065,150.61902044,-120.63847244,107.71050523,54.94567528,104.33715702
-178.94340651,-71.59767976,-51.28336484,-149.26437505,29.24031366,11.20956381
58.85481870,2.11277346,1.14177785,0.70745662

>  <Name>
1j7t

>  <RI>
0

>  <Rbt.Current_Directory>
/home/itssahil/PROJECTS/Mol_Feturizer/New_Systems/rnas/1j7t

>  <Rbt.Executable>
rbdock ($Id: //depot/dev/client3/rdock/2013.1/src/exe/rbdock.cxx#4 $)

>  <Rbt.Library>
libRbt.so (2013.1, Build901 2013/11/27)

>  <Rbt.Parameter_File>
/export/apps/rDock/src/rDock_2013.1_src/data/scripts/dock_solv.prm

>  <Rbt.Receptor>
prm/blind_docking_100.prm

>  <SCORE>
0.566102

>  <SCORE.INTER>
-23.7467

>  <SCORE.INTER.CONST>
1

>  <SCORE.INTER.POLAR>
-4.37176

>  <SCORE.INTER.ROT>
9

>  <SCORE.INTER.SOLV>
20.4786

>  <SCORE.INTER.VDW>
-17.6848

>  <SCORE.INTER.norm>
-0.565398

>  <SCORE.INTRA>
6.70712

>  <SCORE.INTRA.DIHEDRAL>
-0.80491

>  <SCORE.INTRA.DIHEDRAL.0>
46.2143

>  <SCORE.INTRA.POLAR>
-0.511213

>  <SCORE.INTRA.POLAR.0>
-1.76436

>  <SCORE.INTRA.REPUL>
0

>  <SCORE.INTRA.REPUL.0>
0

>  <SCORE.INTRA.SOLV>
5.88724

>  <SCORE.INTRA.SOLV.lig_0>
-148.643

>  <SCORE.INTRA.VDW>
5.90408

>  <SCORE.INTRA.VDW.0>
-4.83512

>  <SCORE.INTRA.norm>
0.159693

>  <SCORE.RESTR>
17.6057

>  <SCORE.RESTR.CAVITY>
17.6057

>  <SCORE.RESTR.norm>
0.419183

>  <SCORE.SYSTEM>
0

>  <SCORE.SYSTEM.CONST>
0

>  <SCORE.SYSTEM.DIHEDRAL>
0

>  <SCORE.SYSTEM.SOLV>
0

>  <SCORE.SYSTEM.norm>
0

>  <SCORE.heavy>
42

>  <SCORE.norm>
0.0134786

>  <RMSD>
10.054

$$$$
1j7t
 OpenBabel11021811393D
libRbt.so/2013.1/901 2013/11/27
 42 45  0  0  0  0  0  0  0  0999 V2000
   34.3757    7.4283   52.9215 C   0  0  2  0  0  0  0  0  0  0  0  0
   32.9602    7.1484   53.0651 O   0  0  0  0  0  0  0  0  0  0  0  0
   34.7957    6.9211   51.5121 C   0  0  2  0  0  0  0  0  0  0  0  0
   33.9663    7.4506   50.3917 N   0  3  0  0  0  0  0  0  0  0  0  0
   34.6802    5.3811   51.5033 C   0  0  1  0  0  0  0  0  0  0  0  0
   35.0627    4.8648   50.2597 O   0  0  0  0  0  0  0  0  0  0  0  0
   35.5467    4.7777   52.6341 C   0  0  2  0  0  0  0  0  0  0  0  0
   35.4720    3.3657   52.6301 O   0  0  0  0  0  0  0  0  0  0  0  0
   35.0744    5.2960   53.9758 C   0  0  2  0  0  0  0  0  0  0  0  0
   35.1082    6.7176   53.9686 O   0  0  0  0  0  0  0  0  0  0  0  0
   35.9461    4.8440   55.1260 C   0  0  0  0  0  0  0  0  0  0  0  0
   35.8938    3.4342   55.2312 O   0  0  0  0  0  0  0  0  0  0  0  0
   29.4569    8.5069   54.9962 C   0  0  2  0  0  0  0  0  0  0  0  0
   28.5462    9.3149   55.8081 N   0  3  0  0  0  0  0  0  0  0  0  0
   30.6037    7.9322   55.8922 C   0  0  0  0  0  0  0  0  0  0  0  0
   31.5919    7.1211   55.0323 C   0  0  2  0  0  0  0  0  0  0  0  0
   32.7032    6.6195   55.8474 N   0  3  0  0  0  0  0  0  0  0  0  0
   32.1476    7.9926   53.8889 C   0  0  2  0  0  0  0  0  0  0  0  0
   31.0376    8.5949   53.0056 C   0  0  2  0  0  0  0  0  0  0  0  0
   31.6975    9.4958   52.0955 O   0  0  0  0  0  0  0  0  0  0  0  0
   30.0169    9.3701   53.8769 C   0  0  1  0  0  0  0  0  0  0  0  0
   28.9672    9.8208   53.0657 O   0  0  0  0  0  0  0  0  0  0  0  0
   31.2613    9.7210   50.7576 C   0  0  1  0  0  0  0  0  0  0  0  0
   30.4757   11.0799   50.7102 C   0  0  2  0  0  0  0  0  0  0  0  0
   29.0928   10.9553   50.9949 O   0  0  0  0  0  0  0  0  0  0  0  0
   30.7979   11.4709   49.2748 C   0  0  2  0  0  0  0  0  0  0  0  0
   30.1348   10.5824   48.3258 O   0  0  0  0  0  0  0  0  0  0  0  0
   32.2943   11.2068   49.1844 C   0  0  2  0  0  0  0  0  0  0  0  0
   32.3912    9.9473   49.8713 O   0  0  0  0  0  0  0  0  0  0  0  0
   33.1979   12.3129   49.8215 C   0  0  0  0  0  0  0  0  0  0  0  0
   34.0138   12.9613   48.8377 O   0  0  0  0  0  0  0  0  0  0  0  0
   30.0479   11.1072   47.0035 C   0  0  2  0  0  0  0  0  0  0  0  0
   30.4683   12.6102   46.8668 C   0  0  2  0  0  0  0  0  0  0  0  0
   29.6622   13.5199   47.7362 N   0  3  0  0  0  0  0  0  0  0  0  0
   30.3293   12.9890   45.3546 C   0  0  1  0  0  0  0  0  0  0  0  0
   31.2891   12.1508   44.6038 O   0  0  0  0  0  0  0  0  0  0  0  0
   28.8778   12.7224   44.7946 C   0  0  2  0  0  0  0  0  0  0  0  0
   27.9562   13.5800   45.4873 O   0  0  0  0  0  0  0  0  0  0  0  0
   28.5364   11.1908   45.0178 C   0  0  1  0  0  0  0  0  0  0  0  0
   28.6709   10.9118   46.4522 O   0  0  0  0  0  0  0  0  0  0  0  0
   27.1302   10.7697   44.5340 C   0  0  0  0  0  0  0  0  0  0  0  0
   27.1493    9.9896   43.2669 N   0  3  0  0  0  0  0  0  0  0  0  0
  1  2  1  1  0  0  0
  1  3  1  0  0  0  0
  1 10  1  0  0  0  0
  3  4  1  6  0  0  0
  3  5  1  0  0  0  0
  5  6  1  6  0  0  0
  5  7  1  0  0  0  0
  7  8  1  1  0  0  0
  7  9  1  0  0  0  0
  9 10  1  0  0  0  0
  9 11  1  1  0  0  0
 11 12  1  0  0  0  0
 13 14  1  1  0  0  0
 13 15  1  0  0  0  0
 13 21  1  0  0  0  0
 15 16  1  0  0  0  0
 16 17  1  1  0  0  0
 16 18  1  0  0  0  0
 18  2  1  6  0  0  0
 18 19  1  0  0  0  0
 19 20  1  6  0  0  0
 19 21  1  0  0  0  0
 21 22  1  6  0  0  0
 23 20  1  1  0  0  0
 23 24  1  0  0  0  0
 23 29  1  0  0  0  0
 24 25  1  6  0  0  0
 24 26  1  0  0  0  0
 26 27  1  6  0  0  0
 26 28  1  0  0  0  0
 28 29  1  0  0  0  0
 28 30  1  1  0  0  0
 30 31  1  0  0  0  0
 32 27  1  1  0  0  0
 32 33  1  0  0  0  0
 32 40  1  0  0  0  0
 33 34  1  1  0  0  0
 33 35  1  0  0  0  0
 35 36  1  6  0  0  0
 35 37  1  0  0  0  0
 37 38  1  1  0  0  0
 37 39  1  0  0  0  0
 39 40  1  0  0  0  0
 39 41  1  1  0  0  0
 41 42  1  0  0  0  0
M  CHG  5   4   1  14   1  17   1  34   1  42   1
M  END
>  <CHROM.1>
-150.41738720,-117.80895234,159.67354152,49.07844276,-55.43762751,-62.96137357
-62.22035014,-101.90392346,125.03747591,146.41454604,101.34039649,-57.40687722
-60.30271753,161.88911910,-9.20150084,-115.76829063,58.86846138,157.65465435
55.50521885,75.13202958,105.19434656,68.68965996,31.64129269,9.13898511,50.58819860
-1.00538700,0.65874230,-1.29081397

>  <Name>
1j7t

>  <RI>
0

>  <Rbt.Current_Directory>
/home/itssahil/PROJECTS/Mol_Feturizer/New_Systems/rnas/1j7t

>  <Rbt.Executable>
rbdock ($Id: //depot/dev/client3/rdock/2013.1/src/exe/rbdock.cxx#4 $)

>  <Rbt.Library>
libRbt.so (2013.1, Build901 2013/11/27)

>  <Rbt.Parameter_File>
/export/apps/rDock/src/rDock_2013.1_src/data/scripts/dock_solv.prm

>  <Rbt.Receptor>
prm/blind_docking_80.prm

>  <SCORE>
16.5957

>  <SCORE.INTER>
-16.077

>  <SCORE.INTER.CONST>
1

>  <SCORE.INTER.POLAR>
-3.57514

>  <SCORE.INTER.ROT>
9

>  <SCORE.INTER.SOLV>
34.7798

>  <SCORE.INTER.VDW>
-19.9942

>  <SCORE.INTER.norm>
-0.382787

>  <SCORE.INTRA>
7.35715

>  <SCORE.INTRA.DIHEDRAL>
3.08785

>  <SCORE.INTRA.DIHEDRAL.0>
46.2143

>  <SCORE.INTRA.POLAR>
-0.251966

>  <SCORE.INTRA.POLAR.0>
-1.76436

>  <SCORE.INTRA.REPUL>
0

>  <SCORE.INTRA.REPUL.0>
0

>  <SCORE.INTRA.SOLV>
1.84052

>  <SCORE.INTRA.SOLV.lig_0>
-148.643

>  <SCORE.INTRA.VDW>
5.74965

>  <SCORE.INTRA.VDW.0>
-4.83512

>  <SCORE.INTRA.norm>
0.17517

>  <SCORE.RESTR>
25.3156

>  <SCORE.RESTR.CAVITY>
25.3156

>  <SCORE.RESTR.norm>
0.602753

>  <SCORE.SYSTEM>
0

>  <SCORE.SYSTEM.CONST>
0

>  <SCORE.SYSTEM.DIHEDRAL>
0

>  <SCORE.SYSTEM.SOLV>
0

>  <SCORE.SYSTEM.norm>
0

>  <SCORE.heavy>
42

>  <SCORE.norm>
0.395137

>  <RMSD>
10.213

$$$$
1j7t
 OpenBabel11021811393D
libRbt.so/2013.1/901 2013/11/27
 42 45  0  0  0  0  0  0  0  0999 V2000
   34.4012    7.1501   51.9139 C   0  0  2  0  0  0  0  0  0  0  0  0
   33.9636    6.9183   53.2767 O   0  0  0  0  0  0  0  0  0  0  0  0
   34.0980    5.8501   51.1150 C   0  0  2  0  0  0  0  0  0  0  0  0
   32.6876    5.3766   51.2162 N   0  3  0  0  0  0  0  0  0  0  0  0
   35.0156    4.7313   51.6546 C   0  0  1  0  0  0  0  0  0  0  0  0
   34.7977    3.5362   50.9591 O   0  0  0  0  0  0  0  0  0  0  0  0
   36.4975    5.1625   51.5468 C   0  0  2  0  0  0  0  0  0  0  0  0
   37.3567    4.1424   52.0163 O   0  0  0  0  0  0  0  0  0  0  0  0
   36.7277    6.4187   52.3598 C   0  0  2  0  0  0  0  0  0  0  0  0
   35.8356    7.4341   51.9183 O   0  0  0  0  0  0  0  0  0  0  0  0
   38.1273    6.9721   52.2120 C   0  0  0  0  0  0  0  0  0  0  0  0
   38.3318    7.9976   53.1648 O   0  0  0  0  0  0  0  0  0  0  0  0
   29.9957    7.8868   54.3565 C   0  0  2  0  0  0  0  0  0  0  0  0
   28.8406    8.6169   54.8799 N   0  3  0  0  0  0  0  0  0  0  0  0
   31.0126    7.5986   55.5103 C   0  0  0  0  0  0  0  0  0  0  0  0
   32.2529    6.8730   54.9544 C   0  0  2  0  0  0  0  0  0  0  0  0
   33.2411    6.6425   56.0133 N   0  3  0  0  0  0  0  0  0  0  0  0
   32.8963    7.7008   53.8245 C   0  0  2  0  0  0  0  0  0  0  0  0
   31.9088    8.0233   52.6861 C   0  0  2  0  0  0  0  0  0  0  0  0
   32.6035    8.9206   51.7986 O   0  0  0  0  0  0  0  0  0  0  0  0
   30.6397    8.7097   53.2520 C   0  0  1  0  0  0  0  0  0  0  0  0
   29.7176    8.9005   52.2145 O   0  0  0  0  0  0  0  0  0  0  0  0
   31.9420    9.7855   50.8790 C   0  0  1  0  0  0  0  0  0  0  0  0
   31.6862   11.1644   51.5856 C   0  0  2  0  0  0  0  0  0  0  0  0
   30.4676   11.2240   52.3071 O   0  0  0  0  0  0  0  0  0  0  0  0
   31.7416   12.0570   50.3538 C   0  0  2  0  0  0  0  0  0  0  0  0
   30.5934   11.8247   49.4835 O   0  0  0  0  0  0  0  0  0  0  0  0
   32.9795   11.5487   49.6281 C   0  0  2  0  0  0  0  0  0  0  0  0
   32.8120   10.1271   49.7656 O   0  0  0  0  0  0  0  0  0  0  0  0
   34.3392   12.0554   50.2114 C   0  0  0  0  0  0  0  0  0  0  0  0
   34.4762   13.4757   50.0774 O   0  0  0  0  0  0  0  0  0  0  0  0
   30.6053   12.6011   48.2883 C   0  0  2  0  0  0  0  0  0  0  0  0
   29.4432   12.2805   47.2878 C   0  0  2  0  0  0  0  0  0  0  0  0
   29.4231   10.8484   46.8610 N   0  3  0  0  0  0  0  0  0  0  0  0
   29.6138   13.2417   46.0644 C   0  0  1  0  0  0  0  0  0  0  0  0
   29.4483   14.6228   46.5672 O   0  0  0  0  0  0  0  0  0  0  0  0
   31.0346   13.1154   45.3886 C   0  0  2  0  0  0  0  0  0  0  0  0
   31.1688   11.7895   44.8513 O   0  0  0  0  0  0  0  0  0  0  0  0
   32.1335   13.4170   46.4902 C   0  0  1  0  0  0  0  0  0  0  0  0
   31.9244   12.4732   47.5942 O   0  0  0  0  0  0  0  0  0  0  0  0
   33.5914   13.3162   45.9867 C   0  0  0  0  0  0  0  0  0  0  0  0
   34.1112   14.5904   45.4201 N   0  3  0  0  0  0  0  0  0  0  0  0
  1  2  1  1  0  0  0
  1  3  1  0  0  0  0
  1 10  1  0  0  0  0
  3  4  1  1  0  0  0
  3  5  1  0  0  0  0
  5  6  1  6  0  0  0
  5  7  1  0  0  0  0
  7  8  1  1  0  0  0
  7  9  1  0  0  0  0
  9 10  1  0  0  0  0
  9 11  1  6  0  0  0
 11 12  1  0  0  0  0
 13 14  1  1  0  0  0
 13 15  1  0  0  0  0
 13 21  1  0  0  0  0
 15 16  1  0  0  0  0
 16 17  1  1  0  0  0
 16 18  1  0  0  0  0
 18  2  1  6  0  0  0
 18 19  1  0  0  0  0
 19 20  1  6  0  0  0
 19 21  1  0  0  0  0
 21 22  1  6  0  0  0
 23 20  1  1  0  0  0
 23 24  1  0  0  0  0
 23 29  1  0  0  0  0
 24 25  1  6  0  0  0
 24 26  1  0  0  0  0
 26 27  1  6  0  0  0
 26 28  1  0  0  0  0
 28 29  1  0  0  0  0
 28 30  1  1  0  0  0
 30 31  1  0  0  0  0
 32 27  1  1  0  0  0
 32 33  1  0  0  0  0
 32 40  1  0  0  0  0
 33 34  1  6  0  0  0
 33 35  1  0  0  0  0
 35 36  1  1  0  0  0
 35 37  1  0  0  0  0
 37 38  1  1  0  0  0
 37 39  1  0  0  0  0
 39 40  1  0  0  0  0
 39 41  1  6  0  0  0
 41 42  1  0  0  0  0
M  CHG  5   4   1  14   1  17   1  34   1  42   1
M  END
>  <CHROM.1>
-115.95464517,155.32412400,77.14625503,64.37684519,62.08965578,-170.11698917
-176.89402650,-58.62044619,-114.34668960,-159.03334093,91.13173860,-61.59270417
-42.28165315,-178.15975632,175.23184885,-64.40293537,-61.36041939,136.12462577
-176.90204743,172.97241820,88.31005041,174.77792542,32.73384657,9.45444814
50.64569349,-1.19549450,0.41385493,-0.88904209

>  <Name>
1j7t

>  <RI>
0

>  <Rbt.Current_Directory>
/home/itssahil/PROJECTS/Mol_Feturizer/New_Systems/rnas/1j7t

>  <Rbt.Executable>
rbdock ($Id: //depot/dev/client3/rdock/2013.1/src/exe/rbdock.cxx#4 $)

>  <Rbt.Library>
libRbt.so (2013.1, Build901 2013/11/27)

>  <Rbt.Parameter_File>
/export/apps/rDock/src/rDock_2013.1_src/data/scripts/dock_solv.prm

>  <Rbt.Receptor>
prm/blind_docking_80.prm

>  <SCORE>
0.562906

>  <SCORE.INTER>
-28.2994

>  <SCORE.INTER.CONST>
1

>  <SCORE.INTER.POLAR>
-3.46998

>  <SCORE.INTER.ROT>
9

>  <SCORE.INTER.SOLV>
27.5132

>  <SCORE.INTER.VDW>
-26.0707

>  <SCORE.INTER.norm>
-0.673795

>  <SCORE.INTRA>
-0.121619

>  <SCORE.INTRA.DIHEDRAL>
-18.0489

>  <SCORE.INTRA.DIHEDRAL.0>
46.2143

>  <SCORE.INTRA.POLAR>
0.804719

>  <SCORE.INTRA.POLAR.0>
-1.76436

>  <SCORE.INTRA.REPUL>
0.140257

>  <SCORE.INTRA.REPUL.0>
0

>  <SCORE.INTRA.SOLV>
-3.66077

>  <SCORE.INTRA.SOLV.lig_0>
-148.643

>  <SCORE.INTRA.VDW>
7.29587

>  <SCORE.INTRA.VDW.0>
-4.83512

>  <SCORE.INTRA.norm>
-0.00289569

>  <SCORE.RESTR>
28.9839

>  <SCORE.RESTR.CAVITY>
28.9839

>  <SCORE.RESTR.norm>
0.690093

>  <SCORE.SYSTEM>
0

>  <SCORE.SYSTEM.CONST>
0

>  <SCORE.SYSTEM.DIHEDRAL>
0

>  <SCORE.SYSTEM.SOLV>
0

>  <SCORE.SYSTEM.norm>
0

>  <SCORE.heavy>
42

>  <SCORE.norm>
0.0134025

>  <RMSD>
10.213

$$$$
1j7t
 OpenBabel11021811393D
libRbt.so/2013.1/901 2013/11/27
 42 45  0  0  0  0  0  0  0  0999 V2000
   33.3084    9.0133   52.1742 C   0  0  2  0  0  0  0  0  0  0  0  0
   32.9712    9.0240   50.7640 O   0  0  0  0  0  0  0  0  0  0  0  0
   33.9379    7.6234   52.4774 C   0  0  2  0  0  0  0  0  0  0  0  0
   35.0767    7.2529   51.5889 N   0  3  0  0  0  0  0  0  0  0  0  0
   32.8372    6.5528   52.3119 C   0  0  1  0  0  0  0  0  0  0  0  0
   33.3437    5.2776   52.5891 O   0  0  0  0  0  0  0  0  0  0  0  0
   31.6392    6.8764   53.2358 C   0  0  2  0  0  0  0  0  0  0  0  0
   30.6280    5.8956   53.1154 O   0  0  0  0  0  0  0  0  0  0  0  0
   31.0635    8.2296   52.8760 C   0  0  2  0  0  0  0  0  0  0  0  0
   32.0883    9.2123   52.9551 O   0  0  0  0  0  0  0  0  0  0  0  0
   29.9606    8.6722   53.8113 C   0  0  0  0  0  0  0  0  0  0  0  0
   28.9554    9.3392   53.0725 O   0  0  0  0  0  0  0  0  0  0  0  0
   34.1194   12.9694   49.7825 C   0  0  2  0  0  0  0  0  0  0  0  0
   34.1791   14.2701   49.1147 N   0  3  0  0  0  0  0  0  0  0  0  0
   34.4880   11.8330   48.7719 C   0  0  0  0  0  0  0  0  0  0  0  0
   34.3788   10.4580   49.4581 C   0  0  2  0  0  0  0  0  0  0  0  0
   34.6689    9.3771   48.5102 N   0  3  0  0  0  0  0  0  0  0  0  0
   32.9663   10.2614   50.0426 C   0  0  2  0  0  0  0  0  0  0  0  0
   32.5655   11.3823   51.0215 C   0  0  2  0  0  0  0  0  0  0  0  0
   31.1838   11.1458   51.3537 O   0  0  0  0  0  0  0  0  0  0  0  0
   32.7218   12.7685   50.3464 C   0  0  1  0  0  0  0  0  0  0  0  0
   32.4492   13.7718   51.2856 O   0  0  0  0  0  0  0  0  0  0  0  0
   30.1117   11.3259   50.4322 C   0  0  1  0  0  0  0  0  0  0  0  0
   30.4881   10.6165   49.0828 C   0  0  2  0  0  0  0  0  0  0  0  0
   31.2163   11.4367   48.1851 O   0  0  0  0  0  0  0  0  0  0  0  0
   29.0820   10.2593   48.6218 C   0  0  2  0  0  0  0  0  0  0  0  0
   28.3278   11.4546   48.2584 O   0  0  0  0  0  0  0  0  0  0  0  0
   28.4529    9.6838   49.8829 C   0  0  2  0  0  0  0  0  0  0  0  0
   28.9211   10.6169   50.8717 O   0  0  0  0  0  0  0  0  0  0  0  0
   28.8575    8.2081   50.2061 C   0  0  0  0  0  0  0  0  0  0  0  0
   28.0159    7.6377   51.2162 O   0  0  0  0  0  0  0  0  0  0  0  0
   28.7357   12.0454   47.0270 C   0  0  2  0  0  0  0  0  0  0  0  0
   28.9351   13.5984   47.0804 C   0  0  2  0  0  0  0  0  0  0  0  0
   27.7037   14.3274   47.5112 N   0  3  0  0  0  0  0  0  0  0  0  0
   29.4006   14.0496   45.6558 C   0  0  1  0  0  0  0  0  0  0  0  0
   30.7068   13.4055   45.3982 O   0  0  0  0  0  0  0  0  0  0  0  0
   28.3901   13.6166   44.5233 C   0  0  2  0  0  0  0  0  0  0  0  0
   27.1397   14.2891   44.7450 O   0  0  0  0  0  0  0  0  0  0  0  0
   28.2283   12.0411   44.5822 C   0  0  1  0  0  0  0  0  0  0  0  0
   27.7767   11.6927   45.9342 O   0  0  0  0  0  0  0  0  0  0  0  0
   27.2494   11.4569   43.5384 C   0  0  0  0  0  0  0  0  0  0  0  0
   27.7052   11.6380   42.1334 N   0  3  0  0  0  0  0  0  0  0  0  0
  1  2  1  6  0  0  0
  1  3  1  0  0  0  0
  1 10  1  0  0  0  0
  3  4  1  6  0  0  0
  3  5  1  0  0  0  0
  5  6  1  1  0  0  0
  5  7  1  0  0  0  0
  7  8  1  6  0  0  0
  7  9  1  0  0  0  0
  9 10  1  0  0  0  0
  9 11  1  1  0  0  0
 11 12  1  0  0  0  0
 13 14  1  6  0  0  0
 13 15  1  0  0  0  0
 13 21  1  0  0  0  0
 15 16  1  0  0  0  0
 16 17  1  6  0  0  0
 16 18  1  0  0  0  0
 18  2  1  1  0  0  0
 18 19  1  0  0  0  0
 19 20  1  6  0  0  0
 19 21  1  0  0  0  0
 21 22  1  1  0  0  0
 23 20  1  1  0  0  0
 23 24  1  0  0  0  0
 23 29  1  0  0  0  0
 24 25  1  6  0  0  0
 24 26  1  0  0  0  0
 26 27  1  1  0  0  0
 26 28  1  0  0  0  0
 28 29  1  0  0  0  0
 28 30  1  1  0  0  0
 30 31  1  0  0  0  0
 32 27  1  1  0  0  0
 32 33  1  0  0  0  0
 32 40  1  0  0  0  0
 33 34  1  6  0  0  0
 33 35  1  0  0  0  0
 35 36  1  6  0  0  0
 35 37  1  0  0  0  0
 37 38  1  1  0  0  0
 37 39  1  0  0  0  0
 39 40  1  0  0  0  0
 39 41  1  6  0  0  0
 41 42  1  0  0  0  0
M  CHG  5   4   1  14   1  17   1  34   1  42   1
M  END
>  <CHROM.1>
-151.12747342,90.58474712,-167.89956261,-168.45821123,70.75747436,-142.17634109
-173.56774109,71.44331889,-154.47584893,-69.88457025,47.96474520,68.83517190
173.70454493,73.17808437,-133.16224533,-167.05945692,-51.19778321,174.90241919
-50.97053781,-177.15133150,65.02530744,-176.04737151,30.81600927,10.58296320
49.40389675,-1.11144945,-0.33556100,-0.79039869

>  <Name>
1j7t

>  <RI>
0

>  <Rbt.Current_Directory>
/home/itssahil/PROJECTS/Mol_Feturizer/New_Systems/rnas/1j7t

>  <Rbt.Executable>
rbdock ($Id: //depot/dev/client3/rdock/2013.1/src/exe/rbdock.cxx#4 $)

>  <Rbt.Library>
libRbt.so (2013.1, Build901 2013/11/27)

>  <Rbt.Parameter_File>
/export/apps/rDock/src/rDock_2013.1_src/data/scripts/dock_solv.prm

>  <Rbt.Receptor>
prm/blind_docking_80.prm

>  <SCORE>
5.56845

>  <SCORE.INTER>
-7.07121

>  <SCORE.INTER.CONST>
1

>  <SCORE.INTER.POLAR>
-2.50479

>  <SCORE.INTER.ROT>
9

>  <SCORE.INTER.SOLV>
36.3242

>  <SCORE.INTER.VDW>
-18.0729

>  <SCORE.INTER.norm>
-0.168362

>  <SCORE.INTRA>
-6.3072

>  <SCORE.INTRA.DIHEDRAL>
-20.9535

>  <SCORE.INTRA.DIHEDRAL.0>
46.2143

>  <SCORE.INTRA.POLAR>
0.110164

>  <SCORE.INTRA.POLAR.0>
-1.76436

>  <SCORE.INTRA.REPUL>
0.514852

>  <SCORE.INTRA.REPUL.0>
0

>  <SCORE.INTRA.SOLV>
1.12206

>  <SCORE.INTRA.SOLV.lig_0>
-148.643

>  <SCORE.INTRA.VDW>
0.659684

>  <SCORE.INTRA.VDW.0>
-4.83512

>  <SCORE.INTRA.norm>
-0.150171

>  <SCORE.RESTR>
18.9469

>  <SCORE.RESTR.CAVITY>
18.9469

>  <SCORE.RESTR.norm>
0.451116

>  <SCORE.SYSTEM>
0

>  <SCORE.SYSTEM.CONST>
0

>  <SCORE.SYSTEM.DIHEDRAL>
0

>  <SCORE.SYSTEM.SOLV>
0

>  <SCORE.SYSTEM.norm>
0

>  <SCORE.heavy>
42

>  <SCORE.norm>
0.132582

>  <RMSD>
10.215

$$$$
1j7t
 OpenBabel11021811393D
libRbt.so/2013.1/901 2013/11/27
 42 45  0  0  0  0  0  0  0  0999 V2000
   26.4850   10.9785   61.4570 C   0  0  2  0  0  0  0  0  0  0  0  0
   27.2029   12.1617   61.8895 O   0  0  0  0  0  0  0  0  0  0  0  0
   25.0168   11.1371   61.9462 C   0  0  2  0  0  0  0  0  0  0  0  0
   24.3633   12.4138   61.5380 N   0  3  0  0  0  0  0  0  0  0  0  0
   25.0168   11.0745   63.4892 C   0  0  1  0  0  0  0  0  0  0  0  0
   23.7144   11.1961   63.9878 O   0  0  0  0  0  0  0  0  0  0  0  0
   25.6620    9.7518   63.9665 C   0  0  2  0  0  0  0  0  0  0  0  0
   25.6526    9.6646   65.3777 O   0  0  0  0  0  0  0  0  0  0  0  0
   27.0911    9.6700   63.4736 C   0  0  2  0  0  0  0  0  0  0  0  0
   27.1080    9.7999   62.0577 O   0  0  0  0  0  0  0  0  0  0  0  0
   27.7559    8.3513   63.7995 C   0  0  0  0  0  0  0  0  0  0  0  0
   27.7631    8.1608   65.2012 O   0  0  0  0  0  0  0  0  0  0  0  0
   29.9026   14.7626   59.9412 C   0  0  2  0  0  0  0  0  0  0  0  0
   31.0832   15.2576   59.2323 N   0  3  0  0  0  0  0  0  0  0  0  0
   30.3172   14.2018   61.3420 C   0  0  0  0  0  0  0  0  0  0  0  0
   29.0843   13.6349   62.0717 C   0  0  2  0  0  0  0  0  0  0  0  0
   29.4636   13.0561   63.3648 N   0  3  0  0  0  0  0  0  0  0  0  0
   28.3997   12.5568   61.2088 C   0  0  2  0  0  0  0  0  0  0  0  0
   28.0048   13.0743   59.8118 C   0  0  2  0  0  0  0  0  0  0  0  0
   27.5292   11.9269   59.0819 O   0  0  0  0  0  0  0  0  0  0  0  0
   29.2352   13.6884   59.0972 C   0  0  1  0  0  0  0  0  0  0  0  0
   28.8300   14.2405   57.8748 O   0  0  0  0  0  0  0  0  0  0  0  0
   28.1252   11.4613   57.8739 C   0  0  1  0  0  0  0  0  0  0  0  0
   29.2463   10.4235   58.2374 C   0  0  2  0  0  0  0  0  0  0  0  0
   30.5152   11.0077   58.4774 O   0  0  0  0  0  0  0  0  0  0  0  0
   29.1672    9.5649   56.9829 C   0  0  2  0  0  0  0  0  0  0  0  0
   29.6492   10.2946   55.8146 O   0  0  0  0  0  0  0  0  0  0  0  0
   27.6684    9.3605   56.8119 C   0  0  2  0  0  0  0  0  0  0  0  0
   27.1788   10.6834   57.0911 O   0  0  0  0  0  0  0  0  0  0  0  0
   27.0410    8.2749   57.7465 C   0  0  0  0  0  0  0  0  0  0  0  0
   27.5655    6.9704   57.4691 O   0  0  0  0  0  0  0  0  0  0  0  0
   29.5526    9.5643   54.5944 C   0  0  2  0  0  0  0  0  0  0  0  0
   30.1116    8.1023   54.6605 C   0  0  2  0  0  0  0  0  0  0  0  0
   31.5470    8.0477   55.0729 N   0  3  0  0  0  0  0  0  0  0  0  0
   29.8957    7.4651   53.2473 C   0  0  1  0  0  0  0  0  0  0  0  0
   28.4368    7.4119   53.0099 O   0  0  0  0  0  0  0  0  0  0  0  0
   30.5663    8.3085   52.0940 C   0  0  2  0  0  0  0  0  0  0  0  0
   31.9888    8.3097   52.2967 O   0  0  0  0  0  0  0  0  0  0  0  0
   29.9648    9.7741   52.1407 C   0  0  1  0  0  0  0  0  0  0  0  0
   30.2162   10.3132   53.4822 O   0  0  0  0  0  0  0  0  0  0  0  0
   30.5373   10.7370   51.0758 C   0  0  0  0  0  0  0  0  0  0  0  0
   32.0053   10.9487   51.1974 N   0  3  0  0  0  0  0  0  0  0  0  0
  1  2  1  1  0  0  0
  1  3  1  0  0  0  0
  1 10  1  0  0  0  0
  3  4  1  1  0  0  0
  3  5  1  0  0  0  0
  5  6  1  6  0  0  0
  5  7  1  0  0  0  0
  7  8  1  1  0  0  0
  7  9  1  0  0  0  0
  9 10  1  0  0  0  0
  9 11  1  6  0  0  0
 11 12  1  0  0  0  0
 13 14  1  6  0  0  0
 13 15  1  0  0  0  0
 13 21  1  0  0  0  0
 15 16  1  0  0  0  0
 16 17  1  1  0  0  0
 16 18  1  0  0  0  0
 18  2  1  1  0  0  0
 18 19  1  0  0  0  0
 19 20  1  6  0  0  0
 19 21  1  0  0  0  0
 21 22  1  6  0  0  0
 23 20  1  1  0  0  0
 23 24  1  0  0  0  0
 23 29  1  0  0  0  0
 24 25  1  6  0  0  0
 24 26  1  0  0  0  0
 26 27  1  6  0  0  0
 26 28  1  0  0  0  0
 28 29  1  0  0  0  0
 28 30  1  1  0  0  0
 30 31  1  0  0  0  0
 32 27  1  1  0  0  0
 32 33  1  0  0  0  0
 32 40  1  0  0  0  0
 33 34  1  6  0  0  0
 33 35  1  0  0  0  0
 35 36  1  6  0  0  0
 35 37  1  0  0  0  0
 37 38  1  1  0  0  0
 37 39  1  0  0  0  0
 39 40  1  0  0  0  0
 39 41  1  6  0  0  0
 41 42  1  0  0  0  0
M  CHG  5   4   1  14   1  17   1  34   1  42   1
M  END
>  <CHROM.1>
-157.21601172,-167.79275850,-152.09397948,62.49108744,-52.18431742,-59.43658547
55.92650865,-35.42423038,-68.46477459,-119.84984684,89.84076448,-160.82922813
179.30735459,-177.64475986,-48.26946117,-63.82192073,61.66996788,-75.79546276
-57.93555911,72.80263834,-60.93536549,-70.85882644,28.48424350,10.65064559
58.59294652,2.28054244,1.00777612,0.75941332

>  <Name>
1j7t

>  <RI>
0

>  <Rbt.Current_Directory>
/home/itssahil/PROJECTS/Mol_Feturizer/New_Systems/rnas/1j7t

>  <Rbt.Executable>
rbdock ($Id: //depot/dev/client3/rdock/2013.1/src/exe/rbdock.cxx#4 $)

>  <Rbt.Library>
libRbt.so (2013.1, Build901 2013/11/27)

>  <Rbt.Parameter_File>
/export/apps/rDock/src/rDock_2013.1_src/data/scripts/dock_solv.prm

>  <Rbt.Receptor>
prm/blind_docking_100.prm

>  <SCORE>
-23.3415

>  <SCORE.INTER>
-32.3374

>  <SCORE.INTER.CONST>
1

>  <SCORE.INTER.POLAR>
-6.2694

>  <SCORE.INTER.ROT>
9

>  <SCORE.INTER.SOLV>
32.4344

>  <SCORE.INTER.VDW>
-21.0718

>  <SCORE.INTER.norm>
-0.769939

>  <SCORE.INTRA>
-10.4534

>  <SCORE.INTRA.DIHEDRAL>
-24.2765

>  <SCORE.INTRA.DIHEDRAL.0>
46.2143

>  <SCORE.INTRA.POLAR>
-0.140233

>  <SCORE.INTRA.POLAR.0>
-1.76436

>  <SCORE.INTRA.REPUL>
0

>  <SCORE.INTRA.REPUL.0>
0

>  <SCORE.INTRA.SOLV>
-2.39927

>  <SCORE.INTRA.SOLV.lig_0>
-148.643

>  <SCORE.INTRA.VDW>
3.36127

>  <SCORE.INTRA.VDW.0>
-4.83512

>  <SCORE.INTRA.norm>
-0.24889

>  <SCORE.RESTR>
19.4493

>  <SCORE.RESTR.CAVITY>
19.4493

>  <SCORE.RESTR.norm>
0.463078

>  <SCORE.SYSTEM>
0

>  <SCORE.SYSTEM.CONST>
0

>  <SCORE.SYSTEM.DIHEDRAL>
0

>  <SCORE.SYSTEM.SOLV>
0

>  <SCORE.SYSTEM.norm>
0

>  <SCORE.heavy>
42

>  <SCORE.norm>
-0.555751

>  <RMSD>
10.237

$$$$
1j7t
 OpenBabel11021811393D
libRbt.so/2013.1/901 2013/11/27
 42 45  0  0  0  0  0  0  0  0999 V2000
   26.7064   10.8378   61.7103 C   0  0  2  0  0  0  0  0  0  0  0  0
   27.3317   12.1033   62.0420 O   0  0  0  0  0  0  0  0  0  0  0  0
   25.2041   11.1347   61.4359 C   0  0  2  0  0  0  0  0  0  0  0  0
   24.9594   12.2038   60.4257 N   0  3  0  0  0  0  0  0  0  0  0  0
   24.5529   11.5770   62.7645 C   0  0  1  0  0  0  0  0  0  0  0  0
   23.1909   11.8433   62.5816 O   0  0  0  0  0  0  0  0  0  0  0  0
   24.7553   10.4868   63.8433 C   0  0  2  0  0  0  0  0  0  0  0  0
   24.1472   10.8629   65.0632 O   0  0  0  0  0  0  0  0  0  0  0  0
   26.2343   10.2610   64.0748 C   0  0  2  0  0  0  0  0  0  0  0  0
   26.8567    9.9237   62.8416 O   0  0  0  0  0  0  0  0  0  0  0  0
   26.5177    9.1254   65.0324 C   0  0  0  0  0  0  0  0  0  0  0  0
   26.1548    7.8984   64.4291 O   0  0  0  0  0  0  0  0  0  0  0  0
   29.9626   14.7367   60.0441 C   0  0  2  0  0  0  0  0  0  0  0  0
   31.1280   15.2481   59.3219 N   0  3  0  0  0  0  0  0  0  0  0  0
   30.3972   14.2037   61.4496 C   0  0  0  0  0  0  0  0  0  0  0  0
   29.1812   13.6197   62.1939 C   0  0  2  0  0  0  0  0  0  0  0  0
   29.5802   13.0665   63.4923 N   0  3  0  0  0  0  0  0  0  0  0  0
   28.5156   12.5155   61.3493 C   0  0  2  0  0  0  0  0  0  0  0  0
   28.1018   13.0056   59.9479 C   0  0  2  0  0  0  0  0  0  0  0  0
   27.6475   11.8386   59.2359 O   0  0  0  0  0  0  0  0  0  0  0  0
   29.3143   13.6371   59.2181 C   0  0  1  0  0  0  0  0  0  0  0  0
   28.8903   14.1639   57.9910 O   0  0  0  0  0  0  0  0  0  0  0  0
   28.2346   11.3812   58.0204 C   0  0  1  0  0  0  0  0  0  0  0  0
   29.3284   10.3089   58.3664 C   0  0  2  0  0  0  0  0  0  0  0  0
   30.6110   10.8564   58.6200 O   0  0  0  0  0  0  0  0  0  0  0  0
   29.2310    9.4765   57.0956 C   0  0  2  0  0  0  0  0  0  0  0  0
   29.7340   10.2160   55.9423 O   0  0  0  0  0  0  0  0  0  0  0  0
   27.7280    9.3130   56.9177 C   0  0  2  0  0  0  0  0  0  0  0  0
   27.2710   10.6422   57.2211 O   0  0  0  0  0  0  0  0  0  0  0  0
   27.0713    8.2259   57.8303 C   0  0  0  0  0  0  0  0  0  0  0  0
   27.5327    6.9096   57.5012 O   0  0  0  0  0  0  0  0  0  0  0  0
   29.5856    9.5280   54.7029 C   0  0  2  0  0  0  0  0  0  0  0  0
   30.1448    8.0646   54.6954 C   0  0  2  0  0  0  0  0  0  0  0  0
   31.5960    7.9957   55.0457 N   0  3  0  0  0  0  0  0  0  0  0  0
   29.8693    7.4763   53.2714 C   0  0  1  0  0  0  0  0  0  0  0  0
   28.4017    7.4314   53.0932 O   0  0  0  0  0  0  0  0  0  0  0  0
   30.4927    8.3588   52.1208 C   0  0  2  0  0  0  0  0  0  0  0  0
   31.9224    8.3529   52.2641 O   0  0  0  0  0  0  0  0  0  0  0  0
   29.8959    9.8220   52.2428 C   0  0  1  0  0  0  0  0  0  0  0  0
   30.2036   10.3146   53.5904 O   0  0  0  0  0  0  0  0  0  0  0  0
   30.4250   10.8208   51.1887 C   0  0  0  0  0  0  0  0  0  0  0  0
   31.8990   11.0174   51.2471 N   0  3  0  0  0  0  0  0  0  0  0  0
  1  2  1  1  0  0  0
  1  3  1  0  0  0  0
  1 10  1  0  0  0  0
  3  4  1  6  0  0  0
  3  5  1  0  0  0  0
  5  6  1  6  0  0  0
  5  7  1  0  0  0  0
  7  8  1  1  0  0  0
  7  9  1  0  0  0  0
  9 10  1  0  0  0  0
  9 11  1  1  0  0  0
 11 12  1  0  0  0  0
 13 14  1  6  0  0  0
 13 15  1  0  0  0  0
 13 21  1  0  0  0  0
 15 16  1  0  0  0  0
 16 17  1  1  0  0  0
 16 18  1  0  0  0  0
 18  2  1  1  0  0  0
 18 19  1  0  0  0  0
 19 20  1  6  0  0  0
 19 21  1  0  0  0  0
 21 22  1  6  0  0  0
 23 20  1  1  0  0  0
 23 24  1  0  0  0  0
 23 29  1  0  0  0  0
 24 25  1  6  0  0  0
 24 26  1  0  0  0  0
 26 27  1  6  0  0  0
 26 28  1  0  0  0  0
 28 29  1  0  0  0  0
 28 30  1  1  0  0  0
 30 31  1  0  0  0  0
 32 27  1  1  0  0  0
 32 33  1  0  0  0  0
 32 40  1  0  0  0  0
 33 34  1  6  0  0  0
 33 35  1  0  0  0  0
 35 36  1  6  0  0  0
 35 37  1  0  0  0  0
 37 38  1  1  0  0  0
 37 39  1  0  0  0  0
 39 40  1  0  0  0  0
 39 41  1  6  0  0  0
 41 42  1  0  0  0  0
M  CHG  5   4   1  14   1  17   1  34   1  42   1
M  END
>  <CHROM.1>
-128.21616196,-162.20680968,-75.15243197,61.42757412,179.05143532,68.56384968
-53.54018252,-30.23915668,-77.41699839,-120.78356187,93.55960430,-138.10332058
-54.55631153,-175.86715828,-51.51698550,-65.62618491,-177.77837433,162.24166557
-163.83865307,74.33695705,-60.33694977,-72.98518303,28.35329766,10.72052947
58.59667636,2.21665058,0.88161790,0.83611116

>  <Name>
1j7t

>  <RI>
0

>  <Rbt.Current_Directory>
/home/itssahil/PROJECTS/Mol_Feturizer/New_Systems/rnas/1j7t

>  <Rbt.Executable>
rbdock ($Id: //depot/dev/client3/rdock/2013.1/src/exe/rbdock.cxx#4 $)

>  <Rbt.Library>
libRbt.so (2013.1, Build901 2013/11/27)

>  <Rbt.Parameter_File>
/export/apps/rDock/src/rDock_2013.1_src/data/scripts/dock_solv.prm

>  <Rbt.Receptor>
prm/blind_docking_100.prm

>  <SCORE>
-16.9587

>  <SCORE.INTER>
-30.4858

>  <SCORE.INTER.CONST>
1

>  <SCORE.INTER.POLAR>
-6.0423

>  <SCORE.INTER.ROT>
9

>  <SCORE.INTER.SOLV>
33.3509

>  <SCORE.INTER.VDW>
-20.8998

>  <SCORE.INTER.norm>
-0.725853

>  <SCORE.INTRA>
-6.79029

>  <SCORE.INTRA.DIHEDRAL>
-12.6651

>  <SCORE.INTRA.DIHEDRAL.0>
46.2143

>  <SCORE.INTRA.POLAR>
-0.586695

>  <SCORE.INTRA.POLAR.0>
-1.76436

>  <SCORE.INTRA.REPUL>
0

>  <SCORE.INTRA.REPUL.0>
0

>  <SCORE.INTRA.SOLV>
-0.617879

>  <SCORE.INTRA.SOLV.lig_0>
-148.643

>  <SCORE.INTRA.VDW>
1.84598

>  <SCORE.INTRA.VDW.0>
-4.83512

>  <SCORE.INTRA.norm>
-0.161674

>  <SCORE.RESTR>
20.3174

>  <SCORE.RESTR.CAVITY>
20.3174

>  <SCORE.RESTR.norm>
0.483748

>  <SCORE.SYSTEM>
0

>  <SCORE.SYSTEM.CONST>
0

>  <SCORE.SYSTEM.DIHEDRAL>
0

>  <SCORE.SYSTEM.SOLV>
0

>  <SCORE.SYSTEM.norm>
0

>  <SCORE.heavy>
42

>  <SCORE.norm>
-0.403778

>  <RMSD>
10.247

$$$$
1j7t
 OpenBabel11021811393D
libRbt.so/2013.1/901 2013/11/27
 42 45  0  0  0  0  0  0  0  0999 V2000
   25.8022    5.7393   60.2991 C   0  0  2  0  0  0  0  0  0  0  0  0
   24.4394    5.4233   60.6803 O   0  0  0  0  0  0  0  0  0  0  0  0
   26.7254    4.7402   61.0538 C   0  0  2  0  0  0  0  0  0  0  0  0
   26.3702    3.3046   60.8628 N   0  3  0  0  0  0  0  0  0  0  0  0
   26.6393    5.0551   62.5632 C   0  0  1  0  0  0  0  0  0  0  0  0
   27.4658    4.1941   63.2947 O   0  0  0  0  0  0  0  0  0  0  0  0
   27.0259    6.5309   62.8201 C   0  0  2  0  0  0  0  0  0  0  0  0
   26.9744    6.8347   64.2001 O   0  0  0  0  0  0  0  0  0  0  0  0
   26.0795    7.4475   62.0744 C   0  0  2  0  0  0  0  0  0  0  0  0
   26.0971    7.1167   60.6915 O   0  0  0  0  0  0  0  0  0  0  0  0
   26.4619    8.9068   62.1795 C   0  0  0  0  0  0  0  0  0  0  0  0
   25.4650    9.7008   61.5654 O   0  0  0  0  0  0  0  0  0  0  0  0
   21.9890    3.5884   57.7688 C   0  0  2  0  0  0  0  0  0  0  0  0
   20.9792    3.3989   56.7267 N   0  3  0  0  0  0  0  0  0  0  0  0
   21.3071    4.0730   59.0911 C   0  0  0  0  0  0  0  0  0  0  0  0
   22.3721    4.3206   60.1765 C   0  0  2  0  0  0  0  0  0  0  0  0
   21.7555    4.8271   61.4070 N   0  3  0  0  0  0  0  0  0  0  0  0
   23.4223    5.3318   59.6760 C   0  0  2  0  0  0  0  0  0  0  0  0
   24.0912    4.8928   58.3587 C   0  0  2  0  0  0  0  0  0  0  0  0
   24.9177    5.9975   57.9443 O   0  0  0  0  0  0  0  0  0  0  0  0
   23.0171    4.5970   57.2814 C   0  0  1  0  0  0  0  0  0  0  0  0
   23.6436    4.1045   56.1291 O   0  0  0  0  0  0  0  0  0  0  0  0
   25.7079    5.9866   56.7582 C   0  0  1  0  0  0  0  0  0  0  0  0
   24.9787    6.8453   55.6641 C   0  0  2  0  0  0  0  0  0  0  0  0
   24.0463    6.1145   54.8860 O   0  0  0  0  0  0  0  0  0  0  0  0
   26.2077    7.3230   54.9034 C   0  0  2  0  0  0  0  0  0  0  0  0
   26.8502    6.2201   54.1960 O   0  0  0  0  0  0  0  0  0  0  0  0
   27.1436    7.7602   56.0215 C   0  0  2  0  0  0  0  0  0  0  0  0
   26.9651    6.6874   56.9622 O   0  0  0  0  0  0  0  0  0  0  0  0
   26.8245    9.1620   56.6371 C   0  0  0  0  0  0  0  0  0  0  0  0
   27.8224    9.5638   57.5841 O   0  0  0  0  0  0  0  0  0  0  0  0
   27.7478    6.6345   53.1692 C   0  0  2  0  0  0  0  0  0  0  0  0
   27.0545    7.1393   51.8582 C   0  0  2  0  0  0  0  0  0  0  0  0
   26.1556    6.1147   51.2453 N   0  3  0  0  0  0  0  0  0  0  0  0
   28.1933    7.5668   50.8732 C   0  0  1  0  0  0  0  0  0  0  0  0
   28.9139    8.6953   51.5015 O   0  0  0  0  0  0  0  0  0  0  0  0
   29.2211    6.4019   50.5940 C   0  0  2  0  0  0  0  0  0  0  0  0
   28.5289    5.3306   49.9322 O   0  0  0  0  0  0  0  0  0  0  0  0
   29.8310    5.9387   51.9816 C   0  0  1  0  0  0  0  0  0  0  0  0
   28.7137    5.5390   52.8449 O   0  0  0  0  0  0  0  0  0  0  0  0
   30.8514    4.7823   51.8801 C   0  0  0  0  0  0  0  0  0  0  0  0
   32.1344    5.1796   51.2391 N   0  3  0  0  0  0  0  0  0  0  0  0
  1  2  1  1  0  0  0
  1  3  1  0  0  0  0
  1 10  1  0  0  0  0
  3  4  1  1  0  0  0
  3  5  1  0  0  0  0
  5  6  1  1  0  0  0
  5  7  1  0  0  0  0
  7  8  1  1  0  0  0
  7  9  1  0  0  0  0
  9 10  1  0  0  0  0
  9 11  1  6  0  0  0
 11 12  1  0  0  0  0
 13 14  1  6  0  0  0
 13 15  1  0  0  0  0
 13 21  1  0  0  0  0
 15 16  1  0  0  0  0
 16 17  1  1  0  0  0
 16 18  1  0  0  0  0
 18  2  1  1  0  0  0
 18 19  1  0  0  0  0
 19 20  1  6  0  0  0
 19 21  1  0  0  0  0
 21 22  1  6  0  0  0
 23 20  1  1  0  0  0
 23 24  1  0  0  0  0
 23 29  1  0  0  0  0
 24 25  1  6  0  0  0
 24 26  1  0  0  0  0
 26 27  1  1  0  0  0
 26 28  1  0  0  0  0
 28 29  1  0  0  0  0
 28 30  1  1  0  0  0
 30 31  1  0  0  0  0
 32 27  1  1  0  0  0
 32 33  1  0  0  0  0
 32 40  1  0  0  0  0
 33 34  1  6  0  0  0
 33 35  1  0  0  0  0
 35 36  1  1  0  0  0
 35 37  1  0  0  0  0
 37 38  1  1  0  0  0
 37 39  1  0  0  0  0
 39 40  1  0  0  0  0
 39 41  1  6  0  0  0
 41 42  1  0  0  0  0
M  CHG  5   4   1  14   1  17   1  34   1  42   1
M  END
>  <CHROM.1>
-133.94377641,150.45084678,-163.72354439,62.32338488,171.36070342,-174.58993400
65.11230560,-176.89328642,172.46349032,-179.89926704,102.99682565,70.80239406
-174.39128982,162.56885028,-75.87280690,-174.09951767,-60.79151872,76.33695084
-65.40177149,54.13845590,69.77873289,-59.55989286,26.12531068,6.07184198
57.07814523,-1.97743895,-0.45240578,-1.69040503

>  <Name>
1j7t

>  <RI>
0

>  <Rbt.Current_Directory>
/home/itssahil/PROJECTS/Mol_Feturizer/New_Systems/rnas/1j7t

>  <Rbt.Executable>
rbdock ($Id: //depot/dev/client3/rdock/2013.1/src/exe/rbdock.cxx#4 $)

>  <Rbt.Library>
libRbt.so (2013.1, Build901 2013/11/27)

>  <Rbt.Parameter_File>
/export/apps/rDock/src/rDock_2013.1_src/data/scripts/dock_solv.prm

>  <Rbt.Receptor>
prm/pocket_docking_4.prm

>  <SCORE>
-48.9624

>  <SCORE.INTER>
-43.3891

>  <SCORE.INTER.CONST>
1

>  <SCORE.INTER.POLAR>
-6.82464

>  <SCORE.INTER.ROT>
9

>  <SCORE.INTER.SOLV>
20.1999

>  <SCORE.INTER.VDW>
-22.5106

>  <SCORE.INTER.norm>
-1.03307

>  <SCORE.INTRA>
-5.8917

>  <SCORE.INTRA.DIHEDRAL>
-24.067

>  <SCORE.INTRA.DIHEDRAL.0>
46.2143

>  <SCORE.INTRA.POLAR>
1.68146

>  <SCORE.INTRA.POLAR.0>
-1.76436

>  <SCORE.INTRA.REPUL>
0.0170705

>  <SCORE.INTRA.REPUL.0>
0

>  <SCORE.INTRA.SOLV>
-5.10968

>  <SCORE.INTRA.SOLV.lig_0>
-148.643

>  <SCORE.INTRA.VDW>
2.89434

>  <SCORE.INTRA.VDW.0>
-4.83512

>  <SCORE.INTRA.norm>
-0.140279

>  <SCORE.RESTR>
0.318376

>  <SCORE.RESTR.CAVITY>
0.318376

>  <SCORE.RESTR.norm>
0.00758038

>  <SCORE.SYSTEM>
0

>  <SCORE.SYSTEM.CONST>
0

>  <SCORE.SYSTEM.DIHEDRAL>
0

>  <SCORE.SYSTEM.SOLV>
0

>  <SCORE.SYSTEM.norm>
0

>  <SCORE.heavy>
42

>  <SCORE.norm>
-1.16577

>  <RMSD>
10.354

$$$$
1j7t
 OpenBabel11021811393D
libRbt.so/2013.1/901 2013/11/27
 42 45  0  0  0  0  0  0  0  0999 V2000
   33.4274    7.8570   52.9205 C   0  0  2  0  0  0  0  0  0  0  0  0
   32.2972    7.1156   52.3956 O   0  0  0  0  0  0  0  0  0  0  0  0
   34.6639    7.4624   52.0628 C   0  0  2  0  0  0  0  0  0  0  0  0
   34.4744    7.6255   50.5927 N   0  3  0  0  0  0  0  0  0  0  0  0
   34.9845    5.9774   52.3395 C   0  0  1  0  0  0  0  0  0  0  0  0
   36.1032    5.5688   51.6039 O   0  0  0  0  0  0  0  0  0  0  0  0
   35.2176    5.7581   53.8532 C   0  0  2  0  0  0  0  0  0  0  0  0
   35.5342    4.4073   54.1260 O   0  0  0  0  0  0  0  0  0  0  0  0
   33.9735    6.1422   54.6256 C   0  0  2  0  0  0  0  0  0  0  0  0
   33.6278    7.4874   54.3210 O   0  0  0  0  0  0  0  0  0  0  0  0
   34.1599    6.0676   56.1245 C   0  0  0  0  0  0  0  0  0  0  0  0
   32.8987    6.1430   56.7608 O   0  0  0  0  0  0  0  0  0  0  0  0
   28.4784    7.8489   50.7441 C   0  0  2  0  0  0  0  0  0  0  0  0
   27.1721    8.4570   50.4890 N   0  3  0  0  0  0  0  0  0  0  0  0
   28.5443    7.3233   52.2164 C   0  0  0  0  0  0  0  0  0  0  0  0
   29.9351    6.7262   52.5041 C   0  0  2  0  0  0  0  0  0  0  0  0
   30.0323    6.2770   53.8968 N   0  3  0  0  0  0  0  0  0  0  0  0
   31.0345    7.7696   52.2244 C   0  0  2  0  0  0  0  0  0  0  0  0
   30.9764    8.3255   50.7882 C   0  0  2  0  0  0  0  0  0  0  0  0
   31.9496    9.3863   50.7320 O   0  0  0  0  0  0  0  0  0  0  0  0
   29.5627    8.8823   50.4827 C   0  0  1  0  0  0  0  0  0  0  0  0
   29.5069    9.2881   49.1428 O   0  0  0  0  0  0  0  0  0  0  0  0
   31.6994   10.6514   50.1253 C   0  0  1  0  0  0  0  0  0  0  0  0
   32.1707   11.7799   51.1105 C   0  0  2  0  0  0  0  0  0  0  0  0
   31.1795   12.1831   52.0400 O   0  0  0  0  0  0  0  0  0  0  0  0
   32.5414   12.8342   50.0770 C   0  0  2  0  0  0  0  0  0  0  0  0
   31.3546   13.3502   49.4025 O   0  0  0  0  0  0  0  0  0  0  0  0
   33.3402   12.0355   49.0565 C   0  0  2  0  0  0  0  0  0  0  0  0
   32.5404   10.8447   48.9554 O   0  0  0  0  0  0  0  0  0  0  0  0
   34.8194   11.7360   49.4664 C   0  0  0  0  0  0  0  0  0  0  0  0
   35.6429   11.4746   48.3230 O   0  0  0  0  0  0  0  0  0  0  0  0
   31.0817   12.7257   48.1507 C   0  0  2  0  0  0  0  0  0  0  0  0
   32.1482   12.9995   47.0363 C   0  0  2  0  0  0  0  0  0  0  0  0
   32.3298   14.4552   46.7515 N   0  3  0  0  0  0  0  0  0  0  0  0
   31.6887   12.2178   45.7605 C   0  0  1  0  0  0  0  0  0  0  0  0
   31.7061   10.7783   46.0998 O   0  0  0  0  0  0  0  0  0  0  0  0
   30.2312   12.6125   45.3010 C   0  0  2  0  0  0  0  0  0  0  0  0
   30.2321   13.9974   44.9181 O   0  0  0  0  0  0  0  0  0  0  0  0
   29.2417   12.3373   46.5081 C   0  0  1  0  0  0  0  0  0  0  0  0
   29.7219   13.1103   47.6593 O   0  0  0  0  0  0  0  0  0  0  0  0
   27.7649   12.6919   46.2211 C   0  0  0  0  0  0  0  0  0  0  0  0
   27.1054   13.4263   47.3348 N   0  3  0  0  0  0  0  0  0  0  0  0
  1  2  1  6  0  0  0
  1  3  1  0  0  0  0
  1 10  1  0  0  0  0
  3  4  1  6  0  0  0
  3  5  1  0  0  0  0
  5  6  1  6  0  0  0
  5  7  1  0  0  0  0
  7  8  1  6  0  0  0
  7  9  1  0  0  0  0
  9 10  1  0  0  0  0
  9 11  1  1  0  0  0
 11 12  1  0  0  0  0
 13 14  1  1  0  0  0
 13 15  1  0  0  0  0
 13 21  1  0  0  0  0
 15 16  1  0  0  0  0
 16 17  1  1  0  0  0
 16 18  1  0  0  0  0
 18  2  1  6  0  0  0
 18 19  1  0  0  0  0
 19 20  1  1  0  0  0
 19 21  1  0  0  0  0
 21 22  1  6  0  0  0
 23 20  1  1  0  0  0
 23 24  1  0  0  0  0
 23 29  1  0  0  0  0
 24 25  1  1  0  0  0
 24 26  1  0  0  0  0
 26 27  1  6  0  0  0
 26 28  1  0  0  0  0
 28 29  1  0  0  0  0
 28 30  1  1  0  0  0
 30 31  1  0  0  0  0
 32 27  1  1  0  0  0
 32 33  1  0  0  0  0
 32 40  1  0  0  0  0
 33 34  1  6  0  0  0
 33 35  1  0  0  0  0
 35 36  1  1  0  0  0
 35 37  1  0  0  0  0
 37 38  1  1  0  0  0
 37 39  1  0  0  0  0
 39 40  1  0  0  0  0
 39 41  1  6  0  0  0
 41 42  1  0  0  0  0
M  CHG  5   4   1  14   1  17   1  34   1  42   1
M  END
>  <CHROM.1>
-136.90170510,-146.19578080,-82.32996050,-60.96053790,-60.67968731,-166.96284305
-60.34497163,-123.54467806,66.65995885,-135.42284187,132.26422950,67.97932332
39.95030107,-96.71033950,-66.33976393,-157.11196261,-179.84349483,-71.02982296
20.82759603,175.38729854,-135.55145903,-155.14902314,31.82789090,9.67679399
50.35616575,-1.24920934,-0.01907965,-0.79715732

>  <Name>
1j7t

>  <RI>
0

>  <Rbt.Current_Directory>
/home/itssahil/PROJECTS/Mol_Feturizer/New_Systems/rnas/1j7t

>  <Rbt.Executable>
rbdock ($Id: //depot/dev/client3/rdock/2013.1/src/exe/rbdock.cxx#4 $)

>  <Rbt.Library>
libRbt.so (2013.1, Build901 2013/11/27)

>  <Rbt.Parameter_File>
/export/apps/rDock/src/rDock_2013.1_src/data/scripts/dock_solv.prm

>  <Rbt.Receptor>
prm/blind_docking_80.prm

>  <SCORE>
14.1827

>  <SCORE.INTER>
-16.7456

>  <SCORE.INTER.CONST>
1

>  <SCORE.INTER.POLAR>
-4.31393

>  <SCORE.INTER.ROT>
9

>  <SCORE.INTER.SOLV>
40.3125

>  <SCORE.INTER.VDW>
-19.8215

>  <SCORE.INTER.norm>
-0.398705

>  <SCORE.INTRA>
11.675

>  <SCORE.INTRA.DIHEDRAL>
2.18771

>  <SCORE.INTRA.DIHEDRAL.0>
46.2143

>  <SCORE.INTRA.POLAR>
-0.894626

>  <SCORE.INTRA.POLAR.0>
-1.76436

>  <SCORE.INTRA.REPUL>
0

>  <SCORE.INTRA.REPUL.0>
0

>  <SCORE.INTRA.SOLV>
-0.283021

>  <SCORE.INTRA.SOLV.lig_0>
-148.643

>  <SCORE.INTRA.VDW>
13.7644

>  <SCORE.INTRA.VDW.0>
-4.83512

>  <SCORE.INTRA.norm>
0.277977

>  <SCORE.RESTR>
19.2532

>  <SCORE.RESTR.CAVITY>
19.2532

>  <SCORE.RESTR.norm>
0.458411

>  <SCORE.SYSTEM>
0

>  <SCORE.SYSTEM.CONST>
0

>  <SCORE.SYSTEM.DIHEDRAL>
0

>  <SCORE.SYSTEM.SOLV>
0

>  <SCORE.SYSTEM.norm>
0

>  <SCORE.heavy>
42

>  <SCORE.norm>
0.337683

>  <RMSD>
10.366

$$$$
1j7t
 OpenBabel11021811393D
libRbt.so/2013.1/901 2013/11/27
 42 45  0  0  0  0  0  0  0  0999 V2000
   22.6773    4.4266   60.5213 C   0  0  2  0  0  0  0  0  0  0  0  0
   22.5548    3.0459   60.9471 O   0  0  0  0  0  0  0  0  0  0  0  0
   21.2551    4.8980   60.1031 C   0  0  2  0  0  0  0  0  0  0  0  0
   20.2032    4.6841   61.1381 N   0  3  0  0  0  0  0  0  0  0  0  0
   20.8438    4.1145   58.8374 C   0  0  1  0  0  0  0  0  0  0  0  0
   19.5731    4.5102   58.4034 O   0  0  0  0  0  0  0  0  0  0  0  0
   21.8919    4.3252   57.7191 C   0  0  2  0  0  0  0  0  0  0  0  0
   21.5230    3.6328   56.5428 O   0  0  0  0  0  0  0  0  0  0  0  0
   23.2451    3.8297   58.1831 C   0  0  2  0  0  0  0  0  0  0  0  0
   23.6004    4.4936   59.3893 O   0  0  0  0  0  0  0  0  0  0  0  0
   24.3507    4.1076   57.1893 C   0  0  0  0  0  0  0  0  0  0  0  0
   25.5888    3.6928   57.7334 O   0  0  0  0  0  0  0  0  0  0  0  0
   24.5736    0.3237   63.4695 C   0  0  2  0  0  0  0  0  0  0  0  0
   25.6480   -0.3980   64.1523 N   0  3  0  0  0  0  0  0  0  0  0  0
   24.6736    0.0939   61.9250 C   0  0  0  0  0  0  0  0  0  0  0  0
   23.5738    0.8915   61.1983 C   0  0  2  0  0  0  0  0  0  0  0  0
   23.6860    0.7303   59.7449 N   0  3  0  0  0  0  0  0  0  0  0  0
   23.6710    2.3873   61.5569 C   0  0  2  0  0  0  0  0  0  0  0  0
   23.6029    2.6413   63.0755 C   0  0  2  0  0  0  0  0  0  0  0  0
   23.8625    4.0468   63.2563 O   0  0  0  0  0  0  0  0  0  0  0  0
   24.6780    1.8016   63.8110 C   0  0  1  0  0  0  0  0  0  0  0  0
   24.5296    1.9724   65.1937 O   0  0  0  0  0  0  0  0  0  0  0  0
   24.9225    4.7408   62.6036 C   0  0  1  0  0  0  0  0  0  0  0  0
   25.4811    5.8344   63.5825 C   0  0  2  0  0  0  0  0  0  0  0  0
   24.8030    7.0766   63.5048 O   0  0  0  0  0  0  0  0  0  0  0  0
   26.9195    5.8615   63.0851 C   0  0  2  0  0  0  0  0  0  0  0  0
   27.0021    6.4325   61.7447 O   0  0  0  0  0  0  0  0  0  0  0  0
   27.2638    4.3825   62.9775 C   0  0  2  0  0  0  0  0  0  0  0  0
   26.0615    3.8650   62.3823 O   0  0  0  0  0  0  0  0  0  0  0  0
   27.6133    3.6874   64.3341 C   0  0  0  0  0  0  0  0  0  0  0  0
   26.5473    3.8139   65.2837 O   0  0  0  0  0  0  0  0  0  0  0  0
   28.3323    6.7068   61.3124 C   0  0  2  0  0  0  0  0  0  0  0  0
   28.4582    7.8879   60.2908 C   0  0  2  0  0  0  0  0  0  0  0  0
   27.6475    7.6744   59.0537 N   0  3  0  0  0  0  0  0  0  0  0  0
   29.9797    8.0471   59.9599 C   0  0  1  0  0  0  0  0  0  0  0  0
   30.6634    8.4229   61.2164 O   0  0  0  0  0  0  0  0  0  0  0  0
   30.6228    6.7138   59.4122 C   0  0  2  0  0  0  0  0  0  0  0  0
   29.9950    6.3832   58.1627 O   0  0  0  0  0  0  0  0  0  0  0  0
   30.4056    5.5792   60.4973 C   0  0  1  0  0  0  0  0  0  0  0  0
   28.9632    5.4743   60.7455 O   0  0  0  0  0  0  0  0  0  0  0  0
   30.9687    4.1955   60.1005 C   0  0  0  0  0  0  0  0  0  0  0  0
   30.1639    3.5067   59.0553 N   0  3  0  0  0  0  0  0  0  0  0  0
  1  2  1  6  0  0  0
  1  3  1  0  0  0  0
  1 10  1  0  0  0  0
  3  4  1  1  0  0  0
  3  5  1  0  0  0  0
  5  6  1  6  0  0  0
  5  7  1  0  0  0  0
  7  8  1  6  0  0  0
  7  9  1  0  0  0  0
  9 10  1  0  0  0  0
  9 11  1  6  0  0  0
 11 12  1  0  0  0  0
 13 14  1  1  0  0  0
 13 15  1  0  0  0  0
 13 21  1  0  0  0  0
 15 16  1  0  0  0  0
 16 17  1  6  0  0  0
 16 18  1  0  0  0  0
 18  2  1  6  0  0  0
 18 19  1  0  0  0  0
 19 20  1  6  0  0  0
 19 21  1  0  0  0  0
 21 22  1  1  0  0  0
 23 20  1  1  0  0  0
 23 24  1  0  0  0  0
 23 29  1  0  0  0  0
 24 25  1  6  0  0  0
 24 26  1  0  0  0  0
 26 27  1  6  0  0  0
 26 28  1  0  0  0  0
 28 29  1  0  0  0  0
 28 30  1  1  0  0  0
 30 31  1  0  0  0  0
 32 27  1  6  0  0  0
 32 33  1  0  0  0  0
 32 40  1  0  0  0  0
 33 34  1  6  0  0  0
 33 35  1  0  0  0  0
 35 36  1  1  0  0  0
 35 37  1  0  0  0  0
 37 38  1  6  0  0  0
 37 39  1  0  0  0  0
 39 40  1  0  0  0  0
 39 41  1  6  0  0  0
 41 42  1  0  0  0  0
M  CHG  5   4   1  14   1  17   1  34   1  42   1
M  END
>  <CHROM.1>
-171.86507308,-149.40389296,-41.69841473,176.46498418,71.57466538,176.28005535
178.75731817,-58.18677269,-57.53792011,-46.04191058,-144.80291595,66.98307469
-61.12328651,169.47002754,-151.37268211,57.22578369,175.40452976,164.62851124
-176.72652643,171.19505500,-73.25341819,106.05578799,25.53471890,4.29247885
61.00987443,2.94379233,0.39060174,2.09312210

>  <Name>
1j7t

>  <RI>
224

>  <Rbt.Current_Directory>
/home/itssahil/PROJECTS/Mol_Feturizer/New_Systems/rnas/1j7t

>  <Rbt.Executable>
rbdock ($Id: //depot/dev/client3/rdock/2013.1/src/exe/rbdock.cxx#4 $)

>  <Rbt.Library>
libRbt.so (2013.1, Build901 2013/11/27)

>  <Rbt.Parameter_File>
/export/apps/rDock/src/rDock_2013.1_src/data/scripts/dock_solv.prm

>  <Rbt.Receptor>
prm/pocket_docking_7.prm

>  <SCORE>
-32.4878

>  <SCORE.INTER>
-20.5

>  <SCORE.INTER.CONST>
1

>  <SCORE.INTER.POLAR>
-3.04335

>  <SCORE.INTER.ROT>
9

>  <SCORE.INTER.SOLV>
11.6118

>  <SCORE.INTER.VDW>
-16.9928

>  <SCORE.INTER.norm>
-0.488095

>  <SCORE.INTRA>
-12.0011

>  <SCORE.INTRA.DIHEDRAL>
-25.6677

>  <SCORE.INTRA.DIHEDRAL.0>
46.2143

>  <SCORE.INTRA.POLAR>
0.719322

>  <SCORE.INTRA.POLAR.0>
-1.76436

>  <SCORE.INTRA.REPUL>
0

>  <SCORE.INTRA.REPUL.0>
0

>  <SCORE.INTRA.SOLV>
0.425418

>  <SCORE.INTRA.SOLV.lig_0>
-148.643

>  <SCORE.INTRA.VDW>
-1.82563

>  <SCORE.INTRA.VDW.0>
-4.83512

>  <SCORE.INTRA.norm>
-0.28574

>  <SCORE.RESTR>
0.0132706

>  <SCORE.RESTR.CAVITY>
0.0132706

>  <SCORE.RESTR.norm>
0.000315966

>  <SCORE.SYSTEM>
0

>  <SCORE.SYSTEM.CONST>
0

>  <SCORE.SYSTEM.DIHEDRAL>
0

>  <SCORE.SYSTEM.SOLV>
0

>  <SCORE.SYSTEM.norm>
0

>  <SCORE.heavy>
42

>  <SCORE.norm>
-0.773519

>  <RMSD>
10.619

$$$$
1j7t
 OpenBabel11021811393D
libRbt.so/2013.1/901 2013/11/27
 42 45  0  0  0  0  0  0  0  0999 V2000
   25.9092   11.0092   43.6157 C   0  0  2  0  0  0  0  0  0  0  0  0
   27.0125   10.8065   44.5344 O   0  0  0  0  0  0  0  0  0  0  0  0
   25.2159    9.6289   43.4309 C   0  0  2  0  0  0  0  0  0  0  0  0
   24.8174    8.9616   44.7036 N   0  3  0  0  0  0  0  0  0  0  0  0
   26.1981    8.6948   42.6910 C   0  0  1  0  0  0  0  0  0  0  0  0
   25.6200    7.4373   42.4814 O   0  0  0  0  0  0  0  0  0  0  0  0
   26.6234    9.3304   41.3461 C   0  0  2  0  0  0  0  0  0  0  0  0
   27.5072    8.4805   40.6418 O   0  0  0  0  0  0  0  0  0  0  0  0
   27.3064   10.6578   41.5981 C   0  0  2  0  0  0  0  0  0  0  0  0
   26.4360   11.5001   42.3430 O   0  0  0  0  0  0  0  0  0  0  0  0
   27.6486   11.3993   40.3253 C   0  0  0  0  0  0  0  0  0  0  0  0
   26.4654   11.6430   39.5891 O   0  0  0  0  0  0  0  0  0  0  0  0
   29.2086   14.4153   44.4996 C   0  0  2  0  0  0  0  0  0  0  0  0
   29.9433   15.5953   44.9572 N   0  3  0  0  0  0  0  0  0  0  0  0
   27.7357   14.4665   45.0251 C   0  0  0  0  0  0  0  0  0  0  0  0
   26.9725   13.2021   44.5866 C   0  0  2  0  0  0  0  0  0  0  0  0
   25.6048   13.2079   45.1161 N   0  3  0  0  0  0  0  0  0  0  0  0
   27.7056   11.9373   45.0751 C   0  0  2  0  0  0  0  0  0  0  0  0
   29.1686   11.8741   44.5948 C   0  0  2  0  0  0  0  0  0  0  0  0
   29.7552   10.7349   45.2533 O   0  0  0  0  0  0  0  0  0  0  0  0
   29.9232   13.1676   44.9939 C   0  0  1  0  0  0  0  0  0  0  0  0
   31.2179   13.1291   44.4598 O   0  0  0  0  0  0  0  0  0  0  0  0
   30.0065   10.6805   46.6551 C   0  0  1  0  0  0  0  0  0  0  0  0
   30.7730   11.9847   47.0764 C   0  0  2  0  0  0  0  0  0  0  0  0
   32.1821   11.8875   46.9585 O   0  0  0  0  0  0  0  0  0  0  0  0
   30.2590   12.0908   48.5053 C   0  0  2  0  0  0  0  0  0  0  0  0
   30.7921   11.0169   49.3373 O   0  0  0  0  0  0  0  0  0  0  0  0
   28.7651   11.8482   48.3419 C   0  0  2  0  0  0  0  0  0  0  0  0
   28.7667   10.7523   47.4109 O   0  0  0  0  0  0  0  0  0  0  0  0
   27.9509   13.0789   47.8242 C   0  0  0  0  0  0  0  0  0  0  0  0
   28.6707   14.3046   48.0070 O   0  0  0  0  0  0  0  0  0  0  0  0
   29.8379   10.0108   49.6671 C   0  0  2  0  0  0  0  0  0  0  0  0
   29.0974   10.2323   51.0298 C   0  0  2  0  0  0  0  0  0  0  0  0
   30.0335   10.3235   52.1911 N   0  3  0  0  0  0  0  0  0  0  0  0
   28.0860    9.0499   51.1990 C   0  0  1  0  0  0  0  0  0  0  0  0
   27.1054    9.1520   50.0965 O   0  0  0  0  0  0  0  0  0  0  0  0
   28.7874    7.6379   51.1240 C   0  0  2  0  0  0  0  0  0  0  0  0
   29.6975    7.5204   52.2298 O   0  0  0  0  0  0  0  0  0  0  0  0
   29.5376    7.5329   49.7318 C   0  0  1  0  0  0  0  0  0  0  0  0
   30.4762    8.6578   49.6488 O   0  0  0  0  0  0  0  0  0  0  0  0
   30.2950    6.2040   49.5096 C   0  0  0  0  0  0  0  0  0  0  0  0
   29.3995    5.0178   49.4350 N   0  3  0  0  0  0  0  0  0  0  0  0
  1  2  1  1  0  0  0
  1  3  1  0  0  0  0
  1 10  1  0  0  0  0
  3  4  1  1  0  0  0
  3  5  1  0  0  0  0
  5  6  1  6  0  0  0
  5  7  1  0  0  0  0
  7  8  1  1  0  0  0
  7  9  1  0  0  0  0
  9 10  1  0  0  0  0
  9 11  1  6  0  0  0
 11 12  1  0  0  0  0
 13 14  1  1  0  0  0
 13 15  1  0  0  0  0
 13 21  1  0  0  0  0
 15 16  1  0  0  0  0
 16 17  1  1  0  0  0
 16 18  1  0  0  0  0
 18  2  1  6  0  0  0
 18 19  1  0  0  0  0
 19 20  1  1  0  0  0
 19 21  1  0  0  0  0
 21 22  1  6  0  0  0
 23 20  1  6  0  0  0
 23 24  1  0  0  0  0
 23 29  1  0  0  0  0
 24 25  1  1  0  0  0
 24 26  1  0  0  0  0
 26 27  1  1  0  0  0
 26 28  1  0  0  0  0
 28 29  1  0  0  0  0
 28 30  1  6  0  0  0
 30 31  1  0  0  0  0
 32 27  1  1  0  0  0
 32 33  1  0  0  0  0
 32 40  1  0  0  0  0
 33 34  1  1  0  0  0
 33 35  1  0  0  0  0
 35 36  1  6  0  0  0
 35 37  1  0  0  0  0
 37 38  1  1  0  0  0
 37 39  1  0  0  0  0
 39 40  1  0  0  0  0
 39 41  1  1  0  0  0
 41 42  1  0  0  0  0
M  CHG  5   4   1  14   1  17   1  34   1  42   1
M  END
>  <CHROM.1>
-169.59897207,4.64644050,65.80682859,-174.22440145,-57.18262827,59.25304907
-64.31012831,61.08388809,130.61392095,-68.78253094,-49.74801741,-62.81779182
179.95331947,-106.87780682,-93.40024134,-18.70037162,179.81437317,22.99514027
87.36623619,-101.13364978,64.97667428,176.31909935,28.44606913,10.70134854
46.23503006,2.24802193,-1.06886682,-0.69526571

>  <Name>
1j7t

>  <RI>
0

>  <Rbt.Current_Directory>
/home/itssahil/PROJECTS/Mol_Feturizer/New_Systems/rnas/1j7t

>  <Rbt.Executable>
rbdock ($Id: //depot/dev/client3/rdock/2013.1/src/exe/rbdock.cxx#4 $)

>  <Rbt.Library>
libRbt.so (2013.1, Build901 2013/11/27)

>  <Rbt.Parameter_File>
/export/apps/rDock/src/rDock_2013.1_src/data/scripts/dock_solv.prm

>  <Rbt.Receptor>
prm/blind_docking_60.prm

>  <SCORE>
52.2891

>  <SCORE.INTER>
4.35231

>  <SCORE.INTER.CONST>
1

>  <SCORE.INTER.POLAR>
-2.95355

>  <SCORE.INTER.ROT>
9

>  <SCORE.INTER.SOLV>
27.1721

>  <SCORE.INTER.VDW>
-5.91068

>  <SCORE.INTER.norm>
0.103626

>  <SCORE.INTRA>
18.5535

>  <SCORE.INTRA.DIHEDRAL>
-7.87297

>  <SCORE.INTRA.DIHEDRAL.0>
46.2143

>  <SCORE.INTRA.POLAR>
1.50424

>  <SCORE.INTRA.POLAR.0>
-1.76436

>  <SCORE.INTRA.REPUL>
0

>  <SCORE.INTRA.REPUL.0>
0

>  <SCORE.INTRA.SOLV>
0.689747

>  <SCORE.INTRA.SOLV.lig_0>
-148.643

>  <SCORE.INTRA.VDW>
17.0307

>  <SCORE.INTRA.VDW.0>
-4.83512

>  <SCORE.INTRA.norm>
0.441749

>  <SCORE.RESTR>
29.3834

>  <SCORE.RESTR.CAVITY>
29.3834

>  <SCORE.RESTR.norm>
0.699604

>  <SCORE.SYSTEM>
0

>  <SCORE.SYSTEM.CONST>
0

>  <SCORE.SYSTEM.DIHEDRAL>
0

>  <SCORE.SYSTEM.SOLV>
0

>  <SCORE.SYSTEM.norm>
0

>  <SCORE.heavy>
42

>  <SCORE.norm>
1.24498

>  <RMSD>
10.725

$$$$
1j7t
 OpenBabel11021811393D
libRbt.so/2013.1/901 2013/11/27
 42 45  0  0  0  0  0  0  0  0999 V2000
   26.4188    8.6236   64.4844 C   0  0  2  0  0  0  0  0  0  0  0  0
   25.6066    9.0834   63.3747 O   0  0  0  0  0  0  0  0  0  0  0  0
   27.3921    7.5506   63.9176 C   0  0  2  0  0  0  0  0  0  0  0  0
   28.1898    7.9992   62.7403 N   0  3  0  0  0  0  0  0  0  0  0  0
   26.5562    6.3254   63.4873 C   0  0  1  0  0  0  0  0  0  0  0  0
   27.3842    5.3162   62.9818 O   0  0  0  0  0  0  0  0  0  0  0  0
   25.7271    5.8020   64.6840 C   0  0  2  0  0  0  0  0  0  0  0  0
   24.9699    4.6659   64.3167 O   0  0  0  0  0  0  0  0  0  0  0  0
   24.7903    6.8859   65.1735 C   0  0  2  0  0  0  0  0  0  0  0  0
   25.5448    8.0451   65.5039 O   0  0  0  0  0  0  0  0  0  0  0  0
   24.0269    6.4919   66.4180 C   0  0  0  0  0  0  0  0  0  0  0  0
   23.1053    5.4665   66.1008 O   0  0  0  0  0  0  0  0  0  0  0  0
   24.4790   12.7594   61.6243 C   0  0  2  0  0  0  0  0  0  0  0  0
   24.5522   14.1163   61.0814 N   0  3  0  0  0  0  0  0  0  0  0  0
   24.8780   12.7675   63.1373 C   0  0  0  0  0  0  0  0  0  0  0  0
   24.8496   11.3337   63.7004 C   0  0  2  0  0  0  0  0  0  0  0  0
   25.2731   11.3158   65.1044 N   0  3  0  0  0  0  0  0  0  0  0  0
   25.7723   10.4155   62.8751 C   0  0  2  0  0  0  0  0  0  0  0  0
   25.4193   10.4094   61.3749 C   0  0  2  0  0  0  0  0  0  0  0  0
   26.4521    9.6430   60.7258 O   0  0  0  0  0  0  0  0  0  0  0  0
   25.4005   11.8562   60.8199 C   0  0  1  0  0  0  0  0  0  0  0  0
   24.9797   11.8318   59.4838 O   0  0  0  0  0  0  0  0  0  0  0  0
   26.1873    8.5962   59.7956 C   0  0  1  0  0  0  0  0  0  0  0  0
   25.1634    9.1235   58.7281 C   0  0  2  0  0  0  0  0  0  0  0  0
   23.8061    8.9518   59.0988 O   0  0  0  0  0  0  0  0  0  0  0  0
   25.6147    8.2716   57.5500 C   0  0  2  0  0  0  0  0  0  0  0  0
   25.2931    6.8644   57.7644 O   0  0  0  0  0  0  0  0  0  0  0  0
   27.1299    8.4102   57.5986 C   0  0  2  0  0  0  0  0  0  0  0  0
   27.3704    8.2839   59.0106 O   0  0  0  0  0  0  0  0  0  0  0  0
   27.6882    9.7465   57.0083 C   0  0  0  0  0  0  0  0  0  0  0  0
   27.3829    9.8776   55.6141 O   0  0  0  0  0  0  0  0  0  0  0  0
   25.8041    5.9932   56.7587 C   0  0  2  0  0  0  0  0  0  0  0  0
   25.2160    6.2309   55.3262 C   0  0  2  0  0  0  0  0  0  0  0  0
   23.7279    6.1016   55.2807 N   0  3  0  0  0  0  0  0  0  0  0  0
   25.9109    5.2051   54.3698 C   0  0  1  0  0  0  0  0  0  0  0  0
   27.3543    5.5278   54.3569 O   0  0  0  0  0  0  0  0  0  0  0  0
   25.7298    3.7121   54.8487 C   0  0  2  0  0  0  0  0  0  0  0  0
   24.3313    3.3848   54.8052 O   0  0  0  0  0  0  0  0  0  0  0  0
   26.3165    3.5899   56.3160 C   0  0  1  0  0  0  0  0  0  0  0  0
   25.6117    4.5640   57.1572 O   0  0  0  0  0  0  0  0  0  0  0  0
   26.1982    2.1804   56.9391 C   0  0  0  0  0  0  0  0  0  0  0  0
   26.8205    2.0750   58.2868 N   0  3  0  0  0  0  0  0  0  0  0  0
  1  2  1  6  0  0  0
  1  3  1  0  0  0  0
  1 10  1  0  0  0  0
  3  4  1  6  0  0  0
  3  5  1  0  0  0  0
  5  6  1  1  0  0  0
  5  7  1  0  0  0  0
  7  8  1  6  0  0  0
  7  9  1  0  0  0  0
  9 10  1  0  0  0  0
  9 11  1  1  0  0  0
 11 12  1  0  0  0  0
 13 14  1  6  0  0  0
 13 15  1  0  0  0  0
 13 21  1  0  0  0  0
 15 16  1  0  0  0  0
 16 17  1  1  0  0  0
 16 18  1  0  0  0  0
 18  2  1  1  0  0  0
 18 19  1  0  0  0  0
 19 20  1  6  0  0  0
 19 21  1  0  0  0  0
 21 22  1  6  0  0  0
 23 20  1  1  0  0  0
 23 24  1  0  0  0  0
 23 29  1  0  0  0  0
 24 25  1  1  0  0  0
 24 26  1  0  0  0  0
 26 27  1  1  0  0  0
 26 28  1  0  0  0  0
 28 29  1  0  0  0  0
 28 30  1  1  0  0  0
 30 31  1  0  0  0  0
 32 27  1  1  0  0  0
 32 33  1  0  0  0  0
 32 40  1  0  0  0  0
 33 34  1  1  0  0  0
 33 35  1  0  0  0  0
 35 36  1  1  0  0  0
 35 37  1  0  0  0  0
 37 38  1  1  0  0  0
 37 39  1  0  0  0  0
 39 40  1  0  0  0  0
 39 41  1  1  0  0  0
 41 42  1  0  0  0  0
M  CHG  5   4   1  14   1  17   1  34   1  42   1
M  END
>  <CHROM.1>
-111.01629348,-87.66825918,-177.42627151,179.65494076,-51.92613784,-68.42894415
53.03560444,-55.30561206,175.71876682,131.23004492,49.32638226,-39.90346912
-177.69827949,-174.21214345,-63.69055825,-62.42337615,58.25128898,163.80238199
-60.35229150,176.45346279,176.94224657,71.78602464,25.71043756,7.72156938
60.21878220,3.12040758,1.50620699,-0.45534892

>  <Name>
1j7t

>  <RI>
0

>  <Rbt.Current_Directory>
/home/itssahil/PROJECTS/Mol_Feturizer/New_Systems/rnas/1j7t

>  <Rbt.Executable>
rbdock ($Id: //depot/dev/client3/rdock/2013.1/src/exe/rbdock.cxx#4 $)

>  <Rbt.Library>
libRbt.so (2013.1, Build901 2013/11/27)

>  <Rbt.Parameter_File>
/export/apps/rDock/src/rDock_2013.1_src/data/scripts/dock_solv.prm

>  <Rbt.Receptor>
prm/pocket_docking_8.prm

>  <SCORE>
-51.4262

>  <SCORE.INTER>
-34.8738

>  <SCORE.INTER.CONST>
1

>  <SCORE.INTER.POLAR>
-5.72691

>  <SCORE.INTER.ROT>
9

>  <SCORE.INTER.SOLV>
22.5262

>  <SCORE.INTER.VDW>
-21.2682

>  <SCORE.INTER.norm>
-0.830328

>  <SCORE.INTRA>
-17.0393

>  <SCORE.INTRA.DIHEDRAL>
-24.2957

>  <SCORE.INTRA.DIHEDRAL.0>
46.2143

>  <SCORE.INTRA.POLAR>
-1.10976

>  <SCORE.INTRA.POLAR.0>
-1.76436

>  <SCORE.INTRA.REPUL>
0

>  <SCORE.INTRA.REPUL.0>
0

>  <SCORE.INTRA.SOLV>
-1.8032

>  <SCORE.INTRA.SOLV.lig_0>
-148.643

>  <SCORE.INTRA.VDW>
-0.216684

>  <SCORE.INTRA.VDW.0>
-4.83512

>  <SCORE.INTRA.norm>
-0.405699

>  <SCORE.RESTR>
0.48696

>  <SCORE.RESTR.CAVITY>
0.48696

>  <SCORE.RESTR.norm>
0.0115943

>  <SCORE.SYSTEM>
0

>  <SCORE.SYSTEM.CONST>
0

>  <SCORE.SYSTEM.DIHEDRAL>
0

>  <SCORE.SYSTEM.SOLV>
0

>  <SCORE.SYSTEM.norm>
0

>  <SCORE.heavy>
42

>  <SCORE.norm>
-1.22443

>  <RMSD>
10.827

$$$$
1j7t
 OpenBabel11021811393D
libRbt.so/2013.1/901 2013/11/27
 42 45  0  0  0  0  0  0  0  0999 V2000
   23.4779    1.3465   57.5734 C   0  0  2  0  0  0  0  0  0  0  0  0
   22.1167    1.2405   57.0851 O   0  0  0  0  0  0  0  0  0  0  0  0
   23.8598   -0.0461   58.1520 C   0  0  2  0  0  0  0  0  0  0  0  0
   23.6503   -1.1849   57.2124 N   0  3  0  0  0  0  0  0  0  0  0  0
   22.9938   -0.2978   59.4056 C   0  0  1  0  0  0  0  0  0  0  0  0
   23.3065   -1.5350   59.9810 O   0  0  0  0  0  0  0  0  0  0  0  0
   23.1957    0.8456   60.4281 C   0  0  2  0  0  0  0  0  0  0  0  0
   22.4271    0.6234   61.5939 O   0  0  0  0  0  0  0  0  0  0  0  0
   22.7888    2.1661   59.8095 C   0  0  2  0  0  0  0  0  0  0  0  0
   23.5299    2.3729   58.6136 O   0  0  0  0  0  0  0  0  0  0  0  0
   23.0668    3.3515   60.7064 C   0  0  0  0  0  0  0  0  0  0  0  0
   24.4093    3.3024   61.1498 O   0  0  0  0  0  0  0  0  0  0  0  0
   19.9724    3.5552   54.2758 C   0  0  2  0  0  0  0  0  0  0  0  0
   19.2904    4.6843   53.6422 N   0  3  0  0  0  0  0  0  0  0  0  0
   19.2446    3.1702   55.6063 C   0  0  0  0  0  0  0  0  0  0  0  0
   19.9881    2.0135   56.3013 C   0  0  2  0  0  0  0  0  0  0  0  0
   19.3499    1.6751   57.5777 N   0  3  0  0  0  0  0  0  0  0  0  0
   21.4604    2.3957   56.5501 C   0  0  2  0  0  0  0  0  0  0  0  0
   22.1953    2.8065   55.2592 C   0  0  2  0  0  0  0  0  0  0  0  0
   23.4918    3.2795   55.6723 O   0  0  0  0  0  0  0  0  0  0  0  0
   21.4212    3.9370   54.5349 C   0  0  1  0  0  0  0  0  0  0  0  0
   22.0534    4.2217   53.3175 O   0  0  0  0  0  0  0  0  0  0  0  0
   23.7077    4.5490   56.2829 C   0  0  1  0  0  0  0  0  0  0  0  0
   25.2148    4.6469   56.7129 C   0  0  2  0  0  0  0  0  0  0  0  0
   25.4786    4.1326   58.0071 O   0  0  0  0  0  0  0  0  0  0  0  0
   25.3848    6.1538   56.5793 C   0  0  2  0  0  0  0  0  0  0  0  0
   24.6215    6.8621   57.6017 O   0  0  0  0  0  0  0  0  0  0  0  0
   24.7343    6.4455   55.2344 C   0  0  2  0  0  0  0  0  0  0  0  0
   23.5562    5.6252   55.3173 O   0  0  0  0  0  0  0  0  0  0  0  0
   25.6177    6.1087   53.9886 C   0  0  0  0  0  0  0  0  0  0  0  0
   25.9146    4.7087   53.9132 O   0  0  0  0  0  0  0  0  0  0  0  0
   25.3665    7.8612   58.2933 C   0  0  2  0  0  0  0  0  0  0  0  0
   24.6089    8.5324   59.4890 C   0  0  2  0  0  0  0  0  0  0  0  0
   23.3241    9.1741   59.0754 N   0  3  0  0  0  0  0  0  0  0  0  0
   25.5900    9.5713   60.1276 C   0  0  1  0  0  0  0  0  0  0  0  0
   26.7460    8.8142   60.6548 O   0  0  0  0  0  0  0  0  0  0  0  0
   26.1131   10.6319   59.0823 C   0  0  2  0  0  0  0  0  0  0  0  0
   24.9944   11.4034   58.6152 O   0  0  0  0  0  0  0  0  0  0  0  0
   26.8229    9.8508   57.8998 C   0  0  1  0  0  0  0  0  0  0  0  0
   25.8449    8.9107   57.3404 O   0  0  0  0  0  0  0  0  0  0  0  0
   27.3793   10.7549   56.7764 C   0  0  0  0  0  0  0  0  0  0  0  0
   27.6910   10.0166   55.5225 N   0  3  0  0  0  0  0  0  0  0  0  0
  1  2  1  1  0  0  0
  1  3  1  0  0  0  0
  1 10  1  0  0  0  0
  3  4  1  6  0  0  0
  3  5  1  0  0  0  0
  5  6  1  1  0  0  0
  5  7  1  0  0  0  0
  7  8  1  1  0  0  0
  7  9  1  0  0  0  0
  9 10  1  0  0  0  0
  9 11  1  1  0  0  0
 11 12  1  0  0  0  0
 13 14  1  1  0  0  0
 13 15  1  0  0  0  0
 13 21  1  0  0  0  0
 15 16  1  0  0  0  0
 16 17  1  1  0  0  0
 16 18  1  0  0  0  0
 18  2  1  6  0  0  0
 18 19  1  0  0  0  0
 19 20  1  1  0  0  0
 19 21  1  0  0  0  0
 21 22  1  6  0  0  0
 23 20  1  6  0  0  0
 23 24  1  0  0  0  0
 23 29  1  0  0  0  0
 24 25  1  1  0  0  0
 24 26  1  0  0  0  0
 26 27  1  1  0  0  0
 26 28  1  0  0  0  0
 28 29  1  0  0  0  0
 28 30  1  6  0  0  0
 30 31  1  0  0  0  0
 32 27  1  6  0  0  0
 32 33  1  0  0  0  0
 32 40  1  0  0  0  0
 33 34  1  6  0  0  0
 33 35  1  0  0  0  0
 35 36  1  6  0  0  0
 35 37  1  0  0  0  0
 37 38  1  6  0  0  0
 37 39  1  0  0  0  0
 39 40  1  0  0  0  0
 39 41  1  6  0  0  0
 41 42  1  0  0  0  0
M  CHG  5   4   1  14   1  17   1  34   1  42   1
M  END
>  <CHROM.1>
176.89952172,-172.41657246,57.52746466,62.91749161,65.12823199,51.16630743
-178.76144906,-59.59636367,-65.91160157,-75.42106209,174.59896666,-66.64914388
43.19668567,131.35732593,-174.17438255,62.84016430,-173.84731895,-83.32824921
60.49134854,176.77113450,-163.86092663,-22.92222190,23.72257288,4.72459725
57.40783805,-2.48056489,-1.00358301,-0.82155840

>  <Name>
1j7t

>  <RI>
0

>  <Rbt.Current_Directory>
/home/itssahil/PROJECTS/Mol_Feturizer/New_Systems/rnas/1j7t

>  <Rbt.Executable>
rbdock ($Id: //depot/dev/client3/rdock/2013.1/src/exe/rbdock.cxx#4 $)

>  <Rbt.Library>
libRbt.so (2013.1, Build901 2013/11/27)

>  <Rbt.Parameter_File>
/export/apps/rDock/src/rDock_2013.1_src/data/scripts/dock_solv.prm

>  <Rbt.Receptor>
prm/pocket_docking_8.prm

>  <SCORE>
-44.1398

>  <SCORE.INTER>
-25.1642

>  <SCORE.INTER.CONST>
1

>  <SCORE.INTER.POLAR>
-4.85846

>  <SCORE.INTER.ROT>
9

>  <SCORE.INTER.SOLV>
21.4869

>  <SCORE.INTER.VDW>
-17.3435

>  <SCORE.INTER.norm>
-0.599147

>  <SCORE.INTRA>
-18.9756

>  <SCORE.INTRA.DIHEDRAL>
-30.7273

>  <SCORE.INTRA.DIHEDRAL.0>
46.2143

>  <SCORE.INTRA.POLAR>
-0.146252

>  <SCORE.INTRA.POLAR.0>
-1.76436

>  <SCORE.INTRA.REPUL>
0

>  <SCORE.INTRA.REPUL.0>
0

>  <SCORE.INTRA.SOLV>
-4.24977

>  <SCORE.INTRA.SOLV.lig_0>
-148.643

>  <SCORE.INTRA.VDW>
-0.989787

>  <SCORE.INTRA.VDW.0>
-4.83512

>  <SCORE.INTRA.norm>
-0.4518

>  <SCORE.RESTR>
0

>  <SCORE.RESTR.CAVITY>
0

>  <SCORE.RESTR.norm>
0

>  <SCORE.SYSTEM>
0

>  <SCORE.SYSTEM.CONST>
0

>  <SCORE.SYSTEM.DIHEDRAL>
0

>  <SCORE.SYSTEM.SOLV>
0

>  <SCORE.SYSTEM.norm>
0

>  <SCORE.heavy>
42

>  <SCORE.norm>
-1.05095

>  <RMSD>
10.846

$$$$
1j7t
 OpenBabel11021811393D
libRbt.so/2013.1/901 2013/11/27
 42 45  0  0  0  0  0  0  0  0999 V2000
   26.2551   11.0877   43.5212 C   0  0  2  0  0  0  0  0  0  0  0  0
   27.4595   11.1194   44.3279 O   0  0  0  0  0  0  0  0  0  0  0  0
   25.9979    9.5986   43.1519 C   0  0  2  0  0  0  0  0  0  0  0  0
   25.9594    8.6699   44.3179 N   0  3  0  0  0  0  0  0  0  0  0  0
   27.1322    9.1355   42.2118 C   0  0  1  0  0  0  0  0  0  0  0  0
   26.9442    7.8015   41.8316 O   0  0  0  0  0  0  0  0  0  0  0  0
   27.1980   10.0529   40.9678 C   0  0  2  0  0  0  0  0  0  0  0  0
   28.2173    9.6328   40.0825 O   0  0  0  0  0  0  0  0  0  0  0  0
   27.4686   11.4798   41.3952 C   0  0  2  0  0  0  0  0  0  0  0  0
   26.4686   11.8915   42.3185 O   0  0  0  0  0  0  0  0  0  0  0  0
   27.4313   12.4604   40.2445 C   0  0  0  0  0  0  0  0  0  0  0  0
   26.1489   12.4381   39.6476 O   0  0  0  0  0  0  0  0  0  0  0  0
   28.8446   15.0960   43.9874 C   0  0  2  0  0  0  0  0  0  0  0  0
   29.3926   16.4075   44.3353 N   0  3  0  0  0  0  0  0  0  0  0  0
   27.5019   14.8578   44.7547 C   0  0  0  0  0  0  0  0  0  0  0  0
   26.9466   13.4581   44.4288 C   0  0  2  0  0  0  0  0  0  0  0  0
   25.7153   13.1968   45.1816 N   0  3  0  0  0  0  0  0  0  0  0  0
   27.9915   12.3757   44.7639 C   0  0  2  0  0  0  0  0  0  0  0  0
   29.3346   12.6009   44.0425 C   0  0  2  0  0  0  0  0  0  0  0  0
   30.2415   11.6148   44.5722 O   0  0  0  0  0  0  0  0  0  0  0  0
   29.8691   14.0266   44.3316 C   0  0  1  0  0  0  0  0  0  0  0  0
   31.0358   14.2412   43.5861 O   0  0  0  0  0  0  0  0  0  0  0  0
   30.7357   11.6386   45.9088 C   0  0  1  0  0  0  0  0  0  0  0  0
   31.3586   13.0532   46.1860 C   0  0  2  0  0  0  0  0  0  0  0  0
   32.7248   13.1612   45.8243 O   0  0  0  0  0  0  0  0  0  0  0  0
   31.0883   13.1238   47.6824 C   0  0  2  0  0  0  0  0  0  0  0  0
   31.9117   12.1647   48.4117 O   0  0  0  0  0  0  0  0  0  0  0  0
   29.6422   12.6592   47.7830 C   0  0  2  0  0  0  0  0  0  0  0  0
   29.6479   11.5490   46.8691 O   0  0  0  0  0  0  0  0  0  0  0  0
   28.5756   13.7410   47.4117 C   0  0  0  0  0  0  0  0  0  0  0  0
   27.2407   13.2531   47.5956 O   0  0  0  0  0  0  0  0  0  0  0  0
   31.2880   11.6341   49.5783 C   0  0  2  0  0  0  0  0  0  0  0  0
   32.2783   11.0459   50.6401 C   0  0  2  0  0  0  0  0  0  0  0  0
   33.1402    9.9563   50.0893 N   0  3  0  0  0  0  0  0  0  0  0  0
   31.4135   10.5411   51.8430 C   0  0  1  0  0  0  0  0  0  0  0  0
   30.7354   11.7221   52.4200 O   0  0  0  0  0  0  0  0  0  0  0  0
   30.3185    9.4927   51.4035 C   0  0  2  0  0  0  0  0  0  0  0  0
   30.9826    8.3237   50.8963 O   0  0  0  0  0  0  0  0  0  0  0  0
   29.3999   10.1701   50.3038 C   0  0  1  0  0  0  0  0  0  0  0  0
   30.2707   10.6026   49.2048 O   0  0  0  0  0  0  0  0  0  0  0  0
   28.2791    9.2589   49.7538 C   0  0  0  0  0  0  0  0  0  0  0  0
   28.0261    8.0582   50.5957 N   0  3  0  0  0  0  0  0  0  0  0  0
  1  2  1  1  0  0  0
  1  3  1  0  0  0  0
  1 10  1  0  0  0  0
  3  4  1  1  0  0  0
  3  5  1  0  0  0  0
  5  6  1  6  0  0  0
  5  7  1  0  0  0  0
  7  8  1  6  0  0  0
  7  9  1  0  0  0  0
  9 10  1  0  0  0  0
  9 11  1  6  0  0  0
 11 12  1  0  0  0  0
 13 14  1  1  0  0  0
 13 15  1  0  0  0  0
 13 21  1  0  0  0  0
 15 16  1  0  0  0  0
 16 17  1  1  0  0  0
 16 18  1  0  0  0  0
 18  2  1  6  0  0  0
 18 19  1  0  0  0  0
 19 20  1  1  0  0  0
 19 21  1  0  0  0  0
 21 22  1  6  0  0  0
 23 20  1  6  0  0  0
 23 24  1  0  0  0  0
 23 29  1  0  0  0  0
 24 25  1  1  0  0  0
 24 26  1  0  0  0  0
 26 27  1  1  0  0  0
 26 28  1  0  0  0  0
 28 29  1  0  0  0  0
 28 30  1  6  0  0  0
 30 31  1  0  0  0  0
 32 27  1  6  0  0  0
 32 33  1  0  0  0  0
 32 40  1  0  0  0  0
 33 34  1  6  0  0  0
 33 35  1  0  0  0  0
 35 36  1  6  0  0  0
 35 37  1  0  0  0  0
 37 38  1  6  0  0  0
 37 39  1  0  0  0  0
 39 40  1  0  0  0  0
 39 41  1  6  0  0  0
 41 42  1  0  0  0  0
M  CHG  5   4   1  14   1  17   1  34   1  42   1
M  END
>  <CHROM.1>
176.74441126,9.52964853,36.59737636,-61.27201067,54.10642229,60.53976801
70.28483103,-155.51759436,145.12902070,-69.02907512,-52.85233169,149.61554920
43.03357803,-147.46745485,-158.49692289,-177.01984097,69.87957799,65.46745310
-49.10606461,65.56477173,15.60092052,-170.98222072,29.01255612,11.59757340
45.91750000,2.33007872,-0.95595724,-0.79814890

>  <Name>
1j7t

>  <RI>
0

>  <Rbt.Current_Directory>
/home/itssahil/PROJECTS/Mol_Feturizer/New_Systems/rnas/1j7t

>  <Rbt.Executable>
rbdock ($Id: //depot/dev/client3/rdock/2013.1/src/exe/rbdock.cxx#4 $)

>  <Rbt.Library>
libRbt.so (2013.1, Build901 2013/11/27)

>  <Rbt.Parameter_File>
/export/apps/rDock/src/rDock_2013.1_src/data/scripts/dock_solv.prm

>  <Rbt.Receptor>
prm/blind_docking_60.prm

>  <SCORE>
15.4445

>  <SCORE.INTER>
-32.8121

>  <SCORE.INTER.CONST>
1

>  <SCORE.INTER.POLAR>
-7.04687

>  <SCORE.INTER.ROT>
9

>  <SCORE.INTER.SOLV>
36.5667

>  <SCORE.INTER.VDW>
-20.1741

>  <SCORE.INTER.norm>
-0.781241

>  <SCORE.INTRA>
10.1182

>  <SCORE.INTRA.DIHEDRAL>
-15.9179

>  <SCORE.INTRA.DIHEDRAL.0>
46.2143

>  <SCORE.INTRA.POLAR>
0.526769

>  <SCORE.INTRA.POLAR.0>
-1.76436

>  <SCORE.INTRA.REPUL>
0

>  <SCORE.INTRA.REPUL.0>
0

>  <SCORE.INTRA.SOLV>
2.72127

>  <SCORE.INTRA.SOLV.lig_0>
-148.643

>  <SCORE.INTRA.VDW>
14.9255

>  <SCORE.INTRA.VDW.0>
-4.83512

>  <SCORE.INTRA.norm>
0.24091

>  <SCORE.RESTR>
38.1384

>  <SCORE.RESTR.CAVITY>
38.1384

>  <SCORE.RESTR.norm>
0.908056

>  <SCORE.SYSTEM>
0

>  <SCORE.SYSTEM.CONST>
0

>  <SCORE.SYSTEM.DIHEDRAL>
0

>  <SCORE.SYSTEM.SOLV>
0

>  <SCORE.SYSTEM.norm>
0

>  <SCORE.heavy>
42

>  <SCORE.norm>
0.367726

>  <RMSD>
11.381

$$$$
1j7t
 OpenBabel11021811393D
libRbt.so/2013.1/901 2013/11/27
 42 45  0  0  0  0  0  0  0  0999 V2000
   26.3354   11.7587   43.7326 C   0  0  2  0  0  0  0  0  0  0  0  0
   26.9862   11.5933   45.0178 O   0  0  0  0  0  0  0  0  0  0  0  0
   24.8341   11.4069   43.9381 C   0  0  2  0  0  0  0  0  0  0  0  0
   24.1693   12.1546   45.0439 N   0  3  0  0  0  0  0  0  0  0  0  0
   24.7347    9.8990   44.2560 C   0  0  1  0  0  0  0  0  0  0  0  0
   23.3992    9.5197   44.4357 O   0  0  0  0  0  0  0  0  0  0  0  0
   25.3881    9.0736   43.1223 C   0  0  2  0  0  0  0  0  0  0  0  0
   25.2888    7.6876   43.3836 O   0  0  0  0  0  0  0  0  0  0  0  0
   26.8483    9.4502   42.9884 C   0  0  2  0  0  0  0  0  0  0  0  0
   26.9540   10.8509   42.7676 O   0  0  0  0  0  0  0  0  0  0  0  0
   27.5309    8.7712   41.8222 C   0  0  0  0  0  0  0  0  0  0  0  0
   27.0054    9.2757   40.6096 O   0  0  0  0  0  0  0  0  0  0  0  0
   30.8877   13.0541   44.3159 C   0  0  2  0  0  0  0  0  0  0  0  0
   32.1704   13.7308   44.5112 N   0  3  0  0  0  0  0  0  0  0  0  0
   29.7210   14.0955   44.3699 C   0  0  0  0  0  0  0  0  0  0  0  0
   28.3652   13.3807   44.2135 C   0  0  2  0  0  0  0  0  0  0  0  0
   27.2569   14.3357   44.3155 N   0  3  0  0  0  0  0  0  0  0  0  0
   28.2053   12.2928   45.2936 C   0  0  2  0  0  0  0  0  0  0  0  0
   29.3562   11.2679   45.2816 C   0  0  2  0  0  0  0  0  0  0  0  0
   29.1496   10.4236   46.4304 O   0  0  0  0  0  0  0  0  0  0  0  0
   30.7227   11.9909   45.3901 C   0  0  1  0  0  0  0  0  0  0  0  0
   31.7530   11.0484   45.2757 O   0  0  0  0  0  0  0  0  0  0  0  0
   29.6937   10.7011   47.7181 C   0  0  1  0  0  0  0  0  0  0  0  0
   28.5888   11.4010   48.5872 C   0  0  2  0  0  0  0  0  0  0  0  0
   28.5551   12.8112   48.4484 O   0  0  0  0  0  0  0  0  0  0  0  0
   29.0376   10.9060   49.9550 C   0  0  2  0  0  0  0  0  0  0  0  0
   30.3073   11.5117   50.3432 O   0  0  0  0  0  0  0  0  0  0  0  0
   29.2904    9.4253   49.7080 C   0  0  2  0  0  0  0  0  0  0  0  0
   29.9723    9.4721   48.4429 O   0  0  0  0  0  0  0  0  0  0  0  0
   28.0049    8.5355   49.6683 C   0  0  0  0  0  0  0  0  0  0  0  0
   27.4070    8.4111   50.9648 O   0  0  0  0  0  0  0  0  0  0  0  0
   31.1113   11.9285   49.2425 C   0  0  2  0  0  0  0  0  0  0  0  0
   32.6531   11.7464   49.4520 C   0  0  2  0  0  0  0  0  0  0  0  0
   33.1665   12.4767   50.6506 N   0  3  0  0  0  0  0  0  0  0  0  0
   33.3543   12.2323   48.1398 C   0  0  1  0  0  0  0  0  0  0  0  0
   32.9082   11.3386   47.0490 O   0  0  0  0  0  0  0  0  0  0  0  0
   32.9747   13.7178   47.7650 C   0  0  2  0  0  0  0  0  0  0  0  0
   33.4603   14.5885   48.7998 O   0  0  0  0  0  0  0  0  0  0  0  0
   31.3989   13.8022   47.6174 C   0  0  1  0  0  0  0  0  0  0  0  0
   30.8109   13.3494   48.8833 O   0  0  0  0  0  0  0  0  0  0  0  0
   30.8617   15.2083   47.2660 C   0  0  0  0  0  0  0  0  0  0  0  0
   29.6349   15.5791   48.0223 N   0  3  0  0  0  0  0  0  0  0  0  0
  1  2  1  1  0  0  0
  1  3  1  0  0  0  0
  1 10  1  0  0  0  0
  3  4  1  1  0  0  0
  3  5  1  0  0  0  0
  5  6  1  6  0  0  0
  5  7  1  0  0  0  0
  7  8  1  1  0  0  0
  7  9  1  0  0  0  0
  9 10  1  0  0  0  0
  9 11  1  6  0  0  0
 11 12  1  0  0  0  0
 13 14  1  1  0  0  0
 13 15  1  0  0  0  0
 13 21  1  0  0  0  0
 15 16  1  0  0  0  0
 16 17  1  1  0  0  0
 16 18  1  0  0  0  0
 18  2  1  6  0  0  0
 18 19  1  0  0  0  0
 19 20  1  1  0  0  0
 19 21  1  0  0  0  0
 21 22  1  6  0  0  0
 23 20  1  6  0  0  0
 23 24  1  0  0  0  0
 23 29  1  0  0  0  0
 24 25  1  1  0  0  0
 24 26  1  0  0  0  0
 26 27  1  6  0  0  0
 26 28  1  0  0  0  0
 28 29  1  0  0  0  0
 28 30  1  6  0  0  0
 30 31  1  0  0  0  0
 32 27  1  1  0  0  0
 32 33  1  0  0  0  0
 32 40  1  0  0  0  0
 33 34  1  1  0  0  0
 33 35  1  0  0  0  0
 35 36  1  6  0  0  0
 35 37  1  0  0  0  0
 37 38  1  1  0  0  0
 37 39  1  0  0  0  0
 39 40  1  0  0  0  0
 39 41  1  1  0  0  0
 41 42  1  0  0  0  0
M  CHG  5   4   1  14   1  17   1  34   1  42   1
M  END
>  <CHROM.1>
-156.60745520,14.15556626,-150.35703777,110.14511264,68.08364036,68.04111119
-179.07366695,-53.39251561,99.29782719,-89.71735315,97.66375179,-29.19178111
86.94535871,-25.47271863,-144.25550489,-70.08438172,176.63536252,-57.77822423
-33.70457422,-177.45914257,-138.01598161,-41.74037863,29.03781628,11.58338432
46.36748928,-2.68130586,0.65825908,2.00263939

>  <Name>
1j7t

>  <RI>
0

>  <Rbt.Current_Directory>
/home/itssahil/PROJECTS/Mol_Feturizer/New_Systems/rnas/1j7t

>  <Rbt.Executable>
rbdock ($Id: //depot/dev/client3/rdock/2013.1/src/exe/rbdock.cxx#4 $)

>  <Rbt.Library>
libRbt.so (2013.1, Build901 2013/11/27)

>  <Rbt.Parameter_File>
/export/apps/rDock/src/rDock_2013.1_src/data/scripts/dock_solv.prm

>  <Rbt.Receptor>
prm/blind_docking_60.prm

>  <SCORE>
74.2955

>  <SCORE.INTER>
13.2981

>  <SCORE.INTER.CONST>
1

>  <SCORE.INTER.POLAR>
-3.32382

>  <SCORE.INTER.ROT>
9

>  <SCORE.INTER.SOLV>
26.0801

>  <SCORE.INTER.VDW>
1.65139

>  <SCORE.INTER.norm>
0.31662

>  <SCORE.INTRA>
32.4338

>  <SCORE.INTRA.DIHEDRAL>
6.93231

>  <SCORE.INTRA.DIHEDRAL.0>
46.2143

>  <SCORE.INTRA.POLAR>
-0.0695501

>  <SCORE.INTRA.POLAR.0>
-1.76436

>  <SCORE.INTRA.REPUL>
0.461015

>  <SCORE.INTRA.REPUL.0>
0

>  <SCORE.INTRA.SOLV>
8.29799

>  <SCORE.INTRA.SOLV.lig_0>
-148.643

>  <SCORE.INTRA.VDW>
22.75

>  <SCORE.INTRA.VDW.0>
-4.83512

>  <SCORE.INTRA.norm>
0.772233

>  <SCORE.RESTR>
28.5636

>  <SCORE.RESTR.CAVITY>
28.5636

>  <SCORE.RESTR.norm>
0.680086

>  <SCORE.SYSTEM>
0

>  <SCORE.SYSTEM.CONST>
0

>  <SCORE.SYSTEM.DIHEDRAL>
0

>  <SCORE.SYSTEM.SOLV>
0

>  <SCORE.SYSTEM.norm>
0

>  <SCORE.heavy>
42

>  <SCORE.norm>
1.76894

>  <RMSD>
11.545

$$$$
1j7t
 OpenBabel11021811393D
libRbt.so/2013.1/901 2013/11/27
 42 45  0  0  0  0  0  0  0  0999 V2000
   29.5897   10.2961   50.6171 C   0  0  2  0  0  0  0  0  0  0  0  0
   30.9839   10.6063   50.3673 O   0  0  0  0  0  0  0  0  0  0  0  0
   29.4683    9.9479   52.1284 C   0  0  2  0  0  0  0  0  0  0  0  0
   30.0233   10.9822   53.0480 N   0  3  0  0  0  0  0  0  0  0  0  0
   30.2320    8.6292   52.3789 C   0  0  1  0  0  0  0  0  0  0  0  0
   30.1435    8.2559   53.7251 O   0  0  0  0  0  0  0  0  0  0  0  0
   29.6747    7.5117   51.4655 C   0  0  2  0  0  0  0  0  0  0  0  0
   30.3466    6.2889   51.6944 O   0  0  0  0  0  0  0  0  0  0  0  0
   29.8406    7.9048   50.0129 C   0  0  2  0  0  0  0  0  0  0  0  0
   29.2019    9.1553   49.7887 O   0  0  0  0  0  0  0  0  0  0  0  0
   29.2133    6.9159   49.0560 C   0  0  0  0  0  0  0  0  0  0  0  0
   28.1825    6.2084   49.7179 O   0  0  0  0  0  0  0  0  0  0  0  0
   32.5097   13.7776   48.0300 C   0  0  2  0  0  0  0  0  0  0  0  0
   32.9095   14.5786   46.8724 N   0  3  0  0  0  0  0  0  0  0  0  0
   33.3237   12.4416   48.0615 C   0  0  0  0  0  0  0  0  0  0  0  0
   32.8712   11.5735   49.2511 C   0  0  2  0  0  0  0  0  0  0  0  0
   33.5866   10.2932   49.2649 N   0  3  0  0  0  0  0  0  0  0  0  0
   31.3541   11.3119   49.1771 C   0  0  2  0  0  0  0  0  0  0  0  0
   30.5279   12.6115   49.1170 C   0  0  2  0  0  0  0  0  0  0  0  0
   29.1636   12.2062   48.8940 O   0  0  0  0  0  0  0  0  0  0  0  0
   31.0158   13.5066   47.9496 C   0  0  1  0  0  0  0  0  0  0  0  0
   30.3191   14.7218   47.9786 O   0  0  0  0  0  0  0  0  0  0  0  0
   28.7427   11.4522   47.7601 C   0  0  1  0  0  0  0  0  0  0  0  0
   28.4760   12.4436   46.5718 C   0  0  2  0  0  0  0  0  0  0  0  0
   27.1585   12.9655   46.5425 O   0  0  0  0  0  0  0  0  0  0  0  0
   28.8154   11.5058   45.4218 C   0  0  2  0  0  0  0  0  0  0  0  0
   27.8224   10.4435   45.2984 O   0  0  0  0  0  0  0  0  0  0  0  0
   30.1175   10.8672   45.8846 C   0  0  2  0  0  0  0  0  0  0  0  0
   29.8179   10.6073   47.2668 O   0  0  0  0  0  0  0  0  0  0  0  0
   31.3897   11.7578   45.6999 C   0  0  0  0  0  0  0  0  0  0  0  0
   31.3549   12.4804   44.4628 O   0  0  0  0  0  0  0  0  0  0  0  0
   27.4008   10.1968   43.9594 C   0  0  2  0  0  0  0  0  0  0  0  0
   26.5835   11.3623   43.3052 C   0  0  2  0  0  0  0  0  0  0  0  0
   25.3532   11.7136   44.0775 N   0  3  0  0  0  0  0  0  0  0  0  0
   26.2371   10.9158   41.8456 C   0  0  1  0  0  0  0  0  0  0  0  0
   27.5168   10.7597   41.1208 O   0  0  0  0  0  0  0  0  0  0  0  0
   25.4589    9.5433   41.8010 C   0  0  2  0  0  0  0  0  0  0  0  0
   24.1917    9.7150   42.4564 O   0  0  0  0  0  0  0  0  0  0  0  0
   26.3492    8.4475   42.5211 C   0  0  1  0  0  0  0  0  0  0  0  0
   26.6206    8.9225   43.8827 O   0  0  0  0  0  0  0  0  0  0  0  0
   25.7139    7.0396   42.5766 C   0  0  0  0  0  0  0  0  0  0  0  0
   24.4757    6.9811   43.4000 N   0  3  0  0  0  0  0  0  0  0  0  0
  1  2  1  1  0  0  0
  1  3  1  0  0  0  0
  1 10  1  0  0  0  0
  3  4  1  1  0  0  0
  3  5  1  0  0  0  0
  5  6  1  1  0  0  0
  5  7  1  0  0  0  0
  7  8  1  6  0  0  0
  7  9  1  0  0  0  0
  9 10  1  0  0  0  0
  9 11  1  6  0  0  0
 11 12  1  0  0  0  0
 13 14  1  6  0  0  0
 13 15  1  0  0  0  0
 13 21  1  0  0  0  0
 15 16  1  0  0  0  0
 16 17  1  6  0  0  0
 16 18  1  0  0  0  0
 18  2  1  1  0  0  0
 18 19  1  0  0  0  0
 19 20  1  6  0  0  0
 19 21  1  0  0  0  0
 21 22  1  1  0  0  0
 23 20  1  1  0  0  0
 23 24  1  0  0  0  0
 23 29  1  0  0  0  0
 24 25  1  6  0  0  0
 24 26  1  0  0  0  0
 26 27  1  1  0  0  0
 26 28  1  0  0  0  0
 28 29  1  0  0  0  0
 28 30  1  1  0  0  0
 30 31  1  0  0  0  0
 32 27  1  1  0  0  0
 32 33  1  0  0  0  0
 32 40  1  0  0  0  0
 33 34  1  1  0  0  0
 33 35  1  0  0  0  0
 35 36  1  6  0  0  0
 35 37  1  0  0  0  0
 37 38  1  1  0  0  0
 37 39  1  0  0  0  0
 39 40  1  0  0  0  0
 39 41  1  1  0  0  0
 41 42  1  0  0  0  0
M  CHG  5   4   1  14   1  17   1  34   1  42   1
M  END
>  <CHROM.1>
-162.85185151,176.07077044,59.92021945,70.49267183,74.37665508,24.52600468
78.69969643,-57.51488307,-171.62408282,-59.29470252,-84.54612110,-56.60158234
68.42456173,135.11418687,-67.23479752,-39.51671537,73.54534017,-64.85511553
-49.98711357,77.49545299,-64.90946507,43.30773964,29.11696522,10.46699887
47.25883347,0.73097530,0.81679920,2.22618849

>  <Name>
1j7t

>  <RI>
0

>  <Rbt.Current_Directory>
/home/itssahil/PROJECTS/Mol_Feturizer/New_Systems/rnas/1j7t

>  <Rbt.Executable>
rbdock ($Id: //depot/dev/client3/rdock/2013.1/src/exe/rbdock.cxx#4 $)

>  <Rbt.Library>
libRbt.so (2013.1, Build901 2013/11/27)

>  <Rbt.Parameter_File>
/export/apps/rDock/src/rDock_2013.1_src/data/scripts/dock_solv.prm

>  <Rbt.Receptor>
prm/blind_docking_60.prm

>  <SCORE>
6.3864

>  <SCORE.INTER>
-13.6594

>  <SCORE.INTER.CONST>
1

>  <SCORE.INTER.POLAR>
-2.30308

>  <SCORE.INTER.ROT>
9

>  <SCORE.INTER.SOLV>
23.5512

>  <SCORE.INTER.VDW>
-18.8798

>  <SCORE.INTER.norm>
-0.325224

>  <SCORE.INTRA>
-9.75042

>  <SCORE.INTRA.DIHEDRAL>
-23.5994

>  <SCORE.INTRA.DIHEDRAL.0>
46.2143

>  <SCORE.INTRA.POLAR>
-0.0649613

>  <SCORE.INTRA.POLAR.0>
-1.76436

>  <SCORE.INTRA.REPUL>
0

>  <SCORE.INTRA.REPUL.0>
0

>  <SCORE.INTRA.SOLV>
1.26928

>  <SCORE.INTRA.SOLV.lig_0>
-148.643

>  <SCORE.INTRA.VDW>
1.63548

>  <SCORE.INTRA.VDW.0>
-4.83512

>  <SCORE.INTRA.norm>
-0.232153

>  <SCORE.RESTR>
29.7962

>  <SCORE.RESTR.CAVITY>
29.7962

>  <SCORE.RESTR.norm>
0.709434

>  <SCORE.SYSTEM>
0

>  <SCORE.SYSTEM.CONST>
0

>  <SCORE.SYSTEM.DIHEDRAL>
0

>  <SCORE.SYSTEM.SOLV>
0

>  <SCORE.SYSTEM.norm>
0

>  <SCORE.heavy>
42

>  <SCORE.norm>
0.152057

>  <RMSD>
11.560

$$$$
1j7t
 OpenBabel11021811393D
libRbt.so/2013.1/901 2013/11/27
 42 45  0  0  0  0  0  0  0  0999 V2000
   30.9424   10.6865   50.8405 C   0  0  2  0  0  0  0  0  0  0  0  0
   31.9110   10.5803   49.7666 O   0  0  0  0  0  0  0  0  0  0  0  0
   31.4527    9.7832   51.9997 C   0  0  2  0  0  0  0  0  0  0  0  0
   32.8532   10.0611   52.4299 N   0  3  0  0  0  0  0  0  0  0  0  0
   31.3820    8.3141   51.5288 C   0  0  1  0  0  0  0  0  0  0  0  0
   31.8157    7.4501   52.5412 O   0  0  0  0  0  0  0  0  0  0  0  0
   29.9386    7.9648   51.0952 C   0  0  2  0  0  0  0  0  0  0  0  0
   29.8472    6.6163   50.6801 O   0  0  0  0  0  0  0  0  0  0  0  0
   29.5124    8.8651   49.9551 C   0  0  2  0  0  0  0  0  0  0  0  0
   29.6433   10.2235   50.3548 O   0  0  0  0  0  0  0  0  0  0  0  0
   28.0689    8.6658   49.5504 C   0  0  0  0  0  0  0  0  0  0  0  0
   27.2681    8.5357   50.7092 O   0  0  0  0  0  0  0  0  0  0  0  0
   32.4265   14.3398   47.9095 C   0  0  2  0  0  0  0  0  0  0  0  0
   32.4439   15.3935   46.8943 N   0  3  0  0  0  0  0  0  0  0  0  0
   33.4022   13.1873   47.4995 C   0  0  0  0  0  0  0  0  0  0  0  0
   33.3503   12.0534   48.5414 C   0  0  2  0  0  0  0  0  0  0  0  0
   34.2192   10.9403   48.1451 N   0  3  0  0  0  0  0  0  0  0  0  0
   31.9055   11.5423   48.7054 C   0  0  2  0  0  0  0  0  0  0  0  0
   30.9167   12.6626   49.0827 C   0  0  2  0  0  0  0  0  0  0  0  0
   29.6058   12.0664   49.0442 O   0  0  0  0  0  0  0  0  0  0  0  0
   31.0040   13.8248   48.0612 C   0  0  1  0  0  0  0  0  0  0  0  0
   30.1716   14.8707   48.4810 O   0  0  0  0  0  0  0  0  0  0  0  0
   29.0227   11.5249   47.8619 C   0  0  1  0  0  0  0  0  0  0  0  0
   28.5213   12.7112   46.9634 C   0  0  2  0  0  0  0  0  0  0  0  0
   27.2011   13.1362   47.2556 O   0  0  0  0  0  0  0  0  0  0  0  0
   28.6905   12.0457   45.6048 C   0  0  2  0  0  0  0  0  0  0  0  0
   27.7286   10.9629   45.4259 O   0  0  0  0  0  0  0  0  0  0  0  0
   30.0741   11.4197   45.7094 C   0  0  2  0  0  0  0  0  0  0  0  0
   30.0258   10.8709   47.0376 O   0  0  0  0  0  0  0  0  0  0  0  0
   31.2639   12.4150   45.5104 C   0  0  0  0  0  0  0  0  0  0  0  0
   31.2651   12.9822   44.1943 O   0  0  0  0  0  0  0  0  0  0  0  0
   27.4540   10.6508   44.0626 C   0  0  2  0  0  0  0  0  0  0  0  0
   26.3819   11.5696   43.3838 C   0  0  2  0  0  0  0  0  0  0  0  0
   25.0674   11.5509   44.0945 N   0  3  0  0  0  0  0  0  0  0  0  0
   26.2397   11.0893   41.9010 C   0  0  1  0  0  0  0  0  0  0  0  0
   27.5464   11.3079   41.2434 O   0  0  0  0  0  0  0  0  0  0  0  0
   25.8680    9.5591   41.7932 C   0  0  2  0  0  0  0  0  0  0  0  0
   24.5725    9.3610   42.3824 O   0  0  0  0  0  0  0  0  0  0  0  0
   26.9882    8.7252   42.5428 C   0  0  1  0  0  0  0  0  0  0  0  0
   27.0551    9.2155   43.9243 O   0  0  0  0  0  0  0  0  0  0  0  0
   26.7587    7.1967   42.5422 C   0  0  0  0  0  0  0  0  0  0  0  0
   25.6510    6.7642   43.4369 N   0  3  0  0  0  0  0  0  0  0  0  0
  1  2  1  6  0  0  0
  1  3  1  0  0  0  0
  1 10  1  0  0  0  0
  3  4  1  6  0  0  0
  3  5  1  0  0  0  0
  5  6  1  1  0  0  0
  5  7  1  0  0  0  0
  7  8  1  6  0  0  0
  7  9  1  0  0  0  0
  9 10  1  0  0  0  0
  9 11  1  1  0  0  0
 11 12  1  0  0  0  0
 13 14  1  6  0  0  0
 13 15  1  0  0  0  0
 13 21  1  0  0  0  0
 15 16  1  0  0  0  0
 16 17  1  6  0  0  0
 16 18  1  0  0  0  0
 18  2  1  1  0  0  0
 18 19  1  0  0  0  0
 19 20  1  6  0  0  0
 19 21  1  0  0  0  0
 21 22  1  1  0  0  0
 23 20  1  1  0  0  0
 23 24  1  0  0  0  0
 23 29  1  0  0  0  0
 24 25  1  1  0  0  0
 24 26  1  0  0  0  0
 26 27  1  1  0  0  0
 26 28  1  0  0  0  0
 28 29  1  0  0  0  0
 28 30  1  1  0  0  0
 30 31  1  0  0  0  0
 32 27  1  1  0  0  0
 32 33  1  0  0  0  0
 32 40  1  0  0  0  0
 33 34  1  1  0  0  0
 33 35  1  0  0  0  0
 35 36  1  6  0  0  0
 35 37  1  0  0  0  0
 37 38  1  1  0  0  0
 37 39  1  0  0  0  0
 39 40  1  0  0  0  0
 39 41  1  1  0  0  0
 41 42  1  0  0  0  0
M  CHG  5   4   1  14   1  17   1  34   1  42   1
M  END
>  <CHROM.1>
-164.20637732,130.01171565,173.81456430,-60.24004222,-174.86718968,42.17893031
-152.78129958,-37.94309494,-112.06127532,-62.56401031,-76.66452096,-53.40588425
54.73870343,156.48661832,-83.01349405,-63.15924222,167.35158842,174.74809360
-167.41503360,81.95769694,-72.29047176,-65.07574364,29.44100906,10.78710012
47.16247869,0.61846333,0.79549477,2.29881103

>  <Name>
1j7t

>  <RI>
0

>  <Rbt.Current_Directory>
/home/itssahil/PROJECTS/Mol_Feturizer/New_Systems/rnas/1j7t

>  <Rbt.Executable>
rbdock ($Id: //depot/dev/client3/rdock/2013.1/src/exe/rbdock.cxx#4 $)

>  <Rbt.Library>
libRbt.so (2013.1, Build901 2013/11/27)

>  <Rbt.Parameter_File>
/export/apps/rDock/src/rDock_2013.1_src/data/scripts/dock_solv.prm

>  <Rbt.Receptor>
prm/blind_docking_60.prm

>  <SCORE>
-7.19937

>  <SCORE.INTER>
-39.1397

>  <SCORE.INTER.CONST>
1

>  <SCORE.INTER.POLAR>
-5.50385

>  <SCORE.INTER.ROT>
9

>  <SCORE.INTER.SOLV>
30.446

>  <SCORE.INTER.VDW>
-27.4956

>  <SCORE.INTER.norm>
-0.931898

>  <SCORE.INTRA>
0.808529

>  <SCORE.INTRA.DIHEDRAL>
-18.2298

>  <SCORE.INTRA.DIHEDRAL.0>
46.2143

>  <SCORE.INTRA.POLAR>
0.631164

>  <SCORE.INTRA.POLAR.0>
-1.76436

>  <SCORE.INTRA.REPUL>
0.00256269

>  <SCORE.INTRA.REPUL.0>
0

>  <SCORE.INTRA.SOLV>
-0.0923291

>  <SCORE.INTRA.SOLV.lig_0>
-148.643

>  <SCORE.INTRA.VDW>
7.81084

>  <SCORE.INTRA.VDW.0>
-4.83512

>  <SCORE.INTRA.norm>
0.0192507

>  <SCORE.RESTR>
31.1318

>  <SCORE.RESTR.CAVITY>
31.1318

>  <SCORE.RESTR.norm>
0.741233

>  <SCORE.SYSTEM>
0

>  <SCORE.SYSTEM.CONST>
0

>  <SCORE.SYSTEM.DIHEDRAL>
0

>  <SCORE.SYSTEM.SOLV>
0

>  <SCORE.SYSTEM.norm>
0

>  <SCORE.heavy>
42

>  <SCORE.norm>
-0.171414

>  <RMSD>
11.617

$$$$
1j7t
 OpenBabel11021811393D
libRbt.so/2013.1/901 2013/11/27
 42 45  0  0  0  0  0  0  0  0999 V2000
   31.9282   11.4968   48.2798 C   0  0  2  0  0  0  0  0  0  0  0  0
   32.1614   10.9052   49.5828 O   0  0  0  0  0  0  0  0  0  0  0  0
   33.3245   11.7536   47.6439 C   0  0  2  0  0  0  0  0  0  0  0  0
   34.2159   10.5588   47.6056 N   0  3  0  0  0  0  0  0  0  0  0  0
   34.0327   12.8495   48.4700 C   0  0  1  0  0  0  0  0  0  0  0  0
   35.2933   13.1352   47.9326 O   0  0  0  0  0  0  0  0  0  0  0  0
   33.1588   14.1252   48.5186 C   0  0  2  0  0  0  0  0  0  0  0  0
   33.7992   15.1497   49.2531 O   0  0  0  0  0  0  0  0  0  0  0  0
   31.8258   13.8108   49.1638 C   0  0  2  0  0  0  0  0  0  0  0  0
   31.1977   12.7517   48.4526 O   0  0  0  0  0  0  0  0  0  0  0  0
   30.8669   14.9800   49.1433 C   0  0  0  0  0  0  0  0  0  0  0  0
   30.3616   15.1522   47.8332 O   0  0  0  0  0  0  0  0  0  0  0  0
   29.2075    8.4845   51.3892 C   0  0  2  0  0  0  0  0  0  0  0  0
   28.0730    8.0640   52.2123 N   0  3  0  0  0  0  0  0  0  0  0  0
   30.3546    9.0330   52.3013 C   0  0  0  0  0  0  0  0  0  0  0  0
   31.5316    9.5221   51.4358 C   0  0  2  0  0  0  0  0  0  0  0  0
   32.5942   10.0893   52.2724 N   0  3  0  0  0  0  0  0  0  0  0  0
   31.0505   10.5847   50.4283 C   0  0  2  0  0  0  0  0  0  0  0  0
   29.9010   10.0803   49.5342 C   0  0  2  0  0  0  0  0  0  0  0  0
   29.4628   11.2193   48.7685 O   0  0  0  0  0  0  0  0  0  0  0  0
   28.7368    9.5435   50.4051 C   0  0  1  0  0  0  0  0  0  0  0  0
   27.7505    9.0001   49.5715 O   0  0  0  0  0  0  0  0  0  0  0  0
   28.7339   11.1131   47.5484 C   0  0  1  0  0  0  0  0  0  0  0  0
   28.4714   12.5593   46.9957 C   0  0  2  0  0  0  0  0  0  0  0  0
   27.2867   13.1587   47.4920 O   0  0  0  0  0  0  0  0  0  0  0  0
   28.4429   12.2261   45.5107 C   0  0  2  0  0  0  0  0  0  0  0  0
   27.2624   11.4383   45.1707 O   0  0  0  0  0  0  0  0  0  0  0  0
   29.6598   11.3263   45.3468 C   0  0  2  0  0  0  0  0  0  0  0  0
   29.5405   10.4910   46.5112 O   0  0  0  0  0  0  0  0  0  0  0  0
   31.0299   12.0773   45.2805 C   0  0  0  0  0  0  0  0  0  0  0  0
   31.0757   12.9992   44.1841 O   0  0  0  0  0  0  0  0  0  0  0  0
   27.1550   11.1233   43.7848 C   0  0  2  0  0  0  0  0  0  0  0  0
   26.0157   11.8858   43.0266 C   0  0  2  0  0  0  0  0  0  0  0  0
   24.6645   11.6493   43.6195 N   0  3  0  0  0  0  0  0  0  0  0  0
   26.0747   11.4279   41.5311 C   0  0  1  0  0  0  0  0  0  0  0  0
   27.3830   11.8593   40.9929 O   0  0  0  0  0  0  0  0  0  0  0  0
   25.9528    9.8623   41.3721 C   0  0  2  0  0  0  0  0  0  0  0  0
   24.6580    9.4546   41.8433 O   0  0  0  0  0  0  0  0  0  0  0  0
   27.1204    9.1892   42.2061 C   0  0  1  0  0  0  0  0  0  0  0  0
   26.9944    9.6481   43.5941 O   0  0  0  0  0  0  0  0  0  0  0  0
   27.1293    7.6441   42.1662 C   0  0  0  0  0  0  0  0  0  0  0  0
   25.8099    7.0362   42.4891 N   0  3  0  0  0  0  0  0  0  0  0  0
  1  2  1  1  0  0  0
  1  3  1  0  0  0  0
  1 10  1  0  0  0  0
  3  4  1  1  0  0  0
  3  5  1  0  0  0  0
  5  6  1  6  0  0  0
  5  7  1  0  0  0  0
  7  8  1  1  0  0  0
  7  9  1  0  0  0  0
  9 10  1  0  0  0  0
  9 11  1  6  0  0  0
 11 12  1  0  0  0  0
 13 14  1  1  0  0  0
 13 15  1  0  0  0  0
 13 21  1  0  0  0  0
 15 16  1  0  0  0  0
 16 17  1  1  0  0  0
 16 18  1  0  0  0  0
 18  2  1  6  0  0  0
 18 19  1  0  0  0  0
 19 20  1  1  0  0  0
 19 21  1  0  0  0  0
 21 22  1  6  0  0  0
 23 20  1  1  0  0  0
 23 24  1  0  0  0  0
 23 29  1  0  0  0  0
 24 25  1  1  0  0  0
 24 26  1  0  0  0  0
 26 27  1  1  0  0  0
 26 28  1  0  0  0  0
 28 29  1  0  0  0  0
 28 30  1  1  0  0  0
 30 31  1  0  0  0  0
 32 27  1  1  0  0  0
 32 33  1  0  0  0  0
 32 40  1  0  0  0  0
 33 34  1  1  0  0  0
 33 35  1  0  0  0  0
 35 36  1  1  0  0  0
 35 37  1  0  0  0  0
 37 38  1  1  0  0  0
 37 39  1  0  0  0  0
 39 40  1  0  0  0  0
 39 41  1  1  0  0  0
 41 42  1  0  0  0  0
M  CHG  5   4   1  14   1  17   1  34   1  42   1
M  END
>  <CHROM.1>
178.45722974,158.53130132,50.03739214,-58.24958087,50.77255673,74.21161373
-173.76629238,70.25625611,147.91727171,159.32826501,-178.55141887,-42.58725392
68.58133333,178.33179547,-108.85901265,-59.49745042,-52.16009242,176.73271570
61.23353736,66.81677487,-50.53036501,150.51471447,29.54465778,11.20251056
46.91422358,-0.64820110,-0.68742201,-1.08162244

>  <Name>
1j7t

>  <RI>
0

>  <Rbt.Current_Directory>
/home/itssahil/PROJECTS/Mol_Feturizer/New_Systems/rnas/1j7t

>  <Rbt.Executable>
rbdock ($Id: //depot/dev/client3/rdock/2013.1/src/exe/rbdock.cxx#4 $)

>  <Rbt.Library>
libRbt.so (2013.1, Build901 2013/11/27)

>  <Rbt.Parameter_File>
/export/apps/rDock/src/rDock_2013.1_src/data/scripts/dock_solv.prm

>  <Rbt.Receptor>
prm/blind_docking_60.prm

>  <SCORE>
-15.758

>  <SCORE.INTER>
-39.655

>  <SCORE.INTER.CONST>
1

>  <SCORE.INTER.POLAR>
-6.2954

>  <SCORE.INTER.ROT>
9

>  <SCORE.INTER.SOLV>
29.2447

>  <SCORE.INTER.VDW>
-24.8003

>  <SCORE.INTER.norm>
-0.944168

>  <SCORE.INTRA>
-10.7819

>  <SCORE.INTRA.DIHEDRAL>
-26.829

>  <SCORE.INTRA.DIHEDRAL.0>
46.2143

>  <SCORE.INTRA.POLAR>
0.270446

>  <SCORE.INTRA.POLAR.0>
-1.76436

>  <SCORE.INTRA.REPUL>
0.0560842

>  <SCORE.INTRA.REPUL.0>
0

>  <SCORE.INTRA.SOLV>
-2.94864

>  <SCORE.INTRA.SOLV.lig_0>
-148.643

>  <SCORE.INTRA.VDW>
2.90696

>  <SCORE.INTRA.VDW.0>
-4.83512

>  <SCORE.INTRA.norm>
-0.256712

>  <SCORE.RESTR>
34.679

>  <SCORE.RESTR.CAVITY>
34.679

>  <SCORE.RESTR.norm>
0.82569

>  <SCORE.SYSTEM>
0

>  <SCORE.SYSTEM.CONST>
0

>  <SCORE.SYSTEM.DIHEDRAL>
0

>  <SCORE.SYSTEM.SOLV>
0

>  <SCORE.SYSTEM.norm>
0

>  <SCORE.heavy>
42

>  <SCORE.norm>
-0.375189

>  <RMSD>
11.632

$$$$
1j7t
 OpenBabel11021811393D
libRbt.so/2013.1/901 2013/11/27
 42 45  0  0  0  0  0  0  0  0999 V2000
   31.7492   11.5638   48.6216 C   0  0  2  0  0  0  0  0  0  0  0  0
   31.7485   11.4893   50.0696 O   0  0  0  0  0  0  0  0  0  0  0  0
   33.2317   11.7248   48.1783 C   0  0  2  0  0  0  0  0  0  0  0  0
   34.1560   10.6891   48.7227 N   0  3  0  0  0  0  0  0  0  0  0  0
   33.7280   13.1059   48.6593 C   0  0  1  0  0  0  0  0  0  0  0  0
   35.0573   13.3142   48.2732 O   0  0  0  0  0  0  0  0  0  0  0  0
   32.8159   14.2224   48.0981 C   0  0  2  0  0  0  0  0  0  0  0  0
   33.2660   15.4980   48.5094 O   0  0  0  0  0  0  0  0  0  0  0  0
   31.3959   14.0174   48.5813 C   0  0  2  0  0  0  0  0  0  0  0  0
   30.9546   12.7188   48.2058 O   0  0  0  0  0  0  0  0  0  0  0  0
   30.4176   15.0019   47.9808 C   0  0  0  0  0  0  0  0  0  0  0  0
   29.1597   14.8614   48.6127 O   0  0  0  0  0  0  0  0  0  0  0  0
   29.0256    8.5732   51.4588 C   0  0  2  0  0  0  0  0  0  0  0  0
   27.8767    7.9525   52.1192 N   0  3  0  0  0  0  0  0  0  0  0  0
   29.9296    9.2860   52.5185 C   0  0  0  0  0  0  0  0  0  0  0  0
   31.1142    9.9823   51.8217 C   0  0  2  0  0  0  0  0  0  0  0  0
   31.9430   10.7012   52.7951 N   0  3  0  0  0  0  0  0  0  0  0  0
   30.6029   10.9707   50.7553 C   0  0  2  0  0  0  0  0  0  0  0  0
   29.6865   10.3006   49.7129 C   0  0  2  0  0  0  0  0  0  0  0  0
   29.1714   11.3663   48.8918 O   0  0  0  0  0  0  0  0  0  0  0  0
   28.5218    9.5593   50.4169 C   0  0  1  0  0  0  0  0  0  0  0  0
   27.7631    8.8766   49.4571 O   0  0  0  0  0  0  0  0  0  0  0  0
   28.5559   11.1546   47.6239 C   0  0  1  0  0  0  0  0  0  0  0  0
   28.3609   12.5470   46.9244 C   0  0  2  0  0  0  0  0  0  0  0  0
   27.1425   13.1914   47.2551 O   0  0  0  0  0  0  0  0  0  0  0  0
   28.4645   12.0837   45.4781 C   0  0  2  0  0  0  0  0  0  0  0  0
   27.3114   11.2723   45.1016 O   0  0  0  0  0  0  0  0  0  0  0  0
   29.6812   11.1693   45.5065 C   0  0  2  0  0  0  0  0  0  0  0  0
   29.4469   10.4408   46.7239 O   0  0  0  0  0  0  0  0  0  0  0  0
   31.0599   11.9075   45.5007 C   0  0  0  0  0  0  0  0  0  0  0  0
   31.3535   12.4704   44.2158 O   0  0  0  0  0  0  0  0  0  0  0  0
   27.1974   11.0421   43.6996 C   0  0  2  0  0  0  0  0  0  0  0  0
   26.0206   11.8074   43.0041 C   0  0  2  0  0  0  0  0  0  0  0  0
   24.6871   11.4827   43.5953 N   0  3  0  0  0  0  0  0  0  0  0  0
   26.0767   11.4479   41.4818 C   0  0  1  0  0  0  0  0  0  0  0  0
   27.3609   11.9618   40.9582 O   0  0  0  0  0  0  0  0  0  0  0  0
   26.0109    9.8920   41.2244 C   0  0  2  0  0  0  0  0  0  0  0  0
   24.7386    9.4064   41.6827 O   0  0  0  0  0  0  0  0  0  0  0  0
   27.2137    9.2121   42.0010 C   0  0  1  0  0  0  0  0  0  0  0  0
   27.0892    9.5769   43.4169 O   0  0  0  0  0  0  0  0  0  0  0  0
   27.2794    7.6741   41.8624 C   0  0  0  0  0  0  0  0  0  0  0  0
   26.6924    6.9497   43.0223 N   0  3  0  0  0  0  0  0  0  0  0  0
  1  2  1  1  0  0  0
  1  3  1  0  0  0  0
  1 10  1  0  0  0  0
  3  4  1  1  0  0  0
  3  5  1  0  0  0  0
  5  6  1  6  0  0  0
  5  7  1  0  0  0  0
  7  8  1  1  0  0  0
  7  9  1  0  0  0  0
  9 10  1  0  0  0  0
  9 11  1  6  0  0  0
 11 12  1  0  0  0  0
 13 14  1  1  0  0  0
 13 15  1  0  0  0  0
 13 21  1  0  0  0  0
 15 16  1  0  0  0  0
 16 17  1  1  0  0  0
 16 18  1  0  0  0  0
 18  2  1  6  0  0  0
 18 19  1  0  0  0  0
 19 20  1  6  0  0  0
 19 21  1  0  0  0  0
 21 22  1  6  0  0  0
 23 20  1  1  0  0  0
 23 24  1  0  0  0  0
 23 29  1  0  0  0  0
 24 25  1  6  0  0  0
 24 26  1  0  0  0  0
 26 27  1  1  0  0  0
 26 28  1  0  0  0  0
 28 29  1  0  0  0  0
 28 30  1  1  0  0  0
 30 31  1  0  0  0  0
 32 27  1  1  0  0  0
 32 33  1  0  0  0  0
 32 40  1  0  0  0  0
 33 34  1  1  0  0  0
 33 35  1  0  0  0  0
 35 36  1  1  0  0  0
 35 37  1  0  0  0  0
 37 38  1  1  0  0  0
 37 39  1  0  0  0  0
 39 40  1  0  0  0  0
 39 41  1  1  0  0  0
 41 42  1  0  0  0  0
M  CHG  5   4   1  14   1  17   1  34   1  42   1
M  END
>  <CHROM.1>
-162.46592434,134.02794787,64.81550907,59.25945140,70.82006670,-172.22174804
-162.56387727,63.58031650,-55.97070938,163.99813825,-169.98537245,59.67547064
58.30612253,167.41511273,-108.72620372,-73.14562254,-145.25937354,173.84920005
57.13381281,71.45092939,-98.70161641,-175.73946436,29.39663161,11.24919365
46.96703824,-0.72703572,-0.71471682,-1.13849503

>  <Name>
1j7t

>  <RI>
0

>  <Rbt.Current_Directory>
/home/itssahil/PROJECTS/Mol_Feturizer/New_Systems/rnas/1j7t

>  <Rbt.Executable>
rbdock ($Id: //depot/dev/client3/rdock/2013.1/src/exe/rbdock.cxx#4 $)

>  <Rbt.Library>
libRbt.so (2013.1, Build901 2013/11/27)

>  <Rbt.Parameter_File>
/export/apps/rDock/src/rDock_2013.1_src/data/scripts/dock_solv.prm

>  <Rbt.Receptor>
prm/blind_docking_60.prm

>  <SCORE>
-4.88049

>  <SCORE.INTER>
-34.1813

>  <SCORE.INTER.CONST>
1

>  <SCORE.INTER.POLAR>
-4.99413

>  <SCORE.INTER.ROT>
9

>  <SCORE.INTER.SOLV>
25.5144

>  <SCORE.INTER.VDW>
-24.2453

>  <SCORE.INTER.norm>
-0.813841

>  <SCORE.INTRA>
-3.49763

>  <SCORE.INTRA.DIHEDRAL>
-16.9222

>  <SCORE.INTRA.DIHEDRAL.0>
46.2143

>  <SCORE.INTRA.POLAR>
1.20119

>  <SCORE.INTRA.POLAR.0>
-1.76436

>  <SCORE.INTRA.REPUL>
0.000693491

>  <SCORE.INTRA.REPUL.0>
0

>  <SCORE.INTRA.SOLV>
-3.26603

>  <SCORE.INTRA.SOLV.lig_0>
-148.643

>  <SCORE.INTRA.VDW>
2.50898

>  <SCORE.INTRA.VDW.0>
-4.83512

>  <SCORE.INTRA.norm>
-0.0832768

>  <SCORE.RESTR>
32.7985

>  <SCORE.RESTR.CAVITY>
32.7985

>  <SCORE.RESTR.norm>
0.780916

>  <SCORE.SYSTEM>
0

>  <SCORE.SYSTEM.CONST>
0

>  <SCORE.SYSTEM.DIHEDRAL>
0

>  <SCORE.SYSTEM.SOLV>
0

>  <SCORE.SYSTEM.norm>
0

>  <SCORE.heavy>
42

>  <SCORE.norm>
-0.116202

>  <RMSD>
11.668

$$$$
1j7t
 OpenBabel11021811393D
libRbt.so/2013.1/901 2013/11/27
 42 45  0  0  0  0  0  0  0  0999 V2000
   31.7372   11.5376   48.1136 C   0  0  2  0  0  0  0  0  0  0  0  0
   31.9806   11.1783   49.4971 O   0  0  0  0  0  0  0  0  0  0  0  0
   33.1270   11.7867   47.4605 C   0  0  2  0  0  0  0  0  0  0  0  0
   34.0971   10.6661   47.6240 N   0  3  0  0  0  0  0  0  0  0  0  0
   33.7417   13.0466   48.1084 C   0  0  1  0  0  0  0  0  0  0  0  0
   34.9919   13.3305   47.5463 O   0  0  0  0  0  0  0  0  0  0  0  0
   32.7834   14.2498   47.9423 C   0  0  2  0  0  0  0  0  0  0  0  0
   33.3373   15.4201   48.5104 O   0  0  0  0  0  0  0  0  0  0  0  0
   31.4605   13.9498   48.6146 C   0  0  2  0  0  0  0  0  0  0  0  0
   30.9207   12.7500   48.0751 O   0  0  0  0  0  0  0  0  0  0  0  0
   30.4261   15.0312   48.3963 C   0  0  0  0  0  0  0  0  0  0  0  0
   29.3022   14.7812   49.2182 O   0  0  0  0  0  0  0  0  0  0  0  0
   29.1499    8.6020   51.2854 C   0  0  2  0  0  0  0  0  0  0  0  0
   28.0356    8.1207   52.1028 N   0  3  0  0  0  0  0  0  0  0  0  0
   30.2632    9.2071   52.2035 C   0  0  0  0  0  0  0  0  0  0  0  0
   31.4165    9.7592   51.3440 C   0  0  2  0  0  0  0  0  0  0  0  0
   32.4449   10.3788   52.1864 N   0  3  0  0  0  0  0  0  0  0  0  0
   30.8846   10.7980   50.3372 C   0  0  2  0  0  0  0  0  0  0  0  0
   29.7665   10.2369   49.4372 C   0  0  2  0  0  0  0  0  0  0  0  0
   29.2725   11.3535   48.6727 O   0  0  0  0  0  0  0  0  0  0  0  0
   28.6285    9.6378   50.3020 C   0  0  1  0  0  0  0  0  0  0  0  0
   27.6751    9.0459   49.4631 O   0  0  0  0  0  0  0  0  0  0  0  0
   28.5600   11.2130   47.4464 C   0  0  1  0  0  0  0  0  0  0  0  0
   28.3394   12.6405   46.8303 C   0  0  2  0  0  0  0  0  0  0  0  0
   27.1615   13.2866   47.2822 O   0  0  0  0  0  0  0  0  0  0  0  0
   28.3257   12.2464   45.3600 C   0  0  2  0  0  0  0  0  0  0  0  0
   27.1326   11.4719   45.0339 O   0  0  0  0  0  0  0  0  0  0  0  0
   29.5238   11.3134   45.2530 C   0  0  2  0  0  0  0  0  0  0  0  0
   29.3675   10.5303   46.4488 O   0  0  0  0  0  0  0  0  0  0  0  0
   30.9118   12.0299   45.1778 C   0  0  0  0  0  0  0  0  0  0  0  0
   30.9336   13.0357   44.1571 O   0  0  0  0  0  0  0  0  0  0  0  0
   27.1343   10.9324   43.7146 C   0  0  2  0  0  0  0  0  0  0  0  0
   26.2021   11.6790   42.7008 C   0  0  2  0  0  0  0  0  0  0  0  0
   24.7745   11.7130   43.1415 N   0  3  0  0  0  0  0  0  0  0  0  0
   26.3595   10.9606   41.3192 C   0  0  1  0  0  0  0  0  0  0  0  0
   27.7661   11.1317   40.8952 O   0  0  0  0  0  0  0  0  0  0  0  0
   26.0387    9.4173   41.3993 C   0  0  2  0  0  0  0  0  0  0  0  0
   24.6561    9.2559   41.7559 O   0  0  0  0  0  0  0  0  0  0  0  0
   27.0030    8.7680   42.4766 C   0  0  1  0  0  0  0  0  0  0  0  0
   26.7914    9.4764   43.7441 O   0  0  0  0  0  0  0  0  0  0  0  0
   26.8007    7.2502   42.6870 C   0  0  0  0  0  0  0  0  0  0  0  0
   27.0538    6.4440   41.4620 N   0  3  0  0  0  0  0  0  0  0  0  0
  1  2  1  1  0  0  0
  1  3  1  0  0  0  0
  1 10  1  0  0  0  0
  3  4  1  1  0  0  0
  3  5  1  0  0  0  0
  5  6  1  6  0  0  0
  5  7  1  0  0  0  0
  7  8  1  1  0  0  0
  7  9  1  0  0  0  0
  9 10  1  0  0  0  0
  9 11  1  6  0  0  0
 11 12  1  0  0  0  0
 13 14  1  1  0  0  0
 13 15  1  0  0  0  0
 13 21  1  0  0  0  0
 15 16  1  0  0  0  0
 16 17  1  1  0  0  0
 16 18  1  0  0  0  0
 18  2  1  6  0  0  0
 18 19  1  0  0  0  0
 19 20  1  1  0  0  0
 19 21  1  0  0  0  0
 21 22  1  6  0  0  0
 23 20  1  1  0  0  0
 23 24  1  0  0  0  0
 23 29  1  0  0  0  0
 24 25  1  1  0  0  0
 24 26  1  0  0  0  0
 26 27  1  1  0  0  0
 26 28  1  0  0  0  0
 28 29  1  0  0  0  0
 28 30  1  1  0  0  0
 30 31  1  0  0  0  0
 32 27  1  1  0  0  0
 32 33  1  0  0  0  0
 32 40  1  0  0  0  0
 33 34  1  1  0  0  0
 33 35  1  0  0  0  0
 35 36  1  1  0  0  0
 35 37  1  0  0  0  0
 37 38  1  1  0  0  0
 37 39  1  0  0  0  0
 39 40  1  0  0  0  0
 39 41  1  1  0  0  0
 41 42  1  0  0  0  0
M  CHG  5   4   1  14   1  17   1  34   1  42   1
M  END
>  <CHROM.1>
-175.71265440,147.69020041,-83.20158747,-46.45278114,-163.11421265,-170.96408280
-171.95394426,-178.61885179,66.44451491,159.04869056,-173.37239515,-56.13131030
-61.00635083,-172.77284868,-104.52770717,-51.59910165,-53.80175054,-168.66015363
-164.06620509,-98.79999912,61.42640898,-54.05079023,29.42503206,11.18180050
46.76572339,-0.67652969,-0.74548204,-1.13208729

>  <Name>
1j7t

>  <RI>
0

>  <Rbt.Current_Directory>
/home/itssahil/PROJECTS/Mol_Feturizer/New_Systems/rnas/1j7t

>  <Rbt.Executable>
rbdock ($Id: //depot/dev/client3/rdock/2013.1/src/exe/rbdock.cxx#4 $)

>  <Rbt.Library>
libRbt.so (2013.1, Build901 2013/11/27)

>  <Rbt.Parameter_File>
/export/apps/rDock/src/rDock_2013.1_src/data/scripts/dock_solv.prm

>  <Rbt.Receptor>
prm/blind_docking_60.prm

>  <SCORE>
8.59439

>  <SCORE.INTER>
-22.215

>  <SCORE.INTER.CONST>
1

>  <SCORE.INTER.POLAR>
-3.45607

>  <SCORE.INTER.ROT>
9

>  <SCORE.INTER.SOLV>
25.7431

>  <SCORE.INTER.VDW>
-21.4708

>  <SCORE.INTER.norm>
-0.528928

>  <SCORE.INTRA>
-1.26173

>  <SCORE.INTRA.DIHEDRAL>
-21.6171

>  <SCORE.INTRA.DIHEDRAL.0>
46.2143

>  <SCORE.INTRA.POLAR>
1.73531

>  <SCORE.INTRA.POLAR.0>
-1.76436

>  <SCORE.INTRA.REPUL>
0.045737

>  <SCORE.INTRA.REPUL.0>
0

>  <SCORE.INTRA.SOLV>
-5.29817

>  <SCORE.INTRA.SOLV.lig_0>
-148.643

>  <SCORE.INTRA.VDW>
6.06718

>  <SCORE.INTRA.VDW.0>
-4.83512

>  <SCORE.INTRA.norm>
-0.0300413

>  <SCORE.RESTR>
32.0711

>  <SCORE.RESTR.CAVITY>
32.0711

>  <SCORE.RESTR.norm>
0.763597

>  <SCORE.SYSTEM>
0

>  <SCORE.SYSTEM.CONST>
0

>  <SCORE.SYSTEM.DIHEDRAL>
0

>  <SCORE.SYSTEM.SOLV>
0

>  <SCORE.SYSTEM.norm>
0

>  <SCORE.heavy>
42

>  <SCORE.norm>
0.204628

>  <RMSD>
11.706

$$$$
1j7t
 OpenBabel11021811393D
libRbt.so/2013.1/901 2013/11/27
 42 45  0  0  0  0  0  0  0  0999 V2000
   30.2617    8.7780   50.9708 C   0  0  2  0  0  0  0  0  0  0  0  0
   29.9463    9.8749   50.0764 O   0  0  0  0  0  0  0  0  0  0  0  0
   29.3026    7.6085   50.6067 C   0  0  2  0  0  0  0  0  0  0  0  0
   29.3137    7.2252   49.1657 N   0  3  0  0  0  0  0  0  0  0  0  0
   27.8649    8.0360   50.9745 C   0  0  1  0  0  0  0  0  0  0  0  0
   26.9559    7.0122   50.6827 O   0  0  0  0  0  0  0  0  0  0  0  0
   27.7921    8.4194   52.4716 C   0  0  2  0  0  0  0  0  0  0  0  0
   26.4779    8.7939   52.8346 O   0  0  0  0  0  0  0  0  0  0  0  0
   28.7324    9.5721   52.7532 C   0  0  2  0  0  0  0  0  0  0  0  0
   30.0482    9.2143   52.3499 O   0  0  0  0  0  0  0  0  0  0  0  0
   28.8073    9.9310   54.2204 C   0  0  0  0  0  0  0  0  0  0  0  0
   29.4676   11.1732   54.3686 O   0  0  0  0  0  0  0  0  0  0  0  0
   31.8380   13.6060   49.4863 C   0  0  2  0  0  0  0  0  0  0  0  0
   32.8271   14.6129   49.1001 N   0  3  0  0  0  0  0  0  0  0  0  0
   32.4458   12.6456   50.5617 C   0  0  0  0  0  0  0  0  0  0  0  0
   31.4244   11.5544   50.9353 C   0  0  2  0  0  0  0  0  0  0  0  0
   31.9969   10.6129   51.9032 N   0  3  0  0  0  0  0  0  0  0  0  0
   30.9766   10.7860   49.6765 C   0  0  2  0  0  0  0  0  0  0  0  0
   30.3985   11.7114   48.5881 C   0  0  2  0  0  0  0  0  0  0  0  0
   30.1768   10.8785   47.4337 O   0  0  0  0  0  0  0  0  0  0  0  0
   31.4069   12.8377   48.2471 C   0  0  1  0  0  0  0  0  0  0  0  0
   30.8193   13.7208   47.3318 O   0  0  0  0  0  0  0  0  0  0  0  0
   29.0697   11.0376   46.5504 C   0  0  1  0  0  0  0  0  0  0  0  0
   28.5230   12.5028   46.6933 C   0  0  2  0  0  0  0  0  0  0  0  0
   27.5539   12.6581   47.7159 O   0  0  0  0  0  0  0  0  0  0  0  0
   27.9897   12.6781   45.2783 C   0  0  2  0  0  0  0  0  0  0  0  0
   26.8261   11.8287   45.0455 O   0  0  0  0  0  0  0  0  0  0  0  0
   29.1293   12.1423   44.4230 C   0  0  2  0  0  0  0  0  0  0  0  0
   29.4949   10.9643   45.1621 O   0  0  0  0  0  0  0  0  0  0  0  0
   30.3270   13.1290   44.2287 C   0  0  0  0  0  0  0  0  0  0  0  0
   31.4475   12.7687   45.0465 O   0  0  0  0  0  0  0  0  0  0  0  0
   26.8167   11.1955   43.7686 C   0  0  2  0  0  0  0  0  0  0  0  0
   26.1447   12.0327   42.6276 C   0  0  2  0  0  0  0  0  0  0  0  0
   24.7265   12.3937   42.9306 N   0  3  0  0  0  0  0  0  0  0  0  0
   26.2542   11.1882   41.3144 C   0  0  1  0  0  0  0  0  0  0  0  0
   27.6939   11.0330   41.0132 O   0  0  0  0  0  0  0  0  0  0  0  0
   25.6099    9.7548   41.4610 C   0  0  2  0  0  0  0  0  0  0  0  0
   24.2009    9.9090   41.6969 O   0  0  0  0  0  0  0  0  0  0  0  0
   26.3288    9.0111   42.6619 C   0  0  1  0  0  0  0  0  0  0  0  0
   26.1733    9.8477   43.8574 O   0  0  0  0  0  0  0  0  0  0  0  0
   25.7952    7.5888   42.9475 C   0  0  0  0  0  0  0  0  0  0  0  0
   26.8234    6.6735   43.5129 N   0  3  0  0  0  0  0  0  0  0  0  0
  1  2  1  6  0  0  0
  1  3  1  0  0  0  0
  1 10  1  0  0  0  0
  3  4  1  6  0  0  0
  3  5  1  0  0  0  0
  5  6  1  1  0  0  0
  5  7  1  0  0  0  0
  7  8  1  6  0  0  0
  7  9  1  0  0  0  0
  9 10  1  0  0  0  0
  9 11  1  1  0  0  0
 11 12  1  0  0  0  0
 13 14  1  6  0  0  0
 13 15  1  0  0  0  0
 13 21  1  0  0  0  0
 15 16  1  0  0  0  0
 16 17  1  1  0  0  0
 16 18  1  0  0  0  0
 18  2  1  1  0  0  0
 18 19  1  0  0  0  0
 19 20  1  6  0  0  0
 19 21  1  0  0  0  0
 21 22  1  6  0  0  0
 23 20  1  1  0  0  0
 23 24  1  0  0  0  0
 23 29  1  0  0  0  0
 24 25  1  1  0  0  0
 24 26  1  0  0  0  0
 26 27  1  1  0  0  0
 26 28  1  0  0  0  0
 28 29  1  0  0  0  0
 28 30  1  1  0  0  0
 30 31  1  0  0  0  0
 32 27  1  1  0  0  0
 32 33  1  0  0  0  0
 32 40  1  0  0  0  0
 33 34  1  1  0  0  0
 33 35  1  0  0  0  0
 35 36  1  1  0  0  0
 35 37  1  0  0  0  0
 37 38  1  1  0  0  0
 37 39  1  0  0  0  0
 39 40  1  0  0  0  0
 39 41  1  1  0  0  0
 41 42  1  0  0  0  0
M  CHG  5   4   1  14   1  17   1  34   1  42   1
M  END
>  <CHROM.1>
-149.03572075,-65.92121289,-31.09014164,-167.84626498,72.46145278,-167.66383697
65.69968590,-47.38240588,154.10203732,143.40925814,21.78511896,77.37835482
173.82312722,-138.40204402,-88.42600779,103.56099651,82.06002939,-64.72126347
-174.45630202,76.62884481,150.25758521,-142.23719039,28.70452497,10.68056214
47.44312977,1.04940368,0.78949080,2.00223838

>  <Name>
1j7t

>  <RI>
0

>  <Rbt.Current_Directory>
/home/itssahil/PROJECTS/Mol_Feturizer/New_Systems/rnas/1j7t

>  <Rbt.Executable>
rbdock ($Id: //depot/dev/client3/rdock/2013.1/src/exe/rbdock.cxx#4 $)

>  <Rbt.Library>
libRbt.so (2013.1, Build901 2013/11/27)

>  <Rbt.Parameter_File>
/export/apps/rDock/src/rDock_2013.1_src/data/scripts/dock_solv.prm

>  <Rbt.Receptor>
prm/blind_docking_60.prm

>  <SCORE>
16.1746

>  <SCORE.INTER>
-25.1941

>  <SCORE.INTER.CONST>
1

>  <SCORE.INTER.POLAR>
-5.1319

>  <SCORE.INTER.ROT>
9

>  <SCORE.INTER.SOLV>
35.1363

>  <SCORE.INTER.VDW>
-21.0019

>  <SCORE.INTER.norm>
-0.59986

>  <SCORE.INTRA>
6.5463

>  <SCORE.INTRA.DIHEDRAL>
-3.06597

>  <SCORE.INTRA.DIHEDRAL.0>
46.2143

>  <SCORE.INTRA.POLAR>
0.368431

>  <SCORE.INTRA.POLAR.0>
-1.76436

>  <SCORE.INTRA.REPUL>
0

>  <SCORE.INTRA.REPUL.0>
0

>  <SCORE.INTRA.SOLV>
1.16821

>  <SCORE.INTRA.SOLV.lig_0>
-148.643

>  <SCORE.INTRA.VDW>
6.24251

>  <SCORE.INTRA.VDW.0>
-4.83512

>  <SCORE.INTRA.norm>
0.155864

>  <SCORE.RESTR>
34.8224

>  <SCORE.RESTR.CAVITY>
34.8224

>  <SCORE.RESTR.norm>
0.829104

>  <SCORE.SYSTEM>
0

>  <SCORE.SYSTEM.CONST>
0

>  <SCORE.SYSTEM.DIHEDRAL>
0

>  <SCORE.SYSTEM.SOLV>
0

>  <SCORE.SYSTEM.norm>
0

>  <SCORE.heavy>
42

>  <SCORE.norm>
0.385109

>  <RMSD>
11.723

$$$$
1j7t
 OpenBabel11021811393D
libRbt.so/2013.1/901 2013/11/27
 42 45  0  0  0  0  0  0  0  0999 V2000
   31.8799   11.5117   48.1833 C   0  0  2  0  0  0  0  0  0  0  0  0
   32.1478   11.0606   49.5350 O   0  0  0  0  0  0  0  0  0  0  0  0
   33.2596   11.7351   47.5000 C   0  0  2  0  0  0  0  0  0  0  0  0
   34.1796   10.5635   47.5665 N   0  3  0  0  0  0  0  0  0  0  0  0
   33.9529   12.9251   48.1986 C   0  0  1  0  0  0  0  0  0  0  0  0
   35.1976   13.1840   47.6127 O   0  0  0  0  0  0  0  0  0  0  0  0
   33.0484   14.1785   48.1339 C   0  0  2  0  0  0  0  0  0  0  0  0
   33.6744   15.2866   48.7498 O   0  0  0  0  0  0  0  0  0  0  0  0
   31.7337   13.9002   48.8312 C   0  0  2  0  0  0  0  0  0  0  0  0
   31.1213   12.7603   48.2417 O   0  0  0  0  0  0  0  0  0  0  0  0
   30.7459   15.0389   48.7099 C   0  0  0  0  0  0  0  0  0  0  0  0
   30.3082   15.1423   47.3687 O   0  0  0  0  0  0  0  0  0  0  0  0
   29.2943    8.5651   51.3999 C   0  0  2  0  0  0  0  0  0  0  0  0
   28.1846    8.1166   52.2419 N   0  3  0  0  0  0  0  0  0  0  0  0
   30.4368    9.1547   52.2918 C   0  0  0  0  0  0  0  0  0  0  0  0
   31.5862    9.6728   51.4063 C   0  0  2  0  0  0  0  0  0  0  0  0
   32.6428   10.2780   52.2238 N   0  3  0  0  0  0  0  0  0  0  0  0
   31.0591   10.7129   50.3983 C   0  0  2  0  0  0  0  0  0  0  0  0
   29.9130   10.1675   49.5242 C   0  0  2  0  0  0  0  0  0  0  0  0
   29.4298   11.2870   48.7570 O   0  0  0  0  0  0  0  0  0  0  0  0
   28.7779    9.6021   50.4152 C   0  0  1  0  0  0  0  0  0  0  0  0
   27.7969    9.0230   49.5995 O   0  0  0  0  0  0  0  0  0  0  0  0
   28.7088   11.1502   47.5352 C   0  0  1  0  0  0  0  0  0  0  0  0
   28.3993   12.5840   46.9745 C   0  0  2  0  0  0  0  0  0  0  0  0
   27.1935   13.1455   47.4642 O   0  0  0  0  0  0  0  0  0  0  0  0
   28.3868   12.2427   45.4911 C   0  0  2  0  0  0  0  0  0  0  0  0
   27.2346   11.4138   45.1516 O   0  0  0  0  0  0  0  0  0  0  0  0
   29.6338   11.3837   45.3353 C   0  0  2  0  0  0  0  0  0  0  0  0
   29.5391   10.5506   46.5035 O   0  0  0  0  0  0  0  0  0  0  0  0
   30.9781   12.1802   45.2693 C   0  0  0  0  0  0  0  0  0  0  0  0
   31.2332   12.6795   43.9504 O   0  0  0  0  0  0  0  0  0  0  0  0
   27.1242   11.1157   43.7622 C   0  0  2  0  0  0  0  0  0  0  0  0
   25.9559   11.8546   43.0250 C   0  0  2  0  0  0  0  0  0  0  0  0
   24.6177   11.5691   43.6259 N   0  3  0  0  0  0  0  0  0  0  0  0
   26.0149   11.4201   41.5225 C   0  0  1  0  0  0  0  0  0  0  0  0
   27.3050   11.8982   40.9795 O   0  0  0  0  0  0  0  0  0  0  0  0
   25.9384    9.8540   41.3416 C   0  0  2  0  0  0  0  0  0  0  0  0
   24.6607    9.4009   41.8180 O   0  0  0  0  0  0  0  0  0  0  0  0
   27.1330    9.2042   42.1557 C   0  0  1  0  0  0  0  0  0  0  0  0
   27.0059    9.6393   43.5514 O   0  0  0  0  0  0  0  0  0  0  0  0
   27.1876    7.6608   42.0932 C   0  0  0  0  0  0  0  0  0  0  0  0
   27.7029    7.1389   40.7983 N   0  3  0  0  0  0  0  0  0  0  0  0
  1  2  1  1  0  0  0
  1  3  1  0  0  0  0
  1 10  1  0  0  0  0
  3  4  1  1  0  0  0
  3  5  1  0  0  0  0
  5  6  1  6  0  0  0
  5  7  1  0  0  0  0
  7  8  1  1  0  0  0
  7  9  1  0  0  0  0
  9 10  1  0  0  0  0
  9 11  1  6  0  0  0
 11 12  1  0  0  0  0
 13 14  1  1  0  0  0
 13 15  1  0  0  0  0
 13 21  1  0  0  0  0
 15 16  1  0  0  0  0
 16 17  1  1  0  0  0
 16 18  1  0  0  0  0
 18  2  1  6  0  0  0
 18 19  1  0  0  0  0
 19 20  1  1  0  0  0
 19 21  1  0  0  0  0
 21 22  1  6  0  0  0
 23 20  1  1  0  0  0
 23 24  1  0  0  0  0
 23 29  1  0  0  0  0
 24 25  1  1  0  0  0
 24 26  1  0  0  0  0
 26 27  1  1  0  0  0
 26 28  1  0  0  0  0
 28 29  1  0  0  0  0
 28 30  1  1  0  0  0
 30 31  1  0  0  0  0
 32 27  1  1  0  0  0
 32 33  1  0  0  0  0
 32 40  1  0  0  0  0
 33 34  1  1  0  0  0
 33 35  1  0  0  0  0
 35 36  1  1  0  0  0
 35 37  1  0  0  0  0
 37 38  1  1  0  0  0
 37 39  1  0  0  0  0
 39 40  1  0  0  0  0
 39 41  1  1  0  0  0
 41 42  1  0  0  0  0
M  CHG  5   4   1  14   1  17   1  34   1  42   1
M  END
>  <CHROM.1>
-177.22472401,152.48927585,-76.79654408,-168.97280840,175.47667793,68.92044970
-177.86271908,-43.74480294,-92.55890336,158.12952719,-178.04101695,62.29616680
63.42436766,176.88168033,-108.28435693,-82.36058406,61.60585830,-16.45320121
61.90744328,-72.34044018,75.62565025,-49.91569346,29.57482774,11.24223415
46.77705945,-0.71850089,-0.68410359,-1.14012583

>  <Name>
1j7t

>  <RI>
0

>  <Rbt.Current_Directory>
/home/itssahil/PROJECTS/Mol_Feturizer/New_Systems/rnas/1j7t

>  <Rbt.Executable>
rbdock ($Id: //depot/dev/client3/rdock/2013.1/src/exe/rbdock.cxx#4 $)

>  <Rbt.Library>
libRbt.so (2013.1, Build901 2013/11/27)

>  <Rbt.Parameter_File>
/export/apps/rDock/src/rDock_2013.1_src/data/scripts/dock_solv.prm

>  <Rbt.Receptor>
prm/blind_docking_60.prm

>  <SCORE>
-6.4053

>  <SCORE.INTER>
-37.371

>  <SCORE.INTER.CONST>
1

>  <SCORE.INTER.POLAR>
-5.77358

>  <SCORE.INTER.ROT>
9

>  <SCORE.INTER.SOLV>
30.9583

>  <SCORE.INTER.VDW>
-25.5882

>  <SCORE.INTER.norm>
-0.889785

>  <SCORE.INTRA>
-3.68779

>  <SCORE.INTRA.DIHEDRAL>
-22.912

>  <SCORE.INTRA.DIHEDRAL.0>
46.2143

>  <SCORE.INTRA.POLAR>
1.76272

>  <SCORE.INTRA.POLAR.0>
-1.76436

>  <SCORE.INTRA.REPUL>
0.042823

>  <SCORE.INTRA.REPUL.0>
0

>  <SCORE.INTRA.SOLV>
-6.05921

>  <SCORE.INTRA.SOLV.lig_0>
-148.643

>  <SCORE.INTRA.VDW>
4.59042

>  <SCORE.INTRA.VDW.0>
-4.83512

>  <SCORE.INTRA.norm>
-0.0878046

>  <SCORE.RESTR>
34.6535

>  <SCORE.RESTR.CAVITY>
34.6535

>  <SCORE.RESTR.norm>
0.825082

>  <SCORE.SYSTEM>
0

>  <SCORE.SYSTEM.CONST>
0

>  <SCORE.SYSTEM.DIHEDRAL>
0

>  <SCORE.SYSTEM.SOLV>
0

>  <SCORE.SYSTEM.norm>
0

>  <SCORE.heavy>
42

>  <SCORE.norm>
-0.152507

>  <RMSD>
11.725

$$$$
1j7t
 OpenBabel11021811393D
libRbt.so/2013.1/901 2013/11/27
 42 45  0  0  0  0  0  0  0  0999 V2000
   31.8980   11.6596   48.6617 C   0  0  2  0  0  0  0  0  0  0  0  0
   31.8092   11.5309   50.1033 O   0  0  0  0  0  0  0  0  0  0  0  0
   33.3889   11.9490   48.3252 C   0  0  2  0  0  0  0  0  0  0  0  0
   34.3541   10.9665   48.8968 N   0  3  0  0  0  0  0  0  0  0  0  0
   33.7437   13.3446   48.8832 C   0  0  1  0  0  0  0  0  0  0  0  0
   35.0749   13.6674   48.5948 O   0  0  0  0  0  0  0  0  0  0  0  0
   32.7855   14.4091   48.2981 C   0  0  2  0  0  0  0  0  0  0  0  0
   33.1070   15.6989   48.7802 O   0  0  0  0  0  0  0  0  0  0  0  0
   31.3575   14.0791   48.6774 C   0  0  2  0  0  0  0  0  0  0  0  0
   31.0443   12.7659   48.2310 O   0  0  0  0  0  0  0  0  0  0  0  0
   30.3463   15.0086   48.0445 C   0  0  0  0  0  0  0  0  0  0  0  0
   30.5592   15.0554   46.6468 O   0  0  0  0  0  0  0  0  0  0  0  0
   29.0715    8.5183   51.2335 C   0  0  2  0  0  0  0  0  0  0  0  0
   27.8963    7.8547   51.7992 N   0  3  0  0  0  0  0  0  0  0  0  0
   29.8841    9.2244   52.3691 C   0  0  0  0  0  0  0  0  0  0  0  0
   31.0955    9.9653   51.7715 C   0  0  2  0  0  0  0  0  0  0  0  0
   31.8388   10.6778   52.8159 N   0  3  0  0  0  0  0  0  0  0  0  0
   30.6331   10.9687   50.6967 C   0  0  2  0  0  0  0  0  0  0  0  0
   29.8059   10.3046   49.5787 C   0  0  2  0  0  0  0  0  0  0  0  0
   29.3212   11.3789   48.7502 O   0  0  0  0  0  0  0  0  0  0  0  0
   28.6149    9.5189   50.1838 C   0  0  1  0  0  0  0  0  0  0  0  0
   27.9397    8.8438   49.1584 O   0  0  0  0  0  0  0  0  0  0  0  0
   28.6703   11.1745   47.4989 C   0  0  1  0  0  0  0  0  0  0  0  0
   28.3934   12.5751   46.8450 C   0  0  2  0  0  0  0  0  0  0  0  0
   27.1621   13.1589   47.2349 O   0  0  0  0  0  0  0  0  0  0  0  0
   28.4646   12.1543   45.3838 C   0  0  2  0  0  0  0  0  0  0  0  0
   27.3332   11.3052   45.0251 O   0  0  0  0  0  0  0  0  0  0  0  0
   29.7182   11.2916   45.3452 C   0  0  2  0  0  0  0  0  0  0  0  0
   29.5574   10.5224   46.5495 O   0  0  0  0  0  0  0  0  0  0  0  0
   31.0642   12.0871   45.3123 C   0  0  0  0  0  0  0  0  0  0  0  0
   31.2253   12.8040   44.0819 O   0  0  0  0  0  0  0  0  0  0  0  0
   27.2207   11.0491   43.6275 C   0  0  2  0  0  0  0  0  0  0  0  0
   26.0548   11.8141   42.9136 C   0  0  2  0  0  0  0  0  0  0  0  0
   24.7159   11.5159   43.5067 N   0  3  0  0  0  0  0  0  0  0  0  0
   26.1112   11.4244   41.3987 C   0  0  1  0  0  0  0  0  0  0  0  0
   27.4027   11.9136   40.8693 O   0  0  0  0  0  0  0  0  0  0  0  0
   26.0286    9.8647   41.1713 C   0  0  2  0  0  0  0  0  0  0  0  0
   24.7494    9.4025   41.6349 O   0  0  0  0  0  0  0  0  0  0  0  0
   27.2213    9.1865   41.9646 C   0  0  1  0  0  0  0  0  0  0  0  0
   27.0967    9.5801   43.3728 O   0  0  0  0  0  0  0  0  0  0  0  0
   27.2700    7.6454   41.8560 C   0  0  0  0  0  0  0  0  0  0  0  0
   26.6900    6.9503   43.0372 N   0  3  0  0  0  0  0  0  0  0  0  0
  1  2  1  1  0  0  0
  1  3  1  0  0  0  0
  1 10  1  0  0  0  0
  3  4  1  1  0  0  0
  3  5  1  0  0  0  0
  5  6  1  6  0  0  0
  5  7  1  0  0  0  0
  7  8  1  1  0  0  0
  7  9  1  0  0  0  0
  9 10  1  0  0  0  0
  9 11  1  6  0  0  0
 11 12  1  0  0  0  0
 13 14  1  1  0  0  0
 13 15  1  0  0  0  0
 13 21  1  0  0  0  0
 15 16  1  0  0  0  0
 16 17  1  1  0  0  0
 16 18  1  0  0  0  0
 18  2  1  6  0  0  0
 18 19  1  0  0  0  0
 19 20  1  6  0  0  0
 19 21  1  0  0  0  0
 21 22  1  6  0  0  0
 23 20  1  1  0  0  0
 23 24  1  0  0  0  0
 23 29  1  0  0  0  0
 24 25  1  1  0  0  0
 24 26  1  0  0  0  0
 26 27  1  1  0  0  0
 26 28  1  0  0  0  0
 28 29  1  0  0  0  0
 28 30  1  1  0  0  0
 30 31  1  0  0  0  0
 32 27  1  1  0  0  0
 32 33  1  0  0  0  0
 32 40  1  0  0  0  0
 33 34  1  1  0  0  0
 33 35  1  0  0  0  0
 35 36  1  1  0  0  0
 35 37  1  0  0  0  0
 37 38  1  1  0  0  0
 37 39  1  0  0  0  0
 39 40  1  0  0  0  0
 39 41  1  1  0  0  0
 41 42  1  0  0  0  0
M  CHG  5   4   1  14   1  17   1  34   1  42   1
M  END
>  <CHROM.1>
-165.90816908,134.88540227,70.10540498,-179.48260935,65.10188230,52.56530329
75.79296545,-170.54162865,-174.61860486,170.83000373,-175.56629633,55.30214696
59.28713892,170.55783643,-106.44280027,-67.34358528,-10.68223678,-59.63989002
59.98172843,64.52215945,-99.57385633,-174.38806008,29.46223203,11.30614148
46.87711376,-0.66333182,-0.75215623,-1.07724571

>  <Name>
1j7t

>  <RI>
0

>  <Rbt.Current_Directory>
/home/itssahil/PROJECTS/Mol_Feturizer/New_Systems/rnas/1j7t

>  <Rbt.Executable>
rbdock ($Id: //depot/dev/client3/rdock/2013.1/src/exe/rbdock.cxx#4 $)

>  <Rbt.Library>
libRbt.so (2013.1, Build901 2013/11/27)

>  <Rbt.Parameter_File>
/export/apps/rDock/src/rDock_2013.1_src/data/scripts/dock_solv.prm

>  <Rbt.Receptor>
prm/blind_docking_60.prm

>  <SCORE>
-4.9314

>  <SCORE.INTER>
-36.7525

>  <SCORE.INTER.CONST>
1

>  <SCORE.INTER.POLAR>
-4.97488

>  <SCORE.INTER.ROT>
9

>  <SCORE.INTER.SOLV>
24.7803

>  <SCORE.INTER.VDW>
-25.7789

>  <SCORE.INTER.norm>
-0.87506

>  <SCORE.INTRA>
-1.44746

>  <SCORE.INTRA.DIHEDRAL>
-18.1745

>  <SCORE.INTRA.DIHEDRAL.0>
46.2143

>  <SCORE.INTRA.POLAR>
1.30506

>  <SCORE.INTRA.POLAR.0>
-1.76436

>  <SCORE.INTRA.REPUL>
0.0248564

>  <SCORE.INTRA.REPUL.0>
0

>  <SCORE.INTRA.SOLV>
-3.02076

>  <SCORE.INTRA.SOLV.lig_0>
-148.643

>  <SCORE.INTRA.VDW>
4.58867

>  <SCORE.INTRA.VDW.0>
-4.83512

>  <SCORE.INTRA.norm>
-0.0344633

>  <SCORE.RESTR>
33.2686

>  <SCORE.RESTR.CAVITY>
33.2686

>  <SCORE.RESTR.norm>
0.792109

>  <SCORE.SYSTEM>
0

>  <SCORE.SYSTEM.CONST>
0

>  <SCORE.SYSTEM.DIHEDRAL>
0

>  <SCORE.SYSTEM.SOLV>
0

>  <SCORE.SYSTEM.norm>
0

>  <SCORE.heavy>
42

>  <SCORE.norm>
-0.117414

>  <RMSD>
11.738

$$$$
1j7t
 OpenBabel11021811393D
libRbt.so/2013.1/901 2013/11/27
 42 45  0  0  0  0  0  0  0  0999 V2000
   31.5619   12.7921   48.2306 C   0  0  2  0  0  0  0  0  0  0  0  0
   31.9115   11.6866   49.1013 O   0  0  0  0  0  0  0  0  0  0  0  0
   32.1401   12.4603   46.8251 C   0  0  2  0  0  0  0  0  0  0  0  0
   31.7370   11.1284   46.2891 N   0  3  0  0  0  0  0  0  0  0  0  0
   33.6811   12.4877   46.9225 C   0  0  1  0  0  0  0  0  0  0  0  0
   34.2590   12.2108   45.6779 O   0  0  0  0  0  0  0  0  0  0  0  0
   34.1549   13.8628   47.4499 C   0  0  2  0  0  0  0  0  0  0  0  0
   35.5658   13.9166   47.5264 O   0  0  0  0  0  0  0  0  0  0  0  0
   33.5733   14.1141   48.8248 C   0  0  2  0  0  0  0  0  0  0  0  0
   32.1560   14.0189   48.7600 O   0  0  0  0  0  0  0  0  0  0  0  0
   33.8947   15.4908   49.3617 C   0  0  0  0  0  0  0  0  0  0  0  0
   35.2452   15.5297   49.7812 O   0  0  0  0  0  0  0  0  0  0  0  0
   29.4786    8.5421   50.5299 C   0  0  2  0  0  0  0  0  0  0  0  0
   28.4582    7.8110   51.2822 N   0  3  0  0  0  0  0  0  0  0  0  0
   30.5358    9.1463   51.5126 C   0  0  0  0  0  0  0  0  0  0  0  0
   31.5847    9.9579   50.7286 C   0  0  2  0  0  0  0  0  0  0  0  0
   32.5536   10.5764   51.6394 N   0  3  0  0  0  0  0  0  0  0  0  0
   30.8975   11.0538   49.8905 C   0  0  2  0  0  0  0  0  0  0  0  0
   29.8305   10.4894   48.9322 C   0  0  2  0  0  0  0  0  0  0  0  0
   29.1786   11.6319   48.3447 O   0  0  0  0  0  0  0  0  0  0  0  0
   28.8027    9.6329   49.7145 C   0  0  1  0  0  0  0  0  0  0  0  0
   27.9049    9.0507   48.8101 O   0  0  0  0  0  0  0  0  0  0  0  0
   28.3385   11.5532   47.1961 C   0  0  1  0  0  0  0  0  0  0  0  0
   27.8541   13.0018   46.8312 C   0  0  2  0  0  0  0  0  0  0  0  0
   26.6697   13.3983   47.5012 O   0  0  0  0  0  0  0  0  0  0  0  0
   27.7028   12.8116   45.3284 C   0  0  2  0  0  0  0  0  0  0  0  0
   26.5901   11.9190   45.0204 O   0  0  0  0  0  0  0  0  0  0  0  0
   28.9894   12.0905   44.9517 C   0  0  2  0  0  0  0  0  0  0  0  0
   29.0934   11.1390   46.0248 O   0  0  0  0  0  0  0  0  0  0  0  0
   30.2496   13.0094   44.8355 C   0  0  0  0  0  0  0  0  0  0  0  0
   31.2631   12.4164   44.0139 O   0  0  0  0  0  0  0  0  0  0  0  0
   26.7413   11.2054   43.7959 C   0  0  2  0  0  0  0  0  0  0  0  0
   25.9853   11.8323   42.5753 C   0  0  2  0  0  0  0  0  0  0  0  0
   24.5150   11.9643   42.8085 N   0  3  0  0  0  0  0  0  0  0  0  0
   26.2908   10.9289   41.3342 C   0  0  1  0  0  0  0  0  0  0  0  0
   27.7472   11.0028   41.0875 O   0  0  0  0  0  0  0  0  0  0  0  0
   25.8930    9.4199   41.5711 C   0  0  2  0  0  0  0  0  0  0  0  0
   24.4697    9.3458   41.7536 O   0  0  0  0  0  0  0  0  0  0  0  0
   26.6768    8.8973   42.8457 C   0  0  1  0  0  0  0  0  0  0  0  0
   26.3323    9.7767   43.9687 O   0  0  0  0  0  0  0  0  0  0  0  0
   26.3804    7.4281   43.2236 C   0  0  0  0  0  0  0  0  0  0  0  0
   27.1622    6.4432   42.4278 N   0  3  0  0  0  0  0  0  0  0  0  0
  1  2  1  1  0  0  0
  1  3  1  0  0  0  0
  1 10  1  0  0  0  0
  3  4  1  1  0  0  0
  3  5  1  0  0  0  0
  5  6  1  6  0  0  0
  5  7  1  0  0  0  0
  7  8  1  1  0  0  0
  7  9  1  0  0  0  0
  9 10  1  0  0  0  0
  9 11  1  6  0  0  0
 11 12  1  0  0  0  0
 13 14  1  1  0  0  0
 13 15  1  0  0  0  0
 13 21  1  0  0  0  0
 15 16  1  0  0  0  0
 16 17  1  1  0  0  0
 16 18  1  0  0  0  0
 18  2  1  6  0  0  0
 18 19  1  0  0  0  0
 19 20  1  1  0  0  0
 19 21  1  0  0  0  0
 21 22  1  6  0  0  0
 23 20  1  1  0  0  0
 23 24  1  0  0  0  0
 23 29  1  0  0  0  0
 24 25  1  1  0  0  0
 24 26  1  0  0  0  0
 26 27  1  1  0  0  0
 26 28  1  0  0  0  0
 28 29  1  0  0  0  0
 28 30  1  1  0  0  0
 30 31  1  0  0  0  0
 32 27  1  1  0  0  0
 32 33  1  0  0  0  0
 32 40  1  0  0  0  0
 33 34  1  1  0  0  0
 33 35  1  0  0  0  0
 35 36  1  1  0  0  0
 35 37  1  0  0  0  0
 37 38  1  1  0  0  0
 37 39  1  0  0  0  0
 39 40  1  0  0  0  0
 39 41  1  1  0  0  0
 41 42  1  0  0  0  0
M  CHG  5   4   1  14   1  17   1  34   1  42   1
M  END
>  <CHROM.1>
-128.98900024,-178.35968558,-66.99178871,-72.39445260,65.46510347,-75.07290509
59.63949261,-26.00901882,170.37242610,165.74316719,-178.18626991,48.12050909
63.86346340,-152.15602246,-98.15433033,-157.74224808,-156.17669662,167.24711269
-179.18363445,172.30689096,81.93844988,-176.09806104,29.62937771,11.34376089
46.53624559,-0.49736382,-0.64435426,-1.13557251

>  <Name>
1j7t

>  <RI>
0

>  <Rbt.Current_Directory>
/home/itssahil/PROJECTS/Mol_Feturizer/New_Systems/rnas/1j7t

>  <Rbt.Executable>
rbdock ($Id: //depot/dev/client3/rdock/2013.1/src/exe/rbdock.cxx#4 $)

>  <Rbt.Library>
libRbt.so (2013.1, Build901 2013/11/27)

>  <Rbt.Parameter_File>
/export/apps/rDock/src/rDock_2013.1_src/data/scripts/dock_solv.prm

>  <Rbt.Receptor>
prm/blind_docking_60.prm

>  <SCORE>
5.97114

>  <SCORE.INTER>
-24.3574

>  <SCORE.INTER.CONST>
1

>  <SCORE.INTER.POLAR>
-4.12328

>  <SCORE.INTER.ROT>
9

>  <SCORE.INTER.SOLV>
32.2379

>  <SCORE.INTER.VDW>
-22.84

>  <SCORE.INTER.norm>
-0.579938

>  <SCORE.INTRA>
-7.05652

>  <SCORE.INTRA.DIHEDRAL>
-18.4952

>  <SCORE.INTRA.DIHEDRAL.0>
46.2143

>  <SCORE.INTRA.POLAR>
-0.827157

>  <SCORE.INTRA.POLAR.0>
-1.76436

>  <SCORE.INTRA.REPUL>
0

>  <SCORE.INTRA.REPUL.0>
0

>  <SCORE.INTRA.SOLV>
2.30021

>  <SCORE.INTRA.SOLV.lig_0>
-148.643

>  <SCORE.INTRA.VDW>
3.85329

>  <SCORE.INTRA.VDW.0>
-4.83512

>  <SCORE.INTRA.norm>
-0.168012

>  <SCORE.RESTR>
37.3851

>  <SCORE.RESTR.CAVITY>
37.3851

>  <SCORE.RESTR.norm>
0.89012

>  <SCORE.SYSTEM>
0

>  <SCORE.SYSTEM.CONST>
0

>  <SCORE.SYSTEM.DIHEDRAL>
0

>  <SCORE.SYSTEM.SOLV>
0

>  <SCORE.SYSTEM.norm>
0

>  <SCORE.heavy>
42

>  <SCORE.norm>
0.14217

>  <RMSD>
11.783

$$$$
1j7t
 OpenBabel11021811393D
libRbt.so/2013.1/901 2013/11/27
 42 45  0  0  0  0  0  0  0  0999 V2000
   30.1914   11.1376   50.6061 C   0  0  2  0  0  0  0  0  0  0  0  0
   31.4775   11.1607   49.9369 O   0  0  0  0  0  0  0  0  0  0  0  0
   30.4657   10.8010   52.1000 C   0  0  2  0  0  0  0  0  0  0  0  0
   31.4660   11.6880   52.7604 N   0  3  0  0  0  0  0  0  0  0  0  0
   30.9921    9.3511   52.1753 C   0  0  1  0  0  0  0  0  0  0  0  0
   31.2422    8.9854   53.5032 O   0  0  0  0  0  0  0  0  0  0  0  0
   29.9752    8.3830   51.5255 C   0  0  2  0  0  0  0  0  0  0  0  0
   30.4286    7.0460   51.6031 O   0  0  0  0  0  0  0  0  0  0  0  0
   29.7690    8.7538   50.0722 C   0  0  2  0  0  0  0  0  0  0  0  0
   29.3535   10.1111   49.9879 O   0  0  0  0  0  0  0  0  0  0  0  0
   28.6991    7.9264   49.3956 C   0  0  0  0  0  0  0  0  0  0  0  0
   27.5135    7.9676   50.1663 O   0  0  0  0  0  0  0  0  0  0  0  0
   32.3191   14.2318   47.1606 C   0  0  2  0  0  0  0  0  0  0  0  0
   32.4665   14.9568   45.8980 N   0  3  0  0  0  0  0  0  0  0  0  0
   33.2657   12.9860   47.1745 C   0  0  0  0  0  0  0  0  0  0  0  0
   33.0778   12.1925   48.4817 C   0  0  2  0  0  0  0  0  0  0  0  0
   33.9189   10.9911   48.4885 N   0  3  0  0  0  0  0  0  0  0  0  0
   31.6013   11.7853   48.6539 C   0  0  2  0  0  0  0  0  0  0  0  0
   30.6426   12.9914   48.6164 C   0  0  2  0  0  0  0  0  0  0  0  0
   29.3108   12.4422   48.6302 O   0  0  0  0  0  0  0  0  0  0  0  0
   30.8655   13.8169   47.3238 C   0  0  1  0  0  0  0  0  0  0  0  0
   30.0556   14.9596   47.3615 O   0  0  0  0  0  0  0  0  0  0  0  0
   28.7419   11.7317   47.5335 C   0  0  1  0  0  0  0  0  0  0  0  0
   28.4162   12.7566   46.3892 C   0  0  2  0  0  0  0  0  0  0  0  0
   27.1325   13.3481   46.4947 O   0  0  0  0  0  0  0  0  0  0  0  0
   28.5914   11.8225   45.2000 C   0  0  2  0  0  0  0  0  0  0  0  0
   27.5347   10.8168   45.1608 O   0  0  0  0  0  0  0  0  0  0  0  0
   29.8953   11.1077   45.5259 C   0  0  2  0  0  0  0  0  0  0  0  0
   29.7168   10.8397   46.9274 O   0  0  0  0  0  0  0  0  0  0  0  0
   31.1904   11.9326   45.2293 C   0  0  0  0  0  0  0  0  0  0  0  0
   30.9644   12.9297   44.2249 O   0  0  0  0  0  0  0  0  0  0  0  0
   27.3072   10.2651   43.8664 C   0  0  2  0  0  0  0  0  0  0  0  0
   26.4599   11.1703   42.9087 C   0  0  2  0  0  0  0  0  0  0  0  0
   25.1150   11.5067   43.4668 N   0  3  0  0  0  0  0  0  0  0  0  0
   26.3421   10.4103   41.5454 C   0  0  1  0  0  0  0  0  0  0  0  0
   27.7099   10.2792   40.9983 O   0  0  0  0  0  0  0  0  0  0  0  0
   25.7209    8.9684   41.7078 C   0  0  2  0  0  0  0  0  0  0  0  0
   24.3724    9.1029   42.1855 O   0  0  0  0  0  0  0  0  0  0  0  0
   26.6251    8.1530   42.7225 C   0  0  1  0  0  0  0  0  0  0  0  0
   26.6779    8.9123   43.9771 O   0  0  0  0  0  0  0  0  0  0  0  0
   26.1365    6.7139   43.0038 C   0  0  0  0  0  0  0  0  0  0  0  0
   26.6015    5.7233   41.9953 N   0  3  0  0  0  0  0  0  0  0  0  0
  1  2  1  6  0  0  0
  1  3  1  0  0  0  0
  1 10  1  0  0  0  0
  3  4  1  6  0  0  0
  3  5  1  0  0  0  0
  5  6  1  1  0  0  0
  5  7  1  0  0  0  0
  7  8  1  6  0  0  0
  7  9  1  0  0  0  0
  9 10  1  0  0  0  0
  9 11  1  1  0  0  0
 11 12  1  0  0  0  0
 13 14  1  6  0  0  0
 13 15  1  0  0  0  0
 13 21  1  0  0  0  0
 15 16  1  0  0  0  0
 16 17  1  6  0  0  0
 16 18  1  0  0  0  0
 18  2  1  1  0  0  0
 18 19  1  0  0  0  0
 19 20  1  6  0  0  0
 19 21  1  0  0  0  0
 21 22  1  1  0  0  0
 23 20  1  1  0  0  0
 23 24  1  0  0  0  0
 23 29  1  0  0  0  0
 24 25  1  1  0  0  0
 24 26  1  0  0  0  0
 26 27  1  1  0  0  0
 26 28  1  0  0  0  0
 28 29  1  0  0  0  0
 28 30  1  1  0  0  0
 30 31  1  0  0  0  0
 32 27  1  1  0  0  0
 32 33  1  0  0  0  0
 32 40  1  0  0  0  0
 33 34  1  1  0  0  0
 33 35  1  0  0  0  0
 35 36  1  1  0  0  0
 35 37  1  0  0  0  0
 37 38  1  1  0  0  0
 37 39  1  0  0  0  0
 39 40  1  0  0  0  0
 39 41  1  1  0  0  0
 41 42  1  0  0  0  0
M  CHG  5   4   1  14   1  17   1  34   1  42   1
M  END
>  <CHROM.1>
-163.21855019,156.10442189,-174.33811872,-72.25602875,55.77494298,52.15055389
59.96351641,-42.84031237,-84.27872230,-69.88612104,-72.36443436,-44.15709564
-172.39168820,156.57722688,-78.88228015,-24.45819079,-60.44607147,-177.72395060
-55.74888302,68.07973750,84.61745197,61.62082012,29.27975154,10.78166337
46.96576493,0.65288121,0.87816081,2.19743760

>  <Name>
1j7t

>  <RI>
0

>  <Rbt.Current_Directory>
/home/itssahil/PROJECTS/Mol_Feturizer/New_Systems/rnas/1j7t

>  <Rbt.Executable>
rbdock ($Id: //depot/dev/client3/rdock/2013.1/src/exe/rbdock.cxx#4 $)

>  <Rbt.Library>
libRbt.so (2013.1, Build901 2013/11/27)

>  <Rbt.Parameter_File>
/export/apps/rDock/src/rDock_2013.1_src/data/scripts/dock_solv.prm

>  <Rbt.Receptor>
prm/blind_docking_60.prm

>  <SCORE>
5.15458

>  <SCORE.INTER>
-15.8584

>  <SCORE.INTER.CONST>
1

>  <SCORE.INTER.POLAR>
-1.66461

>  <SCORE.INTER.ROT>
9

>  <SCORE.INTER.SOLV>
20.8519

>  <SCORE.INTER.VDW>
-21.5742

>  <SCORE.INTER.norm>
-0.377582

>  <SCORE.INTRA>
-8.88907

>  <SCORE.INTRA.DIHEDRAL>
-26.5915

>  <SCORE.INTRA.DIHEDRAL.0>
46.2143

>  <SCORE.INTRA.POLAR>
0.192054

>  <SCORE.INTRA.POLAR.0>
-1.76436

>  <SCORE.INTRA.REPUL>
0

>  <SCORE.INTRA.REPUL.0>
0

>  <SCORE.INTRA.SOLV>
-1.19842

>  <SCORE.INTRA.SOLV.lig_0>
-148.643

>  <SCORE.INTRA.VDW>
4.3529

>  <SCORE.INTRA.VDW.0>
-4.83512

>  <SCORE.INTRA.norm>
-0.211645

>  <SCORE.RESTR>
29.9021

>  <SCORE.RESTR.CAVITY>
29.9021

>  <SCORE.RESTR.norm>
0.711954

>  <SCORE.SYSTEM>
0

>  <SCORE.SYSTEM.CONST>
0

>  <SCORE.SYSTEM.DIHEDRAL>
0

>  <SCORE.SYSTEM.SOLV>
0

>  <SCORE.SYSTEM.norm>
0

>  <SCORE.heavy>
42

>  <SCORE.norm>
0.122728

>  <RMSD>
11.811

$$$$
1j7t
 OpenBabel11021811393D
libRbt.so/2013.1/901 2013/11/27
 42 45  0  0  0  0  0  0  0  0999 V2000
   30.2074   11.1904   50.5937 C   0  0  2  0  0  0  0  0  0  0  0  0
   31.5005   11.1853   49.9378 O   0  0  0  0  0  0  0  0  0  0  0  0
   30.4608   10.8669   52.0941 C   0  0  2  0  0  0  0  0  0  0  0  0
   31.4681   11.7457   52.7548 N   0  3  0  0  0  0  0  0  0  0  0  0
   30.9632    9.4099   52.1917 C   0  0  1  0  0  0  0  0  0  0  0  0
   31.1937    9.0559   53.5262 O   0  0  0  0  0  0  0  0  0  0  0  0
   29.9378    8.4505   51.5424 C   0  0  2  0  0  0  0  0  0  0  0  0
   30.3690    7.1075   51.6401 O   0  0  0  0  0  0  0  0  0  0  0  0
   29.7526    8.8074   50.0828 C   0  0  2  0  0  0  0  0  0  0  0  0
   29.3597   10.1701   49.9786 O   0  0  0  0  0  0  0  0  0  0  0  0
   28.6767    7.9893   49.4045 C   0  0  0  0  0  0  0  0  0  0  0  0
   27.4361    8.2189   50.0444 O   0  0  0  0  0  0  0  0  0  0  0  0
   32.4845   14.3382   47.3036 C   0  0  2  0  0  0  0  0  0  0  0  0
   32.6758   15.1088   46.0743 N   0  3  0  0  0  0  0  0  0  0  0  0
   33.3911   13.0630   47.2808 C   0  0  0  0  0  0  0  0  0  0  0  0
   33.1566   12.2235   48.5512 C   0  0  2  0  0  0  0  0  0  0  0  0
   33.9592   10.9964   48.5214 N   0  3  0  0  0  0  0  0  0  0  0  0
   31.6653   11.8572   48.6836 C   0  0  2  0  0  0  0  0  0  0  0  0
   30.7458   13.0940   48.6811 C   0  0  2  0  0  0  0  0  0  0  0  0
   29.3973   12.5878   48.6517 O   0  0  0  0  0  0  0  0  0  0  0  0
   31.0161   13.9638   47.4272 C   0  0  1  0  0  0  0  0  0  0  0  0
   30.2420   15.1294   47.4993 O   0  0  0  0  0  0  0  0  0  0  0  0
   28.8485   11.8763   47.5455 C   0  0  1  0  0  0  0  0  0  0  0  0
   28.4311   12.9129   46.4421 C   0  0  2  0  0  0  0  0  0  0  0  0
   27.1154   13.4173   46.5949 O   0  0  0  0  0  0  0  0  0  0  0  0
   28.6367   12.0289   45.2200 C   0  0  2  0  0  0  0  0  0  0  0  0
   27.6452   10.9591   45.1716 O   0  0  0  0  0  0  0  0  0  0  0  0
   29.9907   11.3895   45.4941 C   0  0  2  0  0  0  0  0  0  0  0  0
   29.8632   11.0677   46.8897 O   0  0  0  0  0  0  0  0  0  0  0  0
   31.2235   12.3045   45.1958 C   0  0  0  0  0  0  0  0  0  0  0  0
   31.2221   12.7689   43.8399 O   0  0  0  0  0  0  0  0  0  0  0  0
   27.3282   10.5218   43.8526 C   0  0  2  0  0  0  0  0  0  0  0  0
   26.5103   11.5510   43.0005 C   0  0  2  0  0  0  0  0  0  0  0  0
   25.2158   11.9359   43.6405 N   0  3  0  0  0  0  0  0  0  0  0  0
   26.2850   10.9041   41.5932 C   0  0  1  0  0  0  0  0  0  0  0  0
   27.6174   10.7212   40.9777 O   0  0  0  0  0  0  0  0  0  0  0  0
   25.5698    9.4998   41.6799 C   0  0  2  0  0  0  0  0  0  0  0  0
   24.2541    9.6899   42.2255 O   0  0  0  0  0  0  0  0  0  0  0  0
   26.4530    8.5517   42.5927 C   0  0  1  0  0  0  0  0  0  0  0  0
   26.6091    9.2105   43.8946 O   0  0  0  0  0  0  0  0  0  0  0  0
   25.8748    7.1323   42.7922 C   0  0  0  0  0  0  0  0  0  0  0  0
   26.7239    6.2627   43.6509 N   0  3  0  0  0  0  0  0  0  0  0  0
  1  2  1  6  0  0  0
  1  3  1  0  0  0  0
  1 10  1  0  0  0  0
  3  4  1  6  0  0  0
  3  5  1  0  0  0  0
  5  6  1  1  0  0  0
  5  7  1  0  0  0  0
  7  8  1  6  0  0  0
  7  9  1  0  0  0  0
  9 10  1  0  0  0  0
  9 11  1  1  0  0  0
 11 12  1  0  0  0  0
 13 14  1  6  0  0  0
 13 15  1  0  0  0  0
 13 21  1  0  0  0  0
 15 16  1  0  0  0  0
 16 17  1  6  0  0  0
 16 18  1  0  0  0  0
 18  2  1  1  0  0  0
 18 19  1  0  0  0  0
 19 20  1  6  0  0  0
 19 21  1  0  0  0  0
 21 22  1  1  0  0  0
 23 20  1  1  0  0  0
 23 24  1  0  0  0  0
 23 29  1  0  0  0  0
 24 25  1  1  0  0  0
 24 26  1  0  0  0  0
 26 27  1  1  0  0  0
 26 28  1  0  0  0  0
 28 29  1  0  0  0  0
 28 30  1  1  0  0  0
 30 31  1  0  0  0  0
 32 27  1  1  0  0  0
 32 33  1  0  0  0  0
 32 40  1  0  0  0  0
 33 34  1  1  0  0  0
 33 35  1  0  0  0  0
 35 36  1  1  0  0  0
 35 37  1  0  0  0  0
 37 38  1  1  0  0  0
 37 39  1  0  0  0  0
 39 40  1  0  0  0  0
 39 41  1  1  0  0  0
 41 42  1  0  0  0  0
M  CHG  5   4   1  14   1  17   1  34   1  42   1
M  END
>  <CHROM.1>
-159.74955068,155.34478836,-52.62577117,-71.50727194,-179.41650273,60.96013862
-64.84185472,-174.20055387,159.08159789,-66.30731791,-79.47695355,-172.77598720
-56.67860556,150.88730494,-70.37290164,-56.70224347,111.63917610,-149.37627801
179.90090195,-86.43716186,179.91791687,144.50223616,29.30485614,10.96798588
47.02545186,0.70492238,0.82125302,2.18081180

>  <Name>
1j7t

>  <RI>
0

>  <Rbt.Current_Directory>
/home/itssahil/PROJECTS/Mol_Feturizer/New_Systems/rnas/1j7t

>  <Rbt.Executable>
rbdock ($Id: //depot/dev/client3/rdock/2013.1/src/exe/rbdock.cxx#4 $)

>  <Rbt.Library>
libRbt.so (2013.1, Build901 2013/11/27)

>  <Rbt.Parameter_File>
/export/apps/rDock/src/rDock_2013.1_src/data/scripts/dock_solv.prm

>  <Rbt.Receptor>
prm/blind_docking_60.prm

>  <SCORE>
6.90255

>  <SCORE.INTER>
-25.8714

>  <SCORE.INTER.CONST>
1

>  <SCORE.INTER.POLAR>
-3.37295

>  <SCORE.INTER.ROT>
9

>  <SCORE.INTER.SOLV>
25.307

>  <SCORE.INTER.VDW>
-24.0401

>  <SCORE.INTER.norm>
-0.615986

>  <SCORE.INTRA>
1.44213

>  <SCORE.INTRA.DIHEDRAL>
-19.1806

>  <SCORE.INTRA.DIHEDRAL.0>
46.2143

>  <SCORE.INTRA.POLAR>
1.74807

>  <SCORE.INTRA.POLAR.0>
-1.76436

>  <SCORE.INTRA.REPUL>
0

>  <SCORE.INTRA.REPUL.0>
0

>  <SCORE.INTRA.SOLV>
-1.69488

>  <SCORE.INTRA.SOLV.lig_0>
-148.643

>  <SCORE.INTRA.VDW>
5.93641

>  <SCORE.INTRA.VDW.0>
-4.83512

>  <SCORE.INTRA.norm>
0.0343365

>  <SCORE.RESTR>
31.3318

>  <SCORE.RESTR.CAVITY>
31.3318

>  <SCORE.RESTR.norm>
0.745996

>  <SCORE.SYSTEM>
0

>  <SCORE.SYSTEM.CONST>
0

>  <SCORE.SYSTEM.DIHEDRAL>
0

>  <SCORE.SYSTEM.SOLV>
0

>  <SCORE.SYSTEM.norm>
0

>  <SCORE.heavy>
42

>  <SCORE.norm>
0.164346

>  <RMSD>
11.825

$$$$
1j7t
 OpenBabel11021811393D
libRbt.so/2013.1/901 2013/11/27
 42 45  0  0  0  0  0  0  0  0999 V2000
   33.1351   12.5836   48.5560 C   0  0  2  0  0  0  0  0  0  0  0  0
   31.9201   11.7942   48.4978 O   0  0  0  0  0  0  0  0  0  0  0  0
   32.8508   13.9071   47.7894 C   0  0  2  0  0  0  0  0  0  0  0  0
   31.6391   14.6423   48.2528 N   0  3  0  0  0  0  0  0  0  0  0  0
   32.6572   13.5636   46.2963 C   0  0  1  0  0  0  0  0  0  0  0  0
   32.4132   14.7231   45.5510 O   0  0  0  0  0  0  0  0  0  0  0  0
   33.9026   12.8208   45.7570 C   0  0  2  0  0  0  0  0  0  0  0  0
   33.7548   12.5156   44.3844 O   0  0  0  0  0  0  0  0  0  0  0  0
   34.1105   11.5367   46.5315 C   0  0  2  0  0  0  0  0  0  0  0  0
   34.2174   11.8359   47.9175 O   0  0  0  0  0  0  0  0  0  0  0  0
   35.3777   10.8086   46.1426 C   0  0  0  0  0  0  0  0  0  0  0  0
   35.0451    9.5757   45.5340 O   0  0  0  0  0  0  0  0  0  0  0  0
   30.3178    9.2381   51.4553 C   0  0  2  0  0  0  0  0  0  0  0  0
   29.6368    8.7725   52.6639 N   0  3  0  0  0  0  0  0  0  0  0  0
   31.5573   10.1107   51.8435 C   0  0  0  0  0  0  0  0  0  0  0  0
   32.2488   10.6432   50.5739 C   0  0  2  0  0  0  0  0  0  0  0  0
   33.3818   11.5078   50.9203 N   0  3  0  0  0  0  0  0  0  0  0  0
   31.2469   11.4335   49.7095 C   0  0  2  0  0  0  0  0  0  0  0  0
   30.0016   10.6063   49.3348 C   0  0  2  0  0  0  0  0  0  0  0  0
   29.1029   11.5171   48.6728 O   0  0  0  0  0  0  0  0  0  0  0  0
   29.3339   10.0304   50.6092 C   0  0  1  0  0  0  0  0  0  0  0  0
   28.2670    9.2023   50.2363 O   0  0  0  0  0  0  0  0  0  0  0  0
   28.4538   11.2230   47.4386 C   0  0  1  0  0  0  0  0  0  0  0  0
   28.2242   12.5684   46.6618 C   0  0  2  0  0  0  0  0  0  0  0  0
   27.0090   13.2210   46.9881 O   0  0  0  0  0  0  0  0  0  0  0  0
   28.2913   12.0186   45.2439 C   0  0  2  0  0  0  0  0  0  0  0  0
   27.1366   11.1756   44.9511 O   0  0  0  0  0  0  0  0  0  0  0  0
   29.5180   11.1185   45.2923 C   0  0  2  0  0  0  0  0  0  0  0  0
   29.3262   10.4635   46.5580 O   0  0  0  0  0  0  0  0  0  0  0  0
   30.8881   11.8671   45.2016 C   0  0  0  0  0  0  0  0  0  0  0  0
   30.9912   12.6383   43.9980 O   0  0  0  0  0  0  0  0  0  0  0  0
   26.9015   10.9775   43.5594 C   0  0  2  0  0  0  0  0  0  0  0  0
   25.4643   11.3711   43.0757 C   0  0  2  0  0  0  0  0  0  0  0  0
   24.3857   10.6289   43.7962 N   0  3  0  0  0  0  0  0  0  0  0  0
   25.4116   11.1070   41.5339 C   0  0  1  0  0  0  0  0  0  0  0  0
   26.3965   12.0112   40.9014 O   0  0  0  0  0  0  0  0  0  0  0  0
   25.7790    9.6177   41.1618 C   0  0  2  0  0  0  0  0  0  0  0  0
   24.7877    8.7468   41.7305 O   0  0  0  0  0  0  0  0  0  0  0  0
   27.2265    9.3101   41.7294 C   0  0  1  0  0  0  0  0  0  0  0  0
   27.1982    9.5624   43.1747 O   0  0  0  0  0  0  0  0  0  0  0  0
   27.7294    7.8735   41.4604 C   0  0  0  0  0  0  0  0  0  0  0  0
   27.0422    6.8420   42.2840 N   0  3  0  0  0  0  0  0  0  0  0  0
  1  2  1  6  0  0  0
  1  3  1  0  0  0  0
  1 10  1  0  0  0  0
  3  4  1  1  0  0  0
  3  5  1  0  0  0  0
  5  6  1  6  0  0  0
  5  7  1  0  0  0  0
  7  8  1  6  0  0  0
  7  9  1  0  0  0  0
  9 10  1  0  0  0  0
  9 11  1  6  0  0  0
 11 12  1  0  0  0  0
 13 14  1  1  0  0  0
 13 15  1  0  0  0  0
 13 21  1  0  0  0  0
 15 16  1  0  0  0  0
 16 17  1  1  0  0  0
 16 18  1  0  0  0  0
 18  2  1  6  0  0  0
 18 19  1  0  0  0  0
 19 20  1  1  0  0  0
 19 21  1  0  0  0  0
 21 22  1  6  0  0  0
 23 20  1  1  0  0  0
 23 24  1  0  0  0  0
 23 29  1  0  0  0  0
 24 25  1  1  0  0  0
 24 26  1  0  0  0  0
 26 27  1  1  0  0  0
 26 28  1  0  0  0  0
 28 29  1  0  0  0  0
 28 30  1  1  0  0  0
 30 31  1  0  0  0  0
 32 27  1  1  0  0  0
 32 33  1  0  0  0  0
 32 40  1  0  0  0  0
 33 34  1  1  0  0  0
 33 35  1  0  0  0  0
 35 36  1  6  0  0  0
 35 37  1  0  0  0  0
 37 38  1  1  0  0  0
 37 39  1  0  0  0  0
 39 40  1  0  0  0  0
 39 41  1  1  0  0  0
 41 42  1  0  0  0  0
M  CHG  5   4   1  14   1  17   1  34   1  42   1
M  END
>  <CHROM.1>
-118.87316841,-58.22457682,-164.92071221,59.65147288,71.57083222,-114.25125992
-161.74870459,-156.34804459,146.35759793,132.03932711,-149.96903193,166.66415064
175.28148773,161.02740860,-124.71918026,-58.33822606,153.21425245,-178.84518670
58.76833141,64.34010100,-72.27676699,161.62704146,29.84954407,11.13339291
46.26776111,-0.75704631,-0.38855083,-1.40513264

>  <Name>
1j7t

>  <RI>
0

>  <Rbt.Current_Directory>
/home/itssahil/PROJECTS/Mol_Feturizer/New_Systems/rnas/1j7t

>  <Rbt.Executable>
rbdock ($Id: //depot/dev/client3/rdock/2013.1/src/exe/rbdock.cxx#4 $)

>  <Rbt.Library>
libRbt.so (2013.1, Build901 2013/11/27)

>  <Rbt.Parameter_File>
/export/apps/rDock/src/rDock_2013.1_src/data/scripts/dock_solv.prm

>  <Rbt.Receptor>
prm/blind_docking_60.prm

>  <SCORE>
31.1808

>  <SCORE.INTER>
-7.57184

>  <SCORE.INTER.CONST>
1

>  <SCORE.INTER.POLAR>
-1.16535

>  <SCORE.INTER.ROT>
9

>  <SCORE.INTER.SOLV>
22.982

>  <SCORE.INTER.VDW>
-18.4241

>  <SCORE.INTER.norm>
-0.180282

>  <SCORE.INTRA>
1.54325

>  <SCORE.INTRA.DIHEDRAL>
-3.22864

>  <SCORE.INTRA.DIHEDRAL.0>
46.2143

>  <SCORE.INTRA.POLAR>
-0.539049

>  <SCORE.INTRA.POLAR.0>
-1.76436

>  <SCORE.INTRA.REPUL>
0

>  <SCORE.INTRA.REPUL.0>
0

>  <SCORE.INTRA.SOLV>
1.09975

>  <SCORE.INTRA.SOLV.lig_0>
-148.643

>  <SCORE.INTRA.VDW>
4.44047

>  <SCORE.INTRA.VDW.0>
-4.83512

>  <SCORE.INTRA.norm>
0.0367441

>  <SCORE.RESTR>
37.2093

>  <SCORE.RESTR.CAVITY>
37.2093

>  <SCORE.RESTR.norm>
0.885937

>  <SCORE.SYSTEM>
0

>  <SCORE.SYSTEM.CONST>
0

>  <SCORE.SYSTEM.DIHEDRAL>
0

>  <SCORE.SYSTEM.SOLV>
0

>  <SCORE.SYSTEM.norm>
0

>  <SCORE.heavy>
42

>  <SCORE.norm>
0.742399

>  <RMSD>
11.835

$$$$
1j7t
 OpenBabel11021811393D
libRbt.so/2013.1/901 2013/11/27
 42 45  0  0  0  0  0  0  0  0999 V2000
   31.7980   11.6313   48.1824 C   0  0  2  0  0  0  0  0  0  0  0  0
   32.0096   11.0717   49.5032 O   0  0  0  0  0  0  0  0  0  0  0  0
   33.2047   11.9025   47.5761 C   0  0  2  0  0  0  0  0  0  0  0  0
   34.1197   10.7251   47.5855 N   0  3  0  0  0  0  0  0  0  0  0  0
   33.8704   13.0292   48.3960 C   0  0  1  0  0  0  0  0  0  0  0  0
   35.1384   13.3287   47.8840 O   0  0  0  0  0  0  0  0  0  0  0  0
   32.9710   14.2880   48.3956 C   0  0  2  0  0  0  0  0  0  0  0  0
   33.5728   15.3401   49.1237 O   0  0  0  0  0  0  0  0  0  0  0  0
   31.6285   13.9607   49.0141 C   0  0  2  0  0  0  0  0  0  0  0  0
   31.0392   12.8747   48.3102 O   0  0  0  0  0  0  0  0  0  0  0  0
   30.6480   15.1099   48.9447 C   0  0  0  0  0  0  0  0  0  0  0  0
   29.4677   14.7654   49.6443 O   0  0  0  0  0  0  0  0  0  0  0  0
   29.2194    8.4942   51.3525 C   0  0  2  0  0  0  0  0  0  0  0  0
   28.0831    8.0195   52.1429 N   0  3  0  0  0  0  0  0  0  0  0  0
   30.2333    9.2489   52.2749 C   0  0  0  0  0  0  0  0  0  0  0  0
   31.4072    9.7928   51.4383 C   0  0  2  0  0  0  0  0  0  0  0  0
   32.3407   10.5497   52.2790 N   0  3  0  0  0  0  0  0  0  0  0  0
   30.8842   10.7006   50.3078 C   0  0  2  0  0  0  0  0  0  0  0  0
   29.8618    9.9908   49.3989 C   0  0  2  0  0  0  0  0  0  0  0  0
   29.3561   11.0003   48.5041 O   0  0  0  0  0  0  0  0  0  0  0  0
   28.7055    9.4018   50.2461 C   0  0  1  0  0  0  0  0  0  0  0  0
   27.8449    8.6775   49.4108 O   0  0  0  0  0  0  0  0  0  0  0  0
   29.0093   10.7444   47.1457 C   0  0  1  0  0  0  0  0  0  0  0  0
   28.4271   12.0627   46.5217 C   0  0  2  0  0  0  0  0  0  0  0  0
   27.0304   12.2185   46.7060 O   0  0  0  0  0  0  0  0  0  0  0  0
   28.8578   11.8331   45.0798 C   0  0  2  0  0  0  0  0  0  0  0  0
   28.1130   10.7323   44.4771 O   0  0  0  0  0  0  0  0  0  0  0  0
   30.3039   11.3823   45.2308 C   0  0  2  0  0  0  0  0  0  0  0  0
   30.1938   10.4804   46.3453 O   0  0  0  0  0  0  0  0  0  0  0  0
   31.3297   12.5349   45.4860 C   0  0  0  0  0  0  0  0  0  0  0  0
   31.7064   13.1878   44.2671 O   0  0  0  0  0  0  0  0  0  0  0  0
   27.0836   11.1492   43.5838 C   0  0  2  0  0  0  0  0  0  0  0  0
   25.6266   10.8839   44.0945 C   0  0  2  0  0  0  0  0  0  0  0  0
   25.3692    9.4422   44.3922 N   0  3  0  0  0  0  0  0  0  0  0  0
   24.6508   11.4268   42.9978 C   0  0  1  0  0  0  0  0  0  0  0  0
   24.8688   12.8866   42.9024 O   0  0  0  0  0  0  0  0  0  0  0  0
   24.9130   10.7818   41.5812 C   0  0  2  0  0  0  0  0  0  0  0  0
   24.6449    9.3726   41.6641 O   0  0  0  0  0  0  0  0  0  0  0  0
   26.4184   11.0709   41.1784 C   0  0  1  0  0  0  0  0  0  0  0  0
   27.2731   10.5234   42.2382 O   0  0  0  0  0  0  0  0  0  0  0  0
   26.8411   10.4846   39.8122 C   0  0  0  0  0  0  0  0  0  0  0  0
   28.2259   10.8546   39.4123 N   0  3  0  0  0  0  0  0  0  0  0  0
  1  2  1  1  0  0  0
  1  3  1  0  0  0  0
  1 10  1  0  0  0  0
  3  4  1  1  0  0  0
  3  5  1  0  0  0  0
  5  6  1  6  0  0  0
  5  7  1  0  0  0  0
  7  8  1  1  0  0  0
  7  9  1  0  0  0  0
  9 10  1  0  0  0  0
  9 11  1  6  0  0  0
 11 12  1  0  0  0  0
 13 14  1  1  0  0  0
 13 15  1  0  0  0  0
 13 21  1  0  0  0  0
 15 16  1  0  0  0  0
 16 17  1  1  0  0  0
 16 18  1  0  0  0  0
 18  2  1  6  0  0  0
 18 19  1  0  0  0  0
 19 20  1  6  0  0  0
 19 21  1  0  0  0  0
 21 22  1  6  0  0  0
 23 20  1  1  0  0  0
 23 24  1  0  0  0  0
 23 29  1  0  0  0  0
 24 25  1  6  0  0  0
 24 26  1  0  0  0  0
 26 27  1  1  0  0  0
 26 28  1  0  0  0  0
 28 29  1  0  0  0  0
 28 30  1  1  0  0  0
 30 31  1  0  0  0  0
 32 27  1  1  0  0  0
 32 33  1  0  0  0  0
 32 40  1  0  0  0  0
 33 34  1  6  0  0  0
 33 35  1  0  0  0  0
 35 36  1  6  0  0  0
 35 37  1  0  0  0  0
 37 38  1  1  0  0  0
 37 39  1  0  0  0  0
 39 40  1  0  0  0  0
 39 41  1  6  0  0  0
 41 42  1  0  0  0  0
M  CHG  5   4   1  14   1  17   1  34   1  42   1
M  END
>  <CHROM.1>
-179.22450897,164.15171274,-151.38845937,-172.79378847,79.80026709,-174.88193272
-167.23560815,-51.69394915,-165.63446078,144.64527466,176.94170591,-154.26543942
-174.60027856,103.47451053,-111.02839108,-81.46636164,-172.49102201,-61.25265950
-53.84387457,75.16045419,175.73992045,-1.22318780,29.48628589,11.38847447
46.77485223,-0.80548724,-0.56390971,-1.20507008

>  <Name>
1j7t

>  <RI>
0

>  <Rbt.Current_Directory>
/home/itssahil/PROJECTS/Mol_Feturizer/New_Systems/rnas/1j7t

>  <Rbt.Executable>
rbdock ($Id: //depot/dev/client3/rdock/2013.1/src/exe/rbdock.cxx#4 $)

>  <Rbt.Library>
libRbt.so (2013.1, Build901 2013/11/27)

>  <Rbt.Parameter_File>
/export/apps/rDock/src/rDock_2013.1_src/data/scripts/dock_solv.prm

>  <Rbt.Receptor>
prm/blind_docking_60.prm

>  <SCORE>
35.6806

>  <SCORE.INTER>
2.33075

>  <SCORE.INTER.CONST>
1

>  <SCORE.INTER.POLAR>
-3.11474

>  <SCORE.INTER.ROT>
9

>  <SCORE.INTER.SOLV>
29.0878

>  <SCORE.INTER.VDW>
-7.35963

>  <SCORE.INTER.norm>
0.0554941

>  <SCORE.INTRA>
-2.87465

>  <SCORE.INTRA.DIHEDRAL>
-12.5658

>  <SCORE.INTRA.DIHEDRAL.0>
46.2143

>  <SCORE.INTRA.POLAR>
1.04445

>  <SCORE.INTRA.POLAR.0>
-1.76436

>  <SCORE.INTRA.REPUL>
0.00198944

>  <SCORE.INTRA.REPUL.0>
0

>  <SCORE.INTRA.SOLV>
-6.61539

>  <SCORE.INTRA.SOLV.lig_0>
-148.643

>  <SCORE.INTRA.VDW>
3.15487

>  <SCORE.INTRA.VDW.0>
-4.83512

>  <SCORE.INTRA.norm>
-0.0684441

>  <SCORE.RESTR>
36.2245

>  <SCORE.RESTR.CAVITY>
36.2245

>  <SCORE.RESTR.norm>
0.862487

>  <SCORE.SYSTEM>
0

>  <SCORE.SYSTEM.CONST>
0

>  <SCORE.SYSTEM.DIHEDRAL>
0

>  <SCORE.SYSTEM.SOLV>
0

>  <SCORE.SYSTEM.norm>
0

>  <SCORE.heavy>
42

>  <SCORE.norm>
0.849537

>  <RMSD>
11.852

$$$$
1j7t
 OpenBabel11021811393D
libRbt.so/2013.1/901 2013/11/27
 42 45  0  0  0  0  0  0  0  0999 V2000
   29.5145   10.3021   50.6674 C   0  0  2  0  0  0  0  0  0  0  0  0
   30.8854   10.5956   50.2972 O   0  0  0  0  0  0  0  0  0  0  0  0
   29.5017   10.0717   52.2059 C   0  0  2  0  0  0  0  0  0  0  0  0
   30.1112   11.1757   53.0017 N   0  3  0  0  0  0  0  0  0  0  0  0
   30.2916    8.7784   52.5031 C   0  0  1  0  0  0  0  0  0  0  0  0
   30.3003    8.5103   53.8769 O   0  0  0  0  0  0  0  0  0  0  0  0
   29.6810    7.5921   51.7200 C   0  0  2  0  0  0  0  0  0  0  0  0
   30.3770    6.3924   51.9948 O   0  0  0  0  0  0  0  0  0  0  0  0
   29.7418    7.8718   50.2333 C   0  0  2  0  0  0  0  0  0  0  0  0
   29.0790    9.0995   49.9587 O   0  0  0  0  0  0  0  0  0  0  0  0
   29.0573    6.8101   49.4020 C   0  0  0  0  0  0  0  0  0  0  0  0
   27.6603    7.0330   49.4102 O   0  0  0  0  0  0  0  0  0  0  0  0
   31.7439   14.0017   47.9500 C   0  0  2  0  0  0  0  0  0  0  0  0
   32.0173   14.8545   46.7927 N   0  3  0  0  0  0  0  0  0  0  0  0
   32.8604   12.9141   48.0873 C   0  0  0  0  0  0  0  0  0  0  0  0
   32.5505   11.9837   49.2755 C   0  0  2  0  0  0  0  0  0  0  0  0
   33.5591   10.9248   49.3863 N   0  3  0  0  0  0  0  0  0  0  0  0
   31.1563   11.3479   49.1089 C   0  0  2  0  0  0  0  0  0  0  0  0
   30.0393   12.3969   48.9437 C   0  0  2  0  0  0  0  0  0  0  0  0
   28.8397   11.6575   48.6443 O   0  0  0  0  0  0  0  0  0  0  0  0
   30.3750   13.3626   47.7790 C   0  0  1  0  0  0  0  0  0  0  0  0
   29.3974   14.3642   47.7146 O   0  0  0  0  0  0  0  0  0  0  0  0
   28.6018   11.0183   47.3929 C   0  0  1  0  0  0  0  0  0  0  0  0
   28.2421   12.1176   46.3307 C   0  0  2  0  0  0  0  0  0  0  0  0
   26.8618   12.4349   46.2759 O   0  0  0  0  0  0  0  0  0  0  0  0
   28.7839   11.4148   45.0939 C   0  0  2  0  0  0  0  0  0  0  0  0
   27.9793   10.2443   44.7589 O   0  0  0  0  0  0  0  0  0  0  0  0
   30.1455   10.9192   45.5607 C   0  0  2  0  0  0  0  0  0  0  0  0
   29.8210   10.4231   46.8707 O   0  0  0  0  0  0  0  0  0  0  0  0
   31.2683   12.0075   45.5884 C   0  0  0  0  0  0  0  0  0  0  0  0
   31.4841   12.5785   44.2918 O   0  0  0  0  0  0  0  0  0  0  0  0
   27.2485   10.3721   43.5419 C   0  0  2  0  0  0  0  0  0  0  0  0
   25.7078   10.5906   43.7234 C   0  0  2  0  0  0  0  0  0  0  0  0
   25.0526    9.4920   44.4962 N   0  3  0  0  0  0  0  0  0  0  0  0
   25.0931   10.7304   42.2908 C   0  0  1  0  0  0  0  0  0  0  0  0
   25.6819   11.9413   41.6787 O   0  0  0  0  0  0  0  0  0  0  0  0
   25.4152    9.4895   41.3700 C   0  0  2  0  0  0  0  0  0  0  0  0
   24.7933    8.3254   41.9382 O   0  0  0  0  0  0  0  0  0  0  0  0
   26.9901    9.3326   41.2864 C   0  0  1  0  0  0  0  0  0  0  0  0
   27.4943    9.1909   42.6572 O   0  0  0  0  0  0  0  0  0  0  0  0
   27.4716    8.1412   40.4276 C   0  0  0  0  0  0  0  0  0  0  0  0
   27.8664    6.9531   41.2322 N   0  3  0  0  0  0  0  0  0  0  0  0
  1  2  1  6  0  0  0
  1  3  1  0  0  0  0
  1 10  1  0  0  0  0
  3  4  1  1  0  0  0
  3  5  1  0  0  0  0
  5  6  1  1  0  0  0
  5  7  1  0  0  0  0
  7  8  1  6  0  0  0
  7  9  1  0  0  0  0
  9 10  1  0  0  0  0
  9 11  1  6  0  0  0
 11 12  1  0  0  0  0
 13 14  1  6  0  0  0
 13 15  1  0  0  0  0
 13 21  1  0  0  0  0
 15 16  1  0  0  0  0
 16 17  1  6  0  0  0
 16 18  1  0  0  0  0
 18  2  1  1  0  0  0
 18 19  1  0  0  0  0
 19 20  1  6  0  0  0
 19 21  1  0  0  0  0
 21 22  1  1  0  0  0
 23 20  1  1  0  0  0
 23 24  1  0  0  0  0
 23 29  1  0  0  0  0
 24 25  1  6  0  0  0
 24 26  1  0  0  0  0
 26 27  1  1  0  0  0
 26 28  1  0  0  0  0
 28 29  1  0  0  0  0
 28 30  1  1  0  0  0
 30 31  1  0  0  0  0
 32 27  1  1  0  0  0
 32 33  1  0  0  0  0
 32 40  1  0  0  0  0
 33 34  1  6  0  0  0
 33 35  1  0  0  0  0
 35 36  1  6  0  0  0
 35 37  1  0  0  0  0
 37 38  1  1  0  0  0
 37 39  1  0  0  0  0
 39 40  1  0  0  0  0
 39 41  1  6  0  0  0
 41 42  1  0  0  0  0
M  CHG  5   4   1  14   1  17   1  34   1  42   1
M  END
>  <CHROM.1>
-155.48882469,157.07753114,-63.03747628,93.81009952,-167.21646269,80.25348482
-60.00888834,167.21284468,-54.86008813,-72.37754468,-75.08321565,-163.15795174
69.96279678,112.29011776,-106.36291315,-59.49002226,-178.57755637,155.99718356
-31.12916341,-170.23468385,-100.28426942,-144.50086977,29.05364231,10.44935683
47.04677207,0.81450310,0.90961425,2.18233629

>  <Name>
1j7t

>  <RI>
0

>  <Rbt.Current_Directory>
/home/itssahil/PROJECTS/Mol_Feturizer/New_Systems/rnas/1j7t

>  <Rbt.Executable>
rbdock ($Id: //depot/dev/client3/rdock/2013.1/src/exe/rbdock.cxx#4 $)

>  <Rbt.Library>
libRbt.so (2013.1, Build901 2013/11/27)

>  <Rbt.Parameter_File>
/export/apps/rDock/src/rDock_2013.1_src/data/scripts/dock_solv.prm

>  <Rbt.Receptor>
prm/blind_docking_60.prm

>  <SCORE>
58.4739

>  <SCORE.INTER>
23.0055

>  <SCORE.INTER.CONST>
1

>  <SCORE.INTER.POLAR>
-2.61737

>  <SCORE.INTER.ROT>
9

>  <SCORE.INTER.SOLV>
27.9704

>  <SCORE.INTER.VDW>
5.13806

>  <SCORE.INTER.norm>
0.54775

>  <SCORE.INTRA>
5.96181

>  <SCORE.INTRA.DIHEDRAL>
-6.08728

>  <SCORE.INTRA.DIHEDRAL.0>
46.2143

>  <SCORE.INTRA.POLAR>
0.473508

>  <SCORE.INTRA.POLAR.0>
-1.76436

>  <SCORE.INTRA.REPUL>
0

>  <SCORE.INTRA.REPUL.0>
0

>  <SCORE.INTRA.SOLV>
-0.372122

>  <SCORE.INTRA.SOLV.lig_0>
-148.643

>  <SCORE.INTRA.VDW>
7.58159

>  <SCORE.INTRA.VDW.0>
-4.83512

>  <SCORE.INTRA.norm>
0.141948

>  <SCORE.RESTR>
29.5066

>  <SCORE.RESTR.CAVITY>
29.5066

>  <SCORE.RESTR.norm>
0.702538

>  <SCORE.SYSTEM>
0

>  <SCORE.SYSTEM.CONST>
0

>  <SCORE.SYSTEM.DIHEDRAL>
0

>  <SCORE.SYSTEM.SOLV>
0

>  <SCORE.SYSTEM.norm>
0

>  <SCORE.heavy>
42

>  <SCORE.norm>
1.39224

>  <RMSD>
11.852

$$$$
1j7t
 OpenBabel11021811393D
libRbt.so/2013.1/901 2013/11/27
 42 45  0  0  0  0  0  0  0  0999 V2000
   30.7497   11.0281   50.5377 C   0  0  2  0  0  0  0  0  0  0  0  0
   31.3865   10.8083   49.2537 O   0  0  0  0  0  0  0  0  0  0  0  0
   31.5617   10.2185   51.5890 C   0  0  2  0  0  0  0  0  0  0  0  0
   33.0255   10.5029   51.5927 N   0  3  0  0  0  0  0  0  0  0  0  0
   31.3695    8.7158   51.2888 C   0  0  1  0  0  0  0  0  0  0  0  0
   32.0674    7.9342   52.2170 O   0  0  0  0  0  0  0  0  0  0  0  0
   29.8637    8.3610   51.3000 C   0  0  2  0  0  0  0  0  0  0  0  0
   29.6665    6.9837   51.0483 O   0  0  0  0  0  0  0  0  0  0  0  0
   29.1377    9.1675   50.2443 C   0  0  2  0  0  0  0  0  0  0  0  0
   29.3687   10.5524   50.4696 O   0  0  0  0  0  0  0  0  0  0  0  0
   27.6393    8.9646   50.2697 C   0  0  0  0  0  0  0  0  0  0  0  0
   27.3489    7.6512   50.7079 O   0  0  0  0  0  0  0  0  0  0  0  0
   31.8703   14.6727   47.6165 C   0  0  2  0  0  0  0  0  0  0  0  0
   31.8594   15.7881   46.6693 N   0  3  0  0  0  0  0  0  0  0  0  0
   32.8163   13.5400   47.0965 C   0  0  0  0  0  0  0  0  0  0  0  0
   32.7928   12.3433   48.0665 C   0  0  2  0  0  0  0  0  0  0  0  0
   33.6330   11.2499   47.5669 N   0  3  0  0  0  0  0  0  0  0  0  0
   31.3500   11.8352   48.2558 C   0  0  2  0  0  0  0  0  0  0  0  0
   30.3893   12.9380   48.7417 C   0  0  2  0  0  0  0  0  0  0  0  0
   29.0713   12.3567   48.7184 O   0  0  0  0  0  0  0  0  0  0  0  0
   30.4492   14.1615   47.7923 C   0  0  1  0  0  0  0  0  0  0  0  0
   29.6456   15.1860   48.3097 O   0  0  0  0  0  0  0  0  0  0  0  0
   28.5015   11.7465   47.5634 C   0  0  1  0  0  0  0  0  0  0  0  0
   28.4480   12.8115   46.4106 C   0  0  2  0  0  0  0  0  0  0  0  0
   27.2691   13.5983   46.4083 O   0  0  0  0  0  0  0  0  0  0  0  0
   28.5831   11.8629   45.2276 C   0  0  2  0  0  0  0  0  0  0  0  0
   27.3895   11.0370   45.0765 O   0  0  0  0  0  0  0  0  0  0  0  0
   29.7226   10.9506   45.6594 C   0  0  2  0  0  0  0  0  0  0  0  0
   29.3756   10.7124   47.0344 O   0  0  0  0  0  0  0  0  0  0  0  0
   31.1532   11.5608   45.4949 C   0  0  0  0  0  0  0  0  0  0  0  0
   31.2669   12.3252   44.2879 O   0  0  0  0  0  0  0  0  0  0  0  0
   27.2490   10.4523   43.7843 C   0  0  2  0  0  0  0  0  0  0  0  0
   26.3647   11.2747   42.7862 C   0  0  2  0  0  0  0  0  0  0  0  0
   24.9799   11.5105   43.2961 N   0  3  0  0  0  0  0  0  0  0  0  0
   26.3521   10.4902   41.4319 C   0  0  1  0  0  0  0  0  0  0  0  0
   27.7433   10.4611   40.9305 O   0  0  0  0  0  0  0  0  0  0  0  0
   25.8418    9.0057   41.5969 C   0  0  2  0  0  0  0  0  0  0  0  0
   24.4719    9.0388   42.0294 O   0  0  0  0  0  0  0  0  0  0  0  0
   26.7738    8.2780   42.6523 C   0  0  1  0  0  0  0  0  0  0  0  0
   26.7252    9.0553   43.8960 O   0  0  0  0  0  0  0  0  0  0  0  0
   26.3914    6.8083   42.9403 C   0  0  0  0  0  0  0  0  0  0  0  0
   26.5653    5.9106   41.7663 N   0  3  0  0  0  0  0  0  0  0  0  0
  1  2  1  6  0  0  0
  1  3  1  0  0  0  0
  1 10  1  0  0  0  0
  3  4  1  6  0  0  0
  3  5  1  0  0  0  0
  5  6  1  1  0  0  0
  5  7  1  0  0  0  0
  7  8  1  6  0  0  0
  7  9  1  0  0  0  0
  9 10  1  0  0  0  0
  9 11  1  1  0  0  0
 11 12  1  0  0  0  0
 13 14  1  6  0  0  0
 13 15  1  0  0  0  0
 13 21  1  0  0  0  0
 15 16  1  0  0  0  0
 16 17  1  6  0  0  0
 16 18  1  0  0  0  0
 18  2  1  1  0  0  0
 18 19  1  0  0  0  0
 19 20  1  6  0  0  0
 19 21  1  0  0  0  0
 21 22  1  1  0  0  0
 23 20  1  1  0  0  0
 23 24  1  0  0  0  0
 23 29  1  0  0  0  0
 24 25  1  6  0  0  0
 24 26  1  0  0  0  0
 26 27  1  1  0  0  0
 26 28  1  0  0  0  0
 28 29  1  0  0  0  0
 28 30  1  1  0  0  0
 30 31  1  0  0  0  0
 32 27  1  1  0  0  0
 32 33  1  0  0  0  0
 32 40  1  0  0  0  0
 33 34  1  1  0  0  0
 33 35  1  0  0  0  0
 35 36  1  1  0  0  0
 35 37  1  0  0  0  0
 37 38  1  1  0  0  0
 37 39  1  0  0  0  0
 39 40  1  0  0  0  0
 39 41  1  1  0  0  0
 41 42  1  0  0  0  0
M  CHG  5   4   1  14   1  17   1  34   1  42   1
M  END
>  <CHROM.1>
-149.16039080,112.86280835,86.50118743,68.05651924,-173.95103138,-31.10482589
-169.93853485,-57.07065012,-135.83517670,-54.53092012,-59.09225153,178.41576126
-165.76390755,160.80932974,-94.18133395,-39.04815979,-161.39017669,-63.20406109
-170.59692058,-170.19110882,65.60579405,-46.86665702,29.22778736,10.78308911
46.88540009,0.53643140,0.90593752,2.33266595

>  <Name>
1j7t

>  <RI>
0

>  <Rbt.Current_Directory>
/home/itssahil/PROJECTS/Mol_Feturizer/New_Systems/rnas/1j7t

>  <Rbt.Executable>
rbdock ($Id: //depot/dev/client3/rdock/2013.1/src/exe/rbdock.cxx#4 $)

>  <Rbt.Library>
libRbt.so (2013.1, Build901 2013/11/27)

>  <Rbt.Parameter_File>
/export/apps/rDock/src/rDock_2013.1_src/data/scripts/dock_solv.prm

>  <Rbt.Receptor>
prm/blind_docking_60.prm

>  <SCORE>
4.94587

>  <SCORE.INTER>
-26.141

>  <SCORE.INTER.CONST>
1

>  <SCORE.INTER.POLAR>
-3.16951

>  <SCORE.INTER.ROT>
9

>  <SCORE.INTER.SOLV>
26.1666

>  <SCORE.INTER.VDW>
-25.1845

>  <SCORE.INTER.norm>
-0.622404

>  <SCORE.INTRA>
1.26875

>  <SCORE.INTRA.DIHEDRAL>
-15.4583

>  <SCORE.INTRA.DIHEDRAL.0>
46.2143

>  <SCORE.INTRA.POLAR>
0.445615

>  <SCORE.INTRA.POLAR.0>
-1.76436

>  <SCORE.INTRA.REPUL>
0

>  <SCORE.INTRA.REPUL.0>
0

>  <SCORE.INTRA.SOLV>
-1.01928

>  <SCORE.INTRA.SOLV.lig_0>
-148.643

>  <SCORE.INTRA.VDW>
7.99248

>  <SCORE.INTRA.VDW.0>
-4.83512

>  <SCORE.INTRA.norm>
0.0302083

>  <SCORE.RESTR>
29.8181

>  <SCORE.RESTR.CAVITY>
29.8181

>  <SCORE.RESTR.norm>
0.709955

>  <SCORE.SYSTEM>
0

>  <SCORE.SYSTEM.CONST>
0

>  <SCORE.SYSTEM.DIHEDRAL>
0

>  <SCORE.SYSTEM.SOLV>
0

>  <SCORE.SYSTEM.norm>
0

>  <SCORE.heavy>
42

>  <SCORE.norm>
0.117759

>  <RMSD>
11.887

$$$$
1j7t
 OpenBabel11021811393D
libRbt.so/2013.1/901 2013/11/27
 42 45  0  0  0  0  0  0  0  0999 V2000
   31.8811   11.6025   48.2290 C   0  0  2  0  0  0  0  0  0  0  0  0
   32.1424   10.9582   49.5015 O   0  0  0  0  0  0  0  0  0  0  0  0
   33.2639   11.9241   47.5932 C   0  0  2  0  0  0  0  0  0  0  0  0
   34.1851   10.7559   47.4922 N   0  3  0  0  0  0  0  0  0  0  0  0
   33.9522   12.9992   48.4624 C   0  0  1  0  0  0  0  0  0  0  0  0
   35.1996   13.3418   47.9274 O   0  0  0  0  0  0  0  0  0  0  0  0
   33.0465   14.2483   48.5772 C   0  0  2  0  0  0  0  0  0  0  0  0
   33.6680   15.2544   49.3522 O   0  0  0  0  0  0  0  0  0  0  0  0
   31.7286   13.8702   49.2192 C   0  0  2  0  0  0  0  0  0  0  0  0
   31.1206   12.8287   48.4658 O   0  0  0  0  0  0  0  0  0  0  0  0
   30.7400   15.0139   49.2609 C   0  0  0  0  0  0  0  0  0  0  0  0
   30.2204   15.2352   47.9639 O   0  0  0  0  0  0  0  0  0  0  0  0
   29.2693    8.5551   51.4556 C   0  0  2  0  0  0  0  0  0  0  0  0
   28.1589    8.1459   52.3162 N   0  3  0  0  0  0  0  0  0  0  0  0
   30.4233    9.1581   52.3235 C   0  0  0  0  0  0  0  0  0  0  0  0
   31.5741    9.6351   51.4171 C   0  0  2  0  0  0  0  0  0  0  0  0
   32.6420   10.2525   52.2106 N   0  3  0  0  0  0  0  0  0  0  0  0
   31.0542   10.6501   50.3802 C   0  0  2  0  0  0  0  0  0  0  0  0
   29.8972   10.0919   49.5287 C   0  0  2  0  0  0  0  0  0  0  0  0
   29.4233   11.1931   48.7298 O   0  0  0  0  0  0  0  0  0  0  0  0
   28.7602    9.5677   50.4421 C   0  0  1  0  0  0  0  0  0  0  0  0
   27.7683    8.9756   49.6492 O   0  0  0  0  0  0  0  0  0  0  0  0
   28.6177   11.0302   47.5655 C   0  0  1  0  0  0  0  0  0  0  0  0
   28.2886   12.4509   46.9829 C   0  0  2  0  0  0  0  0  0  0  0  0
   27.1270   13.0451   47.5367 O   0  0  0  0  0  0  0  0  0  0  0  0
   28.1689   12.0650   45.5152 C   0  0  2  0  0  0  0  0  0  0  0  0
   26.9854   11.2436   45.2820 O   0  0  0  0  0  0  0  0  0  0  0  0
   29.3909   11.1830   45.3009 C   0  0  2  0  0  0  0  0  0  0  0  0
   29.3667   10.3872   46.4983 O   0  0  0  0  0  0  0  0  0  0  0  0
   30.7376   11.9568   45.1176 C   0  0  0  0  0  0  0  0  0  0  0  0
   31.8691   11.1245   45.4019 O   0  0  0  0  0  0  0  0  0  0  0  0
   26.4727   11.3292   43.9548 C   0  0  2  0  0  0  0  0  0  0  0  0
   25.8198   10.0098   43.4189 C   0  0  2  0  0  0  0  0  0  0  0  0
   26.7606    8.8487   43.4343 N   0  3  0  0  0  0  0  0  0  0  0  0
   25.3016   10.3097   41.9728 C   0  0  1  0  0  0  0  0  0  0  0  0
   24.2571   11.3503   42.0897 O   0  0  0  0  0  0  0  0  0  0  0  0
   26.4417   10.8411   41.0192 C   0  0  2  0  0  0  0  0  0  0  0  0
   27.4260    9.8060   40.8629 O   0  0  0  0  0  0  0  0  0  0  0  0
   27.0606   12.1470   41.6701 C   0  0  1  0  0  0  0  0  0  0  0  0
   27.5381   11.7898   43.0108 O   0  0  0  0  0  0  0  0  0  0  0  0
   28.2115   12.7847   40.8590 C   0  0  0  0  0  0  0  0  0  0  0  0
   27.7975   13.2452   39.5058 N   0  3  0  0  0  0  0  0  0  0  0  0
  1  2  1  1  0  0  0
  1  3  1  0  0  0  0
  1 10  1  0  0  0  0
  3  4  1  1  0  0  0
  3  5  1  0  0  0  0
  5  6  1  6  0  0  0
  5  7  1  0  0  0  0
  7  8  1  1  0  0  0
  7  9  1  0  0  0  0
  9 10  1  0  0  0  0
  9 11  1  6  0  0  0
 11 12  1  0  0  0  0
 13 14  1  1  0  0  0
 13 15  1  0  0  0  0
 13 21  1  0  0  0  0
 15 16  1  0  0  0  0
 16 17  1  1  0  0  0
 16 18  1  0  0  0  0
 18  2  1  6  0  0  0
 18 19  1  0  0  0  0
 19 20  1  6  0  0  0
 19 21  1  0  0  0  0
 21 22  1  6  0  0  0
 23 20  1  1  0  0  0
 23 24  1  0  0  0  0
 23 29  1  0  0  0  0
 24 25  1  1  0  0  0
 24 26  1  0  0  0  0
 26 27  1  1  0  0  0
 26 28  1  0  0  0  0
 28 29  1  0  0  0  0
 28 30  1  1  0  0  0
 30 31  1  0  0  0  0
 32 27  1  1  0  0  0
 32 33  1  0  0  0  0
 32 40  1  0  0  0  0
 33 34  1  6  0  0  0
 33 35  1  0  0  0  0
 35 36  1  1  0  0  0
 35 37  1  0  0  0  0
 37 38  1  1  0  0  0
 37 39  1  0  0  0  0
 39 40  1  0  0  0  0
 39 41  1  6  0  0  0
 41 42  1  0  0  0  0
M  CHG  5   4   1  14   1  17   1  34   1  42   1
M  END
>  <CHROM.1>
174.37121186,163.84550959,27.16703973,-62.54430340,174.43954750,74.03084638
48.71065752,-52.45434137,150.03117926,162.52974166,179.25277938,-49.72481295
61.63130951,153.73911047,147.07941892,158.99257665,-34.31151350,95.69333839
-175.60868274,-177.64478585,61.97724885,48.77156724,29.62637177,11.45847061
46.82607526,-0.86917205,-0.59472343,-1.14873072

>  <Name>
1j7t

>  <RI>
0

>  <Rbt.Current_Directory>
/home/itssahil/PROJECTS/Mol_Feturizer/New_Systems/rnas/1j7t

>  <Rbt.Executable>
rbdock ($Id: //depot/dev/client3/rdock/2013.1/src/exe/rbdock.cxx#4 $)

>  <Rbt.Library>
libRbt.so (2013.1, Build901 2013/11/27)

>  <Rbt.Parameter_File>
/export/apps/rDock/src/rDock_2013.1_src/data/scripts/dock_solv.prm

>  <Rbt.Receptor>
prm/blind_docking_60.prm

>  <SCORE>
8.12844

>  <SCORE.INTER>
-26.7119

>  <SCORE.INTER.CONST>
1

>  <SCORE.INTER.POLAR>
-6.63134

>  <SCORE.INTER.ROT>
9

>  <SCORE.INTER.SOLV>
33.9371

>  <SCORE.INTER.VDW>
-16.6158

>  <SCORE.INTER.norm>
-0.635997

>  <SCORE.INTRA>
-4.06139

>  <SCORE.INTRA.DIHEDRAL>
-22.8881

>  <SCORE.INTRA.DIHEDRAL.0>
46.2143

>  <SCORE.INTRA.POLAR>
1.52744

>  <SCORE.INTRA.POLAR.0>
-1.76436

>  <SCORE.INTRA.REPUL>
0.0633009

>  <SCORE.INTRA.REPUL.0>
0

>  <SCORE.INTRA.SOLV>
-3.37842

>  <SCORE.INTRA.SOLV.lig_0>
-148.643

>  <SCORE.INTRA.VDW>
3.56206

>  <SCORE.INTRA.VDW.0>
-4.83512

>  <SCORE.INTRA.norm>
-0.0966999

>  <SCORE.RESTR>
38.9017

>  <SCORE.RESTR.CAVITY>
38.9017

>  <SCORE.RESTR.norm>
0.926231

>  <SCORE.SYSTEM>
0

>  <SCORE.SYSTEM.CONST>
0

>  <SCORE.SYSTEM.DIHEDRAL>
0

>  <SCORE.SYSTEM.SOLV>
0

>  <SCORE.SYSTEM.norm>
0

>  <SCORE.heavy>
42

>  <SCORE.norm>
0.193534

>  <RMSD>
11.900

$$$$
1j7t
 OpenBabel11021811393D
libRbt.so/2013.1/901 2013/11/27
 42 45  0  0  0  0  0  0  0  0999 V2000
   30.7069   11.1026   50.3797 C   0  0  2  0  0  0  0  0  0  0  0  0
   31.3449   10.8375   49.1049 O   0  0  0  0  0  0  0  0  0  0  0  0
   31.5607   10.3916   51.4685 C   0  0  2  0  0  0  0  0  0  0  0  0
   33.0104   10.7400   51.4431 N   0  3  0  0  0  0  0  0  0  0  0  0
   31.4338    8.8671   51.2567 C   0  0  1  0  0  0  0  0  0  0  0  0
   32.1717    8.1718   52.2220 O   0  0  0  0  0  0  0  0  0  0  0  0
   29.9454    8.4474   51.3015 C   0  0  2  0  0  0  0  0  0  0  0  0
   29.8082    7.0505   51.1308 O   0  0  0  0  0  0  0  0  0  0  0  0
   29.1777    9.1589   50.2077 C   0  0  2  0  0  0  0  0  0  0  0  0
   29.3481   10.5633   50.3512 O   0  0  0  0  0  0  0  0  0  0  0  0
   27.6900    8.8918   50.2578 C   0  0  0  0  0  0  0  0  0  0  0  0
   27.4656    7.5358   50.5927 O   0  0  0  0  0  0  0  0  0  0  0  0
   31.8618   14.6139   47.2829 C   0  0  2  0  0  0  0  0  0  0  0  0
   31.8415   15.6878   46.2891 N   0  3  0  0  0  0  0  0  0  0  0  0
   32.7565   13.4344   46.7761 C   0  0  0  0  0  0  0  0  0  0  0  0
   32.7413   12.2811   47.7976 C   0  0  2  0  0  0  0  0  0  0  0  0
   33.5321   11.1448   47.3137 N   0  3  0  0  0  0  0  0  0  0  0  0
   31.2947   11.8216   48.0654 C   0  0  2  0  0  0  0  0  0  0  0  0
   30.3832   12.9701   48.5400 C   0  0  2  0  0  0  0  0  0  0  0  0
   29.0508   12.4249   48.5938 O   0  0  0  0  0  0  0  0  0  0  0  0
   30.4363   14.1499   47.5364 C   0  0  1  0  0  0  0  0  0  0  0  0
   29.6810   15.2173   48.0397 O   0  0  0  0  0  0  0  0  0  0  0  0
   28.4363   11.7416   47.5044 C   0  0  1  0  0  0  0  0  0  0  0  0
   28.3716   12.7170   46.2754 C   0  0  2  0  0  0  0  0  0  0  0  0
   27.2091   13.5274   46.2445 O   0  0  0  0  0  0  0  0  0  0  0  0
   28.4540   11.6786   45.1653 C   0  0  2  0  0  0  0  0  0  0  0  0
   27.2403   10.8703   45.1097 O   0  0  0  0  0  0  0  0  0  0  0  0
   29.5868   10.7766   45.6349 C   0  0  2  0  0  0  0  0  0  0  0  0
   29.2742   10.6512   47.0329 O   0  0  0  0  0  0  0  0  0  0  0  0
   31.0240   11.3406   45.3861 C   0  0  0  0  0  0  0  0  0  0  0  0
   31.0445   12.2778   44.3020 O   0  0  0  0  0  0  0  0  0  0  0  0
   27.0628   10.1748   43.8783 C   0  0  2  0  0  0  0  0  0  0  0  0
   27.0672   11.0871   42.6047 C   0  0  2  0  0  0  0  0  0  0  0  0
   26.0148   12.1474   42.6465 N   0  3  0  0  0  0  0  0  0  0  0  0
   26.8857   10.1466   41.3669 C   0  0  1  0  0  0  0  0  0  0  0  0
   28.0624    9.2516   41.3215 O   0  0  0  0  0  0  0  0  0  0  0  0
   25.5810    9.2636   41.4636 C   0  0  2  0  0  0  0  0  0  0  0  0
   24.4380   10.1342   41.4498 O   0  0  0  0  0  0  0  0  0  0  0  0
   25.6573    8.4151   42.8001 C   0  0  1  0  0  0  0  0  0  0  0  0
   25.8103    9.3574   43.9145 O   0  0  0  0  0  0  0  0  0  0  0  0
   24.4350    7.5032   43.0520 C   0  0  0  0  0  0  0  0  0  0  0  0
   24.7917    6.1861   43.6459 N   0  3  0  0  0  0  0  0  0  0  0  0
  1  2  1  6  0  0  0
  1  3  1  0  0  0  0
  1 10  1  0  0  0  0
  3  4  1  6  0  0  0
  3  5  1  0  0  0  0
  5  6  1  1  0  0  0
  5  7  1  0  0  0  0
  7  8  1  6  0  0  0
  7  9  1  0  0  0  0
  9 10  1  0  0  0  0
  9 11  1  1  0  0  0
 11 12  1  0  0  0  0
 13 14  1  6  0  0  0
 13 15  1  0  0  0  0
 13 21  1  0  0  0  0
 15 16  1  0  0  0  0
 16 17  1  6  0  0  0
 16 18  1  0  0  0  0
 18  2  1  1  0  0  0
 18 19  1  0  0  0  0
 19 20  1  6  0  0  0
 19 21  1  0  0  0  0
 21 22  1  1  0  0  0
 23 20  1  1  0  0  0
 23 24  1  0  0  0  0
 23 29  1  0  0  0  0
 24 25  1  6  0  0  0
 24 26  1  0  0  0  0
 26 27  1  1  0  0  0
 26 28  1  0  0  0  0
 28 29  1  0  0  0  0
 28 30  1  1  0  0  0
 30 31  1  0  0  0  0
 32 27  1  1  0  0  0
 32 33  1  0  0  0  0
 32 40  1  0  0  0  0
 33 34  1  1  0  0  0
 33 35  1  0  0  0  0
 35 36  1  1  0  0  0
 35 37  1  0  0  0  0
 37 38  1  1  0  0  0
 37 39  1  0  0  0  0
 39 40  1  0  0  0  0
 39 41  1  1  0  0  0
 41 42  1  0  0  0  0
M  CHG  5   4   1  14   1  17   1  34   1  42   1
M  END
>  <CHROM.1>
-147.07059117,115.99740189,92.69060634,176.71979559,-53.31352822,-39.26144184
-133.42311631,176.06542711,5.08290864,-52.30082686,-59.46527031,73.25801556
68.68015203,161.79940831,-56.02201953,-24.70968777,-167.95677253,160.48601442
66.70958091,-174.56068128,141.88684830,-57.92980557,29.12444061,10.80980906
46.82333951,0.56949998,0.81927286,2.27927143

>  <Name>
1j7t

>  <RI>
0

>  <Rbt.Current_Directory>
/home/itssahil/PROJECTS/Mol_Feturizer/New_Systems/rnas/1j7t

>  <Rbt.Executable>
rbdock ($Id: //depot/dev/client3/rdock/2013.1/src/exe/rbdock.cxx#4 $)

>  <Rbt.Library>
libRbt.so (2013.1, Build901 2013/11/27)

>  <Rbt.Parameter_File>
/export/apps/rDock/src/rDock_2013.1_src/data/scripts/dock_solv.prm

>  <Rbt.Receptor>
prm/blind_docking_60.prm

>  <SCORE>
2.26604

>  <SCORE.INTER>
-35.7952

>  <SCORE.INTER.CONST>
1

>  <SCORE.INTER.POLAR>
-6.11017

>  <SCORE.INTER.ROT>
9

>  <SCORE.INTER.SOLV>
28.4727

>  <SCORE.INTER.VDW>
-22.5871

>  <SCORE.INTER.norm>
-0.852267

>  <SCORE.INTRA>
7.36936

>  <SCORE.INTRA.DIHEDRAL>
-8.66125

>  <SCORE.INTRA.DIHEDRAL.0>
46.2143

>  <SCORE.INTRA.POLAR>
0.739121

>  <SCORE.INTRA.POLAR.0>
-1.76436

>  <SCORE.INTRA.REPUL>
0

>  <SCORE.INTRA.REPUL.0>
0

>  <SCORE.INTRA.SOLV>
-0.233157

>  <SCORE.INTRA.SOLV.lig_0>
-148.643

>  <SCORE.INTRA.VDW>
9.30355

>  <SCORE.INTRA.VDW.0>
-4.83512

>  <SCORE.INTRA.norm>
0.175461

>  <SCORE.RESTR>
30.6919

>  <SCORE.RESTR.CAVITY>
30.6919

>  <SCORE.RESTR.norm>
0.730759

>  <SCORE.SYSTEM>
0

>  <SCORE.SYSTEM.CONST>
0

>  <SCORE.SYSTEM.DIHEDRAL>
0

>  <SCORE.SYSTEM.SOLV>
0

>  <SCORE.SYSTEM.norm>
0

>  <SCORE.heavy>
42

>  <SCORE.norm>
0.0539532

>  <RMSD>
11.902

$$$$
1j7t
 OpenBabel11021811393D
libRbt.so/2013.1/901 2013/11/27
 42 45  0  0  0  0  0  0  0  0999 V2000
   30.7659   11.0228   50.6057 C   0  0  2  0  0  0  0  0  0  0  0  0
   31.4411   10.7922   49.3434 O   0  0  0  0  0  0  0  0  0  0  0  0
   31.5245   10.1940   51.6817 C   0  0  2  0  0  0  0  0  0  0  0  0
   32.9930   10.4473   51.7357 N   0  3  0  0  0  0  0  0  0  0  0  0
   31.3109    8.6964   51.3711 C   0  0  1  0  0  0  0  0  0  0  0  0
   31.9603    7.8983   52.3201 O   0  0  0  0  0  0  0  0  0  0  0  0
   29.7984    8.3736   51.3303 C   0  0  2  0  0  0  0  0  0  0  0  0
   29.5808    7.0013   51.0682 O   0  0  0  0  0  0  0  0  0  0  0  0
   29.1259    9.1975   50.2528 C   0  0  2  0  0  0  0  0  0  0  0  0
   29.3783   10.5766   50.4897 O   0  0  0  0  0  0  0  0  0  0  0  0
   27.6235    9.0263   50.2269 C   0  0  0  0  0  0  0  0  0  0  0  0
   27.2938    7.7003   50.5934 O   0  0  0  0  0  0  0  0  0  0  0  0
   31.5677   14.5938   47.5050 C   0  0  2  0  0  0  0  0  0  0  0  0
   31.4690   15.6500   46.4970 N   0  3  0  0  0  0  0  0  0  0  0  0
   32.6423   13.5419   47.0727 C   0  0  0  0  0  0  0  0  0  0  0  0
   32.7146   12.4025   48.1072 C   0  0  2  0  0  0  0  0  0  0  0  0
   33.6793   11.3795   47.6904 N   0  3  0  0  0  0  0  0  0  0  0  0
   31.3278   11.7551   48.2891 C   0  0  2  0  0  0  0  0  0  0  0  0
   30.2427   12.7739   48.6887 C   0  0  2  0  0  0  0  0  0  0  0  0
   28.9940   12.0557   48.6655 O   0  0  0  0  0  0  0  0  0  0  0  0
   30.2032   13.9448   47.6741 C   0  0  1  0  0  0  0  0  0  0  0  0
   29.2815   14.9043   48.1134 O   0  0  0  0  0  0  0  0  0  0  0  0
   28.4052   11.5409   47.4742 C   0  0  1  0  0  0  0  0  0  0  0  0
   28.1893   12.7287   46.4699 C   0  0  2  0  0  0  0  0  0  0  0  0
   26.9507   13.3992   46.6293 O   0  0  0  0  0  0  0  0  0  0  0  0
   28.3281   11.9472   45.1709 C   0  0  2  0  0  0  0  0  0  0  0  0
   27.2009   11.0403   44.9795 O   0  0  0  0  0  0  0  0  0  0  0  0
   29.5653   11.0970   45.4231 C   0  0  2  0  0  0  0  0  0  0  0  0
   29.3277   10.6629   46.7732 O   0  0  0  0  0  0  0  0  0  0  0  0
   30.9262   11.8505   45.2621 C   0  0  0  0  0  0  0  0  0  0  0  0
   32.0222   11.0775   45.7670 O   0  0  0  0  0  0  0  0  0  0  0  0
   27.1382   10.4598   43.6792 C   0  0  2  0  0  0  0  0  0  0  0  0
   26.2709   11.2580   42.6471 C   0  0  2  0  0  0  0  0  0  0  0  0
   24.8574   11.4423   43.0961 N   0  3  0  0  0  0  0  0  0  0  0  0
   26.3456   10.4827   41.2895 C   0  0  1  0  0  0  0  0  0  0  0  0
   27.7578   10.5051   40.8504 O   0  0  0  0  0  0  0  0  0  0  0  0
   25.8806    8.9804   41.4238 C   0  0  2  0  0  0  0  0  0  0  0  0
   24.4926    8.9632   41.7951 O   0  0  0  0  0  0  0  0  0  0  0  0
   26.7897    8.2782   42.5158 C   0  0  1  0  0  0  0  0  0  0  0  0
   26.6590    9.0449   43.7602 O   0  0  0  0  0  0  0  0  0  0  0  0
   26.4464    6.7943   42.7788 C   0  0  0  0  0  0  0  0  0  0  0  0
   26.8575    5.8868   41.6733 N   0  3  0  0  0  0  0  0  0  0  0  0
  1  2  1  6  0  0  0
  1  3  1  0  0  0  0
  1 10  1  0  0  0  0
  3  4  1  6  0  0  0
  3  5  1  0  0  0  0
  5  6  1  1  0  0  0
  5  7  1  0  0  0  0
  7  8  1  6  0  0  0
  7  9  1  0  0  0  0
  9 10  1  0  0  0  0
  9 11  1  1  0  0  0
 11 12  1  0  0  0  0
 13 14  1  6  0  0  0
 13 15  1  0  0  0  0
 13 21  1  0  0  0  0
 15 16  1  0  0  0  0
 16 17  1  6  0  0  0
 16 18  1  0  0  0  0
 18  2  1  1  0  0  0
 18 19  1  0  0  0  0
 19 20  1  6  0  0  0
 19 21  1  0  0  0  0
 21 22  1  1  0  0  0
 23 20  1  1  0  0  0
 23 24  1  0  0  0  0
 23 29  1  0  0  0  0
 24 25  1  1  0  0  0
 24 26  1  0  0  0  0
 26 27  1  1  0  0  0
 26 28  1  0  0  0  0
 28 29  1  0  0  0  0
 28 30  1  1  0  0  0
 30 31  1  0  0  0  0
 32 27  1  1  0  0  0
 32 33  1  0  0  0  0
 32 40  1  0  0  0  0
 33 34  1  1  0  0  0
 33 35  1  0  0  0  0
 35 36  1  1  0  0  0
 35 37  1  0  0  0  0
 37 38  1  1  0  0  0
 37 39  1  0  0  0  0
 39 40  1  0  0  0  0
 39 41  1  1  0  0  0
 41 42  1  0  0  0  0
M  CHG  5   4   1  14   1  17   1  34   1  42   1
M  END
>  <CHROM.1>
-156.51329624,111.73942205,-19.39269253,-82.08914004,168.89152076,-33.71777540
-81.46562950,-158.31211359,-123.95301765,-66.69318485,-57.64464372,148.90979253
-167.10211846,169.14178744,-91.89586385,168.41631960,-9.74522291,-178.82155308
-54.14986593,69.72130724,72.69439284,-74.53140335,29.16482594,10.71972084
46.86914733,0.53037020,0.91976755,2.37164684

>  <Name>
1j7t

>  <RI>
0

>  <Rbt.Current_Directory>
/home/itssahil/PROJECTS/Mol_Feturizer/New_Systems/rnas/1j7t

>  <Rbt.Executable>
rbdock ($Id: //depot/dev/client3/rdock/2013.1/src/exe/rbdock.cxx#4 $)

>  <Rbt.Library>
libRbt.so (2013.1, Build901 2013/11/27)

>  <Rbt.Parameter_File>
/export/apps/rDock/src/rDock_2013.1_src/data/scripts/dock_solv.prm

>  <Rbt.Receptor>
prm/blind_docking_60.prm

>  <SCORE>
18.6299

>  <SCORE.INTER>
-24.0638

>  <SCORE.INTER.CONST>
1

>  <SCORE.INTER.POLAR>
-3.91418

>  <SCORE.INTER.ROT>
9

>  <SCORE.INTER.SOLV>
25.7566

>  <SCORE.INTER.VDW>
-21.1808

>  <SCORE.INTER.norm>
-0.572947

>  <SCORE.INTRA>
13.037

>  <SCORE.INTRA.DIHEDRAL>
-3.86066

>  <SCORE.INTRA.DIHEDRAL.0>
46.2143

>  <SCORE.INTRA.POLAR>
0.825206

>  <SCORE.INTRA.POLAR.0>
-1.76436

>  <SCORE.INTRA.REPUL>
0

>  <SCORE.INTRA.REPUL.0>
0

>  <SCORE.INTRA.SOLV>
1.43675

>  <SCORE.INTRA.SOLV.lig_0>
-148.643

>  <SCORE.INTRA.VDW>
11.4432

>  <SCORE.INTRA.VDW.0>
-4.83512

>  <SCORE.INTRA.norm>
0.310404

>  <SCORE.RESTR>
29.6567

>  <SCORE.RESTR.CAVITY>
29.6567

>  <SCORE.RESTR.norm>
0.706112

>  <SCORE.SYSTEM>
0

>  <SCORE.SYSTEM.CONST>
0

>  <SCORE.SYSTEM.DIHEDRAL>
0

>  <SCORE.SYSTEM.SOLV>
0

>  <SCORE.SYSTEM.norm>
0

>  <SCORE.heavy>
42

>  <SCORE.norm>
0.44357

>  <RMSD>
11.929

$$$$
1j7t
 OpenBabel11021811393D
libRbt.so/2013.1/901 2013/11/27
 42 45  0  0  0  0  0  0  0  0999 V2000
   29.9380   11.0156   50.1603 C   0  0  2  0  0  0  0  0  0  0  0  0
   31.1657   10.9363   49.3928 O   0  0  0  0  0  0  0  0  0  0  0  0
   30.3465   11.0793   51.6600 C   0  0  2  0  0  0  0  0  0  0  0  0
   31.3262   12.1542   51.9892 N   0  3  0  0  0  0  0  0  0  0  0  0
   30.9808    9.7240   52.0417 C   0  0  1  0  0  0  0  0  0  0  0  0
   31.3549    9.7168   53.3905 O   0  0  0  0  0  0  0  0  0  0  0  0
   29.9912    8.5726   51.7442 C   0  0  2  0  0  0  0  0  0  0  0  0
   30.5448    7.3231   52.1069 O   0  0  0  0  0  0  0  0  0  0  0  0
   29.6510    8.5555   50.2691 C   0  0  2  0  0  0  0  0  0  0  0  0
   29.1331    9.8248   49.8916 O   0  0  0  0  0  0  0  0  0  0  0  0
   28.5965    7.5306   49.9159 C   0  0  0  0  0  0  0  0  0  0  0  0
   27.3384    7.9640   50.3960 O   0  0  0  0  0  0  0  0  0  0  0  0
   32.3512   14.4449   47.3599 C   0  0  2  0  0  0  0  0  0  0  0  0
   32.5866   15.4137   46.2888 N   0  3  0  0  0  0  0  0  0  0  0  0
   33.1630   13.1360   47.0837 C   0  0  0  0  0  0  0  0  0  0  0  0
   32.8799   12.0950   48.1836 C   0  0  2  0  0  0  0  0  0  0  0  0
   33.5914   10.8417   47.9117 N   0  3  0  0  0  0  0  0  0  0  0  0
   31.3673   11.8149   48.2797 C   0  0  2  0  0  0  0  0  0  0  0  0
   30.5395   13.0917   48.5242 C   0  0  2  0  0  0  0  0  0  0  0  0
   29.1578   12.6943   48.4324 O   0  0  0  0  0  0  0  0  0  0  0  0
   30.8607   14.1569   47.4453 C   0  0  1  0  0  0  0  0  0  0  0  0
   30.1736   15.3401   47.7470 O   0  0  0  0  0  0  0  0  0  0  0  0
   28.6183   11.9754   47.3264 C   0  0  1  0  0  0  0  0  0  0  0  0
   28.3063   12.9939   46.1726 C   0  0  2  0  0  0  0  0  0  0  0  0
   27.0151   13.5734   46.2502 O   0  0  0  0  0  0  0  0  0  0  0  0
   28.5147   12.0582   44.9901 C   0  0  2  0  0  0  0  0  0  0  0  0
   27.4685   11.0423   44.9323 O   0  0  0  0  0  0  0  0  0  0  0  0
   29.8184   11.3569   45.3447 C   0  0  2  0  0  0  0  0  0  0  0  0
   29.6138   11.0911   46.7431 O   0  0  0  0  0  0  0  0  0  0  0  0
   31.1114   12.1933   45.0721 C   0  0  0  0  0  0  0  0  0  0  0  0
   31.1790   12.6344   43.7102 O   0  0  0  0  0  0  0  0  0  0  0  0
   27.3049   10.4513   43.6456 C   0  0  2  0  0  0  0  0  0  0  0  0
   26.4018   11.2683   42.6601 C   0  0  2  0  0  0  0  0  0  0  0  0
   25.0263   11.5054   43.1941 N   0  3  0  0  0  0  0  0  0  0  0  0
   26.3651   10.4774   41.3100 C   0  0  1  0  0  0  0  0  0  0  0  0
   27.7468   10.4469   40.7833 O   0  0  0  0  0  0  0  0  0  0  0  0
   25.8592    8.9933   41.4913 C   0  0  2  0  0  0  0  0  0  0  0  0
   24.4974    9.0274   41.9487 O   0  0  0  0  0  0  0  0  0  0  0  0
   26.8110    8.2713   42.5329 C   0  0  1  0  0  0  0  0  0  0  0  0
   26.7845    9.0545   43.7736 O   0  0  0  0  0  0  0  0  0  0  0  0
   26.4352    6.8028   42.8349 C   0  0  0  0  0  0  0  0  0  0  0  0
   25.0397    6.6377   43.3247 N   0  3  0  0  0  0  0  0  0  0  0  0
  1  2  1  6  0  0  0
  1  3  1  0  0  0  0
  1 10  1  0  0  0  0
  3  4  1  6  0  0  0
  3  5  1  0  0  0  0
  5  6  1  1  0  0  0
  5  7  1  0  0  0  0
  7  8  1  6  0  0  0
  7  9  1  0  0  0  0
  9 10  1  0  0  0  0
  9 11  1  1  0  0  0
 11 12  1  0  0  0  0
 13 14  1  6  0  0  0
 13 15  1  0  0  0  0
 13 21  1  0  0  0  0
 15 16  1  0  0  0  0
 16 17  1  6  0  0  0
 16 18  1  0  0  0  0
 18  2  1  1  0  0  0
 18 19  1  0  0  0  0
 19 20  1  6  0  0  0
 19 21  1  0  0  0  0
 21 22  1  1  0  0  0
 23 20  1  1  0  0  0
 23 24  1  0  0  0  0
 23 29  1  0  0  0  0
 24 25  1  1  0  0  0
 24 26  1  0  0  0  0
 26 27  1  1  0  0  0
 26 28  1  0  0  0  0
 28 29  1  0  0  0  0
 28 30  1  1  0  0  0
 30 31  1  0  0  0  0
 32 27  1  1  0  0  0
 32 33  1  0  0  0  0
 32 40  1  0  0  0  0
 33 34  1  1  0  0  0
 33 35  1  0  0  0  0
 35 36  1  1  0  0  0
 35 37  1  0  0  0  0
 37 38  1  1  0  0  0
 37 39  1  0  0  0  0
 39 40  1  0  0  0  0
 39 41  1  1  0  0  0
 41 42  1  0  0  0  0
M  CHG  5   4   1  14   1  17   1  34   1  42   1
M  END
>  <CHROM.1>
-130.82231940,148.44133994,135.50928014,55.31827732,177.51100269,72.21974776
-60.01899669,78.79882863,-24.52773159,-52.29310979,-81.48520111,-62.38374498
-176.70358839,158.66973698,-83.43905200,-55.43493171,58.14674141,0.11503434
-51.18524257,-79.18055059,-56.44511646,-71.50708150,29.18893022,10.93142245
46.87116490,0.68757608,0.85448673,2.15931179

>  <Name>
1j7t

>  <RI>
0

>  <Rbt.Current_Directory>
/home/itssahil/PROJECTS/Mol_Feturizer/New_Systems/rnas/1j7t

>  <Rbt.Executable>
rbdock ($Id: //depot/dev/client3/rdock/2013.1/src/exe/rbdock.cxx#4 $)

>  <Rbt.Library>
libRbt.so (2013.1, Build901 2013/11/27)

>  <Rbt.Parameter_File>
/export/apps/rDock/src/rDock_2013.1_src/data/scripts/dock_solv.prm

>  <Rbt.Receptor>
prm/blind_docking_60.prm

>  <SCORE>
11.5765

>  <SCORE.INTER>
-22.7167

>  <SCORE.INTER.CONST>
1

>  <SCORE.INTER.POLAR>
-2.2906

>  <SCORE.INTER.ROT>
9

>  <SCORE.INTER.SOLV>
26.7312

>  <SCORE.INTER.VDW>
-26.0195

>  <SCORE.INTER.norm>
-0.540873

>  <SCORE.INTRA>
4.45243

>  <SCORE.INTRA.DIHEDRAL>
-15.4527

>  <SCORE.INTRA.DIHEDRAL.0>
46.2143

>  <SCORE.INTRA.POLAR>
1.4854

>  <SCORE.INTRA.POLAR.0>
-1.76436

>  <SCORE.INTRA.REPUL>
0

>  <SCORE.INTRA.REPUL.0>
0

>  <SCORE.INTRA.SOLV>
-0.167683

>  <SCORE.INTRA.SOLV.lig_0>
-148.643

>  <SCORE.INTRA.VDW>
7.21224

>  <SCORE.INTRA.VDW.0>
-4.83512

>  <SCORE.INTRA.norm>
0.10601

>  <SCORE.RESTR>
29.8407

>  <SCORE.RESTR.CAVITY>
29.8407

>  <SCORE.RESTR.norm>
0.710493

>  <SCORE.SYSTEM>
0

>  <SCORE.SYSTEM.CONST>
0

>  <SCORE.SYSTEM.DIHEDRAL>
0

>  <SCORE.SYSTEM.SOLV>
0

>  <SCORE.SYSTEM.norm>
0

>  <SCORE.heavy>
42

>  <SCORE.norm>
0.275631

>  <RMSD>
11.967

$$$$
1j7t
 OpenBabel11021811393D
libRbt.so/2013.1/901 2013/11/27
 42 45  0  0  0  0  0  0  0  0999 V2000
   32.3489   13.5472   48.6007 C   0  0  2  0  0  0  0  0  0  0  0  0
   31.0841   12.8602   48.4249 O   0  0  0  0  0  0  0  0  0  0  0  0
   32.4530   14.6005   47.4606 C   0  0  2  0  0  0  0  0  0  0  0  0
   31.2836   15.5202   47.3596 N   0  3  0  0  0  0  0  0  0  0  0  0
   32.5810   13.8442   46.1202 C   0  0  1  0  0  0  0  0  0  0  0  0
   32.6949   14.7448   45.0546 O   0  0  0  0  0  0  0  0  0  0  0  0
   33.7999   12.8925   46.1623 C   0  0  2  0  0  0  0  0  0  0  0  0
   33.9481   12.2053   44.9355 O   0  0  0  0  0  0  0  0  0  0  0  0
   33.6264   11.8842   47.2783 C   0  0  2  0  0  0  0  0  0  0  0  0
   33.4348   12.5724   48.5078 O   0  0  0  0  0  0  0  0  0  0  0  0
   34.8318   10.9895   47.4614 C   0  0  0  0  0  0  0  0  0  0  0  0
   34.5523   10.0190   48.4520 O   0  0  0  0  0  0  0  0  0  0  0  0
   29.9623    9.5592   50.8109 C   0  0  2  0  0  0  0  0  0  0  0  0
   29.3783    8.7659   51.8930 N   0  3  0  0  0  0  0  0  0  0  0  0
   31.0354   10.5411   51.3878 C   0  0  0  0  0  0  0  0  0  0  0  0
   31.6177   11.4124   50.2586 C   0  0  2  0  0  0  0  0  0  0  0  0
   32.5870   12.3763   50.7901 N   0  3  0  0  0  0  0  0  0  0  0  0
   30.4898   12.1690   49.5297 C   0  0  2  0  0  0  0  0  0  0  0  0
   29.4033   11.2276   48.9744 C   0  0  2  0  0  0  0  0  0  0  0  0
   28.3576   12.0803   48.4696 O   0  0  0  0  0  0  0  0  0  0  0  0
   28.8519   10.3174   50.1010 C   0  0  1  0  0  0  0  0  0  0  0  0
   27.9413    9.4050   49.5520 O   0  0  0  0  0  0  0  0  0  0  0  0
   27.9964   12.1506   47.0927 C   0  0  1  0  0  0  0  0  0  0  0  0
   28.9383   13.1865   46.3814 C   0  0  2  0  0  0  0  0  0  0  0  0
   28.4670   14.5222   46.4323 O   0  0  0  0  0  0  0  0  0  0  0  0
   28.9410   12.5643   44.9921 C   0  0  2  0  0  0  0  0  0  0  0  0
   27.6348   12.6948   44.3546 O   0  0  0  0  0  0  0  0  0  0  0  0
   29.1635   11.0876   45.2878 C   0  0  2  0  0  0  0  0  0  0  0  0
   28.2873   10.8993   46.4123 O   0  0  0  0  0  0  0  0  0  0  0  0
   30.6440   10.6951   45.6039 C   0  0  0  0  0  0  0  0  0  0  0  0
   31.5682   11.6701   45.1047 O   0  0  0  0  0  0  0  0  0  0  0  0
   27.4250   11.7911   43.2725 C   0  0  2  0  0  0  0  0  0  0  0  0
   26.5311   12.3524   42.1148 C   0  0  2  0  0  0  0  0  0  0  0  0
   25.1756   12.7753   42.5808 N   0  3  0  0  0  0  0  0  0  0  0  0
   26.4400   11.2344   41.0233 C   0  0  1  0  0  0  0  0  0  0  0  0
   27.8090   11.0123   40.5095 O   0  0  0  0  0  0  0  0  0  0  0  0
   25.8869    9.8719   41.5969 C   0  0  2  0  0  0  0  0  0  0  0  0
   24.5365   10.0784   42.0427 O   0  0  0  0  0  0  0  0  0  0  0  0
   26.8338    9.4151   42.7829 C   0  0  1  0  0  0  0  0  0  0  0  0
   26.8593   10.4992   43.7716 O   0  0  0  0  0  0  0  0  0  0  0  0
   26.4137    8.0945   43.4674 C   0  0  0  0  0  0  0  0  0  0  0  0
   25.1135    8.1876   44.1852 N   0  3  0  0  0  0  0  0  0  0  0  0
  1  2  1  6  0  0  0
  1  3  1  0  0  0  0
  1 10  1  0  0  0  0
  3  4  1  6  0  0  0
  3  5  1  0  0  0  0
  5  6  1  6  0  0  0
  5  7  1  0  0  0  0
  7  8  1  6  0  0  0
  7  9  1  0  0  0  0
  9 10  1  0  0  0  0
  9 11  1  1  0  0  0
 11 12  1  0  0  0  0
 13 14  1  1  0  0  0
 13 15  1  0  0  0  0
 13 21  1  0  0  0  0
 15 16  1  0  0  0  0
 16 17  1  1  0  0  0
 16 18  1  0  0  0  0
 18  2  1  6  0  0  0
 18 19  1  0  0  0  0
 19 20  1  1  0  0  0
 19 21  1  0  0  0  0
 21 22  1  6  0  0  0
 23 20  1  1  0  0  0
 23 24  1  0  0  0  0
 23 29  1  0  0  0  0
 24 25  1  6  0  0  0
 24 26  1  0  0  0  0
 26 27  1  1  0  0  0
 26 28  1  0  0  0  0
 28 29  1  0  0  0  0
 28 30  1  1  0  0  0
 30 31  1  0  0  0  0
 32 27  1  1  0  0  0
 32 33  1  0  0  0  0
 32 40  1  0  0  0  0
 33 34  1  1  0  0  0
 33 35  1  0  0  0  0
 35 36  1  1  0  0  0
 35 37  1  0  0  0  0
 37 38  1  1  0  0  0
 37 39  1  0  0  0  0
 39 40  1  0  0  0  0
 39 41  1  1  0  0  0
 41 42  1  0  0  0  0
M  CHG  5   4   1  14   1  17   1  34   1  42   1
M  END
>  <CHROM.1>
-159.05803613,-42.45181233,-60.07984021,-168.30176749,59.40128384,-175.79685833
-53.69816290,-176.27512375,136.97217897,115.42187011,-85.51496042,74.54000202
-55.79071268,-160.88248187,-146.94700126,-20.63758441,-65.99024641,-12.29519182
-169.13491116,-72.28926346,-65.64602727,44.74154572,29.67076540,11.62850648
46.33811290,-0.67264468,-0.51796944,-1.20840736

>  <Name>
1j7t

>  <RI>
0

>  <Rbt.Current_Directory>
/home/itssahil/PROJECTS/Mol_Feturizer/New_Systems/rnas/1j7t

>  <Rbt.Executable>
rbdock ($Id: //depot/dev/client3/rdock/2013.1/src/exe/rbdock.cxx#4 $)

>  <Rbt.Library>
libRbt.so (2013.1, Build901 2013/11/27)

>  <Rbt.Parameter_File>
/export/apps/rDock/src/rDock_2013.1_src/data/scripts/dock_solv.prm

>  <Rbt.Receptor>
prm/blind_docking_60.prm

>  <SCORE>
31.9078

>  <SCORE.INTER>
-8.2966

>  <SCORE.INTER.CONST>
1

>  <SCORE.INTER.POLAR>
-2.42424

>  <SCORE.INTER.ROT>
9

>  <SCORE.INTER.SOLV>
27.2902

>  <SCORE.INTER.VDW>
-16.147

>  <SCORE.INTER.norm>
-0.197538

>  <SCORE.INTRA>
4.80757

>  <SCORE.INTRA.DIHEDRAL>
-12.6098

>  <SCORE.INTRA.DIHEDRAL.0>
46.2143

>  <SCORE.INTRA.POLAR>
-0.27656

>  <SCORE.INTRA.POLAR.0>
-1.76436

>  <SCORE.INTRA.REPUL>
0.125162

>  <SCORE.INTRA.REPUL.0>
0

>  <SCORE.INTRA.SOLV>
7.31981

>  <SCORE.INTRA.SOLV.lig_0>
-148.643

>  <SCORE.INTRA.VDW>
7.76708

>  <SCORE.INTRA.VDW.0>
-4.83512

>  <SCORE.INTRA.norm>
0.114466

>  <SCORE.RESTR>
35.3968

>  <SCORE.RESTR.CAVITY>
35.3968

>  <SCORE.RESTR.norm>
0.842781

>  <SCORE.SYSTEM>
0

>  <SCORE.SYSTEM.CONST>
0

>  <SCORE.SYSTEM.DIHEDRAL>
0

>  <SCORE.SYSTEM.SOLV>
0

>  <SCORE.SYSTEM.norm>
0

>  <SCORE.heavy>
42

>  <SCORE.norm>
0.759709

>  <RMSD>
11.969

$$$$
1j7t
 OpenBabel11021811393D
libRbt.so/2013.1/901 2013/11/27
 42 45  0  0  0  0  0  0  0  0999 V2000
   30.7621   11.0700   50.5176 C   0  0  2  0  0  0  0  0  0  0  0  0
   31.4125   10.8357   49.2430 O   0  0  0  0  0  0  0  0  0  0  0  0
   31.5752   10.2894   51.5898 C   0  0  2  0  0  0  0  0  0  0  0  0
   33.0352   10.5923   51.6006 N   0  3  0  0  0  0  0  0  0  0  0  0
   31.4044    8.7794   51.3147 C   0  0  1  0  0  0  0  0  0  0  0  0
   32.1042    8.0231   52.2623 O   0  0  0  0  0  0  0  0  0  0  0  0
   29.9031    8.4057   51.3198 C   0  0  2  0  0  0  0  0  0  0  0  0
   29.7254    7.0218   51.0909 O   0  0  0  0  0  0  0  0  0  0  0  0
   29.1762    9.1842   50.2439 C   0  0  2  0  0  0  0  0  0  0  0  0
   29.3878   10.5757   50.4466 O   0  0  0  0  0  0  0  0  0  0  0  0
   27.6803    8.9627   50.2605 C   0  0  0  0  0  0  0  0  0  0  0  0
   27.4078    7.6063   50.5556 O   0  0  0  0  0  0  0  0  0  0  0  0
   31.6501   14.6639   47.4720 C   0  0  2  0  0  0  0  0  0  0  0  0
   31.5793   15.7407   46.4836 N   0  3  0  0  0  0  0  0  0  0  0  0
   32.6877   13.5860   47.0138 C   0  0  0  0  0  0  0  0  0  0  0  0
   32.7296   12.4265   48.0274 C   0  0  2  0  0  0  0  0  0  0  0  0
   33.6585   11.3808   47.5860 N   0  3  0  0  0  0  0  0  0  0  0  0
   31.3238   11.8206   48.2068 C   0  0  2  0  0  0  0  0  0  0  0  0
   30.2745   12.8663   48.6317 C   0  0  2  0  0  0  0  0  0  0  0  0
   29.0033   12.1890   48.6040 O   0  0  0  0  0  0  0  0  0  0  0  0
   30.2665   14.0559   47.6385 C   0  0  1  0  0  0  0  0  0  0  0  0
   29.3788   15.0364   48.1009 O   0  0  0  0  0  0  0  0  0  0  0  0
   28.5109   11.4874   47.4653 C   0  0  1  0  0  0  0  0  0  0  0  0
   28.2779   12.5193   46.3048 C   0  0  2  0  0  0  0  0  0  0  0  0
   26.9945   13.1207   46.3186 O   0  0  0  0  0  0  0  0  0  0  0  0
   28.5327   11.5885   45.1275 C   0  0  2  0  0  0  0  0  0  0  0  0
   27.4740   10.5915   45.0063 O   0  0  0  0  0  0  0  0  0  0  0  0
   29.8036   10.8620   45.5450 C   0  0  2  0  0  0  0  0  0  0  0  0
   29.5208   10.5900   46.9283 O   0  0  0  0  0  0  0  0  0  0  0  0
   31.1234   11.6777   45.3478 C   0  0  0  0  0  0  0  0  0  0  0  0
   31.0490   12.5359   44.2025 O   0  0  0  0  0  0  0  0  0  0  0  0
   26.8558   10.5554   43.7226 C   0  0  2  0  0  0  0  0  0  0  0  0
   25.3038   10.3435   43.7491 C   0  0  2  0  0  0  0  0  0  0  0  0
   24.9015    9.0849   44.4472 N   0  3  0  0  0  0  0  0  0  0  0  0
   24.8142   10.3572   42.2625 C   0  0  1  0  0  0  0  0  0  0  0  0
   25.1070   11.7009   41.7181 O   0  0  0  0  0  0  0  0  0  0  0  0
   25.5482    9.2793   41.3734 C   0  0  2  0  0  0  0  0  0  0  0  0
   25.2151    7.9731   41.8709 O   0  0  0  0  0  0  0  0  0  0  0  0
   27.1069    9.5566   41.4480 C   0  0  1  0  0  0  0  0  0  0  0  0
   27.4971    9.5132   42.8619 O   0  0  0  0  0  0  0  0  0  0  0  0
   27.9742    8.5674   40.6367 C   0  0  0  0  0  0  0  0  0  0  0  0
   27.9836    7.1897   41.1992 N   0  3  0  0  0  0  0  0  0  0  0  0
  1  2  1  6  0  0  0
  1  3  1  0  0  0  0
  1 10  1  0  0  0  0
  3  4  1  6  0  0  0
  3  5  1  0  0  0  0
  5  6  1  1  0  0  0
  5  7  1  0  0  0  0
  7  8  1  6  0  0  0
  7  9  1  0  0  0  0
  9 10  1  0  0  0  0
  9 11  1  1  0  0  0
 11 12  1  0  0  0  0
 13 14  1  6  0  0  0
 13 15  1  0  0  0  0
 13 21  1  0  0  0  0
 15 16  1  0  0  0  0
 16 17  1  6  0  0  0
 16 18  1  0  0  0  0
 18  2  1  1  0  0  0
 18 19  1  0  0  0  0
 19 20  1  6  0  0  0
 19 21  1  0  0  0  0
 21 22  1  1  0  0  0
 23 20  1  1  0  0  0
 23 24  1  0  0  0  0
 23 29  1  0  0  0  0
 24 25  1  6  0  0  0
 24 26  1  0  0  0  0
 26 27  1  1  0  0  0
 26 28  1  0  0  0  0
 28 29  1  0  0  0  0
 28 30  1  1  0  0  0
 30 31  1  0  0  0  0
 32 27  1  1  0  0  0
 32 33  1  0  0  0  0
 32 40  1  0  0  0  0
 33 34  1  6  0  0  0
 33 35  1  0  0  0  0
 35 36  1  6  0  0  0
 35 37  1  0  0  0  0
 37 38  1  1  0  0  0
 37 39  1  0  0  0  0
 39 40  1  0  0  0  0
 39 41  1  6  0  0  0
 41 42  1  0  0  0  0
M  CHG  5   4   1  14   1  17   1  34   1  42   1
M  END
>  <CHROM.1>
-151.78844620,111.22292961,-7.78586184,60.84703958,53.47362036,-38.43989776
-177.90102640,74.07604286,107.98348295,-53.96077509,-64.58713063,64.58680759
179.04959296,125.33128936,-140.42802281,-33.39294269,170.51741012,-83.92474823
60.20710496,71.89919076,-68.70287282,-43.28935127,29.17847617,10.78769384
46.80100029,0.63444554,0.86641962,2.26009904

>  <Name>
1j7t

>  <RI>
0

>  <Rbt.Current_Directory>
/home/itssahil/PROJECTS/Mol_Feturizer/New_Systems/rnas/1j7t

>  <Rbt.Executable>
rbdock ($Id: //depot/dev/client3/rdock/2013.1/src/exe/rbdock.cxx#4 $)

>  <Rbt.Library>
libRbt.so (2013.1, Build901 2013/11/27)

>  <Rbt.Parameter_File>
/export/apps/rDock/src/rDock_2013.1_src/data/scripts/dock_solv.prm

>  <Rbt.Receptor>
prm/blind_docking_60.prm

>  <SCORE>
5.57899

>  <SCORE.INTER>
-31.1858

>  <SCORE.INTER.CONST>
1

>  <SCORE.INTER.POLAR>
-4.88531

>  <SCORE.INTER.ROT>
9

>  <SCORE.INTER.SOLV>
33.8974

>  <SCORE.INTER.VDW>
-25.4053

>  <SCORE.INTER.norm>
-0.742519

>  <SCORE.INTRA>
7.1874

>  <SCORE.INTRA.DIHEDRAL>
-8.86803

>  <SCORE.INTRA.DIHEDRAL.0>
46.2143

>  <SCORE.INTRA.POLAR>
1.01698

>  <SCORE.INTRA.POLAR.0>
-1.76436

>  <SCORE.INTRA.REPUL>
0

>  <SCORE.INTRA.REPUL.0>
0

>  <SCORE.INTRA.SOLV>
1.33781

>  <SCORE.INTRA.SOLV.lig_0>
-148.643

>  <SCORE.INTRA.VDW>
7.49477

>  <SCORE.INTRA.VDW.0>
-4.83512

>  <SCORE.INTRA.norm>
0.171129

>  <SCORE.RESTR>
29.5774

>  <SCORE.RESTR.CAVITY>
29.5774

>  <SCORE.RESTR.norm>
0.704223

>  <SCORE.SYSTEM>
0

>  <SCORE.SYSTEM.CONST>
0

>  <SCORE.SYSTEM.DIHEDRAL>
0

>  <SCORE.SYSTEM.SOLV>
0

>  <SCORE.SYSTEM.norm>
0

>  <SCORE.heavy>
42

>  <SCORE.norm>
0.132833

>  <RMSD>
11.969

$$$$
1j7t
 OpenBabel11021811393D
libRbt.so/2013.1/901 2013/11/27
 42 45  0  0  0  0  0  0  0  0999 V2000
   30.3848    8.8605   50.9474 C   0  0  2  0  0  0  0  0  0  0  0  0
   30.0717    9.9804   50.0811 O   0  0  0  0  0  0  0  0  0  0  0  0
   29.4176    7.7054   50.5597 C   0  0  2  0  0  0  0  0  0  0  0  0
   29.4201    7.3570   49.1098 N   0  3  0  0  0  0  0  0  0  0  0  0
   27.9840    8.1318   50.9443 C   0  0  1  0  0  0  0  0  0  0  0  0
   27.0681    7.1203   50.6321 O   0  0  0  0  0  0  0  0  0  0  0  0
   27.9200    8.4794   52.4505 C   0  0  2  0  0  0  0  0  0  0  0  0
   26.6096    8.8522   52.8285 O   0  0  0  0  0  0  0  0  0  0  0  0
   28.8680    9.6197   52.7554 C   0  0  2  0  0  0  0  0  0  0  0  0
   30.1800    9.2646   52.3376 O   0  0  0  0  0  0  0  0  0  0  0  0
   28.9515    9.9427   54.2305 C   0  0  0  0  0  0  0  0  0  0  0  0
   27.7376   10.5336   54.6531 O   0  0  0  0  0  0  0  0  0  0  0  0
   31.7951   13.8244   49.7625 C   0  0  2  0  0  0  0  0  0  0  0  0
   32.7532   14.8952   49.4856 N   0  3  0  0  0  0  0  0  0  0  0  0
   32.3753   12.8558   50.8458 C   0  0  0  0  0  0  0  0  0  0  0  0
   31.3906   11.6996   51.1048 C   0  0  2  0  0  0  0  0  0  0  0  0
   31.9423   10.7523   52.0790 N   0  3  0  0  0  0  0  0  0  0  0  0
   31.0770   10.9583   49.7903 C   0  0  2  0  0  0  0  0  0  0  0  0
   30.5292   11.8939   48.6951 C   0  0  2  0  0  0  0  0  0  0  0  0
   30.4367   11.0960   47.4992 O   0  0  0  0  0  0  0  0  0  0  0  0
   31.4967   13.0832   48.4689 C   0  0  1  0  0  0  0  0  0  0  0  0
   30.9293   13.9694   47.5439 O   0  0  0  0  0  0  0  0  0  0  0  0
   29.2845   11.0664   46.6609 C   0  0  1  0  0  0  0  0  0  0  0  0
   28.5824   12.4694   46.7269 C   0  0  2  0  0  0  0  0  0  0  0  0
   27.6434   12.5940   47.7813 O   0  0  0  0  0  0  0  0  0  0  0  0
   27.9769   12.4790   45.3302 C   0  0  2  0  0  0  0  0  0  0  0  0
   26.9080   11.4923   45.2133 O   0  0  0  0  0  0  0  0  0  0  0  0
   29.1347   12.0086   44.4610 C   0  0  2  0  0  0  0  0  0  0  0  0
   29.6597   10.9363   45.2624 O   0  0  0  0  0  0  0  0  0  0  0  0
   30.2050   13.1030   44.1411 C   0  0  0  0  0  0  0  0  0  0  0  0
   31.2497   13.1244   45.1220 O   0  0  0  0  0  0  0  0  0  0  0  0
   26.3320   11.4130   43.9120 C   0  0  2  0  0  0  0  0  0  0  0  0
   25.6419   10.0455   43.5838 C   0  0  2  0  0  0  0  0  0  0  0  0
   26.5717    8.8819   43.7058 N   0  3  0  0  0  0  0  0  0  0  0  0
   25.0565   10.1634   42.1370 C   0  0  1  0  0  0  0  0  0  0  0  0
   24.0283   11.2262   42.1666 O   0  0  0  0  0  0  0  0  0  0  0  0
   26.1534   10.5492   41.0697 C   0  0  2  0  0  0  0  0  0  0  0  0
   27.1195    9.4877   41.0031 O   0  0  0  0  0  0  0  0  0  0  0  0
   26.8151   11.9188   41.5151 C   0  0  1  0  0  0  0  0  0  0  0  0
   27.3542   11.7311   42.8669 O   0  0  0  0  0  0  0  0  0  0  0  0
   27.9308   12.4283   40.5745 C   0  0  0  0  0  0  0  0  0  0  0  0
   28.3735   13.8161   40.8790 N   0  3  0  0  0  0  0  0  0  0  0  0
  1  2  1  6  0  0  0
  1  3  1  0  0  0  0
  1 10  1  0  0  0  0
  3  4  1  6  0  0  0
  3  5  1  0  0  0  0
  5  6  1  1  0  0  0
  5  7  1  0  0  0  0
  7  8  1  6  0  0  0
  7  9  1  0  0  0  0
  9 10  1  0  0  0  0
  9 11  1  1  0  0  0
 11 12  1  0  0  0  0
 13 14  1  6  0  0  0
 13 15  1  0  0  0  0
 13 21  1  0  0  0  0
 15 16  1  0  0  0  0
 16 17  1  1  0  0  0
 16 18  1  0  0  0  0
 18  2  1  1  0  0  0
 18 19  1  0  0  0  0
 19 20  1  6  0  0  0
 19 21  1  0  0  0  0
 21 22  1  6  0  0  0
 23 20  1  1  0  0  0
 23 24  1  0  0  0  0
 23 29  1  0  0  0  0
 24 25  1  1  0  0  0
 24 26  1  0  0  0  0
 26 27  1  1  0  0  0
 26 28  1  0  0  0  0
 28 29  1  0  0  0  0
 28 30  1  1  0  0  0
 30 31  1  0  0  0  0
 32 27  1  1  0  0  0
 32 33  1  0  0  0  0
 32 40  1  0  0  0  0
 33 34  1  6  0  0  0
 33 35  1  0  0  0  0
 35 36  1  1  0  0  0
 35 37  1  0  0  0  0
 37 38  1  1  0  0  0
 37 39  1  0  0  0  0
 39 40  1  0  0  0  0
 39 41  1  6  0  0  0
 41 42  1  0  0  0  0
M  CHG  5   4   1  14   1  17   1  34   1  42   1
M  END
>  <CHROM.1>
-154.33551459,-66.51674822,89.46019354,68.74656288,65.60865555,-70.25204345
55.49310124,-173.97798632,-103.58140031,132.37791412,31.16096552,64.34810036
-141.32178285,-177.68693511,156.24978684,90.23255993,-173.66020294,-21.29012773
-62.29875634,-179.02747248,170.16055182,-50.91328578,28.83571030,10.99305223
47.40115169,1.21284506,0.72942314,1.96187249

>  <Name>
1j7t

>  <RI>
0

>  <Rbt.Current_Directory>
/home/itssahil/PROJECTS/Mol_Feturizer/New_Systems/rnas/1j7t

>  <Rbt.Executable>
rbdock ($Id: //depot/dev/client3/rdock/2013.1/src/exe/rbdock.cxx#4 $)

>  <Rbt.Library>
libRbt.so (2013.1, Build901 2013/11/27)

>  <Rbt.Parameter_File>
/export/apps/rDock/src/rDock_2013.1_src/data/scripts/dock_solv.prm

>  <Rbt.Receptor>
prm/blind_docking_60.prm

>  <SCORE>
34.7122

>  <SCORE.INTER>
-9.37026

>  <SCORE.INTER.CONST>
1

>  <SCORE.INTER.POLAR>
-3.70411

>  <SCORE.INTER.ROT>
9

>  <SCORE.INTER.SOLV>
35.6191

>  <SCORE.INTER.VDW>
-15.3728

>  <SCORE.INTER.norm>
-0.223101

>  <SCORE.INTRA>
6.02334

>  <SCORE.INTRA.DIHEDRAL>
-13.5672

>  <SCORE.INTRA.DIHEDRAL.0>
46.2143

>  <SCORE.INTRA.POLAR>
0.646037

>  <SCORE.INTRA.POLAR.0>
-1.76436

>  <SCORE.INTRA.REPUL>
0.0470834

>  <SCORE.INTRA.REPUL.0>
0

>  <SCORE.INTRA.SOLV>
2.92589

>  <SCORE.INTRA.SOLV.lig_0>
-148.643

>  <SCORE.INTRA.VDW>
8.91207

>  <SCORE.INTRA.VDW.0>
-4.83512

>  <SCORE.INTRA.norm>
0.143413

>  <SCORE.RESTR>
38.0592

>  <SCORE.RESTR.CAVITY>
38.0592

>  <SCORE.RESTR.norm>
0.906171

>  <SCORE.SYSTEM>
0

>  <SCORE.SYSTEM.CONST>
0

>  <SCORE.SYSTEM.DIHEDRAL>
0

>  <SCORE.SYSTEM.SOLV>
0

>  <SCORE.SYSTEM.norm>
0

>  <SCORE.heavy>
42

>  <SCORE.norm>
0.826482

>  <RMSD>
11.985

$$$$
1j7t
 OpenBabel11021811393D
libRbt.so/2013.1/901 2013/11/27
 42 45  0  0  0  0  0  0  0  0999 V2000
   32.9701   13.0640   50.2979 C   0  0  2  0  0  0  0  0  0  0  0  0
   31.5560   13.3850   50.3013 O   0  0  0  0  0  0  0  0  0  0  0  0
   33.7246   14.3525   49.8616 C   0  0  2  0  0  0  0  0  0  0  0  0
   33.3903   15.5659   50.6614 N   0  3  0  0  0  0  0  0  0  0  0  0
   33.3670   14.6409   48.3872 C   0  0  1  0  0  0  0  0  0  0  0  0
   34.0327   15.7854   47.9328 O   0  0  0  0  0  0  0  0  0  0  0  0
   33.7207   13.4188   47.5068 C   0  0  2  0  0  0  0  0  0  0  0  0
   33.4207   13.6702   46.1481 O   0  0  0  0  0  0  0  0  0  0  0  0
   32.9405   12.2075   47.9716 C   0  0  2  0  0  0  0  0  0  0  0  0
   33.2073   11.9770   49.3491 O   0  0  0  0  0  0  0  0  0  0  0  0
   33.3177   10.9414   47.2355 C   0  0  0  0  0  0  0  0  0  0  0  0
   32.3235   10.6405   46.2751 O   0  0  0  0  0  0  0  0  0  0  0  0
   30.0609    9.4445   50.5932 C   0  0  2  0  0  0  0  0  0  0  0  0
   29.1455    8.3206   50.7942 N   0  3  0  0  0  0  0  0  0  0  0  0
   30.1870   10.2732   51.9145 C   0  0  0  0  0  0  0  0  0  0  0  0
   31.1117   11.4855   51.6933 C   0  0  2  0  0  0  0  0  0  0  0  0
   31.1987   12.3040   52.9071 N   0  3  0  0  0  0  0  0  0  0  0  0
   30.5918   12.3505   50.5283 C   0  0  2  0  0  0  0  0  0  0  0  0
   30.4315   11.5526   49.2195 C   0  0  2  0  0  0  0  0  0  0  0  0
   29.7978   12.4459   48.2836 O   0  0  0  0  0  0  0  0  0  0  0  0
   29.5406   10.3064   49.4539 C   0  0  1  0  0  0  0  0  0  0  0  0
   29.4932    9.5461   48.2780 O   0  0  0  0  0  0  0  0  0  0  0  0
   29.5048   12.0923   46.9344 C   0  0  1  0  0  0  0  0  0  0  0  0
   28.5383   13.1741   46.3330 C   0  0  2  0  0  0  0  0  0  0  0  0
   27.1646   12.9068   46.5574 O   0  0  0  0  0  0  0  0  0  0  0  0
   28.9769   13.0774   44.8784 C   0  0  2  0  0  0  0  0  0  0  0  0
   28.5778   11.8019   44.2922 O   0  0  0  0  0  0  0  0  0  0  0  0
   30.4953   13.0794   44.9864 C   0  0  2  0  0  0  0  0  0  0  0  0
   30.6910   12.1905   46.0997 O   0  0  0  0  0  0  0  0  0  0  0  0
   31.1371   14.4867   45.2176 C   0  0  0  0  0  0  0  0  0  0  0  0
   30.7349   15.0523   46.4715 O   0  0  0  0  0  0  0  0  0  0  0  0
   27.2266   11.7692   43.8399 C   0  0  2  0  0  0  0  0  0  0  0  0
   26.3941   10.5451   44.3523 C   0  0  2  0  0  0  0  0  0  0  0  0
   26.9985    9.2321   43.9727 N   0  3  0  0  0  0  0  0  0  0  0  0
   24.9480   10.7001   43.7738 C   0  0  1  0  0  0  0  0  0  0  0  0
   24.3797   11.9409   44.3440 O   0  0  0  0  0  0  0  0  0  0  0  0
   24.9347   10.8134   42.1996 C   0  0  2  0  0  0  0  0  0  0  0  0
   25.4343    9.5839   41.6487 O   0  0  0  0  0  0  0  0  0  0  0  0
   25.8345   12.0509   41.7863 C   0  0  1  0  0  0  0  0  0  0  0  0
   27.1731   11.8315   42.3460 O   0  0  0  0  0  0  0  0  0  0  0  0
   25.9386   12.2882   40.2625 C   0  0  0  0  0  0  0  0  0  0  0  0
   26.9806   11.4546   39.6036 N   0  3  0  0  0  0  0  0  0  0  0  0
  1  2  1  6  0  0  0
  1  3  1  0  0  0  0
  1 10  1  0  0  0  0
  3  4  1  1  0  0  0
  3  5  1  0  0  0  0
  5  6  1  6  0  0  0
  5  7  1  0  0  0  0
  7  8  1  6  0  0  0
  7  9  1  0  0  0  0
  9 10  1  0  0  0  0
  9 11  1  6  0  0  0
 11 12  1  0  0  0  0
 13 14  1  1  0  0  0
 13 15  1  0  0  0  0
 13 21  1  0  0  0  0
 15 16  1  0  0  0  0
 16 17  1  1  0  0  0
 16 18  1  0  0  0  0
 18  2  1  6  0  0  0
 18 19  1  0  0  0  0
 19 20  1  6  0  0  0
 19 21  1  0  0  0  0
 21 22  1  6  0  0  0
 23 20  1  1  0  0  0
 23 24  1  0  0  0  0
 23 29  1  0  0  0  0
 24 25  1  6  0  0  0
 24 26  1  0  0  0  0
 26 27  1  1  0  0  0
 26 28  1  0  0  0  0
 28 29  1  0  0  0  0
 28 30  1  1  0  0  0
 30 31  1  0  0  0  0
 32 27  1  6  0  0  0
 32 33  1  0  0  0  0
 32 40  1  0  0  0  0
 33 34  1  6  0  0  0
 33 35  1  0  0  0  0
 35 36  1  1  0  0  0
 35 37  1  0  0  0  0
 37 38  1  6  0  0  0
 37 39  1  0  0  0  0
 39 40  1  0  0  0  0
 39 41  1  6  0  0  0
 41 42  1  0  0  0  0
M  CHG  5   4   1  14   1  17   1  34   1  42   1
M  END
>  <CHROM.1>
173.44787373,43.62640005,-82.39894496,-23.22197252,73.05460991,-102.87928586
61.63740463,-52.19442660,-63.05359468,178.33404436,167.21164898,162.76374472
-49.77480617,82.24159402,-129.40844377,63.74972015,-76.29370210,34.40447341
-48.25840881,172.37294922,-83.84701892,-51.96702041,29.79439364,12.08804315
46.77431889,-0.68115313,-0.64285642,-1.14107387

>  <Name>
1j7t

>  <RI>
0

>  <Rbt.Current_Directory>
/home/itssahil/PROJECTS/Mol_Feturizer/New_Systems/rnas/1j7t

>  <Rbt.Executable>
rbdock ($Id: //depot/dev/client3/rdock/2013.1/src/exe/rbdock.cxx#4 $)

>  <Rbt.Library>
libRbt.so (2013.1, Build901 2013/11/27)

>  <Rbt.Parameter_File>
/export/apps/rDock/src/rDock_2013.1_src/data/scripts/dock_solv.prm

>  <Rbt.Receptor>
prm/blind_docking_60.prm

>  <SCORE>
57.7062

>  <SCORE.INTER>
12.383

>  <SCORE.INTER.CONST>
1

>  <SCORE.INTER.POLAR>
-2.19309

>  <SCORE.INTER.ROT>
9

>  <SCORE.INTER.SOLV>
26.7452

>  <SCORE.INTER.VDW>
-2.94943

>  <SCORE.INTER.norm>
0.294833

>  <SCORE.INTRA>
0.825517

>  <SCORE.INTRA.DIHEDRAL>
-15.9275

>  <SCORE.INTRA.DIHEDRAL.0>
46.2143

>  <SCORE.INTRA.POLAR>
0.816843

>  <SCORE.INTRA.POLAR.0>
-1.76436

>  <SCORE.INTRA.REPUL>
0.0514881

>  <SCORE.INTRA.REPUL.0>
0

>  <SCORE.INTRA.SOLV>
2.17324

>  <SCORE.INTRA.SOLV.lig_0>
-148.643

>  <SCORE.INTRA.VDW>
4.66792

>  <SCORE.INTRA.VDW.0>
-4.83512

>  <SCORE.INTRA.norm>
0.0196552

>  <SCORE.RESTR>
44.4977

>  <SCORE.RESTR.CAVITY>
44.4977

>  <SCORE.RESTR.norm>
1.05947

>  <SCORE.SYSTEM>
0

>  <SCORE.SYSTEM.CONST>
0

>  <SCORE.SYSTEM.DIHEDRAL>
0

>  <SCORE.SYSTEM.SOLV>
0

>  <SCORE.SYSTEM.norm>
0

>  <SCORE.heavy>
42

>  <SCORE.norm>
1.37396

>  <RMSD>
11.988

$$$$
1j7t
 OpenBabel11021811393D
libRbt.so/2013.1/901 2013/11/27
 42 45  0  0  0  0  0  0  0  0999 V2000
   30.0016   11.1459   50.1425 C   0  0  2  0  0  0  0  0  0  0  0  0
   31.2652   11.1179   49.4317 O   0  0  0  0  0  0  0  0  0  0  0  0
   30.3377   11.1421   51.6614 C   0  0  2  0  0  0  0  0  0  0  0  0
   31.2858   12.2111   52.0878 N   0  3  0  0  0  0  0  0  0  0  0  0
   30.9719    9.7774   52.0081 C   0  0  1  0  0  0  0  0  0  0  0  0
   31.2819    9.7096   53.3715 O   0  0  0  0  0  0  0  0  0  0  0  0
   30.0134    8.6303   51.6092 C   0  0  2  0  0  0  0  0  0  0  0  0
   30.5665    7.3713   51.9382 O   0  0  0  0  0  0  0  0  0  0  0  0
   29.7437    8.6803   50.1203 C   0  0  2  0  0  0  0  0  0  0  0  0
   29.2268    9.9603   49.7792 O   0  0  0  0  0  0  0  0  0  0  0  0
   28.7213    7.6616   49.6687 C   0  0  0  0  0  0  0  0  0  0  0  0
   27.4835    7.9235   50.3015 O   0  0  0  0  0  0  0  0  0  0  0  0
   32.2594   14.3486   46.8976 C   0  0  2  0  0  0  0  0  0  0  0  0
   32.4314   15.1655   45.6957 N   0  3  0  0  0  0  0  0  0  0  0  0
   33.1194   13.0462   46.7854 C   0  0  0  0  0  0  0  0  0  0  0  0
   32.9034   12.1602   48.0272 C   0  0  2  0  0  0  0  0  0  0  0  0
   33.6610   10.9095   47.9141 N   0  3  0  0  0  0  0  0  0  0  0  0
   31.4063   11.8382   48.2018 C   0  0  2  0  0  0  0  0  0  0  0  0
   30.5310   13.1038   48.2875 C   0  0  2  0  0  0  0  0  0  0  0  0
   29.1656   12.6445   48.2892 O   0  0  0  0  0  0  0  0  0  0  0  0
   30.7845   14.0182   47.0622 C   0  0  1  0  0  0  0  0  0  0  0  0
   30.0549   15.2047   47.2139 O   0  0  0  0  0  0  0  0  0  0  0  0
   28.5779   11.9220   47.2104 C   0  0  1  0  0  0  0  0  0  0  0  0
   28.3767   12.9043   46.0019 C   0  0  2  0  0  0  0  0  0  0  0  0
   27.1431   13.6020   46.0266 O   0  0  0  0  0  0  0  0  0  0  0  0
   28.5148   11.8943   44.8714 C   0  0  2  0  0  0  0  0  0  0  0  0
   27.3809   10.9761   44.8446 O   0  0  0  0  0  0  0  0  0  0  0  0
   29.7437   11.0964   45.2845 C   0  0  2  0  0  0  0  0  0  0  0  0
   29.4961   10.9222   46.6902 O   0  0  0  0  0  0  0  0  0  0  0  0
   31.1116   11.7968   44.9947 C   0  0  0  0  0  0  0  0  0  0  0  0
   30.9492   12.9505   44.1602 O   0  0  0  0  0  0  0  0  0  0  0  0
   26.9964   10.5677   43.5343 C   0  0  2  0  0  0  0  0  0  0  0  0
   25.5738   11.0497   43.0894 C   0  0  2  0  0  0  0  0  0  0  0  0
   24.4905   10.5894   44.0102 N   0  3  0  0  0  0  0  0  0  0  0  0
   25.3483   10.5274   41.6313 C   0  0  1  0  0  0  0  0  0  0  0  0
   26.3653   11.1733   40.7733 O   0  0  0  0  0  0  0  0  0  0  0  0
   25.5101    8.9614   41.5175 C   0  0  2  0  0  0  0  0  0  0  0  0
   24.4845    8.3375   42.3072 O   0  0  0  0  0  0  0  0  0  0  0  0
   26.9604    8.5767   42.0279 C   0  0  1  0  0  0  0  0  0  0  0  0
   27.0953    9.0810   43.3993 O   0  0  0  0  0  0  0  0  0  0  0  0
   27.2716    7.0631   41.9955 C   0  0  0  0  0  0  0  0  0  0  0  0
   26.8797    6.3516   43.2424 N   0  3  0  0  0  0  0  0  0  0  0  0
  1  2  1  6  0  0  0
  1  3  1  0  0  0  0
  1 10  1  0  0  0  0
  3  4  1  6  0  0  0
  3  5  1  0  0  0  0
  5  6  1  1  0  0  0
  5  7  1  0  0  0  0
  7  8  1  6  0  0  0
  7  9  1  0  0  0  0
  9 10  1  0  0  0  0
  9 11  1  1  0  0  0
 11 12  1  0  0  0  0
 13 14  1  6  0  0  0
 13 15  1  0  0  0  0
 13 21  1  0  0  0  0
 15 16  1  0  0  0  0
 16 17  1  6  0  0  0
 16 18  1  0  0  0  0
 18  2  1  1  0  0  0
 18 19  1  0  0  0  0
 19 20  1  6  0  0  0
 19 21  1  0  0  0  0
 21 22  1  1  0  0  0
 23 20  1  1  0  0  0
 23 24  1  0  0  0  0
 23 29  1  0  0  0  0
 24 25  1  1  0  0  0
 24 26  1  0  0  0  0
 26 27  1  1  0  0  0
 26 28  1  0  0  0  0
 28 29  1  0  0  0  0
 28 30  1  1  0  0  0
 30 31  1  0  0  0  0
 32 27  1  1  0  0  0
 32 33  1  0  0  0  0
 32 40  1  0  0  0  0
 33 34  1  1  0  0  0
 33 35  1  0  0  0  0
 35 36  1  6  0  0  0
 35 37  1  0  0  0  0
 37 38  1  1  0  0  0
 37 39  1  0  0  0  0
 39 40  1  0  0  0  0
 39 41  1  1  0  0  0
 41 42  1  0  0  0  0
M  CHG  5   4   1  14   1  17   1  34   1  42   1
M  END
>  <CHROM.1>
-144.27099641,154.85609516,19.96936104,-64.42961535,-52.36981105,61.90847436
-58.84457847,-175.60545572,23.64766561,-61.96247346,-71.22908257,-176.83067976
-39.19876315,145.43806176,-114.73398022,-11.16467401,-61.93915103,84.82253216
177.30685662,56.19739627,-88.61266385,-171.20891629,29.16103081,10.89387339
46.77456904,0.65817825,0.85547014,2.19246294

>  <Name>
1j7t

>  <RI>
0

>  <Rbt.Current_Directory>
/home/itssahil/PROJECTS/Mol_Feturizer/New_Systems/rnas/1j7t

>  <Rbt.Executable>
rbdock ($Id: //depot/dev/client3/rdock/2013.1/src/exe/rbdock.cxx#4 $)

>  <Rbt.Library>
libRbt.so (2013.1, Build901 2013/11/27)

>  <Rbt.Parameter_File>
/export/apps/rDock/src/rDock_2013.1_src/data/scripts/dock_solv.prm

>  <Rbt.Receptor>
prm/blind_docking_60.prm

>  <SCORE>
2.36528

>  <SCORE.INTER>
-29.5377

>  <SCORE.INTER.CONST>
1

>  <SCORE.INTER.POLAR>
-4.36312

>  <SCORE.INTER.ROT>
9

>  <SCORE.INTER.SOLV>
29.1575

>  <SCORE.INTER.VDW>
-24.4673

>  <SCORE.INTER.norm>
-0.70328

>  <SCORE.INTRA>
2.09655

>  <SCORE.INTRA.DIHEDRAL>
-10.1889

>  <SCORE.INTRA.DIHEDRAL.0>
46.2143

>  <SCORE.INTRA.POLAR>
0.682332

>  <SCORE.INTRA.POLAR.0>
-1.76436

>  <SCORE.INTRA.REPUL>
0

>  <SCORE.INTRA.REPUL.0>
0

>  <SCORE.INTRA.SOLV>
0.454345

>  <SCORE.INTRA.SOLV.lig_0>
-148.643

>  <SCORE.INTRA.VDW>
4.64388

>  <SCORE.INTRA.VDW.0>
-4.83512

>  <SCORE.INTRA.norm>
0.0499178

>  <SCORE.RESTR>
29.8065

>  <SCORE.RESTR.CAVITY>
29.8065

>  <SCORE.RESTR.norm>
0.709678

>  <SCORE.SYSTEM>
0

>  <SCORE.SYSTEM.CONST>
0

>  <SCORE.SYSTEM.DIHEDRAL>
0

>  <SCORE.SYSTEM.SOLV>
0

>  <SCORE.SYSTEM.norm>
0

>  <SCORE.heavy>
42

>  <SCORE.norm>
0.0563163

>  <RMSD>
11.989

$$$$
1j7t
 OpenBabel11021811393D
libRbt.so/2013.1/901 2013/11/27
 42 45  0  0  0  0  0  0  0  0999 V2000
   30.4228   10.8249   50.7449 C   0  0  2  0  0  0  0  0  0  0  0  0
   31.2161   10.6090   49.5505 O   0  0  0  0  0  0  0  0  0  0  0  0
   31.1298   10.0606   51.9008 C   0  0  2  0  0  0  0  0  0  0  0  0
   32.5721   10.3972   52.0738 N   0  3  0  0  0  0  0  0  0  0  0  0
   31.0258    8.5477   51.6086 C   0  0  1  0  0  0  0  0  0  0  0  0
   31.6334    7.8055   52.6281 O   0  0  0  0  0  0  0  0  0  0  0  0
   29.5424    8.1394   51.4468 C   0  0  2  0  0  0  0  0  0  0  0  0
   29.4234    6.7523   51.1997 O   0  0  0  0  0  0  0  0  0  0  0  0
   28.9214    8.9036   50.2969 C   0  0  2  0  0  0  0  0  0  0  0  0
   29.0768   10.2991   50.5217 O   0  0  0  0  0  0  0  0  0  0  0  0
   27.4385    8.6475   50.1472 C   0  0  0  0  0  0  0  0  0  0  0  0
   26.9260    8.1244   51.3575 O   0  0  0  0  0  0  0  0  0  0  0  0
   31.3486   14.4652   47.8301 C   0  0  2  0  0  0  0  0  0  0  0  0
   31.3473   15.5414   46.8386 N   0  3  0  0  0  0  0  0  0  0  0  0
   32.5734   13.5211   47.5917 C   0  0  0  0  0  0  0  0  0  0  0  0
   32.5513   12.3590   48.6030 C   0  0  2  0  0  0  0  0  0  0  0  0
   33.6631   11.4340   48.3596 N   0  3  0  0  0  0  0  0  0  0  0  0
   31.2173   11.5925   48.5093 C   0  0  2  0  0  0  0  0  0  0  0  0
   29.9913   12.5039   48.7130 C   0  0  2  0  0  0  0  0  0  0  0  0
   28.8371   11.6851   48.4430 O   0  0  0  0  0  0  0  0  0  0  0  0
   30.0390   13.6995   47.7281 C   0  0  1  0  0  0  0  0  0  0  0  0
   28.9708   14.5640   48.0007 O   0  0  0  0  0  0  0  0  0  0  0  0
   28.6212   11.0148   47.2039 C   0  0  1  0  0  0  0  0  0  0  0  0
   28.1387   12.0678   46.1436 C   0  0  2  0  0  0  0  0  0  0  0  0
   26.7351   12.2642   46.1252 O   0  0  0  0  0  0  0  0  0  0  0  0
   28.7052   11.4016   44.8976 C   0  0  2  0  0  0  0  0  0  0  0  0
   27.9961   10.1625   44.5949 O   0  0  0  0  0  0  0  0  0  0  0  0
   30.1168   11.0303   45.3297 C   0  0  2  0  0  0  0  0  0  0  0  0
   29.8726   10.5216   46.6523 O   0  0  0  0  0  0  0  0  0  0  0  0
   31.1415   12.2117   45.3171 C   0  0  0  0  0  0  0  0  0  0  0  0
   31.5053   12.5824   43.9814 O   0  0  0  0  0  0  0  0  0  0  0  0
   26.8033   10.3475   43.8368 C   0  0  2  0  0  0  0  0  0  0  0  0
   25.8346    9.1164   43.8297 C   0  0  2  0  0  0  0  0  0  0  0  0
   26.4790    7.8735   43.3068 N   0  3  0  0  0  0  0  0  0  0  0  0
   24.5874    9.5198   42.9745 C   0  0  1  0  0  0  0  0  0  0  0  0
   23.9276   10.6471   43.6683 O   0  0  0  0  0  0  0  0  0  0  0  0
   24.9768    9.9807   41.5160 C   0  0  2  0  0  0  0  0  0  0  0  0
   25.5656    8.8660   40.8264 O   0  0  0  0  0  0  0  0  0  0  0  0
   25.9859   11.1971   41.6357 C   0  0  1  0  0  0  0  0  0  0  0  0
   27.1322   10.7445   42.4322 O   0  0  0  0  0  0  0  0  0  0  0  0
   26.4795   11.7570   40.2823 C   0  0  0  0  0  0  0  0  0  0  0  0
   27.8294   11.2646   39.8951 N   0  3  0  0  0  0  0  0  0  0  0  0
  1  2  1  6  0  0  0
  1  3  1  0  0  0  0
  1 10  1  0  0  0  0
  3  4  1  6  0  0  0
  3  5  1  0  0  0  0
  5  6  1  1  0  0  0
  5  7  1  0  0  0  0
  7  8  1  6  0  0  0
  7  9  1  0  0  0  0
  9 10  1  0  0  0  0
  9 11  1  1  0  0  0
 11 12  1  0  0  0  0
 13 14  1  6  0  0  0
 13 15  1  0  0  0  0
 13 21  1  0  0  0  0
 15 16  1  0  0  0  0
 16 17  1  6  0  0  0
 16 18  1  0  0  0  0
 18  2  1  1  0  0  0
 18 19  1  0  0  0  0
 19 20  1  6  0  0  0
 19 21  1  0  0  0  0
 21 22  1  1  0  0  0
 23 20  1  1  0  0  0
 23 24  1  0  0  0  0
 23 29  1  0  0  0  0
 24 25  1  6  0  0  0
 24 26  1  0  0  0  0
 26 27  1  1  0  0  0
 26 28  1  0  0  0  0
 28 29  1  0  0  0  0
 28 30  1  1  0  0  0
 30 31  1  0  0  0  0
 32 27  1  1  0  0  0
 32 33  1  0  0  0  0
 32 40  1  0  0  0  0
 33 34  1  6  0  0  0
 33 35  1  0  0  0  0
 35 36  1  1  0  0  0
 35 37  1  0  0  0  0
 37 38  1  1  0  0  0
 37 39  1  0  0  0  0
 39 40  1  0  0  0  0
 39 41  1  6  0  0  0
 41 42  1  0  0  0  0
M  CHG  5   4   1  14   1  17   1  34   1  42   1
M  END
>  <CHROM.1>
-151.95313510,104.06015601,68.83654132,-75.88225930,63.69812486,19.33723930
-165.44850042,167.46846587,-118.27646454,-57.97579124,-76.55227949,173.50514850
66.87145382,84.64606801,-164.21860526,-72.91021865,38.05682271,54.12146827
65.90416786,173.90147161,-99.57380136,56.20653628,29.01098210,10.81558490
46.85832779,0.88336480,0.74032555,2.12059350

>  <Name>
1j7t

>  <RI>
0

>  <Rbt.Current_Directory>
/home/itssahil/PROJECTS/Mol_Feturizer/New_Systems/rnas/1j7t

>  <Rbt.Executable>
rbdock ($Id: //depot/dev/client3/rdock/2013.1/src/exe/rbdock.cxx#4 $)

>  <Rbt.Library>
libRbt.so (2013.1, Build901 2013/11/27)

>  <Rbt.Parameter_File>
/export/apps/rDock/src/rDock_2013.1_src/data/scripts/dock_solv.prm

>  <Rbt.Receptor>
prm/blind_docking_60.prm

>  <SCORE>
14.4988

>  <SCORE.INTER>
-17.3209

>  <SCORE.INTER.CONST>
1

>  <SCORE.INTER.POLAR>
-6.07274

>  <SCORE.INTER.ROT>
9

>  <SCORE.INTER.SOLV>
33.6523

>  <SCORE.INTER.VDW>
-12.1222

>  <SCORE.INTER.norm>
-0.412403

>  <SCORE.INTRA>
1.97465

>  <SCORE.INTRA.DIHEDRAL>
-13.4457

>  <SCORE.INTRA.DIHEDRAL.0>
46.2143

>  <SCORE.INTRA.POLAR>
1.05336

>  <SCORE.INTRA.POLAR.0>
-1.76436

>  <SCORE.INTRA.REPUL>
0

>  <SCORE.INTRA.REPUL.0>
0

>  <SCORE.INTRA.SOLV>
-0.307268

>  <SCORE.INTRA.SOLV.lig_0>
-148.643

>  <SCORE.INTRA.VDW>
5.26971

>  <SCORE.INTRA.VDW.0>
-4.83512

>  <SCORE.INTRA.norm>
0.0470156

>  <SCORE.RESTR>
29.845

>  <SCORE.RESTR.CAVITY>
29.845

>  <SCORE.RESTR.norm>
0.710596

>  <SCORE.SYSTEM>
0

>  <SCORE.SYSTEM.CONST>
0

>  <SCORE.SYSTEM.DIHEDRAL>
0

>  <SCORE.SYSTEM.SOLV>
0

>  <SCORE.SYSTEM.norm>
0

>  <SCORE.heavy>
42

>  <SCORE.norm>
0.345209

>  <RMSD>
12.042

$$$$
1j7t
 OpenBabel11021811393D
libRbt.so/2013.1/901 2013/11/27
 42 45  0  0  0  0  0  0  0  0999 V2000
   32.1488   12.7814   48.1745 C   0  0  2  0  0  0  0  0  0  0  0  0
   30.8352   13.0126   48.7434 O   0  0  0  0  0  0  0  0  0  0  0  0
   32.5804   14.1059   47.4820 C   0  0  2  0  0  0  0  0  0  0  0  0
   32.5130   15.3117   48.3566 N   0  3  0  0  0  0  0  0  0  0  0  0
   31.6471   14.3410   46.2743 C   0  0  1  0  0  0  0  0  0  0  0  0
   31.9998   15.5158   45.5997 O   0  0  0  0  0  0  0  0  0  0  0  0
   31.7007   13.1261   45.3179 C   0  0  2  0  0  0  0  0  0  0  0  0
   30.8686   13.3304   44.1932 O   0  0  0  0  0  0  0  0  0  0  0  0
   31.2518   11.8777   46.0473 C   0  0  2  0  0  0  0  0  0  0  0  0
   32.0597   11.6925   47.2027 O   0  0  0  0  0  0  0  0  0  0  0  0
   31.3873   10.6232   45.2136 C   0  0  0  0  0  0  0  0  0  0  0  0
   31.1637   10.9357   43.8521 O   0  0  0  0  0  0  0  0  0  0  0  0
   30.3627    9.2772   50.6595 C   0  0  2  0  0  0  0  0  0  0  0  0
   29.8421    8.2211   51.5284 N   0  3  0  0  0  0  0  0  0  0  0  0
   30.8711   10.4779   51.5244 C   0  0  0  0  0  0  0  0  0  0  0  0
   31.3751   11.6123   50.6118 C   0  0  2  0  0  0  0  0  0  0  0  0
   31.8059   12.7681   51.4052 N   0  3  0  0  0  0  0  0  0  0  0  0
   30.2653   12.0468   49.6344 C   0  0  2  0  0  0  0  0  0  0  0  0
   29.7259   10.8773   48.7879 C   0  0  2  0  0  0  0  0  0  0  0  0
   28.6051   11.4028   48.0509 O   0  0  0  0  0  0  0  0  0  0  0  0
   29.2638    9.7166   49.7050 C   0  0  1  0  0  0  0  0  0  0  0  0
   28.8732    8.6299   48.9115 O   0  0  0  0  0  0  0  0  0  0  0  0
   28.6506   11.7017   46.6581 C   0  0  1  0  0  0  0  0  0  0  0  0
   27.1866   11.6653   46.0912 C   0  0  2  0  0  0  0  0  0  0  0  0
   26.7673   10.3810   45.6625 O   0  0  0  0  0  0  0  0  0  0  0  0
   27.3571   12.6856   44.9744 C   0  0  2  0  0  0  0  0  0  0  0  0
   28.2181   12.1680   43.9158 O   0  0  0  0  0  0  0  0  0  0  0  0
   28.1065   13.8158   45.6660 C   0  0  2  0  0  0  0  0  0  0  0  0
   29.0715   13.0748   46.4324 O   0  0  0  0  0  0  0  0  0  0  0  0
   27.2185   14.7485   46.5533 C   0  0  0  0  0  0  0  0  0  0  0  0
   26.0984   15.2642   45.8231 O   0  0  0  0  0  0  0  0  0  0  0  0
   27.5164   11.4870   42.8789 C   0  0  2  0  0  0  0  0  0  0  0  0
   26.1226   12.1040   42.5170 C   0  0  2  0  0  0  0  0  0  0  0  0
   25.1936   12.1652   43.6861 N   0  3  0  0  0  0  0  0  0  0  0  0
   25.5272   11.2407   41.3552 C   0  0  1  0  0  0  0  0  0  0  0  0
   26.4330   11.3849   40.1948 O   0  0  0  0  0  0  0  0  0  0  0  0
   25.4231    9.7109   41.7296 C   0  0  2  0  0  0  0  0  0  0  0  0
   24.4984    9.5693   42.8203 O   0  0  0  0  0  0  0  0  0  0  0  0
   26.8719    9.1981   42.1172 C   0  0  1  0  0  0  0  0  0  0  0  0
   27.3592   10.0382   43.2173 O   0  0  0  0  0  0  0  0  0  0  0  0
   26.9369    7.7097   42.5291 C   0  0  0  0  0  0  0  0  0  0  0  0
   26.6238    6.7734   41.4156 N   0  3  0  0  0  0  0  0  0  0  0  0
  1  2  1  6  0  0  0
  1  3  1  0  0  0  0
  1 10  1  0  0  0  0
  3  4  1  1  0  0  0
  3  5  1  0  0  0  0
  5  6  1  6  0  0  0
  5  7  1  0  0  0  0
  7  8  1  6  0  0  0
  7  9  1  0  0  0  0
  9 10  1  0  0  0  0
  9 11  1  6  0  0  0
 11 12  1  0  0  0  0
 13 14  1  1  0  0  0
 13 15  1  0  0  0  0
 13 21  1  0  0  0  0
 15 16  1  0  0  0  0
 16 17  1  1  0  0  0
 16 18  1  0  0  0  0
 18  2  1  6  0  0  0
 18 19  1  0  0  0  0
 19 20  1  1  0  0  0
 19 21  1  0  0  0  0
 21 22  1  6  0  0  0
 23 20  1  1  0  0  0
 23 24  1  0  0  0  0
 23 29  1  0  0  0  0
 24 25  1  6  0  0  0
 24 26  1  0  0  0  0
 26 27  1  6  0  0  0
 26 28  1  0  0  0  0
 28 29  1  0  0  0  0
 28 30  1  1  0  0  0
 30 31  1  0  0  0  0
 32 27  1  1  0  0  0
 32 33  1  0  0  0  0
 32 40  1  0  0  0  0
 33 34  1  1  0  0  0
 33 35  1  0  0  0  0
 35 36  1  6  0  0  0
 35 37  1  0  0  0  0
 37 38  1  1  0  0  0
 37 39  1  0  0  0  0
 39 40  1  0  0  0  0
 39 41  1  1  0  0  0
 41 42  1  0  0  0  0
M  CHG  5   4   1  14   1  17   1  34   1  42   1
M  END
>  <CHROM.1>
-169.76252032,43.92950556,66.24913411,-170.38028935,64.37507523,-32.75446506
61.21028084,67.84735374,-83.92344133,105.48069489,156.64796867,-32.03155203
-59.68378107,90.78832731,36.52084562,-53.23192858,-51.72913920,-146.20026562
-65.23242464,57.94640654,66.20063154,65.64411785,28.99046130,11.63368183
46.00972746,-0.43273587,-0.90288175,-0.77598181

>  <Name>
1j7t

>  <RI>
0

>  <Rbt.Current_Directory>
/home/itssahil/PROJECTS/Mol_Feturizer/New_Systems/rnas/1j7t

>  <Rbt.Executable>
rbdock ($Id: //depot/dev/client3/rdock/2013.1/src/exe/rbdock.cxx#4 $)

>  <Rbt.Library>
libRbt.so (2013.1, Build901 2013/11/27)

>  <Rbt.Parameter_File>
/export/apps/rDock/src/rDock_2013.1_src/data/scripts/dock_solv.prm

>  <Rbt.Receptor>
prm/blind_docking_60.prm

>  <SCORE>
105.801

>  <SCORE.INTER>
66.1858

>  <SCORE.INTER.CONST>
1

>  <SCORE.INTER.POLAR>
-1.46404

>  <SCORE.INTER.ROT>
9

>  <SCORE.INTER.SOLV>
28.1661

>  <SCORE.INTER.VDW>
30.0153

>  <SCORE.INTER.norm>
1.57585

>  <SCORE.INTRA>
6.95117

>  <SCORE.INTRA.DIHEDRAL>
-18.8916

>  <SCORE.INTRA.DIHEDRAL.0>
46.2143

>  <SCORE.INTRA.POLAR>
0.759562

>  <SCORE.INTRA.POLAR.0>
-1.76436

>  <SCORE.INTRA.REPUL>
1.01052

>  <SCORE.INTRA.REPUL.0>
0

>  <SCORE.INTRA.SOLV>
4.60089

>  <SCORE.INTRA.SOLV.lig_0>
-148.643

>  <SCORE.INTRA.VDW>
6.46138

>  <SCORE.INTRA.VDW.0>
-4.83512

>  <SCORE.INTRA.norm>
0.165504

>  <SCORE.RESTR>
32.6637

>  <SCORE.RESTR.CAVITY>
32.6637

>  <SCORE.RESTR.norm>
0.777707

>  <SCORE.SYSTEM>
0

>  <SCORE.SYSTEM.CONST>
0

>  <SCORE.SYSTEM.DIHEDRAL>
0

>  <SCORE.SYSTEM.SOLV>
0

>  <SCORE.SYSTEM.norm>
0

>  <SCORE.heavy>
42

>  <SCORE.norm>
2.51906

>  <RMSD>
12.077

$$$$
1j7t
 OpenBabel11021811393D
libRbt.so/2013.1/901 2013/11/27
 42 45  0  0  0  0  0  0  0  0999 V2000
   33.1724   12.6321   48.5242 C   0  0  2  0  0  0  0  0  0  0  0  0
   32.2320   11.5322   48.4328 O   0  0  0  0  0  0  0  0  0  0  0  0
   32.3653   13.9383   48.2737 C   0  0  2  0  0  0  0  0  0  0  0  0
   31.1681   14.1028   49.1473 N   0  3  0  0  0  0  0  0  0  0  0  0
   31.8859   13.9308   46.8057 C   0  0  1  0  0  0  0  0  0  0  0  0
   31.1643   15.0949   46.5164 O   0  0  0  0  0  0  0  0  0  0  0  0
   33.0966   13.7890   45.8529 C   0  0  2  0  0  0  0  0  0  0  0  0
   32.6812   13.8016   44.5015 O   0  0  0  0  0  0  0  0  0  0  0  0
   33.8246   12.4922   46.1365 C   0  0  2  0  0  0  0  0  0  0  0  0
   34.2068   12.4576   47.5056 O   0  0  0  0  0  0  0  0  0  0  0  0
   35.0908   12.3337   45.3250 C   0  0  0  0  0  0  0  0  0  0  0  0
   34.7585   12.1730   43.9594 O   0  0  0  0  0  0  0  0  0  0  0  0
   29.7578    9.2849   51.0166 C   0  0  2  0  0  0  0  0  0  0  0  0
   28.8135    8.9423   52.0806 N   0  3  0  0  0  0  0  0  0  0  0  0
   31.0350    9.9492   51.6298 C   0  0  0  0  0  0  0  0  0  0  0  0
   32.0106   10.3560   50.5089 C   0  0  2  0  0  0  0  0  0  0  0  0
   33.1901   11.0292   51.0625 N   0  3  0  0  0  0  0  0  0  0  0  0
   31.3114   11.2918   49.5034 C   0  0  2  0  0  0  0  0  0  0  0  0
   30.0336   10.6733   48.9035 C   0  0  2  0  0  0  0  0  0  0  0  0
   29.4191   11.7127   48.1177 O   0  0  0  0  0  0  0  0  0  0  0  0
   29.0733   10.2200   50.0323 C   0  0  1  0  0  0  0  0  0  0  0  0
   27.9684    9.5719   49.4646 O   0  0  0  0  0  0  0  0  0  0  0  0
   28.4611   11.4612   47.0929 C   0  0  1  0  0  0  0  0  0  0  0  0
   27.8966   12.8369   46.5881 C   0  0  2  0  0  0  0  0  0  0  0  0
   26.7813   13.3068   47.3259 O   0  0  0  0  0  0  0  0  0  0  0  0
   27.5875   12.4351   45.1528 C   0  0  2  0  0  0  0  0  0  0  0  0
   26.4749   11.4922   45.0983 O   0  0  0  0  0  0  0  0  0  0  0  0
   28.8461   11.6866   44.7369 C   0  0  2  0  0  0  0  0  0  0  0  0
   29.0952   10.8971   45.9127 O   0  0  0  0  0  0  0  0  0  0  0  0
   30.0579   12.5978   44.3538 C   0  0  0  0  0  0  0  0  0  0  0  0
   31.3000   11.8872   44.4319 O   0  0  0  0  0  0  0  0  0  0  0  0
   25.9296   11.3138   43.7935 C   0  0  2  0  0  0  0  0  0  0  0  0
   24.8736   10.1625   43.6772 C   0  0  2  0  0  0  0  0  0  0  0  0
   25.4153    8.8335   44.0941 N   0  3  0  0  0  0  0  0  0  0  0  0
   24.3808   10.1413   42.1918 C   0  0  1  0  0  0  0  0  0  0  0  0
   23.7121   11.4352   41.9345 O   0  0  0  0  0  0  0  0  0  0  0  0
   25.5657    9.9699   41.1632 C   0  0  2  0  0  0  0  0  0  0  0  0
   26.1763    8.6872   41.3791 O   0  0  0  0  0  0  0  0  0  0  0  0
   26.5926   11.1554   41.3915 C   0  0  1  0  0  0  0  0  0  0  0  0
   27.0227   11.1048   42.7935 O   0  0  0  0  0  0  0  0  0  0  0  0
   27.8292   11.1205   40.4649 C   0  0  0  0  0  0  0  0  0  0  0  0
   27.5279   11.5112   39.0609 N   0  3  0  0  0  0  0  0  0  0  0  0
  1  2  1  6  0  0  0
  1  3  1  0  0  0  0
  1 10  1  0  0  0  0
  3  4  1  1  0  0  0
  3  5  1  0  0  0  0
  5  6  1  6  0  0  0
  5  7  1  0  0  0  0
  7  8  1  6  0  0  0
  7  9  1  0  0  0  0
  9 10  1  0  0  0  0
  9 11  1  6  0  0  0
 11 12  1  0  0  0  0
 13 14  1  1  0  0  0
 13 15  1  0  0  0  0
 13 21  1  0  0  0  0
 15 16  1  0  0  0  0
 16 17  1  1  0  0  0
 16 18  1  0  0  0  0
 18  2  1  6  0  0  0
 18 19  1  0  0  0  0
 19 20  1  6  0  0  0
 19 21  1  0  0  0  0
 21 22  1  6  0  0  0
 23 20  1  1  0  0  0
 23 24  1  0  0  0  0
 23 29  1  0  0  0  0
 24 25  1  1  0  0  0
 24 26  1  0  0  0  0
 26 27  1  1  0  0  0
 26 28  1  0  0  0  0
 28 29  1  0  0  0  0
 28 30  1  1  0  0  0
 30 31  1  0  0  0  0
 32 27  1  1  0  0  0
 32 33  1  0  0  0  0
 32 40  1  0  0  0  0
 33 34  1  6  0  0  0
 33 35  1  0  0  0  0
 35 36  1  6  0  0  0
 35 37  1  0  0  0  0
 37 38  1  1  0  0  0
 37 39  1  0  0  0  0
 39 40  1  0  0  0  0
 39 41  1  6  0  0  0
 41 42  1  0  0  0  0
M  CHG  5   4   1  14   1  17   1  34   1  42   1
M  END
>  <CHROM.1>
-74.89656142,-88.41553204,55.48889475,-172.83934972,-89.34729286,-67.85112176
75.42763182,-74.66341519,-172.84042949,160.48167969,173.20954497,-61.69903032
173.62530908,166.12481727,171.81891312,159.59001387,-20.75554813,60.55686806
-173.25690065,178.28550660,73.59253668,-158.79268415,29.51307787,11.55356263
46.06464442,-0.78480298,-0.39446396,-1.35563950

>  <Name>
1j7t

>  <RI>
0

>  <Rbt.Current_Directory>
/home/itssahil/PROJECTS/Mol_Feturizer/New_Systems/rnas/1j7t

>  <Rbt.Executable>
rbdock ($Id: //depot/dev/client3/rdock/2013.1/src/exe/rbdock.cxx#4 $)

>  <Rbt.Library>
libRbt.so (2013.1, Build901 2013/11/27)

>  <Rbt.Parameter_File>
/export/apps/rDock/src/rDock_2013.1_src/data/scripts/dock_solv.prm

>  <Rbt.Receptor>
prm/blind_docking_60.prm

>  <SCORE>
17.2213

>  <SCORE.INTER>
-7.77983

>  <SCORE.INTER.CONST>
1

>  <SCORE.INTER.POLAR>
-4.5848

>  <SCORE.INTER.ROT>
9

>  <SCORE.INTER.SOLV>
34.2912

>  <SCORE.INTER.VDW>
-10.9343

>  <SCORE.INTER.norm>
-0.185234

>  <SCORE.INTRA>
-11.0985

>  <SCORE.INTRA.DIHEDRAL>
-23.5365

>  <SCORE.INTRA.DIHEDRAL.0>
46.2143

>  <SCORE.INTRA.POLAR>
-0.587425

>  <SCORE.INTRA.POLAR.0>
-1.76436

>  <SCORE.INTRA.REPUL>
0

>  <SCORE.INTRA.REPUL.0>
0

>  <SCORE.INTRA.SOLV>
0.95427

>  <SCORE.INTRA.SOLV.lig_0>
-148.643

>  <SCORE.INTRA.VDW>
2.18983

>  <SCORE.INTRA.VDW.0>
-4.83512

>  <SCORE.INTRA.norm>
-0.264251

>  <SCORE.RESTR>
36.0997

>  <SCORE.RESTR.CAVITY>
36.0997

>  <SCORE.RESTR.norm>
0.859516

>  <SCORE.SYSTEM>
0

>  <SCORE.SYSTEM.CONST>
0

>  <SCORE.SYSTEM.DIHEDRAL>
0

>  <SCORE.SYSTEM.SOLV>
0

>  <SCORE.SYSTEM.norm>
0

>  <SCORE.heavy>
42

>  <SCORE.norm>
0.410031

>  <RMSD>
12.086

$$$$
1j7t
 OpenBabel11021811393D
libRbt.so/2013.1/901 2013/11/27
 42 45  0  0  0  0  0  0  0  0999 V2000
   30.6364   10.8672   50.5551 C   0  0  2  0  0  0  0  0  0  0  0  0
   31.3281   10.7222   49.2890 O   0  0  0  0  0  0  0  0  0  0  0  0
   31.4706   10.0943   51.6166 C   0  0  2  0  0  0  0  0  0  0  0  0
   32.9092   10.4822   51.6750 N   0  3  0  0  0  0  0  0  0  0  0  0
   31.3968    8.5888   51.2802 C   0  0  1  0  0  0  0  0  0  0  0  0
   32.1192    7.8384   52.2153 O   0  0  0  0  0  0  0  0  0  0  0  0
   29.9208    8.1273   51.2339 C   0  0  2  0  0  0  0  0  0  0  0  0
   29.8314    6.7455   50.9481 O   0  0  0  0  0  0  0  0  0  0  0  0
   29.1728    8.9035   50.1708 C   0  0  2  0  0  0  0  0  0  0  0  0
   29.2961   10.2959   50.4314 O   0  0  0  0  0  0  0  0  0  0  0  0
   27.6928    8.5936   50.1420 C   0  0  0  0  0  0  0  0  0  0  0  0
   27.2523    8.2756   51.4481 O   0  0  0  0  0  0  0  0  0  0  0  0
   31.5010   14.6828   47.8290 C   0  0  2  0  0  0  0  0  0  0  0  0
   31.4553   15.8279   46.9190 N   0  3  0  0  0  0  0  0  0  0  0  0
   32.6339   13.6969   47.3901 C   0  0  0  0  0  0  0  0  0  0  0  0
   32.6534   12.4661   48.3166 C   0  0  2  0  0  0  0  0  0  0  0  0
   33.6748   11.5054   47.8869 N   0  3  0  0  0  0  0  0  0  0  0  0
   31.2739   11.7785   48.3232 C   0  0  2  0  0  0  0  0  0  0  0  0
   30.1340   12.7344   48.7256 C   0  0  2  0  0  0  0  0  0  0  0  0
   28.9105   11.9985   48.5334 O   0  0  0  0  0  0  0  0  0  0  0  0
   30.1448   13.9953   47.8246 C   0  0  1  0  0  0  0  0  0  0  0  0
   29.1662   14.8914   48.2743 O   0  0  0  0  0  0  0  0  0  0  0  0
   28.5799   11.3255   47.3214 C   0  0  1  0  0  0  0  0  0  0  0  0
   27.9916   12.3746   46.3118 C   0  0  2  0  0  0  0  0  0  0  0  0
   26.5917   12.5633   46.4286 O   0  0  0  0  0  0  0  0  0  0  0  0
   28.4391   11.7100   45.0175 C   0  0  2  0  0  0  0  0  0  0  0  0
   27.7110   10.4667   44.7853 O   0  0  0  0  0  0  0  0  0  0  0  0
   29.8878   11.3470   45.3118 C   0  0  2  0  0  0  0  0  0  0  0  0
   29.7750   10.8386   46.6521 O   0  0  0  0  0  0  0  0  0  0  0  0
   30.8999   12.5339   45.1996 C   0  0  0  0  0  0  0  0  0  0  0  0
   31.3252   12.7408   43.8467 O   0  0  0  0  0  0  0  0  0  0  0  0
   26.9639   10.4504   43.5716 C   0  0  2  0  0  0  0  0  0  0  0  0
   25.4292   10.1918   43.7509 C   0  0  2  0  0  0  0  0  0  0  0  0
   25.1351    8.9016   44.4454 N   0  3  0  0  0  0  0  0  0  0  0  0
   24.7877   10.2349   42.3239 C   0  0  1  0  0  0  0  0  0  0  0  0
   24.9867   11.6022   41.7962 O   0  0  0  0  0  0  0  0  0  0  0  0
   25.4536    9.2061   41.3293 C   0  0  2  0  0  0  0  0  0  0  0  0
   25.2088    7.8764   41.8157 O   0  0  0  0  0  0  0  0  0  0  0  0
   27.0037    9.5273   41.2519 C   0  0  1  0  0  0  0  0  0  0  0  0
   27.5398    9.4536   42.6159 O   0  0  0  0  0  0  0  0  0  0  0  0
   27.8080    8.5888   40.3239 C   0  0  0  0  0  0  0  0  0  0  0  0
   27.5115    8.7885   38.8793 N   0  3  0  0  0  0  0  0  0  0  0  0
  1  2  1  6  0  0  0
  1  3  1  0  0  0  0
  1 10  1  0  0  0  0
  3  4  1  6  0  0  0
  3  5  1  0  0  0  0
  5  6  1  1  0  0  0
  5  7  1  0  0  0  0
  7  8  1  6  0  0  0
  7  9  1  0  0  0  0
  9 10  1  0  0  0  0
  9 11  1  1  0  0  0
 11 12  1  0  0  0  0
 13 14  1  6  0  0  0
 13 15  1  0  0  0  0
 13 21  1  0  0  0  0
 15 16  1  0  0  0  0
 16 17  1  6  0  0  0
 16 18  1  0  0  0  0
 18  2  1  1  0  0  0
 18 19  1  0  0  0  0
 19 20  1  6  0  0  0
 19 21  1  0  0  0  0
 21 22  1  1  0  0  0
 23 20  1  1  0  0  0
 23 24  1  0  0  0  0
 23 29  1  0  0  0  0
 24 25  1  6  0  0  0
 24 26  1  0  0  0  0
 26 27  1  1  0  0  0
 26 28  1  0  0  0  0
 28 29  1  0  0  0  0
 28 30  1  1  0  0  0
 30 31  1  0  0  0  0
 32 27  1  1  0  0  0
 32 33  1  0  0  0  0
 32 40  1  0  0  0  0
 33 34  1  6  0  0  0
 33 35  1  0  0  0  0
 35 36  1  6  0  0  0
 35 37  1  0  0  0  0
 37 38  1  1  0  0  0
 37 39  1  0  0  0  0
 39 40  1  0  0  0  0
 39 41  1  6  0  0  0
 41 42  1  0  0  0  0
M  CHG  5   4   1  14   1  17   1  34   1  42   1
M  END
>  <CHROM.1>
-147.78304331,106.69227703,84.50409440,65.18870386,67.17144406,31.41490165
-70.57561942,-51.91807371,106.13624225,-51.78154087,-81.79191778,-57.04826060
-173.75522096,120.17967549,-122.11396137,-83.86799240,-64.70876780,-0.46948666
-174.36800658,-79.14590086,70.00763115,72.60960674,29.13002942,10.78243772
46.75570047,0.73673433,0.85890156,2.18789568

>  <Name>
1j7t

>  <RI>
0

>  <Rbt.Current_Directory>
/home/itssahil/PROJECTS/Mol_Feturizer/New_Systems/rnas/1j7t

>  <Rbt.Executable>
rbdock ($Id: //depot/dev/client3/rdock/2013.1/src/exe/rbdock.cxx#4 $)

>  <Rbt.Library>
libRbt.so (2013.1, Build901 2013/11/27)

>  <Rbt.Parameter_File>
/export/apps/rDock/src/rDock_2013.1_src/data/scripts/dock_solv.prm

>  <Rbt.Receptor>
prm/blind_docking_60.prm

>  <SCORE>
24.9629

>  <SCORE.INTER>
-15.0862

>  <SCORE.INTER.CONST>
1

>  <SCORE.INTER.POLAR>
-5.04179

>  <SCORE.INTER.ROT>
9

>  <SCORE.INTER.SOLV>
32.6469

>  <SCORE.INTER.VDW>
-13.7338

>  <SCORE.INTER.norm>
-0.359194

>  <SCORE.INTRA>
9.24043

>  <SCORE.INTRA.DIHEDRAL>
-2.72946

>  <SCORE.INTRA.DIHEDRAL.0>
46.2143

>  <SCORE.INTRA.POLAR>
1.63571

>  <SCORE.INTRA.POLAR.0>
-1.76436

>  <SCORE.INTRA.REPUL>
0

>  <SCORE.INTRA.REPUL.0>
0

>  <SCORE.INTRA.SOLV>
-2.49366

>  <SCORE.INTRA.SOLV.lig_0>
-148.643

>  <SCORE.INTRA.VDW>
6.29059

>  <SCORE.INTRA.VDW.0>
-4.83512

>  <SCORE.INTRA.norm>
0.22001

>  <SCORE.RESTR>
30.8086

>  <SCORE.RESTR.CAVITY>
30.8086

>  <SCORE.RESTR.norm>
0.733539

>  <SCORE.SYSTEM>
0

>  <SCORE.SYSTEM.CONST>
0

>  <SCORE.SYSTEM.DIHEDRAL>
0

>  <SCORE.SYSTEM.SOLV>
0

>  <SCORE.SYSTEM.norm>
0

>  <SCORE.heavy>
42

>  <SCORE.norm>
0.594354

>  <RMSD>
12.088

$$$$
1j7t
 OpenBabel11021811393D
libRbt.so/2013.1/901 2013/11/27
 42 45  0  0  0  0  0  0  0  0999 V2000
   29.8151   11.0750   50.1516 C   0  0  2  0  0  0  0  0  0  0  0  0
   30.6592   10.8824   48.9885 O   0  0  0  0  0  0  0  0  0  0  0  0
   30.7593   11.1665   51.3846 C   0  0  2  0  0  0  0  0  0  0  0  0
   31.8434   12.1827   51.2595 N   0  3  0  0  0  0  0  0  0  0  0  0
   31.4218    9.7858   51.5839 C   0  0  1  0  0  0  0  0  0  0  0  0
   32.2741    9.8033   52.6943 O   0  0  0  0  0  0  0  0  0  0  0  0
   30.3366    8.6952   51.7468 C   0  0  2  0  0  0  0  0  0  0  0  0
   30.9226    7.4250   51.9521 O   0  0  0  0  0  0  0  0  0  0  0  0
   29.4672    8.6465   50.5083 C   0  0  2  0  0  0  0  0  0  0  0  0
   28.9097    9.9335   50.2747 O   0  0  0  0  0  0  0  0  0  0  0  0
   28.3074    7.6844   50.6360 C   0  0  0  0  0  0  0  0  0  0  0  0
   27.1549    8.2545   50.0461 O   0  0  0  0  0  0  0  0  0  0  0  0
   31.8558   14.8426   48.1320 C   0  0  2  0  0  0  0  0  0  0  0  0
   32.2317   16.0476   47.3918 N   0  3  0  0  0  0  0  0  0  0  0  0
   32.8789   13.6954   47.8395 C   0  0  0  0  0  0  0  0  0  0  0  0
   32.4594   12.4103   48.5785 C   0  0  2  0  0  0  0  0  0  0  0  0
   33.3782   11.3087   48.2726 N   0  3  0  0  0  0  0  0  0  0  0  0
   31.0259   12.0072   48.1809 C   0  0  2  0  0  0  0  0  0  0  0  0
   30.0001   13.1295   48.4328 C   0  0  2  0  0  0  0  0  0  0  0  0
   28.7566   12.6655   47.8728 O   0  0  0  0  0  0  0  0  0  0  0  0
   30.4473   14.4359   47.7292 C   0  0  1  0  0  0  0  0  0  0  0  0
   29.5535   15.4643   48.0557 O   0  0  0  0  0  0  0  0  0  0  0  0
   28.6777   11.7839   46.7558 C   0  0  1  0  0  0  0  0  0  0  0  0
   27.6393   12.3663   45.7318 C   0  0  2  0  0  0  0  0  0  0  0  0
   26.3031   11.9597   45.9732 O   0  0  0  0  0  0  0  0  0  0  0  0
   28.2535   11.8105   44.4547 C   0  0  2  0  0  0  0  0  0  0  0  0
   28.1173   10.3588   44.3937 O   0  0  0  0  0  0  0  0  0  0  0  0
   29.7321   12.1272   44.6297 C   0  0  2  0  0  0  0  0  0  0  0  0
   29.9255   11.7735   46.0100 O   0  0  0  0  0  0  0  0  0  0  0  0
   30.1287   13.6090   44.3251 C   0  0  0  0  0  0  0  0  0  0  0  0
   31.3929   13.6915   43.6551 O   0  0  0  0  0  0  0  0  0  0  0  0
   26.9890    9.9133   43.6453 C   0  0  2  0  0  0  0  0  0  0  0  0
   27.0745   10.1892   42.1055 C   0  0  2  0  0  0  0  0  0  0  0  0
   27.2492   11.6382   41.7841 N   0  3  0  0  0  0  0  0  0  0  0  0
   25.7689    9.6122   41.4636 C   0  0  1  0  0  0  0  0  0  0  0  0
   25.7784    8.1509   41.6917 O   0  0  0  0  0  0  0  0  0  0  0  0
   24.4600   10.2167   42.1061 C   0  0  2  0  0  0  0  0  0  0  0  0
   24.4263   11.6270   41.8329 O   0  0  0  0  0  0  0  0  0  0  0  0
   24.4922    9.9203   43.6627 C   0  0  1  0  0  0  0  0  0  0  0  0
   25.7290   10.5005   44.1984 O   0  0  0  0  0  0  0  0  0  0  0  0
   23.2772   10.4681   44.4455 C   0  0  0  0  0  0  0  0  0  0  0  0
   22.0080    9.7514   44.1455 N   0  3  0  0  0  0  0  0  0  0  0  0
  1  2  1  6  0  0  0
  1  3  1  0  0  0  0
  1 10  1  0  0  0  0
  3  4  1  6  0  0  0
  3  5  1  0  0  0  0
  5  6  1  1  0  0  0
  5  7  1  0  0  0  0
  7  8  1  6  0  0  0
  7  9  1  0  0  0  0
  9 10  1  0  0  0  0
  9 11  1  1  0  0  0
 11 12  1  0  0  0  0
 13 14  1  6  0  0  0
 13 15  1  0  0  0  0
 13 21  1  0  0  0  0
 15 16  1  0  0  0  0
 16 17  1  6  0  0  0
 16 18  1  0  0  0  0
 18  2  1  1  0  0  0
 18 19  1  0  0  0  0
 19 20  1  6  0  0  0
 19 21  1  0  0  0  0
 21 22  1  1  0  0  0
 23 20  1  1  0  0  0
 23 24  1  0  0  0  0
 23 29  1  0  0  0  0
 24 25  1  1  0  0  0
 24 26  1  0  0  0  0
 26 27  1  1  0  0  0
 26 28  1  0  0  0  0
 28 29  1  0  0  0  0
 28 30  1  1  0  0  0
 30 31  1  0  0  0  0
 32 27  1  1  0  0  0
 32 33  1  0  0  0  0
 32 40  1  0  0  0  0
 33 34  1  1  0  0  0
 33 35  1  0  0  0  0
 35 36  1  1  0  0  0
 35 37  1  0  0  0  0
 37 38  1  1  0  0  0
 37 39  1  0  0  0  0
 39 40  1  0  0  0  0
 39 41  1  1  0  0  0
 41 42  1  0  0  0  0
M  CHG  5   4   1  14   1  17   1  34   1  42   1
M  END
>  <CHROM.1>
-96.98811931,100.54798855,-81.16486209,-173.75489189,-58.47236883,140.09367113
-31.40031464,-152.00457798,-145.03284364,-29.98301975,-132.02519030,74.90421143
-72.22191912,95.97019632,68.12867300,-141.48560092,-168.15462105,81.82190129
-178.61804334,-174.17340597,69.64750884,50.86516248,28.84554114,11.26490233
46.86783162,0.63235534,0.69339848,2.19766384

>  <Name>
1j7t

>  <RI>
0

>  <Rbt.Current_Directory>
/home/itssahil/PROJECTS/Mol_Feturizer/New_Systems/rnas/1j7t

>  <Rbt.Executable>
rbdock ($Id: //depot/dev/client3/rdock/2013.1/src/exe/rbdock.cxx#4 $)

>  <Rbt.Library>
libRbt.so (2013.1, Build901 2013/11/27)

>  <Rbt.Parameter_File>
/export/apps/rDock/src/rDock_2013.1_src/data/scripts/dock_solv.prm

>  <Rbt.Receptor>
prm/blind_docking_60.prm

>  <SCORE>
65.9363

>  <SCORE.INTER>
16.1341

>  <SCORE.INTER.CONST>
1

>  <SCORE.INTER.POLAR>
-4.75011

>  <SCORE.INTER.ROT>
9

>  <SCORE.INTER.SOLV>
26.5033

>  <SCORE.INTER.VDW>
8.15536

>  <SCORE.INTER.norm>
0.384146

>  <SCORE.INTRA>
13.6217

>  <SCORE.INTRA.DIHEDRAL>
-0.349196

>  <SCORE.INTRA.DIHEDRAL.0>
46.2143

>  <SCORE.INTRA.POLAR>
0.990505

>  <SCORE.INTRA.POLAR.0>
-1.76436

>  <SCORE.INTRA.REPUL>
0

>  <SCORE.INTRA.REPUL.0>
0

>  <SCORE.INTRA.SOLV>
2.80916

>  <SCORE.INTRA.SOLV.lig_0>
-148.643

>  <SCORE.INTRA.VDW>
9.02402

>  <SCORE.INTRA.VDW.0>
-4.83512

>  <SCORE.INTRA.norm>
0.324327

>  <SCORE.RESTR>
36.1804

>  <SCORE.RESTR.CAVITY>
36.1804

>  <SCORE.RESTR.norm>
0.861439

>  <SCORE.SYSTEM>
0

>  <SCORE.SYSTEM.CONST>
0

>  <SCORE.SYSTEM.DIHEDRAL>
0

>  <SCORE.SYSTEM.SOLV>
0

>  <SCORE.SYSTEM.norm>
0

>  <SCORE.heavy>
42

>  <SCORE.norm>
1.56991

>  <RMSD>
12.094

$$$$
1j7t
 OpenBabel11021811393D
libRbt.so/2013.1/901 2013/11/27
 42 45  0  0  0  0  0  0  0  0999 V2000
   30.0522   11.3482   50.0415 C   0  0  2  0  0  0  0  0  0  0  0  0
   31.2848   11.3543   49.2779 O   0  0  0  0  0  0  0  0  0  0  0  0
   30.4515   11.2667   51.5429 C   0  0  2  0  0  0  0  0  0  0  0  0
   31.4206   12.3111   51.9828 N   0  3  0  0  0  0  0  0  0  0  0  0
   31.0945    9.8851   51.7930 C   0  0  1  0  0  0  0  0  0  0  0  0
   31.4610    9.7476   53.1370 O   0  0  0  0  0  0  0  0  0  0  0  0
   30.1160    8.7613   51.3770 C   0  0  2  0  0  0  0  0  0  0  0  0
   30.6776    7.4863   51.6182 O   0  0  0  0  0  0  0  0  0  0  0  0
   29.7844    8.8873   49.9052 C   0  0  2  0  0  0  0  0  0  0  0  0
   29.2584   10.1838   49.6514 O   0  0  0  0  0  0  0  0  0  0  0  0
   28.7402    7.8945   49.4458 C   0  0  0  0  0  0  0  0  0  0  0  0
   27.5551    8.0754   50.1968 O   0  0  0  0  0  0  0  0  0  0  0  0
   32.0437   14.4723   46.5301 C   0  0  2  0  0  0  0  0  0  0  0  0
   32.1212   15.2308   45.2811 N   0  3  0  0  0  0  0  0  0  0  0  0
   32.9249   13.1833   46.4275 C   0  0  0  0  0  0  0  0  0  0  0  0
   32.8075   12.3569   47.7225 C   0  0  2  0  0  0  0  0  0  0  0  0
   33.5852   11.1174   47.6230 N   0  3  0  0  0  0  0  0  0  0  0  0
   31.3320   12.0143   48.0076 C   0  0  2  0  0  0  0  0  0  0  0  0
   30.4349   13.2650   48.0867 C   0  0  2  0  0  0  0  0  0  0  0  0
   29.0832   12.7792   48.1977 O   0  0  0  0  0  0  0  0  0  0  0  0
   30.5900   14.1213   46.8043 C   0  0  1  0  0  0  0  0  0  0  0  0
   29.8441   15.2991   46.9436 O   0  0  0  0  0  0  0  0  0  0  0  0
   28.4592   11.9588   47.2134 C   0  0  1  0  0  0  0  0  0  0  0  0
   28.4791   12.7221   45.8412 C   0  0  2  0  0  0  0  0  0  0  0  0
   27.3644   13.5741   45.6404 O   0  0  0  0  0  0  0  0  0  0  0  0
   28.5317   11.5134   44.9173 C   0  0  2  0  0  0  0  0  0  0  0  0
   27.2770   10.7691   44.9526 O   0  0  0  0  0  0  0  0  0  0  0  0
   29.6009   10.6443   45.5646 C   0  0  2  0  0  0  0  0  0  0  0  0
   29.2471   10.7651   46.9531 O   0  0  0  0  0  0  0  0  0  0  0  0
   31.0729   11.0868   45.2761 C   0  0  0  0  0  0  0  0  0  0  0  0
   31.1281   12.1429   44.3088 O   0  0  0  0  0  0  0  0  0  0  0  0
   26.6761   10.5847   43.6734 C   0  0  2  0  0  0  0  0  0  0  0  0
   25.1549   10.2120   43.7122 C   0  0  2  0  0  0  0  0  0  0  0  0
   24.8822    8.9658   44.4906 N   0  3  0  0  0  0  0  0  0  0  0  0
   24.6782   10.0774   42.2275 C   0  0  1  0  0  0  0  0  0  0  0  0
   24.8320   11.4063   41.5967 O   0  0  0  0  0  0  0  0  0  0  0  0
   25.5288    9.0278   41.4113 C   0  0  2  0  0  0  0  0  0  0  0  0
   25.3315    7.7286   41.9928 O   0  0  0  0  0  0  0  0  0  0  0  0
   27.0489    9.4726   41.4691 C   0  0  1  0  0  0  0  0  0  0  0  0
   27.4305    9.5625   42.8832 O   0  0  0  0  0  0  0  0  0  0  0  0
   28.0221    8.5301   40.7250 C   0  0  0  0  0  0  0  0  0  0  0  0
   27.3457    7.3764   40.0724 N   0  3  0  0  0  0  0  0  0  0  0  0
  1  2  1  6  0  0  0
  1  3  1  0  0  0  0
  1 10  1  0  0  0  0
  3  4  1  6  0  0  0
  3  5  1  0  0  0  0
  5  6  1  1  0  0  0
  5  7  1  0  0  0  0
  7  8  1  6  0  0  0
  7  9  1  0  0  0  0
  9 10  1  0  0  0  0
  9 11  1  1  0  0  0
 11 12  1  0  0  0  0
 13 14  1  6  0  0  0
 13 15  1  0  0  0  0
 13 21  1  0  0  0  0
 15 16  1  0  0  0  0
 16 17  1  6  0  0  0
 16 18  1  0  0  0  0
 18  2  1  1  0  0  0
 18 19  1  0  0  0  0
 19 20  1  6  0  0  0
 19 21  1  0  0  0  0
 21 22  1  1  0  0  0
 23 20  1  1  0  0  0
 23 24  1  0  0  0  0
 23 29  1  0  0  0  0
 24 25  1  6  0  0  0
 24 26  1  0  0  0  0
 26 27  1  1  0  0  0
 26 28  1  0  0  0  0
 28 29  1  0  0  0  0
 28 30  1  1  0  0  0
 30 31  1  0  0  0  0
 32 27  1  1  0  0  0
 32 33  1  0  0  0  0
 32 40  1  0  0  0  0
 33 34  1  1  0  0  0
 33 35  1  0  0  0  0
 35 36  1  6  0  0  0
 35 37  1  0  0  0  0
 37 38  1  1  0  0  0
 37 39  1  0  0  0  0
 39 40  1  0  0  0  0
 39 41  1  6  0  0  0
 41 42  1  0  0  0  0
M  CHG  5   4   1  14   1  17   1  34   1  42   1
M  END
>  <CHROM.1>
-151.15060723,157.27281337,32.11360164,-60.36008988,-81.55940251,58.55727765
179.09524190,65.83773879,105.14224023,-60.04916691,-58.02728235,75.58246136
55.53316524,124.79244788,-161.44682204,-7.28781828,-169.79756051,157.15448405
-55.91238242,66.78415849,0.65431397,-168.94901571,29.15182856,10.91626638
46.58105337,0.70006104,0.85211839,2.12122012

>  <Name>
1j7t

>  <RI>
0

>  <Rbt.Current_Directory>
/home/itssahil/PROJECTS/Mol_Feturizer/New_Systems/rnas/1j7t

>  <Rbt.Executable>
rbdock ($Id: //depot/dev/client3/rdock/2013.1/src/exe/rbdock.cxx#4 $)

>  <Rbt.Library>
libRbt.so (2013.1, Build901 2013/11/27)

>  <Rbt.Parameter_File>
/export/apps/rDock/src/rDock_2013.1_src/data/scripts/dock_solv.prm

>  <Rbt.Receptor>
prm/blind_docking_60.prm

>  <SCORE>
6.49464

>  <SCORE.INTER>
-25.9648

>  <SCORE.INTER.CONST>
1

>  <SCORE.INTER.POLAR>
-4.09689

>  <SCORE.INTER.ROT>
9

>  <SCORE.INTER.SOLV>
28.9968

>  <SCORE.INTER.VDW>
-22.9192

>  <SCORE.INTER.norm>
-0.618209

>  <SCORE.INTRA>
3.31777

>  <SCORE.INTRA.DIHEDRAL>
-11.0681

>  <SCORE.INTRA.DIHEDRAL.0>
46.2143

>  <SCORE.INTRA.POLAR>
0.650003

>  <SCORE.INTRA.POLAR.0>
-1.76436

>  <SCORE.INTRA.REPUL>
0

>  <SCORE.INTRA.REPUL.0>
0

>  <SCORE.INTRA.SOLV>
1.8261

>  <SCORE.INTRA.SOLV.lig_0>
-148.643

>  <SCORE.INTRA.VDW>
5.72875

>  <SCORE.INTRA.VDW.0>
-4.83512

>  <SCORE.INTRA.norm>
0.0789946

>  <SCORE.RESTR>
29.1417

>  <SCORE.RESTR.CAVITY>
29.1417

>  <SCORE.RESTR.norm>
0.693849

>  <SCORE.SYSTEM>
0

>  <SCORE.SYSTEM.CONST>
0

>  <SCORE.SYSTEM.DIHEDRAL>
0

>  <SCORE.SYSTEM.SOLV>
0

>  <SCORE.SYSTEM.norm>
0

>  <SCORE.heavy>
42

>  <SCORE.norm>
0.154634

>  <RMSD>
12.110

$$$$
1j7t
 OpenBabel11021811393D
libRbt.so/2013.1/901 2013/11/27
 42 45  0  0  0  0  0  0  0  0999 V2000
   29.9247   11.0868   50.0046 C   0  0  2  0  0  0  0  0  0  0  0  0
   31.0277   10.9496   49.0735 O   0  0  0  0  0  0  0  0  0  0  0  0
   30.5439   11.1688   51.4294 C   0  0  2  0  0  0  0  0  0  0  0  0
   31.5928   12.2168   51.5886 N   0  3  0  0  0  0  0  0  0  0  0  0
   31.1845    9.8013   51.7526 C   0  0  1  0  0  0  0  0  0  0  0  0
   31.7462    9.8104   53.0348 O   0  0  0  0  0  0  0  0  0  0  0  0
   30.1280    8.6780   51.6282 C   0  0  2  0  0  0  0  0  0  0  0  0
   30.6892    7.4186   51.9413 O   0  0  0  0  0  0  0  0  0  0  0  0
   29.5812    8.6407   50.2170 C   0  0  2  0  0  0  0  0  0  0  0  0
   29.0538    9.9185   49.8836 O   0  0  0  0  0  0  0  0  0  0  0  0
   28.4565    7.6448   50.0433 C   0  0  0  0  0  0  0  0  0  0  0  0
   28.9928    6.3387   49.9555 O   0  0  0  0  0  0  0  0  0  0  0  0
   32.2095   14.6388   47.3880 C   0  0  2  0  0  0  0  0  0  0  0  0
   32.4393   15.7085   46.4162 N   0  3  0  0  0  0  0  0  0  0  0  0
   33.0135   13.3613   46.9759 C   0  0  0  0  0  0  0  0  0  0  0  0
   32.7359   12.2171   47.9696 C   0  0  2  0  0  0  0  0  0  0  0  0
   33.4399   10.9948   47.5681 N   0  3  0  0  0  0  0  0  0  0  0  0
   31.2230   11.9337   48.0513 C   0  0  2  0  0  0  0  0  0  0  0  0
   30.4027   13.1825   48.4289 C   0  0  2  0  0  0  0  0  0  0  0  0
   29.0186   12.8006   48.3108 O   0  0  0  0  0  0  0  0  0  0  0  0
   30.7186   14.3485   47.4581 C   0  0  1  0  0  0  0  0  0  0  0  0
   30.0390   15.4980   47.8820 O   0  0  0  0  0  0  0  0  0  0  0  0
   28.4943   12.0787   47.1995 C   0  0  1  0  0  0  0  0  0  0  0  0
   28.3324   13.0692   45.9917 C   0  0  2  0  0  0  0  0  0  0  0  0
   27.0871   13.7456   45.9652 O   0  0  0  0  0  0  0  0  0  0  0  0
   28.5404   12.0727   44.8599 C   0  0  2  0  0  0  0  0  0  0  0  0
   27.4250   11.1357   44.7721 O   0  0  0  0  0  0  0  0  0  0  0  0
   29.7624   11.2918   45.3227 C   0  0  2  0  0  0  0  0  0  0  0  0
   29.4529   11.0997   46.7137 O   0  0  0  0  0  0  0  0  0  0  0  0
   31.1299   12.0180   45.1032 C   0  0  0  0  0  0  0  0  0  0  0  0
   31.0674   12.9461   44.0129 O   0  0  0  0  0  0  0  0  0  0  0  0
   27.2128   10.6078   43.4653 C   0  0  2  0  0  0  0  0  0  0  0  0
   26.3931   11.5388   42.5084 C   0  0  2  0  0  0  0  0  0  0  0  0
   25.0431   11.8831   43.0492 N   0  3  0  0  0  0  0  0  0  0  0  0
   26.2890   10.8024   41.1312 C   0  0  1  0  0  0  0  0  0  0  0  0
   27.6642   10.6629   40.6050 O   0  0  0  0  0  0  0  0  0  0  0  0
   25.6476    9.3660   41.2597 C   0  0  2  0  0  0  0  0  0  0  0  0
   24.2929    9.5097   41.7168 O   0  0  0  0  0  0  0  0  0  0  0  0
   26.5243    8.5231   42.2760 C   0  0  1  0  0  0  0  0  0  0  0  0
   26.5651    9.2614   43.5435 O   0  0  0  0  0  0  0  0  0  0  0  0
   26.0134    7.0859   42.5257 C   0  0  0  0  0  0  0  0  0  0  0  0
   26.9570    6.2517   43.3183 N   0  3  0  0  0  0  0  0  0  0  0  0
  1  2  1  6  0  0  0
  1  3  1  0  0  0  0
  1 10  1  0  0  0  0
  3  4  1  6  0  0  0
  3  5  1  0  0  0  0
  5  6  1  1  0  0  0
  5  7  1  0  0  0  0
  7  8  1  6  0  0  0
  7  9  1  0  0  0  0
  9 10  1  0  0  0  0
  9 11  1  1  0  0  0
 11 12  1  0  0  0  0
 13 14  1  6  0  0  0
 13 15  1  0  0  0  0
 13 21  1  0  0  0  0
 15 16  1  0  0  0  0
 16 17  1  6  0  0  0
 16 18  1  0  0  0  0
 18  2  1  1  0  0  0
 18 19  1  0  0  0  0
 19 20  1  6  0  0  0
 19 21  1  0  0  0  0
 21 22  1  1  0  0  0
 23 20  1  1  0  0  0
 23 24  1  0  0  0  0
 23 29  1  0  0  0  0
 24 25  1  6  0  0  0
 24 26  1  0  0  0  0
 26 27  1  1  0  0  0
 26 28  1  0  0  0  0
 28 29  1  0  0  0  0
 28 30  1  1  0  0  0
 30 31  1  0  0  0  0
 32 27  1  1  0  0  0
 32 33  1  0  0  0  0
 32 40  1  0  0  0  0
 33 34  1  1  0  0  0
 33 35  1  0  0  0  0
 35 36  1  1  0  0  0
 35 37  1  0  0  0  0
 37 38  1  1  0  0  0
 37 39  1  0  0  0  0
 39 40  1  0  0  0  0
 39 41  1  1  0  0  0
 41 42  1  0  0  0  0
M  CHG  5   4   1  14   1  17   1  34   1  42   1
M  END
>  <CHROM.1>
-120.29174100,137.95918802,77.68502881,-171.18921656,68.81785452,-77.55415141
-178.35723045,-54.07546465,127.75057891,-45.86665513,-76.78836830,-171.33717316
179.20130072,152.69614921,-82.04564318,-26.55357746,-45.66468793,174.17690816
-62.12390741,66.80842296,171.39321099,-79.34311749,29.23351004,11.01717379
46.72395370,0.57354704,0.91952547,2.35161011

>  <Name>
1j7t

>  <RI>
0

>  <Rbt.Current_Directory>
/home/itssahil/PROJECTS/Mol_Feturizer/New_Systems/rnas/1j7t

>  <Rbt.Executable>
rbdock ($Id: //depot/dev/client3/rdock/2013.1/src/exe/rbdock.cxx#4 $)

>  <Rbt.Library>
libRbt.so (2013.1, Build901 2013/11/27)

>  <Rbt.Parameter_File>
/export/apps/rDock/src/rDock_2013.1_src/data/scripts/dock_solv.prm

>  <Rbt.Receptor>
prm/blind_docking_60.prm

>  <SCORE>
3.1889

>  <SCORE.INTER>
-33.5581

>  <SCORE.INTER.CONST>
1

>  <SCORE.INTER.POLAR>
-4.66633

>  <SCORE.INTER.ROT>
9

>  <SCORE.INTER.SOLV>
28.5335

>  <SCORE.INTER.VDW>
-25.9288

>  <SCORE.INTER.norm>
-0.799003

>  <SCORE.INTRA>
4.6205

>  <SCORE.INTRA.DIHEDRAL>
-13.4952

>  <SCORE.INTRA.DIHEDRAL.0>
46.2143

>  <SCORE.INTRA.POLAR>
1.19141

>  <SCORE.INTRA.POLAR.0>
-1.76436

>  <SCORE.INTRA.REPUL>
0

>  <SCORE.INTRA.REPUL.0>
0

>  <SCORE.INTRA.SOLV>
-1.64002

>  <SCORE.INTRA.SOLV.lig_0>
-148.643

>  <SCORE.INTRA.VDW>
8.13731

>  <SCORE.INTRA.VDW.0>
-4.83512

>  <SCORE.INTRA.norm>
0.110012

>  <SCORE.RESTR>
32.1265

>  <SCORE.RESTR.CAVITY>
32.1265

>  <SCORE.RESTR.norm>
0.764917

>  <SCORE.SYSTEM>
0

>  <SCORE.SYSTEM.CONST>
0

>  <SCORE.SYSTEM.DIHEDRAL>
0

>  <SCORE.SYSTEM.SOLV>
0

>  <SCORE.SYSTEM.norm>
0

>  <SCORE.heavy>
42

>  <SCORE.norm>
0.0759262

>  <RMSD>
12.127

$$$$
1j7t
 OpenBabel11021811393D
libRbt.so/2013.1/901 2013/11/27
 42 45  0  0  0  0  0  0  0  0999 V2000
   30.0262   11.2897   49.8782 C   0  0  2  0  0  0  0  0  0  0  0  0
   31.1941   11.0799   49.0448 O   0  0  0  0  0  0  0  0  0  0  0  0
   30.5333   11.4107   51.3439 C   0  0  2  0  0  0  0  0  0  0  0  0
   31.6018   12.4309   51.5465 N   0  3  0  0  0  0  0  0  0  0  0  0
   31.0987   10.0382   51.7699 C   0  0  1  0  0  0  0  0  0  0  0  0
   31.5572   10.0823   53.0918 O   0  0  0  0  0  0  0  0  0  0  0  0
   30.0172    8.9443   51.6041 C   0  0  2  0  0  0  0  0  0  0  0  0
   30.5081    7.6819   52.0095 O   0  0  0  0  0  0  0  0  0  0  0  0
   29.5828    8.8664   50.1560 C   0  0  2  0  0  0  0  0  0  0  0  0
   29.1278   10.1453   49.7324 O   0  0  0  0  0  0  0  0  0  0  0  0
   28.4417    7.8999   49.9307 C   0  0  0  0  0  0  0  0  0  0  0  0
   28.9274    6.5730   49.9989 O   0  0  0  0  0  0  0  0  0  0  0  0
   32.5736   14.4571   46.9141 C   0  0  2  0  0  0  0  0  0  0  0  0
   32.8429   15.3907   45.8199 N   0  3  0  0  0  0  0  0  0  0  0  0
   33.2677   13.0843   46.6277 C   0  0  0  0  0  0  0  0  0  0  0  0
   32.9462   12.0830   47.7536 C   0  0  2  0  0  0  0  0  0  0  0  0
   33.5450   10.7736   47.4743 N   0  3  0  0  0  0  0  0  0  0  0  0
   31.4210   11.9256   47.9113 C   0  0  2  0  0  0  0  0  0  0  0  0
   30.7073   13.2674   48.1672 C   0  0  2  0  0  0  0  0  0  0  0  0
   29.2959   12.9804   48.1341 O   0  0  0  0  0  0  0  0  0  0  0  0
   31.0694   14.2900   47.0604 C   0  0  1  0  0  0  0  0  0  0  0  0
   30.4906   15.5279   47.3696 O   0  0  0  0  0  0  0  0  0  0  0  0
   28.6663   12.2510   47.0840 C   0  0  1  0  0  0  0  0  0  0  0  0
   27.8411   13.2555   46.2029 C   0  0  2  0  0  0  0  0  0  0  0  0
   26.5176   13.4706   46.6621 O   0  0  0  0  0  0  0  0  0  0  0  0
   27.9429   12.5188   44.8747 C   0  0  2  0  0  0  0  0  0  0  0  0
   27.1782   11.2761   44.9023 O   0  0  0  0  0  0  0  0  0  0  0  0
   29.4183   12.1500   44.8093 C   0  0  2  0  0  0  0  0  0  0  0  0
   29.6506   11.7128   46.1594 O   0  0  0  0  0  0  0  0  0  0  0  0
   30.3698   13.3146   44.3799 C   0  0  0  0  0  0  0  0  0  0  0  0
   31.5394   12.8238   43.7128 O   0  0  0  0  0  0  0  0  0  0  0  0
   27.1314   10.5963   43.6505 C   0  0  2  0  0  0  0  0  0  0  0  0
   26.2687   11.3059   42.5520 C   0  0  2  0  0  0  0  0  0  0  0  0
   24.8499   11.5143   42.9729 N   0  3  0  0  0  0  0  0  0  0  0  0
   26.3611   10.4284   41.2593 C   0  0  1  0  0  0  0  0  0  0  0  0
   27.7771   10.4267   40.8322 O   0  0  0  0  0  0  0  0  0  0  0  0
   25.9045    8.9377   41.5055 C   0  0  2  0  0  0  0  0  0  0  0  0
   24.5132    8.9394   41.8648 O   0  0  0  0  0  0  0  0  0  0  0  0
   26.8078    8.3286   42.6567 C   0  0  1  0  0  0  0  0  0  0  0  0
   26.6605    9.1885   43.8366 O   0  0  0  0  0  0  0  0  0  0  0  0
   26.4716    6.8671   43.0308 C   0  0  0  0  0  0  0  0  0  0  0  0
   26.7695    5.8946   41.9445 N   0  3  0  0  0  0  0  0  0  0  0  0
  1  2  1  6  0  0  0
  1  3  1  0  0  0  0
  1 10  1  0  0  0  0
  3  4  1  6  0  0  0
  3  5  1  0  0  0  0
  5  6  1  1  0  0  0
  5  7  1  0  0  0  0
  7  8  1  6  0  0  0
  7  9  1  0  0  0  0
  9 10  1  0  0  0  0
  9 11  1  1  0  0  0
 11 12  1  0  0  0  0
 13 14  1  6  0  0  0
 13 15  1  0  0  0  0
 13 21  1  0  0  0  0
 15 16  1  0  0  0  0
 16 17  1  6  0  0  0
 16 18  1  0  0  0  0
 18  2  1  1  0  0  0
 18 19  1  0  0  0  0
 19 20  1  6  0  0  0
 19 21  1  0  0  0  0
 21 22  1  1  0  0  0
 23 20  1  1  0  0  0
 23 24  1  0  0  0  0
 23 29  1  0  0  0  0
 24 25  1  1  0  0  0
 24 26  1  0  0  0  0
 26 27  1  1  0  0  0
 26 28  1  0  0  0  0
 28 29  1  0  0  0  0
 28 30  1  1  0  0  0
 30 31  1  0  0  0  0
 32 27  1  1  0  0  0
 32 33  1  0  0  0  0
 32 40  1  0  0  0  0
 33 34  1  1  0  0  0
 33 35  1  0  0  0  0
 35 36  1  1  0  0  0
 35 37  1  0  0  0  0
 37 38  1  1  0  0  0
 37 39  1  0  0  0  0
 39 40  1  0  0  0  0
 39 41  1  1  0  0  0
 41 42  1  0  0  0  0
M  CHG  5   4   1  14   1  17   1  34   1  42   1
M  END
>  <CHROM.1>
-127.34807772,146.77390049,-42.61372650,-176.58594158,68.66909948,-74.83792195
-178.58161814,74.54257209,18.62737806,-49.94758368,-106.50844439,69.44400084
-168.30525111,174.61678773,-70.25622901,-151.17890799,-60.24411157,176.48417775
177.70666211,70.17287624,66.70654950,-61.05844864,29.26792079,11.05719108
46.62049760,0.59604686,0.89832186,2.24360279

>  <Name>
1j7t

>  <RI>
0

>  <Rbt.Current_Directory>
/home/itssahil/PROJECTS/Mol_Feturizer/New_Systems/rnas/1j7t

>  <Rbt.Executable>
rbdock ($Id: //depot/dev/client3/rdock/2013.1/src/exe/rbdock.cxx#4 $)

>  <Rbt.Library>
libRbt.so (2013.1, Build901 2013/11/27)

>  <Rbt.Parameter_File>
/export/apps/rDock/src/rDock_2013.1_src/data/scripts/dock_solv.prm

>  <Rbt.Receptor>
prm/blind_docking_60.prm

>  <SCORE>
4.9083

>  <SCORE.INTER>
-25.7774

>  <SCORE.INTER.CONST>
1

>  <SCORE.INTER.POLAR>
-3.11582

>  <SCORE.INTER.ROT>
9

>  <SCORE.INTER.SOLV>
27.5607

>  <SCORE.INTER.VDW>
-25.5857

>  <SCORE.INTER.norm>
-0.613747

>  <SCORE.INTRA>
-1.79959

>  <SCORE.INTRA.DIHEDRAL>
-17.7675

>  <SCORE.INTRA.DIHEDRAL.0>
46.2143

>  <SCORE.INTRA.POLAR>
1.17791

>  <SCORE.INTRA.POLAR.0>
-1.76436

>  <SCORE.INTRA.REPUL>
0

>  <SCORE.INTRA.REPUL.0>
0

>  <SCORE.INTRA.SOLV>
-2.67163

>  <SCORE.INTRA.SOLV.lig_0>
-148.643

>  <SCORE.INTRA.VDW>
4.4151

>  <SCORE.INTRA.VDW.0>
-4.83512

>  <SCORE.INTRA.norm>
-0.0428473

>  <SCORE.RESTR>
32.4853

>  <SCORE.RESTR.CAVITY>
32.4853

>  <SCORE.RESTR.norm>
0.773458

>  <SCORE.SYSTEM>
0

>  <SCORE.SYSTEM.CONST>
0

>  <SCORE.SYSTEM.DIHEDRAL>
0

>  <SCORE.SYSTEM.SOLV>
0

>  <SCORE.SYSTEM.norm>
0

>  <SCORE.heavy>
42

>  <SCORE.norm>
0.116864

>  <RMSD>
12.143

$$$$
1j7t
 OpenBabel11021811393D
libRbt.so/2013.1/901 2013/11/27
 42 45  0  0  0  0  0  0  0  0999 V2000
   30.0206   11.3529   50.0724 C   0  0  2  0  0  0  0  0  0  0  0  0
   31.2736   11.3600   49.3426 O   0  0  0  0  0  0  0  0  0  0  0  0
   30.3788   11.2692   51.5839 C   0  0  2  0  0  0  0  0  0  0  0  0
   31.3357   12.3129   52.0516 N   0  3  0  0  0  0  0  0  0  0  0  0
   31.0147    9.8871   51.8495 C   0  0  1  0  0  0  0  0  0  0  0  0
   31.3444    9.7476   53.2028 O   0  0  0  0  0  0  0  0  0  0  0  0
   30.0478    8.7641   51.4054 C   0  0  2  0  0  0  0  0  0  0  0  0
   30.6025    7.4887   51.6599 O   0  0  0  0  0  0  0  0  0  0  0  0
   29.7564    8.8923   49.9253 C   0  0  2  0  0  0  0  0  0  0  0  0
   29.2377   10.1892   49.6591 O   0  0  0  0  0  0  0  0  0  0  0  0
   28.7251    7.9002   49.4361 C   0  0  0  0  0  0  0  0  0  0  0  0
   27.5563    8.0073   50.2259 O   0  0  0  0  0  0  0  0  0  0  0  0
   32.0789   14.3787   46.4989 C   0  0  2  0  0  0  0  0  0  0  0  0
   32.1768   15.0926   45.2253 N   0  3  0  0  0  0  0  0  0  0  0  0
   32.9603   13.0866   46.4559 C   0  0  0  0  0  0  0  0  0  0  0  0
   32.8216   12.3064   47.7771 C   0  0  2  0  0  0  0  0  0  0  0  0
   33.5997   11.0640   47.7338 N   0  3  0  0  0  0  0  0  0  0  0  0
   31.3415   11.9748   48.0508 C   0  0  2  0  0  0  0  0  0  0  0  0
   30.4444   13.2278   48.0714 C   0  0  2  0  0  0  0  0  0  0  0  0
   29.0907   12.7467   48.1780 O   0  0  0  0  0  0  0  0  0  0  0  0
   30.6206   14.0381   46.7621 C   0  0  1  0  0  0  0  0  0  0  0  0
   29.8737   15.2204   46.8480 O   0  0  0  0  0  0  0  0  0  0  0  0
   28.5026   11.8409   47.2480 C   0  0  1  0  0  0  0  0  0  0  0  0
   28.4167   12.5475   45.8483 C   0  0  2  0  0  0  0  0  0  0  0  0
   27.2314   13.3005   45.6556 O   0  0  0  0  0  0  0  0  0  0  0  0
   28.5357   11.3106   44.9691 C   0  0  2  0  0  0  0  0  0  0  0  0
   27.3463   10.4719   45.0770 O   0  0  0  0  0  0  0  0  0  0  0  0
   29.6914   10.5551   45.6100 C   0  0  2  0  0  0  0  0  0  0  0  0
   29.3745   10.7034   47.0048 O   0  0  0  0  0  0  0  0  0  0  0  0
   31.1131   11.1000   45.2528 C   0  0  0  0  0  0  0  0  0  0  0  0
   31.0396   12.2719   44.4311 O   0  0  0  0  0  0  0  0  0  0  0  0
   26.5241   10.4793   43.9128 C   0  0  2  0  0  0  0  0  0  0  0  0
   25.6385    9.2002   43.7286 C   0  0  2  0  0  0  0  0  0  0  0  0
   26.4419    7.9413   43.6704 N   0  3  0  0  0  0  0  0  0  0  0  0
   24.8005    9.4074   42.4230 C   0  0  1  0  0  0  0  0  0  0  0  0
   23.9197   10.5738   42.6493 O   0  0  0  0  0  0  0  0  0  0  0  0
   25.7054    9.6930   41.1617 C   0  0  2  0  0  0  0  0  0  0  0  0
   26.5188    8.5353   40.9112 O   0  0  0  0  0  0  0  0  0  0  0  0
   26.5862   10.9750   41.4664 C   0  0  1  0  0  0  0  0  0  0  0  0
   27.3531   10.7052   42.6880 O   0  0  0  0  0  0  0  0  0  0  0  0
   27.5474   11.3792   40.3255 C   0  0  0  0  0  0  0  0  0  0  0  0
   27.4219   10.5231   39.1148 N   0  3  0  0  0  0  0  0  0  0  0  0
  1  2  1  6  0  0  0
  1  3  1  0  0  0  0
  1 10  1  0  0  0  0
  3  4  1  6  0  0  0
  3  5  1  0  0  0  0
  5  6  1  1  0  0  0
  5  7  1  0  0  0  0
  7  8  1  6  0  0  0
  7  9  1  0  0  0  0
  9 10  1  0  0  0  0
  9 11  1  1  0  0  0
 11 12  1  0  0  0  0
 13 14  1  6  0  0  0
 13 15  1  0  0  0  0
 13 21  1  0  0  0  0
 15 16  1  0  0  0  0
 16 17  1  6  0  0  0
 16 18  1  0  0  0  0
 18  2  1  1  0  0  0
 18 19  1  0  0  0  0
 19 20  1  6  0  0  0
 19 21  1  0  0  0  0
 21 22  1  1  0  0  0
 23 20  1  1  0  0  0
 23 24  1  0  0  0  0
 23 29  1  0  0  0  0
 24 25  1  1  0  0  0
 24 26  1  0  0  0  0
 26 27  1  1  0  0  0
 26 28  1  0  0  0  0
 28 29  1  0  0  0  0
 28 30  1  1  0  0  0
 30 31  1  0  0  0  0
 32 27  1  1  0  0  0
 32 33  1  0  0  0  0
 32 40  1  0  0  0  0
 33 34  1  6  0  0  0
 33 35  1  0  0  0  0
 35 36  1  1  0  0  0
 35 37  1  0  0  0  0
 37 38  1  1  0  0  0
 37 39  1  0  0  0  0
 39 40  1  0  0  0  0
 39 41  1  6  0  0  0
 41 42  1  0  0  0  0
M  CHG  5   4   1  14   1  17   1  34   1  42   1
M  END
>  <CHROM.1>
-153.67853836,158.76446036,-94.37918419,-56.63419419,-64.81401208,53.90823803
-178.10105663,-167.85886345,-90.38266910,-56.89588095,-64.50160758,-48.97722313
71.14727972,108.88188143,154.84870232,3.13398435,-177.84828832,106.04639225
-179.62852744,-73.99347595,2.80928604,65.32285818,29.19373704,11.03356532
46.54280900,0.85890682,0.78822954,2.06505843

>  <Name>
1j7t

>  <RI>
0

>  <Rbt.Current_Directory>
/home/itssahil/PROJECTS/Mol_Feturizer/New_Systems/rnas/1j7t

>  <Rbt.Executable>
rbdock ($Id: //depot/dev/client3/rdock/2013.1/src/exe/rbdock.cxx#4 $)

>  <Rbt.Library>
libRbt.so (2013.1, Build901 2013/11/27)

>  <Rbt.Parameter_File>
/export/apps/rDock/src/rDock_2013.1_src/data/scripts/dock_solv.prm

>  <Rbt.Receptor>
prm/blind_docking_60.prm

>  <SCORE>
14.6193

>  <SCORE.INTER>
-21.6265

>  <SCORE.INTER.CONST>
1

>  <SCORE.INTER.POLAR>
-3.8278

>  <SCORE.INTER.ROT>
9

>  <SCORE.INTER.SOLV>
31.3401

>  <SCORE.INTER.VDW>
-21.705

>  <SCORE.INTER.norm>
-0.514917

>  <SCORE.INTRA>
7.55739

>  <SCORE.INTRA.DIHEDRAL>
-11.1562

>  <SCORE.INTRA.DIHEDRAL.0>
46.2143

>  <SCORE.INTRA.POLAR>
1.3048

>  <SCORE.INTRA.POLAR.0>
-1.76436

>  <SCORE.INTRA.REPUL>
0.00281546

>  <SCORE.INTRA.REPUL.0>
0

>  <SCORE.INTRA.SOLV>
2.77128

>  <SCORE.INTRA.SOLV.lig_0>
-148.643

>  <SCORE.INTRA.VDW>
7.29947

>  <SCORE.INTRA.VDW.0>
-4.83512

>  <SCORE.INTRA.norm>
0.179938

>  <SCORE.RESTR>
28.6885

>  <SCORE.RESTR.CAVITY>
28.6885

>  <SCORE.RESTR.norm>
0.683059

>  <SCORE.SYSTEM>
0

>  <SCORE.SYSTEM.CONST>
0

>  <SCORE.SYSTEM.DIHEDRAL>
0

>  <SCORE.SYSTEM.SOLV>
0

>  <SCORE.SYSTEM.norm>
0

>  <SCORE.heavy>
42

>  <SCORE.norm>
0.348079

>  <RMSD>
12.209

$$$$
1j7t
 OpenBabel11021811393D
libRbt.so/2013.1/901 2013/11/27
 42 45  0  0  0  0  0  0  0  0999 V2000
   29.8887   11.0429   50.1583 C   0  0  2  0  0  0  0  0  0  0  0  0
   31.0755   11.0748   49.3257 O   0  0  0  0  0  0  0  0  0  0  0  0
   30.3744   11.0140   51.6359 C   0  0  2  0  0  0  0  0  0  0  0  0
   31.3262   12.1040   51.9956 N   0  3  0  0  0  0  0  0  0  0  0  0
   31.0824    9.6637   51.8810 C   0  0  1  0  0  0  0  0  0  0  0  0
   31.5286    9.5737   53.2047 O   0  0  0  0  0  0  0  0  0  0  0  0
   30.1255    8.4947   51.5475 C   0  0  2  0  0  0  0  0  0  0  0  0
   30.7477    7.2476   51.7858 O   0  0  0  0  0  0  0  0  0  0  0  0
   29.7073    8.5712   50.0945 C   0  0  2  0  0  0  0  0  0  0  0  0
   29.1191    9.8408   49.8411 O   0  0  0  0  0  0  0  0  0  0  0  0
   28.6776    7.5295   49.7184 C   0  0  0  0  0  0  0  0  0  0  0  0
   27.4917    7.7507   50.4574 O   0  0  0  0  0  0  0  0  0  0  0  0
   31.6474   14.8197   47.4557 C   0  0  2  0  0  0  0  0  0  0  0  0
   31.7481   15.8531   46.4245 N   0  3  0  0  0  0  0  0  0  0  0  0
   32.7253   13.7125   47.2090 C   0  0  0  0  0  0  0  0  0  0  0  0
   32.5908   12.5978   48.2640 C   0  0  2  0  0  0  0  0  0  0  0  0
   33.5591   11.5246   48.0157 N   0  3  0  0  0  0  0  0  0  0  0  0
   31.1643   12.0145   48.2484 C   0  0  2  0  0  0  0  0  0  0  0  0
   30.0794   13.0882   48.4618 C   0  0  2  0  0  0  0  0  0  0  0  0
   28.8167   12.4231   48.2654 O   0  0  0  0  0  0  0  0  0  0  0  0
   30.2448   14.2335   47.4308 C   0  0  1  0  0  0  0  0  0  0  0  0
   29.3128   15.2419   47.7090 O   0  0  0  0  0  0  0  0  0  0  0  0
   28.5391   11.5753   47.1540 C   0  0  1  0  0  0  0  0  0  0  0  0
   28.2301   12.4747   45.9043 C   0  0  2  0  0  0  0  0  0  0  0  0
   26.8676   12.8469   45.7860 O   0  0  0  0  0  0  0  0  0  0  0  0
   28.7280   11.5271   44.8220 C   0  0  2  0  0  0  0  0  0  0  0  0
   27.8625   10.3577   44.7077 O   0  0  0  0  0  0  0  0  0  0  0  0
   30.0650   11.0577   45.3782 C   0  0  2  0  0  0  0  0  0  0  0  0
   29.7231   10.8313   46.7565 O   0  0  0  0  0  0  0  0  0  0  0  0
   31.2423   12.0728   45.2072 C   0  0  0  0  0  0  0  0  0  0  0  0
   31.3736   12.5069   43.8477 O   0  0  0  0  0  0  0  0  0  0  0  0
   26.7860   10.5209   43.7879 C   0  0  2  0  0  0  0  0  0  0  0  0
   25.6729    9.4224   43.8814 C   0  0  2  0  0  0  0  0  0  0  0  0
   26.2018    8.0405   43.6717 N   0  3  0  0  0  0  0  0  0  0  0  0
   24.5804    9.7860   42.8211 C   0  0  1  0  0  0  0  0  0  0  0  0
   24.0042   11.0896   43.2163 O   0  0  0  0  0  0  0  0  0  0  0  0
   25.1709    9.9142   41.3630 C   0  0  2  0  0  0  0  0  0  0  0  0
   25.6782    8.6313   40.9610 O   0  0  0  0  0  0  0  0  0  0  0  0
   26.3105   11.0154   41.3871 C   0  0  1  0  0  0  0  0  0  0  0  0
   27.3030   10.6036   42.3864 O   0  0  0  0  0  0  0  0  0  0  0  0
   27.0059   11.2493   40.0267 C   0  0  0  0  0  0  0  0  0  0  0  0
   28.0817   12.2761   40.0808 N   0  3  0  0  0  0  0  0  0  0  0  0
  1  2  1  6  0  0  0
  1  3  1  0  0  0  0
  1 10  1  0  0  0  0
  3  4  1  6  0  0  0
  3  5  1  0  0  0  0
  5  6  1  1  0  0  0
  5  7  1  0  0  0  0
  7  8  1  6  0  0  0
  7  9  1  0  0  0  0
  9 10  1  0  0  0  0
  9 11  1  1  0  0  0
 11 12  1  0  0  0  0
 13 14  1  6  0  0  0
 13 15  1  0  0  0  0
 13 21  1  0  0  0  0
 15 16  1  0  0  0  0
 16 17  1  6  0  0  0
 16 18  1  0  0  0  0
 18  2  1  1  0  0  0
 18 19  1  0  0  0  0
 19 20  1  6  0  0  0
 19 21  1  0  0  0  0
 21 22  1  1  0  0  0
 23 20  1  1  0  0  0
 23 24  1  0  0  0  0
 23 29  1  0  0  0  0
 24 25  1  6  0  0  0
 24 26  1  0  0  0  0
 26 27  1  1  0  0  0
 26 28  1  0  0  0  0
 28 29  1  0  0  0  0
 28 30  1  1  0  0  0
 30 31  1  0  0  0  0
 32 27  1  1  0  0  0
 32 33  1  0  0  0  0
 32 40  1  0  0  0  0
 33 34  1  6  0  0  0
 33 35  1  0  0  0  0
 35 36  1  1  0  0  0
 35 37  1  0  0  0  0
 37 38  1  1  0  0  0
 37 39  1  0  0  0  0
 39 40  1  0  0  0  0
 39 41  1  6  0  0  0
 41 42  1  0  0  0  0
M  CHG  5   4   1  14   1  17   1  34   1  42   1
M  END
>  <CHROM.1>
-132.68991669,137.62235621,137.19408075,64.05262029,-73.93217785,63.09245662
-63.13666951,-58.97742111,-137.96095336,-47.86003323,-78.39518346,177.87721428
59.28316375,89.58815017,-166.97418085,-52.34178531,75.00311977,157.19963374
-47.45605179,179.94285573,-179.33103450,168.92746428,29.10638709,11.11886937
46.71754709,0.82042111,0.81704226,2.16394227

>  <Name>
1j7t

>  <RI>
0

>  <Rbt.Current_Directory>
/home/itssahil/PROJECTS/Mol_Feturizer/New_Systems/rnas/1j7t

>  <Rbt.Executable>
rbdock ($Id: //depot/dev/client3/rdock/2013.1/src/exe/rbdock.cxx#4 $)

>  <Rbt.Library>
libRbt.so (2013.1, Build901 2013/11/27)

>  <Rbt.Parameter_File>
/export/apps/rDock/src/rDock_2013.1_src/data/scripts/dock_solv.prm

>  <Rbt.Receptor>
prm/blind_docking_60.prm

>  <SCORE>
3.17842

>  <SCORE.INTER>
-29.03

>  <SCORE.INTER.CONST>
1

>  <SCORE.INTER.POLAR>
-4.76852

>  <SCORE.INTER.ROT>
9

>  <SCORE.INTER.SOLV>
32.2706

>  <SCORE.INTER.VDW>
-23.8151

>  <SCORE.INTER.norm>
-0.69119

>  <SCORE.INTRA>
0.475947

>  <SCORE.INTRA.DIHEDRAL>
-16.6546

>  <SCORE.INTRA.DIHEDRAL.0>
46.2143

>  <SCORE.INTRA.POLAR>
0.814176

>  <SCORE.INTRA.POLAR.0>
-1.76436

>  <SCORE.INTRA.REPUL>
0

>  <SCORE.INTRA.REPUL.0>
0

>  <SCORE.INTRA.SOLV>
-3.7617

>  <SCORE.INTRA.SOLV.lig_0>
-148.643

>  <SCORE.INTRA.VDW>
7.91592

>  <SCORE.INTRA.VDW.0>
-4.83512

>  <SCORE.INTRA.norm>
0.0113321

>  <SCORE.RESTR>
31.7324

>  <SCORE.RESTR.CAVITY>
31.7324

>  <SCORE.RESTR.norm>
0.755534

>  <SCORE.SYSTEM>
0

>  <SCORE.SYSTEM.CONST>
0

>  <SCORE.SYSTEM.DIHEDRAL>
0

>  <SCORE.SYSTEM.SOLV>
0

>  <SCORE.SYSTEM.norm>
0

>  <SCORE.heavy>
42

>  <SCORE.norm>
0.0756768

>  <RMSD>
12.212

$$$$
1j7t
 OpenBabel11021811393D
libRbt.so/2013.1/901 2013/11/27
 42 45  0  0  0  0  0  0  0  0999 V2000
   29.9165   11.1937   50.1601 C   0  0  2  0  0  0  0  0  0  0  0  0
   30.9588   10.9731   49.1765 O   0  0  0  0  0  0  0  0  0  0  0  0
   30.6262   11.4426   51.5219 C   0  0  2  0  0  0  0  0  0  0  0  0
   31.6578   12.5190   51.4942 N   0  3  0  0  0  0  0  0  0  0  0  0
   31.3194   10.1299   51.9477 C   0  0  1  0  0  0  0  0  0  0  0  0
   31.9640   10.2897   53.1799 O   0  0  0  0  0  0  0  0  0  0  0  0
   30.2843    8.9823   52.0186 C   0  0  2  0  0  0  0  0  0  0  0  0
   30.8951    7.7746   52.4280 O   0  0  0  0  0  0  0  0  0  0  0  0
   29.6467    8.7806   50.6604 C   0  0  2  0  0  0  0  0  0  0  0  0
   29.0679   10.0048   50.2266 O   0  0  0  0  0  0  0  0  0  0  0  0
   28.5372    7.7530   50.6732 C   0  0  0  0  0  0  0  0  0  0  0  0
   27.4108    8.2669   49.9889 O   0  0  0  0  0  0  0  0  0  0  0  0
   31.9002   14.5834   47.1947 C   0  0  2  0  0  0  0  0  0  0  0  0
   32.0705   15.5806   46.1374 N   0  3  0  0  0  0  0  0  0  0  0  0
   32.8042   13.3393   46.9059 C   0  0  0  0  0  0  0  0  0  0  0  0
   32.5912   12.2664   47.9909 C   0  0  2  0  0  0  0  0  0  0  0  0
   33.3912   11.0705   47.7065 N   0  3  0  0  0  0  0  0  0  0  0  0
   31.1020   11.8783   48.0758 C   0  0  2  0  0  0  0  0  0  0  0  0
   30.1846   13.0898   48.3325 C   0  0  2  0  0  0  0  0  0  0  0  0
   28.8350   12.5965   48.2287 O   0  0  0  0  0  0  0  0  0  0  0  0
   30.4337   14.1892   47.2689 C   0  0  1  0  0  0  0  0  0  0  0  0
   29.6630   15.3165   47.5823 O   0  0  0  0  0  0  0  0  0  0  0  0
   28.4023   11.6985   47.2101 C   0  0  1  0  0  0  0  0  0  0  0  0
   28.2044   12.5094   45.8800 C   0  0  2  0  0  0  0  0  0  0  0  0
   26.9129   13.0760   45.7384 O   0  0  0  0  0  0  0  0  0  0  0  0
   28.5230   11.3952   44.8929 C   0  0  2  0  0  0  0  0  0  0  0  0
   27.4851   10.3694   44.9043 O   0  0  0  0  0  0  0  0  0  0  0  0
   29.7853   10.7795   45.4802 C   0  0  2  0  0  0  0  0  0  0  0  0
   29.4473   10.7441   46.8774 O   0  0  0  0  0  0  0  0  0  0  0  0
   31.1002   11.5775   45.1973 C   0  0  0  0  0  0  0  0  0  0  0  0
   30.9512   12.4649   44.0819 O   0  0  0  0  0  0  0  0  0  0  0  0
   26.5991   10.4287   43.7894 C   0  0  2  0  0  0  0  0  0  0  0  0
   25.5990    9.2275   43.6833 C   0  0  2  0  0  0  0  0  0  0  0  0
   26.2880    7.9036   43.6054 N   0  3  0  0  0  0  0  0  0  0  0  0
   24.7059    9.4849   42.4241 C   0  0  1  0  0  0  0  0  0  0  0  0
   23.9420   10.7260   42.6762 O   0  0  0  0  0  0  0  0  0  0  0  0
   25.5556    9.6717   41.1071 C   0  0  2  0  0  0  0  0  0  0  0  0
   26.2517    8.4445   40.8346 O   0  0  0  0  0  0  0  0  0  0  0  0
   26.5582   10.8781   41.3336 C   0  0  1  0  0  0  0  0  0  0  0  0
   27.3704   10.5630   42.5145 O   0  0  0  0  0  0  0  0  0  0  0  0
   27.4811   11.1800   40.1311 C   0  0  0  0  0  0  0  0  0  0  0  0
   28.2986   10.0119   39.7047 N   0  3  0  0  0  0  0  0  0  0  0  0
  1  2  1  6  0  0  0
  1  3  1  0  0  0  0
  1 10  1  0  0  0  0
  3  4  1  6  0  0  0
  3  5  1  0  0  0  0
  5  6  1  1  0  0  0
  5  7  1  0  0  0  0
  7  8  1  6  0  0  0
  7  9  1  0  0  0  0
  9 10  1  0  0  0  0
  9 11  1  1  0  0  0
 11 12  1  0  0  0  0
 13 14  1  6  0  0  0
 13 15  1  0  0  0  0
 13 21  1  0  0  0  0
 15 16  1  0  0  0  0
 16 17  1  6  0  0  0
 16 18  1  0  0  0  0
 18  2  1  1  0  0  0
 18 19  1  0  0  0  0
 19 20  1  6  0  0  0
 19 21  1  0  0  0  0
 21 22  1  1  0  0  0
 23 20  1  1  0  0  0
 23 24  1  0  0  0  0
 23 29  1  0  0  0  0
 24 25  1  6  0  0  0
 24 26  1  0  0  0  0
 26 27  1  1  0  0  0
 26 28  1  0  0  0  0
 28 29  1  0  0  0  0
 28 30  1  1  0  0  0
 30 31  1  0  0  0  0
 32 27  1  1  0  0  0
 32 33  1  0  0  0  0
 32 40  1  0  0  0  0
 33 34  1  6  0  0  0
 33 35  1  0  0  0  0
 35 36  1  1  0  0  0
 35 37  1  0  0  0  0
 37 38  1  1  0  0  0
 37 39  1  0  0  0  0
 39 40  1  0  0  0  0
 39 41  1  6  0  0  0
 41 42  1  0  0  0  0
M  CHG  5   4   1  14   1  17   1  34   1  42   1
M  END
>  <CHROM.1>
-117.36571291,131.18213866,-59.90000376,58.05698067,-60.29868774,132.89041864
-42.41387454,-68.45220951,14.80020735,-43.00419533,-77.34574113,-177.94057434
61.49221323,103.57123761,172.30846028,-19.93713244,68.50871032,42.91917903
-171.26370380,160.17183532,-56.88468672,116.35887099,29.16109638,11.06714182
46.67754827,0.83685958,0.81867845,2.06969292

>  <Name>
1j7t

>  <RI>
0

>  <Rbt.Current_Directory>
/home/itssahil/PROJECTS/Mol_Feturizer/New_Systems/rnas/1j7t

>  <Rbt.Executable>
rbdock ($Id: //depot/dev/client3/rdock/2013.1/src/exe/rbdock.cxx#4 $)

>  <Rbt.Library>
libRbt.so (2013.1, Build901 2013/11/27)

>  <Rbt.Parameter_File>
/export/apps/rDock/src/rDock_2013.1_src/data/scripts/dock_solv.prm

>  <Rbt.Receptor>
prm/blind_docking_60.prm

>  <SCORE>
20.7747

>  <SCORE.INTER>
-23.2726

>  <SCORE.INTER.CONST>
1

>  <SCORE.INTER.POLAR>
-3.51823

>  <SCORE.INTER.ROT>
9

>  <SCORE.INTER.SOLV>
34.3799

>  <SCORE.INTER.VDW>
-24.8476

>  <SCORE.INTER.norm>
-0.55411

>  <SCORE.INTRA>
13.0258

>  <SCORE.INTRA.DIHEDRAL>
-3.12328

>  <SCORE.INTRA.DIHEDRAL.0>
46.2143

>  <SCORE.INTRA.POLAR>
0.806735

>  <SCORE.INTRA.POLAR.0>
-1.76436

>  <SCORE.INTRA.REPUL>
0.00717736

>  <SCORE.INTRA.REPUL.0>
0

>  <SCORE.INTRA.SOLV>
1.93539

>  <SCORE.INTRA.SOLV.lig_0>
-148.643

>  <SCORE.INTRA.VDW>
10.8409

>  <SCORE.INTRA.VDW.0>
-4.83512

>  <SCORE.INTRA.norm>
0.310137

>  <SCORE.RESTR>
31.0216

>  <SCORE.RESTR.CAVITY>
31.0216

>  <SCORE.RESTR.norm>
0.738609

>  <SCORE.SYSTEM>
0

>  <SCORE.SYSTEM.CONST>
0

>  <SCORE.SYSTEM.DIHEDRAL>
0

>  <SCORE.SYSTEM.SOLV>
0

>  <SCORE.SYSTEM.norm>
0

>  <SCORE.heavy>
42

>  <SCORE.norm>
0.494636

>  <RMSD>
12.216

$$$$
1j7t
 OpenBabel11021811393D
libRbt.so/2013.1/901 2013/11/27
 42 45  0  0  0  0  0  0  0  0999 V2000
   29.9171   11.1787   50.1726 C   0  0  2  0  0  0  0  0  0  0  0  0
   30.9231   10.9190   49.1612 O   0  0  0  0  0  0  0  0  0  0  0  0
   30.6750   11.4571   51.5023 C   0  0  2  0  0  0  0  0  0  0  0  0
   31.7163   12.5204   51.4099 N   0  3  0  0  0  0  0  0  0  0  0  0
   31.3682   10.1488   51.9413 C   0  0  1  0  0  0  0  0  0  0  0  0
   32.0558   10.3352   53.1463 O   0  0  0  0  0  0  0  0  0  0  0  0
   30.3241    9.0155   52.0791 C   0  0  2  0  0  0  0  0  0  0  0  0
   30.9356    7.8127   52.5015 O   0  0  0  0  0  0  0  0  0  0  0  0
   29.6388    8.7836   50.7491 C   0  0  2  0  0  0  0  0  0  0  0  0
   29.0587   10.0020   50.3008 O   0  0  0  0  0  0  0  0  0  0  0  0
   28.5197    7.7696   50.8279 C   0  0  0  0  0  0  0  0  0  0  0  0
   27.4186    8.2225   50.0639 O   0  0  0  0  0  0  0  0  0  0  0  0
   32.3399   14.6570   47.7946 C   0  0  2  0  0  0  0  0  0  0  0  0
   32.7043   15.7602   46.9048 N   0  3  0  0  0  0  0  0  0  0  0  0
   33.1861   13.3879   47.4458 C   0  0  0  0  0  0  0  0  0  0  0  0
   32.7710   12.2100   48.3479 C   0  0  2  0  0  0  0  0  0  0  0  0
   33.5170   10.9967   47.9982 N   0  3  0  0  0  0  0  0  0  0  0  0
   31.2597   11.9388   48.2135 C   0  0  2  0  0  0  0  0  0  0  0  0
   30.4019   13.1807   48.5248 C   0  0  2  0  0  0  0  0  0  0  0  0
   29.0447   12.8174   48.2063 O   0  0  0  0  0  0  0  0  0  0  0  0
   30.8519   14.3792   47.6514 C   0  0  1  0  0  0  0  0  0  0  0  0
   30.1268   15.5187   48.0237 O   0  0  0  0  0  0  0  0  0  0  0  0
   28.6915   11.9851   47.1045 C   0  0  1  0  0  0  0  0  0  0  0  0
   28.0573   12.8830   45.9831 C   0  0  2  0  0  0  0  0  0  0  0  0
   26.6582   13.0672   46.1161 O   0  0  0  0  0  0  0  0  0  0  0  0
   28.4793   12.0583   44.7753 C   0  0  2  0  0  0  0  0  0  0  0  0
   27.7662   10.7858   44.7318 O   0  0  0  0  0  0  0  0  0  0  0  0
   29.9418   11.7566   45.0712 C   0  0  2  0  0  0  0  0  0  0  0  0
   29.8754   11.4293   46.4698 O   0  0  0  0  0  0  0  0  0  0  0  0
   30.9300   12.9313   44.7724 C   0  0  0  0  0  0  0  0  0  0  0  0
   31.5518   12.7864   43.4893 O   0  0  0  0  0  0  0  0  0  0  0  0
   26.6413   10.7812   43.8565 C   0  0  2  0  0  0  0  0  0  0  0  0
   25.8063    9.4558   43.8705 C   0  0  2  0  0  0  0  0  0  0  0  0
   26.6204    8.2530   43.5184 N   0  3  0  0  0  0  0  0  0  0  0  0
   24.6151    9.6543   42.8749 C   0  0  1  0  0  0  0  0  0  0  0  0
   23.7806   10.7542   43.4053 O   0  0  0  0  0  0  0  0  0  0  0  0
   25.0979   10.0397   41.4224 C   0  0  2  0  0  0  0  0  0  0  0  0
   25.8604    8.9450   40.8888 O   0  0  0  0  0  0  0  0  0  0  0  0
   25.9632   11.3636   41.5251 C   0  0  1  0  0  0  0  0  0  0  0  0
   27.0652   11.1010   42.4578 O   0  0  0  0  0  0  0  0  0  0  0  0
   26.5289   11.8667   40.1775 C   0  0  0  0  0  0  0  0  0  0  0  0
   27.8783   11.3241   39.8627 N   0  3  0  0  0  0  0  0  0  0  0  0
  1  2  1  6  0  0  0
  1  3  1  0  0  0  0
  1 10  1  0  0  0  0
  3  4  1  6  0  0  0
  3  5  1  0  0  0  0
  5  6  1  1  0  0  0
  5  7  1  0  0  0  0
  7  8  1  6  0  0  0
  7  9  1  0  0  0  0
  9 10  1  0  0  0  0
  9 11  1  1  0  0  0
 11 12  1  0  0  0  0
 13 14  1  6  0  0  0
 13 15  1  0  0  0  0
 13 21  1  0  0  0  0
 15 16  1  0  0  0  0
 16 17  1  6  0  0  0
 16 18  1  0  0  0  0
 18  2  1  1  0  0  0
 18 19  1  0  0  0  0
 19 20  1  6  0  0  0
 19 21  1  0  0  0  0
 21 22  1  1  0  0  0
 23 20  1  1  0  0  0
 23 24  1  0  0  0  0
 23 29  1  0  0  0  0
 24 25  1  1  0  0  0
 24 26  1  0  0  0  0
 26 27  1  1  0  0  0
 26 28  1  0  0  0  0
 28 29  1  0  0  0  0
 28 30  1  1  0  0  0
 30 31  1  0  0  0  0
 32 27  1  1  0  0  0
 32 33  1  0  0  0  0
 32 40  1  0  0  0  0
 33 34  1  6  0  0  0
 33 35  1  0  0  0  0
 35 36  1  1  0  0  0
 35 37  1  0  0  0  0
 37 38  1  1  0  0  0
 37 39  1  0  0  0  0
 39 40  1  0  0  0  0
 39 41  1  6  0  0  0
 41 42  1  0  0  0  0
M  CHG  5   4   1  14   1  17   1  34   1  42   1
M  END
>  <CHROM.1>
-102.47549600,122.07313864,177.80846494,-75.45066428,65.69747651,138.24815575
-44.36220201,-71.50805576,-142.01369472,-36.86144289,-106.05161879,-62.35238016
-175.54710064,98.33715706,-176.02838588,-97.31548292,52.88152725,-95.09718850
-55.75756188,171.69677266,-90.80315842,-178.15373767,29.21334468,11.33081577
46.78196096,0.82738817,0.75077447,2.08981833

>  <Name>
1j7t

>  <RI>
0

>  <Rbt.Current_Directory>
/home/itssahil/PROJECTS/Mol_Feturizer/New_Systems/rnas/1j7t

>  <Rbt.Executable>
rbdock ($Id: //depot/dev/client3/rdock/2013.1/src/exe/rbdock.cxx#4 $)

>  <Rbt.Library>
libRbt.so (2013.1, Build901 2013/11/27)

>  <Rbt.Parameter_File>
/export/apps/rDock/src/rDock_2013.1_src/data/scripts/dock_solv.prm

>  <Rbt.Receptor>
prm/blind_docking_60.prm

>  <SCORE>
13.4061

>  <SCORE.INTER>
-33.5292

>  <SCORE.INTER.CONST>
1

>  <SCORE.INTER.POLAR>
-5.28793

>  <SCORE.INTER.ROT>
9

>  <SCORE.INTER.SOLV>
36.4753

>  <SCORE.INTER.VDW>
-26.4848

>  <SCORE.INTER.norm>
-0.798315

>  <SCORE.INTRA>
12.8104

>  <SCORE.INTRA.DIHEDRAL>
-0.419865

>  <SCORE.INTRA.DIHEDRAL.0>
46.2143

>  <SCORE.INTRA.POLAR>
0.715282

>  <SCORE.INTRA.POLAR.0>
-1.76436

>  <SCORE.INTRA.REPUL>
0

>  <SCORE.INTRA.REPUL.0>
0

>  <SCORE.INTRA.SOLV>
-0.479001

>  <SCORE.INTRA.SOLV.lig_0>
-148.643

>  <SCORE.INTRA.VDW>
10.8279

>  <SCORE.INTRA.VDW.0>
-4.83512

>  <SCORE.INTRA.norm>
0.30501

>  <SCORE.RESTR>
34.1249

>  <SCORE.RESTR.CAVITY>
34.1249

>  <SCORE.RESTR.norm>
0.812499

>  <SCORE.SYSTEM>
0

>  <SCORE.SYSTEM.CONST>
0

>  <SCORE.SYSTEM.DIHEDRAL>
0

>  <SCORE.SYSTEM.SOLV>
0

>  <SCORE.SYSTEM.norm>
0

>  <SCORE.heavy>
42

>  <SCORE.norm>
0.319194

>  <RMSD>
12.225

$$$$
1j7t
 OpenBabel11021811393D
libRbt.so/2013.1/901 2013/11/27
 42 45  0  0  0  0  0  0  0  0999 V2000
   29.8274   11.2551   50.0109 C   0  0  2  0  0  0  0  0  0  0  0  0
   30.7719   11.0676   48.9268 O   0  0  0  0  0  0  0  0  0  0  0  0
   30.6489   11.2469   51.3319 C   0  0  2  0  0  0  0  0  0  0  0  0
   31.7868   12.2102   51.3588 N   0  3  0  0  0  0  0  0  0  0  0  0
   31.2227    9.8269   51.5302 C   0  0  1  0  0  0  0  0  0  0  0  0
   31.9614    9.7545   52.7170 O   0  0  0  0  0  0  0  0  0  0  0  0
   30.0765    8.7878   51.5373 C   0  0  2  0  0  0  0  0  0  0  0  0
   30.5788    7.4816   51.7393 O   0  0  0  0  0  0  0  0  0  0  0  0
   29.3318    8.8350   50.2200 C   0  0  2  0  0  0  0  0  0  0  0  0
   28.8614   10.1577   49.9934 O   0  0  0  0  0  0  0  0  0  0  0  0
   28.1209    7.9295   50.1909 C   0  0  0  0  0  0  0  0  0  0  0  0
   28.5415    6.5791   50.2160 O   0  0  0  0  0  0  0  0  0  0  0  0
   31.7797   14.8547   47.3488 C   0  0  2  0  0  0  0  0  0  0  0  0
   31.9633   15.9599   46.4073 N   0  3  0  0  0  0  0  0  0  0  0  0
   32.6506   13.6305   46.9114 C   0  0  0  0  0  0  0  0  0  0  0  0
   32.4229   12.4481   47.8724 C   0  0  2  0  0  0  0  0  0  0  0  0
   33.1910   11.2736   47.4461 N   0  3  0  0  0  0  0  0  0  0  0  0
   30.9257   12.0869   47.9323 C   0  0  2  0  0  0  0  0  0  0  0  0
   30.0403   13.2826   48.3343 C   0  0  2  0  0  0  0  0  0  0  0  0
   28.6783   12.8348   48.1932 O   0  0  0  0  0  0  0  0  0  0  0  0
   30.3049   14.4881   47.3971 C   0  0  1  0  0  0  0  0  0  0  0  0
   29.5647   15.5905   47.8442 O   0  0  0  0  0  0  0  0  0  0  0  0
   28.1902   12.1528   47.0409 C   0  0  1  0  0  0  0  0  0  0  0  0
   28.1818   13.1559   45.8327 C   0  0  2  0  0  0  0  0  0  0  0  0
   26.9886   13.9127   45.7216 O   0  0  0  0  0  0  0  0  0  0  0  0
   28.4062   12.1517   44.7109 C   0  0  2  0  0  0  0  0  0  0  0  0
   27.2414   11.2904   44.5349 O   0  0  0  0  0  0  0  0  0  0  0  0
   29.5376   11.2906   45.2546 C   0  0  2  0  0  0  0  0  0  0  0  0
   29.1158   11.1145   46.6180 O   0  0  0  0  0  0  0  0  0  0  0  0
   30.9620   11.9261   45.1408 C   0  0  0  0  0  0  0  0  0  0  0  0
   31.1060   12.6903   43.9369 O   0  0  0  0  0  0  0  0  0  0  0  0
   27.1736   10.6607   43.2580 C   0  0  2  0  0  0  0  0  0  0  0  0
   26.1742   11.3265   42.2520 C   0  0  2  0  0  0  0  0  0  0  0  0
   24.7742   11.3777   42.7725 N   0  3  0  0  0  0  0  0  0  0  0  0
   26.2606   10.5156   40.9161 C   0  0  1  0  0  0  0  0  0  0  0  0
   27.6378   10.6700   40.3992 O   0  0  0  0  0  0  0  0  0  0  0  0
   25.9656    8.9786   41.1206 C   0  0  2  0  0  0  0  0  0  0  0  0
   24.6084    8.8294   41.5683 O   0  0  0  0  0  0  0  0  0  0  0  0
   26.9995    8.4146   42.1813 C   0  0  1  0  0  0  0  0  0  0  0  0
   26.8525    9.2071   43.4075 O   0  0  0  0  0  0  0  0  0  0  0  0
   26.8301    6.9132   42.5071 C   0  0  0  0  0  0  0  0  0  0  0  0
   25.7474    6.6396   43.4907 N   0  3  0  0  0  0  0  0  0  0  0  0
  1  2  1  6  0  0  0
  1  3  1  0  0  0  0
  1 10  1  0  0  0  0
  3  4  1  6  0  0  0
  3  5  1  0  0  0  0
  5  6  1  1  0  0  0
  5  7  1  0  0  0  0
  7  8  1  6  0  0  0
  7  9  1  0  0  0  0
  9 10  1  0  0  0  0
  9 11  1  1  0  0  0
 11 12  1  0  0  0  0
 13 14  1  6  0  0  0
 13 15  1  0  0  0  0
 13 21  1  0  0  0  0
 15 16  1  0  0  0  0
 16 17  1  6  0  0  0
 16 18  1  0  0  0  0
 18  2  1  1  0  0  0
 18 19  1  0  0  0  0
 19 20  1  6  0  0  0
 19 21  1  0  0  0  0
 21 22  1  1  0  0  0
 23 20  1  1  0  0  0
 23 24  1  0  0  0  0
 23 29  1  0  0  0  0
 24 25  1  6  0  0  0
 24 26  1  0  0  0  0
 26 27  1  1  0  0  0
 26 28  1  0  0  0  0
 28 29  1  0  0  0  0
 28 30  1  1  0  0  0
 30 31  1  0  0  0  0
 32 27  1  1  0  0  0
 32 33  1  0  0  0  0
 32 40  1  0  0  0  0
 33 34  1  1  0  0  0
 33 35  1  0  0  0  0
 35 36  1  1  0  0  0
 35 37  1  0  0  0  0
 37 38  1  1  0  0  0
 37 39  1  0  0  0  0
 39 40  1  0  0  0  0
 39 41  1  1  0  0  0
 41 42  1  0  0  0  0
M  CHG  5   4   1  14   1  17   1  34   1  42   1
M  END
>  <CHROM.1>
-118.20119834,125.69756876,68.25267870,-157.47278133,57.61162043,-68.20411468
52.84255660,-58.48077123,-34.81099352,-47.84245405,-68.19969368,173.74861399
-52.67529750,159.47134394,-101.52745878,-35.93175186,69.72494801,83.56388901
-40.23707221,170.23379824,-80.90574378,164.36156429,29.08441506,11.05035036
46.62841131,0.55625744,0.94890581,2.34171857

>  <Name>
1j7t

>  <RI>
0

>  <Rbt.Current_Directory>
/home/itssahil/PROJECTS/Mol_Feturizer/New_Systems/rnas/1j7t

>  <Rbt.Executable>
rbdock ($Id: //depot/dev/client3/rdock/2013.1/src/exe/rbdock.cxx#4 $)

>  <Rbt.Library>
libRbt.so (2013.1, Build901 2013/11/27)

>  <Rbt.Parameter_File>
/export/apps/rDock/src/rDock_2013.1_src/data/scripts/dock_solv.prm

>  <Rbt.Receptor>
prm/blind_docking_60.prm

>  <SCORE>
8.8352

>  <SCORE.INTER>
-29.1848

>  <SCORE.INTER.CONST>
1

>  <SCORE.INTER.POLAR>
-4.92636

>  <SCORE.INTER.ROT>
9

>  <SCORE.INTER.SOLV>
29.7328

>  <SCORE.INTER.VDW>
-22.5462

>  <SCORE.INTER.norm>
-0.694876

>  <SCORE.INTRA>
6.07102

>  <SCORE.INTRA.DIHEDRAL>
-10.5778

>  <SCORE.INTRA.DIHEDRAL.0>
46.2143

>  <SCORE.INTRA.POLAR>
1.01447

>  <SCORE.INTRA.POLAR.0>
-1.76436

>  <SCORE.INTRA.REPUL>
0

>  <SCORE.INTRA.REPUL.0>
0

>  <SCORE.INTRA.SOLV>
1.05763

>  <SCORE.INTRA.SOLV.lig_0>
-148.643

>  <SCORE.INTRA.VDW>
7.38193

>  <SCORE.INTRA.VDW.0>
-4.83512

>  <SCORE.INTRA.norm>
0.144548

>  <SCORE.RESTR>
31.949

>  <SCORE.RESTR.CAVITY>
31.949

>  <SCORE.RESTR.norm>
0.760689

>  <SCORE.SYSTEM>
0

>  <SCORE.SYSTEM.CONST>
0

>  <SCORE.SYSTEM.DIHEDRAL>
0

>  <SCORE.SYSTEM.SOLV>
0

>  <SCORE.SYSTEM.norm>
0

>  <SCORE.heavy>
42

>  <SCORE.norm>
0.210362

>  <RMSD>
12.246

$$$$
1j7t
 OpenBabel11021811393D
libRbt.so/2013.1/901 2013/11/27
 42 45  0  0  0  0  0  0  0  0999 V2000
   29.7507   11.1399   50.1257 C   0  0  2  0  0  0  0  0  0  0  0  0
   30.7488   10.9050   49.1005 O   0  0  0  0  0  0  0  0  0  0  0  0
   30.5052   11.2021   51.4847 C   0  0  2  0  0  0  0  0  0  0  0  0
   31.6366   12.1728   51.5202 N   0  3  0  0  0  0  0  0  0  0  0  0
   31.0738    9.7973   51.7815 C   0  0  1  0  0  0  0  0  0  0  0  0
   31.7526    9.7884   53.0057 O   0  0  0  0  0  0  0  0  0  0  0  0
   29.9327    8.7526   51.7832 C   0  0  2  0  0  0  0  0  0  0  0  0
   30.4293    7.4612   52.0745 O   0  0  0  0  0  0  0  0  0  0  0  0
   29.2546    8.7300   50.4298 C   0  0  2  0  0  0  0  0  0  0  0  0
   28.7910   10.0368   50.1147 O   0  0  0  0  0  0  0  0  0  0  0  0
   28.0502    7.8164   50.3855 C   0  0  0  0  0  0  0  0  0  0  0  0
   28.4807    6.4689   50.3793 O   0  0  0  0  0  0  0  0  0  0  0  0
   32.0155   14.7151   47.7862 C   0  0  2  0  0  0  0  0  0  0  0  0
   32.3545   15.8371   46.9102 N   0  3  0  0  0  0  0  0  0  0  0  0
   32.9413   13.4934   47.4716 C   0  0  0  0  0  0  0  0  0  0  0  0
   32.5552   12.2940   48.3581 C   0  0  2  0  0  0  0  0  0  0  0  0
   33.3780   11.1227   48.0388 N   0  3  0  0  0  0  0  0  0  0  0  0
   31.0668   11.9425   48.1656 C   0  0  2  0  0  0  0  0  0  0  0  0
   30.1324   13.1364   48.4423 C   0  0  2  0  0  0  0  0  0  0  0  0
   28.8099   12.7013   48.0718 O   0  0  0  0  0  0  0  0  0  0  0  0
   30.5512   14.3582   47.5858 C   0  0  1  0  0  0  0  0  0  0  0  0
   29.7522   15.4569   47.9287 O   0  0  0  0  0  0  0  0  0  0  0  0
   28.5484   11.8210   46.9819 C   0  0  1  0  0  0  0  0  0  0  0  0
   28.1360   12.6799   45.7336 C   0  0  2  0  0  0  0  0  0  0  0  0
   26.7485   12.9607   45.6615 O   0  0  0  0  0  0  0  0  0  0  0  0
   28.6554   11.7509   44.6454 C   0  0  2  0  0  0  0  0  0  0  0  0
   27.8649   10.5260   44.5777 O   0  0  0  0  0  0  0  0  0  0  0  0
   30.0396   11.3778   45.1572 C   0  0  2  0  0  0  0  0  0  0  0  0
   29.7635   11.1500   46.5499 O   0  0  0  0  0  0  0  0  0  0  0  0
   31.1407   12.4649   44.9301 C   0  0  0  0  0  0  0  0  0  0  0  0
   30.5734   13.7751   44.8065 O   0  0  0  0  0  0  0  0  0  0  0  0
   26.7471   10.6053   43.6970 C   0  0  2  0  0  0  0  0  0  0  0  0
   25.7488    9.4020   43.7962 C   0  0  2  0  0  0  0  0  0  0  0  0
   26.4010    8.0833   43.5333 N   0  3  0  0  0  0  0  0  0  0  0  0
   24.5910    9.6825   42.7811 C   0  0  1  0  0  0  0  0  0  0  0  0
   23.9057   10.9143   43.2289 O   0  0  0  0  0  0  0  0  0  0  0  0
   25.1164    9.9016   41.3089 C   0  0  2  0  0  0  0  0  0  0  0  0
   25.7311    8.6839   40.8571 O   0  0  0  0  0  0  0  0  0  0  0  0
   26.1448   11.1075   41.3264 C   0  0  1  0  0  0  0  0  0  0  0  0
   27.2058   10.7707   42.2826 O   0  0  0  0  0  0  0  0  0  0  0  0
   26.7678   11.4397   39.9515 C   0  0  0  0  0  0  0  0  0  0  0  0
   28.0011   12.2671   40.0449 N   0  3  0  0  0  0  0  0  0  0  0  0
  1  2  1  6  0  0  0
  1  3  1  0  0  0  0
  1 10  1  0  0  0  0
  3  4  1  6  0  0  0
  3  5  1  0  0  0  0
  5  6  1  1  0  0  0
  5  7  1  0  0  0  0
  7  8  1  6  0  0  0
  7  9  1  0  0  0  0
  9 10  1  0  0  0  0
  9 11  1  1  0  0  0
 11 12  1  0  0  0  0
 13 14  1  6  0  0  0
 13 15  1  0  0  0  0
 13 21  1  0  0  0  0
 15 16  1  0  0  0  0
 16 17  1  6  0  0  0
 16 18  1  0  0  0  0
 18  2  1  1  0  0  0
 18 19  1  0  0  0  0
 19 20  1  6  0  0  0
 19 21  1  0  0  0  0
 21 22  1  1  0  0  0
 23 20  1  1  0  0  0
 23 24  1  0  0  0  0
 23 29  1  0  0  0  0
 24 25  1  6  0  0  0
 24 26  1  0  0  0  0
 26 27  1  1  0  0  0
 26 28  1  0  0  0  0
 28 29  1  0  0  0  0
 28 30  1  1  0  0  0
 30 31  1  0  0  0  0
 32 27  1  1  0  0  0
 32 33  1  0  0  0  0
 32 40  1  0  0  0  0
 33 34  1  6  0  0  0
 33 35  1  0  0  0  0
 35 36  1  1  0  0  0
 35 37  1  0  0  0  0
 37 38  1  1  0  0  0
 37 39  1  0  0  0  0
 39 40  1  0  0  0  0
 39 41  1  6  0  0  0
 41 42  1  0  0  0  0
M  CHG  5   4   1  14   1  17   1  34   1  42   1
M  END
>  <CHROM.1>
-110.38901562,118.19184556,-55.79580637,65.66514771,65.15403829,-73.33687620
-56.06487959,-46.93214465,-24.68830263,-34.94072645,-97.61886006,72.07137671
63.80702687,89.56390876,-169.82731189,24.24828546,-170.91999014,46.56901635
-58.89654145,77.63089874,-162.57126605,47.74223046,29.09878959,11.20009096
46.73144263,0.78034517,0.83413706,2.20159901

>  <Name>
1j7t

>  <RI>
0

>  <Rbt.Current_Directory>
/home/itssahil/PROJECTS/Mol_Feturizer/New_Systems/rnas/1j7t

>  <Rbt.Executable>
rbdock ($Id: //depot/dev/client3/rdock/2013.1/src/exe/rbdock.cxx#4 $)

>  <Rbt.Library>
libRbt.so (2013.1, Build901 2013/11/27)

>  <Rbt.Parameter_File>
/export/apps/rDock/src/rDock_2013.1_src/data/scripts/dock_solv.prm

>  <Rbt.Receptor>
prm/blind_docking_60.prm

>  <SCORE>
17.7101

>  <SCORE.INTER>
-28.1744

>  <SCORE.INTER.CONST>
1

>  <SCORE.INTER.POLAR>
-4.53435

>  <SCORE.INTER.ROT>
9

>  <SCORE.INTER.SOLV>
32.2713

>  <SCORE.INTER.VDW>
-24.0255

>  <SCORE.INTER.norm>
-0.670818

>  <SCORE.INTRA>
12.559

>  <SCORE.INTRA.DIHEDRAL>
-8.76704

>  <SCORE.INTRA.DIHEDRAL.0>
46.2143

>  <SCORE.INTRA.POLAR>
0.952388

>  <SCORE.INTRA.POLAR.0>
-1.76436

>  <SCORE.INTRA.REPUL>
0

>  <SCORE.INTRA.REPUL.0>
0

>  <SCORE.INTRA.SOLV>
1.35225

>  <SCORE.INTRA.SOLV.lig_0>
-148.643

>  <SCORE.INTRA.VDW>
13.0283

>  <SCORE.INTRA.VDW.0>
-4.83512

>  <SCORE.INTRA.norm>
0.299024

>  <SCORE.RESTR>
33.3254

>  <SCORE.RESTR.CAVITY>
33.3254

>  <SCORE.RESTR.norm>
0.793462

>  <SCORE.SYSTEM>
0

>  <SCORE.SYSTEM.CONST>
0

>  <SCORE.SYSTEM.DIHEDRAL>
0

>  <SCORE.SYSTEM.SOLV>
0

>  <SCORE.SYSTEM.norm>
0

>  <SCORE.heavy>
42

>  <SCORE.norm>
0.421668

>  <RMSD>
12.251

$$$$
1j7t
 OpenBabel11021811393D
libRbt.so/2013.1/901 2013/11/27
 42 45  0  0  0  0  0  0  0  0999 V2000
   30.6830   11.7853   49.1350 C   0  0  2  0  0  0  0  0  0  0  0  0
   31.9633   11.2428   48.7240 O   0  0  0  0  0  0  0  0  0  0  0  0
   30.8301   12.2112   50.6240 C   0  0  2  0  0  0  0  0  0  0  0  0
   31.9790   13.1220   50.8963 N   0  3  0  0  0  0  0  0  0  0  0  0
   31.0240   10.9342   51.4705 C   0  0  1  0  0  0  0  0  0  0  0  0
   31.1464   11.2557   52.8274 O   0  0  0  0  0  0  0  0  0  0  0  0
   29.8408    9.9634   51.2448 C   0  0  2  0  0  0  0  0  0  0  0  0
   29.9881    8.7954   52.0280 O   0  0  0  0  0  0  0  0  0  0  0  0
   29.7663    9.5750   49.7834 C   0  0  2  0  0  0  0  0  0  0  0  0
   29.6606   10.7501   48.9897 O   0  0  0  0  0  0  0  0  0  0  0  0
   28.5631    8.7184   49.4584 C   0  0  0  0  0  0  0  0  0  0  0  0
   28.7722    7.4073   49.9467 O   0  0  0  0  0  0  0  0  0  0  0  0
   33.1421   13.9956   45.7439 C   0  0  2  0  0  0  0  0  0  0  0  0
   33.7230   14.5495   44.5204 N   0  3  0  0  0  0  0  0  0  0  0  0
   34.2648   13.3541   46.6251 C   0  0  0  0  0  0  0  0  0  0  0  0
   33.6509   12.7265   47.8912 C   0  0  2  0  0  0  0  0  0  0  0  0
   34.6830   12.0733   48.7029 N   0  3  0  0  0  0  0  0  0  0  0  0
   32.5711   11.6954   47.5086 C   0  0  2  0  0  0  0  0  0  0  0  0
   31.4657   12.2936   46.6168 C   0  0  2  0  0  0  0  0  0  0  0  0
   30.6317   11.1879   46.2204 O   0  0  0  0  0  0  0  0  0  0  0  0
   32.0872   12.9674   45.3672 C   0  0  1  0  0  0  0  0  0  0  0  0
   31.0733   13.5892   44.6267 O   0  0  0  0  0  0  0  0  0  0  0  0
   29.3093   11.3431   45.7122 C   0  0  1  0  0  0  0  0  0  0  0  0
   28.5624   12.4162   46.5822 C   0  0  2  0  0  0  0  0  0  0  0  0
   27.9141   11.8816   47.7236 O   0  0  0  0  0  0  0  0  0  0  0  0
   27.6247   12.9548   45.5108 C   0  0  2  0  0  0  0  0  0  0  0  0
   26.6231   11.9605   45.1399 O   0  0  0  0  0  0  0  0  0  0  0  0
   28.5521   13.1412   44.3181 C   0  0  2  0  0  0  0  0  0  0  0  0
   29.3267   11.9314   44.3829 O   0  0  0  0  0  0  0  0  0  0  0  0
   29.4384   14.4287   44.3679 C   0  0  0  0  0  0  0  0  0  0  0  0
   28.6898   15.5700   44.8051 O   0  0  0  0  0  0  0  0  0  0  0  0
   26.8093   11.4071   43.8396 C   0  0  2  0  0  0  0  0  0  0  0  0
   26.0110   12.1282   42.7008 C   0  0  2  0  0  0  0  0  0  0  0  0
   24.5368   12.1445   42.9458 N   0  3  0  0  0  0  0  0  0  0  0  0
   26.3624   11.3978   41.3618 C   0  0  1  0  0  0  0  0  0  0  0  0
   27.8106   11.5865   41.1279 O   0  0  0  0  0  0  0  0  0  0  0  0
   26.0556    9.8506   41.4176 C   0  0  2  0  0  0  0  0  0  0  0  0
   24.6401    9.6713   41.5878 O   0  0  0  0  0  0  0  0  0  0  0  0
   26.8758    9.2280   42.6225 C   0  0  1  0  0  0  0  0  0  0  0  0
   26.4861    9.9463   43.8413 O   0  0  0  0  0  0  0  0  0  0  0  0
   26.6685    7.7095   42.8231 C   0  0  0  0  0  0  0  0  0  0  0  0
   25.2897    7.3522   43.2542 N   0  3  0  0  0  0  0  0  0  0  0  0
  1  2  1  1  0  0  0
  1  3  1  0  0  0  0
  1 10  1  0  0  0  0
  3  4  1  6  0  0  0
  3  5  1  0  0  0  0
  5  6  1  1  0  0  0
  5  7  1  0  0  0  0
  7  8  1  1  0  0  0
  7  9  1  0  0  0  0
  9 10  1  0  0  0  0
  9 11  1  1  0  0  0
 11 12  1  0  0  0  0
 13 14  1  6  0  0  0
 13 15  1  0  0  0  0
 13 21  1  0  0  0  0
 15 16  1  0  0  0  0
 16 17  1  6  0  0  0
 16 18  1  0  0  0  0
 18  2  1  1  0  0  0
 18 19  1  0  0  0  0
 19 20  1  6  0  0  0
 19 21  1  0  0  0  0
 21 22  1  1  0  0  0
 23 20  1  1  0  0  0
 23 24  1  0  0  0  0
 23 29  1  0  0  0  0
 24 25  1  1  0  0  0
 24 26  1  0  0  0  0
 26 27  1  6  0  0  0
 26 28  1  0  0  0  0
 28 29  1  0  0  0  0
 28 30  1  1  0  0  0
 30 31  1  0  0  0  0
 32 27  1  1  0  0  0
 32 33  1  0  0  0  0
 32 40  1  0  0  0  0
 33 34  1  1  0  0  0
 33 35  1  0  0  0  0
 35 36  1  1  0  0  0
 35 37  1  0  0  0  0
 37 38  1  1  0  0  0
 37 39  1  0  0  0  0
 39 40  1  0  0  0  0
 39 41  1  1  0  0  0
 41 42  1  0  0  0  0
M  CHG  5   4   1  14   1  17   1  34   1  42   1
M  END
>  <CHROM.1>
-130.68344063,100.41619418,-41.77579684,75.15382794,178.17582545,-74.40040036
-54.34932634,73.29052548,85.62604554,161.84470655,-43.12435277,67.42896628
76.50470175,-109.00667866,-93.51909624,-43.12483824,-176.15280456,-65.93779842
-163.07651746,161.28245890,-66.70857381,117.52739737,29.38894167,11.46749024
46.32100401,0.72545775,0.64125009,2.05558120

>  <Name>
1j7t

>  <RI>
0

>  <Rbt.Current_Directory>
/home/itssahil/PROJECTS/Mol_Feturizer/New_Systems/rnas/1j7t

>  <Rbt.Executable>
rbdock ($Id: //depot/dev/client3/rdock/2013.1/src/exe/rbdock.cxx#4 $)

>  <Rbt.Library>
libRbt.so (2013.1, Build901 2013/11/27)

>  <Rbt.Parameter_File>
/export/apps/rDock/src/rDock_2013.1_src/data/scripts/dock_solv.prm

>  <Rbt.Receptor>
prm/blind_docking_60.prm

>  <SCORE>
50.9083

>  <SCORE.INTER>
-13.5535

>  <SCORE.INTER.CONST>
1

>  <SCORE.INTER.POLAR>
-2.44522

>  <SCORE.INTER.ROT>
9

>  <SCORE.INTER.SOLV>
23.9114

>  <SCORE.INTER.VDW>
-18.4554

>  <SCORE.INTER.norm>
-0.322703

>  <SCORE.INTRA>
30.0253

>  <SCORE.INTRA.DIHEDRAL>
-6.45346

>  <SCORE.INTRA.DIHEDRAL.0>
46.2143

>  <SCORE.INTRA.POLAR>
0.190983

>  <SCORE.INTRA.POLAR.0>
-1.76436

>  <SCORE.INTRA.REPUL>
0.0651629

>  <SCORE.INTRA.REPUL.0>
0

>  <SCORE.INTRA.SOLV>
4.07502

>  <SCORE.INTRA.SOLV.lig_0>
-148.643

>  <SCORE.INTRA.VDW>
30.2393

>  <SCORE.INTRA.VDW.0>
-4.83512

>  <SCORE.INTRA.norm>
0.714887

>  <SCORE.RESTR>
34.4366

>  <SCORE.RESTR.CAVITY>
34.4366

>  <SCORE.RESTR.norm>
0.819919

>  <SCORE.SYSTEM>
0

>  <SCORE.SYSTEM.CONST>
0

>  <SCORE.SYSTEM.DIHEDRAL>
0

>  <SCORE.SYSTEM.SOLV>
0

>  <SCORE.SYSTEM.norm>
0

>  <SCORE.heavy>
42

>  <SCORE.norm>
1.2121

>  <RMSD>
12.258

$$$$
1j7t
 OpenBabel11021811393D
libRbt.so/2013.1/901 2013/11/27
 42 45  0  0  0  0  0  0  0  0999 V2000
   30.6110   11.0336   50.4967 C   0  0  2  0  0  0  0  0  0  0  0  0
   31.2557   10.9420   49.2012 O   0  0  0  0  0  0  0  0  0  0  0  0
   31.4943   10.2354   51.4981 C   0  0  2  0  0  0  0  0  0  0  0  0
   32.9294   10.6403   51.5159 N   0  3  0  0  0  0  0  0  0  0  0  0
   31.4260    8.7417   51.1118 C   0  0  1  0  0  0  0  0  0  0  0  0
   32.1925    7.9689   51.9920 O   0  0  0  0  0  0  0  0  0  0  0  0
   29.9550    8.2624   51.1048 C   0  0  2  0  0  0  0  0  0  0  0  0
   29.8715    6.8902   50.7740 O   0  0  0  0  0  0  0  0  0  0  0  0
   29.1577    9.0649   50.0987 C   0  0  2  0  0  0  0  0  0  0  0  0
   29.2740   10.4490   50.4035 O   0  0  0  0  0  0  0  0  0  0  0  0
   27.6816    8.7365   50.1147 C   0  0  0  0  0  0  0  0  0  0  0  0
   27.2994    8.3472   51.4199 O   0  0  0  0  0  0  0  0  0  0  0  0
   30.9103   14.9245   47.8343 C   0  0  2  0  0  0  0  0  0  0  0  0
   30.7505   16.0760   46.9455 N   0  3  0  0  0  0  0  0  0  0  0  0
   32.2114   14.1391   47.4620 C   0  0  0  0  0  0  0  0  0  0  0  0
   32.3575   12.8984   48.3636 C   0  0  2  0  0  0  0  0  0  0  0  0
   33.5442   12.1205   47.9925 N   0  3  0  0  0  0  0  0  0  0  0  0
   31.1054   12.0063   48.2544 C   0  0  2  0  0  0  0  0  0  0  0  0
   29.8047   12.7620   48.5893 C   0  0  2  0  0  0  0  0  0  0  0  0
   28.7278   11.8522   48.2927 O   0  0  0  0  0  0  0  0  0  0  0  0
   29.6819   14.0364   47.7159 C   0  0  1  0  0  0  0  0  0  0  0  0
   28.5461   14.7565   48.1088 O   0  0  0  0  0  0  0  0  0  0  0  0
   28.5567   11.2230   47.0254 C   0  0  1  0  0  0  0  0  0  0  0  0
   27.8915   12.2514   46.0426 C   0  0  2  0  0  0  0  0  0  0  0  0
   26.4746   12.2504   46.0811 O   0  0  0  0  0  0  0  0  0  0  0  0
   28.4938   11.7359   44.7431 C   0  0  2  0  0  0  0  0  0  0  0  0
   27.9506   10.4271   44.3941 O   0  0  0  0  0  0  0  0  0  0  0  0
   29.9594   11.5438   45.1072 C   0  0  2  0  0  0  0  0  0  0  0  0
   29.8409   10.9386   46.4063 O   0  0  0  0  0  0  0  0  0  0  0  0
   30.8102   12.8559   45.1280 C   0  0  0  0  0  0  0  0  0  0  0  0
   32.1913   12.5868   45.4000 O   0  0  0  0  0  0  0  0  0  0  0  0
   26.8446   10.4791   43.4966 C   0  0  2  0  0  0  0  0  0  0  0  0
   25.8763    9.2503   43.5790 C   0  0  2  0  0  0  0  0  0  0  0  0
   26.5662    7.9493   43.3244 N   0  3  0  0  0  0  0  0  0  0  0  0
   24.7273    9.5026   42.5467 C   0  0  1  0  0  0  0  0  0  0  0  0
   24.0037   10.7156   42.9855 O   0  0  0  0  0  0  0  0  0  0  0  0
   25.2692    9.7376   41.0830 C   0  0  2  0  0  0  0  0  0  0  0  0
   25.9218    8.5369   40.6391 O   0  0  0  0  0  0  0  0  0  0  0  0
   26.2658   10.9696   41.1177 C   0  0  1  0  0  0  0  0  0  0  0  0
   27.3204   10.6586   42.0895 O   0  0  0  0  0  0  0  0  0  0  0  0
   26.9008   11.3199   39.7528 C   0  0  0  0  0  0  0  0  0  0  0  0
   28.0946   12.2015   39.8644 N   0  3  0  0  0  0  0  0  0  0  0  0
  1  2  1  6  0  0  0
  1  3  1  0  0  0  0
  1 10  1  0  0  0  0
  3  4  1  6  0  0  0
  3  5  1  0  0  0  0
  5  6  1  1  0  0  0
  5  7  1  0  0  0  0
  7  8  1  6  0  0  0
  7  9  1  0  0  0  0
  9 10  1  0  0  0  0
  9 11  1  1  0  0  0
 11 12  1  0  0  0  0
 13 14  1  6  0  0  0
 13 15  1  0  0  0  0
 13 21  1  0  0  0  0
 15 16  1  0  0  0  0
 16 17  1  6  0  0  0
 16 18  1  0  0  0  0
 18  2  1  1  0  0  0
 18 19  1  0  0  0  0
 19 20  1  6  0  0  0
 19 21  1  0  0  0  0
 21 22  1  1  0  0  0
 23 20  1  1  0  0  0
 23 24  1  0  0  0  0
 23 29  1  0  0  0  0
 24 25  1  6  0  0  0
 24 26  1  0  0  0  0
 26 27  1  1  0  0  0
 26 28  1  0  0  0  0
 28 29  1  0  0  0  0
 28 30  1  1  0  0  0
 30 31  1  0  0  0  0
 32 27  1  1  0  0  0
 32 33  1  0  0  0  0
 32 40  1  0  0  0  0
 33 34  1  6  0  0  0
 33 35  1  0  0  0  0
 35 36  1  1  0  0  0
 35 37  1  0  0  0  0
 37 38  1  1  0  0  0
 37 39  1  0  0  0  0
 39 40  1  0  0  0  0
 39 41  1  6  0  0  0
 41 42  1  0  0  0  0
M  CHG  5   4   1  14   1  17   1  34   1  42   1
M  END
>  <CHROM.1>
-150.40176069,97.85723151,-24.39718570,51.58384391,-56.70233695,30.51053363
51.86052344,-39.56147196,-168.28728288,-54.89778383,-79.53747553,-49.32460196
-114.71035335,94.81401163,-154.79100483,-176.54978152,81.52765818,169.25179887
-38.14645416,-179.77258529,-163.74945628,-84.83701784,29.07781433,11.03295425
46.66624876,0.76893107,0.83836909,2.22765033

>  <Name>
1j7t

>  <RI>
0

>  <Rbt.Current_Directory>
/home/itssahil/PROJECTS/Mol_Feturizer/New_Systems/rnas/1j7t

>  <Rbt.Executable>
rbdock ($Id: //depot/dev/client3/rdock/2013.1/src/exe/rbdock.cxx#4 $)

>  <Rbt.Library>
libRbt.so (2013.1, Build901 2013/11/27)

>  <Rbt.Parameter_File>
/export/apps/rDock/src/rDock_2013.1_src/data/scripts/dock_solv.prm

>  <Rbt.Receptor>
prm/blind_docking_60.prm

>  <SCORE>
25.4202

>  <SCORE.INTER>
-10.4117

>  <SCORE.INTER.CONST>
1

>  <SCORE.INTER.POLAR>
-5.46064

>  <SCORE.INTER.ROT>
9

>  <SCORE.INTER.SOLV>
32.2743

>  <SCORE.INTER.VDW>
-9.09707

>  <SCORE.INTER.norm>
-0.247897

>  <SCORE.INTRA>
4.16293

>  <SCORE.INTRA.DIHEDRAL>
-7.44549

>  <SCORE.INTRA.DIHEDRAL.0>
46.2143

>  <SCORE.INTRA.POLAR>
0.0832926

>  <SCORE.INTRA.POLAR.0>
-1.76436

>  <SCORE.INTRA.REPUL>
0.0213796

>  <SCORE.INTRA.REPUL.0>
0

>  <SCORE.INTRA.SOLV>
0.83919

>  <SCORE.INTRA.SOLV.lig_0>
-148.643

>  <SCORE.INTRA.VDW>
7.07598

>  <SCORE.INTRA.VDW.0>
-4.83512

>  <SCORE.INTRA.norm>
0.0991173

>  <SCORE.RESTR>
31.669

>  <SCORE.RESTR.CAVITY>
31.669

>  <SCORE.RESTR.norm>
0.754024

>  <SCORE.SYSTEM>
0

>  <SCORE.SYSTEM.CONST>
0

>  <SCORE.SYSTEM.DIHEDRAL>
0

>  <SCORE.SYSTEM.SOLV>
0

>  <SCORE.SYSTEM.norm>
0

>  <SCORE.heavy>
42

>  <SCORE.norm>
0.605244

>  <RMSD>
12.287

$$$$
1j7t
 OpenBabel11021811393D
libRbt.so/2013.1/901 2013/11/27
 42 45  0  0  0  0  0  0  0  0999 V2000
   30.1724   11.3818   50.0574 C   0  0  2  0  0  0  0  0  0  0  0  0
   30.6930   11.0961   48.7346 O   0  0  0  0  0  0  0  0  0  0  0  0
   31.3124   11.0690   51.0687 C   0  0  2  0  0  0  0  0  0  0  0  0
   32.6043   11.7535   50.7755 N   0  3  0  0  0  0  0  0  0  0  0  0
   31.5656    9.5457   51.0488 C   0  0  1  0  0  0  0  0  0  0  0  0
   32.5751    9.2016   51.9555 O   0  0  0  0  0  0  0  0  0  0  0  0
   30.2578    8.7863   51.3750 C   0  0  2  0  0  0  0  0  0  0  0  0
   30.4727    7.3888   51.3831 O   0  0  0  0  0  0  0  0  0  0  0  0
   29.1994    9.1198   50.3451 C   0  0  2  0  0  0  0  0  0  0  0  0
   29.0109   10.5286   50.3043 O   0  0  0  0  0  0  0  0  0  0  0  0
   27.8528    8.5076   50.6596 C   0  0  0  0  0  0  0  0  0  0  0  0
   27.9306    7.1017   50.5229 O   0  0  0  0  0  0  0  0  0  0  0  0
   31.5466   14.9447   47.2155 C   0  0  2  0  0  0  0  0  0  0  0  0
   31.6634   16.0778   46.2968 N   0  3  0  0  0  0  0  0  0  0  0  0
   32.4227   13.7523   46.7068 C   0  0  0  0  0  0  0  0  0  0  0  0
   32.2644   12.5405   47.6449 C   0  0  2  0  0  0  0  0  0  0  0  0
   33.0374   11.3953   47.1531 N   0  3  0  0  0  0  0  0  0  0  0  0
   30.7796   12.1440   47.7621 C   0  0  2  0  0  0  0  0  0  0  0  0
   29.8878   13.3085   48.2354 C   0  0  2  0  0  0  0  0  0  0  0  0
   28.5308   12.8338   48.1435 O   0  0  0  0  0  0  0  0  0  0  0  0
   30.0837   14.5437   47.3200 C   0  0  1  0  0  0  0  0  0  0  0  0
   29.3410   15.6170   47.8293 O   0  0  0  0  0  0  0  0  0  0  0  0
   27.9969   12.1982   46.9849 C   0  0  1  0  0  0  0  0  0  0  0  0
   27.5598   13.3076   45.9631 C   0  0  2  0  0  0  0  0  0  0  0  0
   26.2342   13.7729   46.1510 O   0  0  0  0  0  0  0  0  0  0  0  0
   27.7836   12.5238   44.6775 C   0  0  2  0  0  0  0  0  0  0  0  0
   26.8135   11.4416   44.5453 O   0  0  0  0  0  0  0  0  0  0  0  0
   29.1499   11.8922   44.9048 C   0  0  2  0  0  0  0  0  0  0  0  0
   29.0278   11.4623   46.2716 O   0  0  0  0  0  0  0  0  0  0  0  0
   30.3644   12.8514   44.6799 C   0  0  0  0  0  0  0  0  0  0  0  0
   31.6044   12.1341   44.6371 O   0  0  0  0  0  0  0  0  0  0  0  0
   26.9487   10.6853   43.3448 C   0  0  2  0  0  0  0  0  0  0  0  0
   26.1970   11.2826   42.1068 C   0  0  2  0  0  0  0  0  0  0  0  0
   24.7300   11.4448   42.3410 N   0  3  0  0  0  0  0  0  0  0  0  0
   26.4836   10.3337   40.8954 C   0  0  1  0  0  0  0  0  0  0  0  0
   27.9399   10.3771   40.6409 O   0  0  0  0  0  0  0  0  0  0  0  0
   26.0640    8.8398   41.1841 C   0  0  2  0  0  0  0  0  0  0  0  0
   24.6405    8.7935   41.3743 O   0  0  0  0  0  0  0  0  0  0  0  0
   26.8452    8.3480   42.4725 C   0  0  1  0  0  0  0  0  0  0  0  0
   26.5188    9.2696   43.5668 O   0  0  0  0  0  0  0  0  0  0  0  0
   26.5282    6.8970   42.9003 C   0  0  0  0  0  0  0  0  0  0  0  0
   25.1859    6.7439   43.5244 N   0  3  0  0  0  0  0  0  0  0  0  0
  1  2  1  6  0  0  0
  1  3  1  0  0  0  0
  1 10  1  0  0  0  0
  3  4  1  6  0  0  0
  3  5  1  0  0  0  0
  5  6  1  1  0  0  0
  5  7  1  0  0  0  0
  7  8  1  6  0  0  0
  7  9  1  0  0  0  0
  9 10  1  0  0  0  0
  9 11  1  1  0  0  0
 11 12  1  0  0  0  0
 13 14  1  6  0  0  0
 13 15  1  0  0  0  0
 13 21  1  0  0  0  0
 15 16  1  0  0  0  0
 16 17  1  6  0  0  0
 16 18  1  0  0  0  0
 18  2  1  1  0  0  0
 18 19  1  0  0  0  0
 19 20  1  6  0  0  0
 19 21  1  0  0  0  0
 21 22  1  1  0  0  0
 23 20  1  1  0  0  0
 23 24  1  0  0  0  0
 23 29  1  0  0  0  0
 24 25  1  1  0  0  0
 24 26  1  0  0  0  0
 26 27  1  1  0  0  0
 26 28  1  0  0  0  0
 28 29  1  0  0  0  0
 28 30  1  1  0  0  0
 30 31  1  0  0  0  0
 32 27  1  1  0  0  0
 32 33  1  0  0  0  0
 32 40  1  0  0  0  0
 33 34  1  1  0  0  0
 33 35  1  0  0  0  0
 35 36  1  1  0  0  0
 35 37  1  0  0  0  0
 37 38  1  1  0  0  0
 37 39  1  0  0  0  0
 39 40  1  0  0  0  0
 39 41  1  1  0  0  0
 41 42  1  0  0  0  0
M  CHG  5   4   1  14   1  17   1  34   1  42   1
M  END
>  <CHROM.1>
-118.79134634,105.14890023,-81.26376640,-66.77979579,-56.23109170,-68.19464799
-86.36063448,-168.75734916,-164.58031099,-49.33010783,-82.39769528,64.80527156
-36.62078581,178.63803055,-85.70136775,-167.92284359,174.39904359,-145.92768613
172.65183908,-82.24579589,-73.51150887,-6.20084465,28.98949032,11.10289631
46.56264772,0.50325594,0.91476382,2.37999366

>  <Name>
1j7t

>  <RI>
0

>  <Rbt.Current_Directory>
/home/itssahil/PROJECTS/Mol_Feturizer/New_Systems/rnas/1j7t

>  <Rbt.Executable>
rbdock ($Id: //depot/dev/client3/rdock/2013.1/src/exe/rbdock.cxx#4 $)

>  <Rbt.Library>
libRbt.so (2013.1, Build901 2013/11/27)

>  <Rbt.Parameter_File>
/export/apps/rDock/src/rDock_2013.1_src/data/scripts/dock_solv.prm

>  <Rbt.Receptor>
prm/blind_docking_60.prm

>  <SCORE>
2.60078

>  <SCORE.INTER>
-37.761

>  <SCORE.INTER.CONST>
1

>  <SCORE.INTER.POLAR>
-6.95377

>  <SCORE.INTER.ROT>
9

>  <SCORE.INTER.SOLV>
25.5566

>  <SCORE.INTER.VDW>
-20.1136

>  <SCORE.INTER.norm>
-0.89907

>  <SCORE.INTRA>
6.92512

>  <SCORE.INTRA.DIHEDRAL>
-9.60655

>  <SCORE.INTRA.DIHEDRAL.0>
46.2143

>  <SCORE.INTRA.POLAR>
0.784476

>  <SCORE.INTRA.POLAR.0>
-1.76436

>  <SCORE.INTRA.REPUL>
0

>  <SCORE.INTRA.REPUL.0>
0

>  <SCORE.INTRA.SOLV>
5.25823

>  <SCORE.INTRA.SOLV.lig_0>
-148.643

>  <SCORE.INTRA.VDW>
6.43207

>  <SCORE.INTRA.VDW.0>
-4.83512

>  <SCORE.INTRA.norm>
0.164884

>  <SCORE.RESTR>
33.4366

>  <SCORE.RESTR.CAVITY>
33.4366

>  <SCORE.RESTR.norm>
0.79611

>  <SCORE.SYSTEM>
0

>  <SCORE.SYSTEM.CONST>
0

>  <SCORE.SYSTEM.DIHEDRAL>
0

>  <SCORE.SYSTEM.SOLV>
0

>  <SCORE.SYSTEM.norm>
0

>  <SCORE.heavy>
42

>  <SCORE.norm>
0.0619234

>  <RMSD>
12.291

$$$$
1j7t
 OpenBabel11021811393D
libRbt.so/2013.1/901 2013/11/27
 42 45  0  0  0  0  0  0  0  0999 V2000
   32.6744   12.8616   48.0187 C   0  0  2  0  0  0  0  0  0  0  0  0
   31.5041   13.4820   48.6086 O   0  0  0  0  0  0  0  0  0  0  0  0
   33.5543   14.0100   47.4468 C   0  0  2  0  0  0  0  0  0  0  0  0
   33.8795   15.0865   48.4262 N   0  3  0  0  0  0  0  0  0  0  0  0
   32.7940   14.6539   46.2669 C   0  0  1  0  0  0  0  0  0  0  0  0
   33.5479   15.6880   45.6997 O   0  0  0  0  0  0  0  0  0  0  0  0
   32.4551   13.5807   45.2054 C   0  0  2  0  0  0  0  0  0  0  0  0
   31.7767   14.1538   44.1051 O   0  0  0  0  0  0  0  0  0  0  0  0
   31.5840   12.5062   45.8207 C   0  0  2  0  0  0  0  0  0  0  0  0
   32.2453   11.9567   46.9533 O   0  0  0  0  0  0  0  0  0  0  0  0
   31.3048   11.3574   44.8777 C   0  0  0  0  0  0  0  0  0  0  0  0
   30.6667   10.3114   45.5848 O   0  0  0  0  0  0  0  0  0  0  0  0
   29.7880    9.9686   50.2085 C   0  0  2  0  0  0  0  0  0  0  0  0
   28.8837    9.0717   50.9290 N   0  3  0  0  0  0  0  0  0  0  0  0
   30.4525   10.9725   51.2080 C   0  0  0  0  0  0  0  0  0  0  0  0
   31.3680   11.9502   50.4466 C   0  0  2  0  0  0  0  0  0  0  0  0
   31.9578   12.9330   51.3617 N   0  3  0  0  0  0  0  0  0  0  0  0
   30.5729   12.6846   49.3493 C   0  0  2  0  0  0  0  0  0  0  0  0
   29.8841   11.7187   48.3655 C   0  0  2  0  0  0  0  0  0  0  0  0
   29.0654   12.5388   47.5095 O   0  0  0  0  0  0  0  0  0  0  0  0
   29.0010   10.7044   49.1356 C   0  0  1  0  0  0  0  0  0  0  0  0
   28.4676    9.7776   48.2303 O   0  0  0  0  0  0  0  0  0  0  0  0
   28.1097   12.0102   46.5940 C   0  0  1  0  0  0  0  0  0  0  0  0
   27.2230   13.1912   46.0599 C   0  0  2  0  0  0  0  0  0  0  0  0
   26.0919   13.4719   46.8666 O   0  0  0  0  0  0  0  0  0  0  0  0
   26.9000   12.6206   44.6861 C   0  0  2  0  0  0  0  0  0  0  0  0
   26.0180   11.4627   44.7913 O   0  0  0  0  0  0  0  0  0  0  0  0
   28.2557   12.1243   44.2033 C   0  0  2  0  0  0  0  0  0  0  0  0
   28.7593   11.5011   45.3973 O   0  0  0  0  0  0  0  0  0  0  0  0
   29.2078   13.2377   43.6560 C   0  0  0  0  0  0  0  0  0  0  0  0
   29.3228   14.3334   44.5726 O   0  0  0  0  0  0  0  0  0  0  0  0
   25.6019   10.9349   43.5344 C   0  0  2  0  0  0  0  0  0  0  0  0
   24.3640    9.9773   43.6041 C   0  0  2  0  0  0  0  0  0  0  0  0
   24.5875    8.8037   44.5020 N   0  3  0  0  0  0  0  0  0  0  0  0
   24.0500    9.5271   42.1383 C   0  0  1  0  0  0  0  0  0  0  0  0
   23.6776   10.7402   41.3786 O   0  0  0  0  0  0  0  0  0  0  0  0
   25.2896    8.8492   41.4346 C   0  0  2  0  0  0  0  0  0  0  0  0
   25.6123    7.6409   42.1421 O   0  0  0  0  0  0  0  0  0  0  0  0
   26.4929    9.8806   41.4538 C   0  0  1  0  0  0  0  0  0  0  0  0
   26.7414   10.2449   42.8534 O   0  0  0  0  0  0  0  0  0  0  0  0
   27.7975    9.3567   40.8115 C   0  0  0  0  0  0  0  0  0  0  0  0
   27.7625    9.3475   39.3238 N   0  3  0  0  0  0  0  0  0  0  0  0
  1  2  1  6  0  0  0
  1  3  1  0  0  0  0
  1 10  1  0  0  0  0
  3  4  1  1  0  0  0
  3  5  1  0  0  0  0
  5  6  1  6  0  0  0
  5  7  1  0  0  0  0
  7  8  1  6  0  0  0
  7  9  1  0  0  0  0
  9 10  1  0  0  0  0
  9 11  1  6  0  0  0
 11 12  1  0  0  0  0
 13 14  1  1  0  0  0
 13 15  1  0  0  0  0
 13 21  1  0  0  0  0
 15 16  1  0  0  0  0
 16 17  1  1  0  0  0
 16 18  1  0  0  0  0
 18  2  1  6  0  0  0
 18 19  1  0  0  0  0
 19 20  1  6  0  0  0
 19 21  1  0  0  0  0
 21 22  1  6  0  0  0
 23 20  1  1  0  0  0
 23 24  1  0  0  0  0
 23 29  1  0  0  0  0
 24 25  1  1  0  0  0
 24 26  1  0  0  0  0
 26 27  1  1  0  0  0
 26 28  1  0  0  0  0
 28 29  1  0  0  0  0
 28 30  1  1  0  0  0
 30 31  1  0  0  0  0
 32 27  1  1  0  0  0
 32 33  1  0  0  0  0
 32 40  1  0  0  0  0
 33 34  1  1  0  0  0
 33 35  1  0  0  0  0
 35 36  1  6  0  0  0
 35 37  1  0  0  0  0
 37 38  1  1  0  0  0
 37 39  1  0  0  0  0
 39 40  1  0  0  0  0
 39 41  1  1  0  0  0
 41 42  1  0  0  0  0
M  CHG  5   4   1  14   1  17   1  34   1  42   1
M  END
>  <CHROM.1>
-173.17184446,54.69833143,-165.78144059,69.70205147,44.88888616,171.05584271
-40.94846088,-40.69557700,179.14026499,-170.13969363,168.73284129,52.97290989
70.23798835,175.92301142,-163.50453219,50.49935000,-68.12126657,-61.92309707
71.04724822,89.71807915,76.20266349,69.86699417,29.03006839,11.69371140,45.79499566
-0.63262882,-0.61252259,-1.37396610

>  <Name>
1j7t

>  <RI>
0

>  <Rbt.Current_Directory>
/home/itssahil/PROJECTS/Mol_Feturizer/New_Systems/rnas/1j7t

>  <Rbt.Executable>
rbdock ($Id: //depot/dev/client3/rdock/2013.1/src/exe/rbdock.cxx#4 $)

>  <Rbt.Library>
libRbt.so (2013.1, Build901 2013/11/27)

>  <Rbt.Parameter_File>
/export/apps/rDock/src/rDock_2013.1_src/data/scripts/dock_solv.prm

>  <Rbt.Receptor>
prm/blind_docking_60.prm

>  <SCORE>
28.8506

>  <SCORE.INTER>
0.896443

>  <SCORE.INTER.CONST>
1

>  <SCORE.INTER.POLAR>
-3.14939

>  <SCORE.INTER.ROT>
9

>  <SCORE.INTER.SOLV>
34.1528

>  <SCORE.INTER.VDW>
-9.88867

>  <SCORE.INTER.norm>
0.0213439

>  <SCORE.INTRA>
-6.85615

>  <SCORE.INTRA.DIHEDRAL>
-31.2968

>  <SCORE.INTRA.DIHEDRAL.0>
46.2143

>  <SCORE.INTRA.POLAR>
0.95155

>  <SCORE.INTRA.POLAR.0>
-1.76436

>  <SCORE.INTRA.REPUL>
0.0338244

>  <SCORE.INTRA.REPUL.0>
0

>  <SCORE.INTRA.SOLV>
-0.306964

>  <SCORE.INTRA.SOLV.lig_0>
-148.643

>  <SCORE.INTRA.VDW>
5.54133

>  <SCORE.INTRA.VDW.0>
-4.83512

>  <SCORE.INTRA.norm>
-0.163242

>  <SCORE.RESTR>
34.8103

>  <SCORE.RESTR.CAVITY>
34.8103

>  <SCORE.RESTR.norm>
0.828818

>  <SCORE.SYSTEM>
0

>  <SCORE.SYSTEM.CONST>
0

>  <SCORE.SYSTEM.DIHEDRAL>
0

>  <SCORE.SYSTEM.SOLV>
0

>  <SCORE.SYSTEM.norm>
0

>  <SCORE.heavy>
42

>  <SCORE.norm>
0.68692

>  <RMSD>
12.329

$$$$
1j7t
 OpenBabel11021811393D
libRbt.so/2013.1/901 2013/11/27
 42 45  0  0  0  0  0  0  0  0999 V2000
   29.9710   11.2856   49.9928 C   0  0  2  0  0  0  0  0  0  0  0  0
   30.6847   11.0632   48.7504 O   0  0  0  0  0  0  0  0  0  0  0  0
   30.9682   10.9810   51.1472 C   0  0  2  0  0  0  0  0  0  0  0  0
   32.2597   11.7213   51.0605 N   0  3  0  0  0  0  0  0  0  0  0  0
   31.2834    9.4694   51.1214 C   0  0  1  0  0  0  0  0  0  0  0  0
   32.1676    9.1321   52.1529 O   0  0  0  0  0  0  0  0  0  0  0  0
   29.9746    8.6525   51.2364 C   0  0  2  0  0  0  0  0  0  0  0  0
   30.2428    7.2643   51.2362 O   0  0  0  0  0  0  0  0  0  0  0  0
   29.0598    8.9814   50.0757 C   0  0  2  0  0  0  0  0  0  0  0  0
   28.8219   10.3831   50.0476 O   0  0  0  0  0  0  0  0  0  0  0  0
   27.7083    8.3106   50.1777 C   0  0  0  0  0  0  0  0  0  0  0  0
   27.2641    8.3470   51.5203 O   0  0  0  0  0  0  0  0  0  0  0  0
   31.5922   14.9139   47.2683 C   0  0  2  0  0  0  0  0  0  0  0  0
   31.7242   16.0542   46.3607 N   0  3  0  0  0  0  0  0  0  0  0  0
   32.4500   13.7140   46.7461 C   0  0  0  0  0  0  0  0  0  0  0  0
   32.2754   12.4953   47.6723 C   0  0  2  0  0  0  0  0  0  0  0  0
   33.0308   11.3438   47.1679 N   0  3  0  0  0  0  0  0  0  0  0  0
   30.7851   12.1194   47.7881 C   0  0  2  0  0  0  0  0  0  0  0  0
   29.9113   13.2920   48.2746 C   0  0  2  0  0  0  0  0  0  0  0  0
   28.5473   12.8382   48.1803 O   0  0  0  0  0  0  0  0  0  0  0  0
   30.1238   14.5333   47.3713 C   0  0  1  0  0  0  0  0  0  0  0  0
   29.3977   15.6122   47.8925 O   0  0  0  0  0  0  0  0  0  0  0  0
   27.9900   12.2621   47.0018 C   0  0  1  0  0  0  0  0  0  0  0  0
   27.6177   13.4195   46.0078 C   0  0  2  0  0  0  0  0  0  0  0  0
   26.3163   13.9470   46.2005 O   0  0  0  0  0  0  0  0  0  0  0  0
   27.8105   12.6599   44.7028 C   0  0  2  0  0  0  0  0  0  0  0  0
   26.7873   11.6328   44.5356 O   0  0  0  0  0  0  0  0  0  0  0  0
   29.1409   11.9530   44.9210 C   0  0  2  0  0  0  0  0  0  0  0  0
   28.9871   11.4935   46.2748 O   0  0  0  0  0  0  0  0  0  0  0  0
   30.4046   12.8543   44.7294 C   0  0  0  0  0  0  0  0  0  0  0  0
   31.6017   12.0727   44.6284 O   0  0  0  0  0  0  0  0  0  0  0  0
   26.8342   10.9673   43.2761 C   0  0  2  0  0  0  0  0  0  0  0  0
   25.7870   11.4756   42.2277 C   0  0  2  0  0  0  0  0  0  0  0  0
   24.3780   11.3628   42.7128 N   0  3  0  0  0  0  0  0  0  0  0  0
   26.0113   10.6482   40.9181 C   0  0  1  0  0  0  0  0  0  0  0  0
   27.3718   10.9621   40.4302 O   0  0  0  0  0  0  0  0  0  0  0  0
   25.9063    9.0920   41.1597 C   0  0  2  0  0  0  0  0  0  0  0  0
   24.5667    8.7840   41.5788 O   0  0  0  0  0  0  0  0  0  0  0  0
   26.9733    8.6904   42.2607 C   0  0  1  0  0  0  0  0  0  0  0  0
   26.6943    9.4891   43.4597 O   0  0  0  0  0  0  0  0  0  0  0  0
   26.9850    7.1884   42.6254 C   0  0  0  0  0  0  0  0  0  0  0  0
   27.5965    6.3293   41.5754 N   0  3  0  0  0  0  0  0  0  0  0  0
  1  2  1  6  0  0  0
  1  3  1  0  0  0  0
  1 10  1  0  0  0  0
  3  4  1  6  0  0  0
  3  5  1  0  0  0  0
  5  6  1  1  0  0  0
  5  7  1  0  0  0  0
  7  8  1  6  0  0  0
  7  9  1  0  0  0  0
  9 10  1  0  0  0  0
  9 11  1  1  0  0  0
 11 12  1  0  0  0  0
 13 14  1  6  0  0  0
 13 15  1  0  0  0  0
 13 21  1  0  0  0  0
 15 16  1  0  0  0  0
 16 17  1  6  0  0  0
 16 18  1  0  0  0  0
 18  2  1  1  0  0  0
 18 19  1  0  0  0  0
 19 20  1  6  0  0  0
 19 21  1  0  0  0  0
 21 22  1  1  0  0  0
 23 20  1  1  0  0  0
 23 24  1  0  0  0  0
 23 29  1  0  0  0  0
 24 25  1  1  0  0  0
 24 26  1  0  0  0  0
 26 27  1  1  0  0  0
 26 28  1  0  0  0  0
 28 29  1  0  0  0  0
 28 30  1  1  0  0  0
 30 31  1  0  0  0  0
 32 27  1  1  0  0  0
 32 33  1  0  0  0  0
 32 40  1  0  0  0  0
 33 34  1  1  0  0  0
 33 35  1  0  0  0  0
 35 36  1  1  0  0  0
 35 37  1  0  0  0  0
 37 38  1  1  0  0  0
 37 39  1  0  0  0  0
 39 40  1  0  0  0  0
 39 41  1  1  0  0  0
 41 42  1  0  0  0  0
M  CHG  5   4   1  14   1  17   1  34   1  42   1
M  END
>  <CHROM.1>
-123.12439024,115.36226292,-79.43502353,58.17878980,-56.63588151,40.16427215
-69.50018398,-57.65737047,72.64510039,-51.46599779,-79.66843548,174.77747498
178.33049401,174.44617500,-100.20269152,-165.92816977,174.42978077,-78.07341530
52.25612768,-176.64788443,73.83982019,-178.11833042,28.95309170,11.16301432
46.53756866,0.55166998,0.96154741,2.37739575

>  <Name>
1j7t

>  <RI>
0

>  <Rbt.Current_Directory>
/home/itssahil/PROJECTS/Mol_Feturizer/New_Systems/rnas/1j7t

>  <Rbt.Executable>
rbdock ($Id: //depot/dev/client3/rdock/2013.1/src/exe/rbdock.cxx#4 $)

>  <Rbt.Library>
libRbt.so (2013.1, Build901 2013/11/27)

>  <Rbt.Parameter_File>
/export/apps/rDock/src/rDock_2013.1_src/data/scripts/dock_solv.prm

>  <Rbt.Receptor>
prm/blind_docking_60.prm

>  <SCORE>
10.4357

>  <SCORE.INTER>
-19.1236

>  <SCORE.INTER.CONST>
1

>  <SCORE.INTER.POLAR>
-4.15519

>  <SCORE.INTER.ROT>
9

>  <SCORE.INTER.SOLV>
25.3071

>  <SCORE.INTER.VDW>
-16.9341

>  <SCORE.INTER.norm>
-0.455323

>  <SCORE.INTRA>
-3.30322

>  <SCORE.INTRA.DIHEDRAL>
-17.9508

>  <SCORE.INTRA.DIHEDRAL.0>
46.2143

>  <SCORE.INTRA.POLAR>
-0.053011

>  <SCORE.INTRA.POLAR.0>
-1.76436

>  <SCORE.INTRA.REPUL>
0

>  <SCORE.INTRA.REPUL.0>
0

>  <SCORE.INTRA.SOLV>
-0.190742

>  <SCORE.INTRA.SOLV.lig_0>
-148.643

>  <SCORE.INTRA.VDW>
5.94778

>  <SCORE.INTRA.VDW.0>
-4.83512

>  <SCORE.INTRA.norm>
-0.078648

>  <SCORE.RESTR>
32.8625

>  <SCORE.RESTR.CAVITY>
32.8625

>  <SCORE.RESTR.norm>
0.782441

>  <SCORE.SYSTEM>
0

>  <SCORE.SYSTEM.CONST>
0

>  <SCORE.SYSTEM.DIHEDRAL>
0

>  <SCORE.SYSTEM.SOLV>
0

>  <SCORE.SYSTEM.norm>
0

>  <SCORE.heavy>
42

>  <SCORE.norm>
0.24847

>  <RMSD>
12.364

$$$$
1j7t
 OpenBabel11021811393D
libRbt.so/2013.1/901 2013/11/27
 42 45  0  0  0  0  0  0  0  0999 V2000
   30.9757   10.0065   49.3910 C   0  0  2  0  0  0  0  0  0  0  0  0
   30.6568   11.4183   49.3039 O   0  0  0  0  0  0  0  0  0  0  0  0
   29.8267    9.3327   50.1947 C   0  0  2  0  0  0  0  0  0  0  0  0
   28.4595    9.6038   49.6647 N   0  3  0  0  0  0  0  0  0  0  0  0
   29.8869    9.8560   51.6464 C   0  0  1  0  0  0  0  0  0  0  0  0
   28.8819    9.2693   52.4243 O   0  0  0  0  0  0  0  0  0  0  0  0
   31.2813    9.5743   52.2544 C   0  0  2  0  0  0  0  0  0  0  0  0
   31.3509   10.0269   53.5922 O   0  0  0  0  0  0  0  0  0  0  0  0
   32.3485   10.2721   51.4382 C   0  0  2  0  0  0  0  0  0  0  0  0
   32.2542    9.8509   50.0833 O   0  0  0  0  0  0  0  0  0  0  0  0
   33.7524    9.9503   51.8992 C   0  0  0  0  0  0  0  0  0  0  0  0
   34.6738   10.7807   51.2191 O   0  0  0  0  0  0  0  0  0  0  0  0
   32.0300   14.6284   46.9253 C   0  0  2  0  0  0  0  0  0  0  0  0
   32.3571   15.4474   45.7576 N   0  3  0  0  0  0  0  0  0  0  0  0
   32.8483   13.2952   46.8884 C   0  0  0  0  0  0  0  0  0  0  0  0
   32.4707   12.4084   48.0904 C   0  0  2  0  0  0  0  0  0  0  0  0
   33.1892   11.1307   48.0425 N   0  3  0  0  0  0  0  0  0  0  0  0
   30.9526   12.1423   48.1039 C   0  0  2  0  0  0  0  0  0  0  0  0
   30.1206   13.4395   48.1126 C   0  0  2  0  0  0  0  0  0  0  0  0
   28.7465   13.0324   47.9662 O   0  0  0  0  0  0  0  0  0  0  0  0
   30.5347   14.3531   46.9311 C   0  0  1  0  0  0  0  0  0  0  0  0
   29.8376   15.5652   47.0196 O   0  0  0  0  0  0  0  0  0  0  0  0
   28.2809   12.2033   46.9047 C   0  0  1  0  0  0  0  0  0  0  0  0
   27.5377   13.1049   45.8555 C   0  0  2  0  0  0  0  0  0  0  0  0
   26.1599   13.2917   46.1308 O   0  0  0  0  0  0  0  0  0  0  0  0
   27.8325   12.2818   44.6093 C   0  0  2  0  0  0  0  0  0  0  0  0
   27.1157   11.0109   44.6364 O   0  0  0  0  0  0  0  0  0  0  0  0
   29.3167   11.9764   44.7540 C   0  0  2  0  0  0  0  0  0  0  0  0
   29.3926   11.6463   46.1515 O   0  0  0  0  0  0  0  0  0  0  0  0
   30.2721   13.1497   44.3582 C   0  0  0  0  0  0  0  0  0  0  0  0
   31.5602   12.6696   43.9531 O   0  0  0  0  0  0  0  0  0  0  0  0
   26.3601   10.7462   43.4572 C   0  0  2  0  0  0  0  0  0  0  0  0
   25.6046    9.3738   43.4581 C   0  0  2  0  0  0  0  0  0  0  0  0
   26.5200    8.2073   43.6439 N   0  3  0  0  0  0  0  0  0  0  0  0
   24.8229    9.2804   42.1053 C   0  0  1  0  0  0  0  0  0  0  0  0
   23.8297   10.3763   42.0976 O   0  0  0  0  0  0  0  0  0  0  0  0
   25.7650    9.4418   40.8493 C   0  0  2  0  0  0  0  0  0  0  0  0
   26.6916    8.3437   40.8291 O   0  0  0  0  0  0  0  0  0  0  0  0
   26.5090   10.8363   40.9663 C   0  0  1  0  0  0  0  0  0  0  0  0
   27.2302   10.8474   42.2443 O   0  0  0  0  0  0  0  0  0  0  0  0
   27.4901   11.1393   39.8110 C   0  0  0  0  0  0  0  0  0  0  0  0
   28.2168   12.4276   39.9743 N   0  3  0  0  0  0  0  0  0  0  0  0
  1  2  1  1  0  0  0
  1  3  1  0  0  0  0
  1 10  1  0  0  0  0
  3  4  1  6  0  0  0
  3  5  1  0  0  0  0
  5  6  1  1  0  0  0
  5  7  1  0  0  0  0
  7  8  1  1  0  0  0
  7  9  1  0  0  0  0
  9 10  1  0  0  0  0
  9 11  1  1  0  0  0
 11 12  1  0  0  0  0
 13 14  1  6  0  0  0
 13 15  1  0  0  0  0
 13 21  1  0  0  0  0
 15 16  1  0  0  0  0
 16 17  1  6  0  0  0
 16 18  1  0  0  0  0
 18  2  1  1  0  0  0
 18 19  1  0  0  0  0
 19 20  1  6  0  0  0
 19 21  1  0  0  0  0
 21 22  1  1  0  0  0
 23 20  1  1  0  0  0
 23 24  1  0  0  0  0
 23 29  1  0  0  0  0
 24 25  1  1  0  0  0
 24 26  1  0  0  0  0
 26 27  1  1  0  0  0
 26 28  1  0  0  0  0
 28 29  1  0  0  0  0
 28 30  1  1  0  0  0
 30 31  1  0  0  0  0
 32 27  1  1  0  0  0
 32 33  1  0  0  0  0
 32 40  1  0  0  0  0
 33 34  1  6  0  0  0
 33 35  1  0  0  0  0
 35 36  1  1  0  0  0
 35 37  1  0  0  0  0
 37 38  1  1  0  0  0
 37 39  1  0  0  0  0
 39 40  1  0  0  0  0
 39 41  1  6  0  0  0
 41 42  1  0  0  0  0
M  CHG  5   4   1  14   1  17   1  34   1  42   1
M  END
>  <CHROM.1>
-142.63586977,-76.30630322,81.52053374,-170.25901272,-175.79858919,-171.69659797
73.07898329,103.69623306,38.10385394,-54.09425892,-103.27137063,-50.91676446
60.82725408,128.32214740,178.94770377,-154.57023427,-41.54604586,-8.96799586
-173.47194037,-74.81140797,-177.58989129,-45.41125105,29.38919533,11.37375756
46.52071729,0.81434094,0.72257928,2.10678574

>  <Name>
1j7t

>  <RI>
0

>  <Rbt.Current_Directory>
/home/itssahil/PROJECTS/Mol_Feturizer/New_Systems/rnas/1j7t

>  <Rbt.Executable>
rbdock ($Id: //depot/dev/client3/rdock/2013.1/src/exe/rbdock.cxx#4 $)

>  <Rbt.Library>
libRbt.so (2013.1, Build901 2013/11/27)

>  <Rbt.Parameter_File>
/export/apps/rDock/src/rDock_2013.1_src/data/scripts/dock_solv.prm

>  <Rbt.Receptor>
prm/blind_docking_60.prm

>  <SCORE>
41.6526

>  <SCORE.INTER>
-0.940004

>  <SCORE.INTER.CONST>
1

>  <SCORE.INTER.POLAR>
-3.71815

>  <SCORE.INTER.ROT>
9

>  <SCORE.INTER.SOLV>
35.0248

>  <SCORE.INTER.VDW>
-9.50774

>  <SCORE.INTER.norm>
-0.0223811

>  <SCORE.INTRA>
0.928241

>  <SCORE.INTRA.DIHEDRAL>
-11.2545

>  <SCORE.INTRA.DIHEDRAL.0>
46.2143

>  <SCORE.INTRA.POLAR>
0.704184

>  <SCORE.INTRA.POLAR.0>
-1.76436

>  <SCORE.INTRA.REPUL>
0

>  <SCORE.INTRA.REPUL.0>
0

>  <SCORE.INTRA.SOLV>
1.988

>  <SCORE.INTRA.SOLV.lig_0>
-148.643

>  <SCORE.INTRA.VDW>
3.16725

>  <SCORE.INTRA.VDW.0>
-4.83512

>  <SCORE.INTRA.norm>
0.022101

>  <SCORE.RESTR>
41.6643

>  <SCORE.RESTR.CAVITY>
41.6643

>  <SCORE.RESTR.norm>
0.992008

>  <SCORE.SYSTEM>
0

>  <SCORE.SYSTEM.CONST>
0

>  <SCORE.SYSTEM.DIHEDRAL>
0

>  <SCORE.SYSTEM.SOLV>
0

>  <SCORE.SYSTEM.norm>
0

>  <SCORE.heavy>
42

>  <SCORE.norm>
0.991728

>  <RMSD>
12.391

$$$$
1j7t
 OpenBabel11021811393D
libRbt.so/2013.1/901 2013/11/27
 42 45  0  0  0  0  0  0  0  0999 V2000
   30.5347   11.9351   48.9588 C   0  0  2  0  0  0  0  0  0  0  0  0
   31.7802   11.4543   48.3932 O   0  0  0  0  0  0  0  0  0  0  0  0
   30.8092   12.2438   50.4586 C   0  0  2  0  0  0  0  0  0  0  0  0
   31.9652   13.1540   50.7013 N   0  3  0  0  0  0  0  0  0  0  0  0
   31.0963   10.9077   51.1778 C   0  0  1  0  0  0  0  0  0  0  0  0
   31.3358   11.1223   52.5402 O   0  0  0  0  0  0  0  0  0  0  0  0
   29.9112    9.9331   50.9795 C   0  0  2  0  0  0  0  0  0  0  0  0
   30.1446    8.7097   51.6488 O   0  0  0  0  0  0  0  0  0  0  0  0
   29.7109    9.6612   49.5037 C   0  0  2  0  0  0  0  0  0  0  0  0
   29.5179   10.8934   48.8208 O   0  0  0  0  0  0  0  0  0  0  0  0
   28.4953    8.8081   49.2179 C   0  0  0  0  0  0  0  0  0  0  0  0
   28.6660    7.5325   49.8052 O   0  0  0  0  0  0  0  0  0  0  0  0
   33.3736   13.7220   45.2047 C   0  0  2  0  0  0  0  0  0  0  0  0
   33.7502   14.1405   43.8539 N   0  3  0  0  0  0  0  0  0  0  0  0
   34.0837   12.3747   45.5636 C   0  0  0  0  0  0  0  0  0  0  0  0
   33.6519   11.9055   46.9661 C   0  0  2  0  0  0  0  0  0  0  0  0
   34.2668   10.6158   47.2974 N   0  3  0  0  0  0  0  0  0  0  0  0
   32.1178   11.7752   47.0388 C   0  0  2  0  0  0  0  0  0  0  0  0
   31.3908   13.0812   46.6629 C   0  0  2  0  0  0  0  0  0  0  0  0
   29.9872   12.7589   46.6248 O   0  0  0  0  0  0  0  0  0  0  0  0
   31.8615   13.5790   45.2728 C   0  0  1  0  0  0  0  0  0  0  0  0
   31.2632   14.8161   44.9995 O   0  0  0  0  0  0  0  0  0  0  0  0
   29.2178   12.7373   45.4254 C   0  0  1  0  0  0  0  0  0  0  0  0
   28.0161   11.7453   45.6204 C   0  0  2  0  0  0  0  0  0  0  0  0
   28.3197   10.4013   45.2879 O   0  0  0  0  0  0  0  0  0  0  0  0
   27.0186   12.4218   44.6906 C   0  0  2  0  0  0  0  0  0  0  0  0
   27.4300   12.2960   43.2961 O   0  0  0  0  0  0  0  0  0  0  0  0
   27.1436   13.8889   45.0769 C   0  0  2  0  0  0  0  0  0  0  0  0
   28.5706   14.0189   45.1972 O   0  0  0  0  0  0  0  0  0  0  0  0
   26.3884   14.2919   46.3857 C   0  0  0  0  0  0  0  0  0  0  0  0
   26.8835   13.5760   47.5243 O   0  0  0  0  0  0  0  0  0  0  0  0
   27.2129   11.0008   42.7422 C   0  0  2  0  0  0  0  0  0  0  0  0
   27.1344   10.9625   41.1780 C   0  0  2  0  0  0  0  0  0  0  0  0
   26.0584   11.8425   40.6290 N   0  3  0  0  0  0  0  0  0  0  0  0
   26.9191    9.4678   40.7666 C   0  0  1  0  0  0  0  0  0  0  0  0
   28.1148    8.7166   41.2068 O   0  0  0  0  0  0  0  0  0  0  0  0
   25.6433    8.8312   41.4437 C   0  0  2  0  0  0  0  0  0  0  0  0
   24.4791    9.5270   40.9693 O   0  0  0  0  0  0  0  0  0  0  0  0
   25.8037    8.9577   43.0154 C   0  0  1  0  0  0  0  0  0  0  0  0
   25.9847   10.3798   43.3288 O   0  0  0  0  0  0  0  0  0  0  0  0
   24.6182    8.3908   43.8291 C   0  0  0  0  0  0  0  0  0  0  0  0
   24.4217    6.9270   43.6470 N   0  3  0  0  0  0  0  0  0  0  0  0
  1  2  1  1  0  0  0
  1  3  1  0  0  0  0
  1 10  1  0  0  0  0
  3  4  1  6  0  0  0
  3  5  1  0  0  0  0
  5  6  1  1  0  0  0
  5  7  1  0  0  0  0
  7  8  1  1  0  0  0
  7  9  1  0  0  0  0
  9 10  1  0  0  0  0
  9 11  1  1  0  0  0
 11 12  1  0  0  0  0
 13 14  1  6  0  0  0
 13 15  1  0  0  0  0
 13 21  1  0  0  0  0
 15 16  1  0  0  0  0
 16 17  1  6  0  0  0
 16 18  1  0  0  0  0
 18  2  1  1  0  0  0
 18 19  1  0  0  0  0
 19 20  1  6  0  0  0
 19 21  1  0  0  0  0
 21 22  1  1  0  0  0
 23 20  1  1  0  0  0
 23 24  1  0  0  0  0
 23 29  1  0  0  0  0
 24 25  1  6  0  0  0
 24 26  1  0  0  0  0
 26 27  1  6  0  0  0
 26 28  1  0  0  0  0
 28 29  1  0  0  0  0
 28 30  1  1  0  0  0
 30 31  1  0  0  0  0
 32 27  1  1  0  0  0
 32 33  1  0  0  0  0
 32 40  1  0  0  0  0
 33 34  1  1  0  0  0
 33 35  1  0  0  0  0
 35 36  1  1  0  0  0
 35 37  1  0  0  0  0
 37 38  1  6  0  0  0
 37 39  1  0  0  0  0
 39 40  1  0  0  0  0
 39 41  1  1  0  0  0
 41 42  1  0  0  0  0
M  CHG  5   4   1  14   1  17   1  34   1  42   1
M  END
>  <CHROM.1>
-145.14376724,147.32352438,-147.03892486,74.91104522,72.32925939,-63.33207921
-177.04134214,157.62762693,-142.75878724,-111.55576235,153.56222354,-64.48061950
-161.97108195,75.50227818,158.47231388,61.13472480,79.38152449,52.91792161
78.39959570,-175.78952355,63.04472807,-150.22949611,29.15576374,11.29767203
46.03760980,0.71843594,0.64170795,1.96772636

>  <Name>
1j7t

>  <RI>
0

>  <Rbt.Current_Directory>
/home/itssahil/PROJECTS/Mol_Feturizer/New_Systems/rnas/1j7t

>  <Rbt.Executable>
rbdock ($Id: //depot/dev/client3/rdock/2013.1/src/exe/rbdock.cxx#4 $)

>  <Rbt.Library>
libRbt.so (2013.1, Build901 2013/11/27)

>  <Rbt.Parameter_File>
/export/apps/rDock/src/rDock_2013.1_src/data/scripts/dock_solv.prm

>  <Rbt.Receptor>
prm/blind_docking_60.prm

>  <SCORE>
11.6115

>  <SCORE.INTER>
-26.3928

>  <SCORE.INTER.CONST>
1

>  <SCORE.INTER.POLAR>
-5.10173

>  <SCORE.INTER.ROT>
9

>  <SCORE.INTER.SOLV>
29.04

>  <SCORE.INTER.VDW>
-19.8694

>  <SCORE.INTER.norm>
-0.6284

>  <SCORE.INTRA>
1.3357

>  <SCORE.INTRA.DIHEDRAL>
-9.8525

>  <SCORE.INTRA.DIHEDRAL.0>
46.2143

>  <SCORE.INTRA.POLAR>
0.881167

>  <SCORE.INTRA.POLAR.0>
-1.76436

>  <SCORE.INTRA.REPUL>
0.0365749

>  <SCORE.INTRA.REPUL.0>
0

>  <SCORE.INTRA.SOLV>
-4.54388

>  <SCORE.INTRA.SOLV.lig_0>
-148.643

>  <SCORE.INTRA.VDW>
5.35505

>  <SCORE.INTRA.VDW.0>
-4.83512

>  <SCORE.INTRA.norm>
0.0318023

>  <SCORE.RESTR>
36.6686

>  <SCORE.RESTR.CAVITY>
36.6686

>  <SCORE.RESTR.norm>
0.873062

>  <SCORE.SYSTEM>
0

>  <SCORE.SYSTEM.CONST>
0

>  <SCORE.SYSTEM.DIHEDRAL>
0

>  <SCORE.SYSTEM.SOLV>
0

>  <SCORE.SYSTEM.norm>
0

>  <SCORE.heavy>
42

>  <SCORE.norm>
0.276465

>  <RMSD>
12.446

$$$$
1j7t
 OpenBabel11021811393D
libRbt.so/2013.1/901 2013/11/27
 42 45  0  0  0  0  0  0  0  0999 V2000
   32.5061   12.8286   48.0751 C   0  0  2  0  0  0  0  0  0  0  0  0
   31.2703   13.3841   48.5916 O   0  0  0  0  0  0  0  0  0  0  0  0
   33.2183   13.9660   47.2882 C   0  0  2  0  0  0  0  0  0  0  0  0
   33.4081   15.2274   48.0604 N   0  3  0  0  0  0  0  0  0  0  0  0
   32.3653   14.2937   46.0433 C   0  0  1  0  0  0  0  0  0  0  0  0
   32.9679   15.3040   45.2844 O   0  0  0  0  0  0  0  0  0  0  0  0
   32.1605   13.0195   45.1900 C   0  0  2  0  0  0  0  0  0  0  0  0
   31.3991   13.3024   44.0327 O   0  0  0  0  0  0  0  0  0  0  0  0
   31.4478   11.9629   46.0071 C   0  0  2  0  0  0  0  0  0  0  0  0
   32.1894   11.7064   47.1929 O   0  0  0  0  0  0  0  0  0  0  0  0
   31.3136   10.6430   45.2814 C   0  0  0  0  0  0  0  0  0  0  0  0
   29.9446   10.3054   45.1661 O   0  0  0  0  0  0  0  0  0  0  0  0
   29.7743    9.8806   50.4181 C   0  0  2  0  0  0  0  0  0  0  0  0
   28.9621    8.9867   51.2443 N   0  3  0  0  0  0  0  0  0  0  0  0
   30.5299   10.9070   51.3258 C   0  0  0  0  0  0  0  0  0  0  0  0
   31.3480   11.8811   50.4566 C   0  0  2  0  0  0  0  0  0  0  0  0
   32.0206   12.8842   51.2887 N   0  3  0  0  0  0  0  0  0  0  0  0
   30.4324   12.5898   49.4393 C   0  0  2  0  0  0  0  0  0  0  0  0
   29.6539   11.6015   48.5492 C   0  0  2  0  0  0  0  0  0  0  0  0
   28.7395   12.3996   47.7730 O   0  0  0  0  0  0  0  0  0  0  0  0
   28.8694   10.5912   49.4242 C   0  0  1  0  0  0  0  0  0  0  0  0
   28.2532    9.6447   48.5950 O   0  0  0  0  0  0  0  0  0  0  0  0
   28.6824   12.3688   46.3493 C   0  0  1  0  0  0  0  0  0  0  0  0
   27.2597   12.8548   45.8957 C   0  0  2  0  0  0  0  0  0  0  0  0
   26.2948   11.8193   45.8204 O   0  0  0  0  0  0  0  0  0  0  0  0
   27.6506   13.4602   44.5548 C   0  0  2  0  0  0  0  0  0  0  0  0
   28.0503   12.4252   43.6067 O   0  0  0  0  0  0  0  0  0  0  0  0
   28.8919   14.2698   44.9029 C   0  0  2  0  0  0  0  0  0  0  0  0
   29.5817   13.3529   45.7695 O   0  0  0  0  0  0  0  0  0  0  0  0
   28.6090   15.6483   45.5851 C   0  0  0  0  0  0  0  0  0  0  0  0
   29.7089   16.0707   46.4010 O   0  0  0  0  0  0  0  0  0  0  0  0
   26.9591   11.8052   42.9312 C   0  0  2  0  0  0  0  0  0  0  0  0
   26.2317   10.6864   43.7518 C   0  0  2  0  0  0  0  0  0  0  0  0
   27.1498    9.5844   44.1715 N   0  3  0  0  0  0  0  0  0  0  0  0
   25.0623   10.1510   42.8598 C   0  0  1  0  0  0  0  0  0  0  0  0
   24.1261   11.2757   42.6449 O   0  0  0  0  0  0  0  0  0  0  0  0
   25.5611    9.6317   41.4552 C   0  0  2  0  0  0  0  0  0  0  0  0
   26.4253    8.5032   41.6659 O   0  0  0  0  0  0  0  0  0  0  0  0
   26.3150   10.8215   40.7285 C   0  0  1  0  0  0  0  0  0  0  0  0
   27.4026   11.2606   41.6102 O   0  0  0  0  0  0  0  0  0  0  0  0
   26.8836   10.4655   39.3360 C   0  0  0  0  0  0  0  0  0  0  0  0
   25.8446   10.0174   38.3694 N   0  3  0  0  0  0  0  0  0  0  0  0
  1  2  1  6  0  0  0
  1  3  1  0  0  0  0
  1 10  1  0  0  0  0
  3  4  1  1  0  0  0
  3  5  1  0  0  0  0
  5  6  1  6  0  0  0
  5  7  1  0  0  0  0
  7  8  1  6  0  0  0
  7  9  1  0  0  0  0
  9 10  1  0  0  0  0
  9 11  1  6  0  0  0
 11 12  1  0  0  0  0
 13 14  1  1  0  0  0
 13 15  1  0  0  0  0
 13 21  1  0  0  0  0
 15 16  1  0  0  0  0
 16 17  1  1  0  0  0
 16 18  1  0  0  0  0
 18  2  1  6  0  0  0
 18 19  1  0  0  0  0
 19 20  1  1  0  0  0
 19 21  1  0  0  0  0
 21 22  1  6  0  0  0
 23 20  1  1  0  0  0
 23 24  1  0  0  0  0
 23 29  1  0  0  0  0
 24 25  1  6  0  0  0
 24 26  1  0  0  0  0
 26 27  1  6  0  0  0
 26 28  1  0  0  0  0
 28 29  1  0  0  0  0
 28 30  1  1  0  0  0
 30 31  1  0  0  0  0
 32 27  1  1  0  0  0
 32 33  1  0  0  0  0
 32 40  1  0  0  0  0
 33 34  1  6  0  0  0
 33 35  1  0  0  0  0
 35 36  1  6  0  0  0
 35 37  1  0  0  0  0
 37 38  1  1  0  0  0
 37 39  1  0  0  0  0
 39 40  1  0  0  0  0
 39 41  1  6  0  0  0
 41 42  1  0  0  0  0
M  CHG  5   4   1  14   1  17   1  34   1  42   1
M  END
>  <CHROM.1>
-175.98261340,44.03396803,63.49509559,-74.48362831,-175.65120569,-121.06155098
50.77975053,-38.88867562,-70.56804759,124.89342837,156.76157993,52.21740691
176.41130559,83.34603583,-80.92508772,153.93645475,-56.41159933,-68.90367944
62.31515766,78.14635969,59.35857774,-50.33458692,29.16772872,11.98646468
45.77206273,-0.71337661,-0.74389152,-1.18326040

>  <Name>
1j7t

>  <RI>
0

>  <Rbt.Current_Directory>
/home/itssahil/PROJECTS/Mol_Feturizer/New_Systems/rnas/1j7t

>  <Rbt.Executable>
rbdock ($Id: //depot/dev/client3/rdock/2013.1/src/exe/rbdock.cxx#4 $)

>  <Rbt.Library>
libRbt.so (2013.1, Build901 2013/11/27)

>  <Rbt.Parameter_File>
/export/apps/rDock/src/rDock_2013.1_src/data/scripts/dock_solv.prm

>  <Rbt.Receptor>
prm/blind_docking_60.prm

>  <SCORE>
57.6851

>  <SCORE.INTER>
18.736

>  <SCORE.INTER.CONST>
1

>  <SCORE.INTER.POLAR>
-2.3865

>  <SCORE.INTER.ROT>
9

>  <SCORE.INTER.SOLV>
34.9703

>  <SCORE.INTER.VDW>
-0.811077

>  <SCORE.INTER.norm>
0.446096

>  <SCORE.INTRA>
3.53928

>  <SCORE.INTRA.DIHEDRAL>
-18.1927

>  <SCORE.INTRA.DIHEDRAL.0>
46.2143

>  <SCORE.INTRA.POLAR>
-0.81806

>  <SCORE.INTRA.POLAR.0>
-1.76436

>  <SCORE.INTRA.REPUL>
0.0928523

>  <SCORE.INTRA.REPUL.0>
0

>  <SCORE.INTRA.SOLV>
5.68775

>  <SCORE.INTRA.SOLV.lig_0>
-148.643

>  <SCORE.INTRA.VDW>
12.1089

>  <SCORE.INTRA.VDW.0>
-4.83512

>  <SCORE.INTRA.norm>
0.0842687

>  <SCORE.RESTR>
35.4098

>  <SCORE.RESTR.CAVITY>
35.4098

>  <SCORE.RESTR.norm>
0.843089

>  <SCORE.SYSTEM>
0

>  <SCORE.SYSTEM.CONST>
0

>  <SCORE.SYSTEM.DIHEDRAL>
0

>  <SCORE.SYSTEM.SOLV>
0

>  <SCORE.SYSTEM.norm>
0

>  <SCORE.heavy>
42

>  <SCORE.norm>
1.37345

>  <RMSD>
12.486

$$$$
1j7t
 OpenBabel11021811393D
libRbt.so/2013.1/901 2013/11/27
 42 45  0  0  0  0  0  0  0  0999 V2000
   30.6017   11.8867   48.9082 C   0  0  2  0  0  0  0  0  0  0  0  0
   31.8597   11.3493   48.4275 O   0  0  0  0  0  0  0  0  0  0  0  0
   30.8104   12.2545   50.4053 C   0  0  2  0  0  0  0  0  0  0  0  0
   31.9780   13.1445   50.6666 N   0  3  0  0  0  0  0  0  0  0  0  0
   31.0242   10.9447   51.1950 C   0  0  1  0  0  0  0  0  0  0  0  0
   31.2021   11.2133   52.5572 O   0  0  0  0  0  0  0  0  0  0  0  0
   29.8235    9.9931   50.9792 C   0  0  2  0  0  0  0  0  0  0  0  0
   29.9893    8.7951   51.7115 O   0  0  0  0  0  0  0  0  0  0  0  0
   29.6888    9.6612   49.5082 C   0  0  2  0  0  0  0  0  0  0  0  0
   29.5642   10.8664   48.7640 O   0  0  0  0  0  0  0  0  0  0  0  0
   28.4654    8.8278   49.1984 C   0  0  0  0  0  0  0  0  0  0  0  0
   28.4450    7.6900   50.0387 O   0  0  0  0  0  0  0  0  0  0  0  0
   33.7667   13.1179   45.0984 C   0  0  2  0  0  0  0  0  0  0  0  0
   34.1918   13.3822   43.7233 N   0  3  0  0  0  0  0  0  0  0  0  0
   34.2514   11.6983   45.5435 C   0  0  0  0  0  0  0  0  0  0  0  0
   33.7641   11.3964   46.9735 C   0  0  2  0  0  0  0  0  0  0  0  0
   34.1641   10.0474   47.3873 N   0  3  0  0  0  0  0  0  0  0  0  0
   32.2303   11.5236   47.0550 C   0  0  2  0  0  0  0  0  0  0  0  0
   31.7220   12.9042   46.5957 C   0  0  2  0  0  0  0  0  0  0  0  0
   30.2843   12.8140   46.5790 O   0  0  0  0  0  0  0  0  0  0  0  0
   32.2523   13.2287   45.1761 C   0  0  1  0  0  0  0  0  0  0  0  0
   31.8609   14.5270   44.8236 O   0  0  0  0  0  0  0  0  0  0  0  0
   29.5486   12.1753   45.5389 C   0  0  1  0  0  0  0  0  0  0  0  0
   28.1116   11.8403   46.0763 C   0  0  2  0  0  0  0  0  0  0  0  0
   28.0187   10.5843   46.7265 O   0  0  0  0  0  0  0  0  0  0  0  0
   27.3561   11.9327   44.7579 C   0  0  2  0  0  0  0  0  0  0  0  0
   27.7229   10.8394   43.8636 O   0  0  0  0  0  0  0  0  0  0  0  0
   27.8946   13.2220   44.1538 C   0  0  2  0  0  0  0  0  0  0  0  0
   29.2981   13.0915   44.4384 O   0  0  0  0  0  0  0  0  0  0  0  0
   27.2786   14.5330   44.7434 C   0  0  0  0  0  0  0  0  0  0  0  0
   27.1380   14.4577   46.1677 O   0  0  0  0  0  0  0  0  0  0  0  0
   26.7481   10.5571   42.8628 C   0  0  2  0  0  0  0  0  0  0  0  0
   25.7706    9.3841   43.2133 C   0  0  2  0  0  0  0  0  0  0  0  0
   26.4813    8.0979   43.4855 N   0  3  0  0  0  0  0  0  0  0  0  0
   24.7724    9.2463   42.0157 C   0  0  1  0  0  0  0  0  0  0  0  0
   24.0031   10.5072   41.9404 O   0  0  0  0  0  0  0  0  0  0  0  0
   25.5077    9.0183   40.6378 C   0  0  2  0  0  0  0  0  0  0  0  0
   26.2074    7.7646   40.6952 O   0  0  0  0  0  0  0  0  0  0  0  0
   26.4973   10.2332   40.3997 C   0  0  1  0  0  0  0  0  0  0  0  0
   27.4098   10.2923   41.5474 O   0  0  0  0  0  0  0  0  0  0  0  0
   27.3123   10.1497   39.0890 C   0  0  0  0  0  0  0  0  0  0  0  0
   28.6686   10.7526   39.1960 N   0  3  0  0  0  0  0  0  0  0  0  0
  1  2  1  1  0  0  0
  1  3  1  0  0  0  0
  1 10  1  0  0  0  0
  3  4  1  6  0  0  0
  3  5  1  0  0  0  0
  5  6  1  1  0  0  0
  5  7  1  0  0  0  0
  7  8  1  1  0  0  0
  7  9  1  0  0  0  0
  9 10  1  0  0  0  0
  9 11  1  1  0  0  0
 11 12  1  0  0  0  0
 13 14  1  6  0  0  0
 13 15  1  0  0  0  0
 13 21  1  0  0  0  0
 15 16  1  0  0  0  0
 16 17  1  6  0  0  0
 16 18  1  0  0  0  0
 18  2  1  1  0  0  0
 18 19  1  0  0  0  0
 19 20  1  6  0  0  0
 19 21  1  0  0  0  0
 21 22  1  1  0  0  0
 23 20  1  1  0  0  0
 23 24  1  0  0  0  0
 23 29  1  0  0  0  0
 24 25  1  6  0  0  0
 24 26  1  0  0  0  0
 26 27  1  6  0  0  0
 26 28  1  0  0  0  0
 28 29  1  0  0  0  0
 28 30  1  1  0  0  0
 30 31  1  0  0  0  0
 32 27  1  1  0  0  0
 32 33  1  0  0  0  0
 32 40  1  0  0  0  0
 33 34  1  6  0  0  0
 33 35  1  0  0  0  0
 35 36  1  6  0  0  0
 35 37  1  0  0  0  0
 37 38  1  1  0  0  0
 37 39  1  0  0  0  0
 39 40  1  0  0  0  0
 39 41  1  6  0  0  0
 41 42  1  0  0  0  0
M  CHG  5   4   1  14   1  17   1  34   1  42   1
M  END
>  <CHROM.1>
-149.35478773,157.16910519,-35.22325024,-89.91070584,-61.46536815,-52.33454171
-65.51541957,-58.40608450,-177.83482852,-78.02827846,160.87982674,76.97112645
73.84398458,157.78788697,-96.71475136,41.73189369,-67.44944798,-172.63911004
-173.74442871,77.02581613,-147.46930206,-163.49382672,29.38240696,11.16633879
45.79305351,0.91370818,0.54838987,1.81531541

>  <Name>
1j7t

>  <RI>
0

>  <Rbt.Current_Directory>
/home/itssahil/PROJECTS/Mol_Feturizer/New_Systems/rnas/1j7t

>  <Rbt.Executable>
rbdock ($Id: //depot/dev/client3/rdock/2013.1/src/exe/rbdock.cxx#4 $)

>  <Rbt.Library>
libRbt.so (2013.1, Build901 2013/11/27)

>  <Rbt.Parameter_File>
/export/apps/rDock/src/rDock_2013.1_src/data/scripts/dock_solv.prm

>  <Rbt.Receptor>
prm/blind_docking_60.prm

>  <SCORE>
20.7785

>  <SCORE.INTER>
-11.8689

>  <SCORE.INTER.CONST>
1

>  <SCORE.INTER.POLAR>
-3.39923

>  <SCORE.INTER.ROT>
9

>  <SCORE.INTER.SOLV>
27.5258

>  <SCORE.INTER.VDW>
-15.3571

>  <SCORE.INTER.norm>
-0.282594

>  <SCORE.INTRA>
-3.8708

>  <SCORE.INTRA.DIHEDRAL>
-15.4708

>  <SCORE.INTRA.DIHEDRAL.0>
46.2143

>  <SCORE.INTRA.POLAR>
0.613615

>  <SCORE.INTRA.POLAR.0>
-1.76436

>  <SCORE.INTRA.REPUL>
0

>  <SCORE.INTRA.REPUL.0>
0

>  <SCORE.INTRA.SOLV>
-3.62945

>  <SCORE.INTRA.SOLV.lig_0>
-148.643

>  <SCORE.INTRA.VDW>
3.59301

>  <SCORE.INTRA.VDW.0>
-4.83512

>  <SCORE.INTRA.norm>
-0.092162

>  <SCORE.RESTR>
36.5183

>  <SCORE.RESTR.CAVITY>
36.5183

>  <SCORE.RESTR.norm>
0.869483

>  <SCORE.SYSTEM>
0

>  <SCORE.SYSTEM.CONST>
0

>  <SCORE.SYSTEM.DIHEDRAL>
0

>  <SCORE.SYSTEM.SOLV>
0

>  <SCORE.SYSTEM.norm>
0

>  <SCORE.heavy>
42

>  <SCORE.norm>
0.494727

>  <RMSD>
12.620

$$$$
1j7t
 OpenBabel11021811393D
libRbt.so/2013.1/901 2013/11/27
 42 45  0  0  0  0  0  0  0  0999 V2000
   18.5434   30.2091   67.7937 C   0  0  2  0  0  0  0  0  0  0  0  0
   17.2686   30.7287   68.2492 O   0  0  0  0  0  0  0  0  0  0  0  0
   19.3383   29.7868   69.0625 C   0  0  2  0  0  0  0  0  0  0  0  0
   18.6058   28.8581   69.9707 N   0  3  0  0  0  0  0  0  0  0  0  0
   19.6789   31.0637   69.8614 C   0  0  1  0  0  0  0  0  0  0  0  0
   20.4114   30.7457   71.0111 O   0  0  0  0  0  0  0  0  0  0  0  0
   20.4659   32.0532   68.9697 C   0  0  2  0  0  0  0  0  0  0  0  0
   20.8068   33.2216   69.6892 O   0  0  0  0  0  0  0  0  0  0  0  0
   19.6308   32.4369   67.7667 C   0  0  2  0  0  0  0  0  0  0  0  0
   19.2506   31.2606   67.0641 O   0  0  0  0  0  0  0  0  0  0  0  0
   20.3752   33.3120   66.7832 C   0  0  0  0  0  0  0  0  0  0  0  0
   21.0510   34.3387   67.4835 O   0  0  0  0  0  0  0  0  0  0  0  0
   14.5853   28.6796   65.7097 C   0  0  2  0  0  0  0  0  0  0  0  0
   13.4240   28.3830   64.8702 N   0  3  0  0  0  0  0  0  0  0  0  0
   14.1246   28.9599   67.1786 C   0  0  0  0  0  0  0  0  0  0  0  0
   15.3393   29.3206   68.0551 C   0  0  2  0  0  0  0  0  0  0  0  0
   14.9192   29.6390   69.4237 N   0  3  0  0  0  0  0  0  0  0  0  0
   16.0928   30.5248   67.4571 C   0  0  2  0  0  0  0  0  0  0  0  0
   16.5349   30.2869   66.0000 C   0  0  2  0  0  0  0  0  0  0  0  0
   17.0757   31.5398   65.5383 O   0  0  0  0  0  0  0  0  0  0  0  0
   15.3207   29.8769   65.1287 C   0  0  1  0  0  0  0  0  0  0  0  0
   15.7643   29.5692   63.8358 O   0  0  0  0  0  0  0  0  0  0  0  0
   16.5272   32.8086   65.8856 C   0  0  1  0  0  0  0  0  0  0  0  0
   15.6480   33.3176   64.6882 C   0  0  2  0  0  0  0  0  0  0  0  0
   16.3712   34.0501   63.7138 O   0  0  0  0  0  0  0  0  0  0  0  0
   14.6431   34.1374   65.4853 C   0  0  2  0  0  0  0  0  0  0  0  0
   15.2706   35.3213   66.0636 O   0  0  0  0  0  0  0  0  0  0  0  0
   14.2822   33.2018   66.6306 C   0  0  2  0  0  0  0  0  0  0  0  0
   15.5779   32.6850   66.9796 O   0  0  0  0  0  0  0  0  0  0  0  0
   13.2617   32.0749   66.2637 C   0  0  0  0  0  0  0  0  0  0  0  0
   13.0734   31.9723   64.8467 O   0  0  0  0  0  0  0  0  0  0  0  0
   14.9590   36.5338   65.3823 C   0  0  2  0  0  0  0  0  0  0  0  0
   15.3537   36.5530   63.8663 C   0  0  2  0  0  0  0  0  0  0  0  0
   16.8103   36.3049   63.6425 N   0  3  0  0  0  0  0  0  0  0  0  0
   14.9136   37.9425   63.2959 C   0  0  1  0  0  0  0  0  0  0  0  0
   13.4409   38.0156   63.4105 O   0  0  0  0  0  0  0  0  0  0  0  0
   15.5443   39.1509   64.0918 C   0  0  2  0  0  0  0  0  0  0  0  0
   16.9716   39.1089   63.9306 O   0  0  0  0  0  0  0  0  0  0  0  0
   15.1206   39.0148   65.6129 C   0  0  1  0  0  0  0  0  0  0  0  0
   15.5767   37.7020   66.0838 O   0  0  0  0  0  0  0  0  0  0  0  0
   15.6775   40.1226   66.5358 C   0  0  0  0  0  0  0  0  0  0  0  0
   15.5627   41.4885   65.9566 N   0  3  0  0  0  0  0  0  0  0  0  0
  1  2  1  1  0  0  0
  1  3  1  0  0  0  0
  1 10  1  0  0  0  0
  3  4  1  1  0  0  0
  3  5  1  0  0  0  0
  5  6  1  1  0  0  0
  5  7  1  0  0  0  0
  7  8  1  1  0  0  0
  7  9  1  0  0  0  0
  9 10  1  0  0  0  0
  9 11  1  6  0  0  0
 11 12  1  0  0  0  0
 13 14  1  6  0  0  0
 13 15  1  0  0  0  0
 13 21  1  0  0  0  0
 15 16  1  0  0  0  0
 16 17  1  1  0  0  0
 16 18  1  0  0  0  0
 18  2  1  1  0  0  0
 18 19  1  0  0  0  0
 19 20  1  6  0  0  0
 19 21  1  0  0  0  0
 21 22  1  6  0  0  0
 23 20  1  6  0  0  0
 23 24  1  0  0  0  0
 23 29  1  0  0  0  0
 24 25  1  6  0  0  0
 24 26  1  0  0  0  0
 26 27  1  1  0  0  0
 26 28  1  0  0  0  0
 28 29  1  0  0  0  0
 28 30  1  6  0  0  0
 30 31  1  0  0  0  0
 32 27  1  1  0  0  0
 32 33  1  0  0  0  0
 32 40  1  0  0  0  0
 33 34  1  1  0  0  0
 33 35  1  0  0  0  0
 35 36  1  1  0  0  0
 35 37  1  0  0  0  0
 37 38  1  1  0  0  0
 37 39  1  0  0  0  0
 39 40  1  0  0  0  0
 39 41  1  1  0  0  0
 41 42  1  0  0  0  0
M  CHG  5   4   1  14   1  17   1  34   1  42   1
M  END
>  <CHROM.1>
-145.89550047,98.57847721,-111.91333447,-54.49735825,-173.02666885,-45.91549107
165.25322680,58.26806045,161.36999040,-38.10296518,-100.24147976,-174.66178353
-179.50216530,103.95497182,-58.37867661,12.09088934,60.58259342,-83.18383073
-177.50400885,178.90663484,44.35468446,60.46066303,16.52346381,33.27410120
66.40745323,-1.29287376,-0.58700335,-0.22641390

>  <Name>
1j7t

>  <RI>
0

>  <Rbt.Current_Directory>
/home/itssahil/PROJECTS/Mol_Feturizer/New_Systems/rnas/1j7t

>  <Rbt.Executable>
rbdock ($Id: //depot/dev/client3/rdock/2013.1/src/exe/rbdock.cxx#4 $)

>  <Rbt.Library>
libRbt.so (2013.1, Build901 2013/11/27)

>  <Rbt.Parameter_File>
/export/apps/rDock/src/rDock_2013.1_src/data/scripts/dock_solv.prm

>  <Rbt.Receptor>
prm/blind_docking_80.prm

>  <SCORE>
37.1876

>  <SCORE.INTER>
-0.724977

>  <SCORE.INTER.CONST>
1

>  <SCORE.INTER.POLAR>
-3.10541

>  <SCORE.INTER.ROT>
9

>  <SCORE.INTER.SOLV>
34.4103

>  <SCORE.INTER.VDW>
-11.202

>  <SCORE.INTER.norm>
-0.0172614

>  <SCORE.INTRA>
13.544

>  <SCORE.INTRA.DIHEDRAL>
-9.7376

>  <SCORE.INTRA.DIHEDRAL.0>
46.2143

>  <SCORE.INTRA.POLAR>
0.101148

>  <SCORE.INTRA.POLAR.0>
-1.76436

>  <SCORE.INTRA.REPUL>
0.000114777

>  <SCORE.INTRA.REPUL.0>
0

>  <SCORE.INTRA.SOLV>
5.86969

>  <SCORE.INTRA.SOLV.lig_0>
-148.643

>  <SCORE.INTRA.VDW>
15.1335

>  <SCORE.INTRA.VDW.0>
-4.83512

>  <SCORE.INTRA.norm>
0.322476

>  <SCORE.RESTR>
24.3686

>  <SCORE.RESTR.CAVITY>
24.3686

>  <SCORE.RESTR.norm>
0.580205

>  <SCORE.SYSTEM>
0

>  <SCORE.SYSTEM.CONST>
0

>  <SCORE.SYSTEM.DIHEDRAL>
0

>  <SCORE.SYSTEM.SOLV>
0

>  <SCORE.SYSTEM.norm>
0

>  <SCORE.heavy>
42

>  <SCORE.norm>
0.88542

>  <RMSD>
32.310

$$$$
1j7t
 OpenBabel11021811393D
libRbt.so/2013.1/901 2013/11/27
 42 45  0  0  0  0  0  0  0  0999 V2000
   15.2013   31.2656   67.7791 C   0  0  2  0  0  0  0  0  0  0  0  0
   16.2578   30.7359   68.6192 O   0  0  0  0  0  0  0  0  0  0  0  0
   13.8562   30.7497   68.3659 C   0  0  2  0  0  0  0  0  0  0  0  0
   13.6643   31.0354   69.8169 N   0  3  0  0  0  0  0  0  0  0  0  0
   13.8047   29.2186   68.1714 C   0  0  1  0  0  0  0  0  0  0  0  0
   12.6039   28.6982   68.6684 O   0  0  0  0  0  0  0  0  0  0  0  0
   13.9724   28.8681   66.6739 C   0  0  2  0  0  0  0  0  0  0  0  0
   13.9067   27.4704   66.4708 O   0  0  0  0  0  0  0  0  0  0  0  0
   15.3058   29.3805   66.1723 C   0  0  2  0  0  0  0  0  0  0  0  0
   15.3925   30.7791   66.4135 O   0  0  0  0  0  0  0  0  0  0  0  0
   15.4962   29.1807   64.6854 C   0  0  0  0  0  0  0  0  0  0  0  0
   15.7465   30.4297   64.0703 O   0  0  0  0  0  0  0  0  0  0  0  0
   20.2421   32.1375   68.5263 C   0  0  2  0  0  0  0  0  0  0  0  0
   21.6454   32.3013   68.1448 N   0  3  0  0  0  0  0  0  0  0  0  0
   19.9962   30.6818   69.0448 C   0  0  0  0  0  0  0  0  0  0  0  0
   18.5097   30.4905   69.4015 C   0  0  2  0  0  0  0  0  0  0  0  0
   18.2506   29.1148   69.8387 N   0  3  0  0  0  0  0  0  0  0  0  0
   17.6205   30.8177   68.1857 C   0  0  2  0  0  0  0  0  0  0  0  0
   17.8616   32.2373   67.6364 C   0  0  2  0  0  0  0  0  0  0  0  0
   17.0854   32.3334   66.4266 O   0  0  0  0  0  0  0  0  0  0  0  0
   19.3651   32.4457   67.3232 C   0  0  1  0  0  0  0  0  0  0  0  0
   19.5727   33.7720   66.9222 O   0  0  0  0  0  0  0  0  0  0  0  0
   16.6748   33.5714   65.8522 C   0  0  1  0  0  0  0  0  0  0  0  0
   15.5194   33.2879   64.8271 C   0  0  2  0  0  0  0  0  0  0  0  0
   15.9725   32.9876   63.5181 O   0  0  0  0  0  0  0  0  0  0  0  0
   14.7794   34.6118   64.9572 C   0  0  2  0  0  0  0  0  0  0  0  0
   15.5619   35.7092   64.3975 O   0  0  0  0  0  0  0  0  0  0  0  0
   14.7170   34.8129   66.4648 C   0  0  2  0  0  0  0  0  0  0  0  0
   16.0481   34.4261   66.8472 O   0  0  0  0  0  0  0  0  0  0  0  0
   13.6131   33.9800   67.1951 C   0  0  0  0  0  0  0  0  0  0  0  0
   13.3618   34.4770   68.5156 O   0  0  0  0  0  0  0  0  0  0  0  0
   14.8917   36.9669   64.4151 C   0  0  2  0  0  0  0  0  0  0  0  0
   13.8353   37.1618   63.2747 C   0  0  2  0  0  0  0  0  0  0  0  0
   14.4223   37.0150   61.9082 N   0  3  0  0  0  0  0  0  0  0  0  0
   13.1987   38.5773   63.4770 C   0  0  1  0  0  0  0  0  0  0  0  0
   12.5012   38.5606   64.7812 O   0  0  0  0  0  0  0  0  0  0  0  0
   14.2774   39.7294   63.4941 C   0  0  2  0  0  0  0  0  0  0  0  0
   14.9129   39.7794   62.2063 O   0  0  0  0  0  0  0  0  0  0  0  0
   15.3156   39.4164   64.6500 C   0  0  1  0  0  0  0  0  0  0  0  0
   15.8819   38.0881   64.3885 O   0  0  0  0  0  0  0  0  0  0  0  0
   16.4551   40.4517   64.7868 C   0  0  0  0  0  0  0  0  0  0  0  0
   16.3230   41.3219   65.9868 N   0  3  0  0  0  0  0  0  0  0  0  0
  1  2  1  1  0  0  0
  1  3  1  0  0  0  0
  1 10  1  0  0  0  0
  3  4  1  1  0  0  0
  3  5  1  0  0  0  0
  5  6  1  6  0  0  0
  5  7  1  0  0  0  0
  7  8  1  1  0  0  0
  7  9  1  0  0  0  0
  9 10  1  0  0  0  0
  9 11  1  6  0  0  0
 11 12  1  0  0  0  0
 13 14  1  6  0  0  0
 13 15  1  0  0  0  0
 13 21  1  0  0  0  0
 15 16  1  0  0  0  0
 16 17  1  6  0  0  0
 16 18  1  0  0  0  0
 18  2  1  1  0  0  0
 18 19  1  0  0  0  0
 19 20  1  6  0  0  0
 19 21  1  0  0  0  0
 21 22  1  1  0  0  0
 23 20  1  1  0  0  0
 23 24  1  0  0  0  0
 23 29  1  0  0  0  0
 24 25  1  6  0  0  0
 24 26  1  0  0  0  0
 26 27  1  6  0  0  0
 26 28  1  0  0  0  0
 28 29  1  0  0  0  0
 28 30  1  1  0  0  0
 30 31  1  0  0  0  0
 32 27  1  6  0  0  0
 32 33  1  0  0  0  0
 32 40  1  0  0  0  0
 33 34  1  6  0  0  0
 33 35  1  0  0  0  0
 35 36  1  1  0  0  0
 35 37  1  0  0  0  0
 37 38  1  6  0  0  0
 37 39  1  0  0  0  0
 39 40  1  0  0  0  0
 39 41  1  6  0  0  0
 41 42  1  0  0  0  0
M  CHG  5   4   1  14   1  17   1  34   1  42   1
M  END
>  <CHROM.1>
167.75528732,166.89333334,37.23343196,-62.90671060,63.12822283,122.66162237
43.26932616,62.16057170,-139.64402577,158.58239418,-163.20956192,-64.46927634
-175.30004452,176.45485638,-78.96788427,-163.95263929,-56.40630988,-177.90424391
70.18088225,-174.30727175,107.37986489,83.47255753,15.79821322,33.56099301
66.27044795,1.41192342,0.34307120,2.77595972

>  <Name>
1j7t

>  <RI>
0

>  <Rbt.Current_Directory>
/home/itssahil/PROJECTS/Mol_Feturizer/New_Systems/rnas/1j7t

>  <Rbt.Executable>
rbdock ($Id: //depot/dev/client3/rdock/2013.1/src/exe/rbdock.cxx#4 $)

>  <Rbt.Library>
libRbt.so (2013.1, Build901 2013/11/27)

>  <Rbt.Parameter_File>
/export/apps/rDock/src/rDock_2013.1_src/data/scripts/dock_solv.prm

>  <Rbt.Receptor>
prm/blind_docking_100.prm

>  <SCORE>
-23.6155

>  <SCORE.INTER>
-31.819

>  <SCORE.INTER.CONST>
1

>  <SCORE.INTER.POLAR>
-5.70764

>  <SCORE.INTER.ROT>
9

>  <SCORE.INTER.SOLV>
40.6556

>  <SCORE.INTER.VDW>
-25.3391

>  <SCORE.INTER.norm>
-0.757596

>  <SCORE.INTRA>
-5.55516

>  <SCORE.INTRA.DIHEDRAL>
-20.7699

>  <SCORE.INTRA.DIHEDRAL.0>
46.2143

>  <SCORE.INTRA.POLAR>
0.763711

>  <SCORE.INTRA.POLAR.0>
-1.76436

>  <SCORE.INTRA.REPUL>
0.0808219

>  <SCORE.INTRA.REPUL.0>
0

>  <SCORE.INTRA.SOLV>
-4.66889

>  <SCORE.INTRA.SOLV.lig_0>
-148.643

>  <SCORE.INTRA.VDW>
4.16351

>  <SCORE.INTRA.VDW.0>
-4.83512

>  <SCORE.INTRA.norm>
-0.132266

>  <SCORE.RESTR>
13.7587

>  <SCORE.RESTR.CAVITY>
13.7587

>  <SCORE.RESTR.norm>
0.327589

>  <SCORE.SYSTEM>
0

>  <SCORE.SYSTEM.CONST>
0

>  <SCORE.SYSTEM.DIHEDRAL>
0

>  <SCORE.SYSTEM.SOLV>
0

>  <SCORE.SYSTEM.norm>
0

>  <SCORE.heavy>
42

>  <SCORE.norm>
-0.562273

>  <RMSD>
32.762

$$$$
1j7t
 OpenBabel11021811393D
libRbt.so/2013.1/901 2013/11/27
 42 45  0  0  0  0  0  0  0  0999 V2000
   15.8427   31.6977   67.3872 C   0  0  2  0  0  0  0  0  0  0  0  0
   17.1200   31.2048   67.8647 O   0  0  0  0  0  0  0  0  0  0  0  0
   14.7464   30.7823   68.0037 C   0  0  2  0  0  0  0  0  0  0  0  0
   14.8164   30.6462   69.4870 N   0  3  0  0  0  0  0  0  0  0  0  0
   14.8971   29.3737   67.3888 C   0  0  1  0  0  0  0  0  0  0  0  0
   13.9223   28.5069   67.8965 O   0  0  0  0  0  0  0  0  0  0  0  0
   14.8042   29.4554   65.8466 C   0  0  2  0  0  0  0  0  0  0  0  0
   14.9185   28.1721   65.2642 O   0  0  0  0  0  0  0  0  0  0  0  0
   15.9075   30.3434   65.3116 C   0  0  2  0  0  0  0  0  0  0  0  0
   15.8212   31.6224   65.9271 O   0  0  0  0  0  0  0  0  0  0  0  0
   15.8150   30.5694   63.8192 C   0  0  0  0  0  0  0  0  0  0  0  0
   14.5643   30.1051   63.3487 O   0  0  0  0  0  0  0  0  0  0  0  0
   20.4268   33.7024   68.6865 C   0  0  2  0  0  0  0  0  0  0  0  0
   21.6424   34.4969   68.5063 N   0  3  0  0  0  0  0  0  0  0  0  0
   20.7157   32.2013   68.3526 C   0  0  0  0  0  0  0  0  0  0  0  0
   19.4266   31.3695   68.4939 C   0  0  2  0  0  0  0  0  0  0  0  0
   19.6670   29.9686   68.1325 N   0  3  0  0  0  0  0  0  0  0  0  0
   18.3152   31.9469   67.5956 C   0  0  2  0  0  0  0  0  0  0  0  0
   18.0284   33.4334   67.8841 C   0  0  2  0  0  0  0  0  0  0  0  0
   17.0949   33.8623   66.8741 O   0  0  0  0  0  0  0  0  0  0  0  0
   19.3344   34.2624   67.7894 C   0  0  1  0  0  0  0  0  0  0  0  0
   19.0659   35.5884   68.1536 O   0  0  0  0  0  0  0  0  0  0  0  0
   16.6831   35.2166   66.7083 C   0  0  1  0  0  0  0  0  0  0  0  0
   15.9129   35.3414   65.3455 C   0  0  2  0  0  0  0  0  0  0  0  0
   16.7510   35.6035   64.2328 O   0  0  0  0  0  0  0  0  0  0  0  0
   14.9799   36.4834   65.7232 C   0  0  2  0  0  0  0  0  0  0  0  0
   15.7172   37.7315   65.8917 O   0  0  0  0  0  0  0  0  0  0  0  0
   14.4719   36.0601   67.0944 C   0  0  2  0  0  0  0  0  0  0  0  0
   15.6860   35.5841   67.7003 O   0  0  0  0  0  0  0  0  0  0  0  0
   13.3432   34.9778   67.0732 C   0  0  0  0  0  0  0  0  0  0  0  0
   13.8798   33.6562   66.9329 O   0  0  0  0  0  0  0  0  0  0  0  0
   15.7011   38.5740   64.7422 C   0  0  2  0  0  0  0  0  0  0  0  0
   16.1599   40.0487   65.0049 C   0  0  2  0  0  0  0  0  0  0  0  0
   15.3358   40.7367   66.0445 N   0  3  0  0  0  0  0  0  0  0  0  0
   16.0970   40.7993   63.6329 C   0  0  1  0  0  0  0  0  0  0  0  0
   17.0709   40.1457   62.7318 O   0  0  0  0  0  0  0  0  0  0  0  0
   14.6665   40.7290   62.9695 C   0  0  2  0  0  0  0  0  0  0  0  0
   13.7338   41.4148   63.8207 O   0  0  0  0  0  0  0  0  0  0  0  0
   14.2820   39.2024   62.7861 C   0  0  1  0  0  0  0  0  0  0  0  0
   14.3461   38.5680   64.1078 O   0  0  0  0  0  0  0  0  0  0  0  0
   12.8900   38.9621   62.1590 C   0  0  0  0  0  0  0  0  0  0  0  0
   12.6148   37.5305   61.8601 N   0  3  0  0  0  0  0  0  0  0  0  0
  1  2  1  1  0  0  0
  1  3  1  0  0  0  0
  1 10  1  0  0  0  0
  3  4  1  1  0  0  0
  3  5  1  0  0  0  0
  5  6  1  1  0  0  0
  5  7  1  0  0  0  0
  7  8  1  6  0  0  0
  7  9  1  0  0  0  0
  9 10  1  0  0  0  0
  9 11  1  6  0  0  0
 11 12  1  0  0  0  0
 13 14  1  6  0  0  0
 13 15  1  0  0  0  0
 13 21  1  0  0  0  0
 15 16  1  0  0  0  0
 16 17  1  6  0  0  0
 16 18  1  0  0  0  0
 18  2  1  1  0  0  0
 18 19  1  0  0  0  0
 19 20  1  6  0  0  0
 19 21  1  0  0  0  0
 21 22  1  1  0  0  0
 23 20  1  1  0  0  0
 23 24  1  0  0  0  0
 23 29  1  0  0  0  0
 24 25  1  6  0  0  0
 24 26  1  0  0  0  0
 26 27  1  1  0  0  0
 26 28  1  0  0  0  0
 28 29  1  0  0  0  0
 28 30  1  6  0  0  0
 30 31  1  0  0  0  0
 32 27  1  1  0  0  0
 32 33  1  0  0  0  0
 32 40  1  0  0  0  0
 33 34  1  1  0  0  0
 33 35  1  0  0  0  0
 35 36  1  6  0  0  0
 35 37  1  0  0  0  0
 37 38  1  1  0  0  0
 37 39  1  0  0  0  0
 39 40  1  0  0  0  0
 39 41  1  1  0  0  0
 41 42  1  0  0  0  0
M  CHG  5   4   1  14   1  17   1  34   1  42   1
M  END
>  <CHROM.1>
-172.42663362,166.77988878,179.51998741,62.43553120,60.52863274,11.55910110
-68.64425560,66.87938633,-168.67746875,-173.26486841,168.31816953,-50.03472586
-179.97159303,96.98111812,165.20219996,82.34988926,62.37085761,61.93203161
-65.40440267,70.13788760,173.65913506,15.73756304,16.10574231,34.52623053
66.05534581,1.34867255,0.56170114,2.90022517

>  <Name>
1j7t

>  <RI>
0

>  <Rbt.Current_Directory>
/home/itssahil/PROJECTS/Mol_Feturizer/New_Systems/rnas/1j7t

>  <Rbt.Executable>
rbdock ($Id: //depot/dev/client3/rdock/2013.1/src/exe/rbdock.cxx#4 $)

>  <Rbt.Library>
libRbt.so (2013.1, Build901 2013/11/27)

>  <Rbt.Parameter_File>
/export/apps/rDock/src/rDock_2013.1_src/data/scripts/dock_solv.prm

>  <Rbt.Receptor>
prm/blind_docking_100.prm

>  <SCORE>
-13.5618

>  <SCORE.INTER>
-17.7511

>  <SCORE.INTER.CONST>
1

>  <SCORE.INTER.POLAR>
-3.96617

>  <SCORE.INTER.ROT>
9

>  <SCORE.INTER.SOLV>
40.0454

>  <SCORE.INTER.VDW>
-21.562

>  <SCORE.INTER.norm>
-0.422645

>  <SCORE.INTRA>
-8.5867

>  <SCORE.INTRA.DIHEDRAL>
-26.3934

>  <SCORE.INTRA.DIHEDRAL.0>
46.2143

>  <SCORE.INTRA.POLAR>
1.07474

>  <SCORE.INTRA.POLAR.0>
-1.76436

>  <SCORE.INTRA.REPUL>
0

>  <SCORE.INTRA.REPUL.0>
0

>  <SCORE.INTRA.SOLV>
-4.69434

>  <SCORE.INTRA.SOLV.lig_0>
-148.643

>  <SCORE.INTRA.VDW>
3.30307

>  <SCORE.INTRA.VDW.0>
-4.83512

>  <SCORE.INTRA.norm>
-0.204445

>  <SCORE.RESTR>
12.776

>  <SCORE.RESTR.CAVITY>
12.776

>  <SCORE.RESTR.norm>
0.30419

>  <SCORE.SYSTEM>
0

>  <SCORE.SYSTEM.CONST>
0

>  <SCORE.SYSTEM.DIHEDRAL>
0

>  <SCORE.SYSTEM.SOLV>
0

>  <SCORE.SYSTEM.norm>
0

>  <SCORE.heavy>
42

>  <SCORE.norm>
-0.3229

>  <RMSD>
33.316

$$$$
1j7t
 OpenBabel11021811393D
libRbt.so/2013.1/901 2013/11/27
 42 45  0  0  0  0  0  0  0  0999 V2000
   18.1210   30.2670   67.4448 C   0  0  2  0  0  0  0  0  0  0  0  0
   17.7386   31.6614   67.3355 O   0  0  0  0  0  0  0  0  0  0  0  0
   16.8220   29.4646   67.7429 C   0  0  2  0  0  0  0  0  0  0  0  0
   15.7114   29.7045   66.7773 N   0  3  0  0  0  0  0  0  0  0  0  0
   16.3245   29.8639   69.1493 C   0  0  1  0  0  0  0  0  0  0  0  0
   15.1617   29.1583   69.4801 O   0  0  0  0  0  0  0  0  0  0  0  0
   17.4339   29.6082   70.1969 C   0  0  2  0  0  0  0  0  0  0  0  0
   16.9911   29.9475   71.4961 O   0  0  0  0  0  0  0  0  0  0  0  0
   18.6590   30.4312   69.8594 C   0  0  2  0  0  0  0  0  0  0  0  0
   19.0823   30.1233   68.5372 O   0  0  0  0  0  0  0  0  0  0  0  0
   19.8323   30.1487   70.7708 C   0  0  0  0  0  0  0  0  0  0  0  0
   19.6184   30.7735   72.0218 O   0  0  0  0  0  0  0  0  0  0  0  0
   21.0032   34.1489   68.3369 C   0  0  2  0  0  0  0  0  0  0  0  0
   22.0547   35.1620   68.2400 N   0  3  0  0  0  0  0  0  0  0  0  0
   21.2452   33.0251   67.2753 C   0  0  0  0  0  0  0  0  0  0  0  0
   20.1135   31.9817   67.3410 C   0  0  2  0  0  0  0  0  0  0  0  0
   20.2958   30.9488   66.3159 N   0  3  0  0  0  0  0  0  0  0  0  0
   18.7448   32.6627   67.1445 C   0  0  2  0  0  0  0  0  0  0  0  0
   18.4910   33.7935   68.1603 C   0  0  2  0  0  0  0  0  0  0  0  0
   17.2622   34.4260   67.7535 O   0  0  0  0  0  0  0  0  0  0  0  0
   19.6537   34.8176   68.1283 C   0  0  1  0  0  0  0  0  0  0  0  0
   19.4496   35.7779   69.1279 O   0  0  0  0  0  0  0  0  0  0  0  0
   17.1537   35.2715   66.6113 C   0  0  1  0  0  0  0  0  0  0  0  0
   16.1251   34.6318   65.6119 C   0  0  2  0  0  0  0  0  0  0  0  0
   16.7026   33.7092   64.7040 O   0  0  0  0  0  0  0  0  0  0  0  0
   15.6096   35.9147   64.9750 C   0  0  2  0  0  0  0  0  0  0  0  0
   16.6386   36.5452   64.1544 O   0  0  0  0  0  0  0  0  0  0  0  0
   15.3678   36.8125   66.1803 C   0  0  2  0  0  0  0  0  0  0  0  0
   16.5457   36.5450   66.9606 O   0  0  0  0  0  0  0  0  0  0  0  0
   14.0459   36.5214   66.9636 C   0  0  0  0  0  0  0  0  0  0  0  0
   13.9477   37.3184   68.1507 O   0  0  0  0  0  0  0  0  0  0  0  0
   16.2831   37.8381   63.6710 C   0  0  2  0  0  0  0  0  0  0  0  0
   17.3255   38.9642   63.9862 C   0  0  2  0  0  0  0  0  0  0  0  0
   17.5896   39.1180   65.4491 N   0  3  0  0  0  0  0  0  0  0  0  0
   16.7730   40.2881   63.3602 C   0  0  1  0  0  0  0  0  0  0  0  0
   16.7104   40.0866   61.8963 O   0  0  0  0  0  0  0  0  0  0  0  0
   15.3286   40.6488   63.8843 C   0  0  2  0  0  0  0  0  0  0  0  0
   15.4045   40.8996   65.2971 O   0  0  0  0  0  0  0  0  0  0  0  0
   14.3661   39.4337   63.5541 C   0  0  1  0  0  0  0  0  0  0  0  0
   14.9344   38.2354   64.1822 O   0  0  0  0  0  0  0  0  0  0  0  0
   12.9058   39.6258   64.0229 C   0  0  0  0  0  0  0  0  0  0  0  0
   12.7941   40.1423   65.4141 N   0  3  0  0  0  0  0  0  0  0  0  0
  1  2  1  1  0  0  0
  1  3  1  0  0  0  0
  1 10  1  0  0  0  0
  3  4  1  6  0  0  0
  3  5  1  0  0  0  0
  5  6  1  1  0  0  0
  5  7  1  0  0  0  0
  7  8  1  1  0  0  0
  7  9  1  0  0  0  0
  9 10  1  0  0  0  0
  9 11  1  1  0  0  0
 11 12  1  0  0  0  0
 13 14  1  6  0  0  0
 13 15  1  0  0  0  0
 13 21  1  0  0  0  0
 15 16  1  0  0  0  0
 16 17  1  6  0  0  0
 16 18  1  0  0  0  0
 18  2  1  1  0  0  0
 18 19  1  0  0  0  0
 19 20  1  6  0  0  0
 19 21  1  0  0  0  0
 21 22  1  1  0  0  0
 23 20  1  1  0  0  0
 23 24  1  0  0  0  0
 23 29  1  0  0  0  0
 24 25  1  6  0  0  0
 24 26  1  0  0  0  0
 26 27  1  6  0  0  0
 26 28  1  0  0  0  0
 28 29  1  0  0  0  0
 28 30  1  1  0  0  0
 30 31  1  0  0  0  0
 32 27  1  1  0  0  0
 32 33  1  0  0  0  0
 32 40  1  0  0  0  0
 33 34  1  1  0  0  0
 33 35  1  0  0  0  0
 35 36  1  6  0  0  0
 35 37  1  0  0  0  0
 37 38  1  1  0  0  0
 37 39  1  0  0  0  0
 39 40  1  0  0  0  0
 39 41  1  1  0  0  0
 41 42  1  0  0  0  0
M  CHG  5   4   1  14   1  17   1  34   1  42   1
M  END
>  <CHROM.1>
176.11569964,-9.57284377,63.33607080,43.70514164,-66.70758173,-75.98854933
-45.37429388,-34.27432616,-0.53601539,-73.10946216,119.05902610,80.07003927
66.04886881,-172.16735489,126.75477506,174.61742512,-173.50342202,164.91428995
45.92602300,64.30723567,-45.95031664,18.82973247,17.18577140,34.69037213
66.87710776,1.26535274,0.11504821,2.67308086

>  <Name>
1j7t

>  <RI>
0

>  <Rbt.Current_Directory>
/home/itssahil/PROJECTS/Mol_Feturizer/New_Systems/rnas/1j7t

>  <Rbt.Executable>
rbdock ($Id: //depot/dev/client3/rdock/2013.1/src/exe/rbdock.cxx#4 $)

>  <Rbt.Library>
libRbt.so (2013.1, Build901 2013/11/27)

>  <Rbt.Parameter_File>
/export/apps/rDock/src/rDock_2013.1_src/data/scripts/dock_solv.prm

>  <Rbt.Receptor>
prm/blind_docking_100.prm

>  <SCORE>
47.8269

>  <SCORE.INTER>
23.7362

>  <SCORE.INTER.CONST>
1

>  <SCORE.INTER.POLAR>
-2.87675

>  <SCORE.INTER.ROT>
9

>  <SCORE.INTER.SOLV>
46.7908

>  <SCORE.INTER.VDW>
0.216377

>  <SCORE.INTER.norm>
0.565149

>  <SCORE.INTRA>
9.76154

>  <SCORE.INTRA.DIHEDRAL>
-8.14034

>  <SCORE.INTRA.DIHEDRAL.0>
46.2143

>  <SCORE.INTRA.POLAR>
-0.374625

>  <SCORE.INTRA.POLAR.0>
-1.76436

>  <SCORE.INTRA.REPUL>
0

>  <SCORE.INTRA.REPUL.0>
0

>  <SCORE.INTRA.SOLV>
3.86393

>  <SCORE.INTRA.SOLV.lig_0>
-148.643

>  <SCORE.INTRA.VDW>
13.1735

>  <SCORE.INTRA.VDW.0>
-4.83512

>  <SCORE.INTRA.norm>
0.232418

>  <SCORE.RESTR>
14.3291

>  <SCORE.RESTR.CAVITY>
14.3291

>  <SCORE.RESTR.norm>
0.34117

>  <SCORE.SYSTEM>
0

>  <SCORE.SYSTEM.CONST>
0

>  <SCORE.SYSTEM.DIHEDRAL>
0

>  <SCORE.SYSTEM.SOLV>
0

>  <SCORE.SYSTEM.norm>
0

>  <SCORE.heavy>
42

>  <SCORE.norm>
1.13874

>  <RMSD>
33.367

$$$$
1j7t
 OpenBabel11021811393D
libRbt.so/2013.1/901 2013/11/27
 42 45  0  0  0  0  0  0  0  0999 V2000
   16.1141   31.7583   65.8426 C   0  0  2  0  0  0  0  0  0  0  0  0
   17.3481   31.3210   66.4659 O   0  0  0  0  0  0  0  0  0  0  0  0
   14.9491   31.1043   66.6395 C   0  0  2  0  0  0  0  0  0  0  0  0
   14.9931   31.3468   68.1102 N   0  3  0  0  0  0  0  0  0  0  0  0
   15.0068   29.5787   66.4067 C   0  0  1  0  0  0  0  0  0  0  0  0
   13.9677   28.9358   67.0897 O   0  0  0  0  0  0  0  0  0  0  0  0
   14.9368   29.2702   64.8923 C   0  0  2  0  0  0  0  0  0  0  0  0
   14.9666   27.8761   64.6580 O   0  0  0  0  0  0  0  0  0  0  0  0
   16.1058   29.9181   64.1813 C   0  0  2  0  0  0  0  0  0  0  0  0
   16.1034   31.3146   64.4493 O   0  0  0  0  0  0  0  0  0  0  0  0
   16.0460   29.7615   62.6783 C   0  0  0  0  0  0  0  0  0  0  0  0
   15.4831   30.9260   62.1051 O   0  0  0  0  0  0  0  0  0  0  0  0
   20.0320   33.7539   68.6397 C   0  0  2  0  0  0  0  0  0  0  0  0
   21.0960   34.7092   68.9507 N   0  3  0  0  0  0  0  0  0  0  0  0
   20.6243   32.5270   67.8701 C   0  0  0  0  0  0  0  0  0  0  0  0
   19.4997   31.5420   67.4978 C   0  0  2  0  0  0  0  0  0  0  0  0
   20.0295   30.4113   66.7285 N   0  3  0  0  0  0  0  0  0  0  0  0
   18.4116   32.2576   66.6734 C   0  0  2  0  0  0  0  0  0  0  0  0
   17.8293   33.4878   67.3964 C   0  0  2  0  0  0  0  0  0  0  0  0
   16.9547   34.1298   66.4486 O   0  0  0  0  0  0  0  0  0  0  0  0
   18.9656   34.4555   67.8137 C   0  0  1  0  0  0  0  0  0  0  0  0
   18.4216   35.5124   68.5553 O   0  0  0  0  0  0  0  0  0  0  0  0
   16.5949   35.5071   66.5185 C   0  0  1  0  0  0  0  0  0  0  0  0
   16.0069   35.9411   65.1286 C   0  0  2  0  0  0  0  0  0  0  0  0
   16.9847   36.3845   64.2033 O   0  0  0  0  0  0  0  0  0  0  0  0
   15.0569   37.0244   65.6196 C   0  0  2  0  0  0  0  0  0  0  0  0
   15.7920   38.1771   66.1302 O   0  0  0  0  0  0  0  0  0  0  0  0
   14.3703   36.3557   66.8023 C   0  0  2  0  0  0  0  0  0  0  0  0
   15.4875   35.7112   67.4380 O   0  0  0  0  0  0  0  0  0  0  0  0
   13.2316   35.3533   66.4221 C   0  0  0  0  0  0  0  0  0  0  0  0
   13.7547   34.1591   65.8270 O   0  0  0  0  0  0  0  0  0  0  0  0
   15.5631   39.3800   65.4008 C   0  0  2  0  0  0  0  0  0  0  0  0
   14.0532   39.7324   65.1765 C   0  0  2  0  0  0  0  0  0  0  0  0
   13.3059   38.6550   64.4595 N   0  3  0  0  0  0  0  0  0  0  0  0
   14.0105   41.0835   64.3874 C   0  0  1  0  0  0  0  0  0  0  0  0
   14.6217   42.1150   65.2533 O   0  0  0  0  0  0  0  0  0  0  0  0
   14.8155   41.0183   63.0314 C   0  0  2  0  0  0  0  0  0  0  0  0
   14.1843   40.0560   62.1710 O   0  0  0  0  0  0  0  0  0  0  0  0
   16.3119   40.6163   63.3647 C   0  0  1  0  0  0  0  0  0  0  0  0
   16.2769   39.3391   64.0865 O   0  0  0  0  0  0  0  0  0  0  0  0
   17.2334   40.4925   62.1299 C   0  0  0  0  0  0  0  0  0  0  0  0
   18.0112   41.7290   61.8457 N   0  3  0  0  0  0  0  0  0  0  0  0
  1  2  1  1  0  0  0
  1  3  1  0  0  0  0
  1 10  1  0  0  0  0
  3  4  1  1  0  0  0
  3  5  1  0  0  0  0
  5  6  1  1  0  0  0
  5  7  1  0  0  0  0
  7  8  1  1  0  0  0
  7  9  1  0  0  0  0
  9 10  1  0  0  0  0
  9 11  1  6  0  0  0
 11 12  1  0  0  0  0
 13 14  1  6  0  0  0
 13 15  1  0  0  0  0
 13 21  1  0  0  0  0
 15 16  1  0  0  0  0
 16 17  1  6  0  0  0
 16 18  1  0  0  0  0
 18  2  1  1  0  0  0
 18 19  1  0  0  0  0
 19 20  1  6  0  0  0
 19 21  1  0  0  0  0
 21 22  1  1  0  0  0
 23 20  1  6  0  0  0
 23 24  1  0  0  0  0
 23 29  1  0  0  0  0
 24 25  1  6  0  0  0
 24 26  1  0  0  0  0
 26 27  1  1  0  0  0
 26 28  1  0  0  0  0
 28 29  1  0  0  0  0
 28 30  1  6  0  0  0
 30 31  1  0  0  0  0
 32 27  1  6  0  0  0
 32 33  1  0  0  0  0
 32 40  1  0  0  0  0
 33 34  1  6  0  0  0
 33 35  1  0  0  0  0
 35 36  1  1  0  0  0
 35 37  1  0  0  0  0
 37 38  1  6  0  0  0
 37 39  1  0  0  0  0
 39 40  1  0  0  0  0
 39 41  1  6  0  0  0
 41 42  1  0  0  0  0
M  CHG  5   4   1  14   1  17   1  34   1  42   1
M  END
>  <CHROM.1>
-137.53013127,173.25931323,169.29915350,-176.62075806,-45.76215445,96.93893491
38.54796767,-54.77268969,175.24187207,-156.88596344,163.27219134,74.30918049
-62.06090654,117.17232388,50.50307245,70.83937355,61.43088113,-34.72015117
-56.63611589,66.78783609,95.31874372,97.56005408,16.27313891,34.87411100
65.59366210,1.41752879,0.60968768,3.01138203

>  <Name>
1j7t

>  <RI>
0

>  <Rbt.Current_Directory>
/home/itssahil/PROJECTS/Mol_Feturizer/New_Systems/rnas/1j7t

>  <Rbt.Executable>
rbdock ($Id: //depot/dev/client3/rdock/2013.1/src/exe/rbdock.cxx#4 $)

>  <Rbt.Library>
libRbt.so (2013.1, Build901 2013/11/27)

>  <Rbt.Parameter_File>
/export/apps/rDock/src/rDock_2013.1_src/data/scripts/dock_solv.prm

>  <Rbt.Receptor>
prm/blind_docking_100.prm

>  <SCORE>
-24.1972

>  <SCORE.INTER>
-39.1866

>  <SCORE.INTER.CONST>
1

>  <SCORE.INTER.POLAR>
-6.9707

>  <SCORE.INTER.ROT>
9

>  <SCORE.INTER.SOLV>
43.7061

>  <SCORE.INTER.VDW>
-27.0574

>  <SCORE.INTER.norm>
-0.933014

>  <SCORE.INTRA>
1.09524

>  <SCORE.INTRA.DIHEDRAL>
-12.8081

>  <SCORE.INTRA.DIHEDRAL.0>
46.2143

>  <SCORE.INTRA.POLAR>
1.55363

>  <SCORE.INTRA.POLAR.0>
-1.76436

>  <SCORE.INTRA.REPUL>
0

>  <SCORE.INTRA.REPUL.0>
0

>  <SCORE.INTRA.SOLV>
-0.889522

>  <SCORE.INTRA.SOLV.lig_0>
-148.643

>  <SCORE.INTRA.VDW>
2.6617

>  <SCORE.INTRA.VDW.0>
-4.83512

>  <SCORE.INTRA.norm>
0.0260772

>  <SCORE.RESTR>
13.8941

>  <SCORE.RESTR.CAVITY>
13.8941

>  <SCORE.RESTR.norm>
0.330813

>  <SCORE.SYSTEM>
0

>  <SCORE.SYSTEM.CONST>
0

>  <SCORE.SYSTEM.DIHEDRAL>
0

>  <SCORE.SYSTEM.SOLV>
0

>  <SCORE.SYSTEM.norm>
0

>  <SCORE.heavy>
42

>  <SCORE.norm>
-0.576124

>  <RMSD>
33.384

$$$$
1j7t
 OpenBabel11021811393D
libRbt.so/2013.1/901 2013/11/27
 42 45  0  0  0  0  0  0  0  0999 V2000
   15.9705   31.7181   67.1824 C   0  0  2  0  0  0  0  0  0  0  0  0
   17.3044   31.1976   67.4112 O   0  0  0  0  0  0  0  0  0  0  0  0
   14.9918   30.8278   68.0007 C   0  0  2  0  0  0  0  0  0  0  0  0
   15.3394   30.6918   69.4443 N   0  3  0  0  0  0  0  0  0  0  0  0
   14.9926   29.4156   67.3757 C   0  0  1  0  0  0  0  0  0  0  0  0
   14.1136   28.5711   68.0638 O   0  0  0  0  0  0  0  0  0  0  0  0
   14.6102   29.4977   65.8788 C   0  0  2  0  0  0  0  0  0  0  0  0
   14.5841   28.2116   65.2920 O   0  0  0  0  0  0  0  0  0  0  0  0
   15.6106   30.3606   65.1394 C   0  0  2  0  0  0  0  0  0  0  0  0
   15.6704   31.6418   65.7533 O   0  0  0  0  0  0  0  0  0  0  0  0
   15.2412   30.5870   63.6905 C   0  0  0  0  0  0  0  0  0  0  0  0
   16.1325   29.8691   62.8590 O   0  0  0  0  0  0  0  0  0  0  0  0
   20.3393   33.8572   68.6618 C   0  0  2  0  0  0  0  0  0  0  0  0
   21.4852   34.7667   68.6291 N   0  3  0  0  0  0  0  0  0  0  0  0
   20.7743   32.4330   68.1814 C   0  0  0  0  0  0  0  0  0  0  0  0
   19.5601   31.4847   68.1677 C   0  0  2  0  0  0  0  0  0  0  0  0
   19.9390   30.1587   67.6685 N   0  3  0  0  0  0  0  0  0  0  0  0
   18.4381   32.0636   67.2836 C   0  0  2  0  0  0  0  0  0  0  0  0
   18.0083   33.4786   67.7174 C   0  0  2  0  0  0  0  0  0  0  0  0
   17.0810   33.9380   66.7151 O   0  0  0  0  0  0  0  0  0  0  0  0
   19.2377   34.4203   67.7780 C   0  0  1  0  0  0  0  0  0  0  0  0
   18.8374   35.6694   68.2704 O   0  0  0  0  0  0  0  0  0  0  0  0
   16.6050   35.2792   66.6402 C   0  0  1  0  0  0  0  0  0  0  0  0
   15.5302   35.3650   65.4986 C   0  0  2  0  0  0  0  0  0  0  0  0
   16.0726   35.6307   64.2163 O   0  0  0  0  0  0  0  0  0  0  0  0
   14.6829   36.4894   66.0774 C   0  0  2  0  0  0  0  0  0  0  0  0
   15.4049   37.7574   66.0548 O   0  0  0  0  0  0  0  0  0  0  0  0
   14.5267   36.0745   67.5336 C   0  0  2  0  0  0  0  0  0  0  0  0
   15.8624   35.6372   67.8376 O   0  0  0  0  0  0  0  0  0  0  0  0
   13.4551   34.9648   67.7909 C   0  0  0  0  0  0  0  0  0  0  0  0
   13.8860   33.6890   67.3003 O   0  0  0  0  0  0  0  0  0  0  0  0
   15.2455   38.4939   64.8449 C   0  0  2  0  0  0  0  0  0  0  0  0
   16.4973   38.4844   63.9030 C   0  0  2  0  0  0  0  0  0  0  0  0
   17.7258   39.0197   64.5646 N   0  3  0  0  0  0  0  0  0  0  0  0
   16.1206   39.3167   62.6322 C   0  0  1  0  0  0  0  0  0  0  0  0
   15.0080   38.6104   61.9608 O   0  0  0  0  0  0  0  0  0  0  0  0
   15.6509   40.7817   62.9852 C   0  0  2  0  0  0  0  0  0  0  0  0
   16.7524   41.4825   63.5854 O   0  0  0  0  0  0  0  0  0  0  0  0
   14.4131   40.6793   63.9698 C   0  0  1  0  0  0  0  0  0  0  0  0
   14.8411   39.9038   65.1398 O   0  0  0  0  0  0  0  0  0  0  0  0
   13.8422   42.0409   64.4268 C   0  0  0  0  0  0  0  0  0  0  0  0
   14.8842   42.9877   64.9089 N   0  3  0  0  0  0  0  0  0  0  0  0
  1  2  1  6  0  0  0
  1  3  1  0  0  0  0
  1 10  1  0  0  0  0
  3  4  1  1  0  0  0
  3  5  1  0  0  0  0
  5  6  1  1  0  0  0
  5  7  1  0  0  0  0
  7  8  1  6  0  0  0
  7  9  1  0  0  0  0
  9 10  1  0  0  0  0
  9 11  1  6  0  0  0
 11 12  1  0  0  0  0
 13 14  1  6  0  0  0
 13 15  1  0  0  0  0
 13 21  1  0  0  0  0
 15 16  1  0  0  0  0
 16 17  1  6  0  0  0
 16 18  1  0  0  0  0
 18  2  1  1  0  0  0
 18 19  1  0  0  0  0
 19 20  1  6  0  0  0
 19 21  1  0  0  0  0
 21 22  1  1  0  0  0
 23 20  1  1  0  0  0
 23 24  1  0  0  0  0
 23 29  1  0  0  0  0
 24 25  1  6  0  0  0
 24 26  1  0  0  0  0
 26 27  1  1  0  0  0
 26 28  1  0  0  0  0
 28 29  1  0  0  0  0
 28 30  1  6  0  0  0
 30 31  1  0  0  0  0
 32 27  1  1  0  0  0
 32 33  1  0  0  0  0
 32 40  1  0  0  0  0
 33 34  1  1  0  0  0
 33 35  1  0  0  0  0
 35 36  1  1  0  0  0
 35 37  1  0  0  0  0
 37 38  1  1  0  0  0
 37 39  1  0  0  0  0
 39 40  1  0  0  0  0
 39 41  1  1  0  0  0
 41 42  1  0  0  0  0
M  CHG  5   4   1  14   1  17   1  34   1  42   1
M  END
>  <CHROM.1>
-154.03595628,154.38179190,-160.78466104,-76.71099784,-47.26271095,-109.08131705
-171.60530717,57.02146456,-21.54505742,-170.21970827,-175.43865098,-128.58529248
77.84657256,88.28522124,-106.04635252,71.23727969,-66.43851655,-80.62603297
59.15391972,70.61659225,-48.61883816,-87.01833268,16.32726293,34.70206571
66.11233289,1.44679780,0.53722023,2.92450769

>  <Name>
1j7t

>  <RI>
0

>  <Rbt.Current_Directory>
/home/itssahil/PROJECTS/Mol_Feturizer/New_Systems/rnas/1j7t

>  <Rbt.Executable>
rbdock ($Id: //depot/dev/client3/rdock/2013.1/src/exe/rbdock.cxx#4 $)

>  <Rbt.Library>
libRbt.so (2013.1, Build901 2013/11/27)

>  <Rbt.Parameter_File>
/export/apps/rDock/src/rDock_2013.1_src/data/scripts/dock_solv.prm

>  <Rbt.Receptor>
prm/blind_docking_100.prm

>  <SCORE>
-10.5143

>  <SCORE.INTER>
-20.8735

>  <SCORE.INTER.CONST>
1

>  <SCORE.INTER.POLAR>
-4.32638

>  <SCORE.INTER.ROT>
9

>  <SCORE.INTER.SOLV>
45.2185

>  <SCORE.INTER.VDW>
-24.1672

>  <SCORE.INTER.norm>
-0.496989

>  <SCORE.INTRA>
-0.932443

>  <SCORE.INTRA.DIHEDRAL>
-7.08247

>  <SCORE.INTRA.DIHEDRAL.0>
46.2143

>  <SCORE.INTRA.POLAR>
-0.912897

>  <SCORE.INTRA.POLAR.0>
-1.76436

>  <SCORE.INTRA.REPUL>
0

>  <SCORE.INTRA.REPUL.0>
0

>  <SCORE.INTRA.SOLV>
-1.13369

>  <SCORE.INTRA.SOLV.lig_0>
-148.643

>  <SCORE.INTRA.VDW>
6.27948

>  <SCORE.INTRA.VDW.0>
-4.83512

>  <SCORE.INTRA.norm>
-0.022201

>  <SCORE.RESTR>
11.2917

>  <SCORE.RESTR.CAVITY>
11.2917

>  <SCORE.RESTR.norm>
0.268849

>  <SCORE.SYSTEM>
0

>  <SCORE.SYSTEM.CONST>
0

>  <SCORE.SYSTEM.DIHEDRAL>
0

>  <SCORE.SYSTEM.SOLV>
0

>  <SCORE.SYSTEM.norm>
0

>  <SCORE.heavy>
42

>  <SCORE.norm>
-0.250341

>  <RMSD>
33.427

$$$$
1j7t
 OpenBabel11021811393D
libRbt.so/2013.1/901 2013/11/27
 42 45  0  0  0  0  0  0  0  0999 V2000
   16.0949   31.6082   67.5868 C   0  0  2  0  0  0  0  0  0  0  0  0
   17.4517   31.1183   67.4403 O   0  0  0  0  0  0  0  0  0  0  0  0
   15.2542   30.4399   68.1770 C   0  0  2  0  0  0  0  0  0  0  0  0
   15.8121   29.8458   69.4259 N   0  3  0  0  0  0  0  0  0  0  0  0
   15.1734   29.3230   67.1135 C   0  0  1  0  0  0  0  0  0  0  0  0
   14.4118   28.2472   67.5848 O   0  0  0  0  0  0  0  0  0  0  0  0
   14.5737   29.8823   65.8016 C   0  0  2  0  0  0  0  0  0  0  0  0
   14.4709   28.8696   64.8202 O   0  0  0  0  0  0  0  0  0  0  0  0
   15.4476   30.9995   65.2723 C   0  0  2  0  0  0  0  0  0  0  0  0
   15.5878   32.0004   66.2726 O   0  0  0  0  0  0  0  0  0  0  0  0
   14.8668   31.6791   64.0525 C   0  0  0  0  0  0  0  0  0  0  0  0
   15.8139   32.5865   63.5226 O   0  0  0  0  0  0  0  0  0  0  0  0
   20.2821   33.9647   68.7575 C   0  0  2  0  0  0  0  0  0  0  0  0
   21.3738   34.9391   68.7517 N   0  3  0  0  0  0  0  0  0  0  0  0
   20.8154   32.5629   68.3113 C   0  0  0  0  0  0  0  0  0  0  0  0
   19.6594   31.5453   68.2690 C   0  0  2  0  0  0  0  0  0  0  0  0
   20.1317   30.2381   67.8007 N   0  3  0  0  0  0  0  0  0  0  0  0
   18.5371   32.0475   67.3397 C   0  0  2  0  0  0  0  0  0  0  0  0
   18.0112   33.4399   67.7397 C   0  0  2  0  0  0  0  0  0  0  0  0
   17.0941   33.8330   66.7005 O   0  0  0  0  0  0  0  0  0  0  0  0
   19.1810   34.4524   67.8294 C   0  0  1  0  0  0  0  0  0  0  0  0
   18.6922   35.6815   68.2912 O   0  0  0  0  0  0  0  0  0  0  0  0
   16.6407   35.1716   66.5170 C   0  0  1  0  0  0  0  0  0  0  0  0
   15.6221   35.1948   65.3221 C   0  0  2  0  0  0  0  0  0  0  0  0
   16.2279   35.3710   64.0528 O   0  0  0  0  0  0  0  0  0  0  0  0
   14.7641   36.3634   65.7863 C   0  0  2  0  0  0  0  0  0  0  0  0
   15.5038   37.6194   65.7170 O   0  0  0  0  0  0  0  0  0  0  0  0
   14.5339   36.0453   67.2571 C   0  0  2  0  0  0  0  0  0  0  0  0
   15.8477   35.6143   67.6521 O   0  0  0  0  0  0  0  0  0  0  0  0
   13.4362   34.9662   67.5335 C   0  0  0  0  0  0  0  0  0  0  0  0
   13.7768   33.7029   66.9488 O   0  0  0  0  0  0  0  0  0  0  0  0
   14.8590   38.6302   64.9463 C   0  0  2  0  0  0  0  0  0  0  0  0
   14.2451   38.1307   63.5942 C   0  0  2  0  0  0  0  0  0  0  0  0
   15.2573   37.4961   62.6964 N   0  3  0  0  0  0  0  0  0  0  0  0
   13.5690   39.3674   62.9136 C   0  0  1  0  0  0  0  0  0  0  0  0
   12.4746   39.8122   63.8035 O   0  0  0  0  0  0  0  0  0  0  0  0
   14.5725   40.5678   62.7055 C   0  0  2  0  0  0  0  0  0  0  0  0
   15.6028   40.1495   61.7955 O   0  0  0  0  0  0  0  0  0  0  0  0
   15.1648   40.9667   64.1205 C   0  0  1  0  0  0  0  0  0  0  0  0
   15.7940   39.7698   64.6904 O   0  0  0  0  0  0  0  0  0  0  0  0
   16.1861   42.1263   64.0849 C   0  0  0  0  0  0  0  0  0  0  0  0
   15.6491   43.3690   63.4670 N   0  3  0  0  0  0  0  0  0  0  0  0
  1  2  1  6  0  0  0
  1  3  1  0  0  0  0
  1 10  1  0  0  0  0
  3  4  1  1  0  0  0
  3  5  1  0  0  0  0
  5  6  1  1  0  0  0
  5  7  1  0  0  0  0
  7  8  1  6  0  0  0
  7  9  1  0  0  0  0
  9 10  1  0  0  0  0
  9 11  1  6  0  0  0
 11 12  1  0  0  0  0
 13 14  1  6  0  0  0
 13 15  1  0  0  0  0
 13 21  1  0  0  0  0
 15 16  1  0  0  0  0
 16 17  1  6  0  0  0
 16 18  1  0  0  0  0
 18  2  1  1  0  0  0
 18 19  1  0  0  0  0
 19 20  1  6  0  0  0
 19 21  1  0  0  0  0
 21 22  1  1  0  0  0
 23 20  1  1  0  0  0
 23 24  1  0  0  0  0
 23 29  1  0  0  0  0
 24 25  1  6  0  0  0
 24 26  1  0  0  0  0
 26 27  1  1  0  0  0
 26 28  1  0  0  0  0
 28 29  1  0  0  0  0
 28 30  1  6  0  0  0
 30 31  1  0  0  0  0
 32 27  1  6  0  0  0
 32 33  1  0  0  0  0
 32 40  1  0  0  0  0
 33 34  1  6  0  0  0
 33 35  1  0  0  0  0
 35 36  1  1  0  0  0
 35 37  1  0  0  0  0
 37 38  1  6  0  0  0
 37 39  1  0  0  0  0
 39 40  1  0  0  0  0
 39 41  1  6  0  0  0
 41 42  1  0  0  0  0
M  CHG  5   4   1  14   1  17   1  34   1  42   1
M  END
>  <CHROM.1>
-159.75173119,134.68259494,105.80770436,178.78707665,178.51799965,-172.58695280
-170.38402308,-49.23976452,87.71862527,-164.17373510,-178.14067183,67.77750588
-9.65680356,124.92418185,-43.50511903,61.56118033,65.81253624,-69.49518888
-56.00005522,-168.60821896,56.52360811,58.95321966,16.16083277,34.75743630
65.98577349,1.34946536,0.53363136,2.87818680

>  <Name>
1j7t

>  <RI>
0

>  <Rbt.Current_Directory>
/home/itssahil/PROJECTS/Mol_Feturizer/New_Systems/rnas/1j7t

>  <Rbt.Executable>
rbdock ($Id: //depot/dev/client3/rdock/2013.1/src/exe/rbdock.cxx#4 $)

>  <Rbt.Library>
libRbt.so (2013.1, Build901 2013/11/27)

>  <Rbt.Parameter_File>
/export/apps/rDock/src/rDock_2013.1_src/data/scripts/dock_solv.prm

>  <Rbt.Receptor>
prm/blind_docking_100.prm

>  <SCORE>
-10.6728

>  <SCORE.INTER>
-19.5286

>  <SCORE.INTER.CONST>
1

>  <SCORE.INTER.POLAR>
-4.68502

>  <SCORE.INTER.ROT>
9

>  <SCORE.INTER.SOLV>
39.7834

>  <SCORE.INTER.VDW>
-20.2635

>  <SCORE.INTER.norm>
-0.464966

>  <SCORE.INTRA>
-3.27379

>  <SCORE.INTRA.DIHEDRAL>
-14.894

>  <SCORE.INTRA.DIHEDRAL.0>
46.2143

>  <SCORE.INTRA.POLAR>
-0.557375

>  <SCORE.INTRA.POLAR.0>
-1.76436

>  <SCORE.INTRA.REPUL>
0.151138

>  <SCORE.INTRA.REPUL.0>
0

>  <SCORE.INTRA.SOLV>
1.02547

>  <SCORE.INTRA.SOLV.lig_0>
-148.643

>  <SCORE.INTRA.VDW>
4.79986

>  <SCORE.INTRA.VDW.0>
-4.83512

>  <SCORE.INTRA.norm>
-0.0779473

>  <SCORE.RESTR>
12.1296

>  <SCORE.RESTR.CAVITY>
12.1296

>  <SCORE.RESTR.norm>
0.2888

>  <SCORE.SYSTEM>
0

>  <SCORE.SYSTEM.CONST>
0

>  <SCORE.SYSTEM.DIHEDRAL>
0

>  <SCORE.SYSTEM.SOLV>
0

>  <SCORE.SYSTEM.norm>
0

>  <SCORE.heavy>
42

>  <SCORE.norm>
-0.254113

>  <RMSD>
33.480

$$$$
1j7t
 OpenBabel11021811393D
libRbt.so/2013.1/901 2013/11/27
 42 45  0  0  0  0  0  0  0  0999 V2000
   17.4903   32.0657   67.2563 C   0  0  2  0  0  0  0  0  0  0  0  0
   17.4107   31.2425   66.0653 O   0  0  0  0  0  0  0  0  0  0  0  0
   18.9647   32.0058   67.7489 C   0  0  2  0  0  0  0  0  0  0  0  0
   19.9779   32.3566   66.7125 N   0  3  0  0  0  0  0  0  0  0  0  0
   19.2518   30.5657   68.2270 C   0  0  1  0  0  0  0  0  0  0  0  0
   20.5651   30.4552   68.6988 O   0  0  0  0  0  0  0  0  0  0  0  0
   18.2416   30.1605   69.3265 C   0  0  2  0  0  0  0  0  0  0  0  0
   18.5005   28.8514   69.7939 O   0  0  0  0  0  0  0  0  0  0  0  0
   16.8321   30.2218   68.7772 C   0  0  2  0  0  0  0  0  0  0  0  0
   16.5827   31.5256   68.2676 O   0  0  0  0  0  0  0  0  0  0  0  0
   15.7755   29.9525   69.8250 C   0  0  0  0  0  0  0  0  0  0  0  0
   14.4919   30.0898   69.2462 O   0  0  0  0  0  0  0  0  0  0  0  0
   15.1321   31.0836   62.5114 C   0  0  2  0  0  0  0  0  0  0  0  0
   13.9956   31.1257   61.5904 N   0  3  0  0  0  0  0  0  0  0  0  0
   14.9314   29.9349   63.5548 C   0  0  0  0  0  0  0  0  0  0  0  0
   16.1020   29.9184   64.5563 C   0  0  2  0  0  0  0  0  0  0  0  0
   15.9033   28.8816   65.5744 N   0  3  0  0  0  0  0  0  0  0  0  0
   16.2389   31.2914   65.2432 C   0  0  2  0  0  0  0  0  0  0  0  0
   16.4104   32.4462   64.2370 C   0  0  2  0  0  0  0  0  0  0  0  0
   16.3657   33.6597   65.0121 O   0  0  0  0  0  0  0  0  0  0  0  0
   15.2585   32.4331   63.2003 C   0  0  1  0  0  0  0  0  0  0  0  0
   15.4912   33.4268   62.2404 O   0  0  0  0  0  0  0  0  0  0  0  0
   15.9853   34.9232   64.4734 C   0  0  1  0  0  0  0  0  0  0  0  0
   14.4200   35.0376   64.5253 C   0  0  2  0  0  0  0  0  0  0  0  0
   13.7662   34.5081   63.3847 O   0  0  0  0  0  0  0  0  0  0  0  0
   14.3142   36.5487   64.6762 C   0  0  2  0  0  0  0  0  0  0  0  0
   14.7334   37.2299   63.4556 O   0  0  0  0  0  0  0  0  0  0  0  0
   15.3495   36.8505   65.7506 C   0  0  2  0  0  0  0  0  0  0  0  0
   16.4369   36.0111   65.3253 O   0  0  0  0  0  0  0  0  0  0  0  0
   14.8883   36.5459   67.2136 C   0  0  0  0  0  0  0  0  0  0  0  0
   14.5033   37.7398   67.9065 O   0  0  0  0  0  0  0  0  0  0  0  0
   14.6550   38.6512   63.5288 C   0  0  2  0  0  0  0  0  0  0  0  0
   13.2240   39.2412   63.2866 C   0  0  2  0  0  0  0  0  0  0  0  0
   12.6533   38.8543   61.9607 N   0  3  0  0  0  0  0  0  0  0  0  0
   13.3390   40.7954   63.4307 C   0  0  1  0  0  0  0  0  0  0  0  0
   13.7456   41.0764   64.8247 O   0  0  0  0  0  0  0  0  0  0  0  0
   14.4130   41.4162   62.4548 C   0  0  2  0  0  0  0  0  0  0  0  0
   13.9852   41.1908   61.1017 O   0  0  0  0  0  0  0  0  0  0  0  0
   15.8081   40.7255   62.7527 C   0  0  1  0  0  0  0  0  0  0  0  0
   15.6307   39.2786   62.5840 O   0  0  0  0  0  0  0  0  0  0  0  0
   16.9707   41.2162   61.8603 C   0  0  0  0  0  0  0  0  0  0  0  0
   17.4943   42.5529   62.2524 N   0  3  0  0  0  0  0  0  0  0  0  0
  1  2  1  6  0  0  0
  1  3  1  0  0  0  0
  1 10  1  0  0  0  0
  3  4  1  6  0  0  0
  3  5  1  0  0  0  0
  5  6  1  1  0  0  0
  5  7  1  0  0  0  0
  7  8  1  6  0  0  0
  7  9  1  0  0  0  0
  9 10  1  0  0  0  0
  9 11  1  1  0  0  0
 11 12  1  0  0  0  0
 13 14  1  6  0  0  0
 13 15  1  0  0  0  0
 13 21  1  0  0  0  0
 15 16  1  0  0  0  0
 16 17  1  1  0  0  0
 16 18  1  0  0  0  0
 18  2  1  1  0  0  0
 18 19  1  0  0  0  0
 19 20  1  1  0  0  0
 19 21  1  0  0  0  0
 21 22  1  6  0  0  0
 23 20  1  1  0  0  0
 23 24  1  0  0  0  0
 23 29  1  0  0  0  0
 24 25  1  6  0  0  0
 24 26  1  0  0  0  0
 26 27  1  6  0  0  0
 26 28  1  0  0  0  0
 28 29  1  0  0  0  0
 28 30  1  1  0  0  0
 30 31  1  0  0  0  0
 32 27  1  6  0  0  0
 32 33  1  0  0  0  0
 32 40  1  0  0  0  0
 33 34  1  6  0  0  0
 33 35  1  0  0  0  0
 35 36  1  1  0  0  0
 35 37  1  0  0  0  0
 37 38  1  6  0  0  0
 37 39  1  0  0  0  0
 39 40  1  0  0  0  0
 39 41  1  6  0  0  0
 41 42  1  0  0  0  0
M  CHG  5   4   1  14   1  17   1  34   1  42   1
M  END
>  <CHROM.1>
-168.66911170,-151.58732606,-158.70701905,160.75671071,76.98273965,177.29405110
176.80071398,-167.46158314,72.89653446,-155.39416884,85.25108099,63.21213144
-68.23734885,179.84015016,-81.18147681,-101.51231620,-60.62998961,37.50809479
-159.55216241,175.10933261,76.32427222,62.35226348,15.86423404,34.63539039
65.09966388,-1.10349083,-1.02977810,-0.03351131

>  <Name>
1j7t

>  <RI>
0

>  <Rbt.Current_Directory>
/home/itssahil/PROJECTS/Mol_Feturizer/New_Systems/rnas/1j7t

>  <Rbt.Executable>
rbdock ($Id: //depot/dev/client3/rdock/2013.1/src/exe/rbdock.cxx#4 $)

>  <Rbt.Library>
libRbt.so (2013.1, Build901 2013/11/27)

>  <Rbt.Parameter_File>
/export/apps/rDock/src/rDock_2013.1_src/data/scripts/dock_solv.prm

>  <Rbt.Receptor>
prm/blind_docking_100.prm

>  <SCORE>
-22.3361

>  <SCORE.INTER>
-35.5104

>  <SCORE.INTER.CONST>
1

>  <SCORE.INTER.POLAR>
-5.12213

>  <SCORE.INTER.ROT>
9

>  <SCORE.INTER.SOLV>
41.6298

>  <SCORE.INTER.VDW>
-30.0764

>  <SCORE.INTER.norm>
-0.845485

>  <SCORE.INTRA>
-6.56343

>  <SCORE.INTRA.DIHEDRAL>
-21.0744

>  <SCORE.INTRA.DIHEDRAL.0>
46.2143

>  <SCORE.INTRA.POLAR>
0.663224

>  <SCORE.INTRA.POLAR.0>
-1.76436

>  <SCORE.INTRA.REPUL>
0

>  <SCORE.INTRA.REPUL.0>
0

>  <SCORE.INTRA.SOLV>
-3.85413

>  <SCORE.INTRA.SOLV.lig_0>
-148.643

>  <SCORE.INTRA.VDW>
3.64588

>  <SCORE.INTRA.VDW.0>
-4.83512

>  <SCORE.INTRA.norm>
-0.156272

>  <SCORE.RESTR>
19.7377

>  <SCORE.RESTR.CAVITY>
19.7377

>  <SCORE.RESTR.norm>
0.469945

>  <SCORE.SYSTEM>
0

>  <SCORE.SYSTEM.CONST>
0

>  <SCORE.SYSTEM.DIHEDRAL>
0

>  <SCORE.SYSTEM.SOLV>
0

>  <SCORE.SYSTEM.norm>
0

>  <SCORE.heavy>
42

>  <SCORE.norm>
-0.531812

>  <RMSD>
33.485

$$$$
1j7t
 OpenBabel11021811393D
libRbt.so/2013.1/901 2013/11/27
 42 45  0  0  0  0  0  0  0  0999 V2000
   14.3417   29.5650   66.8250 C   0  0  2  0  0  0  0  0  0  0  0  0
   14.4880   30.8288   66.1292 O   0  0  0  0  0  0  0  0  0  0  0  0
   12.9039   29.5400   67.4184 C   0  0  2  0  0  0  0  0  0  0  0  0
   11.8212   29.8042   66.4277 N   0  3  0  0  0  0  0  0  0  0  0  0
   12.8197   30.6233   68.5157 C   0  0  1  0  0  0  0  0  0  0  0  0
   11.5475   30.6366   69.0994 O   0  0  0  0  0  0  0  0  0  0  0  0
   13.9086   30.3788   69.5872 C   0  0  2  0  0  0  0  0  0  0  0  0
   13.8352   31.3484   70.6137 O   0  0  0  0  0  0  0  0  0  0  0  0
   15.2800   30.4349   68.9485 C   0  0  2  0  0  0  0  0  0  0  0  0
   15.3433   29.4901   67.8877 O   0  0  0  0  0  0  0  0  0  0  0  0
   16.3958   30.0891   69.9089 C   0  0  0  0  0  0  0  0  0  0  0  0
   17.6387   30.1783   69.2393 O   0  0  0  0  0  0  0  0  0  0  0  0
   18.5358   31.7684   66.8907 C   0  0  2  0  0  0  0  0  0  0  0  0
   19.8964   32.2788   66.7184 N   0  3  0  0  0  0  0  0  0  0  0  0
   18.2343   30.6768   65.8110 C   0  0  0  0  0  0  0  0  0  0  0  0
   16.7863   30.1718   65.9582 C   0  0  2  0  0  0  0  0  0  0  0  0
   16.4691   29.1861   64.9195 N   0  3  0  0  0  0  0  0  0  0  0  0
   15.7961   31.3494   65.8663 C   0  0  2  0  0  0  0  0  0  0  0  0
   16.0866   32.4537   66.9014 C   0  0  2  0  0  0  0  0  0  0  0  0
   15.1906   33.5378   66.5892 O   0  0  0  0  0  0  0  0  0  0  0  0
   17.5576   32.9275   66.7853 C   0  0  1  0  0  0  0  0  0  0  0  0
   17.8239   33.8563   67.8000 O   0  0  0  0  0  0  0  0  0  0  0  0
   15.5761   34.6839   65.8348 C   0  0  1  0  0  0  0  0  0  0  0  0
   14.6248   34.8068   64.5914 C   0  0  2  0  0  0  0  0  0  0  0  0
   15.0650   34.0811   63.4562 O   0  0  0  0  0  0  0  0  0  0  0  0
   14.6623   36.3204   64.4338 C   0  0  2  0  0  0  0  0  0  0  0  0
   15.9771   36.7707   63.9884 O   0  0  0  0  0  0  0  0  0  0  0  0
   14.4674   36.8100   65.8619 C   0  0  2  0  0  0  0  0  0  0  0  0
   15.3263   35.9071   66.5796 O   0  0  0  0  0  0  0  0  0  0  0  0
   12.9904   36.7738   66.3747 C   0  0  0  0  0  0  0  0  0  0  0  0
   12.5489   35.4331   66.6228 O   0  0  0  0  0  0  0  0  0  0  0  0
   15.9807   38.0783   63.4214 C   0  0  2  0  0  0  0  0  0  0  0  0
   17.1086   39.0225   63.9604 C   0  0  2  0  0  0  0  0  0  0  0  0
   17.0538   39.2050   65.4427 N   0  3  0  0  0  0  0  0  0  0  0  0
   16.9619   40.3872   63.2082 C   0  0  1  0  0  0  0  0  0  0  0  0
   17.2009   40.1231   61.7727 O   0  0  0  0  0  0  0  0  0  0  0  0
   15.5251   41.0189   63.3747 C   0  0  2  0  0  0  0  0  0  0  0  0
   15.3193   41.3266   64.7632 O   0  0  0  0  0  0  0  0  0  0  0  0
   14.4610   39.9726   62.8408 C   0  0  1  0  0  0  0  0  0  0  0  0
   14.6450   38.7289   63.5976 O   0  0  0  0  0  0  0  0  0  0  0  0
   12.9914   40.4383   62.9518 C   0  0  0  0  0  0  0  0  0  0  0  0
   12.4852   41.0987   61.7180 N   0  3  0  0  0  0  0  0  0  0  0  0
  1  2  1  1  0  0  0
  1  3  1  0  0  0  0
  1 10  1  0  0  0  0
  3  4  1  6  0  0  0
  3  5  1  0  0  0  0
  5  6  1  1  0  0  0
  5  7  1  0  0  0  0
  7  8  1  1  0  0  0
  7  9  1  0  0  0  0
  9 10  1  0  0  0  0
  9 11  1  1  0  0  0
 11 12  1  0  0  0  0
 13 14  1  6  0  0  0
 13 15  1  0  0  0  0
 13 21  1  0  0  0  0
 15 16  1  0  0  0  0
 16 17  1  6  0  0  0
 16 18  1  0  0  0  0
 18  2  1  1  0  0  0
 18 19  1  0  0  0  0
 19 20  1  6  0  0  0
 19 21  1  0  0  0  0
 21 22  1  1  0  0  0
 23 20  1  1  0  0  0
 23 24  1  0  0  0  0
 23 29  1  0  0  0  0
 24 25  1  6  0  0  0
 24 26  1  0  0  0  0
 26 27  1  1  0  0  0
 26 28  1  0  0  0  0
 28 29  1  0  0  0  0
 28 30  1  1  0  0  0
 30 31  1  0  0  0  0
 32 27  1  1  0  0  0
 32 33  1  0  0  0  0
 32 40  1  0  0  0  0
 33 34  1  1  0  0  0
 33 35  1  0  0  0  0
 35 36  1  6  0  0  0
 35 37  1  0  0  0  0
 37 38  1  1  0  0  0
 37 39  1  0  0  0  0
 39 40  1  0  0  0  0
 39 41  1  1  0  0  0
 41 42  1  0  0  0  0
M  CHG  5   4   1  14   1  17   1  34   1  42   1
M  END
>  <CHROM.1>
159.09875733,20.10653980,-171.93906855,68.88409544,67.22711828,-179.40466046
-60.56065998,168.22488945,121.76241165,-98.55221730,123.08457713,-19.92575243
-43.47462113,161.24249679,132.39881092,72.42512891,64.36469846,-59.26193191
-168.08900970,179.63400914,93.40467075,174.54112816,15.31615804,34.34643264
65.94974331,1.57137428,-0.11975549,2.69964870

>  <Name>
1j7t

>  <RI>
0

>  <Rbt.Current_Directory>
/home/itssahil/PROJECTS/Mol_Feturizer/New_Systems/rnas/1j7t

>  <Rbt.Executable>
rbdock ($Id: //depot/dev/client3/rdock/2013.1/src/exe/rbdock.cxx#4 $)

>  <Rbt.Library>
libRbt.so (2013.1, Build901 2013/11/27)

>  <Rbt.Parameter_File>
/export/apps/rDock/src/rDock_2013.1_src/data/scripts/dock_solv.prm

>  <Rbt.Receptor>
prm/blind_docking_100.prm

>  <SCORE>
26.2701

>  <SCORE.INTER>
5.36065

>  <SCORE.INTER.CONST>
1

>  <SCORE.INTER.POLAR>
-4.10952

>  <SCORE.INTER.ROT>
9

>  <SCORE.INTER.SOLV>
37.2906

>  <SCORE.INTER.VDW>
-4.75804

>  <SCORE.INTER.norm>
0.127635

>  <SCORE.INTRA>
6.78288

>  <SCORE.INTRA.DIHEDRAL>
-2.52786

>  <SCORE.INTRA.DIHEDRAL.0>
46.2143

>  <SCORE.INTRA.POLAR>
1.21807

>  <SCORE.INTRA.POLAR.0>
-1.76436

>  <SCORE.INTRA.REPUL>
0

>  <SCORE.INTRA.REPUL.0>
0

>  <SCORE.INTRA.SOLV>
-2.59297

>  <SCORE.INTRA.SOLV.lig_0>
-148.643

>  <SCORE.INTRA.VDW>
5.20187

>  <SCORE.INTRA.VDW.0>
-4.83512

>  <SCORE.INTRA.norm>
0.161497

>  <SCORE.RESTR>
14.1266

>  <SCORE.RESTR.CAVITY>
14.1266

>  <SCORE.RESTR.norm>
0.336347

>  <SCORE.SYSTEM>
0

>  <SCORE.SYSTEM.CONST>
0

>  <SCORE.SYSTEM.DIHEDRAL>
0

>  <SCORE.SYSTEM.SOLV>
0

>  <SCORE.SYSTEM.norm>
0

>  <SCORE.heavy>
42

>  <SCORE.norm>
0.625478

>  <RMSD>
33.597

$$$$
1j7t
 OpenBabel11021811393D
libRbt.so/2013.1/901 2013/11/27
 42 45  0  0  0  0  0  0  0  0999 V2000
   16.3670   30.3186   65.8338 C   0  0  2  0  0  0  0  0  0  0  0  0
   16.4551   31.4791   66.6986 O   0  0  0  0  0  0  0  0  0  0  0  0
   15.5380   30.7454   64.5885 C   0  0  2  0  0  0  0  0  0  0  0  0
   16.0430   31.9668   63.8982 N   0  3  0  0  0  0  0  0  0  0  0  0
   14.0904   31.0231   65.0491 C   0  0  1  0  0  0  0  0  0  0  0  0
   13.2904   31.3973   63.9631 O   0  0  0  0  0  0  0  0  0  0  0  0
   13.5078   29.7732   65.7504 C   0  0  2  0  0  0  0  0  0  0  0  0
   12.1739   29.9992   66.1614 O   0  0  0  0  0  0  0  0  0  0  0  0
   14.3479   29.4244   66.9606 C   0  0  2  0  0  0  0  0  0  0  0  0
   15.6985   29.2379   66.5570 O   0  0  0  0  0  0  0  0  0  0  0  0
   13.9123   28.1429   67.6351 C   0  0  0  0  0  0  0  0  0  0  0  0
   13.0424   28.4473   68.7084 O   0  0  0  0  0  0  0  0  0  0  0  0
   19.4487   33.6672   68.7232 C   0  0  2  0  0  0  0  0  0  0  0  0
   20.7021   34.3678   69.0050 N   0  3  0  0  0  0  0  0  0  0  0  0
   19.7378   32.1623   68.4065 C   0  0  0  0  0  0  0  0  0  0  0  0
   18.4258   31.4321   68.0614 C   0  0  2  0  0  0  0  0  0  0  0  0
   18.6848   30.0321   67.7093 N   0  3  0  0  0  0  0  0  0  0  0  0
   17.7156   32.1328   66.8866 C   0  0  2  0  0  0  0  0  0  0  0  0
   17.4427   33.6248   67.1602 C   0  0  2  0  0  0  0  0  0  0  0  0
   16.9277   34.1678   65.9293 O   0  0  0  0  0  0  0  0  0  0  0  0
   18.7548   34.3490   67.5547 C   0  0  1  0  0  0  0  0  0  0  0  0
   18.4639   35.6766   67.8953 O   0  0  0  0  0  0  0  0  0  0  0  0
   16.0664   35.3017   65.8697 C   0  0  1  0  0  0  0  0  0  0  0  0
   16.5717   36.2536   64.7275 C   0  0  2  0  0  0  0  0  0  0  0  0
   17.5492   37.1895   65.1487 O   0  0  0  0  0  0  0  0  0  0  0  0
   15.2318   36.8629   64.3393 C   0  0  2  0  0  0  0  0  0  0  0  0
   14.7215   37.7291   65.3971 O   0  0  0  0  0  0  0  0  0  0  0  0
   14.3211   35.6456   64.2618 C   0  0  2  0  0  0  0  0  0  0  0  0
   14.7325   34.9217   65.4341 O   0  0  0  0  0  0  0  0  0  0  0  0
   14.4593   34.8021   62.9521 C   0  0  0  0  0  0  0  0  0  0  0  0
   13.4167   33.8254   62.8390 O   0  0  0  0  0  0  0  0  0  0  0  0
   14.4828   39.0717   64.9823 C   0  0  2  0  0  0  0  0  0  0  0  0
   14.5588   39.3020   63.4345 C   0  0  2  0  0  0  0  0  0  0  0  0
   15.8780   38.9084   62.8531 N   0  3  0  0  0  0  0  0  0  0  0  0
   14.2478   40.8148   63.1807 C   0  0  1  0  0  0  0  0  0  0  0  0
   12.8619   41.0587   63.6359 O   0  0  0  0  0  0  0  0  0  0  0  0
   15.2180   41.7738   63.9747 C   0  0  2  0  0  0  0  0  0  0  0  0
   16.5557   41.5744   63.4894 O   0  0  0  0  0  0  0  0  0  0  0  0
   15.0956   41.4323   65.5176 C   0  0  1  0  0  0  0  0  0  0  0  0
   15.4146   40.0095   65.6827 O   0  0  0  0  0  0  0  0  0  0  0  0
   16.0038   42.2806   66.4366 C   0  0  0  0  0  0  0  0  0  0  0  0
   15.9857   41.8388   67.8576 N   0  3  0  0  0  0  0  0  0  0  0  0
  1  2  1  1  0  0  0
  1  3  1  0  0  0  0
  1 10  1  0  0  0  0
  3  4  1  1  0  0  0
  3  5  1  0  0  0  0
  5  6  1  6  0  0  0
  5  7  1  0  0  0  0
  7  8  1  1  0  0  0
  7  9  1  0  0  0  0
  9 10  1  0  0  0  0
  9 11  1  6  0  0  0
 11 12  1  0  0  0  0
 13 14  1  6  0  0  0
 13 15  1  0  0  0  0
 13 21  1  0  0  0  0
 15 16  1  0  0  0  0
 16 17  1  6  0  0  0
 16 18  1  0  0  0  0
 18  2  1  1  0  0  0
 18 19  1  0  0  0  0
 19 20  1  6  0  0  0
 19 21  1  0  0  0  0
 21 22  1  1  0  0  0
 23 20  1  6  0  0  0
 23 24  1  0  0  0  0
 23 29  1  0  0  0  0
 24 25  1  1  0  0  0
 24 26  1  0  0  0  0
 26 27  1  1  0  0  0
 26 28  1  0  0  0  0
 28 29  1  0  0  0  0
 28 30  1  6  0  0  0
 30 31  1  0  0  0  0
 32 27  1  6  0  0  0
 32 33  1  0  0  0  0
 32 40  1  0  0  0  0
 33 34  1  1  0  0  0
 33 35  1  0  0  0  0
 35 36  1  1  0  0  0
 35 37  1  0  0  0  0
 37 38  1  6  0  0  0
 37 39  1  0  0  0  0
 39 40  1  0  0  0  0
 39 41  1  1  0  0  0
 41 42  1  0  0  0  0
M  CHG  5   4   1  14   1  17   1  34   1  42   1
M  END
>  <CHROM.1>
-111.51629298,-87.96583641,-46.91107732,63.49382142,172.43479360,-95.63576798
63.27576084,-59.97034820,-58.96779375,153.48835462,135.03239260,-179.55827043
170.55791893,122.03754554,10.61336190,-169.49172397,-171.91584505,-131.95431173
-59.96579081,-157.87417188,-173.47101204,-163.85620394,15.80612051,34.86759010
65.73763827,1.53839164,0.60409707,2.96021152

>  <Name>
1j7t

>  <RI>
0

>  <Rbt.Current_Directory>
/home/itssahil/PROJECTS/Mol_Feturizer/New_Systems/rnas/1j7t

>  <Rbt.Executable>
rbdock ($Id: //depot/dev/client3/rdock/2013.1/src/exe/rbdock.cxx#4 $)

>  <Rbt.Library>
libRbt.so (2013.1, Build901 2013/11/27)

>  <Rbt.Parameter_File>
/export/apps/rDock/src/rDock_2013.1_src/data/scripts/dock_solv.prm

>  <Rbt.Receptor>
prm/blind_docking_100.prm

>  <SCORE>
18.9901

>  <SCORE.INTER>
-1.20331

>  <SCORE.INTER.CONST>
1

>  <SCORE.INTER.POLAR>
-1.63803

>  <SCORE.INTER.ROT>
9

>  <SCORE.INTER.SOLV>
32.4823

>  <SCORE.INTER.VDW>
-15.7696

>  <SCORE.INTER.norm>
-0.0286501

>  <SCORE.INTRA>
2.4834

>  <SCORE.INTRA.DIHEDRAL>
-1.81148

>  <SCORE.INTRA.DIHEDRAL.0>
46.2143

>  <SCORE.INTRA.POLAR>
-0.71584

>  <SCORE.INTRA.POLAR.0>
-1.76436

>  <SCORE.INTRA.REPUL>
0

>  <SCORE.INTRA.REPUL.0>
0

>  <SCORE.INTRA.SOLV>
5.76755

>  <SCORE.INTRA.SOLV.lig_0>
-148.643

>  <SCORE.INTRA.VDW>
2.93922

>  <SCORE.INTRA.VDW.0>
-4.83512

>  <SCORE.INTRA.norm>
0.0591285

>  <SCORE.RESTR>
17.71

>  <SCORE.RESTR.CAVITY>
17.71

>  <SCORE.RESTR.norm>
0.421667

>  <SCORE.SYSTEM>
0

>  <SCORE.SYSTEM.CONST>
0

>  <SCORE.SYSTEM.DIHEDRAL>
0

>  <SCORE.SYSTEM.SOLV>
0

>  <SCORE.SYSTEM.norm>
0

>  <SCORE.heavy>
42

>  <SCORE.norm>
0.452146

>  <RMSD>
33.688

$$$$
1j7t
 OpenBabel11021811393D
libRbt.so/2013.1/901 2013/11/27
 42 45  0  0  0  0  0  0  0  0999 V2000
   17.5635   30.0258   66.4886 C   0  0  2  0  0  0  0  0  0  0  0  0
   17.4849   31.4220   66.1050 O   0  0  0  0  0  0  0  0  0  0  0  0
   16.3128   29.3216   65.8886 C   0  0  2  0  0  0  0  0  0  0  0  0
   16.1300   29.5283   64.4232 N   0  3  0  0  0  0  0  0  0  0  0  0
   15.0619   29.8734   66.6068 C   0  0  1  0  0  0  0  0  0  0  0  0
   13.9019   29.2616   66.1174 O   0  0  0  0  0  0  0  0  0  0  0  0
   15.1889   29.6587   68.1336 C   0  0  2  0  0  0  0  0  0  0  0  0
   14.0430   30.1382   68.8091 O   0  0  0  0  0  0  0  0  0  0  0  0
   16.4117   30.3835   68.6546 C   0  0  2  0  0  0  0  0  0  0  0  0
   17.5609   29.9341   67.9479 O   0  0  0  0  0  0  0  0  0  0  0  0
   16.6727   30.1264   70.1219 C   0  0  0  0  0  0  0  0  0  0  0  0
   18.0296   30.3998   70.4143 O   0  0  0  0  0  0  0  0  0  0  0  0
   19.8197   33.7340   68.7605 C   0  0  2  0  0  0  0  0  0  0  0  0
   20.8335   34.6583   69.2696 N   0  3  0  0  0  0  0  0  0  0  0  0
   20.5102   32.5200   68.0549 C   0  0  0  0  0  0  0  0  0  0  0  0
   19.4459   31.5690   67.4747 C   0  0  2  0  0  0  0  0  0  0  0  0
   20.0762   30.4525   66.7626 N   0  3  0  0  0  0  0  0  0  0  0  0
   18.5147   32.3308   66.5113 C   0  0  2  0  0  0  0  0  0  0  0  0
   17.8415   33.5493   67.1726 C   0  0  2  0  0  0  0  0  0  0  0  0
   17.1396   34.2371   66.1192 O   0  0  0  0  0  0  0  0  0  0  0  0
   18.9098   34.4813   67.7986 C   0  0  1  0  0  0  0  0  0  0  0  0
   18.2690   35.5253   68.4786 O   0  0  0  0  0  0  0  0  0  0  0  0
   16.6164   35.5559   66.2538 C   0  0  1  0  0  0  0  0  0  0  0  0
   15.8606   35.9311   64.9293 C   0  0  2  0  0  0  0  0  0  0  0  0
   16.6913   36.5092   63.9369 O   0  0  0  0  0  0  0  0  0  0  0  0
   14.8274   36.8769   65.5254 C   0  0  2  0  0  0  0  0  0  0  0  0
   15.4525   38.1066   66.0016 O   0  0  0  0  0  0  0  0  0  0  0  0
   14.3352   36.1088   66.7440 C   0  0  2  0  0  0  0  0  0  0  0  0
   15.5755   35.6035   67.2675 O   0  0  0  0  0  0  0  0  0  0  0  0
   13.3036   34.9747   66.4352 C   0  0  0  0  0  0  0  0  0  0  0  0
   13.8947   33.9150   65.6725 O   0  0  0  0  0  0  0  0  0  0  0  0
   14.9894   39.2841   65.3452 C   0  0  2  0  0  0  0  0  0  0  0  0
   15.3824   39.3877   63.8323 C   0  0  2  0  0  0  0  0  0  0  0  0
   16.8594   39.3339   63.6111 N   0  3  0  0  0  0  0  0  0  0  0  0
   14.7689   40.7216   63.2900 C   0  0  1  0  0  0  0  0  0  0  0  0
   13.2987   40.6024   63.3980 O   0  0  0  0  0  0  0  0  0  0  0  0
   15.2369   41.9829   64.1156 C   0  0  2  0  0  0  0  0  0  0  0  0
   16.6581   42.1283   63.9614 O   0  0  0  0  0  0  0  0  0  0  0  0
   14.8301   41.7594   65.6310 C   0  0  1  0  0  0  0  0  0  0  0  0
   15.4500   40.5059   66.0756 O   0  0  0  0  0  0  0  0  0  0  0  0
   15.2375   42.9086   66.5810 C   0  0  0  0  0  0  0  0  0  0  0  0
   14.5483   44.1938   66.2848 N   0  3  0  0  0  0  0  0  0  0  0  0
  1  2  1  1  0  0  0
  1  3  1  0  0  0  0
  1 10  1  0  0  0  0
  3  4  1  6  0  0  0
  3  5  1  0  0  0  0
  5  6  1  6  0  0  0
  5  7  1  0  0  0  0
  7  8  1  1  0  0  0
  7  9  1  0  0  0  0
  9 10  1  0  0  0  0
  9 11  1  1  0  0  0
 11 12  1  0  0  0  0
 13 14  1  6  0  0  0
 13 15  1  0  0  0  0
 13 21  1  0  0  0  0
 15 16  1  0  0  0  0
 16 17  1  6  0  0  0
 16 18  1  0  0  0  0
 18  2  1  1  0  0  0
 18 19  1  0  0  0  0
 19 20  1  6  0  0  0
 19 21  1  0  0  0  0
 21 22  1  1  0  0  0
 23 20  1  6  0  0  0
 23 24  1  0  0  0  0
 23 29  1  0  0  0  0
 24 25  1  6  0  0  0
 24 26  1  0  0  0  0
 26 27  1  1  0  0  0
 26 28  1  0  0  0  0
 28 29  1  0  0  0  0
 28 30  1  6  0  0  0
 30 31  1  0  0  0  0
 32 27  1  1  0  0  0
 32 33  1  0  0  0  0
 32 40  1  0  0  0  0
 33 34  1  1  0  0  0
 33 35  1  0  0  0  0
 35 36  1  1  0  0  0
 35 37  1  0  0  0  0
 37 38  1  1  0  0  0
 37 39  1  0  0  0  0
 39 40  1  0  0  0  0
 39 41  1  1  0  0  0
 41 42  1  0  0  0  0
M  CHG  5   4   1  14   1  17   1  34   1  42   1
M  END
>  <CHROM.1>
-179.66415572,-7.03358712,-49.83918900,-75.56739809,-58.54552831,158.62741833
-54.98697720,-55.17366785,21.82411576,-166.66557210,-177.11329961,-21.83072394
174.13199561,118.51530968,-67.18210825,66.07468198,-174.02633742,-168.31236669
-173.00044383,67.92932608,64.58346253,-55.51222841,16.41793705,35.00389857
66.43957384,1.36520665,0.48146546,2.98513774

>  <Name>
1j7t

>  <RI>
0

>  <Rbt.Current_Directory>
/home/itssahil/PROJECTS/Mol_Feturizer/New_Systems/rnas/1j7t

>  <Rbt.Executable>
rbdock ($Id: //depot/dev/client3/rdock/2013.1/src/exe/rbdock.cxx#4 $)

>  <Rbt.Library>
libRbt.so (2013.1, Build901 2013/11/27)

>  <Rbt.Parameter_File>
/export/apps/rDock/src/rDock_2013.1_src/data/scripts/dock_solv.prm

>  <Rbt.Receptor>
prm/blind_docking_100.prm

>  <SCORE>
-9.52794

>  <SCORE.INTER>
-22.9817

>  <SCORE.INTER.CONST>
1

>  <SCORE.INTER.POLAR>
-3.07264

>  <SCORE.INTER.ROT>
9

>  <SCORE.INTER.SOLV>
35.3919

>  <SCORE.INTER.VDW>
-26.4763

>  <SCORE.INTER.norm>
-0.547183

>  <SCORE.INTRA>
1.84661

>  <SCORE.INTRA.DIHEDRAL>
-18.5182

>  <SCORE.INTRA.DIHEDRAL.0>
46.2143

>  <SCORE.INTRA.POLAR>
0.268633

>  <SCORE.INTRA.POLAR.0>
-1.76436

>  <SCORE.INTRA.REPUL>
0.00980701

>  <SCORE.INTRA.REPUL.0>
0

>  <SCORE.INTRA.SOLV>
0.44488

>  <SCORE.INTRA.SOLV.lig_0>
-148.643

>  <SCORE.INTRA.VDW>
9.92087

>  <SCORE.INTRA.VDW.0>
-4.83512

>  <SCORE.INTRA.norm>
0.043967

>  <SCORE.RESTR>
11.6071

>  <SCORE.RESTR.CAVITY>
11.6071

>  <SCORE.RESTR.norm>
0.27636

>  <SCORE.SYSTEM>
0

>  <SCORE.SYSTEM.CONST>
0

>  <SCORE.SYSTEM.DIHEDRAL>
0

>  <SCORE.SYSTEM.SOLV>
0

>  <SCORE.SYSTEM.norm>
0

>  <SCORE.heavy>
42

>  <SCORE.norm>
-0.226856

>  <RMSD>
33.806

$$$$
1j7t
 OpenBabel11021811393D
libRbt.so/2013.1/901 2013/11/27
 42 45  0  0  0  0  0  0  0  0999 V2000
   15.5116   40.8531   62.4456 C   0  0  2  0  0  0  0  0  0  0  0  0
   15.5451   41.9249   63.4217 O   0  0  0  0  0  0  0  0  0  0  0  0
   16.4031   41.3012   61.2521 C   0  0  2  0  0  0  0  0  0  0  0  0
   17.7832   41.7179   61.6333 N   0  3  0  0  0  0  0  0  0  0  0  0
   15.7161   42.5016   60.5653 C   0  0  1  0  0  0  0  0  0  0  0  0
   16.4683   42.9396   59.4690 O   0  0  0  0  0  0  0  0  0  0  0  0
   14.2851   42.1127   60.1242 C   0  0  2  0  0  0  0  0  0  0  0  0
   13.6452   43.1924   59.4731 O   0  0  0  0  0  0  0  0  0  0  0  0
   13.4676   41.7064   61.3319 C   0  0  2  0  0  0  0  0  0  0  0  0
   14.1298   40.6485   62.0133 O   0  0  0  0  0  0  0  0  0  0  0  0
   12.0894   41.1988   60.9712 C   0  0  0  0  0  0  0  0  0  0  0  0
   11.4848   40.6242   62.1138 O   0  0  0  0  0  0  0  0  0  0  0  0
   14.7778   41.8431   67.5753 C   0  0  2  0  0  0  0  0  0  0  0  0
   14.0713   41.7387   68.8526 N   0  3  0  0  0  0  0  0  0  0  0  0
   14.2281   43.0596   66.7590 C   0  0  0  0  0  0  0  0  0  0  0  0
   14.9353   43.1438   65.3928 C   0  0  2  0  0  0  0  0  0  0  0  0
   14.3942   44.2470   64.5921 N   0  3  0  0  0  0  0  0  0  0  0  0
   14.7684   41.8204   64.6206 C   0  0  2  0  0  0  0  0  0  0  0  0
   15.2768   40.6003   65.4131 C   0  0  2  0  0  0  0  0  0  0  0  0
   14.9127   39.4419   64.6379 O   0  0  0  0  0  0  0  0  0  0  0  0
   14.6011   40.5432   66.8066 C   0  0  1  0  0  0  0  0  0  0  0  0
   15.1528   39.4869   67.5434 O   0  0  0  0  0  0  0  0  0  0  0  0
   15.5141   38.1611   64.8082 C   0  0  1  0  0  0  0  0  0  0  0  0
   14.3980   37.1358   65.2197 C   0  0  2  0  0  0  0  0  0  0  0  0
   14.1703   37.0630   66.6168 O   0  0  0  0  0  0  0  0  0  0  0  0
   15.0121   35.8842   64.6082 C   0  0  2  0  0  0  0  0  0  0  0  0
   16.2183   35.4852   65.3262 O   0  0  0  0  0  0  0  0  0  0  0  0
   15.4356   36.3610   63.2260 C   0  0  2  0  0  0  0  0  0  0  0  0
   16.0056   37.6428   63.5421 O   0  0  0  0  0  0  0  0  0  0  0  0
   14.2778   36.4569   62.1790 C   0  0  0  0  0  0  0  0  0  0  0  0
   13.4460   37.6003   62.4132 O   0  0  0  0  0  0  0  0  0  0  0  0
   16.4974   34.0891   65.2598 C   0  0  2  0  0  0  0  0  0  0  0  0
   15.2493   33.1621   65.4532 C   0  0  2  0  0  0  0  0  0  0  0  0
   14.5515   33.3919   66.7545 N   0  3  0  0  0  0  0  0  0  0  0  0
   15.7512   31.6852   65.3238 C   0  0  1  0  0  0  0  0  0  0  0  0
   16.2665   31.5175   63.9476 O   0  0  0  0  0  0  0  0  0  0  0  0
   16.9085   31.3477   66.3427 C   0  0  2  0  0  0  0  0  0  0  0  0
   16.3881   31.4564   67.6777 O   0  0  0  0  0  0  0  0  0  0  0  0
   18.0989   32.3635   66.0916 C   0  0  1  0  0  0  0  0  0  0  0  0
   17.5623   33.7207   66.2440 O   0  0  0  0  0  0  0  0  0  0  0  0
   19.3128   32.1741   67.0295 C   0  0  0  0  0  0  0  0  0  0  0  0
   19.2999   33.0858   68.2056 N   0  3  0  0  0  0  0  0  0  0  0  0
  1  2  1  1  0  0  0
  1  3  1  0  0  0  0
  1 10  1  0  0  0  0
  3  4  1  1  0  0  0
  3  5  1  0  0  0  0
  5  6  1  6  0  0  0
  5  7  1  0  0  0  0
  7  8  1  1  0  0  0
  7  9  1  0  0  0  0
  9 10  1  0  0  0  0
  9 11  1  6  0  0  0
 11 12  1  0  0  0  0
 13 14  1  1  0  0  0
 13 15  1  0  0  0  0
 13 21  1  0  0  0  0
 15 16  1  0  0  0  0
 16 17  1  6  0  0  0
 16 18  1  0  0  0  0
 18  2  1  6  0  0  0
 18 19  1  0  0  0  0
 19 20  1  6  0  0  0
 19 21  1  0  0  0  0
 21 22  1  1  0  0  0
 23 20  1  6  0  0  0
 23 24  1  0  0  0  0
 23 29  1  0  0  0  0
 24 25  1  1  0  0  0
 24 26  1  0  0  0  0
 26 27  1  1  0  0  0
 26 28  1  0  0  0  0
 28 29  1  0  0  0  0
 28 30  1  6  0  0  0
 30 31  1  0  0  0  0
 32 27  1  1  0  0  0
 32 33  1  0  0  0  0
 32 40  1  0  0  0  0
 33 34  1  1  0  0  0
 33 35  1  0  0  0  0
 35 36  1  6  0  0  0
 35 37  1  0  0  0  0
 37 38  1  1  0  0  0
 37 39  1  0  0  0  0
 39 40  1  0  0  0  0
 39 41  1  1  0  0  0
 41 42  1  0  0  0  0
M  CHG  5   4   1  14   1  17   1  34   1  42   1
M  END
>  <CHROM.1>
177.64376532,-176.00412726,-52.87855089,78.73270485,60.73432431,169.73048805
-177.51622288,65.41243770,63.89702375,161.38284448,119.39466534,-40.97813422
46.91703570,152.58248307,-43.11291560,75.18891985,61.20576779,-59.56993045
-166.45061497,175.66962917,-96.59111992,-151.64062571,15.33063334,38.25364427
64.37752596,-3.02813864,-1.35366925,1.30103079

>  <Name>
1j7t

>  <RI>
0

>  <Rbt.Current_Directory>
/home/itssahil/PROJECTS/Mol_Feturizer/New_Systems/rnas/1j7t

>  <Rbt.Executable>
rbdock ($Id: //depot/dev/client3/rdock/2013.1/src/exe/rbdock.cxx#4 $)

>  <Rbt.Library>
libRbt.so (2013.1, Build901 2013/11/27)

>  <Rbt.Parameter_File>
/export/apps/rDock/src/rDock_2013.1_src/data/scripts/dock_solv.prm

>  <Rbt.Receptor>
prm/blind_docking_100.prm

>  <SCORE>
-11.5647

>  <SCORE.INTER>
-17.1607

>  <SCORE.INTER.CONST>
1

>  <SCORE.INTER.POLAR>
-2.88364

>  <SCORE.INTER.ROT>
9

>  <SCORE.INTER.SOLV>
26.6027

>  <SCORE.INTER.VDW>
-20.2959

>  <SCORE.INTER.norm>
-0.408587

>  <SCORE.INTRA>
-15.1723

>  <SCORE.INTRA.DIHEDRAL>
-21.0971

>  <SCORE.INTRA.DIHEDRAL.0>
46.2143

>  <SCORE.INTRA.POLAR>
-0.703528

>  <SCORE.INTRA.POLAR.0>
-1.76436

>  <SCORE.INTRA.REPUL>
0

>  <SCORE.INTRA.REPUL.0>
0

>  <SCORE.INTRA.SOLV>
-1.38873

>  <SCORE.INTRA.SOLV.lig_0>
-148.643

>  <SCORE.INTRA.VDW>
-1.53738

>  <SCORE.INTRA.VDW.0>
-4.83512

>  <SCORE.INTRA.norm>
-0.361245

>  <SCORE.RESTR>
20.7682

>  <SCORE.RESTR.CAVITY>
20.7682

>  <SCORE.RESTR.norm>
0.494482

>  <SCORE.SYSTEM>
0

>  <SCORE.SYSTEM.CONST>
0

>  <SCORE.SYSTEM.DIHEDRAL>
0

>  <SCORE.SYSTEM.SOLV>
0

>  <SCORE.SYSTEM.norm>
0

>  <SCORE.heavy>
42

>  <SCORE.norm>
-0.27535

>  <RMSD>
35.934

$$$$
1j7t
 OpenBabel11021811393D
libRbt.so/2013.1/901 2013/11/27
 42 45  0  0  0  0  0  0  0  0999 V2000
   13.5789   43.0419   62.1599 C   0  0  2  0  0  0  0  0  0  0  0  0
   14.0791   41.7488   62.5845 O   0  0  0  0  0  0  0  0  0  0  0  0
   12.9926   42.8525   60.7315 C   0  0  2  0  0  0  0  0  0  0  0  0
   11.9877   41.7569   60.6156 N   0  3  0  0  0  0  0  0  0  0  0  0
   14.1602   42.5308   59.7733 C   0  0  1  0  0  0  0  0  0  0  0  0
   13.6928   42.3652   58.4643 O   0  0  0  0  0  0  0  0  0  0  0  0
   15.2221   43.6543   59.8351 C   0  0  2  0  0  0  0  0  0  0  0  0
   16.2910   43.3896   58.9482 O   0  0  0  0  0  0  0  0  0  0  0  0
   15.7637   43.7726   61.2439 C   0  0  2  0  0  0  0  0  0  0  0  0
   14.6861   43.9968   62.1443 O   0  0  0  0  0  0  0  0  0  0  0  0
   16.7236   44.9287   61.4146 C   0  0  0  0  0  0  0  0  0  0  0  0
   16.6098   45.8032   60.3085 O   0  0  0  0  0  0  0  0  0  0  0  0
   15.7645   41.7246   66.4584 C   0  0  2  0  0  0  0  0  0  0  0  0
   15.9581   41.4578   67.8841 N   0  3  0  0  0  0  0  0  0  0  0  0
   14.4514   42.5478   66.2427 C   0  0  0  0  0  0  0  0  0  0  0  0
   14.2182   42.7889   64.7390 C   0  0  2  0  0  0  0  0  0  0  0  0
   12.9628   43.5133   64.5151 N   0  3  0  0  0  0  0  0  0  0  0  0
   14.1777   41.4473   63.9812 C   0  0  2  0  0  0  0  0  0  0  0  0
   15.4483   40.6024   64.1979 C   0  0  2  0  0  0  0  0  0  0  0  0
   15.1951   39.3330   63.5655 O   0  0  0  0  0  0  0  0  0  0  0  0
   15.7096   40.4010   65.7122 C   0  0  1  0  0  0  0  0  0  0  0  0
   16.9209   39.7182   65.8839 O   0  0  0  0  0  0  0  0  0  0  0  0
   15.5393   38.0802   64.1514 C   0  0  1  0  0  0  0  0  0  0  0  0
   14.2395   37.4360   64.7529 C   0  0  2  0  0  0  0  0  0  0  0  0
   13.9664   37.8297   66.0868 O   0  0  0  0  0  0  0  0  0  0  0  0
   14.6217   35.9719   64.5863 C   0  0  2  0  0  0  0  0  0  0  0  0
   15.7121   35.6072   65.4852 O   0  0  0  0  0  0  0  0  0  0  0  0
   15.1630   35.9276   63.1643 C   0  0  2  0  0  0  0  0  0  0  0  0
   15.9565   37.1265   63.1367 O   0  0  0  0  0  0  0  0  0  0  0  0
   14.0714   35.9003   62.0447 C   0  0  0  0  0  0  0  0  0  0  0  0
   13.7571   37.2190   61.5797 O   0  0  0  0  0  0  0  0  0  0  0  0
   16.1538   34.2595   65.3437 C   0  0  2  0  0  0  0  0  0  0  0  0
   15.0280   33.1816   65.5013 C   0  0  2  0  0  0  0  0  0  0  0  0
   14.3289   33.2608   66.8198 N   0  3  0  0  0  0  0  0  0  0  0  0
   15.6995   31.7836   65.2906 C   0  0  1  0  0  0  0  0  0  0  0  0
   16.2087   31.7479   63.9024 O   0  0  0  0  0  0  0  0  0  0  0  0
   16.9050   31.5359   66.2789 C   0  0  2  0  0  0  0  0  0  0  0  0
   16.3970   31.5145   67.6229 O   0  0  0  0  0  0  0  0  0  0  0  0
   17.9621   32.6979   66.0688 C   0  0  1  0  0  0  0  0  0  0  0  0
   17.2707   33.9719   66.2967 O   0  0  0  0  0  0  0  0  0  0  0  0
   19.2049   32.6079   66.9833 C   0  0  0  0  0  0  0  0  0  0  0  0
   19.9494   31.3267   66.8456 N   0  3  0  0  0  0  0  0  0  0  0  0
  1  2  1  6  0  0  0
  1  3  1  0  0  0  0
  1 10  1  0  0  0  0
  3  4  1  1  0  0  0
  3  5  1  0  0  0  0
  5  6  1  6  0  0  0
  5  7  1  0  0  0  0
  7  8  1  6  0  0  0
  7  9  1  0  0  0  0
  9 10  1  0  0  0  0
  9 11  1  6  0  0  0
 11 12  1  0  0  0  0
 13 14  1  1  0  0  0
 13 15  1  0  0  0  0
 13 21  1  0  0  0  0
 15 16  1  0  0  0  0
 16 17  1  1  0  0  0
 16 18  1  0  0  0  0
 18  2  1  6  0  0  0
 18 19  1  0  0  0  0
 19 20  1  6  0  0  0
 19 21  1  0  0  0  0
 21 22  1  6  0  0  0
 23 20  1  6  0  0  0
 23 24  1  0  0  0  0
 23 29  1  0  0  0  0
 24 25  1  1  0  0  0
 24 26  1  0  0  0  0
 26 27  1  1  0  0  0
 26 28  1  0  0  0  0
 28 29  1  0  0  0  0
 28 30  1  6  0  0  0
 30 31  1  0  0  0  0
 32 27  1  1  0  0  0
 32 33  1  0  0  0  0
 32 40  1  0  0  0  0
 33 34  1  1  0  0  0
 33 35  1  0  0  0  0
 35 36  1  6  0  0  0
 35 37  1  0  0  0  0
 37 38  1  1  0  0  0
 37 39  1  0  0  0  0
 39 40  1  0  0  0  0
 39 41  1  1  0  0  0
 41 42  1  0  0  0  0
M  CHG  5   4   1  14   1  17   1  34   1  42   1
M  END
>  <CHROM.1>
-154.81845025,-21.38076950,81.92493318,-155.22129073,57.59474517,14.80545341
50.35472730,58.28321437,57.06443913,-137.00684296,101.91579114,-145.07948973
-60.83995364,-177.73500847,-55.26061298,92.91075789,-175.99784775,-178.88940066
62.46814792,79.54079883,57.35226067,54.09050831,15.35345237,38.61748579,63.88224307
-2.35972614,1.32016427,-2.77454469

>  <Name>
1j7t

>  <RI>
0

>  <Rbt.Current_Directory>
/home/itssahil/PROJECTS/Mol_Feturizer/New_Systems/rnas/1j7t

>  <Rbt.Executable>
rbdock ($Id: //depot/dev/client3/rdock/2013.1/src/exe/rbdock.cxx#4 $)

>  <Rbt.Library>
libRbt.so (2013.1, Build901 2013/11/27)

>  <Rbt.Parameter_File>
/export/apps/rDock/src/rDock_2013.1_src/data/scripts/dock_solv.prm

>  <Rbt.Receptor>
prm/blind_docking_100.prm

>  <SCORE>
19.1236

>  <SCORE.INTER>
-19.7932

>  <SCORE.INTER.CONST>
1

>  <SCORE.INTER.POLAR>
-4.64612

>  <SCORE.INTER.ROT>
9

>  <SCORE.INTER.SOLV>
29.9658

>  <SCORE.INTER.VDW>
-17.297

>  <SCORE.INTER.norm>
-0.471268

>  <SCORE.INTRA>
20.6477

>  <SCORE.INTRA.DIHEDRAL>
-8.01928

>  <SCORE.INTRA.DIHEDRAL.0>
46.2143

>  <SCORE.INTRA.POLAR>
0.98066

>  <SCORE.INTRA.POLAR.0>
-1.76436

>  <SCORE.INTRA.REPUL>
0.579461

>  <SCORE.INTRA.REPUL.0>
0

>  <SCORE.INTRA.SOLV>
-1.77938

>  <SCORE.INTRA.SOLV.lig_0>
-148.643

>  <SCORE.INTRA.VDW>
19.3155

>  <SCORE.INTRA.VDW.0>
-4.83512

>  <SCORE.INTRA.norm>
0.491612

>  <SCORE.RESTR>
18.2691

>  <SCORE.RESTR.CAVITY>
18.2691

>  <SCORE.RESTR.norm>
0.434979

>  <SCORE.SYSTEM>
0

>  <SCORE.SYSTEM.CONST>
0

>  <SCORE.SYSTEM.DIHEDRAL>
0

>  <SCORE.SYSTEM.SOLV>
0

>  <SCORE.SYSTEM.norm>
0

>  <SCORE.heavy>
42

>  <SCORE.norm>
0.455323

>  <RMSD>
36.082

$$$$
1j7t
 OpenBabel11021811393D
libRbt.so/2013.1/901 2013/11/27
 42 45  0  0  0  0  0  0  0  0999 V2000
   13.5874   43.1846   61.6147 C   0  0  2  0  0  0  0  0  0  0  0  0
   13.2869   41.8310   62.0388 O   0  0  0  0  0  0  0  0  0  0  0  0
   13.7485   43.1479   60.0678 C   0  0  2  0  0  0  0  0  0  0  0  0
   12.5994   42.5361   59.3405 N   0  3  0  0  0  0  0  0  0  0  0  0
   15.0132   42.3254   59.7375 C   0  0  1  0  0  0  0  0  0  0  0  0
   15.2190   42.2713   58.3539 O   0  0  0  0  0  0  0  0  0  0  0  0
   16.2440   42.9364   60.4483 C   0  0  2  0  0  0  0  0  0  0  0  0
   17.4177   42.2101   60.1416 O   0  0  0  0  0  0  0  0  0  0  0  0
   16.0303   42.9245   61.9471 C   0  0  2  0  0  0  0  0  0  0  0  0
   14.8280   43.6180   62.2558 O   0  0  0  0  0  0  0  0  0  0  0  0
   17.1402   43.6131   62.7094 C   0  0  0  0  0  0  0  0  0  0  0  0
   17.0254   43.3089   64.0862 O   0  0  0  0  0  0  0  0  0  0  0  0
   15.2077   41.8737   65.8013 C   0  0  2  0  0  0  0  0  0  0  0  0
   15.5731   41.5264   67.1751 N   0  3  0  0  0  0  0  0  0  0  0  0
   13.7107   42.3255   65.7450 C   0  0  0  0  0  0  0  0  0  0  0  0
   13.3082   42.6452   64.2926 C   0  0  2  0  0  0  0  0  0  0  0  0
   11.8922   43.0191   64.2137 N   0  3  0  0  0  0  0  0  0  0  0  0
   13.5680   41.4276   63.3841 C   0  0  2  0  0  0  0  0  0  0  0  0
   15.0300   40.9433   63.4409 C   0  0  2  0  0  0  0  0  0  0  0  0
   15.0757   39.7240   62.6751 O   0  0  0  0  0  0  0  0  0  0  0  0
   15.4498   40.6680   64.9071 C   0  0  1  0  0  0  0  0  0  0  0  0
   16.8084   40.3273   64.9412 O   0  0  0  0  0  0  0  0  0  0  0  0
   15.2678   38.4370   63.2565 C   0  0  1  0  0  0  0  0  0  0  0  0
   14.0311   38.1109   64.1678 C   0  0  2  0  0  0  0  0  0  0  0  0
   14.1578   38.5805   65.4992 O   0  0  0  0  0  0  0  0  0  0  0  0
   14.0438   36.5957   64.0228 C   0  0  2  0  0  0  0  0  0  0  0  0
   15.2055   36.0132   64.6867 O   0  0  0  0  0  0  0  0  0  0  0  0
   14.2267   36.4051   62.5236 C   0  0  2  0  0  0  0  0  0  0  0  0
   15.2307   37.3955   62.2430 O   0  0  0  0  0  0  0  0  0  0  0  0
   12.9300   36.6018   61.6717 C   0  0  0  0  0  0  0  0  0  0  0  0
   12.2936   37.8535   61.9579 O   0  0  0  0  0  0  0  0  0  0  0  0
   15.0279   34.6547   65.0799 C   0  0  2  0  0  0  0  0  0  0  0  0
   15.4383   34.3423   66.5592 C   0  0  2  0  0  0  0  0  0  0  0  0
   16.8638   34.6835   66.8506 N   0  3  0  0  0  0  0  0  0  0  0  0
   15.1500   32.8235   66.8035 C   0  0  1  0  0  0  0  0  0  0  0  0
   13.6915   32.6262   66.6571 O   0  0  0  0  0  0  0  0  0  0  0  0
   15.8937   31.8920   65.7688 C   0  0  2  0  0  0  0  0  0  0  0  0
   17.3106   32.0440   65.9533 O   0  0  0  0  0  0  0  0  0  0  0  0
   15.4422   32.3159   64.3099 C   0  0  1  0  0  0  0  0  0  0  0  0
   15.7555   33.7401   64.1459 O   0  0  0  0  0  0  0  0  0  0  0  0
   16.1008   31.5024   63.1726 C   0  0  0  0  0  0  0  0  0  0  0  0
   15.6301   30.0923   63.1043 N   0  3  0  0  0  0  0  0  0  0  0  0
  1  2  1  1  0  0  0
  1  3  1  0  0  0  0
  1 10  1  0  0  0  0
  3  4  1  6  0  0  0
  3  5  1  0  0  0  0
  5  6  1  6  0  0  0
  5  7  1  0  0  0  0
  7  8  1  1  0  0  0
  7  9  1  0  0  0  0
  9 10  1  0  0  0  0
  9 11  1  1  0  0  0
 11 12  1  0  0  0  0
 13 14  1  1  0  0  0
 13 15  1  0  0  0  0
 13 21  1  0  0  0  0
 15 16  1  0  0  0  0
 16 17  1  1  0  0  0
 16 18  1  0  0  0  0
 18  2  1  6  0  0  0
 18 19  1  0  0  0  0
 19 20  1  6  0  0  0
 19 21  1  0  0  0  0
 21 22  1  6  0  0  0
 23 20  1  6  0  0  0
 23 24  1  0  0  0  0
 23 29  1  0  0  0  0
 24 25  1  1  0  0  0
 24 26  1  0  0  0  0
 26 27  1  1  0  0  0
 26 28  1  0  0  0  0
 28 29  1  0  0  0  0
 28 30  1  6  0  0  0
 30 31  1  0  0  0  0
 32 27  1  6  0  0  0
 32 33  1  0  0  0  0
 32 40  1  0  0  0  0
 33 34  1  6  0  0  0
 33 35  1  0  0  0  0
 35 36  1  6  0  0  0
 35 37  1  0  0  0  0
 37 38  1  6  0  0  0
 37 39  1  0  0  0  0
 39 40  1  0  0  0  0
 39 41  1  6  0  0  0
 41 42  1  0  0  0  0
M  CHG  5   4   1  14   1  17   1  34   1  42   1
M  END
>  <CHROM.1>
156.69995136,35.02585089,-30.14386230,-74.26589674,64.34130209,-167.24383377
76.42500500,-174.44368830,-170.60471008,-109.99357889,65.07062772,67.18646882
-167.32865592,155.39758073,-131.30016211,52.34720874,68.73976362,-20.38962036
-172.66417408,87.19841131,69.94579783,-172.55080849,14.95154504,38.67300361
63.52079531,2.11928297,-1.42904129,0.23638373

>  <Name>
1j7t

>  <RI>
0

>  <Rbt.Current_Directory>
/home/itssahil/PROJECTS/Mol_Feturizer/New_Systems/rnas/1j7t

>  <Rbt.Executable>
rbdock ($Id: //depot/dev/client3/rdock/2013.1/src/exe/rbdock.cxx#4 $)

>  <Rbt.Library>
libRbt.so (2013.1, Build901 2013/11/27)

>  <Rbt.Parameter_File>
/export/apps/rDock/src/rDock_2013.1_src/data/scripts/dock_solv.prm

>  <Rbt.Receptor>
prm/blind_docking_100.prm

>  <SCORE>
11.8173

>  <SCORE.INTER>
-12.4532

>  <SCORE.INTER.CONST>
1

>  <SCORE.INTER.POLAR>
-8.3311

>  <SCORE.INTER.ROT>
9

>  <SCORE.INTER.SOLV>
30.1081

>  <SCORE.INTER.VDW>
-0.167834

>  <SCORE.INTER.norm>
-0.296506

>  <SCORE.INTRA>
3.20536

>  <SCORE.INTRA.DIHEDRAL>
-11.7039

>  <SCORE.INTRA.DIHEDRAL.0>
46.2143

>  <SCORE.INTRA.POLAR>
1.08118

>  <SCORE.INTRA.POLAR.0>
-1.76436

>  <SCORE.INTRA.REPUL>
0

>  <SCORE.INTRA.REPUL.0>
0

>  <SCORE.INTRA.SOLV>
-0.777676

>  <SCORE.INTRA.SOLV.lig_0>
-148.643

>  <SCORE.INTRA.VDW>
5.77011

>  <SCORE.INTRA.VDW.0>
-4.83512

>  <SCORE.INTRA.norm>
0.0763182

>  <SCORE.RESTR>
21.0652

>  <SCORE.RESTR.CAVITY>
21.0652

>  <SCORE.RESTR.norm>
0.501552

>  <SCORE.SYSTEM>
0

>  <SCORE.SYSTEM.CONST>
0

>  <SCORE.SYSTEM.DIHEDRAL>
0

>  <SCORE.SYSTEM.SOLV>
0

>  <SCORE.SYSTEM.norm>
0

>  <SCORE.heavy>
42

>  <SCORE.norm>
0.281365

>  <RMSD>
36.168

$$$$
1j7t
 OpenBabel11021811393D
libRbt.so/2013.1/901 2013/11/27
 42 45  0  0  0  0  0  0  0  0999 V2000
   13.2430   42.2840   62.7388 C   0  0  2  0  0  0  0  0  0  0  0  0
   13.6354   40.9702   63.2105 O   0  0  0  0  0  0  0  0  0  0  0  0
   12.8335   42.1243   61.2465 C   0  0  2  0  0  0  0  0  0  0  0  0
   11.8094   41.0699   60.9956 N   0  3  0  0  0  0  0  0  0  0  0  0
   14.0988   41.7607   60.4391 C   0  0  1  0  0  0  0  0  0  0  0  0
   13.7932   41.6196   59.0803 O   0  0  0  0  0  0  0  0  0  0  0  0
   15.1873   42.8409   60.6438 C   0  0  2  0  0  0  0  0  0  0  0  0
   16.3479   42.5380   59.8952 O   0  0  0  0  0  0  0  0  0  0  0  0
   15.5521   42.9315   62.1103 C   0  0  2  0  0  0  0  0  0  0  0  0
   14.3796   43.1943   62.8708 O   0  0  0  0  0  0  0  0  0  0  0  0
   16.5271   44.0478   62.4106 C   0  0  0  0  0  0  0  0  0  0  0  0
   17.7219   43.5016   62.9355 O   0  0  0  0  0  0  0  0  0  0  0  0
   15.1578   42.0677   66.9955 C   0  0  2  0  0  0  0  0  0  0  0  0
   15.6098   41.9849   68.3849 N   0  3  0  0  0  0  0  0  0  0  0  0
   13.6420   41.6905   66.9039 C   0  0  0  0  0  0  0  0  0  0  0  0
   13.1742   41.7290   65.4365 C   0  0  2  0  0  0  0  0  0  0  0  0
   11.7685   41.3257   65.3259 N   0  3  0  0  0  0  0  0  0  0  0  0
   14.0444   40.7956   64.5721 C   0  0  2  0  0  0  0  0  0  0  0  0
   15.5467   41.1270   64.6648 C   0  0  2  0  0  0  0  0  0  0  0  0
   16.2297   40.0859   63.9401 O   0  0  0  0  0  0  0  0  0  0  0  0
   16.0062   41.1359   66.1448 C   0  0  1  0  0  0  0  0  0  0  0  0
   17.3470   41.5373   66.2087 O   0  0  0  0  0  0  0  0  0  0  0  0
   16.3908   38.7591   64.4350 C   0  0  1  0  0  0  0  0  0  0  0  0
   15.1661   38.4174   65.3566 C   0  0  2  0  0  0  0  0  0  0  0  0
   15.3414   38.7974   66.7108 O   0  0  0  0  0  0  0  0  0  0  0  0
   15.1225   36.9147   65.1171 C   0  0  2  0  0  0  0  0  0  0  0  0
   16.2790   36.2532   65.7125 O   0  0  0  0  0  0  0  0  0  0  0  0
   15.2622   36.8132   63.6047 C   0  0  2  0  0  0  0  0  0  0  0  0
   16.2929   37.7855   63.3599 O   0  0  0  0  0  0  0  0  0  0  0  0
   13.9528   37.1063   62.8013 C   0  0  0  0  0  0  0  0  0  0  0  0
   13.9983   36.5339   61.4882 O   0  0  0  0  0  0  0  0  0  0  0  0
   16.3414   34.8525   65.4561 C   0  0  2  0  0  0  0  0  0  0  0  0
   14.9482   34.1503   65.3143 C   0  0  2  0  0  0  0  0  0  0  0  0
   14.0865   34.3204   66.5234 N   0  3  0  0  0  0  0  0  0  0  0  0
   15.2252   32.6393   65.0147 C   0  0  1  0  0  0  0  0  0  0  0  0
   15.9315   32.5732   63.7169 O   0  0  0  0  0  0  0  0  0  0  0  0
   16.1266   31.9588   66.1173 C   0  0  2  0  0  0  0  0  0  0  0  0
   15.4129   31.9741   67.3643 O   0  0  0  0  0  0  0  0  0  0  0  0
   17.4875   32.7660   66.2093 C   0  0  1  0  0  0  0  0  0  0  0  0
   17.1539   34.1637   66.5066 O   0  0  0  0  0  0  0  0  0  0  0  0
   18.4810   32.2307   67.2654 C   0  0  0  0  0  0  0  0  0  0  0  0
   19.4706   31.2668   66.7119 N   0  3  0  0  0  0  0  0  0  0  0  0
  1  2  1  6  0  0  0
  1  3  1  0  0  0  0
  1 10  1  0  0  0  0
  3  4  1  1  0  0  0
  3  5  1  0  0  0  0
  5  6  1  6  0  0  0
  5  7  1  0  0  0  0
  7  8  1  6  0  0  0
  7  9  1  0  0  0  0
  9 10  1  0  0  0  0
  9 11  1  6  0  0  0
 11 12  1  0  0  0  0
 13 14  1  1  0  0  0
 13 15  1  0  0  0  0
 13 21  1  0  0  0  0
 15 16  1  0  0  0  0
 16 17  1  1  0  0  0
 16 18  1  0  0  0  0
 18  2  1  6  0  0  0
 18 19  1  0  0  0  0
 19 20  1  6  0  0  0
 19 21  1  0  0  0  0
 21 22  1  6  0  0  0
 23 20  1  6  0  0  0
 23 24  1  0  0  0  0
 23 29  1  0  0  0  0
 24 25  1  1  0  0  0
 24 26  1  0  0  0  0
 26 27  1  1  0  0  0
 26 28  1  0  0  0  0
 28 29  1  0  0  0  0
 28 30  1  6  0  0  0
 30 31  1  0  0  0  0
 32 27  1  1  0  0  0
 32 33  1  0  0  0  0
 32 40  1  0  0  0  0
 33 34  1  1  0  0  0
 33 35  1  0  0  0  0
 35 36  1  6  0  0  0
 35 37  1  0  0  0  0
 37 38  1  1  0  0  0
 37 39  1  0  0  0  0
 39 40  1  0  0  0  0
 39 41  1  1  0  0  0
 41 42  1  0  0  0  0
M  CHG  5   4   1  14   1  17   1  34   1  42   1
M  END
>  <CHROM.1>
-178.85617809,36.34482940,-166.83582261,-70.70762165,66.33827290,-118.14927835
-38.10704997,3.79614036,-74.09251562,-73.95426611,30.22780115,72.88759637
170.55316202,-176.44468263,-31.39356538,-158.51900305,-50.47087443,-146.93274437
-56.33345215,-78.29311169,93.73730109,179.73066744,15.29704468,38.61449235
64.32947808,2.28486816,-1.26999334,0.33353661

>  <Name>
1j7t

>  <RI>
0

>  <Rbt.Current_Directory>
/home/itssahil/PROJECTS/Mol_Feturizer/New_Systems/rnas/1j7t

>  <Rbt.Executable>
rbdock ($Id: //depot/dev/client3/rdock/2013.1/src/exe/rbdock.cxx#4 $)

>  <Rbt.Library>
libRbt.so (2013.1, Build901 2013/11/27)

>  <Rbt.Parameter_File>
/export/apps/rDock/src/rDock_2013.1_src/data/scripts/dock_solv.prm

>  <Rbt.Receptor>
prm/blind_docking_100.prm

>  <SCORE>
-0.573725

>  <SCORE.INTER>
-26.2423

>  <SCORE.INTER.CONST>
1

>  <SCORE.INTER.POLAR>
-5.55645

>  <SCORE.INTER.ROT>
9

>  <SCORE.INTER.SOLV>
30.593

>  <SCORE.INTER.VDW>
-18.771

>  <SCORE.INTER.norm>
-0.624818

>  <SCORE.INTRA>
7.5129

>  <SCORE.INTRA.DIHEDRAL>
-12.8903

>  <SCORE.INTRA.DIHEDRAL.0>
46.2143

>  <SCORE.INTRA.POLAR>
1.74323

>  <SCORE.INTRA.POLAR.0>
-1.76436

>  <SCORE.INTRA.REPUL>
0

>  <SCORE.INTRA.REPUL.0>
0

>  <SCORE.INTRA.SOLV>
-1.69498

>  <SCORE.INTRA.SOLV.lig_0>
-148.643

>  <SCORE.INTRA.VDW>
8.87854

>  <SCORE.INTRA.VDW.0>
-4.83512

>  <SCORE.INTRA.norm>
0.178879

>  <SCORE.RESTR>
18.1557

>  <SCORE.RESTR.CAVITY>
18.1557

>  <SCORE.RESTR.norm>
0.432279

>  <SCORE.SYSTEM>
0

>  <SCORE.SYSTEM.CONST>
0

>  <SCORE.SYSTEM.DIHEDRAL>
0

>  <SCORE.SYSTEM.SOLV>
0

>  <SCORE.SYSTEM.norm>
0

>  <SCORE.heavy>
42

>  <SCORE.norm>
-0.0136601

>  <RMSD>
36.207

$$$$
1j7t
 OpenBabel11021811393D
libRbt.so/2013.1/901 2013/11/27
 42 45  0  0  0  0  0  0  0  0999 V2000
   14.6907   41.6894   61.7810 C   0  0  2  0  0  0  0  0  0  0  0  0
   14.0053   42.4325   62.8204 O   0  0  0  0  0  0  0  0  0  0  0  0
   15.9695   42.4970   61.4169 C   0  0  2  0  0  0  0  0  0  0  0  0
   16.8390   42.8360   62.5800 N   0  3  0  0  0  0  0  0  0  0  0  0
   15.5279   43.8188   60.7515 C   0  0  1  0  0  0  0  0  0  0  0  0
   16.6421   44.5834   60.3860 O   0  0  0  0  0  0  0  0  0  0  0  0
   14.6421   43.5219   59.5183 C   0  0  2  0  0  0  0  0  0  0  0  0
   14.2441   44.7196   58.8810 O   0  0  0  0  0  0  0  0  0  0  0  0
   13.4095   42.7528   59.9441 C   0  0  2  0  0  0  0  0  0  0  0  0
   13.8061   41.5680   60.6230 O   0  0  0  0  0  0  0  0  0  0  0  0
   12.5482   42.3211   58.7784 C   0  0  0  0  0  0  0  0  0  0  0  0
   11.8836   43.4481   58.2406 O   0  0  0  0  0  0  0  0  0  0  0  0
   15.8250   42.1114   66.6196 C   0  0  2  0  0  0  0  0  0  0  0  0
   16.0621   41.7454   68.0165 N   0  3  0  0  0  0  0  0  0  0  0  0
   14.5256   42.9759   66.5074 C   0  0  0  0  0  0  0  0  0  0  0  0
   14.2455   43.3224   65.0326 C   0  0  2  0  0  0  0  0  0  0  0  0
   13.0010   44.0876   64.9035 N   0  3  0  0  0  0  0  0  0  0  0  0
   14.1457   42.0359   64.1896 C   0  0  2  0  0  0  0  0  0  0  0  0
   15.4021   41.1506   64.3030 C   0  0  2  0  0  0  0  0  0  0  0  0
   15.0960   39.9324   63.5976 O   0  0  0  0  0  0  0  0  0  0  0  0
   15.7116   40.8424   65.7899 C   0  0  1  0  0  0  0  0  0  0  0  0
   16.9112   40.1232   65.8714 O   0  0  0  0  0  0  0  0  0  0  0  0
   15.5357   38.6454   64.0237 C   0  0  1  0  0  0  0  0  0  0  0  0
   14.3673   37.9542   64.8131 C   0  0  2  0  0  0  0  0  0  0  0  0
   14.3508   38.2562   66.1978 O   0  0  0  0  0  0  0  0  0  0  0  0
   14.7024   36.5070   64.4805 C   0  0  2  0  0  0  0  0  0  0  0  0
   15.9392   36.0899   65.1333 O   0  0  0  0  0  0  0  0  0  0  0  0
   14.9681   36.5613   62.9826 C   0  0  2  0  0  0  0  0  0  0  0  0
   15.7499   37.7644   62.8874 O   0  0  0  0  0  0  0  0  0  0  0  0
   13.6863   36.6021   62.0875 C   0  0  0  0  0  0  0  0  0  0  0  0
   12.8615   37.7329   62.3954 O   0  0  0  0  0  0  0  0  0  0  0  0
   16.1923   34.6894   65.0550 C   0  0  2  0  0  0  0  0  0  0  0  0
   14.9150   33.7872   65.1481 C   0  0  2  0  0  0  0  0  0  0  0  0
   14.1396   34.0066   66.4067 N   0  3  0  0  0  0  0  0  0  0  0  0
   15.3927   32.3023   65.0196 C   0  0  1  0  0  0  0  0  0  0  0  0
   15.9919   32.1504   63.6760 O   0  0  0  0  0  0  0  0  0  0  0  0
   16.4744   31.9184   66.1031 C   0  0  2  0  0  0  0  0  0  0  0  0
   15.8713   32.0121   67.4040 O   0  0  0  0  0  0  0  0  0  0  0  0
   17.6998   32.9119   65.9506 C   0  0  1  0  0  0  0  0  0  0  0  0
   17.1834   34.2776   66.0972 O   0  0  0  0  0  0  0  0  0  0  0  0
   18.8464   32.6764   66.9600 C   0  0  0  0  0  0  0  0  0  0  0  0
   19.5134   31.3557   66.8004 N   0  3  0  0  0  0  0  0  0  0  0  0
  1  2  1  1  0  0  0
  1  3  1  0  0  0  0
  1 10  1  0  0  0  0
  3  4  1  1  0  0  0
  3  5  1  0  0  0  0
  5  6  1  6  0  0  0
  5  7  1  0  0  0  0
  7  8  1  1  0  0  0
  7  9  1  0  0  0  0
  9 10  1  0  0  0  0
  9 11  1  6  0  0  0
 11 12  1  0  0  0  0
 13 14  1  1  0  0  0
 13 15  1  0  0  0  0
 13 21  1  0  0  0  0
 15 16  1  0  0  0  0
 16 17  1  1  0  0  0
 16 18  1  0  0  0  0
 18  2  1  6  0  0  0
 18 19  1  0  0  0  0
 19 20  1  6  0  0  0
 19 21  1  0  0  0  0
 21 22  1  6  0  0  0
 23 20  1  6  0  0  0
 23 24  1  0  0  0  0
 23 29  1  0  0  0  0
 24 25  1  1  0  0  0
 24 26  1  0  0  0  0
 26 27  1  1  0  0  0
 26 28  1  0  0  0  0
 28 29  1  0  0  0  0
 28 30  1  6  0  0  0
 30 31  1  0  0  0  0
 32 27  1  1  0  0  0
 32 33  1  0  0  0  0
 32 40  1  0  0  0  0
 33 34  1  1  0  0  0
 33 35  1  0  0  0  0
 35 36  1  6  0  0  0
 35 37  1  0  0  0  0
 37 38  1  1  0  0  0
 37 39  1  0  0  0  0
 39 40  1  0  0  0  0
 39 41  1  1  0  0  0
 41 42  1  0  0  0  0
M  CHG  5   4   1  14   1  17   1  34   1  42   1
M  END
>  <CHROM.1>
-99.88839913,140.71386616,-174.21132422,-175.21603102,63.19962838,-72.58145997
50.87196208,-56.11710922,174.38217462,-142.94764381,97.90104637,-54.07158278
-44.87264256,169.77398224,-36.19957470,58.59693863,-65.65437806,178.81372711
57.82772477,74.23423037,64.10874067,59.12213542,15.23305676,38.88152579,63.82258682
2.23260140,-1.24637070,0.21016063

>  <Name>
1j7t

>  <RI>
0

>  <Rbt.Current_Directory>
/home/itssahil/PROJECTS/Mol_Feturizer/New_Systems/rnas/1j7t

>  <Rbt.Executable>
rbdock ($Id: //depot/dev/client3/rdock/2013.1/src/exe/rbdock.cxx#4 $)

>  <Rbt.Library>
libRbt.so (2013.1, Build901 2013/11/27)

>  <Rbt.Parameter_File>
/export/apps/rDock/src/rDock_2013.1_src/data/scripts/dock_solv.prm

>  <Rbt.Receptor>
prm/blind_docking_100.prm

>  <SCORE>
-5.38234

>  <SCORE.INTER>
-22.8113

>  <SCORE.INTER.CONST>
1

>  <SCORE.INTER.POLAR>
-5.65894

>  <SCORE.INTER.ROT>
9

>  <SCORE.INTER.SOLV>
23.5657

>  <SCORE.INTER.VDW>
-13.7996

>  <SCORE.INTER.norm>
-0.543126

>  <SCORE.INTRA>
-0.634108

>  <SCORE.INTRA.DIHEDRAL>
-18.4567

>  <SCORE.INTRA.DIHEDRAL.0>
46.2143

>  <SCORE.INTRA.POLAR>
0.556598

>  <SCORE.INTRA.POLAR.0>
-1.76436

>  <SCORE.INTRA.REPUL>
0.175204

>  <SCORE.INTRA.REPUL.0>
0

>  <SCORE.INTRA.SOLV>
0.388404

>  <SCORE.INTRA.SOLV.lig_0>
-148.643

>  <SCORE.INTRA.VDW>
5.6316

>  <SCORE.INTRA.VDW.0>
-4.83512

>  <SCORE.INTRA.norm>
-0.0150978

>  <SCORE.RESTR>
18.0631

>  <SCORE.RESTR.CAVITY>
18.0631

>  <SCORE.RESTR.norm>
0.430073

>  <SCORE.SYSTEM>
0

>  <SCORE.SYSTEM.CONST>
0

>  <SCORE.SYSTEM.DIHEDRAL>
0

>  <SCORE.SYSTEM.SOLV>
0

>  <SCORE.SYSTEM.norm>
0

>  <SCORE.heavy>
42

>  <SCORE.norm>
-0.128151

>  <RMSD>
36.351

$$$$
