ligand
 OpenBabel11021811413D
libRbt.so/2013.1/901 2013/11/27
 28 32  0  0  0  0  0  0  0  0999 V2000
   44.4593   26.1446   21.9544 C   0  0  0  0  0  0  0  0  0  0  0  0
   43.0206   26.6022   21.8176 C   0  0  0  0  0  0  0  0  0  0  0  0
   42.2475   26.4200   23.1153 C   0  0  0  0  0  0  0  0  0  0  0  0
   34.1682   25.1777   25.7296 O   0  0  0  0  0  0  0  0  0  0  0  0
   35.2259   25.0866   24.7735 C   0  0  0  0  0  0  0  0  0  0  0  0
   38.7378   25.2466   28.2308 C   0  0  0  0  0  0  0  0  0  0  0  0
   38.2870   26.4849   28.6698 C   0  0  0  0  0  0  0  0  0  0  0  0
   37.2067   27.0937   28.0261 C   0  0  0  0  0  0  0  0  0  0  0  0
   36.5763   26.4676   26.9502 C   0  0  0  0  0  0  0  0  0  0  0  0
   36.4773   24.4568   25.3988 C   0  0  1  0  0  0  0  0  0  0  0  0
   37.0234   25.2295   26.5521 C   0  0  0  0  0  0  0  0  0  0  0  0
   38.0865   24.6366   27.1850 C   0  0  0  0  0  0  0  0  0  0  0  0
   38.5075   23.3674   26.6230 C   0  0  1  0  0  0  0  0  0  0  0  0
   37.3136   21.2242   27.0387 C   0  0  0  0  0  0  0  0  0  0  0  0
   37.3381   22.5090   26.5515 C   0  0  0  0  0  0  0  0  0  0  0  0
   36.2564   23.0584   25.9172 C   0  0  0  0  0  0  0  0  0  0  0  0
   35.0988   22.3121   25.7523 C   0  0  0  0  0  0  0  0  0  0  0  0
   35.0514   21.0122   26.2604 C   0  0  0  0  0  0  0  0  0  0  0  0
   36.1576   20.4731   26.9043 C   0  0  0  0  0  0  0  0  0  0  0  0
   40.8510   27.0162   22.9962 C   0  0  0  0  0  0  0  0  0  0  0  0
   40.1704   27.0563   24.3593 C   0  0  0  0  0  0  0  0  0  0  0  0
   37.6446   26.4923   23.4767 O   0  0  0  0  0  0  0  0  0  0  0  0
   40.9763   24.6641   25.6310 O   0  0  0  0  0  0  0  0  0  0  0  0
   39.8806   24.7748   25.1064 C   0  0  0  0  0  0  0  0  0  0  0  0
   39.4382   25.8079   24.5018 N   0  0  0  0  0  0  0  0  0  0  0  0
   38.2608   25.6527   24.0803 C   0  0  0  0  0  0  0  0  0  0  0  0
   37.6775   24.3323   24.4470 C   0  0  1  0  0  0  0  0  0  0  0  0
   38.8612   23.6943   25.1787 C   0  0  2  0  0  0  0  0  0  0  0  0
  1  2  1  0  0  0  0
  2  3  1  0  0  0  0
  3 20  1  0  0  0  0
  4  5  1  0  0  0  0
  6  7  2  0  0  0  0
  6 12  1  0  0  0  0
  7  8  1  0  0  0  0
  8  9  2  0  0  0  0
  9 11  1  0  0  0  0
 10  5  1  6  0  0  0
 10 11  1  0  0  0  0
 10 16  1  0  0  0  0
 10 27  1  0  0  0  0
 11 12  2  0  0  0  0
 13 12  1  1  0  0  0
 13 15  1  0  0  0  0
 13 28  1  0  0  0  0
 14 15  2  0  0  0  0
 14 19  1  0  0  0  0
 15 16  1  0  0  0  0
 16 17  2  0  0  0  0
 17 18  1  0  0  0  0
 18 19  2  0  0  0  0
 20 21  1  0  0  0  0
 21 25  1  0  0  0  0
 22 26  2  0  0  0  0
 23 24  2  0  0  0  0
 24 25  1  0  0  0  0
 25 26  1  0  0  0  0
 27 26  1  1  0  0  0
 27 28  1  0  0  0  0
 28 24  1  1  0  0  0
M  END
>  <CHROM.1>
174.20996790,-60.39116905,-169.96142101,-91.06114760,96.06415718,38.34368380
24.81191412,25.36377238,-0.43136148,-0.51199543,3.13597520

>  <Name>
ligand

>  <RI>
0

>  <Rbt.Current_Directory>
/home/itssahil/PROJECTS/Mol_Feturizer/New_Systems/rnas/1YLS

>  <Rbt.Executable>
rbdock ($Id: //depot/dev/client3/rdock/2013.1/src/exe/rbdock.cxx#4 $)

>  <Rbt.Library>
libRbt.so (2013.1, Build901 2013/11/27)

>  <Rbt.Parameter_File>
/export/apps/rDock/src/rDock_2013.1_src/data/scripts/dock_solv.prm

>  <Rbt.Receptor>
prm/pocket_docking_3.prm

>  <SCORE>
-36.3638

>  <SCORE.INTER>
-32.9469

>  <SCORE.INTER.CONST>
1

>  <SCORE.INTER.POLAR>
0

>  <SCORE.INTER.ROT>
5

>  <SCORE.INTER.SOLV>
6.20789

>  <SCORE.INTER.VDW>
-30.9672

>  <SCORE.INTER.norm>
-1.17667

>  <SCORE.INTRA>
-3.41693

>  <SCORE.INTRA.DIHEDRAL>
-6.33166

>  <SCORE.INTRA.DIHEDRAL.0>
12.0148

>  <SCORE.INTRA.POLAR>
0

>  <SCORE.INTRA.POLAR.0>
0

>  <SCORE.INTRA.REPUL>
0

>  <SCORE.INTRA.REPUL.0>
0

>  <SCORE.INTRA.SOLV>
0.17308

>  <SCORE.INTRA.SOLV.lig_0>
-10.5235

>  <SCORE.INTRA.VDW>
-0.337641

>  <SCORE.INTRA.VDW.0>
-1.38455

>  <SCORE.INTRA.norm>
-0.122033

>  <SCORE.RESTR>
0

>  <SCORE.RESTR.CAVITY>
0

>  <SCORE.RESTR.norm>
0

>  <SCORE.SYSTEM>
0

>  <SCORE.SYSTEM.CONST>
0

>  <SCORE.SYSTEM.DIHEDRAL>
0

>  <SCORE.SYSTEM.SOLV>
0

>  <SCORE.SYSTEM.norm>
0

>  <SCORE.heavy>
28

>  <SCORE.norm>
-1.29871

>  <RMSD>
0.662

$$$$
ligand
 OpenBabel11021811413D
libRbt.so/2013.1/901 2013/11/27
 28 32  0  0  0  0  0  0  0  0999 V2000
   44.4155   26.1311   21.8841 C   0  0  0  0  0  0  0  0  0  0  0  0
   42.9799   26.6042   21.7702 C   0  0  0  0  0  0  0  0  0  0  0  0
   42.2173   26.4027   23.0712 C   0  0  0  0  0  0  0  0  0  0  0  0
   34.1513   25.0995   25.6864 O   0  0  0  0  0  0  0  0  0  0  0  0
   35.2246   25.0242   24.7465 C   0  0  0  0  0  0  0  0  0  0  0  0
   38.7064   25.2716   28.2291 C   0  0  0  0  0  0  0  0  0  0  0  0
   38.2406   26.5124   28.6447 C   0  0  0  0  0  0  0  0  0  0  0  0
   37.1600   27.1008   27.9827 C   0  0  0  0  0  0  0  0  0  0  0  0
   36.5443   26.4519   26.9118 C   0  0  0  0  0  0  0  0  0  0  0  0
   36.4766   24.4160   25.3918 C   0  0  1  0  0  0  0  0  0  0  0  0
   37.0060   25.2119   26.5371 C   0  0  0  0  0  0  0  0  0  0  0  0
   38.0694   24.6390   27.1879 C   0  0  0  0  0  0  0  0  0  0  0  0
   38.5066   23.3650   26.6496 C   0  0  1  0  0  0  0  0  0  0  0  0
   37.3290   21.2177   27.0896 C   0  0  0  0  0  0  0  0  0  0  0  0
   37.3458   22.4948   26.5822 C   0  0  0  0  0  0  0  0  0  0  0  0
   36.2642   23.0240   25.9306 C   0  0  0  0  0  0  0  0  0  0  0  0
   35.1150   22.2644   25.7683 C   0  0  0  0  0  0  0  0  0  0  0  0
   35.0754   20.9723   26.2966 C   0  0  0  0  0  0  0  0  0  0  0  0
   36.1811   20.4538   26.9578 C   0  0  0  0  0  0  0  0  0  0  0  0
   40.8168   26.9928   22.9691 C   0  0  0  0  0  0  0  0  0  0  0  0
   40.1540   27.0330   24.3410 C   0  0  0  0  0  0  0  0  0  0  0  0
   37.6408   26.4317   23.4471 O   0  0  0  0  0  0  0  0  0  0  0  0
   40.9714   24.6689   25.6570 O   0  0  0  0  0  0  0  0  0  0  0  0
   39.8791   24.7611   25.1219 C   0  0  0  0  0  0  0  0  0  0  0  0
   39.4322   25.7803   24.4974 N   0  0  0  0  0  0  0  0  0  0  0  0
   38.2598   25.6074   24.0689 C   0  0  0  0  0  0  0  0  0  0  0  0
   37.6857   24.2876   24.4518 C   0  0  1  0  0  0  0  0  0  0  0  0
   38.8691   23.6724   25.2031 C   0  0  2  0  0  0  0  0  0  0  0  0
  1  2  1  0  0  0  0
  2  3  1  0  0  0  0
  3 20  1  0  0  0  0
  4  5  1  0  0  0  0
  6  7  2  0  0  0  0
  6 12  1  0  0  0  0
  7  8  1  0  0  0  0
  8  9  2  0  0  0  0
  9 11  1  0  0  0  0
 10  5  1  6  0  0  0
 10 11  1  0  0  0  0
 10 16  1  0  0  0  0
 10 27  1  0  0  0  0
 11 12  2  0  0  0  0
 13 12  1  1  0  0  0
 13 15  1  0  0  0  0
 13 28  1  0  0  0  0
 14 15  2  0  0  0  0
 14 19  1  0  0  0  0
 15 16  1  0  0  0  0
 16 17  2  0  0  0  0
 17 18  1  0  0  0  0
 18 19  2  0  0  0  0
 20 21  1  0  0  0  0
 21 25  1  0  0  0  0
 22 26  2  0  0  0  0
 23 24  2  0  0  0  0
 24 25  1  0  0  0  0
 25 26  1  0  0  0  0
 27 26  1  1  0  0  0
 27 28  1  0  0  0  0
 28 24  1  1  0  0  0
M  END
>  <CHROM.1>
175.17516467,-61.37484687,-169.09418751,-90.90143620,97.48749470,38.33310838
24.78959799,25.35690837,-0.43803379,-0.51841521,3.12794013

>  <Name>
ligand

>  <RI>
0

>  <Rbt.Current_Directory>
/home/itssahil/PROJECTS/Mol_Feturizer/New_Systems/rnas/1YLS

>  <Rbt.Executable>
rbdock ($Id: //depot/dev/client3/rdock/2013.1/src/exe/rbdock.cxx#4 $)

>  <Rbt.Library>
libRbt.so (2013.1, Build901 2013/11/27)

>  <Rbt.Parameter_File>
/export/apps/rDock/src/rDock_2013.1_src/data/scripts/dock_solv.prm

>  <Rbt.Receptor>
prm/pocket_docking_7.prm

>  <SCORE>
-36.3555

>  <SCORE.INTER>
-32.9736

>  <SCORE.INTER.CONST>
1

>  <SCORE.INTER.POLAR>
0

>  <SCORE.INTER.ROT>
5

>  <SCORE.INTER.SOLV>
6.2851

>  <SCORE.INTER.VDW>
-31.0108

>  <SCORE.INTER.norm>
-1.17763

>  <SCORE.INTRA>
-3.38184

>  <SCORE.INTRA.DIHEDRAL>
-6.31903

>  <SCORE.INTRA.DIHEDRAL.0>
12.0148

>  <SCORE.INTRA.POLAR>
0

>  <SCORE.INTRA.POLAR.0>
0

>  <SCORE.INTRA.REPUL>
0

>  <SCORE.INTRA.REPUL.0>
0

>  <SCORE.INTRA.SOLV>
0.170388

>  <SCORE.INTRA.SOLV.lig_0>
-10.5235

>  <SCORE.INTRA.VDW>
-0.307516

>  <SCORE.INTRA.VDW.0>
-1.38455

>  <SCORE.INTRA.norm>
-0.12078

>  <SCORE.RESTR>
0

>  <SCORE.RESTR.CAVITY>
0

>  <SCORE.RESTR.norm>
0

>  <SCORE.SYSTEM>
0

>  <SCORE.SYSTEM.CONST>
0

>  <SCORE.SYSTEM.DIHEDRAL>
0

>  <SCORE.SYSTEM.SOLV>
0

>  <SCORE.SYSTEM.norm>
0

>  <SCORE.heavy>
28

>  <SCORE.norm>
-1.29841

>  <RMSD>
0.687

$$$$
ligand
 OpenBabel11021811413D
libRbt.so/2013.1/901 2013/11/27
 28 32  0  0  0  0  0  0  0  0999 V2000
   44.2725   26.2729   21.8006 C   0  0  0  0  0  0  0  0  0  0  0  0
   42.8058   26.6533   21.7561 C   0  0  0  0  0  0  0  0  0  0  0  0
   42.1143   26.3803   23.0836 C   0  0  0  0  0  0  0  0  0  0  0  0
   34.1198   24.7806   25.9180 O   0  0  0  0  0  0  0  0  0  0  0  0
   35.1452   24.7289   24.9246 C   0  0  0  0  0  0  0  0  0  0  0  0
   38.7596   24.8381   28.2767 C   0  0  0  0  0  0  0  0  0  0  0  0
   38.3025   26.0536   28.7695 C   0  0  0  0  0  0  0  0  0  0  0  0
   37.1929   26.6641   28.1793 C   0  0  0  0  0  0  0  0  0  0  0  0
   36.5397   26.0622   27.1031 C   0  0  0  0  0  0  0  0  0  0  0  0
   36.4255   24.1010   25.4905 C   0  0  1  0  0  0  0  0  0  0  0  0
   36.9944   24.8454   26.6513 C   0  0  0  0  0  0  0  0  0  0  0  0
   38.0862   24.2509   27.2318 C   0  0  0  0  0  0  0  0  0  0  0  0
   38.5101   23.0079   26.6160 C   0  0  1  0  0  0  0  0  0  0  0  0
   37.3647   20.8322   26.9975 C   0  0  0  0  0  0  0  0  0  0  0  0
   37.3532   22.1322   26.5520 C   0  0  0  0  0  0  0  0  0  0  0  0
   36.2435   22.6830   25.9694 C   0  0  0  0  0  0  0  0  0  0  0  0
   35.0937   21.9225   25.8155 C   0  0  0  0  0  0  0  0  0  0  0  0
   35.0833   20.6062   26.2819 C   0  0  0  0  0  0  0  0  0  0  0  0
   36.2175   20.0660   26.8738 C   0  0  0  0  0  0  0  0  0  0  0  0
   40.6579   26.8232   23.0309 C   0  0  0  0  0  0  0  0  0  0  0  0
   40.0418   26.7960   24.4247 C   0  0  0  0  0  0  0  0  0  0  0  0
   37.4993   26.2173   23.6014 O   0  0  0  0  0  0  0  0  0  0  0  0
   40.9256   24.3784   25.5922 O   0  0  0  0  0  0  0  0  0  0  0  0
   39.8125   24.4870   25.1051 C   0  0  0  0  0  0  0  0  0  0  0  0
   39.3348   25.5313   24.5485 N   0  0  0  0  0  0  0  0  0  0  0  0
   38.1476   25.3694   24.1581 C   0  0  0  0  0  0  0  0  0  0  0  0
   37.5975   24.0280   24.4990 C   0  0  1  0  0  0  0  0  0  0  0  0
   38.8135   23.3873   25.1731 C   0  0  2  0  0  0  0  0  0  0  0  0
  1  2  1  0  0  0  0
  2  3  1  0  0  0  0
  3 20  1  0  0  0  0
  4  5  1  0  0  0  0
  6  7  2  0  0  0  0
  6 12  1  0  0  0  0
  7  8  1  0  0  0  0
  8  9  2  0  0  0  0
  9 11  1  0  0  0  0
 10  5  1  6  0  0  0
 10 11  1  0  0  0  0
 10 16  1  0  0  0  0
 10 27  1  0  0  0  0
 11 12  2  0  0  0  0
 13 12  1  1  0  0  0
 13 15  1  0  0  0  0
 13 28  1  0  0  0  0
 14 15  2  0  0  0  0
 14 19  1  0  0  0  0
 15 16  1  0  0  0  0
 16 17  2  0  0  0  0
 17 18  1  0  0  0  0
 18 19  2  0  0  0  0
 20 21  1  0  0  0  0
 21 25  1  0  0  0  0
 22 26  2  0  0  0  0
 23 24  2  0  0  0  0
 24 25  1  0  0  0  0
 25 26  1  0  0  0  0
 27 26  1  1  0  0  0
 27 28  1  0  0  0  0
 28 24  1  1  0  0  0
M  END
>  <CHROM.1>
177.68540787,-59.92755084,-169.31528223,-96.89374023,97.12900414,38.28377622
24.51221117,25.40592834,-0.46784646,-0.54518831,-3.12920776

>  <Name>
ligand

>  <RI>
0

>  <Rbt.Current_Directory>
/home/itssahil/PROJECTS/Mol_Feturizer/New_Systems/rnas/1YLS

>  <Rbt.Executable>
rbdock ($Id: //depot/dev/client3/rdock/2013.1/src/exe/rbdock.cxx#4 $)

>  <Rbt.Library>
libRbt.so (2013.1, Build901 2013/11/27)

>  <Rbt.Parameter_File>
/export/apps/rDock/src/rDock_2013.1_src/data/scripts/dock_solv.prm

>  <Rbt.Receptor>
prm/pocket_docking_8.prm

>  <SCORE>
-36.0755

>  <SCORE.INTER>
-33.0529

>  <SCORE.INTER.CONST>
1

>  <SCORE.INTER.POLAR>
0

>  <SCORE.INTER.ROT>
5

>  <SCORE.INTER.SOLV>
6.64975

>  <SCORE.INTER.VDW>
-31.1852

>  <SCORE.INTER.norm>
-1.18046

>  <SCORE.INTRA>
-3.02267

>  <SCORE.INTRA.DIHEDRAL>
-5.56961

>  <SCORE.INTRA.DIHEDRAL.0>
12.0148

>  <SCORE.INTRA.POLAR>
0

>  <SCORE.INTRA.POLAR.0>
0

>  <SCORE.INTRA.REPUL>
0

>  <SCORE.INTRA.REPUL.0>
0

>  <SCORE.INTRA.SOLV>
0.149293

>  <SCORE.INTRA.SOLV.lig_0>
-10.5235

>  <SCORE.INTRA.VDW>
-0.312514

>  <SCORE.INTRA.VDW.0>
-1.38455

>  <SCORE.INTRA.norm>
-0.107953

>  <SCORE.RESTR>
0

>  <SCORE.RESTR.CAVITY>
0

>  <SCORE.RESTR.norm>
0

>  <SCORE.SYSTEM>
0

>  <SCORE.SYSTEM.CONST>
0

>  <SCORE.SYSTEM.DIHEDRAL>
0

>  <SCORE.SYSTEM.SOLV>
0

>  <SCORE.SYSTEM.norm>
0

>  <SCORE.heavy>
28

>  <SCORE.norm>
-1.28841

>  <RMSD>
0.701

$$$$
ligand
 OpenBabel11021811413D
libRbt.so/2013.1/901 2013/11/27
 28 32  0  0  0  0  0  0  0  0999 V2000
   44.4541   26.0945   21.9968 C   0  0  0  0  0  0  0  0  0  0  0  0
   43.0279   26.5799   21.8288 C   0  0  0  0  0  0  0  0  0  0  0  0
   42.2121   26.3754   23.0967 C   0  0  0  0  0  0  0  0  0  0  0  0
   34.1385   25.1542   25.6133 O   0  0  0  0  0  0  0  0  0  0  0  0
   35.2104   25.0409   24.6756 C   0  0  0  0  0  0  0  0  0  0  0  0
   38.6528   25.3287   28.1941 C   0  0  0  0  0  0  0  0  0  0  0  0
   38.1770   26.5703   28.5957 C   0  0  0  0  0  0  0  0  0  0  0  0
   37.1011   27.1491   27.9178 C   0  0  0  0  0  0  0  0  0  0  0  0
   36.5000   26.4899   26.8449 C   0  0  0  0  0  0  0  0  0  0  0  0
   36.4580   24.4430   25.3388 C   0  0  1  0  0  0  0  0  0  0  0  0
   36.9713   25.2493   26.4841 C   0  0  0  0  0  0  0  0  0  0  0  0
   38.0300   24.6859   27.1505 C   0  0  0  0  0  0  0  0  0  0  0  0
   38.4788   23.4101   26.6260 C   0  0  1  0  0  0  0  0  0  0  0  0
   37.3061   21.2607   27.0685 C   0  0  0  0  0  0  0  0  0  0  0  0
   37.3227   22.5342   26.5522 C   0  0  0  0  0  0  0  0  0  0  0  0
   36.2460   23.0538   25.8852 C   0  0  0  0  0  0  0  0  0  0  0  0
   35.1019   22.2880   25.7157 C   0  0  0  0  0  0  0  0  0  0  0  0
   35.0624   20.9994   26.2527 C   0  0  0  0  0  0  0  0  0  0  0  0
   36.1631   20.4907   26.9296 C   0  0  0  0  0  0  0  0  0  0  0  0
   40.8350   27.0110   22.9569 C   0  0  0  0  0  0  0  0  0  0  0  0
   40.1350   27.0692   24.3096 C   0  0  0  0  0  0  0  0  0  0  0  0
   37.6344   26.4501   23.3926 O   0  0  0  0  0  0  0  0  0  0  0  0
   40.9485   24.7182   25.6511 O   0  0  0  0  0  0  0  0  0  0  0  0
   39.8617   24.8016   25.1035 C   0  0  0  0  0  0  0  0  0  0  0  0
   39.4171   25.8143   24.4670 N   0  0  0  0  0  0  0  0  0  0  0  0
   38.2502   25.6331   24.0269 C   0  0  0  0  0  0  0  0  0  0  0  0
   37.6778   24.3135   24.4130 C   0  0  1  0  0  0  0  0  0  0  0  0
   38.8557   23.7089   25.1815 C   0  0  2  0  0  0  0  0  0  0  0  0
  1  2  1  0  0  0  0
  2  3  1  0  0  0  0
  3 20  1  0  0  0  0
  4  5  1  0  0  0  0
  6  7  2  0  0  0  0
  6 12  1  0  0  0  0
  7  8  1  0  0  0  0
  8  9  2  0  0  0  0
  9 11  1  0  0  0  0
 10  5  1  6  0  0  0
 10 11  1  0  0  0  0
 10 16  1  0  0  0  0
 10 27  1  0  0  0  0
 11 12  2  0  0  0  0
 13 12  1  1  0  0  0
 13 15  1  0  0  0  0
 13 28  1  0  0  0  0
 14 15  2  0  0  0  0
 14 19  1  0  0  0  0
 15 16  1  0  0  0  0
 16 17  2  0  0  0  0
 17 18  1  0  0  0  0
 18 19  2  0  0  0  0
 20 21  1  0  0  0  0
 21 25  1  0  0  0  0
 22 26  2  0  0  0  0
 23 24  2  0  0  0  0
 24 25  1  0  0  0  0
 25 26  1  0  0  0  0
 27 26  1  1  0  0  0
 27 28  1  0  0  0  0
 28 24  1  1  0  0  0
M  END
>  <CHROM.1>
173.60905102,-59.68131006,-167.94876100,-88.39706436,96.41170246,38.31689549
24.81827691,25.32939013,-0.44190735,-0.49657422,3.10854455

>  <Name>
ligand

>  <RI>
0

>  <Rbt.Current_Directory>
/home/itssahil/PROJECTS/Mol_Feturizer/New_Systems/rnas/1YLS

>  <Rbt.Executable>
rbdock ($Id: //depot/dev/client3/rdock/2013.1/src/exe/rbdock.cxx#4 $)

>  <Rbt.Library>
libRbt.so (2013.1, Build901 2013/11/27)

>  <Rbt.Parameter_File>
/export/apps/rDock/src/rDock_2013.1_src/data/scripts/dock_solv.prm

>  <Rbt.Receptor>
prm/pocket_docking_6.prm

>  <SCORE>
-36.263

>  <SCORE.INTER>
-32.7762

>  <SCORE.INTER.CONST>
1

>  <SCORE.INTER.POLAR>
0

>  <SCORE.INTER.ROT>
5

>  <SCORE.INTER.SOLV>
6.26529

>  <SCORE.INTER.VDW>
-30.8726

>  <SCORE.INTER.norm>
-1.17058

>  <SCORE.INTRA>
-3.48681

>  <SCORE.INTRA.DIHEDRAL>
-6.50627

>  <SCORE.INTRA.DIHEDRAL.0>
12.0148

>  <SCORE.INTRA.POLAR>
0

>  <SCORE.INTRA.POLAR.0>
0

>  <SCORE.INTRA.REPUL>
0

>  <SCORE.INTRA.REPUL.0>
0

>  <SCORE.INTRA.SOLV>
0.183385

>  <SCORE.INTRA.SOLV.lig_0>
-10.5235

>  <SCORE.INTRA.VDW>
-0.32537

>  <SCORE.INTRA.VDW.0>
-1.38455

>  <SCORE.INTRA.norm>
-0.124529

>  <SCORE.RESTR>
0

>  <SCORE.RESTR.CAVITY>
0

>  <SCORE.RESTR.norm>
0

>  <SCORE.SYSTEM>
0

>  <SCORE.SYSTEM.CONST>
0

>  <SCORE.SYSTEM.DIHEDRAL>
0

>  <SCORE.SYSTEM.SOLV>
0

>  <SCORE.SYSTEM.norm>
0

>  <SCORE.heavy>
28

>  <SCORE.norm>
-1.29511

>  <RMSD>
0.713

$$$$
ligand
 OpenBabel11021811413D
libRbt.so/2013.1/901 2013/11/27
 28 32  0  0  0  0  0  0  0  0999 V2000
   43.9640   27.5909   22.1123 C   0  0  0  0  0  0  0  0  0  0  0  0
   43.2894   26.2348   22.1758 C   0  0  0  0  0  0  0  0  0  0  0  0
   42.3074   26.1499   23.3348 C   0  0  0  0  0  0  0  0  0  0  0  0
   34.2032   25.0251   25.3939 O   0  0  0  0  0  0  0  0  0  0  0  0
   35.3491   24.9661   24.5426 C   0  0  0  0  0  0  0  0  0  0  0  0
   38.5804   25.5940   28.2136 C   0  0  0  0  0  0  0  0  0  0  0  0
   38.0452   26.8416   28.5075 C   0  0  0  0  0  0  0  0  0  0  0  0
   36.9914   27.3391   27.7368 C   0  0  0  0  0  0  0  0  0  0  0  0
   36.4712   26.5930   26.6786 C   0  0  0  0  0  0  0  0  0  0  0  0
   36.5756   24.4545   25.3090 C   0  0  1  0  0  0  0  0  0  0  0  0
   36.9996   25.3489   26.4251 C   0  0  0  0  0  0  0  0  0  0  0  0
   38.0365   24.8654   27.1824 C   0  0  0  0  0  0  0  0  0  0  0  0
   38.5526   23.5750   26.7669 C   0  0  1  0  0  0  0  0  0  0  0  0
   37.4236   21.4191   27.2853 C   0  0  0  0  0  0  0  0  0  0  0  0
   37.4298   22.6571   26.6888 C   0  0  0  0  0  0  0  0  0  0  0  0
   36.3763   23.0963   25.9327 C   0  0  0  0  0  0  0  0  0  0  0  0
   35.2675   22.2826   25.7526 C   0  0  0  0  0  0  0  0  0  0  0  0
   35.2377   21.0301   26.3696 C   0  0  0  0  0  0  0  0  0  0  0  0
   36.3142   20.6033   27.1361 C   0  0  0  0  0  0  0  0  0  0  0  0
   41.0659   26.9845   23.0484 C   0  0  0  0  0  0  0  0  0  0  0  0
   40.2219   27.1342   24.3086 C   0  0  0  0  0  0  0  0  0  0  0  0
   37.7962   26.3731   23.3017 O   0  0  0  0  0  0  0  0  0  0  0  0
   41.0313   24.9022   25.8422 O   0  0  0  0  0  0  0  0  0  0  0  0
   39.9746   24.9135   25.2330 C   0  0  0  0  0  0  0  0  0  0  0  0
   39.5351   25.8681   24.5090 N   0  0  0  0  0  0  0  0  0  0  0  0
   38.4006   25.6195   24.0200 C   0  0  0  0  0  0  0  0  0  0  0  0
   37.8484   24.3083   24.4601 C   0  0  1  0  0  0  0  0  0  0  0  0
   38.9998   23.7942   25.3282 C   0  0  2  0  0  0  0  0  0  0  0  0
  1  2  1  0  0  0  0
  2  3  1  0  0  0  0
  3 20  1  0  0  0  0
  4  5  1  0  0  0  0
  6  7  2  0  0  0  0
  6 12  1  0  0  0  0
  7  8  1  0  0  0  0
  8  9  2  0  0  0  0
  9 11  1  0  0  0  0
 10  5  1  6  0  0  0
 10 11  1  0  0  0  0
 10 16  1  0  0  0  0
 10 27  1  0  0  0  0
 11 12  2  0  0  0  0
 13 12  1  6  0  0  0
 13 15  1  0  0  0  0
 13 28  1  0  0  0  0
 14 15  2  0  0  0  0
 14 19  1  0  0  0  0
 15 16  1  0  0  0  0
 16 17  2  0  0  0  0
 17 18  1  0  0  0  0
 18 19  2  0  0  0  0
 20 21  1  0  0  0  0
 21 25  1  0  0  0  0
 22 26  2  0  0  0  0
 23 24  2  0  0  0  0
 24 25  1  0  0  0  0
 25 26  1  0  0  0  0
 27 26  1  1  0  0  0
 27 28  1  0  0  0  0
 28 24  1  1  0  0  0
M  END
>  <CHROM.1>
72.23904133,-63.18896340,-168.30911729,-75.83523733,92.95378384,38.38990732
24.92131874,25.37664642,-0.51033571,-0.46305369,3.06159439

>  <Name>
ligand

>  <RI>
0

>  <Rbt.Current_Directory>
/home/itssahil/PROJECTS/Mol_Feturizer/New_Systems/rnas/1YLS

>  <Rbt.Executable>
rbdock ($Id: //depot/dev/client3/rdock/2013.1/src/exe/rbdock.cxx#4 $)

>  <Rbt.Library>
libRbt.so (2013.1, Build901 2013/11/27)

>  <Rbt.Parameter_File>
/export/apps/rDock/src/rDock_2013.1_src/data/scripts/dock_solv.prm

>  <Rbt.Receptor>
prm/pocket_docking_3.prm

>  <SCORE>
-34.893

>  <SCORE.INTER>
-31.8821

>  <SCORE.INTER.CONST>
1

>  <SCORE.INTER.POLAR>
0

>  <SCORE.INTER.ROT>
5

>  <SCORE.INTER.SOLV>
5.72527

>  <SCORE.INTER.VDW>
-30.0965

>  <SCORE.INTER.norm>
-1.13865

>  <SCORE.INTRA>
-3.01088

>  <SCORE.INTRA.DIHEDRAL>
-7.72131

>  <SCORE.INTRA.DIHEDRAL.0>
12.0148

>  <SCORE.INTRA.POLAR>
0

>  <SCORE.INTRA.POLAR.0>
0

>  <SCORE.INTRA.REPUL>
0

>  <SCORE.INTRA.REPUL.0>
0

>  <SCORE.INTRA.SOLV>
0.243853

>  <SCORE.INTRA.SOLV.lig_0>
-10.5235

>  <SCORE.INTRA.VDW>
0.727855

>  <SCORE.INTRA.VDW.0>
-1.38455

>  <SCORE.INTRA.norm>
-0.107531

>  <SCORE.RESTR>
0

>  <SCORE.RESTR.CAVITY>
0

>  <SCORE.RESTR.norm>
0

>  <SCORE.SYSTEM>
0

>  <SCORE.SYSTEM.CONST>
0

>  <SCORE.SYSTEM.DIHEDRAL>
0

>  <SCORE.SYSTEM.SOLV>
0

>  <SCORE.SYSTEM.norm>
0

>  <SCORE.heavy>
28

>  <SCORE.norm>
-1.24618

>  <RMSD>
0.746

$$$$
ligand
 OpenBabel11021811413D
libRbt.so/2013.1/901 2013/11/27
 28 32  0  0  0  0  0  0  0  0999 V2000
   44.0813   27.6340   22.1958 C   0  0  0  0  0  0  0  0  0  0  0  0
   43.1308   26.5011   21.8626 C   0  0  0  0  0  0  0  0  0  0  0  0
   41.7335   26.7625   22.4049 C   0  0  0  0  0  0  0  0  0  0  0  0
   34.2151   25.2185   25.2905 O   0  0  0  0  0  0  0  0  0  0  0  0
   35.3814   25.1069   24.4730 C   0  0  0  0  0  0  0  0  0  0  0  0
   38.4996   25.4953   28.2728 C   0  0  0  0  0  0  0  0  0  0  0  0
   38.0101   26.7583   28.5803 C   0  0  0  0  0  0  0  0  0  0  0  0
   37.0087   27.3223   27.7859 C   0  0  0  0  0  0  0  0  0  0  0  0
   36.4953   26.6273   26.6903 C   0  0  0  0  0  0  0  0  0  0  0  0
   36.5547   24.5210   25.2690 C   0  0  1  0  0  0  0  0  0  0  0  0
   36.9767   25.3671   26.4229 C   0  0  0  0  0  0  0  0  0  0  0  0
   37.9622   24.8181   27.2038 C   0  0  0  0  0  0  0  0  0  0  0  0
   38.4352   23.5163   26.7730 C   0  0  1  0  0  0  0  0  0  0  0  0
   37.1927   21.4019   27.1932 C   0  0  0  0  0  0  0  0  0  0  0  0
   37.2762   22.6528   26.6303 C   0  0  0  0  0  0  0  0  0  0  0  0
   36.2721   23.1582   25.8489 C   0  0  0  0  0  0  0  0  0  0  0  0
   35.1355   22.4006   25.6077 C   0  0  0  0  0  0  0  0  0  0  0  0
   35.0270   21.1358   26.1898 C   0  0  0  0  0  0  0  0  0  0  0  0
   36.0543   20.6414   26.9828 C   0  0  0  0  0  0  0  0  0  0  0  0
   41.7243   26.6812   23.9258 C   0  0  0  0  0  0  0  0  0  0  0  0
   40.3514   27.0559   24.4714 C   0  0  0  0  0  0  0  0  0  0  0  0
   37.9331   26.4314   23.3584 O   0  0  0  0  0  0  0  0  0  0  0  0
   41.0032   24.7518   25.9732 O   0  0  0  0  0  0  0  0  0  0  0  0
   39.9713   24.8264   25.3270 C   0  0  0  0  0  0  0  0  0  0  0  0
   39.6019   25.8177   24.6133 N   0  0  0  0  0  0  0  0  0  0  0  0
   38.4763   25.6334   24.0776 C   0  0  0  0  0  0  0  0  0  0  0  0
   37.8502   24.3381   24.4627 C   0  0  1  0  0  0  0  0  0  0  0  0
   38.9446   23.7507   25.3575 C   0  0  2  0  0  0  0  0  0  0  0  0
  1  2  1  0  0  0  0
  2  3  1  0  0  0  0
  3 20  1  0  0  0  0
  4  5  1  0  0  0  0
  6  7  2  0  0  0  0
  6 12  1  0  0  0  0
  7  8  1  0  0  0  0
  8  9  2  0  0  0  0
  9 11  1  0  0  0  0
 10  5  1  6  0  0  0
 10 11  1  0  0  0  0
 10 16  1  0  0  0  0
 10 27  1  0  0  0  0
 11 12  2  0  0  0  0
 13 12  1  6  0  0  0
 13 15  1  0  0  0  0
 13 28  1  0  0  0  0
 14 15  2  0  0  0  0
 14 19  1  0  0  0  0
 15 16  1  0  0  0  0
 16 17  2  0  0  0  0
 17 18  1  0  0  0  0
 18 19  2  0  0  0  0
 20 21  1  0  0  0  0
 21 25  1  0  0  0  0
 22 26  2  0  0  0  0
 23 24  2  0  0  0  0
 24 25  1  0  0  0  0
 25 26  1  0  0  0  0
 27 26  1  1  0  0  0
 27 28  1  0  0  0  0
 28 24  1  1  0  0  0
M  END
>  <CHROM.1>
-69.42049588,-62.17869026,175.34615021,92.85671850,58.17380024,38.36011737
24.95077625,25.36593212,-0.42870688,-0.53472281,-3.04510226

>  <Name>
ligand

>  <RI>
0

>  <Rbt.Current_Directory>
/home/itssahil/PROJECTS/Mol_Feturizer/New_Systems/rnas/1YLS

>  <Rbt.Executable>
rbdock ($Id: //depot/dev/client3/rdock/2013.1/src/exe/rbdock.cxx#4 $)

>  <Rbt.Library>
libRbt.so (2013.1, Build901 2013/11/27)

>  <Rbt.Parameter_File>
/export/apps/rDock/src/rDock_2013.1_src/data/scripts/dock_solv.prm

>  <Rbt.Receptor>
prm/pocket_docking_2.prm

>  <SCORE>
-33.6632

>  <SCORE.INTER>
-32.1992

>  <SCORE.INTER.CONST>
1

>  <SCORE.INTER.POLAR>
0

>  <SCORE.INTER.ROT>
5

>  <SCORE.INTER.SOLV>
5.90096

>  <SCORE.INTER.VDW>
-30.3664

>  <SCORE.INTER.norm>
-1.14997

>  <SCORE.INTRA>
-1.46549

>  <SCORE.INTRA.DIHEDRAL>
-5.94637

>  <SCORE.INTRA.DIHEDRAL.0>
12.0148

>  <SCORE.INTRA.POLAR>
0

>  <SCORE.INTRA.POLAR.0>
0

>  <SCORE.INTRA.REPUL>
0

>  <SCORE.INTRA.REPUL.0>
0

>  <SCORE.INTRA.SOLV>
0.148039

>  <SCORE.INTRA.SOLV.lig_0>
-10.5235

>  <SCORE.INTRA.VDW>
1.43368

>  <SCORE.INTRA.VDW.0>
-1.38455

>  <SCORE.INTRA.norm>
-0.0523389

>  <SCORE.RESTR>
0.00144065

>  <SCORE.RESTR.CAVITY>
0.00144065

>  <SCORE.RESTR.norm>
5.14518e-05

>  <SCORE.SYSTEM>
0

>  <SCORE.SYSTEM.CONST>
0

>  <SCORE.SYSTEM.DIHEDRAL>
0

>  <SCORE.SYSTEM.SOLV>
0

>  <SCORE.SYSTEM.norm>
0

>  <SCORE.heavy>
28

>  <SCORE.norm>
-1.20226

>  <RMSD>
0.754

$$$$
ligand
 OpenBabel11021811413D
libRbt.so/2013.1/901 2013/11/27
 28 32  0  0  0  0  0  0  0  0999 V2000
   44.5425   26.1232   22.0807 C   0  0  0  0  0  0  0  0  0  0  0  0
   43.1166   26.5941   21.8735 C   0  0  0  0  0  0  0  0  0  0  0  0
   42.2985   26.4871   23.1519 C   0  0  0  0  0  0  0  0  0  0  0  0
   34.1988   24.9265   25.5053 O   0  0  0  0  0  0  0  0  0  0  0  0
   35.2999   24.8299   24.6001 C   0  0  0  0  0  0  0  0  0  0  0  0
   38.6358   25.4561   28.1767 C   0  0  0  0  0  0  0  0  0  0  0  0
   38.0902   26.6900   28.5067 C   0  0  0  0  0  0  0  0  0  0  0  0
   37.0044   27.1815   27.7775 C   0  0  0  0  0  0  0  0  0  0  0  0
   36.4630   26.4429   26.7248 C   0  0  0  0  0  0  0  0  0  0  0  0
   36.5583   24.3273   25.3194 C   0  0  1  0  0  0  0  0  0  0  0  0
   37.0031   25.2117   26.4354 C   0  0  0  0  0  0  0  0  0  0  0  0
   38.0713   24.7342   27.1519 C   0  0  0  0  0  0  0  0  0  0  0  0
   38.5946   23.4590   26.7004 C   0  0  1  0  0  0  0  0  0  0  0  0
   37.5177   21.2770   27.2205 C   0  0  0  0  0  0  0  0  0  0  0  0
   37.4849   22.5238   26.6434 C   0  0  0  0  0  0  0  0  0  0  0  0
   36.4010   22.9567   25.9278 C   0  0  0  0  0  0  0  0  0  0  0  0
   35.3003   22.1274   25.7702 C   0  0  0  0  0  0  0  0  0  0  0  0
   35.3104   20.8655   26.3683 C   0  0  0  0  0  0  0  0  0  0  0  0
   36.4175   20.4451   27.0936 C   0  0  0  0  0  0  0  0  0  0  0  0
   40.8783   26.9881   22.9235 C   0  0  0  0  0  0  0  0  0  0  0  0
   40.1271   27.0821   24.2463 C   0  0  0  0  0  0  0  0  0  0  0  0
   37.6832   26.2960   23.3047 O   0  0  0  0  0  0  0  0  0  0  0  0
   41.0209   24.8410   25.7186 O   0  0  0  0  0  0  0  0  0  0  0  0
   39.9453   24.8439   25.1433 C   0  0  0  0  0  0  0  0  0  0  0  0
   39.4676   25.8018   24.4485 N   0  0  0  0  0  0  0  0  0  0  0  0
   38.3223   25.5418   23.9917 C   0  0  0  0  0  0  0  0  0  0  0  0
   37.8056   24.2150   24.4286 C   0  0  1  0  0  0  0  0  0  0  0  0
   38.9922   23.7073   25.2518 C   0  0  2  0  0  0  0  0  0  0  0  0
  1  2  1  0  0  0  0
  2  3  1  0  0  0  0
  3 20  1  0  0  0  0
  4  5  1  0  0  0  0
  6  7  2  0  0  0  0
  6 12  1  0  0  0  0
  7  8  1  0  0  0  0
  8  9  2  0  0  0  0
  9 11  1  0  0  0  0
 10  5  1  6  0  0  0
 10 11  1  0  0  0  0
 10 16  1  0  0  0  0
 10 27  1  0  0  0  0
 11 12  2  0  0  0  0
 13 12  1  6  0  0  0
 13 15  1  0  0  0  0
 13 28  1  0  0  0  0
 14 15  2  0  0  0  0
 14 19  1  0  0  0  0
 15 16  1  0  0  0  0
 16 17  2  0  0  0  0
 17 18  1  0  0  0  0
 18 19  2  0  0  0  0
 20 21  1  0  0  0  0
 21 25  1  0  0  0  0
 22 26  2  0  0  0  0
 23 24  2  0  0  0  0
 24 25  1  0  0  0  0
 25 26  1  0  0  0  0
 27 26  1  1  0  0  0
 27 28  1  0  0  0  0
 28 24  1  1  0  0  0
M  END
>  <CHROM.1>
179.02443544,-60.01716677,-171.29646169,-90.70329667,95.63929232,38.39868884
24.79063348,25.33570636,-0.49133708,-0.46870572,3.03808565

>  <Name>
ligand

>  <RI>
0

>  <Rbt.Current_Directory>
/home/itssahil/PROJECTS/Mol_Feturizer/New_Systems/rnas/1YLS

>  <Rbt.Executable>
rbdock ($Id: //depot/dev/client3/rdock/2013.1/src/exe/rbdock.cxx#4 $)

>  <Rbt.Library>
libRbt.so (2013.1, Build901 2013/11/27)

>  <Rbt.Parameter_File>
/export/apps/rDock/src/rDock_2013.1_src/data/scripts/dock_solv.prm

>  <Rbt.Receptor>
prm/pocket_docking_2.prm

>  <SCORE>
-36.0558

>  <SCORE.INTER>
-32.4939

>  <SCORE.INTER.CONST>
1

>  <SCORE.INTER.POLAR>
0

>  <SCORE.INTER.ROT>
5

>  <SCORE.INTER.SOLV>
6.10902

>  <SCORE.INTER.VDW>
-30.6323

>  <SCORE.INTER.norm>
-1.1605

>  <SCORE.INTRA>
-3.5619

>  <SCORE.INTRA.DIHEDRAL>
-6.61954

>  <SCORE.INTRA.DIHEDRAL.0>
12.0148

>  <SCORE.INTRA.POLAR>
0

>  <SCORE.INTRA.POLAR.0>
0

>  <SCORE.INTRA.REPUL>
0

>  <SCORE.INTRA.REPUL.0>
0

>  <SCORE.INTRA.SOLV>
0.176358

>  <SCORE.INTRA.SOLV.lig_0>
-10.5235

>  <SCORE.INTRA.VDW>
-0.340312

>  <SCORE.INTRA.VDW.0>
-1.38455

>  <SCORE.INTRA.norm>
-0.127211

>  <SCORE.RESTR>
0

>  <SCORE.RESTR.CAVITY>
0

>  <SCORE.RESTR.norm>
0

>  <SCORE.SYSTEM>
0

>  <SCORE.SYSTEM.CONST>
0

>  <SCORE.SYSTEM.DIHEDRAL>
0

>  <SCORE.SYSTEM.SOLV>
0

>  <SCORE.SYSTEM.norm>
0

>  <SCORE.heavy>
28

>  <SCORE.norm>
-1.28771

>  <RMSD>
0.756

$$$$
ligand
 OpenBabel11021811413D
libRbt.so/2013.1/901 2013/11/27
 28 32  0  0  0  0  0  0  0  0999 V2000
   44.2654   26.4652   22.0501 C   0  0  0  0  0  0  0  0  0  0  0  0
   42.8949   26.1854   22.6343 C   0  0  0  0  0  0  0  0  0  0  0  0
   42.0600   27.4530   22.7400 C   0  0  0  0  0  0  0  0  0  0  0  0
   34.5622   24.4869   23.9090 O   0  0  0  0  0  0  0  0  0  0  0  0
   35.2039   25.2931   24.8986 C   0  0  0  0  0  0  0  0  0  0  0  0
   38.8022   25.1685   28.2675 C   0  0  0  0  0  0  0  0  0  0  0  0
   38.4378   26.4219   28.7425 C   0  0  0  0  0  0  0  0  0  0  0  0
   37.3807   27.1079   28.1389 C   0  0  0  0  0  0  0  0  0  0  0  0
   36.6877   26.5438   27.0672 C   0  0  0  0  0  0  0  0  0  0  0  0
   36.4299   24.5763   25.4790 C   0  0  1  0  0  0  0  0  0  0  0  0
   37.0495   25.2899   26.6332 C   0  0  0  0  0  0  0  0  0  0  0  0
   38.0900   24.6211   27.2267 C   0  0  0  0  0  0  0  0  0  0  0  0
   38.4198   23.3413   26.6290 C   0  0  1  0  0  0  0  0  0  0  0  0
   37.1092   21.2650   27.0323 C   0  0  0  0  0  0  0  0  0  0  0  0
   37.1994   22.5561   26.5702 C   0  0  0  0  0  0  0  0  0  0  0  0
   36.1376   23.1828   25.9750 C   0  0  0  0  0  0  0  0  0  0  0  0
   34.9334   22.5108   25.8249 C   0  0  0  0  0  0  0  0  0  0  0  0
   34.8201   21.2054   26.3080 C   0  0  0  0  0  0  0  0  0  0  0  0
   35.9070   20.5875   26.9125 C   0  0  0  0  0  0  0  0  0  0  0  0
   40.5864   27.1115   22.9183 C   0  0  0  0  0  0  0  0  0  0  0  0
   40.2468   26.9718   24.3975 C   0  0  0  0  0  0  0  0  0  0  0  0
   37.6707   26.5790   23.5687 O   0  0  0  0  0  0  0  0  0  0  0  0
   40.9375   24.5090   25.6002 O   0  0  0  0  0  0  0  0  0  0  0  0
   39.8381   24.6963   25.1060 C   0  0  0  0  0  0  0  0  0  0  0  0
   39.4442   25.7667   24.5337 N   0  0  0  0  0  0  0  0  0  0  0  0
   38.2497   25.6913   24.1394 C   0  0  0  0  0  0  0  0  0  0  0  0
   37.5969   24.4006   24.4945 C   0  0  1  0  0  0  0  0  0  0  0  0
   38.7573   23.6774   25.1829 C   0  0  2  0  0  0  0  0  0  0  0  0
  1  2  1  0  0  0  0
  2  3  1  0  0  0  0
  3 20  1  0  0  0  0
  4  5  1  0  0  0  0
  6  7  2  0  0  0  0
  6 12  1  0  0  0  0
  7  8  1  0  0  0  0
  8  9  2  0  0  0  0
  9 11  1  0  0  0  0
 10  5  1  6  0  0  0
 10 11  1  0  0  0  0
 10 16  1  0  0  0  0
 10 27  1  0  0  0  0
 11 12  2  0  0  0  0
 13 12  1  1  0  0  0
 13 15  1  0  0  0  0
 13 28  1  0  0  0  0
 14 15  2  0  0  0  0
 14 19  1  0  0  0  0
 15 16  1  0  0  0  0
 16 17  2  0  0  0  0
 17 18  1  0  0  0  0
 18 19  2  0  0  0  0
 20 21  1  0  0  0  0
 21 25  1  0  0  0  0
 22 26  2  0  0  0  0
 23 24  2  0  0  0  0
 24 25  1  0  0  0  0
 25 26  1  0  0  0  0
 27 26  1  1  0  0  0
 27 28  1  0  0  0  0
 28 24  1  1  0  0  0
M  END
>  <CHROM.1>
162.85861718,-172.97243446,89.35292337,-134.57384154,110.72928299,38.30060859
24.84912358,25.34050574,0.23999328,-0.63632259,-1.90795034

>  <Name>
ligand

>  <RI>
0

>  <Rbt.Current_Directory>
/home/itssahil/PROJECTS/Mol_Feturizer/New_Systems/rnas/1YLS

>  <Rbt.Executable>
rbdock ($Id: //depot/dev/client3/rdock/2013.1/src/exe/rbdock.cxx#4 $)

>  <Rbt.Library>
libRbt.so (2013.1, Build901 2013/11/27)

>  <Rbt.Parameter_File>
/export/apps/rDock/src/rDock_2013.1_src/data/scripts/dock_solv.prm

>  <Rbt.Receptor>
prm/pocket_docking_8.prm

>  <SCORE>
-32.0648

>  <SCORE.INTER>
-32.3225

>  <SCORE.INTER.CONST>
1

>  <SCORE.INTER.POLAR>
0

>  <SCORE.INTER.ROT>
5

>  <SCORE.INTER.SOLV>
6.60995

>  <SCORE.INTER.VDW>
-30.685

>  <SCORE.INTER.norm>
-1.15438

>  <SCORE.INTRA>
0.257708

>  <SCORE.INTRA.DIHEDRAL>
-0.653303

>  <SCORE.INTRA.DIHEDRAL.0>
12.0148

>  <SCORE.INTRA.POLAR>
0

>  <SCORE.INTRA.POLAR.0>
0

>  <SCORE.INTRA.REPUL>
0

>  <SCORE.INTRA.REPUL.0>
0

>  <SCORE.INTRA.SOLV>
0.286484

>  <SCORE.INTRA.SOLV.lig_0>
-10.5235

>  <SCORE.INTRA.VDW>
0.441118

>  <SCORE.INTRA.VDW.0>
-1.38455

>  <SCORE.INTRA.norm>
0.00920387

>  <SCORE.RESTR>
0

>  <SCORE.RESTR.CAVITY>
0

>  <SCORE.RESTR.norm>
0

>  <SCORE.SYSTEM>
0

>  <SCORE.SYSTEM.CONST>
0

>  <SCORE.SYSTEM.DIHEDRAL>
0

>  <SCORE.SYSTEM.SOLV>
0

>  <SCORE.SYSTEM.norm>
0

>  <SCORE.heavy>
28

>  <SCORE.norm>
-1.14517

>  <RMSD>
0.756

$$$$
ligand
 OpenBabel11021811413D
libRbt.so/2013.1/901 2013/11/27
 28 32  0  0  0  0  0  0  0  0999 V2000
   44.4235   25.9314   22.9659 C   0  0  0  0  0  0  0  0  0  0  0  0
   43.2608   26.8289   23.3406 C   0  0  0  0  0  0  0  0  0  0  0  0
   41.9657   26.3733   22.6847 C   0  0  0  0  0  0  0  0  0  0  0  0
   34.2403   25.8664   25.8521 O   0  0  0  0  0  0  0  0  0  0  0  0
   35.2714   25.7626   24.8687 C   0  0  0  0  0  0  0  0  0  0  0  0
   38.8533   25.2231   28.2141 C   0  0  0  0  0  0  0  0  0  0  0  0
   38.5593   26.4622   28.7684 C   0  0  0  0  0  0  0  0  0  0  0  0
   37.5431   27.2433   28.2121 C   0  0  0  0  0  0  0  0  0  0  0  0
   36.8207   26.7881   27.1085 C   0  0  0  0  0  0  0  0  0  0  0  0
   36.4546   24.9428   25.3994 C   0  0  1  0  0  0  0  0  0  0  0  0
   37.1120   25.5460   26.5950 C   0  0  0  0  0  0  0  0  0  0  0  0
   38.1127   24.7836   27.1424 C   0  0  0  0  0  0  0  0  0  0  0  0
   38.3709   23.5278   26.4639 C   0  0  1  0  0  0  0  0  0  0  0  0
   36.9454   21.5069   26.7380 C   0  0  0  0  0  0  0  0  0  0  0  0
   37.1084   22.8176   26.3585 C   0  0  0  0  0  0  0  0  0  0  0  0
   36.0841   23.5392   25.8068 C   0  0  0  0  0  0  0  0  0  0  0  0
   34.8443   22.9467   25.6174 C   0  0  0  0  0  0  0  0  0  0  0  0
   34.6574   21.6217   26.0170 C   0  0  0  0  0  0  0  0  0  0  0  0
   35.7073   20.9067   26.5785 C   0  0  0  0  0  0  0  0  0  0  0  0
   40.8321   27.3377   23.0088 C   0  0  0  0  0  0  0  0  0  0  0  0
   40.4011   27.1844   24.4626 C   0  0  0  0  0  0  0  0  0  0  0  0
   37.8080   26.9900   23.6169 O   0  0  0  0  0  0  0  0  0  0  0  0
   40.9513   24.6154   25.5051 O   0  0  0  0  0  0  0  0  0  0  0  0
   39.8646   24.8950   25.0265 C   0  0  0  0  0  0  0  0  0  0  0  0
   39.5320   26.0200   24.5242 N   0  0  0  0  0  0  0  0  0  0  0  0
   38.3356   26.0368   24.1288 C   0  0  0  0  0  0  0  0  0  0  0  0
   37.6110   24.7648   24.4030 C   0  0  1  0  0  0  0  0  0  0  0  0
   38.7283   23.9355   25.0412 C   0  0  2  0  0  0  0  0  0  0  0  0
  1  2  1  0  0  0  0
  2  3  1  0  0  0  0
  3 20  1  0  0  0  0
  4  5  1  0  0  0  0
  6  7  2  0  0  0  0
  6 12  1  0  0  0  0
  7  8  1  0  0  0  0
  8  9  2  0  0  0  0
  9 11  1  0  0  0  0
 10  5  1  6  0  0  0
 10 11  1  0  0  0  0
 10 16  1  0  0  0  0
 10 27  1  0  0  0  0
 11 12  2  0  0  0  0
 13 12  1  1  0  0  0
 13 15  1  0  0  0  0
 13 28  1  0  0  0  0
 14 15  2  0  0  0  0
 14 19  1  0  0  0  0
 15 16  1  0  0  0  0
 16 17  2  0  0  0  0
 17 18  1  0  0  0  0
 18 19  2  0  0  0  0
 20 21  1  0  0  0  0
 21 25  1  0  0  0  0
 22 26  2  0  0  0  0
 23 24  2  0  0  0  0
 24 25  1  0  0  0  0
 25 26  1  0  0  0  0
 27 26  1  1  0  0  0
 27 28  1  0  0  0  0
 28 24  1  1  0  0  0
M  END
>  <CHROM.1>
-176.59798367,-61.64667499,-72.50448048,-80.07504423,106.66648379,38.32674097
25.09227159,25.41999960,-0.41370788,-0.39987622,3.10691806

>  <Name>
ligand

>  <RI>
0

>  <Rbt.Current_Directory>
/home/itssahil/PROJECTS/Mol_Feturizer/New_Systems/rnas/1YLS

>  <Rbt.Executable>
rbdock ($Id: //depot/dev/client3/rdock/2013.1/src/exe/rbdock.cxx#4 $)

>  <Rbt.Library>
libRbt.so (2013.1, Build901 2013/11/27)

>  <Rbt.Parameter_File>
/export/apps/rDock/src/rDock_2013.1_src/data/scripts/dock_solv.prm

>  <Rbt.Receptor>
prm/pocket_docking_2.prm

>  <SCORE>
-33.6283

>  <SCORE.INTER>
-30.2347

>  <SCORE.INTER.CONST>
1

>  <SCORE.INTER.POLAR>
0

>  <SCORE.INTER.ROT>
5

>  <SCORE.INTER.SOLV>
5.82943

>  <SCORE.INTER.VDW>
-29.0329

>  <SCORE.INTER.norm>
-1.07981

>  <SCORE.INTRA>
-3.39358

>  <SCORE.INTRA.DIHEDRAL>
-7.67229

>  <SCORE.INTRA.DIHEDRAL.0>
12.0148

>  <SCORE.INTRA.POLAR>
0

>  <SCORE.INTRA.POLAR.0>
0

>  <SCORE.INTRA.REPUL>
0

>  <SCORE.INTRA.REPUL.0>
0

>  <SCORE.INTRA.SOLV>
0.346241

>  <SCORE.INTRA.SOLV.lig_0>
-10.5235

>  <SCORE.INTRA.VDW>
0.269447

>  <SCORE.INTRA.VDW.0>
-1.38455

>  <SCORE.INTRA.norm>
-0.121199

>  <SCORE.RESTR>
0

>  <SCORE.RESTR.CAVITY>
0

>  <SCORE.RESTR.norm>
0

>  <SCORE.SYSTEM>
0

>  <SCORE.SYSTEM.CONST>
0

>  <SCORE.SYSTEM.DIHEDRAL>
0

>  <SCORE.SYSTEM.SOLV>
0

>  <SCORE.SYSTEM.norm>
0

>  <SCORE.heavy>
28

>  <SCORE.norm>
-1.20101

>  <RMSD>
0.780

$$$$
ligand
 OpenBabel11021811413D
libRbt.so/2013.1/901 2013/11/27
 28 32  0  0  0  0  0  0  0  0999 V2000
   44.0777   28.0694   22.2171 C   0  0  0  0  0  0  0  0  0  0  0  0
   42.9908   27.0129   22.2411 C   0  0  0  0  0  0  0  0  0  0  0  0
   41.9914   27.2609   23.3611 C   0  0  0  0  0  0  0  0  0  0  0  0
   33.9547   24.9764   26.2759 O   0  0  0  0  0  0  0  0  0  0  0  0
   34.9227   24.9102   25.2273 C   0  0  0  0  0  0  0  0  0  0  0  0
   38.6812   24.1806   28.3343 C   0  0  0  0  0  0  0  0  0  0  0  0
   38.4264   25.3894   28.9692 C   0  0  0  0  0  0  0  0  0  0  0  0
   37.3860   26.2026   28.5126 C   0  0  0  0  0  0  0  0  0  0  0  0
   36.6005   25.8094   27.4284 C   0  0  0  0  0  0  0  0  0  0  0  0
   36.1282   24.0592   25.6470 C   0  0  1  0  0  0  0  0  0  0  0  0
   36.8548   24.5954   26.8344 C   0  0  0  0  0  0  0  0  0  0  0  0
   37.8794   23.8014   27.2839 C   0  0  0  0  0  0  0  0  0  0  0  0
   38.0914   22.5827   26.5264 C   0  0  1  0  0  0  0  0  0  0  0  0
   36.6702   20.5550   26.7720 C   0  0  0  0  0  0  0  0  0  0  0  0
   36.8204   21.8836   26.4541 C   0  0  0  0  0  0  0  0  0  0  0  0
   35.7718   22.6372   25.9994 C   0  0  0  0  0  0  0  0  0  0  0  0
   34.5195   22.0600   25.8483 C   0  0  0  0  0  0  0  0  0  0  0  0
   34.3465   20.7162   26.1869 C   0  0  0  0  0  0  0  0  0  0  0  0
   35.4213   19.9687   26.6502 C   0  0  0  0  0  0  0  0  0  0  0  0
   40.9683   26.1344   23.4264 C   0  0  0  0  0  0  0  0  0  0  0  0
   40.0310   26.3336   24.6116 C   0  0  0  0  0  0  0  0  0  0  0  0
   37.3937   26.1937   23.9028 O   0  0  0  0  0  0  0  0  0  0  0  0
   40.6215   23.7108   25.4841 O   0  0  0  0  0  0  0  0  0  0  0  0
   39.5118   24.0193   25.0824 C   0  0  0  0  0  0  0  0  0  0  0  0
   39.1592   25.1706   24.6598 N   0  0  0  0  0  0  0  0  0  0  0  0
   37.9428   25.2127   24.3332 C   0  0  0  0  0  0  0  0  0  0  0  0
   37.2263   23.9304   24.5795 C   0  0  1  0  0  0  0  0  0  0  0  0
   38.3719   23.0643   25.1096 C   0  0  2  0  0  0  0  0  0  0  0  0
  1  2  1  0  0  0  0
  2  3  1  0  0  0  0
  3 20  1  0  0  0  0
  4  5  1  0  0  0  0
  6  7  2  0  0  0  0
  6 12  1  0  0  0  0
  7  8  1  0  0  0  0
  8  9  2  0  0  0  0
  9 11  1  0  0  0  0
 10  5  1  6  0  0  0
 10 11  1  0  0  0  0
 10 16  1  0  0  0  0
 10 27  1  0  0  0  0
 11 12  2  0  0  0  0
 13 12  1  1  0  0  0
 13 15  1  0  0  0  0
 13 28  1  0  0  0  0
 14 15  2  0  0  0  0
 14 19  1  0  0  0  0
 15 16  1  0  0  0  0
 16 17  2  0  0  0  0
 17 18  1  0  0  0  0
 18 19  2  0  0  0  0
 20 21  1  0  0  0  0
 21 25  1  0  0  0  0
 22 26  2  0  0  0  0
 23 24  2  0  0  0  0
 24 25  1  0  0  0  0
 25 26  1  0  0  0  0
 27 26  1  1  0  0  0
 27 28  1  0  0  0  0
 28 24  1  1  0  0  0
M  END
>  <CHROM.1>
-175.98212706,-61.05178662,175.88634596,-175.74908872,75.71299078,38.05291122
24.40547951,25.54071516,-0.50734025,-0.50759531,-3.06955941

>  <Name>
ligand

>  <RI>
0

>  <Rbt.Current_Directory>
/home/itssahil/PROJECTS/Mol_Feturizer/New_Systems/rnas/1YLS

>  <Rbt.Executable>
rbdock ($Id: //depot/dev/client3/rdock/2013.1/src/exe/rbdock.cxx#4 $)

>  <Rbt.Library>
libRbt.so (2013.1, Build901 2013/11/27)

>  <Rbt.Parameter_File>
/export/apps/rDock/src/rDock_2013.1_src/data/scripts/dock_solv.prm

>  <Rbt.Receptor>
prm/pocket_docking_3.prm

>  <SCORE>
-38.4593

>  <SCORE.INTER>
-33.6909

>  <SCORE.INTER.CONST>
1

>  <SCORE.INTER.POLAR>
0

>  <SCORE.INTER.ROT>
5

>  <SCORE.INTER.SOLV>
7.3528

>  <SCORE.INTER.VDW>
-31.8449

>  <SCORE.INTER.norm>
-1.20325

>  <SCORE.INTRA>
-4.76838

>  <SCORE.INTRA.DIHEDRAL>
-9.53513

>  <SCORE.INTRA.DIHEDRAL.0>
12.0148

>  <SCORE.INTRA.POLAR>
0

>  <SCORE.INTRA.POLAR.0>
0

>  <SCORE.INTRA.REPUL>
0

>  <SCORE.INTRA.REPUL.0>
0

>  <SCORE.INTRA.SOLV>
-0.0377149

>  <SCORE.INTRA.SOLV.lig_0>
-10.5235

>  <SCORE.INTRA.VDW>
0.0180421

>  <SCORE.INTRA.VDW.0>
-1.38455

>  <SCORE.INTRA.norm>
-0.170299

>  <SCORE.RESTR>
0

>  <SCORE.RESTR.CAVITY>
0

>  <SCORE.RESTR.norm>
0

>  <SCORE.SYSTEM>
0

>  <SCORE.SYSTEM.CONST>
0

>  <SCORE.SYSTEM.DIHEDRAL>
0

>  <SCORE.SYSTEM.SOLV>
0

>  <SCORE.SYSTEM.norm>
0

>  <SCORE.heavy>
28

>  <SCORE.norm>
-1.37355

>  <RMSD>
0.783

$$$$
ligand
 OpenBabel11021811413D
libRbt.so/2013.1/901 2013/11/27
 28 32  0  0  0  0  0  0  0  0999 V2000
   43.5421   26.4737   21.6360 C   0  0  0  0  0  0  0  0  0  0  0  0
   43.6767   26.6567   23.1348 C   0  0  0  0  0  0  0  0  0  0  0  0
   42.3532   27.0512   23.7734 C   0  0  0  0  0  0  0  0  0  0  0  0
   34.0866   24.4918   25.9539 O   0  0  0  0  0  0  0  0  0  0  0  0
   35.1458   24.4111   24.9985 C   0  0  0  0  0  0  0  0  0  0  0  0
   38.6680   24.3149   28.4477 C   0  0  0  0  0  0  0  0  0  0  0  0
   38.2674   25.5543   28.9299 C   0  0  0  0  0  0  0  0  0  0  0  0
   37.2106   26.2268   28.3108 C   0  0  0  0  0  0  0  0  0  0  0  0
   36.5539   25.6629   27.2163 C   0  0  0  0  0  0  0  0  0  0  0  0
   36.3725   23.7116   25.5979 C   0  0  1  0  0  0  0  0  0  0  0  0
   36.9509   24.4224   26.7750 C   0  0  0  0  0  0  0  0  0  0  0  0
   37.9911   23.7669   27.3840 C   0  0  0  0  0  0  0  0  0  0  0  0
   38.3605   22.5019   26.7779 C   0  0  1  0  0  0  0  0  0  0  0  0
   37.0836   20.3946   27.1246 C   0  0  0  0  0  0  0  0  0  0  0  0
   37.1580   21.6932   26.6811 C   0  0  0  0  0  0  0  0  0  0  0  0
   36.0975   22.3061   26.0694 C   0  0  0  0  0  0  0  0  0  0  0  0
   34.9111   21.6121   25.8831 C   0  0  0  0  0  0  0  0  0  0  0  0
   34.8134   20.2985   26.3470 C   0  0  0  0  0  0  0  0  0  0  0  0
   35.8986   19.6947   26.9686 C   0  0  0  0  0  0  0  0  0  0  0  0
   41.3989   25.8645   23.8070 C   0  0  0  0  0  0  0  0  0  0  0  0
   40.1635   26.1972   24.6351 C   0  0  0  0  0  0  0  0  0  0  0  0
   37.6156   25.7637   23.7422 O   0  0  0  0  0  0  0  0  0  0  0  0
   40.8767   23.7333   25.8223 O   0  0  0  0  0  0  0  0  0  0  0  0
   39.7852   23.9049   25.3053 C   0  0  0  0  0  0  0  0  0  0  0  0
   39.3828   24.9746   24.7376 N   0  0  0  0  0  0  0  0  0  0  0  0
   38.1994   24.8803   24.3149 C   0  0  0  0  0  0  0  0  0  0  0  0
   37.5651   23.5723   24.6385 C   0  0  1  0  0  0  0  0  0  0  0  0
   38.7240   22.8636   25.3443 C   0  0  2  0  0  0  0  0  0  0  0  0
  1  2  1  0  0  0  0
  2  3  1  0  0  0  0
  3 20  1  0  0  0  0
  4  5  1  0  0  0  0
  6  7  2  0  0  0  0
  6 12  1  0  0  0  0
  7  8  1  0  0  0  0
  8  9  2  0  0  0  0
  9 11  1  0  0  0  0
 10  5  1  6  0  0  0
 10 11  1  0  0  0  0
 10 16  1  0  0  0  0
 10 27  1  0  0  0  0
 11 12  2  0  0  0  0
 13 12  1  1  0  0  0
 13 15  1  0  0  0  0
 13 28  1  0  0  0  0
 14 15  2  0  0  0  0
 14 19  1  0  0  0  0
 15 16  1  0  0  0  0
 16 17  2  0  0  0  0
 17 18  1  0  0  0  0
 18 19  2  0  0  0  0
 20 21  1  0  0  0  0
 21 25  1  0  0  0  0
 22 26  2  0  0  0  0
 23 24  2  0  0  0  0
 24 25  1  0  0  0  0
 25 26  1  0  0  0  0
 27 26  1  1  0  0  0
 27 28  1  0  0  0  0
 28 24  1  1  0  0  0
M  END
>  <CHROM.1>
72.75651961,-61.33237394,171.23797260,-173.88645829,62.73233639,38.26875183
24.12773349,25.62303840,-0.48978554,-0.48806605,-3.08426840

>  <Name>
ligand

>  <RI>
0

>  <Rbt.Current_Directory>
/home/itssahil/PROJECTS/Mol_Feturizer/New_Systems/rnas/1YLS

>  <Rbt.Executable>
rbdock ($Id: //depot/dev/client3/rdock/2013.1/src/exe/rbdock.cxx#4 $)

>  <Rbt.Library>
libRbt.so (2013.1, Build901 2013/11/27)

>  <Rbt.Parameter_File>
/export/apps/rDock/src/rDock_2013.1_src/data/scripts/dock_solv.prm

>  <Rbt.Receptor>
prm/pocket_docking_5.prm

>  <SCORE>
-36.0299

>  <SCORE.INTER>
-32.9963

>  <SCORE.INTER.CONST>
1

>  <SCORE.INTER.POLAR>
0

>  <SCORE.INTER.ROT>
5

>  <SCORE.INTER.SOLV>
6.76868

>  <SCORE.INTER.VDW>
-31.1871

>  <SCORE.INTER.norm>
-1.17844

>  <SCORE.INTRA>
-3.03364

>  <SCORE.INTRA.DIHEDRAL>
-8.51024

>  <SCORE.INTRA.DIHEDRAL.0>
12.0148

>  <SCORE.INTRA.POLAR>
0

>  <SCORE.INTRA.POLAR.0>
0

>  <SCORE.INTRA.REPUL>
0

>  <SCORE.INTRA.REPUL.0>
0

>  <SCORE.INTRA.SOLV>
-0.0245038

>  <SCORE.INTRA.SOLV.lig_0>
-10.5235

>  <SCORE.INTRA.VDW>
1.23373

>  <SCORE.INTRA.VDW.0>
-1.38455

>  <SCORE.INTRA.norm>
-0.108344

>  <SCORE.RESTR>
0

>  <SCORE.RESTR.CAVITY>
0

>  <SCORE.RESTR.norm>
0

>  <SCORE.SYSTEM>
0

>  <SCORE.SYSTEM.CONST>
0

>  <SCORE.SYSTEM.DIHEDRAL>
0

>  <SCORE.SYSTEM.SOLV>
0

>  <SCORE.SYSTEM.norm>
0

>  <SCORE.heavy>
28

>  <SCORE.norm>
-1.28678

>  <RMSD>
0.799

$$$$
ligand
 OpenBabel11021811413D
libRbt.so/2013.1/901 2013/11/27
 28 32  0  0  0  0  0  0  0  0999 V2000
   44.0710   28.0517   22.2282 C   0  0  0  0  0  0  0  0  0  0  0  0
   42.9673   27.0126   22.2248 C   0  0  0  0  0  0  0  0  0  0  0  0
   41.9728   27.2461   23.3523 C   0  0  0  0  0  0  0  0  0  0  0  0
   33.9656   24.8502   26.2180 O   0  0  0  0  0  0  0  0  0  0  0  0
   34.9449   24.7740   25.1806 C   0  0  0  0  0  0  0  0  0  0  0  0
   38.6707   24.1820   28.3556 C   0  0  0  0  0  0  0  0  0  0  0  0
   38.3815   25.3970   28.9633 C   0  0  0  0  0  0  0  0  0  0  0  0
   37.3314   26.1795   28.4761 C   0  0  0  0  0  0  0  0  0  0  0  0
   36.5706   25.7495   27.3883 C   0  0  0  0  0  0  0  0  0  0  0  0
   36.1613   23.9564   25.6341 C   0  0  1  0  0  0  0  0  0  0  0  0
   36.8588   24.5301   26.8214 C   0  0  0  0  0  0  0  0  0  0  0  0
   37.8928   23.7664   27.3010 C   0  0  0  0  0  0  0  0  0  0  0  0
   38.1412   22.5382   26.5702 C   0  0  1  0  0  0  0  0  0  0  0  0
   36.7588   20.4863   26.8339 C   0  0  0  0  0  0  0  0  0  0  0  0
   36.8862   21.8114   26.4928 C   0  0  0  0  0  0  0  0  0  0  0  0
   35.8291   22.5342   26.0085 C   0  0  0  0  0  0  0  0  0  0  0  0
   34.5915   21.9281   25.8502 C   0  0  0  0  0  0  0  0  0  0  0  0
   34.4413   20.5876   26.2120 C   0  0  0  0  0  0  0  0  0  0  0  0
   35.5242   19.8716   26.7052 C   0  0  0  0  0  0  0  0  0  0  0  0
   40.9569   26.1129   23.4149 C   0  0  0  0  0  0  0  0  0  0  0  0
   40.0314   26.2922   24.6124 C   0  0  0  0  0  0  0  0  0  0  0  0
   37.4085   26.0837   23.8679 O   0  0  0  0  0  0  0  0  0  0  0  0
   40.6629   23.6993   25.5435 O   0  0  0  0  0  0  0  0  0  0  0  0
   39.5532   23.9768   25.1198 C   0  0  0  0  0  0  0  0  0  0  0  0
   39.1832   25.1123   24.6701 N   0  0  0  0  0  0  0  0  0  0  0  0
   37.9712   25.1227   24.3250 C   0  0  0  0  0  0  0  0  0  0  0  0
   37.2778   23.8306   24.5854 C   0  0  1  0  0  0  0  0  0  0  0  0
   38.4329   22.9989   25.1487 C   0  0  2  0  0  0  0  0  0  0  0  0
  1  2  1  0  0  0  0
  2  3  1  0  0  0  0
  3 20  1  0  0  0  0
  4  5  1  0  0  0  0
  6  7  2  0  0  0  0
  6 12  1  0  0  0  0
  7  8  1  0  0  0  0
  8  9  2  0  0  0  0
  9 11  1  0  0  0  0
 10  5  1  6  0  0  0
 10 11  1  0  0  0  0
 10 16  1  0  0  0  0
 10 27  1  0  0  0  0
 11 12  2  0  0  0  0
 13 12  1  1  0  0  0
 13 15  1  0  0  0  0
 13 28  1  0  0  0  0
 14 15  2  0  0  0  0
 14 19  1  0  0  0  0
 15 16  1  0  0  0  0
 16 17  2  0  0  0  0
 17 18  1  0  0  0  0
 18 19  2  0  0  0  0
 20 21  1  0  0  0  0
 21 25  1  0  0  0  0
 22 26  2  0  0  0  0
 23 24  2  0  0  0  0
 24 25  1  0  0  0  0
 25 26  1  0  0  0  0
 27 26  1  1  0  0  0
 27 28  1  0  0  0  0
 28 24  1  1  0  0  0
M  END
>  <CHROM.1>
-174.26010505,-60.50519840,175.49369342,-174.73912635,77.68786737,38.07620692
24.34290923,25.54506447,-0.53106747,-0.50055661,-3.09654665

>  <Name>
ligand

>  <RI>
0

>  <Rbt.Current_Directory>
/home/itssahil/PROJECTS/Mol_Feturizer/New_Systems/rnas/1YLS

>  <Rbt.Executable>
rbdock ($Id: //depot/dev/client3/rdock/2013.1/src/exe/rbdock.cxx#4 $)

>  <Rbt.Library>
libRbt.so (2013.1, Build901 2013/11/27)

>  <Rbt.Parameter_File>
/export/apps/rDock/src/rDock_2013.1_src/data/scripts/dock_solv.prm

>  <Rbt.Receptor>
prm/pocket_docking_2.prm

>  <SCORE>
-38.4455

>  <SCORE.INTER>
-33.7139

>  <SCORE.INTER.CONST>
1

>  <SCORE.INTER.POLAR>
0

>  <SCORE.INTER.ROT>
5

>  <SCORE.INTER.SOLV>
7.32793

>  <SCORE.INTER.VDW>
-31.8519

>  <SCORE.INTER.norm>
-1.20407

>  <SCORE.INTRA>
-4.7316

>  <SCORE.INTRA.DIHEDRAL>
-9.42969

>  <SCORE.INTRA.DIHEDRAL.0>
12.0148

>  <SCORE.INTRA.POLAR>
0

>  <SCORE.INTRA.POLAR.0>
0

>  <SCORE.INTRA.REPUL>
0

>  <SCORE.INTRA.REPUL.0>
0

>  <SCORE.INTRA.SOLV>
-0.039317

>  <SCORE.INTRA.SOLV.lig_0>
-10.5235

>  <SCORE.INTRA.VDW>
0.00290008

>  <SCORE.INTRA.VDW.0>
-1.38455

>  <SCORE.INTRA.norm>
-0.168986

>  <SCORE.RESTR>
0

>  <SCORE.RESTR.CAVITY>
0

>  <SCORE.RESTR.norm>
0

>  <SCORE.SYSTEM>
0

>  <SCORE.SYSTEM.CONST>
0

>  <SCORE.SYSTEM.DIHEDRAL>
0

>  <SCORE.SYSTEM.SOLV>
0

>  <SCORE.SYSTEM.norm>
0

>  <SCORE.heavy>
28

>  <SCORE.norm>
-1.37305

>  <RMSD>
0.800

$$$$
ligand
 OpenBabel11021811413D
libRbt.so/2013.1/901 2013/11/27
 28 32  0  0  0  0  0  0  0  0999 V2000
   44.0784   28.0549   22.2340 C   0  0  0  0  0  0  0  0  0  0  0  0
   42.9634   27.0282   22.2105 C   0  0  0  0  0  0  0  0  0  0  0  0
   41.9630   27.2600   23.3331 C   0  0  0  0  0  0  0  0  0  0  0  0
   33.9533   24.7969   26.2182 O   0  0  0  0  0  0  0  0  0  0  0  0
   34.9389   24.7548   25.1848 C   0  0  0  0  0  0  0  0  0  0  0  0
   38.6930   24.1907   28.3314 C   0  0  0  0  0  0  0  0  0  0  0  0
   38.3995   25.4037   28.9413 C   0  0  0  0  0  0  0  0  0  0  0  0
   37.3400   26.1783   28.4620 C   0  0  0  0  0  0  0  0  0  0  0  0
   36.5741   25.7426   27.3800 C   0  0  0  0  0  0  0  0  0  0  0  0
   36.1647   23.9463   25.6291 C   0  0  1  0  0  0  0  0  0  0  0  0
   36.8670   24.5253   26.8111 C   0  0  0  0  0  0  0  0  0  0  0  0
   37.9102   23.7692   27.2828 C   0  0  0  0  0  0  0  0  0  0  0  0
   38.1621   22.5429   26.5503 C   0  0  1  0  0  0  0  0  0  0  0  0
   36.7969   20.4808   26.8246 C   0  0  0  0  0  0  0  0  0  0  0  0
   36.9119   21.8068   26.4824 C   0  0  0  0  0  0  0  0  0  0  0  0
   35.8459   22.5217   26.0061 C   0  0  0  0  0  0  0  0  0  0  0  0
   34.6116   21.9065   25.8573 C   0  0  0  0  0  0  0  0  0  0  0  0
   34.4740   20.5650   26.2203 C   0  0  0  0  0  0  0  0  0  0  0  0
   35.5659   19.8571   26.7053 C   0  0  0  0  0  0  0  0  0  0  0  0
   40.9574   26.1178   23.4000 C   0  0  0  0  0  0  0  0  0  0  0  0
   40.0096   26.3104   24.5778 C   0  0  0  0  0  0  0  0  0  0  0  0
   37.3827   26.0825   23.8533 O   0  0  0  0  0  0  0  0  0  0  0  0
   40.6672   23.7223   25.5043 O   0  0  0  0  0  0  0  0  0  0  0  0
   39.5523   23.9917   25.0891 C   0  0  0  0  0  0  0  0  0  0  0  0
   39.1706   25.1243   24.6421 N   0  0  0  0  0  0  0  0  0  0  0  0
   37.9559   25.1257   24.3062 C   0  0  0  0  0  0  0  0  0  0  0  0
   37.2741   23.8286   24.5720 C   0  0  1  0  0  0  0  0  0  0  0  0
   38.4396   23.0055   25.1265 C   0  0  2  0  0  0  0  0  0  0  0  0
  1  2  1  0  0  0  0
  2  3  1  0  0  0  0
  3 20  1  0  0  0  0
  4  5  1  0  0  0  0
  6  7  2  0  0  0  0
  6 12  1  0  0  0  0
  7  8  1  0  0  0  0
  8  9  2  0  0  0  0
  9 11  1  0  0  0  0
 10  5  1  6  0  0  0
 10 11  1  0  0  0  0
 10 16  1  0  0  0  0
 10 27  1  0  0  0  0
 11 12  2  0  0  0  0
 13 12  1  1  0  0  0
 13 15  1  0  0  0  0
 13 28  1  0  0  0  0
 14 15  2  0  0  0  0
 14 19  1  0  0  0  0
 15 16  1  0  0  0  0
 16 17  2  0  0  0  0
 17 18  1  0  0  0  0
 18 19  2  0  0  0  0
 20 21  1  0  0  0  0
 21 25  1  0  0  0  0
 22 26  2  0  0  0  0
 23 24  2  0  0  0  0
 24 25  1  0  0  0  0
 25 26  1  0  0  0  0
 27 26  1  1  0  0  0
 27 28  1  0  0  0  0
 28 24  1  1  0  0  0
M  END
>  <CHROM.1>
-172.68489954,-61.89709356,176.56088563,-174.84414427,75.92072606,38.08170705
24.34149414,25.53169731,-0.53813172,-0.49769741,-3.10540502

>  <Name>
ligand

>  <RI>
0

>  <Rbt.Current_Directory>
/home/itssahil/PROJECTS/Mol_Feturizer/New_Systems/rnas/1YLS

>  <Rbt.Executable>
rbdock ($Id: //depot/dev/client3/rdock/2013.1/src/exe/rbdock.cxx#4 $)

>  <Rbt.Library>
libRbt.so (2013.1, Build901 2013/11/27)

>  <Rbt.Parameter_File>
/export/apps/rDock/src/rDock_2013.1_src/data/scripts/dock_solv.prm

>  <Rbt.Receptor>
prm/pocket_docking_6.prm

>  <SCORE>
-38.4414

>  <SCORE.INTER>
-33.7548

>  <SCORE.INTER.CONST>
1

>  <SCORE.INTER.POLAR>
0

>  <SCORE.INTER.ROT>
5

>  <SCORE.INTER.SOLV>
7.40598

>  <SCORE.INTER.VDW>
-31.9052

>  <SCORE.INTER.norm>
-1.20553

>  <SCORE.INTRA>
-4.68662

>  <SCORE.INTRA.DIHEDRAL>
-9.3667

>  <SCORE.INTRA.DIHEDRAL.0>
12.0148

>  <SCORE.INTRA.POLAR>
0

>  <SCORE.INTRA.POLAR.0>
0

>  <SCORE.INTRA.REPUL>
0

>  <SCORE.INTRA.REPUL.0>
0

>  <SCORE.INTRA.SOLV>
-0.0369028

>  <SCORE.INTRA.SOLV.lig_0>
-10.5235

>  <SCORE.INTRA.VDW>
0.0151828

>  <SCORE.INTRA.VDW.0>
-1.38455

>  <SCORE.INTRA.norm>
-0.167379

>  <SCORE.RESTR>
0

>  <SCORE.RESTR.CAVITY>
0

>  <SCORE.RESTR.norm>
0

>  <SCORE.SYSTEM>
0

>  <SCORE.SYSTEM.CONST>
0

>  <SCORE.SYSTEM.DIHEDRAL>
0

>  <SCORE.SYSTEM.SOLV>
0

>  <SCORE.SYSTEM.norm>
0

>  <SCORE.heavy>
28

>  <SCORE.norm>
-1.37291

>  <RMSD>
0.802

$$$$
ligand
 OpenBabel11021811413D
libRbt.so/2013.1/901 2013/11/27
 28 32  0  0  0  0  0  0  0  0999 V2000
   43.5907   26.3301   21.6381 C   0  0  0  0  0  0  0  0  0  0  0  0
   43.7956   26.3664   23.1397 C   0  0  0  0  0  0  0  0  0  0  0  0
   42.5297   26.7911   23.8690 C   0  0  0  0  0  0  0  0  0  0  0  0
   34.1233   24.6316   25.9065 O   0  0  0  0  0  0  0  0  0  0  0  0
   35.1945   24.5013   24.9702 C   0  0  0  0  0  0  0  0  0  0  0  0
   38.6358   24.1969   28.4883 C   0  0  0  0  0  0  0  0  0  0  0  0
   38.2884   25.4508   28.9743 C   0  0  0  0  0  0  0  0  0  0  0  0
   37.2799   26.1813   28.3406 C   0  0  0  0  0  0  0  0  0  0  0  0
   36.6182   25.6609   27.2278 C   0  0  0  0  0  0  0  0  0  0  0  0
   36.3718   23.7353   25.5873 C   0  0  1  0  0  0  0  0  0  0  0  0
   36.9611   24.4057   26.7826 C   0  0  0  0  0  0  0  0  0  0  0  0
   37.9541   23.6931   27.4059 C   0  0  0  0  0  0  0  0  0  0  0  0
   38.2715   22.4163   26.7952 C   0  0  1  0  0  0  0  0  0  0  0  0
   36.8831   20.3735   27.0958 C   0  0  0  0  0  0  0  0  0  0  0  0
   37.0319   21.6705   26.6665 C   0  0  0  0  0  0  0  0  0  0  0  0
   36.0166   22.3416   26.0396 C   0  0  0  0  0  0  0  0  0  0  0  0
   34.8006   21.7102   25.8228 C   0  0  0  0  0  0  0  0  0  0  0  0
   34.6273   20.3993   26.2719 C   0  0  0  0  0  0  0  0  0  0  0  0
   35.6676   19.7359   26.9092 C   0  0  0  0  0  0  0  0  0  0  0  0
   41.5024   25.6666   23.8601 C   0  0  0  0  0  0  0  0  0  0  0  0
   40.3024   26.0340   24.7249 C   0  0  0  0  0  0  0  0  0  0  0  0
   37.7547   25.7378   23.7768 O   0  0  0  0  0  0  0  0  0  0  0  0
   40.8657   23.5269   25.9022 O   0  0  0  0  0  0  0  0  0  0  0  0
   39.7952   23.7580   25.3651 C   0  0  0  0  0  0  0  0  0  0  0  0
   39.4590   24.8516   24.7998 N   0  0  0  0  0  0  0  0  0  0  0  0
   38.2812   24.8211   24.3526 C   0  0  0  0  0  0  0  0  0  0  0  0
   37.5752   23.5441   24.6507 C   0  0  1  0  0  0  0  0  0  0  0  0
   38.6821   22.7715   25.3728 C   0  0  2  0  0  0  0  0  0  0  0  0
  1  2  1  0  0  0  0
  2  3  1  0  0  0  0
  3 20  1  0  0  0  0
  4  5  1  0  0  0  0
  6  7  2  0  0  0  0
  6 12  1  0  0  0  0
  7  8  1  0  0  0  0
  8  9  2  0  0  0  0
  9 11  1  0  0  0  0
 10  5  1  6  0  0  0
 10 11  1  0  0  0  0
 10 16  1  0  0  0  0
 10 27  1  0  0  0  0
 11 12  2  0  0  0  0
 13 12  1  1  0  0  0
 13 15  1  0  0  0  0
 13 28  1  0  0  0  0
 14 15  2  0  0  0  0
 14 19  1  0  0  0  0
 15 16  1  0  0  0  0
 16 17  2  0  0  0  0
 17 18  1  0  0  0  0
 18 19  2  0  0  0  0
 20 21  1  0  0  0  0
 21 25  1  0  0  0  0
 22 26  2  0  0  0  0
 23 24  2  0  0  0  0
 24 25  1  0  0  0  0
 25 26  1  0  0  0  0
 27 26  1  1  0  0  0
 27 28  1  0  0  0  0
 28 24  1  1  0  0  0
M  END
>  <CHROM.1>
73.66356601,-61.11773062,173.52440881,-172.88014785,65.50131780,38.27448393
24.06419225,25.63789918,-0.43326658,-0.48900266,-3.03246442

>  <Name>
ligand

>  <RI>
0

>  <Rbt.Current_Directory>
/home/itssahil/PROJECTS/Mol_Feturizer/New_Systems/rnas/1YLS

>  <Rbt.Executable>
rbdock ($Id: //depot/dev/client3/rdock/2013.1/src/exe/rbdock.cxx#4 $)

>  <Rbt.Library>
libRbt.so (2013.1, Build901 2013/11/27)

>  <Rbt.Parameter_File>
/export/apps/rDock/src/rDock_2013.1_src/data/scripts/dock_solv.prm

>  <Rbt.Receptor>
prm/pocket_docking_2.prm

>  <SCORE>
-36.0056

>  <SCORE.INTER>
-32.7936

>  <SCORE.INTER.CONST>
1

>  <SCORE.INTER.POLAR>
0

>  <SCORE.INTER.ROT>
5

>  <SCORE.INTER.SOLV>
6.66868

>  <SCORE.INTER.VDW>
-31.0186

>  <SCORE.INTER.norm>
-1.1712

>  <SCORE.INTRA>
-3.21201

>  <SCORE.INTRA.DIHEDRAL>
-8.53841

>  <SCORE.INTRA.DIHEDRAL.0>
12.0148

>  <SCORE.INTRA.POLAR>
0

>  <SCORE.INTRA.POLAR.0>
0

>  <SCORE.INTRA.REPUL>
0

>  <SCORE.INTRA.REPUL.0>
0

>  <SCORE.INTRA.SOLV>
-0.0278323

>  <SCORE.INTRA.SOLV.lig_0>
-10.5235

>  <SCORE.INTRA.VDW>
1.07111

>  <SCORE.INTRA.VDW.0>
-1.38455

>  <SCORE.INTRA.norm>
-0.114715

>  <SCORE.RESTR>
0

>  <SCORE.RESTR.CAVITY>
0

>  <SCORE.RESTR.norm>
0

>  <SCORE.SYSTEM>
0

>  <SCORE.SYSTEM.CONST>
0

>  <SCORE.SYSTEM.DIHEDRAL>
0

>  <SCORE.SYSTEM.SOLV>
0

>  <SCORE.SYSTEM.norm>
0

>  <SCORE.heavy>
28

>  <SCORE.norm>
-1.28592

>  <RMSD>
0.806

$$$$
ligand
 OpenBabel11021811413D
libRbt.so/2013.1/901 2013/11/27
 28 32  0  0  0  0  0  0  0  0999 V2000
   43.9727   27.6340   22.1203 C   0  0  0  0  0  0  0  0  0  0  0  0
   43.1917   26.3368   22.0476 C   0  0  0  0  0  0  0  0  0  0  0  0
   42.2236   26.1981   23.2130 C   0  0  0  0  0  0  0  0  0  0  0  0
   34.6493   24.7680   23.6989 O   0  0  0  0  0  0  0  0  0  0  0  0
   35.2050   25.4908   24.7988 C   0  0  0  0  0  0  0  0  0  0  0  0
   38.8131   25.3223   28.1552 C   0  0  0  0  0  0  0  0  0  0  0  0
   38.4383   26.5609   28.6598 C   0  0  0  0  0  0  0  0  0  0  0  0
   37.3734   27.2508   28.0747 C   0  0  0  0  0  0  0  0  0  0  0  0
   36.6828   26.7051   26.9920 C   0  0  0  0  0  0  0  0  0  0  0  0
   36.4391   24.7723   25.3595 C   0  0  1  0  0  0  0  0  0  0  0  0
   37.0550   25.4650   26.5283 C   0  0  0  0  0  0  0  0  0  0  0  0
   38.1033   24.7924   27.1038 C   0  0  0  0  0  0  0  0  0  0  0  0
   38.4434   23.5298   26.4759 C   0  0  1  0  0  0  0  0  0  0  0  0
   37.1532   21.4327   26.8343 C   0  0  0  0  0  0  0  0  0  0  0  0
   37.2301   22.7349   26.4020 C   0  0  0  0  0  0  0  0  0  0  0  0
   36.1611   23.3651   25.8239 C   0  0  0  0  0  0  0  0  0  0  0  0
   34.9628   22.6855   25.6613 C   0  0  0  0  0  0  0  0  0  0  0  0
   34.8629   21.3684   26.1145 C   0  0  0  0  0  0  0  0  0  0  0  0
   35.9571   20.7469   26.7019 C   0  0  0  0  0  0  0  0  0  0  0  0
   41.0260   27.1210   23.0285 C   0  0  0  0  0  0  0  0  0  0  0  0
   40.2307   27.2277   24.3243 C   0  0  0  0  0  0  0  0  0  0  0  0
   37.6562   26.8301   23.4928 O   0  0  0  0  0  0  0  0  0  0  0  0
   40.9474   24.7444   25.4682 O   0  0  0  0  0  0  0  0  0  0  0  0
   39.8450   24.9327   24.9812 C   0  0  0  0  0  0  0  0  0  0  0  0
   39.4397   26.0123   24.4347 N   0  0  0  0  0  0  0  0  0  0  0  0
   38.2449   25.9348   24.0416 C   0  0  0  0  0  0  0  0  0  0  0  0
   37.6051   24.6303   24.3684 C   0  0  1  0  0  0  0  0  0  0  0  0
   38.7740   23.9023   25.0371 C   0  0  2  0  0  0  0  0  0  0  0  0
  1  2  1  0  0  0  0
  2  3  1  0  0  0  0
  3 20  1  0  0  0  0
  4  5  1  0  0  0  0
  6  7  2  0  0  0  0
  6 12  1  0  0  0  0
  7  8  1  0  0  0  0
  8  9  2  0  0  0  0
  9 11  1  0  0  0  0
 10  5  1  6  0  0  0
 10 11  1  0  0  0  0
 10 16  1  0  0  0  0
 10 27  1  0  0  0  0
 11 12  2  0  0  0  0
 13 12  1  1  0  0  0
 13 15  1  0  0  0  0
 13 28  1  0  0  0  0
 14 15  2  0  0  0  0
 14 19  1  0  0  0  0
 15 16  1  0  0  0  0
 16 17  2  0  0  0  0
 17 18  1  0  0  0  0
 18 19  2  0  0  0  0
 20 21  1  0  0  0  0
 21 25  1  0  0  0  0
 22 26  2  0  0  0  0
 23 24  2  0  0  0  0
 24 25  1  0  0  0  0
 25 26  1  0  0  0  0
 27 26  1  1  0  0  0
 27 28  1  0  0  0  0
 28 24  1  1  0  0  0
M  END
>  <CHROM.1>
74.14238418,-179.00722274,-166.82551013,-77.80890151,88.17193729,38.33582313
25.02503969,25.23427318,0.08613642,-0.65391226,-2.14119868

>  <Name>
ligand

>  <RI>
0

>  <Rbt.Current_Directory>
/home/itssahil/PROJECTS/Mol_Feturizer/New_Systems/rnas/1YLS

>  <Rbt.Executable>
rbdock ($Id: //depot/dev/client3/rdock/2013.1/src/exe/rbdock.cxx#4 $)

>  <Rbt.Library>
libRbt.so (2013.1, Build901 2013/11/27)

>  <Rbt.Parameter_File>
/export/apps/rDock/src/rDock_2013.1_src/data/scripts/dock_solv.prm

>  <Rbt.Receptor>
prm/pocket_docking_4.prm

>  <SCORE>
-34.2639

>  <SCORE.INTER>
-31.7784

>  <SCORE.INTER.CONST>
1

>  <SCORE.INTER.POLAR>
0

>  <SCORE.INTER.ROT>
5

>  <SCORE.INTER.SOLV>
6.5864

>  <SCORE.INTER.VDW>
-30.3144

>  <SCORE.INTER.norm>
-1.13494

>  <SCORE.INTRA>
-2.48542

>  <SCORE.INTRA.DIHEDRAL>
-7.17492

>  <SCORE.INTRA.DIHEDRAL.0>
12.0148

>  <SCORE.INTRA.POLAR>
0

>  <SCORE.INTRA.POLAR.0>
0

>  <SCORE.INTRA.REPUL>
0

>  <SCORE.INTRA.REPUL.0>
0

>  <SCORE.INTRA.SOLV>
0.439341

>  <SCORE.INTRA.SOLV.lig_0>
-10.5235

>  <SCORE.INTRA.VDW>
0.882362

>  <SCORE.INTRA.VDW.0>
-1.38455

>  <SCORE.INTRA.norm>
-0.0887652

>  <SCORE.RESTR>
0

>  <SCORE.RESTR.CAVITY>
0

>  <SCORE.RESTR.norm>
0

>  <SCORE.SYSTEM>
0

>  <SCORE.SYSTEM.CONST>
0

>  <SCORE.SYSTEM.DIHEDRAL>
0

>  <SCORE.SYSTEM.SOLV>
0

>  <SCORE.SYSTEM.norm>
0

>  <SCORE.heavy>
28

>  <SCORE.norm>
-1.22371

>  <RMSD>
0.818

$$$$
ligand
 OpenBabel11021811413D
libRbt.so/2013.1/901 2013/11/27
 28 32  0  0  0  0  0  0  0  0999 V2000
   44.1954   27.7749   22.1781 C   0  0  0  0  0  0  0  0  0  0  0  0
   42.9936   26.8514   22.1498 C   0  0  0  0  0  0  0  0  0  0  0  0
   42.0680   27.0979   23.3319 C   0  0  0  0  0  0  0  0  0  0  0  0
   33.9276   25.2228   26.2685 O   0  0  0  0  0  0  0  0  0  0  0  0
   34.8876   25.1423   25.2135 C   0  0  0  0  0  0  0  0  0  0  0  0
   38.6209   24.0779   28.2537 C   0  0  0  0  0  0  0  0  0  0  0  0
   38.4485   25.2790   28.9296 C   0  0  0  0  0  0  0  0  0  0  0  0
   37.4571   26.1702   28.5109 C   0  0  0  0  0  0  0  0  0  0  0  0
   36.6386   25.8625   27.4235 C   0  0  0  0  0  0  0  0  0  0  0  0
   36.0410   24.2042   25.5924 C   0  0  1  0  0  0  0  0  0  0  0  0
   36.8107   24.6550   26.7881 C   0  0  0  0  0  0  0  0  0  0  0  0
   37.7874   23.7842   27.2006 C   0  0  0  0  0  0  0  0  0  0  0  0
   37.9153   22.5799   26.4022 C   0  0  1  0  0  0  0  0  0  0  0  0
   36.3718   20.6382   26.5987 C   0  0  0  0  0  0  0  0  0  0  0  0
   36.6023   21.9644   26.3218 C   0  0  0  0  0  0  0  0  0  0  0  0
   35.5991   22.7966   25.9031 C   0  0  0  0  0  0  0  0  0  0  0  0
   34.3117   22.3041   25.7475 C   0  0  0  0  0  0  0  0  0  0  0  0
   34.0576   20.9635   26.0449 C   0  0  0  0  0  0  0  0  0  0  0  0
   35.0874   20.1354   26.4721 C   0  0  0  0  0  0  0  0  0  0  0  0
   40.9246   26.0915   23.3369 C   0  0  0  0  0  0  0  0  0  0  0  0
   40.0696   26.2625   24.5870 C   0  0  0  0  0  0  0  0  0  0  0  0
   37.4224   26.3111   23.9033 O   0  0  0  0  0  0  0  0  0  0  0  0
   40.5019   23.5809   25.3685 O   0  0  0  0  0  0  0  0  0  0  0  0
   39.4101   23.9712   24.9892 C   0  0  0  0  0  0  0  0  0  0  0  0
   39.1268   25.1554   24.6076 N   0  0  0  0  0  0  0  0  0  0  0  0
   37.9125   25.2842   24.2960 C   0  0  0  0  0  0  0  0  0  0  0  0
   37.1191   24.0419   24.5092 C   0  0  1  0  0  0  0  0  0  0  0  0
   38.2127   23.0890   24.9985 C   0  0  2  0  0  0  0  0  0  0  0  0
  1  2  1  0  0  0  0
  2  3  1  0  0  0  0
  3 20  1  0  0  0  0
  4  5  1  0  0  0  0
  6  7  2  0  0  0  0
  6 12  1  0  0  0  0
  7  8  1  0  0  0  0
  8  9  2  0  0  0  0
  9 11  1  0  0  0  0
 10  5  1  6  0  0  0
 10 11  1  0  0  0  0
 10 16  1  0  0  0  0
 10 27  1  0  0  0  0
 11 12  2  0  0  0  0
 13 12  1  1  0  0  0
 13 15  1  0  0  0  0
 13 28  1  0  0  0  0
 14 15  2  0  0  0  0
 14 19  1  0  0  0  0
 15 16  1  0  0  0  0
 16 17  2  0  0  0  0
 17 18  1  0  0  0  0
 18 19  2  0  0  0  0
 20 21  1  0  0  0  0
 21 25  1  0  0  0  0
 22 26  2  0  0  0  0
 23 24  2  0  0  0  0
 24 25  1  0  0  0  0
 25 26  1  0  0  0  0
 27 26  1  1  0  0  0
 27 28  1  0  0  0  0
 28 24  1  1  0  0  0
M  END
>  <CHROM.1>
-175.84286261,-61.71101487,175.03206191,-172.16702398,79.20317521,37.97798227
24.43264855,25.46996303,-0.43051046,-0.51844663,-2.99467845

>  <Name>
ligand

>  <RI>
0

>  <Rbt.Current_Directory>
/home/itssahil/PROJECTS/Mol_Feturizer/New_Systems/rnas/1YLS

>  <Rbt.Executable>
rbdock ($Id: //depot/dev/client3/rdock/2013.1/src/exe/rbdock.cxx#4 $)

>  <Rbt.Library>
libRbt.so (2013.1, Build901 2013/11/27)

>  <Rbt.Parameter_File>
/export/apps/rDock/src/rDock_2013.1_src/data/scripts/dock_solv.prm

>  <Rbt.Receptor>
prm/pocket_docking_2.prm

>  <SCORE>
-38.5481

>  <SCORE.INTER>
-33.8319

>  <SCORE.INTER.CONST>
1

>  <SCORE.INTER.POLAR>
0

>  <SCORE.INTER.ROT>
5

>  <SCORE.INTER.SOLV>
7.48379

>  <SCORE.INTER.VDW>
-31.9825

>  <SCORE.INTER.norm>
-1.20828

>  <SCORE.INTRA>
-4.71626

>  <SCORE.INTRA.DIHEDRAL>
-9.35699

>  <SCORE.INTRA.DIHEDRAL.0>
12.0148

>  <SCORE.INTRA.POLAR>
0

>  <SCORE.INTRA.POLAR.0>
0

>  <SCORE.INTRA.REPUL>
0

>  <SCORE.INTRA.REPUL.0>
0

>  <SCORE.INTRA.SOLV>
-0.0382532

>  <SCORE.INTRA.SOLV.lig_0>
-10.5235

>  <SCORE.INTRA.VDW>
-0.0186435

>  <SCORE.INTRA.VDW.0>
-1.38455

>  <SCORE.INTRA.norm>
-0.168438

>  <SCORE.RESTR>
0

>  <SCORE.RESTR.CAVITY>
0

>  <SCORE.RESTR.norm>
0

>  <SCORE.SYSTEM>
0

>  <SCORE.SYSTEM.CONST>
0

>  <SCORE.SYSTEM.DIHEDRAL>
0

>  <SCORE.SYSTEM.SOLV>
0

>  <SCORE.SYSTEM.norm>
0

>  <SCORE.heavy>
28

>  <SCORE.norm>
-1.37672

>  <RMSD>
0.819

$$$$
ligand
 OpenBabel11021811413D
libRbt.so/2013.1/901 2013/11/27
 28 32  0  0  0  0  0  0  0  0999 V2000
   44.0363   28.0821   22.2119 C   0  0  0  0  0  0  0  0  0  0  0  0
   42.9411   27.0340   22.2086 C   0  0  0  0  0  0  0  0  0  0  0  0
   41.9468   27.2572   23.3383 C   0  0  0  0  0  0  0  0  0  0  0  0
   33.9648   24.8167   26.2376 O   0  0  0  0  0  0  0  0  0  0  0  0
   34.9249   24.7260   25.1835 C   0  0  0  0  0  0  0  0  0  0  0  0
   38.6815   24.1918   28.3324 C   0  0  0  0  0  0  0  0  0  0  0  0
   38.3808   25.4046   28.9390 C   0  0  0  0  0  0  0  0  0  0  0  0
   37.3170   26.1719   28.4575 C   0  0  0  0  0  0  0  0  0  0  0  0
   36.5539   25.7289   27.3765 C   0  0  0  0  0  0  0  0  0  0  0  0
   36.1553   23.9257   25.6302 C   0  0  1  0  0  0  0  0  0  0  0  0
   36.8539   24.5118   26.8108 C   0  0  0  0  0  0  0  0  0  0  0  0
   37.9013   23.7630   27.2848 C   0  0  0  0  0  0  0  0  0  0  0  0
   38.1604   22.5362   26.5555 C   0  0  1  0  0  0  0  0  0  0  0  0
   36.8070   20.4671   26.8350 C   0  0  0  0  0  0  0  0  0  0  0  0
   36.9145   21.7928   26.4893 C   0  0  0  0  0  0  0  0  0  0  0  0
   35.8445   22.5003   26.0109 C   0  0  0  0  0  0  0  0  0  0  0  0
   34.6138   21.8776   25.8634 C   0  0  0  0  0  0  0  0  0  0  0  0
   34.4839   20.5363   26.2300 C   0  0  0  0  0  0  0  0  0  0  0  0
   35.5797   19.8360   26.7170 C   0  0  0  0  0  0  0  0  0  0  0  0
   40.9385   26.1172   23.3987 C   0  0  0  0  0  0  0  0  0  0  0  0
   39.9867   26.3091   24.5735 C   0  0  0  0  0  0  0  0  0  0  0  0
   37.3614   26.0642   23.8491 O   0  0  0  0  0  0  0  0  0  0  0  0
   40.6590   23.7273   25.5070 O   0  0  0  0  0  0  0  0  0  0  0  0
   39.5426   23.9891   25.0908 C   0  0  0  0  0  0  0  0  0  0  0  0
   39.1545   25.1184   24.6407 N   0  0  0  0  0  0  0  0  0  0  0  0
   37.9400   25.1119   24.3046 C   0  0  0  0  0  0  0  0  0  0  0  0
   37.2655   23.8116   24.5736 C   0  0  1  0  0  0  0  0  0  0  0  0
   38.4356   22.9966   25.1306 C   0  0  2  0  0  0  0  0  0  0  0  0
  1  2  1  0  0  0  0
  2  3  1  0  0  0  0
  3 20  1  0  0  0  0
  4  5  1  0  0  0  0
  6  7  2  0  0  0  0
  6 12  1  0  0  0  0
  7  8  1  0  0  0  0
  8  9  2  0  0  0  0
  9 11  1  0  0  0  0
 10  5  1  6  0  0  0
 10 11  1  0  0  0  0
 10 16  1  0  0  0  0
 10 27  1  0  0  0  0
 11 12  2  0  0  0  0
 13 12  1  1  0  0  0
 13 15  1  0  0  0  0
 13 28  1  0  0  0  0
 14 15  2  0  0  0  0
 14 19  1  0  0  0  0
 15 16  1  0  0  0  0
 16 17  2  0  0  0  0
 17 18  1  0  0  0  0
 18 19  2  0  0  0  0
 20 21  1  0  0  0  0
 21 25  1  0  0  0  0
 22 26  2  0  0  0  0
 23 24  2  0  0  0  0
 24 25  1  0  0  0  0
 25 26  1  0  0  0  0
 27 26  1  1  0  0  0
 27 28  1  0  0  0  0
 28 24  1  1  0  0  0
M  END
>  <CHROM.1>
-174.38718819,-59.25652975,177.21602539,-174.24201653,75.76985184,38.07141458
24.33380723,25.53318566,-0.54295914,-0.50032635,-3.10787746

>  <Name>
ligand

>  <RI>
0

>  <Rbt.Current_Directory>
/home/itssahil/PROJECTS/Mol_Feturizer/New_Systems/rnas/1YLS

>  <Rbt.Executable>
rbdock ($Id: //depot/dev/client3/rdock/2013.1/src/exe/rbdock.cxx#4 $)

>  <Rbt.Library>
libRbt.so (2013.1, Build901 2013/11/27)

>  <Rbt.Parameter_File>
/export/apps/rDock/src/rDock_2013.1_src/data/scripts/dock_solv.prm

>  <Rbt.Receptor>
prm/pocket_docking_4.prm

>  <SCORE>
-38.4285

>  <SCORE.INTER>
-33.7059

>  <SCORE.INTER.CONST>
1

>  <SCORE.INTER.POLAR>
0

>  <SCORE.INTER.ROT>
5

>  <SCORE.INTER.SOLV>
7.45578

>  <SCORE.INTER.VDW>
-31.8892

>  <SCORE.INTER.norm>
-1.20378

>  <SCORE.INTRA>
-4.72263

>  <SCORE.INTRA.DIHEDRAL>
-9.44799

>  <SCORE.INTRA.DIHEDRAL.0>
12.0148

>  <SCORE.INTRA.POLAR>
0

>  <SCORE.INTRA.POLAR.0>
0

>  <SCORE.INTRA.REPUL>
0

>  <SCORE.INTRA.REPUL.0>
0

>  <SCORE.INTRA.SOLV>
-0.0339137

>  <SCORE.INTRA.SOLV.lig_0>
-10.5235

>  <SCORE.INTRA.VDW>
0.0183213

>  <SCORE.INTRA.VDW.0>
-1.38455

>  <SCORE.INTRA.norm>
-0.168665

>  <SCORE.RESTR>
0

>  <SCORE.RESTR.CAVITY>
0

>  <SCORE.RESTR.norm>
0

>  <SCORE.SYSTEM>
0

>  <SCORE.SYSTEM.CONST>
0

>  <SCORE.SYSTEM.DIHEDRAL>
0

>  <SCORE.SYSTEM.SOLV>
0

>  <SCORE.SYSTEM.norm>
0

>  <SCORE.heavy>
28

>  <SCORE.norm>
-1.37245

>  <RMSD>
0.819

$$$$
ligand
 OpenBabel11021811413D
libRbt.so/2013.1/901 2013/11/27
 28 32  0  0  0  0  0  0  0  0999 V2000
   44.1502   27.8160   22.1312 C   0  0  0  0  0  0  0  0  0  0  0  0
   42.9784   26.8544   22.1390 C   0  0  0  0  0  0  0  0  0  0  0  0
   42.0723   27.0831   23.3396 C   0  0  0  0  0  0  0  0  0  0  0  0
   33.9652   25.2143   26.2954 O   0  0  0  0  0  0  0  0  0  0  0  0
   34.9263   25.1246   25.2422 C   0  0  0  0  0  0  0  0  0  0  0  0
   38.6399   24.0275   28.2948 C   0  0  0  0  0  0  0  0  0  0  0  0
   38.4740   25.2289   28.9718 C   0  0  0  0  0  0  0  0  0  0  0  0
   37.4911   26.1282   28.5507 C   0  0  0  0  0  0  0  0  0  0  0  0
   36.6744   25.8283   27.4598 C   0  0  0  0  0  0  0  0  0  0  0  0
   36.0711   24.1773   25.6240 C   0  0  1  0  0  0  0  0  0  0  0  0
   36.8396   24.6204   26.8233 C   0  0  0  0  0  0  0  0  0  0  0  0
   37.8081   23.7416   27.2382 C   0  0  0  0  0  0  0  0  0  0  0  0
   37.9299   22.5375   26.4385 C   0  0  1  0  0  0  0  0  0  0  0  0
   36.3709   20.6074   26.6263 C   0  0  0  0  0  0  0  0  0  0  0  0
   36.6126   21.9322   26.3522 C   0  0  0  0  0  0  0  0  0  0  0  0
   35.6173   22.7726   25.9309 C   0  0  0  0  0  0  0  0  0  0  0  0
   34.3268   22.2901   25.7698 C   0  0  0  0  0  0  0  0  0  0  0  0
   34.0614   20.9510   26.0643 C   0  0  0  0  0  0  0  0  0  0  0  0
   35.0832   20.1146   26.4941 C   0  0  0  0  0  0  0  0  0  0  0  0
   40.9485   26.0552   23.3672 C   0  0  0  0  0  0  0  0  0  0  0  0
   40.1189   26.2063   24.6367 C   0  0  0  0  0  0  0  0  0  0  0  0
   37.4748   26.2760   23.9432 O   0  0  0  0  0  0  0  0  0  0  0  0
   40.5279   23.5203   25.4160 O   0  0  0  0  0  0  0  0  0  0  0  0
   39.4406   23.9194   25.0332 C   0  0  0  0  0  0  0  0  0  0  0  0
   39.1677   25.1063   24.6522 N   0  0  0  0  0  0  0  0  0  0  0  0
   37.9556   25.2448   24.3363 C   0  0  0  0  0  0  0  0  0  0  0  0
   37.1520   24.0083   24.5446 C   0  0  1  0  0  0  0  0  0  0  0  0
   38.2365   23.0464   25.0367 C   0  0  2  0  0  0  0  0  0  0  0  0
  1  2  1  0  0  0  0
  2  3  1  0  0  0  0
  3 20  1  0  0  0  0
  4  5  1  0  0  0  0
  6  7  2  0  0  0  0
  6 12  1  0  0  0  0
  7  8  1  0  0  0  0
  8  9  2  0  0  0  0
  9 11  1  0  0  0  0
 10  5  1  6  0  0  0
 10 11  1  0  0  0  0
 10 16  1  0  0  0  0
 10 27  1  0  0  0  0
 11 12  2  0  0  0  0
 13 12  1  1  0  0  0
 13 15  1  0  0  0  0
 13 28  1  0  0  0  0
 14 15  2  0  0  0  0
 14 19  1  0  0  0  0
 15 16  1  0  0  0  0
 16 17  2  0  0  0  0
 17 18  1  0  0  0  0
 18 19  2  0  0  0  0
 20 21  1  0  0  0  0
 21 25  1  0  0  0  0
 22 26  2  0  0  0  0
 23 24  2  0  0  0  0
 24 25  1  0  0  0  0
 25 26  1  0  0  0  0
 27 26  1  1  0  0  0
 27 28  1  0  0  0  0
 28 24  1  1  0  0  0
M  END
>  <CHROM.1>
-176.79758817,-61.52135947,174.81817783,-174.03471922,80.93521094,37.99932009
24.40241340,25.49898846,-0.42703752,-0.52942521,-2.98258103

>  <Name>
ligand

>  <RI>
0

>  <Rbt.Current_Directory>
/home/itssahil/PROJECTS/Mol_Feturizer/New_Systems/rnas/1YLS

>  <Rbt.Executable>
rbdock ($Id: //depot/dev/client3/rdock/2013.1/src/exe/rbdock.cxx#4 $)

>  <Rbt.Library>
libRbt.so (2013.1, Build901 2013/11/27)

>  <Rbt.Parameter_File>
/export/apps/rDock/src/rDock_2013.1_src/data/scripts/dock_solv.prm

>  <Rbt.Receptor>
prm/pocket_docking_7.prm

>  <SCORE>
-38.5938

>  <SCORE.INTER>
-33.8105

>  <SCORE.INTER.CONST>
1

>  <SCORE.INTER.POLAR>
0

>  <SCORE.INTER.ROT>
5

>  <SCORE.INTER.SOLV>
7.41648

>  <SCORE.INTER.VDW>
-31.9459

>  <SCORE.INTER.norm>
-1.20752

>  <SCORE.INTRA>
-4.78323

>  <SCORE.INTRA.DIHEDRAL>
-9.4836

>  <SCORE.INTRA.DIHEDRAL.0>
12.0148

>  <SCORE.INTRA.POLAR>
0

>  <SCORE.INTRA.POLAR.0>
0

>  <SCORE.INTRA.REPUL>
0

>  <SCORE.INTRA.REPUL.0>
0

>  <SCORE.INTRA.SOLV>
-0.0436199

>  <SCORE.INTRA.SOLV.lig_0>
-10.5235

>  <SCORE.INTRA.VDW>
-0.0196155

>  <SCORE.INTRA.VDW.0>
-1.38455

>  <SCORE.INTRA.norm>
-0.17083

>  <SCORE.RESTR>
0

>  <SCORE.RESTR.CAVITY>
0

>  <SCORE.RESTR.norm>
0

>  <SCORE.SYSTEM>
0

>  <SCORE.SYSTEM.CONST>
0

>  <SCORE.SYSTEM.DIHEDRAL>
0

>  <SCORE.SYSTEM.SOLV>
0

>  <SCORE.SYSTEM.norm>
0

>  <SCORE.heavy>
28

>  <SCORE.norm>
-1.37835

>  <RMSD>
0.819

$$$$
ligand
 OpenBabel11021811413D
libRbt.so/2013.1/901 2013/11/27
 28 32  0  0  0  0  0  0  0  0999 V2000
   44.0515   28.1287   22.1947 C   0  0  0  0  0  0  0  0  0  0  0  0
   43.0488   26.9941   22.2671 C   0  0  0  0  0  0  0  0  0  0  0  0
   42.0297   27.2151   23.3750 C   0  0  0  0  0  0  0  0  0  0  0  0
   34.0345   24.4829   26.0200 O   0  0  0  0  0  0  0  0  0  0  0  0
   35.0953   24.4570   25.0634 C   0  0  0  0  0  0  0  0  0  0  0  0
   38.6747   24.2757   28.4498 C   0  0  0  0  0  0  0  0  0  0  0  0
   38.2917   25.5096   28.9599 C   0  0  0  0  0  0  0  0  0  0  0  0
   37.2297   26.2003   28.3704 C   0  0  0  0  0  0  0  0  0  0  0  0
   36.5503   25.6602   27.2779 C   0  0  0  0  0  0  0  0  0  0  0  0
   36.3267   23.7383   25.6297 C   0  0  1  0  0  0  0  0  0  0  0  0
   36.9304   24.4245   26.8088 C   0  0  0  0  0  0  0  0  0  0  0  0
   37.9757   23.7511   27.3886 C   0  0  0  0  0  0  0  0  0  0  0  0
   38.3251   22.4940   26.7548 C   0  0  1  0  0  0  0  0  0  0  0  0
   37.0383   20.3905   27.0872 C   0  0  0  0  0  0  0  0  0  0  0  0
   37.1150   21.6959   26.6647 C   0  0  0  0  0  0  0  0  0  0  0  0
   36.0490   22.3270   26.0818 C   0  0  0  0  0  0  0  0  0  0  0  0
   34.8543   21.6449   25.9040 C   0  0  0  0  0  0  0  0  0  0  0  0
   34.7546   20.3243   26.3469 C   0  0  0  0  0  0  0  0  0  0  0  0
   35.8455   19.7020   26.9395 C   0  0  0  0  0  0  0  0  0  0  0  0
   41.0881   26.0228   23.4835 C   0  0  0  0  0  0  0  0  0  0  0  0
   40.1196   26.2124   24.6449 C   0  0  0  0  0  0  0  0  0  0  0  0
   37.5537   25.8128   23.7883 O   0  0  0  0  0  0  0  0  0  0  0  0
   40.8341   23.7232   25.7775 O   0  0  0  0  0  0  0  0  0  0  0  0
   39.7353   23.9117   25.2823 C   0  0  0  0  0  0  0  0  0  0  0  0
   39.3315   24.9939   24.7399 N   0  0  0  0  0  0  0  0  0  0  0  0
   38.1404   24.9155   24.3358 C   0  0  0  0  0  0  0  0  0  0  0  0
   37.5017   23.6068   24.6479 C   0  0  1  0  0  0  0  0  0  0  0  0
   38.6670   22.8776   25.3216 C   0  0  2  0  0  0  0  0  0  0  0  0
  1  2  1  0  0  0  0
  2  3  1  0  0  0  0
  3 20  1  0  0  0  0
  4  5  1  0  0  0  0
  6  7  2  0  0  0  0
  6 12  1  0  0  0  0
  7  8  1  0  0  0  0
  8  9  2  0  0  0  0
  9 11  1  0  0  0  0
 10  5  1  6  0  0  0
 10 11  1  0  0  0  0
 10 16  1  0  0  0  0
 10 27  1  0  0  0  0
 11 12  2  0  0  0  0
 13 12  1  1  0  0  0
 13 15  1  0  0  0  0
 13 28  1  0  0  0  0
 14 15  2  0  0  0  0
 14 19  1  0  0  0  0
 15 16  1  0  0  0  0
 16 17  2  0  0  0  0
 17 18  1  0  0  0  0
 18 19  2  0  0  0  0
 20 21  1  0  0  0  0
 21 25  1  0  0  0  0
 22 26  2  0  0  0  0
 23 24  2  0  0  0  0
 24 25  1  0  0  0  0
 25 26  1  0  0  0  0
 27 26  1  1  0  0  0
 27 28  1  0  0  0  0
 28 24  1  1  0  0  0
M  END
>  <CHROM.1>
-176.48481365,-63.60253574,176.78484423,-175.76750665,79.25510248,38.20864703
24.22762886,25.59533429,-0.59750281,-0.46510592,3.09603107

>  <Name>
ligand

>  <RI>
0

>  <Rbt.Current_Directory>
/home/itssahil/PROJECTS/Mol_Feturizer/New_Systems/rnas/1YLS

>  <Rbt.Executable>
rbdock ($Id: //depot/dev/client3/rdock/2013.1/src/exe/rbdock.cxx#4 $)

>  <Rbt.Library>
libRbt.so (2013.1, Build901 2013/11/27)

>  <Rbt.Parameter_File>
/export/apps/rDock/src/rDock_2013.1_src/data/scripts/dock_solv.prm

>  <Rbt.Receptor>
prm/pocket_docking_5.prm

>  <SCORE>
-38.5698

>  <SCORE.INTER>
-33.7535

>  <SCORE.INTER.CONST>
1

>  <SCORE.INTER.POLAR>
0

>  <SCORE.INTER.ROT>
5

>  <SCORE.INTER.SOLV>
6.94021

>  <SCORE.INTER.VDW>
-31.7491

>  <SCORE.INTER.norm>
-1.20548

>  <SCORE.INTRA>
-4.81631

>  <SCORE.INTRA.DIHEDRAL>
-9.57225

>  <SCORE.INTRA.DIHEDRAL.0>
12.0148

>  <SCORE.INTRA.POLAR>
0

>  <SCORE.INTRA.POLAR.0>
0

>  <SCORE.INTRA.REPUL>
0

>  <SCORE.INTRA.REPUL.0>
0

>  <SCORE.INTRA.SOLV>
-0.0434281

>  <SCORE.INTRA.SOLV.lig_0>
-10.5235

>  <SCORE.INTRA.VDW>
-0.00847493

>  <SCORE.INTRA.VDW.0>
-1.38455

>  <SCORE.INTRA.norm>
-0.172011

>  <SCORE.RESTR>
0

>  <SCORE.RESTR.CAVITY>
0

>  <SCORE.RESTR.norm>
0

>  <SCORE.SYSTEM>
0

>  <SCORE.SYSTEM.CONST>
0

>  <SCORE.SYSTEM.DIHEDRAL>
0

>  <SCORE.SYSTEM.SOLV>
0

>  <SCORE.SYSTEM.norm>
0

>  <SCORE.heavy>
28

>  <SCORE.norm>
-1.37749

>  <RMSD>
0.821

$$$$
ligand
 OpenBabel11021811413D
libRbt.so/2013.1/901 2013/11/27
 28 32  0  0  0  0  0  0  0  0999 V2000
   44.1414   27.8262   22.1425 C   0  0  0  0  0  0  0  0  0  0  0  0
   42.9636   26.8719   22.1379 C   0  0  0  0  0  0  0  0  0  0  0  0
   42.0553   27.0951   23.3379 C   0  0  0  0  0  0  0  0  0  0  0  0
   33.9355   25.1990   26.2838 O   0  0  0  0  0  0  0  0  0  0  0  0
   34.8980   25.1153   25.2314 C   0  0  0  0  0  0  0  0  0  0  0  0
   38.6239   24.0597   28.2836 C   0  0  0  0  0  0  0  0  0  0  0  0
   38.4499   25.2627   28.9556 C   0  0  0  0  0  0  0  0  0  0  0  0
   37.4597   26.1527   28.5318 C   0  0  0  0  0  0  0  0  0  0  0  0
   36.6438   25.8419   27.4434 C   0  0  0  0  0  0  0  0  0  0  0  0
   36.0504   24.1783   25.6157 C   0  0  1  0  0  0  0  0  0  0  0  0
   36.8172   24.6325   26.8120 C   0  0  0  0  0  0  0  0  0  0  0  0
   37.7929   23.7628   27.2294 C   0  0  0  0  0  0  0  0  0  0  0  0
   37.9227   22.5562   26.4349 C   0  0  1  0  0  0  0  0  0  0  0  0
   36.3785   20.6152   26.6333 C   0  0  0  0  0  0  0  0  0  0  0  0
   36.6098   21.9406   26.3531 C   0  0  0  0  0  0  0  0  0  0  0  0
   35.6076   22.7716   25.9295 C   0  0  0  0  0  0  0  0  0  0  0  0
   34.3206   22.2787   25.7723 C   0  0  0  0  0  0  0  0  0  0  0  0
   34.0657   20.9390   26.0731 C   0  0  0  0  0  0  0  0  0  0  0  0
   35.0943   20.1121   26.5051 C   0  0  0  0  0  0  0  0  0  0  0  0
   40.9398   26.0583   23.3667 C   0  0  0  0  0  0  0  0  0  0  0  0
   40.0815   26.2333   24.6139 C   0  0  0  0  0  0  0  0  0  0  0  0
   37.4360   26.2801   23.9238 O   0  0  0  0  0  0  0  0  0  0  0  0
   40.5117   23.5539   25.4044 O   0  0  0  0  0  0  0  0  0  0  0  0
   39.4210   23.9432   25.0213 C   0  0  0  0  0  0  0  0  0  0  0  0
   39.1386   25.1263   24.6355 N   0  0  0  0  0  0  0  0  0  0  0  0
   37.9251   25.2542   24.3207 C   0  0  0  0  0  0  0  0  0  0  0  0
   37.1311   24.0127   24.5356 C   0  0  1  0  0  0  0  0  0  0  0  0
   38.2234   23.0612   25.0304 C   0  0  2  0  0  0  0  0  0  0  0  0
  1  2  1  0  0  0  0
  2  3  1  0  0  0  0
  3 20  1  0  0  0  0
  4  5  1  0  0  0  0
  6  7  2  0  0  0  0
  6 12  1  0  0  0  0
  7  8  1  0  0  0  0
  8  9  2  0  0  0  0
  9 11  1  0  0  0  0
 10  5  1  6  0  0  0
 10 11  1  0  0  0  0
 10 16  1  0  0  0  0
 10 27  1  0  0  0  0
 11 12  2  0  0  0  0
 13 12  1  1  0  0  0
 13 15  1  0  0  0  0
 13 28  1  0  0  0  0
 14 15  2  0  0  0  0
 14 19  1  0  0  0  0
 15 16  1  0  0  0  0
 16 17  2  0  0  0  0
 17 18  1  0  0  0  0
 18 19  2  0  0  0  0
 20 21  1  0  0  0  0
 21 25  1  0  0  0  0
 22 26  2  0  0  0  0
 23 24  2  0  0  0  0
 24 25  1  0  0  0  0
 25 26  1  0  0  0  0
 27 26  1  1  0  0  0
 27 28  1  0  0  0  0
 28 24  1  1  0  0  0
M  END
>  <CHROM.1>
-175.76104696,-61.70803866,176.62982459,-174.08012033,79.18596405,37.98185918
24.41313154,25.49192867,-0.43433623,-0.52480195,-2.99443694

>  <Name>
ligand

>  <RI>
0

>  <Rbt.Current_Directory>
/home/itssahil/PROJECTS/Mol_Feturizer/New_Systems/rnas/1YLS

>  <Rbt.Executable>
rbdock ($Id: //depot/dev/client3/rdock/2013.1/src/exe/rbdock.cxx#4 $)

>  <Rbt.Library>
libRbt.so (2013.1, Build901 2013/11/27)

>  <Rbt.Parameter_File>
/export/apps/rDock/src/rDock_2013.1_src/data/scripts/dock_solv.prm

>  <Rbt.Receptor>
prm/pocket_docking_2.prm

>  <SCORE>
-38.6162

>  <SCORE.INTER>
-33.8254

>  <SCORE.INTER.CONST>
1

>  <SCORE.INTER.POLAR>
0

>  <SCORE.INTER.ROT>
5

>  <SCORE.INTER.SOLV>
7.45531

>  <SCORE.INTER.VDW>
-31.9687

>  <SCORE.INTER.norm>
-1.20805

>  <SCORE.INTRA>
-4.7908

>  <SCORE.INTRA.DIHEDRAL>
-9.50684

>  <SCORE.INTRA.DIHEDRAL.0>
12.0148

>  <SCORE.INTRA.POLAR>
0

>  <SCORE.INTRA.POLAR.0>
0

>  <SCORE.INTRA.REPUL>
0

>  <SCORE.INTRA.REPUL.0>
0

>  <SCORE.INTRA.SOLV>
-0.0409911

>  <SCORE.INTRA.SOLV.lig_0>
-10.5235

>  <SCORE.INTRA.VDW>
-0.016881

>  <SCORE.INTRA.VDW.0>
-1.38455

>  <SCORE.INTRA.norm>
-0.1711

>  <SCORE.RESTR>
0

>  <SCORE.RESTR.CAVITY>
0

>  <SCORE.RESTR.norm>
0

>  <SCORE.SYSTEM>
0

>  <SCORE.SYSTEM.CONST>
0

>  <SCORE.SYSTEM.DIHEDRAL>
0

>  <SCORE.SYSTEM.SOLV>
0

>  <SCORE.SYSTEM.norm>
0

>  <SCORE.heavy>
28

>  <SCORE.norm>
-1.37915

>  <RMSD>
0.825

$$$$
ligand
 OpenBabel11021811413D
libRbt.so/2013.1/901 2013/11/27
 28 32  0  0  0  0  0  0  0  0999 V2000
   44.1156   27.8904   22.1412 C   0  0  0  0  0  0  0  0  0  0  0  0
   42.9517   26.9191   22.1397 C   0  0  0  0  0  0  0  0  0  0  0  0
   42.0236   27.1530   23.3224 C   0  0  0  0  0  0  0  0  0  0  0  0
   33.9353   25.2248   26.2762 O   0  0  0  0  0  0  0  0  0  0  0  0
   34.8965   25.1358   25.2230 C   0  0  0  0  0  0  0  0  0  0  0  0
   38.6137   24.0753   28.2841 C   0  0  0  0  0  0  0  0  0  0  0  0
   38.4380   25.2775   28.9574 C   0  0  0  0  0  0  0  0  0  0  0  0
   37.4490   26.1682   28.5321 C   0  0  0  0  0  0  0  0  0  0  0  0
   36.6361   25.8590   27.4409 C   0  0  0  0  0  0  0  0  0  0  0  0
   36.0477   24.1981   25.6093 C   0  0  1  0  0  0  0  0  0  0  0  0
   36.8112   24.6505   26.8083 C   0  0  0  0  0  0  0  0  0  0  0  0
   37.7856   23.7801   27.2272 C   0  0  0  0  0  0  0  0  0  0  0  0
   37.9174   22.5746   26.4314 C   0  0  1  0  0  0  0  0  0  0  0  0
   36.3725   20.6336   26.6227 C   0  0  0  0  0  0  0  0  0  0  0  0
   36.6047   21.9592   26.3450 C   0  0  0  0  0  0  0  0  0  0  0  0
   35.6038   22.7910   25.9198 C   0  0  0  0  0  0  0  0  0  0  0  0
   34.3172   22.2985   25.7583 C   0  0  0  0  0  0  0  0  0  0  0  0
   34.0613   20.9584   26.0564 C   0  0  0  0  0  0  0  0  0  0  0  0
   35.0886   20.1308   26.4902 C   0  0  0  0  0  0  0  0  0  0  0  0
   40.9402   26.0836   23.3739 C   0  0  0  0  0  0  0  0  0  0  0  0
   40.0818   26.2540   24.6217 C   0  0  0  0  0  0  0  0  0  0  0  0
   37.4383   26.3021   23.9242 O   0  0  0  0  0  0  0  0  0  0  0  0
   40.5095   23.5735   25.4095 O   0  0  0  0  0  0  0  0  0  0  0  0
   39.4199   23.9634   25.0240 C   0  0  0  0  0  0  0  0  0  0  0  0
   39.1388   25.1472   24.6391 N   0  0  0  0  0  0  0  0  0  0  0  0
   37.9262   25.2756   24.3210 C   0  0  0  0  0  0  0  0  0  0  0  0
   37.1314   24.0339   24.5320 C   0  0  1  0  0  0  0  0  0  0  0  0
   38.2222   23.0815   25.0284 C   0  0  2  0  0  0  0  0  0  0  0  0
  1  2  1  0  0  0  0
  2  3  1  0  0  0  0
  3 20  1  0  0  0  0
  4  5  1  0  0  0  0
  6  7  2  0  0  0  0
  6 12  1  0  0  0  0
  7  8  1  0  0  0  0
  8  9  2  0  0  0  0
  9 11  1  0  0  0  0
 10  5  1  6  0  0  0
 10 11  1  0  0  0  0
 10 16  1  0  0  0  0
 10 27  1  0  0  0  0
 11 12  2  0  0  0  0
 13 12  1  1  0  0  0
 13 15  1  0  0  0  0
 13 28  1  0  0  0  0
 14 15  2  0  0  0  0
 14 19  1  0  0  0  0
 15 16  1  0  0  0  0
 16 17  2  0  0  0  0
 17 18  1  0  0  0  0
 18 19  2  0  0  0  0
 20 21  1  0  0  0  0
 21 25  1  0  0  0  0
 22 26  2  0  0  0  0
 23 24  2  0  0  0  0
 24 25  1  0  0  0  0
 25 26  1  0  0  0  0
 27 26  1  1  0  0  0
 27 28  1  0  0  0  0
 28 24  1  1  0  0  0
M  END
>  <CHROM.1>
-174.55967975,-61.33800355,175.39823834,-176.21350974,79.39218229,37.97609980
24.43718924,25.48860131,-0.43795360,-0.52567763,-2.99379696

>  <Name>
ligand

>  <RI>
0

>  <Rbt.Current_Directory>
/home/itssahil/PROJECTS/Mol_Feturizer/New_Systems/rnas/1YLS

>  <Rbt.Executable>
rbdock ($Id: //depot/dev/client3/rdock/2013.1/src/exe/rbdock.cxx#4 $)

>  <Rbt.Library>
libRbt.so (2013.1, Build901 2013/11/27)

>  <Rbt.Parameter_File>
/export/apps/rDock/src/rDock_2013.1_src/data/scripts/dock_solv.prm

>  <Rbt.Receptor>
prm/pocket_docking_2.prm

>  <SCORE>
-38.5746

>  <SCORE.INTER>
-33.7841

>  <SCORE.INTER.CONST>
1

>  <SCORE.INTER.POLAR>
0

>  <SCORE.INTER.ROT>
5

>  <SCORE.INTER.SOLV>
7.47726

>  <SCORE.INTER.VDW>
-31.9485

>  <SCORE.INTER.norm>
-1.20658

>  <SCORE.INTRA>
-4.7905

>  <SCORE.INTRA.DIHEDRAL>
-9.49872

>  <SCORE.INTRA.DIHEDRAL.0>
12.0148

>  <SCORE.INTRA.POLAR>
0

>  <SCORE.INTRA.POLAR.0>
0

>  <SCORE.INTRA.REPUL>
0

>  <SCORE.INTRA.REPUL.0>
0

>  <SCORE.INTRA.SOLV>
-0.0441936

>  <SCORE.INTRA.SOLV.lig_0>
-10.5235

>  <SCORE.INTRA.VDW>
-0.0190463

>  <SCORE.INTRA.VDW.0>
-1.38455

>  <SCORE.INTRA.norm>
-0.171089

>  <SCORE.RESTR>
0

>  <SCORE.RESTR.CAVITY>
0

>  <SCORE.RESTR.norm>
0

>  <SCORE.SYSTEM>
0

>  <SCORE.SYSTEM.CONST>
0

>  <SCORE.SYSTEM.DIHEDRAL>
0

>  <SCORE.SYSTEM.SOLV>
0

>  <SCORE.SYSTEM.norm>
0

>  <SCORE.heavy>
28

>  <SCORE.norm>
-1.37766

>  <RMSD>
0.827

$$$$
ligand
 OpenBabel11021811413D
libRbt.so/2013.1/901 2013/11/27
 28 32  0  0  0  0  0  0  0  0999 V2000
   44.0194   28.1224   22.1948 C   0  0  0  0  0  0  0  0  0  0  0  0
   42.9523   27.0459   22.2095 C   0  0  0  0  0  0  0  0  0  0  0  0
   41.9694   27.2451   23.3537 C   0  0  0  0  0  0  0  0  0  0  0  0
   33.9879   24.5886   26.0810 O   0  0  0  0  0  0  0  0  0  0  0  0
   35.0119   24.5258   25.0867 C   0  0  0  0  0  0  0  0  0  0  0  0
   38.6502   24.2731   28.4051 C   0  0  0  0  0  0  0  0  0  0  0  0
   38.2833   25.5010   28.9408 C   0  0  0  0  0  0  0  0  0  0  0  0
   37.2149   26.2064   28.3812 C   0  0  0  0  0  0  0  0  0  0  0  0
   36.5130   25.6868   27.2929 C   0  0  0  0  0  0  0  0  0  0  0  0
   36.2492   23.7919   25.6198 C   0  0  1  0  0  0  0  0  0  0  0  0
   36.8777   24.4566   26.7981 C   0  0  0  0  0  0  0  0  0  0  0  0
   37.9294   23.7687   27.3487 C   0  0  0  0  0  0  0  0  0  0  0  0
   38.2603   22.5197   26.6895 C   0  0  1  0  0  0  0  0  0  0  0  0
   36.9679   20.4182   27.0127 C   0  0  0  0  0  0  0  0  0  0  0  0
   37.0444   21.7296   26.6090 C   0  0  0  0  0  0  0  0  0  0  0  0
   35.9717   22.3752   26.0550 C   0  0  0  0  0  0  0  0  0  0  0  0
   34.7702   21.7024   25.8883 C   0  0  0  0  0  0  0  0  0  0  0  0
   34.6709   20.3757   26.3127 C   0  0  0  0  0  0  0  0  0  0  0  0
   35.7688   19.7385   26.8759 C   0  0  0  0  0  0  0  0  0  0  0  0
   40.9936   26.0781   23.4321 C   0  0  0  0  0  0  0  0  0  0  0  0
   40.0376   26.2605   24.6050 C   0  0  0  0  0  0  0  0  0  0  0  0
   37.4546   25.8880   23.7886 O   0  0  0  0  0  0  0  0  0  0  0  0
   40.7583   23.7504   25.6862 O   0  0  0  0  0  0  0  0  0  0  0  0
   39.6519   23.9524   25.2138 C   0  0  0  0  0  0  0  0  0  0  0  0
   39.2445   25.0450   24.6954 N   0  0  0  0  0  0  0  0  0  0  0  0
   38.0459   24.9792   24.3117 C   0  0  0  0  0  0  0  0  0  0  0  0
   37.4056   23.6693   24.6150 C   0  0  1  0  0  0  0  0  0  0  0  0
   38.5787   22.9235   25.2564 C   0  0  2  0  0  0  0  0  0  0  0  0
  1  2  1  0  0  0  0
  2  3  1  0  0  0  0
  3 20  1  0  0  0  0
  4  5  1  0  0  0  0
  6  7  2  0  0  0  0
  6 12  1  0  0  0  0
  7  8  1  0  0  0  0
  8  9  2  0  0  0  0
  9 11  1  0  0  0  0
 10  5  1  6  0  0  0
 10 11  1  0  0  0  0
 10 16  1  0  0  0  0
 10 27  1  0  0  0  0
 11 12  2  0  0  0  0
 13 12  1  1  0  0  0
 13 15  1  0  0  0  0
 13 28  1  0  0  0  0
 14 15  2  0  0  0  0
 14 19  1  0  0  0  0
 15 16  1  0  0  0  0
 16 17  2  0  0  0  0
 17 18  1  0  0  0  0
 18 19  2  0  0  0  0
 20 21  1  0  0  0  0
 21 25  1  0  0  0  0
 22 26  2  0  0  0  0
 23 24  2  0  0  0  0
 24 25  1  0  0  0  0
 25 26  1  0  0  0  0
 27 26  1  1  0  0  0
 27 28  1  0  0  0  0
 28 24  1  1  0  0  0
M  END
>  <CHROM.1>
-174.30863516,-61.32061122,178.28978238,-173.93184765,78.70773071,38.13994797
24.26878279,25.56576300,-0.58646180,-0.47757968,3.11571885

>  <Name>
ligand

>  <RI>
0

>  <Rbt.Current_Directory>
/home/itssahil/PROJECTS/Mol_Feturizer/New_Systems/rnas/1YLS

>  <Rbt.Executable>
rbdock ($Id: //depot/dev/client3/rdock/2013.1/src/exe/rbdock.cxx#4 $)

>  <Rbt.Library>
libRbt.so (2013.1, Build901 2013/11/27)

>  <Rbt.Parameter_File>
/export/apps/rDock/src/rDock_2013.1_src/data/scripts/dock_solv.prm

>  <Rbt.Receptor>
prm/pocket_docking_4.prm

>  <SCORE>
-38.4794

>  <SCORE.INTER>
-33.7104

>  <SCORE.INTER.CONST>
1

>  <SCORE.INTER.POLAR>
0

>  <SCORE.INTER.ROT>
5

>  <SCORE.INTER.SOLV>
7.19153

>  <SCORE.INTER.VDW>
-31.8041

>  <SCORE.INTER.norm>
-1.20394

>  <SCORE.INTRA>
-4.76899

>  <SCORE.INTRA.DIHEDRAL>
-9.4752

>  <SCORE.INTRA.DIHEDRAL.0>
12.0148

>  <SCORE.INTRA.POLAR>
0

>  <SCORE.INTRA.POLAR.0>
0

>  <SCORE.INTRA.REPUL>
0

>  <SCORE.INTRA.REPUL.0>
0

>  <SCORE.INTRA.SOLV>
-0.0400454

>  <SCORE.INTRA.SOLV.lig_0>
-10.5235

>  <SCORE.INTRA.VDW>
-0.0113698

>  <SCORE.INTRA.VDW.0>
-1.38455

>  <SCORE.INTRA.norm>
-0.170321

>  <SCORE.RESTR>
0

>  <SCORE.RESTR.CAVITY>
0

>  <SCORE.RESTR.norm>
0

>  <SCORE.SYSTEM>
0

>  <SCORE.SYSTEM.CONST>
0

>  <SCORE.SYSTEM.DIHEDRAL>
0

>  <SCORE.SYSTEM.SOLV>
0

>  <SCORE.SYSTEM.norm>
0

>  <SCORE.heavy>
28

>  <SCORE.norm>
-1.37426

>  <RMSD>
0.831

$$$$
ligand
 OpenBabel11021811413D
libRbt.so/2013.1/901 2013/11/27
 28 32  0  0  0  0  0  0  0  0999 V2000
   44.0579   28.0371   22.2341 C   0  0  0  0  0  0  0  0  0  0  0  0
   43.0088   26.9433   22.2652 C   0  0  0  0  0  0  0  0  0  0  0  0
   41.9721   27.1903   23.3511 C   0  0  0  0  0  0  0  0  0  0  0  0
   33.9588   24.6630   26.1410 O   0  0  0  0  0  0  0  0  0  0  0  0
   34.9594   24.5912   25.1238 C   0  0  0  0  0  0  0  0  0  0  0  0
   38.6533   24.2112   28.3678 C   0  0  0  0  0  0  0  0  0  0  0  0
   38.3202   25.4362   28.9315 C   0  0  0  0  0  0  0  0  0  0  0  0
   37.2554   26.1714   28.4045 C   0  0  0  0  0  0  0  0  0  0  0  0
   36.5234   25.6845   27.3209 C   0  0  0  0  0  0  0  0  0  0  0  0
   36.1920   23.8247   25.6206 C   0  0  1  0  0  0  0  0  0  0  0  0
   36.8551   24.4565   26.7981 C   0  0  0  0  0  0  0  0  0  0  0  0
   37.9034   23.7392   27.3166 C   0  0  0  0  0  0  0  0  0  0  0  0
   38.1979   22.4960   26.6298 C   0  0  1  0  0  0  0  0  0  0  0  0
   36.8715   20.4140   26.9411 C   0  0  0  0  0  0  0  0  0  0  0  0
   36.9657   21.7306   26.5587 C   0  0  0  0  0  0  0  0  0  0  0  0
   35.8955   22.4061   26.0365 C   0  0  0  0  0  0  0  0  0  0  0  0
   34.6784   21.7592   25.8809 C   0  0  0  0  0  0  0  0  0  0  0  0
   34.5615   20.4273   26.2841 C   0  0  0  0  0  0  0  0  0  0  0  0
   35.6572   19.7596   26.8153 C   0  0  0  0  0  0  0  0  0  0  0  0
   41.0003   26.0209   23.4410 C   0  0  0  0  0  0  0  0  0  0  0  0
   40.0078   26.2387   24.5770 C   0  0  0  0  0  0  0  0  0  0  0  0
   37.4034   25.9296   23.8034 O   0  0  0  0  0  0  0  0  0  0  0  0
   40.7000   23.6967   25.6009 O   0  0  0  0  0  0  0  0  0  0  0  0
   39.5891   23.9279   25.1530 C   0  0  0  0  0  0  0  0  0  0  0  0
   39.1933   25.0370   24.6614 N   0  0  0  0  0  0  0  0  0  0  0  0
   37.9867   25.0007   24.2994 C   0  0  0  0  0  0  0  0  0  0  0  0
   37.3271   23.6980   24.5921 C   0  0  1  0  0  0  0  0  0  0  0  0
   38.4973   22.9190   25.1982 C   0  0  2  0  0  0  0  0  0  0  0  0
  1  2  1  0  0  0  0
  2  3  1  0  0  0  0
  3 20  1  0  0  0  0
  4  5  1  0  0  0  0
  6  7  2  0  0  0  0
  6 12  1  0  0  0  0
  7  8  1  0  0  0  0
  8  9  2  0  0  0  0
  9 11  1  0  0  0  0
 10  5  1  6  0  0  0
 10 11  1  0  0  0  0
 10 16  1  0  0  0  0
 10 27  1  0  0  0  0
 11 12  2  0  0  0  0
 13 12  1  1  0  0  0
 13 15  1  0  0  0  0
 13 28  1  0  0  0  0
 14 15  2  0  0  0  0
 14 19  1  0  0  0  0
 15 16  1  0  0  0  0
 16 17  2  0  0  0  0
 17 18  1  0  0  0  0
 18 19  2  0  0  0  0
 20 21  1  0  0  0  0
 21 25  1  0  0  0  0
 22 26  2  0  0  0  0
 23 24  2  0  0  0  0
 24 25  1  0  0  0  0
 25 26  1  0  0  0  0
 27 26  1  1  0  0  0
 27 28  1  0  0  0  0
 28 24  1  1  0  0  0
M  END
>  <CHROM.1>
-175.15830877,-60.96223283,177.07059455,-175.50654730,75.05410866,38.10201217
24.26095313,25.55229261,-0.56399341,-0.47739232,3.13458772

>  <Name>
ligand

>  <RI>
0

>  <Rbt.Current_Directory>
/home/itssahil/PROJECTS/Mol_Feturizer/New_Systems/rnas/1YLS

>  <Rbt.Executable>
rbdock ($Id: //depot/dev/client3/rdock/2013.1/src/exe/rbdock.cxx#4 $)

>  <Rbt.Library>
libRbt.so (2013.1, Build901 2013/11/27)

>  <Rbt.Parameter_File>
/export/apps/rDock/src/rDock_2013.1_src/data/scripts/dock_solv.prm

>  <Rbt.Receptor>
prm/pocket_docking_8.prm

>  <SCORE>
-38.4444

>  <SCORE.INTER>
-33.6928

>  <SCORE.INTER.CONST>
1

>  <SCORE.INTER.POLAR>
0

>  <SCORE.INTER.ROT>
5

>  <SCORE.INTER.SOLV>
7.31544

>  <SCORE.INTER.VDW>
-31.8337

>  <SCORE.INTER.norm>
-1.20331

>  <SCORE.INTRA>
-4.75159

>  <SCORE.INTRA.DIHEDRAL>
-9.52699

>  <SCORE.INTRA.DIHEDRAL.0>
12.0148

>  <SCORE.INTRA.POLAR>
0

>  <SCORE.INTRA.POLAR.0>
0

>  <SCORE.INTRA.REPUL>
0

>  <SCORE.INTRA.REPUL.0>
0

>  <SCORE.INTRA.SOLV>
-0.0363297

>  <SCORE.INTRA.SOLV.lig_0>
-10.5235

>  <SCORE.INTRA.VDW>
0.0300682

>  <SCORE.INTRA.VDW.0>
-1.38455

>  <SCORE.INTRA.norm>
-0.1697

>  <SCORE.RESTR>
0

>  <SCORE.RESTR.CAVITY>
0

>  <SCORE.RESTR.norm>
0

>  <SCORE.SYSTEM>
0

>  <SCORE.SYSTEM.CONST>
0

>  <SCORE.SYSTEM.DIHEDRAL>
0

>  <SCORE.SYSTEM.SOLV>
0

>  <SCORE.SYSTEM.norm>
0

>  <SCORE.heavy>
28

>  <SCORE.norm>
-1.37301

>  <RMSD>
0.831

$$$$
ligand
 OpenBabel11021811413D
libRbt.so/2013.1/901 2013/11/27
 28 32  0  0  0  0  0  0  0  0999 V2000
   44.1311   27.8351   22.1619 C   0  0  0  0  0  0  0  0  0  0  0  0
   42.9521   26.8823   22.1520 C   0  0  0  0  0  0  0  0  0  0  0  0
   42.0333   27.1135   23.3425 C   0  0  0  0  0  0  0  0  0  0  0  0
   33.9422   25.1895   26.3056 O   0  0  0  0  0  0  0  0  0  0  0  0
   34.9079   25.1134   25.2555 C   0  0  0  0  0  0  0  0  0  0  0  0
   38.6277   24.0202   28.3019 C   0  0  0  0  0  0  0  0  0  0  0  0
   38.4586   25.2193   28.9822 C   0  0  0  0  0  0  0  0  0  0  0  0
   37.4725   26.1166   28.5642 C   0  0  0  0  0  0  0  0  0  0  0  0
   36.6558   25.8169   27.4733 C   0  0  0  0  0  0  0  0  0  0  0  0
   36.0559   24.1687   25.6338 C   0  0  1  0  0  0  0  0  0  0  0  0
   36.8242   24.6112   26.8335 C   0  0  0  0  0  0  0  0  0  0  0  0
   37.7958   23.7343   27.2453 C   0  0  0  0  0  0  0  0  0  0  0  0
   37.9207   22.5327   26.4425 C   0  0  1  0  0  0  0  0  0  0  0  0
   36.3679   20.5972   26.6267 C   0  0  0  0  0  0  0  0  0  0  0  0
   36.6051   21.9234   26.3558 C   0  0  0  0  0  0  0  0  0  0  0  0
   35.6068   22.7618   25.9376 C   0  0  0  0  0  0  0  0  0  0  0  0
   34.3177   22.2757   25.7764 C   0  0  0  0  0  0  0  0  0  0  0  0
   34.0567   20.9351   26.0677 C   0  0  0  0  0  0  0  0  0  0  0  0
   35.0816   20.1007   26.4945 C   0  0  0  0  0  0  0  0  0  0  0  0
   40.9318   26.0622   23.3822 C   0  0  0  0  0  0  0  0  0  0  0  0
   40.0966   26.2129   24.6481 C   0  0  0  0  0  0  0  0  0  0  0  0
   37.4516   26.2761   23.9572 O   0  0  0  0  0  0  0  0  0  0  0  0
   40.5146   23.5262   25.4201 O   0  0  0  0  0  0  0  0  0  0  0  0
   39.4257   23.9229   25.0393 C   0  0  0  0  0  0  0  0  0  0  0  0
   39.1488   25.1099   24.6616 N   0  0  0  0  0  0  0  0  0  0  0  0
   37.9360   25.2454   24.3471 C   0  0  0  0  0  0  0  0  0  0  0  0
   37.1364   24.0059   24.5530 C   0  0  1  0  0  0  0  0  0  0  0  0
   38.2243   23.0461   25.0417 C   0  0  2  0  0  0  0  0  0  0  0  0
  1  2  1  0  0  0  0
  2  3  1  0  0  0  0
  3 20  1  0  0  0  0
  4  5  1  0  0  0  0
  6  7  2  0  0  0  0
  6 12  1  0  0  0  0
  7  8  1  0  0  0  0
  8  9  2  0  0  0  0
  9 11  1  0  0  0  0
 10  5  1  6  0  0  0
 10 11  1  0  0  0  0
 10 16  1  0  0  0  0
 10 27  1  0  0  0  0
 11 12  2  0  0  0  0
 13 12  1  1  0  0  0
 13 15  1  0  0  0  0
 13 28  1  0  0  0  0
 14 15  2  0  0  0  0
 14 19  1  0  0  0  0
 15 16  1  0  0  0  0
 16 17  2  0  0  0  0
 17 18  1  0  0  0  0
 18 19  2  0  0  0  0
 20 21  1  0  0  0  0
 21 25  1  0  0  0  0
 22 26  2  0  0  0  0
 23 24  2  0  0  0  0
 24 25  1  0  0  0  0
 25 26  1  0  0  0  0
 27 26  1  1  0  0  0
 27 28  1  0  0  0  0
 28 24  1  1  0  0  0
M  END
>  <CHROM.1>
-174.67081816,-61.96456354,174.43967603,-175.29197936,80.55907658,37.98334862
24.40015133,25.50818324,-0.43223936,-0.52884987,-2.98464288

>  <Name>
ligand

>  <RI>
0

>  <Rbt.Current_Directory>
/home/itssahil/PROJECTS/Mol_Feturizer/New_Systems/rnas/1YLS

>  <Rbt.Executable>
rbdock ($Id: //depot/dev/client3/rdock/2013.1/src/exe/rbdock.cxx#4 $)

>  <Rbt.Library>
libRbt.so (2013.1, Build901 2013/11/27)

>  <Rbt.Parameter_File>
/export/apps/rDock/src/rDock_2013.1_src/data/scripts/dock_solv.prm

>  <Rbt.Receptor>
prm/pocket_docking_4.prm

>  <SCORE>
-38.5653

>  <SCORE.INTER>
-33.811

>  <SCORE.INTER.CONST>
1

>  <SCORE.INTER.POLAR>
0

>  <SCORE.INTER.ROT>
5

>  <SCORE.INTER.SOLV>
7.45185

>  <SCORE.INTER.VDW>
-31.9579

>  <SCORE.INTER.norm>
-1.20753

>  <SCORE.INTRA>
-4.75438

>  <SCORE.INTRA.DIHEDRAL>
-9.43599

>  <SCORE.INTRA.DIHEDRAL.0>
12.0148

>  <SCORE.INTRA.POLAR>
0

>  <SCORE.INTRA.POLAR.0>
0

>  <SCORE.INTRA.REPUL>
0

>  <SCORE.INTRA.REPUL.0>
0

>  <SCORE.INTRA.SOLV>
-0.0447971

>  <SCORE.INTRA.SOLV.lig_0>
-10.5235

>  <SCORE.INTRA.VDW>
-0.0139871

>  <SCORE.INTRA.VDW.0>
-1.38455

>  <SCORE.INTRA.norm>
-0.169799

>  <SCORE.RESTR>
0

>  <SCORE.RESTR.CAVITY>
0

>  <SCORE.RESTR.norm>
0

>  <SCORE.SYSTEM>
0

>  <SCORE.SYSTEM.CONST>
0

>  <SCORE.SYSTEM.DIHEDRAL>
0

>  <SCORE.SYSTEM.SOLV>
0

>  <SCORE.SYSTEM.norm>
0

>  <SCORE.heavy>
28

>  <SCORE.norm>
-1.37733

>  <RMSD>
0.836

$$$$
ligand
 OpenBabel11021811413D
libRbt.so/2013.1/901 2013/11/27
 28 32  0  0  0  0  0  0  0  0999 V2000
   44.0322   28.2340   22.2529 C   0  0  0  0  0  0  0  0  0  0  0  0
   43.0001   27.1238   22.2650 C   0  0  0  0  0  0  0  0  0  0  0  0
   41.9632   27.3330   23.3586 C   0  0  0  0  0  0  0  0  0  0  0  0
   34.0394   24.4389   26.0473 O   0  0  0  0  0  0  0  0  0  0  0  0
   35.0785   24.4017   25.0675 C   0  0  0  0  0  0  0  0  0  0  0  0
   38.6894   24.3563   28.4248 C   0  0  0  0  0  0  0  0  0  0  0  0
   38.2717   25.5808   28.9301 C   0  0  0  0  0  0  0  0  0  0  0  0
   37.1837   26.2337   28.3452 C   0  0  0  0  0  0  0  0  0  0  0  0
   36.5127   25.6651   27.2619 C   0  0  0  0  0  0  0  0  0  0  0  0
   36.3366   23.7261   25.6281 C   0  0  1  0  0  0  0  0  0  0  0  0
   36.9279   24.4389   26.7975 C   0  0  0  0  0  0  0  0  0  0  0  0
   37.9987   23.8027   27.3729 C   0  0  0  0  0  0  0  0  0  0  0  0
   38.3825   22.5531   26.7442 C   0  0  1  0  0  0  0  0  0  0  0  0
   37.1657   20.4122   27.1010 C   0  0  0  0  0  0  0  0  0  0  0  0
   37.1976   21.7166   26.6695 C   0  0  0  0  0  0  0  0  0  0  0  0
   36.1074   22.3098   26.0915 C   0  0  0  0  0  0  0  0  0  0  0  0
   34.9335   21.5892   25.9281 C   0  0  0  0  0  0  0  0  0  0  0  0
   34.8792   20.2690   26.3804 C   0  0  0  0  0  0  0  0  0  0  0  0
   35.9941   19.6855   26.9678 C   0  0  0  0  0  0  0  0  0  0  0  0
   41.0297   26.1328   23.4495 C   0  0  0  0  0  0  0  0  0  0  0  0
   40.0411   26.3121   24.5955 C   0  0  0  0  0  0  0  0  0  0  0  0
   37.4822   25.8260   23.7631 O   0  0  0  0  0  0  0  0  0  0  0  0
   40.8432   23.8544   25.7381 O   0  0  0  0  0  0  0  0  0  0  0  0
   39.7350   24.0047   25.2509 C   0  0  0  0  0  0  0  0  0  0  0  0
   39.2927   25.0700   24.7049 N   0  0  0  0  0  0  0  0  0  0  0  0
   38.1014   24.9514   24.3114 C   0  0  0  0  0  0  0  0  0  0  0  0
   37.5071   23.6252   24.6372 C   0  0  1  0  0  0  0  0  0  0  0  0
   38.7003   22.9377   25.3058 C   0  0  2  0  0  0  0  0  0  0  0  0
  1  2  1  0  0  0  0
  2  3  1  0  0  0  0
  3 20  1  0  0  0  0
  4  5  1  0  0  0  0
  6  7  2  0  0  0  0
  6 12  1  0  0  0  0
  7  8  1  0  0  0  0
  8  9  2  0  0  0  0
  9 11  1  0  0  0  0
 10  5  1  6  0  0  0
 10 11  1  0  0  0  0
 10 16  1  0  0  0  0
 10 27  1  0  0  0  0
 11 12  2  0  0  0  0
 13 12  1  1  0  0  0
 13 15  1  0  0  0  0
 13 28  1  0  0  0  0
 14 15  2  0  0  0  0
 14 19  1  0  0  0  0
 15 16  1  0  0  0  0
 16 17  2  0  0  0  0
 17 18  1  0  0  0  0
 18 19  2  0  0  0  0
 20 21  1  0  0  0  0
 21 25  1  0  0  0  0
 22 26  2  0  0  0  0
 23 24  2  0  0  0  0
 24 25  1  0  0  0  0
 25 26  1  0  0  0  0
 27 26  1  1  0  0  0
 27 28  1  0  0  0  0
 28 24  1  1  0  0  0
M  END
>  <CHROM.1>
-173.83512130,-61.73911547,176.89570888,-173.86350652,77.87207693,38.21411461
24.26839266,25.58751603,-0.62582407,-0.45645572,3.07208806

>  <Name>
ligand

>  <RI>
0

>  <Rbt.Current_Directory>
/home/itssahil/PROJECTS/Mol_Feturizer/New_Systems/rnas/1YLS

>  <Rbt.Executable>
rbdock ($Id: //depot/dev/client3/rdock/2013.1/src/exe/rbdock.cxx#4 $)

>  <Rbt.Library>
libRbt.so (2013.1, Build901 2013/11/27)

>  <Rbt.Parameter_File>
/export/apps/rDock/src/rDock_2013.1_src/data/scripts/dock_solv.prm

>  <Rbt.Receptor>
prm/pocket_docking_6.prm

>  <SCORE>
-38.4946

>  <SCORE.INTER>
-33.7697

>  <SCORE.INTER.CONST>
1

>  <SCORE.INTER.POLAR>
0

>  <SCORE.INTER.ROT>
5

>  <SCORE.INTER.SOLV>
7.07212

>  <SCORE.INTER.VDW>
-31.8038

>  <SCORE.INTER.norm>
-1.20606

>  <SCORE.INTRA>
-4.72493

>  <SCORE.INTRA.DIHEDRAL>
-9.41292

>  <SCORE.INTRA.DIHEDRAL.0>
12.0148

>  <SCORE.INTRA.POLAR>
0

>  <SCORE.INTRA.POLAR.0>
0

>  <SCORE.INTRA.REPUL>
0

>  <SCORE.INTRA.REPUL.0>
0

>  <SCORE.INTRA.SOLV>
-0.0386467

>  <SCORE.INTRA.SOLV.lig_0>
-10.5235

>  <SCORE.INTRA.VDW>
0.00085853

>  <SCORE.INTRA.VDW.0>
-1.38455

>  <SCORE.INTRA.norm>
-0.168747

>  <SCORE.RESTR>
0

>  <SCORE.RESTR.CAVITY>
0

>  <SCORE.RESTR.norm>
0

>  <SCORE.SYSTEM>
0

>  <SCORE.SYSTEM.CONST>
0

>  <SCORE.SYSTEM.DIHEDRAL>
0

>  <SCORE.SYSTEM.SOLV>
0

>  <SCORE.SYSTEM.norm>
0

>  <SCORE.heavy>
28

>  <SCORE.norm>
-1.37481

>  <RMSD>
0.837

$$$$
ligand
 OpenBabel11021811413D
libRbt.so/2013.1/901 2013/11/27
 28 32  0  0  0  0  0  0  0  0999 V2000
   43.8117   26.1929   22.1445 C   0  0  0  0  0  0  0  0  0  0  0  0
   42.7271   27.2419   21.9991 C   0  0  0  0  0  0  0  0  0  0  0  0
   41.8843   27.3568   23.2606 C   0  0  0  0  0  0  0  0  0  0  0  0
   34.0643   24.9600   26.3257 O   0  0  0  0  0  0  0  0  0  0  0  0
   35.0224   24.8794   25.2690 C   0  0  0  0  0  0  0  0  0  0  0  0
   38.7655   24.0547   28.3708 C   0  0  0  0  0  0  0  0  0  0  0  0
   38.5240   25.2562   29.0245 C   0  0  0  0  0  0  0  0  0  0  0  0
   37.4943   26.0891   28.5791 C   0  0  0  0  0  0  0  0  0  0  0  0
   36.7064   25.7229   27.4873 C   0  0  0  0  0  0  0  0  0  0  0  0
   36.2166   24.0072   25.6772 C   0  0  1  0  0  0  0  0  0  0  0  0
   36.9473   24.5156   26.8744 C   0  0  0  0  0  0  0  0  0  0  0  0
   37.9613   23.7021   27.3130 C   0  0  0  0  0  0  0  0  0  0  0  0
   38.1601   22.4932   26.5365 C   0  0  1  0  0  0  0  0  0  0  0  0
   36.7142   20.4792   26.7469 C   0  0  0  0  0  0  0  0  0  0  0  0
   36.8810   21.8107   26.4506 C   0  0  0  0  0  0  0  0  0  0  0  0
   35.8424   22.5842   26.0061 C   0  0  0  0  0  0  0  0  0  0  0  0
   34.5836   22.0246   25.8434 C   0  0  0  0  0  0  0  0  0  0  0  0
   34.3938   20.6778   26.1602 C   0  0  0  0  0  0  0  0  0  0  0  0
   35.4585   19.9100   26.6134 C   0  0  0  0  0  0  0  0  0  0  0  0
   40.9483   26.1622   23.3912 C   0  0  0  0  0  0  0  0  0  0  0  0
   40.1487   26.2506   24.6857 C   0  0  0  0  0  0  0  0  0  0  0  0
   37.5114   26.1539   23.9698 O   0  0  0  0  0  0  0  0  0  0  0  0
   40.7058   23.6072   25.5170 O   0  0  0  0  0  0  0  0  0  0  0  0
   39.6007   23.9355   25.1183 C   0  0  0  0  0  0  0  0  0  0  0  0
   39.2628   25.0976   24.7135 N   0  0  0  0  0  0  0  0  0  0  0  0
   38.0477   25.1596   24.3854 C   0  0  0  0  0  0  0  0  0  0  0  0
   37.3153   23.8823   24.6098 C   0  0  1  0  0  0  0  0  0  0  0  0
   38.4493   22.9941   25.1281 C   0  0  2  0  0  0  0  0  0  0  0  0
  1  2  1  0  0  0  0
  2  3  1  0  0  0  0
  3 20  1  0  0  0  0
  4  5  1  0  0  0  0
  6  7  2  0  0  0  0
  6 12  1  0  0  0  0
  7  8  1  0  0  0  0
  8  9  2  0  0  0  0
  9 11  1  0  0  0  0
 10  5  1  6  0  0  0
 10 11  1  0  0  0  0
 10 16  1  0  0  0  0
 10 27  1  0  0  0  0
 11 12  2  0  0  0  0
 13 12  1  1  0  0  0
 13 15  1  0  0  0  0
 13 28  1  0  0  0  0
 14 15  2  0  0  0  0
 14 19  1  0  0  0  0
 15 16  1  0  0  0  0
 16 17  2  0  0  0  0
 17 18  1  0  0  0  0
 18 19  2  0  0  0  0
 20 21  1  0  0  0  0
 21 25  1  0  0  0  0
 22 26  2  0  0  0  0
 23 24  2  0  0  0  0
 24 25  1  0  0  0  0
 25 26  1  0  0  0  0
 27 26  1  1  0  0  0
 27 28  1  0  0  0  0
 28 24  1  1  0  0  0
M  END
>  <CHROM.1>
-73.89431290,-60.00866485,177.57854808,178.58634321,83.69107428,38.09984978
24.28240341,25.54870343,-0.44996889,-0.55209932,-3.02146090

>  <Name>
ligand

>  <RI>
0

>  <Rbt.Current_Directory>
/home/itssahil/PROJECTS/Mol_Feturizer/New_Systems/rnas/1YLS

>  <Rbt.Executable>
rbdock ($Id: //depot/dev/client3/rdock/2013.1/src/exe/rbdock.cxx#4 $)

>  <Rbt.Library>
libRbt.so (2013.1, Build901 2013/11/27)

>  <Rbt.Parameter_File>
/export/apps/rDock/src/rDock_2013.1_src/data/scripts/dock_solv.prm

>  <Rbt.Receptor>
prm/pocket_docking_3.prm

>  <SCORE>
-38.1099

>  <SCORE.INTER>
-34.3281

>  <SCORE.INTER.CONST>
1

>  <SCORE.INTER.POLAR>
0

>  <SCORE.INTER.ROT>
5

>  <SCORE.INTER.SOLV>
7.38258

>  <SCORE.INTER.VDW>
-32.2796

>  <SCORE.INTER.norm>
-1.226

>  <SCORE.INTRA>
-3.78183

>  <SCORE.INTRA.DIHEDRAL>
-8.97941

>  <SCORE.INTRA.DIHEDRAL.0>
12.0148

>  <SCORE.INTRA.POLAR>
0

>  <SCORE.INTRA.POLAR.0>
0

>  <SCORE.INTRA.REPUL>
0

>  <SCORE.INTRA.REPUL.0>
0

>  <SCORE.INTRA.SOLV>
-0.0664633

>  <SCORE.INTRA.SOLV.lig_0>
-10.5235

>  <SCORE.INTRA.VDW>
0.741106

>  <SCORE.INTRA.VDW.0>
-1.38455

>  <SCORE.INTRA.norm>
-0.135065

>  <SCORE.RESTR>
0

>  <SCORE.RESTR.CAVITY>
0

>  <SCORE.RESTR.norm>
0

>  <SCORE.SYSTEM>
0

>  <SCORE.SYSTEM.CONST>
0

>  <SCORE.SYSTEM.DIHEDRAL>
0

>  <SCORE.SYSTEM.SOLV>
0

>  <SCORE.SYSTEM.norm>
0

>  <SCORE.heavy>
28

>  <SCORE.norm>
-1.36107

>  <RMSD>
0.839

$$$$
ligand
 OpenBabel11021811413D
libRbt.so/2013.1/901 2013/11/27
 28 32  0  0  0  0  0  0  0  0999 V2000
   44.0812   27.9299   22.1432 C   0  0  0  0  0  0  0  0  0  0  0  0
   42.9530   26.9177   22.1687 C   0  0  0  0  0  0  0  0  0  0  0  0
   42.0104   27.1569   23.3388 C   0  0  0  0  0  0  0  0  0  0  0  0
   33.8930   25.2399   26.2368 O   0  0  0  0  0  0  0  0  0  0  0  0
   34.8461   25.1245   25.1788 C   0  0  0  0  0  0  0  0  0  0  0  0
   38.5581   24.1472   28.2736 C   0  0  0  0  0  0  0  0  0  0  0  0
   38.3649   25.3559   28.9300 C   0  0  0  0  0  0  0  0  0  0  0  0
   37.3682   26.2295   28.4878 C   0  0  0  0  0  0  0  0  0  0  0  0
   36.5650   25.8967   27.3964 C   0  0  0  0  0  0  0  0  0  0  0  0
   36.0057   24.2053   25.5835 C   0  0  1  0  0  0  0  0  0  0  0  0
   36.7574   24.6821   26.7806 C   0  0  0  0  0  0  0  0  0  0  0  0
   37.7393   23.8286   27.2162 C   0  0  0  0  0  0  0  0  0  0  0  0
   37.8894   22.6144   26.4370 C   0  0  1  0  0  0  0  0  0  0  0  0
   36.3658   20.6583   26.6455 C   0  0  0  0  0  0  0  0  0  0  0  0
   36.5843   21.9829   26.3516 C   0  0  0  0  0  0  0  0  0  0  0  0
   35.5764   22.7974   25.9101 C   0  0  0  0  0  0  0  0  0  0  0  0
   34.2964   22.2880   25.7482 C   0  0  0  0  0  0  0  0  0  0  0  0
   34.0542   20.9491   26.0625 C   0  0  0  0  0  0  0  0  0  0  0  0
   35.0885   20.1391   26.5127 C   0  0  0  0  0  0  0  0  0  0  0  0
   40.9301   26.0841   23.3854 C   0  0  0  0  0  0  0  0  0  0  0  0
   40.0215   26.2946   24.5908 C   0  0  0  0  0  0  0  0  0  0  0  0
   37.3814   26.3030   23.8785 O   0  0  0  0  0  0  0  0  0  0  0  0
   40.4755   23.6297   25.4161 O   0  0  0  0  0  0  0  0  0  0  0  0
   39.3836   24.0020   25.0196 C   0  0  0  0  0  0  0  0  0  0  0  0
   39.0911   25.1772   24.6176 N   0  0  0  0  0  0  0  0  0  0  0  0
   37.8788   25.2876   24.2914 C   0  0  0  0  0  0  0  0  0  0  0  0
   37.0972   24.0396   24.5143 C   0  0  1  0  0  0  0  0  0  0  0  0
   38.1961   23.1064   25.0292 C   0  0  2  0  0  0  0  0  0  0  0  0
  1  2  1  0  0  0  0
  2  3  1  0  0  0  0
  3 20  1  0  0  0  0
  4  5  1  0  0  0  0
  6  7  2  0  0  0  0
  6 12  1  0  0  0  0
  7  8  1  0  0  0  0
  8  9  2  0  0  0  0
  9 11  1  0  0  0  0
 10  5  1  6  0  0  0
 10 11  1  0  0  0  0
 10 16  1  0  0  0  0
 10 27  1  0  0  0  0
 11 12  2  0  0  0  0
 13 12  1  1  0  0  0
 13 15  1  0  0  0  0
 13 28  1  0  0  0  0
 14 15  2  0  0  0  0
 14 19  1  0  0  0  0
 15 16  1  0  0  0  0
 16 17  2  0  0  0  0
 17 18  1  0  0  0  0
 18 19  2  0  0  0  0
 20 21  1  0  0  0  0
 21 25  1  0  0  0  0
 22 26  2  0  0  0  0
 23 24  2  0  0  0  0
 24 25  1  0  0  0  0
 25 26  1  0  0  0  0
 27 26  1  1  0  0  0
 27 28  1  0  0  0  0
 28 24  1  1  0  0  0
M  END
>  <CHROM.1>
-176.97337773,-60.04286606,177.72715754,-175.68615395,76.87280383,37.93952507
24.46096578,25.47719993,-0.44950120,-0.51432153,-3.01569215

>  <Name>
ligand

>  <RI>
0

>  <Rbt.Current_Directory>
/home/itssahil/PROJECTS/Mol_Feturizer/New_Systems/rnas/1YLS

>  <Rbt.Executable>
rbdock ($Id: //depot/dev/client3/rdock/2013.1/src/exe/rbdock.cxx#4 $)

>  <Rbt.Library>
libRbt.so (2013.1, Build901 2013/11/27)

>  <Rbt.Parameter_File>
/export/apps/rDock/src/rDock_2013.1_src/data/scripts/dock_solv.prm

>  <Rbt.Receptor>
prm/pocket_docking_2.prm

>  <SCORE>
-38.6045

>  <SCORE.INTER>
-33.7924

>  <SCORE.INTER.CONST>
1

>  <SCORE.INTER.POLAR>
0

>  <SCORE.INTER.ROT>
5

>  <SCORE.INTER.SOLV>
7.49215

>  <SCORE.INTER.VDW>
-31.959

>  <SCORE.INTER.norm>
-1.20687

>  <SCORE.INTRA>
-4.81205

>  <SCORE.INTRA.DIHEDRAL>
-9.61905

>  <SCORE.INTRA.DIHEDRAL.0>
12.0148

>  <SCORE.INTRA.POLAR>
0

>  <SCORE.INTRA.POLAR.0>
0

>  <SCORE.INTRA.REPUL>
0

>  <SCORE.INTRA.REPUL.0>
0

>  <SCORE.INTRA.SOLV>
-0.0386491

>  <SCORE.INTRA.SOLV.lig_0>
-10.5235

>  <SCORE.INTRA.VDW>
0.0167976

>  <SCORE.INTRA.VDW.0>
-1.38455

>  <SCORE.INTRA.norm>
-0.171859

>  <SCORE.RESTR>
0

>  <SCORE.RESTR.CAVITY>
0

>  <SCORE.RESTR.norm>
0

>  <SCORE.SYSTEM>
0

>  <SCORE.SYSTEM.CONST>
0

>  <SCORE.SYSTEM.DIHEDRAL>
0

>  <SCORE.SYSTEM.SOLV>
0

>  <SCORE.SYSTEM.norm>
0

>  <SCORE.heavy>
28

>  <SCORE.norm>
-1.37873

>  <RMSD>
0.840

$$$$
ligand
 OpenBabel11021811413D
libRbt.so/2013.1/901 2013/11/27
 28 32  0  0  0  0  0  0  0  0999 V2000
   44.0814   27.9379   22.1659 C   0  0  0  0  0  0  0  0  0  0  0  0
   42.9356   26.9453   22.1675 C   0  0  0  0  0  0  0  0  0  0  0  0
   41.9796   27.1931   23.3248 C   0  0  0  0  0  0  0  0  0  0  0  0
   33.9108   25.2682   26.2429 O   0  0  0  0  0  0  0  0  0  0  0  0
   34.8490   25.1229   25.1753 C   0  0  0  0  0  0  0  0  0  0  0  0
   38.5493   24.1487   28.2851 C   0  0  0  0  0  0  0  0  0  0  0  0
   38.3528   25.3576   28.9403 C   0  0  0  0  0  0  0  0  0  0  0  0
   37.3574   26.2304   28.4938 C   0  0  0  0  0  0  0  0  0  0  0  0
   36.5587   25.8968   27.3994 C   0  0  0  0  0  0  0  0  0  0  0  0
   36.0076   24.2044   25.5850 C   0  0  1  0  0  0  0  0  0  0  0  0
   36.7542   24.6821   26.7849 C   0  0  0  0  0  0  0  0  0  0  0  0
   37.7349   23.8293   27.2246 C   0  0  0  0  0  0  0  0  0  0  0  0
   37.8887   22.6148   26.4464 C   0  0  1  0  0  0  0  0  0  0  0  0
   36.3654   20.6580   26.6496 C   0  0  0  0  0  0  0  0  0  0  0  0
   36.5843   21.9826   26.3561 C   0  0  0  0  0  0  0  0  0  0  0  0
   35.5777   22.7964   25.9104 C   0  0  0  0  0  0  0  0  0  0  0  0
   34.2986   22.2862   25.7435 C   0  0  0  0  0  0  0  0  0  0  0  0
   34.0559   20.9473   26.0574 C   0  0  0  0  0  0  0  0  0  0  0  0
   35.0889   20.1380   26.5120 C   0  0  0  0  0  0  0  0  0  0  0  0
   40.9177   26.1029   23.3864 C   0  0  0  0  0  0  0  0  0  0  0  0
   40.0261   26.2955   24.6074 C   0  0  0  0  0  0  0  0  0  0  0  0
   37.3889   26.3022   23.8846 O   0  0  0  0  0  0  0  0  0  0  0  0
   40.4783   23.6312   25.4355 O   0  0  0  0  0  0  0  0  0  0  0  0
   39.3878   24.0027   25.0345 C   0  0  0  0  0  0  0  0  0  0  0  0
   39.0962   25.1776   24.6309 N   0  0  0  0  0  0  0  0  0  0  0  0
   37.8852   25.2872   24.2998 C   0  0  0  0  0  0  0  0  0  0  0  0
   37.1034   24.0389   24.5201 C   0  0  1  0  0  0  0  0  0  0  0  0
   38.2008   23.1065   25.0397 C   0  0  2  0  0  0  0  0  0  0  0  0
  1  2  1  0  0  0  0
  2  3  1  0  0  0  0
  3 20  1  0  0  0  0
  4  5  1  0  0  0  0
  6  7  2  0  0  0  0
  6 12  1  0  0  0  0
  7  8  1  0  0  0  0
  8  9  2  0  0  0  0
  9 11  1  0  0  0  0
 10  5  1  6  0  0  0
 10 11  1  0  0  0  0
 10 16  1  0  0  0  0
 10 27  1  0  0  0  0
 11 12  2  0  0  0  0
 13 12  1  1  0  0  0
 13 15  1  0  0  0  0
 13 28  1  0  0  0  0
 14 15  2  0  0  0  0
 14 19  1  0  0  0  0
 15 16  1  0  0  0  0
 16 17  2  0  0  0  0
 17 18  1  0  0  0  0
 18 19  2  0  0  0  0
 20 21  1  0  0  0  0
 21 25  1  0  0  0  0
 22 26  2  0  0  0  0
 23 24  2  0  0  0  0
 24 25  1  0  0  0  0
 25 26  1  0  0  0  0
 27 26  1  1  0  0  0
 27 28  1  0  0  0  0
 28 24  1  1  0  0  0
M  END
>  <CHROM.1>
-174.37063707,-58.40476590,175.74019556,-176.83997973,78.21792889,37.93837650
24.46562442,25.48307572,-0.45186950,-0.51571630,-3.01485532

>  <Name>
ligand

>  <RI>
0

>  <Rbt.Current_Directory>
/home/itssahil/PROJECTS/Mol_Feturizer/New_Systems/rnas/1YLS

>  <Rbt.Executable>
rbdock ($Id: //depot/dev/client3/rdock/2013.1/src/exe/rbdock.cxx#4 $)

>  <Rbt.Library>
libRbt.so (2013.1, Build901 2013/11/27)

>  <Rbt.Parameter_File>
/export/apps/rDock/src/rDock_2013.1_src/data/scripts/dock_solv.prm

>  <Rbt.Receptor>
prm/pocket_docking_2.prm

>  <SCORE>
-38.5584

>  <SCORE.INTER>
-33.7923

>  <SCORE.INTER.CONST>
1

>  <SCORE.INTER.POLAR>
0

>  <SCORE.INTER.ROT>
5

>  <SCORE.INTER.SOLV>
7.49391

>  <SCORE.INTER.VDW>
-31.9595

>  <SCORE.INTER.norm>
-1.20687

>  <SCORE.INTRA>
-4.76613

>  <SCORE.INTRA.DIHEDRAL>
-9.49687

>  <SCORE.INTRA.DIHEDRAL.0>
12.0148

>  <SCORE.INTRA.POLAR>
0

>  <SCORE.INTRA.POLAR.0>
0

>  <SCORE.INTRA.REPUL>
0

>  <SCORE.INTRA.REPUL.0>
0

>  <SCORE.INTRA.SOLV>
-0.0401398

>  <SCORE.INTRA.SOLV.lig_0>
-10.5235

>  <SCORE.INTRA.VDW>
0.0023813

>  <SCORE.INTRA.VDW.0>
-1.38455

>  <SCORE.INTRA.norm>
-0.170219

>  <SCORE.RESTR>
0

>  <SCORE.RESTR.CAVITY>
0

>  <SCORE.RESTR.norm>
0

>  <SCORE.SYSTEM>
0

>  <SCORE.SYSTEM.CONST>
0

>  <SCORE.SYSTEM.DIHEDRAL>
0

>  <SCORE.SYSTEM.SOLV>
0

>  <SCORE.SYSTEM.norm>
0

>  <SCORE.heavy>
28

>  <SCORE.norm>
-1.37708

>  <RMSD>
0.843

$$$$
ligand
 OpenBabel11021811413D
libRbt.so/2013.1/901 2013/11/27
 28 32  0  0  0  0  0  0  0  0999 V2000
   44.0055   26.0116   22.3695 C   0  0  0  0  0  0  0  0  0  0  0  0
   42.8903   26.9897   22.0571 C   0  0  0  0  0  0  0  0  0  0  0  0
   41.9764   27.2006   23.2551 C   0  0  0  0  0  0  0  0  0  0  0  0
   33.9918   25.2334   26.2540 O   0  0  0  0  0  0  0  0  0  0  0  0
   34.9535   25.1138   25.2043 C   0  0  0  0  0  0  0  0  0  0  0  0
   38.6328   24.0743   28.3180 C   0  0  0  0  0  0  0  0  0  0  0  0
   38.4530   25.2837   28.9769 C   0  0  0  0  0  0  0  0  0  0  0  0
   37.4715   26.1728   28.5314 C   0  0  0  0  0  0  0  0  0  0  0  0
   36.6701   25.8547   27.4343 C   0  0  0  0  0  0  0  0  0  0  0  0
   36.0975   24.1768   25.6132 C   0  0  1  0  0  0  0  0  0  0  0  0
   36.8488   24.6393   26.8161 C   0  0  0  0  0  0  0  0  0  0  0  0
   37.8158   23.7705   27.2549 C   0  0  0  0  0  0  0  0  0  0  0  0
   37.9531   22.5566   26.4729 C   0  0  1  0  0  0  0  0  0  0  0  0
   36.4004   20.6220   26.6666 C   0  0  0  0  0  0  0  0  0  0  0  0
   36.6396   21.9441   26.3779 C   0  0  0  0  0  0  0  0  0  0  0  0
   35.6460   22.7743   25.9330 C   0  0  0  0  0  0  0  0  0  0  0  0
   34.3599   22.2838   25.7619 C   0  0  0  0  0  0  0  0  0  0  0  0
   34.0966   20.9475   26.0708 C   0  0  0  0  0  0  0  0  0  0  0  0
   35.1166   20.1215   26.5246 C   0  0  0  0  0  0  0  0  0  0  0  0
   41.0210   26.0251   23.4146 C   0  0  0  0  0  0  0  0  0  0  0  0
   40.1486   26.2112   24.6504 C   0  0  0  0  0  0  0  0  0  0  0  0
   37.5132   26.2596   23.9226 O   0  0  0  0  0  0  0  0  0  0  0  0
   40.5594   23.5377   25.4704 O   0  0  0  0  0  0  0  0  0  0  0  0
   39.4754   23.9267   25.0685 C   0  0  0  0  0  0  0  0  0  0  0  0
   39.2021   25.1072   24.6684 N   0  0  0  0  0  0  0  0  0  0  0  0
   37.9935   25.2358   24.3353 C   0  0  0  0  0  0  0  0  0  0  0  0
   37.1928   23.9986   24.5499 C   0  0  1  0  0  0  0  0  0  0  0  0
   38.2752   23.0483   25.0684 C   0  0  2  0  0  0  0  0  0  0  0  0
  1  2  1  0  0  0  0
  2  3  1  0  0  0  0
  3 20  1  0  0  0  0
  4  5  1  0  0  0  0
  6  7  2  0  0  0  0
  6 12  1  0  0  0  0
  7  8  1  0  0  0  0
  8  9  2  0  0  0  0
  9 11  1  0  0  0  0
 10  5  1  6  0  0  0
 10 11  1  0  0  0  0
 10 16  1  0  0  0  0
 10 27  1  0  0  0  0
 11 12  2  0  0  0  0
 13 12  1  1  0  0  0
 13 15  1  0  0  0  0
 13 28  1  0  0  0  0
 14 15  2  0  0  0  0
 14 19  1  0  0  0  0
 15 16  1  0  0  0  0
 16 17  2  0  0  0  0
 17 18  1  0  0  0  0
 18 19  2  0  0  0  0
 20 21  1  0  0  0  0
 21 25  1  0  0  0  0
 22 26  2  0  0  0  0
 23 24  2  0  0  0  0
 24 25  1  0  0  0  0
 25 26  1  0  0  0  0
 27 26  1  1  0  0  0
 27 28  1  0  0  0  0
 28 24  1  1  0  0  0
M  END
>  <CHROM.1>
-77.50992510,-60.39277659,177.54023186,175.61430849,79.36081340,38.00868277
24.34596570,25.50983999,-0.40446585,-0.50774352,-3.02340303

>  <Name>
ligand

>  <RI>
0

>  <Rbt.Current_Directory>
/home/itssahil/PROJECTS/Mol_Feturizer/New_Systems/rnas/1YLS

>  <Rbt.Executable>
rbdock ($Id: //depot/dev/client3/rdock/2013.1/src/exe/rbdock.cxx#4 $)

>  <Rbt.Library>
libRbt.so (2013.1, Build901 2013/11/27)

>  <Rbt.Parameter_File>
/export/apps/rDock/src/rDock_2013.1_src/data/scripts/dock_solv.prm

>  <Rbt.Receptor>
prm/pocket_docking_2.prm

>  <SCORE>
-37.656

>  <SCORE.INTER>
-34.0012

>  <SCORE.INTER.CONST>
1

>  <SCORE.INTER.POLAR>
0

>  <SCORE.INTER.ROT>
5

>  <SCORE.INTER.SOLV>
7.26441

>  <SCORE.INTER.VDW>
-32.0223

>  <SCORE.INTER.norm>
-1.21433

>  <SCORE.INTRA>
-3.6548

>  <SCORE.INTRA.DIHEDRAL>
-8.46971

>  <SCORE.INTRA.DIHEDRAL.0>
12.0148

>  <SCORE.INTRA.POLAR>
0

>  <SCORE.INTRA.POLAR.0>
0

>  <SCORE.INTRA.REPUL>
0

>  <SCORE.INTRA.REPUL.0>
0

>  <SCORE.INTRA.SOLV>
-0.0634411

>  <SCORE.INTRA.SOLV.lig_0>
-10.5235

>  <SCORE.INTRA.VDW>
0.611776

>  <SCORE.INTRA.VDW.0>
-1.38455

>  <SCORE.INTRA.norm>
-0.130529

>  <SCORE.RESTR>
0

>  <SCORE.RESTR.CAVITY>
0

>  <SCORE.RESTR.norm>
0

>  <SCORE.SYSTEM>
0

>  <SCORE.SYSTEM.CONST>
0

>  <SCORE.SYSTEM.DIHEDRAL>
0

>  <SCORE.SYSTEM.SOLV>
0

>  <SCORE.SYSTEM.norm>
0

>  <SCORE.heavy>
28

>  <SCORE.norm>
-1.34486

>  <RMSD>
0.845

$$$$
ligand
 OpenBabel11021811413D
libRbt.so/2013.1/901 2013/11/27
 28 32  0  0  0  0  0  0  0  0999 V2000
   43.5964   26.4587   21.7002 C   0  0  0  0  0  0  0  0  0  0  0  0
   43.6444   26.7352   23.1899 C   0  0  0  0  0  0  0  0  0  0  0  0
   42.2753   27.1131   23.7352 C   0  0  0  0  0  0  0  0  0  0  0  0
   34.0391   24.3564   25.8201 O   0  0  0  0  0  0  0  0  0  0  0  0
   35.1224   24.2786   24.8919 C   0  0  0  0  0  0  0  0  0  0  0  0
   38.5719   24.4513   28.4109 C   0  0  0  0  0  0  0  0  0  0  0  0
   38.1189   25.6950   28.8317 C   0  0  0  0  0  0  0  0  0  0  0  0
   37.0531   26.3033   28.1637 C   0  0  0  0  0  0  0  0  0  0  0  0
   36.4394   25.6712   27.0816 C   0  0  0  0  0  0  0  0  0  0  0  0
   36.3594   23.6484   25.5448 C   0  0  1  0  0  0  0  0  0  0  0  0
   36.8880   24.4280   26.7016 C   0  0  0  0  0  0  0  0  0  0  0  0
   37.9369   23.8356   27.3584 C   0  0  0  0  0  0  0  0  0  0  0  0
   38.3622   22.5600   26.8143 C   0  0  1  0  0  0  0  0  0  0  0  0
   37.1513   20.4256   27.2255 C   0  0  0  0  0  0  0  0  0  0  0  0
   37.1905   21.7062   26.7285 C   0  0  0  0  0  0  0  0  0  0  0  0
   36.1228   22.2552   26.0704 C   0  0  0  0  0  0  0  0  0  0  0  0
   34.9651   21.5127   25.8905 C   0  0  0  0  0  0  0  0  0  0  0  0
   34.9027   20.2171   26.4081 C   0  0  0  0  0  0  0  0  0  0  0  0
   35.9946   19.6785   27.0762 C   0  0  0  0  0  0  0  0  0  0  0  0
   41.3704   25.8900   23.8079 C   0  0  0  0  0  0  0  0  0  0  0  0
   40.0825   26.2232   24.5516 C   0  0  0  0  0  0  0  0  0  0  0  0
   37.5704   25.6632   23.6279 O   0  0  0  0  0  0  0  0  0  0  0  0
   40.8544   23.8379   25.8568 O   0  0  0  0  0  0  0  0  0  0  0  0
   39.7689   23.9492   25.3116 C   0  0  0  0  0  0  0  0  0  0  0  0
   39.3422   24.9792   24.6909 N   0  0  0  0  0  0  0  0  0  0  0  0
   38.1719   24.8257   24.2493 C   0  0  0  0  0  0  0  0  0  0  0  0
   37.5761   23.5109   24.6159 C   0  0  1  0  0  0  0  0  0  0  0  0
   38.7434   22.8737   25.3741 C   0  0  2  0  0  0  0  0  0  0  0  0
  1  2  1  0  0  0  0
  2  3  1  0  0  0  0
  3 20  1  0  0  0  0
  4  5  1  0  0  0  0
  6  7  2  0  0  0  0
  6 12  1  0  0  0  0
  7  8  1  0  0  0  0
  8  9  2  0  0  0  0
  9 11  1  0  0  0  0
 10  5  1  6  0  0  0
 10 11  1  0  0  0  0
 10 16  1  0  0  0  0
 10 27  1  0  0  0  0
 11 12  2  0  0  0  0
 13 12  1  1  0  0  0
 13 15  1  0  0  0  0
 13 28  1  0  0  0  0
 14 15  2  0  0  0  0
 14 19  1  0  0  0  0
 15 16  1  0  0  0  0
 16 17  2  0  0  0  0
 17 18  1  0  0  0  0
 18 19  2  0  0  0  0
 20 21  1  0  0  0  0
 21 25  1  0  0  0  0
 22 26  2  0  0  0  0
 23 24  2  0  0  0  0
 24 25  1  0  0  0  0
 25 26  1  0  0  0  0
 27 26  1  1  0  0  0
 27 28  1  0  0  0  0
 28 24  1  1  0  0  0
M  END
>  <CHROM.1>
73.40707006,-61.60318630,171.19326601,-174.48693139,60.69054662,38.24556923
24.12930381,25.59957351,-0.53237398,-0.45223912,3.12705388

>  <Name>
ligand

>  <RI>
0

>  <Rbt.Current_Directory>
/home/itssahil/PROJECTS/Mol_Feturizer/New_Systems/rnas/1YLS

>  <Rbt.Executable>
rbdock ($Id: //depot/dev/client3/rdock/2013.1/src/exe/rbdock.cxx#4 $)

>  <Rbt.Library>
libRbt.so (2013.1, Build901 2013/11/27)

>  <Rbt.Parameter_File>
/export/apps/rDock/src/rDock_2013.1_src/data/scripts/dock_solv.prm

>  <Rbt.Receptor>
prm/pocket_docking_7.prm

>  <SCORE>
-36.2174

>  <SCORE.INTER>
-33.2895

>  <SCORE.INTER.CONST>
1

>  <SCORE.INTER.POLAR>
0

>  <SCORE.INTER.ROT>
5

>  <SCORE.INTER.SOLV>
6.85064

>  <SCORE.INTER.VDW>
-31.4099

>  <SCORE.INTER.norm>
-1.18891

>  <SCORE.INTRA>
-2.9279

>  <SCORE.INTRA.DIHEDRAL>
-8.44533

>  <SCORE.INTRA.DIHEDRAL.0>
12.0148

>  <SCORE.INTRA.POLAR>
0

>  <SCORE.INTRA.POLAR.0>
0

>  <SCORE.INTRA.REPUL>
0

>  <SCORE.INTRA.REPUL.0>
0

>  <SCORE.INTRA.SOLV>
-0.0215966

>  <SCORE.INTRA.SOLV.lig_0>
-10.5235

>  <SCORE.INTRA.VDW>
1.30556

>  <SCORE.INTRA.VDW.0>
-1.38455

>  <SCORE.INTRA.norm>
-0.104568

>  <SCORE.RESTR>
0

>  <SCORE.RESTR.CAVITY>
0

>  <SCORE.RESTR.norm>
0

>  <SCORE.SYSTEM>
0

>  <SCORE.SYSTEM.CONST>
0

>  <SCORE.SYSTEM.DIHEDRAL>
0

>  <SCORE.SYSTEM.SOLV>
0

>  <SCORE.SYSTEM.norm>
0

>  <SCORE.heavy>
28

>  <SCORE.norm>
-1.29348

>  <RMSD>
0.846

$$$$
ligand
 OpenBabel11021811413D
libRbt.so/2013.1/901 2013/11/27
 28 32  0  0  0  0  0  0  0  0999 V2000
   44.0720   26.0808   22.4860 C   0  0  0  0  0  0  0  0  0  0  0  0
   42.9585   27.0551   22.1560 C   0  0  0  0  0  0  0  0  0  0  0  0
   42.0040   27.2345   23.3271 C   0  0  0  0  0  0  0  0  0  0  0  0
   34.0581   24.4958   26.0201 O   0  0  0  0  0  0  0  0  0  0  0  0
   35.1155   24.4558   25.0601 C   0  0  0  0  0  0  0  0  0  0  0  0
   38.6907   24.2713   28.4507 C   0  0  0  0  0  0  0  0  0  0  0  0
   38.3094   25.5063   28.9592 C   0  0  0  0  0  0  0  0  0  0  0  0
   37.2493   26.1984   28.3679 C   0  0  0  0  0  0  0  0  0  0  0  0
   36.5701   25.6585   27.2751 C   0  0  0  0  0  0  0  0  0  0  0  0
   36.3450   23.7355   25.6285 C   0  0  1  0  0  0  0  0  0  0  0  0
   36.9485   24.4217   26.8076 C   0  0  0  0  0  0  0  0  0  0  0  0
   37.9920   23.7469   27.3891 C   0  0  0  0  0  0  0  0  0  0  0  0
   38.3399   22.4887   26.7569 C   0  0  1  0  0  0  0  0  0  0  0  0
   37.0490   20.3877   27.0898 C   0  0  0  0  0  0  0  0  0  0  0  0
   37.1285   21.6927   26.6662 C   0  0  0  0  0  0  0  0  0  0  0  0
   36.0643   22.3251   26.0815 C   0  0  0  0  0  0  0  0  0  0  0  0
   34.8686   21.6450   25.9030 C   0  0  0  0  0  0  0  0  0  0  0  0
   34.7660   20.3250   26.3471 C   0  0  0  0  0  0  0  0  0  0  0  0
   35.8552   19.7013   26.9414 C   0  0  0  0  0  0  0  0  0  0  0  0
   41.1114   26.0103   23.4841 C   0  0  0  0  0  0  0  0  0  0  0  0
   40.1433   26.2019   24.6456 C   0  0  0  0  0  0  0  0  0  0  0  0
   37.5777   25.8062   23.7865 O   0  0  0  0  0  0  0  0  0  0  0  0
   40.8521   23.7126   25.7813 O   0  0  0  0  0  0  0  0  0  0  0  0
   39.7543   23.9025   25.2846 C   0  0  0  0  0  0  0  0  0  0  0  0
   39.3529   24.9849   24.7408 N   0  0  0  0  0  0  0  0  0  0  0  0
   38.1621   24.9083   24.3355 C   0  0  0  0  0  0  0  0  0  0  0  0
   37.5208   23.6010   24.6481 C   0  0  1  0  0  0  0  0  0  0  0  0
   38.6841   22.8704   25.3237 C   0  0  2  0  0  0  0  0  0  0  0  0
  1  2  1  0  0  0  0
  2  3  1  0  0  0  0
  3 20  1  0  0  0  0
  4  5  1  0  0  0  0
  6  7  2  0  0  0  0
  6 12  1  0  0  0  0
  7  8  1  0  0  0  0
  8  9  2  0  0  0  0
  9 11  1  0  0  0  0
 10  5  1  6  0  0  0
 10 11  1  0  0  0  0
 10 16  1  0  0  0  0
 10 27  1  0  0  0  0
 11 12  2  0  0  0  0
 13 12  1  1  0  0  0
 13 15  1  0  0  0  0
 13 28  1  0  0  0  0
 14 15  2  0  0  0  0
 14 19  1  0  0  0  0
 15 16  1  0  0  0  0
 16 17  2  0  0  0  0
 17 18  1  0  0  0  0
 18 19  2  0  0  0  0
 20 21  1  0  0  0  0
 21 25  1  0  0  0  0
 22 26  2  0  0  0  0
 23 24  2  0  0  0  0
 24 25  1  0  0  0  0
 25 26  1  0  0  0  0
 27 26  1  1  0  0  0
 27 28  1  0  0  0  0
 28 24  1  1  0  0  0
M  END
>  <CHROM.1>
-74.07895021,-63.04788962,-179.19813692,-178.89847637,79.33644793,38.22103378
24.14307698,25.60140838,-0.53906940,-0.46910282,3.10703539

>  <Name>
ligand

>  <RI>
0

>  <Rbt.Current_Directory>
/home/itssahil/PROJECTS/Mol_Feturizer/New_Systems/rnas/1YLS

>  <Rbt.Executable>
rbdock ($Id: //depot/dev/client3/rdock/2013.1/src/exe/rbdock.cxx#4 $)

>  <Rbt.Library>
libRbt.so (2013.1, Build901 2013/11/27)

>  <Rbt.Parameter_File>
/export/apps/rDock/src/rDock_2013.1_src/data/scripts/dock_solv.prm

>  <Rbt.Receptor>
prm/pocket_docking_2.prm

>  <SCORE>
-37.7155

>  <SCORE.INTER>
-33.9764

>  <SCORE.INTER.CONST>
1

>  <SCORE.INTER.POLAR>
0

>  <SCORE.INTER.ROT>
5

>  <SCORE.INTER.SOLV>
6.70658

>  <SCORE.INTER.VDW>
-31.8198

>  <SCORE.INTER.norm>
-1.21344

>  <SCORE.INTRA>
-3.73912

>  <SCORE.INTRA.DIHEDRAL>
-8.94378

>  <SCORE.INTRA.DIHEDRAL.0>
12.0148

>  <SCORE.INTRA.POLAR>
0

>  <SCORE.INTRA.POLAR.0>
0

>  <SCORE.INTRA.REPUL>
0

>  <SCORE.INTRA.REPUL.0>
0

>  <SCORE.INTRA.SOLV>
-0.0587801

>  <SCORE.INTRA.SOLV.lig_0>
-10.5235

>  <SCORE.INTRA.VDW>
0.762157

>  <SCORE.INTRA.VDW.0>
-1.38455

>  <SCORE.INTRA.norm>
-0.13354

>  <SCORE.RESTR>
0

>  <SCORE.RESTR.CAVITY>
0

>  <SCORE.RESTR.norm>
0

>  <SCORE.SYSTEM>
0

>  <SCORE.SYSTEM.CONST>
0

>  <SCORE.SYSTEM.DIHEDRAL>
0

>  <SCORE.SYSTEM.SOLV>
0

>  <SCORE.SYSTEM.norm>
0

>  <SCORE.heavy>
28

>  <SCORE.norm>
-1.34698

>  <RMSD>
0.847

$$$$
ligand
 OpenBabel11021811413D
libRbt.so/2013.1/901 2013/11/27
 28 32  0  0  0  0  0  0  0  0999 V2000
   44.0464   26.0509   22.3871 C   0  0  0  0  0  0  0  0  0  0  0  0
   42.9073   26.9983   22.0664 C   0  0  0  0  0  0  0  0  0  0  0  0
   41.9764   27.1802   23.2559 C   0  0  0  0  0  0  0  0  0  0  0  0
   34.0973   24.6399   26.0871 O   0  0  0  0  0  0  0  0  0  0  0  0
   35.1093   24.5149   25.0864 C   0  0  0  0  0  0  0  0  0  0  0  0
   38.7147   24.1719   28.4324 C   0  0  0  0  0  0  0  0  0  0  0  0
   38.3732   25.4078   28.9667 C   0  0  0  0  0  0  0  0  0  0  0  0
   37.3264   26.1391   28.3996 C   0  0  0  0  0  0  0  0  0  0  0  0
   36.6207   25.6376   27.3054 C   0  0  0  0  0  0  0  0  0  0  0  0
   36.3244   23.7510   25.6282 C   0  0  1  0  0  0  0  0  0  0  0  0
   36.9596   24.3993   26.8121 C   0  0  0  0  0  0  0  0  0  0  0  0
   37.9902   23.6859   27.3699 C   0  0  0  0  0  0  0  0  0  0  0  0
   38.2962   22.4300   26.7119 C   0  0  1  0  0  0  0  0  0  0  0  0
   36.9513   20.3598   27.0228 C   0  0  0  0  0  0  0  0  0  0  0  0
   37.0623   21.6693   26.6212 C   0  0  0  0  0  0  0  0  0  0  0  0
   36.0097   22.3410   26.0597 C   0  0  0  0  0  0  0  0  0  0  0  0
   34.7937   21.6974   25.8829 C   0  0  0  0  0  0  0  0  0  0  0  0
   34.6594   20.3730   26.3051 C   0  0  0  0  0  0  0  0  0  0  0  0
   35.7373   19.7091   26.8761 C   0  0  0  0  0  0  0  0  0  0  0  0
   41.1102   25.9429   23.4535 C   0  0  0  0  0  0  0  0  0  0  0  0
   40.1788   26.1290   24.6453 C   0  0  0  0  0  0  0  0  0  0  0  0
   37.5939   25.8193   23.8087 O   0  0  0  0  0  0  0  0  0  0  0  0
   40.8306   23.6014   25.7293 O   0  0  0  0  0  0  0  0  0  0  0  0
   39.7331   23.8302   25.2486 C   0  0  0  0  0  0  0  0  0  0  0  0
   39.3560   24.9327   24.7283 N   0  0  0  0  0  0  0  0  0  0  0  0
   38.1592   24.8961   24.3353 C   0  0  0  0  0  0  0  0  0  0  0  0
   37.4854   23.6016   24.6322 C   0  0  1  0  0  0  0  0  0  0  0  0
   38.6352   22.8274   25.2818 C   0  0  2  0  0  0  0  0  0  0  0  0
  1  2  1  0  0  0  0
  2  3  1  0  0  0  0
  3 20  1  0  0  0  0
  4  5  1  0  0  0  0
  6  7  2  0  0  0  0
  6 12  1  0  0  0  0
  7  8  1  0  0  0  0
  8  9  2  0  0  0  0
  9 11  1  0  0  0  0
 10  5  1  6  0  0  0
 10 11  1  0  0  0  0
 10 16  1  0  0  0  0
 10 27  1  0  0  0  0
 11 12  2  0  0  0  0
 13 12  1  1  0  0  0
 13 15  1  0  0  0  0
 13 28  1  0  0  0  0
 14 15  2  0  0  0  0
 14 19  1  0  0  0  0
 15 16  1  0  0  0  0
 16 17  2  0  0  0  0
 17 18  1  0  0  0  0
 18 19  2  0  0  0  0
 20 21  1  0  0  0  0
 21 25  1  0  0  0  0
 22 26  2  0  0  0  0
 23 24  2  0  0  0  0
 24 25  1  0  0  0  0
 25 26  1  0  0  0  0
 27 26  1  1  0  0  0
 27 28  1  0  0  0  0
 28 24  1  1  0  0  0
M  END
>  <CHROM.1>
-74.13031103,-59.39287344,-179.97446440,177.73257287,80.39483642,38.20401157
24.11918624,25.57993583,-0.51614809,-0.49017879,3.13633438

>  <Name>
ligand

>  <RI>
0

>  <Rbt.Current_Directory>
/home/itssahil/PROJECTS/Mol_Feturizer/New_Systems/rnas/1YLS

>  <Rbt.Executable>
rbdock ($Id: //depot/dev/client3/rdock/2013.1/src/exe/rbdock.cxx#4 $)

>  <Rbt.Library>
libRbt.so (2013.1, Build901 2013/11/27)

>  <Rbt.Parameter_File>
/export/apps/rDock/src/rDock_2013.1_src/data/scripts/dock_solv.prm

>  <Rbt.Receptor>
prm/pocket_docking_2.prm

>  <SCORE>
-37.7204

>  <SCORE.INTER>
-33.9781

>  <SCORE.INTER.CONST>
1

>  <SCORE.INTER.POLAR>
0

>  <SCORE.INTER.ROT>
5

>  <SCORE.INTER.SOLV>
6.88665

>  <SCORE.INTER.VDW>
-31.8809

>  <SCORE.INTER.norm>
-1.2135

>  <SCORE.INTRA>
-3.74234

>  <SCORE.INTRA.DIHEDRAL>
-8.94741

>  <SCORE.INTRA.DIHEDRAL.0>
12.0148

>  <SCORE.INTRA.POLAR>
0

>  <SCORE.INTRA.POLAR.0>
0

>  <SCORE.INTRA.REPUL>
0

>  <SCORE.INTRA.REPUL.0>
0

>  <SCORE.INTRA.SOLV>
-0.0622822

>  <SCORE.INTRA.SOLV.lig_0>
-10.5235

>  <SCORE.INTRA.VDW>
0.76251

>  <SCORE.INTRA.VDW.0>
-1.38455

>  <SCORE.INTRA.norm>
-0.133655

>  <SCORE.RESTR>
0

>  <SCORE.RESTR.CAVITY>
0

>  <SCORE.RESTR.norm>
0

>  <SCORE.SYSTEM>
0

>  <SCORE.SYSTEM.CONST>
0

>  <SCORE.SYSTEM.DIHEDRAL>
0

>  <SCORE.SYSTEM.SOLV>
0

>  <SCORE.SYSTEM.norm>
0

>  <SCORE.heavy>
28

>  <SCORE.norm>
-1.34716

>  <RMSD>
0.855

$$$$
ligand
 OpenBabel11021811413D
libRbt.so/2013.1/901 2013/11/27
 28 32  0  0  0  0  0  0  0  0999 V2000
   44.0689   27.9547   22.2031 C   0  0  0  0  0  0  0  0  0  0  0  0
   42.9475   26.9349   22.1959 C   0  0  0  0  0  0  0  0  0  0  0  0
   41.9619   27.1758   23.3297 C   0  0  0  0  0  0  0  0  0  0  0  0
   35.2348   26.1435   25.0684 O   0  0  0  0  0  0  0  0  0  0  0  0
   34.9043   24.7582   25.1809 C   0  0  0  0  0  0  0  0  0  0  0  0
   38.6507   24.1663   28.3315 C   0  0  0  0  0  0  0  0  0  0  0  0
   38.3691   25.3841   28.9373 C   0  0  0  0  0  0  0  0  0  0  0  0
   37.3178   26.1678   28.4549 C   0  0  0  0  0  0  0  0  0  0  0  0
   36.5481   25.7364   27.3739 C   0  0  0  0  0  0  0  0  0  0  0  0
   36.1216   23.9388   25.6285 C   0  0  1  0  0  0  0  0  0  0  0  0
   36.8290   24.5144   26.8090 C   0  0  0  0  0  0  0  0  0  0  0  0
   37.8643   23.7494   27.2838 C   0  0  0  0  0  0  0  0  0  0  0  0
   38.1042   22.5182   26.5553 C   0  0  1  0  0  0  0  0  0  0  0  0
   36.7181   20.4709   26.8355 C   0  0  0  0  0  0  0  0  0  0  0  0
   36.8466   21.7946   26.4891 C   0  0  0  0  0  0  0  0  0  0  0  0
   35.7882   22.5187   26.0099 C   0  0  0  0  0  0  0  0  0  0  0  0
   34.5479   21.9155   25.8623 C   0  0  0  0  0  0  0  0  0  0  0  0
   34.3965   20.5766   26.2296 C   0  0  0  0  0  0  0  0  0  0  0  0
   35.4809   19.8593   26.7174 C   0  0  0  0  0  0  0  0  0  0  0  0
   40.9188   26.0670   23.3786 C   0  0  0  0  0  0  0  0  0  0  0  0
   39.9907   26.2605   24.5720 C   0  0  0  0  0  0  0  0  0  0  0  0
   37.3621   26.0568   23.8466 O   0  0  0  0  0  0  0  0  0  0  0  0
   40.6217   23.6690   25.5071 O   0  0  0  0  0  0  0  0  0  0  0  0
   39.5098   23.9482   25.0903 C   0  0  0  0  0  0  0  0  0  0  0  0
   39.1397   25.0832   24.6395 N   0  0  0  0  0  0  0  0  0  0  0  0
   37.9254   25.0958   24.3029 C   0  0  0  0  0  0  0  0  0  0  0  0
   37.2303   23.8065   24.5724 C   0  0  1  0  0  0  0  0  0  0  0  0
   38.3871   22.9734   25.1303 C   0  0  2  0  0  0  0  0  0  0  0  0
  1  2  1  0  0  0  0
  2  3  1  0  0  0  0
  3 20  1  0  0  0  0
  4  5  1  0  0  0  0
  6  7  2  0  0  0  0
  6 12  1  0  0  0  0
  7  8  1  0  0  0  0
  8  9  2  0  0  0  0
  9 11  1  0  0  0  0
 10  5  1  6  0  0  0
 10 11  1  0  0  0  0
 10 16  1  0  0  0  0
 10 27  1  0  0  0  0
 11 12  2  0  0  0  0
 13 12  1  1  0  0  0
 13 15  1  0  0  0  0
 13 28  1  0  0  0  0
 14 15  2  0  0  0  0
 14 19  1  0  0  0  0
 15 16  1  0  0  0  0
 16 17  2  0  0  0  0
 17 18  1  0  0  0  0
 18 19  2  0  0  0  0
 20 21  1  0  0  0  0
 21 25  1  0  0  0  0
 22 26  2  0  0  0  0
 23 24  2  0  0  0  0
 24 25  1  0  0  0  0
 25 26  1  0  0  0  0
 27 26  1  1  0  0  0
 27 28  1  0  0  0  0
 28 24  1  1  0  0  0
M  END
>  <CHROM.1>
-174.82183432,48.68461898,176.17168867,-173.14566009,77.01373723,38.09900634
24.37211921,25.47929213,-0.63610162,-0.40080495,2.99396282

>  <Name>
ligand

>  <RI>
0

>  <Rbt.Current_Directory>
/home/itssahil/PROJECTS/Mol_Feturizer/New_Systems/rnas/1YLS

>  <Rbt.Executable>
rbdock ($Id: //depot/dev/client3/rdock/2013.1/src/exe/rbdock.cxx#4 $)

>  <Rbt.Library>
libRbt.so (2013.1, Build901 2013/11/27)

>  <Rbt.Parameter_File>
/export/apps/rDock/src/rDock_2013.1_src/data/scripts/dock_solv.prm

>  <Rbt.Receptor>
prm/pocket_docking_2.prm

>  <SCORE>
-36.9783

>  <SCORE.INTER>
-33.8929

>  <SCORE.INTER.CONST>
1

>  <SCORE.INTER.POLAR>
0

>  <SCORE.INTER.ROT>
5

>  <SCORE.INTER.SOLV>
7.2186

>  <SCORE.INTER.VDW>
-31.9348

>  <SCORE.INTER.norm>
-1.21046

>  <SCORE.INTRA>
-3.08541

>  <SCORE.INTRA.DIHEDRAL>
-9.01696

>  <SCORE.INTRA.DIHEDRAL.0>
12.0148

>  <SCORE.INTRA.POLAR>
0

>  <SCORE.INTRA.POLAR.0>
0

>  <SCORE.INTRA.REPUL>
0

>  <SCORE.INTRA.REPUL.0>
0

>  <SCORE.INTRA.SOLV>
0.595219

>  <SCORE.INTRA.SOLV.lig_0>
-10.5235

>  <SCORE.INTRA.VDW>
1.12545

>  <SCORE.INTRA.VDW.0>
-1.38455

>  <SCORE.INTRA.norm>
-0.110193

>  <SCORE.RESTR>
0

>  <SCORE.RESTR.CAVITY>
0

>  <SCORE.RESTR.norm>
0

>  <SCORE.SYSTEM>
0

>  <SCORE.SYSTEM.CONST>
0

>  <SCORE.SYSTEM.DIHEDRAL>
0

>  <SCORE.SYSTEM.SOLV>
0

>  <SCORE.SYSTEM.norm>
0

>  <SCORE.heavy>
28

>  <SCORE.norm>
-1.32066

>  <RMSD>
0.857

$$$$
ligand
 OpenBabel11021811413D
libRbt.so/2013.1/901 2013/11/27
 28 32  0  0  0  0  0  0  0  0999 V2000
   44.2264   26.1356   22.0634 C   0  0  0  0  0  0  0  0  0  0  0  0
   42.7734   26.5564   21.9647 C   0  0  0  0  0  0  0  0  0  0  0  0
   42.0061   26.2282   23.2368 C   0  0  0  0  0  0  0  0  0  0  0  0
   35.1529   25.8458   24.8591 O   0  0  0  0  0  0  0  0  0  0  0  0
   35.0538   24.4285   25.0089 C   0  0  0  0  0  0  0  0  0  0  0  0
   38.6796   24.6617   28.3424 C   0  0  0  0  0  0  0  0  0  0  0  0
   38.1850   25.8620   28.8362 C   0  0  0  0  0  0  0  0  0  0  0  0
   37.0528   26.4346   28.2509 C   0  0  0  0  0  0  0  0  0  0  0  0
   36.4145   25.8100   27.1788 C   0  0  0  0  0  0  0  0  0  0  0  0
   36.3571   23.8440   25.5690 C   0  0  1  0  0  0  0  0  0  0  0  0
   36.9069   24.6084   26.7261 C   0  0  0  0  0  0  0  0  0  0  0  0
   38.0207   24.0511   27.3016 C   0  0  0  0  0  0  0  0  0  0  0  0
   38.4825   22.8220   26.6851 C   0  0  1  0  0  0  0  0  0  0  0  0
   37.4117   20.6101   27.0749 C   0  0  0  0  0  0  0  0  0  0  0  0
   37.3549   21.9084   26.6280 C   0  0  0  0  0  0  0  0  0  0  0  0
   36.2246   22.4214   26.0504 C   0  0  0  0  0  0  0  0  0  0  0  0
   35.0999   21.6231   25.9032 C   0  0  0  0  0  0  0  0  0  0  0  0
   35.1355   20.3078   26.3713 C   0  0  0  0  0  0  0  0  0  0  0  0
   36.2899   19.8061   26.9579 C   0  0  0  0  0  0  0  0  0  0  0  0
   40.5532   26.6694   23.1160 C   0  0  0  0  0  0  0  0  0  0  0  0
   39.8767   26.6560   24.4816 C   0  0  0  0  0  0  0  0  0  0  0  0
   37.3506   25.9922   23.6720 O   0  0  0  0  0  0  0  0  0  0  0  0
   40.8460   24.2705   25.6474 O   0  0  0  0  0  0  0  0  0  0  0  0
   39.7275   24.3415   25.1658 C   0  0  0  0  0  0  0  0  0  0  0  0
   39.2126   25.3686   24.6105 N   0  0  0  0  0  0  0  0  0  0  0  0
   38.0294   25.1670   24.2264 C   0  0  0  0  0  0  0  0  0  0  0  0
   37.5258   23.8086   24.5716 C   0  0  1  0  0  0  0  0  0  0  0  0
   38.7658   23.2094   25.2401 C   0  0  2  0  0  0  0  0  0  0  0  0
  1  2  1  0  0  0  0
  2  3  1  0  0  0  0
  3 20  1  0  0  0  0
  4  5  1  0  0  0  0
  6  7  2  0  0  0  0
  6 12  1  0  0  0  0
  7  8  1  0  0  0  0
  8  9  2  0  0  0  0
  9 11  1  0  0  0  0
 10  5  1  6  0  0  0
 10 11  1  0  0  0  0
 10 16  1  0  0  0  0
 10 27  1  0  0  0  0
 11 12  2  0  0  0  0
 13 12  1  1  0  0  0
 13 15  1  0  0  0  0
 13 28  1  0  0  0  0
 14 15  2  0  0  0  0
 14 19  1  0  0  0  0
 15 16  1  0  0  0  0
 16 17  2  0  0  0  0
 17 18  1  0  0  0  0
 18 19  2  0  0  0  0
 20 21  1  0  0  0  0
 21 25  1  0  0  0  0
 22 26  2  0  0  0  0
 23 24  2  0  0  0  0
 24 25  1  0  0  0  0
 25 26  1  0  0  0  0
 27 26  1  1  0  0  0
 27 28  1  0  0  0  0
 28 24  1  1  0  0  0
M  END
>  <CHROM.1>
179.59545517,45.86262708,-166.27818271,-94.52712807,93.90156454,38.26411135
24.36601706,25.44521985,-0.59646954,-0.46158683,2.97606427

>  <Name>
ligand

>  <RI>
0

>  <Rbt.Current_Directory>
/home/itssahil/PROJECTS/Mol_Feturizer/New_Systems/rnas/1YLS

>  <Rbt.Executable>
rbdock ($Id: //depot/dev/client3/rdock/2013.1/src/exe/rbdock.cxx#4 $)

>  <Rbt.Library>
libRbt.so (2013.1, Build901 2013/11/27)

>  <Rbt.Parameter_File>
/export/apps/rDock/src/rDock_2013.1_src/data/scripts/dock_solv.prm

>  <Rbt.Receptor>
prm/pocket_docking_2.prm

>  <SCORE>
-34.5568

>  <SCORE.INTER>
-33.1543

>  <SCORE.INTER.CONST>
1

>  <SCORE.INTER.POLAR>
0

>  <SCORE.INTER.ROT>
5

>  <SCORE.INTER.SOLV>
6.5063

>  <SCORE.INTER.VDW>
-31.205

>  <SCORE.INTER.norm>
-1.18408

>  <SCORE.INTRA>
-1.40247

>  <SCORE.INTRA.DIHEDRAL>
-5.03061

>  <SCORE.INTRA.DIHEDRAL.0>
12.0148

>  <SCORE.INTRA.POLAR>
0

>  <SCORE.INTRA.POLAR.0>
0

>  <SCORE.INTRA.REPUL>
0

>  <SCORE.INTRA.REPUL.0>
0

>  <SCORE.INTRA.SOLV>
0.771844

>  <SCORE.INTRA.SOLV.lig_0>
-10.5235

>  <SCORE.INTRA.VDW>
0.726913

>  <SCORE.INTRA.VDW.0>
-1.38455

>  <SCORE.INTRA.norm>
-0.0500882

>  <SCORE.RESTR>
0

>  <SCORE.RESTR.CAVITY>
0

>  <SCORE.RESTR.norm>
0

>  <SCORE.SYSTEM>
0

>  <SCORE.SYSTEM.CONST>
0

>  <SCORE.SYSTEM.DIHEDRAL>
0

>  <SCORE.SYSTEM.SOLV>
0

>  <SCORE.SYSTEM.norm>
0

>  <SCORE.heavy>
28

>  <SCORE.norm>
-1.23417

>  <RMSD>
0.857

$$$$
ligand
 OpenBabel11021811413D
libRbt.so/2013.1/901 2013/11/27
 28 32  0  0  0  0  0  0  0  0999 V2000
   44.0254   28.1126   22.1430 C   0  0  0  0  0  0  0  0  0  0  0  0
   42.8743   27.1277   22.1944 C   0  0  0  0  0  0  0  0  0  0  0  0
   42.3081   26.9986   23.6007 C   0  0  0  0  0  0  0  0  0  0  0  0
   34.4334   25.0185   26.0399 O   0  0  0  0  0  0  0  0  0  0  0  0
   35.5310   24.8610   25.1391 C   0  0  0  0  0  0  0  0  0  0  0  0
   38.8004   23.7914   28.6717 C   0  0  0  0  0  0  0  0  0  0  0  0
   38.6196   25.0392   29.2544 C   0  0  0  0  0  0  0  0  0  0  0  0
   37.7409   25.9537   28.6681 C   0  0  0  0  0  0  0  0  0  0  0  0
   37.0426   25.6230   27.5061 C   0  0  0  0  0  0  0  0  0  0  0  0
   36.5723   23.8888   25.7085 C   0  0  1  0  0  0  0  0  0  0  0  0
   37.2177   24.3713   26.9639 C   0  0  0  0  0  0  0  0  0  0  0  0
   38.0839   23.4775   27.5412 C   0  0  0  0  0  0  0  0  0  0  0  0
   38.2351   22.2213   26.8319 C   0  0  1  0  0  0  0  0  0  0  0  0
   36.5662   20.3791   26.9415 C   0  0  0  0  0  0  0  0  0  0  0  0
   36.9070   21.6717   26.6232 C   0  0  0  0  0  0  0  0  0  0  0  0
   36.0130   22.5281   26.0386 C   0  0  0  0  0  0  0  0  0  0  0  0
   34.7267   22.0951   25.7520 C   0  0  0  0  0  0  0  0  0  0  0  0
   34.3592   20.7906   26.0885 C   0  0  0  0  0  0  0  0  0  0  0  0
   35.2787   19.9375   26.6845 C   0  0  0  0  0  0  0  0  0  0  0  0
   41.2834   25.8735   23.6654 C   0  0  0  0  0  0  0  0  0  0  0  0
   40.8081   25.6671   25.0987 C   0  0  0  0  0  0  0  0  0  0  0  0
   38.2703   25.8123   24.0909 O   0  0  0  0  0  0  0  0  0  0  0  0
   40.9825   23.0197   26.0732 O   0  0  0  0  0  0  0  0  0  0  0  0
   39.9696   23.4426   25.5409 C   0  0  0  0  0  0  0  0  0  0  0  0
   39.8055   24.6143   25.0629 N   0  0  0  0  0  0  0  0  0  0  0  0
   38.6475   24.7872   24.5968 C   0  0  0  0  0  0  0  0  0  0  0  0
   37.7615   23.6038   24.7777 C   0  0  1  0  0  0  0  0  0  0  0  0
   38.7294   22.6267   25.4501 C   0  0  2  0  0  0  0  0  0  0  0  0
  1  2  1  0  0  0  0
  2  3  1  0  0  0  0
  3 20  1  0  0  0  0
  4  5  1  0  0  0  0
  6  7  2  0  0  0  0
  6 12  1  0  0  0  0
  7  8  1  0  0  0  0
  8  9  2  0  0  0  0
  9 11  1  0  0  0  0
 10  5  1  6  0  0  0
 10 11  1  0  0  0  0
 10 16  1  0  0  0  0
 10 27  1  0  0  0  0
 11 12  2  0  0  0  0
 13 12  1  1  0  0  0
 13 15  1  0  0  0  0
 13 28  1  0  0  0  0
 14 15  2  0  0  0  0
 14 19  1  0  0  0  0
 15 16  1  0  0  0  0
 16 17  2  0  0  0  0
 17 18  1  0  0  0  0
 18 19  2  0  0  0  0
 20 21  1  0  0  0  0
 21 25  1  0  0  0  0
 22 26  2  0  0  0  0
 23 24  2  0  0  0  0
 24 25  1  0  0  0  0
 25 26  1  0  0  0  0
 27 26  1  1  0  0  0
 27 28  1  0  0  0  0
 28 24  1  1  0  0  0
M  END
>  <CHROM.1>
-172.43130641,-63.83946750,175.08609883,178.08367078,110.19454200,38.37751273
24.14932186,25.71206469,0.70678568,0.08065275,-0.54098307

>  <Name>
ligand

>  <RI>
0

>  <Rbt.Current_Directory>
/home/itssahil/PROJECTS/Mol_Feturizer/New_Systems/rnas/1YLS

>  <Rbt.Executable>
rbdock ($Id: //depot/dev/client3/rdock/2013.1/src/exe/rbdock.cxx#4 $)

>  <Rbt.Library>
libRbt.so (2013.1, Build901 2013/11/27)

>  <Rbt.Parameter_File>
/export/apps/rDock/src/rDock_2013.1_src/data/scripts/dock_solv.prm

>  <Rbt.Receptor>
prm/pocket_docking_5.prm

>  <SCORE>
-36.6903

>  <SCORE.INTER>
-32.2523

>  <SCORE.INTER.CONST>
1

>  <SCORE.INTER.POLAR>
0

>  <SCORE.INTER.ROT>
5

>  <SCORE.INTER.SOLV>
6.17527

>  <SCORE.INTER.VDW>
-30.4933

>  <SCORE.INTER.norm>
-1.15187

>  <SCORE.INTRA>
-4.43804

>  <SCORE.INTRA.DIHEDRAL>
-9.33193

>  <SCORE.INTRA.DIHEDRAL.0>
12.0148

>  <SCORE.INTRA.POLAR>
0

>  <SCORE.INTRA.POLAR.0>
0

>  <SCORE.INTRA.REPUL>
0

>  <SCORE.INTRA.REPUL.0>
0

>  <SCORE.INTRA.SOLV>
-0.0326403

>  <SCORE.INTRA.SOLV.lig_0>
-10.5235

>  <SCORE.INTRA.VDW>
0.244243

>  <SCORE.INTRA.VDW.0>
-1.38455

>  <SCORE.INTRA.norm>
-0.158501

>  <SCORE.RESTR>
0

>  <SCORE.RESTR.CAVITY>
0

>  <SCORE.RESTR.norm>
0

>  <SCORE.SYSTEM>
0

>  <SCORE.SYSTEM.CONST>
0

>  <SCORE.SYSTEM.DIHEDRAL>
0

>  <SCORE.SYSTEM.SOLV>
0

>  <SCORE.SYSTEM.norm>
0

>  <SCORE.heavy>
28

>  <SCORE.norm>
-1.31037

>  <RMSD>
0.865

$$$$
ligand
 OpenBabel11021811413D
libRbt.so/2013.1/901 2013/11/27
 28 32  0  0  0  0  0  0  0  0999 V2000
   44.1032   27.9629   22.1146 C   0  0  0  0  0  0  0  0  0  0  0  0
   42.8418   27.1230   22.1512 C   0  0  0  0  0  0  0  0  0  0  0  0
   42.3657   26.8865   23.5768 C   0  0  0  0  0  0  0  0  0  0  0  0
   34.2776   25.3069   26.0183 O   0  0  0  0  0  0  0  0  0  0  0  0
   35.4161   25.2262   25.1591 C   0  0  0  0  0  0  0  0  0  0  0  0
   38.6760   23.7348   28.5445 C   0  0  0  0  0  0  0  0  0  0  0  0
   38.5974   24.9578   29.1982 C   0  0  0  0  0  0  0  0  0  0  0  0
   37.7738   25.9629   28.6847 C   0  0  0  0  0  0  0  0  0  0  0  0
   37.0288   25.7472   27.5247 C   0  0  0  0  0  0  0  0  0  0  0  0
   36.3972   24.1532   25.6485 C   0  0  1  0  0  0  0  0  0  0  0  0
   37.1023   24.5185   26.9114 C   0  0  0  0  0  0  0  0  0  0  0  0
   37.9147   23.5354   27.4173 C   0  0  0  0  0  0  0  0  0  0  0  0
   37.9605   22.3131   26.6375 C   0  0  1  0  0  0  0  0  0  0  0  0
   36.1669   20.5893   26.6898 C   0  0  0  0  0  0  0  0  0  0  0  0
   36.5923   21.8706   26.4332 C   0  0  0  0  0  0  0  0  0  0  0  0
   35.7494   22.8188   25.9187 C   0  0  0  0  0  0  0  0  0  0  0  0
   34.4296   22.4938   25.6419 C   0  0  0  0  0  0  0  0  0  0  0  0
   33.9771   21.2015   25.9167 C   0  0  0  0  0  0  0  0  0  0  0  0
   34.8460   20.2542   26.4421 C   0  0  0  0  0  0  0  0  0  0  0  0
   41.2156   25.8881   23.5997 C   0  0  0  0  0  0  0  0  0  0  0  0
   40.7353   25.6611   25.0282 C   0  0  0  0  0  0  0  0  0  0  0  0
   38.1932   26.0399   24.0946 O   0  0  0  0  0  0  0  0  0  0  0  0
   40.7409   22.9578   25.8535 O   0  0  0  0  0  0  0  0  0  0  0  0
   39.7497   23.4797   25.3707 C   0  0  0  0  0  0  0  0  0  0  0  0
   39.6594   24.6849   24.9611 N   0  0  0  0  0  0  0  0  0  0  0  0
   38.5069   24.9643   24.5346 C   0  0  0  0  0  0  0  0  0  0  0  0
   37.5428   23.8377   24.6737 C   0  0  1  0  0  0  0  0  0  0  0  0
   38.4526   22.7592   25.2675 C   0  0  2  0  0  0  0  0  0  0  0  0
  1  2  1  0  0  0  0
  2  3  1  0  0  0  0
  3 20  1  0  0  0  0
  4  5  1  0  0  0  0
  6  7  2  0  0  0  0
  6 12  1  0  0  0  0
  7  8  1  0  0  0  0
  8  9  2  0  0  0  0
  9 11  1  0  0  0  0
 10  5  1  6  0  0  0
 10 11  1  0  0  0  0
 10 16  1  0  0  0  0
 10 27  1  0  0  0  0
 11 12  2  0  0  0  0
 13 12  1  1  0  0  0
 13 15  1  0  0  0  0
 13 28  1  0  0  0  0
 14 15  2  0  0  0  0
 14 19  1  0  0  0  0
 15 16  1  0  0  0  0
 16 17  2  0  0  0  0
 17 18  1  0  0  0  0
 18 19  2  0  0  0  0
 20 21  1  0  0  0  0
 21 25  1  0  0  0  0
 22 26  2  0  0  0  0
 23 24  2  0  0  0  0
 24 25  1  0  0  0  0
 25 26  1  0  0  0  0
 27 26  1  1  0  0  0
 27 28  1  0  0  0  0
 28 24  1  1  0  0  0
M  END
>  <CHROM.1>
-172.23102802,-70.21549636,-179.61152346,-179.05962368,108.86623556,38.21865315
24.27395970,25.61671437,0.65992779,-0.03728927,-0.70630220

>  <Name>
ligand

>  <RI>
0

>  <Rbt.Current_Directory>
/home/itssahil/PROJECTS/Mol_Feturizer/New_Systems/rnas/1YLS

>  <Rbt.Executable>
rbdock ($Id: //depot/dev/client3/rdock/2013.1/src/exe/rbdock.cxx#4 $)

>  <Rbt.Library>
libRbt.so (2013.1, Build901 2013/11/27)

>  <Rbt.Parameter_File>
/export/apps/rDock/src/rDock_2013.1_src/data/scripts/dock_solv.prm

>  <Rbt.Receptor>
prm/pocket_docking_7.prm

>  <SCORE>
-36.3319

>  <SCORE.INTER>
-32.0257

>  <SCORE.INTER.CONST>
1

>  <SCORE.INTER.POLAR>
0

>  <SCORE.INTER.ROT>
5

>  <SCORE.INTER.SOLV>
6.38924

>  <SCORE.INTER.VDW>
-30.4135

>  <SCORE.INTER.norm>
-1.14377

>  <SCORE.INTRA>
-4.30622

>  <SCORE.INTRA.DIHEDRAL>
-9.16471

>  <SCORE.INTRA.DIHEDRAL.0>
12.0148

>  <SCORE.INTRA.POLAR>
0

>  <SCORE.INTRA.POLAR.0>
0

>  <SCORE.INTRA.REPUL>
0

>  <SCORE.INTRA.REPUL.0>
0

>  <SCORE.INTRA.SOLV>
-0.0378529

>  <SCORE.INTRA.SOLV.lig_0>
-10.5235

>  <SCORE.INTRA.VDW>
0.295065

>  <SCORE.INTRA.VDW.0>
-1.38455

>  <SCORE.INTRA.norm>
-0.153794

>  <SCORE.RESTR>
0

>  <SCORE.RESTR.CAVITY>
0

>  <SCORE.RESTR.norm>
0

>  <SCORE.SYSTEM>
0

>  <SCORE.SYSTEM.CONST>
0

>  <SCORE.SYSTEM.DIHEDRAL>
0

>  <SCORE.SYSTEM.SOLV>
0

>  <SCORE.SYSTEM.norm>
0

>  <SCORE.heavy>
28

>  <SCORE.norm>
-1.29757

>  <RMSD>
0.865

$$$$
ligand
 OpenBabel11021811413D
libRbt.so/2013.1/901 2013/11/27
 28 32  0  0  0  0  0  0  0  0999 V2000
   43.5906   26.4304   21.6860 C   0  0  0  0  0  0  0  0  0  0  0  0
   43.6540   26.6812   23.1797 C   0  0  0  0  0  0  0  0  0  0  0  0
   42.2929   27.0610   23.7436 C   0  0  0  0  0  0  0  0  0  0  0  0
   34.0644   24.3036   25.8975 O   0  0  0  0  0  0  0  0  0  0  0  0
   35.1382   24.2454   24.9570 C   0  0  0  0  0  0  0  0  0  0  0  0
   38.6399   24.3666   28.4262 C   0  0  0  0  0  0  0  0  0  0  0  0
   38.1979   25.6073   28.8673 C   0  0  0  0  0  0  0  0  0  0  0  0
   37.1247   26.2268   28.2218 C   0  0  0  0  0  0  0  0  0  0  0  0
   36.4927   25.6089   27.1420 C   0  0  0  0  0  0  0  0  0  0  0  0
   36.3823   23.6035   25.5845 C   0  0  1  0  0  0  0  0  0  0  0  0
   36.9309   24.3683   26.7418 C   0  0  0  0  0  0  0  0  0  0  0  0
   37.9871   23.7649   27.3765 C   0  0  0  0  0  0  0  0  0  0  0  0
   38.3994   22.4938   26.8123 C   0  0  1  0  0  0  0  0  0  0  0  0
   37.1865   20.3595   27.2180 C   0  0  0  0  0  0  0  0  0  0  0  0
   37.2232   21.6453   26.7345 C   0  0  0  0  0  0  0  0  0  0  0  0
   36.1481   22.2054   26.0983 C   0  0  0  0  0  0  0  0  0  0  0  0
   34.9850   21.4692   25.9274 C   0  0  0  0  0  0  0  0  0  0  0  0
   34.9253   20.1683   26.4317 C   0  0  0  0  0  0  0  0  0  0  0  0
   36.0248   19.6183   27.0776 C   0  0  0  0  0  0  0  0  0  0  0  0
   41.3784   25.8444   23.8032 C   0  0  0  0  0  0  0  0  0  0  0  0
   40.1002   26.1753   24.5646 C   0  0  0  0  0  0  0  0  0  0  0  0
   37.5726   25.6347   23.6721 O   0  0  0  0  0  0  0  0  0  0  0  0
   40.8821   23.7730   25.8321 O   0  0  0  0  0  0  0  0  0  0  0  0
   39.7891   23.8942   25.3042 C   0  0  0  0  0  0  0  0  0  0  0  0
   39.3572   24.9326   24.7011 N   0  0  0  0  0  0  0  0  0  0  0  0
   38.1800   24.7883   24.2753 C   0  0  0  0  0  0  0  0  0  0  0  0
   37.5846   23.4717   24.6363 C   0  0  1  0  0  0  0  0  0  0  0  0
   38.7605   22.8219   25.3701 C   0  0  2  0  0  0  0  0  0  0  0  0
  1  2  1  0  0  0  0
  2  3  1  0  0  0  0
  3 20  1  0  0  0  0
  4  5  1  0  0  0  0
  6  7  2  0  0  0  0
  6 12  1  0  0  0  0
  7  8  1  0  0  0  0
  8  9  2  0  0  0  0
  9 11  1  0  0  0  0
 10  5  1  6  0  0  0
 10 11  1  0  0  0  0
 10 16  1  0  0  0  0
 10 27  1  0  0  0  0
 11 12  2  0  0  0  0
 13 12  1  1  0  0  0
 13 15  1  0  0  0  0
 13 28  1  0  0  0  0
 14 15  2  0  0  0  0
 14 19  1  0  0  0  0
 15 16  1  0  0  0  0
 16 17  2  0  0  0  0
 17 18  1  0  0  0  0
 18 19  2  0  0  0  0
 20 21  1  0  0  0  0
 21 25  1  0  0  0  0
 22 26  2  0  0  0  0
 23 24  2  0  0  0  0
 24 25  1  0  0  0  0
 25 26  1  0  0  0  0
 27 26  1  1  0  0  0
 27 28  1  0  0  0  0
 28 24  1  1  0  0  0
M  END
>  <CHROM.1>
73.38290969,-62.23855904,171.16812982,-173.90589433,60.46224304,38.27224809
24.07568690,25.61913094,-0.52928378,-0.46257435,3.13685091

>  <Name>
ligand

>  <RI>
0

>  <Rbt.Current_Directory>
/home/itssahil/PROJECTS/Mol_Feturizer/New_Systems/rnas/1YLS

>  <Rbt.Executable>
rbdock ($Id: //depot/dev/client3/rdock/2013.1/src/exe/rbdock.cxx#4 $)

>  <Rbt.Library>
libRbt.so (2013.1, Build901 2013/11/27)

>  <Rbt.Parameter_File>
/export/apps/rDock/src/rDock_2013.1_src/data/scripts/dock_solv.prm

>  <Rbt.Receptor>
prm/pocket_docking_2.prm

>  <SCORE>
-36.1835

>  <SCORE.INTER>
-33.2866

>  <SCORE.INTER.CONST>
1

>  <SCORE.INTER.POLAR>
0

>  <SCORE.INTER.ROT>
5

>  <SCORE.INTER.SOLV>
6.90381

>  <SCORE.INTER.VDW>
-31.4257

>  <SCORE.INTER.norm>
-1.18881

>  <SCORE.INTRA>
-2.89689

>  <SCORE.INTRA.DIHEDRAL>
-8.41292

>  <SCORE.INTRA.DIHEDRAL.0>
12.0148

>  <SCORE.INTRA.POLAR>
0

>  <SCORE.INTRA.POLAR.0>
0

>  <SCORE.INTRA.REPUL>
0

>  <SCORE.INTRA.REPUL.0>
0

>  <SCORE.INTRA.SOLV>
-0.0204265

>  <SCORE.INTRA.SOLV.lig_0>
-10.5235

>  <SCORE.INTRA.VDW>
1.31978

>  <SCORE.INTRA.VDW.0>
-1.38455

>  <SCORE.INTRA.norm>
-0.103461

>  <SCORE.RESTR>
0

>  <SCORE.RESTR.CAVITY>
0

>  <SCORE.RESTR.norm>
0

>  <SCORE.SYSTEM>
0

>  <SCORE.SYSTEM.CONST>
0

>  <SCORE.SYSTEM.DIHEDRAL>
0

>  <SCORE.SYSTEM.SOLV>
0

>  <SCORE.SYSTEM.norm>
0

>  <SCORE.heavy>
28

>  <SCORE.norm>
-1.29227

>  <RMSD>
0.866

$$$$
ligand
 OpenBabel11021811413D
libRbt.so/2013.1/901 2013/11/27
 28 32  0  0  0  0  0  0  0  0999 V2000
   43.4137   27.8823   22.3344 C   0  0  0  0  0  0  0  0  0  0  0  0
   42.9987   26.4264   22.2555 C   0  0  0  0  0  0  0  0  0  0  0  0
   42.0565   26.0489   23.3889 C   0  0  0  0  0  0  0  0  0  0  0  0
   34.0056   24.3350   25.7963 O   0  0  0  0  0  0  0  0  0  0  0  0
   35.0823   24.3457   24.8574 C   0  0  0  0  0  0  0  0  0  0  0  0
   38.5524   24.8088   28.3297 C   0  0  0  0  0  0  0  0  0  0  0  0
   38.0092   26.0162   28.7497 C   0  0  0  0  0  0  0  0  0  0  0  0
   36.8908   26.5354   28.0925 C   0  0  0  0  0  0  0  0  0  0  0  0
   36.3146   25.8506   27.0220 C   0  0  0  0  0  0  0  0  0  0  0  0
   36.3729   23.8179   25.4973 C   0  0  1  0  0  0  0  0  0  0  0  0
   36.8538   24.6436   26.6428 C   0  0  0  0  0  0  0  0  0  0  0  0
   37.9539   24.1389   27.2890 C   0  0  0  0  0  0  0  0  0  0  0  0
   38.4703   22.8968   26.7462 C   0  0  1  0  0  0  0  0  0  0  0  0
   37.4347   20.6773   27.1848 C   0  0  0  0  0  0  0  0  0  0  0  0
   37.3677   21.9539   26.6804 C   0  0  0  0  0  0  0  0  0  0  0  0
   36.2522   22.4139   26.0335 C   0  0  0  0  0  0  0  0  0  0  0  0
   35.1536   21.5824   25.8729 C   0  0  0  0  0  0  0  0  0  0  0  0
   35.1989   20.2892   26.3982 C   0  0  0  0  0  0  0  0  0  0  0  0
   36.3378   19.8415   27.0548 C   0  0  0  0  0  0  0  0  0  0  0  0
   40.6648   26.6162   23.1412 C   0  0  0  0  0  0  0  0  0  0  0  0
   39.8712   26.6681   24.4413 C   0  0  0  0  0  0  0  0  0  0  0  0
   37.3988   25.9084   23.5538 O   0  0  0  0  0  0  0  0  0  0  0  0
   40.8431   24.3586   25.7491 O   0  0  0  0  0  0  0  0  0  0  0  0
   39.7454   24.3815   25.2176 C   0  0  0  0  0  0  0  0  0  0  0  0
   39.2318   25.3713   24.5970 N   0  0  0  0  0  0  0  0  0  0  0  0
   38.0715   25.1243   24.1717 C   0  0  0  0  0  0  0  0  0  0  0  0
   37.5847   23.7695   24.5533 C   0  0  1  0  0  0  0  0  0  0  0  0
   38.8076   23.2299   25.2994 C   0  0  2  0  0  0  0  0  0  0  0  0
  1  2  1  0  0  0  0
  2  3  1  0  0  0  0
  3 20  1  0  0  0  0
  4  5  1  0  0  0  0
  6  7  2  0  0  0  0
  6 12  1  0  0  0  0
  7  8  1  0  0  0  0
  8  9  2  0  0  0  0
  9 11  1  0  0  0  0
 10  5  1  6  0  0  0
 10 11  1  0  0  0  0
 10 16  1  0  0  0  0
 10 27  1  0  0  0  0
 11 12  2  0  0  0  0
 13 12  1  1  0  0  0
 13 15  1  0  0  0  0
 13 28  1  0  0  0  0
 14 15  2  0  0  0  0
 14 19  1  0  0  0  0
 15 16  1  0  0  0  0
 16 17  2  0  0  0  0
 17 18  1  0  0  0  0
 18 19  2  0  0  0  0
 20 21  1  0  0  0  0
 21 25  1  0  0  0  0
 22 26  2  0  0  0  0
 23 24  2  0  0  0  0
 24 25  1  0  0  0  0
 25 26  1  0  0  0  0
 27 26  1  1  0  0  0
 27 28  1  0  0  0  0
 28 24  1  1  0  0  0
M  END
>  <CHROM.1>
74.72626112,-62.05848684,-160.45564464,-86.84860418,91.06091849,38.18974244
24.37768956,25.49889781,-0.60749737,-0.46477024,3.04934344

>  <Name>
ligand

>  <RI>
0

>  <Rbt.Current_Directory>
/home/itssahil/PROJECTS/Mol_Feturizer/New_Systems/rnas/1YLS

>  <Rbt.Executable>
rbdock ($Id: //depot/dev/client3/rdock/2013.1/src/exe/rbdock.cxx#4 $)

>  <Rbt.Library>
libRbt.so (2013.1, Build901 2013/11/27)

>  <Rbt.Parameter_File>
/export/apps/rDock/src/rDock_2013.1_src/data/scripts/dock_solv.prm

>  <Rbt.Receptor>
prm/pocket_docking_2.prm

>  <SCORE>
-35.0434

>  <SCORE.INTER>
-33.0534

>  <SCORE.INTER.CONST>
1

>  <SCORE.INTER.POLAR>
0

>  <SCORE.INTER.ROT>
5

>  <SCORE.INTER.SOLV>
6.43898

>  <SCORE.INTER.VDW>
-31.1152

>  <SCORE.INTER.norm>
-1.18048

>  <SCORE.INTRA>
-1.99007

>  <SCORE.INTRA.DIHEDRAL>
-5.15646

>  <SCORE.INTRA.DIHEDRAL.0>
12.0148

>  <SCORE.INTRA.POLAR>
0

>  <SCORE.INTRA.POLAR.0>
0

>  <SCORE.INTRA.REPUL>
0

>  <SCORE.INTRA.REPUL.0>
0

>  <SCORE.INTRA.SOLV>
0.186745

>  <SCORE.INTRA.SOLV.lig_0>
-10.5235

>  <SCORE.INTRA.VDW>
0.49479

>  <SCORE.INTRA.VDW.0>
-1.38455

>  <SCORE.INTRA.norm>
-0.0710739

>  <SCORE.RESTR>
0

>  <SCORE.RESTR.CAVITY>
0

>  <SCORE.RESTR.norm>
0

>  <SCORE.SYSTEM>
0

>  <SCORE.SYSTEM.CONST>
0

>  <SCORE.SYSTEM.DIHEDRAL>
0

>  <SCORE.SYSTEM.SOLV>
0

>  <SCORE.SYSTEM.norm>
0

>  <SCORE.heavy>
28

>  <SCORE.norm>
-1.25155

>  <RMSD>
0.866

$$$$
ligand
 OpenBabel11021811413D
libRbt.so/2013.1/901 2013/11/27
 28 32  0  0  0  0  0  0  0  0999 V2000
   44.0081   28.0563   22.2449 C   0  0  0  0  0  0  0  0  0  0  0  0
   42.9430   26.9778   22.2518 C   0  0  0  0  0  0  0  0  0  0  0  0
   41.8992   27.2262   23.3305 C   0  0  0  0  0  0  0  0  0  0  0  0
   33.8860   24.6508   26.1478 O   0  0  0  0  0  0  0  0  0  0  0  0
   34.8781   24.5934   25.1213 C   0  0  0  0  0  0  0  0  0  0  0  0
   38.6113   24.2537   28.3245 C   0  0  0  0  0  0  0  0  0  0  0  0
   38.2718   25.4755   28.8913 C   0  0  0  0  0  0  0  0  0  0  0  0
   37.1935   26.1993   28.3758 C   0  0  0  0  0  0  0  0  0  0  0  0
   36.4548   25.7042   27.3005 C   0  0  0  0  0  0  0  0  0  0  0  0
   36.1241   23.8400   25.6048 C   0  0  1  0  0  0  0  0  0  0  0  0
   36.7934   24.4794   26.7747 C   0  0  0  0  0  0  0  0  0  0  0  0
   37.8548   23.7733   27.2819 C   0  0  0  0  0  0  0  0  0  0  0  0
   38.1547   22.5329   26.5925 C   0  0  1  0  0  0  0  0  0  0  0  0
   36.8535   20.4373   26.9193 C   0  0  0  0  0  0  0  0  0  0  0  0
   36.9297   21.7546   26.5354 C   0  0  0  0  0  0  0  0  0  0  0  0
   35.8469   22.4187   26.0246 C   0  0  0  0  0  0  0  0  0  0  0  0
   34.6349   21.7591   25.8828 C   0  0  0  0  0  0  0  0  0  0  0  0
   34.5364   20.4263   26.2879 C   0  0  0  0  0  0  0  0  0  0  0  0
   35.6447   19.7703   26.8073 C   0  0  0  0  0  0  0  0  0  0  0  0
   40.9082   26.0712   23.3944 C   0  0  0  0  0  0  0  0  0  0  0  0
   39.9028   26.2930   24.5180 C   0  0  0  0  0  0  0  0  0  0  0  0
   37.2933   25.9564   23.7734 O   0  0  0  0  0  0  0  0  0  0  0  0
   40.6326   23.7590   25.5354 O   0  0  0  0  0  0  0  0  0  0  0  0
   39.5145   23.9783   25.0997 C   0  0  0  0  0  0  0  0  0  0  0  0
   39.1017   25.0829   24.6120 N   0  0  0  0  0  0  0  0  0  0  0  0
   37.8917   25.0339   24.2633 C   0  0  0  0  0  0  0  0  0  0  0  0
   37.2489   23.7245   24.5640 C   0  0  1  0  0  0  0  0  0  0  0  0
   38.4338   22.9581   25.1574 C   0  0  2  0  0  0  0  0  0  0  0  0
  1  2  1  0  0  0  0
  2  3  1  0  0  0  0
  3 20  1  0  0  0  0
  4  5  1  0  0  0  0
  6  7  2  0  0  0  0
  6 12  1  0  0  0  0
  7  8  1  0  0  0  0
  8  9  2  0  0  0  0
  9 11  1  0  0  0  0
 10  5  1  6  0  0  0
 10 11  1  0  0  0  0
 10 16  1  0  0  0  0
 10 27  1  0  0  0  0
 11 12  2  0  0  0  0
 13 12  1  1  0  0  0
 13 15  1  0  0  0  0
 13 28  1  0  0  0  0
 14 15  2  0  0  0  0
 14 19  1  0  0  0  0
 15 16  1  0  0  0  0
 16 17  2  0  0  0  0
 17 18  1  0  0  0  0
 18 19  2  0  0  0  0
 20 21  1  0  0  0  0
 21 25  1  0  0  0  0
 22 26  2  0  0  0  0
 23 24  2  0  0  0  0
 24 25  1  0  0  0  0
 25 26  1  0  0  0  0
 27 26  1  1  0  0  0
 27 28  1  0  0  0  0
 28 24  1  1  0  0  0
M  END
>  <CHROM.1>
-175.25355282,-61.18642253,177.40446237,-173.38842691,73.65347218,38.03833888
24.28891374,25.52611642,-0.57145495,-0.47321838,3.12454676

>  <Name>
ligand

>  <RI>
0

>  <Rbt.Current_Directory>
/home/itssahil/PROJECTS/Mol_Feturizer/New_Systems/rnas/1YLS

>  <Rbt.Executable>
rbdock ($Id: //depot/dev/client3/rdock/2013.1/src/exe/rbdock.cxx#4 $)

>  <Rbt.Library>
libRbt.so (2013.1, Build901 2013/11/27)

>  <Rbt.Parameter_File>
/export/apps/rDock/src/rDock_2013.1_src/data/scripts/dock_solv.prm

>  <Rbt.Receptor>
prm/pocket_docking_5.prm

>  <SCORE>
-38.5122

>  <SCORE.INTER>
-33.8335

>  <SCORE.INTER.CONST>
1

>  <SCORE.INTER.POLAR>
0

>  <SCORE.INTER.ROT>
5

>  <SCORE.INTER.SOLV>
7.56133

>  <SCORE.INTER.VDW>
-32.0095

>  <SCORE.INTER.norm>
-1.20834

>  <SCORE.INTRA>
-4.67863

>  <SCORE.INTRA.DIHEDRAL>
-9.43925

>  <SCORE.INTRA.DIHEDRAL.0>
12.0148

>  <SCORE.INTRA.POLAR>
0

>  <SCORE.INTRA.POLAR.0>
0

>  <SCORE.INTRA.REPUL>
0

>  <SCORE.INTRA.REPUL.0>
0

>  <SCORE.INTRA.SOLV>
-0.0311072

>  <SCORE.INTRA.SOLV.lig_0>
-10.5235

>  <SCORE.INTRA.VDW>
0.0565418

>  <SCORE.INTRA.VDW.0>
-1.38455

>  <SCORE.INTRA.norm>
-0.167094

>  <SCORE.RESTR>
0

>  <SCORE.RESTR.CAVITY>
0

>  <SCORE.RESTR.norm>
0

>  <SCORE.SYSTEM>
0

>  <SCORE.SYSTEM.CONST>
0

>  <SCORE.SYSTEM.DIHEDRAL>
0

>  <SCORE.SYSTEM.SOLV>
0

>  <SCORE.SYSTEM.norm>
0

>  <SCORE.heavy>
28

>  <SCORE.norm>
-1.37543

>  <RMSD>
0.867

$$$$
ligand
 OpenBabel11021811413D
libRbt.so/2013.1/901 2013/11/27
 28 32  0  0  0  0  0  0  0  0999 V2000
   44.1178   28.0122   22.2309 C   0  0  0  0  0  0  0  0  0  0  0  0
   42.9967   26.9919   22.2238 C   0  0  0  0  0  0  0  0  0  0  0  0
   42.0211   27.2216   23.3684 C   0  0  0  0  0  0  0  0  0  0  0  0
   34.3124   24.3601   24.1206 O   0  0  0  0  0  0  0  0  0  0  0  0
   34.9549   24.8784   25.2866 C   0  0  0  0  0  0  0  0  0  0  0  0
   38.7576   24.0895   28.3246 C   0  0  0  0  0  0  0  0  0  0  0  0
   38.5162   25.2890   28.9820 C   0  0  0  0  0  0  0  0  0  0  0  0
   37.4715   26.1122   28.5540 C   0  0  0  0  0  0  0  0  0  0  0  0
   36.6685   25.7382   27.4759 C   0  0  0  0  0  0  0  0  0  0  0  0
   36.1640   24.0175   25.6747 C   0  0  1  0  0  0  0  0  0  0  0  0
   36.9101   24.5330   26.8591 C   0  0  0  0  0  0  0  0  0  0  0  0
   37.9389   23.7291   27.2806 C   0  0  0  0  0  0  0  0  0  0  0  0
   38.1357   22.5218   26.5011 C   0  0  1  0  0  0  0  0  0  0  0  0
   36.7122   20.4946   26.7365 C   0  0  0  0  0  0  0  0  0  0  0  0
   36.8616   21.8275   26.4371 C   0  0  0  0  0  0  0  0  0  0  0  0
   35.8085   22.5912   26.0101 C   0  0  0  0  0  0  0  0  0  0  0  0
   34.5524   22.0199   25.8690 C   0  0  0  0  0  0  0  0  0  0  0  0
   34.3804   20.6715   26.1892 C   0  0  0  0  0  0  0  0  0  0  0  0
   35.4597   19.9138   26.6244 C   0  0  0  0  0  0  0  0  0  0  0  0
   40.9795   26.1112   23.4165 C   0  0  0  0  0  0  0  0  0  0  0  0
   40.0577   26.2967   24.6160 C   0  0  0  0  0  0  0  0  0  0  0  0
   37.4097   26.1755   23.9450 O   0  0  0  0  0  0  0  0  0  0  0  0
   40.6533   23.6589   25.4384 O   0  0  0  0  0  0  0  0  0  0  0  0
   39.5386   23.9768   25.0584 C   0  0  0  0  0  0  0  0  0  0  0  0
   39.1832   25.1356   24.6592 N   0  0  0  0  0  0  0  0  0  0  0  0
   37.9621   25.1862   24.3517 C   0  0  0  0  0  0  0  0  0  0  0  0
   37.2455   23.9024   24.5888 C   0  0  1  0  0  0  0  0  0  0  0  0
   38.3963   23.0248   25.0879 C   0  0  2  0  0  0  0  0  0  0  0  0
  1  2  1  0  0  0  0
  2  3  1  0  0  0  0
  3 20  1  0  0  0  0
  4  5  1  0  0  0  0
  6  7  2  0  0  0  0
  6 12  1  0  0  0  0
  7  8  1  0  0  0  0
  8  9  2  0  0  0  0
  9 11  1  0  0  0  0
 10  5  1  6  0  0  0
 10 11  1  0  0  0  0
 10 16  1  0  0  0  0
 10 27  1  0  0  0  0
 11 12  2  0  0  0  0
 13 12  1  1  0  0  0
 13 15  1  0  0  0  0
 13 28  1  0  0  0  0
 14 15  2  0  0  0  0
 14 19  1  0  0  0  0
 15 16  1  0  0  0  0
 16 17  2  0  0  0  0
 17 18  1  0  0  0  0
 18 19  2  0  0  0  0
 20 21  1  0  0  0  0
 21 25  1  0  0  0  0
 22 26  2  0  0  0  0
 23 24  2  0  0  0  0
 24 25  1  0  0  0  0
 25 26  1  0  0  0  0
 27 26  1  1  0  0  0
 27 28  1  0  0  0  0
 28 24  1  1  0  0  0
M  END
>  <CHROM.1>
-174.77800695,177.95420126,176.44042013,-174.71067219,75.52755951,38.10466351
24.33190571,25.45030036,0.59034441,-0.41951584,-1.14611503

>  <Name>
ligand

>  <RI>
0

>  <Rbt.Current_Directory>
/home/itssahil/PROJECTS/Mol_Feturizer/New_Systems/rnas/1YLS

>  <Rbt.Executable>
rbdock ($Id: //depot/dev/client3/rdock/2013.1/src/exe/rbdock.cxx#4 $)

>  <Rbt.Library>
libRbt.so (2013.1, Build901 2013/11/27)

>  <Rbt.Parameter_File>
/export/apps/rDock/src/rDock_2013.1_src/data/scripts/dock_solv.prm

>  <Rbt.Receptor>
prm/pocket_docking_4.prm

>  <SCORE>
-38.4881

>  <SCORE.INTER>
-33.9521

>  <SCORE.INTER.CONST>
1

>  <SCORE.INTER.POLAR>
0

>  <SCORE.INTER.ROT>
5

>  <SCORE.INTER.SOLV>
7.48816

>  <SCORE.INTER.VDW>
-32.0641

>  <SCORE.INTER.norm>
-1.21257

>  <SCORE.INTRA>
-4.53603

>  <SCORE.INTRA.DIHEDRAL>
-9.46177

>  <SCORE.INTRA.DIHEDRAL.0>
12.0148

>  <SCORE.INTRA.POLAR>
0

>  <SCORE.INTRA.POLAR.0>
0

>  <SCORE.INTRA.REPUL>
0

>  <SCORE.INTRA.REPUL.0>
0

>  <SCORE.INTRA.SOLV>
0.16914

>  <SCORE.INTRA.SOLV.lig_0>
-10.5235

>  <SCORE.INTRA.VDW>
0.110284

>  <SCORE.INTRA.VDW.0>
-1.38455

>  <SCORE.INTRA.norm>
-0.162001

>  <SCORE.RESTR>
0

>  <SCORE.RESTR.CAVITY>
0

>  <SCORE.RESTR.norm>
0

>  <SCORE.SYSTEM>
0

>  <SCORE.SYSTEM.CONST>
0

>  <SCORE.SYSTEM.DIHEDRAL>
0

>  <SCORE.SYSTEM.SOLV>
0

>  <SCORE.SYSTEM.norm>
0

>  <SCORE.heavy>
28

>  <SCORE.norm>
-1.37458

>  <RMSD>
0.873

$$$$
ligand
 OpenBabel11021811413D
libRbt.so/2013.1/901 2013/11/27
 28 32  0  0  0  0  0  0  0  0999 V2000
   44.0915   27.8631   22.1847 C   0  0  0  0  0  0  0  0  0  0  0  0
   42.9225   26.8981   22.1724 C   0  0  0  0  0  0  0  0  0  0  0  0
   41.9677   27.1578   23.3281 C   0  0  0  0  0  0  0  0  0  0  0  0
   33.8493   25.2282   26.2790 O   0  0  0  0  0  0  0  0  0  0  0  0
   34.8023   25.1437   25.2179 C   0  0  0  0  0  0  0  0  0  0  0  0
   38.5499   24.1199   28.2543 C   0  0  0  0  0  0  0  0  0  0  0  0
   38.3684   25.3214   28.9272 C   0  0  0  0  0  0  0  0  0  0  0  0
   37.3688   26.2029   28.5077 C   0  0  0  0  0  0  0  0  0  0  0  0
   36.5510   25.8851   27.4226 C   0  0  0  0  0  0  0  0  0  0  0  0
   35.9642   24.2166   25.5974 C   0  0  1  0  0  0  0  0  0  0  0  0
   36.7322   24.6773   26.7904 C   0  0  0  0  0  0  0  0  0  0  0  0
   37.7170   23.8160   27.2036 C   0  0  0  0  0  0  0  0  0  0  0  0
   37.8538   22.6106   26.4085 C   0  0  1  0  0  0  0  0  0  0  0  0
   36.3272   20.6564   26.6133 C   0  0  0  0  0  0  0  0  0  0  0  0
   36.5459   21.9837   26.3321 C   0  0  0  0  0  0  0  0  0  0  0  0
   35.5349   22.8061   25.9129 C   0  0  0  0  0  0  0  0  0  0  0  0
   34.2515   22.3022   25.7610 C   0  0  0  0  0  0  0  0  0  0  0  0
   34.0094   20.9603   26.0628 C   0  0  0  0  0  0  0  0  0  0  0  0
   35.0469   20.1423   26.4904 C   0  0  0  0  0  0  0  0  0  0  0  0
   40.8611   26.1114   23.3553 C   0  0  0  0  0  0  0  0  0  0  0  0
   39.9733   26.3062   24.5788 C   0  0  0  0  0  0  0  0  0  0  0  0
   37.3246   26.3303   23.8998 O   0  0  0  0  0  0  0  0  0  0  0  0
   40.4299   23.6306   25.3672 O   0  0  0  0  0  0  0  0  0  0  0  0
   39.3342   24.0105   24.9888 C   0  0  0  0  0  0  0  0  0  0  0  0
   39.0401   25.1912   24.6042 N   0  0  0  0  0  0  0  0  0  0  0  0
   37.8242   25.3087   24.2945 C   0  0  0  0  0  0  0  0  0  0  0  0
   37.0418   24.0603   24.5127 C   0  0  1  0  0  0  0  0  0  0  0  0
   38.1443   23.1182   25.0028 C   0  0  2  0  0  0  0  0  0  0  0  0
  1  2  1  0  0  0  0
  2  3  1  0  0  0  0
  3 20  1  0  0  0  0
  4  5  1  0  0  0  0
  6  7  2  0  0  0  0
  6 12  1  0  0  0  0
  7  8  1  0  0  0  0
  8  9  2  0  0  0  0
  9 11  1  0  0  0  0
 10  5  1  6  0  0  0
 10 11  1  0  0  0  0
 10 16  1  0  0  0  0
 10 27  1  0  0  0  0
 11 12  2  0  0  0  0
 13 12  1  1  0  0  0
 13 15  1  0  0  0  0
 13 28  1  0  0  0  0
 14 15  2  0  0  0  0
 14 19  1  0  0  0  0
 15 16  1  0  0  0  0
 16 17  2  0  0  0  0
 17 18  1  0  0  0  0
 18 19  2  0  0  0  0
 20 21  1  0  0  0  0
 21 25  1  0  0  0  0
 22 26  2  0  0  0  0
 23 24  2  0  0  0  0
 24 25  1  0  0  0  0
 25 26  1  0  0  0  0
 27 26  1  1  0  0  0
 27 28  1  0  0  0  0
 28 24  1  1  0  0  0
M  END
>  <CHROM.1>
-175.70652596,-61.20140756,175.37100685,-174.08077078,77.18370823,37.90247322
24.46067615,25.47497338,-0.44209476,-0.51598595,-3.00677799

>  <Name>
ligand

>  <RI>
0

>  <Rbt.Current_Directory>
/home/itssahil/PROJECTS/Mol_Feturizer/New_Systems/rnas/1YLS

>  <Rbt.Executable>
rbdock ($Id: //depot/dev/client3/rdock/2013.1/src/exe/rbdock.cxx#4 $)

>  <Rbt.Library>
libRbt.so (2013.1, Build901 2013/11/27)

>  <Rbt.Parameter_File>
/export/apps/rDock/src/rDock_2013.1_src/data/scripts/dock_solv.prm

>  <Rbt.Receptor>
prm/pocket_docking_2.prm

>  <SCORE>
-38.5242

>  <SCORE.INTER>
-33.771

>  <SCORE.INTER.CONST>
1

>  <SCORE.INTER.POLAR>
0

>  <SCORE.INTER.ROT>
5

>  <SCORE.INTER.SOLV>
7.60411

>  <SCORE.INTER.VDW>
-31.9821

>  <SCORE.INTER.norm>
-1.20611

>  <SCORE.INTRA>
-4.75314

>  <SCORE.INTRA.DIHEDRAL>
-9.45324

>  <SCORE.INTRA.DIHEDRAL.0>
12.0148

>  <SCORE.INTRA.POLAR>
0

>  <SCORE.INTRA.POLAR.0>
0

>  <SCORE.INTRA.REPUL>
0

>  <SCORE.INTRA.REPUL.0>
0

>  <SCORE.INTRA.SOLV>
-0.0378257

>  <SCORE.INTRA.SOLV.lig_0>
-10.5235

>  <SCORE.INTRA.VDW>
-0.00761248

>  <SCORE.INTRA.VDW.0>
-1.38455

>  <SCORE.INTRA.norm>
-0.169755

>  <SCORE.RESTR>
0

>  <SCORE.RESTR.CAVITY>
0

>  <SCORE.RESTR.norm>
0

>  <SCORE.SYSTEM>
0

>  <SCORE.SYSTEM.CONST>
0

>  <SCORE.SYSTEM.DIHEDRAL>
0

>  <SCORE.SYSTEM.SOLV>
0

>  <SCORE.SYSTEM.norm>
0

>  <SCORE.heavy>
28

>  <SCORE.norm>
-1.37586

>  <RMSD>
0.875

$$$$
ligand
 OpenBabel11021811413D
libRbt.so/2013.1/901 2013/11/27
 28 32  0  0  0  0  0  0  0  0999 V2000
   43.8430   26.1942   22.1683 C   0  0  0  0  0  0  0  0  0  0  0  0
   42.7413   27.2225   22.0051 C   0  0  0  0  0  0  0  0  0  0  0  0
   41.8870   27.3340   23.2592 C   0  0  0  0  0  0  0  0  0  0  0  0
   34.0644   24.5012   26.0008 O   0  0  0  0  0  0  0  0  0  0  0  0
   35.1239   24.4487   25.0438 C   0  0  0  0  0  0  0  0  0  0  0  0
   38.6695   24.2876   28.4666 C   0  0  0  0  0  0  0  0  0  0  0  0
   38.2770   25.5212   28.9700 C   0  0  0  0  0  0  0  0  0  0  0  0
   37.2187   26.2068   28.3683 C   0  0  0  0  0  0  0  0  0  0  0  0
   36.5522   25.6619   27.2702 C   0  0  0  0  0  0  0  0  0  0  0  0
   36.3520   23.7356   25.6242 C   0  0  1  0  0  0  0  0  0  0  0  0
   36.9413   24.4266   26.8077 C   0  0  0  0  0  0  0  0  0  0  0  0
   37.9831   23.7581   27.3995 C   0  0  0  0  0  0  0  0  0  0  0  0
   38.3433   22.5009   26.7721 C   0  0  1  0  0  0  0  0  0  0  0  0
   37.0607   20.3936   27.0963 C   0  0  0  0  0  0  0  0  0  0  0  0
   37.1370   21.6984   26.6717 C   0  0  0  0  0  0  0  0  0  0  0  0
   36.0748   22.3243   26.0766 C   0  0  0  0  0  0  0  0  0  0  0  0
   34.8843   21.6377   25.8882 C   0  0  0  0  0  0  0  0  0  0  0  0
   34.7847   20.3177   26.3332 C   0  0  0  0  0  0  0  0  0  0  0  0
   35.8718   19.7006   26.9381 C   0  0  0  0  0  0  0  0  0  0  0  0
   40.9941   26.1093   23.4108 C   0  0  0  0  0  0  0  0  0  0  0  0
   40.1459   26.2209   24.6721 C   0  0  0  0  0  0  0  0  0  0  0  0
   37.5902   25.8104   23.7906 O   0  0  0  0  0  0  0  0  0  0  0  0
   40.8577   23.7369   25.8174 O   0  0  0  0  0  0  0  0  0  0  0  0
   39.7633   23.9203   25.3107 C   0  0  0  0  0  0  0  0  0  0  0  0
   39.3612   24.9999   24.7618 N   0  0  0  0  0  0  0  0  0  0  0  0
   38.1745   24.9164   24.3460 C   0  0  0  0  0  0  0  0  0  0  0  0
   37.5373   23.6061   24.6545 C   0  0  1  0  0  0  0  0  0  0  0  0
   38.6983   22.8826   25.3416 C   0  0  2  0  0  0  0  0  0  0  0  0
  1  2  1  0  0  0  0
  2  3  1  0  0  0  0
  3 20  1  0  0  0  0
  4  5  1  0  0  0  0
  6  7  2  0  0  0  0
  6 12  1  0  0  0  0
  7  8  1  0  0  0  0
  8  9  2  0  0  0  0
  9 11  1  0  0  0  0
 10  5  1  6  0  0  0
 10 11  1  0  0  0  0
 10 16  1  0  0  0  0
 10 27  1  0  0  0  0
 11 12  2  0  0  0  0
 13 12  1  1  0  0  0
 13 15  1  0  0  0  0
 13 28  1  0  0  0  0
 14 15  2  0  0  0  0
 14 19  1  0  0  0  0
 15 16  1  0  0  0  0
 16 17  2  0  0  0  0
 17 18  1  0  0  0  0
 18 19  2  0  0  0  0
 20 21  1  0  0  0  0
 21 25  1  0  0  0  0
 22 26  2  0  0  0  0
 23 24  2  0  0  0  0
 24 25  1  0  0  0  0
 25 26  1  0  0  0  0
 27 26  1  1  0  0  0
 27 28  1  0  0  0  0
 28 24  1  1  0  0  0
M  END
>  <CHROM.1>
-72.59896746,-62.21640596,179.67227885,-178.20664110,86.67822712,38.19711059
24.16795229,25.58199547,-0.53890616,-0.51897356,-3.13848884

>  <Name>
ligand

>  <RI>
0

>  <Rbt.Current_Directory>
/home/itssahil/PROJECTS/Mol_Feturizer/New_Systems/rnas/1YLS

>  <Rbt.Executable>
rbdock ($Id: //depot/dev/client3/rdock/2013.1/src/exe/rbdock.cxx#4 $)

>  <Rbt.Library>
libRbt.so (2013.1, Build901 2013/11/27)

>  <Rbt.Parameter_File>
/export/apps/rDock/src/rDock_2013.1_src/data/scripts/dock_solv.prm

>  <Rbt.Receptor>
prm/pocket_docking_7.prm

>  <SCORE>
-38.1062

>  <SCORE.INTER>
-34.2983

>  <SCORE.INTER.CONST>
1

>  <SCORE.INTER.POLAR>
0

>  <SCORE.INTER.ROT>
5

>  <SCORE.INTER.SOLV>
6.95037

>  <SCORE.INTER.VDW>
-32.1156

>  <SCORE.INTER.norm>
-1.22494

>  <SCORE.INTRA>
-3.80792

>  <SCORE.INTRA.DIHEDRAL>
-9.13354

>  <SCORE.INTRA.DIHEDRAL.0>
12.0148

>  <SCORE.INTRA.POLAR>
0

>  <SCORE.INTRA.POLAR.0>
0

>  <SCORE.INTRA.REPUL>
0

>  <SCORE.INTRA.REPUL.0>
0

>  <SCORE.INTRA.SOLV>
-0.0682162

>  <SCORE.INTRA.SOLV.lig_0>
-10.5235

>  <SCORE.INTRA.VDW>
0.792962

>  <SCORE.INTRA.VDW.0>
-1.38455

>  <SCORE.INTRA.norm>
-0.135997

>  <SCORE.RESTR>
0

>  <SCORE.RESTR.CAVITY>
0

>  <SCORE.RESTR.norm>
0

>  <SCORE.SYSTEM>
0

>  <SCORE.SYSTEM.CONST>
0

>  <SCORE.SYSTEM.DIHEDRAL>
0

>  <SCORE.SYSTEM.SOLV>
0

>  <SCORE.SYSTEM.norm>
0

>  <SCORE.heavy>
28

>  <SCORE.norm>
-1.36094

>  <RMSD>
0.876

$$$$
ligand
 OpenBabel11021811413D
libRbt.so/2013.1/901 2013/11/27
 28 32  0  0  0  0  0  0  0  0999 V2000
   43.5657   26.3604   21.5880 C   0  0  0  0  0  0  0  0  0  0  0  0
   43.7159   26.2042   23.0883 C   0  0  0  0  0  0  0  0  0  0  0  0
   42.4932   26.7208   23.8320 C   0  0  0  0  0  0  0  0  0  0  0  0
   34.3203   24.4982   23.9707 O   0  0  0  0  0  0  0  0  0  0  0  0
   34.9961   25.0517   25.1013 C   0  0  0  0  0  0  0  0  0  0  0  0
   38.5865   24.1071   28.3462 C   0  0  0  0  0  0  0  0  0  0  0  0
   38.3881   25.3353   28.9640 C   0  0  0  0  0  0  0  0  0  0  0  0
   37.4195   26.2100   28.4653 C   0  0  0  0  0  0  0  0  0  0  0  0
   36.6493   25.8592   27.3559 C   0  0  0  0  0  0  0  0  0  0  0  0
   36.1282   24.1281   25.5694 C   0  0  1  0  0  0  0  0  0  0  0  0
   36.8453   24.6264   26.7789 C   0  0  0  0  0  0  0  0  0  0  0  0
   37.7997   23.7717   27.2699 C   0  0  0  0  0  0  0  0  0  0  0  0
   37.9590   22.5354   26.5281 C   0  0  1  0  0  0  0  0  0  0  0  0
   36.4016   20.6059   26.7347 C   0  0  0  0  0  0  0  0  0  0  0  0
   36.6487   21.9193   26.4142 C   0  0  0  0  0  0  0  0  0  0  0  0
   35.6680   22.7352   25.9174 C   0  0  0  0  0  0  0  0  0  0  0  0
   34.3872   22.2387   25.7248 C   0  0  0  0  0  0  0  0  0  0  0  0
   34.1155   20.9119   26.0652 C   0  0  0  0  0  0  0  0  0  0  0  0
   35.1223   20.1004   26.5715 C   0  0  0  0  0  0  0  0  0  0  0  0
   41.3513   25.7161   23.7499 C   0  0  0  0  0  0  0  0  0  0  0  0
   40.2046   26.1370   24.6615 C   0  0  0  0  0  0  0  0  0  0  0  0
   37.5908   26.1617   23.8589 O   0  0  0  0  0  0  0  0  0  0  0  0
   40.5925   23.4890   25.5708 O   0  0  0  0  0  0  0  0  0  0  0  0
   39.5201   23.8651   25.1274 C   0  0  0  0  0  0  0  0  0  0  0  0
   39.2581   25.0331   24.6853 N   0  0  0  0  0  0  0  0  0  0  0  0
   38.0594   25.1509   24.3148 C   0  0  0  0  0  0  0  0  0  0  0  0
   37.2530   23.9198   24.5430 C   0  0  1  0  0  0  0  0  0  0  0  0
   38.3204   22.9860   25.1194 C   0  0  2  0  0  0  0  0  0  0  0  0
  1  2  1  0  0  0  0
  2  3  1  0  0  0  0
  3 20  1  0  0  0  0
  4  5  1  0  0  0  0
  6  7  2  0  0  0  0
  6 12  1  0  0  0  0
  7  8  1  0  0  0  0
  8  9  2  0  0  0  0
  9 11  1  0  0  0  0
 10  5  1  6  0  0  0
 10 11  1  0  0  0  0
 10 16  1  0  0  0  0
 10 27  1  0  0  0  0
 11 12  2  0  0  0  0
 13 12  1  1  0  0  0
 13 15  1  0  0  0  0
 13 28  1  0  0  0  0
 14 15  2  0  0  0  0
 14 19  1  0  0  0  0
 15 16  1  0  0  0  0
 16 17  2  0  0  0  0
 17 18  1  0  0  0  0
 18 19  2  0  0  0  0
 20 21  1  0  0  0  0
 21 25  1  0  0  0  0
 22 26  2  0  0  0  0
 23 24  2  0  0  0  0
 24 25  1  0  0  0  0
 25 26  1  0  0  0  0
 27 26  1  1  0  0  0
 27 28  1  0  0  0  0
 28 24  1  1  0  0  0
M  END
>  <CHROM.1>
77.40633596,-177.99015234,171.64492395,-171.30500382,62.48655158,38.08444994
24.23908024,25.45263061,0.41873709,-0.43411851,-1.42509684

>  <Name>
ligand

>  <RI>
0

>  <Rbt.Current_Directory>
/home/itssahil/PROJECTS/Mol_Feturizer/New_Systems/rnas/1YLS

>  <Rbt.Executable>
rbdock ($Id: //depot/dev/client3/rdock/2013.1/src/exe/rbdock.cxx#4 $)

>  <Rbt.Library>
libRbt.so (2013.1, Build901 2013/11/27)

>  <Rbt.Parameter_File>
/export/apps/rDock/src/rDock_2013.1_src/data/scripts/dock_solv.prm

>  <Rbt.Receptor>
prm/pocket_docking_7.prm

>  <SCORE>
-35.8966

>  <SCORE.INTER>
-33.2392

>  <SCORE.INTER.CONST>
1

>  <SCORE.INTER.POLAR>
0

>  <SCORE.INTER.ROT>
5

>  <SCORE.INTER.SOLV>
7.28559

>  <SCORE.INTER.VDW>
-31.5213

>  <SCORE.INTER.norm>
-1.18711

>  <SCORE.INTRA>
-2.65745

>  <SCORE.INTRA.DIHEDRAL>
-7.84549

>  <SCORE.INTRA.DIHEDRAL.0>
12.0148

>  <SCORE.INTRA.POLAR>
0

>  <SCORE.INTRA.POLAR.0>
0

>  <SCORE.INTRA.REPUL>
0

>  <SCORE.INTRA.REPUL.0>
0

>  <SCORE.INTRA.SOLV>
0.161607

>  <SCORE.INTRA.SOLV.lig_0>
-10.5235

>  <SCORE.INTRA.VDW>
1.18449

>  <SCORE.INTRA.VDW.0>
-1.38455

>  <SCORE.INTRA.norm>
-0.0949089

>  <SCORE.RESTR>
0

>  <SCORE.RESTR.CAVITY>
0

>  <SCORE.RESTR.norm>
0

>  <SCORE.SYSTEM>
0

>  <SCORE.SYSTEM.CONST>
0

>  <SCORE.SYSTEM.DIHEDRAL>
0

>  <SCORE.SYSTEM.SOLV>
0

>  <SCORE.SYSTEM.norm>
0

>  <SCORE.heavy>
28

>  <SCORE.norm>
-1.28202

>  <RMSD>
0.876

$$$$
ligand
 OpenBabel11021811413D
libRbt.so/2013.1/901 2013/11/27
 28 32  0  0  0  0  0  0  0  0999 V2000
   43.8622   26.2684   22.2375 C   0  0  0  0  0  0  0  0  0  0  0  0
   42.7355   27.2526   21.9925 C   0  0  0  0  0  0  0  0  0  0  0  0
   41.8330   27.3874   23.2099 C   0  0  0  0  0  0  0  0  0  0  0  0
   34.0439   24.4601   26.0384 O   0  0  0  0  0  0  0  0  0  0  0  0
   35.0873   24.4275   25.0630 C   0  0  0  0  0  0  0  0  0  0  0  0
   38.6964   24.3177   28.4208 C   0  0  0  0  0  0  0  0  0  0  0  0
   38.2938   25.5444   28.9332 C   0  0  0  0  0  0  0  0  0  0  0  0
   37.2141   26.2141   28.3518 C   0  0  0  0  0  0  0  0  0  0  0  0
   36.5365   25.6601   27.2650 C   0  0  0  0  0  0  0  0  0  0  0  0
   36.3368   23.7331   25.6199 C   0  0  1  0  0  0  0  0  0  0  0  0
   36.9365   24.4317   26.7937 C   0  0  0  0  0  0  0  0  0  0  0  0
   37.9992   23.7789   27.3655 C   0  0  0  0  0  0  0  0  0  0  0  0
   38.3677   22.5283   26.7297 C   0  0  1  0  0  0  0  0  0  0  0  0
   37.1243   20.4007   27.0737 C   0  0  0  0  0  0  0  0  0  0  0  0
   37.1725   21.7070   26.6499 C   0  0  0  0  0  0  0  0  0  0  0  0
   36.0900   22.3170   26.0751 C   0  0  0  0  0  0  0  0  0  0  0  0
   34.9073   21.6120   25.9072 C   0  0  0  0  0  0  0  0  0  0  0  0
   34.8364   20.2900   26.3518 C   0  0  0  0  0  0  0  0  0  0  0  0
   35.9439   19.6893   26.9360 C   0  0  0  0  0  0  0  0  0  0  0  0
   40.9828   26.1363   23.3886 C   0  0  0  0  0  0  0  0  0  0  0  0
   40.0734   26.2789   24.6034 C   0  0  0  0  0  0  0  0  0  0  0  0
   37.5089   25.8294   23.7675 O   0  0  0  0  0  0  0  0  0  0  0  0
   40.8446   23.8049   25.7317 O   0  0  0  0  0  0  0  0  0  0  0  0
   39.7386   23.9717   25.2452 C   0  0  0  0  0  0  0  0  0  0  0  0
   39.3096   25.0455   24.7053 N   0  0  0  0  0  0  0  0  0  0  0  0
   38.1171   24.9440   24.3109 C   0  0  0  0  0  0  0  0  0  0  0  0
   37.5063   23.6234   24.6288 C   0  0  1  0  0  0  0  0  0  0  0  0
   38.6907   22.9173   25.2937 C   0  0  2  0  0  0  0  0  0  0  0  0
  1  2  1  0  0  0  0
  2  3  1  0  0  0  0
  3 20  1  0  0  0  0
  4  5  1  0  0  0  0
  6  7  2  0  0  0  0
  6 12  1  0  0  0  0
  7  8  1  0  0  0  0
  8  9  2  0  0  0  0
  9 11  1  0  0  0  0
 10  5  1  6  0  0  0
 10 11  1  0  0  0  0
 10 16  1  0  0  0  0
 10 27  1  0  0  0  0
 11 12  2  0  0  0  0
 13 12  1  1  0  0  0
 13 15  1  0  0  0  0
 13 28  1  0  0  0  0
 14 15  2  0  0  0  0
 14 19  1  0  0  0  0
 15 16  1  0  0  0  0
 16 17  2  0  0  0  0
 17 18  1  0  0  0  0
 18 19  2  0  0  0  0
 20 21  1  0  0  0  0
 21 25  1  0  0  0  0
 22 26  2  0  0  0  0
 23 24  2  0  0  0  0
 24 25  1  0  0  0  0
 25 26  1  0  0  0  0
 27 26  1  1  0  0  0
 27 28  1  0  0  0  0
 28 24  1  1  0  0  0
M  END
>  <CHROM.1>
-72.09476211,-62.31004551,-179.61657200,-179.59448985,82.24121888,38.19000032
24.18664439,25.56156485,-0.56147665,-0.50433406,3.11334104

>  <Name>
ligand

>  <RI>
0

>  <Rbt.Current_Directory>
/home/itssahil/PROJECTS/Mol_Feturizer/New_Systems/rnas/1YLS

>  <Rbt.Executable>
rbdock ($Id: //depot/dev/client3/rdock/2013.1/src/exe/rbdock.cxx#4 $)

>  <Rbt.Library>
libRbt.so (2013.1, Build901 2013/11/27)

>  <Rbt.Parameter_File>
/export/apps/rDock/src/rDock_2013.1_src/data/scripts/dock_solv.prm

>  <Rbt.Receptor>
prm/pocket_docking_7.prm

>  <SCORE>
-38.1211

>  <SCORE.INTER>
-34.3266

>  <SCORE.INTER.CONST>
1

>  <SCORE.INTER.POLAR>
0

>  <SCORE.INTER.ROT>
5

>  <SCORE.INTER.SOLV>
7.04949

>  <SCORE.INTER.VDW>
-32.1676

>  <SCORE.INTER.norm>
-1.22595

>  <SCORE.INTRA>
-3.79456

>  <SCORE.INTRA.DIHEDRAL>
-9.17671

>  <SCORE.INTRA.DIHEDRAL.0>
12.0148

>  <SCORE.INTRA.POLAR>
0

>  <SCORE.INTRA.POLAR.0>
0

>  <SCORE.INTRA.REPUL>
0

>  <SCORE.INTRA.REPUL.0>
0

>  <SCORE.INTRA.SOLV>
-0.0643167

>  <SCORE.INTRA.SOLV.lig_0>
-10.5235

>  <SCORE.INTRA.VDW>
0.825955

>  <SCORE.INTRA.VDW.0>
-1.38455

>  <SCORE.INTRA.norm>
-0.13552

>  <SCORE.RESTR>
0

>  <SCORE.RESTR.CAVITY>
0

>  <SCORE.RESTR.norm>
0

>  <SCORE.SYSTEM>
0

>  <SCORE.SYSTEM.CONST>
0

>  <SCORE.SYSTEM.DIHEDRAL>
0

>  <SCORE.SYSTEM.SOLV>
0

>  <SCORE.SYSTEM.norm>
0

>  <SCORE.heavy>
28

>  <SCORE.norm>
-1.36147

>  <RMSD>
0.879

$$$$
ligand
 OpenBabel11021811413D
libRbt.so/2013.1/901 2013/11/27
 28 32  0  0  0  0  0  0  0  0999 V2000
   43.8227   26.1891   22.1893 C   0  0  0  0  0  0  0  0  0  0  0  0
   42.7131   27.2018   21.9858 C   0  0  0  0  0  0  0  0  0  0  0  0
   41.8370   27.3309   23.2230 C   0  0  0  0  0  0  0  0  0  0  0  0
   34.0367   24.6486   26.1045 O   0  0  0  0  0  0  0  0  0  0  0  0
   35.0424   24.5441   25.0952 C   0  0  0  0  0  0  0  0  0  0  0  0
   38.6756   24.2184   28.4127 C   0  0  0  0  0  0  0  0  0  0  0  0
   38.3220   25.4449   28.9604 C   0  0  0  0  0  0  0  0  0  0  0  0
   37.2618   26.1676   28.4072 C   0  0  0  0  0  0  0  0  0  0  0  0
   36.5549   25.6666   27.3135 C   0  0  0  0  0  0  0  0  0  0  0  0
   36.2712   23.7913   25.6216 C   0  0  1  0  0  0  0  0  0  0  0  0
   36.9062   24.4373   26.8068 C   0  0  0  0  0  0  0  0  0  0  0  0
   37.9500   23.7324   27.3510 C   0  0  0  0  0  0  0  0  0  0  0  0
   38.2675   22.4864   26.6796 C   0  0  1  0  0  0  0  0  0  0  0  0
   36.9518   20.3963   26.9814 C   0  0  0  0  0  0  0  0  0  0  0  0
   37.0429   21.7106   26.5907 C   0  0  0  0  0  0  0  0  0  0  0  0
   35.9778   22.3736   26.0426 C   0  0  0  0  0  0  0  0  0  0  0  0
   34.7691   21.7157   25.8686 C   0  0  0  0  0  0  0  0  0  0  0  0
   34.6549   20.3860   26.2798 C   0  0  0  0  0  0  0  0  0  0  0  0
   35.7453   19.7312   26.8373 C   0  0  0  0  0  0  0  0  0  0  0  0
   40.9567   26.0989   23.3880 C   0  0  0  0  0  0  0  0  0  0  0  0
   40.0873   26.2279   24.6332 C   0  0  0  0  0  0  0  0  0  0  0  0
   37.5008   25.8920   23.8118 O   0  0  0  0  0  0  0  0  0  0  0  0
   40.7795   23.6994   25.6899 O   0  0  0  0  0  0  0  0  0  0  0  0
   39.6757   23.9182   25.2189 C   0  0  0  0  0  0  0  0  0  0  0  0
   39.2807   25.0203   24.7111 N   0  0  0  0  0  0  0  0  0  0  0  0
   38.0818   24.9716   24.3262 C   0  0  0  0  0  0  0  0  0  0  0  0
   37.4269   23.6658   24.6163 C   0  0  1  0  0  0  0  0  0  0  0  0
   38.5912   22.9009   25.2508 C   0  0  2  0  0  0  0  0  0  0  0  0
  1  2  1  0  0  0  0
  2  3  1  0  0  0  0
  3 20  1  0  0  0  0
  4  5  1  0  0  0  0
  6  7  2  0  0  0  0
  6 12  1  0  0  0  0
  7  8  1  0  0  0  0
  8  9  2  0  0  0  0
  9 11  1  0  0  0  0
 10  5  1  6  0  0  0
 10 11  1  0  0  0  0
 10 16  1  0  0  0  0
 10 27  1  0  0  0  0
 11 12  2  0  0  0  0
 13 12  1  1  0  0  0
 13 15  1  0  0  0  0
 13 28  1  0  0  0  0
 14 15  2  0  0  0  0
 14 19  1  0  0  0  0
 15 16  1  0  0  0  0
 16 17  2  0  0  0  0
 17 18  1  0  0  0  0
 18 19  2  0  0  0  0
 20 21  1  0  0  0  0
 21 25  1  0  0  0  0
 22 26  2  0  0  0  0
 23 24  2  0  0  0  0
 24 25  1  0  0  0  0
 25 26  1  0  0  0  0
 27 26  1  1  0  0  0
 27 28  1  0  0  0  0
 28 24  1  1  0  0  0
M  END
>  <CHROM.1>
-72.47636000,-59.31507785,179.62684383,179.77491163,83.52586860,38.13482262
24.18682148,25.55244201,-0.52341356,-0.52136274,-3.12321758

>  <Name>
ligand

>  <RI>
0

>  <Rbt.Current_Directory>
/home/itssahil/PROJECTS/Mol_Feturizer/New_Systems/rnas/1YLS

>  <Rbt.Executable>
rbdock ($Id: //depot/dev/client3/rdock/2013.1/src/exe/rbdock.cxx#4 $)

>  <Rbt.Library>
libRbt.so (2013.1, Build901 2013/11/27)

>  <Rbt.Parameter_File>
/export/apps/rDock/src/rDock_2013.1_src/data/scripts/dock_solv.prm

>  <Rbt.Receptor>
prm/pocket_docking_8.prm

>  <SCORE>
-38.07

>  <SCORE.INTER>
-34.2586

>  <SCORE.INTER.CONST>
1

>  <SCORE.INTER.POLAR>
0

>  <SCORE.INTER.ROT>
5

>  <SCORE.INTER.SOLV>
7.20094

>  <SCORE.INTER.VDW>
-32.1727

>  <SCORE.INTER.norm>
-1.22352

>  <SCORE.INTRA>
-3.81131

>  <SCORE.INTRA.DIHEDRAL>
-9.15019

>  <SCORE.INTRA.DIHEDRAL.0>
12.0148

>  <SCORE.INTRA.POLAR>
0

>  <SCORE.INTRA.POLAR.0>
0

>  <SCORE.INTRA.REPUL>
0

>  <SCORE.INTRA.REPUL.0>
0

>  <SCORE.INTRA.SOLV>
-0.065051

>  <SCORE.INTRA.SOLV.lig_0>
-10.5235

>  <SCORE.INTRA.VDW>
0.796312

>  <SCORE.INTRA.VDW.0>
-1.38455

>  <SCORE.INTRA.norm>
-0.136118

>  <SCORE.RESTR>
0

>  <SCORE.RESTR.CAVITY>
0

>  <SCORE.RESTR.norm>
0

>  <SCORE.SYSTEM>
0

>  <SCORE.SYSTEM.CONST>
0

>  <SCORE.SYSTEM.DIHEDRAL>
0

>  <SCORE.SYSTEM.SOLV>
0

>  <SCORE.SYSTEM.norm>
0

>  <SCORE.heavy>
28

>  <SCORE.norm>
-1.35964

>  <RMSD>
0.879

$$$$
ligand
 OpenBabel11021811413D
libRbt.so/2013.1/901 2013/11/27
 28 32  0  0  0  0  0  0  0  0999 V2000
   43.4127   27.9956   22.5114 C   0  0  0  0  0  0  0  0  0  0  0  0
   42.9054   26.9161   23.4469 C   0  0  0  0  0  0  0  0  0  0  0  0
   41.6553   26.2422   22.9013 C   0  0  0  0  0  0  0  0  0  0  0  0
   34.3870   24.6289   24.5523 O   0  0  0  0  0  0  0  0  0  0  0  0
   35.0840   25.0272   25.7341 C   0  0  0  0  0  0  0  0  0  0  0  0
   39.2440   24.2325   28.2589 C   0  0  0  0  0  0  0  0  0  0  0  0
   39.0078   25.3481   29.0519 C   0  0  0  0  0  0  0  0  0  0  0  0
   37.8749   26.1323   28.8196 C   0  0  0  0  0  0  0  0  0  0  0  0
   36.9793   25.8025   27.8018 C   0  0  0  0  0  0  0  0  0  0  0  0
   36.3776   24.2205   25.9056 C   0  0  1  0  0  0  0  0  0  0  0  0
   37.2205   24.6774   27.0485 C   0  0  0  0  0  0  0  0  0  0  0  0
   38.3358   23.9120   27.2779 C   0  0  0  0  0  0  0  0  0  0  0  0
   38.5144   22.7965   26.3681 C   0  0  1  0  0  0  0  0  0  0  0  0
   37.2483   20.6626   26.5552 C   0  0  0  0  0  0  0  0  0  0  0  0
   37.2843   22.0242   26.3728 C   0  0  0  0  0  0  0  0  0  0  0  0
   36.1468   22.7486   26.1367 C   0  0  0  0  0  0  0  0  0  0  0  0
   34.9186   22.1068   26.0751 C   0  0  0  0  0  0  0  0  0  0  0  0
   34.8634   20.7264   26.2790 C   0  0  0  0  0  0  0  0  0  0  0  0
   36.0276   20.0090   26.5211 C   0  0  0  0  0  0  0  0  0  0  0  0
   40.4170   27.0699   23.2201 C   0  0  0  0  0  0  0  0  0  0  0  0
   39.9865   26.8501   24.6655 C   0  0  0  0  0  0  0  0  0  0  0  0
   37.2915   26.6068   24.2715 O   0  0  0  0  0  0  0  0  0  0  0  0
   40.8251   24.1964   25.1592 O   0  0  0  0  0  0  0  0  0  0  0  0
   39.6580   24.4694   24.9327 C   0  0  0  0  0  0  0  0  0  0  0  0
   39.1923   25.6321   24.6883 N   0  0  0  0  0  0  0  0  0  0  0  0
   37.9435   25.6256   24.5189 C   0  0  0  0  0  0  0  0  0  0  0  0
   37.3350   24.2790   24.7048 C   0  0  1  0  0  0  0  0  0  0  0  0
   38.5843   23.4418   24.9909 C   0  0  2  0  0  0  0  0  0  0  0  0
  1  2  1  0  0  0  0
  2  3  1  0  0  0  0
  3 20  1  0  0  0  0
  4  5  1  0  0  0  0
  6  7  2  0  0  0  0
  6 12  1  0  0  0  0
  7  8  1  0  0  0  0
  8  9  2  0  0  0  0
  9 11  1  0  0  0  0
 10  5  1  6  0  0  0
 10 11  1  0  0  0  0
 10 16  1  0  0  0  0
 10 27  1  0  0  0  0
 11 12  2  0  0  0  0
 13 12  1  1  0  0  0
 13 15  1  0  0  0  0
 13 28  1  0  0  0  0
 14 15  2  0  0  0  0
 14 19  1  0  0  0  0
 15 16  1  0  0  0  0
 16 17  2  0  0  0  0
 17 18  1  0  0  0  0
 18 19  2  0  0  0  0
 20 21  1  0  0  0  0
 21 25  1  0  0  0  0
 22 26  2  0  0  0  0
 23 24  2  0  0  0  0
 24 25  1  0  0  0  0
 25 26  1  0  0  0  0
 27 26  1  1  0  0  0
 27 28  1  0  0  0  0
 28 24  1  1  0  0  0
M  END
>  <CHROM.1>
-82.34930176,174.38492153,-78.99699935,-83.00160476,93.32117334,38.24610222
24.54760912,25.55723176,0.72525131,-0.20576289,-0.80394145

>  <Name>
ligand

>  <RI>
0

>  <Rbt.Current_Directory>
/home/itssahil/PROJECTS/Mol_Feturizer/New_Systems/rnas/1YLS

>  <Rbt.Executable>
rbdock ($Id: //depot/dev/client3/rdock/2013.1/src/exe/rbdock.cxx#4 $)

>  <Rbt.Library>
libRbt.so (2013.1, Build901 2013/11/27)

>  <Rbt.Parameter_File>
/export/apps/rDock/src/rDock_2013.1_src/data/scripts/dock_solv.prm

>  <Rbt.Receptor>
prm/pocket_docking_2.prm

>  <SCORE>
-32.2269

>  <SCORE.INTER>
-30.7331

>  <SCORE.INTER.CONST>
1

>  <SCORE.INTER.POLAR>
0

>  <SCORE.INTER.ROT>
5

>  <SCORE.INTER.SOLV>
6.75516

>  <SCORE.INTER.VDW>
-29.6738

>  <SCORE.INTER.norm>
-1.09761

>  <SCORE.INTRA>
-1.49497

>  <SCORE.INTRA.DIHEDRAL>
-4.68543

>  <SCORE.INTRA.DIHEDRAL.0>
12.0148

>  <SCORE.INTRA.POLAR>
0

>  <SCORE.INTRA.POLAR.0>
0

>  <SCORE.INTRA.REPUL>
0

>  <SCORE.INTRA.REPUL.0>
0

>  <SCORE.INTRA.SOLV>
0.535962

>  <SCORE.INTRA.SOLV.lig_0>
-10.5235

>  <SCORE.INTRA.VDW>
0.579759

>  <SCORE.INTRA.VDW.0>
-1.38455

>  <SCORE.INTRA.norm>
-0.0533919

>  <SCORE.RESTR>
0.00121896

>  <SCORE.RESTR.CAVITY>
0.00121896

>  <SCORE.RESTR.norm>
4.35344e-05

>  <SCORE.SYSTEM>
0

>  <SCORE.SYSTEM.CONST>
0

>  <SCORE.SYSTEM.DIHEDRAL>
0

>  <SCORE.SYSTEM.SOLV>
0

>  <SCORE.SYSTEM.norm>
0

>  <SCORE.heavy>
28

>  <SCORE.norm>
-1.15096

>  <RMSD>
0.880

$$$$
ligand
 OpenBabel11021811413D
libRbt.so/2013.1/901 2013/11/27
 28 32  0  0  0  0  0  0  0  0999 V2000
   44.0718   26.2069   21.8056 C   0  0  0  0  0  0  0  0  0  0  0  0
   42.6128   26.6180   21.7888 C   0  0  0  0  0  0  0  0  0  0  0  0
   41.9249   26.3013   23.1084 C   0  0  0  0  0  0  0  0  0  0  0  0
   34.0618   24.3833   26.0836 O   0  0  0  0  0  0  0  0  0  0  0  0
   35.0642   24.3808   25.0656 C   0  0  0  0  0  0  0  0  0  0  0  0
   38.7493   24.6429   28.3311 C   0  0  0  0  0  0  0  0  0  0  0  0
   38.2497   25.8349   28.8399 C   0  0  0  0  0  0  0  0  0  0  0  0
   37.0998   26.3963   28.2789 C   0  0  0  0  0  0  0  0  0  0  0  0
   36.4489   25.7688   27.2161 C   0  0  0  0  0  0  0  0  0  0  0  0
   36.3848   23.8097   25.5982 C   0  0  1  0  0  0  0  0  0  0  0  0
   36.9471   24.5754   26.7483 C   0  0  0  0  0  0  0  0  0  0  0  0
   38.0783   24.0291   27.3001 C   0  0  0  0  0  0  0  0  0  0  0  0
   38.5431   22.8086   26.6690 C   0  0  1  0  0  0  0  0  0  0  0  0
   37.5068   20.5820   27.0684 C   0  0  0  0  0  0  0  0  0  0  0  0
   37.4258   21.8815   26.6289 C   0  0  0  0  0  0  0  0  0  0  0  0
   36.2787   22.3834   26.0752 C   0  0  0  0  0  0  0  0  0  0  0  0
   35.1610   21.5721   25.9455 C   0  0  0  0  0  0  0  0  0  0  0  0
   35.2214   20.2552   26.4064 C   0  0  0  0  0  0  0  0  0  0  0  0
   36.3927   19.7650   26.9688 C   0  0  0  0  0  0  0  0  0  0  0  0
   40.4597   26.7150   23.0624 C   0  0  0  0  0  0  0  0  0  0  0  0
   39.8489   26.6692   24.4581 C   0  0  0  0  0  0  0  0  0  0  0  0
   37.3161   25.9785   23.6931 O   0  0  0  0  0  0  0  0  0  0  0  0
   40.8688   24.2904   25.5938 O   0  0  0  0  0  0  0  0  0  0  0  0
   39.7406   24.3500   25.1339 C   0  0  0  0  0  0  0  0  0  0  0  0
   39.2029   25.3733   24.5933 N   0  0  0  0  0  0  0  0  0  0  0  0
   38.0152   25.1590   24.2306 C   0  0  0  0  0  0  0  0  0  0  0  0
   37.5347   23.7930   24.5787 C   0  0  1  0  0  0  0  0  0  0  0  0
   38.7943   23.2059   25.2209 C   0  0  2  0  0  0  0  0  0  0  0  0
  1  2  1  0  0  0  0
  2  3  1  0  0  0  0
  3 20  1  0  0  0  0
  4  5  1  0  0  0  0
  6  7  2  0  0  0  0
  6 12  1  0  0  0  0
  7  8  1  0  0  0  0
  8  9  2  0  0  0  0
  9 11  1  0  0  0  0
 10  5  1  6  0  0  0
 10 11  1  0  0  0  0
 10 16  1  0  0  0  0
 10 27  1  0  0  0  0
 11 12  2  0  0  0  0
 13 12  1  1  0  0  0
 13 15  1  0  0  0  0
 13 28  1  0  0  0  0
 14 15  2  0  0  0  0
 14 19  1  0  0  0  0
 15 16  1  0  0  0  0
 16 17  2  0  0  0  0
 17 18  1  0  0  0  0
 18 19  2  0  0  0  0
 20 21  1  0  0  0  0
 21 25  1  0  0  0  0
 22 26  2  0  0  0  0
 23 24  2  0  0  0  0
 24 25  1  0  0  0  0
 25 26  1  0  0  0  0
 27 26  1  1  0  0  0
 27 28  1  0  0  0  0
 28 24  1  1  0  0  0
M  END
>  <CHROM.1>
-179.62517214,-59.89982336,-168.25295111,-95.18577673,95.73874456,38.22576587
24.29514146,25.47875199,-0.51768985,-0.55730234,3.12266952

>  <Name>
ligand

>  <RI>
0

>  <Rbt.Current_Directory>
/home/itssahil/PROJECTS/Mol_Feturizer/New_Systems/rnas/1YLS

>  <Rbt.Executable>
rbdock ($Id: //depot/dev/client3/rdock/2013.1/src/exe/rbdock.cxx#4 $)

>  <Rbt.Library>
libRbt.so (2013.1, Build901 2013/11/27)

>  <Rbt.Parameter_File>
/export/apps/rDock/src/rDock_2013.1_src/data/scripts/dock_solv.prm

>  <Rbt.Receptor>
prm/pocket_docking_3.prm

>  <SCORE>
-36.3989

>  <SCORE.INTER>
-33.3045

>  <SCORE.INTER.CONST>
1

>  <SCORE.INTER.POLAR>
0

>  <SCORE.INTER.ROT>
5

>  <SCORE.INTER.SOLV>
7.07625

>  <SCORE.INTER.VDW>
-31.4951

>  <SCORE.INTER.norm>
-1.18945

>  <SCORE.INTRA>
-3.09437

>  <SCORE.INTRA.DIHEDRAL>
-5.73505

>  <SCORE.INTRA.DIHEDRAL.0>
12.0148

>  <SCORE.INTRA.POLAR>
0

>  <SCORE.INTRA.POLAR.0>
0

>  <SCORE.INTRA.REPUL>
0

>  <SCORE.INTRA.REPUL.0>
0

>  <SCORE.INTRA.SOLV>
0.158668

>  <SCORE.INTRA.SOLV.lig_0>
-10.5235

>  <SCORE.INTRA.VDW>
-0.306173

>  <SCORE.INTRA.VDW.0>
-1.38455

>  <SCORE.INTRA.norm>
-0.110513

>  <SCORE.RESTR>
0

>  <SCORE.RESTR.CAVITY>
0

>  <SCORE.RESTR.norm>
0

>  <SCORE.SYSTEM>
0

>  <SCORE.SYSTEM.CONST>
0

>  <SCORE.SYSTEM.DIHEDRAL>
0

>  <SCORE.SYSTEM.SOLV>
0

>  <SCORE.SYSTEM.norm>
0

>  <SCORE.heavy>
28

>  <SCORE.norm>
-1.29996

>  <RMSD>
0.880

$$$$
ligand
 OpenBabel11021811413D
libRbt.so/2013.1/901 2013/11/27
 28 32  0  0  0  0  0  0  0  0999 V2000
   43.8341   26.2031   22.1868 C   0  0  0  0  0  0  0  0  0  0  0  0
   42.7334   27.2290   22.0025 C   0  0  0  0  0  0  0  0  0  0  0  0
   41.8636   27.3489   23.2451 C   0  0  0  0  0  0  0  0  0  0  0  0
   34.0401   24.4746   26.0351 O   0  0  0  0  0  0  0  0  0  0  0  0
   35.0941   24.4484   25.0710 C   0  0  0  0  0  0  0  0  0  0  0  0
   38.6846   24.2915   28.4469 C   0  0  0  0  0  0  0  0  0  0  0  0
   38.2927   25.5213   28.9601 C   0  0  0  0  0  0  0  0  0  0  0  0
   37.2234   26.2040   28.3749 C   0  0  0  0  0  0  0  0  0  0  0  0
   36.5453   25.6600   27.2834 C   0  0  0  0  0  0  0  0  0  0  0  0
   36.3331   23.7391   25.6327 C   0  0  1  0  0  0  0  0  0  0  0  0
   36.9344   24.4284   26.8111 C   0  0  0  0  0  0  0  0  0  0  0  0
   37.9870   23.7628   27.3868 C   0  0  0  0  0  0  0  0  0  0  0  0
   38.3451   22.5098   26.7499 C   0  0  1  0  0  0  0  0  0  0  0  0
   37.0770   20.3950   27.0825 C   0  0  0  0  0  0  0  0  0  0  0  0
   37.1415   21.7017   26.6620 C   0  0  0  0  0  0  0  0  0  0  0  0
   36.0686   22.3247   26.0832 C   0  0  0  0  0  0  0  0  0  0  0  0
   34.8792   21.6330   25.9076 C   0  0  0  0  0  0  0  0  0  0  0  0
   34.7918   20.3109   26.3487 C   0  0  0  0  0  0  0  0  0  0  0  0
   35.8896   19.6967   26.9370 C   0  0  0  0  0  0  0  0  0  0  0  0
   40.9980   26.1074   23.4159 C   0  0  0  0  0  0  0  0  0  0  0  0
   40.1023   26.2466   24.6412 C   0  0  0  0  0  0  0  0  0  0  0  0
   37.5374   25.8269   23.7912 O   0  0  0  0  0  0  0  0  0  0  0  0
   40.8409   23.7616   25.7675 O   0  0  0  0  0  0  0  0  0  0  0  0
   39.7392   23.9417   25.2757 C   0  0  0  0  0  0  0  0  0  0  0  0
   39.3247   25.0213   24.7363 N   0  0  0  0  0  0  0  0  0  0  0  0
   38.1331   24.9337   24.3356 C   0  0  0  0  0  0  0  0  0  0  0  0
   37.5064   23.6191   24.6472 C   0  0  1  0  0  0  0  0  0  0  0  0
   38.6797   22.8986   25.3164 C   0  0  2  0  0  0  0  0  0  0  0  0
  1  2  1  0  0  0  0
  2  3  1  0  0  0  0
  3 20  1  0  0  0  0
  4  5  1  0  0  0  0
  6  7  2  0  0  0  0
  6 12  1  0  0  0  0
  7  8  1  0  0  0  0
  8  9  2  0  0  0  0
  9 11  1  0  0  0  0
 10  5  1  6  0  0  0
 10 11  1  0  0  0  0
 10 16  1  0  0  0  0
 10 27  1  0  0  0  0
 11 12  2  0  0  0  0
 13 12  1  1  0  0  0
 13 15  1  0  0  0  0
 13 28  1  0  0  0  0
 14 15  2  0  0  0  0
 14 19  1  0  0  0  0
 15 16  1  0  0  0  0
 16 17  2  0  0  0  0
 17 18  1  0  0  0  0
 18 19  2  0  0  0  0
 20 21  1  0  0  0  0
 21 25  1  0  0  0  0
 22 26  2  0  0  0  0
 23 24  2  0  0  0  0
 24 25  1  0  0  0  0
 25 26  1  0  0  0  0
 27 26  1  1  0  0  0
 27 28  1  0  0  0  0
 28 24  1  1  0  0  0
M  END
>  <CHROM.1>
-71.04020507,-63.06972219,-178.54026696,-179.47061628,83.25408957,38.18487502
24.17406735,25.57731979,-0.54386559,-0.51597462,3.13708321

>  <Name>
ligand

>  <RI>
0

>  <Rbt.Current_Directory>
/home/itssahil/PROJECTS/Mol_Feturizer/New_Systems/rnas/1YLS

>  <Rbt.Executable>
rbdock ($Id: //depot/dev/client3/rdock/2013.1/src/exe/rbdock.cxx#4 $)

>  <Rbt.Library>
libRbt.so (2013.1, Build901 2013/11/27)

>  <Rbt.Parameter_File>
/export/apps/rDock/src/rDock_2013.1_src/data/scripts/dock_solv.prm

>  <Rbt.Receptor>
prm/pocket_docking_5.prm

>  <SCORE>
-38.1627

>  <SCORE.INTER>
-34.3782

>  <SCORE.INTER.CONST>
1

>  <SCORE.INTER.POLAR>
0

>  <SCORE.INTER.ROT>
5

>  <SCORE.INTER.SOLV>
7.01062

>  <SCORE.INTER.VDW>
-32.189

>  <SCORE.INTER.norm>
-1.22779

>  <SCORE.INTRA>
-3.78448

>  <SCORE.INTRA.DIHEDRAL>
-9.2577

>  <SCORE.INTRA.DIHEDRAL.0>
12.0148

>  <SCORE.INTRA.POLAR>
0

>  <SCORE.INTRA.POLAR.0>
0

>  <SCORE.INTRA.REPUL>
0

>  <SCORE.INTRA.REPUL.0>
0

>  <SCORE.INTRA.SOLV>
-0.065852

>  <SCORE.INTRA.SOLV.lig_0>
-10.5235

>  <SCORE.INTRA.VDW>
0.877297

>  <SCORE.INTRA.VDW.0>
-1.38455

>  <SCORE.INTRA.norm>
-0.13516

>  <SCORE.RESTR>
0

>  <SCORE.RESTR.CAVITY>
0

>  <SCORE.RESTR.norm>
0

>  <SCORE.SYSTEM>
0

>  <SCORE.SYSTEM.CONST>
0

>  <SCORE.SYSTEM.DIHEDRAL>
0

>  <SCORE.SYSTEM.SOLV>
0

>  <SCORE.SYSTEM.norm>
0

>  <SCORE.heavy>
28

>  <SCORE.norm>
-1.36295

>  <RMSD>
0.880

$$$$
ligand
 OpenBabel11021811413D
libRbt.so/2013.1/901 2013/11/27
 28 32  0  0  0  0  0  0  0  0999 V2000
   43.9672   28.0707   22.2184 C   0  0  0  0  0  0  0  0  0  0  0  0
   42.8860   27.0081   22.2219 C   0  0  0  0  0  0  0  0  0  0  0  0
   41.8778   27.2365   23.3382 C   0  0  0  0  0  0  0  0  0  0  0  0
   33.9011   24.6562   26.2447 O   0  0  0  0  0  0  0  0  0  0  0  0
   34.8818   24.6228   25.2063 C   0  0  0  0  0  0  0  0  0  0  0  0
   38.6594   24.1695   28.3426 C   0  0  0  0  0  0  0  0  0  0  0  0
   38.3417   25.3812   28.9428 C   0  0  0  0  0  0  0  0  0  0  0  0
   37.2637   26.1280   28.4609 C   0  0  0  0  0  0  0  0  0  0  0  0
   36.5034   25.6659   27.3860 C   0  0  0  0  0  0  0  0  0  0  0  0
   36.1267   23.8454   25.6528 C   0  0  1  0  0  0  0  0  0  0  0  0
   36.8207   24.4502   26.8267 C   0  0  0  0  0  0  0  0  0  0  0  0
   37.8820   23.7215   27.3010 C   0  0  0  0  0  0  0  0  0  0  0  0
   38.1579   22.4944   26.5784 C   0  0  1  0  0  0  0  0  0  0  0  0
   36.8393   20.4055   26.8767 C   0  0  0  0  0  0  0  0  0  0  0  0
   36.9239   21.7305   26.5222 C   0  0  0  0  0  0  0  0  0  0  0  0
   35.8406   22.4176   26.0438 C   0  0  0  0  0  0  0  0  0  0  0  0
   34.6196   21.7742   25.9055 C   0  0  0  0  0  0  0  0  0  0  0  0
   34.5128   20.4334   26.2811 C   0  0  0  0  0  0  0  0  0  0  0  0
   35.6218   19.7539   26.7680 C   0  0  0  0  0  0  0  0  0  0  0  0
   40.8677   26.0976   23.3901 C   0  0  0  0  0  0  0  0  0  0  0  0
   39.9147   26.2835   24.5649 C   0  0  0  0  0  0  0  0  0  0  0  0
   37.2907   25.9916   23.8531 O   0  0  0  0  0  0  0  0  0  0  0  0
   40.6325   23.7189   25.5119 O   0  0  0  0  0  0  0  0  0  0  0  0
   39.5104   23.9600   25.0987 C   0  0  0  0  0  0  0  0  0  0  0  0
   39.1022   25.0799   24.6432 N   0  0  0  0  0  0  0  0  0  0  0  0
   37.8865   25.0517   24.3122 C   0  0  0  0  0  0  0  0  0  0  0  0
   37.2343   23.7424   24.5923 C   0  0  1  0  0  0  0  0  0  0  0  0
   38.4197   22.9501   25.1495 C   0  0  2  0  0  0  0  0  0  0  0  0
  1  2  1  0  0  0  0
  2  3  1  0  0  0  0
  3 20  1  0  0  0  0
  4  5  1  0  0  0  0
  6  7  2  0  0  0  0
  6 12  1  0  0  0  0
  7  8  1  0  0  0  0
  8  9  2  0  0  0  0
  9 11  1  0  0  0  0
 10  5  1  6  0  0  0
 10 11  1  0  0  0  0
 10 16  1  0  0  0  0
 10 27  1  0  0  0  0
 11 12  2  0  0  0  0
 13 12  1  1  0  0  0
 13 15  1  0  0  0  0
 13 28  1  0  0  0  0
 14 15  2  0  0  0  0
 14 19  1  0  0  0  0
 15 16  1  0  0  0  0
 16 17  2  0  0  0  0
 17 18  1  0  0  0  0
 18 19  2  0  0  0  0
 20 21  1  0  0  0  0
 21 25  1  0  0  0  0
 22 26  2  0  0  0  0
 23 24  2  0  0  0  0
 24 25  1  0  0  0  0
 25 26  1  0  0  0  0
 27 26  1  1  0  0  0
 27 28  1  0  0  0  0
 28 24  1  1  0  0  0
M  END
>  <CHROM.1>
-175.49236241,-61.71496697,176.34684764,-172.91856927,75.59342611,38.03880365
24.27809858,25.54855700,-0.56020162,-0.49675660,-3.12684126

>  <Name>
ligand

>  <RI>
0

>  <Rbt.Current_Directory>
/home/itssahil/PROJECTS/Mol_Feturizer/New_Systems/rnas/1YLS

>  <Rbt.Executable>
rbdock ($Id: //depot/dev/client3/rdock/2013.1/src/exe/rbdock.cxx#4 $)

>  <Rbt.Library>
libRbt.so (2013.1, Build901 2013/11/27)

>  <Rbt.Parameter_File>
/export/apps/rDock/src/rDock_2013.1_src/data/scripts/dock_solv.prm

>  <Rbt.Receptor>
prm/pocket_docking_3.prm

>  <SCORE>
-38.5119

>  <SCORE.INTER>
-33.8096

>  <SCORE.INTER.CONST>
1

>  <SCORE.INTER.POLAR>
0

>  <SCORE.INTER.ROT>
5

>  <SCORE.INTER.SOLV>
7.62088

>  <SCORE.INTER.VDW>
-32.0133

>  <SCORE.INTER.norm>
-1.20748

>  <SCORE.INTRA>
-4.70234

>  <SCORE.INTRA.DIHEDRAL>
-9.40879

>  <SCORE.INTRA.DIHEDRAL.0>
12.0148

>  <SCORE.INTRA.POLAR>
0

>  <SCORE.INTRA.POLAR.0>
0

>  <SCORE.INTRA.REPUL>
0

>  <SCORE.INTRA.REPUL.0>
0

>  <SCORE.INTRA.SOLV>
-0.0336114

>  <SCORE.INTRA.SOLV.lig_0>
-10.5235

>  <SCORE.INTRA.VDW>
0.018859

>  <SCORE.INTRA.VDW.0>
-1.38455

>  <SCORE.INTRA.norm>
-0.167941

>  <SCORE.RESTR>
0

>  <SCORE.RESTR.CAVITY>
0

>  <SCORE.RESTR.norm>
0

>  <SCORE.SYSTEM>
0

>  <SCORE.SYSTEM.CONST>
0

>  <SCORE.SYSTEM.DIHEDRAL>
0

>  <SCORE.SYSTEM.SOLV>
0

>  <SCORE.SYSTEM.norm>
0

>  <SCORE.heavy>
28

>  <SCORE.norm>
-1.37542

>  <RMSD>
0.881

$$$$
ligand
 OpenBabel11021811413D
libRbt.so/2013.1/901 2013/11/27
 28 32  0  0  0  0  0  0  0  0999 V2000
   43.8244   26.2118   22.1831 C   0  0  0  0  0  0  0  0  0  0  0  0
   42.7027   27.2130   21.9901 C   0  0  0  0  0  0  0  0  0  0  0  0
   41.8378   27.3345   23.2359 C   0  0  0  0  0  0  0  0  0  0  0  0
   34.0213   24.6255   26.1039 O   0  0  0  0  0  0  0  0  0  0  0  0
   35.0288   24.5256   25.0958 C   0  0  0  0  0  0  0  0  0  0  0  0
   38.6649   24.2495   28.4148 C   0  0  0  0  0  0  0  0  0  0  0  0
   38.3012   25.4763   28.9552 C   0  0  0  0  0  0  0  0  0  0  0  0
   37.2350   26.1869   28.3980 C   0  0  0  0  0  0  0  0  0  0  0  0
   36.5321   25.6737   27.3073 C   0  0  0  0  0  0  0  0  0  0  0  0
   36.2638   23.7861   25.6265 C   0  0  1  0  0  0  0  0  0  0  0  0
   36.8936   24.4443   26.8078 C   0  0  0  0  0  0  0  0  0  0  0  0
   37.9431   23.7513   27.3560 C   0  0  0  0  0  0  0  0  0  0  0  0
   38.2709   22.5040   26.6920 C   0  0  1  0  0  0  0  0  0  0  0  0
   36.9724   20.4049   27.0063 C   0  0  0  0  0  0  0  0  0  0  0  0
   37.0527   21.7177   26.6078 C   0  0  0  0  0  0  0  0  0  0  0  0
   35.9821   22.3685   26.0560 C   0  0  0  0  0  0  0  0  0  0  0  0
   34.7788   21.6998   25.8860 C   0  0  0  0  0  0  0  0  0  0  0  0
   34.6757   20.3716   26.3051 C   0  0  0  0  0  0  0  0  0  0  0  0
   35.7715   19.7291   26.8662 C   0  0  0  0  0  0  0  0  0  0  0  0
   40.9526   26.1054   23.3964 C   0  0  0  0  0  0  0  0  0  0  0  0
   40.0596   26.2482   24.6232 C   0  0  0  0  0  0  0  0  0  0  0  0
   37.4759   25.8861   23.8042 O   0  0  0  0  0  0  0  0  0  0  0  0
   40.7727   23.7318   25.6948 O   0  0  0  0  0  0  0  0  0  0  0  0
   39.6671   23.9387   25.2226 C   0  0  0  0  0  0  0  0  0  0  0  0
   39.2630   25.0345   24.7084 N   0  0  0  0  0  0  0  0  0  0  0  0
   38.0645   24.9736   24.3239 C   0  0  0  0  0  0  0  0  0  0  0  0
   37.4204   23.6643   24.6218 C   0  0  1  0  0  0  0  0  0  0  0  0
   38.5910   22.9127   25.2607 C   0  0  2  0  0  0  0  0  0  0  0  0
  1  2  1  0  0  0  0
  2  3  1  0  0  0  0
  3 20  1  0  0  0  0
  4  5  1  0  0  0  0
  6  7  2  0  0  0  0
  6 12  1  0  0  0  0
  7  8  1  0  0  0  0
  8  9  2  0  0  0  0
  9 11  1  0  0  0  0
 10  5  1  6  0  0  0
 10 11  1  0  0  0  0
 10 16  1  0  0  0  0
 10 27  1  0  0  0  0
 11 12  2  0  0  0  0
 13 12  1  1  0  0  0
 13 15  1  0  0  0  0
 13 28  1  0  0  0  0
 14 15  2  0  0  0  0
 14 19  1  0  0  0  0
 15 16  1  0  0  0  0
 16 17  2  0  0  0  0
 17 18  1  0  0  0  0
 18 19  2  0  0  0  0
 20 21  1  0  0  0  0
 21 25  1  0  0  0  0
 22 26  2  0  0  0  0
 23 24  2  0  0  0  0
 24 25  1  0  0  0  0
 25 26  1  0  0  0  0
 27 26  1  1  0  0  0
 27 28  1  0  0  0  0
 28 24  1  1  0  0  0
M  END
>  <CHROM.1>
-73.54702713,-59.42878147,-178.40293943,-179.45195574,82.27885323,38.12854427
24.19394355,25.55750666,-0.52880072,-0.51925450,-3.13103475

>  <Name>
ligand

>  <RI>
0

>  <Rbt.Current_Directory>
/home/itssahil/PROJECTS/Mol_Feturizer/New_Systems/rnas/1YLS

>  <Rbt.Executable>
rbdock ($Id: //depot/dev/client3/rdock/2013.1/src/exe/rbdock.cxx#4 $)

>  <Rbt.Library>
libRbt.so (2013.1, Build901 2013/11/27)

>  <Rbt.Parameter_File>
/export/apps/rDock/src/rDock_2013.1_src/data/scripts/dock_solv.prm

>  <Rbt.Receptor>
prm/pocket_docking_3.prm

>  <SCORE>
-38.0572

>  <SCORE.INTER>
-34.2845

>  <SCORE.INTER.CONST>
1

>  <SCORE.INTER.POLAR>
0

>  <SCORE.INTER.ROT>
5

>  <SCORE.INTER.SOLV>
7.19003

>  <SCORE.INTER.VDW>
-32.1864

>  <SCORE.INTER.norm>
-1.22445

>  <SCORE.INTRA>
-3.77265

>  <SCORE.INTRA.DIHEDRAL>
-9.02671

>  <SCORE.INTRA.DIHEDRAL.0>
12.0148

>  <SCORE.INTRA.POLAR>
0

>  <SCORE.INTRA.POLAR.0>
0

>  <SCORE.INTRA.REPUL>
0

>  <SCORE.INTRA.REPUL.0>
0

>  <SCORE.INTRA.SOLV>
-0.0622878

>  <SCORE.INTRA.SOLV.lig_0>
-10.5235

>  <SCORE.INTRA.VDW>
0.771849

>  <SCORE.INTRA.VDW.0>
-1.38455

>  <SCORE.INTRA.norm>
-0.134738

>  <SCORE.RESTR>
0

>  <SCORE.RESTR.CAVITY>
0

>  <SCORE.RESTR.norm>
0

>  <SCORE.SYSTEM>
0

>  <SCORE.SYSTEM.CONST>
0

>  <SCORE.SYSTEM.DIHEDRAL>
0

>  <SCORE.SYSTEM.SOLV>
0

>  <SCORE.SYSTEM.norm>
0

>  <SCORE.heavy>
28

>  <SCORE.norm>
-1.35918

>  <RMSD>
0.882

$$$$
ligand
 OpenBabel11021811413D
libRbt.so/2013.1/901 2013/11/27
 28 32  0  0  0  0  0  0  0  0999 V2000
   44.0630   26.3035   21.7608 C   0  0  0  0  0  0  0  0  0  0  0  0
   42.5914   26.6670   21.7636 C   0  0  0  0  0  0  0  0  0  0  0  0
   41.9347   26.3398   23.0965 C   0  0  0  0  0  0  0  0  0  0  0  0
   34.0765   24.3461   26.1033 O   0  0  0  0  0  0  0  0  0  0  0  0
   35.0812   24.3683   25.0878 C   0  0  0  0  0  0  0  0  0  0  0  0
   38.7799   24.5991   28.3404 C   0  0  0  0  0  0  0  0  0  0  0  0
   38.2853   25.7889   28.8592 C   0  0  0  0  0  0  0  0  0  0  0  0
   37.1346   26.3569   28.3065 C   0  0  0  0  0  0  0  0  0  0  0  0
   36.4779   25.7383   27.2421 C   0  0  0  0  0  0  0  0  0  0  0  0
   36.4025   23.7903   25.6112 C   0  0  1  0  0  0  0  0  0  0  0  0
   36.9713   24.5468   26.7643 C   0  0  0  0  0  0  0  0  0  0  0  0
   38.1033   23.9940   27.3079 C   0  0  0  0  0  0  0  0  0  0  0  0
   38.5625   22.7766   26.6667 C   0  0  1  0  0  0  0  0  0  0  0  0
   37.5221   20.5500   27.0551 C   0  0  0  0  0  0  0  0  0  0  0  0
   37.4427   21.8527   26.6248 C   0  0  0  0  0  0  0  0  0  0  0  0
   36.2947   22.3611   26.0790 C   0  0  0  0  0  0  0  0  0  0  0  0
   35.1745   21.5535   25.9483 C   0  0  0  0  0  0  0  0  0  0  0  0
   35.2334   20.2333   26.4001 C   0  0  0  0  0  0  0  0  0  0  0  0
   36.4056   19.7364   26.9544 C   0  0  0  0  0  0  0  0  0  0  0  0
   40.4575   26.7104   23.0721 C   0  0  0  0  0  0  0  0  0  0  0  0
   39.8693   26.6489   24.4768 C   0  0  0  0  0  0  0  0  0  0  0  0
   37.3318   25.9696   23.7172 O   0  0  0  0  0  0  0  0  0  0  0  0
   40.8877   24.2599   25.5924 O   0  0  0  0  0  0  0  0  0  0  0  0
   39.7578   24.3254   25.1373 C   0  0  0  0  0  0  0  0  0  0  0  0
   39.2206   25.3537   24.6058 N   0  0  0  0  0  0  0  0  0  0  0  0
   38.0309   25.1448   24.2464 C   0  0  0  0  0  0  0  0  0  0  0  0
   37.5484   23.7777   24.5872 C   0  0  1  0  0  0  0  0  0  0  0  0
   38.8090   23.1831   25.2203 C   0  0  2  0  0  0  0  0  0  0  0  0
  1  2  1  0  0  0  0
  2  3  1  0  0  0  0
  3 20  1  0  0  0  0
  4  5  1  0  0  0  0
  6  7  2  0  0  0  0
  6 12  1  0  0  0  0
  7  8  1  0  0  0  0
  8  9  2  0  0  0  0
  9 11  1  0  0  0  0
 10  5  1  6  0  0  0
 10 11  1  0  0  0  0
 10 16  1  0  0  0  0
 10 27  1  0  0  0  0
 11 12  2  0  0  0  0
 13 12  1  1  0  0  0
 13 15  1  0  0  0  0
 13 28  1  0  0  0  0
 14 15  2  0  0  0  0
 14 19  1  0  0  0  0
 15 16  1  0  0  0  0
 16 17  2  0  0  0  0
 17 18  1  0  0  0  0
 18 19  2  0  0  0  0
 20 21  1  0  0  0  0
 21 25  1  0  0  0  0
 22 26  2  0  0  0  0
 23 24  2  0  0  0  0
 24 25  1  0  0  0  0
 25 26  1  0  0  0  0
 27 26  1  1  0  0  0
 27 28  1  0  0  0  0
 28 24  1  1  0  0  0
M  END
>  <CHROM.1>
-179.84388172,-60.85567188,-168.58626755,-97.24231840,96.52924480,38.24120101
24.28022787,25.48345854,-0.51974391,-0.56685949,3.13385919

>  <Name>
ligand

>  <RI>
0

>  <Rbt.Current_Directory>
/home/itssahil/PROJECTS/Mol_Feturizer/New_Systems/rnas/1YLS

>  <Rbt.Executable>
rbdock ($Id: //depot/dev/client3/rdock/2013.1/src/exe/rbdock.cxx#4 $)

>  <Rbt.Library>
libRbt.so (2013.1, Build901 2013/11/27)

>  <Rbt.Parameter_File>
/export/apps/rDock/src/rDock_2013.1_src/data/scripts/dock_solv.prm

>  <Rbt.Receptor>
prm/pocket_docking_7.prm

>  <SCORE>
-36.4844

>  <SCORE.INTER>
-33.5163

>  <SCORE.INTER.CONST>
1

>  <SCORE.INTER.POLAR>
0

>  <SCORE.INTER.ROT>
5

>  <SCORE.INTER.SOLV>
7.10001

>  <SCORE.INTER.VDW>
-31.6442

>  <SCORE.INTER.norm>
-1.19701

>  <SCORE.INTRA>
-2.96817

>  <SCORE.INTRA.DIHEDRAL>
-5.48418

>  <SCORE.INTRA.DIHEDRAL.0>
12.0148

>  <SCORE.INTRA.POLAR>
0

>  <SCORE.INTRA.POLAR.0>
0

>  <SCORE.INTRA.REPUL>
0

>  <SCORE.INTRA.REPUL.0>
0

>  <SCORE.INTRA.SOLV>
0.148118

>  <SCORE.INTRA.SOLV.lig_0>
-10.5235

>  <SCORE.INTRA.VDW>
-0.300139

>  <SCORE.INTRA.VDW.0>
-1.38455

>  <SCORE.INTRA.norm>
-0.106006

>  <SCORE.RESTR>
0

>  <SCORE.RESTR.CAVITY>
0

>  <SCORE.RESTR.norm>
0

>  <SCORE.SYSTEM>
0

>  <SCORE.SYSTEM.CONST>
0

>  <SCORE.SYSTEM.DIHEDRAL>
0

>  <SCORE.SYSTEM.SOLV>
0

>  <SCORE.SYSTEM.norm>
0

>  <SCORE.heavy>
28

>  <SCORE.norm>
-1.30302

>  <RMSD>
0.882

$$$$
ligand
 OpenBabel11021811413D
libRbt.so/2013.1/901 2013/11/27
 28 32  0  0  0  0  0  0  0  0999 V2000
   43.7722   26.1513   22.1858 C   0  0  0  0  0  0  0  0  0  0  0  0
   42.7163   27.2260   22.0183 C   0  0  0  0  0  0  0  0  0  0  0  0
   41.8396   27.3495   23.2556 C   0  0  0  0  0  0  0  0  0  0  0  0
   34.0016   24.6596   26.1749 O   0  0  0  0  0  0  0  0  0  0  0  0
   34.9987   24.5994   25.1535 C   0  0  0  0  0  0  0  0  0  0  0  0
   38.6979   24.1890   28.3877 C   0  0  0  0  0  0  0  0  0  0  0  0
   38.3613   25.4052   28.9680 C   0  0  0  0  0  0  0  0  0  0  0  0
   37.2933   26.1437   28.4521 C   0  0  0  0  0  0  0  0  0  0  0  0
   36.5617   25.6688   27.3630 C   0  0  0  0  0  0  0  0  0  0  0  0
   36.2345   23.8306   25.6385 C   0  0  1  0  0  0  0  0  0  0  0  0
   36.8969   24.4490   26.8236 C   0  0  0  0  0  0  0  0  0  0  0  0
   37.9483   23.7284   27.3313 C   0  0  0  0  0  0  0  0  0  0  0  0
   38.2462   22.4955   26.6276 C   0  0  1  0  0  0  0  0  0  0  0  0
   36.9272   20.4050   26.9128 C   0  0  0  0  0  0  0  0  0  0  0  0
   37.0164   21.7269   26.5479 C   0  0  0  0  0  0  0  0  0  0  0  0
   35.9434   22.4056   26.0359 C   0  0  0  0  0  0  0  0  0  0  0  0
   34.7282   21.7567   25.8732 C   0  0  0  0  0  0  0  0  0  0  0  0
   34.6164   20.4191   26.2588 C   0  0  0  0  0  0  0  0  0  0  0  0
   35.7150   19.7482   26.7798 C   0  0  0  0  0  0  0  0  0  0  0  0
   40.9220   26.1407   23.3859 C   0  0  0  0  0  0  0  0  0  0  0  0
   40.0408   26.2713   24.6226 C   0  0  0  0  0  0  0  0  0  0  0  0
   37.4365   25.9636   23.8480 O   0  0  0  0  0  0  0  0  0  0  0  0
   40.7429   23.7184   25.6117 O   0  0  0  0  0  0  0  0  0  0  0  0
   39.6307   23.9516   25.1683 C   0  0  0  0  0  0  0  0  0  0  0  0
   39.2304   25.0658   24.6919 N   0  0  0  0  0  0  0  0  0  0  0  0
   38.0236   25.0302   24.3309 C   0  0  0  0  0  0  0  0  0  0  0  0
   37.3687   23.7214   24.6071 C   0  0  1  0  0  0  0  0  0  0  0  0
   38.5423   22.9385   25.2014 C   0  0  2  0  0  0  0  0  0  0  0  0
  1  2  1  0  0  0  0
  2  3  1  0  0  0  0
  3 20  1  0  0  0  0
  4  5  1  0  0  0  0
  6  7  2  0  0  0  0
  6 12  1  0  0  0  0
  7  8  1  0  0  0  0
  8  9  2  0  0  0  0
  9 11  1  0  0  0  0
 10  5  1  6  0  0  0
 10 11  1  0  0  0  0
 10 16  1  0  0  0  0
 10 27  1  0  0  0  0
 11 12  2  0  0  0  0
 13 12  1  1  0  0  0
 13 15  1  0  0  0  0
 13 28  1  0  0  0  0
 14 15  2  0  0  0  0
 14 19  1  0  0  0  0
 15 16  1  0  0  0  0
 16 17  2  0  0  0  0
 17 18  1  0  0  0  0
 18 19  2  0  0  0  0
 20 21  1  0  0  0  0
 21 25  1  0  0  0  0
 22 26  2  0  0  0  0
 23 24  2  0  0  0  0
 24 25  1  0  0  0  0
 25 26  1  0  0  0  0
 27 26  1  1  0  0  0
 27 28  1  0  0  0  0
 28 24  1  1  0  0  0
M  END
>  <CHROM.1>
-71.05173565,-60.69245213,-179.72403949,-178.36195656,81.42414328,38.10769077
24.20853434,25.54829469,-0.51116523,-0.52862430,-3.10128358

>  <Name>
ligand

>  <RI>
0

>  <Rbt.Current_Directory>
/home/itssahil/PROJECTS/Mol_Feturizer/New_Systems/rnas/1YLS

>  <Rbt.Executable>
rbdock ($Id: //depot/dev/client3/rdock/2013.1/src/exe/rbdock.cxx#4 $)

>  <Rbt.Library>
libRbt.so (2013.1, Build901 2013/11/27)

>  <Rbt.Parameter_File>
/export/apps/rDock/src/rDock_2013.1_src/data/scripts/dock_solv.prm

>  <Rbt.Receptor>
prm/pocket_docking_3.prm

>  <SCORE>
-38.0182

>  <SCORE.INTER>
-34.2362

>  <SCORE.INTER.CONST>
1

>  <SCORE.INTER.POLAR>
0

>  <SCORE.INTER.ROT>
5

>  <SCORE.INTER.SOLV>
7.34297

>  <SCORE.INTER.VDW>
-32.2051

>  <SCORE.INTER.norm>
-1.22272

>  <SCORE.INTRA>
-3.78202

>  <SCORE.INTRA.DIHEDRAL>
-9.26866

>  <SCORE.INTRA.DIHEDRAL.0>
12.0148

>  <SCORE.INTRA.POLAR>
0

>  <SCORE.INTRA.POLAR.0>
0

>  <SCORE.INTRA.REPUL>
0

>  <SCORE.INTRA.REPUL.0>
0

>  <SCORE.INTRA.SOLV>
-0.0618264

>  <SCORE.INTRA.SOLV.lig_0>
-10.5235

>  <SCORE.INTRA.VDW>
0.883227

>  <SCORE.INTRA.VDW.0>
-1.38455

>  <SCORE.INTRA.norm>
-0.135072

>  <SCORE.RESTR>
0

>  <SCORE.RESTR.CAVITY>
0

>  <SCORE.RESTR.norm>
0

>  <SCORE.SYSTEM>
0

>  <SCORE.SYSTEM.CONST>
0

>  <SCORE.SYSTEM.DIHEDRAL>
0

>  <SCORE.SYSTEM.SOLV>
0

>  <SCORE.SYSTEM.norm>
0

>  <SCORE.heavy>
28

>  <SCORE.norm>
-1.35779

>  <RMSD>
0.883

$$$$
ligand
 OpenBabel11021811413D
libRbt.so/2013.1/901 2013/11/27
 28 32  0  0  0  0  0  0  0  0999 V2000
   43.7327   26.1474   22.0033 C   0  0  0  0  0  0  0  0  0  0  0  0
   42.6666   27.2237   21.9495 C   0  0  0  0  0  0  0  0  0  0  0  0
   41.8909   27.3116   23.2554 C   0  0  0  0  0  0  0  0  0  0  0  0
   33.9872   25.2583   26.2880 O   0  0  0  0  0  0  0  0  0  0  0  0
   34.9544   25.1591   25.2412 C   0  0  0  0  0  0  0  0  0  0  0  0
   38.6289   24.0450   28.3347 C   0  0  0  0  0  0  0  0  0  0  0  0
   38.4584   25.2454   29.0124 C   0  0  0  0  0  0  0  0  0  0  0  0
   37.4830   26.1484   28.5817 C   0  0  0  0  0  0  0  0  0  0  0  0
   36.6783   25.8531   27.4807 C   0  0  0  0  0  0  0  0  0  0  0  0
   36.0919   24.2077   25.6344 C   0  0  1  0  0  0  0  0  0  0  0  0
   36.8476   24.6461   26.8435 C   0  0  0  0  0  0  0  0  0  0  0  0
   37.8087   23.7637   27.2678 C   0  0  0  0  0  0  0  0  0  0  0  0
   37.9365   22.5610   26.4671 C   0  0  1  0  0  0  0  0  0  0  0  0
   36.3700   20.6349   26.6324 C   0  0  0  0  0  0  0  0  0  0  0  0
   36.6185   21.9595   26.3640 C   0  0  0  0  0  0  0  0  0  0  0  0
   35.6306   22.8036   25.9330 C   0  0  0  0  0  0  0  0  0  0  0  0
   34.3408   22.3251   25.7557 C   0  0  0  0  0  0  0  0  0  0  0  0
   34.0682   20.9862   26.0442 C   0  0  0  0  0  0  0  0  0  0  0  0
   35.0826   20.1459   26.4841 C   0  0  0  0  0  0  0  0  0  0  0  0
   40.9359   26.1329   23.3925 C   0  0  0  0  0  0  0  0  0  0  0  0
   40.1567   26.2274   24.6990 C   0  0  0  0  0  0  0  0  0  0  0  0
   37.5211   26.3060   23.9747 O   0  0  0  0  0  0  0  0  0  0  0  0
   40.5490   23.5386   25.4771 O   0  0  0  0  0  0  0  0  0  0  0  0
   39.4674   23.9416   25.0825 C   0  0  0  0  0  0  0  0  0  0  0  0
   39.2023   25.1301   24.7009 N   0  0  0  0  0  0  0  0  0  0  0  0
   37.9944   25.2726   24.3711 C   0  0  0  0  0  0  0  0  0  0  0  0
   37.1849   24.0380   24.5674 C   0  0  1  0  0  0  0  0  0  0  0  0
   38.2609   23.0720   25.0700 C   0  0  2  0  0  0  0  0  0  0  0  0
  1  2  1  0  0  0  0
  2  3  1  0  0  0  0
  3 20  1  0  0  0  0
  4  5  1  0  0  0  0
  6  7  2  0  0  0  0
  6 12  1  0  0  0  0
  7  8  1  0  0  0  0
  8  9  2  0  0  0  0
  9 11  1  0  0  0  0
 10  5  1  6  0  0  0
 10 11  1  0  0  0  0
 10 16  1  0  0  0  0
 10 27  1  0  0  0  0
 11 12  2  0  0  0  0
 13 12  1  1  0  0  0
 13 15  1  0  0  0  0
 13 28  1  0  0  0  0
 14 15  2  0  0  0  0
 14 19  1  0  0  0  0
 15 16  1  0  0  0  0
 16 17  2  0  0  0  0
 17 18  1  0  0  0  0
 18 19  2  0  0  0  0
 20 21  1  0  0  0  0
 21 25  1  0  0  0  0
 22 26  2  0  0  0  0
 23 24  2  0  0  0  0
 24 25  1  0  0  0  0
 25 26  1  0  0  0  0
 27 26  1  1  0  0  0
 27 28  1  0  0  0  0
 28 24  1  1  0  0  0
M  END
>  <CHROM.1>
-73.86332779,-61.01156503,-179.76805234,175.67106936,84.76474857,37.97620748
24.38260745,25.50344823,-0.37723827,-0.56277294,-2.94334378

>  <Name>
ligand

>  <RI>
0

>  <Rbt.Current_Directory>
/home/itssahil/PROJECTS/Mol_Feturizer/New_Systems/rnas/1YLS

>  <Rbt.Executable>
rbdock ($Id: //depot/dev/client3/rdock/2013.1/src/exe/rbdock.cxx#4 $)

>  <Rbt.Library>
libRbt.so (2013.1, Build901 2013/11/27)

>  <Rbt.Parameter_File>
/export/apps/rDock/src/rDock_2013.1_src/data/scripts/dock_solv.prm

>  <Rbt.Receptor>
prm/pocket_docking_3.prm

>  <SCORE>
-38.0879

>  <SCORE.INTER>
-34.3353

>  <SCORE.INTER.CONST>
1

>  <SCORE.INTER.POLAR>
0

>  <SCORE.INTER.ROT>
5

>  <SCORE.INTER.SOLV>
7.54415

>  <SCORE.INTER.VDW>
-32.3382

>  <SCORE.INTER.norm>
-1.22626

>  <SCORE.INTRA>
-3.75259

>  <SCORE.INTRA.DIHEDRAL>
-8.94866

>  <SCORE.INTRA.DIHEDRAL.0>
12.0148

>  <SCORE.INTRA.POLAR>
0

>  <SCORE.INTRA.POLAR.0>
0

>  <SCORE.INTRA.REPUL>
0

>  <SCORE.INTRA.REPUL.0>
0

>  <SCORE.INTRA.SOLV>
-0.0675099

>  <SCORE.INTRA.SOLV.lig_0>
-10.5235

>  <SCORE.INTRA.VDW>
0.75549

>  <SCORE.INTRA.VDW.0>
-1.38455

>  <SCORE.INTRA.norm>
-0.134021

>  <SCORE.RESTR>
0

>  <SCORE.RESTR.CAVITY>
0

>  <SCORE.RESTR.norm>
0

>  <SCORE.SYSTEM>
0

>  <SCORE.SYSTEM.CONST>
0

>  <SCORE.SYSTEM.DIHEDRAL>
0

>  <SCORE.SYSTEM.SOLV>
0

>  <SCORE.SYSTEM.norm>
0

>  <SCORE.heavy>
28

>  <SCORE.norm>
-1.36028

>  <RMSD>
0.884

$$$$
ligand
 OpenBabel11021811413D
libRbt.so/2013.1/901 2013/11/27
 28 32  0  0  0  0  0  0  0  0999 V2000
   43.4171   27.9086   22.5121 C   0  0  0  0  0  0  0  0  0  0  0  0
   43.0279   27.0305   23.6848 C   0  0  0  0  0  0  0  0  0  0  0  0
   42.0120   25.9723   23.2812 C   0  0  0  0  0  0  0  0  0  0  0  0
   33.9927   24.3897   25.7757 O   0  0  0  0  0  0  0  0  0  0  0  0
   35.0727   24.3755   24.8405 C   0  0  0  0  0  0  0  0  0  0  0  0
   38.5297   24.8042   28.3302 C   0  0  0  0  0  0  0  0  0  0  0  0
   38.0006   26.0204   28.7430 C   0  0  0  0  0  0  0  0  0  0  0  0
   36.8930   26.5522   28.0778 C   0  0  0  0  0  0  0  0  0  0  0  0
   36.3134   25.8714   27.0065 C   0  0  0  0  0  0  0  0  0  0  0  0
   36.3525   23.8327   25.4894 C   0  0  1  0  0  0  0  0  0  0  0  0
   36.8383   24.6559   26.6346 C   0  0  0  0  0  0  0  0  0  0  0  0
   37.9279   24.1387   27.2885 C   0  0  0  0  0  0  0  0  0  0  0  0
   38.4305   22.8878   26.7530 C   0  0  1  0  0  0  0  0  0  0  0  0
   37.3626   20.6841   27.1937 C   0  0  0  0  0  0  0  0  0  0  0  0
   37.3155   21.9596   26.6845 C   0  0  0  0  0  0  0  0  0  0  0  0
   36.2100   22.4323   26.0298 C   0  0  0  0  0  0  0  0  0  0  0  0
   35.1011   21.6152   25.8661 C   0  0  0  0  0  0  0  0  0  0  0  0
   35.1261   20.3234   26.3962 C   0  0  0  0  0  0  0  0  0  0  0  0
   36.2552   19.8627   27.0606 C   0  0  0  0  0  0  0  0  0  0  0  0
   40.6313   26.5921   23.1089 C   0  0  0  0  0  0  0  0  0  0  0  0
   39.8946   26.6317   24.4426 C   0  0  0  0  0  0  0  0  0  0  0  0
   37.4172   25.9022   23.5442 O   0  0  0  0  0  0  0  0  0  0  0  0
   40.8281   24.3139   25.7638 O   0  0  0  0  0  0  0  0  0  0  0  0
   39.7337   24.3497   25.2262 C   0  0  0  0  0  0  0  0  0  0  0  0
   39.2370   25.3441   24.5993 N   0  0  0  0  0  0  0  0  0  0  0  0
   38.0758   25.1113   24.1685 C   0  0  0  0  0  0  0  0  0  0  0  0
   37.5686   23.7646   24.5522 C   0  0  1  0  0  0  0  0  0  0  0  0
   38.7801   23.2112   25.3069 C   0  0  2  0  0  0  0  0  0  0  0  0
  1  2  1  0  0  0  0
  2  3  1  0  0  0  0
  3 20  1  0  0  0  0
  4  5  1  0  0  0  0
  6  7  2  0  0  0  0
  6 12  1  0  0  0  0
  7  8  1  0  0  0  0
  8  9  2  0  0  0  0
  9 11  1  0  0  0  0
 10  5  1  6  0  0  0
 10 11  1  0  0  0  0
 10 16  1  0  0  0  0
 10 27  1  0  0  0  0
 11 12  2  0  0  0  0
 13 12  1  1  0  0  0
 13 15  1  0  0  0  0
 13 28  1  0  0  0  0
 14 15  2  0  0  0  0
 14 19  1  0  0  0  0
 15 16  1  0  0  0  0
 16 17  2  0  0  0  0
 17 18  1  0  0  0  0
 18 19  2  0  0  0  0
 20 21  1  0  0  0  0
 21 25  1  0  0  0  0
 22 26  2  0  0  0  0
 23 24  2  0  0  0  0
 24 25  1  0  0  0  0
 25 26  1  0  0  0  0
 27 26  1  1  0  0  0
 27 28  1  0  0  0  0
 28 24  1  1  0  0  0
M  END
>  <CHROM.1>
-75.31482661,-61.73776127,-86.68915618,-85.91097492,94.15816724,38.16982228
24.40029151,25.55347442,-0.66227534,-0.34251029,2.95454112

>  <Name>
ligand

>  <RI>
0

>  <Rbt.Current_Directory>
/home/itssahil/PROJECTS/Mol_Feturizer/New_Systems/rnas/1YLS

>  <Rbt.Executable>
rbdock ($Id: //depot/dev/client3/rdock/2013.1/src/exe/rbdock.cxx#4 $)

>  <Rbt.Library>
libRbt.so (2013.1, Build901 2013/11/27)

>  <Rbt.Parameter_File>
/export/apps/rDock/src/rDock_2013.1_src/data/scripts/dock_solv.prm

>  <Rbt.Receptor>
prm/pocket_docking_2.prm

>  <SCORE>
-33.3687

>  <SCORE.INTER>
-32.0466

>  <SCORE.INTER.CONST>
1

>  <SCORE.INTER.POLAR>
0

>  <SCORE.INTER.ROT>
5

>  <SCORE.INTER.SOLV>
6.60925

>  <SCORE.INTER.VDW>
-30.5008

>  <SCORE.INTER.norm>
-1.14452

>  <SCORE.INTRA>
-1.32212

>  <SCORE.INTRA.DIHEDRAL>
-4.15888

>  <SCORE.INTRA.DIHEDRAL.0>
12.0148

>  <SCORE.INTRA.POLAR>
0

>  <SCORE.INTRA.POLAR.0>
0

>  <SCORE.INTRA.REPUL>
0

>  <SCORE.INTRA.REPUL.0>
0

>  <SCORE.INTRA.SOLV>
0.260143

>  <SCORE.INTRA.SOLV.lig_0>
-10.5235

>  <SCORE.INTRA.VDW>
0.627255

>  <SCORE.INTRA.VDW.0>
-1.38455

>  <SCORE.INTRA.norm>
-0.0472184

>  <SCORE.RESTR>
0

>  <SCORE.RESTR.CAVITY>
0

>  <SCORE.RESTR.norm>
0

>  <SCORE.SYSTEM>
0

>  <SCORE.SYSTEM.CONST>
0

>  <SCORE.SYSTEM.DIHEDRAL>
0

>  <SCORE.SYSTEM.SOLV>
0

>  <SCORE.SYSTEM.norm>
0

>  <SCORE.heavy>
28

>  <SCORE.norm>
-1.19174

>  <RMSD>
0.886

$$$$
ligand
 OpenBabel11021811413D
libRbt.so/2013.1/901 2013/11/27
 28 32  0  0  0  0  0  0  0  0999 V2000
   44.2377   27.6216   22.1030 C   0  0  0  0  0  0  0  0  0  0  0  0
   42.9464   26.8287   22.0597 C   0  0  0  0  0  0  0  0  0  0  0  0
   42.1562   26.9713   23.3520 C   0  0  0  0  0  0  0  0  0  0  0  0
   34.3488   24.6384   24.0096 O   0  0  0  0  0  0  0  0  0  0  0  0
   34.9948   25.1031   25.1960 C   0  0  0  0  0  0  0  0  0  0  0  0
   38.6358   24.0177   28.3390 C   0  0  0  0  0  0  0  0  0  0  0  0
   38.4688   25.2312   28.9938 C   0  0  0  0  0  0  0  0  0  0  0  0
   37.5036   26.1334   28.5391 C   0  0  0  0  0  0  0  0  0  0  0  0
   36.7057   25.8244   27.4369 C   0  0  0  0  0  0  0  0  0  0  0  0
   36.1221   24.1507   25.6154 C   0  0  1  0  0  0  0  0  0  0  0  0
   36.8712   24.6051   26.8227 C   0  0  0  0  0  0  0  0  0  0  0  0
   37.8222   23.7234   27.2705 C   0  0  0  0  0  0  0  0  0  0  0  0
   37.9476   22.5057   26.4923 C   0  0  1  0  0  0  0  0  0  0  0  0
   36.3656   20.5943   26.6790 C   0  0  0  0  0  0  0  0  0  0  0  0
   36.6261   21.9121   26.3891 C   0  0  0  0  0  0  0  0  0  0  0  0
   35.6480   22.7556   25.9350 C   0  0  0  0  0  0  0  0  0  0  0  0
   34.3561   22.2834   25.7557 C   0  0  0  0  0  0  0  0  0  0  0  0
   34.0713   20.9518   26.0656 C   0  0  0  0  0  0  0  0  0  0  0  0
   35.0758   20.1122   26.5288 C   0  0  0  0  0  0  0  0  0  0  0  0
   40.9467   26.0455   23.3463 C   0  0  0  0  0  0  0  0  0  0  0  0
   40.2092   26.1238   24.6777 C   0  0  0  0  0  0  0  0  0  0  0  0
   37.5802   26.2087   23.9305 O   0  0  0  0  0  0  0  0  0  0  0  0
   40.5752   23.4465   25.5067 O   0  0  0  0  0  0  0  0  0  0  0  0
   39.4999   23.8503   25.0961 C   0  0  0  0  0  0  0  0  0  0  0  0
   39.2467   25.0337   24.6913 N   0  0  0  0  0  0  0  0  0  0  0  0
   38.0426   25.1791   24.3491 C   0  0  0  0  0  0  0  0  0  0  0  0
   37.2224   23.9541   24.5606 C   0  0  1  0  0  0  0  0  0  0  0  0
   38.2871   22.9894   25.0891 C   0  0  2  0  0  0  0  0  0  0  0  0
  1  2  1  0  0  0  0
  2  3  1  0  0  0  0
  3 20  1  0  0  0  0
  4  5  1  0  0  0  0
  6  7  2  0  0  0  0
  6 12  1  0  0  0  0
  7  8  1  0  0  0  0
  8  9  2  0  0  0  0
  9 11  1  0  0  0  0
 10  5  1  6  0  0  0
 10 11  1  0  0  0  0
 10 16  1  0  0  0  0
 10 27  1  0  0  0  0
 11 12  2  0  0  0  0
 13 12  1  1  0  0  0
 13 15  1  0  0  0  0
 13 28  1  0  0  0  0
 14 15  2  0  0  0  0
 14 19  1  0  0  0  0
 15 16  1  0  0  0  0
 16 17  2  0  0  0  0
 17 18  1  0  0  0  0
 18 19  2  0  0  0  0
 20 21  1  0  0  0  0
 21 25  1  0  0  0  0
 22 26  2  0  0  0  0
 23 24  2  0  0  0  0
 24 25  1  0  0  0  0
 25 26  1  0  0  0  0
 27 26  1  1  0  0  0
 27 28  1  0  0  0  0
 28 24  1  1  0  0  0
M  END
>  <CHROM.1>
-173.60381643,177.91575217,176.31665343,-168.86661854,87.75626711,38.05368722
24.33715184,25.41176230,0.54449120,-0.40728469,-1.22454835

>  <Name>
ligand

>  <RI>
0

>  <Rbt.Current_Directory>
/home/itssahil/PROJECTS/Mol_Feturizer/New_Systems/rnas/1YLS

>  <Rbt.Executable>
rbdock ($Id: //depot/dev/client3/rdock/2013.1/src/exe/rbdock.cxx#4 $)

>  <Rbt.Library>
libRbt.so (2013.1, Build901 2013/11/27)

>  <Rbt.Parameter_File>
/export/apps/rDock/src/rDock_2013.1_src/data/scripts/dock_solv.prm

>  <Rbt.Receptor>
prm/pocket_docking_4.prm

>  <SCORE>
-38.1548

>  <SCORE.INTER>
-33.7046

>  <SCORE.INTER.CONST>
1

>  <SCORE.INTER.POLAR>
0

>  <SCORE.INTER.ROT>
5

>  <SCORE.INTER.SOLV>
7.26222

>  <SCORE.INTER.VDW>
-31.8238

>  <SCORE.INTER.norm>
-1.20374

>  <SCORE.INTRA>
-4.45023

>  <SCORE.INTRA.DIHEDRAL>
-9.10939

>  <SCORE.INTRA.DIHEDRAL.0>
12.0148

>  <SCORE.INTRA.POLAR>
0

>  <SCORE.INTRA.POLAR.0>
0

>  <SCORE.INTRA.REPUL>
0

>  <SCORE.INTRA.REPUL.0>
0

>  <SCORE.INTRA.SOLV>
0.158883

>  <SCORE.INTRA.SOLV.lig_0>
-10.5235

>  <SCORE.INTRA.VDW>
0.0250247

>  <SCORE.INTRA.VDW.0>
-1.38455

>  <SCORE.INTRA.norm>
-0.158937

>  <SCORE.RESTR>
0

>  <SCORE.RESTR.CAVITY>
0

>  <SCORE.RESTR.norm>
0

>  <SCORE.SYSTEM>
0

>  <SCORE.SYSTEM.CONST>
0

>  <SCORE.SYSTEM.DIHEDRAL>
0

>  <SCORE.SYSTEM.SOLV>
0

>  <SCORE.SYSTEM.norm>
0

>  <SCORE.heavy>
28

>  <SCORE.norm>
-1.36267

>  <RMSD>
0.886

$$$$
ligand
 OpenBabel11021811413D
libRbt.so/2013.1/901 2013/11/27
 28 32  0  0  0  0  0  0  0  0999 V2000
   44.0465   27.9986   22.0995 C   0  0  0  0  0  0  0  0  0  0  0  0
   42.9283   26.9779   22.1740 C   0  0  0  0  0  0  0  0  0  0  0  0
   42.4106   26.8148   23.5953 C   0  0  0  0  0  0  0  0  0  0  0  0
   34.3592   24.9306   25.9212 O   0  0  0  0  0  0  0  0  0  0  0  0
   35.5289   24.8698   25.1032 C   0  0  0  0  0  0  0  0  0  0  0  0
   38.7652   23.7476   28.6500 C   0  0  0  0  0  0  0  0  0  0  0  0
   38.6062   25.0002   29.2288 C   0  0  0  0  0  0  0  0  0  0  0  0
   37.7471   25.9296   28.6371 C   0  0  0  0  0  0  0  0  0  0  0  0
   37.0466   25.6092   27.4736 C   0  0  0  0  0  0  0  0  0  0  0  0
   36.5495   23.8795   25.6789 C   0  0  1  0  0  0  0  0  0  0  0  0
   37.1997   24.3530   26.9352 C   0  0  0  0  0  0  0  0  0  0  0  0
   38.0467   23.4443   27.5178 C   0  0  0  0  0  0  0  0  0  0  0  0
   38.1764   22.1836   26.8123 C   0  0  1  0  0  0  0  0  0  0  0  0
   36.4723   20.3738   26.9209 C   0  0  0  0  0  0  0  0  0  0  0  0
   36.8388   21.6589   26.6004 C   0  0  0  0  0  0  0  0  0  0  0  0
   35.9633   22.5306   26.0105 C   0  0  0  0  0  0  0  0  0  0  0  0
   34.6700   22.1215   25.7205 C   0  0  0  0  0  0  0  0  0  0  0  0
   34.2764   20.8250   26.0592 C   0  0  0  0  0  0  0  0  0  0  0  0
   35.1775   19.9562   26.6606 C   0  0  0  0  0  0  0  0  0  0  0  0
   41.3084   25.7649   23.6477 C   0  0  0  0  0  0  0  0  0  0  0  0
   40.8206   25.5751   25.0792 C   0  0  0  0  0  0  0  0  0  0  0  0
   38.2895   25.7660   24.0621 O   0  0  0  0  0  0  0  0  0  0  0  0
   40.9410   22.9275   26.0611 O   0  0  0  0  0  0  0  0  0  0  0  0
   39.9383   23.3682   25.5242 C   0  0  0  0  0  0  0  0  0  0  0  0
   39.7981   24.5416   25.0426 N   0  0  0  0  0  0  0  0  0  0  0  0
   38.6452   24.7352   24.5720 C   0  0  0  0  0  0  0  0  0  0  0  0
   37.7363   23.5694   24.7529 C   0  0  1  0  0  0  0  0  0  0  0  0
   38.6830   22.5759   25.4312 C   0  0  2  0  0  0  0  0  0  0  0  0
  1  2  1  0  0  0  0
  2  3  1  0  0  0  0
  3 20  1  0  0  0  0
  4  5  1  0  0  0  0
  6  7  2  0  0  0  0
  6 12  1  0  0  0  0
  7  8  1  0  0  0  0
  8  9  2  0  0  0  0
  9 11  1  0  0  0  0
 10  5  1  6  0  0  0
 10 11  1  0  0  0  0
 10 16  1  0  0  0  0
 10 27  1  0  0  0  0
 11 12  2  0  0  0  0
 13 12  1  1  0  0  0
 13 15  1  0  0  0  0
 13 28  1  0  0  0  0
 14 15  2  0  0  0  0
 14 19  1  0  0  0  0
 15 16  1  0  0  0  0
 16 17  2  0  0  0  0
 17 18  1  0  0  0  0
 18 19  2  0  0  0  0
 20 21  1  0  0  0  0
 21 25  1  0  0  0  0
 22 26  2  0  0  0  0
 23 24  2  0  0  0  0
 24 25  1  0  0  0  0
 25 26  1  0  0  0  0
 27 26  1  1  0  0  0
 27 28  1  0  0  0  0
 28 24  1  1  0  0  0
M  END
>  <CHROM.1>
-178.86325379,-70.74250457,178.35385538,-178.73513985,109.98260650,38.35684982
24.09950390,25.68372011,0.68301905,-0.12342888,-0.79674339

>  <Name>
ligand

>  <RI>
0

>  <Rbt.Current_Directory>
/home/itssahil/PROJECTS/Mol_Feturizer/New_Systems/rnas/1YLS

>  <Rbt.Executable>
rbdock ($Id: //depot/dev/client3/rdock/2013.1/src/exe/rbdock.cxx#4 $)

>  <Rbt.Library>
libRbt.so (2013.1, Build901 2013/11/27)

>  <Rbt.Parameter_File>
/export/apps/rDock/src/rDock_2013.1_src/data/scripts/dock_solv.prm

>  <Rbt.Receptor>
prm/pocket_docking_2.prm

>  <SCORE>
-36.4054

>  <SCORE.INTER>
-32.0555

>  <SCORE.INTER.CONST>
1

>  <SCORE.INTER.POLAR>
0

>  <SCORE.INTER.ROT>
5

>  <SCORE.INTER.SOLV>
6.2078

>  <SCORE.INTER.VDW>
-30.3729

>  <SCORE.INTER.norm>
-1.14484

>  <SCORE.INTRA>
-4.34991

>  <SCORE.INTRA.DIHEDRAL>
-9.35232

>  <SCORE.INTRA.DIHEDRAL.0>
12.0148

>  <SCORE.INTRA.POLAR>
0

>  <SCORE.INTRA.POLAR.0>
0

>  <SCORE.INTRA.REPUL>
0

>  <SCORE.INTRA.REPUL.0>
0

>  <SCORE.INTRA.SOLV>
-0.0366231

>  <SCORE.INTRA.SOLV.lig_0>
-10.5235

>  <SCORE.INTRA.VDW>
0.344565

>  <SCORE.INTRA.VDW.0>
-1.38455

>  <SCORE.INTRA.norm>
-0.155354

>  <SCORE.RESTR>
0

>  <SCORE.RESTR.CAVITY>
0

>  <SCORE.RESTR.norm>
0

>  <SCORE.SYSTEM>
0

>  <SCORE.SYSTEM.CONST>
0

>  <SCORE.SYSTEM.DIHEDRAL>
0

>  <SCORE.SYSTEM.SOLV>
0

>  <SCORE.SYSTEM.norm>
0

>  <SCORE.heavy>
28

>  <SCORE.norm>
-1.30019

>  <RMSD>
0.887

$$$$
ligand
 OpenBabel11021811413D
libRbt.so/2013.1/901 2013/11/27
 28 32  0  0  0  0  0  0  0  0999 V2000
   44.0292   28.0648   22.1146 C   0  0  0  0  0  0  0  0  0  0  0  0
   42.9409   27.0128   22.1977 C   0  0  0  0  0  0  0  0  0  0  0  0
   42.4027   26.8723   23.6139 C   0  0  0  0  0  0  0  0  0  0  0  0
   34.4050   24.8420   25.9184 O   0  0  0  0  0  0  0  0  0  0  0  0
   35.5680   24.7644   25.0922 C   0  0  0  0  0  0  0  0  0  0  0  0
   38.7948   23.8014   28.6940 C   0  0  0  0  0  0  0  0  0  0  0  0
   38.5960   25.0605   29.2456 C   0  0  0  0  0  0  0  0  0  0  0  0
   37.7187   25.9544   28.6263 C   0  0  0  0  0  0  0  0  0  0  0  0
   37.0397   25.5919   27.4624 C   0  0  0  0  0  0  0  0  0  0  0  0
   36.6085   23.8138   25.6983 C   0  0  1  0  0  0  0  0  0  0  0  0
   37.2322   24.3297   26.9514 C   0  0  0  0  0  0  0  0  0  0  0  0
   38.0969   23.4562   27.5609 C   0  0  0  0  0  0  0  0  0  0  0  0
   38.2680   22.1856   26.8825 C   0  0  1  0  0  0  0  0  0  0  0  0
   36.6119   20.3329   27.0105 C   0  0  0  0  0  0  0  0  0  0  0  0
   36.9473   21.6208   26.6677 C   0  0  0  0  0  0  0  0  0  0  0  0
   36.0551   22.4564   26.0512 C   0  0  0  0  0  0  0  0  0  0  0  0
   34.7764   22.0068   25.7564 C   0  0  0  0  0  0  0  0  0  0  0  0
   34.4142   20.7072   26.1173 C   0  0  0  0  0  0  0  0  0  0  0  0
   35.3317   19.8753   26.7454 C   0  0  0  0  0  0  0  0  0  0  0  0
   41.3536   25.7701   23.6822 C   0  0  0  0  0  0  0  0  0  0  0  0
   40.8388   25.6119   25.1080 C   0  0  0  0  0  0  0  0  0  0  0  0
   38.3146   25.7139   24.0614 O   0  0  0  0  0  0  0  0  0  0  0  0
   41.0196   22.9886   26.1447 O   0  0  0  0  0  0  0  0  0  0  0  0
   40.0113   23.3913   25.5887 C   0  0  0  0  0  0  0  0  0  0  0  0
   39.8449   24.5506   25.0820 N   0  0  0  0  0  0  0  0  0  0  0  0
   38.6924   24.7035   24.5958 C   0  0  0  0  0  0  0  0  0  0  0  0
   37.8131   23.5174   24.7910 C   0  0  1  0  0  0  0  0  0  0  0  0
   38.7788   22.5636   25.4990 C   0  0  2  0  0  0  0  0  0  0  0  0
  1  2  1  0  0  0  0
  2  3  1  0  0  0  0
  3 20  1  0  0  0  0
  4  5  1  0  0  0  0
  6  7  2  0  0  0  0
  6 12  1  0  0  0  0
  7  8  1  0  0  0  0
  8  9  2  0  0  0  0
  9 11  1  0  0  0  0
 10  5  1  6  0  0  0
 10 11  1  0  0  0  0
 10 16  1  0  0  0  0
 10 27  1  0  0  0  0
 11 12  2  0  0  0  0
 13 12  1  1  0  0  0
 13 15  1  0  0  0  0
 13 28  1  0  0  0  0
 14 15  2  0  0  0  0
 14 19  1  0  0  0  0
 15 16  1  0  0  0  0
 16 17  2  0  0  0  0
 17 18  1  0  0  0  0
 18 19  2  0  0  0  0
 20 21  1  0  0  0  0
 21 25  1  0  0  0  0
 22 26  2  0  0  0  0
 23 24  2  0  0  0  0
 24 25  1  0  0  0  0
 25 26  1  0  0  0  0
 27 26  1  1  0  0  0
 27 28  1  0  0  0  0
 28 24  1  1  0  0  0
M  END
>  <CHROM.1>
-177.61793689,-68.93427152,178.77745223,179.78344771,109.05615915,38.41022281
24.08385984,25.71830106,0.70177209,-0.10152214,-0.75745254

>  <Name>
ligand

>  <RI>
0

>  <Rbt.Current_Directory>
/home/itssahil/PROJECTS/Mol_Feturizer/New_Systems/rnas/1YLS

>  <Rbt.Executable>
rbdock ($Id: //depot/dev/client3/rdock/2013.1/src/exe/rbdock.cxx#4 $)

>  <Rbt.Library>
libRbt.so (2013.1, Build901 2013/11/27)

>  <Rbt.Parameter_File>
/export/apps/rDock/src/rDock_2013.1_src/data/scripts/dock_solv.prm

>  <Rbt.Receptor>
prm/pocket_docking_2.prm

>  <SCORE>
-36.3913

>  <SCORE.INTER>
-31.9153

>  <SCORE.INTER.CONST>
1

>  <SCORE.INTER.POLAR>
0

>  <SCORE.INTER.ROT>
5

>  <SCORE.INTER.SOLV>
6.09712

>  <SCORE.INTER.VDW>
-30.2426

>  <SCORE.INTER.norm>
-1.13983

>  <SCORE.INTRA>
-4.47598

>  <SCORE.INTRA.DIHEDRAL>
-9.46311

>  <SCORE.INTRA.DIHEDRAL.0>
12.0148

>  <SCORE.INTRA.POLAR>
0

>  <SCORE.INTRA.POLAR.0>
0

>  <SCORE.INTRA.REPUL>
0

>  <SCORE.INTRA.REPUL.0>
0

>  <SCORE.INTRA.SOLV>
-0.0362597

>  <SCORE.INTRA.SOLV.lig_0>
-10.5235

>  <SCORE.INTRA.VDW>
0.273705

>  <SCORE.INTRA.VDW.0>
-1.38455

>  <SCORE.INTRA.norm>
-0.159856

>  <SCORE.RESTR>
0

>  <SCORE.RESTR.CAVITY>
0

>  <SCORE.RESTR.norm>
0

>  <SCORE.SYSTEM>
0

>  <SCORE.SYSTEM.CONST>
0

>  <SCORE.SYSTEM.DIHEDRAL>
0

>  <SCORE.SYSTEM.SOLV>
0

>  <SCORE.SYSTEM.norm>
0

>  <SCORE.heavy>
28

>  <SCORE.norm>
-1.29969

>  <RMSD>
0.888

$$$$
ligand
 OpenBabel11021811413D
libRbt.so/2013.1/901 2013/11/27
 28 32  0  0  0  0  0  0  0  0999 V2000
   43.5572   26.4325   21.6052 C   0  0  0  0  0  0  0  0  0  0  0  0
   43.7066   26.1591   23.0888 C   0  0  0  0  0  0  0  0  0  0  0  0
   42.5053   26.6610   23.8760 C   0  0  0  0  0  0  0  0  0  0  0  0
   34.3423   24.5399   24.0030 O   0  0  0  0  0  0  0  0  0  0  0  0
   34.9888   25.0276   25.1800 C   0  0  0  0  0  0  0  0  0  0  0  0
   38.6457   24.0159   28.3289 C   0  0  0  0  0  0  0  0  0  0  0  0
   38.4620   25.2316   28.9751 C   0  0  0  0  0  0  0  0  0  0  0  0
   37.4840   26.1169   28.5144 C   0  0  0  0  0  0  0  0  0  0  0  0
   36.6901   25.7888   27.4148 C   0  0  0  0  0  0  0  0  0  0  0  0
   36.1294   24.0940   25.6056 C   0  0  1  0  0  0  0  0  0  0  0  0
   36.8725   24.5675   26.8093 C   0  0  0  0  0  0  0  0  0  0  0  0
   37.8360   23.7025   27.2630 C   0  0  0  0  0  0  0  0  0  0  0  0
   37.9782   22.4812   26.4935 C   0  0  1  0  0  0  0  0  0  0  0  0
   36.4232   20.5491   26.6945 C   0  0  0  0  0  0  0  0  0  0  0  0
   36.6651   21.8684   26.3952 C   0  0  0  0  0  0  0  0  0  0  0  0
   35.6751   22.6947   25.9355 C   0  0  0  0  0  0  0  0  0  0  0  0
   34.3899   22.2032   25.7601 C   0  0  0  0  0  0  0  0  0  0  0  0
   34.1239   20.8700   26.0798 C   0  0  0  0  0  0  0  0  0  0  0  0
   35.1402   20.0479   26.5484 C   0  0  0  0  0  0  0  0  0  0  0  0
   41.3321   25.6997   23.7357 C   0  0  0  0  0  0  0  0  0  0  0  0
   40.1881   26.1175   24.6519 C   0  0  0  0  0  0  0  0  0  0  0  0
   37.5579   26.1601   23.9054 O   0  0  0  0  0  0  0  0  0  0  0  0
   40.5920   23.4517   25.4999 O   0  0  0  0  0  0  0  0  0  0  0  0
   39.5109   23.8373   25.0869 C   0  0  0  0  0  0  0  0  0  0  0  0
   39.2410   25.0141   24.6738 N   0  0  0  0  0  0  0  0  0  0  0  0
   38.0348   25.1402   24.3311 C   0  0  0  0  0  0  0  0  0  0  0  0
   37.2320   23.9053   24.5517 C   0  0  1  0  0  0  0  0  0  0  0  0
   38.3103   22.9595   25.0867 C   0  0  2  0  0  0  0  0  0  0  0  0
  1  2  1  0  0  0  0
  2  3  1  0  0  0  0
  3 20  1  0  0  0  0
  4  5  1  0  0  0  0
  6  7  2  0  0  0  0
  6 12  1  0  0  0  0
  7  8  1  0  0  0  0
  8  9  2  0  0  0  0
  9 11  1  0  0  0  0
 10  5  1  6  0  0  0
 10 11  1  0  0  0  0
 10 16  1  0  0  0  0
 10 27  1  0  0  0  0
 11 12  2  0  0  0  0
 13 12  1  1  0  0  0
 13 15  1  0  0  0  0
 13 28  1  0  0  0  0
 14 15  2  0  0  0  0
 14 19  1  0  0  0  0
 15 16  1  0  0  0  0
 16 17  2  0  0  0  0
 17 18  1  0  0  0  0
 18 19  2  0  0  0  0
 20 21  1  0  0  0  0
 21 25  1  0  0  0  0
 22 26  2  0  0  0  0
 23 24  2  0  0  0  0
 24 25  1  0  0  0  0
 25 26  1  0  0  0  0
 27 26  1  1  0  0  0
 27 28  1  0  0  0  0
 28 24  1  1  0  0  0
M  END
>  <CHROM.1>
77.90728896,178.35963963,173.39501502,-168.19714790,61.08678909,38.09224305
24.20430108,25.45899224,0.45649516,-0.40097264,-1.33560847

>  <Name>
ligand

>  <RI>
0

>  <Rbt.Current_Directory>
/home/itssahil/PROJECTS/Mol_Feturizer/New_Systems/rnas/1YLS

>  <Rbt.Executable>
rbdock ($Id: //depot/dev/client3/rdock/2013.1/src/exe/rbdock.cxx#4 $)

>  <Rbt.Library>
libRbt.so (2013.1, Build901 2013/11/27)

>  <Rbt.Parameter_File>
/export/apps/rDock/src/rDock_2013.1_src/data/scripts/dock_solv.prm

>  <Rbt.Receptor>
prm/pocket_docking_4.prm

>  <SCORE>
-35.9267

>  <SCORE.INTER>
-33.3657

>  <SCORE.INTER.CONST>
1

>  <SCORE.INTER.POLAR>
0

>  <SCORE.INTER.ROT>
5

>  <SCORE.INTER.SOLV>
7.33264

>  <SCORE.INTER.VDW>
-31.6213

>  <SCORE.INTER.norm>
-1.19163

>  <SCORE.INTRA>
-2.56101

>  <SCORE.INTRA.DIHEDRAL>
-7.66526

>  <SCORE.INTRA.DIHEDRAL.0>
12.0148

>  <SCORE.INTRA.POLAR>
0

>  <SCORE.INTRA.POLAR.0>
0

>  <SCORE.INTRA.REPUL>
0

>  <SCORE.INTRA.REPUL.0>
0

>  <SCORE.INTRA.SOLV>
0.191354

>  <SCORE.INTRA.SOLV.lig_0>
-10.5235

>  <SCORE.INTRA.VDW>
1.17594

>  <SCORE.INTRA.VDW.0>
-1.38455

>  <SCORE.INTRA.norm>
-0.0914647

>  <SCORE.RESTR>
0

>  <SCORE.RESTR.CAVITY>
0

>  <SCORE.RESTR.norm>
0

>  <SCORE.SYSTEM>
0

>  <SCORE.SYSTEM.CONST>
0

>  <SCORE.SYSTEM.DIHEDRAL>
0

>  <SCORE.SYSTEM.SOLV>
0

>  <SCORE.SYSTEM.norm>
0

>  <SCORE.heavy>
28

>  <SCORE.norm>
-1.2831

>  <RMSD>
0.889

$$$$
ligand
 OpenBabel11021811413D
libRbt.so/2013.1/901 2013/11/27
 28 32  0  0  0  0  0  0  0  0999 V2000
   44.1281   27.9352   22.1584 C   0  0  0  0  0  0  0  0  0  0  0  0
   42.9676   26.9601   22.1758 C   0  0  0  0  0  0  0  0  0  0  0  0
   42.0804   27.1648   23.3948 C   0  0  0  0  0  0  0  0  0  0  0  0
   34.4793   24.9416   24.0565 O   0  0  0  0  0  0  0  0  0  0  0  0
   35.0099   25.2071   25.3561 C   0  0  0  0  0  0  0  0  0  0  0  0
   38.7099   23.9249   28.3526 C   0  0  0  0  0  0  0  0  0  0  0  0
   38.5756   25.1075   29.0687 C   0  0  0  0  0  0  0  0  0  0  0  0
   37.6125   26.0428   28.6817 C   0  0  0  0  0  0  0  0  0  0  0  0
   36.7841   25.7975   27.5860 C   0  0  0  0  0  0  0  0  0  0  0  0
   36.1335   24.2212   25.7014 C   0  0  1  0  0  0  0  0  0  0  0  0
   36.9177   24.6072   26.9103 C   0  0  0  0  0  0  0  0  0  0  0  0
   37.8668   23.6929   27.2917 C   0  0  0  0  0  0  0  0  0  0  0  0
   37.9564   22.5126   26.4533 C   0  0  1  0  0  0  0  0  0  0  0  0
   36.3528   20.6148   26.5872 C   0  0  0  0  0  0  0  0  0  0  0  0
   36.6246   21.9416   26.3544 C   0  0  0  0  0  0  0  0  0  0  0  0
   35.6478   22.8185   25.9655 C   0  0  0  0  0  0  0  0  0  0  0  0
   34.3455   22.3720   25.7957 C   0  0  0  0  0  0  0  0  0  0  0  0
   34.0496   21.0308   26.0485 C   0  0  0  0  0  0  0  0  0  0  0  0
   35.0531   20.1571   26.4460 C   0  0  0  0  0  0  0  0  0  0  0  0
   40.9692   26.1236   23.4305 C   0  0  0  0  0  0  0  0  0  0  0  0
   40.2241   26.1847   24.7587 C   0  0  0  0  0  0  0  0  0  0  0  0
   37.5793   26.3391   24.0815 O   0  0  0  0  0  0  0  0  0  0  0  0
   40.5724   23.4661   25.4492 O   0  0  0  0  0  0  0  0  0  0  0  0
   39.4933   23.9029   25.0851 C   0  0  0  0  0  0  0  0  0  0  0  0
   39.2470   25.1076   24.7438 N   0  0  0  0  0  0  0  0  0  0  0  0
   38.0372   25.2847   24.4388 C   0  0  0  0  0  0  0  0  0  0  0  0
   37.2053   24.0615   24.6116 C   0  0  1  0  0  0  0  0  0  0  0  0
   38.2687   23.0589   25.0669 C   0  0  2  0  0  0  0  0  0  0  0  0
  1  2  1  0  0  0  0
  2  3  1  0  0  0  0
  3 20  1  0  0  0  0
  4  5  1  0  0  0  0
  6  7  2  0  0  0  0
  6 12  1  0  0  0  0
  7  8  1  0  0  0  0
  8  9  2  0  0  0  0
  9 11  1  0  0  0  0
 10  5  1  6  0  0  0
 10 11  1  0  0  0  0
 10 16  1  0  0  0  0
 10 27  1  0  0  0  0
 11 12  2  0  0  0  0
 13 12  1  1  0  0  0
 13 15  1  0  0  0  0
 13 28  1  0  0  0  0
 14 15  2  0  0  0  0
 14 19  1  0  0  0  0
 15 16  1  0  0  0  0
 16 17  2  0  0  0  0
 17 18  1  0  0  0  0
 18 19  2  0  0  0  0
 20 21  1  0  0  0  0
 21 25  1  0  0  0  0
 22 26  2  0  0  0  0
 23 24  2  0  0  0  0
 24 25  1  0  0  0  0
 25 26  1  0  0  0  0
 27 26  1  1  0  0  0
 27 28  1  0  0  0  0
 28 24  1  1  0  0  0
M  END
>  <CHROM.1>
-176.78424500,168.10434030,170.76699762,-176.30385869,85.38898107,38.06647046
24.40719302,25.45666808,0.57861841,-0.38055068,-1.14156235

>  <Name>
ligand

>  <RI>
0

>  <Rbt.Current_Directory>
/home/itssahil/PROJECTS/Mol_Feturizer/New_Systems/rnas/1YLS

>  <Rbt.Executable>
rbdock ($Id: //depot/dev/client3/rdock/2013.1/src/exe/rbdock.cxx#4 $)

>  <Rbt.Library>
libRbt.so (2013.1, Build901 2013/11/27)

>  <Rbt.Parameter_File>
/export/apps/rDock/src/rDock_2013.1_src/data/scripts/dock_solv.prm

>  <Rbt.Receptor>
prm/pocket_docking_2.prm

>  <SCORE>
-38.0116

>  <SCORE.INTER>
-33.6632

>  <SCORE.INTER.CONST>
1

>  <SCORE.INTER.POLAR>
0

>  <SCORE.INTER.ROT>
5

>  <SCORE.INTER.SOLV>
7.18911

>  <SCORE.INTER.VDW>
-31.7718

>  <SCORE.INTER.norm>
-1.20226

>  <SCORE.INTRA>
-4.34839

>  <SCORE.INTRA.DIHEDRAL>
-8.92095

>  <SCORE.INTRA.DIHEDRAL.0>
12.0148

>  <SCORE.INTRA.POLAR>
0

>  <SCORE.INTRA.POLAR.0>
0

>  <SCORE.INTRA.REPUL>
0

>  <SCORE.INTRA.REPUL.0>
0

>  <SCORE.INTRA.SOLV>
0.212146

>  <SCORE.INTRA.SOLV.lig_0>
-10.5235

>  <SCORE.INTRA.VDW>
0.00601284

>  <SCORE.INTRA.VDW.0>
-1.38455

>  <SCORE.INTRA.norm>
-0.1553

>  <SCORE.RESTR>
0

>  <SCORE.RESTR.CAVITY>
0

>  <SCORE.RESTR.norm>
0

>  <SCORE.SYSTEM>
0

>  <SCORE.SYSTEM.CONST>
0

>  <SCORE.SYSTEM.DIHEDRAL>
0

>  <SCORE.SYSTEM.SOLV>
0

>  <SCORE.SYSTEM.norm>
0

>  <SCORE.heavy>
28

>  <SCORE.norm>
-1.35756

>  <RMSD>
0.890

$$$$
ligand
 OpenBabel11021811413D
libRbt.so/2013.1/901 2013/11/27
 28 32  0  0  0  0  0  0  0  0999 V2000
   43.9741   28.1419   22.1134 C   0  0  0  0  0  0  0  0  0  0  0  0
   42.8503   27.1267   22.1804 C   0  0  0  0  0  0  0  0  0  0  0  0
   42.3776   26.9057   23.6096 C   0  0  0  0  0  0  0  0  0  0  0  0
   34.5027   25.1668   26.1847 O   0  0  0  0  0  0  0  0  0  0  0  0
   35.5318   24.9446   25.2191 C   0  0  0  0  0  0  0  0  0  0  0  0
   38.8436   23.6805   28.6464 C   0  0  0  0  0  0  0  0  0  0  0  0
   38.7082   24.9138   29.2709 C   0  0  0  0  0  0  0  0  0  0  0  0
   37.8422   25.8686   28.7319 C   0  0  0  0  0  0  0  0  0  0  0  0
   37.1116   25.5927   27.5755 C   0  0  0  0  0  0  0  0  0  0  0  0
   36.5584   23.9284   25.7360 C   0  0  1  0  0  0  0  0  0  0  0  0
   37.2421   24.3544   26.9915 C   0  0  0  0  0  0  0  0  0  0  0  0
   38.0959   23.4208   27.5224 C   0  0  0  0  0  0  0  0  0  0  0  0
   38.1990   22.1839   26.7717 C   0  0  1  0  0  0  0  0  0  0  0  0
   36.4842   20.3831   26.8604 C   0  0  0  0  0  0  0  0  0  0  0  0
   36.8527   21.6758   26.5747 C   0  0  0  0  0  0  0  0  0  0  0  0
   35.9700   22.5730   26.0360 C   0  0  0  0  0  0  0  0  0  0  0  0
   34.6670   22.1828   25.7638 C   0  0  0  0  0  0  0  0  0  0  0  0
   34.2718   20.8783   26.0679 C   0  0  0  0  0  0  0  0  0  0  0  0
   35.1804   19.9834   26.6176 C   0  0  0  0  0  0  0  0  0  0  0  0
   41.2926   25.8377   23.6567 C   0  0  0  0  0  0  0  0  0  0  0  0
   40.8266   25.6142   25.0905 C   0  0  0  0  0  0  0  0  0  0  0  0
   38.2734   25.8568   24.1422 O   0  0  0  0  0  0  0  0  0  0  0  0
   40.9504   22.9340   25.9793 O   0  0  0  0  0  0  0  0  0  0  0  0
   39.9385   23.3995   25.4820 C   0  0  0  0  0  0  0  0  0  0  0  0
   39.7958   24.5895   25.0439 N   0  0  0  0  0  0  0  0  0  0  0  0
   38.6334   24.8068   24.6082 C   0  0  0  0  0  0  0  0  0  0  0  0
   37.7202   23.6418   24.7716 C   0  0  1  0  0  0  0  0  0  0  0  0
   38.6753   22.6194   25.3928 C   0  0  2  0  0  0  0  0  0  0  0  0
  1  2  1  0  0  0  0
  2  3  1  0  0  0  0
  3 20  1  0  0  0  0
  4  5  1  0  0  0  0
  6  7  2  0  0  0  0
  6 12  1  0  0  0  0
  7  8  1  0  0  0  0
  8  9  2  0  0  0  0
  9 11  1  0  0  0  0
 10  5  1  6  0  0  0
 10 11  1  0  0  0  0
 10 16  1  0  0  0  0
 10 27  1  0  0  0  0
 11 12  2  0  0  0  0
 13 12  1  1  0  0  0
 13 15  1  0  0  0  0
 13 28  1  0  0  0  0
 14 15  2  0  0  0  0
 14 19  1  0  0  0  0
 15 16  1  0  0  0  0
 16 17  2  0  0  0  0
 17 18  1  0  0  0  0
 18 19  2  0  0  0  0
 20 21  1  0  0  0  0
 21 25  1  0  0  0  0
 22 26  2  0  0  0  0
 23 24  2  0  0  0  0
 24 25  1  0  0  0  0
 25 26  1  0  0  0  0
 27 26  1  1  0  0  0
 27 28  1  0  0  0  0
 28 24  1  1  0  0  0
M  END
>  <CHROM.1>
-177.48261238,-60.10540119,179.71841524,179.84987838,109.35090126,38.37018825
24.14580797,25.70931752,0.68404927,0.18993916,-0.41531579

>  <Name>
ligand

>  <RI>
0

>  <Rbt.Current_Directory>
/home/itssahil/PROJECTS/Mol_Feturizer/New_Systems/rnas/1YLS

>  <Rbt.Executable>
rbdock ($Id: //depot/dev/client3/rdock/2013.1/src/exe/rbdock.cxx#4 $)

>  <Rbt.Library>
libRbt.so (2013.1, Build901 2013/11/27)

>  <Rbt.Parameter_File>
/export/apps/rDock/src/rDock_2013.1_src/data/scripts/dock_solv.prm

>  <Rbt.Receptor>
prm/pocket_docking_6.prm

>  <SCORE>
-36.7854

>  <SCORE.INTER>
-32.1251

>  <SCORE.INTER.CONST>
1

>  <SCORE.INTER.POLAR>
0

>  <SCORE.INTER.ROT>
5

>  <SCORE.INTER.SOLV>
6.28788

>  <SCORE.INTER.VDW>
-30.446

>  <SCORE.INTER.norm>
-1.14732

>  <SCORE.INTRA>
-4.66036

>  <SCORE.INTRA.DIHEDRAL>
-9.69855

>  <SCORE.INTRA.DIHEDRAL.0>
12.0148

>  <SCORE.INTRA.POLAR>
0

>  <SCORE.INTRA.POLAR.0>
0

>  <SCORE.INTRA.REPUL>
0

>  <SCORE.INTRA.REPUL.0>
0

>  <SCORE.INTRA.SOLV>
-0.0347363

>  <SCORE.INTRA.SOLV.lig_0>
-10.5235

>  <SCORE.INTRA.VDW>
0.206283

>  <SCORE.INTRA.VDW.0>
-1.38455

>  <SCORE.INTRA.norm>
-0.166441

>  <SCORE.RESTR>
0

>  <SCORE.RESTR.CAVITY>
0

>  <SCORE.RESTR.norm>
0

>  <SCORE.SYSTEM>
0

>  <SCORE.SYSTEM.CONST>
0

>  <SCORE.SYSTEM.DIHEDRAL>
0

>  <SCORE.SYSTEM.SOLV>
0

>  <SCORE.SYSTEM.norm>
0

>  <SCORE.heavy>
28

>  <SCORE.norm>
-1.31376

>  <RMSD>
0.890

$$$$
ligand
 OpenBabel11021811413D
libRbt.so/2013.1/901 2013/11/27
 28 32  0  0  0  0  0  0  0  0999 V2000
   43.8514   26.2479   22.2156 C   0  0  0  0  0  0  0  0  0  0  0  0
   42.7320   27.2477   22.0025 C   0  0  0  0  0  0  0  0  0  0  0  0
   41.8481   27.3721   23.2346 C   0  0  0  0  0  0  0  0  0  0  0  0
   34.0987   24.4414   26.0553 O   0  0  0  0  0  0  0  0  0  0  0  0
   35.1385   24.3716   25.0780 C   0  0  0  0  0  0  0  0  0  0  0  0
   38.7150   24.3086   28.4717 C   0  0  0  0  0  0  0  0  0  0  0  0
   38.3009   25.5372   28.9700 C   0  0  0  0  0  0  0  0  0  0  0  0
   37.2234   26.1963   28.3726 C   0  0  0  0  0  0  0  0  0  0  0  0
   36.5594   25.6299   27.2839 C   0  0  0  0  0  0  0  0  0  0  0  0
   36.3861   23.6884   25.6528 C   0  0  1  0  0  0  0  0  0  0  0  0
   36.9706   24.3998   26.8265 C   0  0  0  0  0  0  0  0  0  0  0  0
   38.0310   23.7574   27.4141 C   0  0  0  0  0  0  0  0  0  0  0  0
   38.4123   22.5037   26.7922 C   0  0  1  0  0  0  0  0  0  0  0  0
   37.1769   20.3723   27.1415 C   0  0  0  0  0  0  0  0  0  0  0  0
   37.2223   21.6754   26.7074 C   0  0  0  0  0  0  0  0  0  0  0  0
   36.1423   22.2748   26.1171 C   0  0  0  0  0  0  0  0  0  0  0  0
   34.9650   21.5621   25.9435 C   0  0  0  0  0  0  0  0  0  0  0  0
   34.8968   20.2435   26.3982 C   0  0  0  0  0  0  0  0  0  0  0  0
   36.0016   19.6535   26.9981 C   0  0  0  0  0  0  0  0  0  0  0  0
   40.9764   26.1335   23.3968 C   0  0  0  0  0  0  0  0  0  0  0  0
   40.1190   26.2459   24.6518 C   0  0  0  0  0  0  0  0  0  0  0  0
   37.5652   25.7759   23.7947 O   0  0  0  0  0  0  0  0  0  0  0  0
   40.8922   23.7853   25.8080 O   0  0  0  0  0  0  0  0  0  0  0  0
   39.7900   23.9423   25.3093 C   0  0  0  0  0  0  0  0  0  0  0  0
   39.3608   25.0093   24.7565 N   0  0  0  0  0  0  0  0  0  0  0  0
   38.1727   24.8982   24.3512 C   0  0  0  0  0  0  0  0  0  0  0  0
   37.5658   23.5770   24.6740 C   0  0  1  0  0  0  0  0  0  0  0  0
   38.7473   22.8827   25.3562 C   0  0  2  0  0  0  0  0  0  0  0  0
  1  2  1  0  0  0  0
  2  3  1  0  0  0  0
  3 20  1  0  0  0  0
  4  5  1  0  0  0  0
  6  7  2  0  0  0  0
  6 12  1  0  0  0  0
  7  8  1  0  0  0  0
  8  9  2  0  0  0  0
  9 11  1  0  0  0  0
 10  5  1  6  0  0  0
 10 11  1  0  0  0  0
 10 16  1  0  0  0  0
 10 27  1  0  0  0  0
 11 12  2  0  0  0  0
 13 12  1  1  0  0  0
 13 15  1  0  0  0  0
 13 28  1  0  0  0  0
 14 15  2  0  0  0  0
 14 19  1  0  0  0  0
 15 16  1  0  0  0  0
 16 17  2  0  0  0  0
 17 18  1  0  0  0  0
 18 19  2  0  0  0  0
 20 21  1  0  0  0  0
 21 25  1  0  0  0  0
 22 26  2  0  0  0  0
 23 24  2  0  0  0  0
 24 25  1  0  0  0  0
 25 26  1  0  0  0  0
 27 26  1  1  0  0  0
 27 28  1  0  0  0  0
 28 24  1  1  0  0  0
M  END
>  <CHROM.1>
-72.69701344,-60.62471343,178.52579377,-177.92147238,85.74530107,38.22807317
24.15688868,25.59956872,-0.56601657,-0.51246745,3.11322351

>  <Name>
ligand

>  <RI>
0

>  <Rbt.Current_Directory>
/home/itssahil/PROJECTS/Mol_Feturizer/New_Systems/rnas/1YLS

>  <Rbt.Executable>
rbdock ($Id: //depot/dev/client3/rdock/2013.1/src/exe/rbdock.cxx#4 $)

>  <Rbt.Library>
libRbt.so (2013.1, Build901 2013/11/27)

>  <Rbt.Parameter_File>
/export/apps/rDock/src/rDock_2013.1_src/data/scripts/dock_solv.prm

>  <Rbt.Receptor>
prm/pocket_docking_8.prm

>  <SCORE>
-38.1398

>  <SCORE.INTER>
-34.3166

>  <SCORE.INTER.CONST>
1

>  <SCORE.INTER.POLAR>
0

>  <SCORE.INTER.ROT>
5

>  <SCORE.INTER.SOLV>
6.92898

>  <SCORE.INTER.VDW>
-32.1208

>  <SCORE.INTER.norm>
-1.22559

>  <SCORE.INTRA>
-3.82312

>  <SCORE.INTRA.DIHEDRAL>
-9.11741

>  <SCORE.INTRA.DIHEDRAL.0>
12.0148

>  <SCORE.INTRA.POLAR>
0

>  <SCORE.INTRA.POLAR.0>
0

>  <SCORE.INTRA.REPUL>
0

>  <SCORE.INTRA.REPUL.0>
0

>  <SCORE.INTRA.SOLV>
-0.0673216

>  <SCORE.INTRA.SOLV.lig_0>
-10.5235

>  <SCORE.INTRA.VDW>
0.769247

>  <SCORE.INTRA.VDW.0>
-1.38455

>  <SCORE.INTRA.norm>
-0.13654

>  <SCORE.RESTR>
0

>  <SCORE.RESTR.CAVITY>
0

>  <SCORE.RESTR.norm>
0

>  <SCORE.SYSTEM>
0

>  <SCORE.SYSTEM.CONST>
0

>  <SCORE.SYSTEM.DIHEDRAL>
0

>  <SCORE.SYSTEM.SOLV>
0

>  <SCORE.SYSTEM.norm>
0

>  <SCORE.heavy>
28

>  <SCORE.norm>
-1.36213

>  <RMSD>
0.892

$$$$
ligand
 OpenBabel11021811413D
libRbt.so/2013.1/901 2013/11/27
 28 32  0  0  0  0  0  0  0  0999 V2000
   43.3510   27.8907   22.3105 C   0  0  0  0  0  0  0  0  0  0  0  0
   42.9984   26.4163   22.3067 C   0  0  0  0  0  0  0  0  0  0  0  0
   42.0487   26.0631   23.4417 C   0  0  0  0  0  0  0  0  0  0  0  0
   34.0076   24.2961   25.8341 O   0  0  0  0  0  0  0  0  0  0  0  0
   35.0724   24.2854   24.8815 C   0  0  0  0  0  0  0  0  0  0  0  0
   38.5506   24.7887   28.3401 C   0  0  0  0  0  0  0  0  0  0  0  0
   37.9960   25.9904   28.7613 C   0  0  0  0  0  0  0  0  0  0  0  0
   36.8696   26.4970   28.1080 C   0  0  0  0  0  0  0  0  0  0  0  0
   36.2966   25.8052   27.0402 C   0  0  0  0  0  0  0  0  0  0  0  0
   36.3710   23.7721   25.5168 C   0  0  1  0  0  0  0  0  0  0  0  0
   36.8474   24.6038   26.6599 C   0  0  0  0  0  0  0  0  0  0  0  0
   37.9554   24.1115   27.3021 C   0  0  0  0  0  0  0  0  0  0  0  0
   38.4831   22.8747   26.7583 C   0  0  1  0  0  0  0  0  0  0  0  0
   37.4733   20.6444   27.2025 C   0  0  0  0  0  0  0  0  0  0  0  0
   37.3905   21.9198   26.6975 C   0  0  0  0  0  0  0  0  0  0  0  0
   36.2676   22.3672   26.0545 C   0  0  0  0  0  0  0  0  0  0  0  0
   35.1775   21.5238   25.8988 C   0  0  0  0  0  0  0  0  0  0  0  0
   35.2388   20.2316   26.4249 C   0  0  0  0  0  0  0  0  0  0  0  0
   36.3850   19.7967   27.0773 C   0  0  0  0  0  0  0  0  0  0  0  0
   40.6525   26.6032   23.1607 C   0  0  0  0  0  0  0  0  0  0  0  0
   39.8341   26.6592   24.4453 C   0  0  0  0  0  0  0  0  0  0  0  0
   37.3668   25.8721   23.5679 O   0  0  0  0  0  0  0  0  0  0  0  0
   40.8360   24.3613   25.7510 O   0  0  0  0  0  0  0  0  0  0  0  0
   39.7361   24.3719   25.2237 C   0  0  0  0  0  0  0  0  0  0  0  0
   39.2095   25.3556   24.6044 N   0  0  0  0  0  0  0  0  0  0  0  0
   38.0503   25.0958   24.1837 C   0  0  0  0  0  0  0  0  0  0  0  0
   37.5796   23.7361   24.5682 C   0  0  1  0  0  0  0  0  0  0  0  0
   38.8112   23.2103   25.3100 C   0  0  2  0  0  0  0  0  0  0  0  0
  1  2  1  0  0  0  0
  2  3  1  0  0  0  0
  3 20  1  0  0  0  0
  4  5  1  0  0  0  0
  6  7  2  0  0  0  0
  6 12  1  0  0  0  0
  7  8  1  0  0  0  0
  8  9  2  0  0  0  0
  9 11  1  0  0  0  0
 10  5  1  6  0  0  0
 10 11  1  0  0  0  0
 10 16  1  0  0  0  0
 10 27  1  0  0  0  0
 11 12  2  0  0  0  0
 13 12  1  1  0  0  0
 13 15  1  0  0  0  0
 13 28  1  0  0  0  0
 14 15  2  0  0  0  0
 14 19  1  0  0  0  0
 15 16  1  0  0  0  0
 16 17  2  0  0  0  0
 17 18  1  0  0  0  0
 18 19  2  0  0  0  0
 20 21  1  0  0  0  0
 21 25  1  0  0  0  0
 22 26  2  0  0  0  0
 23 24  2  0  0  0  0
 24 25  1  0  0  0  0
 25 26  1  0  0  0  0
 27 26  1  1  0  0  0
 27 28  1  0  0  0  0
 28 24  1  1  0  0  0
M  END
>  <CHROM.1>
72.52765957,-60.57475989,-161.63674900,-87.08379652,89.62400039,38.18567457
24.35039932,25.51602853,-0.62018185,-0.45975940,3.03671016

>  <Name>
ligand

>  <RI>
0

>  <Rbt.Current_Directory>
/home/itssahil/PROJECTS/Mol_Feturizer/New_Systems/rnas/1YLS

>  <Rbt.Executable>
rbdock ($Id: //depot/dev/client3/rdock/2013.1/src/exe/rbdock.cxx#4 $)

>  <Rbt.Library>
libRbt.so (2013.1, Build901 2013/11/27)

>  <Rbt.Parameter_File>
/export/apps/rDock/src/rDock_2013.1_src/data/scripts/dock_solv.prm

>  <Rbt.Receptor>
prm/pocket_docking_3.prm

>  <SCORE>
-35.0858

>  <SCORE.INTER>
-33.0364

>  <SCORE.INTER.CONST>
1

>  <SCORE.INTER.POLAR>
0

>  <SCORE.INTER.ROT>
5

>  <SCORE.INTER.SOLV>
6.49467

>  <SCORE.INTER.VDW>
-31.1225

>  <SCORE.INTER.norm>
-1.17987

>  <SCORE.INTRA>
-2.04946

>  <SCORE.INTRA.DIHEDRAL>
-5.51811

>  <SCORE.INTRA.DIHEDRAL.0>
12.0148

>  <SCORE.INTRA.POLAR>
0

>  <SCORE.INTRA.POLAR.0>
0

>  <SCORE.INTRA.REPUL>
0

>  <SCORE.INTRA.REPUL.0>
0

>  <SCORE.INTRA.SOLV>
0.192872

>  <SCORE.INTRA.SOLV.lig_0>
-10.5235

>  <SCORE.INTRA.VDW>
0.61316

>  <SCORE.INTRA.VDW.0>
-1.38455

>  <SCORE.INTRA.norm>
-0.073195

>  <SCORE.RESTR>
0

>  <SCORE.RESTR.CAVITY>
0

>  <SCORE.RESTR.norm>
0

>  <SCORE.SYSTEM>
0

>  <SCORE.SYSTEM.CONST>
0

>  <SCORE.SYSTEM.DIHEDRAL>
0

>  <SCORE.SYSTEM.SOLV>
0

>  <SCORE.SYSTEM.norm>
0

>  <SCORE.heavy>
28

>  <SCORE.norm>
-1.25307

>  <RMSD>
0.893

$$$$
ligand
 OpenBabel11021811413D
libRbt.so/2013.1/901 2013/11/27
 28 32  0  0  0  0  0  0  0  0999 V2000
   43.3591   27.8870   22.3179 C   0  0  0  0  0  0  0  0  0  0  0  0
   42.9536   26.4286   22.2367 C   0  0  0  0  0  0  0  0  0  0  0  0
   42.0273   26.0388   23.3790 C   0  0  0  0  0  0  0  0  0  0  0  0
   35.1579   25.7746   24.6766 O   0  0  0  0  0  0  0  0  0  0  0  0
   35.0663   24.3648   24.8892 C   0  0  0  0  0  0  0  0  0  0  0  0
   38.5532   24.7599   28.3530 C   0  0  0  0  0  0  0  0  0  0  0  0
   38.0197   25.9653   28.7908 C   0  0  0  0  0  0  0  0  0  0  0  0
   36.9022   26.5004   28.1450 C   0  0  0  0  0  0  0  0  0  0  0  0
   36.3172   25.8333   27.0680 C   0  0  0  0  0  0  0  0  0  0  0  0
   36.3559   23.8202   25.5169 C   0  0  1  0  0  0  0  0  0  0  0  0
   36.8469   24.6278   26.6711 C   0  0  0  0  0  0  0  0  0  0  0  0
   37.9462   24.1075   27.3061 C   0  0  0  0  0  0  0  0  0  0  0  0
   38.4522   22.8692   26.7453 C   0  0  1  0  0  0  0  0  0  0  0  0
   37.4036   20.6511   27.1593 C   0  0  0  0  0  0  0  0  0  0  0  0
   37.3430   21.9345   26.6717 C   0  0  0  0  0  0  0  0  0  0  0  0
   36.2281   22.4102   26.0354 C   0  0  0  0  0  0  0  0  0  0  0  0
   35.1234   21.5881   25.8685 C   0  0  0  0  0  0  0  0  0  0  0  0
   35.1622   20.2879   26.3769 C   0  0  0  0  0  0  0  0  0  0  0  0
   36.3007   19.8243   27.0229 C   0  0  0  0  0  0  0  0  0  0  0  0
   40.6387   26.6285   23.1688 C   0  0  0  0  0  0  0  0  0  0  0  0
   39.8687   26.6609   24.4837 C   0  0  0  0  0  0  0  0  0  0  0  0
   37.3879   25.9290   23.5965 O   0  0  0  0  0  0  0  0  0  0  0  0
   40.8305   24.3282   25.7575 O   0  0  0  0  0  0  0  0  0  0  0  0
   39.7309   24.3653   25.2308 C   0  0  0  0  0  0  0  0  0  0  0  0
   39.2214   25.3663   24.6252 N   0  0  0  0  0  0  0  0  0  0  0  0
   38.0579   25.1326   24.2014 C   0  0  0  0  0  0  0  0  0  0  0  0
   37.5636   23.7762   24.5674 C   0  0  1  0  0  0  0  0  0  0  0  0
   38.7859   23.2189   25.3015 C   0  0  2  0  0  0  0  0  0  0  0  0
  1  2  1  0  0  0  0
  2  3  1  0  0  0  0
  3 20  1  0  0  0  0
  4  5  1  0  0  0  0
  6  7  2  0  0  0  0
  6 12  1  0  0  0  0
  7  8  1  0  0  0  0
  8  9  2  0  0  0  0
  9 11  1  0  0  0  0
 10  5  1  6  0  0  0
 10 11  1  0  0  0  0
 10 16  1  0  0  0  0
 10 27  1  0  0  0  0
 11 12  2  0  0  0  0
 13 12  1  1  0  0  0
 13 15  1  0  0  0  0
 13 28  1  0  0  0  0
 14 15  2  0  0  0  0
 14 19  1  0  0  0  0
 15 16  1  0  0  0  0
 16 17  2  0  0  0  0
 17 18  1  0  0  0  0
 18 19  2  0  0  0  0
 20 21  1  0  0  0  0
 21 25  1  0  0  0  0
 22 26  2  0  0  0  0
 23 24  2  0  0  0  0
 24 25  1  0  0  0  0
 25 26  1  0  0  0  0
 27 26  1  1  0  0  0
 27 28  1  0  0  0  0
 28 24  1  1  0  0  0
M  END
>  <CHROM.1>
73.21345434,47.00217700,-160.53291967,-86.56891116,91.94796564,38.22252347
24.43086423,25.46190180,-0.68936464,-0.40251548,2.92675203

>  <Name>
ligand

>  <RI>
0

>  <Rbt.Current_Directory>
/home/itssahil/PROJECTS/Mol_Feturizer/New_Systems/rnas/1YLS

>  <Rbt.Executable>
rbdock ($Id: //depot/dev/client3/rdock/2013.1/src/exe/rbdock.cxx#4 $)

>  <Rbt.Library>
libRbt.so (2013.1, Build901 2013/11/27)

>  <Rbt.Parameter_File>
/export/apps/rDock/src/rDock_2013.1_src/data/scripts/dock_solv.prm

>  <Rbt.Receptor>
prm/pocket_docking_4.prm

>  <SCORE>
-33.3172

>  <SCORE.INTER>
-32.9199

>  <SCORE.INTER.CONST>
1

>  <SCORE.INTER.POLAR>
0

>  <SCORE.INTER.ROT>
5

>  <SCORE.INTER.SOLV>
6.42983

>  <SCORE.INTER.VDW>
-31.0232

>  <SCORE.INTER.norm>
-1.17571

>  <SCORE.INTRA>
-0.397249

>  <SCORE.INTRA.DIHEDRAL>
-4.86447

>  <SCORE.INTRA.DIHEDRAL.0>
12.0148

>  <SCORE.INTRA.POLAR>
0

>  <SCORE.INTRA.POLAR.0>
0

>  <SCORE.INTRA.REPUL>
0

>  <SCORE.INTRA.REPUL.0>
0

>  <SCORE.INTRA.SOLV>
0.800901

>  <SCORE.INTRA.SOLV.lig_0>
-10.5235

>  <SCORE.INTRA.VDW>
1.63454

>  <SCORE.INTRA.VDW.0>
-1.38455

>  <SCORE.INTRA.norm>
-0.0141875

>  <SCORE.RESTR>
0

>  <SCORE.RESTR.CAVITY>
0

>  <SCORE.RESTR.norm>
0

>  <SCORE.SYSTEM>
0

>  <SCORE.SYSTEM.CONST>
0

>  <SCORE.SYSTEM.DIHEDRAL>
0

>  <SCORE.SYSTEM.SOLV>
0

>  <SCORE.SYSTEM.norm>
0

>  <SCORE.heavy>
28

>  <SCORE.norm>
-1.1899

>  <RMSD>
0.893

$$$$
ligand
 OpenBabel11021811413D
libRbt.so/2013.1/901 2013/11/27
 28 32  0  0  0  0  0  0  0  0999 V2000
   44.4054   25.9249   24.0893 C   0  0  0  0  0  0  0  0  0  0  0  0
   43.1704   26.7936   23.9552 C   0  0  0  0  0  0  0  0  0  0  0  0
   42.1104   26.1324   23.0868 C   0  0  0  0  0  0  0  0  0  0  0  0
   34.1609   25.0529   25.4664 O   0  0  0  0  0  0  0  0  0  0  0  0
   35.2789   24.9499   24.5830 C   0  0  0  0  0  0  0  0  0  0  0  0
   38.5660   25.4917   28.2181 C   0  0  0  0  0  0  0  0  0  0  0  0
   38.0412   26.7358   28.5437 C   0  0  0  0  0  0  0  0  0  0  0  0
   36.9788   27.2531   27.7981 C   0  0  0  0  0  0  0  0  0  0  0  0
   36.4397   26.5300   26.7334 C   0  0  0  0  0  0  0  0  0  0  0  0
   36.5139   24.4179   25.3215 C   0  0  1  0  0  0  0  0  0  0  0  0
   36.9584   25.2885   26.4483 C   0  0  0  0  0  0  0  0  0  0  0  0
   38.0037   24.7857   27.1810 C   0  0  0  0  0  0  0  0  0  0  0  0
   38.5074   23.5012   26.7334 C   0  0  1  0  0  0  0  0  0  0  0  0
   37.3754   21.3410   27.2265 C   0  0  0  0  0  0  0  0  0  0  0  0
   37.3790   22.5902   26.6538 C   0  0  0  0  0  0  0  0  0  0  0  0
   36.3170   23.0488   25.9217 C   0  0  0  0  0  0  0  0  0  0  0  0
   35.2017   22.2439   25.7422 C   0  0  0  0  0  0  0  0  0  0  0  0
   35.1747   20.9799   26.3353 C   0  0  0  0  0  0  0  0  0  0  0  0
   36.2600   20.5333   27.0777 C   0  0  0  0  0  0  0  0  0  0  0  0
   40.8764   27.0187   22.9781 C   0  0  0  0  0  0  0  0  0  0  0  0
   40.1584   27.0995   24.3200 C   0  0  0  0  0  0  0  0  0  0  0  0
   37.7147   26.3693   23.3340 O   0  0  0  0  0  0  0  0  0  0  0  0
   40.9790   24.8346   25.7984 O   0  0  0  0  0  0  0  0  0  0  0  0
   39.9136   24.8626   25.2049 C   0  0  0  0  0  0  0  0  0  0  0  0
   39.4684   25.8329   24.5059 N   0  0  0  0  0  0  0  0  0  0  0  0
   38.3257   25.5992   24.0288 C   0  0  0  0  0  0  0  0  0  0  0  0
   37.7735   24.2822   24.4515 C   0  0  1  0  0  0  0  0  0  0  0  0
   38.9348   23.7462   25.2927 C   0  0  2  0  0  0  0  0  0  0  0  0
  1  2  1  0  0  0  0
  2  3  1  0  0  0  0
  3 20  1  0  0  0  0
  4  5  1  0  0  0  0
  6  7  2  0  0  0  0
  6 12  1  0  0  0  0
  7  8  1  0  0  0  0
  8  9  2  0  0  0  0
  9 11  1  0  0  0  0
 10  5  1  6  0  0  0
 10 11  1  0  0  0  0
 10 16  1  0  0  0  0
 10 27  1  0  0  0  0
 11 12  2  0  0  0  0
 13 12  1  6  0  0  0
 13 15  1  0  0  0  0
 13 28  1  0  0  0  0
 14 15  2  0  0  0  0
 14 19  1  0  0  0  0
 15 16  1  0  0  0  0
 16 17  2  0  0  0  0
 17 18  1  0  0  0  0
 18 19  2  0  0  0  0
 20 21  1  0  0  0  0
 21 25  1  0  0  0  0
 22 26  2  0  0  0  0
 23 24  2  0  0  0  0
 24 25  1  0  0  0  0
 25 26  1  0  0  0  0
 27 26  1  1  0  0  0
 27 28  1  0  0  0  0
 28 24  1  1  0  0  0
M  END
>  <CHROM.1>
179.49593014,-60.65337889,-68.55577062,-74.94274155,98.26176066,38.34458484
24.83318382,25.51431229,-0.54665377,-0.21980402,2.85789196

>  <Name>
ligand

>  <RI>
0

>  <Rbt.Current_Directory>
/home/itssahil/PROJECTS/Mol_Feturizer/New_Systems/rnas/1YLS

>  <Rbt.Executable>
rbdock ($Id: //depot/dev/client3/rdock/2013.1/src/exe/rbdock.cxx#4 $)

>  <Rbt.Library>
libRbt.so (2013.1, Build901 2013/11/27)

>  <Rbt.Parameter_File>
/export/apps/rDock/src/rDock_2013.1_src/data/scripts/dock_solv.prm

>  <Rbt.Receptor>
prm/pocket_docking_8.prm

>  <SCORE>
-33.5484

>  <SCORE.INTER>
-29.6957

>  <SCORE.INTER.CONST>
1

>  <SCORE.INTER.POLAR>
0

>  <SCORE.INTER.ROT>
5

>  <SCORE.INTER.SOLV>
5.70902

>  <SCORE.INTER.VDW>
-28.6335

>  <SCORE.INTER.norm>
-1.06056

>  <SCORE.INTRA>
-3.85267

>  <SCORE.INTRA.DIHEDRAL>
-8.6858

>  <SCORE.INTRA.DIHEDRAL.0>
12.0148

>  <SCORE.INTRA.POLAR>
0

>  <SCORE.INTRA.POLAR.0>
0

>  <SCORE.INTRA.REPUL>
0

>  <SCORE.INTRA.REPUL.0>
0

>  <SCORE.INTRA.SOLV>
0.475835

>  <SCORE.INTRA.SOLV.lig_0>
-10.5235

>  <SCORE.INTRA.VDW>
0.252309

>  <SCORE.INTRA.VDW.0>
-1.38455

>  <SCORE.INTRA.norm>
-0.137595

>  <SCORE.RESTR>
0

>  <SCORE.RESTR.CAVITY>
0

>  <SCORE.RESTR.norm>
0

>  <SCORE.SYSTEM>
0

>  <SCORE.SYSTEM.CONST>
0

>  <SCORE.SYSTEM.DIHEDRAL>
0

>  <SCORE.SYSTEM.SOLV>
0

>  <SCORE.SYSTEM.norm>
0

>  <SCORE.heavy>
28

>  <SCORE.norm>
-1.19816

>  <RMSD>
0.893

$$$$
ligand
 OpenBabel11021811413D
libRbt.so/2013.1/901 2013/11/27
 28 32  0  0  0  0  0  0  0  0999 V2000
   44.1066   27.9483   22.1748 C   0  0  0  0  0  0  0  0  0  0  0  0
   42.9332   26.9886   22.1807 C   0  0  0  0  0  0  0  0  0  0  0  0
   42.0640   27.1719   23.4159 C   0  0  0  0  0  0  0  0  0  0  0  0
   34.4406   24.9571   24.1438 O   0  0  0  0  0  0  0  0  0  0  0  0
   34.9762   25.1921   25.4472 C   0  0  0  0  0  0  0  0  0  0  0  0
   38.7530   23.9112   28.3467 C   0  0  0  0  0  0  0  0  0  0  0  0
   38.6225   25.0834   29.0804 C   0  0  0  0  0  0  0  0  0  0  0  0
   37.6418   26.0134   28.7262 C   0  0  0  0  0  0  0  0  0  0  0  0
   36.7923   25.7732   27.6456 C   0  0  0  0  0  0  0  0  0  0  0  0
   36.1169   24.2137   25.7557 C   0  0  1  0  0  0  0  0  0  0  0  0
   36.9232   24.5928   26.9521 C   0  0  0  0  0  0  0  0  0  0  0  0
   37.8896   23.6836   27.3014 C   0  0  0  0  0  0  0  0  0  0  0  0
   37.9728   22.5149   26.4464 C   0  0  1  0  0  0  0  0  0  0  0  0
   36.3917   20.5991   26.5909 C   0  0  0  0  0  0  0  0  0  0  0  0
   36.6450   21.9314   26.3691 C   0  0  0  0  0  0  0  0  0  0  0  0
   35.6512   22.8029   26.0125 C   0  0  0  0  0  0  0  0  0  0  0  0
   34.3501   22.3451   25.8652 C   0  0  0  0  0  0  0  0  0  0  0  0
   34.0733   20.9979   26.1073 C   0  0  0  0  0  0  0  0  0  0  0  0
   35.0939   20.1297   26.4720 C   0  0  0  0  0  0  0  0  0  0  0  0
   40.9467   26.1370   23.4442 C   0  0  0  0  0  0  0  0  0  0  0  0
   40.1660   26.2310   24.7498 C   0  0  0  0  0  0  0  0  0  0  0  0
   37.5058   26.3664   24.1319 O   0  0  0  0  0  0  0  0  0  0  0  0
   40.5567   23.5078   25.3983 O   0  0  0  0  0  0  0  0  0  0  0  0
   39.4655   23.9379   25.0631 C   0  0  0  0  0  0  0  0  0  0  0  0
   39.1998   25.1441   24.7424 N   0  0  0  0  0  0  0  0  0  0  0  0
   37.9819   25.3125   24.4658 C   0  0  0  0  0  0  0  0  0  0  0  0
   37.1663   24.0787   24.6410 C   0  0  1  0  0  0  0  0  0  0  0  0
   38.2495   23.0816   25.0606 C   0  0  2  0  0  0  0  0  0  0  0  0
  1  2  1  0  0  0  0
  2  3  1  0  0  0  0
  3 20  1  0  0  0  0
  4  5  1  0  0  0  0
  6  7  2  0  0  0  0
  6 12  1  0  0  0  0
  7  8  1  0  0  0  0
  8  9  2  0  0  0  0
  9 11  1  0  0  0  0
 10  5  1  6  0  0  0
 10 11  1  0  0  0  0
 10 16  1  0  0  0  0
 10 27  1  0  0  0  0
 11 12  2  0  0  0  0
 13 12  1  1  0  0  0
 13 15  1  0  0  0  0
 13 28  1  0  0  0  0
 14 15  2  0  0  0  0
 14 19  1  0  0  0  0
 15 16  1  0  0  0  0
 16 17  2  0  0  0  0
 17 18  1  0  0  0  0
 18 19  2  0  0  0  0
 20 21  1  0  0  0  0
 21 25  1  0  0  0  0
 22 26  2  0  0  0  0
 23 24  2  0  0  0  0
 24 25  1  0  0  0  0
 25 26  1  0  0  0  0
 27 26  1  1  0  0  0
 27 28  1  0  0  0  0
 28 24  1  1  0  0  0
M  END
>  <CHROM.1>
-176.27471342,166.77468075,174.20995518,-175.32590070,81.68897439,38.05655007
24.41119941,25.48075248,0.59510174,-0.36474932,-1.11006274

>  <Name>
ligand

>  <RI>
0

>  <Rbt.Current_Directory>
/home/itssahil/PROJECTS/Mol_Feturizer/New_Systems/rnas/1YLS

>  <Rbt.Executable>
rbdock ($Id: //depot/dev/client3/rdock/2013.1/src/exe/rbdock.cxx#4 $)

>  <Rbt.Library>
libRbt.so (2013.1, Build901 2013/11/27)

>  <Rbt.Parameter_File>
/export/apps/rDock/src/rDock_2013.1_src/data/scripts/dock_solv.prm

>  <Rbt.Receptor>
prm/pocket_docking_2.prm

>  <SCORE>
-38.0044

>  <SCORE.INTER>
-33.6701

>  <SCORE.INTER.CONST>
1

>  <SCORE.INTER.POLAR>
0

>  <SCORE.INTER.ROT>
5

>  <SCORE.INTER.SOLV>
7.15267

>  <SCORE.INTER.VDW>
-31.7643

>  <SCORE.INTER.norm>
-1.2025

>  <SCORE.INTRA>
-4.33427

>  <SCORE.INTRA.DIHEDRAL>
-8.96911

>  <SCORE.INTRA.DIHEDRAL.0>
12.0148

>  <SCORE.INTRA.POLAR>
0

>  <SCORE.INTRA.POLAR.0>
0

>  <SCORE.INTRA.REPUL>
0

>  <SCORE.INTRA.REPUL.0>
0

>  <SCORE.INTRA.SOLV>
0.227472

>  <SCORE.INTRA.SOLV.lig_0>
-10.5235

>  <SCORE.INTRA.VDW>
0.036544

>  <SCORE.INTRA.VDW.0>
-1.38455

>  <SCORE.INTRA.norm>
-0.154795

>  <SCORE.RESTR>
0

>  <SCORE.RESTR.CAVITY>
0

>  <SCORE.RESTR.norm>
0

>  <SCORE.SYSTEM>
0

>  <SCORE.SYSTEM.CONST>
0

>  <SCORE.SYSTEM.DIHEDRAL>
0

>  <SCORE.SYSTEM.SOLV>
0

>  <SCORE.SYSTEM.norm>
0

>  <SCORE.heavy>
28

>  <SCORE.norm>
-1.3573

>  <RMSD>
0.895

$$$$
ligand
 OpenBabel11021811413D
libRbt.so/2013.1/901 2013/11/27
 28 32  0  0  0  0  0  0  0  0999 V2000
   44.1080   27.9501   22.1579 C   0  0  0  0  0  0  0  0  0  0  0  0
   42.9777   26.9405   22.1894 C   0  0  0  0  0  0  0  0  0  0  0  0
   42.0968   27.1220   23.4166 C   0  0  0  0  0  0  0  0  0  0  0  0
   34.4682   24.9126   24.1035 O   0  0  0  0  0  0  0  0  0  0  0  0
   35.0147   25.1783   25.3965 C   0  0  0  0  0  0  0  0  0  0  0  0
   38.7333   23.8795   28.3626 C   0  0  0  0  0  0  0  0  0  0  0  0
   38.6046   25.0588   29.0851 C   0  0  0  0  0  0  0  0  0  0  0  0
   37.6397   25.9966   28.7088 C   0  0  0  0  0  0  0  0  0  0  0  0
   36.8039   25.7571   27.6174 C   0  0  0  0  0  0  0  0  0  0  0  0
   36.1398   24.1900   25.7298 C   0  0  1  0  0  0  0  0  0  0  0  0
   36.9322   24.5698   26.9353 C   0  0  0  0  0  0  0  0  0  0  0  0
   37.8831   23.6530   27.3062 C   0  0  0  0  0  0  0  0  0  0  0  0
   37.9663   22.4766   26.4617 C   0  0  1  0  0  0  0  0  0  0  0  0
   36.3621   20.5794   26.5973 C   0  0  0  0  0  0  0  0  0  0  0  0
   36.6335   21.9071   26.3689 C   0  0  0  0  0  0  0  0  0  0  0  0
   35.6547   22.7864   25.9905 C   0  0  0  0  0  0  0  0  0  0  0  0
   34.3510   22.3418   25.8272 C   0  0  0  0  0  0  0  0  0  0  0  0
   34.0558   20.9996   26.0757 C   0  0  0  0  0  0  0  0  0  0  0  0
   35.0612   20.1232   26.4625 C   0  0  0  0  0  0  0  0  0  0  0  0
   41.0626   26.0072   23.5043 C   0  0  0  0  0  0  0  0  0  0  0  0
   40.2256   26.1549   24.7694 C   0  0  0  0  0  0  0  0  0  0  0  0
   37.5765   26.3144   24.1103 O   0  0  0  0  0  0  0  0  0  0  0  0
   40.5764   23.4328   25.4450 O   0  0  0  0  0  0  0  0  0  0  0  0
   39.4952   23.8721   25.0899 C   0  0  0  0  0  0  0  0  0  0  0  0
   39.2476   25.0786   24.7559 N   0  0  0  0  0  0  0  0  0  0  0  0
   38.0360   25.2580   24.4597 C   0  0  0  0  0  0  0  0  0  0  0  0
   37.2043   24.0347   24.6322 C   0  0  1  0  0  0  0  0  0  0  0  0
   38.2699   23.0292   25.0759 C   0  0  2  0  0  0  0  0  0  0  0  0
  1  2  1  0  0  0  0
  2  3  1  0  0  0  0
  3 20  1  0  0  0  0
  4  5  1  0  0  0  0
  6  7  2  0  0  0  0
  6 12  1  0  0  0  0
  7  8  1  0  0  0  0
  8  9  2  0  0  0  0
  9 11  1  0  0  0  0
 10  5  1  6  0  0  0
 10 11  1  0  0  0  0
 10 16  1  0  0  0  0
 10 27  1  0  0  0  0
 11 12  2  0  0  0  0
 13 12  1  1  0  0  0
 13 15  1  0  0  0  0
 13 28  1  0  0  0  0
 14 15  2  0  0  0  0
 14 19  1  0  0  0  0
 15 16  1  0  0  0  0
 16 17  2  0  0  0  0
 17 18  1  0  0  0  0
 18 19  2  0  0  0  0
 20 21  1  0  0  0  0
 21 25  1  0  0  0  0
 22 26  2  0  0  0  0
 23 24  2  0  0  0  0
 24 25  1  0  0  0  0
 25 26  1  0  0  0  0
 27 26  1  1  0  0  0
 27 28  1  0  0  0  0
 28 24  1  1  0  0  0
M  END
>  <CHROM.1>
-173.90979117,168.56428169,177.30919448,178.53487498,79.39084789,38.07639705
24.37269120,25.47766315,0.58226819,-0.37378260,-1.13089610

>  <Name>
ligand

>  <RI>
0

>  <Rbt.Current_Directory>
/home/itssahil/PROJECTS/Mol_Feturizer/New_Systems/rnas/1YLS

>  <Rbt.Executable>
rbdock ($Id: //depot/dev/client3/rdock/2013.1/src/exe/rbdock.cxx#4 $)

>  <Rbt.Library>
libRbt.so (2013.1, Build901 2013/11/27)

>  <Rbt.Parameter_File>
/export/apps/rDock/src/rDock_2013.1_src/data/scripts/dock_solv.prm

>  <Rbt.Receptor>
prm/pocket_docking_2.prm

>  <SCORE>
-37.9947

>  <SCORE.INTER>
-33.5513

>  <SCORE.INTER.CONST>
1

>  <SCORE.INTER.POLAR>
0

>  <SCORE.INTER.ROT>
5

>  <SCORE.INTER.SOLV>
7.10474

>  <SCORE.INTER.VDW>
-31.6691

>  <SCORE.INTER.norm>
-1.19826

>  <SCORE.INTRA>
-4.44344

>  <SCORE.INTRA.DIHEDRAL>
-9.17976

>  <SCORE.INTRA.DIHEDRAL.0>
12.0148

>  <SCORE.INTRA.POLAR>
0

>  <SCORE.INTRA.POLAR.0>
0

>  <SCORE.INTRA.REPUL>
0

>  <SCORE.INTRA.REPUL.0>
0

>  <SCORE.INTRA.SOLV>
0.212679

>  <SCORE.INTRA.SOLV.lig_0>
-10.5235

>  <SCORE.INTRA.VDW>
0.0401003

>  <SCORE.INTRA.VDW.0>
-1.38455

>  <SCORE.INTRA.norm>
-0.158694

>  <SCORE.RESTR>
0

>  <SCORE.RESTR.CAVITY>
0

>  <SCORE.RESTR.norm>
0

>  <SCORE.SYSTEM>
0

>  <SCORE.SYSTEM.CONST>
0

>  <SCORE.SYSTEM.DIHEDRAL>
0

>  <SCORE.SYSTEM.SOLV>
0

>  <SCORE.SYSTEM.norm>
0

>  <SCORE.heavy>
28

>  <SCORE.norm>
-1.35695

>  <RMSD>
0.896

$$$$
ligand
 OpenBabel11021811413D
libRbt.so/2013.1/901 2013/11/27
 28 32  0  0  0  0  0  0  0  0999 V2000
   44.1117   27.9323   22.1546 C   0  0  0  0  0  0  0  0  0  0  0  0
   43.0007   26.9020   22.1967 C   0  0  0  0  0  0  0  0  0  0  0  0
   42.0598   27.1383   23.3688 C   0  0  0  0  0  0  0  0  0  0  0  0
   34.4603   24.9418   24.0635 O   0  0  0  0  0  0  0  0  0  0  0  0
   34.9948   25.2087   25.3613 C   0  0  0  0  0  0  0  0  0  0  0  0
   38.6976   23.9209   28.3519 C   0  0  0  0  0  0  0  0  0  0  0  0
   38.5703   25.1064   29.0643 C   0  0  0  0  0  0  0  0  0  0  0  0
   37.6101   26.0445   28.6768 C   0  0  0  0  0  0  0  0  0  0  0  0
   36.7776   25.7991   27.5842 C   0  0  0  0  0  0  0  0  0  0  0  0
   36.1151   24.2192   25.7068 C   0  0  1  0  0  0  0  0  0  0  0  0
   36.9043   24.6059   26.9122 C   0  0  0  0  0  0  0  0  0  0  0  0
   37.8506   23.6889   27.2941 C   0  0  0  0  0  0  0  0  0  0  0  0
   37.9329   22.5054   26.4594 C   0  0  1  0  0  0  0  0  0  0  0  0
   36.3216   20.6149   26.6042 C   0  0  0  0  0  0  0  0  0  0  0  0
   36.5984   21.9398   26.3662 C   0  0  0  0  0  0  0  0  0  0  0  0
   35.6242   22.8194   25.9770 C   0  0  0  0  0  0  0  0  0  0  0  0
   34.3196   22.3780   25.8123 C   0  0  0  0  0  0  0  0  0  0  0  0
   34.0187   21.0389   26.0704 C   0  0  0  0  0  0  0  0  0  0  0  0
   35.0196   20.1622   26.4681 C   0  0  0  0  0  0  0  0  0  0  0  0
   41.0501   26.0036   23.4835 C   0  0  0  0  0  0  0  0  0  0  0  0
   40.2114   26.1621   24.7462 C   0  0  0  0  0  0  0  0  0  0  0  0
   37.5654   26.3255   24.0758 O   0  0  0  0  0  0  0  0  0  0  0  0
   40.5501   23.4444   25.4450 O   0  0  0  0  0  0  0  0  0  0  0  0
   39.4718   23.8845   25.0823 C   0  0  0  0  0  0  0  0  0  0  0  0
   39.2297   25.0891   24.7376 N   0  0  0  0  0  0  0  0  0  0  0  0
   38.0198   25.2703   24.4353 C   0  0  0  0  0  0  0  0  0  0  0  0
   37.1832   24.0513   24.6145 C   0  0  1  0  0  0  0  0  0  0  0  0
   38.2437   23.0457   25.0703 C   0  0  2  0  0  0  0  0  0  0  0  0
  1  2  1  0  0  0  0
  2  3  1  0  0  0  0
  3 20  1  0  0  0  0
  4  5  1  0  0  0  0
  6  7  2  0  0  0  0
  6 12  1  0  0  0  0
  7  8  1  0  0  0  0
  8  9  2  0  0  0  0
  9 11  1  0  0  0  0
 10  5  1  6  0  0  0
 10 11  1  0  0  0  0
 10 16  1  0  0  0  0
 10 27  1  0  0  0  0
 11 12  2  0  0  0  0
 13 12  1  1  0  0  0
 13 15  1  0  0  0  0
 13 28  1  0  0  0  0
 14 15  2  0  0  0  0
 14 19  1  0  0  0  0
 15 16  1  0  0  0  0
 16 17  2  0  0  0  0
 17 18  1  0  0  0  0
 18 19  2  0  0  0  0
 20 21  1  0  0  0  0
 21 25  1  0  0  0  0
 22 26  2  0  0  0  0
 23 24  2  0  0  0  0
 24 25  1  0  0  0  0
 25 26  1  0  0  0  0
 27 26  1  1  0  0  0
 27 28  1  0  0  0  0
 28 24  1  1  0  0  0
M  END
>  <CHROM.1>
-173.52610778,168.05157187,173.68568904,176.79911040,79.54674611,38.05339924
24.39434444,25.46117437,0.57885850,-0.36939755,-1.13443427

>  <Name>
ligand

>  <RI>
0

>  <Rbt.Current_Directory>
/home/itssahil/PROJECTS/Mol_Feturizer/New_Systems/rnas/1YLS

>  <Rbt.Executable>
rbdock ($Id: //depot/dev/client3/rdock/2013.1/src/exe/rbdock.cxx#4 $)

>  <Rbt.Library>
libRbt.so (2013.1, Build901 2013/11/27)

>  <Rbt.Parameter_File>
/export/apps/rDock/src/rDock_2013.1_src/data/scripts/dock_solv.prm

>  <Rbt.Receptor>
prm/pocket_docking_2.prm

>  <SCORE>
-37.9256

>  <SCORE.INTER>
-33.6109

>  <SCORE.INTER.CONST>
1

>  <SCORE.INTER.POLAR>
0

>  <SCORE.INTER.ROT>
5

>  <SCORE.INTER.SOLV>
7.14897

>  <SCORE.INTER.VDW>
-31.7236

>  <SCORE.INTER.norm>
-1.20039

>  <SCORE.INTRA>
-4.31471

>  <SCORE.INTRA.DIHEDRAL>
-8.95778

>  <SCORE.INTRA.DIHEDRAL.0>
12.0148

>  <SCORE.INTRA.POLAR>
0

>  <SCORE.INTRA.POLAR.0>
0

>  <SCORE.INTRA.REPUL>
0

>  <SCORE.INTRA.REPUL.0>
0

>  <SCORE.INTRA.SOLV>
0.213888

>  <SCORE.INTRA.SOLV.lig_0>
-10.5235

>  <SCORE.INTRA.VDW>
0.0572364

>  <SCORE.INTRA.VDW.0>
-1.38455

>  <SCORE.INTRA.norm>
-0.154097

>  <SCORE.RESTR>
0

>  <SCORE.RESTR.CAVITY>
0

>  <SCORE.RESTR.norm>
0

>  <SCORE.SYSTEM>
0

>  <SCORE.SYSTEM.CONST>
0

>  <SCORE.SYSTEM.DIHEDRAL>
0

>  <SCORE.SYSTEM.SOLV>
0

>  <SCORE.SYSTEM.norm>
0

>  <SCORE.heavy>
28

>  <SCORE.norm>
-1.35449

>  <RMSD>
0.898

$$$$
ligand
 OpenBabel11021811413D
libRbt.so/2013.1/901 2013/11/27
 28 32  0  0  0  0  0  0  0  0999 V2000
   44.0649   28.0303   22.2133 C   0  0  0  0  0  0  0  0  0  0  0  0
   42.9137   27.0446   22.1846 C   0  0  0  0  0  0  0  0  0  0  0  0
   41.9744   27.2436   23.3649 C   0  0  0  0  0  0  0  0  0  0  0  0
   34.2952   24.3170   24.1159 O   0  0  0  0  0  0  0  0  0  0  0  0
   34.9342   24.8524   25.2761 C   0  0  0  0  0  0  0  0  0  0  0  0
   38.7222   24.1032   28.3425 C   0  0  0  0  0  0  0  0  0  0  0  0
   38.4687   25.3044   28.9924 C   0  0  0  0  0  0  0  0  0  0  0  0
   37.4215   26.1186   28.5535 C   0  0  0  0  0  0  0  0  0  0  0  0
   36.6280   25.7341   27.4721 C   0  0  0  0  0  0  0  0  0  0  0  0
   36.1463   24.0012   25.6763 C   0  0  1  0  0  0  0  0  0  0  0  0
   36.8814   24.5274   26.8630 C   0  0  0  0  0  0  0  0  0  0  0  0
   37.9126   23.7324   27.2951 C   0  0  0  0  0  0  0  0  0  0  0  0
   38.1222   22.5225   26.5229 C   0  0  1  0  0  0  0  0  0  0  0  0
   36.7103   20.4873   26.7593 C   0  0  0  0  0  0  0  0  0  0  0  0
   36.8530   21.8196   26.4542 C   0  0  0  0  0  0  0  0  0  0  0  0
   35.7979   22.5743   26.0166 C   0  0  0  0  0  0  0  0  0  0  0  0
   34.5464   21.9942   25.8703 C   0  0  0  0  0  0  0  0  0  0  0  0
   34.3810   20.6464   26.1961 C   0  0  0  0  0  0  0  0  0  0  0  0
   35.4624   19.8978   26.6421 C   0  0  0  0  0  0  0  0  0  0  0  0
   40.9187   26.1463   23.4014 C   0  0  0  0  0  0  0  0  0  0  0  0
   40.0320   26.3004   24.6314 C   0  0  0  0  0  0  0  0  0  0  0  0
   37.3892   26.1586   23.9440 O   0  0  0  0  0  0  0  0  0  0  0  0
   40.6392   23.6706   25.4708 O   0  0  0  0  0  0  0  0  0  0  0  0
   39.5250   23.9794   25.0820 C   0  0  0  0  0  0  0  0  0  0  0  0
   39.1647   25.1338   24.6747 N   0  0  0  0  0  0  0  0  0  0  0  0
   37.9454   25.1750   24.3592 C   0  0  0  0  0  0  0  0  0  0  0  0
   37.2355   23.8877   24.5980 C   0  0  1  0  0  0  0  0  0  0  0  0
   38.3887   23.0201   25.1089 C   0  0  2  0  0  0  0  0  0  0  0  0
  1  2  1  0  0  0  0
  2  3  1  0  0  0  0
  3 20  1  0  0  0  0
  4  5  1  0  0  0  0
  6  7  2  0  0  0  0
  6 12  1  0  0  0  0
  7  8  1  0  0  0  0
  8  9  2  0  0  0  0
  9 11  1  0  0  0  0
 10  5  1  6  0  0  0
 10 11  1  0  0  0  0
 10 16  1  0  0  0  0
 10 27  1  0  0  0  0
 11 12  2  0  0  0  0
 13 12  1  1  0  0  0
 13 15  1  0  0  0  0
 13 28  1  0  0  0  0
 14 15  2  0  0  0  0
 14 19  1  0  0  0  0
 15 16  1  0  0  0  0
 16 17  2  0  0  0  0
 17 18  1  0  0  0  0
 18 19  2  0  0  0  0
 20 21  1  0  0  0  0
 21 25  1  0  0  0  0
 22 26  2  0  0  0  0
 23 24  2  0  0  0  0
 24 25  1  0  0  0  0
 25 26  1  0  0  0  0
 27 26  1  1  0  0  0
 27 28  1  0  0  0  0
 28 24  1  1  0  0  0
M  END
>  <CHROM.1>
-173.60071237,178.49783197,176.58269580,-173.34741852,78.10957390,38.07950803
24.33005856,25.45600552,0.58673366,-0.44016325,-1.16932342

>  <Name>
ligand

>  <RI>
0

>  <Rbt.Current_Directory>
/home/itssahil/PROJECTS/Mol_Feturizer/New_Systems/rnas/1YLS

>  <Rbt.Executable>
rbdock ($Id: //depot/dev/client3/rdock/2013.1/src/exe/rbdock.cxx#4 $)

>  <Rbt.Library>
libRbt.so (2013.1, Build901 2013/11/27)

>  <Rbt.Parameter_File>
/export/apps/rDock/src/rDock_2013.1_src/data/scripts/dock_solv.prm

>  <Rbt.Receptor>
prm/pocket_docking_3.prm

>  <SCORE>
-38.4427

>  <SCORE.INTER>
-33.9304

>  <SCORE.INTER.CONST>
1

>  <SCORE.INTER.POLAR>
0

>  <SCORE.INTER.ROT>
5

>  <SCORE.INTER.SOLV>
7.54175

>  <SCORE.INTER.VDW>
-32.0675

>  <SCORE.INTER.norm>
-1.2118

>  <SCORE.INTRA>
-4.51225

>  <SCORE.INTRA.DIHEDRAL>
-9.37094

>  <SCORE.INTRA.DIHEDRAL.0>
12.0148

>  <SCORE.INTRA.POLAR>
0

>  <SCORE.INTRA.POLAR.0>
0

>  <SCORE.INTRA.REPUL>
0

>  <SCORE.INTRA.REPUL.0>
0

>  <SCORE.INTRA.SOLV>
0.163426

>  <SCORE.INTRA.SOLV.lig_0>
-10.5235

>  <SCORE.INTRA.VDW>
0.0915033

>  <SCORE.INTRA.VDW.0>
-1.38455

>  <SCORE.INTRA.norm>
-0.161152

>  <SCORE.RESTR>
0

>  <SCORE.RESTR.CAVITY>
0

>  <SCORE.RESTR.norm>
0

>  <SCORE.SYSTEM>
0

>  <SCORE.SYSTEM.CONST>
0

>  <SCORE.SYSTEM.DIHEDRAL>
0

>  <SCORE.SYSTEM.SOLV>
0

>  <SCORE.SYSTEM.norm>
0

>  <SCORE.heavy>
28

>  <SCORE.norm>
-1.37295

>  <RMSD>
0.898

$$$$
ligand
 OpenBabel11021811413D
libRbt.so/2013.1/901 2013/11/27
 28 32  0  0  0  0  0  0  0  0999 V2000
   43.9340   28.1072   22.2107 C   0  0  0  0  0  0  0  0  0  0  0  0
   42.8763   27.0213   22.2193 C   0  0  0  0  0  0  0  0  0  0  0  0
   41.8495   27.2463   23.3192 C   0  0  0  0  0  0  0  0  0  0  0  0
   33.8870   24.6047   26.1746 O   0  0  0  0  0  0  0  0  0  0  0  0
   34.8680   24.5349   25.1384 C   0  0  0  0  0  0  0  0  0  0  0  0
   38.6122   24.2451   28.3337 C   0  0  0  0  0  0  0  0  0  0  0  0
   38.2603   25.4644   28.8982 C   0  0  0  0  0  0  0  0  0  0  0  0
   37.1729   26.1749   28.3833 C   0  0  0  0  0  0  0  0  0  0  0  0
   36.4373   25.6688   27.3110 C   0  0  0  0  0  0  0  0  0  0  0  0
   36.1234   23.7967   25.6209 C   0  0  1  0  0  0  0  0  0  0  0  0
   36.7883   24.4465   26.7875 C   0  0  0  0  0  0  0  0  0  0  0  0
   37.8587   23.7536   27.2941 C   0  0  0  0  0  0  0  0  0  0  0  0
   38.1707   22.5148   26.6072 C   0  0  1  0  0  0  0  0  0  0  0  0
   36.8937   20.4057   26.9424 C   0  0  0  0  0  0  0  0  0  0  0  0
   36.9544   21.7228   26.5549 C   0  0  0  0  0  0  0  0  0  0  0  0
   35.8631   22.3734   26.0450 C   0  0  0  0  0  0  0  0  0  0  0  0
   34.6582   21.7000   25.9076 C   0  0  0  0  0  0  0  0  0  0  0  0
   34.5754   20.3672   26.3164 C   0  0  0  0  0  0  0  0  0  0  0  0
   35.6922   19.7250   26.8349 C   0  0  0  0  0  0  0  0  0  0  0  0
   40.8816   26.0729   23.3978 C   0  0  0  0  0  0  0  0  0  0  0  0
   39.8721   26.2888   24.5191 C   0  0  0  0  0  0  0  0  0  0  0  0
   37.2648   25.9212   23.7814 O   0  0  0  0  0  0  0  0  0  0  0  0
   40.6324   23.7657   25.5412 O   0  0  0  0  0  0  0  0  0  0  0  0
   39.5109   23.9714   25.1075 C   0  0  0  0  0  0  0  0  0  0  0  0
   39.0847   25.0701   24.6180 N   0  0  0  0  0  0  0  0  0  0  0  0
   37.8746   25.0067   24.2723 C   0  0  0  0  0  0  0  0  0  0  0  0
   37.2471   23.6910   24.5777 C   0  0  1  0  0  0  0  0  0  0  0  0
   38.4418   22.9394   25.1704 C   0  0  2  0  0  0  0  0  0  0  0  0
  1  2  1  0  0  0  0
  2  3  1  0  0  0  0
  3 20  1  0  0  0  0
  4  5  1  0  0  0  0
  6  7  2  0  0  0  0
  6 12  1  0  0  0  0
  7  8  1  0  0  0  0
  8  9  2  0  0  0  0
  9 11  1  0  0  0  0
 10  5  1  6  0  0  0
 10 11  1  0  0  0  0
 10 16  1  0  0  0  0
 10 27  1  0  0  0  0
 11 12  2  0  0  0  0
 13 12  1  1  0  0  0
 13 15  1  0  0  0  0
 13 28  1  0  0  0  0
 14 15  2  0  0  0  0
 14 19  1  0  0  0  0
 15 16  1  0  0  0  0
 16 17  2  0  0  0  0
 17 18  1  0  0  0  0
 18 19  2  0  0  0  0
 20 21  1  0  0  0  0
 21 25  1  0  0  0  0
 22 26  2  0  0  0  0
 23 24  2  0  0  0  0
 24 25  1  0  0  0  0
 25 26  1  0  0  0  0
 27 26  1  1  0  0  0
 27 28  1  0  0  0  0
 28 24  1  1  0  0  0
M  END
>  <CHROM.1>
-174.30143143,-60.15388335,178.85490996,-174.03837483,73.40153621,38.03110001
24.26905071,25.53506947,-0.58441583,-0.47917665,3.11824984

>  <Name>
ligand

>  <RI>
0

>  <Rbt.Current_Directory>
/home/itssahil/PROJECTS/Mol_Feturizer/New_Systems/rnas/1YLS

>  <Rbt.Executable>
rbdock ($Id: //depot/dev/client3/rdock/2013.1/src/exe/rbdock.cxx#4 $)

>  <Rbt.Library>
libRbt.so (2013.1, Build901 2013/11/27)

>  <Rbt.Parameter_File>
/export/apps/rDock/src/rDock_2013.1_src/data/scripts/dock_solv.prm

>  <Rbt.Receptor>
prm/pocket_docking_4.prm

>  <SCORE>
-38.4974

>  <SCORE.INTER>
-33.8201

>  <SCORE.INTER.CONST>
1

>  <SCORE.INTER.POLAR>
0

>  <SCORE.INTER.ROT>
5

>  <SCORE.INTER.SOLV>
7.65223

>  <SCORE.INTER.VDW>
-32.0308

>  <SCORE.INTER.norm>
-1.20786

>  <SCORE.INTRA>
-4.67732

>  <SCORE.INTRA.DIHEDRAL>
-9.44953

>  <SCORE.INTRA.DIHEDRAL.0>
12.0148

>  <SCORE.INTRA.POLAR>
0

>  <SCORE.INTRA.POLAR.0>
0

>  <SCORE.INTRA.REPUL>
0

>  <SCORE.INTRA.REPUL.0>
0

>  <SCORE.INTRA.SOLV>
-0.0309226

>  <SCORE.INTRA.SOLV.lig_0>
-10.5235

>  <SCORE.INTRA.VDW>
0.0629059

>  <SCORE.INTRA.VDW.0>
-1.38455

>  <SCORE.INTRA.norm>
-0.167047

>  <SCORE.RESTR>
0

>  <SCORE.RESTR.CAVITY>
0

>  <SCORE.RESTR.norm>
0

>  <SCORE.SYSTEM>
0

>  <SCORE.SYSTEM.CONST>
0

>  <SCORE.SYSTEM.DIHEDRAL>
0

>  <SCORE.SYSTEM.SOLV>
0

>  <SCORE.SYSTEM.norm>
0

>  <SCORE.heavy>
28

>  <SCORE.norm>
-1.37491

>  <RMSD>
0.900

$$$$
ligand
 OpenBabel11021811413D
libRbt.so/2013.1/901 2013/11/27
 28 32  0  0  0  0  0  0  0  0999 V2000
   43.9165   28.1799   22.2585 C   0  0  0  0  0  0  0  0  0  0  0  0
   42.8488   27.1041   22.2347 C   0  0  0  0  0  0  0  0  0  0  0  0
   41.7991   27.3307   23.3124 C   0  0  0  0  0  0  0  0  0  0  0  0
   33.8879   24.5780   26.2026 O   0  0  0  0  0  0  0  0  0  0  0  0
   34.8616   24.5240   25.1586 C   0  0  0  0  0  0  0  0  0  0  0  0
   38.6301   24.2614   28.3275 C   0  0  0  0  0  0  0  0  0  0  0  0
   38.2669   25.4729   28.9017 C   0  0  0  0  0  0  0  0  0  0  0  0
   37.1675   26.1729   28.3984 C   0  0  0  0  0  0  0  0  0  0  0  0
   36.4310   25.6642   27.3279 C   0  0  0  0  0  0  0  0  0  0  0  0
   36.1292   23.7986   25.6283 C   0  0  1  0  0  0  0  0  0  0  0  0
   36.7937   24.4495   26.7946 C   0  0  0  0  0  0  0  0  0  0  0  0
   37.8759   23.7669   27.2899 C   0  0  0  0  0  0  0  0  0  0  0  0
   38.1987   22.5363   26.5933 C   0  0  1  0  0  0  0  0  0  0  0  0
   36.9502   20.4095   26.9240 C   0  0  0  0  0  0  0  0  0  0  0  0
   36.9920   21.7296   26.5442 C   0  0  0  0  0  0  0  0  0  0  0  0
   35.8893   22.3697   26.0454 C   0  0  0  0  0  0  0  0  0  0  0  0
   34.6920   21.6822   25.9118 C   0  0  0  0  0  0  0  0  0  0  0  0
   34.6284   20.3460   26.3129 C   0  0  0  0  0  0  0  0  0  0  0  0
   35.7565   19.7146   26.8202 C   0  0  0  0  0  0  0  0  0  0  0  0
   40.8416   26.1484   23.3859 C   0  0  0  0  0  0  0  0  0  0  0  0
   39.8393   26.3437   24.5173 C   0  0  0  0  0  0  0  0  0  0  0  0
   37.2320   25.9482   23.7944 O   0  0  0  0  0  0  0  0  0  0  0  0
   40.6376   23.8241   25.5189 O   0  0  0  0  0  0  0  0  0  0  0  0
   39.5108   24.0185   25.0939 C   0  0  0  0  0  0  0  0  0  0  0  0
   39.0678   25.1147   24.6139 N   0  0  0  0  0  0  0  0  0  0  0  0
   37.8563   25.0384   24.2757 C   0  0  0  0  0  0  0  0  0  0  0  0
   37.2472   23.7132   24.5772 C   0  0  1  0  0  0  0  0  0  0  0  0
   38.4550   22.9729   25.1574 C   0  0  2  0  0  0  0  0  0  0  0  0
  1  2  1  0  0  0  0
  2  3  1  0  0  0  0
  3 20  1  0  0  0  0
  4  5  1  0  0  0  0
  6  7  2  0  0  0  0
  6 12  1  0  0  0  0
  7  8  1  0  0  0  0
  8  9  2  0  0  0  0
  9 11  1  0  0  0  0
 10  5  1  6  0  0  0
 10 11  1  0  0  0  0
 10 16  1  0  0  0  0
 10 27  1  0  0  0  0
 11 12  2  0  0  0  0
 13 12  1  1  0  0  0
 13 15  1  0  0  0  0
 13 28  1  0  0  0  0
 14 15  2  0  0  0  0
 14 19  1  0  0  0  0
 15 16  1  0  0  0  0
 16 17  2  0  0  0  0
 17 18  1  0  0  0  0
 18 19  2  0  0  0  0
 20 21  1  0  0  0  0
 21 25  1  0  0  0  0
 22 26  2  0  0  0  0
 23 24  2  0  0  0  0
 24 25  1  0  0  0  0
 25 26  1  0  0  0  0
 27 26  1  1  0  0  0
 27 28  1  0  0  0  0
 28 24  1  1  0  0  0
M  END
>  <CHROM.1>
-172.74369294,-60.02472847,176.86736957,-173.73497295,73.54005355,38.03368033
24.29240728,25.53687111,-0.59717695,-0.47881402,3.11506416

>  <Name>
ligand

>  <RI>
0

>  <Rbt.Current_Directory>
/home/itssahil/PROJECTS/Mol_Feturizer/New_Systems/rnas/1YLS

>  <Rbt.Executable>
rbdock ($Id: //depot/dev/client3/rdock/2013.1/src/exe/rbdock.cxx#4 $)

>  <Rbt.Library>
libRbt.so (2013.1, Build901 2013/11/27)

>  <Rbt.Parameter_File>
/export/apps/rDock/src/rDock_2013.1_src/data/scripts/dock_solv.prm

>  <Rbt.Receptor>
prm/pocket_docking_7.prm

>  <SCORE>
-38.4838

>  <SCORE.INTER>
-33.869

>  <SCORE.INTER.CONST>
1

>  <SCORE.INTER.POLAR>
0

>  <SCORE.INTER.ROT>
5

>  <SCORE.INTER.SOLV>
7.72971

>  <SCORE.INTER.VDW>
-32.0892

>  <SCORE.INTER.norm>
-1.20961

>  <SCORE.INTRA>
-4.61479

>  <SCORE.INTRA.DIHEDRAL>
-9.31779

>  <SCORE.INTRA.DIHEDRAL.0>
12.0148

>  <SCORE.INTRA.POLAR>
0

>  <SCORE.INTRA.POLAR.0>
0

>  <SCORE.INTRA.REPUL>
0

>  <SCORE.INTRA.REPUL.0>
0

>  <SCORE.INTRA.SOLV>
-0.0305885

>  <SCORE.INTRA.SOLV.lig_0>
-10.5235

>  <SCORE.INTRA.VDW>
0.0593982

>  <SCORE.INTRA.VDW.0>
-1.38455

>  <SCORE.INTRA.norm>
-0.164814

>  <SCORE.RESTR>
0

>  <SCORE.RESTR.CAVITY>
0

>  <SCORE.RESTR.norm>
0

>  <SCORE.SYSTEM>
0

>  <SCORE.SYSTEM.CONST>
0

>  <SCORE.SYSTEM.DIHEDRAL>
0

>  <SCORE.SYSTEM.SOLV>
0

>  <SCORE.SYSTEM.norm>
0

>  <SCORE.heavy>
28

>  <SCORE.norm>
-1.37442

>  <RMSD>
0.909

$$$$
ligand
 OpenBabel11021811413D
libRbt.so/2013.1/901 2013/11/27
 28 32  0  0  0  0  0  0  0  0999 V2000
   43.8838   28.2287   22.2443 C   0  0  0  0  0  0  0  0  0  0  0  0
   42.8450   27.1246   22.2451 C   0  0  0  0  0  0  0  0  0  0  0  0
   41.7816   27.3550   23.3085 C   0  0  0  0  0  0  0  0  0  0  0  0
   33.8840   24.5300   26.1847 O   0  0  0  0  0  0  0  0  0  0  0  0
   34.8724   24.4969   25.1536 C   0  0  0  0  0  0  0  0  0  0  0  0
   38.6254   24.2833   28.3446 C   0  0  0  0  0  0  0  0  0  0  0  0
   38.2499   25.4956   28.9090 C   0  0  0  0  0  0  0  0  0  0  0  0
   37.1479   26.1840   28.3951 C   0  0  0  0  0  0  0  0  0  0  0  0
   36.4213   25.6629   27.3239 C   0  0  0  0  0  0  0  0  0  0  0  0
   36.1429   23.7842   25.6349 C   0  0  1  0  0  0  0  0  0  0  0  0
   36.7960   24.4476   26.8005 C   0  0  0  0  0  0  0  0  0  0  0  0
   37.8806   23.7765   27.3061 C   0  0  0  0  0  0  0  0  0  0  0  0
   38.2166   22.5438   26.6192 C   0  0  1  0  0  0  0  0  0  0  0  0
   36.9824   20.4098   26.9568 C   0  0  0  0  0  0  0  0  0  0  0  0
   37.0163   21.7277   26.5687 C   0  0  0  0  0  0  0  0  0  0  0  0
   35.9115   22.3562   26.0599 C   0  0  0  0  0  0  0  0  0  0  0  0
   34.7202   21.6587   25.9242 C   0  0  0  0  0  0  0  0  0  0  0  0
   34.6646   20.3247   26.3336 C   0  0  0  0  0  0  0  0  0  0  0  0
   35.7946   19.7051   26.8510 C   0  0  0  0  0  0  0  0  0  0  0  0
   40.8412   26.1598   23.3947 C   0  0  0  0  0  0  0  0  0  0  0  0
   39.8396   26.3502   24.5276 C   0  0  0  0  0  0  0  0  0  0  0  0
   37.2393   25.9303   23.7932 O   0  0  0  0  0  0  0  0  0  0  0  0
   40.6515   23.8433   25.5498 O   0  0  0  0  0  0  0  0  0  0  0  0
   39.5256   24.0263   25.1174 C   0  0  0  0  0  0  0  0  0  0  0  0
   39.0770   25.1161   24.6279 N   0  0  0  0  0  0  0  0  0  0  0  0
   37.8679   25.0284   24.2837 C   0  0  0  0  0  0  0  0  0  0  0  0
   37.2672   23.7005   24.5904 C   0  0  1  0  0  0  0  0  0  0  0  0
   38.4773   22.9732   25.1820 C   0  0  2  0  0  0  0  0  0  0  0  0
  1  2  1  0  0  0  0
  2  3  1  0  0  0  0
  3 20  1  0  0  0  0
  4  5  1  0  0  0  0
  6  7  2  0  0  0  0
  6 12  1  0  0  0  0
  7  8  1  0  0  0  0
  8  9  2  0  0  0  0
  9 11  1  0  0  0  0
 10  5  1  6  0  0  0
 10 11  1  0  0  0  0
 10 16  1  0  0  0  0
 10 27  1  0  0  0  0
 11 12  2  0  0  0  0
 13 12  1  1  0  0  0
 13 15  1  0  0  0  0
 13 28  1  0  0  0  0
 14 15  2  0  0  0  0
 14 19  1  0  0  0  0
 15 16  1  0  0  0  0
 16 17  2  0  0  0  0
 17 18  1  0  0  0  0
 18 19  2  0  0  0  0
 20 21  1  0  0  0  0
 21 25  1  0  0  0  0
 22 26  2  0  0  0  0
 23 24  2  0  0  0  0
 24 25  1  0  0  0  0
 25 26  1  0  0  0  0
 27 26  1  1  0  0  0
 27 28  1  0  0  0  0
 28 24  1  1  0  0  0
M  END
>  <CHROM.1>
-173.67012597,-61.01512713,175.93975343,-174.29292803,74.03043647,38.04097906
24.29283535,25.54736575,-0.60747910,-0.47598525,3.10445826

>  <Name>
ligand

>  <RI>
0

>  <Rbt.Current_Directory>
/home/itssahil/PROJECTS/Mol_Feturizer/New_Systems/rnas/1YLS

>  <Rbt.Executable>
rbdock ($Id: //depot/dev/client3/rdock/2013.1/src/exe/rbdock.cxx#4 $)

>  <Rbt.Library>
libRbt.so (2013.1, Build901 2013/11/27)

>  <Rbt.Parameter_File>
/export/apps/rDock/src/rDock_2013.1_src/data/scripts/dock_solv.prm

>  <Rbt.Receptor>
prm/pocket_docking_4.prm

>  <SCORE>
-38.5096

>  <SCORE.INTER>
-33.8565

>  <SCORE.INTER.CONST>
1

>  <SCORE.INTER.POLAR>
0

>  <SCORE.INTER.ROT>
5

>  <SCORE.INTER.SOLV>
7.6957

>  <SCORE.INTER.VDW>
-32.0696

>  <SCORE.INTER.norm>
-1.20916

>  <SCORE.INTRA>
-4.65303

>  <SCORE.INTRA.DIHEDRAL>
-9.37103

>  <SCORE.INTRA.DIHEDRAL.0>
12.0148

>  <SCORE.INTRA.POLAR>
0

>  <SCORE.INTRA.POLAR.0>
0

>  <SCORE.INTRA.REPUL>
0

>  <SCORE.INTRA.REPUL.0>
0

>  <SCORE.INTRA.SOLV>
-0.0330304

>  <SCORE.INTRA.SOLV.lig_0>
-10.5235

>  <SCORE.INTRA.VDW>
0.0490015

>  <SCORE.INTRA.VDW.0>
-1.38455

>  <SCORE.INTRA.norm>
-0.16618

>  <SCORE.RESTR>
0

>  <SCORE.RESTR.CAVITY>
0

>  <SCORE.RESTR.norm>
0

>  <SCORE.SYSTEM>
0

>  <SCORE.SYSTEM.CONST>
0

>  <SCORE.SYSTEM.DIHEDRAL>
0

>  <SCORE.SYSTEM.SOLV>
0

>  <SCORE.SYSTEM.norm>
0

>  <SCORE.heavy>
28

>  <SCORE.norm>
-1.37534

>  <RMSD>
0.914

$$$$
ligand
 OpenBabel11021811413D
libRbt.so/2013.1/901 2013/11/27
 28 32  0  0  0  0  0  0  0  0999 V2000
   44.1994   26.4252   21.9539 C   0  0  0  0  0  0  0  0  0  0  0  0
   42.6946   26.6077   21.9669 C   0  0  0  0  0  0  0  0  0  0  0  0
   42.1283   26.5018   23.3751 C   0  0  0  0  0  0  0  0  0  0  0  0
   34.3908   24.0737   24.5118 O   0  0  0  0  0  0  0  0  0  0  0  0
   35.0944   24.6368   25.6204 C   0  0  0  0  0  0  0  0  0  0  0  0
   39.0980   24.0056   28.4285 C   0  0  0  0  0  0  0  0  0  0  0  0
   38.8080   25.1577   29.1482 C   0  0  0  0  0  0  0  0  0  0  0  0
   37.6870   25.9194   28.8087 C   0  0  0  0  0  0  0  0  0  0  0  0
   36.8565   25.5312   27.7567 C   0  0  0  0  0  0  0  0  0  0  0  0
   36.3797   23.8509   25.9103 C   0  0  1  0  0  0  0  0  0  0  0  0
   37.1492   24.3719   27.0773 C   0  0  0  0  0  0  0  0  0  0  0  0
   38.2527   23.6285   27.4120 C   0  0  0  0  0  0  0  0  0  0  0  0
   38.4923   22.4702   26.5723 C   0  0  1  0  0  0  0  0  0  0  0  0
   37.2290   20.3377   26.7907 C   0  0  0  0  0  0  0  0  0  0  0  0
   37.2685   21.6887   26.5420 C   0  0  0  0  0  0  0  0  0  0  0  0
   36.1434   22.3905   26.2013 C   0  0  0  0  0  0  0  0  0  0  0  0
   34.9248   21.7360   26.0984 C   0  0  0  0  0  0  0  0  0  0  0  0
   34.8649   20.3671   26.3683 C   0  0  0  0  0  0  0  0  0  0  0  0
   36.0162   19.6727   26.7162 C   0  0  0  0  0  0  0  0  0  0  0  0
   40.6067   26.5658   23.3476 C   0  0  0  0  0  0  0  0  0  0  0  0
   40.0426   26.4457   24.7584 C   0  0  0  0  0  0  0  0  0  0  0  0
   37.3779   26.1598   24.2155 O   0  0  0  0  0  0  0  0  0  0  0  0
   40.8643   23.8274   25.4356 O   0  0  0  0  0  0  0  0  0  0  0  0
   39.7116   24.0787   25.1256 C   0  0  0  0  0  0  0  0  0  0  0  0
   39.2552   25.2236   24.7949 N   0  0  0  0  0  0  0  0  0  0  0  0
   38.0191   25.1979   24.5511 C   0  0  0  0  0  0  0  0  0  0  0  0
   37.4078   23.8572   24.7680 C   0  0  1  0  0  0  0  0  0  0  0  0
   38.6420   23.0461   25.1709 C   0  0  2  0  0  0  0  0  0  0  0  0
  1  2  1  0  0  0  0
  2  3  1  0  0  0  0
  3 20  1  0  0  0  0
  4  5  1  0  0  0  0
  6  7  2  0  0  0  0
  6 12  1  0  0  0  0
  7  8  1  0  0  0  0
  8  9  2  0  0  0  0
  9 11  1  0  0  0  0
 10  5  1  6  0  0  0
 10 11  1  0  0  0  0
 10 16  1  0  0  0  0
 10 27  1  0  0  0  0
 11 12  2  0  0  0  0
 13 12  1  1  0  0  0
 13 15  1  0  0  0  0
 13 28  1  0  0  0  0
 14 15  2  0  0  0  0
 14 19  1  0  0  0  0
 15 16  1  0  0  0  0
 16 17  2  0  0  0  0
 17 18  1  0  0  0  0
 18 19  2  0  0  0  0
 20 21  1  0  0  0  0
 21 25  1  0  0  0  0
 22 26  2  0  0  0  0
 23 24  2  0  0  0  0
 24 25  1  0  0  0  0
 25 26  1  0  0  0  0
 27 26  1  1  0  0  0
 27 28  1  0  0  0  0
 28 24  1  1  0  0  0
M  END
>  <CHROM.1>
-175.02269106,-178.81964479,179.44698187,-116.76289003,91.01004330,38.28648524
24.15929210,25.57298164,0.29506570,-0.67272700,-1.80925156

>  <Name>
ligand

>  <RI>
0

>  <Rbt.Current_Directory>
/home/itssahil/PROJECTS/Mol_Feturizer/New_Systems/rnas/1YLS

>  <Rbt.Executable>
rbdock ($Id: //depot/dev/client3/rdock/2013.1/src/exe/rbdock.cxx#4 $)

>  <Rbt.Library>
libRbt.so (2013.1, Build901 2013/11/27)

>  <Rbt.Parameter_File>
/export/apps/rDock/src/rDock_2013.1_src/data/scripts/dock_solv.prm

>  <Rbt.Receptor>
prm/pocket_docking_2.prm

>  <SCORE>
-35.2043

>  <SCORE.INTER>
-33.1074

>  <SCORE.INTER.CONST>
1

>  <SCORE.INTER.POLAR>
0

>  <SCORE.INTER.ROT>
5

>  <SCORE.INTER.SOLV>
6.69805

>  <SCORE.INTER.VDW>
-31.2376

>  <SCORE.INTER.norm>
-1.18241

>  <SCORE.INTRA>
-2.10562

>  <SCORE.INTRA.DIHEDRAL>
-4.20685

>  <SCORE.INTRA.DIHEDRAL.0>
12.0148

>  <SCORE.INTRA.POLAR>
0

>  <SCORE.INTRA.POLAR.0>
0

>  <SCORE.INTRA.REPUL>
0

>  <SCORE.INTRA.REPUL.0>
0

>  <SCORE.INTRA.SOLV>
0.273067

>  <SCORE.INTRA.SOLV.lig_0>
-10.5235

>  <SCORE.INTRA.VDW>
-0.138724

>  <SCORE.INTRA.VDW.0>
-1.38455

>  <SCORE.INTRA.norm>
-0.0752005

>  <SCORE.RESTR>
0.00877264

>  <SCORE.RESTR.CAVITY>
0.00877264

>  <SCORE.RESTR.norm>
0.000313309

>  <SCORE.SYSTEM>
0

>  <SCORE.SYSTEM.CONST>
0

>  <SCORE.SYSTEM.DIHEDRAL>
0

>  <SCORE.SYSTEM.SOLV>
0

>  <SCORE.SYSTEM.norm>
0

>  <SCORE.heavy>
28

>  <SCORE.norm>
-1.2573

>  <RMSD>
0.915

$$$$
ligand
 OpenBabel11021811413D
libRbt.so/2013.1/901 2013/11/27
 28 32  0  0  0  0  0  0  0  0999 V2000
   43.8968   27.6144   22.4935 C   0  0  0  0  0  0  0  0  0  0  0  0
   42.7145   26.7085   22.7751 C   0  0  0  0  0  0  0  0  0  0  0  0
   41.4103   27.4896   22.8352 C   0  0  0  0  0  0  0  0  0  0  0  0
   33.9894   25.2214   26.2659 O   0  0  0  0  0  0  0  0  0  0  0  0
   34.9159   25.0742   25.1884 C   0  0  0  0  0  0  0  0  0  0  0  0
   38.6686   24.0580   28.2211 C   0  0  0  0  0  0  0  0  0  0  0  0
   38.5090   25.2754   28.8704 C   0  0  0  0  0  0  0  0  0  0  0  0
   37.5194   26.1626   28.4394 C   0  0  0  0  0  0  0  0  0  0  0  0
   36.6899   25.8348   27.3663 C   0  0  0  0  0  0  0  0  0  0  0  0
   36.0669   24.1382   25.5793 C   0  0  1  0  0  0  0  0  0  0  0  0
   36.8494   24.6118   26.7578 C   0  0  0  0  0  0  0  0  0  0  0  0
   37.8244   23.7449   27.1822 C   0  0  0  0  0  0  0  0  0  0  0  0
   37.9385   22.5217   26.4110 C   0  0  1  0  0  0  0  0  0  0  0  0
   36.3853   20.5945   26.6654 C   0  0  0  0  0  0  0  0  0  0  0  0
   36.6212   21.9125   26.3558 C   0  0  0  0  0  0  0  0  0  0  0  0
   35.6194   22.7408   25.9263 C   0  0  0  0  0  0  0  0  0  0  0  0
   34.3278   22.2527   25.7930 C   0  0  0  0  0  0  0  0  0  0  0  0
   34.0684   20.9209   26.1237 C   0  0  0  0  0  0  0  0  0  0  0  0
   35.0969   20.0967   26.5613 C   0  0  0  0  0  0  0  0  0  0  0  0
   40.2290   26.5474   23.0275 C   0  0  0  0  0  0  0  0  0  0  0  0
   40.0988   26.1481   24.4926 C   0  0  0  0  0  0  0  0  0  0  0  0
   37.4462   26.1969   23.8302 O   0  0  0  0  0  0  0  0  0  0  0  0
   40.5220   23.4827   25.3326 O   0  0  0  0  0  0  0  0  0  0  0  0
   39.4294   23.8707   24.9535 C   0  0  0  0  0  0  0  0  0  0  0  0
   39.1498   25.0475   24.5468 N   0  0  0  0  0  0  0  0  0  0  0  0
   37.9337   25.1763   24.2426 C   0  0  0  0  0  0  0  0  0  0  0  0
   37.1348   23.9442   24.4912 C   0  0  1  0  0  0  0  0  0  0  0  0
   38.2269   22.9963   24.9934 C   0  0  2  0  0  0  0  0  0  0  0  0
  1  2  1  0  0  0  0
  2  3  1  0  0  0  0
  3 20  1  0  0  0  0
  4  5  1  0  0  0  0
  6  7  2  0  0  0  0
  6 12  1  0  0  0  0
  7  8  1  0  0  0  0
  8  9  2  0  0  0  0
  9 11  1  0  0  0  0
 10  5  1  6  0  0  0
 10 11  1  0  0  0  0
 10 16  1  0  0  0  0
 10 27  1  0  0  0  0
 11 12  2  0  0  0  0
 13 12  1  1  0  0  0
 13 15  1  0  0  0  0
 13 28  1  0  0  0  0
 14 15  2  0  0  0  0
 14 19  1  0  0  0  0
 15 16  1  0  0  0  0
 16 17  2  0  0  0  0
 17 18  1  0  0  0  0
 18 19  2  0  0  0  0
 20 21  1  0  0  0  0
 21 25  1  0  0  0  0
 22 26  2  0  0  0  0
 23 24  2  0  0  0  0
 24 25  1  0  0  0  0
 25 26  1  0  0  0  0
 27 26  1  1  0  0  0
 27 28  1  0  0  0  0
 28 24  1  1  0  0  0
M  END
>  <CHROM.1>
176.28042563,-59.70326376,80.37814902,-168.15859435,117.57378508,37.92766223
24.40081190,25.46259285,-0.59599603,-0.38744685,3.00338446

>  <Name>
ligand

>  <RI>
0

>  <Rbt.Current_Directory>
/home/itssahil/PROJECTS/Mol_Feturizer/New_Systems/rnas/1YLS

>  <Rbt.Executable>
rbdock ($Id: //depot/dev/client3/rdock/2013.1/src/exe/rbdock.cxx#4 $)

>  <Rbt.Library>
libRbt.so (2013.1, Build901 2013/11/27)

>  <Rbt.Parameter_File>
/export/apps/rDock/src/rDock_2013.1_src/data/scripts/dock_solv.prm

>  <Rbt.Receptor>
prm/pocket_docking_4.prm

>  <SCORE>
-37.3975

>  <SCORE.INTER>
-34.4855

>  <SCORE.INTER.CONST>
1

>  <SCORE.INTER.POLAR>
0

>  <SCORE.INTER.ROT>
5

>  <SCORE.INTER.SOLV>
8.00013

>  <SCORE.INTER.VDW>
-32.5904

>  <SCORE.INTER.norm>
-1.23163

>  <SCORE.INTRA>
-2.91197

>  <SCORE.INTRA.DIHEDRAL>
-7.49553

>  <SCORE.INTRA.DIHEDRAL.0>
12.0148

>  <SCORE.INTRA.POLAR>
0

>  <SCORE.INTRA.POLAR.0>
0

>  <SCORE.INTRA.REPUL>
0

>  <SCORE.INTRA.REPUL.0>
0

>  <SCORE.INTRA.SOLV>
-0.0123673

>  <SCORE.INTRA.SOLV.lig_0>
-10.5235

>  <SCORE.INTRA.VDW>
0.841978

>  <SCORE.INTRA.VDW.0>
-1.38455

>  <SCORE.INTRA.norm>
-0.103999

>  <SCORE.RESTR>
0

>  <SCORE.RESTR.CAVITY>
0

>  <SCORE.RESTR.norm>
0

>  <SCORE.SYSTEM>
0

>  <SCORE.SYSTEM.CONST>
0

>  <SCORE.SYSTEM.DIHEDRAL>
0

>  <SCORE.SYSTEM.SOLV>
0

>  <SCORE.SYSTEM.norm>
0

>  <SCORE.heavy>
28

>  <SCORE.norm>
-1.33563

>  <RMSD>
0.918

$$$$
ligand
 OpenBabel11021811413D
libRbt.so/2013.1/901 2013/11/27
 28 32  0  0  0  0  0  0  0  0999 V2000
   43.5087   26.5089   21.7054 C   0  0  0  0  0  0  0  0  0  0  0  0
   43.4758   26.9522   23.1547 C   0  0  0  0  0  0  0  0  0  0  0  0
   42.0627   27.2884   23.6072 C   0  0  0  0  0  0  0  0  0  0  0  0
   33.9339   24.2516   25.7167 O   0  0  0  0  0  0  0  0  0  0  0  0
   35.0303   24.1864   24.8030 C   0  0  0  0  0  0  0  0  0  0  0  0
   38.4274   24.6345   28.3486 C   0  0  0  0  0  0  0  0  0  0  0  0
   37.9168   25.8720   28.7189 C   0  0  0  0  0  0  0  0  0  0  0  0
   36.8340   26.4093   28.0181 C   0  0  0  0  0  0  0  0  0  0  0  0
   36.2607   25.7127   26.9536 C   0  0  0  0  0  0  0  0  0  0  0  0
   36.2853   23.6341   25.4912 C   0  0  1  0  0  0  0  0  0  0  0  0
   36.7664   24.4769   26.6241 C   0  0  0  0  0  0  0  0  0  0  0  0
   37.8317   23.9544   27.3129 C   0  0  0  0  0  0  0  0  0  0  0  0
   38.3174   22.6795   26.8203 C   0  0  1  0  0  0  0  0  0  0  0  0
   37.1938   20.5112   27.2969 C   0  0  0  0  0  0  0  0  0  0  0  0
   37.1842   21.7735   26.7538 C   0  0  0  0  0  0  0  0  0  0  0  0
   36.1020   22.2519   26.0650 C   0  0  0  0  0  0  0  0  0  0  0  0
   34.9792   21.4542   25.9006 C   0  0  0  0  0  0  0  0  0  0  0  0
   34.9660   20.1767   26.4646 C   0  0  0  0  0  0  0  0  0  0  0  0
   36.0718   19.7101   27.1632 C   0  0  0  0  0  0  0  0  0  0  0  0
   41.2299   26.0212   23.7519 C   0  0  0  0  0  0  0  0  0  0  0  0
   39.9067   26.3290   24.4427 C   0  0  0  0  0  0  0  0  0  0  0  0
   37.4319   25.6284   23.5144 O   0  0  0  0  0  0  0  0  0  0  0  0
   40.7641   24.0279   25.8423 O   0  0  0  0  0  0  0  0  0  0  0  0
   39.6814   24.0726   25.2822 C   0  0  0  0  0  0  0  0  0  0  0  0
   39.2185   25.0602   24.6198 N   0  0  0  0  0  0  0  0  0  0  0  0
   38.0611   24.8406   24.1721 C   0  0  0  0  0  0  0  0  0  0  0  0
   37.5176   23.5155   24.5806 C   0  0  1  0  0  0  0  0  0  0  0  0
   38.7020   22.9570   25.3735 C   0  0  2  0  0  0  0  0  0  0  0  0
  1  2  1  0  0  0  0
  2  3  1  0  0  0  0
  3 20  1  0  0  0  0
  4  5  1  0  0  0  0
  6  7  2  0  0  0  0
  6 12  1  0  0  0  0
  7  8  1  0  0  0  0
  8  9  2  0  0  0  0
  9 11  1  0  0  0  0
 10  5  1  6  0  0  0
 10 11  1  0  0  0  0
 10 16  1  0  0  0  0
 10 27  1  0  0  0  0
 11 12  2  0  0  0  0
 13 12  1  6  0  0  0
 13 15  1  0  0  0  0
 13 28  1  0  0  0  0
 14 15  2  0  0  0  0
 14 19  1  0  0  0  0
 15 16  1  0  0  0  0
 16 17  2  0  0  0  0
 17 18  1  0  0  0  0
 18 19  2  0  0  0  0
 20 21  1  0  0  0  0
 21 25  1  0  0  0  0
 22 26  2  0  0  0  0
 23 24  2  0  0  0  0
 24 25  1  0  0  0  0
 25 26  1  0  0  0  0
 27 26  1  1  0  0  0
 27 28  1  0  0  0  0
 28 24  1  1  0  0  0
M  END
>  <CHROM.1>
71.87365008,-61.57713050,169.69066742,-176.28488257,59.49541561,38.15208996
24.19348387,25.55398201,-0.57667526,-0.43157042,3.06869332

>  <Name>
ligand

>  <RI>
0

>  <Rbt.Current_Directory>
/home/itssahil/PROJECTS/Mol_Feturizer/New_Systems/rnas/1YLS

>  <Rbt.Executable>
rbdock ($Id: //depot/dev/client3/rdock/2013.1/src/exe/rbdock.cxx#4 $)

>  <Rbt.Library>
libRbt.so (2013.1, Build901 2013/11/27)

>  <Rbt.Parameter_File>
/export/apps/rDock/src/rDock_2013.1_src/data/scripts/dock_solv.prm

>  <Rbt.Receptor>
prm/pocket_docking_8.prm

>  <SCORE>
-36.1818

>  <SCORE.INTER>
-33.3553

>  <SCORE.INTER.CONST>
1

>  <SCORE.INTER.POLAR>
0

>  <SCORE.INTER.ROT>
5

>  <SCORE.INTER.SOLV>
7.12291

>  <SCORE.INTER.VDW>
-31.5445

>  <SCORE.INTER.norm>
-1.19126

>  <SCORE.INTRA>
-2.8265

>  <SCORE.INTRA.DIHEDRAL>
-8.53132

>  <SCORE.INTRA.DIHEDRAL.0>
12.0148

>  <SCORE.INTRA.POLAR>
0

>  <SCORE.INTRA.POLAR.0>
0

>  <SCORE.INTRA.REPUL>
0

>  <SCORE.INTRA.REPUL.0>
0

>  <SCORE.INTRA.SOLV>
-0.0219857

>  <SCORE.INTRA.SOLV.lig_0>
-10.5235

>  <SCORE.INTRA.VDW>
1.45015

>  <SCORE.INTRA.VDW.0>
-1.38455

>  <SCORE.INTRA.norm>
-0.100946

>  <SCORE.RESTR>
0

>  <SCORE.RESTR.CAVITY>
0

>  <SCORE.RESTR.norm>
0

>  <SCORE.SYSTEM>
0

>  <SCORE.SYSTEM.CONST>
0

>  <SCORE.SYSTEM.DIHEDRAL>
0

>  <SCORE.SYSTEM.SOLV>
0

>  <SCORE.SYSTEM.norm>
0

>  <SCORE.heavy>
28

>  <SCORE.norm>
-1.29221

>  <RMSD>
0.919

$$$$
ligand
 OpenBabel11021811413D
libRbt.so/2013.1/901 2013/11/27
 28 32  0  0  0  0  0  0  0  0999 V2000
   43.8545   26.1991   22.1914 C   0  0  0  0  0  0  0  0  0  0  0  0
   42.7550   27.2262   22.0067 C   0  0  0  0  0  0  0  0  0  0  0  0
   41.8924   27.3557   23.2533 C   0  0  0  0  0  0  0  0  0  0  0  0
   34.4099   24.3300   24.0688 O   0  0  0  0  0  0  0  0  0  0  0  0
   35.0071   24.8339   25.2649 C   0  0  0  0  0  0  0  0  0  0  0  0
   38.7799   24.0942   28.3521 C   0  0  0  0  0  0  0  0  0  0  0  0
   38.5219   25.2963   28.9984 C   0  0  0  0  0  0  0  0  0  0  0  0
   37.4762   26.1088   28.5527 C   0  0  0  0  0  0  0  0  0  0  0  0
   36.6887   25.7215   27.4679 C   0  0  0  0  0  0  0  0  0  0  0  0
   36.2179   23.9847   25.6729 C   0  0  1  0  0  0  0  0  0  0  0  0
   36.9463   24.5139   26.8623 C   0  0  0  0  0  0  0  0  0  0  0  0
   37.9761   23.7206   27.3013 C   0  0  0  0  0  0  0  0  0  0  0  0
   38.1908   22.5095   26.5324 C   0  0  1  0  0  0  0  0  0  0  0  0
   36.7798   20.4734   26.7653 C   0  0  0  0  0  0  0  0  0  0  0  0
   36.9228   21.8053   26.4585 C   0  0  0  0  0  0  0  0  0  0  0  0
   35.8691   22.5581   26.0141 C   0  0  0  0  0  0  0  0  0  0  0  0
   34.6190   21.9765   25.8623 C   0  0  0  0  0  0  0  0  0  0  0  0
   34.4533   20.6291   26.1898 C   0  0  0  0  0  0  0  0  0  0  0  0
   35.5330   19.8824   26.6427 C   0  0  0  0  0  0  0  0  0  0  0  0
   40.9612   26.1578   23.3882 C   0  0  0  0  0  0  0  0  0  0  0  0
   40.1067   26.2858   24.6437 C   0  0  0  0  0  0  0  0  0  0  0  0
   37.4676   26.1401   23.9430 O   0  0  0  0  0  0  0  0  0  0  0  0
   40.7122   23.6582   25.4911 O   0  0  0  0  0  0  0  0  0  0  0  0
   39.5996   23.9652   25.0960 C   0  0  0  0  0  0  0  0  0  0  0  0
   39.2403   25.1185   24.6847 N   0  0  0  0  0  0  0  0  0  0  0  0
   38.0226   25.1579   24.3628 C   0  0  0  0  0  0  0  0  0  0  0  0
   37.3128   23.8703   24.6005 C   0  0  1  0  0  0  0  0  0  0  0  0
   38.4641   23.0048   25.1189 C   0  0  2  0  0  0  0  0  0  0  0  0
  1  2  1  0  0  0  0
  2  3  1  0  0  0  0
  3 20  1  0  0  0  0
  4  5  1  0  0  0  0
  6  7  2  0  0  0  0
  6 12  1  0  0  0  0
  7  8  1  0  0  0  0
  8  9  2  0  0  0  0
  9 11  1  0  0  0  0
 10  5  1  6  0  0  0
 10 11  1  0  0  0  0
 10 16  1  0  0  0  0
 10 27  1  0  0  0  0
 11 12  2  0  0  0  0
 13 12  1  1  0  0  0
 13 15  1  0  0  0  0
 13 28  1  0  0  0  0
 14 15  2  0  0  0  0
 14 19  1  0  0  0  0
 15 16  1  0  0  0  0
 16 17  2  0  0  0  0
 17 18  1  0  0  0  0
 18 19  2  0  0  0  0
 20 21  1  0  0  0  0
 21 25  1  0  0  0  0
 22 26  2  0  0  0  0
 23 24  2  0  0  0  0
 24 25  1  0  0  0  0
 25 26  1  0  0  0  0
 27 26  1  1  0  0  0
 27 28  1  0  0  0  0
 28 24  1  1  0  0  0
M  END
>  <CHROM.1>
-74.65089696,175.93802966,179.55410330,179.22359833,80.32180844,38.12422264
24.25554022,25.44430851,0.57338396,-0.43741739,-1.23420998

>  <Name>
ligand

>  <RI>
0

>  <Rbt.Current_Directory>
/home/itssahil/PROJECTS/Mol_Feturizer/New_Systems/rnas/1YLS

>  <Rbt.Executable>
rbdock ($Id: //depot/dev/client3/rdock/2013.1/src/exe/rbdock.cxx#4 $)

>  <Rbt.Library>
libRbt.so (2013.1, Build901 2013/11/27)

>  <Rbt.Parameter_File>
/export/apps/rDock/src/rDock_2013.1_src/data/scripts/dock_solv.prm

>  <Rbt.Receptor>
prm/pocket_docking_3.prm

>  <SCORE>
-38.0368

>  <SCORE.INTER>
-34.4884

>  <SCORE.INTER.CONST>
1

>  <SCORE.INTER.POLAR>
0

>  <SCORE.INTER.ROT>
5

>  <SCORE.INTER.SOLV>
7.50469

>  <SCORE.INTER.VDW>
-32.4271

>  <SCORE.INTER.norm>
-1.23173

>  <SCORE.INTRA>
-3.54845

>  <SCORE.INTRA.DIHEDRAL>
-8.87041

>  <SCORE.INTRA.DIHEDRAL.0>
12.0148

>  <SCORE.INTRA.POLAR>
0

>  <SCORE.INTRA.POLAR.0>
0

>  <SCORE.INTRA.REPUL>
0

>  <SCORE.INTRA.REPUL.0>
0

>  <SCORE.INTRA.SOLV>
0.154911

>  <SCORE.INTRA.SOLV.lig_0>
-10.5235

>  <SCORE.INTRA.VDW>
0.809298

>  <SCORE.INTRA.VDW.0>
-1.38455

>  <SCORE.INTRA.norm>
-0.12673

>  <SCORE.RESTR>
0

>  <SCORE.RESTR.CAVITY>
0

>  <SCORE.RESTR.norm>
0

>  <SCORE.SYSTEM>
0

>  <SCORE.SYSTEM.CONST>
0

>  <SCORE.SYSTEM.DIHEDRAL>
0

>  <SCORE.SYSTEM.SOLV>
0

>  <SCORE.SYSTEM.norm>
0

>  <SCORE.heavy>
28

>  <SCORE.norm>
-1.35846

>  <RMSD>
0.920

$$$$
ligand
 OpenBabel11021811413D
libRbt.so/2013.1/901 2013/11/27
 28 32  0  0  0  0  0  0  0  0999 V2000
   43.6658   26.3376   22.2397 C   0  0  0  0  0  0  0  0  0  0  0  0
   42.6138   27.4064   22.0192 C   0  0  0  0  0  0  0  0  0  0  0  0
   41.6921   27.5438   23.2219 C   0  0  0  0  0  0  0  0  0  0  0  0
   35.1639   26.0073   25.0320 O   0  0  0  0  0  0  0  0  0  0  0  0
   34.9262   24.6050   25.1669 C   0  0  0  0  0  0  0  0  0  0  0  0
   38.6672   24.3238   28.3665 C   0  0  0  0  0  0  0  0  0  0  0  0
   38.2971   25.5303   28.9468 C   0  0  0  0  0  0  0  0  0  0  0  0
   37.2009   26.2324   28.4393 C   0  0  0  0  0  0  0  0  0  0  0  0
   36.4747   25.7309   27.3585 C   0  0  0  0  0  0  0  0  0  0  0  0
   36.1908   23.8779   25.6421 C   0  0  1  0  0  0  0  0  0  0  0  0
   36.8440   24.5209   26.8191 C   0  0  0  0  0  0  0  0  0  0  0  0
   37.9229   23.8362   27.3186 C   0  0  0  0  0  0  0  0  0  0  0  0
   38.2538   22.6114   26.6154 C   0  0  1  0  0  0  0  0  0  0  0  0
   37.0058   20.4803   26.9188 C   0  0  0  0  0  0  0  0  0  0  0  0
   37.0488   21.8033   26.5495 C   0  0  0  0  0  0  0  0  0  0  0  0
   35.9495   22.4455   26.0460 C   0  0  0  0  0  0  0  0  0  0  0  0
   34.7545   21.7572   25.8967 C   0  0  0  0  0  0  0  0  0  0  0  0
   34.6896   20.4179   26.2870 C   0  0  0  0  0  0  0  0  0  0  0  0
   35.8142   19.7843   26.7992 C   0  0  0  0  0  0  0  0  0  0  0  0
   40.7659   26.3393   23.3284 C   0  0  0  0  0  0  0  0  0  0  0  0
   39.9064   26.4372   24.5832 C   0  0  0  0  0  0  0  0  0  0  0  0
   37.3061   26.0433   23.8345 O   0  0  0  0  0  0  0  0  0  0  0  0
   40.6999   23.9112   25.5724 O   0  0  0  0  0  0  0  0  0  0  0  0
   39.5766   24.1071   25.1390 C   0  0  0  0  0  0  0  0  0  0  0  0
   39.1361   25.2063   24.6635 N   0  0  0  0  0  0  0  0  0  0  0  0
   37.9276   25.1308   24.3142 C   0  0  0  0  0  0  0  0  0  0  0  0
   37.3180   23.8023   24.6002 C   0  0  1  0  0  0  0  0  0  0  0  0
   38.5219   23.0594   25.1853 C   0  0  2  0  0  0  0  0  0  0  0  0
  1  2  1  0  0  0  0
  2  3  1  0  0  0  0
  3 20  1  0  0  0  0
  4  5  1  0  0  0  0
  6  7  2  0  0  0  0
  6 12  1  0  0  0  0
  7  8  1  0  0  0  0
  8  9  2  0  0  0  0
  9 11  1  0  0  0  0
 10  5  1  6  0  0  0
 10 11  1  0  0  0  0
 10 16  1  0  0  0  0
 10 27  1  0  0  0  0
 11 12  2  0  0  0  0
 13 12  1  1  0  0  0
 13 15  1  0  0  0  0
 13 28  1  0  0  0  0
 14 15  2  0  0  0  0
 14 19  1  0  0  0  0
 15 16  1  0  0  0  0
 16 17  2  0  0  0  0
 17 18  1  0  0  0  0
 18 19  2  0  0  0  0
 20 21  1  0  0  0  0
 21 25  1  0  0  0  0
 22 26  2  0  0  0  0
 23 24  2  0  0  0  0
 24 25  1  0  0  0  0
 25 26  1  0  0  0  0
 27 26  1  1  0  0  0
 27 28  1  0  0  0  0
 28 24  1  1  0  0  0
M  END
>  <CHROM.1>
-71.51645635,48.69669167,176.37904863,-175.52782105,82.16203219,38.10961909
24.36884608,25.49050133,-0.64732972,-0.45169730,3.00286067

>  <Name>
ligand

>  <RI>
0

>  <Rbt.Current_Directory>
/home/itssahil/PROJECTS/Mol_Feturizer/New_Systems/rnas/1YLS

>  <Rbt.Executable>
rbdock ($Id: //depot/dev/client3/rdock/2013.1/src/exe/rbdock.cxx#4 $)

>  <Rbt.Library>
libRbt.so (2013.1, Build901 2013/11/27)

>  <Rbt.Parameter_File>
/export/apps/rDock/src/rDock_2013.1_src/data/scripts/dock_solv.prm

>  <Rbt.Receptor>
prm/pocket_docking_8.prm

>  <SCORE>
-36.5276

>  <SCORE.INTER>
-34.4078

>  <SCORE.INTER.CONST>
1

>  <SCORE.INTER.POLAR>
0

>  <SCORE.INTER.ROT>
5

>  <SCORE.INTER.SOLV>
7.13942

>  <SCORE.INTER.VDW>
-32.2517

>  <SCORE.INTER.norm>
-1.22885

>  <SCORE.INTRA>
-2.11974

>  <SCORE.INTRA.DIHEDRAL>
-8.72655

>  <SCORE.INTRA.DIHEDRAL.0>
12.0148

>  <SCORE.INTRA.POLAR>
0

>  <SCORE.INTRA.POLAR.0>
0

>  <SCORE.INTRA.REPUL>
0

>  <SCORE.INTRA.REPUL.0>
0

>  <SCORE.INTRA.SOLV>
0.571299

>  <SCORE.INTRA.SOLV.lig_0>
-10.5235

>  <SCORE.INTRA.VDW>
1.95789

>  <SCORE.INTRA.VDW.0>
-1.38455

>  <SCORE.INTRA.norm>
-0.0757049

>  <SCORE.RESTR>
0

>  <SCORE.RESTR.CAVITY>
0

>  <SCORE.RESTR.norm>
0

>  <SCORE.SYSTEM>
0

>  <SCORE.SYSTEM.CONST>
0

>  <SCORE.SYSTEM.DIHEDRAL>
0

>  <SCORE.SYSTEM.SOLV>
0

>  <SCORE.SYSTEM.norm>
0

>  <SCORE.heavy>
28

>  <SCORE.norm>
-1.30456

>  <RMSD>
0.920

$$$$
ligand
 OpenBabel11021811413D
libRbt.so/2013.1/901 2013/11/27
 28 32  0  0  0  0  0  0  0  0999 V2000
   44.0317   27.9690   22.2232 C   0  0  0  0  0  0  0  0  0  0  0  0
   42.8546   27.0145   22.1878 C   0  0  0  0  0  0  0  0  0  0  0  0
   41.8857   27.2750   23.3316 C   0  0  0  0  0  0  0  0  0  0  0  0
   33.7565   25.1989   26.2868 O   0  0  0  0  0  0  0  0  0  0  0  0
   34.7260   25.1858   25.2376 C   0  0  0  0  0  0  0  0  0  0  0  0
   38.5219   24.1714   28.2167 C   0  0  0  0  0  0  0  0  0  0  0  0
   38.3329   25.3616   28.9073 C   0  0  0  0  0  0  0  0  0  0  0  0
   37.3172   26.2354   28.5110 C   0  0  0  0  0  0  0  0  0  0  0  0
   36.4909   25.9212   27.4314 C   0  0  0  0  0  0  0  0  0  0  0  0
   35.9042   24.2690   25.5913 C   0  0  1  0  0  0  0  0  0  0  0  0
   36.6801   24.7241   26.7814 C   0  0  0  0  0  0  0  0  0  0  0  0
   37.6807   23.8704   27.1718 C   0  0  0  0  0  0  0  0  0  0  0  0
   37.8235   22.6772   26.3594 C   0  0  1  0  0  0  0  0  0  0  0  0
   36.3246   20.7010   26.5562 C   0  0  0  0  0  0  0  0  0  0  0  0
   36.5230   22.0345   26.2900 C   0  0  0  0  0  0  0  0  0  0  0  0
   35.4966   22.8491   25.8933 C   0  0  0  0  0  0  0  0  0  0  0  0
   34.2181   22.3306   25.7497 C   0  0  0  0  0  0  0  0  0  0  0  0
   33.9967   20.9819   26.0366 C   0  0  0  0  0  0  0  0  0  0  0  0
   35.0496   20.1719   26.4414 C   0  0  0  0  0  0  0  0  0  0  0  0
   40.7639   26.2447   23.3296 C   0  0  0  0  0  0  0  0  0  0  0  0
   39.8739   26.4234   24.5539 C   0  0  0  0  0  0  0  0  0  0  0  0
   37.2173   26.4220   23.9060 O   0  0  0  0  0  0  0  0  0  0  0  0
   40.3739   23.7439   25.3018 O   0  0  0  0  0  0  0  0  0  0  0  0
   39.2691   24.1145   24.9411 C   0  0  0  0  0  0  0  0  0  0  0  0
   38.9554   25.2962   24.5755 N   0  0  0  0  0  0  0  0  0  0  0  0
   37.7345   25.4019   24.2815 C   0  0  0  0  0  0  0  0  0  0  0  0
   36.9708   24.1408   24.4923 C   0  0  1  0  0  0  0  0  0  0  0  0
   38.0910   23.2067   24.9572 C   0  0  2  0  0  0  0  0  0  0  0  0
  1  2  1  0  0  0  0
  2  3  1  0  0  0  0
  3 20  1  0  0  0  0
  4  5  1  0  0  0  0
  6  7  2  0  0  0  0
  6 12  1  0  0  0  0
  7  8  1  0  0  0  0
  8  9  2  0  0  0  0
  9 11  1  0  0  0  0
 10  5  1  6  0  0  0
 10 11  1  0  0  0  0
 10 16  1  0  0  0  0
 10 27  1  0  0  0  0
 11 12  2  0  0  0  0
 13 12  1  1  0  0  0
 13 15  1  0  0  0  0
 13 28  1  0  0  0  0
 14 15  2  0  0  0  0
 14 19  1  0  0  0  0
 15 16  1  0  0  0  0
 16 17  2  0  0  0  0
 17 18  1  0  0  0  0
 18 19  2  0  0  0  0
 20 21  1  0  0  0  0
 21 25  1  0  0  0  0
 22 26  2  0  0  0  0
 23 24  2  0  0  0  0
 24 25  1  0  0  0  0
 25 26  1  0  0  0  0
 27 26  1  1  0  0  0
 27 28  1  0  0  0  0
 28 24  1  1  0  0  0
M  END
>  <CHROM.1>
-176.13614871,-63.71079027,174.40908344,-172.09999631,76.32967125,37.84472300
24.52912753,25.45691060,-0.45302278,-0.51454970,-3.00835638

>  <Name>
ligand

>  <RI>
0

>  <Rbt.Current_Directory>
/home/itssahil/PROJECTS/Mol_Feturizer/New_Systems/rnas/1YLS

>  <Rbt.Executable>
rbdock ($Id: //depot/dev/client3/rdock/2013.1/src/exe/rbdock.cxx#4 $)

>  <Rbt.Library>
libRbt.so (2013.1, Build901 2013/11/27)

>  <Rbt.Parameter_File>
/export/apps/rDock/src/rDock_2013.1_src/data/scripts/dock_solv.prm

>  <Rbt.Receptor>
prm/pocket_docking_3.prm

>  <SCORE>
-38.6361

>  <SCORE.INTER>
-33.9891

>  <SCORE.INTER.CONST>
1

>  <SCORE.INTER.POLAR>
0

>  <SCORE.INTER.ROT>
5

>  <SCORE.INTER.SOLV>
7.80888

>  <SCORE.INTER.VDW>
-32.1957

>  <SCORE.INTER.norm>
-1.2139

>  <SCORE.INTRA>
-4.64699

>  <SCORE.INTRA.DIHEDRAL>
-9.28803

>  <SCORE.INTRA.DIHEDRAL.0>
12.0148

>  <SCORE.INTRA.POLAR>
0

>  <SCORE.INTRA.POLAR.0>
0

>  <SCORE.INTRA.REPUL>
0

>  <SCORE.INTRA.REPUL.0>
0

>  <SCORE.INTRA.SOLV>
-0.0336421

>  <SCORE.INTRA.SOLV.lig_0>
-10.5235

>  <SCORE.INTRA.VDW>
0.0138466

>  <SCORE.INTRA.VDW.0>
-1.38455

>  <SCORE.INTRA.norm>
-0.165964

>  <SCORE.RESTR>
0

>  <SCORE.RESTR.CAVITY>
0

>  <SCORE.RESTR.norm>
0

>  <SCORE.SYSTEM>
0

>  <SCORE.SYSTEM.CONST>
0

>  <SCORE.SYSTEM.DIHEDRAL>
0

>  <SCORE.SYSTEM.SOLV>
0

>  <SCORE.SYSTEM.norm>
0

>  <SCORE.heavy>
28

>  <SCORE.norm>
-1.37986

>  <RMSD>
0.921

$$$$
ligand
 OpenBabel11021811413D
libRbt.so/2013.1/901 2013/11/27
 28 32  0  0  0  0  0  0  0  0999 V2000
   43.7291   26.4526   22.3417 C   0  0  0  0  0  0  0  0  0  0  0  0
   42.6191   27.4401   22.0408 C   0  0  0  0  0  0  0  0  0  0  0  0
   41.6579   27.5785   23.2120 C   0  0  0  0  0  0  0  0  0  0  0  0
   33.9552   24.5223   26.1148 O   0  0  0  0  0  0  0  0  0  0  0  0
   34.9518   24.4550   25.0934 C   0  0  0  0  0  0  0  0  0  0  0  0
   38.6275   24.4107   28.3798 C   0  0  0  0  0  0  0  0  0  0  0  0
   38.2012   25.6201   28.9133 C   0  0  0  0  0  0  0  0  0  0  0  0
   37.0922   26.2655   28.3603 C   0  0  0  0  0  0  0  0  0  0  0  0
   36.4090   25.7044   27.2807 C   0  0  0  0  0  0  0  0  0  0  0  0
   36.2307   23.7899   25.6185 C   0  0  1  0  0  0  0  0  0  0  0  0
   36.8337   24.4926   26.7882 C   0  0  0  0  0  0  0  0  0  0  0  0
   37.9250   23.8638   27.3322 C   0  0  0  0  0  0  0  0  0  0  0  0
   38.3156   22.6307   26.6755 C   0  0  1  0  0  0  0  0  0  0  0  0
   37.1386   20.4657   27.0198 C   0  0  0  0  0  0  0  0  0  0  0  0
   37.1423   21.7773   26.6096 C   0  0  0  0  0  0  0  0  0  0  0  0
   36.0322   22.3628   26.0626 C   0  0  0  0  0  0  0  0  0  0  0  0
   34.8664   21.6268   25.9097 C   0  0  0  0  0  0  0  0  0  0  0  0
   34.8410   20.2988   26.3408 C   0  0  0  0  0  0  0  0  0  0  0  0
   35.9759   19.7231   26.8969 C   0  0  0  0  0  0  0  0  0  0  0  0
   40.8164   26.3184   23.3673 C   0  0  0  0  0  0  0  0  0  0  0  0
   39.8747   26.4497   24.5585 C   0  0  0  0  0  0  0  0  0  0  0  0
   37.3078   25.9376   23.7672 O   0  0  0  0  0  0  0  0  0  0  0  0
   40.7362   23.9864   25.6443 O   0  0  0  0  0  0  0  0  0  0  0  0
   39.6166   24.1275   25.1809 C   0  0  0  0  0  0  0  0  0  0  0  0
   39.1476   25.1945   24.6614 N   0  0  0  0  0  0  0  0  0  0  0  0
   37.9508   25.0639   24.2889 C   0  0  0  0  0  0  0  0  0  0  0  0
   37.3832   23.7235   24.6039 C   0  0  1  0  0  0  0  0  0  0  0  0
   38.5995   23.0438   25.2379 C   0  0  2  0  0  0  0  0  0  0  0  0
  1  2  1  0  0  0  0
  2  3  1  0  0  0  0
  3 20  1  0  0  0  0
  4  5  1  0  0  0  0
  6  7  2  0  0  0  0
  6 12  1  0  0  0  0
  7  8  1  0  0  0  0
  8  9  2  0  0  0  0
  9 11  1  0  0  0  0
 10  5  1  6  0  0  0
 10 11  1  0  0  0  0
 10 16  1  0  0  0  0
 10 27  1  0  0  0  0
 11 12  2  0  0  0  0
 13 12  1  1  0  0  0
 13 15  1  0  0  0  0
 13 28  1  0  0  0  0
 14 15  2  0  0  0  0
 14 19  1  0  0  0  0
 15 16  1  0  0  0  0
 16 17  2  0  0  0  0
 17 18  1  0  0  0  0
 18 19  2  0  0  0  0
 20 21  1  0  0  0  0
 21 25  1  0  0  0  0
 22 26  2  0  0  0  0
 23 24  2  0  0  0  0
 24 25  1  0  0  0  0
 25 26  1  0  0  0  0
 27 26  1  1  0  0  0
 27 28  1  0  0  0  0
 28 24  1  1  0  0  0
M  END
>  <CHROM.1>
-70.89736425,-58.73573339,178.85917954,-178.07280587,79.38245095,38.08640454
24.28816939,25.54903090,-0.59274891,-0.49227111,3.09101528

>  <Name>
ligand

>  <RI>
0

>  <Rbt.Current_Directory>
/home/itssahil/PROJECTS/Mol_Feturizer/New_Systems/rnas/1YLS

>  <Rbt.Executable>
rbdock ($Id: //depot/dev/client3/rdock/2013.1/src/exe/rbdock.cxx#4 $)

>  <Rbt.Library>
libRbt.so (2013.1, Build901 2013/11/27)

>  <Rbt.Parameter_File>
/export/apps/rDock/src/rDock_2013.1_src/data/scripts/dock_solv.prm

>  <Rbt.Receptor>
prm/pocket_docking_5.prm

>  <SCORE>
-38.091

>  <SCORE.INTER>
-34.317

>  <SCORE.INTER.CONST>
1

>  <SCORE.INTER.POLAR>
0

>  <SCORE.INTER.ROT>
5

>  <SCORE.INTER.SOLV>
7.28666

>  <SCORE.INTER.VDW>
-32.2402

>  <SCORE.INTER.norm>
-1.22561

>  <SCORE.INTRA>
-3.77397

>  <SCORE.INTRA.DIHEDRAL>
-9.24986

>  <SCORE.INTRA.DIHEDRAL.0>
12.0148

>  <SCORE.INTRA.POLAR>
0

>  <SCORE.INTRA.POLAR.0>
0

>  <SCORE.INTRA.REPUL>
0

>  <SCORE.INTRA.REPUL.0>
0

>  <SCORE.INTRA.SOLV>
-0.0558399

>  <SCORE.INTRA.SOLV.lig_0>
-10.5235

>  <SCORE.INTRA.VDW>
0.878874

>  <SCORE.INTRA.VDW.0>
-1.38455

>  <SCORE.INTRA.norm>
-0.134785

>  <SCORE.RESTR>
0

>  <SCORE.RESTR.CAVITY>
0

>  <SCORE.RESTR.norm>
0

>  <SCORE.SYSTEM>
0

>  <SCORE.SYSTEM.CONST>
0

>  <SCORE.SYSTEM.DIHEDRAL>
0

>  <SCORE.SYSTEM.SOLV>
0

>  <SCORE.SYSTEM.norm>
0

>  <SCORE.heavy>
28

>  <SCORE.norm>
-1.36039

>  <RMSD>
0.921

$$$$
ligand
 OpenBabel11021811413D
libRbt.so/2013.1/901 2013/11/27
 28 32  0  0  0  0  0  0  0  0999 V2000
   43.7606   26.1759   22.2252 C   0  0  0  0  0  0  0  0  0  0  0  0
   42.6611   27.1924   21.9890 C   0  0  0  0  0  0  0  0  0  0  0  0
   41.7609   27.3392   23.2067 C   0  0  0  0  0  0  0  0  0  0  0  0
   33.9043   24.6047   26.1310 O   0  0  0  0  0  0  0  0  0  0  0  0
   34.9158   24.5718   25.1226 C   0  0  0  0  0  0  0  0  0  0  0  0
   38.6210   24.2419   28.3592 C   0  0  0  0  0  0  0  0  0  0  0  0
   38.2736   25.4631   28.9224 C   0  0  0  0  0  0  0  0  0  0  0  0
   37.1984   26.1843   28.3969 C   0  0  0  0  0  0  0  0  0  0  0  0
   36.4705   25.6871   27.3153 C   0  0  0  0  0  0  0  0  0  0  0  0
   36.1591   23.8214   25.6176 C   0  0  1  0  0  0  0  0  0  0  0  0
   36.8165   24.4628   26.7931 C   0  0  0  0  0  0  0  0  0  0  0  0
   37.8749   23.7594   27.3102 C   0  0  0  0  0  0  0  0  0  0  0  0
   38.1837   22.5193   26.6240 C   0  0  1  0  0  0  0  0  0  0  0  0
   36.8843   20.4210   26.9402 C   0  0  0  0  0  0  0  0  0  0  0  0
   36.9610   21.7383   26.5563 C   0  0  0  0  0  0  0  0  0  0  0  0
   35.8813   22.3997   26.0356 C   0  0  0  0  0  0  0  0  0  0  0  0
   34.6721   21.7373   25.8832 C   0  0  0  0  0  0  0  0  0  0  0  0
   34.5729   20.4044   26.2880 C   0  0  0  0  0  0  0  0  0  0  0  0
   35.6781   19.7512   26.8176 C   0  0  0  0  0  0  0  0  0  0  0  0
   40.8628   26.1186   23.3602 C   0  0  0  0  0  0  0  0  0  0  0  0
   39.9419   26.2824   24.5635 C   0  0  0  0  0  0  0  0  0  0  0  0
   37.3399   25.9396   23.7957 O   0  0  0  0  0  0  0  0  0  0  0  0
   40.6682   23.7504   25.5886 O   0  0  0  0  0  0  0  0  0  0  0  0
   39.5536   23.9670   25.1428 C   0  0  0  0  0  0  0  0  0  0  0  0
   39.1427   25.0705   24.6509 N   0  0  0  0  0  0  0  0  0  0  0  0
   37.9360   25.0186   24.2914 C   0  0  0  0  0  0  0  0  0  0  0  0
   37.2934   23.7079   24.5869 C   0  0  1  0  0  0  0  0  0  0  0  0
   38.4746   22.9445   25.1913 C   0  0  2  0  0  0  0  0  0  0  0  0
  1  2  1  0  0  0  0
  2  3  1  0  0  0  0
  3 20  1  0  0  0  0
  4  5  1  0  0  0  0
  6  7  2  0  0  0  0
  6 12  1  0  0  0  0
  7  8  1  0  0  0  0
  8  9  2  0  0  0  0
  9 11  1  0  0  0  0
 10  5  1  6  0  0  0
 10 11  1  0  0  0  0
 10 16  1  0  0  0  0
 10 27  1  0  0  0  0
 11 12  2  0  0  0  0
 13 12  1  1  0  0  0
 13 15  1  0  0  0  0
 13 28  1  0  0  0  0
 14 15  2  0  0  0  0
 14 19  1  0  0  0  0
 15 16  1  0  0  0  0
 16 17  2  0  0  0  0
 17 18  1  0  0  0  0
 18 19  2  0  0  0  0
 20 21  1  0  0  0  0
 21 25  1  0  0  0  0
 22 26  2  0  0  0  0
 23 24  2  0  0  0  0
 24 25  1  0  0  0  0
 25 26  1  0  0  0  0
 27 26  1  1  0  0  0
 27 28  1  0  0  0  0
 28 24  1  1  0  0  0
M  END
>  <CHROM.1>
-72.92151087,-62.32667463,-178.79475227,-178.94982093,79.22463535,38.03633609
24.21163118,25.52787836,-0.52581334,-0.51273104,-3.13423427

>  <Name>
ligand

>  <RI>
0

>  <Rbt.Current_Directory>
/home/itssahil/PROJECTS/Mol_Feturizer/New_Systems/rnas/1YLS

>  <Rbt.Executable>
rbdock ($Id: //depot/dev/client3/rdock/2013.1/src/exe/rbdock.cxx#4 $)

>  <Rbt.Library>
libRbt.so (2013.1, Build901 2013/11/27)

>  <Rbt.Parameter_File>
/export/apps/rDock/src/rDock_2013.1_src/data/scripts/dock_solv.prm

>  <Rbt.Receptor>
prm/pocket_docking_4.prm

>  <SCORE>
-38.0393

>  <SCORE.INTER>
-34.2896

>  <SCORE.INTER.CONST>
1

>  <SCORE.INTER.POLAR>
0

>  <SCORE.INTER.ROT>
5

>  <SCORE.INTER.SOLV>
7.4841

>  <SCORE.INTER.VDW>
-32.2878

>  <SCORE.INTER.norm>
-1.22463

>  <SCORE.INTRA>
-3.74962

>  <SCORE.INTRA.DIHEDRAL>
-9.07088

>  <SCORE.INTRA.DIHEDRAL.0>
12.0148

>  <SCORE.INTRA.POLAR>
0

>  <SCORE.INTRA.POLAR.0>
0

>  <SCORE.INTRA.REPUL>
0

>  <SCORE.INTRA.REPUL.0>
0

>  <SCORE.INTRA.SOLV>
-0.0588275

>  <SCORE.INTRA.SOLV.lig_0>
-10.5235

>  <SCORE.INTRA.VDW>
0.815229

>  <SCORE.INTRA.VDW.0>
-1.38455

>  <SCORE.INTRA.norm>
-0.133915

>  <SCORE.RESTR>
0

>  <SCORE.RESTR.CAVITY>
0

>  <SCORE.RESTR.norm>
0

>  <SCORE.SYSTEM>
0

>  <SCORE.SYSTEM.CONST>
0

>  <SCORE.SYSTEM.DIHEDRAL>
0

>  <SCORE.SYSTEM.SOLV>
0

>  <SCORE.SYSTEM.norm>
0

>  <SCORE.heavy>
28

>  <SCORE.norm>
-1.35855

>  <RMSD>
0.924

$$$$
ligand
 OpenBabel11021811413D
libRbt.so/2013.1/901 2013/11/27
 28 32  0  0  0  0  0  0  0  0999 V2000
   44.0676   27.9009   22.1237 C   0  0  0  0  0  0  0  0  0  0  0  0
   42.9015   26.9322   22.1281 C   0  0  0  0  0  0  0  0  0  0  0  0
   42.0071   27.1357   23.3420 C   0  0  0  0  0  0  0  0  0  0  0  0
   34.1914   24.6367   24.1531 O   0  0  0  0  0  0  0  0  0  0  0  0
   34.8958   25.1057   25.3042 C   0  0  0  0  0  0  0  0  0  0  0  0
   38.6534   24.0011   28.2996 C   0  0  0  0  0  0  0  0  0  0  0  0
   38.4876   25.1939   28.9917 C   0  0  0  0  0  0  0  0  0  0  0  0
   37.4936   26.0909   28.5923 C   0  0  0  0  0  0  0  0  0  0  0  0
   36.6658   25.7972   27.5081 C   0  0  0  0  0  0  0  0  0  0  0  0
   36.0514   24.1622   25.6617 C   0  0  1  0  0  0  0  0  0  0  0  0
   36.8315   24.5975   26.8565 C   0  0  0  0  0  0  0  0  0  0  0  0
   37.8108   23.7209   27.2500 C   0  0  0  0  0  0  0  0  0  0  0  0
   37.9311   22.5265   26.4358 C   0  0  1  0  0  0  0  0  0  0  0  0
   36.3875   20.5838   26.6212 C   0  0  0  0  0  0  0  0  0  0  0  0
   36.6169   21.9131   26.3587 C   0  0  0  0  0  0  0  0  0  0  0  0
   35.6109   22.7511   25.9587 C   0  0  0  0  0  0  0  0  0  0  0  0
   34.3218   22.2616   25.8079 C   0  0  0  0  0  0  0  0  0  0  0  0
   34.0691   20.9176   26.0909 C   0  0  0  0  0  0  0  0  0  0  0  0
   35.1017   20.0835   26.4992 C   0  0  0  0  0  0  0  0  0  0  0  0
   40.9103   26.0795   23.3833 C   0  0  0  0  0  0  0  0  0  0  0  0
   40.0733   26.2296   24.6481 C   0  0  0  0  0  0  0  0  0  0  0  0
   37.4205   26.2887   23.9873 O   0  0  0  0  0  0  0  0  0  0  0  0
   40.5098   23.5382   25.3929 O   0  0  0  0  0  0  0  0  0  0  0  0
   39.4152   23.9340   25.0276 C   0  0  0  0  0  0  0  0  0  0  0  0
   39.1298   25.1231   24.6630 N   0  0  0  0  0  0  0  0  0  0  0  0
   37.9130   25.2565   24.3632 C   0  0  0  0  0  0  0  0  0  0  0  0
   37.1203   24.0124   24.5677 C   0  0  1  0  0  0  0  0  0  0  0  0
   38.2171   23.0527   25.0361 C   0  0  2  0  0  0  0  0  0  0  0  0
  1  2  1  0  0  0  0
  2  3  1  0  0  0  0
  3 20  1  0  0  0  0
  4  5  1  0  0  0  0
  6  7  2  0  0  0  0
  6 12  1  0  0  0  0
  7  8  1  0  0  0  0
  8  9  2  0  0  0  0
  9 11  1  0  0  0  0
 10  5  1  6  0  0  0
 10 11  1  0  0  0  0
 10 16  1  0  0  0  0
 10 27  1  0  0  0  0
 11 12  2  0  0  0  0
 13 12  1  1  0  0  0
 13 15  1  0  0  0  0
 13 28  1  0  0  0  0
 14 15  2  0  0  0  0
 14 19  1  0  0  0  0
 15 16  1  0  0  0  0
 16 17  2  0  0  0  0
 17 18  1  0  0  0  0
 18 19  2  0  0  0  0
 20 21  1  0  0  0  0
 21 25  1  0  0  0  0
 22 26  2  0  0  0  0
 23 24  2  0  0  0  0
 24 25  1  0  0  0  0
 25 26  1  0  0  0  0
 27 26  1  1  0  0  0
 27 28  1  0  0  0  0
 28 24  1  1  0  0  0
M  END
>  <CHROM.1>
-175.38776504,179.87808284,176.25121008,-175.33712002,79.63964639,37.98842676
24.37826169,25.42067807,0.57434937,-0.39233789,-1.15882319

>  <Name>
ligand

>  <RI>
0

>  <Rbt.Current_Directory>
/home/itssahil/PROJECTS/Mol_Feturizer/New_Systems/rnas/1YLS

>  <Rbt.Executable>
rbdock ($Id: //depot/dev/client3/rdock/2013.1/src/exe/rbdock.cxx#4 $)

>  <Rbt.Library>
libRbt.so (2013.1, Build901 2013/11/27)

>  <Rbt.Parameter_File>
/export/apps/rDock/src/rDock_2013.1_src/data/scripts/dock_solv.prm

>  <Rbt.Receptor>
prm/pocket_docking_5.prm

>  <SCORE>
-38.4052

>  <SCORE.INTER>
-33.8194

>  <SCORE.INTER.CONST>
1

>  <SCORE.INTER.POLAR>
0

>  <SCORE.INTER.ROT>
5

>  <SCORE.INTER.SOLV>
7.47281

>  <SCORE.INTER.VDW>
-31.9705

>  <SCORE.INTER.norm>
-1.20784

>  <SCORE.INTRA>
-4.58581

>  <SCORE.INTRA.DIHEDRAL>
-9.53751

>  <SCORE.INTRA.DIHEDRAL.0>
12.0148

>  <SCORE.INTRA.POLAR>
0

>  <SCORE.INTRA.POLAR.0>
0

>  <SCORE.INTRA.REPUL>
0

>  <SCORE.INTRA.REPUL.0>
0

>  <SCORE.INTRA.SOLV>
0.149785

>  <SCORE.INTRA.SOLV.lig_0>
-10.5235

>  <SCORE.INTRA.VDW>
0.108053

>  <SCORE.INTRA.VDW.0>
-1.38455

>  <SCORE.INTRA.norm>
-0.163779

>  <SCORE.RESTR>
0

>  <SCORE.RESTR.CAVITY>
0

>  <SCORE.RESTR.norm>
0

>  <SCORE.SYSTEM>
0

>  <SCORE.SYSTEM.CONST>
0

>  <SCORE.SYSTEM.DIHEDRAL>
0

>  <SCORE.SYSTEM.SOLV>
0

>  <SCORE.SYSTEM.norm>
0

>  <SCORE.heavy>
28

>  <SCORE.norm>
-1.37161

>  <RMSD>
0.924

$$$$
ligand
 OpenBabel11021811413D
libRbt.so/2013.1/901 2013/11/27
 28 32  0  0  0  0  0  0  0  0999 V2000
   44.0115   25.9389   22.3192 C   0  0  0  0  0  0  0  0  0  0  0  0
   43.0432   27.0349   21.9204 C   0  0  0  0  0  0  0  0  0  0  0  0
   41.6447   26.7719   22.4586 C   0  0  0  0  0  0  0  0  0  0  0  0
   34.2059   24.9152   25.1825 O   0  0  0  0  0  0  0  0  0  0  0  0
   35.4000   24.8638   24.3998 C   0  0  0  0  0  0  0  0  0  0  0  0
   38.3657   25.6269   28.2644 C   0  0  0  0  0  0  0  0  0  0  0  0
   37.7705   26.8571   28.5125 C   0  0  0  0  0  0  0  0  0  0  0  0
   36.7520   27.3130   27.6717 C   0  0  0  0  0  0  0  0  0  0  0  0
   36.3266   26.5424   26.5890 C   0  0  0  0  0  0  0  0  0  0  0  0
   36.5915   24.3999   25.2476 C   0  0  1  0  0  0  0  0  0  0  0  0
   36.9123   25.3157   26.3807 C   0  0  0  0  0  0  0  0  0  0  0  0
   37.9142   24.8732   27.2069 C   0  0  0  0  0  0  0  0  0  0  0  0
   38.4996   23.5988   26.8366 C   0  0  1  0  0  0  0  0  0  0  0  0
   37.4137   21.4086   27.3005 C   0  0  0  0  0  0  0  0  0  0  0  0
   37.4160   22.6421   26.6948 C   0  0  0  0  0  0  0  0  0  0  0  0
   36.3989   23.0398   25.8691 C   0  0  0  0  0  0  0  0  0  0  0  0
   35.3323   22.1871   25.6256 C   0  0  0  0  0  0  0  0  0  0  0  0
   35.3056   20.9384   26.2504 C   0  0  0  0  0  0  0  0  0  0  0  0
   36.3446   20.5540   27.0878 C   0  0  0  0  0  0  0  0  0  0  0  0
   41.6181   26.9131   23.9750 C   0  0  0  0  0  0  0  0  0  0  0  0
   40.2011   27.1974   24.4591 C   0  0  0  0  0  0  0  0  0  0  0  0
   37.8724   26.3464   23.3058 O   0  0  0  0  0  0  0  0  0  0  0  0
   40.9859   25.0047   26.0607 O   0  0  0  0  0  0  0  0  0  0  0  0
   39.9707   24.9756   25.3851 C   0  0  0  0  0  0  0  0  0  0  0  0
   39.5464   25.9096   24.6261 N   0  0  0  0  0  0  0  0  0  0  0  0
   38.4547   25.6189   24.0678 C   0  0  0  0  0  0  0  0  0  0  0  0
   37.9204   24.2922   24.4831 C   0  0  1  0  0  0  0  0  0  0  0  0
   39.0305   23.8239   25.4275 C   0  0  2  0  0  0  0  0  0  0  0  0
  1  2  1  0  0  0  0
  2  3  1  0  0  0  0
  3 20  1  0  0  0  0
  4  5  1  0  0  0  0
  6  7  2  0  0  0  0
  6 12  1  0  0  0  0
  7  8  1  0  0  0  0
  8  9  2  0  0  0  0
  9 11  1  0  0  0  0
 10  5  1  6  0  0  0
 10 11  1  0  0  0  0
 10 16  1  0  0  0  0
 10 27  1  0  0  0  0
 11 12  2  0  0  0  0
 13 12  1  6  0  0  0
 13 15  1  0  0  0  0
 13 28  1  0  0  0  0
 14 15  2  0  0  0  0
 14 19  1  0  0  0  0
 15 16  1  0  0  0  0
 16 17  2  0  0  0  0
 17 18  1  0  0  0  0
 18 19  2  0  0  0  0
 20 21  1  0  0  0  0
 21 25  1  0  0  0  0
 22 26  2  0  0  0  0
 23 24  2  0  0  0  0
 24 25  1  0  0  0  0
 25 26  1  0  0  0  0
 27 26  1  1  0  0  0
 27 28  1  0  0  0  0
 28 24  1  1  0  0  0
M  END
>  <CHROM.1>
68.85953463,-61.99251485,157.75168915,86.08133292,57.72360270,38.35498303
24.89319082,25.37898644,-0.46645023,-0.50159274,-3.14064871

>  <Name>
ligand

>  <RI>
0

>  <Rbt.Current_Directory>
/home/itssahil/PROJECTS/Mol_Feturizer/New_Systems/rnas/1YLS

>  <Rbt.Executable>
rbdock ($Id: //depot/dev/client3/rdock/2013.1/src/exe/rbdock.cxx#4 $)

>  <Rbt.Library>
libRbt.so (2013.1, Build901 2013/11/27)

>  <Rbt.Parameter_File>
/export/apps/rDock/src/rDock_2013.1_src/data/scripts/dock_solv.prm

>  <Rbt.Receptor>
prm/pocket_docking_2.prm

>  <SCORE>
-32.6134

>  <SCORE.INTER>
-31.5338

>  <SCORE.INTER.CONST>
1

>  <SCORE.INTER.POLAR>
0

>  <SCORE.INTER.ROT>
5

>  <SCORE.INTER.SOLV>
5.99287

>  <SCORE.INTER.VDW>
-29.9535

>  <SCORE.INTER.norm>
-1.12621

>  <SCORE.INTRA>
-1.0796

>  <SCORE.INTRA.DIHEDRAL>
-5.19747

>  <SCORE.INTRA.DIHEDRAL.0>
12.0148

>  <SCORE.INTRA.POLAR>
0

>  <SCORE.INTRA.POLAR.0>
0

>  <SCORE.INTRA.REPUL>
0

>  <SCORE.INTRA.REPUL.0>
0

>  <SCORE.INTRA.SOLV>
0.173898

>  <SCORE.INTRA.SOLV.lig_0>
-10.5235

>  <SCORE.INTRA.VDW>
1.43219

>  <SCORE.INTRA.VDW.0>
-1.38455

>  <SCORE.INTRA.norm>
-0.038557

>  <SCORE.RESTR>
0

>  <SCORE.RESTR.CAVITY>
0

>  <SCORE.RESTR.norm>
0

>  <SCORE.SYSTEM>
0

>  <SCORE.SYSTEM.CONST>
0

>  <SCORE.SYSTEM.DIHEDRAL>
0

>  <SCORE.SYSTEM.SOLV>
0

>  <SCORE.SYSTEM.norm>
0

>  <SCORE.heavy>
28

>  <SCORE.norm>
-1.16477

>  <RMSD>
0.925

$$$$
ligand
 OpenBabel11021811413D
libRbt.so/2013.1/901 2013/11/27
 28 32  0  0  0  0  0  0  0  0999 V2000
   43.8396   26.2007   22.1438 C   0  0  0  0  0  0  0  0  0  0  0  0
   42.7197   27.2094   21.9817 C   0  0  0  0  0  0  0  0  0  0  0  0
   41.8842   27.3290   23.2475 C   0  0  0  0  0  0  0  0  0  0  0  0
   34.4024   24.3648   24.0805 O   0  0  0  0  0  0  0  0  0  0  0  0
   35.0163   24.8747   25.2655 C   0  0  0  0  0  0  0  0  0  0  0  0
   38.7542   24.0722   28.3794 C   0  0  0  0  0  0  0  0  0  0  0  0
   38.5128   25.2792   29.0229 C   0  0  0  0  0  0  0  0  0  0  0  0
   37.4845   26.1094   28.5693 C   0  0  0  0  0  0  0  0  0  0  0  0
   36.6978   25.7348   27.4793 C   0  0  0  0  0  0  0  0  0  0  0  0
   36.2092   24.0049   25.6826 C   0  0  1  0  0  0  0  0  0  0  0  0
   36.9385   24.5224   26.8766 C   0  0  0  0  0  0  0  0  0  0  0  0
   37.9513   23.7117   27.3233 C   0  0  0  0  0  0  0  0  0  0  0  0
   38.1501   22.4963   26.5570 C   0  0  1  0  0  0  0  0  0  0  0  0
   36.7022   20.4853   26.7817 C   0  0  0  0  0  0  0  0  0  0  0  0
   36.8705   21.8142   26.4748 C   0  0  0  0  0  0  0  0  0  0  0  0
   35.8333   22.5849   26.0225 C   0  0  0  0  0  0  0  0  0  0  0  0
   34.5743   22.0250   25.8626 C   0  0  0  0  0  0  0  0  0  0  0  0
   34.3828   20.6810   26.1901 C   0  0  0  0  0  0  0  0  0  0  0  0
   35.4462   19.9160   26.6511 C   0  0  0  0  0  0  0  0  0  0  0  0
   40.9478   26.1358   23.3871 C   0  0  0  0  0  0  0  0  0  0  0  0
   40.1446   26.2368   24.6785 C   0  0  0  0  0  0  0  0  0  0  0  0
   37.5083   26.1365   23.9595 O   0  0  0  0  0  0  0  0  0  0  0  0
   40.6983   23.5998   25.5322 O   0  0  0  0  0  0  0  0  0  0  0  0
   39.5940   23.9258   25.1292 C   0  0  0  0  0  0  0  0  0  0  0  0
   39.2577   25.0848   24.7145 N   0  0  0  0  0  0  0  0  0  0  0  0
   38.0431   25.1451   24.3841 C   0  0  0  0  0  0  0  0  0  0  0  0
   37.3093   23.8703   24.6178 C   0  0  1  0  0  0  0  0  0  0  0  0
   38.4418   22.9854   25.1450 C   0  0  2  0  0  0  0  0  0  0  0  0
  1  2  1  0  0  0  0
  2  3  1  0  0  0  0
  3 20  1  0  0  0  0
  4  5  1  0  0  0  0
  6  7  2  0  0  0  0
  6 12  1  0  0  0  0
  7  8  1  0  0  0  0
  8  9  2  0  0  0  0
  9 11  1  0  0  0  0
 10  5  1  6  0  0  0
 10 11  1  0  0  0  0
 10 16  1  0  0  0  0
 10 27  1  0  0  0  0
 11 12  2  0  0  0  0
 13 12  1  1  0  0  0
 13 15  1  0  0  0  0
 13 28  1  0  0  0  0
 14 15  2  0  0  0  0
 14 19  1  0  0  0  0
 15 16  1  0  0  0  0
 16 17  2  0  0  0  0
 17 18  1  0  0  0  0
 18 19  2  0  0  0  0
 20 21  1  0  0  0  0
 21 25  1  0  0  0  0
 22 26  2  0  0  0  0
 23 24  2  0  0  0  0
 24 25  1  0  0  0  0
 25 26  1  0  0  0  0
 27 26  1  1  0  0  0
 27 28  1  0  0  0  0
 28 24  1  1  0  0  0
M  END
>  <CHROM.1>
-76.23826807,177.08905249,178.19269154,178.53461376,83.59342983,38.10889557
24.25321156,25.45661413,0.56071529,-0.44879549,-1.26772163

>  <Name>
ligand

>  <RI>
0

>  <Rbt.Current_Directory>
/home/itssahil/PROJECTS/Mol_Feturizer/New_Systems/rnas/1YLS

>  <Rbt.Executable>
rbdock ($Id: //depot/dev/client3/rdock/2013.1/src/exe/rbdock.cxx#4 $)

>  <Rbt.Library>
libRbt.so (2013.1, Build901 2013/11/27)

>  <Rbt.Parameter_File>
/export/apps/rDock/src/rDock_2013.1_src/data/scripts/dock_solv.prm

>  <Rbt.Receptor>
prm/pocket_docking_5.prm

>  <SCORE>
-38.0273

>  <SCORE.INTER>
-34.4855

>  <SCORE.INTER.CONST>
1

>  <SCORE.INTER.POLAR>
0

>  <SCORE.INTER.ROT>
5

>  <SCORE.INTER.SOLV>
7.45994

>  <SCORE.INTER.VDW>
-32.4103

>  <SCORE.INTER.norm>
-1.23162

>  <SCORE.INTRA>
-3.54183

>  <SCORE.INTRA.DIHEDRAL>
-8.70605

>  <SCORE.INTRA.DIHEDRAL.0>
12.0148

>  <SCORE.INTRA.POLAR>
0

>  <SCORE.INTRA.POLAR.0>
0

>  <SCORE.INTRA.REPUL>
0

>  <SCORE.INTRA.REPUL.0>
0

>  <SCORE.INTRA.SOLV>
0.142969

>  <SCORE.INTRA.SOLV.lig_0>
-10.5235

>  <SCORE.INTRA.VDW>
0.739708

>  <SCORE.INTRA.VDW.0>
-1.38455

>  <SCORE.INTRA.norm>
-0.126494

>  <SCORE.RESTR>
0

>  <SCORE.RESTR.CAVITY>
0

>  <SCORE.RESTR.norm>
0

>  <SCORE.SYSTEM>
0

>  <SCORE.SYSTEM.CONST>
0

>  <SCORE.SYSTEM.DIHEDRAL>
0

>  <SCORE.SYSTEM.SOLV>
0

>  <SCORE.SYSTEM.norm>
0

>  <SCORE.heavy>
28

>  <SCORE.norm>
-1.35812

>  <RMSD>
0.925

$$$$
ligand
 OpenBabel11021811413D
libRbt.so/2013.1/901 2013/11/27
 28 32  0  0  0  0  0  0  0  0999 V2000
   43.8760   27.6388   22.5105 C   0  0  0  0  0  0  0  0  0  0  0  0
   42.7051   26.7448   22.8677 C   0  0  0  0  0  0  0  0  0  0  0  0
   41.3897   27.5092   22.8526 C   0  0  0  0  0  0  0  0  0  0  0  0
   33.9934   25.2360   26.2670 O   0  0  0  0  0  0  0  0  0  0  0  0
   34.9097   25.0664   25.1840 C   0  0  0  0  0  0  0  0  0  0  0  0
   38.6522   24.0638   28.2338 C   0  0  0  0  0  0  0  0  0  0  0  0
   38.4872   25.2821   28.8803 C   0  0  0  0  0  0  0  0  0  0  0  0
   37.4974   26.1664   28.4436 C   0  0  0  0  0  0  0  0  0  0  0  0
   36.6730   25.8347   27.3678 C   0  0  0  0  0  0  0  0  0  0  0  0
   36.0611   24.1336   25.5813 C   0  0  1  0  0  0  0  0  0  0  0  0
   36.8377   24.6111   26.7621 C   0  0  0  0  0  0  0  0  0  0  0  0
   37.8129   23.7470   27.1920 C   0  0  0  0  0  0  0  0  0  0  0  0
   37.9328   22.5227   26.4235 C   0  0  1  0  0  0  0  0  0  0  0  0
   36.3828   20.5926   26.6751 C   0  0  0  0  0  0  0  0  0  0  0  0
   36.6171   21.9105   26.3641 C   0  0  0  0  0  0  0  0  0  0  0  0
   35.6152   22.7359   25.9290 C   0  0  0  0  0  0  0  0  0  0  0  0
   34.3253   22.2447   25.7913 C   0  0  0  0  0  0  0  0  0  0  0  0
   34.0674   20.9129   26.1233 C   0  0  0  0  0  0  0  0  0  0  0  0
   35.0959   20.0918   26.5666 C   0  0  0  0  0  0  0  0  0  0  0  0
   40.2147   26.5591   23.0442 C   0  0  0  0  0  0  0  0  0  0  0  0
   40.0930   26.1504   24.5075 C   0  0  0  0  0  0  0  0  0  0  0  0
   37.4431   26.1922   23.8342 O   0  0  0  0  0  0  0  0  0  0  0  0
   40.5186   23.4874   25.3540 O   0  0  0  0  0  0  0  0  0  0  0  0
   39.4267   23.8724   24.9697 C   0  0  0  0  0  0  0  0  0  0  0  0
   39.1462   25.0478   24.5598 N   0  0  0  0  0  0  0  0  0  0  0  0
   37.9310   25.1734   24.2503 C   0  0  0  0  0  0  0  0  0  0  0  0
   37.1338   23.9400   24.4979 C   0  0  1  0  0  0  0  0  0  0  0  0
   38.2259   22.9954   25.0063 C   0  0  2  0  0  0  0  0  0  0  0  0
  1  2  1  0  0  0  0
  2  3  1  0  0  0  0
  3 20  1  0  0  0  0
  4  5  1  0  0  0  0
  6  7  2  0  0  0  0
  6 12  1  0  0  0  0
  7  8  1  0  0  0  0
  8  9  2  0  0  0  0
  9 11  1  0  0  0  0
 10  5  1  6  0  0  0
 10 11  1  0  0  0  0
 10 16  1  0  0  0  0
 10 27  1  0  0  0  0
 11 12  2  0  0  0  0
 13 12  1  1  0  0  0
 13 15  1  0  0  0  0
 13 28  1  0  0  0  0
 14 15  2  0  0  0  0
 14 19  1  0  0  0  0
 15 16  1  0  0  0  0
 16 17  2  0  0  0  0
 17 18  1  0  0  0  0
 18 19  2  0  0  0  0
 20 21  1  0  0  0  0
 21 25  1  0  0  0  0
 22 26  2  0  0  0  0
 23 24  2  0  0  0  0
 24 25  1  0  0  0  0
 25 26  1  0  0  0  0
 27 26  1  1  0  0  0
 27 28  1  0  0  0  0
 28 24  1  1  0  0  0
M  END
>  <CHROM.1>
173.02448347,-58.47226157,76.91997825,-168.40127201,118.28142038,37.91998750
24.40411221,25.47434784,-0.60294289,-0.37858828,2.99535430

>  <Name>
ligand

>  <RI>
0

>  <Rbt.Current_Directory>
/home/itssahil/PROJECTS/Mol_Feturizer/New_Systems/rnas/1YLS

>  <Rbt.Executable>
rbdock ($Id: //depot/dev/client3/rdock/2013.1/src/exe/rbdock.cxx#4 $)

>  <Rbt.Library>
libRbt.so (2013.1, Build901 2013/11/27)

>  <Rbt.Parameter_File>
/export/apps/rDock/src/rDock_2013.1_src/data/scripts/dock_solv.prm

>  <Rbt.Receptor>
prm/pocket_docking_5.prm

>  <SCORE>
-37.3598

>  <SCORE.INTER>
-34.4323

>  <SCORE.INTER.CONST>
1

>  <SCORE.INTER.POLAR>
0

>  <SCORE.INTER.ROT>
5

>  <SCORE.INTER.SOLV>
7.99581

>  <SCORE.INTER.VDW>
-32.5535

>  <SCORE.INTER.norm>
-1.22973

>  <SCORE.INTRA>
-2.92746

>  <SCORE.INTRA.DIHEDRAL>
-7.81035

>  <SCORE.INTRA.DIHEDRAL.0>
12.0148

>  <SCORE.INTRA.POLAR>
0

>  <SCORE.INTRA.POLAR.0>
0

>  <SCORE.INTRA.REPUL>
0

>  <SCORE.INTRA.REPUL.0>
0

>  <SCORE.INTRA.SOLV>
-0.00830264

>  <SCORE.INTRA.SOLV.lig_0>
-10.5235

>  <SCORE.INTRA.VDW>
0.981867

>  <SCORE.INTRA.VDW.0>
-1.38455

>  <SCORE.INTRA.norm>
-0.104552

>  <SCORE.RESTR>
0

>  <SCORE.RESTR.CAVITY>
0

>  <SCORE.RESTR.norm>
0

>  <SCORE.SYSTEM>
0

>  <SCORE.SYSTEM.CONST>
0

>  <SCORE.SYSTEM.DIHEDRAL>
0

>  <SCORE.SYSTEM.SOLV>
0

>  <SCORE.SYSTEM.norm>
0

>  <SCORE.heavy>
28

>  <SCORE.norm>
-1.33428

>  <RMSD>
0.925

$$$$
ligand
 OpenBabel11021811413D
libRbt.so/2013.1/901 2013/11/27
 28 32  0  0  0  0  0  0  0  0999 V2000
   43.9956   27.9966   22.2048 C   0  0  0  0  0  0  0  0  0  0  0  0
   42.8248   27.0343   22.1700 C   0  0  0  0  0  0  0  0  0  0  0  0
   41.8485   27.2962   23.3071 C   0  0  0  0  0  0  0  0  0  0  0  0
   33.7668   25.1972   26.3023 O   0  0  0  0  0  0  0  0  0  0  0  0
   34.7176   25.1532   25.2368 C   0  0  0  0  0  0  0  0  0  0  0  0
   38.5198   24.1824   28.2223 C   0  0  0  0  0  0  0  0  0  0  0  0
   38.3226   25.3754   28.9059 C   0  0  0  0  0  0  0  0  0  0  0  0
   37.3009   26.2398   28.5044 C   0  0  0  0  0  0  0  0  0  0  0  0
   36.4770   25.9135   27.4266 C   0  0  0  0  0  0  0  0  0  0  0  0
   35.9019   24.2466   25.5961 C   0  0  1  0  0  0  0  0  0  0  0  0
   36.6745   24.7140   26.7835 C   0  0  0  0  0  0  0  0  0  0  0  0
   37.6809   23.8695   27.1791 C   0  0  0  0  0  0  0  0  0  0  0  0
   37.8321   22.6726   26.3737 C   0  0  1  0  0  0  0  0  0  0  0  0
   36.3468   20.6873   26.5818 C   0  0  0  0  0  0  0  0  0  0  0  0
   36.5360   22.0206   26.3079 C   0  0  0  0  0  0  0  0  0  0  0  0
   35.5041   22.8257   25.9063 C   0  0  0  0  0  0  0  0  0  0  0  0
   34.2292   22.2976   25.7656 C   0  0  0  0  0  0  0  0  0  0  0  0
   34.0171   20.9491   26.0603 C   0  0  0  0  0  0  0  0  0  0  0  0
   35.0755   20.1488   26.4700 C   0  0  0  0  0  0  0  0  0  0  0  0
   40.7503   26.2410   23.3251 C   0  0  0  0  0  0  0  0  0  0  0  0
   39.8569   26.4223   24.5466 C   0  0  0  0  0  0  0  0  0  0  0  0
   37.2005   26.3987   23.8984 O   0  0  0  0  0  0  0  0  0  0  0  0
   40.3752   23.7507   25.3102 O   0  0  0  0  0  0  0  0  0  0  0  0
   39.2679   24.1115   24.9472 C   0  0  0  0  0  0  0  0  0  0  0  0
   38.9462   25.2888   24.5747 N   0  0  0  0  0  0  0  0  0  0  0  0
   37.7247   25.3844   24.2799 C   0  0  0  0  0  0  0  0  0  0  0  0
   36.9696   24.1194   24.4980 C   0  0  1  0  0  0  0  0  0  0  0  0
   38.0961   23.1958   24.9685 C   0  0  2  0  0  0  0  0  0  0  0  0
  1  2  1  0  0  0  0
  2  3  1  0  0  0  0
  3 20  1  0  0  0  0
  4  5  1  0  0  0  0
  6  7  2  0  0  0  0
  6 12  1  0  0  0  0
  7  8  1  0  0  0  0
  8  9  2  0  0  0  0
  9 11  1  0  0  0  0
 10  5  1  6  0  0  0
 10 11  1  0  0  0  0
 10 16  1  0  0  0  0
 10 27  1  0  0  0  0
 11 12  2  0  0  0  0
 13 12  1  1  0  0  0
 13 15  1  0  0  0  0
 13 28  1  0  0  0  0
 14 15  2  0  0  0  0
 14 19  1  0  0  0  0
 15 16  1  0  0  0  0
 16 17  2  0  0  0  0
 17 18  1  0  0  0  0
 18 19  2  0  0  0  0
 20 21  1  0  0  0  0
 21 25  1  0  0  0  0
 22 26  2  0  0  0  0
 23 24  2  0  0  0  0
 24 25  1  0  0  0  0
 25 26  1  0  0  0  0
 27 26  1  1  0  0  0
 27 28  1  0  0  0  0
 28 24  1  1  0  0  0
M  END
>  <CHROM.1>
-174.90452828,-61.97885847,174.24878874,-173.21853121,76.21278540,37.84032908
24.52236507,25.46031760,-0.46145728,-0.51755033,-3.01687790

>  <Name>
ligand

>  <RI>
0

>  <Rbt.Current_Directory>
/home/itssahil/PROJECTS/Mol_Feturizer/New_Systems/rnas/1YLS

>  <Rbt.Executable>
rbdock ($Id: //depot/dev/client3/rdock/2013.1/src/exe/rbdock.cxx#4 $)

>  <Rbt.Library>
libRbt.so (2013.1, Build901 2013/11/27)

>  <Rbt.Parameter_File>
/export/apps/rDock/src/rDock_2013.1_src/data/scripts/dock_solv.prm

>  <Rbt.Receptor>
prm/pocket_docking_5.prm

>  <SCORE>
-38.6902

>  <SCORE.INTER>
-34.0207

>  <SCORE.INTER.CONST>
1

>  <SCORE.INTER.POLAR>
0

>  <SCORE.INTER.ROT>
5

>  <SCORE.INTER.SOLV>
7.84759

>  <SCORE.INTER.VDW>
-32.2296

>  <SCORE.INTER.norm>
-1.21502

>  <SCORE.INTRA>
-4.66953

>  <SCORE.INTRA.DIHEDRAL>
-9.32108

>  <SCORE.INTRA.DIHEDRAL.0>
12.0148

>  <SCORE.INTRA.POLAR>
0

>  <SCORE.INTRA.POLAR.0>
0

>  <SCORE.INTRA.REPUL>
0

>  <SCORE.INTRA.REPUL.0>
0

>  <SCORE.INTRA.SOLV>
-0.0350659

>  <SCORE.INTRA.SOLV.lig_0>
-10.5235

>  <SCORE.INTRA.VDW>
0.00853725

>  <SCORE.INTRA.VDW.0>
-1.38455

>  <SCORE.INTRA.norm>
-0.166769

>  <SCORE.RESTR>
0

>  <SCORE.RESTR.CAVITY>
0

>  <SCORE.RESTR.norm>
0

>  <SCORE.SYSTEM>
0

>  <SCORE.SYSTEM.CONST>
0

>  <SCORE.SYSTEM.DIHEDRAL>
0

>  <SCORE.SYSTEM.SOLV>
0

>  <SCORE.SYSTEM.norm>
0

>  <SCORE.heavy>
28

>  <SCORE.norm>
-1.38179

>  <RMSD>
0.927

$$$$
ligand
 OpenBabel11021811413D
libRbt.so/2013.1/901 2013/11/27
 28 32  0  0  0  0  0  0  0  0999 V2000
   44.0347   27.9693   22.2113 C   0  0  0  0  0  0  0  0  0  0  0  0
   42.8823   26.9846   22.2083 C   0  0  0  0  0  0  0  0  0  0  0  0
   41.8700   27.3015   23.2990 C   0  0  0  0  0  0  0  0  0  0  0  0
   33.8166   25.3250   26.4349 O   0  0  0  0  0  0  0  0  0  0  0  0
   34.7221   25.2702   25.3313 C   0  0  0  0  0  0  0  0  0  0  0  0
   38.5810   24.1334   28.1825 C   0  0  0  0  0  0  0  0  0  0  0  0
   38.4275   25.3094   28.9056 C   0  0  0  0  0  0  0  0  0  0  0  0
   37.4143   26.2062   28.5574 C   0  0  0  0  0  0  0  0  0  0  0  0
   36.5551   25.9290   27.4934 C   0  0  0  0  0  0  0  0  0  0  0  0
   35.8960   24.3292   25.6316 C   0  0  1  0  0  0  0  0  0  0  0  0
   36.7098   24.7452   26.8107 C   0  0  0  0  0  0  0  0  0  0  0  0
   37.7080   23.8688   27.1539 C   0  0  0  0  0  0  0  0  0  0  0  0
   37.8121   22.6935   26.3103 C   0  0  1  0  0  0  0  0  0  0  0  0
   36.2908   20.7338   26.5011 C   0  0  0  0  0  0  0  0  0  0  0  0
   36.5011   22.0704   26.2609 C   0  0  0  0  0  0  0  0  0  0  0  0
   35.4763   22.9082   25.9112 C   0  0  0  0  0  0  0  0  0  0  0  0
   34.1871   22.4109   25.7900 C   0  0  0  0  0  0  0  0  0  0  0  0
   33.9542   21.0589   26.0512 C   0  0  0  0  0  0  0  0  0  0  0  0
   35.0058   20.2252   26.4084 C   0  0  0  0  0  0  0  0  0  0  0  0
   40.7549   26.2640   23.3139 C   0  0  0  0  0  0  0  0  0  0  0  0
   39.8672   26.4531   24.5383 C   0  0  0  0  0  0  0  0  0  0  0  0
   37.1945   26.5034   23.9624 O   0  0  0  0  0  0  0  0  0  0  0  0
   40.3485   23.7500   25.2096 O   0  0  0  0  0  0  0  0  0  0  0  0
   39.2399   24.1441   24.8876 C   0  0  0  0  0  0  0  0  0  0  0  0
   38.9335   25.3383   24.5583 N   0  0  0  0  0  0  0  0  0  0  0  0
   37.7069   25.4677   24.2998 C   0  0  0  0  0  0  0  0  0  0  0  0
   36.9310   24.2125   24.5016 C   0  0  1  0  0  0  0  0  0  0  0  0
   38.0497   23.2524   24.9142 C   0  0  2  0  0  0  0  0  0  0  0  0
  1  2  1  0  0  0  0
  2  3  1  0  0  0  0
  3 20  1  0  0  0  0
  4  5  1  0  0  0  0
  6  7  2  0  0  0  0
  6 12  1  0  0  0  0
  7  8  1  0  0  0  0
  8  9  2  0  0  0  0
  9 11  1  0  0  0  0
 10  5  1  6  0  0  0
 10 11  1  0  0  0  0
 10 16  1  0  0  0  0
 10 27  1  0  0  0  0
 11 12  2  0  0  0  0
 13 12  1  1  0  0  0
 13 15  1  0  0  0  0
 13 28  1  0  0  0  0
 14 15  2  0  0  0  0
 14 19  1  0  0  0  0
 15 16  1  0  0  0  0
 16 17  2  0  0  0  0
 17 18  1  0  0  0  0
 18 19  2  0  0  0  0
 20 21  1  0  0  0  0
 21 25  1  0  0  0  0
 22 26  2  0  0  0  0
 23 24  2  0  0  0  0
 24 25  1  0  0  0  0
 25 26  1  0  0  0  0
 27 26  1  1  0  0  0
 27 28  1  0  0  0  0
 28 24  1  1  0  0  0
M  END
>  <CHROM.1>
-177.54432471,-60.69432624,171.02981971,-173.52713832,74.33030298,37.84467402
24.56297672,25.46112398,-0.43364452,-0.52684221,-2.98278322

>  <Name>
ligand

>  <RI>
0

>  <Rbt.Current_Directory>
/home/itssahil/PROJECTS/Mol_Feturizer/New_Systems/rnas/1YLS

>  <Rbt.Executable>
rbdock ($Id: //depot/dev/client3/rdock/2013.1/src/exe/rbdock.cxx#4 $)

>  <Rbt.Library>
libRbt.so (2013.1, Build901 2013/11/27)

>  <Rbt.Parameter_File>
/export/apps/rDock/src/rDock_2013.1_src/data/scripts/dock_solv.prm

>  <Rbt.Receptor>
prm/pocket_docking_6.prm

>  <SCORE>
-38.4951

>  <SCORE.INTER>
-33.8913

>  <SCORE.INTER.CONST>
1

>  <SCORE.INTER.POLAR>
0

>  <SCORE.INTER.ROT>
5

>  <SCORE.INTER.SOLV>
7.94085

>  <SCORE.INTER.VDW>
-32.1745

>  <SCORE.INTER.norm>
-1.2104

>  <SCORE.INTRA>
-4.60378

>  <SCORE.INTRA.DIHEDRAL>
-9.21802

>  <SCORE.INTRA.DIHEDRAL.0>
12.0148

>  <SCORE.INTRA.POLAR>
0

>  <SCORE.INTRA.POLAR.0>
0

>  <SCORE.INTRA.REPUL>
0

>  <SCORE.INTRA.REPUL.0>
0

>  <SCORE.INTRA.SOLV>
-0.0324034

>  <SCORE.INTRA.SOLV.lig_0>
-10.5235

>  <SCORE.INTRA.VDW>
0.0214318

>  <SCORE.INTRA.VDW.0>
-1.38455

>  <SCORE.INTRA.norm>
-0.164421

>  <SCORE.RESTR>
0

>  <SCORE.RESTR.CAVITY>
0

>  <SCORE.RESTR.norm>
0

>  <SCORE.SYSTEM>
0

>  <SCORE.SYSTEM.CONST>
0

>  <SCORE.SYSTEM.DIHEDRAL>
0

>  <SCORE.SYSTEM.SOLV>
0

>  <SCORE.SYSTEM.norm>
0

>  <SCORE.heavy>
28

>  <SCORE.norm>
-1.37482

>  <RMSD>
0.929

$$$$
ligand
 OpenBabel11021811413D
libRbt.so/2013.1/901 2013/11/27
 28 32  0  0  0  0  0  0  0  0999 V2000
   44.3077   26.9997   21.6859 C   0  0  0  0  0  0  0  0  0  0  0  0
   42.8517   26.6433   21.9116 C   0  0  0  0  0  0  0  0  0  0  0  0
   42.5482   26.4291   23.3870 C   0  0  0  0  0  0  0  0  0  0  0  0
   36.1472   26.4161   24.9302 O   0  0  0  0  0  0  0  0  0  0  0  0
   35.5272   25.1311   25.0060 C   0  0  0  0  0  0  0  0  0  0  0  0
   38.6856   23.8261   28.5605 C   0  0  0  0  0  0  0  0  0  0  0  0
   38.5839   25.0803   29.1486 C   0  0  0  0  0  0  0  0  0  0  0  0
   37.7739   26.0548   28.5599 C   0  0  0  0  0  0  0  0  0  0  0  0
   37.0654   25.7777   27.3902 C   0  0  0  0  0  0  0  0  0  0  0  0
   36.4956   24.0882   25.5789 C   0  0  1  0  0  0  0  0  0  0  0  0
   37.1608   24.5198   26.8425 C   0  0  0  0  0  0  0  0  0  0  0  0
   37.9597   23.5669   27.4221 C   0  0  0  0  0  0  0  0  0  0  0  0
   38.0325   22.3070   26.7070 C   0  0  1  0  0  0  0  0  0  0  0  0
   36.2425   20.5807   26.7919 C   0  0  0  0  0  0  0  0  0  0  0  0
   36.6724   21.8491   26.4838 C   0  0  0  0  0  0  0  0  0  0  0  0
   35.8432   22.7666   25.8964 C   0  0  0  0  0  0  0  0  0  0  0  0
   34.5334   22.4226   25.5963 C   0  0  0  0  0  0  0  0  0  0  0  0
   34.0759   21.1440   25.9223 C   0  0  0  0  0  0  0  0  0  0  0  0
   34.9307   20.2280   26.5214 C   0  0  0  0  0  0  0  0  0  0  0  0
   41.0873   26.0456   23.5841 C   0  0  0  0  0  0  0  0  0  0  0  0
   40.8468   25.5805   25.0155 C   0  0  0  0  0  0  0  0  0  0  0  0
   38.3336   25.9013   23.9868 O   0  0  0  0  0  0  0  0  0  0  0  0
   40.8340   22.9225   25.9765 O   0  0  0  0  0  0  0  0  0  0  0  0
   39.8567   23.4153   25.4379 C   0  0  0  0  0  0  0  0  0  0  0  0
   39.7760   24.5978   24.9651 N   0  0  0  0  0  0  0  0  0  0  0  0
   38.6364   24.8506   24.4901 C   0  0  0  0  0  0  0  0  0  0  0  0
   37.6713   23.7285   24.6567 C   0  0  1  0  0  0  0  0  0  0  0  0
   38.5652   22.6852   25.3318 C   0  0  2  0  0  0  0  0  0  0  0  0
  1  2  1  0  0  0  0
  2  3  1  0  0  0  0
  3 20  1  0  0  0  0
  4  5  1  0  0  0  0
  6  7  2  0  0  0  0
  6 12  1  0  0  0  0
  7  8  1  0  0  0  0
  8  9  2  0  0  0  0
  9 11  1  0  0  0  0
 10  5  1  6  0  0  0
 10 11  1  0  0  0  0
 10 16  1  0  0  0  0
 10 27  1  0  0  0  0
 11 12  2  0  0  0  0
 13 12  1  1  0  0  0
 13 15  1  0  0  0  0
 13 28  1  0  0  0  0
 14 15  2  0  0  0  0
 14 19  1  0  0  0  0
 15 16  1  0  0  0  0
 16 17  2  0  0  0  0
 17 18  1  0  0  0  0
 18 19  2  0  0  0  0
 20 21  1  0  0  0  0
 21 25  1  0  0  0  0
 22 26  2  0  0  0  0
 23 24  2  0  0  0  0
 24 25  1  0  0  0  0
 25 26  1  0  0  0  0
 27 26  1  1  0  0  0
 27 28  1  0  0  0  0
 28 24  1  1  0  0  0
M  END
>  <CHROM.1>
-178.87638085,49.81437766,169.44460962,-149.24064738,125.36686973,38.37848913
24.22499912,25.52550820,0.36851350,-0.58083070,-1.68581138

>  <Name>
ligand

>  <RI>
0

>  <Rbt.Current_Directory>
/home/itssahil/PROJECTS/Mol_Feturizer/New_Systems/rnas/1YLS

>  <Rbt.Executable>
rbdock ($Id: //depot/dev/client3/rdock/2013.1/src/exe/rbdock.cxx#4 $)

>  <Rbt.Library>
libRbt.so (2013.1, Build901 2013/11/27)

>  <Rbt.Parameter_File>
/export/apps/rDock/src/rDock_2013.1_src/data/scripts/dock_solv.prm

>  <Rbt.Receptor>
prm/pocket_docking_3.prm

>  <SCORE>
-32.6743

>  <SCORE.INTER>
-32.3335

>  <SCORE.INTER.CONST>
1

>  <SCORE.INTER.POLAR>
0

>  <SCORE.INTER.ROT>
5

>  <SCORE.INTER.SOLV>
6.45258

>  <SCORE.INTER.VDW>
-30.6398

>  <SCORE.INTER.norm>
-1.15477

>  <SCORE.INTRA>
-0.340818

>  <SCORE.INTRA.DIHEDRAL>
-5.93565

>  <SCORE.INTRA.DIHEDRAL.0>
12.0148

>  <SCORE.INTRA.POLAR>
0

>  <SCORE.INTRA.POLAR.0>
0

>  <SCORE.INTRA.REPUL>
0

>  <SCORE.INTRA.REPUL.0>
0

>  <SCORE.INTRA.SOLV>
0.613746

>  <SCORE.INTRA.SOLV.lig_0>
-10.5235

>  <SCORE.INTRA.VDW>
2.32013

>  <SCORE.INTRA.VDW.0>
-1.38455

>  <SCORE.INTRA.norm>
-0.0121721

>  <SCORE.RESTR>
0

>  <SCORE.RESTR.CAVITY>
0

>  <SCORE.RESTR.norm>
0

>  <SCORE.SYSTEM>
0

>  <SCORE.SYSTEM.CONST>
0

>  <SCORE.SYSTEM.DIHEDRAL>
0

>  <SCORE.SYSTEM.SOLV>
0

>  <SCORE.SYSTEM.norm>
0

>  <SCORE.heavy>
28

>  <SCORE.norm>
-1.16694

>  <RMSD>
0.931

$$$$
ligand
 OpenBabel11021811413D
libRbt.so/2013.1/901 2013/11/27
 28 32  0  0  0  0  0  0  0  0999 V2000
   43.7716   26.2233   22.0737 C   0  0  0  0  0  0  0  0  0  0  0  0
   42.6751   27.2675   22.0006 C   0  0  0  0  0  0  0  0  0  0  0  0
   41.8858   27.3448   23.2990 C   0  0  0  0  0  0  0  0  0  0  0  0
   34.3849   24.3459   24.1668 O   0  0  0  0  0  0  0  0  0  0  0  0
   35.0340   24.8677   25.3276 C   0  0  0  0  0  0  0  0  0  0  0  0
   38.7864   24.0241   28.4131 C   0  0  0  0  0  0  0  0  0  0  0  0
   38.5496   25.2236   29.0721 C   0  0  0  0  0  0  0  0  0  0  0  0
   37.5200   26.0602   28.6335 C   0  0  0  0  0  0  0  0  0  0  0  0
   36.7275   25.6996   27.5431 C   0  0  0  0  0  0  0  0  0  0  0  0
   36.2280   23.9917   25.7283 C   0  0  1  0  0  0  0  0  0  0  0  0
   36.9639   24.4941   26.9248 C   0  0  0  0  0  0  0  0  0  0  0  0
   37.9779   23.6771   27.3568 C   0  0  0  0  0  0  0  0  0  0  0  0
   38.1715   22.4707   26.5750 C   0  0  1  0  0  0  0  0  0  0  0  0
   36.7224   20.4587   26.7830 C   0  0  0  0  0  0  0  0  0  0  0  0
   36.8907   21.7910   26.4911 C   0  0  0  0  0  0  0  0  0  0  0  0
   35.8522   22.5682   26.0532 C   0  0  0  0  0  0  0  0  0  0  0  0
   34.5917   22.0117   25.8928 C   0  0  0  0  0  0  0  0  0  0  0  0
   34.4003   20.6640   26.2052 C   0  0  0  0  0  0  0  0  0  0  0  0
   35.4651   19.8925   26.6518 C   0  0  0  0  0  0  0  0  0  0  0  0
   40.9575   26.1448   23.4348 C   0  0  0  0  0  0  0  0  0  0  0  0
   40.1610   26.2311   24.7313 C   0  0  0  0  0  0  0  0  0  0  0  0
   37.5210   26.1423   24.0244 O   0  0  0  0  0  0  0  0  0  0  0  0
   40.7158   23.5836   25.5508 O   0  0  0  0  0  0  0  0  0  0  0  0
   39.6100   23.9155   25.1572 C   0  0  0  0  0  0  0  0  0  0  0  0
   39.2730   25.0798   24.7580 N   0  0  0  0  0  0  0  0  0  0  0  0
   38.0568   25.1453   24.4344 C   0  0  0  0  0  0  0  0  0  0  0  0
   37.3227   23.8687   24.6566 C   0  0  1  0  0  0  0  0  0  0  0  0
   38.4568   22.9763   25.1675 C   0  0  2  0  0  0  0  0  0  0  0  0
  1  2  1  0  0  0  0
  2  3  1  0  0  0  0
  3 20  1  0  0  0  0
  4  5  1  0  0  0  0
  6  7  2  0  0  0  0
  6 12  1  0  0  0  0
  7  8  1  0  0  0  0
  8  9  2  0  0  0  0
  9 11  1  0  0  0  0
 10  5  1  6  0  0  0
 10 11  1  0  0  0  0
 10 16  1  0  0  0  0
 10 27  1  0  0  0  0
 11 12  2  0  0  0  0
 13 12  1  1  0  0  0
 13 15  1  0  0  0  0
 13 28  1  0  0  0  0
 14 15  2  0  0  0  0
 14 19  1  0  0  0  0
 15 16  1  0  0  0  0
 16 17  2  0  0  0  0
 17 18  1  0  0  0  0
 18 19  2  0  0  0  0
 20 21  1  0  0  0  0
 21 25  1  0  0  0  0
 22 26  2  0  0  0  0
 23 24  2  0  0  0  0
 24 25  1  0  0  0  0
 25 26  1  0  0  0  0
 27 26  1  1  0  0  0
 27 28  1  0  0  0  0
 28 24  1  1  0  0  0
M  END
>  <CHROM.1>
-74.24614237,179.14141137,-179.57327021,178.04688294,83.60264953,38.12044624
24.24112420,25.49129482,0.55181409,-0.47297232,-1.29808929

>  <Name>
ligand

>  <RI>
0

>  <Rbt.Current_Directory>
/home/itssahil/PROJECTS/Mol_Feturizer/New_Systems/rnas/1YLS

>  <Rbt.Executable>
rbdock ($Id: //depot/dev/client3/rdock/2013.1/src/exe/rbdock.cxx#4 $)

>  <Rbt.Library>
libRbt.so (2013.1, Build901 2013/11/27)

>  <Rbt.Parameter_File>
/export/apps/rDock/src/rDock_2013.1_src/data/scripts/dock_solv.prm

>  <Rbt.Receptor>
prm/pocket_docking_7.prm

>  <SCORE>
-38.0124

>  <SCORE.INTER>
-34.4467

>  <SCORE.INTER.CONST>
1

>  <SCORE.INTER.POLAR>
0

>  <SCORE.INTER.ROT>
5

>  <SCORE.INTER.SOLV>
7.37478

>  <SCORE.INTER.VDW>
-32.3561

>  <SCORE.INTER.norm>
-1.23024

>  <SCORE.INTRA>
-3.56565

>  <SCORE.INTRA.DIHEDRAL>
-8.95917

>  <SCORE.INTRA.DIHEDRAL.0>
12.0148

>  <SCORE.INTRA.POLAR>
0

>  <SCORE.INTRA.POLAR.0>
0

>  <SCORE.INTRA.REPUL>
0

>  <SCORE.INTRA.REPUL.0>
0

>  <SCORE.INTRA.SOLV>
0.130138

>  <SCORE.INTRA.SOLV.lig_0>
-10.5235

>  <SCORE.INTRA.VDW>
0.848865

>  <SCORE.INTRA.VDW.0>
-1.38455

>  <SCORE.INTRA.norm>
-0.127345

>  <SCORE.RESTR>
0

>  <SCORE.RESTR.CAVITY>
0

>  <SCORE.RESTR.norm>
0

>  <SCORE.SYSTEM>
0

>  <SCORE.SYSTEM.CONST>
0

>  <SCORE.SYSTEM.DIHEDRAL>
0

>  <SCORE.SYSTEM.SOLV>
0

>  <SCORE.SYSTEM.norm>
0

>  <SCORE.heavy>
28

>  <SCORE.norm>
-1.35758

>  <RMSD>
0.931

$$$$
ligand
 OpenBabel11021811413D
libRbt.so/2013.1/901 2013/11/27
 28 32  0  0  0  0  0  0  0  0999 V2000
   43.9766   28.0193   22.1948 C   0  0  0  0  0  0  0  0  0  0  0  0
   42.7999   27.0643   22.1596 C   0  0  0  0  0  0  0  0  0  0  0  0
   41.8767   27.2666   23.3519 C   0  0  0  0  0  0  0  0  0  0  0  0
   33.7913   25.2240   26.3484 O   0  0  0  0  0  0  0  0  0  0  0  0
   34.7204   25.1548   25.2653 C   0  0  0  0  0  0  0  0  0  0  0  0
   38.5291   24.1525   28.2321 C   0  0  0  0  0  0  0  0  0  0  0  0
   38.3381   25.3418   28.9238 C   0  0  0  0  0  0  0  0  0  0  0  0
   37.3181   26.2121   28.5311 C   0  0  0  0  0  0  0  0  0  0  0  0
   36.4895   25.8954   27.4540 C   0  0  0  0  0  0  0  0  0  0  0  0
   35.9029   24.2420   25.6150 C   0  0  1  0  0  0  0  0  0  0  0  0
   36.6809   24.6993   26.8028 C   0  0  0  0  0  0  0  0  0  0  0  0
   37.6857   23.8490   27.1897 C   0  0  0  0  0  0  0  0  0  0  0  0
   37.8303   22.6567   26.3763 C   0  0  1  0  0  0  0  0  0  0  0  0
   36.3390   20.6750   26.5769 C   0  0  0  0  0  0  0  0  0  0  0  0
   36.5318   22.0094   26.3107 C   0  0  0  0  0  0  0  0  0  0  0  0
   35.5013   22.8205   25.9176 C   0  0  0  0  0  0  0  0  0  0  0  0
   34.2242   22.2976   25.7778 C   0  0  0  0  0  0  0  0  0  0  0  0
   34.0085   20.9480   26.0647 C   0  0  0  0  0  0  0  0  0  0  0  0
   35.0655   20.1416   26.4659 C   0  0  0  0  0  0  0  0  0  0  0  0
   40.7745   26.2153   23.3614 C   0  0  0  0  0  0  0  0  0  0  0  0
   39.8617   26.4109   24.5661 C   0  0  0  0  0  0  0  0  0  0  0  0
   37.2031   26.4003   23.9265 O   0  0  0  0  0  0  0  0  0  0  0  0
   40.3735   23.7329   25.3113 O   0  0  0  0  0  0  0  0  0  0  0  0
   39.2663   24.0997   24.9542 C   0  0  0  0  0  0  0  0  0  0  0  0
   38.9473   25.2804   24.5901 N   0  0  0  0  0  0  0  0  0  0  0  0
   37.7251   25.3819   24.3000 C   0  0  0  0  0  0  0  0  0  0  0  0
   36.9665   24.1180   24.5126 C   0  0  1  0  0  0  0  0  0  0  0  0
   38.0915   23.1878   24.9736 C   0  0  2  0  0  0  0  0  0  0  0  0
  1  2  1  0  0  0  0
  2  3  1  0  0  0  0
  3 20  1  0  0  0  0
  4  5  1  0  0  0  0
  6  7  2  0  0  0  0
  6 12  1  0  0  0  0
  7  8  1  0  0  0  0
  8  9  2  0  0  0  0
  9 11  1  0  0  0  0
 10  5  1  6  0  0  0
 10 11  1  0  0  0  0
 10 16  1  0  0  0  0
 10 27  1  0  0  0  0
 11 12  2  0  0  0  0
 13 12  1  1  0  0  0
 13 15  1  0  0  0  0
 13 28  1  0  0  0  0
 14 15  2  0  0  0  0
 14 19  1  0  0  0  0
 15 16  1  0  0  0  0
 16 17  2  0  0  0  0
 17 18  1  0  0  0  0
 18 19  2  0  0  0  0
 20 21  1  0  0  0  0
 21 25  1  0  0  0  0
 22 26  2  0  0  0  0
 23 24  2  0  0  0  0
 24 25  1  0  0  0  0
 25 26  1  0  0  0  0
 27 26  1  1  0  0  0
 27 28  1  0  0  0  0
 28 24  1  1  0  0  0
M  END
>  <CHROM.1>
-174.88262502,-60.40121677,179.32385707,-173.17407532,74.76036291,37.84258949
24.51462293,25.47501152,-0.45588040,-0.52399735,-3.00370074

>  <Name>
ligand

>  <RI>
0

>  <Rbt.Current_Directory>
/home/itssahil/PROJECTS/Mol_Feturizer/New_Systems/rnas/1YLS

>  <Rbt.Executable>
rbdock ($Id: //depot/dev/client3/rdock/2013.1/src/exe/rbdock.cxx#4 $)

>  <Rbt.Library>
libRbt.so (2013.1, Build901 2013/11/27)

>  <Rbt.Parameter_File>
/export/apps/rDock/src/rDock_2013.1_src/data/scripts/dock_solv.prm

>  <Rbt.Receptor>
prm/pocket_docking_3.prm

>  <SCORE>
-38.5932

>  <SCORE.INTER>
-33.8865

>  <SCORE.INTER.CONST>
1

>  <SCORE.INTER.POLAR>
0

>  <SCORE.INTER.ROT>
5

>  <SCORE.INTER.SOLV>
7.84319

>  <SCORE.INTER.VDW>
-32.1387

>  <SCORE.INTER.norm>
-1.21023

>  <SCORE.INTRA>
-4.70663

>  <SCORE.INTRA.DIHEDRAL>
-9.44929

>  <SCORE.INTRA.DIHEDRAL.0>
12.0148

>  <SCORE.INTRA.POLAR>
0

>  <SCORE.INTRA.POLAR.0>
0

>  <SCORE.INTRA.REPUL>
0

>  <SCORE.INTRA.REPUL.0>
0

>  <SCORE.INTRA.SOLV>
-0.0322434

>  <SCORE.INTRA.SOLV.lig_0>
-10.5235

>  <SCORE.INTRA.VDW>
0.0341343

>  <SCORE.INTRA.VDW.0>
-1.38455

>  <SCORE.INTRA.norm>
-0.168094

>  <SCORE.RESTR>
0

>  <SCORE.RESTR.CAVITY>
0

>  <SCORE.RESTR.norm>
0

>  <SCORE.SYSTEM>
0

>  <SCORE.SYSTEM.CONST>
0

>  <SCORE.SYSTEM.DIHEDRAL>
0

>  <SCORE.SYSTEM.SOLV>
0

>  <SCORE.SYSTEM.norm>
0

>  <SCORE.heavy>
28

>  <SCORE.norm>
-1.37833

>  <RMSD>
0.932

$$$$
ligand
 OpenBabel11021811413D
libRbt.so/2013.1/901 2013/11/27
 28 32  0  0  0  0  0  0  0  0999 V2000
   43.7804   26.2452   22.1772 C   0  0  0  0  0  0  0  0  0  0  0  0
   42.6910   27.2835   21.9956 C   0  0  0  0  0  0  0  0  0  0  0  0
   41.8251   27.4123   23.2400 C   0  0  0  0  0  0  0  0  0  0  0  0
   34.3669   24.3950   24.1119 O   0  0  0  0  0  0  0  0  0  0  0  0
   34.9853   24.8890   25.3013 C   0  0  0  0  0  0  0  0  0  0  0  0
   38.7687   24.0789   28.3578 C   0  0  0  0  0  0  0  0  0  0  0  0
   38.5255   25.2757   29.0194 C   0  0  0  0  0  0  0  0  0  0  0  0
   37.4848   26.1028   28.5892 C   0  0  0  0  0  0  0  0  0  0  0  0
   36.6876   25.7354   27.5046 C   0  0  0  0  0  0  0  0  0  0  0  0
   36.1905   24.0240   25.6924 C   0  0  1  0  0  0  0  0  0  0  0  0
   36.9306   24.5326   26.8836 C   0  0  0  0  0  0  0  0  0  0  0  0
   37.9555   23.7249   27.3073 C   0  0  0  0  0  0  0  0  0  0  0  0
   38.1546   22.5209   26.5233 C   0  0  1  0  0  0  0  0  0  0  0  0
   36.7262   20.4953   26.7408 C   0  0  0  0  0  0  0  0  0  0  0  0
   36.8797   21.8293   26.4486 C   0  0  0  0  0  0  0  0  0  0  0  0
   35.8306   22.5968   26.0190 C   0  0  0  0  0  0  0  0  0  0  0  0
   34.5743   22.0285   25.8678 C   0  0  0  0  0  0  0  0  0  0  0  0
   34.3980   20.6790   26.1807 C   0  0  0  0  0  0  0  0  0  0  0  0
   35.4734   19.9172   26.6186 C   0  0  0  0  0  0  0  0  0  0  0  0
   40.8989   26.2107   23.3759 C   0  0  0  0  0  0  0  0  0  0  0  0
   40.0945   26.3012   24.6673 C   0  0  0  0  0  0  0  0  0  0  0  0
   37.4502   26.1879   23.9802 O   0  0  0  0  0  0  0  0  0  0  0  0
   40.6805   23.6585   25.4807 O   0  0  0  0  0  0  0  0  0  0  0  0
   39.5686   23.9802   25.0957 C   0  0  0  0  0  0  0  0  0  0  0  0
   39.2176   25.1415   24.6998 N   0  0  0  0  0  0  0  0  0  0  0  0
   37.9985   25.1958   24.3855 C   0  0  0  0  0  0  0  0  0  0  0  0
   37.2782   23.9121   24.6123 C   0  0  1  0  0  0  0  0  0  0  0  0
   38.4244   23.0301   25.1140 C   0  0  2  0  0  0  0  0  0  0  0  0
  1  2  1  0  0  0  0
  2  3  1  0  0  0  0
  3 20  1  0  0  0  0
  4  5  1  0  0  0  0
  6  7  2  0  0  0  0
  6 12  1  0  0  0  0
  7  8  1  0  0  0  0
  8  9  2  0  0  0  0
  9 11  1  0  0  0  0
 10  5  1  6  0  0  0
 10 11  1  0  0  0  0
 10 16  1  0  0  0  0
 10 27  1  0  0  0  0
 11 12  2  0  0  0  0
 13 12  1  1  0  0  0
 13 15  1  0  0  0  0
 13 28  1  0  0  0  0
 14 15  2  0  0  0  0
 14 19  1  0  0  0  0
 15 16  1  0  0  0  0
 16 17  2  0  0  0  0
 17 18  1  0  0  0  0
 18 19  2  0  0  0  0
 20 21  1  0  0  0  0
 21 25  1  0  0  0  0
 22 26  2  0  0  0  0
 23 24  2  0  0  0  0
 24 25  1  0  0  0  0
 25 26  1  0  0  0  0
 27 26  1  1  0  0  0
 27 28  1  0  0  0  0
 28 24  1  1  0  0  0
M  END
>  <CHROM.1>
-73.70766389,176.63989437,176.53223268,178.54327295,82.66533570,38.09008676
24.28522702,25.45182921,0.58130553,-0.43303852,-1.22215721

>  <Name>
ligand

>  <RI>
0

>  <Rbt.Current_Directory>
/home/itssahil/PROJECTS/Mol_Feturizer/New_Systems/rnas/1YLS

>  <Rbt.Executable>
rbdock ($Id: //depot/dev/client3/rdock/2013.1/src/exe/rbdock.cxx#4 $)

>  <Rbt.Library>
libRbt.so (2013.1, Build901 2013/11/27)

>  <Rbt.Parameter_File>
/export/apps/rDock/src/rDock_2013.1_src/data/scripts/dock_solv.prm

>  <Rbt.Receptor>
prm/pocket_docking_4.prm

>  <SCORE>
-38.0126

>  <SCORE.INTER>
-34.4468

>  <SCORE.INTER.CONST>
1

>  <SCORE.INTER.POLAR>
0

>  <SCORE.INTER.ROT>
5

>  <SCORE.INTER.SOLV>
7.50001

>  <SCORE.INTER.VDW>
-32.3979

>  <SCORE.INTER.norm>
-1.23024

>  <SCORE.INTRA>
-3.56585

>  <SCORE.INTRA.DIHEDRAL>
-8.94392

>  <SCORE.INTRA.DIHEDRAL.0>
12.0148

>  <SCORE.INTRA.POLAR>
0

>  <SCORE.INTRA.POLAR.0>
0

>  <SCORE.INTRA.REPUL>
0

>  <SCORE.INTRA.REPUL.0>
0

>  <SCORE.INTRA.SOLV>
0.145977

>  <SCORE.INTRA.SOLV.lig_0>
-10.5235

>  <SCORE.INTRA.VDW>
0.833119

>  <SCORE.INTRA.VDW.0>
-1.38455

>  <SCORE.INTRA.norm>
-0.127352

>  <SCORE.RESTR>
0

>  <SCORE.RESTR.CAVITY>
0

>  <SCORE.RESTR.norm>
0

>  <SCORE.SYSTEM>
0

>  <SCORE.SYSTEM.CONST>
0

>  <SCORE.SYSTEM.DIHEDRAL>
0

>  <SCORE.SYSTEM.SOLV>
0

>  <SCORE.SYSTEM.norm>
0

>  <SCORE.heavy>
28

>  <SCORE.norm>
-1.35759

>  <RMSD>
0.932

$$$$
ligand
 OpenBabel11021811413D
libRbt.so/2013.1/901 2013/11/27
 28 32  0  0  0  0  0  0  0  0999 V2000
   43.9583   28.2741   22.2755 C   0  0  0  0  0  0  0  0  0  0  0  0
   42.9521   27.1403   22.2830 C   0  0  0  0  0  0  0  0  0  0  0  0
   41.8956   27.3342   23.3606 C   0  0  0  0  0  0  0  0  0  0  0  0
   34.0200   24.2027   26.0316 O   0  0  0  0  0  0  0  0  0  0  0  0
   35.0676   24.2041   25.0603 C   0  0  0  0  0  0  0  0  0  0  0  0
   38.6719   24.3760   28.4207 C   0  0  0  0  0  0  0  0  0  0  0  0
   38.2053   25.5940   28.8983 C   0  0  0  0  0  0  0  0  0  0  0  0
   37.0933   26.1902   28.2981 C   0  0  0  0  0  0  0  0  0  0  0  0
   36.4472   25.5716   27.2272 C   0  0  0  0  0  0  0  0  0  0  0  0
   36.3505   23.5914   25.6368 C   0  0  1  0  0  0  0  0  0  0  0  0
   36.9112   24.3528   26.7906 C   0  0  0  0  0  0  0  0  0  0  0  0
   38.0053   23.7724   27.3808 C   0  0  0  0  0  0  0  0  0  0  0  0
   38.4393   22.5252   26.7805 C   0  0  1  0  0  0  0  0  0  0  0  0
   37.3074   20.3464   27.1838 C   0  0  0  0  0  0  0  0  0  0  0  0
   37.2884   21.6411   26.7234 C   0  0  0  0  0  0  0  0  0  0  0  0
   36.1767   22.1777   26.1315 C   0  0  0  0  0  0  0  0  0  0  0  0
   35.0324   21.4078   25.9832 C   0  0  0  0  0  0  0  0  0  0  0  0
   35.0295   20.0970   26.4648 C   0  0  0  0  0  0  0  0  0  0  0  0
   36.1656   19.5711   27.0659 C   0  0  0  0  0  0  0  0  0  0  0  0
   40.9837   26.1170   23.4432 C   0  0  0  0  0  0  0  0  0  0  0  0
   39.9517   26.2982   24.5499 C   0  0  0  0  0  0  0  0  0  0  0  0
   37.4154   25.6929   23.7265 O   0  0  0  0  0  0  0  0  0  0  0  0
   40.8483   23.9001   25.7475 O   0  0  0  0  0  0  0  0  0  0  0  0
   39.7359   23.9957   25.2562 C   0  0  0  0  0  0  0  0  0  0  0  0
   39.2528   25.0302   24.6863 N   0  0  0  0  0  0  0  0  0  0  0  0
   38.0677   24.8559   24.2946 C   0  0  0  0  0  0  0  0  0  0  0  0
   37.5257   23.5148   24.6494 C   0  0  1  0  0  0  0  0  0  0  0  0
   38.7441   22.8901   25.3341 C   0  0  2  0  0  0  0  0  0  0  0  0
  1  2  1  0  0  0  0
  2  3  1  0  0  0  0
  3 20  1  0  0  0  0
  4  5  1  0  0  0  0
  6  7  2  0  0  0  0
  6 12  1  0  0  0  0
  7  8  1  0  0  0  0
  8  9  2  0  0  0  0
  9 11  1  0  0  0  0
 10  5  1  6  0  0  0
 10 11  1  0  0  0  0
 10 16  1  0  0  0  0
 10 27  1  0  0  0  0
 11 12  2  0  0  0  0
 13 12  1  1  0  0  0
 13 15  1  0  0  0  0
 13 28  1  0  0  0  0
 14 15  2  0  0  0  0
 14 19  1  0  0  0  0
 15 16  1  0  0  0  0
 16 17  2  0  0  0  0
 17 18  1  0  0  0  0
 18 19  2  0  0  0  0
 20 21  1  0  0  0  0
 21 25  1  0  0  0  0
 22 26  2  0  0  0  0
 23 24  2  0  0  0  0
 24 25  1  0  0  0  0
 25 26  1  0  0  0  0
 27 26  1  1  0  0  0
 27 28  1  0  0  0  0
 28 24  1  1  0  0  0
M  END
>  <CHROM.1>
-174.17956587,-62.65245456,178.40254369,-172.14772572,75.84771318,38.21509958
24.20039526,25.59675065,-0.66475596,-0.43634112,3.02802155

>  <Name>
ligand

>  <RI>
0

>  <Rbt.Current_Directory>
/home/itssahil/PROJECTS/Mol_Feturizer/New_Systems/rnas/1YLS

>  <Rbt.Executable>
rbdock ($Id: //depot/dev/client3/rdock/2013.1/src/exe/rbdock.cxx#4 $)

>  <Rbt.Library>
libRbt.so (2013.1, Build901 2013/11/27)

>  <Rbt.Parameter_File>
/export/apps/rDock/src/rDock_2013.1_src/data/scripts/dock_solv.prm

>  <Rbt.Receptor>
prm/pocket_docking_7.prm

>  <SCORE>
-38.4739

>  <SCORE.INTER>
-33.801

>  <SCORE.INTER.CONST>
1

>  <SCORE.INTER.POLAR>
0

>  <SCORE.INTER.ROT>
5

>  <SCORE.INTER.SOLV>
7.2822

>  <SCORE.INTER.VDW>
-31.8947

>  <SCORE.INTER.norm>
-1.20718

>  <SCORE.INTRA>
-4.67285

>  <SCORE.INTRA.DIHEDRAL>
-9.34696

>  <SCORE.INTRA.DIHEDRAL.0>
12.0148

>  <SCORE.INTRA.POLAR>
0

>  <SCORE.INTRA.POLAR.0>
0

>  <SCORE.INTRA.REPUL>
0

>  <SCORE.INTRA.REPUL.0>
0

>  <SCORE.INTRA.SOLV>
-0.0329183

>  <SCORE.INTRA.SOLV.lig_0>
-10.5235

>  <SCORE.INTRA.VDW>
0.0170919

>  <SCORE.INTRA.VDW.0>
-1.38455

>  <SCORE.INTRA.norm>
-0.166887

>  <SCORE.RESTR>
0

>  <SCORE.RESTR.CAVITY>
0

>  <SCORE.RESTR.norm>
0

>  <SCORE.SYSTEM>
0

>  <SCORE.SYSTEM.CONST>
0

>  <SCORE.SYSTEM.DIHEDRAL>
0

>  <SCORE.SYSTEM.SOLV>
0

>  <SCORE.SYSTEM.norm>
0

>  <SCORE.heavy>
28

>  <SCORE.norm>
-1.37407

>  <RMSD>
0.932

$$$$
ligand
 OpenBabel11021811413D
libRbt.so/2013.1/901 2013/11/27
 28 32  0  0  0  0  0  0  0  0999 V2000
   43.9114   27.5740   22.4983 C   0  0  0  0  0  0  0  0  0  0  0  0
   42.7198   26.6822   22.7861 C   0  0  0  0  0  0  0  0  0  0  0  0
   41.4220   27.4752   22.8279 C   0  0  0  0  0  0  0  0  0  0  0  0
   33.9835   25.2502   26.2737 O   0  0  0  0  0  0  0  0  0  0  0  0
   34.9009   25.1033   25.1885 C   0  0  0  0  0  0  0  0  0  0  0  0
   38.6611   24.0291   28.1918 C   0  0  0  0  0  0  0  0  0  0  0  0
   38.5136   25.2411   28.8541 C   0  0  0  0  0  0  0  0  0  0  0  0
   37.5284   26.1398   28.4370 C   0  0  0  0  0  0  0  0  0  0  0  0
   36.6912   25.8288   27.3649 C   0  0  0  0  0  0  0  0  0  0  0  0
   36.0469   24.1550   25.5641 C   0  0  1  0  0  0  0  0  0  0  0  0
   36.8387   24.6110   26.7433 C   0  0  0  0  0  0  0  0  0  0  0  0
   37.8094   23.7327   27.1541 C   0  0  0  0  0  0  0  0  0  0  0  0
   37.9106   22.5165   26.3701 C   0  0  1  0  0  0  0  0  0  0  0  0
   36.3445   20.5983   26.6130 C   0  0  0  0  0  0  0  0  0  0  0  0
   36.5886   21.9175   26.3155 C   0  0  0  0  0  0  0  0  0  0  0  0
   35.5908   22.7575   25.8993 C   0  0  0  0  0  0  0  0  0  0  0  0
   34.2951   22.2802   25.7677 C   0  0  0  0  0  0  0  0  0  0  0  0
   34.0275   20.9471   26.0862 C   0  0  0  0  0  0  0  0  0  0  0  0
   35.0520   20.1110   26.5104 C   0  0  0  0  0  0  0  0  0  0  0  0
   40.2304   26.5447   23.0132 C   0  0  0  0  0  0  0  0  0  0  0  0
   40.0881   26.1461   24.4774 C   0  0  0  0  0  0  0  0  0  0  0  0
   37.4327   26.2210   23.8289 O   0  0  0  0  0  0  0  0  0  0  0  0
   40.4957   23.4694   25.2884 O   0  0  0  0  0  0  0  0  0  0  0  0
   39.4042   23.8692   24.9188 C   0  0  0  0  0  0  0  0  0  0  0  0
   39.1312   25.0520   24.5253 N   0  0  0  0  0  0  0  0  0  0  0  0
   37.9146   25.1928   24.2285 C   0  0  0  0  0  0  0  0  0  0  0  0
   37.1079   23.9642   24.4687 C   0  0  1  0  0  0  0  0  0  0  0  0
   38.1955   23.0033   24.9559 C   0  0  2  0  0  0  0  0  0  0  0  0
  1  2  1  0  0  0  0
  2  3  1  0  0  0  0
  3 20  1  0  0  0  0
  4  5  1  0  0  0  0
  6  7  2  0  0  0  0
  6 12  1  0  0  0  0
  7  8  1  0  0  0  0
  8  9  2  0  0  0  0
  9 11  1  0  0  0  0
 10  5  1  6  0  0  0
 10 11  1  0  0  0  0
 10 16  1  0  0  0  0
 10 27  1  0  0  0  0
 11 12  2  0  0  0  0
 13 12  1  1  0  0  0
 13 15  1  0  0  0  0
 13 28  1  0  0  0  0
 14 15  2  0  0  0  0
 14 19  1  0  0  0  0
 15 16  1  0  0  0  0
 16 17  2  0  0  0  0
 17 18  1  0  0  0  0
 18 19  2  0  0  0  0
 20 21  1  0  0  0  0
 21 25  1  0  0  0  0
 22 26  2  0  0  0  0
 23 24  2  0  0  0  0
 24 25  1  0  0  0  0
 25 26  1  0  0  0  0
 27 26  1  1  0  0  0
 27 28  1  0  0  0  0
 28 24  1  1  0  0  0
M  END
>  <CHROM.1>
175.72069941,-59.49163441,79.91925797,-167.97541855,116.70241376,37.91229912
24.40187552,25.44298443,-0.58427607,-0.39299201,3.01983903

>  <Name>
ligand

>  <RI>
0

>  <Rbt.Current_Directory>
/home/itssahil/PROJECTS/Mol_Feturizer/New_Systems/rnas/1YLS

>  <Rbt.Executable>
rbdock ($Id: //depot/dev/client3/rdock/2013.1/src/exe/rbdock.cxx#4 $)

>  <Rbt.Library>
libRbt.so (2013.1, Build901 2013/11/27)

>  <Rbt.Parameter_File>
/export/apps/rDock/src/rDock_2013.1_src/data/scripts/dock_solv.prm

>  <Rbt.Receptor>
prm/pocket_docking_4.prm

>  <SCORE>
-37.3826

>  <SCORE.INTER>
-34.4111

>  <SCORE.INTER.CONST>
1

>  <SCORE.INTER.POLAR>
0

>  <SCORE.INTER.ROT>
5

>  <SCORE.INTER.SOLV>
8.08548

>  <SCORE.INTER.VDW>
-32.5692

>  <SCORE.INTER.norm>
-1.22897

>  <SCORE.INTRA>
-2.97152

>  <SCORE.INTRA.DIHEDRAL>
-7.53228

>  <SCORE.INTRA.DIHEDRAL.0>
12.0148

>  <SCORE.INTRA.POLAR>
0

>  <SCORE.INTRA.POLAR.0>
0

>  <SCORE.INTRA.REPUL>
0

>  <SCORE.INTRA.REPUL.0>
0

>  <SCORE.INTRA.SOLV>
-0.0132096

>  <SCORE.INTRA.SOLV.lig_0>
-10.5235

>  <SCORE.INTRA.VDW>
0.801223

>  <SCORE.INTRA.VDW.0>
-1.38455

>  <SCORE.INTRA.norm>
-0.106126

>  <SCORE.RESTR>
0

>  <SCORE.RESTR.CAVITY>
0

>  <SCORE.RESTR.norm>
0

>  <SCORE.SYSTEM>
0

>  <SCORE.SYSTEM.CONST>
0

>  <SCORE.SYSTEM.DIHEDRAL>
0

>  <SCORE.SYSTEM.SOLV>
0

>  <SCORE.SYSTEM.norm>
0

>  <SCORE.heavy>
28

>  <SCORE.norm>
-1.33509

>  <RMSD>
0.933

$$$$
ligand
 OpenBabel11021811413D
libRbt.so/2013.1/901 2013/11/27
 28 32  0  0  0  0  0  0  0  0999 V2000
   43.9237   27.5931   22.5257 C   0  0  0  0  0  0  0  0  0  0  0  0
   42.7310   26.6967   22.7934 C   0  0  0  0  0  0  0  0  0  0  0  0
   41.4310   27.4865   22.8255 C   0  0  0  0  0  0  0  0  0  0  0  0
   33.9439   25.2486   26.2519 O   0  0  0  0  0  0  0  0  0  0  0  0
   34.8858   25.1382   25.1834 C   0  0  0  0  0  0  0  0  0  0  0  0
   38.6461   24.0577   28.1844 C   0  0  0  0  0  0  0  0  0  0  0  0
   38.5003   25.2695   28.8474 C   0  0  0  0  0  0  0  0  0  0  0  0
   37.5161   26.1697   28.4314 C   0  0  0  0  0  0  0  0  0  0  0  0
   36.6780   25.8603   27.3595 C   0  0  0  0  0  0  0  0  0  0  0  0
   36.0309   24.1883   25.5579 C   0  0  1  0  0  0  0  0  0  0  0  0
   36.8237   24.6427   26.7370 C   0  0  0  0  0  0  0  0  0  0  0  0
   37.7936   23.7630   27.1468 C   0  0  0  0  0  0  0  0  0  0  0  0
   37.8930   22.5472   26.3620 C   0  0  1  0  0  0  0  0  0  0  0  0
   36.3248   20.6307   26.6044 C   0  0  0  0  0  0  0  0  0  0  0  0
   36.5703   21.9498   26.3076 C   0  0  0  0  0  0  0  0  0  0  0  0
   35.5733   22.7912   25.8925 C   0  0  0  0  0  0  0  0  0  0  0  0
   34.2769   22.3155   25.7611 C   0  0  0  0  0  0  0  0  0  0  0  0
   34.0079   20.9825   26.0789 C   0  0  0  0  0  0  0  0  0  0  0  0
   35.0316   20.1450   26.5021 C   0  0  0  0  0  0  0  0  0  0  0  0
   40.2404   26.5533   23.0034 C   0  0  0  0  0  0  0  0  0  0  0  0
   40.0739   26.1754   24.4705 C   0  0  0  0  0  0  0  0  0  0  0  0
   37.4183   26.2539   23.8233 O   0  0  0  0  0  0  0  0  0  0  0  0
   40.4788   23.4977   25.2798 O   0  0  0  0  0  0  0  0  0  0  0  0
   39.3875   23.8990   24.9108 C   0  0  0  0  0  0  0  0  0  0  0  0
   39.1158   25.0824   24.5183 N   0  0  0  0  0  0  0  0  0  0  0  0
   37.8992   25.2248   24.2221 C   0  0  0  0  0  0  0  0  0  0  0  0
   37.0911   23.9970   24.4619 C   0  0  1  0  0  0  0  0  0  0  0  0
   38.1778   23.0345   24.9480 C   0  0  2  0  0  0  0  0  0  0  0  0
  1  2  1  0  0  0  0
  2  3  1  0  0  0  0
  3 20  1  0  0  0  0
  4  5  1  0  0  0  0
  6  7  2  0  0  0  0
  6 12  1  0  0  0  0
  7  8  1  0  0  0  0
  8  9  2  0  0  0  0
  9 11  1  0  0  0  0
 10  5  1  6  0  0  0
 10 11  1  0  0  0  0
 10 16  1  0  0  0  0
 10 27  1  0  0  0  0
 11 12  2  0  0  0  0
 13 12  1  1  0  0  0
 13 15  1  0  0  0  0
 13 28  1  0  0  0  0
 14 15  2  0  0  0  0
 14 19  1  0  0  0  0
 15 16  1  0  0  0  0
 16 17  2  0  0  0  0
 17 18  1  0  0  0  0
 18 19  2  0  0  0  0
 20 21  1  0  0  0  0
 21 25  1  0  0  0  0
 22 26  2  0  0  0  0
 23 24  2  0  0  0  0
 24 25  1  0  0  0  0
 25 26  1  0  0  0  0
 27 26  1  1  0  0  0
 27 28  1  0  0  0  0
 28 24  1  1  0  0  0
M  END
>  <CHROM.1>
176.24373382,-61.55140325,80.92991482,-168.27395799,115.42156017,37.89921347
24.42925068,25.43737201,-0.58273767,-0.38628330,3.01482145

>  <Name>
ligand

>  <RI>
0

>  <Rbt.Current_Directory>
/home/itssahil/PROJECTS/Mol_Feturizer/New_Systems/rnas/1YLS

>  <Rbt.Executable>
rbdock ($Id: //depot/dev/client3/rdock/2013.1/src/exe/rbdock.cxx#4 $)

>  <Rbt.Library>
libRbt.so (2013.1, Build901 2013/11/27)

>  <Rbt.Parameter_File>
/export/apps/rDock/src/rDock_2013.1_src/data/scripts/dock_solv.prm

>  <Rbt.Receptor>
prm/pocket_docking_6.prm

>  <SCORE>
-37.3756

>  <SCORE.INTER>
-34.3684

>  <SCORE.INTER.CONST>
1

>  <SCORE.INTER.POLAR>
0

>  <SCORE.INTER.ROT>
5

>  <SCORE.INTER.SOLV>
8.06774

>  <SCORE.INTER.VDW>
-32.5349

>  <SCORE.INTER.norm>
-1.22744

>  <SCORE.INTRA>
-3.00721

>  <SCORE.INTRA.DIHEDRAL>
-7.44637

>  <SCORE.INTRA.DIHEDRAL.0>
12.0148

>  <SCORE.INTRA.POLAR>
0

>  <SCORE.INTRA.POLAR.0>
0

>  <SCORE.INTRA.REPUL>
0

>  <SCORE.INTRA.REPUL.0>
0

>  <SCORE.INTRA.SOLV>
-0.017184

>  <SCORE.INTRA.SOLV.lig_0>
-10.5235

>  <SCORE.INTRA.VDW>
0.724571

>  <SCORE.INTRA.VDW.0>
-1.38455

>  <SCORE.INTRA.norm>
-0.1074

>  <SCORE.RESTR>
0

>  <SCORE.RESTR.CAVITY>
0

>  <SCORE.RESTR.norm>
0

>  <SCORE.SYSTEM>
0

>  <SCORE.SYSTEM.CONST>
0

>  <SCORE.SYSTEM.DIHEDRAL>
0

>  <SCORE.SYSTEM.SOLV>
0

>  <SCORE.SYSTEM.norm>
0

>  <SCORE.heavy>
28

>  <SCORE.norm>
-1.33484

>  <RMSD>
0.933

$$$$
ligand
 OpenBabel11021811413D
libRbt.so/2013.1/901 2013/11/27
 28 32  0  0  0  0  0  0  0  0999 V2000
   44.0859   27.8634   22.1704 C   0  0  0  0  0  0  0  0  0  0  0  0
   42.9144   26.9013   22.1614 C   0  0  0  0  0  0  0  0  0  0  0  0
   41.9842   27.1381   23.3419 C   0  0  0  0  0  0  0  0  0  0  0  0
   34.1861   24.6490   24.1445 O   0  0  0  0  0  0  0  0  0  0  0  0
   34.8619   25.0895   25.3236 C   0  0  0  0  0  0  0  0  0  0  0  0
   38.6538   24.0071   28.2837 C   0  0  0  0  0  0  0  0  0  0  0  0
   38.4852   25.1972   28.9798 C   0  0  0  0  0  0  0  0  0  0  0  0
   37.4810   26.0875   28.5910 C   0  0  0  0  0  0  0  0  0  0  0  0
   36.6459   25.7898   27.5134 C   0  0  0  0  0  0  0  0  0  0  0  0
   36.0277   24.1540   25.6691 C   0  0  1  0  0  0  0  0  0  0  0  0
   36.8149   24.5927   26.8578 C   0  0  0  0  0  0  0  0  0  0  0  0
   37.8042   23.7228   27.2409 C   0  0  0  0  0  0  0  0  0  0  0  0
   37.9263   22.5309   26.4232 C   0  0  1  0  0  0  0  0  0  0  0  0
   36.3990   20.5762   26.6180 C   0  0  0  0  0  0  0  0  0  0  0  0
   36.6161   21.9078   26.3564 C   0  0  0  0  0  0  0  0  0  0  0  0
   35.6004   22.7391   25.9669 C   0  0  0  0  0  0  0  0  0  0  0  0
   34.3138   22.2401   25.8264 C   0  0  0  0  0  0  0  0  0  0  0  0
   34.0736   20.8937   26.1087 C   0  0  0  0  0  0  0  0  0  0  0  0
   35.1159   20.0666   26.5062 C   0  0  0  0  0  0  0  0  0  0  0  0
   40.8806   26.0888   23.3743 C   0  0  0  0  0  0  0  0  0  0  0  0
   40.0248   26.2537   24.6246 C   0  0  0  0  0  0  0  0  0  0  0  0
   37.3660   26.2941   23.9872 O   0  0  0  0  0  0  0  0  0  0  0  0
   40.4880   23.5641   25.3599 O   0  0  0  0  0  0  0  0  0  0  0  0
   39.3874   23.9524   25.0050 C   0  0  0  0  0  0  0  0  0  0  0  0
   39.0898   25.1400   24.6454 N   0  0  0  0  0  0  0  0  0  0  0  0
   37.8696   25.2650   24.3566 C   0  0  0  0  0  0  0  0  0  0  0  0
   37.0880   24.0145   24.5654 C   0  0  1  0  0  0  0  0  0  0  0  0
   38.1961   23.0621   25.0221 C   0  0  2  0  0  0  0  0  0  0  0  0
  1  2  1  0  0  0  0
  2  3  1  0  0  0  0
  3 20  1  0  0  0  0
  4  5  1  0  0  0  0
  6  7  2  0  0  0  0
  6 12  1  0  0  0  0
  7  8  1  0  0  0  0
  8  9  2  0  0  0  0
  9 11  1  0  0  0  0
 10  5  1  6  0  0  0
 10 11  1  0  0  0  0
 10 16  1  0  0  0  0
 10 27  1  0  0  0  0
 11 12  2  0  0  0  0
 13 12  1  1  0  0  0
 13 15  1  0  0  0  0
 13 28  1  0  0  0  0
 14 15  2  0  0  0  0
 14 19  1  0  0  0  0
 15 16  1  0  0  0  0
 16 17  2  0  0  0  0
 17 18  1  0  0  0  0
 18 19  2  0  0  0  0
 20 21  1  0  0  0  0
 21 25  1  0  0  0  0
 22 26  2  0  0  0  0
 23 24  2  0  0  0  0
 24 25  1  0  0  0  0
 25 26  1  0  0  0  0
 27 26  1  1  0  0  0
 27 28  1  0  0  0  0
 28 24  1  1  0  0  0
M  END
>  <CHROM.1>
-175.36981304,177.40387371,174.98341741,-174.37602176,77.94172083,37.97269783
24.37700922,25.41960153,0.58205443,-0.37735515,-1.13388139

>  <Name>
ligand

>  <RI>
0

>  <Rbt.Current_Directory>
/home/itssahil/PROJECTS/Mol_Feturizer/New_Systems/rnas/1YLS

>  <Rbt.Executable>
rbdock ($Id: //depot/dev/client3/rdock/2013.1/src/exe/rbdock.cxx#4 $)

>  <Rbt.Library>
libRbt.so (2013.1, Build901 2013/11/27)

>  <Rbt.Parameter_File>
/export/apps/rDock/src/rDock_2013.1_src/data/scripts/dock_solv.prm

>  <Rbt.Receptor>
prm/pocket_docking_7.prm

>  <SCORE>
-38.4234

>  <SCORE.INTER>
-33.8759

>  <SCORE.INTER.CONST>
1

>  <SCORE.INTER.POLAR>
0

>  <SCORE.INTER.ROT>
5

>  <SCORE.INTER.SOLV>
7.51125

>  <SCORE.INTER.VDW>
-32.021

>  <SCORE.INTER.norm>
-1.20985

>  <SCORE.INTRA>
-4.54755

>  <SCORE.INTRA.DIHEDRAL>
-9.43055

>  <SCORE.INTRA.DIHEDRAL.0>
12.0148

>  <SCORE.INTRA.POLAR>
0

>  <SCORE.INTRA.POLAR.0>
0

>  <SCORE.INTRA.REPUL>
0

>  <SCORE.INTRA.REPUL.0>
0

>  <SCORE.INTRA.SOLV>
0.168957

>  <SCORE.INTRA.SOLV.lig_0>
-10.5235

>  <SCORE.INTRA.VDW>
0.0832472

>  <SCORE.INTRA.VDW.0>
-1.38455

>  <SCORE.INTRA.norm>
-0.162413

>  <SCORE.RESTR>
0

>  <SCORE.RESTR.CAVITY>
0

>  <SCORE.RESTR.norm>
0

>  <SCORE.SYSTEM>
0

>  <SCORE.SYSTEM.CONST>
0

>  <SCORE.SYSTEM.DIHEDRAL>
0

>  <SCORE.SYSTEM.SOLV>
0

>  <SCORE.SYSTEM.norm>
0

>  <SCORE.heavy>
28

>  <SCORE.norm>
-1.37227

>  <RMSD>
0.933

$$$$
ligand
 OpenBabel11021811413D
libRbt.so/2013.1/901 2013/11/27
 28 32  0  0  0  0  0  0  0  0999 V2000
   43.9997   25.9343   22.3422 C   0  0  0  0  0  0  0  0  0  0  0  0
   43.0395   27.0256   21.9121 C   0  0  0  0  0  0  0  0  0  0  0  0
   41.6386   26.7874   22.4558 C   0  0  0  0  0  0  0  0  0  0  0  0
   34.2241   24.8949   25.1798 O   0  0  0  0  0  0  0  0  0  0  0  0
   35.4203   24.8389   24.4007 C   0  0  0  0  0  0  0  0  0  0  0  0
   38.3641   25.6465   28.2730 C   0  0  0  0  0  0  0  0  0  0  0  0
   37.7598   26.8743   28.5106 C   0  0  0  0  0  0  0  0  0  0  0  0
   36.7419   27.3180   27.6625 C   0  0  0  0  0  0  0  0  0  0  0  0
   36.3263   26.5377   26.5830 C   0  0  0  0  0  0  0  0  0  0  0  0
   36.6112   24.3884   25.2565 C   0  0  1  0  0  0  0  0  0  0  0  0
   36.9210   25.3135   26.3851 C   0  0  0  0  0  0  0  0  0  0  0  0
   37.9223   24.8831   27.2185 C   0  0  0  0  0  0  0  0  0  0  0  0
   38.5177   23.6102   26.8589 C   0  0  1  0  0  0  0  0  0  0  0  0
   37.4443   21.4159   27.3322 C   0  0  0  0  0  0  0  0  0  0  0  0
   37.4411   22.6455   26.7186 C   0  0  0  0  0  0  0  0  0  0  0  0
   36.4250   23.0310   25.8860 C   0  0  0  0  0  0  0  0  0  0  0  0
   35.3651   22.1697   25.6434 C   0  0  0  0  0  0  0  0  0  0  0  0
   35.3440   20.9249   26.2761 C   0  0  0  0  0  0  0  0  0  0  0  0
   36.3819   20.5528   27.1204 C   0  0  0  0  0  0  0  0  0  0  0  0
   41.6208   26.9274   23.9725 C   0  0  0  0  0  0  0  0  0  0  0  0
   40.2056   27.2048   24.4655 C   0  0  0  0  0  0  0  0  0  0  0  0
   37.8875   26.3309   23.3078 O   0  0  0  0  0  0  0  0  0  0  0  0
   40.9980   25.0277   26.0846 O   0  0  0  0  0  0  0  0  0  0  0  0
   39.9859   24.9874   25.4048 C   0  0  0  0  0  0  0  0  0  0  0  0
   39.5587   25.9137   24.6381 N   0  0  0  0  0  0  0  0  0  0  0  0
   38.4714   25.6122   24.0769 C   0  0  0  0  0  0  0  0  0  0  0  0
   37.9441   24.2846   24.4985 C   0  0  1  0  0  0  0  0  0  0  0  0
   39.0531   23.8298   25.4507 C   0  0  2  0  0  0  0  0  0  0  0  0
  1  2  1  0  0  0  0
  2  3  1  0  0  0  0
  3 20  1  0  0  0  0
  4  5  1  0  0  0  0
  6  7  2  0  0  0  0
  6 12  1  0  0  0  0
  7  8  1  0  0  0  0
  8  9  2  0  0  0  0
  9 11  1  0  0  0  0
 10  5  1  6  0  0  0
 10 11  1  0  0  0  0
 10 16  1  0  0  0  0
 10 27  1  0  0  0  0
 11 12  2  0  0  0  0
 13 12  1  6  0  0  0
 13 15  1  0  0  0  0
 13 28  1  0  0  0  0
 14 15  2  0  0  0  0
 14 19  1  0  0  0  0
 15 16  1  0  0  0  0
 16 17  2  0  0  0  0
 17 18  1  0  0  0  0
 18 19  2  0  0  0  0
 20 21  1  0  0  0  0
 21 25  1  0  0  0  0
 22 26  2  0  0  0  0
 23 24  2  0  0  0  0
 24 25  1  0  0  0  0
 25 26  1  0  0  0  0
 27 26  1  1  0  0  0
 27 28  1  0  0  0  0
 28 24  1  1  0  0  0
M  END
>  <CHROM.1>
67.06589876,-61.65310323,159.06322661,86.18444143,58.42687299,38.36765093
24.89333217,25.38967072,-0.47232605,-0.50223063,3.13572479

>  <Name>
ligand

>  <RI>
0

>  <Rbt.Current_Directory>
/home/itssahil/PROJECTS/Mol_Feturizer/New_Systems/rnas/1YLS

>  <Rbt.Executable>
rbdock ($Id: //depot/dev/client3/rdock/2013.1/src/exe/rbdock.cxx#4 $)

>  <Rbt.Library>
libRbt.so (2013.1, Build901 2013/11/27)

>  <Rbt.Parameter_File>
/export/apps/rDock/src/rDock_2013.1_src/data/scripts/dock_solv.prm

>  <Rbt.Receptor>
prm/pocket_docking_2.prm

>  <SCORE>
-32.6044

>  <SCORE.INTER>
-31.4366

>  <SCORE.INTER.CONST>
1

>  <SCORE.INTER.POLAR>
0

>  <SCORE.INTER.ROT>
5

>  <SCORE.INTER.SOLV>
5.97248

>  <SCORE.INTER.VDW>
-29.8819

>  <SCORE.INTER.norm>
-1.12274

>  <SCORE.INTRA>
-1.16826

>  <SCORE.INTRA.DIHEDRAL>
-5.49895

>  <SCORE.INTRA.DIHEDRAL.0>
12.0148

>  <SCORE.INTRA.POLAR>
0

>  <SCORE.INTRA.POLAR.0>
0

>  <SCORE.INTRA.REPUL>
0

>  <SCORE.INTRA.REPUL.0>
0

>  <SCORE.INTRA.SOLV>
0.172862

>  <SCORE.INTRA.SOLV.lig_0>
-10.5235

>  <SCORE.INTRA.VDW>
1.49479

>  <SCORE.INTRA.VDW.0>
-1.38455

>  <SCORE.INTRA.norm>
-0.0417234

>  <SCORE.RESTR>
0.000404052

>  <SCORE.RESTR.CAVITY>
0.000404052

>  <SCORE.RESTR.norm>
1.44304e-05

>  <SCORE.SYSTEM>
0

>  <SCORE.SYSTEM.CONST>
0

>  <SCORE.SYSTEM.DIHEDRAL>
0

>  <SCORE.SYSTEM.SOLV>
0

>  <SCORE.SYSTEM.norm>
0

>  <SCORE.heavy>
28

>  <SCORE.norm>
-1.16444

>  <RMSD>
0.936

$$$$
ligand
 OpenBabel11021811413D
libRbt.so/2013.1/901 2013/11/27
 28 32  0  0  0  0  0  0  0  0999 V2000
   43.8726   27.6646   22.4755 C   0  0  0  0  0  0  0  0  0  0  0  0
   42.6994   26.7453   22.7518 C   0  0  0  0  0  0  0  0  0  0  0  0
   41.3884   27.5141   22.8242 C   0  0  0  0  0  0  0  0  0  0  0  0
   33.9791   25.2720   26.2744 O   0  0  0  0  0  0  0  0  0  0  0  0
   34.8958   25.1188   25.1893 C   0  0  0  0  0  0  0  0  0  0  0  0
   38.6551   24.0573   28.1982 C   0  0  0  0  0  0  0  0  0  0  0  0
   38.5075   25.2721   28.8553 C   0  0  0  0  0  0  0  0  0  0  0  0
   37.5225   26.1691   28.4341 C   0  0  0  0  0  0  0  0  0  0  0  0
   36.6855   25.8536   27.3631 C   0  0  0  0  0  0  0  0  0  0  0  0
   36.0416   24.1721   25.5693 C   0  0  1  0  0  0  0  0  0  0  0  0
   36.8331   24.6331   26.7468 C   0  0  0  0  0  0  0  0  0  0  0  0
   37.8037   23.7566   27.1615 C   0  0  0  0  0  0  0  0  0  0  0  0
   37.9051   22.5371   26.3827 C   0  0  1  0  0  0  0  0  0  0  0  0
   36.3389   20.6199   26.6333 C   0  0  0  0  0  0  0  0  0  0  0  0
   36.5831   21.9379   26.3302 C   0  0  0  0  0  0  0  0  0  0  0  0
   35.5854   22.7761   25.9103 C   0  0  0  0  0  0  0  0  0  0  0  0
   34.2897   22.2983   25.7803 C   0  0  0  0  0  0  0  0  0  0  0  0
   34.0220   20.9665   26.1044 C   0  0  0  0  0  0  0  0  0  0  0  0
   35.0464   20.1323   26.5324 C   0  0  0  0  0  0  0  0  0  0  0  0
   40.2163   26.5594   23.0107 C   0  0  0  0  0  0  0  0  0  0  0  0
   40.0831   26.1586   24.4752 C   0  0  0  0  0  0  0  0  0  0  0  0
   37.4279   26.2308   23.8257 O   0  0  0  0  0  0  0  0  0  0  0  0
   40.4905   23.4853   25.2976 O   0  0  0  0  0  0  0  0  0  0  0  0
   39.3991   23.8835   24.9260 C   0  0  0  0  0  0  0  0  0  0  0  0
   39.1262   25.0647   24.5275 N   0  0  0  0  0  0  0  0  0  0  0  0
   37.9097   25.2043   24.2298 C   0  0  0  0  0  0  0  0  0  0  0  0
   37.1029   23.9767   24.4750 C   0  0  1  0  0  0  0  0  0  0  0  0
   38.1903   23.0178   24.9665 C   0  0  2  0  0  0  0  0  0  0  0  0
  1  2  1  0  0  0  0
  2  3  1  0  0  0  0
  3 20  1  0  0  0  0
  4  5  1  0  0  0  0
  6  7  2  0  0  0  0
  6 12  1  0  0  0  0
  7  8  1  0  0  0  0
  8  9  2  0  0  0  0
  9 11  1  0  0  0  0
 10  5  1  6  0  0  0
 10 11  1  0  0  0  0
 10 16  1  0  0  0  0
 10 27  1  0  0  0  0
 11 12  2  0  0  0  0
 13 12  1  1  0  0  0
 13 15  1  0  0  0  0
 13 28  1  0  0  0  0
 14 15  2  0  0  0  0
 14 19  1  0  0  0  0
 15 16  1  0  0  0  0
 16 17  2  0  0  0  0
 17 18  1  0  0  0  0
 18 19  2  0  0  0  0
 20 21  1  0  0  0  0
 21 25  1  0  0  0  0
 22 26  2  0  0  0  0
 23 24  2  0  0  0  0
 24 25  1  0  0  0  0
 25 26  1  0  0  0  0
 27 26  1  1  0  0  0
 27 28  1  0  0  0  0
 28 24  1  1  0  0  0
M  END
>  <CHROM.1>
176.27255684,-59.40694467,81.13687372,-169.21582053,117.20863894,37.90359586
24.42592738,25.44600710,-0.59255601,-0.39116949,3.01004568

>  <Name>
ligand

>  <RI>
0

>  <Rbt.Current_Directory>
/home/itssahil/PROJECTS/Mol_Feturizer/New_Systems/rnas/1YLS

>  <Rbt.Executable>
rbdock ($Id: //depot/dev/client3/rdock/2013.1/src/exe/rbdock.cxx#4 $)

>  <Rbt.Library>
libRbt.so (2013.1, Build901 2013/11/27)

>  <Rbt.Parameter_File>
/export/apps/rDock/src/rDock_2013.1_src/data/scripts/dock_solv.prm

>  <Rbt.Receptor>
prm/pocket_docking_3.prm

>  <SCORE>
-37.3897

>  <SCORE.INTER>
-34.452

>  <SCORE.INTER.CONST>
1

>  <SCORE.INTER.POLAR>
0

>  <SCORE.INTER.ROT>
5

>  <SCORE.INTER.SOLV>
8.09579

>  <SCORE.INTER.VDW>
-32.5999

>  <SCORE.INTER.norm>
-1.23043

>  <SCORE.INTRA>
-2.93779

>  <SCORE.INTRA.DIHEDRAL>
-7.47434

>  <SCORE.INTRA.DIHEDRAL.0>
12.0148

>  <SCORE.INTRA.POLAR>
0

>  <SCORE.INTRA.POLAR.0>
0

>  <SCORE.INTRA.REPUL>
0

>  <SCORE.INTRA.REPUL.0>
0

>  <SCORE.INTRA.SOLV>
-0.0130225

>  <SCORE.INTRA.SOLV.lig_0>
-10.5235

>  <SCORE.INTRA.VDW>
0.805898

>  <SCORE.INTRA.VDW.0>
-1.38455

>  <SCORE.INTRA.norm>
-0.104921

>  <SCORE.RESTR>
0

>  <SCORE.RESTR.CAVITY>
0

>  <SCORE.RESTR.norm>
0

>  <SCORE.SYSTEM>
0

>  <SCORE.SYSTEM.CONST>
0

>  <SCORE.SYSTEM.DIHEDRAL>
0

>  <SCORE.SYSTEM.SOLV>
0

>  <SCORE.SYSTEM.norm>
0

>  <SCORE.heavy>
28

>  <SCORE.norm>
-1.33535

>  <RMSD>
0.936

$$$$
ligand
 OpenBabel11021811413D
libRbt.so/2013.1/901 2013/11/27
 28 32  0  0  0  0  0  0  0  0999 V2000
   43.3555   26.4993   22.1505 C   0  0  0  0  0  0  0  0  0  0  0  0
   42.7917   27.3061   23.3033 C   0  0  0  0  0  0  0  0  0  0  0  0
   41.3608   27.7471   23.0333 C   0  0  0  0  0  0  0  0  0  0  0  0
   33.9917   25.2928   26.2580 O   0  0  0  0  0  0  0  0  0  0  0  0
   34.9575   25.1935   25.2099 C   0  0  0  0  0  0  0  0  0  0  0  0
   38.6530   24.0691   28.2745 C   0  0  0  0  0  0  0  0  0  0  0  0
   38.4990   25.2752   28.9460 C   0  0  0  0  0  0  0  0  0  0  0  0
   37.5268   26.1834   28.5191 C   0  0  0  0  0  0  0  0  0  0  0  0
   36.7090   25.8876   27.4278 C   0  0  0  0  0  0  0  0  0  0  0  0
   36.0911   24.2354   25.5981 C   0  0  1  0  0  0  0  0  0  0  0  0
   36.8622   24.6753   26.7969 C   0  0  0  0  0  0  0  0  0  0  0  0
   37.8202   23.7877   27.2175 C   0  0  0  0  0  0  0  0  0  0  0  0
   37.9303   22.5789   26.4234 C   0  0  1  0  0  0  0  0  0  0  0  0
   36.3498   20.6668   26.6165 C   0  0  0  0  0  0  0  0  0  0  0  0
   36.6065   21.9877   26.3371 C   0  0  0  0  0  0  0  0  0  0  0  0
   35.6213   22.8371   25.9102 C   0  0  0  0  0  0  0  0  0  0  0  0
   34.3259   22.3681   25.7487 C   0  0  0  0  0  0  0  0  0  0  0  0
   34.0453   21.0333   26.0485 C   0  0  0  0  0  0  0  0  0  0  0  0
   35.0570   20.1876   26.4839 C   0  0  0  0  0  0  0  0  0  0  0  0
   40.4050   26.5666   23.1467 C   0  0  0  0  0  0  0  0  0  0  0  0
   40.1629   26.2155   24.6100 C   0  0  0  0  0  0  0  0  0  0  0  0
   37.5210   26.3112   23.9110 O   0  0  0  0  0  0  0  0  0  0  0  0
   40.5408   23.5286   25.4016 O   0  0  0  0  0  0  0  0  0  0  0  0
   39.4587   23.9380   25.0150 C   0  0  0  0  0  0  0  0  0  0  0  0
   39.1996   25.1262   24.6283 N   0  0  0  0  0  0  0  0  0  0  0  0
   37.9897   25.2765   24.3094 C   0  0  0  0  0  0  0  0  0  0  0  0
   37.1721   24.0498   24.5216 C   0  0  1  0  0  0  0  0  0  0  0  0
   38.2450   23.0783   25.0199 C   0  0  2  0  0  0  0  0  0  0  0  0
  1  2  1  0  0  0  0
  2  3  1  0  0  0  0
  3 20  1  0  0  0  0
  4  5  1  0  0  0  0
  6  7  2  0  0  0  0
  6 12  1  0  0  0  0
  7  8  1  0  0  0  0
  8  9  2  0  0  0  0
  9 11  1  0  0  0  0
 10  5  1  6  0  0  0
 10 11  1  0  0  0  0
 10 16  1  0  0  0  0
 10 27  1  0  0  0  0
 11 12  2  0  0  0  0
 13 12  1  1  0  0  0
 13 15  1  0  0  0  0
 13 28  1  0  0  0  0
 14 15  2  0  0  0  0
 14 19  1  0  0  0  0
 15 16  1  0  0  0  0
 16 17  2  0  0  0  0
 17 18  1  0  0  0  0
 18 19  2  0  0  0  0
 20 21  1  0  0  0  0
 21 25  1  0  0  0  0
 22 26  2  0  0  0  0
 23 24  2  0  0  0  0
 24 25  1  0  0  0  0
 25 26  1  0  0  0  0
 27 26  1  1  0  0  0
 27 28  1  0  0  0  0
 28 24  1  1  0  0  0
M  END
>  <CHROM.1>
73.12879381,-61.83351735,76.07875923,177.48203402,113.05576102,37.92526843
24.45087160,25.50488744,-0.53291018,-0.45572048,3.13469680

>  <Name>
ligand

>  <RI>
0

>  <Rbt.Current_Directory>
/home/itssahil/PROJECTS/Mol_Feturizer/New_Systems/rnas/1YLS

>  <Rbt.Executable>
rbdock ($Id: //depot/dev/client3/rdock/2013.1/src/exe/rbdock.cxx#4 $)

>  <Rbt.Library>
libRbt.so (2013.1, Build901 2013/11/27)

>  <Rbt.Parameter_File>
/export/apps/rDock/src/rDock_2013.1_src/data/scripts/dock_solv.prm

>  <Rbt.Receptor>
prm/pocket_docking_3.prm

>  <SCORE>
-37.1094

>  <SCORE.INTER>
-34.6572

>  <SCORE.INTER.CONST>
1

>  <SCORE.INTER.POLAR>
0

>  <SCORE.INTER.ROT>
5

>  <SCORE.INTER.SOLV>
7.88907

>  <SCORE.INTER.VDW>
-32.6678

>  <SCORE.INTER.norm>
-1.23776

>  <SCORE.INTRA>
-2.45221

>  <SCORE.INTRA.DIHEDRAL>
-7.94907

>  <SCORE.INTRA.DIHEDRAL.0>
12.0148

>  <SCORE.INTRA.POLAR>
0

>  <SCORE.INTRA.POLAR.0>
0

>  <SCORE.INTRA.REPUL>
0

>  <SCORE.INTRA.REPUL.0>
0

>  <SCORE.INTRA.SOLV>
-0.0261501

>  <SCORE.INTRA.SOLV.lig_0>
-10.5235

>  <SCORE.INTRA.VDW>
1.5354

>  <SCORE.INTRA.VDW.0>
-1.38455

>  <SCORE.INTRA.norm>
-0.0875788

>  <SCORE.RESTR>
0

>  <SCORE.RESTR.CAVITY>
0

>  <SCORE.RESTR.norm>
0

>  <SCORE.SYSTEM>
0

>  <SCORE.SYSTEM.CONST>
0

>  <SCORE.SYSTEM.DIHEDRAL>
0

>  <SCORE.SYSTEM.SOLV>
0

>  <SCORE.SYSTEM.norm>
0

>  <SCORE.heavy>
28

>  <SCORE.norm>
-1.32534

>  <RMSD>
0.936

$$$$
ligand
 OpenBabel11021811413D
libRbt.so/2013.1/901 2013/11/27
 28 32  0  0  0  0  0  0  0  0999 V2000
   43.8800   27.6411   22.5122 C   0  0  0  0  0  0  0  0  0  0  0  0
   42.7054   26.7386   22.8340 C   0  0  0  0  0  0  0  0  0  0  0  0
   41.3921   27.5066   22.8396 C   0  0  0  0  0  0  0  0  0  0  0  0
   33.9266   25.1937   26.2312 O   0  0  0  0  0  0  0  0  0  0  0  0
   34.8995   25.1168   25.1878 C   0  0  0  0  0  0  0  0  0  0  0  0
   38.6467   24.0520   28.2106 C   0  0  0  0  0  0  0  0  0  0  0  0
   38.4992   25.2679   28.8657 C   0  0  0  0  0  0  0  0  0  0  0  0
   37.5173   26.1662   28.4401 C   0  0  0  0  0  0  0  0  0  0  0  0
   36.6834   25.8509   27.3667 C   0  0  0  0  0  0  0  0  0  0  0  0
   36.0423   24.1684   25.5728 C   0  0  1  0  0  0  0  0  0  0  0  0
   36.8307   24.6294   26.7524 C   0  0  0  0  0  0  0  0  0  0  0  0
   37.7983   23.7515   27.1715 C   0  0  0  0  0  0  0  0  0  0  0  0
   37.9000   22.5309   26.3945 C   0  0  1  0  0  0  0  0  0  0  0  0
   36.3294   20.6170   26.6423 C   0  0  0  0  0  0  0  0  0  0  0  0
   36.5771   21.9341   26.3384 C   0  0  0  0  0  0  0  0  0  0  0  0
   35.5823   22.7737   25.9141 C   0  0  0  0  0  0  0  0  0  0  0  0
   34.2862   22.2981   25.7803 C   0  0  0  0  0  0  0  0  0  0  0  0
   34.0149   20.9673   26.1052 C   0  0  0  0  0  0  0  0  0  0  0  0
   35.0363   20.1316   26.5376 C   0  0  0  0  0  0  0  0  0  0  0  0
   40.2160   26.5571   23.0275 C   0  0  0  0  0  0  0  0  0  0  0  0
   40.0912   26.1459   24.4898 C   0  0  0  0  0  0  0  0  0  0  0  0
   37.4383   26.2223   23.8313 O   0  0  0  0  0  0  0  0  0  0  0  0
   40.4908   23.4729   25.3170 O   0  0  0  0  0  0  0  0  0  0  0  0
   39.4013   23.8727   24.9412 C   0  0  0  0  0  0  0  0  0  0  0  0
   39.1321   25.0539   24.5403 N   0  0  0  0  0  0  0  0  0  0  0  0
   37.9168   25.1954   24.2383 C   0  0  0  0  0  0  0  0  0  0  0  0
   37.1069   23.9696   24.4824 C   0  0  1  0  0  0  0  0  0  0  0  0
   38.1909   23.0093   24.9787 C   0  0  2  0  0  0  0  0  0  0  0  0
  1  2  1  0  0  0  0
  2  3  1  0  0  0  0
  3 20  1  0  0  0  0
  4  5  1  0  0  0  0
  6  7  2  0  0  0  0
  6 12  1  0  0  0  0
  7  8  1  0  0  0  0
  8  9  2  0  0  0  0
  9 11  1  0  0  0  0
 10  5  1  6  0  0  0
 10 11  1  0  0  0  0
 10 16  1  0  0  0  0
 10 27  1  0  0  0  0
 11 12  2  0  0  0  0
 13 12  1  1  0  0  0
 13 15  1  0  0  0  0
 13 28  1  0  0  0  0
 14 15  2  0  0  0  0
 14 19  1  0  0  0  0
 15 16  1  0  0  0  0
 16 17  2  0  0  0  0
 17 18  1  0  0  0  0
 18 19  2  0  0  0  0
 20 21  1  0  0  0  0
 21 25  1  0  0  0  0
 22 26  2  0  0  0  0
 23 24  2  0  0  0  0
 24 25  1  0  0  0  0
 25 26  1  0  0  0  0
 27 26  1  1  0  0  0
 27 28  1  0  0  0  0
 28 24  1  1  0  0  0
M  END
>  <CHROM.1>
174.37300947,-63.82309264,77.80808814,-169.02527599,117.94911255,37.90109060
24.41640512,25.45655582,-0.60441320,-0.36194499,2.97402454

>  <Name>
ligand

>  <RI>
0

>  <Rbt.Current_Directory>
/home/itssahil/PROJECTS/Mol_Feturizer/New_Systems/rnas/1YLS

>  <Rbt.Executable>
rbdock ($Id: //depot/dev/client3/rdock/2013.1/src/exe/rbdock.cxx#4 $)

>  <Rbt.Library>
libRbt.so (2013.1, Build901 2013/11/27)

>  <Rbt.Parameter_File>
/export/apps/rDock/src/rDock_2013.1_src/data/scripts/dock_solv.prm

>  <Rbt.Receptor>
prm/pocket_docking_7.prm

>  <SCORE>
-37.3763

>  <SCORE.INTER>
-34.4115

>  <SCORE.INTER.CONST>
1

>  <SCORE.INTER.POLAR>
0

>  <SCORE.INTER.ROT>
5

>  <SCORE.INTER.SOLV>
8.03353

>  <SCORE.INTER.VDW>
-32.5521

>  <SCORE.INTER.norm>
-1.22898

>  <SCORE.INTRA>
-2.96487

>  <SCORE.INTRA.DIHEDRAL>
-7.80183

>  <SCORE.INTRA.DIHEDRAL.0>
12.0148

>  <SCORE.INTRA.POLAR>
0

>  <SCORE.INTRA.POLAR.0>
0

>  <SCORE.INTRA.REPUL>
0

>  <SCORE.INTRA.REPUL.0>
0

>  <SCORE.INTRA.SOLV>
-0.0122401

>  <SCORE.INTRA.SOLV.lig_0>
-10.5235

>  <SCORE.INTRA.VDW>
0.94216

>  <SCORE.INTRA.VDW.0>
-1.38455

>  <SCORE.INTRA.norm>
-0.105888

>  <SCORE.RESTR>
0

>  <SCORE.RESTR.CAVITY>
0

>  <SCORE.RESTR.norm>
0

>  <SCORE.SYSTEM>
0

>  <SCORE.SYSTEM.CONST>
0

>  <SCORE.SYSTEM.DIHEDRAL>
0

>  <SCORE.SYSTEM.SOLV>
0

>  <SCORE.SYSTEM.norm>
0

>  <SCORE.heavy>
28

>  <SCORE.norm>
-1.33487

>  <RMSD>
0.937

$$$$
ligand
 OpenBabel11021811413D
libRbt.so/2013.1/901 2013/11/27
 28 32  0  0  0  0  0  0  0  0999 V2000
   43.7212   26.2643   22.2042 C   0  0  0  0  0  0  0  0  0  0  0  0
   42.6612   27.3268   21.9908 C   0  0  0  0  0  0  0  0  0  0  0  0
   41.7605   27.4739   23.2082 C   0  0  0  0  0  0  0  0  0  0  0  0
   34.3645   24.3575   24.1004 O   0  0  0  0  0  0  0  0  0  0  0  0
   34.9776   24.8737   25.2831 C   0  0  0  0  0  0  0  0  0  0  0  0
   38.7517   24.1268   28.3671 C   0  0  0  0  0  0  0  0  0  0  0  0
   38.4938   25.3273   29.0165 C   0  0  0  0  0  0  0  0  0  0  0  0
   37.4478   26.1406   28.5732 C   0  0  0  0  0  0  0  0  0  0  0  0
   36.6599   25.7560   27.4877 C   0  0  0  0  0  0  0  0  0  0  0  0
   36.1887   24.0237   25.6885 C   0  0  1  0  0  0  0  0  0  0  0  0
   36.9175   24.5500   26.8790 C   0  0  0  0  0  0  0  0  0  0  0  0
   37.9476   23.7557   27.3156 C   0  0  0  0  0  0  0  0  0  0  0  0
   38.1622   22.5466   26.5436 C   0  0  1  0  0  0  0  0  0  0  0  0
   36.7515   20.5097   26.7719 C   0  0  0  0  0  0  0  0  0  0  0  0
   36.8942   21.8424   26.4684 C   0  0  0  0  0  0  0  0  0  0  0  0
   35.8403   22.5962   26.0262 C   0  0  0  0  0  0  0  0  0  0  0  0
   34.5902   22.0148   25.8735 C   0  0  0  0  0  0  0  0  0  0  0  0
   34.4247   20.6665   26.1977 C   0  0  0  0  0  0  0  0  0  0  0  0
   35.5048   19.9189   26.6483 C   0  0  0  0  0  0  0  0  0  0  0  0
   40.8521   26.2599   23.3533 C   0  0  0  0  0  0  0  0  0  0  0  0
   40.0768   26.3279   24.6637 C   0  0  0  0  0  0  0  0  0  0  0  0
   37.4374   26.1836   23.9635 O   0  0  0  0  0  0  0  0  0  0  0  0
   40.6829   23.6982   25.5042 O   0  0  0  0  0  0  0  0  0  0  0  0
   39.5702   24.0060   25.1104 C   0  0  0  0  0  0  0  0  0  0  0  0
   39.2106   25.1604   24.7021 N   0  0  0  0  0  0  0  0  0  0  0  0
   37.9927   25.2004   24.3807 C   0  0  0  0  0  0  0  0  0  0  0  0
   37.2832   23.9121   24.6154 C   0  0  1  0  0  0  0  0  0  0  0  0
   38.4349   23.0455   25.1312 C   0  0  2  0  0  0  0  0  0  0  0  0
  1  2  1  0  0  0  0
  2  3  1  0  0  0  0
  3 20  1  0  0  0  0
  4  5  1  0  0  0  0
  6  7  2  0  0  0  0
  6 12  1  0  0  0  0
  7  8  1  0  0  0  0
  8  9  2  0  0  0  0
  9 11  1  0  0  0  0
 10  5  1  6  0  0  0
 10 11  1  0  0  0  0
 10 16  1  0  0  0  0
 10 27  1  0  0  0  0
 11 12  2  0  0  0  0
 13 12  1  1  0  0  0
 13 15  1  0  0  0  0
 13 28  1  0  0  0  0
 14 15  2  0  0  0  0
 14 19  1  0  0  0  0
 15 16  1  0  0  0  0
 16 17  2  0  0  0  0
 17 18  1  0  0  0  0
 18 19  2  0  0  0  0
 20 21  1  0  0  0  0
 21 25  1  0  0  0  0
 22 26  2  0  0  0  0
 23 24  2  0  0  0  0
 24 25  1  0  0  0  0
 25 26  1  0  0  0  0
 27 26  1  1  0  0  0
 27 28  1  0  0  0  0
 28 24  1  1  0  0  0
M  END
>  <CHROM.1>
-70.87234904,177.05934704,172.96743227,178.30486721,84.68953239,38.08072294
24.30226616,25.45422953,0.58436617,-0.44441746,-1.22718539

>  <Name>
ligand

>  <RI>
0

>  <Rbt.Current_Directory>
/home/itssahil/PROJECTS/Mol_Feturizer/New_Systems/rnas/1YLS

>  <Rbt.Executable>
rbdock ($Id: //depot/dev/client3/rdock/2013.1/src/exe/rbdock.cxx#4 $)

>  <Rbt.Library>
libRbt.so (2013.1, Build901 2013/11/27)

>  <Rbt.Parameter_File>
/export/apps/rDock/src/rDock_2013.1_src/data/scripts/dock_solv.prm

>  <Rbt.Receptor>
prm/pocket_docking_6.prm

>  <SCORE>
-38.0019

>  <SCORE.INTER>
-34.4618

>  <SCORE.INTER.CONST>
1

>  <SCORE.INTER.POLAR>
0

>  <SCORE.INTER.ROT>
5

>  <SCORE.INTER.SOLV>
7.50189

>  <SCORE.INTER.VDW>
-32.4085

>  <SCORE.INTER.norm>
-1.23078

>  <SCORE.INTRA>
-3.54006

>  <SCORE.INTRA.DIHEDRAL>
-9.07389

>  <SCORE.INTRA.DIHEDRAL.0>
12.0148

>  <SCORE.INTRA.POLAR>
0

>  <SCORE.INTRA.POLAR.0>
0

>  <SCORE.INTRA.REPUL>
0

>  <SCORE.INTRA.REPUL.0>
0

>  <SCORE.INTRA.SOLV>
0.141622

>  <SCORE.INTRA.SOLV.lig_0>
-10.5235

>  <SCORE.INTRA.VDW>
0.926071

>  <SCORE.INTRA.VDW.0>
-1.38455

>  <SCORE.INTRA.norm>
-0.126431

>  <SCORE.RESTR>
0

>  <SCORE.RESTR.CAVITY>
0

>  <SCORE.RESTR.norm>
0

>  <SCORE.SYSTEM>
0

>  <SCORE.SYSTEM.CONST>
0

>  <SCORE.SYSTEM.DIHEDRAL>
0

>  <SCORE.SYSTEM.SOLV>
0

>  <SCORE.SYSTEM.norm>
0

>  <SCORE.heavy>
28

>  <SCORE.norm>
-1.35721

>  <RMSD>
0.938

$$$$
ligand
 OpenBabel11021811413D
libRbt.so/2013.1/901 2013/11/27
 28 32  0  0  0  0  0  0  0  0999 V2000
   44.2402   26.4605   22.0618 C   0  0  0  0  0  0  0  0  0  0  0  0
   42.7472   26.7196   22.0230 C   0  0  0  0  0  0  0  0  0  0  0  0
   42.0764   26.3363   23.3337 C   0  0  0  0  0  0  0  0  0  0  0  0
   34.4093   24.1227   24.5059 O   0  0  0  0  0  0  0  0  0  0  0  0
   35.0703   24.5858   25.6847 C   0  0  0  0  0  0  0  0  0  0  0  0
   39.1950   24.0030   28.3229 C   0  0  0  0  0  0  0  0  0  0  0  0
   38.9140   25.1435   29.0644 C   0  0  0  0  0  0  0  0  0  0  0  0
   37.7669   25.8878   28.7775 C   0  0  0  0  0  0  0  0  0  0  0  0
   36.9015   25.4936   27.7563 C   0  0  0  0  0  0  0  0  0  0  0  0
   36.3800   23.8208   25.9153 C   0  0  1  0  0  0  0  0  0  0  0  0
   37.1868   24.3456   27.0550 C   0  0  0  0  0  0  0  0  0  0  0  0
   38.3159   23.6194   27.3380 C   0  0  0  0  0  0  0  0  0  0  0  0
   38.5417   22.4728   26.4786 C   0  0  1  0  0  0  0  0  0  0  0  0
   37.3262   20.3161   26.7281 C   0  0  0  0  0  0  0  0  0  0  0  0
   37.3317   21.6697   26.4905 C   0  0  0  0  0  0  0  0  0  0  0  0
   36.1815   22.3539   26.2020 C   0  0  0  0  0  0  0  0  0  0  0  0
   34.9715   21.6784   26.1423 C   0  0  0  0  0  0  0  0  0  0  0  0
   34.9468   20.3064   26.4018 C   0  0  0  0  0  0  0  0  0  0  0  0
   36.1233   19.6300   26.6965 C   0  0  0  0  0  0  0  0  0  0  0  0
   40.5720   26.5604   23.2522 C   0  0  0  0  0  0  0  0  0  0  0  0
   39.9468   26.4909   24.6404 C   0  0  0  0  0  0  0  0  0  0  0  0
   37.2677   26.1617   24.2029 O   0  0  0  0  0  0  0  0  0  0  0  0
   40.8414   23.8822   25.2596 O   0  0  0  0  0  0  0  0  0  0  0  0
   39.6728   24.1153   24.9988 C   0  0  0  0  0  0  0  0  0  0  0  0
   39.1832   25.2545   24.6974 N   0  0  0  0  0  0  0  0  0  0  0  0
   37.9389   25.2086   24.5035 C   0  0  0  0  0  0  0  0  0  0  0  0
   37.3607   23.8554   24.7325 C   0  0  1  0  0  0  0  0  0  0  0  0
   38.6244   23.0633   25.0777 C   0  0  2  0  0  0  0  0  0  0  0  0
  1  2  1  0  0  0  0
  2  3  1  0  0  0  0
  3 20  1  0  0  0  0
  4  5  1  0  0  0  0
  6  7  2  0  0  0  0
  6 12  1  0  0  0  0
  7  8  1  0  0  0  0
  8  9  2  0  0  0  0
  9 11  1  0  0  0  0
 10  5  1  6  0  0  0
 10 11  1  0  0  0  0
 10 16  1  0  0  0  0
 10 27  1  0  0  0  0
 11 12  2  0  0  0  0
 13 12  1  1  0  0  0
 13 15  1  0  0  0  0
 13 28  1  0  0  0  0
 14 15  2  0  0  0  0
 14 19  1  0  0  0  0
 15 16  1  0  0  0  0
 16 17  2  0  0  0  0
 17 18  1  0  0  0  0
 18 19  2  0  0  0  0
 20 21  1  0  0  0  0
 21 25  1  0  0  0  0
 22 26  2  0  0  0  0
 23 24  2  0  0  0  0
 24 25  1  0  0  0  0
 25 26  1  0  0  0  0
 27 26  1  1  0  0  0
 27 28  1  0  0  0  0
 28 24  1  1  0  0  0
M  END
>  <CHROM.1>
-178.03595414,174.32843855,-166.85684638,-108.87056928,85.20958623,38.29835663
24.15346869,25.53435827,-0.70791050,-0.19765619,2.68302221

>  <Name>
ligand

>  <RI>
0

>  <Rbt.Current_Directory>
/home/itssahil/PROJECTS/Mol_Feturizer/New_Systems/rnas/1YLS

>  <Rbt.Executable>
rbdock ($Id: //depot/dev/client3/rdock/2013.1/src/exe/rbdock.cxx#4 $)

>  <Rbt.Library>
libRbt.so (2013.1, Build901 2013/11/27)

>  <Rbt.Parameter_File>
/export/apps/rDock/src/rDock_2013.1_src/data/scripts/dock_solv.prm

>  <Rbt.Receptor>
prm/pocket_docking_2.prm

>  <SCORE>
-35.2806

>  <SCORE.INTER>
-33.2591

>  <SCORE.INTER.CONST>
1

>  <SCORE.INTER.POLAR>
0

>  <SCORE.INTER.ROT>
5

>  <SCORE.INTER.SOLV>
6.80843

>  <SCORE.INTER.VDW>
-31.3755

>  <SCORE.INTER.norm>
-1.18782

>  <SCORE.INTRA>
-2.02748

>  <SCORE.INTRA.DIHEDRAL>
-3.92792

>  <SCORE.INTRA.DIHEDRAL.0>
12.0148

>  <SCORE.INTRA.POLAR>
0

>  <SCORE.INTRA.POLAR.0>
0

>  <SCORE.INTRA.REPUL>
0

>  <SCORE.INTRA.REPUL.0>
0

>  <SCORE.INTRA.SOLV>
0.355098

>  <SCORE.INTRA.SOLV.lig_0>
-10.5235

>  <SCORE.INTRA.VDW>
-0.241075

>  <SCORE.INTRA.VDW.0>
-1.38455

>  <SCORE.INTRA.norm>
-0.0724101

>  <SCORE.RESTR>
0.00592787

>  <SCORE.RESTR.CAVITY>
0.00592787

>  <SCORE.RESTR.norm>
0.00021171

>  <SCORE.SYSTEM>
0

>  <SCORE.SYSTEM.CONST>
0

>  <SCORE.SYSTEM.DIHEDRAL>
0

>  <SCORE.SYSTEM.SOLV>
0

>  <SCORE.SYSTEM.norm>
0

>  <SCORE.heavy>
28

>  <SCORE.norm>
-1.26002

>  <RMSD>
0.939

$$$$
ligand
 OpenBabel11021811413D
libRbt.so/2013.1/901 2013/11/27
 28 32  0  0  0  0  0  0  0  0999 V2000
   44.0193   27.9644   22.1928 C   0  0  0  0  0  0  0  0  0  0  0  0
   42.9548   26.8863   22.2415 C   0  0  0  0  0  0  0  0  0  0  0  0
   41.9449   27.1440   23.3499 C   0  0  0  0  0  0  0  0  0  0  0  0
   34.2398   24.2327   24.1872 O   0  0  0  0  0  0  0  0  0  0  0  0
   34.9064   24.7792   25.3265 C   0  0  0  0  0  0  0  0  0  0  0  0
   38.7272   24.0211   28.3497 C   0  0  0  0  0  0  0  0  0  0  0  0
   38.4855   25.2241   29.0007 C   0  0  0  0  0  0  0  0  0  0  0  0
   37.4361   26.0414   28.5729 C   0  0  0  0  0  0  0  0  0  0  0  0
   36.6287   25.6582   27.5013 C   0  0  0  0  0  0  0  0  0  0  0  0
   36.1200   23.9244   25.7138 C   0  0  1  0  0  0  0  0  0  0  0  0
   36.8707   24.4497   26.8910 C   0  0  0  0  0  0  0  0  0  0  0  0
   37.9042   23.6516   27.3123 C   0  0  0  0  0  0  0  0  0  0  0  0
   38.1005   22.4399   26.5395 C   0  0  1  0  0  0  0  0  0  0  0  0
   36.6844   20.4100   26.7953 C   0  0  0  0  0  0  0  0  0  0  0  0
   36.8282   21.7414   26.4866 C   0  0  0  0  0  0  0  0  0  0  0  0
   35.7707   22.4992   26.0603 C   0  0  0  0  0  0  0  0  0  0  0  0
   34.5155   21.9233   25.9293 C   0  0  0  0  0  0  0  0  0  0  0  0
   34.3493   20.5765   26.2590 C   0  0  0  0  0  0  0  0  0  0  0  0
   35.4331   19.8247   26.6935 C   0  0  0  0  0  0  0  0  0  0  0  0
   40.9472   25.9969   23.4441 C   0  0  0  0  0  0  0  0  0  0  0  0
   40.0013   26.2084   24.6203 C   0  0  0  0  0  0  0  0  0  0  0  0
   37.3502   26.0749   23.9639 O   0  0  0  0  0  0  0  0  0  0  0  0
   40.6091   23.5777   25.4564 O   0  0  0  0  0  0  0  0  0  0  0  0
   39.4915   23.8898   25.0802 C   0  0  0  0  0  0  0  0  0  0  0  0
   39.1305   25.0450   24.6754 N   0  0  0  0  0  0  0  0  0  0  0  0
   37.9077   25.0900   24.3740 C   0  0  0  0  0  0  0  0  0  0  0  0
   37.1962   23.8055   24.6231 C   0  0  1  0  0  0  0  0  0  0  0  0
   38.3522   22.9346   25.1218 C   0  0  2  0  0  0  0  0  0  0  0  0
  1  2  1  0  0  0  0
  2  3  1  0  0  0  0
  3 20  1  0  0  0  0
  4  5  1  0  0  0  0
  6  7  2  0  0  0  0
  6 12  1  0  0  0  0
  7  8  1  0  0  0  0
  8  9  2  0  0  0  0
  9 11  1  0  0  0  0
 10  5  1  6  0  0  0
 10 11  1  0  0  0  0
 10 16  1  0  0  0  0
 10 27  1  0  0  0  0
 11 12  2  0  0  0  0
 13 12  1  1  0  0  0
 13 15  1  0  0  0  0
 13 28  1  0  0  0  0
 14 15  2  0  0  0  0
 14 19  1  0  0  0  0
 15 16  1  0  0  0  0
 16 17  2  0  0  0  0
 17 18  1  0  0  0  0
 18 19  2  0  0  0  0
 20 21  1  0  0  0  0
 21 25  1  0  0  0  0
 22 26  2  0  0  0  0
 23 24  2  0  0  0  0
 24 25  1  0  0  0  0
 25 26  1  0  0  0  0
 27 26  1  1  0  0  0
 27 28  1  0  0  0  0
 28 24  1  1  0  0  0
M  END
>  <CHROM.1>
-175.85671989,179.40070340,175.81924465,-177.33692604,73.74745408,38.05855591
24.24340051,25.47981107,0.59801776,-0.41807989,-1.14443514

>  <Name>
ligand

>  <RI>
0

>  <Rbt.Current_Directory>
/home/itssahil/PROJECTS/Mol_Feturizer/New_Systems/rnas/1YLS

>  <Rbt.Executable>
rbdock ($Id: //depot/dev/client3/rdock/2013.1/src/exe/rbdock.cxx#4 $)

>  <Rbt.Library>
libRbt.so (2013.1, Build901 2013/11/27)

>  <Rbt.Parameter_File>
/export/apps/rDock/src/rDock_2013.1_src/data/scripts/dock_solv.prm

>  <Rbt.Receptor>
prm/pocket_docking_3.prm

>  <SCORE>
-38.3413

>  <SCORE.INTER>
-33.8072

>  <SCORE.INTER.CONST>
1

>  <SCORE.INTER.POLAR>
0

>  <SCORE.INTER.ROT>
5

>  <SCORE.INTER.SOLV>
7.56032

>  <SCORE.INTER.VDW>
-31.9916

>  <SCORE.INTER.norm>
-1.2074

>  <SCORE.INTRA>
-4.53406

>  <SCORE.INTRA.DIHEDRAL>
-9.55556

>  <SCORE.INTRA.DIHEDRAL.0>
12.0148

>  <SCORE.INTRA.POLAR>
0

>  <SCORE.INTRA.POLAR.0>
0

>  <SCORE.INTRA.REPUL>
0

>  <SCORE.INTRA.REPUL.0>
0

>  <SCORE.INTRA.SOLV>
0.159911

>  <SCORE.INTRA.SOLV.lig_0>
-10.5235

>  <SCORE.INTRA.VDW>
0.163763

>  <SCORE.INTRA.VDW.0>
-1.38455

>  <SCORE.INTRA.norm>
-0.161931

>  <SCORE.RESTR>
0

>  <SCORE.RESTR.CAVITY>
0

>  <SCORE.RESTR.norm>
0

>  <SCORE.SYSTEM>
0

>  <SCORE.SYSTEM.CONST>
0

>  <SCORE.SYSTEM.DIHEDRAL>
0

>  <SCORE.SYSTEM.SOLV>
0

>  <SCORE.SYSTEM.norm>
0

>  <SCORE.heavy>
28

>  <SCORE.norm>
-1.36933

>  <RMSD>
0.939

$$$$
ligand
 OpenBabel11021811413D
libRbt.so/2013.1/901 2013/11/27
 28 32  0  0  0  0  0  0  0  0999 V2000
   44.0007   27.9875   22.2186 C   0  0  0  0  0  0  0  0  0  0  0  0
   42.8208   27.0368   22.1752 C   0  0  0  0  0  0  0  0  0  0  0  0
   41.8536   27.2893   23.3222 C   0  0  0  0  0  0  0  0  0  0  0  0
   33.7757   25.2485   26.3328 O   0  0  0  0  0  0  0  0  0  0  0  0
   34.7102   25.1861   25.2539 C   0  0  0  0  0  0  0  0  0  0  0  0
   38.5142   24.1607   28.2189 C   0  0  0  0  0  0  0  0  0  0  0  0
   38.3285   25.3495   28.9129 C   0  0  0  0  0  0  0  0  0  0  0  0
   37.3125   26.2252   28.5219 C   0  0  0  0  0  0  0  0  0  0  0  0
   36.4825   25.9144   27.4441 C   0  0  0  0  0  0  0  0  0  0  0  0
   35.8885   24.2673   25.6019 C   0  0  1  0  0  0  0  0  0  0  0  0
   36.6685   24.7187   26.7906 C   0  0  0  0  0  0  0  0  0  0  0  0
   37.6694   23.8630   27.1759 C   0  0  0  0  0  0  0  0  0  0  0  0
   37.8086   22.6717   26.3602 C   0  0  1  0  0  0  0  0  0  0  0  0
   36.3083   20.6965   26.5568 C   0  0  0  0  0  0  0  0  0  0  0  0
   36.5072   22.0305   26.2932 C   0  0  0  0  0  0  0  0  0  0  0  0
   35.4804   22.8471   25.9016 C   0  0  0  0  0  0  0  0  0  0  0  0
   34.2010   22.3302   25.7607 C   0  0  0  0  0  0  0  0  0  0  0  0
   33.9791   20.9810   26.0450 C   0  0  0  0  0  0  0  0  0  0  0  0
   35.0324   20.1690   26.4447 C   0  0  0  0  0  0  0  0  0  0  0  0
   40.7561   26.2333   23.3409 C   0  0  0  0  0  0  0  0  0  0  0  0
   39.8572   26.4202   24.5574 C   0  0  0  0  0  0  0  0  0  0  0  0
   37.1986   26.4230   23.9177 O   0  0  0  0  0  0  0  0  0  0  0  0
   40.3568   23.7385   25.2973 O   0  0  0  0  0  0  0  0  0  0  0  0
   39.2512   24.1110   24.9409 C   0  0  0  0  0  0  0  0  0  0  0  0
   38.9376   25.2938   24.5792 N   0  0  0  0  0  0  0  0  0  0  0  0
   37.7160   25.4015   24.2891 C   0  0  0  0  0  0  0  0  0  0  0  0
   36.9516   24.1407   24.4992 C   0  0  1  0  0  0  0  0  0  0  0  0
   38.0723   23.2044   24.9584 C   0  0  2  0  0  0  0  0  0  0  0  0
  1  2  1  0  0  0  0
  2  3  1  0  0  0  0
  3 20  1  0  0  0  0
  4  5  1  0  0  0  0
  6  7  2  0  0  0  0
  6 12  1  0  0  0  0
  7  8  1  0  0  0  0
  8  9  2  0  0  0  0
  9 11  1  0  0  0  0
 10  5  1  6  0  0  0
 10 11  1  0  0  0  0
 10 16  1  0  0  0  0
 10 27  1  0  0  0  0
 11 12  2  0  0  0  0
 13 12  1  1  0  0  0
 13 15  1  0  0  0  0
 13 28  1  0  0  0  0
 14 15  2  0  0  0  0
 14 19  1  0  0  0  0
 15 16  1  0  0  0  0
 16 17  2  0  0  0  0
 17 18  1  0  0  0  0
 18 19  2  0  0  0  0
 20 21  1  0  0  0  0
 21 25  1  0  0  0  0
 22 26  2  0  0  0  0
 23 24  2  0  0  0  0
 24 25  1  0  0  0  0
 25 26  1  0  0  0  0
 27 26  1  1  0  0  0
 27 28  1  0  0  0  0
 28 24  1  1  0  0  0
M  END
>  <CHROM.1>
-174.14743028,-60.88877289,175.28951594,-173.82487936,75.55415784,37.82953057
24.52995467,25.46306552,-0.45183801,-0.51999998,-3.00315606

>  <Name>
ligand

>  <RI>
0

>  <Rbt.Current_Directory>
/home/itssahil/PROJECTS/Mol_Feturizer/New_Systems/rnas/1YLS

>  <Rbt.Executable>
rbdock ($Id: //depot/dev/client3/rdock/2013.1/src/exe/rbdock.cxx#4 $)

>  <Rbt.Library>
libRbt.so (2013.1, Build901 2013/11/27)

>  <Rbt.Parameter_File>
/export/apps/rDock/src/rDock_2013.1_src/data/scripts/dock_solv.prm

>  <Rbt.Receptor>
prm/pocket_docking_3.prm

>  <SCORE>
-38.6872

>  <SCORE.INTER>
-34.0076

>  <SCORE.INTER.CONST>
1

>  <SCORE.INTER.POLAR>
0

>  <SCORE.INTER.ROT>
5

>  <SCORE.INTER.SOLV>
7.86535

>  <SCORE.INTER.VDW>
-32.2268

>  <SCORE.INTER.norm>
-1.21456

>  <SCORE.INTRA>
-4.67962

>  <SCORE.INTRA.DIHEDRAL>
-9.36246

>  <SCORE.INTRA.DIHEDRAL.0>
12.0148

>  <SCORE.INTRA.POLAR>
0

>  <SCORE.INTRA.POLAR.0>
0

>  <SCORE.INTRA.REPUL>
0

>  <SCORE.INTRA.REPUL.0>
0

>  <SCORE.INTRA.SOLV>
-0.0348614

>  <SCORE.INTRA.SOLV.lig_0>
-10.5235

>  <SCORE.INTRA.VDW>
0.0190373

>  <SCORE.INTRA.VDW.0>
-1.38455

>  <SCORE.INTRA.norm>
-0.167129

>  <SCORE.RESTR>
0

>  <SCORE.RESTR.CAVITY>
0

>  <SCORE.RESTR.norm>
0

>  <SCORE.SYSTEM>
0

>  <SCORE.SYSTEM.CONST>
0

>  <SCORE.SYSTEM.DIHEDRAL>
0

>  <SCORE.SYSTEM.SOLV>
0

>  <SCORE.SYSTEM.norm>
0

>  <SCORE.heavy>
28

>  <SCORE.norm>
-1.38169

>  <RMSD>
0.939

$$$$
ligand
 OpenBabel11021811413D
libRbt.so/2013.1/901 2013/11/27
 28 32  0  0  0  0  0  0  0  0999 V2000
   44.0121   27.9790   22.2223 C   0  0  0  0  0  0  0  0  0  0  0  0
   42.8407   27.0175   22.1865 C   0  0  0  0  0  0  0  0  0  0  0  0
   41.8624   27.2817   23.3214 C   0  0  0  0  0  0  0  0  0  0  0  0
   33.7749   25.2615   26.3366 O   0  0  0  0  0  0  0  0  0  0  0  0
   34.7063   25.2000   25.2550 C   0  0  0  0  0  0  0  0  0  0  0  0
   38.5172   24.1607   28.2061 C   0  0  0  0  0  0  0  0  0  0  0  0
   38.3361   25.3484   28.9032 C   0  0  0  0  0  0  0  0  0  0  0  0
   37.3206   26.2270   28.5171 C   0  0  0  0  0  0  0  0  0  0  0  0
   36.4867   25.9201   27.4413 C   0  0  0  0  0  0  0  0  0  0  0  0
   35.8838   24.2781   25.5973 C   0  0  1  0  0  0  0  0  0  0  0  0
   36.6684   24.7255   26.7846 C   0  0  0  0  0  0  0  0  0  0  0  0
   37.6687   23.8670   27.1650 C   0  0  0  0  0  0  0  0  0  0  0  0
   37.8030   22.6771   26.3463 C   0  0  1  0  0  0  0  0  0  0  0  0
   36.2994   20.7045   26.5434 C   0  0  0  0  0  0  0  0  0  0  0  0
   36.5001   22.0386   26.2820 C   0  0  0  0  0  0  0  0  0  0  0  0
   35.4738   22.8581   25.8953 C   0  0  0  0  0  0  0  0  0  0  0  0
   34.1929   22.3441   25.7573 C   0  0  0  0  0  0  0  0  0  0  0  0
   33.9692   20.9947   26.0394 C   0  0  0  0  0  0  0  0  0  0  0  0
   35.0221   20.1798   26.4341 C   0  0  0  0  0  0  0  0  0  0  0  0
   40.7635   26.2271   23.3388 C   0  0  0  0  0  0  0  0  0  0  0  0
   39.8535   26.4254   24.5453 C   0  0  0  0  0  0  0  0  0  0  0  0
   37.1930   26.4348   23.9137 O   0  0  0  0  0  0  0  0  0  0  0  0
   40.3501   23.7411   25.2780 O   0  0  0  0  0  0  0  0  0  0  0  0
   39.2442   24.1165   24.9258 C   0  0  0  0  0  0  0  0  0  0  0  0
   38.9318   25.3008   24.5675 N   0  0  0  0  0  0  0  0  0  0  0  0
   37.7095   25.4115   24.2814 C   0  0  0  0  0  0  0  0  0  0  0  0
   36.9432   24.1517   24.4912 C   0  0  1  0  0  0  0  0  0  0  0  0
   38.0635   23.2122   24.9450 C   0  0  2  0  0  0  0  0  0  0  0  0
  1  2  1  0  0  0  0
  2  3  1  0  0  0  0
  3 20  1  0  0  0  0
  4  5  1  0  0  0  0
  6  7  2  0  0  0  0
  6 12  1  0  0  0  0
  7  8  1  0  0  0  0
  8  9  2  0  0  0  0
  9 11  1  0  0  0  0
 10  5  1  6  0  0  0
 10 11  1  0  0  0  0
 10 16  1  0  0  0  0
 10 27  1  0  0  0  0
 11 12  2  0  0  0  0
 13 12  1  1  0  0  0
 13 15  1  0  0  0  0
 13 28  1  0  0  0  0
 14 15  2  0  0  0  0
 14 19  1  0  0  0  0
 15 16  1  0  0  0  0
 16 17  2  0  0  0  0
 17 18  1  0  0  0  0
 18 19  2  0  0  0  0
 20 21  1  0  0  0  0
 21 25  1  0  0  0  0
 22 26  2  0  0  0  0
 23 24  2  0  0  0  0
 24 25  1  0  0  0  0
 25 26  1  0  0  0  0
 27 26  1  1  0  0  0
 27 28  1  0  0  0  0
 28 24  1  1  0  0  0
M  END
>  <CHROM.1>
-174.89446312,-60.91779487,175.22667593,-173.86590210,74.63411064,37.82793934
24.53496518,25.45645104,-0.44909031,-0.51792031,-3.00241786

>  <Name>
ligand

>  <RI>
0

>  <Rbt.Current_Directory>
/home/itssahil/PROJECTS/Mol_Feturizer/New_Systems/rnas/1YLS

>  <Rbt.Executable>
rbdock ($Id: //depot/dev/client3/rdock/2013.1/src/exe/rbdock.cxx#4 $)

>  <Rbt.Library>
libRbt.so (2013.1, Build901 2013/11/27)

>  <Rbt.Parameter_File>
/export/apps/rDock/src/rDock_2013.1_src/data/scripts/dock_solv.prm

>  <Rbt.Receptor>
prm/pocket_docking_8.prm

>  <SCORE>
-38.6808

>  <SCORE.INTER>
-34.006

>  <SCORE.INTER.CONST>
1

>  <SCORE.INTER.POLAR>
0

>  <SCORE.INTER.ROT>
5

>  <SCORE.INTER.SOLV>
7.88697

>  <SCORE.INTER.VDW>
-32.233

>  <SCORE.INTER.norm>
-1.2145

>  <SCORE.INTRA>
-4.67475

>  <SCORE.INTRA.DIHEDRAL>
-9.38878

>  <SCORE.INTRA.DIHEDRAL.0>
12.0148

>  <SCORE.INTRA.POLAR>
0

>  <SCORE.INTRA.POLAR.0>
0

>  <SCORE.INTRA.REPUL>
0

>  <SCORE.INTRA.REPUL.0>
0

>  <SCORE.INTRA.SOLV>
-0.033407

>  <SCORE.INTRA.SOLV.lig_0>
-10.5235

>  <SCORE.INTRA.VDW>
0.0363405

>  <SCORE.INTRA.VDW.0>
-1.38455

>  <SCORE.INTRA.norm>
-0.166955

>  <SCORE.RESTR>
0

>  <SCORE.RESTR.CAVITY>
0

>  <SCORE.RESTR.norm>
0

>  <SCORE.SYSTEM>
0

>  <SCORE.SYSTEM.CONST>
0

>  <SCORE.SYSTEM.DIHEDRAL>
0

>  <SCORE.SYSTEM.SOLV>
0

>  <SCORE.SYSTEM.norm>
0

>  <SCORE.heavy>
28

>  <SCORE.norm>
-1.38146

>  <RMSD>
0.939

$$$$
ligand
 OpenBabel11021811413D
libRbt.so/2013.1/901 2013/11/27
 28 32  0  0  0  0  0  0  0  0999 V2000
   43.9892   27.9775   22.1866 C   0  0  0  0  0  0  0  0  0  0  0  0
   42.7899   27.0521   22.1303 C   0  0  0  0  0  0  0  0  0  0  0  0
   41.8325   27.3027   23.2859 C   0  0  0  0  0  0  0  0  0  0  0  0
   33.8104   25.2861   26.3388 O   0  0  0  0  0  0  0  0  0  0  0  0
   34.7186   25.1778   25.2413 C   0  0  0  0  0  0  0  0  0  0  0  0
   38.5163   24.1547   28.2150 C   0  0  0  0  0  0  0  0  0  0  0  0
   38.3297   25.3443   28.9073 C   0  0  0  0  0  0  0  0  0  0  0  0
   37.3147   26.2199   28.5132 C   0  0  0  0  0  0  0  0  0  0  0  0
   36.4868   25.9081   27.4341 C   0  0  0  0  0  0  0  0  0  0  0  0
   35.8959   24.2590   25.5926 C   0  0  1  0  0  0  0  0  0  0  0  0
   36.6737   24.7116   26.7824 C   0  0  0  0  0  0  0  0  0  0  0  0
   37.6735   23.8561   27.1707 C   0  0  0  0  0  0  0  0  0  0  0  0
   37.8140   22.6637   26.3566 C   0  0  1  0  0  0  0  0  0  0  0  0
   36.3126   20.6892   26.5526 C   0  0  0  0  0  0  0  0  0  0  0  0
   36.5125   22.0228   26.2878 C   0  0  0  0  0  0  0  0  0  0  0  0
   35.4868   22.8393   25.8932 C   0  0  0  0  0  0  0  0  0  0  0  0
   34.2074   22.3226   25.7504 C   0  0  0  0  0  0  0  0  0  0  0  0
   33.9846   20.9739   26.0359 C   0  0  0  0  0  0  0  0  0  0  0  0
   35.0368   20.1620   26.4386 C   0  0  0  0  0  0  0  0  0  0  0  0
   40.7310   26.2509   23.3078 C   0  0  0  0  0  0  0  0  0  0  0  0
   39.8673   26.4095   24.5535 C   0  0  0  0  0  0  0  0  0  0  0  0
   37.2100   26.4123   23.9085 O   0  0  0  0  0  0  0  0  0  0  0  0
   40.3646   23.7284   25.2976 O   0  0  0  0  0  0  0  0  0  0  0  0
   39.2599   24.1008   24.9385 C   0  0  0  0  0  0  0  0  0  0  0  0
   38.9473   25.2834   24.5748 N   0  0  0  0  0  0  0  0  0  0  0  0
   37.7263   25.3911   24.2822 C   0  0  0  0  0  0  0  0  0  0  0  0
   36.9611   24.1307   24.4923 C   0  0  1  0  0  0  0  0  0  0  0  0
   38.0806   23.1946   24.9548 C   0  0  2  0  0  0  0  0  0  0  0  0
  1  2  1  0  0  0  0
  2  3  1  0  0  0  0
  3 20  1  0  0  0  0
  4  5  1  0  0  0  0
  6  7  2  0  0  0  0
  6 12  1  0  0  0  0
  7  8  1  0  0  0  0
  8  9  2  0  0  0  0
  9 11  1  0  0  0  0
 10  5  1  6  0  0  0
 10 11  1  0  0  0  0
 10 16  1  0  0  0  0
 10 27  1  0  0  0  0
 11 12  2  0  0  0  0
 13 12  1  1  0  0  0
 13 15  1  0  0  0  0
 13 28  1  0  0  0  0
 14 15  2  0  0  0  0
 14 19  1  0  0  0  0
 15 16  1  0  0  0  0
 16 17  2  0  0  0  0
 17 18  1  0  0  0  0
 18 19  2  0  0  0  0
 20 21  1  0  0  0  0
 21 25  1  0  0  0  0
 22 26  2  0  0  0  0
 23 24  2  0  0  0  0
 24 25  1  0  0  0  0
 25 26  1  0  0  0  0
 27 26  1  1  0  0  0
 27 28  1  0  0  0  0
 28 24  1  1  0  0  0
M  END
>  <CHROM.1>
-172.89293501,-58.46100596,173.59987931,-173.58641068,77.80567685,37.83291765
24.52632357,25.45253607,-0.45086332,-0.52720937,-2.99860009

>  <Name>
ligand

>  <RI>
0

>  <Rbt.Current_Directory>
/home/itssahil/PROJECTS/Mol_Feturizer/New_Systems/rnas/1YLS

>  <Rbt.Executable>
rbdock ($Id: //depot/dev/client3/rdock/2013.1/src/exe/rbdock.cxx#4 $)

>  <Rbt.Library>
libRbt.so (2013.1, Build901 2013/11/27)

>  <Rbt.Parameter_File>
/export/apps/rDock/src/rDock_2013.1_src/data/scripts/dock_solv.prm

>  <Rbt.Receptor>
prm/pocket_docking_5.prm

>  <SCORE>
-38.6324

>  <SCORE.INTER>
-33.999

>  <SCORE.INTER.CONST>
1

>  <SCORE.INTER.POLAR>
0

>  <SCORE.INTER.ROT>
5

>  <SCORE.INTER.SOLV>
7.91118

>  <SCORE.INTER.VDW>
-32.2364

>  <SCORE.INTER.norm>
-1.21425

>  <SCORE.INTRA>
-4.63339

>  <SCORE.INTRA.DIHEDRAL>
-9.20671

>  <SCORE.INTRA.DIHEDRAL.0>
12.0148

>  <SCORE.INTRA.POLAR>
0

>  <SCORE.INTRA.POLAR.0>
0

>  <SCORE.INTRA.REPUL>
0

>  <SCORE.INTRA.REPUL.0>
0

>  <SCORE.INTRA.SOLV>
-0.0352315

>  <SCORE.INTRA.SOLV.lig_0>
-10.5235

>  <SCORE.INTRA.VDW>
-0.0124141

>  <SCORE.INTRA.VDW.0>
-1.38455

>  <SCORE.INTRA.norm>
-0.165478

>  <SCORE.RESTR>
0

>  <SCORE.RESTR.CAVITY>
0

>  <SCORE.RESTR.norm>
0

>  <SCORE.SYSTEM>
0

>  <SCORE.SYSTEM.CONST>
0

>  <SCORE.SYSTEM.DIHEDRAL>
0

>  <SCORE.SYSTEM.SOLV>
0

>  <SCORE.SYSTEM.norm>
0

>  <SCORE.heavy>
28

>  <SCORE.norm>
-1.37973

>  <RMSD>
0.940

$$$$
ligand
 OpenBabel11021811413D
libRbt.so/2013.1/901 2013/11/27
 28 32  0  0  0  0  0  0  0  0999 V2000
   44.0705   26.2721   21.8898 C   0  0  0  0  0  0  0  0  0  0  0  0
   42.5978   26.6293   21.8507 C   0  0  0  0  0  0  0  0  0  0  0  0
   41.9094   26.3185   23.1715 C   0  0  0  0  0  0  0  0  0  0  0  0
   34.0379   24.2078   26.0791 O   0  0  0  0  0  0  0  0  0  0  0  0
   35.0555   24.2385   25.0767 C   0  0  0  0  0  0  0  0  0  0  0  0
   38.7069   24.6086   28.3695 C   0  0  0  0  0  0  0  0  0  0  0  0
   38.1794   25.7956   28.8614 C   0  0  0  0  0  0  0  0  0  0  0  0
   37.0233   26.3280   28.2849 C   0  0  0  0  0  0  0  0  0  0  0  0
   36.3940   25.6765   27.2235 C   0  0  0  0  0  0  0  0  0  0  0  0
   36.3826   23.6996   25.6262 C   0  0  1  0  0  0  0  0  0  0  0  0
   36.9198   24.4884   26.7727 C   0  0  0  0  0  0  0  0  0  0  0  0
   38.0570   23.9707   27.3396 C   0  0  0  0  0  0  0  0  0  0  0  0
   38.5513   22.7531   26.7255 C   0  0  1  0  0  0  0  0  0  0  0  0
   37.5561   20.5106   27.1401 C   0  0  0  0  0  0  0  0  0  0  0  0
   37.4530   21.8036   26.6860 C   0  0  0  0  0  0  0  0  0  0  0  0
   36.3008   22.2765   26.1176 C   0  0  0  0  0  0  0  0  0  0  0  0
   35.2007   21.4417   25.9873 C   0  0  0  0  0  0  0  0  0  0  0  0
   35.2833   20.1312   26.4628 C   0  0  0  0  0  0  0  0  0  0  0  0
   36.4594   19.6705   27.0400 C   0  0  0  0  0  0  0  0  0  0  0  0
   40.4261   26.6563   23.0958 C   0  0  0  0  0  0  0  0  0  0  0  0
   39.7987   26.6156   24.4842 C   0  0  0  0  0  0  0  0  0  0  0  0
   37.2867   25.8663   23.7058 O   0  0  0  0  0  0  0  0  0  0  0  0
   40.8561   24.2697   25.6538 O   0  0  0  0  0  0  0  0  0  0  0  0
   39.7309   24.3019   25.1839 C   0  0  0  0  0  0  0  0  0  0  0  0
   39.1775   25.3085   24.6279 N   0  0  0  0  0  0  0  0  0  0  0  0
   37.9974   25.0667   24.2578 C   0  0  0  0  0  0  0  0  0  0  0  0
   37.5413   23.6951   24.6165 C   0  0  1  0  0  0  0  0  0  0  0  0
   38.8068   23.1401   25.2753 C   0  0  2  0  0  0  0  0  0  0  0  0
  1  2  1  0  0  0  0
  2  3  1  0  0  0  0
  3 20  1  0  0  0  0
  4  5  1  0  0  0  0
  6  7  2  0  0  0  0
  6 12  1  0  0  0  0
  7  8  1  0  0  0  0
  8  9  2  0  0  0  0
  9 11  1  0  0  0  0
 10  5  1  6  0  0  0
 10 11  1  0  0  0  0
 10 16  1  0  0  0  0
 10 27  1  0  0  0  0
 11 12  2  0  0  0  0
 13 12  1  1  0  0  0
 13 15  1  0  0  0  0
 13 28  1  0  0  0  0
 14 15  2  0  0  0  0
 14 19  1  0  0  0  0
 15 16  1  0  0  0  0
 16 17  2  0  0  0  0
 17 18  1  0  0  0  0
 18 19  2  0  0  0  0
 20 21  1  0  0  0  0
 21 25  1  0  0  0  0
 22 26  2  0  0  0  0
 23 24  2  0  0  0  0
 24 25  1  0  0  0  0
 25 26  1  0  0  0  0
 27 26  1  1  0  0  0
 27 28  1  0  0  0  0
 28 24  1  1  0  0  0
M  END
>  <CHROM.1>
-178.70947195,-61.00950247,-168.53073830,-97.06894246,95.46944880,38.21630312
24.22494626,25.51838183,-0.54633568,-0.54350220,3.09625056

>  <Name>
ligand

>  <RI>
0

>  <Rbt.Current_Directory>
/home/itssahil/PROJECTS/Mol_Feturizer/New_Systems/rnas/1YLS

>  <Rbt.Executable>
rbdock ($Id: //depot/dev/client3/rdock/2013.1/src/exe/rbdock.cxx#4 $)

>  <Rbt.Library>
libRbt.so (2013.1, Build901 2013/11/27)

>  <Rbt.Parameter_File>
/export/apps/rDock/src/rDock_2013.1_src/data/scripts/dock_solv.prm

>  <Rbt.Receptor>
prm/pocket_docking_3.prm

>  <SCORE>
-36.4994

>  <SCORE.INTER>
-33.5172

>  <SCORE.INTER.CONST>
1

>  <SCORE.INTER.POLAR>
0

>  <SCORE.INTER.ROT>
5

>  <SCORE.INTER.SOLV>
7.01751

>  <SCORE.INTER.VDW>
-31.6173

>  <SCORE.INTER.norm>
-1.19704

>  <SCORE.INTRA>
-2.98213

>  <SCORE.INTRA.DIHEDRAL>
-5.4977

>  <SCORE.INTRA.DIHEDRAL.0>
12.0148

>  <SCORE.INTRA.POLAR>
0

>  <SCORE.INTRA.POLAR.0>
0

>  <SCORE.INTRA.REPUL>
0

>  <SCORE.INTRA.REPUL.0>
0

>  <SCORE.INTRA.SOLV>
0.151168

>  <SCORE.INTRA.SOLV.lig_0>
-10.5235

>  <SCORE.INTRA.VDW>
-0.308869

>  <SCORE.INTRA.VDW.0>
-1.38455

>  <SCORE.INTRA.norm>
-0.106505

>  <SCORE.RESTR>
0

>  <SCORE.RESTR.CAVITY>
0

>  <SCORE.RESTR.norm>
0

>  <SCORE.SYSTEM>
0

>  <SCORE.SYSTEM.CONST>
0

>  <SCORE.SYSTEM.DIHEDRAL>
0

>  <SCORE.SYSTEM.SOLV>
0

>  <SCORE.SYSTEM.norm>
0

>  <SCORE.heavy>
28

>  <SCORE.norm>
-1.30355

>  <RMSD>
0.941

$$$$
ligand
 OpenBabel11021811413D
libRbt.so/2013.1/901 2013/11/27
 28 32  0  0  0  0  0  0  0  0999 V2000
   43.9792   28.0021   22.1968 C   0  0  0  0  0  0  0  0  0  0  0  0
   42.8038   27.0454   22.1622 C   0  0  0  0  0  0  0  0  0  0  0  0
   41.8481   27.2879   23.3210 C   0  0  0  0  0  0  0  0  0  0  0  0
   33.7744   25.2291   26.3387 O   0  0  0  0  0  0  0  0  0  0  0  0
   34.7094   25.1737   25.2598 C   0  0  0  0  0  0  0  0  0  0  0  0
   38.5196   24.1480   28.2166 C   0  0  0  0  0  0  0  0  0  0  0  0
   38.3333   25.3350   28.9134 C   0  0  0  0  0  0  0  0  0  0  0  0
   37.3153   26.2100   28.5258 C   0  0  0  0  0  0  0  0  0  0  0  0
   36.4841   25.9002   27.4487 C   0  0  0  0  0  0  0  0  0  0  0  0
   35.8896   24.2559   25.6040 C   0  0  1  0  0  0  0  0  0  0  0  0
   36.6709   24.7061   26.7924 C   0  0  0  0  0  0  0  0  0  0  0  0
   37.6737   23.8512   27.1743 C   0  0  0  0  0  0  0  0  0  0  0  0
   37.8134   22.6618   26.3559 C   0  0  1  0  0  0  0  0  0  0  0  0
   36.3165   20.6839   26.5508 C   0  0  0  0  0  0  0  0  0  0  0  0
   36.5129   22.0187   26.2896 C   0  0  0  0  0  0  0  0  0  0  0  0
   35.4843   22.8345   25.9014 C   0  0  0  0  0  0  0  0  0  0  0  0
   34.2053   22.3160   25.7615 C   0  0  0  0  0  0  0  0  0  0  0  0
   33.9860   20.9659   26.0433 C   0  0  0  0  0  0  0  0  0  0  0  0
   35.0412   20.1547   26.4396 C   0  0  0  0  0  0  0  0  0  0  0  0
   40.7411   26.2418   23.3313 C   0  0  0  0  0  0  0  0  0  0  0  0
   39.8533   26.4172   24.5577 C   0  0  0  0  0  0  0  0  0  0  0  0
   37.1938   26.4172   23.9222 O   0  0  0  0  0  0  0  0  0  0  0  0
   40.3582   23.7347   25.2912 O   0  0  0  0  0  0  0  0  0  0  0  0
   39.2516   24.1062   24.9373 C   0  0  0  0  0  0  0  0  0  0  0  0
   38.9355   25.2893   24.5786 N   0  0  0  0  0  0  0  0  0  0  0  0
   37.7133   25.3957   24.2907 C   0  0  0  0  0  0  0  0  0  0  0  0
   36.9512   24.1333   24.4994 C   0  0  1  0  0  0  0  0  0  0  0  0
   38.0740   23.1978   24.9548 C   0  0  2  0  0  0  0  0  0  0  0  0
  1  2  1  0  0  0  0
  2  3  1  0  0  0  0
  3 20  1  0  0  0  0
  4  5  1  0  0  0  0
  6  7  2  0  0  0  0
  6 12  1  0  0  0  0
  7  8  1  0  0  0  0
  8  9  2  0  0  0  0
  9 11  1  0  0  0  0
 10  5  1  6  0  0  0
 10 11  1  0  0  0  0
 10 16  1  0  0  0  0
 10 27  1  0  0  0  0
 11 12  2  0  0  0  0
 13 12  1  1  0  0  0
 13 15  1  0  0  0  0
 13 28  1  0  0  0  0
 14 15  2  0  0  0  0
 14 19  1  0  0  0  0
 15 16  1  0  0  0  0
 16 17  2  0  0  0  0
 17 18  1  0  0  0  0
 18 19  2  0  0  0  0
 20 21  1  0  0  0  0
 21 25  1  0  0  0  0
 22 26  2  0  0  0  0
 23 24  2  0  0  0  0
 24 25  1  0  0  0  0
 25 26  1  0  0  0  0
 27 26  1  1  0  0  0
 27 28  1  0  0  0  0
 28 24  1  1  0  0  0
M  END
>  <CHROM.1>
-175.23808217,-61.07331120,175.30152760,-173.07101286,76.12765747,37.82886420
24.52225493,25.46109310,-0.45265030,-0.52403305,-2.99999662

>  <Name>
ligand

>  <RI>
0

>  <Rbt.Current_Directory>
/home/itssahil/PROJECTS/Mol_Feturizer/New_Systems/rnas/1YLS

>  <Rbt.Executable>
rbdock ($Id: //depot/dev/client3/rdock/2013.1/src/exe/rbdock.cxx#4 $)

>  <Rbt.Library>
libRbt.so (2013.1, Build901 2013/11/27)

>  <Rbt.Parameter_File>
/export/apps/rDock/src/rDock_2013.1_src/data/scripts/dock_solv.prm

>  <Rbt.Receptor>
prm/pocket_docking_3.prm

>  <SCORE>
-38.6695

>  <SCORE.INTER>
-33.9716

>  <SCORE.INTER.CONST>
1

>  <SCORE.INTER.POLAR>
0

>  <SCORE.INTER.ROT>
5

>  <SCORE.INTER.SOLV>
7.90187

>  <SCORE.INTER.VDW>
-32.215

>  <SCORE.INTER.norm>
-1.21327

>  <SCORE.INTRA>
-4.69784

>  <SCORE.INTRA.DIHEDRAL>
-9.3779

>  <SCORE.INTRA.DIHEDRAL.0>
12.0148

>  <SCORE.INTRA.POLAR>
0

>  <SCORE.INTRA.POLAR.0>
0

>  <SCORE.INTRA.REPUL>
0

>  <SCORE.INTRA.REPUL.0>
0

>  <SCORE.INTRA.SOLV>
-0.0346961

>  <SCORE.INTRA.SOLV.lig_0>
-10.5235

>  <SCORE.INTRA.VDW>
0.00845898

>  <SCORE.INTRA.VDW.0>
-1.38455

>  <SCORE.INTRA.norm>
-0.16778

>  <SCORE.RESTR>
0

>  <SCORE.RESTR.CAVITY>
0

>  <SCORE.RESTR.norm>
0

>  <SCORE.SYSTEM>
0

>  <SCORE.SYSTEM.CONST>
0

>  <SCORE.SYSTEM.DIHEDRAL>
0

>  <SCORE.SYSTEM.SOLV>
0

>  <SCORE.SYSTEM.norm>
0

>  <SCORE.heavy>
28

>  <SCORE.norm>
-1.38105

>  <RMSD>
0.944

$$$$
ligand
 OpenBabel11021811413D
libRbt.so/2013.1/901 2013/11/27
 28 32  0  0  0  0  0  0  0  0999 V2000
   43.5042   26.4910   21.7944 C   0  0  0  0  0  0  0  0  0  0  0  0
   43.2875   26.5383   23.2940 C   0  0  0  0  0  0  0  0  0  0  0  0
   42.1058   25.6789   23.7180 C   0  0  0  0  0  0  0  0  0  0  0  0
   33.9358   24.2591   25.7447 O   0  0  0  0  0  0  0  0  0  0  0  0
   35.0282   24.2073   24.8254 C   0  0  0  0  0  0  0  0  0  0  0  0
   38.4125   24.6873   28.3791 C   0  0  0  0  0  0  0  0  0  0  0  0
   37.8750   25.9091   28.7633 C   0  0  0  0  0  0  0  0  0  0  0  0
   36.7813   26.4310   28.0679 C   0  0  0  0  0  0  0  0  0  0  0  0
   36.2239   25.7346   26.9948 C   0  0  0  0  0  0  0  0  0  0  0  0
   36.2944   23.6742   25.5083 C   0  0  1  0  0  0  0  0  0  0  0  0
   36.7564   24.5140   26.6514 C   0  0  0  0  0  0  0  0  0  0  0  0
   37.8324   24.0066   27.3350 C   0  0  0  0  0  0  0  0  0  0  0  0
   38.3458   22.7483   26.8281 C   0  0  1  0  0  0  0  0  0  0  0  0
   37.2691   20.5509   27.2783 C   0  0  0  0  0  0  0  0  0  0  0  0
   37.2325   21.8189   26.7499 C   0  0  0  0  0  0  0  0  0  0  0  0
   36.1407   22.2818   26.0658 C   0  0  0  0  0  0  0  0  0  0  0  0
   35.0355   21.4620   25.8911 C   0  0  0  0  0  0  0  0  0  0  0  0
   35.0495   20.1780   26.4402 C   0  0  0  0  0  0  0  0  0  0  0  0
   36.1647   19.7273   27.1342 C   0  0  0  0  0  0  0  0  0  0  0  0
   40.7929   26.3274   23.2986 C   0  0  0  0  0  0  0  0  0  0  0  0
   39.8574   26.4589   24.4946 C   0  0  0  0  0  0  0  0  0  0  0  0
   37.3990   25.7158   23.5559 O   0  0  0  0  0  0  0  0  0  0  0  0
   40.7634   24.1607   25.8681 O   0  0  0  0  0  0  0  0  0  0  0  0
   39.6803   24.1885   25.3076 C   0  0  0  0  0  0  0  0  0  0  0  0
   39.1966   25.1735   24.6563 N   0  0  0  0  0  0  0  0  0  0  0  0
   38.0446   24.9342   24.2050 C   0  0  0  0  0  0  0  0  0  0  0  0
   37.5296   23.5930   24.5975 C   0  0  1  0  0  0  0  0  0  0  0  0
   38.7252   23.0509   25.3850 C   0  0  2  0  0  0  0  0  0  0  0  0
  1  2  1  0  0  0  0
  2  3  1  0  0  0  0
  3 20  1  0  0  0  0
  4  5  1  0  0  0  0
  6  7  2  0  0  0  0
  6 12  1  0  0  0  0
  7  8  1  0  0  0  0
  8  9  2  0  0  0  0
  9 11  1  0  0  0  0
 10  5  1  6  0  0  0
 10 11  1  0  0  0  0
 10 16  1  0  0  0  0
 10 27  1  0  0  0  0
 11 12  2  0  0  0  0
 13 12  1  6  0  0  0
 13 15  1  0  0  0  0
 13 28  1  0  0  0  0
 14 15  2  0  0  0  0
 14 19  1  0  0  0  0
 15 16  1  0  0  0  0
 16 17  2  0  0  0  0
 17 18  1  0  0  0  0
 18 19  2  0  0  0  0
 20 21  1  0  0  0  0
 21 25  1  0  0  0  0
 22 26  2  0  0  0  0
 23 24  2  0  0  0  0
 24 25  1  0  0  0  0
 25 26  1  0  0  0  0
 27 26  1  1  0  0  0
 27 28  1  0  0  0  0
 28 24  1  1  0  0  0
M  END
>  <CHROM.1>
-72.20106928,-60.60894063,-126.66444573,-82.52345304,85.41296236,38.13525911
24.17572316,25.56629556,-0.55192894,-0.43282381,3.04853218

>  <Name>
ligand

>  <RI>
0

>  <Rbt.Current_Directory>
/home/itssahil/PROJECTS/Mol_Feturizer/New_Systems/rnas/1YLS

>  <Rbt.Executable>
rbdock ($Id: //depot/dev/client3/rdock/2013.1/src/exe/rbdock.cxx#4 $)

>  <Rbt.Library>
libRbt.so (2013.1, Build901 2013/11/27)

>  <Rbt.Parameter_File>
/export/apps/rDock/src/rDock_2013.1_src/data/scripts/dock_solv.prm

>  <Rbt.Receptor>
prm/pocket_docking_4.prm

>  <SCORE>
-32.581

>  <SCORE.INTER>
-32.8036

>  <SCORE.INTER.CONST>
1

>  <SCORE.INTER.POLAR>
0

>  <SCORE.INTER.ROT>
5

>  <SCORE.INTER.SOLV>
6.65013

>  <SCORE.INTER.VDW>
-31.0191

>  <SCORE.INTER.norm>
-1.17156

>  <SCORE.INTRA>
0.222577

>  <SCORE.INTRA.DIHEDRAL>
-1.54754

>  <SCORE.INTRA.DIHEDRAL.0>
12.0148

>  <SCORE.INTRA.POLAR>
0

>  <SCORE.INTRA.POLAR.0>
0

>  <SCORE.INTRA.REPUL>
0

>  <SCORE.INTRA.REPUL.0>
0

>  <SCORE.INTRA.SOLV>
0.245092

>  <SCORE.INTRA.SOLV.lig_0>
-10.5235

>  <SCORE.INTRA.VDW>
0.873801

>  <SCORE.INTRA.VDW.0>
-1.38455

>  <SCORE.INTRA.norm>
0.00794917

>  <SCORE.RESTR>
0

>  <SCORE.RESTR.CAVITY>
0

>  <SCORE.RESTR.norm>
0

>  <SCORE.SYSTEM>
0

>  <SCORE.SYSTEM.CONST>
0

>  <SCORE.SYSTEM.DIHEDRAL>
0

>  <SCORE.SYSTEM.SOLV>
0

>  <SCORE.SYSTEM.norm>
0

>  <SCORE.heavy>
28

>  <SCORE.norm>
-1.16361

>  <RMSD>
0.945

$$$$
ligand
 OpenBabel11021811413D
libRbt.so/2013.1/901 2013/11/27
 28 32  0  0  0  0  0  0  0  0999 V2000
   43.3662   26.5932   22.1361 C   0  0  0  0  0  0  0  0  0  0  0  0
   42.7448   27.3325   23.3045 C   0  0  0  0  0  0  0  0  0  0  0  0
   41.3143   27.7552   23.0047 C   0  0  0  0  0  0  0  0  0  0  0  0
   33.9739   25.2280   26.2908 O   0  0  0  0  0  0  0  0  0  0  0  0
   34.9496   25.1716   25.2488 C   0  0  0  0  0  0  0  0  0  0  0  0
   38.6865   24.0386   28.2595 C   0  0  0  0  0  0  0  0  0  0  0  0
   38.5386   25.2406   28.9396 C   0  0  0  0  0  0  0  0  0  0  0  0
   37.5590   26.1489   28.5302 C   0  0  0  0  0  0  0  0  0  0  0  0
   36.7278   25.8574   27.4479 C   0  0  0  0  0  0  0  0  0  0  0  0
   36.0901   24.2139   25.6171 C   0  0  1  0  0  0  0  0  0  0  0  0
   36.8756   24.6489   26.8084 C   0  0  0  0  0  0  0  0  0  0  0  0
   37.8408   23.7612   27.2117 C   0  0  0  0  0  0  0  0  0  0  0  0
   37.9434   22.5570   26.4095 C   0  0  1  0  0  0  0  0  0  0  0  0
   36.3697   20.6404   26.6122 C   0  0  0  0  0  0  0  0  0  0  0  0
   36.6199   21.9633   26.3369 C   0  0  0  0  0  0  0  0  0  0  0  0
   35.6274   22.8128   25.9274 C   0  0  0  0  0  0  0  0  0  0  0  0
   34.3311   22.3418   25.7799 C   0  0  0  0  0  0  0  0  0  0  0  0
   34.0572   21.0048   26.0758 C   0  0  0  0  0  0  0  0  0  0  0  0
   35.0763   20.1589   26.4935 C   0  0  0  0  0  0  0  0  0  0  0  0
   40.3678   26.5678   23.1236 C   0  0  0  0  0  0  0  0  0  0  0  0
   40.1446   26.2086   24.5879 C   0  0  0  0  0  0  0  0  0  0  0  0
   37.4937   26.3023   23.9234 O   0  0  0  0  0  0  0  0  0  0  0  0
   40.5385   23.5183   25.3597 O   0  0  0  0  0  0  0  0  0  0  0  0
   39.4506   23.9273   24.9892 C   0  0  0  0  0  0  0  0  0  0  0  0
   39.1840   25.1170   24.6125 N   0  0  0  0  0  0  0  0  0  0  0  0
   37.9698   25.2664   24.3100 C   0  0  0  0  0  0  0  0  0  0  0  0
   37.1577   24.0368   24.5258 C   0  0  1  0  0  0  0  0  0  0  0  0
   38.2390   23.0648   25.0049 C   0  0  2  0  0  0  0  0  0  0  0  0
  1  2  1  0  0  0  0
  2  3  1  0  0  0  0
  3 20  1  0  0  0  0
  4  5  1  0  0  0  0
  6  7  2  0  0  0  0
  6 12  1  0  0  0  0
  7  8  1  0  0  0  0
  8  9  2  0  0  0  0
  9 11  1  0  0  0  0
 10  5  1  6  0  0  0
 10 11  1  0  0  0  0
 10 16  1  0  0  0  0
 10 27  1  0  0  0  0
 11 12  2  0  0  0  0
 13 12  1  1  0  0  0
 13 15  1  0  0  0  0
 13 28  1  0  0  0  0
 14 15  2  0  0  0  0
 14 19  1  0  0  0  0
 15 16  1  0  0  0  0
 16 17  2  0  0  0  0
 17 18  1  0  0  0  0
 18 19  2  0  0  0  0
 20 21  1  0  0  0  0
 21 25  1  0  0  0  0
 22 26  2  0  0  0  0
 23 24  2  0  0  0  0
 24 25  1  0  0  0  0
 25 26  1  0  0  0  0
 27 26  1  1  0  0  0
 27 28  1  0  0  0  0
 28 24  1  1  0  0  0
M  END
>  <CHROM.1>
77.02660385,-63.80513266,74.09502080,177.21476452,113.02363277,37.92349999
24.43666982,25.50461965,-0.54902351,-0.45016009,3.11397026

>  <Name>
ligand

>  <RI>
0

>  <Rbt.Current_Directory>
/home/itssahil/PROJECTS/Mol_Feturizer/New_Systems/rnas/1YLS

>  <Rbt.Executable>
rbdock ($Id: //depot/dev/client3/rdock/2013.1/src/exe/rbdock.cxx#4 $)

>  <Rbt.Library>
libRbt.so (2013.1, Build901 2013/11/27)

>  <Rbt.Parameter_File>
/export/apps/rDock/src/rDock_2013.1_src/data/scripts/dock_solv.prm

>  <Rbt.Receptor>
prm/pocket_docking_3.prm

>  <SCORE>
-37.0789

>  <SCORE.INTER>
-34.6582

>  <SCORE.INTER.CONST>
1

>  <SCORE.INTER.POLAR>
0

>  <SCORE.INTER.ROT>
5

>  <SCORE.INTER.SOLV>
8.00085

>  <SCORE.INTER.VDW>
-32.7057

>  <SCORE.INTER.norm>
-1.23779

>  <SCORE.INTRA>
-2.42071

>  <SCORE.INTRA.DIHEDRAL>
-7.69708

>  <SCORE.INTRA.DIHEDRAL.0>
12.0148

>  <SCORE.INTRA.POLAR>
0

>  <SCORE.INTRA.POLAR.0>
0

>  <SCORE.INTRA.REPUL>
0

>  <SCORE.INTRA.REPUL.0>
0

>  <SCORE.INTRA.SOLV>
-0.0245897

>  <SCORE.INTRA.SOLV.lig_0>
-10.5235

>  <SCORE.INTRA.VDW>
1.44012

>  <SCORE.INTRA.VDW.0>
-1.38455

>  <SCORE.INTRA.norm>
-0.086454

>  <SCORE.RESTR>
0

>  <SCORE.RESTR.CAVITY>
0

>  <SCORE.RESTR.norm>
0

>  <SCORE.SYSTEM>
0

>  <SCORE.SYSTEM.CONST>
0

>  <SCORE.SYSTEM.DIHEDRAL>
0

>  <SCORE.SYSTEM.SOLV>
0

>  <SCORE.SYSTEM.norm>
0

>  <SCORE.heavy>
28

>  <SCORE.norm>
-1.32425

>  <RMSD>
0.949

$$$$
ligand
 OpenBabel11021811413D
libRbt.so/2013.1/901 2013/11/27
 28 32  0  0  0  0  0  0  0  0999 V2000
   43.8797   26.1750   22.5370 C   0  0  0  0  0  0  0  0  0  0  0  0
   42.7468   26.8594   23.2761 C   0  0  0  0  0  0  0  0  0  0  0  0
   41.3884   26.4394   22.7346 C   0  0  0  0  0  0  0  0  0  0  0  0
   34.2561   24.9828   24.7553 O   0  0  0  0  0  0  0  0  0  0  0  0
   35.0594   25.3037   25.8923 C   0  0  0  0  0  0  0  0  0  0  0  0
   39.1556   23.9567   28.2837 C   0  0  0  0  0  0  0  0  0  0  0  0
   39.0342   25.0330   29.1534 C   0  0  0  0  0  0  0  0  0  0  0  0
   37.9773   25.9328   28.9942 C   0  0  0  0  0  0  0  0  0  0  0  0
   37.0429   25.7575   27.9728 C   0  0  0  0  0  0  0  0  0  0  0  0
   36.2736   24.3707   25.9866 C   0  0  1  0  0  0  0  0  0  0  0  0
   37.1688   24.6687   27.1421 C   0  0  0  0  0  0  0  0  0  0  0  0
   38.2100   23.7893   27.3000 C   0  0  0  0  0  0  0  0  0  0  0  0
   38.2726   22.7265   26.3149 C   0  0  1  0  0  0  0  0  0  0  0  0
   36.8143   20.7115   26.3821 C   0  0  0  0  0  0  0  0  0  0  0  0
   36.9757   22.0732   26.2902 C   0  0  0  0  0  0  0  0  0  0  0  0
   35.9084   22.9143   26.1232 C   0  0  0  0  0  0  0  0  0  0  0  0
   34.6249   22.3949   26.0410 C   0  0  0  0  0  0  0  0  0  0  0  0
   34.4429   21.0148   26.1535 C   0  0  0  0  0  0  0  0  0  0  0  0
   35.5373   20.1777   26.3264 C   0  0  0  0  0  0  0  0  0  0  0  0
   40.2730   27.2140   23.4245 C   0  0  0  0  0  0  0  0  0  0  0  0
   40.0985   26.7323   24.8599 C   0  0  0  0  0  0  0  0  0  0  0  0
   37.3882   26.7675   24.4989 O   0  0  0  0  0  0  0  0  0  0  0  0
   40.6903   23.9849   25.1607 O   0  0  0  0  0  0  0  0  0  0  0  0
   39.5513   24.3798   24.9739 C   0  0  0  0  0  0  0  0  0  0  0  0
   39.1939   25.5945   24.8158 N   0  0  0  0  0  0  0  0  0  0  0  0
   37.9482   25.7155   24.6687 C   0  0  0  0  0  0  0  0  0  0  0  0
   37.2182   24.4217   24.7754 C   0  0  1  0  0  0  0  0  0  0  0  0
   38.3868   23.4546   24.9827 C   0  0  2  0  0  0  0  0  0  0  0  0
  1  2  1  0  0  0  0
  2  3  1  0  0  0  0
  3 20  1  0  0  0  0
  4  5  1  0  0  0  0
  6  7  2  0  0  0  0
  6 12  1  0  0  0  0
  7  8  1  0  0  0  0
  8  9  2  0  0  0  0
  9 11  1  0  0  0  0
 10  5  1  6  0  0  0
 10 11  1  0  0  0  0
 10 16  1  0  0  0  0
 10 27  1  0  0  0  0
 11 12  2  0  0  0  0
 13 12  1  1  0  0  0
 13 15  1  0  0  0  0
 13 28  1  0  0  0  0
 14 15  2  0  0  0  0
 14 19  1  0  0  0  0
 15 16  1  0  0  0  0
 16 17  2  0  0  0  0
 17 18  1  0  0  0  0
 18 19  2  0  0  0  0
 20 21  1  0  0  0  0
 21 25  1  0  0  0  0
 22 26  2  0  0  0  0
 23 24  2  0  0  0  0
 24 25  1  0  0  0  0
 25 26  1  0  0  0  0
 27 26  1  1  0  0  0
 27 28  1  0  0  0  0
 28 24  1  1  0  0  0
M  END
>  <CHROM.1>
-175.94587965,178.98451593,-72.13890628,-86.32337593,106.28955666,38.13894045
24.51102395,25.59848905,-0.66520134,-0.08240042,2.59670709

>  <Name>
ligand

>  <RI>
0

>  <Rbt.Current_Directory>
/home/itssahil/PROJECTS/Mol_Feturizer/New_Systems/rnas/1YLS

>  <Rbt.Executable>
rbdock ($Id: //depot/dev/client3/rdock/2013.1/src/exe/rbdock.cxx#4 $)

>  <Rbt.Library>
libRbt.so (2013.1, Build901 2013/11/27)

>  <Rbt.Parameter_File>
/export/apps/rDock/src/rDock_2013.1_src/data/scripts/dock_solv.prm

>  <Rbt.Receptor>
prm/pocket_docking_3.prm

>  <SCORE>
-33.4987

>  <SCORE.INTER>
-30.7037

>  <SCORE.INTER.CONST>
1

>  <SCORE.INTER.POLAR>
0

>  <SCORE.INTER.ROT>
5

>  <SCORE.INTER.SOLV>
6.40187

>  <SCORE.INTER.VDW>
-29.5364

>  <SCORE.INTER.norm>
-1.09656

>  <SCORE.INTRA>
-2.79503

>  <SCORE.INTRA.DIHEDRAL>
-6.85046

>  <SCORE.INTRA.DIHEDRAL.0>
12.0148

>  <SCORE.INTRA.POLAR>
0

>  <SCORE.INTRA.POLAR.0>
0

>  <SCORE.INTRA.REPUL>
0

>  <SCORE.INTRA.REPUL.0>
0

>  <SCORE.INTRA.SOLV>
0.479862

>  <SCORE.INTRA.SOLV.lig_0>
-10.5235

>  <SCORE.INTRA.VDW>
0.39027

>  <SCORE.INTRA.VDW.0>
-1.38455

>  <SCORE.INTRA.norm>
-0.0998225

>  <SCORE.RESTR>
0

>  <SCORE.RESTR.CAVITY>
0

>  <SCORE.RESTR.norm>
0

>  <SCORE.SYSTEM>
0

>  <SCORE.SYSTEM.CONST>
0

>  <SCORE.SYSTEM.DIHEDRAL>
0

>  <SCORE.SYSTEM.SOLV>
0

>  <SCORE.SYSTEM.norm>
0

>  <SCORE.heavy>
28

>  <SCORE.norm>
-1.19638

>  <RMSD>
0.953

$$$$
ligand
 OpenBabel11021811413D
libRbt.so/2013.1/901 2013/11/27
 28 32  0  0  0  0  0  0  0  0999 V2000
   44.1260   26.8693   22.5686 C   0  0  0  0  0  0  0  0  0  0  0  0
   42.8425   26.1530   22.9396 C   0  0  0  0  0  0  0  0  0  0  0  0
   41.6500   27.0977   22.9325 C   0  0  0  0  0  0  0  0  0  0  0  0
   34.0007   25.2248   26.3028 O   0  0  0  0  0  0  0  0  0  0  0  0
   34.9250   25.0532   25.2270 C   0  0  0  0  0  0  0  0  0  0  0  0
   38.6201   23.8741   28.2714 C   0  0  0  0  0  0  0  0  0  0  0  0
   38.4974   25.0885   28.9343 C   0  0  0  0  0  0  0  0  0  0  0  0
   37.5415   26.0139   28.5076 C   0  0  0  0  0  0  0  0  0  0  0  0
   36.7087   25.7271   27.4253 C   0  0  0  0  0  0  0  0  0  0  0  0
   36.0408   24.0740   25.6140 C   0  0  1  0  0  0  0  0  0  0  0  0
   36.8308   24.5068   26.8031 C   0  0  0  0  0  0  0  0  0  0  0  0
   37.7729   23.6022   27.2233 C   0  0  0  0  0  0  0  0  0  0  0  0
   37.8508   22.3851   26.4381 C   0  0  1  0  0  0  0  0  0  0  0  0
   36.2313   20.5090   26.6592 C   0  0  0  0  0  0  0  0  0  0  0  0
   36.5140   21.8217   26.3671 C   0  0  0  0  0  0  0  0  0  0  0  0
   35.5438   22.6887   25.9411 C   0  0  0  0  0  0  0  0  0  0  0  0
   34.2374   22.2464   25.7936 C   0  0  0  0  0  0  0  0  0  0  0  0
   33.9307   20.9203   26.1064 C   0  0  0  0  0  0  0  0  0  0  0  0
   34.9276   20.0565   26.5407 C   0  0  0  0  0  0  0  0  0  0  0  0
   40.3508   26.3231   23.1122 C   0  0  0  0  0  0  0  0  0  0  0  0
   40.1460   25.9584   24.5777 C   0  0  0  0  0  0  0  0  0  0  0  0
   37.5012   26.1053   23.8989 O   0  0  0  0  0  0  0  0  0  0  0  0
   40.4727   23.2704   25.3882 O   0  0  0  0  0  0  0  0  0  0  0  0
   39.3965   23.6998   25.0068 C   0  0  0  0  0  0  0  0  0  0  0  0
   39.1598   24.8902   24.6125 N   0  0  0  0  0  0  0  0  0  0  0  0
   37.9509   25.0639   24.3020 C   0  0  0  0  0  0  0  0  0  0  0  0
   37.1090   23.8568   24.5305 C   0  0  1  0  0  0  0  0  0  0  0  0
   38.1648   22.8664   25.0282 C   0  0  2  0  0  0  0  0  0  0  0  0
  1  2  1  0  0  0  0
  2  3  1  0  0  0  0
  3 20  1  0  0  0  0
  4  5  1  0  0  0  0
  6  7  2  0  0  0  0
  6 12  1  0  0  0  0
  7  8  1  0  0  0  0
  8  9  2  0  0  0  0
  9 11  1  0  0  0  0
 10  5  1  6  0  0  0
 10 11  1  0  0  0  0
 10 16  1  0  0  0  0
 10 27  1  0  0  0  0
 11 12  2  0  0  0  0
 13 12  1  1  0  0  0
 13 15  1  0  0  0  0
 13 28  1  0  0  0  0
 14 15  2  0  0  0  0
 14 19  1  0  0  0  0
 15 16  1  0  0  0  0
 16 17  2  0  0  0  0
 17 18  1  0  0  0  0
 18 19  2  0  0  0  0
 20 21  1  0  0  0  0
 21 25  1  0  0  0  0
 22 26  2  0  0  0  0
 23 24  2  0  0  0  0
 24 25  1  0  0  0  0
 25 26  1  0  0  0  0
 27 26  1  1  0  0  0
 27 28  1  0  0  0  0
 28 24  1  1  0  0  0
M  END
>  <CHROM.1>
171.96674290,-59.37834584,78.76051882,-162.13304684,114.82439530,37.92449572
24.23650715,25.51181930,-0.50803893,-0.41084278,3.07820686

>  <Name>
ligand

>  <RI>
0

>  <Rbt.Current_Directory>
/home/itssahil/PROJECTS/Mol_Feturizer/New_Systems/rnas/1YLS

>  <Rbt.Executable>
rbdock ($Id: //depot/dev/client3/rdock/2013.1/src/exe/rbdock.cxx#4 $)

>  <Rbt.Library>
libRbt.so (2013.1, Build901 2013/11/27)

>  <Rbt.Parameter_File>
/export/apps/rDock/src/rDock_2013.1_src/data/scripts/dock_solv.prm

>  <Rbt.Receptor>
prm/pocket_docking_2.prm

>  <SCORE>
-36.3709

>  <SCORE.INTER>
-33.6424

>  <SCORE.INTER.CONST>
1

>  <SCORE.INTER.POLAR>
0

>  <SCORE.INTER.ROT>
5

>  <SCORE.INTER.SOLV>
7.62992

>  <SCORE.INTER.VDW>
-31.9049

>  <SCORE.INTER.norm>
-1.20152

>  <SCORE.INTRA>
-2.72848

>  <SCORE.INTRA.DIHEDRAL>
-6.92332

>  <SCORE.INTRA.DIHEDRAL.0>
12.0148

>  <SCORE.INTRA.POLAR>
0

>  <SCORE.INTRA.POLAR.0>
0

>  <SCORE.INTRA.REPUL>
0

>  <SCORE.INTRA.REPUL.0>
0

>  <SCORE.INTRA.SOLV>
0.00556415

>  <SCORE.INTRA.SOLV.lig_0>
-10.5235

>  <SCORE.INTRA.VDW>
0.730402

>  <SCORE.INTRA.VDW.0>
-1.38455

>  <SCORE.INTRA.norm>
-0.0974457

>  <SCORE.RESTR>
0

>  <SCORE.RESTR.CAVITY>
0

>  <SCORE.RESTR.norm>
0

>  <SCORE.SYSTEM>
0

>  <SCORE.SYSTEM.CONST>
0

>  <SCORE.SYSTEM.DIHEDRAL>
0

>  <SCORE.SYSTEM.SOLV>
0

>  <SCORE.SYSTEM.norm>
0

>  <SCORE.heavy>
28

>  <SCORE.norm>
-1.29896

>  <RMSD>
0.955

$$$$
ligand
 OpenBabel11021811413D
libRbt.so/2013.1/901 2013/11/27
 28 32  0  0  0  0  0  0  0  0999 V2000
   43.6857   26.3314   22.3357 C   0  0  0  0  0  0  0  0  0  0  0  0
   42.5893   27.3319   22.0275 C   0  0  0  0  0  0  0  0  0  0  0  0
   41.6281   27.4893   23.1963 C   0  0  0  0  0  0  0  0  0  0  0  0
   33.8689   24.5794   26.2185 O   0  0  0  0  0  0  0  0  0  0  0  0
   34.8556   24.5746   25.1853 C   0  0  0  0  0  0  0  0  0  0  0  0
   38.6334   24.2528   28.3376 C   0  0  0  0  0  0  0  0  0  0  0  0
   38.2763   25.4570   28.9306 C   0  0  0  0  0  0  0  0  0  0  0  0
   37.1777   26.1681   28.4410 C   0  0  0  0  0  0  0  0  0  0  0  0
   36.4360   25.6776   27.3657 C   0  0  0  0  0  0  0  0  0  0  0  0
   36.1221   23.8379   25.6402 C   0  0  1  0  0  0  0  0  0  0  0  0
   36.7927   24.4695   26.8136 C   0  0  0  0  0  0  0  0  0  0  0  0
   37.8740   23.7760   27.2954 C   0  0  0  0  0  0  0  0  0  0  0  0
   38.1903   22.5545   26.5799 C   0  0  1  0  0  0  0  0  0  0  0  0
   36.9353   20.4276   26.8838 C   0  0  0  0  0  0  0  0  0  0  0  0
   36.9805   21.7528   26.5230 C   0  0  0  0  0  0  0  0  0  0  0  0
   35.8785   22.4040   26.0373 C   0  0  0  0  0  0  0  0  0  0  0  0
   34.6783   21.7227   25.8977 C   0  0  0  0  0  0  0  0  0  0  0  0
   34.6114   20.3810   26.2795 C   0  0  0  0  0  0  0  0  0  0  0  0
   35.7389   19.7383   26.7738 C   0  0  0  0  0  0  0  0  0  0  0  0
   40.7710   26.2406   23.3581 C   0  0  0  0  0  0  0  0  0  0  0  0
   39.8375   26.3860   24.5541 C   0  0  0  0  0  0  0  0  0  0  0  0
   37.2265   26.0102   23.8342 O   0  0  0  0  0  0  0  0  0  0  0  0
   40.6302   23.8493   25.5163 O   0  0  0  0  0  0  0  0  0  0  0  0
   39.5027   24.0538   25.0979 C   0  0  0  0  0  0  0  0  0  0  0  0
   39.0620   25.1584   24.6353 N   0  0  0  0  0  0  0  0  0  0  0  0
   37.8491   25.0913   24.3001 C   0  0  0  0  0  0  0  0  0  0  0  0
   37.2363   23.7640   24.5843 C   0  0  1  0  0  0  0  0  0  0  0  0
   38.4434   23.0111   25.1497 C   0  0  2  0  0  0  0  0  0  0  0  0
  1  2  1  0  0  0  0
  2  3  1  0  0  0  0
  3 20  1  0  0  0  0
  4  5  1  0  0  0  0
  6  7  2  0  0  0  0
  6 12  1  0  0  0  0
  7  8  1  0  0  0  0
  8  9  2  0  0  0  0
  9 11  1  0  0  0  0
 10  5  1  6  0  0  0
 10 11  1  0  0  0  0
 10 16  1  0  0  0  0
 10 27  1  0  0  0  0
 11 12  2  0  0  0  0
 13 12  1  1  0  0  0
 13 15  1  0  0  0  0
 13 28  1  0  0  0  0
 14 15  2  0  0  0  0
 14 19  1  0  0  0  0
 15 16  1  0  0  0  0
 16 17  2  0  0  0  0
 17 18  1  0  0  0  0
 18 19  2  0  0  0  0
 20 21  1  0  0  0  0
 21 25  1  0  0  0  0
 22 26  2  0  0  0  0
 23 24  2  0  0  0  0
 24 25  1  0  0  0  0
 25 26  1  0  0  0  0
 27 26  1  1  0  0  0
 27 28  1  0  0  0  0
 28 24  1  1  0  0  0
M  END
>  <CHROM.1>
-70.82606358,-61.88627970,178.37570657,-179.97290710,77.25663577,37.99928599
24.25812578,25.53234804,-0.55340387,-0.50705613,3.13450684

>  <Name>
ligand

>  <RI>
0

>  <Rbt.Current_Directory>
/home/itssahil/PROJECTS/Mol_Feturizer/New_Systems/rnas/1YLS

>  <Rbt.Executable>
rbdock ($Id: //depot/dev/client3/rdock/2013.1/src/exe/rbdock.cxx#4 $)

>  <Rbt.Library>
libRbt.so (2013.1, Build901 2013/11/27)

>  <Rbt.Parameter_File>
/export/apps/rDock/src/rDock_2013.1_src/data/scripts/dock_solv.prm

>  <Rbt.Receptor>
prm/pocket_docking_4.prm

>  <SCORE>
-38.1032

>  <SCORE.INTER>
-34.355

>  <SCORE.INTER.CONST>
1

>  <SCORE.INTER.POLAR>
0

>  <SCORE.INTER.ROT>
5

>  <SCORE.INTER.SOLV>
7.6239

>  <SCORE.INTER.VDW>
-32.3779

>  <SCORE.INTER.norm>
-1.22696

>  <SCORE.INTRA>
-3.74827

>  <SCORE.INTRA.DIHEDRAL>
-9.2576

>  <SCORE.INTRA.DIHEDRAL.0>
12.0148

>  <SCORE.INTRA.POLAR>
0

>  <SCORE.INTRA.POLAR.0>
0

>  <SCORE.INTRA.REPUL>
0

>  <SCORE.INTRA.REPUL.0>
0

>  <SCORE.INTRA.SOLV>
-0.0572619

>  <SCORE.INTRA.SOLV.lig_0>
-10.5235

>  <SCORE.INTRA.VDW>
0.909162

>  <SCORE.INTRA.VDW.0>
-1.38455

>  <SCORE.INTRA.norm>
-0.133867

>  <SCORE.RESTR>
0

>  <SCORE.RESTR.CAVITY>
0

>  <SCORE.RESTR.norm>
0

>  <SCORE.SYSTEM>
0

>  <SCORE.SYSTEM.CONST>
0

>  <SCORE.SYSTEM.DIHEDRAL>
0

>  <SCORE.SYSTEM.SOLV>
0

>  <SCORE.SYSTEM.norm>
0

>  <SCORE.heavy>
28

>  <SCORE.norm>
-1.36083

>  <RMSD>
0.955

$$$$
ligand
 OpenBabel11021811413D
libRbt.so/2013.1/901 2013/11/27
 28 32  0  0  0  0  0  0  0  0999 V2000
   43.8687   26.1160   22.4881 C   0  0  0  0  0  0  0  0  0  0  0  0
   42.7614   26.8339   23.2341 C   0  0  0  0  0  0  0  0  0  0  0  0
   41.3856   26.3998   22.7509 C   0  0  0  0  0  0  0  0  0  0  0  0
   34.2422   25.0284   24.7882 O   0  0  0  0  0  0  0  0  0  0  0  0
   35.0552   25.3383   25.9214 C   0  0  0  0  0  0  0  0  0  0  0  0
   39.1696   23.9659   28.2667 C   0  0  0  0  0  0  0  0  0  0  0  0
   39.0569   25.0347   29.1465 C   0  0  0  0  0  0  0  0  0  0  0  0
   37.9998   25.9372   29.0039 C   0  0  0  0  0  0  0  0  0  0  0  0
   37.0566   25.7718   27.9890 C   0  0  0  0  0  0  0  0  0  0  0  0
   36.2689   24.4031   25.9974 C   0  0  1  0  0  0  0  0  0  0  0  0
   37.1742   24.6901   27.1479 C   0  0  0  0  0  0  0  0  0  0  0  0
   38.2156   23.8080   27.2895 C   0  0  0  0  0  0  0  0  0  0  0  0
   38.2686   22.7537   26.2947 C   0  0  1  0  0  0  0  0  0  0  0  0
   36.8083   20.7400   26.3569 C   0  0  0  0  0  0  0  0  0  0  0  0
   36.9707   22.1021   26.2753 C   0  0  0  0  0  0  0  0  0  0  0  0
   35.9031   22.9459   26.1245 C   0  0  0  0  0  0  0  0  0  0  0  0
   34.6183   22.4288   26.0487 C   0  0  0  0  0  0  0  0  0  0  0  0
   34.4355   21.0481   26.1508 C   0  0  0  0  0  0  0  0  0  0  0  0
   35.5303   20.2082   26.3073 C   0  0  0  0  0  0  0  0  0  0  0  0
   40.2961   27.2274   23.4203 C   0  0  0  0  0  0  0  0  0  0  0  0
   40.0873   26.7698   24.8591 C   0  0  0  0  0  0  0  0  0  0  0  0
   37.3741   26.8112   24.5211 O   0  0  0  0  0  0  0  0  0  0  0  0
   40.6781   24.0192   25.1312 O   0  0  0  0  0  0  0  0  0  0  0  0
   39.5381   24.4169   24.9573 C   0  0  0  0  0  0  0  0  0  0  0  0
   39.1809   25.6335   24.8127 N   0  0  0  0  0  0  0  0  0  0  0  0
   37.9341   25.7571   24.6771 C   0  0  0  0  0  0  0  0  0  0  0  0
   37.2035   24.4633   24.7788 C   0  0  1  0  0  0  0  0  0  0  0  0
   38.3725   23.4932   24.9679 C   0  0  2  0  0  0  0  0  0  0  0  0
  1  2  1  0  0  0  0
  2  3  1  0  0  0  0
  3 20  1  0  0  0  0
  4  5  1  0  0  0  0
  6  7  2  0  0  0  0
  6 12  1  0  0  0  0
  7  8  1  0  0  0  0
  8  9  2  0  0  0  0
  9 11  1  0  0  0  0
 10  5  1  6  0  0  0
 10 11  1  0  0  0  0
 10 16  1  0  0  0  0
 10 27  1  0  0  0  0
 11 12  2  0  0  0  0
 13 12  1  1  0  0  0
 13 15  1  0  0  0  0
 13 28  1  0  0  0  0
 14 15  2  0  0  0  0
 14 19  1  0  0  0  0
 15 16  1  0  0  0  0
 16 17  2  0  0  0  0
 17 18  1  0  0  0  0
 18 19  2  0  0  0  0
 20 21  1  0  0  0  0
 21 25  1  0  0  0  0
 22 26  2  0  0  0  0
 23 24  2  0  0  0  0
 24 25  1  0  0  0  0
 25 26  1  0  0  0  0
 27 26  1  1  0  0  0
 27 28  1  0  0  0  0
 28 24  1  1  0  0  0
M  END
>  <CHROM.1>
-174.66710794,178.96913833,-75.90974501,-83.97614332,103.98737600,38.13627659
24.53212089,25.59456829,-0.64831417,-0.16099583,2.69015034

>  <Name>
ligand

>  <RI>
0

>  <Rbt.Current_Directory>
/home/itssahil/PROJECTS/Mol_Feturizer/New_Systems/rnas/1YLS

>  <Rbt.Executable>
rbdock ($Id: //depot/dev/client3/rdock/2013.1/src/exe/rbdock.cxx#4 $)

>  <Rbt.Library>
libRbt.so (2013.1, Build901 2013/11/27)

>  <Rbt.Parameter_File>
/export/apps/rDock/src/rDock_2013.1_src/data/scripts/dock_solv.prm

>  <Rbt.Receptor>
prm/pocket_docking_2.prm

>  <SCORE>
-33.3546

>  <SCORE.INTER>
-30.4503

>  <SCORE.INTER.CONST>
1

>  <SCORE.INTER.POLAR>
0

>  <SCORE.INTER.ROT>
5

>  <SCORE.INTER.SOLV>
6.42482

>  <SCORE.INTER.VDW>
-29.3751

>  <SCORE.INTER.norm>
-1.08751

>  <SCORE.INTRA>
-2.90733

>  <SCORE.INTRA.DIHEDRAL>
-6.73942

>  <SCORE.INTRA.DIHEDRAL.0>
12.0148

>  <SCORE.INTRA.POLAR>
0

>  <SCORE.INTRA.POLAR.0>
0

>  <SCORE.INTRA.REPUL>
0

>  <SCORE.INTRA.REPUL.0>
0

>  <SCORE.INTRA.SOLV>
0.494056

>  <SCORE.INTRA.SOLV.lig_0>
-10.5235

>  <SCORE.INTRA.VDW>
0.21535

>  <SCORE.INTRA.VDW.0>
-1.38455

>  <SCORE.INTRA.norm>
-0.103833

>  <SCORE.RESTR>
0.00301547

>  <SCORE.RESTR.CAVITY>
0.00301547

>  <SCORE.RESTR.norm>
0.000107695

>  <SCORE.SYSTEM>
0

>  <SCORE.SYSTEM.CONST>
0

>  <SCORE.SYSTEM.DIHEDRAL>
0

>  <SCORE.SYSTEM.SOLV>
0

>  <SCORE.SYSTEM.norm>
0

>  <SCORE.heavy>
28

>  <SCORE.norm>
-1.19124

>  <RMSD>
0.958

$$$$
ligand
 OpenBabel11021811413D
libRbt.so/2013.1/901 2013/11/27
 28 32  0  0  0  0  0  0  0  0999 V2000
   43.6351   26.2915   22.0434 C   0  0  0  0  0  0  0  0  0  0  0  0
   42.6249   27.4211   22.0067 C   0  0  0  0  0  0  0  0  0  0  0  0
   41.8088   27.4866   23.2890 C   0  0  0  0  0  0  0  0  0  0  0  0
   34.3535   23.9851   24.1214 O   0  0  0  0  0  0  0  0  0  0  0  0
   34.9872   24.6604   25.2093 C   0  0  0  0  0  0  0  0  0  0  0  0
   38.7286   24.2606   28.3960 C   0  0  0  0  0  0  0  0  0  0  0  0
   38.3841   25.4664   28.9933 C   0  0  0  0  0  0  0  0  0  0  0  0
   37.3013   26.1973   28.4978 C   0  0  0  0  0  0  0  0  0  0  0  0
   36.5628   25.7251   27.4121 C   0  0  0  0  0  0  0  0  0  0  0  0
   36.2378   23.9016   25.6717 C   0  0  1  0  0  0  0  0  0  0  0  0
   36.9064   24.5153   26.8557 C   0  0  0  0  0  0  0  0  0  0  0  0
   37.9723   23.8023   27.3433 C   0  0  0  0  0  0  0  0  0  0  0  0
   38.2769   22.5807   26.6230 C   0  0  1  0  0  0  0  0  0  0  0  0
   36.9867   20.4713   26.9007 C   0  0  0  0  0  0  0  0  0  0  0  0
   37.0557   21.7980   26.5491 C   0  0  0  0  0  0  0  0  0  0  0  0
   35.9685   22.4690   26.0569 C   0  0  0  0  0  0  0  0  0  0  0  0
   34.7595   21.8070   25.9012 C   0  0  0  0  0  0  0  0  0  0  0  0
   34.6684   20.4642   26.2736 C   0  0  0  0  0  0  0  0  0  0  0  0
   35.7811   19.8011   26.7746 C   0  0  0  0  0  0  0  0  0  0  0  0
   40.8560   26.3017   23.3797 C   0  0  0  0  0  0  0  0  0  0  0  0
   40.0021   26.3994   24.6384 C   0  0  0  0  0  0  0  0  0  0  0  0
   37.3928   26.0682   23.8907 O   0  0  0  0  0  0  0  0  0  0  0  0
   40.7465   23.8448   25.5916 O   0  0  0  0  0  0  0  0  0  0  0  0
   39.6265   24.0691   25.1636 C   0  0  0  0  0  0  0  0  0  0  0  0
   39.2073   25.1834   24.7040 N   0  0  0  0  0  0  0  0  0  0  0  0
   37.9968   25.1369   24.3566 C   0  0  0  0  0  0  0  0  0  0  0  0
   37.3611   23.8173   24.6262 C   0  0  1  0  0  0  0  0  0  0  0  0
   38.5509   23.0425   25.1983 C   0  0  2  0  0  0  0  0  0  0  0  0
  1  2  1  0  0  0  0
  2  3  1  0  0  0  0
  3 20  1  0  0  0  0
  4  5  1  0  0  0  0
  6  7  2  0  0  0  0
  6 12  1  0  0  0  0
  7  8  1  0  0  0  0
  8  9  2  0  0  0  0
  9 11  1  0  0  0  0
 10  5  1  6  0  0  0
 10 11  1  0  0  0  0
 10 16  1  0  0  0  0
 10 27  1  0  0  0  0
 11 12  2  0  0  0  0
 13 12  1  1  0  0  0
 13 15  1  0  0  0  0
 13 28  1  0  0  0  0
 14 15  2  0  0  0  0
 14 19  1  0  0  0  0
 15 16  1  0  0  0  0
 16 17  2  0  0  0  0
 17 18  1  0  0  0  0
 18 19  2  0  0  0  0
 20 21  1  0  0  0  0
 21 25  1  0  0  0  0
 22 26  2  0  0  0  0
 23 24  2  0  0  0  0
 24 25  1  0  0  0  0
 25 26  1  0  0  0  0
 27 26  1  1  0  0  0
 27 28  1  0  0  0  0
 28 24  1  1  0  0  0
M  END
>  <CHROM.1>
-70.22428236,-176.85596540,-177.79789087,-175.37188883,82.20819710,38.11799188
24.26933274,25.46697545,0.48199741,-0.59155875,-1.45822439

>  <Name>
ligand

>  <RI>
0

>  <Rbt.Current_Directory>
/home/itssahil/PROJECTS/Mol_Feturizer/New_Systems/rnas/1YLS

>  <Rbt.Executable>
rbdock ($Id: //depot/dev/client3/rdock/2013.1/src/exe/rbdock.cxx#4 $)

>  <Rbt.Library>
libRbt.so (2013.1, Build901 2013/11/27)

>  <Rbt.Parameter_File>
/export/apps/rDock/src/rDock_2013.1_src/data/scripts/dock_solv.prm

>  <Rbt.Receptor>
prm/pocket_docking_3.prm

>  <SCORE>
-37.6549

>  <SCORE.INTER>
-34.1827

>  <SCORE.INTER.CONST>
1

>  <SCORE.INTER.POLAR>
0

>  <SCORE.INTER.ROT>
5

>  <SCORE.INTER.SOLV>
7.62217

>  <SCORE.INTER.VDW>
-32.2625

>  <SCORE.INTER.norm>
-1.22081

>  <SCORE.INTRA>
-3.47226

>  <SCORE.INTRA.DIHEDRAL>
-9.20347

>  <SCORE.INTRA.DIHEDRAL.0>
12.0148

>  <SCORE.INTRA.POLAR>
0

>  <SCORE.INTRA.POLAR.0>
0

>  <SCORE.INTRA.REPUL>
0

>  <SCORE.INTRA.REPUL.0>
0

>  <SCORE.INTRA.SOLV>
0.113984

>  <SCORE.INTRA.SOLV.lig_0>
-10.5235

>  <SCORE.INTRA.VDW>
1.07249

>  <SCORE.INTRA.VDW.0>
-1.38455

>  <SCORE.INTRA.norm>
-0.124009

>  <SCORE.RESTR>
0

>  <SCORE.RESTR.CAVITY>
0

>  <SCORE.RESTR.norm>
0

>  <SCORE.SYSTEM>
0

>  <SCORE.SYSTEM.CONST>
0

>  <SCORE.SYSTEM.DIHEDRAL>
0

>  <SCORE.SYSTEM.SOLV>
0

>  <SCORE.SYSTEM.norm>
0

>  <SCORE.heavy>
28

>  <SCORE.norm>
-1.34482

>  <RMSD>
0.960

$$$$
ligand
 OpenBabel11021811413D
libRbt.so/2013.1/901 2013/11/27
 28 32  0  0  0  0  0  0  0  0999 V2000
   44.0759   27.0284   22.6439 C   0  0  0  0  0  0  0  0  0  0  0  0
   42.8062   26.2550   22.9397 C   0  0  0  0  0  0  0  0  0  0  0  0
   41.5779   27.1515   22.8895 C   0  0  0  0  0  0  0  0  0  0  0  0
   33.9918   25.1491   26.2600 O   0  0  0  0  0  0  0  0  0  0  0  0
   34.9297   24.9882   25.1944 C   0  0  0  0  0  0  0  0  0  0  0  0
   38.6295   23.8890   28.2628 C   0  0  0  0  0  0  0  0  0  0  0  0
   38.4902   25.1094   28.9112 C   0  0  0  0  0  0  0  0  0  0  0  0
   37.5245   26.0183   28.4711 C   0  0  0  0  0  0  0  0  0  0  0  0
   36.6986   25.7090   27.3898 C   0  0  0  0  0  0  0  0  0  0  0  0
   36.0560   24.0271   25.5959 C   0  0  1  0  0  0  0  0  0  0  0  0
   36.8372   24.4831   26.7822 C   0  0  0  0  0  0  0  0  0  0  0  0
   37.7888   23.5949   27.2156 C   0  0  0  0  0  0  0  0  0  0  0  0
   37.8836   22.3697   26.4448 C   0  0  1  0  0  0  0  0  0  0  0  0
   36.2861   20.4769   26.6830 C   0  0  0  0  0  0  0  0  0  0  0  0
   36.5539   21.7895   26.3765 C   0  0  0  0  0  0  0  0  0  0  0  0
   35.5746   22.6398   25.9377 C   0  0  0  0  0  0  0  0  0  0  0  0
   34.2741   22.1801   25.7916 C   0  0  0  0  0  0  0  0  0  0  0  0
   33.9823   20.8542   26.1189 C   0  0  0  0  0  0  0  0  0  0  0  0
   34.9882   20.0075   26.5661 C   0  0  0  0  0  0  0  0  0  0  0  0
   40.3081   26.3332   23.0843 C   0  0  0  0  0  0  0  0  0  0  0  0
   40.1414   25.9486   24.5496 C   0  0  0  0  0  0  0  0  0  0  0  0
   37.4971   26.0557   23.8615 O   0  0  0  0  0  0  0  0  0  0  0  0
   40.4979   23.2743   25.3922 O   0  0  0  0  0  0  0  0  0  0  0  0
   39.4178   23.6863   25.0027 C   0  0  0  0  0  0  0  0  0  0  0  0
   39.1680   24.8691   24.5940 N   0  0  0  0  0  0  0  0  0  0  0  0
   37.9580   25.0246   24.2780 C   0  0  0  0  0  0  0  0  0  0  0  0
   37.1299   23.8102   24.5181 C   0  0  1  0  0  0  0  0  0  0  0  0
   38.1961   22.8384   25.0303 C   0  0  2  0  0  0  0  0  0  0  0  0
  1  2  1  0  0  0  0
  2  3  1  0  0  0  0
  3 20  1  0  0  0  0
  4  5  1  0  0  0  0
  6  7  2  0  0  0  0
  6 12  1  0  0  0  0
  7  8  1  0  0  0  0
  8  9  2  0  0  0  0
  9 11  1  0  0  0  0
 10  5  1  6  0  0  0
 10 11  1  0  0  0  0
 10 16  1  0  0  0  0
 10 27  1  0  0  0  0
 11 12  2  0  0  0  0
 13 12  1  1  0  0  0
 13 15  1  0  0  0  0
 13 28  1  0  0  0  0
 14 15  2  0  0  0  0
 14 19  1  0  0  0  0
 15 16  1  0  0  0  0
 16 17  2  0  0  0  0
 17 18  1  0  0  0  0
 18 19  2  0  0  0  0
 20 21  1  0  0  0  0
 21 25  1  0  0  0  0
 22 26  2  0  0  0  0
 23 24  2  0  0  0  0
 24 25  1  0  0  0  0
 25 26  1  0  0  0  0
 27 26  1  1  0  0  0
 27 28  1  0  0  0  0
 28 24  1  1  0  0  0
M  END
>  <CHROM.1>
175.68082426,-60.04983881,75.78233330,-163.41704339,116.85079777,37.93085639
24.22400229,25.50201093,-0.54611311,-0.38446651,3.02751015

>  <Name>
ligand

>  <RI>
0

>  <Rbt.Current_Directory>
/home/itssahil/PROJECTS/Mol_Feturizer/New_Systems/rnas/1YLS

>  <Rbt.Executable>
rbdock ($Id: //depot/dev/client3/rdock/2013.1/src/exe/rbdock.cxx#4 $)

>  <Rbt.Library>
libRbt.so (2013.1, Build901 2013/11/27)

>  <Rbt.Parameter_File>
/export/apps/rDock/src/rDock_2013.1_src/data/scripts/dock_solv.prm

>  <Rbt.Receptor>
prm/pocket_docking_2.prm

>  <SCORE>
-36.6052

>  <SCORE.INTER>
-33.7572

>  <SCORE.INTER.CONST>
1

>  <SCORE.INTER.POLAR>
0

>  <SCORE.INTER.ROT>
5

>  <SCORE.INTER.SOLV>
7.72978

>  <SCORE.INTER.VDW>
-32.0147

>  <SCORE.INTER.norm>
-1.20561

>  <SCORE.INTRA>
-2.89956

>  <SCORE.INTRA.DIHEDRAL>
-7.61735

>  <SCORE.INTRA.DIHEDRAL.0>
12.0148

>  <SCORE.INTRA.POLAR>
0

>  <SCORE.INTRA.POLAR.0>
0

>  <SCORE.INTRA.REPUL>
0

>  <SCORE.INTRA.REPUL.0>
0

>  <SCORE.INTRA.SOLV>
0.00420251

>  <SCORE.INTRA.SOLV.lig_0>
-10.5235

>  <SCORE.INTRA.VDW>
0.907009

>  <SCORE.INTRA.VDW.0>
-1.38455

>  <SCORE.INTRA.norm>
-0.103556

>  <SCORE.RESTR>
0.0515045

>  <SCORE.RESTR.CAVITY>
0.0515045

>  <SCORE.RESTR.norm>
0.00183945

>  <SCORE.SYSTEM>
0

>  <SCORE.SYSTEM.CONST>
0

>  <SCORE.SYSTEM.DIHEDRAL>
0

>  <SCORE.SYSTEM.SOLV>
0

>  <SCORE.SYSTEM.norm>
0

>  <SCORE.heavy>
28

>  <SCORE.norm>
-1.30733

>  <RMSD>
0.961

$$$$
ligand
 OpenBabel11021811413D
libRbt.so/2013.1/901 2013/11/27
 28 32  0  0  0  0  0  0  0  0999 V2000
   43.9932   28.0335   22.2235 C   0  0  0  0  0  0  0  0  0  0  0  0
   42.8660   27.0204   22.1950 C   0  0  0  0  0  0  0  0  0  0  0  0
   41.8963   27.2264   23.3491 C   0  0  0  0  0  0  0  0  0  0  0  0
   34.2627   24.0640   24.0869 O   0  0  0  0  0  0  0  0  0  0  0  0
   34.8653   24.6472   25.2435 C   0  0  0  0  0  0  0  0  0  0  0  0
   38.6973   24.1688   28.3094 C   0  0  0  0  0  0  0  0  0  0  0  0
   38.3876   25.3735   28.9277 C   0  0  0  0  0  0  0  0  0  0  0  0
   37.3000   26.1231   28.4723 C   0  0  0  0  0  0  0  0  0  0  0  0
   36.5222   25.6707   27.4058 C   0  0  0  0  0  0  0  0  0  0  0  0
   36.1193   23.8678   25.6603 C   0  0  1  0  0  0  0  0  0  0  0  0
   36.8322   24.4617   26.8284 C   0  0  0  0  0  0  0  0  0  0  0  0
   37.9029   23.7302   27.2767 C   0  0  0  0  0  0  0  0  0  0  0  0
   38.1686   22.5113   26.5365 C   0  0  1  0  0  0  0  0  0  0  0  0
   36.8594   20.4167   26.8354 C   0  0  0  0  0  0  0  0  0  0  0  0
   36.9353   21.7455   26.4935 C   0  0  0  0  0  0  0  0  0  0  0  0
   35.8427   22.4353   26.0411 C   0  0  0  0  0  0  0  0  0  0  0  0
   34.6207   21.7909   25.9170 C   0  0  0  0  0  0  0  0  0  0  0  0
   34.5230   20.4459   26.2802 C   0  0  0  0  0  0  0  0  0  0  0  0
   35.6415   19.7637   26.7407 C   0  0  0  0  0  0  0  0  0  0  0  0
   40.8136   26.1552   23.3379 C   0  0  0  0  0  0  0  0  0  0  0  0
   39.8833   26.3251   24.5332 C   0  0  0  0  0  0  0  0  0  0  0  0
   37.2480   26.0352   23.8636 O   0  0  0  0  0  0  0  0  0  0  0  0
   40.6222   23.7522   25.4405 O   0  0  0  0  0  0  0  0  0  0  0  0
   39.4927   23.9952   25.0493 C   0  0  0  0  0  0  0  0  0  0  0  0
   39.0745   25.1191   24.6127 N   0  0  0  0  0  0  0  0  0  0  0  0
   37.8534   25.0918   24.3025 C   0  0  0  0  0  0  0  0  0  0  0  0
   37.2086   23.7783   24.5799 C   0  0  1  0  0  0  0  0  0  0  0  0
   38.4049   22.9826   25.1082 C   0  0  2  0  0  0  0  0  0  0  0  0
  1  2  1  0  0  0  0
  2  3  1  0  0  0  0
  3 20  1  0  0  0  0
  4  5  1  0  0  0  0
  6  7  2  0  0  0  0
  6 12  1  0  0  0  0
  7  8  1  0  0  0  0
  8  9  2  0  0  0  0
  9 11  1  0  0  0  0
 10  5  1  6  0  0  0
 10 11  1  0  0  0  0
 10 16  1  0  0  0  0
 10 27  1  0  0  0  0
 11 12  2  0  0  0  0
 13 12  1  1  0  0  0
 13 15  1  0  0  0  0
 13 28  1  0  0  0  0
 14 15  2  0  0  0  0
 14 19  1  0  0  0  0
 15 16  1  0  0  0  0
 16 17  2  0  0  0  0
 17 18  1  0  0  0  0
 18 19  2  0  0  0  0
 20 21  1  0  0  0  0
 21 25  1  0  0  0  0
 22 26  2  0  0  0  0
 23 24  2  0  0  0  0
 24 25  1  0  0  0  0
 25 26  1  0  0  0  0
 27 26  1  1  0  0  0
 27 28  1  0  0  0  0
 28 24  1  1  0  0  0
M  END
>  <CHROM.1>
-177.18767681,177.43362219,177.29317546,-167.92622295,75.74905752,38.05309611
24.26971119,25.43899670,0.60747998,-0.44762789,-1.14936822

>  <Name>
ligand

>  <RI>
0

>  <Rbt.Current_Directory>
/home/itssahil/PROJECTS/Mol_Feturizer/New_Systems/rnas/1YLS

>  <Rbt.Executable>
rbdock ($Id: //depot/dev/client3/rdock/2013.1/src/exe/rbdock.cxx#4 $)

>  <Rbt.Library>
libRbt.so (2013.1, Build901 2013/11/27)

>  <Rbt.Parameter_File>
/export/apps/rDock/src/rDock_2013.1_src/data/scripts/dock_solv.prm

>  <Rbt.Receptor>
prm/pocket_docking_3.prm

>  <SCORE>
-38.3221

>  <SCORE.INTER>
-33.9227

>  <SCORE.INTER.CONST>
1

>  <SCORE.INTER.POLAR>
0

>  <SCORE.INTER.ROT>
5

>  <SCORE.INTER.SOLV>
7.87202

>  <SCORE.INTER.VDW>
-32.1725

>  <SCORE.INTER.norm>
-1.21152

>  <SCORE.INTRA>
-4.39944

>  <SCORE.INTRA.DIHEDRAL>
-9.13195

>  <SCORE.INTRA.DIHEDRAL.0>
12.0148

>  <SCORE.INTRA.POLAR>
0

>  <SCORE.INTRA.POLAR.0>
0

>  <SCORE.INTRA.REPUL>
0

>  <SCORE.INTRA.REPUL.0>
0

>  <SCORE.INTRA.SOLV>
0.182477

>  <SCORE.INTRA.SOLV.lig_0>
-10.5235

>  <SCORE.INTRA.VDW>
0.0752961

>  <SCORE.INTRA.VDW.0>
-1.38455

>  <SCORE.INTRA.norm>
-0.157123

>  <SCORE.RESTR>
0

>  <SCORE.RESTR.CAVITY>
0

>  <SCORE.RESTR.norm>
0

>  <SCORE.SYSTEM>
0

>  <SCORE.SYSTEM.CONST>
0

>  <SCORE.SYSTEM.DIHEDRAL>
0

>  <SCORE.SYSTEM.SOLV>
0

>  <SCORE.SYSTEM.norm>
0

>  <SCORE.heavy>
28

>  <SCORE.norm>
-1.36865

>  <RMSD>
0.964

$$$$
ligand
 OpenBabel11021811413D
libRbt.so/2013.1/901 2013/11/27
 28 32  0  0  0  0  0  0  0  0999 V2000
   43.6186   26.3040   22.2511 C   0  0  0  0  0  0  0  0  0  0  0  0
   42.5502   27.3524   22.0116 C   0  0  0  0  0  0  0  0  0  0  0  0
   41.6223   27.4924   23.2091 C   0  0  0  0  0  0  0  0  0  0  0  0
   33.8729   24.5807   26.2156 O   0  0  0  0  0  0  0  0  0  0  0  0
   34.8589   24.5639   25.1819 C   0  0  0  0  0  0  0  0  0  0  0  0
   38.6221   24.2486   28.3523 C   0  0  0  0  0  0  0  0  0  0  0  0
   38.2606   25.4526   28.9430 C   0  0  0  0  0  0  0  0  0  0  0  0
   37.1633   26.1619   28.4480 C   0  0  0  0  0  0  0  0  0  0  0  0
   36.4274   25.6700   27.3693 C   0  0  0  0  0  0  0  0  0  0  0  0
   36.1243   23.8292   25.6432 C   0  0  1  0  0  0  0  0  0  0  0  0
   36.7884   24.4622   26.8195 C   0  0  0  0  0  0  0  0  0  0  0  0
   37.8684   23.7704   27.3067 C   0  0  0  0  0  0  0  0  0  0  0  0
   38.1897   22.5491   26.5932 C   0  0  1  0  0  0  0  0  0  0  0  0
   36.9363   20.4205   26.8919 C   0  0  0  0  0  0  0  0  0  0  0  0
   36.9814   21.7457   26.5309 C   0  0  0  0  0  0  0  0  0  0  0  0
   35.8808   22.3951   26.0396 C   0  0  0  0  0  0  0  0  0  0  0  0
   34.6822   21.7121   25.8946 C   0  0  0  0  0  0  0  0  0  0  0  0
   34.6153   20.3705   26.2767 C   0  0  0  0  0  0  0  0  0  0  0  0
   35.7413   19.7296   26.7766 C   0  0  0  0  0  0  0  0  0  0  0  0
   40.7087   26.2791   23.3247 C   0  0  0  0  0  0  0  0  0  0  0  0
   39.8413   26.3820   24.5737 C   0  0  0  0  0  0  0  0  0  0  0  0
   37.2342   26.0023   23.8415 O   0  0  0  0  0  0  0  0  0  0  0  0
   40.6328   23.8468   25.5407 O   0  0  0  0  0  0  0  0  0  0  0  0
   39.5071   24.0496   25.1168 C   0  0  0  0  0  0  0  0  0  0  0  0
   39.0671   25.1534   24.6517 N   0  0  0  0  0  0  0  0  0  0  0  0
   37.8559   25.0844   24.3107 C   0  0  0  0  0  0  0  0  0  0  0  0
   37.2436   23.7564   24.5926 C   0  0  1  0  0  0  0  0  0  0  0  0
   38.4490   23.0054   25.1640 C   0  0  2  0  0  0  0  0  0  0  0  0
  1  2  1  0  0  0  0
  2  3  1  0  0  0  0
  3 20  1  0  0  0  0
  4  5  1  0  0  0  0
  6  7  2  0  0  0  0
  6 12  1  0  0  0  0
  7  8  1  0  0  0  0
  8  9  2  0  0  0  0
  9 11  1  0  0  0  0
 10  5  1  6  0  0  0
 10 11  1  0  0  0  0
 10 16  1  0  0  0  0
 10 27  1  0  0  0  0
 11 12  2  0  0  0  0
 13 12  1  1  0  0  0
 13 15  1  0  0  0  0
 13 28  1  0  0  0  0
 14 15  2  0  0  0  0
 14 19  1  0  0  0  0
 15 16  1  0  0  0  0
 16 17  2  0  0  0  0
 17 18  1  0  0  0  0
 18 19  2  0  0  0  0
 20 21  1  0  0  0  0
 21 25  1  0  0  0  0
 22 26  2  0  0  0  0
 23 24  2  0  0  0  0
 24 25  1  0  0  0  0
 25 26  1  0  0  0  0
 27 26  1  1  0  0  0
 27 28  1  0  0  0  0
 28 24  1  1  0  0  0
M  END
>  <CHROM.1>
-71.90860935,-61.24477351,176.48072210,-176.47793957,81.22953119,37.99291342
24.25402001,25.53461876,-0.54934366,-0.52153298,-3.13468060

>  <Name>
ligand

>  <RI>
0

>  <Rbt.Current_Directory>
/home/itssahil/PROJECTS/Mol_Feturizer/New_Systems/rnas/1YLS

>  <Rbt.Executable>
rbdock ($Id: //depot/dev/client3/rdock/2013.1/src/exe/rbdock.cxx#4 $)

>  <Rbt.Library>
libRbt.so (2013.1, Build901 2013/11/27)

>  <Rbt.Parameter_File>
/export/apps/rDock/src/rDock_2013.1_src/data/scripts/dock_solv.prm

>  <Rbt.Receptor>
prm/pocket_docking_6.prm

>  <SCORE>
-38.0608

>  <SCORE.INTER>
-34.2966

>  <SCORE.INTER.CONST>
1

>  <SCORE.INTER.POLAR>
0

>  <SCORE.INTER.ROT>
5

>  <SCORE.INTER.SOLV>
7.67391

>  <SCORE.INTER.VDW>
-32.3557

>  <SCORE.INTER.norm>
-1.22488

>  <SCORE.INTRA>
-3.76424

>  <SCORE.INTRA.DIHEDRAL>
-9.10055

>  <SCORE.INTRA.DIHEDRAL.0>
12.0148

>  <SCORE.INTRA.POLAR>
0

>  <SCORE.INTRA.POLAR.0>
0

>  <SCORE.INTRA.REPUL>
0

>  <SCORE.INTRA.REPUL.0>
0

>  <SCORE.INTRA.SOLV>
-0.0591638

>  <SCORE.INTRA.SOLV.lig_0>
-10.5235

>  <SCORE.INTRA.VDW>
0.815618

>  <SCORE.INTRA.VDW.0>
-1.38455

>  <SCORE.INTRA.norm>
-0.134437

>  <SCORE.RESTR>
0

>  <SCORE.RESTR.CAVITY>
0

>  <SCORE.RESTR.norm>
0

>  <SCORE.SYSTEM>
0

>  <SCORE.SYSTEM.CONST>
0

>  <SCORE.SYSTEM.DIHEDRAL>
0

>  <SCORE.SYSTEM.SOLV>
0

>  <SCORE.SYSTEM.norm>
0

>  <SCORE.heavy>
28

>  <SCORE.norm>
-1.35932

>  <RMSD>
0.967

$$$$
ligand
 OpenBabel11021811413D
libRbt.so/2013.1/901 2013/11/27
 28 32  0  0  0  0  0  0  0  0999 V2000
   43.6898   26.2548   22.2246 C   0  0  0  0  0  0  0  0  0  0  0  0
   42.6317   27.3169   22.0000 C   0  0  0  0  0  0  0  0  0  0  0  0
   41.7240   27.4702   23.2113 C   0  0  0  0  0  0  0  0  0  0  0  0
   34.2650   24.2852   24.1487 O   0  0  0  0  0  0  0  0  0  0  0  0
   34.9141   24.8380   25.2952 C   0  0  0  0  0  0  0  0  0  0  0  0
   38.7259   24.1322   28.3422 C   0  0  0  0  0  0  0  0  0  0  0  0
   38.4594   25.3282   28.9962 C   0  0  0  0  0  0  0  0  0  0  0  0
   37.3993   26.1294   28.5643 C   0  0  0  0  0  0  0  0  0  0  0  0
   36.6060   25.7370   27.4855 C   0  0  0  0  0  0  0  0  0  0  0  0
   36.1393   24.0022   25.6876 C   0  0  1  0  0  0  0  0  0  0  0  0
   36.8727   24.5353   26.8722 C   0  0  0  0  0  0  0  0  0  0  0  0
   37.9165   23.7531   27.2976 C   0  0  0  0  0  0  0  0  0  0  0  0
   38.1387   22.5480   26.5214 C   0  0  1  0  0  0  0  0  0  0  0  0
   36.7554   20.4935   26.7591 C   0  0  0  0  0  0  0  0  0  0  0  0
   36.8788   21.8284   26.4567 C   0  0  0  0  0  0  0  0  0  0  0  0
   35.8116   22.5699   26.0259 C   0  0  0  0  0  0  0  0  0  0  0  0
   34.5674   21.9734   25.8838 C   0  0  0  0  0  0  0  0  0  0  0  0
   34.4216   20.6227   26.2071 C   0  0  0  0  0  0  0  0  0  0  0  0
   35.5149   19.8876   26.6461 C   0  0  0  0  0  0  0  0  0  0  0  0
   40.7889   26.2743   23.3359 C   0  0  0  0  0  0  0  0  0  0  0  0
   39.9889   26.3558   24.6306 C   0  0  0  0  0  0  0  0  0  0  0  0
   37.3451   26.1803   23.9550 O   0  0  0  0  0  0  0  0  0  0  0  0
   40.6353   23.7324   25.4606 O   0  0  0  0  0  0  0  0  0  0  0  0
   39.5152   24.0272   25.0777 C   0  0  0  0  0  0  0  0  0  0  0  0
   39.1376   25.1777   24.6750 N   0  0  0  0  0  0  0  0  0  0  0  0
   37.9163   25.2033   24.3651 C   0  0  0  0  0  0  0  0  0  0  0  0
   37.2249   23.9060   24.6040 C   0  0  1  0  0  0  0  0  0  0  0  0
   38.3920   23.0527   25.1074 C   0  0  2  0  0  0  0  0  0  0  0  0
  1  2  1  0  0  0  0
  2  3  1  0  0  0  0
  3 20  1  0  0  0  0
  4  5  1  0  0  0  0
  6  7  2  0  0  0  0
  6 12  1  0  0  0  0
  7  8  1  0  0  0  0
  8  9  2  0  0  0  0
  9 11  1  0  0  0  0
 10  5  1  6  0  0  0
 10 11  1  0  0  0  0
 10 16  1  0  0  0  0
 10 27  1  0  0  0  0
 11 12  2  0  0  0  0
 13 12  1  1  0  0  0
 13 15  1  0  0  0  0
 13 28  1  0  0  0  0
 14 15  2  0  0  0  0
 14 19  1  0  0  0  0
 15 16  1  0  0  0  0
 16 17  2  0  0  0  0
 17 18  1  0  0  0  0
 18 19  2  0  0  0  0
 20 21  1  0  0  0  0
 21 25  1  0  0  0  0
 22 26  2  0  0  0  0
 23 24  2  0  0  0  0
 24 25  1  0  0  0  0
 25 26  1  0  0  0  0
 27 26  1  1  0  0  0
 27 28  1  0  0  0  0
 28 24  1  1  0  0  0
M  END
>  <CHROM.1>
-72.35180787,179.38390351,173.81036135,-179.47332034,82.73156792,38.03544358
24.29360681,25.44632832,0.59523275,-0.43111086,-1.19952810

>  <Name>
ligand

>  <RI>
0

>  <Rbt.Current_Directory>
/home/itssahil/PROJECTS/Mol_Feturizer/New_Systems/rnas/1YLS

>  <Rbt.Executable>
rbdock ($Id: //depot/dev/client3/rdock/2013.1/src/exe/rbdock.cxx#4 $)

>  <Rbt.Library>
libRbt.so (2013.1, Build901 2013/11/27)

>  <Rbt.Parameter_File>
/export/apps/rDock/src/rDock_2013.1_src/data/scripts/dock_solv.prm

>  <Rbt.Receptor>
prm/pocket_docking_6.prm

>  <SCORE>
-37.9764

>  <SCORE.INTER>
-34.4257

>  <SCORE.INTER.CONST>
1

>  <SCORE.INTER.POLAR>
0

>  <SCORE.INTER.ROT>
5

>  <SCORE.INTER.SOLV>
7.62585

>  <SCORE.INTER.VDW>
-32.4258

>  <SCORE.INTER.norm>
-1.22949

>  <SCORE.INTRA>
-3.55064

>  <SCORE.INTRA.DIHEDRAL>
-9.00516

>  <SCORE.INTRA.DIHEDRAL.0>
12.0148

>  <SCORE.INTRA.POLAR>
0

>  <SCORE.INTRA.POLAR.0>
0

>  <SCORE.INTRA.REPUL>
0

>  <SCORE.INTRA.REPUL.0>
0

>  <SCORE.INTRA.SOLV>
0.130984

>  <SCORE.INTRA.SOLV.lig_0>
-10.5235

>  <SCORE.INTRA.VDW>
0.886453

>  <SCORE.INTRA.VDW.0>
-1.38455

>  <SCORE.INTRA.norm>
-0.126808

>  <SCORE.RESTR>
0

>  <SCORE.RESTR.CAVITY>
0

>  <SCORE.RESTR.norm>
0

>  <SCORE.SYSTEM>
0

>  <SCORE.SYSTEM.CONST>
0

>  <SCORE.SYSTEM.DIHEDRAL>
0

>  <SCORE.SYSTEM.SOLV>
0

>  <SCORE.SYSTEM.norm>
0

>  <SCORE.heavy>
28

>  <SCORE.norm>
-1.3563

>  <RMSD>
0.970

$$$$
ligand
 OpenBabel11021811413D
libRbt.so/2013.1/901 2013/11/27
 28 32  0  0  0  0  0  0  0  0999 V2000
   43.8225   28.4378   22.2801 C   0  0  0  0  0  0  0  0  0  0  0  0
   42.8802   27.2512   22.3230 C   0  0  0  0  0  0  0  0  0  0  0  0
   41.7608   27.4593   23.3322 C   0  0  0  0  0  0  0  0  0  0  0  0
   34.0056   24.1631   26.1441 O   0  0  0  0  0  0  0  0  0  0  0  0
   35.0254   24.1817   25.1437 C   0  0  0  0  0  0  0  0  0  0  0  0
   38.7055   24.3877   28.4189 C   0  0  0  0  0  0  0  0  0  0  0  0
   38.2276   25.5915   28.9207 C   0  0  0  0  0  0  0  0  0  0  0  0
   37.0904   26.1724   28.3536 C   0  0  0  0  0  0  0  0  0  0  0  0
   36.4305   25.5527   27.2918 C   0  0  0  0  0  0  0  0  0  0  0  0
   36.3331   23.5877   25.6828 C   0  0  1  0  0  0  0  0  0  0  0  0
   36.9069   24.3477   26.8311 C   0  0  0  0  0  0  0  0  0  0  0  0
   38.0257   23.7822   27.3887 C   0  0  0  0  0  0  0  0  0  0  0  0
   38.4685   22.5499   26.7647 C   0  0  1  0  0  0  0  0  0  0  0  0
   37.3881   20.3457   27.1712 C   0  0  0  0  0  0  0  0  0  0  0  0
   37.3336   21.6446   26.7255 C   0  0  0  0  0  0  0  0  0  0  0  0
   36.1980   22.1659   26.1661 C   0  0  0  0  0  0  0  0  0  0  0  0
   35.0652   21.3758   26.0368 C   0  0  0  0  0  0  0  0  0  0  0  0
   35.0987   20.0602   26.5040 C   0  0  0  0  0  0  0  0  0  0  0  0
   36.2587   19.5500   27.0721 C   0  0  0  0  0  0  0  0  0  0  0  0
   40.8916   26.2126   23.4340 C   0  0  0  0  0  0  0  0  0  0  0  0
   39.8553   26.3742   24.5398 C   0  0  0  0  0  0  0  0  0  0  0  0
   37.3118   25.7290   23.7705 O   0  0  0  0  0  0  0  0  0  0  0  0
   40.8256   23.9814   25.6896 O   0  0  0  0  0  0  0  0  0  0  0  0
   39.7001   24.0607   25.2260 C   0  0  0  0  0  0  0  0  0  0  0  0
   39.1840   25.0917   24.6790 N   0  0  0  0  0  0  0  0  0  0  0  0
   37.9934   24.8987   24.3138 C   0  0  0  0  0  0  0  0  0  0  0  0
   37.4855   23.5439   24.6669 C   0  0  1  0  0  0  0  0  0  0  0  0
   38.7315   22.9356   25.3155 C   0  0  2  0  0  0  0  0  0  0  0  0
  1  2  1  0  0  0  0
  2  3  1  0  0  0  0
  3 20  1  0  0  0  0
  4  5  1  0  0  0  0
  6  7  2  0  0  0  0
  6 12  1  0  0  0  0
  7  8  1  0  0  0  0
  8  9  2  0  0  0  0
  9 11  1  0  0  0  0
 10  5  1  6  0  0  0
 10 11  1  0  0  0  0
 10 16  1  0  0  0  0
 10 27  1  0  0  0  0
 11 12  2  0  0  0  0
 13 12  1  1  0  0  0
 13 15  1  0  0  0  0
 13 28  1  0  0  0  0
 14 15  2  0  0  0  0
 14 19  1  0  0  0  0
 15 16  1  0  0  0  0
 16 17  2  0  0  0  0
 17 18  1  0  0  0  0
 18 19  2  0  0  0  0
 20 21  1  0  0  0  0
 21 25  1  0  0  0  0
 22 26  2  0  0  0  0
 23 24  2  0  0  0  0
 24 25  1  0  0  0  0
 25 26  1  0  0  0  0
 27 26  1  1  0  0  0
 27 28  1  0  0  0  0
 28 24  1  1  0  0  0
M  END
>  <CHROM.1>
-175.63880300,-62.04010257,174.55143241,-173.16362209,74.25105718,38.19193301
24.23056039,25.61463698,-0.68758268,-0.44309927,3.02298988

>  <Name>
ligand

>  <RI>
0

>  <Rbt.Current_Directory>
/home/itssahil/PROJECTS/Mol_Feturizer/New_Systems/rnas/1YLS

>  <Rbt.Executable>
rbdock ($Id: //depot/dev/client3/rdock/2013.1/src/exe/rbdock.cxx#4 $)

>  <Rbt.Library>
libRbt.so (2013.1, Build901 2013/11/27)

>  <Rbt.Parameter_File>
/export/apps/rDock/src/rDock_2013.1_src/data/scripts/dock_solv.prm

>  <Rbt.Receptor>
prm/pocket_docking_7.prm

>  <SCORE>
-38.6029

>  <SCORE.INTER>
-33.9402

>  <SCORE.INTER.CONST>
1

>  <SCORE.INTER.POLAR>
0

>  <SCORE.INTER.ROT>
5

>  <SCORE.INTER.SOLV>
7.52618

>  <SCORE.INTER.VDW>
-32.0689

>  <SCORE.INTER.norm>
-1.21215

>  <SCORE.INTRA>
-4.66265

>  <SCORE.INTRA.DIHEDRAL>
-9.34596

>  <SCORE.INTRA.DIHEDRAL.0>
12.0148

>  <SCORE.INTRA.POLAR>
0

>  <SCORE.INTRA.POLAR.0>
0

>  <SCORE.INTRA.REPUL>
0

>  <SCORE.INTRA.REPUL.0>
0

>  <SCORE.INTRA.SOLV>
-0.0317815

>  <SCORE.INTRA.SOLV.lig_0>
-10.5235

>  <SCORE.INTRA.VDW>
0.0262184

>  <SCORE.INTRA.VDW.0>
-1.38455

>  <SCORE.INTRA.norm>
-0.166523

>  <SCORE.RESTR>
0

>  <SCORE.RESTR.CAVITY>
0

>  <SCORE.RESTR.norm>
0

>  <SCORE.SYSTEM>
0

>  <SCORE.SYSTEM.CONST>
0

>  <SCORE.SYSTEM.DIHEDRAL>
0

>  <SCORE.SYSTEM.SOLV>
0

>  <SCORE.SYSTEM.norm>
0

>  <SCORE.heavy>
28

>  <SCORE.norm>
-1.37867

>  <RMSD>
0.976

$$$$
ligand
 OpenBabel11021811413D
libRbt.so/2013.1/901 2013/11/27
 28 32  0  0  0  0  0  0  0  0999 V2000
   44.2024   26.1438   22.1074 C   0  0  0  0  0  0  0  0  0  0  0  0
   42.7787   26.6449   21.9659 C   0  0  0  0  0  0  0  0  0  0  0  0
   41.9921   26.4732   23.2568 C   0  0  0  0  0  0  0  0  0  0  0  0
   34.0527   25.4397   24.5074 O   0  0  0  0  0  0  0  0  0  0  0  0
   34.8245   25.6964   25.6820 C   0  0  0  0  0  0  0  0  0  0  0  0
   38.9824   24.3652   27.9737 C   0  0  0  0  0  0  0  0  0  0  0  0
   38.9078   25.4718   28.8098 C   0  0  0  0  0  0  0  0  0  0  0  0
   37.8593   26.3826   28.6569 C   0  0  0  0  0  0  0  0  0  0  0  0
   36.8868   26.1880   27.6753 C   0  0  0  0  0  0  0  0  0  0  0  0
   36.0273   24.7478   25.7656 C   0  0  1  0  0  0  0  0  0  0  0  0
   36.9672   25.0701   26.8783 C   0  0  0  0  0  0  0  0  0  0  0  0
   38.0002   24.1799   27.0298 C   0  0  0  0  0  0  0  0  0  0  0  0
   38.0122   23.0838   26.0799 C   0  0  1  0  0  0  0  0  0  0  0  0
   36.5275   21.0958   26.2667 C   0  0  0  0  0  0  0  0  0  0  0  0
   36.7057   22.4508   26.1227 C   0  0  0  0  0  0  0  0  0  0  0  0
   35.6457   23.3028   25.9645 C   0  0  0  0  0  0  0  0  0  0  0  0
   34.3525   22.8015   25.9448 C   0  0  0  0  0  0  0  0  0  0  0  0
   34.1542   21.4292   26.1107 C   0  0  0  0  0  0  0  0  0  0  0  0
   35.2416   20.5809   26.2738 C   0  0  0  0  0  0  0  0  0  0  0  0
   40.5601   26.9619   23.0815 C   0  0  0  0  0  0  0  0  0  0  0  0
   39.8445   27.0088   24.4264 C   0  0  0  0  0  0  0  0  0  0  0  0
   37.1240   27.0752   24.1591 O   0  0  0  0  0  0  0  0  0  0  0  0
   40.4058   24.2640   24.7999 O   0  0  0  0  0  0  0  0  0  0  0  0
   39.2669   24.6705   24.6395 C   0  0  0  0  0  0  0  0  0  0  0  0
   38.9222   25.8848   24.4526 N   0  0  0  0  0  0  0  0  0  0  0  0
   37.6739   26.0206   24.3450 C   0  0  0  0  0  0  0  0  0  0  0  0
   36.9292   24.7430   24.5212 C   0  0  1  0  0  0  0  0  0  0  0  0
   38.0899   23.7649   24.7205 C   0  0  2  0  0  0  0  0  0  0  0  0
  1  2  1  0  0  0  0
  2  3  1  0  0  0  0
  3 20  1  0  0  0  0
  4  5  1  0  0  0  0
  6  7  2  0  0  0  0
  6 12  1  0  0  0  0
  7  8  1  0  0  0  0
  8  9  2  0  0  0  0
  9 11  1  0  0  0  0
 10  5  1  6  0  0  0
 10 11  1  0  0  0  0
 10 16  1  0  0  0  0
 10 27  1  0  0  0  0
 11 12  2  0  0  0  0
 13 12  1  1  0  0  0
 13 15  1  0  0  0  0
 13 28  1  0  0  0  0
 14 15  2  0  0  0  0
 14 19  1  0  0  0  0
 15 16  1  0  0  0  0
 16 17  2  0  0  0  0
 17 18  1  0  0  0  0
 18 19  2  0  0  0  0
 20 21  1  0  0  0  0
 21 25  1  0  0  0  0
 22 26  2  0  0  0  0
 23 24  2  0  0  0  0
 24 25  1  0  0  0  0
 25 26  1  0  0  0  0
 27 26  1  1  0  0  0
 27 28  1  0  0  0  0
 28 24  1  1  0  0  0
M  END
>  <CHROM.1>
-179.04640564,172.94252399,-170.50169097,-105.84549361,75.96415083,37.98184686
24.80293382,25.32159702,-0.51453451,-0.34550826,2.91001184

>  <Name>
ligand

>  <RI>
0

>  <Rbt.Current_Directory>
/home/itssahil/PROJECTS/Mol_Feturizer/New_Systems/rnas/1YLS

>  <Rbt.Executable>
rbdock ($Id: //depot/dev/client3/rdock/2013.1/src/exe/rbdock.cxx#4 $)

>  <Rbt.Library>
libRbt.so (2013.1, Build901 2013/11/27)

>  <Rbt.Parameter_File>
/export/apps/rDock/src/rDock_2013.1_src/data/scripts/dock_solv.prm

>  <Rbt.Receptor>
prm/pocket_docking_2.prm

>  <SCORE>
-35.2354

>  <SCORE.INTER>
-33.0777

>  <SCORE.INTER.CONST>
1

>  <SCORE.INTER.POLAR>
0

>  <SCORE.INTER.ROT>
5

>  <SCORE.INTER.SOLV>
7.4263

>  <SCORE.INTER.VDW>
-31.4606

>  <SCORE.INTER.norm>
-1.18135

>  <SCORE.INTRA>
-2.15768

>  <SCORE.INTRA.DIHEDRAL>
-4.4312

>  <SCORE.INTRA.DIHEDRAL.0>
12.0148

>  <SCORE.INTRA.POLAR>
0

>  <SCORE.INTRA.POLAR.0>
0

>  <SCORE.INTRA.REPUL>
0

>  <SCORE.INTRA.REPUL.0>
0

>  <SCORE.INTRA.SOLV>
0.41238

>  <SCORE.INTRA.SOLV.lig_0>
-10.5235

>  <SCORE.INTRA.VDW>
-0.148274

>  <SCORE.INTRA.VDW.0>
-1.38455

>  <SCORE.INTRA.norm>
-0.0770601

>  <SCORE.RESTR>
0

>  <SCORE.RESTR.CAVITY>
0

>  <SCORE.RESTR.norm>
0

>  <SCORE.SYSTEM>
0

>  <SCORE.SYSTEM.CONST>
0

>  <SCORE.SYSTEM.DIHEDRAL>
0

>  <SCORE.SYSTEM.SOLV>
0

>  <SCORE.SYSTEM.norm>
0

>  <SCORE.heavy>
28

>  <SCORE.norm>
-1.25841

>  <RMSD>
0.977

$$$$
ligand
 OpenBabel11021811413D
libRbt.so/2013.1/901 2013/11/27
 28 32  0  0  0  0  0  0  0  0999 V2000
   44.0469   27.7748   22.1785 C   0  0  0  0  0  0  0  0  0  0  0  0
   42.8081   26.9030   22.1200 C   0  0  0  0  0  0  0  0  0  0  0  0
   41.8587   27.1984   23.2716 C   0  0  0  0  0  0  0  0  0  0  0  0
   35.1245   26.5757   25.3825 O   0  0  0  0  0  0  0  0  0  0  0  0
   34.7004   25.2119   25.4162 C   0  0  0  0  0  0  0  0  0  0  0  0
   38.6363   24.0840   28.1637 C   0  0  0  0  0  0  0  0  0  0  0  0
   38.4958   25.2567   28.8947 C   0  0  0  0  0  0  0  0  0  0  0  0
   37.4697   26.1497   28.5757 C   0  0  0  0  0  0  0  0  0  0  0  0
   36.5849   25.8721   27.5331 C   0  0  0  0  0  0  0  0  0  0  0  0
   35.8861   24.2756   25.6830 C   0  0  1  0  0  0  0  0  0  0  0  0
   36.7277   24.6915   26.8423 C   0  0  0  0  0  0  0  0  0  0  0  0
   37.7386   23.8188   27.1568 C   0  0  0  0  0  0  0  0  0  0  0  0
   37.8267   22.6469   26.3065 C   0  0  1  0  0  0  0  0  0  0  0  0
   36.3202   20.6792   26.5291 C   0  0  0  0  0  0  0  0  0  0  0  0
   36.5179   22.0177   26.2884 C   0  0  0  0  0  0  0  0  0  0  0  0
   35.4805   22.8517   25.9680 C   0  0  0  0  0  0  0  0  0  0  0  0
   34.1910   22.3484   25.8781 C   0  0  0  0  0  0  0  0  0  0  0  0
   33.9713   20.9944   26.1402 C   0  0  0  0  0  0  0  0  0  0  0  0
   35.0357   20.1646   26.4674 C   0  0  0  0  0  0  0  0  0  0  0  0
   40.6710   26.2451   23.2458 C   0  0  0  0  0  0  0  0  0  0  0  0
   39.8178   26.4227   24.4962 C   0  0  0  0  0  0  0  0  0  0  0  0
   37.1311   26.4620   23.9889 O   0  0  0  0  0  0  0  0  0  0  0  0
   40.3290   23.7196   25.1452 O   0  0  0  0  0  0  0  0  0  0  0  0
   39.2107   24.1094   24.8530 C   0  0  0  0  0  0  0  0  0  0  0  0
   38.8903   25.3033   24.5360 N   0  0  0  0  0  0  0  0  0  0  0  0
   37.6569   25.4276   24.3094 C   0  0  0  0  0  0  0  0  0  0  0  0
   36.8924   24.1680   24.5264 C   0  0  1  0  0  0  0  0  0  0  0  0
   38.0259   23.2119   24.9068 C   0  0  2  0  0  0  0  0  0  0  0  0
  1  2  1  0  0  0  0
  2  3  1  0  0  0  0
  3 20  1  0  0  0  0
  4  5  1  0  0  0  0
  6  7  2  0  0  0  0
  6 12  1  0  0  0  0
  7  8  1  0  0  0  0
  8  9  2  0  0  0  0
  9 11  1  0  0  0  0
 10  5  1  6  0  0  0
 10 11  1  0  0  0  0
 10 16  1  0  0  0  0
 10 27  1  0  0  0  0
 11 12  2  0  0  0  0
 13 12  1  1  0  0  0
 13 15  1  0  0  0  0
 13 28  1  0  0  0  0
 14 15  2  0  0  0  0
 14 19  1  0  0  0  0
 15 16  1  0  0  0  0
 16 17  2  0  0  0  0
 17 18  1  0  0  0  0
 18 19  2  0  0  0  0
 20 21  1  0  0  0  0
 21 25  1  0  0  0  0
 22 26  2  0  0  0  0
 23 24  2  0  0  0  0
 24 25  1  0  0  0  0
 25 26  1  0  0  0  0
 27 26  1  1  0  0  0
 27 28  1  0  0  0  0
 28 24  1  1  0  0  0
M  END
>  <CHROM.1>
-176.05698225,49.23626580,172.70988634,-168.05467947,74.55064315,37.89495414
24.56308207,25.42074813,-0.54999332,-0.45588402,3.10012858

>  <Name>
ligand

>  <RI>
0

>  <Rbt.Current_Directory>
/home/itssahil/PROJECTS/Mol_Feturizer/New_Systems/rnas/1YLS

>  <Rbt.Executable>
rbdock ($Id: //depot/dev/client3/rdock/2013.1/src/exe/rbdock.cxx#4 $)

>  <Rbt.Library>
libRbt.so (2013.1, Build901 2013/11/27)

>  <Rbt.Parameter_File>
/export/apps/rDock/src/rDock_2013.1_src/data/scripts/dock_solv.prm

>  <Rbt.Receptor>
prm/pocket_docking_6.prm

>  <SCORE>
-37.4122

>  <SCORE.INTER>
-34.5952

>  <SCORE.INTER.CONST>
1

>  <SCORE.INTER.POLAR>
0

>  <SCORE.INTER.ROT>
5

>  <SCORE.INTER.SOLV>
7.72728

>  <SCORE.INTER.VDW>
-32.5725

>  <SCORE.INTER.norm>
-1.23554

>  <SCORE.INTRA>
-2.81706

>  <SCORE.INTRA.DIHEDRAL>
-8.57809

>  <SCORE.INTRA.DIHEDRAL.0>
12.0148

>  <SCORE.INTRA.POLAR>
0

>  <SCORE.INTRA.POLAR.0>
0

>  <SCORE.INTRA.REPUL>
0

>  <SCORE.INTRA.REPUL.0>
0

>  <SCORE.INTRA.SOLV>
0.611296

>  <SCORE.INTRA.SOLV.lig_0>
-10.5235

>  <SCORE.INTRA.VDW>
1.16634

>  <SCORE.INTRA.VDW.0>
-1.38455

>  <SCORE.INTRA.norm>
-0.100609

>  <SCORE.RESTR>
0

>  <SCORE.RESTR.CAVITY>
0

>  <SCORE.RESTR.norm>
0

>  <SCORE.SYSTEM>
0

>  <SCORE.SYSTEM.CONST>
0

>  <SCORE.SYSTEM.DIHEDRAL>
0

>  <SCORE.SYSTEM.SOLV>
0

>  <SCORE.SYSTEM.norm>
0

>  <SCORE.heavy>
28

>  <SCORE.norm>
-1.33615

>  <RMSD>
0.977

$$$$
ligand
 OpenBabel11021811413D
libRbt.so/2013.1/901 2013/11/27
 28 32  0  0  0  0  0  0  0  0999 V2000
   43.5707   26.2731   21.9987 C   0  0  0  0  0  0  0  0  0  0  0  0
   42.6286   27.4595   22.0508 C   0  0  0  0  0  0  0  0  0  0  0  0
   41.8285   27.4849   23.3447 C   0  0  0  0  0  0  0  0  0  0  0  0
   34.2912   23.9211   24.1290 O   0  0  0  0  0  0  0  0  0  0  0  0
   34.9358   24.6354   25.1851 C   0  0  0  0  0  0  0  0  0  0  0  0
   38.6881   24.3232   28.3687 C   0  0  0  0  0  0  0  0  0  0  0  0
   38.3215   25.5253   28.9604 C   0  0  0  0  0  0  0  0  0  0  0  0
   37.2243   26.2329   28.4626 C   0  0  0  0  0  0  0  0  0  0  0  0
   36.4936   25.7412   27.3803 C   0  0  0  0  0  0  0  0  0  0  0  0
   36.2012   23.9029   25.6497 C   0  0  1  0  0  0  0  0  0  0  0  0
   36.8595   24.5353   26.8296 C   0  0  0  0  0  0  0  0  0  0  0  0
   37.9393   23.8452   27.3195 C   0  0  0  0  0  0  0  0  0  0  0  0
   38.2662   22.6259   26.6050 C   0  0  1  0  0  0  0  0  0  0  0  0
   37.0168   20.4938   26.8952 C   0  0  0  0  0  0  0  0  0  0  0  0
   37.0600   21.8198   26.5367 C   0  0  0  0  0  0  0  0  0  0  0  0
   35.9597   22.4674   26.0426 C   0  0  0  0  0  0  0  0  0  0  0  0
   34.7633   21.7818   25.8919 C   0  0  0  0  0  0  0  0  0  0  0  0
   34.6982   20.4394   26.2712 C   0  0  0  0  0  0  0  0  0  0  0  0
   35.8239   19.8002   26.7741 C   0  0  0  0  0  0  0  0  0  0  0  0
   40.8011   26.3605   23.3623 C   0  0  0  0  0  0  0  0  0  0  0  0
   39.9160   26.4665   24.5986 C   0  0  0  0  0  0  0  0  0  0  0  0
   37.3126   26.0819   23.8561 O   0  0  0  0  0  0  0  0  0  0  0  0
   40.7101   23.9314   25.5639 O   0  0  0  0  0  0  0  0  0  0  0  0
   39.5854   24.1323   25.1362 C   0  0  0  0  0  0  0  0  0  0  0  0
   39.1445   25.2359   24.6715 N   0  0  0  0  0  0  0  0  0  0  0  0
   37.9347   25.1647   24.3259 C   0  0  0  0  0  0  0  0  0  0  0  0
   37.3246   23.8346   24.6031 C   0  0  1  0  0  0  0  0  0  0  0  0
   38.5297   23.0855   25.1776 C   0  0  2  0  0  0  0  0  0  0  0  0
  1  2  1  0  0  0  0
  2  3  1  0  0  0  0
  3 20  1  0  0  0  0
  4  5  1  0  0  0  0
  6  7  2  0  0  0  0
  6 12  1  0  0  0  0
  7  8  1  0  0  0  0
  8  9  2  0  0  0  0
  9 11  1  0  0  0  0
 10  5  1  6  0  0  0
 10 11  1  0  0  0  0
 10 16  1  0  0  0  0
 10 27  1  0  0  0  0
 11 12  2  0  0  0  0
 13 12  1  1  0  0  0
 13 15  1  0  0  0  0
 13 28  1  0  0  0  0
 14 15  2  0  0  0  0
 14 19  1  0  0  0  0
 15 16  1  0  0  0  0
 16 17  2  0  0  0  0
 17 18  1  0  0  0  0
 18 19  2  0  0  0  0
 20 21  1  0  0  0  0
 21 25  1  0  0  0  0
 22 26  2  0  0  0  0
 23 24  2  0  0  0  0
 24 25  1  0  0  0  0
 25 26  1  0  0  0  0
 27 26  1  1  0  0  0
 27 28  1  0  0  0  0
 28 24  1  1  0  0  0
M  END
>  <CHROM.1>
-70.65652483,-175.07552138,-174.75340917,-169.52178411,80.52985161,38.08421060
24.29169640,25.45012001,0.41142636,-0.64089182,-1.57572280

>  <Name>
ligand

>  <RI>
0

>  <Rbt.Current_Directory>
/home/itssahil/PROJECTS/Mol_Feturizer/New_Systems/rnas/1YLS

>  <Rbt.Executable>
rbdock ($Id: //depot/dev/client3/rdock/2013.1/src/exe/rbdock.cxx#4 $)

>  <Rbt.Library>
libRbt.so (2013.1, Build901 2013/11/27)

>  <Rbt.Parameter_File>
/export/apps/rDock/src/rDock_2013.1_src/data/scripts/dock_solv.prm

>  <Rbt.Receptor>
prm/pocket_docking_4.prm

>  <SCORE>
-37.4462

>  <SCORE.INTER>
-34.2632

>  <SCORE.INTER.CONST>
1

>  <SCORE.INTER.POLAR>
0

>  <SCORE.INTER.ROT>
5

>  <SCORE.INTER.SOLV>
7.77085

>  <SCORE.INTER.VDW>
-32.3657

>  <SCORE.INTER.norm>
-1.22369

>  <SCORE.INTRA>
-3.18304

>  <SCORE.INTRA.DIHEDRAL>
-8.68366

>  <SCORE.INTRA.DIHEDRAL.0>
12.0148

>  <SCORE.INTRA.POLAR>
0

>  <SCORE.INTRA.POLAR.0>
0

>  <SCORE.INTRA.REPUL>
0

>  <SCORE.INTRA.REPUL.0>
0

>  <SCORE.INTRA.SOLV>
0.114803

>  <SCORE.INTRA.SOLV.lig_0>
-10.5235

>  <SCORE.INTRA.VDW>
1.10139

>  <SCORE.INTRA.VDW.0>
-1.38455

>  <SCORE.INTRA.norm>
-0.11368

>  <SCORE.RESTR>
0

>  <SCORE.RESTR.CAVITY>
0

>  <SCORE.RESTR.norm>
0

>  <SCORE.SYSTEM>
0

>  <SCORE.SYSTEM.CONST>
0

>  <SCORE.SYSTEM.DIHEDRAL>
0

>  <SCORE.SYSTEM.SOLV>
0

>  <SCORE.SYSTEM.norm>
0

>  <SCORE.heavy>
28

>  <SCORE.norm>
-1.33737

>  <RMSD>
0.978

$$$$
ligand
 OpenBabel11021811413D
libRbt.so/2013.1/901 2013/11/27
 28 32  0  0  0  0  0  0  0  0999 V2000
   43.8083   28.4492   22.2809 C   0  0  0  0  0  0  0  0  0  0  0  0
   42.8272   27.2936   22.2830 C   0  0  0  0  0  0  0  0  0  0  0  0
   41.7355   27.4857   23.3251 C   0  0  0  0  0  0  0  0  0  0  0  0
   34.0040   24.1679   26.2090 O   0  0  0  0  0  0  0  0  0  0  0  0
   35.0127   24.2145   25.1984 C   0  0  0  0  0  0  0  0  0  0  0  0
   38.7481   24.3547   28.4139 C   0  0  0  0  0  0  0  0  0  0  0  0
   38.2847   25.5532   28.9413 C   0  0  0  0  0  0  0  0  0  0  0  0
   37.1410   26.1479   28.4020 C   0  0  0  0  0  0  0  0  0  0  0  0
   36.4604   25.5470   27.3424 C   0  0  0  0  0  0  0  0  0  0  0  0
   36.3263   23.6064   25.7066 C   0  0  1  0  0  0  0  0  0  0  0  0
   36.9230   24.3466   26.8561 C   0  0  0  0  0  0  0  0  0  0  0  0
   38.0481   23.7677   27.3865 C   0  0  0  0  0  0  0  0  0  0  0  0
   38.4744   22.5427   26.7371 C   0  0  1  0  0  0  0  0  0  0  0  0
   37.3899   20.3379   27.1294 C   0  0  0  0  0  0  0  0  0  0  0  0
   37.3344   21.6434   26.7038 C   0  0  0  0  0  0  0  0  0  0  0  0
   36.1922   22.1783   26.1712 C   0  0  0  0  0  0  0  0  0  0  0  0
   35.0536   21.3955   26.0494 C   0  0  0  0  0  0  0  0  0  0  0  0
   35.0883   20.0730   26.4966 C   0  0  0  0  0  0  0  0  0  0  0  0
   36.2551   19.5490   27.0376 C   0  0  0  0  0  0  0  0  0  0  0  0
   40.8622   26.2416   23.4228 C   0  0  0  0  0  0  0  0  0  0  0  0
   39.8427   26.3928   24.5456 C   0  0  0  0  0  0  0  0  0  0  0  0
   37.2835   25.7711   23.8098 O   0  0  0  0  0  0  0  0  0  0  0  0
   40.8202   23.9788   25.6437 O   0  0  0  0  0  0  0  0  0  0  0  0
   39.6875   24.0702   25.2003 C   0  0  0  0  0  0  0  0  0  0  0  0
   39.1674   25.1116   24.6773 N   0  0  0  0  0  0  0  0  0  0  0  0
   37.9699   24.9297   24.3294 C   0  0  0  0  0  0  0  0  0  0  0  0
   37.4613   23.5722   24.6710 C   0  0  1  0  0  0  0  0  0  0  0  0
   38.7150   22.9485   25.2895 C   0  0  2  0  0  0  0  0  0  0  0  0
  1  2  1  0  0  0  0
  2  3  1  0  0  0  0
  3 20  1  0  0  0  0
  4  5  1  0  0  0  0
  6  7  2  0  0  0  0
  6 12  1  0  0  0  0
  7  8  1  0  0  0  0
  8  9  2  0  0  0  0
  9 11  1  0  0  0  0
 10  5  1  6  0  0  0
 10 11  1  0  0  0  0
 10 16  1  0  0  0  0
 10 27  1  0  0  0  0
 11 12  2  0  0  0  0
 13 12  1  1  0  0  0
 13 15  1  0  0  0  0
 13 28  1  0  0  0  0
 14 15  2  0  0  0  0
 14 19  1  0  0  0  0
 15 16  1  0  0  0  0
 16 17  2  0  0  0  0
 17 18  1  0  0  0  0
 18 19  2  0  0  0  0
 20 21  1  0  0  0  0
 21 25  1  0  0  0  0
 22 26  2  0  0  0  0
 23 24  2  0  0  0  0
 24 25  1  0  0  0  0
 25 26  1  0  0  0  0
 27 26  1  1  0  0  0
 27 28  1  0  0  0  0
 28 24  1  1  0  0  0
M  END
>  <CHROM.1>
-173.25654077,-62.89756794,175.35258336,-173.17202192,74.10087386,38.18767311
24.23988296,25.61758491,-0.68390688,-0.45771643,3.03818016

>  <Name>
ligand

>  <RI>
0

>  <Rbt.Current_Directory>
/home/itssahil/PROJECTS/Mol_Feturizer/New_Systems/rnas/1YLS

>  <Rbt.Executable>
rbdock ($Id: //depot/dev/client3/rdock/2013.1/src/exe/rbdock.cxx#4 $)

>  <Rbt.Library>
libRbt.so (2013.1, Build901 2013/11/27)

>  <Rbt.Parameter_File>
/export/apps/rDock/src/rDock_2013.1_src/data/scripts/dock_solv.prm

>  <Rbt.Receptor>
prm/pocket_docking_6.prm

>  <SCORE>
-38.5336

>  <SCORE.INTER>
-33.9215

>  <SCORE.INTER.CONST>
1

>  <SCORE.INTER.POLAR>
0

>  <SCORE.INTER.ROT>
5

>  <SCORE.INTER.SOLV>
7.59453

>  <SCORE.INTER.VDW>
-32.0792

>  <SCORE.INTER.norm>
-1.21148

>  <SCORE.INTRA>
-4.61213

>  <SCORE.INTRA.DIHEDRAL>
-9.25843

>  <SCORE.INTRA.DIHEDRAL.0>
12.0148

>  <SCORE.INTRA.POLAR>
0

>  <SCORE.INTRA.POLAR.0>
0

>  <SCORE.INTRA.REPUL>
0

>  <SCORE.INTRA.REPUL.0>
0

>  <SCORE.INTRA.SOLV>
-0.0316033

>  <SCORE.INTRA.SOLV.lig_0>
-10.5235

>  <SCORE.INTRA.VDW>
0.032885

>  <SCORE.INTRA.VDW.0>
-1.38455

>  <SCORE.INTRA.norm>
-0.164719

>  <SCORE.RESTR>
0

>  <SCORE.RESTR.CAVITY>
0

>  <SCORE.RESTR.norm>
0

>  <SCORE.SYSTEM>
0

>  <SCORE.SYSTEM.CONST>
0

>  <SCORE.SYSTEM.DIHEDRAL>
0

>  <SCORE.SYSTEM.SOLV>
0

>  <SCORE.SYSTEM.norm>
0

>  <SCORE.heavy>
28

>  <SCORE.norm>
-1.3762

>  <RMSD>
0.978

$$$$
ligand
 OpenBabel11021811413D
libRbt.so/2013.1/901 2013/11/27
 28 32  0  0  0  0  0  0  0  0999 V2000
   43.8302   28.4629   22.3315 C   0  0  0  0  0  0  0  0  0  0  0  0
   42.8919   27.2727   22.3622 C   0  0  0  0  0  0  0  0  0  0  0  0
   41.7468   27.4856   23.3412 C   0  0  0  0  0  0  0  0  0  0  0  0
   33.9802   24.1142   26.0996 O   0  0  0  0  0  0  0  0  0  0  0  0
   35.0169   24.1649   25.1178 C   0  0  0  0  0  0  0  0  0  0  0  0
   38.6694   24.4398   28.4187 C   0  0  0  0  0  0  0  0  0  0  0  0
   38.1761   25.6439   28.9046 C   0  0  0  0  0  0  0  0  0  0  0  0
   37.0377   26.2080   28.3230 C   0  0  0  0  0  0  0  0  0  0  0  0
   36.3921   25.5712   27.2625 C   0  0  0  0  0  0  0  0  0  0  0  0
   36.3261   23.5891   25.6729 C   0  0  1  0  0  0  0  0  0  0  0  0
   36.8836   24.3662   26.8177 C   0  0  0  0  0  0  0  0  0  0  0  0
   38.0035   23.8174   27.3896 C   0  0  0  0  0  0  0  0  0  0  0  0
   38.4631   22.5832   26.7816 C   0  0  1  0  0  0  0  0  0  0  0  0
   37.4009   20.3728   27.2023 C   0  0  0  0  0  0  0  0  0  0  0  0
   37.3373   21.6665   26.7430 C   0  0  0  0  0  0  0  0  0  0  0  0
   36.2010   22.1710   26.1696 C   0  0  0  0  0  0  0  0  0  0  0  0
   35.0770   21.3687   26.0397 C   0  0  0  0  0  0  0  0  0  0  0  0
   35.1196   20.0582   26.5206 C   0  0  0  0  0  0  0  0  0  0  0  0
   36.2800   19.5651   27.1027 C   0  0  0  0  0  0  0  0  0  0  0  0
   40.8928   26.2290   23.4494 C   0  0  0  0  0  0  0  0  0  0  0  0
   39.8299   26.3981   24.5285 C   0  0  0  0  0  0  0  0  0  0  0  0
   37.2988   25.7205   23.7464 O   0  0  0  0  0  0  0  0  0  0  0  0
   40.8145   24.0267   25.7100 O   0  0  0  0  0  0  0  0  0  0  0  0
   39.6918   24.0903   25.2370 C   0  0  0  0  0  0  0  0  0  0  0  0
   39.1700   25.1106   24.6757 N   0  0  0  0  0  0  0  0  0  0  0  0
   37.9842   24.9024   24.3034 C   0  0  0  0  0  0  0  0  0  0  0  0
   37.4867   23.5463   24.6663 C   0  0  1  0  0  0  0  0  0  0  0  0
   38.7335   22.9567   25.3306 C   0  0  2  0  0  0  0  0  0  0  0  0
  1  2  1  0  0  0  0
  2  3  1  0  0  0  0
  3 20  1  0  0  0  0
  4  5  1  0  0  0  0
  6  7  2  0  0  0  0
  6 12  1  0  0  0  0
  7  8  1  0  0  0  0
  8  9  2  0  0  0  0
  9 11  1  0  0  0  0
 10  5  1  6  0  0  0
 10 11  1  0  0  0  0
 10 16  1  0  0  0  0
 10 27  1  0  0  0  0
 11 12  2  0  0  0  0
 13 12  1  1  0  0  0
 13 15  1  0  0  0  0
 13 28  1  0  0  0  0
 14 15  2  0  0  0  0
 14 19  1  0  0  0  0
 15 16  1  0  0  0  0
 16 17  2  0  0  0  0
 17 18  1  0  0  0  0
 18 19  2  0  0  0  0
 20 21  1  0  0  0  0
 21 25  1  0  0  0  0
 22 26  2  0  0  0  0
 23 24  2  0  0  0  0
 24 25  1  0  0  0  0
 25 26  1  0  0  0  0
 27 26  1  1  0  0  0
 27 28  1  0  0  0  0
 28 24  1  1  0  0  0
M  END
>  <CHROM.1>
-174.77066098,-63.55492086,174.50966602,-173.37181910,73.28225081,38.18239861
24.24660578,25.61678903,-0.69678263,-0.42561853,3.00550652

>  <Name>
ligand

>  <RI>
0

>  <Rbt.Current_Directory>
/home/itssahil/PROJECTS/Mol_Feturizer/New_Systems/rnas/1YLS

>  <Rbt.Executable>
rbdock ($Id: //depot/dev/client3/rdock/2013.1/src/exe/rbdock.cxx#4 $)

>  <Rbt.Library>
libRbt.so (2013.1, Build901 2013/11/27)

>  <Rbt.Parameter_File>
/export/apps/rDock/src/rDock_2013.1_src/data/scripts/dock_solv.prm

>  <Rbt.Receptor>
prm/pocket_docking_3.prm

>  <SCORE>
-38.5757

>  <SCORE.INTER>
-33.9692

>  <SCORE.INTER.CONST>
1

>  <SCORE.INTER.POLAR>
0

>  <SCORE.INTER.ROT>
5

>  <SCORE.INTER.SOLV>
7.51581

>  <SCORE.INTER.VDW>
-32.0847

>  <SCORE.INTER.norm>
-1.21318

>  <SCORE.INTRA>
-4.60654

>  <SCORE.INTRA.DIHEDRAL>
-9.28941

>  <SCORE.INTRA.DIHEDRAL.0>
12.0148

>  <SCORE.INTRA.POLAR>
0

>  <SCORE.INTRA.POLAR.0>
0

>  <SCORE.INTRA.REPUL>
0

>  <SCORE.INTRA.REPUL.0>
0

>  <SCORE.INTRA.SOLV>
-0.0305371

>  <SCORE.INTRA.SOLV.lig_0>
-10.5235

>  <SCORE.INTRA.VDW>
0.0534312

>  <SCORE.INTRA.VDW.0>
-1.38455

>  <SCORE.INTRA.norm>
-0.164519

>  <SCORE.RESTR>
0

>  <SCORE.RESTR.CAVITY>
0

>  <SCORE.RESTR.norm>
0

>  <SCORE.SYSTEM>
0

>  <SCORE.SYSTEM.CONST>
0

>  <SCORE.SYSTEM.DIHEDRAL>
0

>  <SCORE.SYSTEM.SOLV>
0

>  <SCORE.SYSTEM.norm>
0

>  <SCORE.heavy>
28

>  <SCORE.norm>
-1.3777

>  <RMSD>
0.983

$$$$
ligand
 OpenBabel11021811413D
libRbt.so/2013.1/901 2013/11/27
 28 32  0  0  0  0  0  0  0  0999 V2000
   43.8341   28.3920   22.3173 C   0  0  0  0  0  0  0  0  0  0  0  0
   42.8980   27.2006   22.3647 C   0  0  0  0  0  0  0  0  0  0  0  0
   41.7531   27.4244   23.3414 C   0  0  0  0  0  0  0  0  0  0  0  0
   33.9116   24.2124   25.9689 O   0  0  0  0  0  0  0  0  0  0  0  0
   34.9621   24.1801   25.0011 C   0  0  0  0  0  0  0  0  0  0  0  0
   38.5148   24.5064   28.4046 C   0  0  0  0  0  0  0  0  0  0  0  0
   38.0156   25.7243   28.8480 C   0  0  0  0  0  0  0  0  0  0  0  0
   36.8994   26.2824   28.2195 C   0  0  0  0  0  0  0  0  0  0  0  0
   36.2817   25.6258   27.1544 C   0  0  0  0  0  0  0  0  0  0  0  0
   36.2497   23.6086   25.6086 C   0  0  1  0  0  0  0  0  0  0  0  0
   36.7778   24.4079   26.7521 C   0  0  0  0  0  0  0  0  0  0  0  0
   37.8759   23.8650   27.3700 C   0  0  0  0  0  0  0  0  0  0  0  0
   38.3449   22.6144   26.8041 C   0  0  1  0  0  0  0  0  0  0  0  0
   37.2547   20.4211   27.2420 C   0  0  0  0  0  0  0  0  0  0  0  0
   37.2143   21.7043   26.7519 C   0  0  0  0  0  0  0  0  0  0  0  0
   36.0995   22.2030   26.1331 C   0  0  0  0  0  0  0  0  0  0  0  0
   34.9743   21.4052   25.9871 C   0  0  0  0  0  0  0  0  0  0  0  0
   34.9929   20.1058   26.4984 C   0  0  0  0  0  0  0  0  0  0  0  0
   36.1316   19.6186   27.1265 C   0  0  0  0  0  0  0  0  0  0  0  0
   40.9050   26.1660   23.4713 C   0  0  0  0  0  0  0  0  0  0  0  0
   39.8065   26.3682   24.5084 C   0  0  0  0  0  0  0  0  0  0  0  0
   37.2955   25.6893   23.6651 O   0  0  0  0  0  0  0  0  0  0  0  0
   40.7379   24.0179   25.7724 O   0  0  0  0  0  0  0  0  0  0  0  0
   39.6306   24.0780   25.2642 C   0  0  0  0  0  0  0  0  0  0  0  0
   39.1333   25.0887   24.6644 N   0  0  0  0  0  0  0  0  0  0  0  0
   37.9578   24.8797   24.2609 C   0  0  0  0  0  0  0  0  0  0  0  0
   37.4399   23.5355   24.6390 C   0  0  1  0  0  0  0  0  0  0  0  0
   38.6618   22.9531   25.3540 C   0  0  2  0  0  0  0  0  0  0  0  0
  1  2  1  0  0  0  0
  2  3  1  0  0  0  0
  3 20  1  0  0  0  0
  4  5  1  0  0  0  0
  6  7  2  0  0  0  0
  6 12  1  0  0  0  0
  7  8  1  0  0  0  0
  8  9  2  0  0  0  0
  9 11  1  0  0  0  0
 10  5  1  6  0  0  0
 10 11  1  0  0  0  0
 10 16  1  0  0  0  0
 10 27  1  0  0  0  0
 11 12  2  0  0  0  0
 13 12  1  1  0  0  0
 13 15  1  0  0  0  0
 13 28  1  0  0  0  0
 14 15  2  0  0  0  0
 14 19  1  0  0  0  0
 15 16  1  0  0  0  0
 16 17  2  0  0  0  0
 17 18  1  0  0  0  0
 18 19  2  0  0  0  0
 20 21  1  0  0  0  0
 21 25  1  0  0  0  0
 22 26  2  0  0  0  0
 23 24  2  0  0  0  0
 24 25  1  0  0  0  0
 25 26  1  0  0  0  0
 27 26  1  1  0  0  0
 27 28  1  0  0  0  0
 28 24  1  1  0  0  0
M  END
>  <CHROM.1>
-174.53434952,-61.03092824,176.82362192,-174.52604079,73.00455726,38.10816734
24.25775938,25.58968326,-0.68606194,-0.40702624,2.99196280

>  <Name>
ligand

>  <RI>
0

>  <Rbt.Current_Directory>
/home/itssahil/PROJECTS/Mol_Feturizer/New_Systems/rnas/1YLS

>  <Rbt.Executable>
rbdock ($Id: //depot/dev/client3/rdock/2013.1/src/exe/rbdock.cxx#4 $)

>  <Rbt.Library>
libRbt.so (2013.1, Build901 2013/11/27)

>  <Rbt.Parameter_File>
/export/apps/rDock/src/rDock_2013.1_src/data/scripts/dock_solv.prm

>  <Rbt.Receptor>
prm/pocket_docking_4.prm

>  <SCORE>
-38.4955

>  <SCORE.INTER>
-33.8305

>  <SCORE.INTER.CONST>
1

>  <SCORE.INTER.POLAR>
0

>  <SCORE.INTER.ROT>
5

>  <SCORE.INTER.SOLV>
7.47932

>  <SCORE.INTER.VDW>
-31.9801

>  <SCORE.INTER.norm>
-1.20823

>  <SCORE.INTRA>
-4.66496

>  <SCORE.INTRA.DIHEDRAL>
-9.44125

>  <SCORE.INTRA.DIHEDRAL.0>
12.0148

>  <SCORE.INTRA.POLAR>
0

>  <SCORE.INTRA.POLAR.0>
0

>  <SCORE.INTRA.REPUL>
0

>  <SCORE.INTRA.REPUL.0>
0

>  <SCORE.INTRA.SOLV>
-0.0316374

>  <SCORE.INTRA.SOLV.lig_0>
-10.5235

>  <SCORE.INTRA.VDW>
0.071479

>  <SCORE.INTRA.VDW.0>
-1.38455

>  <SCORE.INTRA.norm>
-0.166606

>  <SCORE.RESTR>
0

>  <SCORE.RESTR.CAVITY>
0

>  <SCORE.RESTR.norm>
0

>  <SCORE.SYSTEM>
0

>  <SCORE.SYSTEM.CONST>
0

>  <SCORE.SYSTEM.DIHEDRAL>
0

>  <SCORE.SYSTEM.SOLV>
0

>  <SCORE.SYSTEM.norm>
0

>  <SCORE.heavy>
28

>  <SCORE.norm>
-1.37484

>  <RMSD>
0.984

$$$$
ligand
 OpenBabel11021811413D
libRbt.so/2013.1/901 2013/11/27
 28 32  0  0  0  0  0  0  0  0999 V2000
   43.8179   28.4286   22.2805 C   0  0  0  0  0  0  0  0  0  0  0  0
   42.9020   27.2221   22.3373 C   0  0  0  0  0  0  0  0  0  0  0  0
   41.7495   27.4371   23.3070 C   0  0  0  0  0  0  0  0  0  0  0  0
   33.9896   24.1580   26.0839 O   0  0  0  0  0  0  0  0  0  0  0  0
   35.0116   24.1439   25.0857 C   0  0  0  0  0  0  0  0  0  0  0  0
   38.6575   24.4066   28.3950 C   0  0  0  0  0  0  0  0  0  0  0  0
   38.1694   25.6144   28.8770 C   0  0  0  0  0  0  0  0  0  0  0  0
   37.0355   26.1832   28.2914 C   0  0  0  0  0  0  0  0  0  0  0  0
   36.3891   25.5476   27.2307 C   0  0  0  0  0  0  0  0  0  0  0  0
   36.3164   23.5624   25.6453 C   0  0  1  0  0  0  0  0  0  0  0  0
   36.8752   24.3390   26.7898 C   0  0  0  0  0  0  0  0  0  0  0  0
   37.9908   23.7855   27.3656 C   0  0  0  0  0  0  0  0  0  0  0  0
   38.4453   22.5476   26.7614 C   0  0  1  0  0  0  0  0  0  0  0  0
   37.3703   20.3438   27.1842 C   0  0  0  0  0  0  0  0  0  0  0  0
   37.3147   21.6368   26.7220 C   0  0  0  0  0  0  0  0  0  0  0  0
   36.1825   22.1461   26.1447 C   0  0  0  0  0  0  0  0  0  0  0  0
   35.0546   21.3495   26.0138 C   0  0  0  0  0  0  0  0  0  0  0  0
   35.0890   20.0399   26.4976 C   0  0  0  0  0  0  0  0  0  0  0  0
   36.2454   19.5419   27.0836 C   0  0  0  0  0  0  0  0  0  0  0  0
   40.9274   26.1633   23.4541 C   0  0  0  0  0  0  0  0  0  0  0  0
   39.8379   26.3502   24.5034 C   0  0  0  0  0  0  0  0  0  0  0  0
   37.3052   25.6844   23.7166 O   0  0  0  0  0  0  0  0  0  0  0  0
   40.8069   23.9762   25.6924 O   0  0  0  0  0  0  0  0  0  0  0  0
   39.6858   24.0447   25.2166 C   0  0  0  0  0  0  0  0  0  0  0  0
   39.1708   25.0666   24.6518 N   0  0  0  0  0  0  0  0  0  0  0  0
   37.9848   24.8639   24.2770 C   0  0  0  0  0  0  0  0  0  0  0  0
   37.4792   23.5113   24.6416 C   0  0  1  0  0  0  0  0  0  0  0  0
   38.7212   22.9165   25.3102 C   0  0  2  0  0  0  0  0  0  0  0  0
  1  2  1  0  0  0  0
  2  3  1  0  0  0  0
  3 20  1  0  0  0  0
  4  5  1  0  0  0  0
  6  7  2  0  0  0  0
  6 12  1  0  0  0  0
  7  8  1  0  0  0  0
  8  9  2  0  0  0  0
  9 11  1  0  0  0  0
 10  5  1  6  0  0  0
 10 11  1  0  0  0  0
 10 16  1  0  0  0  0
 10 27  1  0  0  0  0
 11 12  2  0  0  0  0
 13 12  1  1  0  0  0
 13 15  1  0  0  0  0
 13 28  1  0  0  0  0
 14 15  2  0  0  0  0
 14 19  1  0  0  0  0
 15 16  1  0  0  0  0
 16 17  2  0  0  0  0
 17 18  1  0  0  0  0
 18 19  2  0  0  0  0
 20 21  1  0  0  0  0
 21 25  1  0  0  0  0
 22 26  2  0  0  0  0
 23 24  2  0  0  0  0
 24 25  1  0  0  0  0
 25 26  1  0  0  0  0
 27 26  1  1  0  0  0
 27 28  1  0  0  0  0
 28 24  1  1  0  0  0
M  END
>  <CHROM.1>
-174.18513955,-60.87015942,175.76852316,-175.83025283,71.79523559,38.17566748
24.21479916,25.59222157,-0.69227462,-0.42770526,3.00725983

>  <Name>
ligand

>  <RI>
0

>  <Rbt.Current_Directory>
/home/itssahil/PROJECTS/Mol_Feturizer/New_Systems/rnas/1YLS

>  <Rbt.Executable>
rbdock ($Id: //depot/dev/client3/rdock/2013.1/src/exe/rbdock.cxx#4 $)

>  <Rbt.Library>
libRbt.so (2013.1, Build901 2013/11/27)

>  <Rbt.Parameter_File>
/export/apps/rDock/src/rDock_2013.1_src/data/scripts/dock_solv.prm

>  <Rbt.Receptor>
prm/pocket_docking_8.prm

>  <SCORE>
-38.5613

>  <SCORE.INTER>
-33.9126

>  <SCORE.INTER.CONST>
1

>  <SCORE.INTER.POLAR>
0

>  <SCORE.INTER.ROT>
5

>  <SCORE.INTER.SOLV>
7.58932

>  <SCORE.INTER.VDW>
-32.0715

>  <SCORE.INTER.norm>
-1.21116

>  <SCORE.INTRA>
-4.64876

>  <SCORE.INTRA.DIHEDRAL>
-9.42977

>  <SCORE.INTRA.DIHEDRAL.0>
12.0148

>  <SCORE.INTRA.POLAR>
0

>  <SCORE.INTRA.POLAR.0>
0

>  <SCORE.INTRA.REPUL>
0

>  <SCORE.INTRA.REPUL.0>
0

>  <SCORE.INTRA.SOLV>
-0.0313667

>  <SCORE.INTRA.SOLV.lig_0>
-10.5235

>  <SCORE.INTRA.VDW>
0.0818068

>  <SCORE.INTRA.VDW.0>
-1.38455

>  <SCORE.INTRA.norm>
-0.166027

>  <SCORE.RESTR>
0

>  <SCORE.RESTR.CAVITY>
0

>  <SCORE.RESTR.norm>
0

>  <SCORE.SYSTEM>
0

>  <SCORE.SYSTEM.CONST>
0

>  <SCORE.SYSTEM.DIHEDRAL>
0

>  <SCORE.SYSTEM.SOLV>
0

>  <SCORE.SYSTEM.norm>
0

>  <SCORE.heavy>
28

>  <SCORE.norm>
-1.37719

>  <RMSD>
0.989

$$$$
ligand
 OpenBabel11021811413D
libRbt.so/2013.1/901 2013/11/27
 28 32  0  0  0  0  0  0  0  0999 V2000
   43.7959   28.4565   22.2732 C   0  0  0  0  0  0  0  0  0  0  0  0
   42.8419   27.2787   22.3007 C   0  0  0  0  0  0  0  0  0  0  0  0
   41.7260   27.4835   23.3144 C   0  0  0  0  0  0  0  0  0  0  0  0
   33.9841   24.1241   26.1257 O   0  0  0  0  0  0  0  0  0  0  0  0
   35.0108   24.1668   25.1331 C   0  0  0  0  0  0  0  0  0  0  0  0
   38.6862   24.4156   28.4106 C   0  0  0  0  0  0  0  0  0  0  0  0
   38.1986   25.6179   28.9066 C   0  0  0  0  0  0  0  0  0  0  0  0
   37.0575   26.1876   28.3360 C   0  0  0  0  0  0  0  0  0  0  0  0
   36.4034   25.5581   27.2763 C   0  0  0  0  0  0  0  0  0  0  0  0
   36.3226   23.5852   25.6760 C   0  0  1  0  0  0  0  0  0  0  0  0
   36.8894   24.3547   26.8214 C   0  0  0  0  0  0  0  0  0  0  0  0
   38.0120   23.8004   27.3825 C   0  0  0  0  0  0  0  0  0  0  0  0
   38.4649   22.5688   26.7644 C   0  0  1  0  0  0  0  0  0  0  0  0
   37.4011   20.3582   27.1798 C   0  0  0  0  0  0  0  0  0  0  0  0
   37.3370   21.6545   26.7283 C   0  0  0  0  0  0  0  0  0  0  0  0
   36.1980   22.1646   26.1655 C   0  0  0  0  0  0  0  0  0  0  0  0
   35.0714   21.3653   26.0387 C   0  0  0  0  0  0  0  0  0  0  0  0
   35.1146   20.0520   26.5118 C   0  0  0  0  0  0  0  0  0  0  0  0
   36.2779   19.5533   27.0832 C   0  0  0  0  0  0  0  0  0  0  0  0
   40.8523   26.2394   23.4092 C   0  0  0  0  0  0  0  0  0  0  0  0
   39.8243   26.3937   24.5237 C   0  0  0  0  0  0  0  0  0  0  0  0
   37.2865   25.7255   23.7551 O   0  0  0  0  0  0  0  0  0  0  0  0
   40.8119   24.0136   25.6850 O   0  0  0  0  0  0  0  0  0  0  0  0
   39.6863   24.0821   25.2201 C   0  0  0  0  0  0  0  0  0  0  0  0
   39.1627   25.1066   24.6681 N   0  0  0  0  0  0  0  0  0  0  0  0
   37.9740   24.9029   24.3027 C   0  0  0  0  0  0  0  0  0  0  0  0
   37.4762   23.5458   24.6613 C   0  0  1  0  0  0  0  0  0  0  0  0
   38.7263   22.9500   25.3137 C   0  0  2  0  0  0  0  0  0  0  0  0
  1  2  1  0  0  0  0
  2  3  1  0  0  0  0
  3 20  1  0  0  0  0
  4  5  1  0  0  0  0
  6  7  2  0  0  0  0
  6 12  1  0  0  0  0
  7  8  1  0  0  0  0
  8  9  2  0  0  0  0
  9 11  1  0  0  0  0
 10  5  1  6  0  0  0
 10 11  1  0  0  0  0
 10 16  1  0  0  0  0
 10 27  1  0  0  0  0
 11 12  2  0  0  0  0
 13 12  1  1  0  0  0
 13 15  1  0  0  0  0
 13 28  1  0  0  0  0
 14 15  2  0  0  0  0
 14 19  1  0  0  0  0
 15 16  1  0  0  0  0
 16 17  2  0  0  0  0
 17 18  1  0  0  0  0
 18 19  2  0  0  0  0
 20 21  1  0  0  0  0
 21 25  1  0  0  0  0
 22 26  2  0  0  0  0
 23 24  2  0  0  0  0
 24 25  1  0  0  0  0
 25 26  1  0  0  0  0
 27 26  1  1  0  0  0
 27 28  1  0  0  0  0
 28 24  1  1  0  0  0
M  END
>  <CHROM.1>
-175.11912803,-63.01504960,174.25384708,-172.31261037,74.85530172,38.17657917
24.24011093,25.60641528,-0.69508763,-0.44021624,3.01465459

>  <Name>
ligand

>  <RI>
0

>  <Rbt.Current_Directory>
/home/itssahil/PROJECTS/Mol_Feturizer/New_Systems/rnas/1YLS

>  <Rbt.Executable>
rbdock ($Id: //depot/dev/client3/rdock/2013.1/src/exe/rbdock.cxx#4 $)

>  <Rbt.Library>
libRbt.so (2013.1, Build901 2013/11/27)

>  <Rbt.Parameter_File>
/export/apps/rDock/src/rDock_2013.1_src/data/scripts/dock_solv.prm

>  <Rbt.Receptor>
prm/pocket_docking_7.prm

>  <SCORE>
-38.5741

>  <SCORE.INTER>
-33.9464

>  <SCORE.INTER.CONST>
1

>  <SCORE.INTER.POLAR>
0

>  <SCORE.INTER.ROT>
5

>  <SCORE.INTER.SOLV>
7.58987

>  <SCORE.INTER.VDW>
-32.0943

>  <SCORE.INTER.norm>
-1.21237

>  <SCORE.INTRA>
-4.62761

>  <SCORE.INTRA.DIHEDRAL>
-9.25836

>  <SCORE.INTRA.DIHEDRAL.0>
12.0148

>  <SCORE.INTRA.POLAR>
0

>  <SCORE.INTRA.POLAR.0>
0

>  <SCORE.INTRA.REPUL>
0

>  <SCORE.INTRA.REPUL.0>
0

>  <SCORE.INTRA.SOLV>
-0.0315559

>  <SCORE.INTRA.SOLV.lig_0>
-10.5235

>  <SCORE.INTRA.VDW>
0.0173435

>  <SCORE.INTRA.VDW.0>
-1.38455

>  <SCORE.INTRA.norm>
-0.165272

>  <SCORE.RESTR>
0

>  <SCORE.RESTR.CAVITY>
0

>  <SCORE.RESTR.norm>
0

>  <SCORE.SYSTEM>
0

>  <SCORE.SYSTEM.CONST>
0

>  <SCORE.SYSTEM.DIHEDRAL>
0

>  <SCORE.SYSTEM.SOLV>
0

>  <SCORE.SYSTEM.norm>
0

>  <SCORE.heavy>
28

>  <SCORE.norm>
-1.37764

>  <RMSD>
0.991

$$$$
ligand
 OpenBabel11021811413D
libRbt.so/2013.1/901 2013/11/27
 28 32  0  0  0  0  0  0  0  0999 V2000
   43.6539   28.5632   22.2078 C   0  0  0  0  0  0  0  0  0  0  0  0
   42.5335   27.5426   22.2379 C   0  0  0  0  0  0  0  0  0  0  0  0
   42.2382   27.0745   23.6552 C   0  0  0  0  0  0  0  0  0  0  0  0
   34.4574   25.5354   26.4229 O   0  0  0  0  0  0  0  0  0  0  0  0
   35.4319   25.3346   25.3976 C   0  0  0  0  0  0  0  0  0  0  0  0
   38.7790   23.5514   28.5488 C   0  0  0  0  0  0  0  0  0  0  0  0
   38.7559   24.7304   29.2827 C   0  0  0  0  0  0  0  0  0  0  0  0
   37.9390   25.7853   28.8679 C   0  0  0  0  0  0  0  0  0  0  0  0
   37.1455   25.6630   27.7267 C   0  0  0  0  0  0  0  0  0  0  0  0
   36.4037   24.2099   25.7778 C   0  0  1  0  0  0  0  0  0  0  0  0
   37.1649   24.4757   27.0328 C   0  0  0  0  0  0  0  0  0  0  0  0
   37.9709   23.4435   27.4418 C   0  0  0  0  0  0  0  0  0  0  0  0
   37.9565   22.2742   26.5835 C   0  0  1  0  0  0  0  0  0  0  0  0
   36.1235   20.5916   26.5950 C   0  0  0  0  0  0  0  0  0  0  0  0
   36.5709   21.8770   26.4051 C   0  0  0  0  0  0  0  0  0  0  0  0
   35.7332   22.8757   25.9865 C   0  0  0  0  0  0  0  0  0  0  0  0
   34.3962   22.5994   25.7414 C   0  0  0  0  0  0  0  0  0  0  0  0
   33.9221   21.3024   25.9497 C   0  0  0  0  0  0  0  0  0  0  0  0
   34.7862   20.3033   26.3783 C   0  0  0  0  0  0  0  0  0  0  0  0
   41.1114   26.0496   23.6579 C   0  0  0  0  0  0  0  0  0  0  0  0
   40.7516   25.6569   25.0859 C   0  0  0  0  0  0  0  0  0  0  0  0
   38.1863   26.1534   24.2794 O   0  0  0  0  0  0  0  0  0  0  0  0
   40.7206   22.9059   25.7340 O   0  0  0  0  0  0  0  0  0  0  0  0
   39.7252   23.4806   25.3253 C   0  0  0  0  0  0  0  0  0  0  0  0
   39.6498   24.7118   24.9982 N   0  0  0  0  0  0  0  0  0  0  0  0
   38.4894   25.0444   24.6364 C   0  0  0  0  0  0  0  0  0  0  0  0
   37.5032   23.9332   24.7403 C   0  0  1  0  0  0  0  0  0  0  0  0
   38.4075   22.7979   25.2269 C   0  0  2  0  0  0  0  0  0  0  0  0
  1  2  1  0  0  0  0
  2  3  1  0  0  0  0
  3 20  1  0  0  0  0
  4  5  1  0  0  0  0
  6  7  2  0  0  0  0
  6 12  1  0  0  0  0
  7  8  1  0  0  0  0
  8  9  2  0  0  0  0
  9 11  1  0  0  0  0
 10  5  1  6  0  0  0
 10 11  1  0  0  0  0
 10 16  1  0  0  0  0
 10 27  1  0  0  0  0
 11 12  2  0  0  0  0
 13 12  1  1  0  0  0
 13 15  1  0  0  0  0
 13 28  1  0  0  0  0
 14 15  2  0  0  0  0
 14 19  1  0  0  0  0
 15 16  1  0  0  0  0
 16 17  2  0  0  0  0
 17 18  1  0  0  0  0
 18 19  2  0  0  0  0
 20 21  1  0  0  0  0
 21 25  1  0  0  0  0
 22 26  2  0  0  0  0
 23 24  2  0  0  0  0
 24 25  1  0  0  0  0
 25 26  1  0  0  0  0
 27 26  1  1  0  0  0
 27 28  1  0  0  0  0
 28 24  1  1  0  0  0
M  END
>  <CHROM.1>
-179.92845864,-60.29562042,-175.99231730,178.39103750,113.18900391,38.19696098
24.33769323,25.68821005,0.70293845,0.04812643,-0.56550541

>  <Name>
ligand

>  <RI>
0

>  <Rbt.Current_Directory>
/home/itssahil/PROJECTS/Mol_Feturizer/New_Systems/rnas/1YLS

>  <Rbt.Executable>
rbdock ($Id: //depot/dev/client3/rdock/2013.1/src/exe/rbdock.cxx#4 $)

>  <Rbt.Library>
libRbt.so (2013.1, Build901 2013/11/27)

>  <Rbt.Parameter_File>
/export/apps/rDock/src/rDock_2013.1_src/data/scripts/dock_solv.prm

>  <Rbt.Receptor>
prm/pocket_docking_3.prm

>  <SCORE>
-36.5956

>  <SCORE.INTER>
-32.1024

>  <SCORE.INTER.CONST>
1

>  <SCORE.INTER.POLAR>
0

>  <SCORE.INTER.ROT>
5

>  <SCORE.INTER.SOLV>
7.00019

>  <SCORE.INTER.VDW>
-30.6683

>  <SCORE.INTER.norm>
-1.14651

>  <SCORE.INTRA>
-4.49326

>  <SCORE.INTRA.DIHEDRAL>
-9.61652

>  <SCORE.INTRA.DIHEDRAL.0>
12.0148

>  <SCORE.INTRA.POLAR>
0

>  <SCORE.INTRA.POLAR.0>
0

>  <SCORE.INTRA.REPUL>
0

>  <SCORE.INTRA.REPUL.0>
0

>  <SCORE.INTRA.SOLV>
-0.0281183

>  <SCORE.INTRA.SOLV.lig_0>
-10.5235

>  <SCORE.INTRA.VDW>
0.32906

>  <SCORE.INTRA.VDW.0>
-1.38455

>  <SCORE.INTRA.norm>
-0.160474

>  <SCORE.RESTR>
0

>  <SCORE.RESTR.CAVITY>
0

>  <SCORE.RESTR.norm>
0

>  <SCORE.SYSTEM>
0

>  <SCORE.SYSTEM.CONST>
0

>  <SCORE.SYSTEM.DIHEDRAL>
0

>  <SCORE.SYSTEM.SOLV>
0

>  <SCORE.SYSTEM.norm>
0

>  <SCORE.heavy>
28

>  <SCORE.norm>
-1.30699

>  <RMSD>
0.992

$$$$
ligand
 OpenBabel11021811413D
libRbt.so/2013.1/901 2013/11/27
 28 32  0  0  0  0  0  0  0  0999 V2000
   43.5988   28.6255   22.2077 C   0  0  0  0  0  0  0  0  0  0  0  0
   42.5419   27.5392   22.2348 C   0  0  0  0  0  0  0  0  0  0  0  0
   42.2131   27.1109   23.6573 C   0  0  0  0  0  0  0  0  0  0  0  0
   34.5019   25.5786   26.4285 O   0  0  0  0  0  0  0  0  0  0  0  0
   35.4497   25.3381   25.3869 C   0  0  0  0  0  0  0  0  0  0  0  0
   38.7848   23.5658   28.5568 C   0  0  0  0  0  0  0  0  0  0  0  0
   38.7622   24.7490   29.2840 C   0  0  0  0  0  0  0  0  0  0  0  0
   37.9486   25.8033   28.8611 C   0  0  0  0  0  0  0  0  0  0  0  0
   37.1579   25.6761   27.7185 C   0  0  0  0  0  0  0  0  0  0  0  0
   36.4181   24.2136   25.7759 C   0  0  1  0  0  0  0  0  0  0  0  0
   37.1766   24.4849   27.0315 C   0  0  0  0  0  0  0  0  0  0  0  0
   37.9793   23.4533   27.4484 C   0  0  0  0  0  0  0  0  0  0  0  0
   37.9648   22.2792   26.5967 C   0  0  1  0  0  0  0  0  0  0  0  0
   36.1282   20.6006   26.6128 C   0  0  0  0  0  0  0  0  0  0  0  0
   36.5788   21.8839   26.4169 C   0  0  0  0  0  0  0  0  0  0  0  0
   35.7443   22.8819   25.9904 C   0  0  0  0  0  0  0  0  0  0  0  0
   34.4073   22.6071   25.7434 C   0  0  0  0  0  0  0  0  0  0  0  0
   33.9300   21.3123   25.9578 C   0  0  0  0  0  0  0  0  0  0  0  0
   34.7908   20.3138   26.3943 C   0  0  0  0  0  0  0  0  0  0  0  0
   41.1114   26.0592   23.6599 C   0  0  0  0  0  0  0  0  0  0  0  0
   40.7708   25.6476   25.0873 C   0  0  0  0  0  0  0  0  0  0  0  0
   38.2088   26.1448   24.2713 O   0  0  0  0  0  0  0  0  0  0  0  0
   40.7324   22.9004   25.7509 O   0  0  0  0  0  0  0  0  0  0  0  0
   39.7393   23.4748   25.3363 C   0  0  0  0  0  0  0  0  0  0  0  0
   39.6673   24.7043   25.0021 N   0  0  0  0  0  0  0  0  0  0  0  0
   38.5085   25.0373   24.6353 C   0  0  0  0  0  0  0  0  0  0  0  0
   37.5198   23.9287   24.7429 C   0  0  1  0  0  0  0  0  0  0  0  0
   38.4204   22.7943   25.2383 C   0  0  2  0  0  0  0  0  0  0  0  0
  1  2  1  0  0  0  0
  2  3  1  0  0  0  0
  3 20  1  0  0  0  0
  4  5  1  0  0  0  0
  6  7  2  0  0  0  0
  6 12  1  0  0  0  0
  7  8  1  0  0  0  0
  8  9  2  0  0  0  0
  9 11  1  0  0  0  0
 10  5  1  6  0  0  0
 10 11  1  0  0  0  0
 10 16  1  0  0  0  0
 10 27  1  0  0  0  0
 11 12  2  0  0  0  0
 13 12  1  1  0  0  0
 13 15  1  0  0  0  0
 13 28  1  0  0  0  0
 14 15  2  0  0  0  0
 14 19  1  0  0  0  0
 15 16  1  0  0  0  0
 16 17  2  0  0  0  0
 17 18  1  0  0  0  0
 18 19  2  0  0  0  0
 20 21  1  0  0  0  0
 21 25  1  0  0  0  0
 22 26  2  0  0  0  0
 23 24  2  0  0  0  0
 24 25  1  0  0  0  0
 25 26  1  0  0  0  0
 27 26  1  1  0  0  0
 27 28  1  0  0  0  0
 28 24  1  1  0  0  0
M  END
>  <CHROM.1>
177.78622822,-58.25426244,-179.17958358,176.87917358,114.62693834,38.20581287
24.34658990,25.69185474,0.70703329,0.05703935,-0.55427815

>  <Name>
ligand

>  <RI>
0

>  <Rbt.Current_Directory>
/home/itssahil/PROJECTS/Mol_Feturizer/New_Systems/rnas/1YLS

>  <Rbt.Executable>
rbdock ($Id: //depot/dev/client3/rdock/2013.1/src/exe/rbdock.cxx#4 $)

>  <Rbt.Library>
libRbt.so (2013.1, Build901 2013/11/27)

>  <Rbt.Parameter_File>
/export/apps/rDock/src/rDock_2013.1_src/data/scripts/dock_solv.prm

>  <Rbt.Receptor>
prm/pocket_docking_6.prm

>  <SCORE>
-36.6224

>  <SCORE.INTER>
-32.2118

>  <SCORE.INTER.CONST>
1

>  <SCORE.INTER.POLAR>
0

>  <SCORE.INTER.ROT>
5

>  <SCORE.INTER.SOLV>
7.0155

>  <SCORE.INTER.VDW>
-30.7464

>  <SCORE.INTER.norm>
-1.15042

>  <SCORE.INTRA>
-4.41059

>  <SCORE.INTRA.DIHEDRAL>
-9.60139

>  <SCORE.INTRA.DIHEDRAL.0>
12.0148

>  <SCORE.INTRA.POLAR>
0

>  <SCORE.INTRA.POLAR.0>
0

>  <SCORE.INTRA.REPUL>
0

>  <SCORE.INTRA.REPUL.0>
0

>  <SCORE.INTRA.SOLV>
-0.0217275

>  <SCORE.INTRA.SOLV.lig_0>
-10.5235

>  <SCORE.INTRA.VDW>
0.400971

>  <SCORE.INTRA.VDW.0>
-1.38455

>  <SCORE.INTRA.norm>
-0.157521

>  <SCORE.RESTR>
0

>  <SCORE.RESTR.CAVITY>
0

>  <SCORE.RESTR.norm>
0

>  <SCORE.SYSTEM>
0

>  <SCORE.SYSTEM.CONST>
0

>  <SCORE.SYSTEM.DIHEDRAL>
0

>  <SCORE.SYSTEM.SOLV>
0

>  <SCORE.SYSTEM.norm>
0

>  <SCORE.heavy>
28

>  <SCORE.norm>
-1.30794

>  <RMSD>
0.992

$$$$
ligand
 OpenBabel11021811413D
libRbt.so/2013.1/901 2013/11/27
 28 32  0  0  0  0  0  0  0  0999 V2000
   43.7411   28.5480   22.2539 C   0  0  0  0  0  0  0  0  0  0  0  0
   42.7972   27.3618   22.2596 C   0  0  0  0  0  0  0  0  0  0  0  0
   41.6420   27.5680   23.2280 C   0  0  0  0  0  0  0  0  0  0  0  0
   33.9790   24.2169   26.0848 O   0  0  0  0  0  0  0  0  0  0  0  0
   34.9926   24.1841   25.0785 C   0  0  0  0  0  0  0  0  0  0  0  0
   38.6362   24.5007   28.3855 C   0  0  0  0  0  0  0  0  0  0  0  0
   38.1344   25.7045   28.8633 C   0  0  0  0  0  0  0  0  0  0  0  0
   36.9938   26.2582   28.2760 C   0  0  0  0  0  0  0  0  0  0  0  0
   36.3544   25.6113   27.2179 C   0  0  0  0  0  0  0  0  0  0  0  0
   36.3041   23.6197   25.6396 C   0  0  1  0  0  0  0  0  0  0  0  0
   36.8543   24.4068   26.7811 C   0  0  0  0  0  0  0  0  0  0  0  0
   37.9763   23.8682   27.3585 C   0  0  0  0  0  0  0  0  0  0  0  0
   38.4448   22.6335   26.7586 C   0  0  1  0  0  0  0  0  0  0  0  0
   37.3954   20.4190   27.1899 C   0  0  0  0  0  0  0  0  0  0  0  0
   37.3248   21.7095   26.7230 C   0  0  0  0  0  0  0  0  0  0  0  0
   36.1867   22.2037   26.1443 C   0  0  0  0  0  0  0  0  0  0  0  0
   35.0679   21.3937   26.0167 C   0  0  0  0  0  0  0  0  0  0  0  0
   35.1176   20.0863   26.5052 C   0  0  0  0  0  0  0  0  0  0  0  0
   36.2798   19.6038   27.0926 C   0  0  0  0  0  0  0  0  0  0  0  0
   40.8510   26.2780   23.4020 C   0  0  0  0  0  0  0  0  0  0  0  0
   39.7929   26.4436   24.4864 C   0  0  0  0  0  0  0  0  0  0  0  0
   37.2678   25.7458   23.7029 O   0  0  0  0  0  0  0  0  0  0  0  0
   40.7896   24.0852   25.6837 O   0  0  0  0  0  0  0  0  0  0  0  0
   39.6676   24.1392   25.2080 C   0  0  0  0  0  0  0  0  0  0  0  0
   39.1406   25.1529   24.6397 N   0  0  0  0  0  0  0  0  0  0  0  0
   37.9569   24.9353   24.2661 C   0  0  0  0  0  0  0  0  0  0  0  0
   37.4671   23.5783   24.6358 C   0  0  1  0  0  0  0  0  0  0  0  0
   38.7161   23.0002   25.3061 C   0  0  2  0  0  0  0  0  0  0  0  0
  1  2  1  0  0  0  0
  2  3  1  0  0  0  0
  3 20  1  0  0  0  0
  4  5  1  0  0  0  0
  6  7  2  0  0  0  0
  6 12  1  0  0  0  0
  7  8  1  0  0  0  0
  8  9  2  0  0  0  0
  9 11  1  0  0  0  0
 10  5  1  6  0  0  0
 10 11  1  0  0  0  0
 10 16  1  0  0  0  0
 10 27  1  0  0  0  0
 11 12  2  0  0  0  0
 13 12  1  1  0  0  0
 13 15  1  0  0  0  0
 13 28  1  0  0  0  0
 14 15  2  0  0  0  0
 14 19  1  0  0  0  0
 15 16  1  0  0  0  0
 16 17  2  0  0  0  0
 17 18  1  0  0  0  0
 18 19  2  0  0  0  0
 20 21  1  0  0  0  0
 21 25  1  0  0  0  0
 22 26  2  0  0  0  0
 23 24  2  0  0  0  0
 24 25  1  0  0  0  0
 25 26  1  0  0  0  0
 27 26  1  1  0  0  0
 27 28  1  0  0  0  0
 28 24  1  1  0  0  0
M  END
>  <CHROM.1>
-169.95212543,-59.61863145,173.70750930,-176.82634066,73.76311355,38.15075389
24.29586942,25.57816124,-0.70680470,-0.43307428,2.99875640

>  <Name>
ligand

>  <RI>
0

>  <Rbt.Current_Directory>
/home/itssahil/PROJECTS/Mol_Feturizer/New_Systems/rnas/1YLS

>  <Rbt.Executable>
rbdock ($Id: //depot/dev/client3/rdock/2013.1/src/exe/rbdock.cxx#4 $)

>  <Rbt.Library>
libRbt.so (2013.1, Build901 2013/11/27)

>  <Rbt.Parameter_File>
/export/apps/rDock/src/rDock_2013.1_src/data/scripts/dock_solv.prm

>  <Rbt.Receptor>
prm/pocket_docking_8.prm

>  <SCORE>
-38.3929

>  <SCORE.INTER>
-33.8791

>  <SCORE.INTER.CONST>
1

>  <SCORE.INTER.POLAR>
0

>  <SCORE.INTER.ROT>
5

>  <SCORE.INTER.SOLV>
7.65865

>  <SCORE.INTER.VDW>
-32.0723

>  <SCORE.INTER.norm>
-1.20997

>  <SCORE.INTRA>
-4.51385

>  <SCORE.INTRA.DIHEDRAL>
-9.1074

>  <SCORE.INTRA.DIHEDRAL.0>
12.0148

>  <SCORE.INTRA.POLAR>
0

>  <SCORE.INTRA.POLAR.0>
0

>  <SCORE.INTRA.REPUL>
0

>  <SCORE.INTRA.REPUL.0>
0

>  <SCORE.INTRA.SOLV>
-0.0346298

>  <SCORE.INTRA.SOLV.lig_0>
-10.5235

>  <SCORE.INTRA.VDW>
0.0571665

>  <SCORE.INTRA.VDW.0>
-1.38455

>  <SCORE.INTRA.norm>
-0.161209

>  <SCORE.RESTR>
0

>  <SCORE.RESTR.CAVITY>
0

>  <SCORE.RESTR.norm>
0

>  <SCORE.SYSTEM>
0

>  <SCORE.SYSTEM.CONST>
0

>  <SCORE.SYSTEM.DIHEDRAL>
0

>  <SCORE.SYSTEM.SOLV>
0

>  <SCORE.SYSTEM.norm>
0

>  <SCORE.heavy>
28

>  <SCORE.norm>
-1.37118

>  <RMSD>
0.994

$$$$
ligand
 OpenBabel11021811413D
libRbt.so/2013.1/901 2013/11/27
 28 32  0  0  0  0  0  0  0  0999 V2000
   43.8919   27.4056   22.4956 C   0  0  0  0  0  0  0  0  0  0  0  0
   42.6418   26.5974   22.7821 C   0  0  0  0  0  0  0  0  0  0  0  0
   41.3951   27.4695   22.7738 C   0  0  0  0  0  0  0  0  0  0  0  0
   33.8622   25.2976   26.3414 O   0  0  0  0  0  0  0  0  0  0  0  0
   34.7654   25.1954   25.2391 C   0  0  0  0  0  0  0  0  0  0  0  0
   38.6054   24.0901   28.1279 C   0  0  0  0  0  0  0  0  0  0  0  0
   38.4661   25.2878   28.8173 C   0  0  0  0  0  0  0  0  0  0  0  0
   37.4649   26.1874   28.4422 C   0  0  0  0  0  0  0  0  0  0  0  0
   36.6037   25.8913   27.3850 C   0  0  0  0  0  0  0  0  0  0  0  0
   35.9266   24.2483   25.5679 C   0  0  1  0  0  0  0  0  0  0  0  0
   36.7441   24.6869   26.7361 C   0  0  0  0  0  0  0  0  0  0  0  0
   37.7305   23.8078   27.1057 C   0  0  0  0  0  0  0  0  0  0  0  0
   37.8206   22.6079   26.2956 C   0  0  1  0  0  0  0  0  0  0  0  0
   36.2739   20.6741   26.5390 C   0  0  0  0  0  0  0  0  0  0  0  0
   36.5017   22.0006   26.2616 C   0  0  0  0  0  0  0  0  0  0  0  0
   35.4883   22.8413   25.8866 C   0  0  0  0  0  0  0  0  0  0  0  0
   34.1930   22.3573   25.7773 C   0  0  0  0  0  0  0  0  0  0  0  0
   33.9423   21.0163   26.0760 C   0  0  0  0  0  0  0  0  0  0  0  0
   34.9826   20.1796   26.4584 C   0  0  0  0  0  0  0  0  0  0  0  0
   40.1441   26.6187   22.9499 C   0  0  0  0  0  0  0  0  0  0  0  0
   39.9263   26.2894   24.4220 C   0  0  0  0  0  0  0  0  0  0  0  0
   37.2553   26.3578   23.8403 O   0  0  0  0  0  0  0  0  0  0  0  0
   40.3718   23.6004   25.1700 O   0  0  0  0  0  0  0  0  0  0  0  0
   39.2688   23.9994   24.8351 C   0  0  0  0  0  0  0  0  0  0  0  0
   38.9783   25.1877   24.4718 N   0  0  0  0  0  0  0  0  0  0  0  0
   37.7538   25.3255   24.2077 C   0  0  0  0  0  0  0  0  0  0  0  0
   36.9616   24.0866   24.4433 C   0  0  1  0  0  0  0  0  0  0  0  0
   38.0673   23.1242   24.8847 C   0  0  2  0  0  0  0  0  0  0  0  0
  1  2  1  0  0  0  0
  2  3  1  0  0  0  0
  3 20  1  0  0  0  0
  4  5  1  0  0  0  0
  6  7  2  0  0  0  0
  6 12  1  0  0  0  0
  7  8  1  0  0  0  0
  8  9  2  0  0  0  0
  9 11  1  0  0  0  0
 10  5  1  6  0  0  0
 10 11  1  0  0  0  0
 10 16  1  0  0  0  0
 10 27  1  0  0  0  0
 11 12  2  0  0  0  0
 13 12  1  1  0  0  0
 13 15  1  0  0  0  0
 13 28  1  0  0  0  0
 14 15  2  0  0  0  0
 14 19  1  0  0  0  0
 15 16  1  0  0  0  0
 16 17  2  0  0  0  0
 17 18  1  0  0  0  0
 18 19  2  0  0  0  0
 20 21  1  0  0  0  0
 21 25  1  0  0  0  0
 22 26  2  0  0  0  0
 23 24  2  0  0  0  0
 24 25  1  0  0  0  0
 25 26  1  0  0  0  0
 27 26  1  1  0  0  0
 27 28  1  0  0  0  0
 28 24  1  1  0  0  0
M  END
>  <CHROM.1>
175.35584735,-60.43700852,81.12783176,-163.82628514,110.74647714,37.81093717
24.47295467,25.41426339,-0.54788572,-0.42334599,3.07031116

>  <Name>
ligand

>  <RI>
0

>  <Rbt.Current_Directory>
/home/itssahil/PROJECTS/Mol_Feturizer/New_Systems/rnas/1YLS

>  <Rbt.Executable>
rbdock ($Id: //depot/dev/client3/rdock/2013.1/src/exe/rbdock.cxx#4 $)

>  <Rbt.Library>
libRbt.so (2013.1, Build901 2013/11/27)

>  <Rbt.Parameter_File>
/export/apps/rDock/src/rDock_2013.1_src/data/scripts/dock_solv.prm

>  <Rbt.Receptor>
prm/pocket_docking_5.prm

>  <SCORE>
-37.2448

>  <SCORE.INTER>
-34.237

>  <SCORE.INTER.CONST>
1

>  <SCORE.INTER.POLAR>
0

>  <SCORE.INTER.ROT>
5

>  <SCORE.INTER.SOLV>
8.22263

>  <SCORE.INTER.VDW>
-32.4989

>  <SCORE.INTER.norm>
-1.22275

>  <SCORE.INTRA>
-3.0078

>  <SCORE.INTRA.DIHEDRAL>
-7.00387

>  <SCORE.INTRA.DIHEDRAL.0>
12.0148

>  <SCORE.INTRA.POLAR>
0

>  <SCORE.INTRA.POLAR.0>
0

>  <SCORE.INTRA.REPUL>
0

>  <SCORE.INTRA.REPUL.0>
0

>  <SCORE.INTRA.SOLV>
-0.0039552

>  <SCORE.INTRA.SOLV.lig_0>
-10.5235

>  <SCORE.INTRA.VDW>
0.496111

>  <SCORE.INTRA.VDW.0>
-1.38455

>  <SCORE.INTRA.norm>
-0.107422

>  <SCORE.RESTR>
0

>  <SCORE.RESTR.CAVITY>
0

>  <SCORE.RESTR.norm>
0

>  <SCORE.SYSTEM>
0

>  <SCORE.SYSTEM.CONST>
0

>  <SCORE.SYSTEM.DIHEDRAL>
0

>  <SCORE.SYSTEM.SOLV>
0

>  <SCORE.SYSTEM.norm>
0

>  <SCORE.heavy>
28

>  <SCORE.norm>
-1.33017

>  <RMSD>
0.995

$$$$
ligand
 OpenBabel11021811413D
libRbt.so/2013.1/901 2013/11/27
 28 32  0  0  0  0  0  0  0  0999 V2000
   43.9180   28.0773   22.1876 C   0  0  0  0  0  0  0  0  0  0  0  0
   42.7298   27.1376   22.1339 C   0  0  0  0  0  0  0  0  0  0  0  0
   41.7570   27.3966   23.2747 C   0  0  0  0  0  0  0  0  0  0  0  0
   33.7428   25.2989   26.4315 O   0  0  0  0  0  0  0  0  0  0  0  0
   34.6472   25.2595   25.3262 C   0  0  0  0  0  0  0  0  0  0  0  0
   38.5289   24.1740   28.1664 C   0  0  0  0  0  0  0  0  0  0  0  0
   38.3608   25.3470   28.8912 C   0  0  0  0  0  0  0  0  0  0  0  0
   37.3342   26.2298   28.5465 C   0  0  0  0  0  0  0  0  0  0  0  0
   36.4763   25.9417   27.4844 C   0  0  0  0  0  0  0  0  0  0  0  0
   35.8349   24.3348   25.6226 C   0  0  1  0  0  0  0  0  0  0  0  0
   36.6458   24.7609   26.8000 C   0  0  0  0  0  0  0  0  0  0  0  0
   37.6571   23.8983   27.1398 C   0  0  0  0  0  0  0  0  0  0  0  0
   37.7756   22.7254   26.2946 C   0  0  1  0  0  0  0  0  0  0  0  0
   36.2824   20.7444   26.4871 C   0  0  0  0  0  0  0  0  0  0  0  0
   36.4733   22.0841   26.2478 C   0  0  0  0  0  0  0  0  0  0  0  0
   35.4360   22.9078   25.9016 C   0  0  0  0  0  0  0  0  0  0  0  0
   34.1536   22.3925   25.7832 C   0  0  0  0  0  0  0  0  0  0  0  0
   33.9403   21.0371   26.0434 C   0  0  0  0  0  0  0  0  0  0  0  0
   35.0044   20.2179   26.3971 C   0  0  0  0  0  0  0  0  0  0  0  0
   40.6590   26.3411   23.2936 C   0  0  0  0  0  0  0  0  0  0  0  0
   39.7731   26.5154   24.5215 C   0  0  0  0  0  0  0  0  0  0  0  0
   37.0986   26.5288   23.9524 O   0  0  0  0  0  0  0  0  0  0  0  0
   40.2940   23.8186   25.1886 O   0  0  0  0  0  0  0  0  0  0  0  0
   39.1792   24.1975   24.8698 C   0  0  0  0  0  0  0  0  0  0  0  0
   38.8552   25.3876   24.5427 N   0  0  0  0  0  0  0  0  0  0  0  0
   37.6263   25.5000   24.2874 C   0  0  0  0  0  0  0  0  0  0  0  0
   36.8686   24.2339   24.4898 C   0  0  1  0  0  0  0  0  0  0  0  0
   38.0017   23.2892   24.8985 C   0  0  2  0  0  0  0  0  0  0  0  0
  1  2  1  0  0  0  0
  2  3  1  0  0  0  0
  3 20  1  0  0  0  0
  4  5  1  0  0  0  0
  6  7  2  0  0  0  0
  6 12  1  0  0  0  0
  7  8  1  0  0  0  0
  8  9  2  0  0  0  0
  9 11  1  0  0  0  0
 10  5  1  6  0  0  0
 10 11  1  0  0  0  0
 10 16  1  0  0  0  0
 10 27  1  0  0  0  0
 11 12  2  0  0  0  0
 13 12  1  1  0  0  0
 13 15  1  0  0  0  0
 13 28  1  0  0  0  0
 14 15  2  0  0  0  0
 14 19  1  0  0  0  0
 15 16  1  0  0  0  0
 16 17  2  0  0  0  0
 17 18  1  0  0  0  0
 18 19  2  0  0  0  0
 20 21  1  0  0  0  0
 21 25  1  0  0  0  0
 22 26  2  0  0  0  0
 23 24  2  0  0  0  0
 24 25  1  0  0  0  0
 25 26  1  0  0  0  0
 27 26  1  1  0  0  0
 27 28  1  0  0  0  0
 28 24  1  1  0  0  0
M  END
>  <CHROM.1>
-173.47731352,-60.78344270,173.99582200,-173.68766230,74.40479618,37.77796974
24.59734038,25.44532713,-0.44819590,-0.53506989,-2.98621912

>  <Name>
ligand

>  <RI>
0

>  <Rbt.Current_Directory>
/home/itssahil/PROJECTS/Mol_Feturizer/New_Systems/rnas/1YLS

>  <Rbt.Executable>
rbdock ($Id: //depot/dev/client3/rdock/2013.1/src/exe/rbdock.cxx#4 $)

>  <Rbt.Library>
libRbt.so (2013.1, Build901 2013/11/27)

>  <Rbt.Parameter_File>
/export/apps/rDock/src/rDock_2013.1_src/data/scripts/dock_solv.prm

>  <Rbt.Receptor>
prm/pocket_docking_4.prm

>  <SCORE>
-38.5194

>  <SCORE.INTER>
-33.8965

>  <SCORE.INTER.CONST>
1

>  <SCORE.INTER.POLAR>
0

>  <SCORE.INTER.ROT>
5

>  <SCORE.INTER.SOLV>
8.15496

>  <SCORE.INTER.VDW>
-32.2493

>  <SCORE.INTER.norm>
-1.21059

>  <SCORE.INTRA>
-4.6229

>  <SCORE.INTRA.DIHEDRAL>
-9.25605

>  <SCORE.INTRA.DIHEDRAL.0>
12.0148

>  <SCORE.INTRA.POLAR>
0

>  <SCORE.INTRA.POLAR.0>
0

>  <SCORE.INTRA.REPUL>
0

>  <SCORE.INTRA.REPUL.0>
0

>  <SCORE.INTRA.SOLV>
-0.0328049

>  <SCORE.INTRA.SOLV.lig_0>
-10.5235

>  <SCORE.INTRA.VDW>
0.0215235

>  <SCORE.INTRA.VDW.0>
-1.38455

>  <SCORE.INTRA.norm>
-0.165104

>  <SCORE.RESTR>
0

>  <SCORE.RESTR.CAVITY>
0

>  <SCORE.RESTR.norm>
0

>  <SCORE.SYSTEM>
0

>  <SCORE.SYSTEM.CONST>
0

>  <SCORE.SYSTEM.DIHEDRAL>
0

>  <SCORE.SYSTEM.SOLV>
0

>  <SCORE.SYSTEM.norm>
0

>  <SCORE.heavy>
28

>  <SCORE.norm>
-1.37569

>  <RMSD>
0.996

$$$$
ligand
 OpenBabel11021811413D
libRbt.so/2013.1/901 2013/11/27
 28 32  0  0  0  0  0  0  0  0999 V2000
   43.6379   28.5131   22.1952 C   0  0  0  0  0  0  0  0  0  0  0  0
   42.5642   27.4442   22.2437 C   0  0  0  0  0  0  0  0  0  0  0  0
   42.1713   27.1073   23.6745 C   0  0  0  0  0  0  0  0  0  0  0  0
   34.5039   25.1723   26.3396 O   0  0  0  0  0  0  0  0  0  0  0  0
   35.5009   24.9681   25.3370 C   0  0  0  0  0  0  0  0  0  0  0  0
   38.8676   23.5416   28.6450 C   0  0  0  0  0  0  0  0  0  0  0  0
   38.7526   24.7486   29.3226 C   0  0  0  0  0  0  0  0  0  0  0  0
   37.8834   25.7305   28.8404 C   0  0  0  0  0  0  0  0  0  0  0  0
   37.1292   25.5075   27.6877 C   0  0  0  0  0  0  0  0  0  0  0  0
   36.5298   23.9248   25.7915 C   0  0  1  0  0  0  0  0  0  0  0  0
   37.2400   24.2939   27.0504 C   0  0  0  0  0  0  0  0  0  0  0  0
   38.0971   23.3337   27.5256 C   0  0  0  0  0  0  0  0  0  0  0  0
   38.1773   22.1285   26.7224 C   0  0  1  0  0  0  0  0  0  0  0  0
   36.4519   20.3363   26.7690 C   0  0  0  0  0  0  0  0  0  0  0  0
   36.8241   21.6375   26.5302 C   0  0  0  0  0  0  0  0  0  0  0  0
   35.9376   22.5618   26.0462 C   0  0  0  0  0  0  0  0  0  0  0  0
   34.6271   22.1914   25.7829 C   0  0  0  0  0  0  0  0  0  0  0  0
   34.2285   20.8779   26.0400 C   0  0  0  0  0  0  0  0  0  0  0  0
   35.1410   19.9552   26.5347 C   0  0  0  0  0  0  0  0  0  0  0  0
   41.1630   25.9659   23.6994 C   0  0  0  0  0  0  0  0  0  0  0  0
   40.7969   25.6094   25.1353 C   0  0  0  0  0  0  0  0  0  0  0  0
   38.2281   25.9072   24.2468 O   0  0  0  0  0  0  0  0  0  0  0  0
   40.9186   22.8937   25.9095 O   0  0  0  0  0  0  0  0  0  0  0  0
   39.9008   23.3859   25.4514 C   0  0  0  0  0  0  0  0  0  0  0  0
   39.7582   24.5940   25.0658 N   0  0  0  0  0  0  0  0  0  0  0  0
   38.5894   24.8365   24.6618 C   0  0  0  0  0  0  0  0  0  0  0  0
   37.6712   23.6714   24.7941 C   0  0  1  0  0  0  0  0  0  0  0  0
   38.6307   22.6181   25.3539 C   0  0  2  0  0  0  0  0  0  0  0  0
  1  2  1  0  0  0  0
  2  3  1  0  0  0  0
  3 20  1  0  0  0  0
  4  5  1  0  0  0  0
  6  7  2  0  0  0  0
  6 12  1  0  0  0  0
  7  8  1  0  0  0  0
  8  9  2  0  0  0  0
  9 11  1  0  0  0  0
 10  5  1  6  0  0  0
 10 11  1  0  0  0  0
 10 16  1  0  0  0  0
 10 27  1  0  0  0  0
 11 12  2  0  0  0  0
 13 12  1  1  0  0  0
 13 15  1  0  0  0  0
 13 28  1  0  0  0  0
 14 15  2  0  0  0  0
 14 19  1  0  0  0  0
 15 16  1  0  0  0  0
 16 17  2  0  0  0  0
 17 18  1  0  0  0  0
 18 19  2  0  0  0  0
 20 21  1  0  0  0  0
 21 25  1  0  0  0  0
 22 26  2  0  0  0  0
 23 24  2  0  0  0  0
 24 25  1  0  0  0  0
 25 26  1  0  0  0  0
 27 26  1  1  0  0  0
 27 28  1  0  0  0  0
 28 24  1  1  0  0  0
M  END
>  <CHROM.1>
-176.10727918,-59.15530803,178.66362346,175.52256727,113.54300405,38.31487275
24.16089678,25.73859431,0.73951545,0.02214072,-0.58124947

>  <Name>
ligand

>  <RI>
0

>  <Rbt.Current_Directory>
/home/itssahil/PROJECTS/Mol_Feturizer/New_Systems/rnas/1YLS

>  <Rbt.Executable>
rbdock ($Id: //depot/dev/client3/rdock/2013.1/src/exe/rbdock.cxx#4 $)

>  <Rbt.Library>
libRbt.so (2013.1, Build901 2013/11/27)

>  <Rbt.Parameter_File>
/export/apps/rDock/src/rDock_2013.1_src/data/scripts/dock_solv.prm

>  <Rbt.Receptor>
prm/pocket_docking_4.prm

>  <SCORE>
-36.4916

>  <SCORE.INTER>
-32.0574

>  <SCORE.INTER.CONST>
1

>  <SCORE.INTER.POLAR>
0

>  <SCORE.INTER.ROT>
5

>  <SCORE.INTER.SOLV>
6.83339

>  <SCORE.INTER.VDW>
-30.5827

>  <SCORE.INTER.norm>
-1.14491

>  <SCORE.INTRA>
-4.43417

>  <SCORE.INTRA.DIHEDRAL>
-9.53696

>  <SCORE.INTRA.DIHEDRAL.0>
12.0148

>  <SCORE.INTRA.POLAR>
0

>  <SCORE.INTRA.POLAR.0>
0

>  <SCORE.INTRA.REPUL>
0

>  <SCORE.INTRA.REPUL.0>
0

>  <SCORE.INTRA.SOLV>
-0.0228956

>  <SCORE.INTRA.SOLV.lig_0>
-10.5235

>  <SCORE.INTRA.VDW>
0.345756

>  <SCORE.INTRA.VDW.0>
-1.38455

>  <SCORE.INTRA.norm>
-0.158363

>  <SCORE.RESTR>
0

>  <SCORE.RESTR.CAVITY>
0

>  <SCORE.RESTR.norm>
0

>  <SCORE.SYSTEM>
0

>  <SCORE.SYSTEM.CONST>
0

>  <SCORE.SYSTEM.DIHEDRAL>
0

>  <SCORE.SYSTEM.SOLV>
0

>  <SCORE.SYSTEM.norm>
0

>  <SCORE.heavy>
28

>  <SCORE.norm>
-1.30327

>  <RMSD>
0.998

$$$$
ligand
 OpenBabel11021811413D
libRbt.so/2013.1/901 2013/11/27
 28 32  0  0  0  0  0  0  0  0999 V2000
   43.0302   28.6077   22.3238 C   0  0  0  0  0  0  0  0  0  0  0  0
   41.9991   27.5356   22.6162 C   0  0  0  0  0  0  0  0  0  0  0  0
   42.5114   26.5260   23.6326 C   0  0  0  0  0  0  0  0  0  0  0  0
   34.0318   25.2272   25.9042 O   0  0  0  0  0  0  0  0  0  0  0  0
   35.0513   25.0046   24.9284 C   0  0  0  0  0  0  0  0  0  0  0  0
   38.4903   24.0863   28.3405 C   0  0  0  0  0  0  0  0  0  0  0  0
   38.3065   25.3430   28.9029 C   0  0  0  0  0  0  0  0  0  0  0  0
   37.3835   26.2248   28.3348 C   0  0  0  0  0  0  0  0  0  0  0  0
   36.6442   25.8527   27.2114 C   0  0  0  0  0  0  0  0  0  0  0  0
   36.1372   24.0683   25.4740 C   0  0  1  0  0  0  0  0  0  0  0  0
   36.8242   24.5930   26.6897 C   0  0  0  0  0  0  0  0  0  0  0  0
   37.7338   23.7314   27.2488 C   0  0  0  0  0  0  0  0  0  0  0  0
   37.8830   22.4629   26.5614 C   0  0  1  0  0  0  0  0  0  0  0  0
   36.2619   20.5883   26.7827 C   0  0  0  0  0  0  0  0  0  0  0  0
   36.5599   21.8804   26.4218 C   0  0  0  0  0  0  0  0  0  0  0  0
   35.6230   22.7038   25.8574 C   0  0  0  0  0  0  0  0  0  0  0  0
   34.3358   22.2369   25.6356 C   0  0  0  0  0  0  0  0  0  0  0  0
   34.0121   20.9328   26.0161 C   0  0  0  0  0  0  0  0  0  0  0  0
   34.9749   20.1135   26.5907 C   0  0  0  0  0  0  0  0  0  0  0  0
   41.4937   25.4122   23.8422 C   0  0  0  0  0  0  0  0  0  0  0  0
   40.3027   25.9225   24.6446 C   0  0  0  0  0  0  0  0  0  0  0  0
   37.7219   25.9903   23.7434 O   0  0  0  0  0  0  0  0  0  0  0  0
   40.5773   23.3024   25.6686 O   0  0  0  0  0  0  0  0  0  0  0  0
   39.5336   23.6912   25.1709 C   0  0  0  0  0  0  0  0  0  0  0  0
   39.3232   24.8480   24.6748 N   0  0  0  0  0  0  0  0  0  0  0  0
   38.1429   24.9853   24.2551 C   0  0  0  0  0  0  0  0  0  0  0  0
   37.2921   23.7876   24.4996 C   0  0  1  0  0  0  0  0  0  0  0  0
   38.3092   22.8471   25.1512 C   0  0  2  0  0  0  0  0  0  0  0  0
  1  2  1  0  0  0  0
  2  3  1  0  0  0  0
  3 20  1  0  0  0  0
  4  5  1  0  0  0  0
  6  7  2  0  0  0  0
  6 12  1  0  0  0  0
  7  8  1  0  0  0  0
  8  9  2  0  0  0  0
  9 11  1  0  0  0  0
 10  5  1  6  0  0  0
 10 11  1  0  0  0  0
 10 16  1  0  0  0  0
 10 27  1  0  0  0  0
 11 12  2  0  0  0  0
 13 12  1  1  0  0  0
 13 15  1  0  0  0  0
 13 28  1  0  0  0  0
 14 15  2  0  0  0  0
 14 19  1  0  0  0  0
 15 16  1  0  0  0  0
 16 17  2  0  0  0  0
 17 18  1  0  0  0  0
 18 19  2  0  0  0  0
 20 21  1  0  0  0  0
 21 25  1  0  0  0  0
 22 26  2  0  0  0  0
 23 24  2  0  0  0  0
 24 25  1  0  0  0  0
 25 26  1  0  0  0  0
 27 26  1  1  0  0  0
 27 28  1  0  0  0  0
 28 24  1  1  0  0  0
M  END
>  <CHROM.1>
-176.39346460,-60.12702015,-72.97007810,174.02026944,60.18727661,37.97659075
24.33258756,25.51489147,0.65575041,0.24285751,-0.28550387

>  <Name>
ligand

>  <RI>
0

>  <Rbt.Current_Directory>
/home/itssahil/PROJECTS/Mol_Feturizer/New_Systems/rnas/1YLS

>  <Rbt.Executable>
rbdock ($Id: //depot/dev/client3/rdock/2013.1/src/exe/rbdock.cxx#4 $)

>  <Rbt.Library>
libRbt.so (2013.1, Build901 2013/11/27)

>  <Rbt.Parameter_File>
/export/apps/rDock/src/rDock_2013.1_src/data/scripts/dock_solv.prm

>  <Rbt.Receptor>
prm/pocket_docking_3.prm

>  <SCORE>
-37.3171

>  <SCORE.INTER>
-33.9966

>  <SCORE.INTER.CONST>
1

>  <SCORE.INTER.POLAR>
0

>  <SCORE.INTER.ROT>
5

>  <SCORE.INTER.SOLV>
7.58307

>  <SCORE.INTER.VDW>
-32.1254

>  <SCORE.INTER.norm>
-1.21416

>  <SCORE.INTRA>
-3.32588

>  <SCORE.INTRA.DIHEDRAL>
-8.73275

>  <SCORE.INTRA.DIHEDRAL.0>
12.0148

>  <SCORE.INTRA.POLAR>
0

>  <SCORE.INTRA.POLAR.0>
0

>  <SCORE.INTRA.REPUL>
0

>  <SCORE.INTRA.REPUL.0>
0

>  <SCORE.INTRA.SOLV>
-0.00241818

>  <SCORE.INTRA.SOLV.lig_0>
-10.5235

>  <SCORE.INTRA.VDW>
1.0417

>  <SCORE.INTRA.VDW.0>
-1.38455

>  <SCORE.INTRA.norm>
-0.118782

>  <SCORE.RESTR>
0.00537066

>  <SCORE.RESTR.CAVITY>
0.00537066

>  <SCORE.RESTR.norm>
0.000191809

>  <SCORE.SYSTEM>
0

>  <SCORE.SYSTEM.CONST>
0

>  <SCORE.SYSTEM.DIHEDRAL>
0

>  <SCORE.SYSTEM.SOLV>
0

>  <SCORE.SYSTEM.norm>
0

>  <SCORE.heavy>
28

>  <SCORE.norm>
-1.33275

>  <RMSD>
0.999

$$$$
ligand
 OpenBabel11021811413D
libRbt.so/2013.1/901 2013/11/27
 28 32  0  0  0  0  0  0  0  0999 V2000
   43.6618   26.2777   22.2967 C   0  0  0  0  0  0  0  0  0  0  0  0
   42.5680   27.2864   22.0070 C   0  0  0  0  0  0  0  0  0  0  0  0
   41.6456   27.4736   23.2024 C   0  0  0  0  0  0  0  0  0  0  0  0
   33.7622   25.1915   26.3694 O   0  0  0  0  0  0  0  0  0  0  0  0
   34.6898   25.1341   25.2844 C   0  0  0  0  0  0  0  0  0  0  0  0
   38.5192   24.1833   28.2416 C   0  0  0  0  0  0  0  0  0  0  0  0
   38.3151   25.3709   28.9325 C   0  0  0  0  0  0  0  0  0  0  0  0
   37.2831   26.2279   28.5417 C   0  0  0  0  0  0  0  0  0  0  0  0
   36.4556   25.8995   27.4673 C   0  0  0  0  0  0  0  0  0  0  0  0
   35.8847   24.2366   25.6318 C   0  0  1  0  0  0  0  0  0  0  0  0
   36.6602   24.7051   26.8169 C   0  0  0  0  0  0  0  0  0  0  0  0
   37.6767   23.8679   27.2019 C   0  0  0  0  0  0  0  0  0  0  0  0
   37.8340   22.6766   26.3895 C   0  0  1  0  0  0  0  0  0  0  0  0
   36.3684   20.6766   26.5965 C   0  0  0  0  0  0  0  0  0  0  0  0
   36.5436   22.0130   26.3282 C   0  0  0  0  0  0  0  0  0  0  0  0
   35.5019   22.8106   25.9371 C   0  0  0  0  0  0  0  0  0  0  0  0
   34.2311   22.2715   25.8015 C   0  0  0  0  0  0  0  0  0  0  0  0
   34.0332   20.9196   26.0906 C   0  0  0  0  0  0  0  0  0  0  0  0
   35.1014   20.1270   26.4897 C   0  0  0  0  0  0  0  0  0  0  0  0
   40.6996   26.2879   23.3409 C   0  0  0  0  0  0  0  0  0  0  0  0
   39.8129   26.4541   24.5693 C   0  0  0  0  0  0  0  0  0  0  0  0
   37.1529   26.4093   23.9373 O   0  0  0  0  0  0  0  0  0  0  0  0
   40.3605   23.7836   25.3160 O   0  0  0  0  0  0  0  0  0  0  0  0
   39.2477   24.1359   24.9617 C   0  0  0  0  0  0  0  0  0  0  0  0
   38.9128   25.3121   24.5972 N   0  0  0  0  0  0  0  0  0  0  0  0
   37.6887   25.3979   24.3103 C   0  0  0  0  0  0  0  0  0  0  0  0
   36.9467   24.1248   24.5265 C   0  0  1  0  0  0  0  0  0  0  0  0
   38.0846   23.2093   24.9854 C   0  0  2  0  0  0  0  0  0  0  0  0
  1  2  1  0  0  0  0
  2  3  1  0  0  0  0
  3 20  1  0  0  0  0
  4  5  1  0  0  0  0
  6  7  2  0  0  0  0
  6 12  1  0  0  0  0
  7  8  1  0  0  0  0
  8  9  2  0  0  0  0
  9 11  1  0  0  0  0
 10  5  1  6  0  0  0
 10 11  1  0  0  0  0
 10 16  1  0  0  0  0
 10 27  1  0  0  0  0
 11 12  2  0  0  0  0
 13 12  1  1  0  0  0
 13 15  1  0  0  0  0
 13 28  1  0  0  0  0
 14 15  2  0  0  0  0
 14 19  1  0  0  0  0
 15 16  1  0  0  0  0
 16 17  2  0  0  0  0
 17 18  1  0  0  0  0
 18 19  2  0  0  0  0
 20 21  1  0  0  0  0
 21 25  1  0  0  0  0
 22 26  2  0  0  0  0
 23 24  2  0  0  0  0
 24 25  1  0  0  0  0
 25 26  1  0  0  0  0
 27 26  1  1  0  0  0
 27 28  1  0  0  0  0
 28 24  1  1  0  0  0
M  END
>  <CHROM.1>
-75.53370947,-60.47313980,177.88050659,177.89404532,76.26064913,37.79674667
24.46987116,25.47857864,-0.44033256,-0.52675420,-3.03323074

>  <Name>
ligand

>  <RI>
0

>  <Rbt.Current_Directory>
/home/itssahil/PROJECTS/Mol_Feturizer/New_Systems/rnas/1YLS

>  <Rbt.Executable>
rbdock ($Id: //depot/dev/client3/rdock/2013.1/src/exe/rbdock.cxx#4 $)

>  <Rbt.Library>
libRbt.so (2013.1, Build901 2013/11/27)

>  <Rbt.Parameter_File>
/export/apps/rDock/src/rDock_2013.1_src/data/scripts/dock_solv.prm

>  <Rbt.Receptor>
prm/pocket_docking_4.prm

>  <SCORE>
-38.0878

>  <SCORE.INTER>
-34.418

>  <SCORE.INTER.CONST>
1

>  <SCORE.INTER.POLAR>
0

>  <SCORE.INTER.ROT>
5

>  <SCORE.INTER.SOLV>
7.85673

>  <SCORE.INTER.VDW>
-32.4976

>  <SCORE.INTER.norm>
-1.22921

>  <SCORE.INTRA>
-3.66979

>  <SCORE.INTRA.DIHEDRAL>
-8.75278

>  <SCORE.INTRA.DIHEDRAL.0>
12.0148

>  <SCORE.INTRA.POLAR>
0

>  <SCORE.INTRA.POLAR.0>
0

>  <SCORE.INTRA.REPUL>
0

>  <SCORE.INTRA.REPUL.0>
0

>  <SCORE.INTRA.SOLV>
-0.0568244

>  <SCORE.INTRA.SOLV.lig_0>
-10.5235

>  <SCORE.INTRA.VDW>
0.735012

>  <SCORE.INTRA.VDW.0>
-1.38455

>  <SCORE.INTRA.norm>
-0.131064

>  <SCORE.RESTR>
0

>  <SCORE.RESTR.CAVITY>
0

>  <SCORE.RESTR.norm>
0

>  <SCORE.SYSTEM>
0

>  <SCORE.SYSTEM.CONST>
0

>  <SCORE.SYSTEM.DIHEDRAL>
0

>  <SCORE.SYSTEM.SOLV>
0

>  <SCORE.SYSTEM.norm>
0

>  <SCORE.heavy>
28

>  <SCORE.norm>
-1.36028

>  <RMSD>
1.003

$$$$
ligand
 OpenBabel11021811413D
libRbt.so/2013.1/901 2013/11/27
 28 32  0  0  0  0  0  0  0  0999 V2000
   43.8371   26.3207   21.7448 C   0  0  0  0  0  0  0  0  0  0  0  0
   42.3814   26.7385   21.8088 C   0  0  0  0  0  0  0  0  0  0  0  0
   41.7714   26.4419   23.1708 C   0  0  0  0  0  0  0  0  0  0  0  0
   34.0598   24.5232   24.5075 O   0  0  0  0  0  0  0  0  0  0  0  0
   34.8001   24.9720   25.6440 C   0  0  0  0  0  0  0  0  0  0  0  0
   38.9266   24.1128   28.2026 C   0  0  0  0  0  0  0  0  0  0  0  0
   38.7030   25.2339   28.9915 C   0  0  0  0  0  0  0  0  0  0  0  0
   37.5853   26.0365   28.7490 C   0  0  0  0  0  0  0  0  0  0  0  0
   36.6921   25.7196   27.7248 C   0  0  0  0  0  0  0  0  0  0  0  0
   36.0786   24.1441   25.8272 C   0  0  1  0  0  0  0  0  0  0  0  0
   36.9203   24.5891   26.9756 C   0  0  0  0  0  0  0  0  0  0  0  0
   38.0207   23.8055   27.2152 C   0  0  0  0  0  0  0  0  0  0  0  0
   38.1875   22.6853   26.3089 C   0  0  1  0  0  0  0  0  0  0  0  0
   36.8843   20.5734   26.4904 C   0  0  0  0  0  0  0  0  0  0  0  0
   36.9446   21.9339   26.3056 C   0  0  0  0  0  0  0  0  0  0  0  0
   35.8213   22.6767   26.0593 C   0  0  0  0  0  0  0  0  0  0  0  0
   34.5830   22.0555   25.9894 C   0  0  0  0  0  0  0  0  0  0  0  0
   34.5031   20.6766   26.1956 C   0  0  0  0  0  0  0  0  0  0  0  0
   35.6531   19.9403   26.4481 C   0  0  0  0  0  0  0  0  0  0  0  0
   40.3019   26.8417   23.1990 C   0  0  0  0  0  0  0  0  0  0  0  0
   39.7407   26.7101   24.6100 C   0  0  0  0  0  0  0  0  0  0  0  0
   37.0452   26.5113   24.1955 O   0  0  0  0  0  0  0  0  0  0  0  0
   40.5308   24.0437   25.1153 O   0  0  0  0  0  0  0  0  0  0  0  0
   39.3702   24.3358   24.8793 C   0  0  0  0  0  0  0  0  0  0  0  0
   38.9260   25.5056   24.6289 N   0  0  0  0  0  0  0  0  0  0  0  0
   37.6786   25.5197   24.4499 C   0  0  0  0  0  0  0  0  0  0  0  0
   37.0461   24.1840   24.6337 C   0  0  1  0  0  0  0  0  0  0  0  0
   38.2789   23.3265   24.9311 C   0  0  2  0  0  0  0  0  0  0  0  0
  1  2  1  0  0  0  0
  2  3  1  0  0  0  0
  3 20  1  0  0  0  0
  4  5  1  0  0  0  0
  6  7  2  0  0  0  0
  6 12  1  0  0  0  0
  7  8  1  0  0  0  0
  8  9  2  0  0  0  0
  9 11  1  0  0  0  0
 10  5  1  6  0  0  0
 10 11  1  0  0  0  0
 10 16  1  0  0  0  0
 10 27  1  0  0  0  0
 11 12  2  0  0  0  0
 13 12  1  1  0  0  0
 13 15  1  0  0  0  0
 13 28  1  0  0  0  0
 14 15  2  0  0  0  0
 14 19  1  0  0  0  0
 15 16  1  0  0  0  0
 16 17  2  0  0  0  0
 17 18  1  0  0  0  0
 18 19  2  0  0  0  0
 20 21  1  0  0  0  0
 21 25  1  0  0  0  0
 22 26  2  0  0  0  0
 23 24  2  0  0  0  0
 24 25  1  0  0  0  0
 25 26  1  0  0  0  0
 27 26  1  1  0  0  0
 27 28  1  0  0  0  0
 28 24  1  1  0  0  0
M  END
>  <CHROM.1>
-178.73063329,178.27008110,-172.80837037,-104.33440184,87.69690944,37.98619860
24.38772683,25.41629329,-0.36247412,-0.62691302,-2.86606464

>  <Name>
ligand

>  <RI>
0

>  <Rbt.Current_Directory>
/home/itssahil/PROJECTS/Mol_Feturizer/New_Systems/rnas/1YLS

>  <Rbt.Executable>
rbdock ($Id: //depot/dev/client3/rdock/2013.1/src/exe/rbdock.cxx#4 $)

>  <Rbt.Library>
libRbt.so (2013.1, Build901 2013/11/27)

>  <Rbt.Parameter_File>
/export/apps/rDock/src/rDock_2013.1_src/data/scripts/dock_solv.prm

>  <Rbt.Receptor>
prm/pocket_docking_6.prm

>  <SCORE>
-36.5251

>  <SCORE.INTER>
-33.9804

>  <SCORE.INTER.CONST>
1

>  <SCORE.INTER.POLAR>
0

>  <SCORE.INTER.ROT>
5

>  <SCORE.INTER.SOLV>
7.49512

>  <SCORE.INTER.VDW>
-32.0853

>  <SCORE.INTER.norm>
-1.21359

>  <SCORE.INTRA>
-2.54466

>  <SCORE.INTRA.DIHEDRAL>
-4.93143

>  <SCORE.INTRA.DIHEDRAL.0>
12.0148

>  <SCORE.INTRA.POLAR>
0

>  <SCORE.INTRA.POLAR.0>
0

>  <SCORE.INTRA.REPUL>
0

>  <SCORE.INTRA.REPUL.0>
0

>  <SCORE.INTRA.SOLV>
0.343185

>  <SCORE.INTRA.SOLV.lig_0>
-10.5235

>  <SCORE.INTRA.VDW>
-0.250543

>  <SCORE.INTRA.VDW.0>
-1.38455

>  <SCORE.INTRA.norm>
-0.0908809

>  <SCORE.RESTR>
0

>  <SCORE.RESTR.CAVITY>
0

>  <SCORE.RESTR.norm>
0

>  <SCORE.SYSTEM>
0

>  <SCORE.SYSTEM.CONST>
0

>  <SCORE.SYSTEM.DIHEDRAL>
0

>  <SCORE.SYSTEM.SOLV>
0

>  <SCORE.SYSTEM.norm>
0

>  <SCORE.heavy>
28

>  <SCORE.norm>
-1.30447

>  <RMSD>
1.004

$$$$
ligand
 OpenBabel11021811413D
libRbt.so/2013.1/901 2013/11/27
 28 32  0  0  0  0  0  0  0  0999 V2000
   43.7976   28.4374   22.3026 C   0  0  0  0  0  0  0  0  0  0  0  0
   42.8954   27.2217   22.3800 C   0  0  0  0  0  0  0  0  0  0  0  0
   41.7462   27.4364   23.3537 C   0  0  0  0  0  0  0  0  0  0  0  0
   33.9196   24.1560   25.9690 O   0  0  0  0  0  0  0  0  0  0  0  0
   34.9693   24.1405   25.0000 C   0  0  0  0  0  0  0  0  0  0  0  0
   38.5281   24.4833   28.3955 C   0  0  0  0  0  0  0  0  0  0  0  0
   38.0204   25.6958   28.8444 C   0  0  0  0  0  0  0  0  0  0  0  0
   36.8982   26.2471   28.2207 C   0  0  0  0  0  0  0  0  0  0  0  0
   36.2829   25.5893   27.1550 C   0  0  0  0  0  0  0  0  0  0  0  0
   36.2630   23.5773   25.6022 C   0  0  1  0  0  0  0  0  0  0  0  0
   36.7877   24.3768   26.7471 C   0  0  0  0  0  0  0  0  0  0  0  0
   37.8917   23.8405   27.3603 C   0  0  0  0  0  0  0  0  0  0  0  0
   38.3691   22.5957   26.7889 C   0  0  1  0  0  0  0  0  0  0  0  0
   37.2975   20.3922   27.2220 C   0  0  0  0  0  0  0  0  0  0  0  0
   37.2456   21.6768   26.7365 C   0  0  0  0  0  0  0  0  0  0  0  0
   36.1253   22.1687   26.1222 C   0  0  0  0  0  0  0  0  0  0  0  0
   35.0061   21.3625   25.9764 C   0  0  0  0  0  0  0  0  0  0  0  0
   35.0364   20.0615   26.4831 C   0  0  0  0  0  0  0  0  0  0  0  0
   36.1805   19.5812   27.1066 C   0  0  0  0  0  0  0  0  0  0  0  0
   40.8963   26.1774   23.4666 C   0  0  0  0  0  0  0  0  0  0  0  0
   39.7949   26.3689   24.5025 C   0  0  0  0  0  0  0  0  0  0  0  0
   37.2872   25.6729   23.6633 O   0  0  0  0  0  0  0  0  0  0  0  0
   40.7482   24.0217   25.7560 O   0  0  0  0  0  0  0  0  0  0  0  0
   39.6391   24.0748   25.2508 C   0  0  0  0  0  0  0  0  0  0  0  0
   39.1322   25.0835   24.6558 N   0  0  0  0  0  0  0  0  0  0  0  0
   37.9574   24.8666   24.2546 C   0  0  0  0  0  0  0  0  0  0  0  0
   37.4512   23.5170   24.6293 C   0  0  1  0  0  0  0  0  0  0  0  0
   38.6796   22.9418   25.3392 C   0  0  2  0  0  0  0  0  0  0  0  0
  1  2  1  0  0  0  0
  2  3  1  0  0  0  0
  3 20  1  0  0  0  0
  4  5  1  0  0  0  0
  6  7  2  0  0  0  0
  6 12  1  0  0  0  0
  7  8  1  0  0  0  0
  8  9  2  0  0  0  0
  9 11  1  0  0  0  0
 10  5  1  6  0  0  0
 10 11  1  0  0  0  0
 10 16  1  0  0  0  0
 10 27  1  0  0  0  0
 11 12  2  0  0  0  0
 13 12  1  1  0  0  0
 13 15  1  0  0  0  0
 13 28  1  0  0  0  0
 14 15  2  0  0  0  0
 14 19  1  0  0  0  0
 15 16  1  0  0  0  0
 16 17  2  0  0  0  0
 17 18  1  0  0  0  0
 18 19  2  0  0  0  0
 20 21  1  0  0  0  0
 21 25  1  0  0  0  0
 22 26  2  0  0  0  0
 23 24  2  0  0  0  0
 24 25  1  0  0  0  0
 25 26  1  0  0  0  0
 27 26  1  1  0  0  0
 27 28  1  0  0  0  0
 28 24  1  1  0  0  0
M  END
>  <CHROM.1>
-177.12256227,-61.27416888,176.71556731,-173.72819923,72.75430309,38.11756621
24.24042150,25.58244055,-0.69440460,-0.40649143,2.99171376

>  <Name>
ligand

>  <RI>
0

>  <Rbt.Current_Directory>
/home/itssahil/PROJECTS/Mol_Feturizer/New_Systems/rnas/1YLS

>  <Rbt.Executable>
rbdock ($Id: //depot/dev/client3/rdock/2013.1/src/exe/rbdock.cxx#4 $)

>  <Rbt.Library>
libRbt.so (2013.1, Build901 2013/11/27)

>  <Rbt.Parameter_File>
/export/apps/rDock/src/rDock_2013.1_src/data/scripts/dock_solv.prm

>  <Rbt.Receptor>
prm/pocket_docking_7.prm

>  <SCORE>
-38.4896

>  <SCORE.INTER>
-33.7872

>  <SCORE.INTER.CONST>
1

>  <SCORE.INTER.POLAR>
0

>  <SCORE.INTER.ROT>
5

>  <SCORE.INTER.SOLV>
7.56833

>  <SCORE.INTER.VDW>
-31.9809

>  <SCORE.INTER.norm>
-1.20669

>  <SCORE.INTRA>
-4.70233

>  <SCORE.INTRA.DIHEDRAL>
-9.49027

>  <SCORE.INTRA.DIHEDRAL.0>
12.0148

>  <SCORE.INTRA.POLAR>
0

>  <SCORE.INTRA.POLAR.0>
0

>  <SCORE.INTRA.REPUL>
0

>  <SCORE.INTRA.REPUL.0>
0

>  <SCORE.INTRA.SOLV>
-0.0300809

>  <SCORE.INTRA.SOLV.lig_0>
-10.5235

>  <SCORE.INTRA.VDW>
0.0578447

>  <SCORE.INTRA.VDW.0>
-1.38455

>  <SCORE.INTRA.norm>
-0.16794

>  <SCORE.RESTR>
0

>  <SCORE.RESTR.CAVITY>
0

>  <SCORE.RESTR.norm>
0

>  <SCORE.SYSTEM>
0

>  <SCORE.SYSTEM.CONST>
0

>  <SCORE.SYSTEM.DIHEDRAL>
0

>  <SCORE.SYSTEM.SOLV>
0

>  <SCORE.SYSTEM.norm>
0

>  <SCORE.heavy>
28

>  <SCORE.norm>
-1.37463

>  <RMSD>
1.004

$$$$
ligand
 OpenBabel11021811413D
libRbt.so/2013.1/901 2013/11/27
 28 32  0  0  0  0  0  0  0  0999 V2000
   43.9634   27.9387   22.2319 C   0  0  0  0  0  0  0  0  0  0  0  0
   42.8209   26.9424   22.2286 C   0  0  0  0  0  0  0  0  0  0  0  0
   41.8312   27.2193   23.3504 C   0  0  0  0  0  0  0  0  0  0  0  0
   35.1186   26.5113   25.4833 O   0  0  0  0  0  0  0  0  0  0  0  0
   34.6959   25.1467   25.4887 C   0  0  0  0  0  0  0  0  0  0  0  0
   38.6513   23.9633   28.1845 C   0  0  0  0  0  0  0  0  0  0  0  0
   38.5151   25.1200   28.9413 C   0  0  0  0  0  0  0  0  0  0  0  0
   37.4862   26.0189   28.6486 C   0  0  0  0  0  0  0  0  0  0  0  0
   36.5945   25.7629   27.6063 C   0  0  0  0  0  0  0  0  0  0  0  0
   35.8839   24.2058   25.7274 C   0  0  1  0  0  0  0  0  0  0  0  0
   36.7333   24.5974   26.8895 C   0  0  0  0  0  0  0  0  0  0  0  0
   37.7468   23.7190   27.1783 C   0  0  0  0  0  0  0  0  0  0  0  0
   37.8298   22.5656   26.3026 C   0  0  1  0  0  0  0  0  0  0  0  0
   36.3261   20.5924   26.4934 C   0  0  0  0  0  0  0  0  0  0  0  0
   36.5212   21.9359   26.2800 C   0  0  0  0  0  0  0  0  0  0  0  0
   35.4812   22.7758   25.9846 C   0  0  0  0  0  0  0  0  0  0  0  0
   34.1914   22.2736   25.8928 C   0  0  0  0  0  0  0  0  0  0  0  0
   33.9744   20.9141   26.1274 C   0  0  0  0  0  0  0  0  0  0  0  0
   35.0414   20.0783   26.4295 C   0  0  0  0  0  0  0  0  0  0  0  0
   40.7325   26.1645   23.3690 C   0  0  0  0  0  0  0  0  0  0  0  0
   39.8061   26.3807   24.5598 C   0  0  0  0  0  0  0  0  0  0  0  0
   37.1159   26.4288   24.0719 O   0  0  0  0  0  0  0  0  0  0  0  0
   40.3234   23.6648   25.1473 O   0  0  0  0  0  0  0  0  0  0  0  0
   39.2028   24.0599   24.8713 C   0  0  0  0  0  0  0  0  0  0  0  0
   38.8795   25.2600   24.5821 N   0  0  0  0  0  0  0  0  0  0  0  0
   37.6445   25.3882   24.3667 C   0  0  0  0  0  0  0  0  0  0  0  0
   36.8824   24.1236   24.5619 C   0  0  1  0  0  0  0  0  0  0  0  0
   38.0190   23.1605   24.9140 C   0  0  2  0  0  0  0  0  0  0  0  0
  1  2  1  0  0  0  0
  2  3  1  0  0  0  0
  3 20  1  0  0  0  0
  4  5  1  0  0  0  0
  6  7  2  0  0  0  0
  6 12  1  0  0  0  0
  7  8  1  0  0  0  0
  8  9  2  0  0  0  0
  9 11  1  0  0  0  0
 10  5  1  6  0  0  0
 10 11  1  0  0  0  0
 10 16  1  0  0  0  0
 10 27  1  0  0  0  0
 11 12  2  0  0  0  0
 13 12  1  1  0  0  0
 13 15  1  0  0  0  0
 13 28  1  0  0  0  0
 14 15  2  0  0  0  0
 14 19  1  0  0  0  0
 15 16  1  0  0  0  0
 16 17  2  0  0  0  0
 17 18  1  0  0  0  0
 18 19  2  0  0  0  0
 20 21  1  0  0  0  0
 21 25  1  0  0  0  0
 22 26  2  0  0  0  0
 23 24  2  0  0  0  0
 24 25  1  0  0  0  0
 25 26  1  0  0  0  0
 27 26  1  1  0  0  0
 27 28  1  0  0  0  0
 28 24  1  1  0  0  0
M  END
>  <CHROM.1>
-177.13620021,49.15085609,175.52045703,-174.18998283,69.61313705,37.89294179
24.50652994,25.46240873,-0.55831442,-0.45774164,3.11763621

>  <Name>
ligand

>  <RI>
0

>  <Rbt.Current_Directory>
/home/itssahil/PROJECTS/Mol_Feturizer/New_Systems/rnas/1YLS

>  <Rbt.Executable>
rbdock ($Id: //depot/dev/client3/rdock/2013.1/src/exe/rbdock.cxx#4 $)

>  <Rbt.Library>
libRbt.so (2013.1, Build901 2013/11/27)

>  <Rbt.Parameter_File>
/export/apps/rDock/src/rDock_2013.1_src/data/scripts/dock_solv.prm

>  <Rbt.Receptor>
prm/pocket_docking_2.prm

>  <SCORE>
-37.5468

>  <SCORE.INTER>
-34.5949

>  <SCORE.INTER.CONST>
1

>  <SCORE.INTER.POLAR>
0

>  <SCORE.INTER.ROT>
5

>  <SCORE.INTER.SOLV>
7.69258

>  <SCORE.INTER.VDW>
-32.5608

>  <SCORE.INTER.norm>
-1.23553

>  <SCORE.INTRA>
-2.95192

>  <SCORE.INTRA.DIHEDRAL>
-9.09376

>  <SCORE.INTRA.DIHEDRAL.0>
12.0148

>  <SCORE.INTRA.POLAR>
0

>  <SCORE.INTRA.POLAR.0>
0

>  <SCORE.INTRA.REPUL>
0

>  <SCORE.INTRA.REPUL.0>
0

>  <SCORE.INTRA.SOLV>
0.610137

>  <SCORE.INTRA.SOLV.lig_0>
-10.5235

>  <SCORE.INTRA.VDW>
1.28989

>  <SCORE.INTRA.VDW.0>
-1.38455

>  <SCORE.INTRA.norm>
-0.105426

>  <SCORE.RESTR>
0

>  <SCORE.RESTR.CAVITY>
0

>  <SCORE.RESTR.norm>
0

>  <SCORE.SYSTEM>
0

>  <SCORE.SYSTEM.CONST>
0

>  <SCORE.SYSTEM.DIHEDRAL>
0

>  <SCORE.SYSTEM.SOLV>
0

>  <SCORE.SYSTEM.norm>
0

>  <SCORE.heavy>
28

>  <SCORE.norm>
-1.34096

>  <RMSD>
1.006

$$$$
ligand
 OpenBabel11021811413D
libRbt.so/2013.1/901 2013/11/27
 28 32  0  0  0  0  0  0  0  0999 V2000
   43.5214   26.3090   22.0395 C   0  0  0  0  0  0  0  0  0  0  0  0
   42.5255   27.4510   21.9973 C   0  0  0  0  0  0  0  0  0  0  0  0
   41.7101   27.5329   23.2792 C   0  0  0  0  0  0  0  0  0  0  0  0
   34.1112   24.6113   24.2940 O   0  0  0  0  0  0  0  0  0  0  0  0
   34.8275   25.0737   25.4403 C   0  0  0  0  0  0  0  0  0  0  0  0
   38.7240   24.0502   28.2833 C   0  0  0  0  0  0  0  0  0  0  0  0
   38.5286   25.2135   29.0166 C   0  0  0  0  0  0  0  0  0  0  0  0
   37.4840   26.0767   28.6758 C   0  0  0  0  0  0  0  0  0  0  0  0
   36.6355   25.7784   27.6090 C   0  0  0  0  0  0  0  0  0  0  0  0
   36.0341   24.1725   25.7330 C   0  0  1  0  0  0  0  0  0  0  0  0
   36.8324   24.6069   26.9160 C   0  0  0  0  0  0  0  0  0  0  0  0
   37.8612   23.7637   27.2520 C   0  0  0  0  0  0  0  0  0  0  0  0
   38.0072   22.6003   26.3981 C   0  0  1  0  0  0  0  0  0  0  0  0
   36.5567   20.5860   26.5710 C   0  0  0  0  0  0  0  0  0  0  0  0
   36.7193   21.9314   26.3427 C   0  0  0  0  0  0  0  0  0  0  0  0
   35.6654   22.7351   25.9998 C   0  0  0  0  0  0  0  0  0  0  0  0
   34.3947   22.1932   25.8737 C   0  0  0  0  0  0  0  0  0  0  0  0
   34.2101   20.8315   26.1228 C   0  0  0  0  0  0  0  0  0  0  0  0
   35.2907   20.0327   26.4733 C   0  0  0  0  0  0  0  0  0  0  0  0
   40.7466   26.3573   23.3782 C   0  0  0  0  0  0  0  0  0  0  0  0
   39.9272   26.4462   24.6602 C   0  0  0  0  0  0  0  0  0  0  0  0
   37.2546   26.4063   24.0835 O   0  0  0  0  0  0  0  0  0  0  0  0
   40.5045   23.7562   25.3080 O   0  0  0  0  0  0  0  0  0  0  0  0
   39.3826   24.1133   24.9889 C   0  0  0  0  0  0  0  0  0  0  0  0
   39.0339   25.2987   24.6700 N   0  0  0  0  0  0  0  0  0  0  0  0
   37.8035   25.3866   24.4121 C   0  0  0  0  0  0  0  0  0  0  0  0
   37.0729   24.1028   24.6024 C   0  0  1  0  0  0  0  0  0  0  0  0
   38.2250   23.1796   25.0071 C   0  0  2  0  0  0  0  0  0  0  0  0
  1  2  1  0  0  0  0
  2  3  1  0  0  0  0
  3 20  1  0  0  0  0
  4  5  1  0  0  0  0
  6  7  2  0  0  0  0
  6 12  1  0  0  0  0
  7  8  1  0  0  0  0
  8  9  2  0  0  0  0
  9 11  1  0  0  0  0
 10  5  1  6  0  0  0
 10 11  1  0  0  0  0
 10 16  1  0  0  0  0
 10 27  1  0  0  0  0
 11 12  2  0  0  0  0
 13 12  1  1  0  0  0
 13 15  1  0  0  0  0
 13 28  1  0  0  0  0
 14 15  2  0  0  0  0
 14 19  1  0  0  0  0
 15 16  1  0  0  0  0
 16 17  2  0  0  0  0
 17 18  1  0  0  0  0
 18 19  2  0  0  0  0
 20 21  1  0  0  0  0
 21 25  1  0  0  0  0
 22 26  2  0  0  0  0
 23 24  2  0  0  0  0
 24 25  1  0  0  0  0
 25 26  1  0  0  0  0
 27 26  1  1  0  0  0
 27 28  1  0  0  0  0
 28 24  1  1  0  0  0
M  END
>  <CHROM.1>
-69.99191034,179.61520403,-179.73695284,179.63119238,78.65041922,37.93512334
24.40310902,25.43361342,0.59792758,-0.40550809,-1.17827903

>  <Name>
ligand

>  <RI>
0

>  <Rbt.Current_Directory>
/home/itssahil/PROJECTS/Mol_Feturizer/New_Systems/rnas/1YLS

>  <Rbt.Executable>
rbdock ($Id: //depot/dev/client3/rdock/2013.1/src/exe/rbdock.cxx#4 $)

>  <Rbt.Library>
libRbt.so (2013.1, Build901 2013/11/27)

>  <Rbt.Parameter_File>
/export/apps/rDock/src/rDock_2013.1_src/data/scripts/dock_solv.prm

>  <Rbt.Receptor>
prm/pocket_docking_6.prm

>  <SCORE>
-37.8881

>  <SCORE.INTER>
-34.3261

>  <SCORE.INTER.CONST>
1

>  <SCORE.INTER.POLAR>
0

>  <SCORE.INTER.ROT>
5

>  <SCORE.INTER.SOLV>
7.70299

>  <SCORE.INTER.VDW>
-32.3851

>  <SCORE.INTER.norm>
-1.22593

>  <SCORE.INTRA>
-3.56202

>  <SCORE.INTRA.DIHEDRAL>
-9.35155

>  <SCORE.INTRA.DIHEDRAL.0>
12.0148

>  <SCORE.INTRA.POLAR>
0

>  <SCORE.INTRA.POLAR.0>
0

>  <SCORE.INTRA.REPUL>
0

>  <SCORE.INTRA.REPUL.0>
0

>  <SCORE.INTRA.SOLV>
0.134816

>  <SCORE.INTRA.SOLV.lig_0>
-10.5235

>  <SCORE.INTRA.VDW>
1.04634

>  <SCORE.INTRA.VDW.0>
-1.38455

>  <SCORE.INTRA.norm>
-0.127215

>  <SCORE.RESTR>
0

>  <SCORE.RESTR.CAVITY>
0

>  <SCORE.RESTR.norm>
0

>  <SCORE.SYSTEM>
0

>  <SCORE.SYSTEM.CONST>
0

>  <SCORE.SYSTEM.DIHEDRAL>
0

>  <SCORE.SYSTEM.SOLV>
0

>  <SCORE.SYSTEM.norm>
0

>  <SCORE.heavy>
28

>  <SCORE.norm>
-1.35315

>  <RMSD>
1.007

$$$$
ligand
 OpenBabel11021811413D
libRbt.so/2013.1/901 2013/11/27
 28 32  0  0  0  0  0  0  0  0999 V2000
   43.5037   28.6542   22.2007 C   0  0  0  0  0  0  0  0  0  0  0  0
   42.5197   27.5015   22.1674 C   0  0  0  0  0  0  0  0  0  0  0  0
   42.2597   26.9447   23.5592 C   0  0  0  0  0  0  0  0  0  0  0  0
   35.7438   26.4608   25.4332 O   0  0  0  0  0  0  0  0  0  0  0  0
   35.2054   25.1377   25.4110 C   0  0  0  0  0  0  0  0  0  0  0  0
   38.7648   23.6774   28.4950 C   0  0  0  0  0  0  0  0  0  0  0  0
   38.6590   24.8580   29.2191 C   0  0  0  0  0  0  0  0  0  0  0  0
   37.7460   25.8356   28.8153 C   0  0  0  0  0  0  0  0  0  0  0  0
   36.9392   25.6345   27.6948 C   0  0  0  0  0  0  0  0  0  0  0  0
   36.2777   24.1033   25.7770 C   0  0  1  0  0  0  0  0  0  0  0  0
   37.0429   24.4458   27.0109 C   0  0  0  0  0  0  0  0  0  0  0  0
   37.9429   23.4898   27.4090 C   0  0  0  0  0  0  0  0  0  0  0  0
   38.0076   22.3145   26.5614 C   0  0  1  0  0  0  0  0  0  0  0  0
   36.3247   20.4831   26.6318 C   0  0  0  0  0  0  0  0  0  0  0  0
   36.6569   21.7997   26.4201 C   0  0  0  0  0  0  0  0  0  0  0  0
   35.7279   22.7194   26.0134 C   0  0  0  0  0  0  0  0  0  0  0  0
   34.4137   22.3285   25.8033 C   0  0  0  0  0  0  0  0  0  0  0  0
   34.0564   20.9983   26.0342 C   0  0  0  0  0  0  0  0  0  0  0  0
   35.0119   20.0805   26.4502 C   0  0  0  0  0  0  0  0  0  0  0  0
   41.0291   26.0471   23.5566 C   0  0  0  0  0  0  0  0  0  0  0  0
   40.4697   25.9055   24.9673 C   0  0  0  0  0  0  0  0  0  0  0  0
   37.8534   26.1746   24.2192 O   0  0  0  0  0  0  0  0  0  0  0  0
   40.6874   23.1687   25.6395 O   0  0  0  0  0  0  0  0  0  0  0  0
   39.6376   23.6528   25.2502 C   0  0  0  0  0  0  0  0  0  0  0  0
   39.4503   24.8696   24.9146 N   0  0  0  0  0  0  0  0  0  0  0  0
   38.2577   25.0991   24.5782 C   0  0  0  0  0  0  0  0  0  0  0  0
   37.3721   23.9096   24.7156 C   0  0  1  0  0  0  0  0  0  0  0  0
   38.3806   22.8601   25.1898 C   0  0  2  0  0  0  0  0  0  0  0  0
  1  2  1  0  0  0  0
  2  3  1  0  0  0  0
  3 20  1  0  0  0  0
  4  5  1  0  0  0  0
  6  7  2  0  0  0  0
  6 12  1  0  0  0  0
  7  8  1  0  0  0  0
  8  9  2  0  0  0  0
  9 11  1  0  0  0  0
 10  5  1  6  0  0  0
 10 11  1  0  0  0  0
 10 16  1  0  0  0  0
 10 27  1  0  0  0  0
 11 12  2  0  0  0  0
 13 12  1  1  0  0  0
 13 15  1  0  0  0  0
 13 28  1  0  0  0  0
 14 15  2  0  0  0  0
 14 19  1  0  0  0  0
 15 16  1  0  0  0  0
 16 17  2  0  0  0  0
 17 18  1  0  0  0  0
 18 19  2  0  0  0  0
 20 21  1  0  0  0  0
 21 25  1  0  0  0  0
 22 26  2  0  0  0  0
 23 24  2  0  0  0  0
 24 25  1  0  0  0  0
 25 26  1  0  0  0  0
 27 26  1  1  0  0  0
 27 28  1  0  0  0  0
 28 24  1  1  0  0  0
M  END
>  <CHROM.1>
165.61014333,48.92681123,-159.30791647,-170.66278105,98.30725751,38.18260029
24.37454666,25.61442025,0.72320499,0.24609130,-0.33038017

>  <Name>
ligand

>  <RI>
0

>  <Rbt.Current_Directory>
/home/itssahil/PROJECTS/Mol_Feturizer/New_Systems/rnas/1YLS

>  <Rbt.Executable>
rbdock ($Id: //depot/dev/client3/rdock/2013.1/src/exe/rbdock.cxx#4 $)

>  <Rbt.Library>
libRbt.so (2013.1, Build901 2013/11/27)

>  <Rbt.Parameter_File>
/export/apps/rDock/src/rDock_2013.1_src/data/scripts/dock_solv.prm

>  <Rbt.Receptor>
prm/pocket_docking_7.prm

>  <SCORE>
-34.6719

>  <SCORE.INTER>
-32.7633

>  <SCORE.INTER.CONST>
1

>  <SCORE.INTER.POLAR>
0

>  <SCORE.INTER.ROT>
5

>  <SCORE.INTER.SOLV>
7.02056

>  <SCORE.INTER.VDW>
-31.1157

>  <SCORE.INTER.norm>
-1.17012

>  <SCORE.INTRA>
-1.90866

>  <SCORE.INTRA.DIHEDRAL>
-6.64406

>  <SCORE.INTRA.DIHEDRAL.0>
12.0148

>  <SCORE.INTRA.POLAR>
0

>  <SCORE.INTRA.POLAR.0>
0

>  <SCORE.INTRA.REPUL>
0

>  <SCORE.INTRA.REPUL.0>
0

>  <SCORE.INTRA.SOLV>
0.573321

>  <SCORE.INTRA.SOLV.lig_0>
-10.5235

>  <SCORE.INTRA.VDW>
1.12671

>  <SCORE.INTRA.VDW.0>
-1.38455

>  <SCORE.INTRA.norm>
-0.0681665

>  <SCORE.RESTR>
0

>  <SCORE.RESTR.CAVITY>
0

>  <SCORE.RESTR.norm>
0

>  <SCORE.SYSTEM>
0

>  <SCORE.SYSTEM.CONST>
0

>  <SCORE.SYSTEM.DIHEDRAL>
0

>  <SCORE.SYSTEM.SOLV>
0

>  <SCORE.SYSTEM.norm>
0

>  <SCORE.heavy>
28

>  <SCORE.norm>
-1.23828

>  <RMSD>
1.011

$$$$
ligand
 OpenBabel11021811413D
libRbt.so/2013.1/901 2013/11/27
 28 32  0  0  0  0  0  0  0  0999 V2000
   44.2398   26.8779   22.7363 C   0  0  0  0  0  0  0  0  0  0  0  0
   42.9409   26.1483   23.0164 C   0  0  0  0  0  0  0  0  0  0  0  0
   41.7587   27.1048   23.0643 C   0  0  0  0  0  0  0  0  0  0  0  0
   34.4333   24.9601   24.0706 O   0  0  0  0  0  0  0  0  0  0  0  0
   34.9936   25.1978   25.3632 C   0  0  0  0  0  0  0  0  0  0  0  0
   38.6846   23.7507   28.2948 C   0  0  0  0  0  0  0  0  0  0  0  0
   38.6175   24.9389   29.0111 C   0  0  0  0  0  0  0  0  0  0  0  0
   37.6913   25.9169   28.6398 C   0  0  0  0  0  0  0  0  0  0  0  0
   36.8329   25.7086   27.5597 C   0  0  0  0  0  0  0  0  0  0  0  0
   36.0770   24.1619   25.6899 C   0  0  1  0  0  0  0  0  0  0  0  0
   36.8997   24.5128   26.8838 C   0  0  0  0  0  0  0  0  0  0  0  0
   37.8129   23.5564   27.2497 C   0  0  0  0  0  0  0  0  0  0  0  0
   37.8333   22.3725   26.4118 C   0  0  1  0  0  0  0  0  0  0  0  0
   36.1473   20.5501   26.5780 C   0  0  0  0  0  0  0  0  0  0  0  0
   36.4752   21.8629   26.3380 C   0  0  0  0  0  0  0  0  0  0  0  0
   35.5326   22.7831   25.9652 C   0  0  0  0  0  0  0  0  0  0  0  0
   34.2084   22.3965   25.8197 C   0  0  0  0  0  0  0  0  0  0  0  0
   33.8562   21.0704   26.0802 C   0  0  0  0  0  0  0  0  0  0  0  0
   34.8257   20.1521   26.4610 C   0  0  0  0  0  0  0  0  0  0  0  0
   40.4524   26.3360   23.2158 C   0  0  0  0  0  0  0  0  0  0  0  0
   40.2353   25.9355   24.6702 C   0  0  0  0  0  0  0  0  0  0  0  0
   37.5885   26.2100   24.0405 O   0  0  0  0  0  0  0  0  0  0  0  0
   40.4715   23.2044   25.3592 O   0  0  0  0  0  0  0  0  0  0  0  0
   39.4071   23.6898   25.0137 C   0  0  0  0  0  0  0  0  0  0  0  0
   39.2100   24.9042   24.6748 N   0  0  0  0  0  0  0  0  0  0  0  0
   38.0042   25.1361   24.3913 C   0  0  0  0  0  0  0  0  0  0  0  0
   37.1205   23.9524   24.5812 C   0  0  1  0  0  0  0  0  0  0  0  0
   38.1451   22.9026   25.0191 C   0  0  2  0  0  0  0  0  0  0  0  0
  1  2  1  0  0  0  0
  2  3  1  0  0  0  0
  3 20  1  0  0  0  0
  4  5  1  0  0  0  0
  6  7  2  0  0  0  0
  6 12  1  0  0  0  0
  7  8  1  0  0  0  0
  8  9  2  0  0  0  0
  9 11  1  0  0  0  0
 10  5  1  6  0  0  0
 10 11  1  0  0  0  0
 10 16  1  0  0  0  0
 10 27  1  0  0  0  0
 11 12  2  0  0  0  0
 13 12  1  1  0  0  0
 13 15  1  0  0  0  0
 13 28  1  0  0  0  0
 14 15  2  0  0  0  0
 14 19  1  0  0  0  0
 15 16  1  0  0  0  0
 16 17  2  0  0  0  0
 17 18  1  0  0  0  0
 18 19  2  0  0  0  0
 20 21  1  0  0  0  0
 21 25  1  0  0  0  0
 22 26  2  0  0  0  0
 23 24  2  0  0  0  0
 24 25  1  0  0  0  0
 25 26  1  0  0  0  0
 27 26  1  1  0  0  0
 27 28  1  0  0  0  0
 28 24  1  1  0  0  0
M  END
>  <CHROM.1>
174.67715388,167.77678095,80.30546013,-163.89902972,113.72780149,37.98143925
24.24664436,25.46550500,-0.59311206,0.21790082,2.20572539

>  <Name>
ligand

>  <RI>
0

>  <Rbt.Current_Directory>
/home/itssahil/PROJECTS/Mol_Feturizer/New_Systems/rnas/1YLS

>  <Rbt.Executable>
rbdock ($Id: //depot/dev/client3/rdock/2013.1/src/exe/rbdock.cxx#4 $)

>  <Rbt.Library>
libRbt.so (2013.1, Build901 2013/11/27)

>  <Rbt.Parameter_File>
/export/apps/rDock/src/rDock_2013.1_src/data/scripts/dock_solv.prm

>  <Rbt.Receptor>
prm/pocket_docking_2.prm

>  <SCORE>
-35.7638

>  <SCORE.INTER>
-33.2841

>  <SCORE.INTER.CONST>
1

>  <SCORE.INTER.POLAR>
0

>  <SCORE.INTER.ROT>
5

>  <SCORE.INTER.SOLV>
7.33685

>  <SCORE.INTER.VDW>
-31.5683

>  <SCORE.INTER.norm>
-1.18872

>  <SCORE.INTRA>
-2.47975

>  <SCORE.INTRA.DIHEDRAL>
-6.62281

>  <SCORE.INTRA.DIHEDRAL.0>
12.0148

>  <SCORE.INTRA.POLAR>
0

>  <SCORE.INTRA.POLAR.0>
0

>  <SCORE.INTRA.REPUL>
0

>  <SCORE.INTRA.REPUL.0>
0

>  <SCORE.INTRA.SOLV>
0.259681

>  <SCORE.INTRA.SOLV.lig_0>
-10.5235

>  <SCORE.INTRA.VDW>
0.701819

>  <SCORE.INTRA.VDW.0>
-1.38455

>  <SCORE.INTRA.norm>
-0.0885623

>  <SCORE.RESTR>
0

>  <SCORE.RESTR.CAVITY>
0

>  <SCORE.RESTR.norm>
0

>  <SCORE.SYSTEM>
0

>  <SCORE.SYSTEM.CONST>
0

>  <SCORE.SYSTEM.DIHEDRAL>
0

>  <SCORE.SYSTEM.SOLV>
0

>  <SCORE.SYSTEM.norm>
0

>  <SCORE.heavy>
28

>  <SCORE.norm>
-1.27728

>  <RMSD>
1.013

$$$$
ligand
 OpenBabel11021811413D
libRbt.so/2013.1/901 2013/11/27
 28 32  0  0  0  0  0  0  0  0999 V2000
   43.9924   26.3443   21.8567 C   0  0  0  0  0  0  0  0  0  0  0  0
   42.5223   26.7138   21.8709 C   0  0  0  0  0  0  0  0  0  0  0  0
   41.8431   26.2655   23.1564 C   0  0  0  0  0  0  0  0  0  0  0  0
   34.0449   24.9532   24.4505 O   0  0  0  0  0  0  0  0  0  0  0  0
   34.7672   25.2529   25.6461 C   0  0  0  0  0  0  0  0  0  0  0  0
   38.8352   24.0267   28.1481 C   0  0  0  0  0  0  0  0  0  0  0  0
   38.7082   25.1484   28.9575 C   0  0  0  0  0  0  0  0  0  0  0  0
   37.6554   26.0408   28.7394 C   0  0  0  0  0  0  0  0  0  0  0  0
   36.7309   25.8131   27.7194 C   0  0  0  0  0  0  0  0  0  0  0  0
   35.9777   24.3235   25.8027 C   0  0  1  0  0  0  0  0  0  0  0  0
   36.8621   24.6810   26.9496 C   0  0  0  0  0  0  0  0  0  0  0  0
   37.8991   23.8089   27.1651 C   0  0  0  0  0  0  0  0  0  0  0  0
   37.9687   22.6946   26.2391 C   0  0  1  0  0  0  0  0  0  0  0  0
   36.5041   20.6896   26.3994 C   0  0  0  0  0  0  0  0  0  0  0  0
   36.6703   22.0439   26.2362 C   0  0  0  0  0  0  0  0  0  0  0  0
   35.6071   22.8773   26.0134 C   0  0  0  0  0  0  0  0  0  0  0  0
   34.3230   22.3572   25.9461 C   0  0  0  0  0  0  0  0  0  0  0  0
   34.1359   20.9856   26.1306 C   0  0  0  0  0  0  0  0  0  0  0  0
   35.2262   20.1565   26.3593 C   0  0  0  0  0  0  0  0  0  0  0  0
   40.3880   26.7153   23.1794 C   0  0  0  0  0  0  0  0  0  0  0  0
   39.8205   26.6125   24.5902 C   0  0  0  0  0  0  0  0  0  0  0  0
   37.1141   26.6344   24.2001 O   0  0  0  0  0  0  0  0  0  0  0  0
   40.4014   23.8838   25.0439 O   0  0  0  0  0  0  0  0  0  0  0  0
   39.2656   24.2707   24.8245 C   0  0  0  0  0  0  0  0  0  0  0  0
   38.9132   25.4761   24.5979 N   0  0  0  0  0  0  0  0  0  0  0  0
   37.6694   25.5918   24.4318 C   0  0  0  0  0  0  0  0  0  0  0  0
   36.9347   24.3072   24.6003 C   0  0  1  0  0  0  0  0  0  0  0  0
   38.0984   23.3500   24.8710 C   0  0  2  0  0  0  0  0  0  0  0  0
  1  2  1  0  0  0  0
  2  3  1  0  0  0  0
  3 20  1  0  0  0  0
  4  5  1  0  0  0  0
  6  7  2  0  0  0  0
  6 12  1  0  0  0  0
  7  8  1  0  0  0  0
  8  9  2  0  0  0  0
  9 11  1  0  0  0  0
 10  5  1  6  0  0  0
 10 11  1  0  0  0  0
 10 16  1  0  0  0  0
 10 27  1  0  0  0  0
 11 12  2  0  0  0  0
 13 12  1  1  0  0  0
 13 15  1  0  0  0  0
 13 28  1  0  0  0  0
 14 15  2  0  0  0  0
 14 19  1  0  0  0  0
 15 16  1  0  0  0  0
 16 17  2  0  0  0  0
 17 18  1  0  0  0  0
 18 19  2  0  0  0  0
 20 21  1  0  0  0  0
 21 25  1  0  0  0  0
 22 26  2  0  0  0  0
 23 24  2  0  0  0  0
 24 25  1  0  0  0  0
 25 26  1  0  0  0  0
 27 26  1  1  0  0  0
 27 28  1  0  0  0  0
 28 24  1  1  0  0  0
M  END
>  <CHROM.1>
176.88424321,173.53126112,-164.52046757,-107.12046916,87.16747606,37.90865275
24.45267534,25.38658353,-0.65451877,-0.11391754,2.54610568

>  <Name>
ligand

>  <RI>
0

>  <Rbt.Current_Directory>
/home/itssahil/PROJECTS/Mol_Feturizer/New_Systems/rnas/1YLS

>  <Rbt.Executable>
rbdock ($Id: //depot/dev/client3/rdock/2013.1/src/exe/rbdock.cxx#4 $)

>  <Rbt.Library>
libRbt.so (2013.1, Build901 2013/11/27)

>  <Rbt.Parameter_File>
/export/apps/rDock/src/rDock_2013.1_src/data/scripts/dock_solv.prm

>  <Rbt.Receptor>
prm/pocket_docking_8.prm

>  <SCORE>
-36.456

>  <SCORE.INTER>
-34.4965

>  <SCORE.INTER.CONST>
1

>  <SCORE.INTER.POLAR>
0

>  <SCORE.INTER.ROT>
5

>  <SCORE.INTER.SOLV>
7.40155

>  <SCORE.INTER.VDW>
-32.3982

>  <SCORE.INTER.norm>
-1.23202

>  <SCORE.INTRA>
-1.95952

>  <SCORE.INTRA.DIHEDRAL>
-3.77296

>  <SCORE.INTRA.DIHEDRAL.0>
12.0148

>  <SCORE.INTRA.POLAR>
0

>  <SCORE.INTRA.POLAR.0>
0

>  <SCORE.INTRA.REPUL>
0

>  <SCORE.INTRA.REPUL.0>
0

>  <SCORE.INTRA.SOLV>
0.362033

>  <SCORE.INTRA.SOLV.lig_0>
-10.5235

>  <SCORE.INTRA.VDW>
-0.254057

>  <SCORE.INTRA.VDW.0>
-1.38455

>  <SCORE.INTRA.norm>
-0.0699829

>  <SCORE.RESTR>
0

>  <SCORE.RESTR.CAVITY>
0

>  <SCORE.RESTR.norm>
0

>  <SCORE.SYSTEM>
0

>  <SCORE.SYSTEM.CONST>
0

>  <SCORE.SYSTEM.DIHEDRAL>
0

>  <SCORE.SYSTEM.SOLV>
0

>  <SCORE.SYSTEM.norm>
0

>  <SCORE.heavy>
28

>  <SCORE.norm>
-1.302

>  <RMSD>
1.015

$$$$
ligand
 OpenBabel11021811413D
libRbt.so/2013.1/901 2013/11/27
 28 32  0  0  0  0  0  0  0  0999 V2000
   42.7300   28.5918   22.4482 C   0  0  0  0  0  0  0  0  0  0  0  0
   42.6896   27.3879   23.3684 C   0  0  0  0  0  0  0  0  0  0  0  0
   41.7466   26.3138   22.8470 C   0  0  0  0  0  0  0  0  0  0  0  0
   33.8514   25.1594   26.3719 O   0  0  0  0  0  0  0  0  0  0  0  0
   34.7866   25.1565   25.2919 C   0  0  0  0  0  0  0  0  0  0  0  0
   38.6702   24.2295   28.1850 C   0  0  0  0  0  0  0  0  0  0  0  0
   38.4648   25.4113   28.8853 C   0  0  0  0  0  0  0  0  0  0  0  0
   37.4183   26.2598   28.5150 C   0  0  0  0  0  0  0  0  0  0  0  0
   36.5777   25.9285   27.4515 C   0  0  0  0  0  0  0  0  0  0  0  0
   35.9956   24.2696   25.6161 C   0  0  1  0  0  0  0  0  0  0  0  0
   36.7845   24.7397   26.7917 C   0  0  0  0  0  0  0  0  0  0  0  0
   37.8152   23.9110   27.1567 C   0  0  0  0  0  0  0  0  0  0  0  0
   37.9720   22.7256   26.3355 C   0  0  1  0  0  0  0  0  0  0  0  0
   36.5301   20.7097   26.5542 C   0  0  0  0  0  0  0  0  0  0  0  0
   36.6876   22.0491   26.2904 C   0  0  0  0  0  0  0  0  0  0  0  0
   35.6320   22.8381   25.9195 C   0  0  0  0  0  0  0  0  0  0  0  0
   34.3648   22.2867   25.8005 C   0  0  0  0  0  0  0  0  0  0  0  0
   34.1851   20.9314   26.0853 C   0  0  0  0  0  0  0  0  0  0  0  0
   35.2673   20.1477   26.4638 C   0  0  0  0  0  0  0  0  0  0  0  0
   40.2954   26.7289   23.0512 C   0  0  0  0  0  0  0  0  0  0  0  0
   39.8844   26.5325   24.5057 C   0  0  0  0  0  0  0  0  0  0  0  0
   37.2156   26.4638   23.9141 O   0  0  0  0  0  0  0  0  0  0  0  0
   40.4705   23.8639   25.2296 O   0  0  0  0  0  0  0  0  0  0  0  0
   39.3489   24.2067   24.8941 C   0  0  0  0  0  0  0  0  0  0  0  0
   38.9965   25.3813   24.5411 N   0  0  0  0  0  0  0  0  0  0  0  0
   37.7673   25.4561   24.2735 C   0  0  0  0  0  0  0  0  0  0  0  0
   37.0416   24.1744   24.4941 C   0  0  1  0  0  0  0  0  0  0  0  0
   38.1956   23.2682   24.9306 C   0  0  2  0  0  0  0  0  0  0  0  0
  1  2  1  0  0  0  0
  2  3  1  0  0  0  0
  3 20  1  0  0  0  0
  4  5  1  0  0  0  0
  6  7  2  0  0  0  0
  6 12  1  0  0  0  0
  7  8  1  0  0  0  0
  8  9  2  0  0  0  0
  9 11  1  0  0  0  0
 10  5  1  6  0  0  0
 10 11  1  0  0  0  0
 10 16  1  0  0  0  0
 10 27  1  0  0  0  0
 11 12  2  0  0  0  0
 13 12  1  1  0  0  0
 13 15  1  0  0  0  0
 13 28  1  0  0  0  0
 14 15  2  0  0  0  0
 14 19  1  0  0  0  0
 15 16  1  0  0  0  0
 16 17  2  0  0  0  0
 17 18  1  0  0  0  0
 18 19  2  0  0  0  0
 20 21  1  0  0  0  0
 21 25  1  0  0  0  0
 22 26  2  0  0  0  0
 23 24  2  0  0  0  0
 24 25  1  0  0  0  0
 25 26  1  0  0  0  0
 27 26  1  1  0  0  0
 27 28  1  0  0  0  0
 28 24  1  1  0  0  0
M  END
>  <CHROM.1>
-74.00726262,-62.61461955,-77.33725129,-107.38667954,100.51056841,37.85038077
24.57521989,25.48292568,0.57540156,0.47526209,0.01328037

>  <Name>
ligand

>  <RI>
0

>  <Rbt.Current_Directory>
/home/itssahil/PROJECTS/Mol_Feturizer/New_Systems/rnas/1YLS

>  <Rbt.Executable>
rbdock ($Id: //depot/dev/client3/rdock/2013.1/src/exe/rbdock.cxx#4 $)

>  <Rbt.Library>
libRbt.so (2013.1, Build901 2013/11/27)

>  <Rbt.Parameter_File>
/export/apps/rDock/src/rDock_2013.1_src/data/scripts/dock_solv.prm

>  <Rbt.Receptor>
prm/pocket_docking_3.prm

>  <SCORE>
-34.0317

>  <SCORE.INTER>
-33.6268

>  <SCORE.INTER.CONST>
1

>  <SCORE.INTER.POLAR>
0

>  <SCORE.INTER.ROT>
5

>  <SCORE.INTER.SOLV>
8.3194

>  <SCORE.INTER.VDW>
-32.1244

>  <SCORE.INTER.norm>
-1.20096

>  <SCORE.INTRA>
-0.404843

>  <SCORE.INTRA.DIHEDRAL>
-2.86563

>  <SCORE.INTRA.DIHEDRAL.0>
12.0148

>  <SCORE.INTRA.POLAR>
0

>  <SCORE.INTRA.POLAR.0>
0

>  <SCORE.INTRA.REPUL>
0

>  <SCORE.INTRA.REPUL.0>
0

>  <SCORE.INTRA.SOLV>
0.109353

>  <SCORE.INTRA.SOLV.lig_0>
-10.5235

>  <SCORE.INTRA.VDW>
0.973297

>  <SCORE.INTRA.VDW.0>
-1.38455

>  <SCORE.INTRA.norm>
-0.0144587

>  <SCORE.RESTR>
0

>  <SCORE.RESTR.CAVITY>
0

>  <SCORE.RESTR.norm>
0

>  <SCORE.SYSTEM>
0

>  <SCORE.SYSTEM.CONST>
0

>  <SCORE.SYSTEM.DIHEDRAL>
0

>  <SCORE.SYSTEM.SOLV>
0

>  <SCORE.SYSTEM.norm>
0

>  <SCORE.heavy>
28

>  <SCORE.norm>
-1.21542

>  <RMSD>
1.017

$$$$
ligand
 OpenBabel11021811413D
libRbt.so/2013.1/901 2013/11/27
 28 32  0  0  0  0  0  0  0  0999 V2000
   43.9116   26.3419   21.7536 C   0  0  0  0  0  0  0  0  0  0  0  0
   42.4511   26.7389   21.8384 C   0  0  0  0  0  0  0  0  0  0  0  0
   41.8429   26.3590   23.1802 C   0  0  0  0  0  0  0  0  0  0  0  0
   34.0008   24.5068   24.4353 O   0  0  0  0  0  0  0  0  0  0  0  0
   34.7701   25.0001   25.5335 C   0  0  0  0  0  0  0  0  0  0  0  0
   38.7881   24.0387   28.2249 C   0  0  0  0  0  0  0  0  0  0  0  0
   38.5836   25.1812   28.9877 C   0  0  0  0  0  0  0  0  0  0  0  0
   37.5034   26.0192   28.6992 C   0  0  0  0  0  0  0  0  0  0  0  0
   36.6285   25.7164   27.6552 C   0  0  0  0  0  0  0  0  0  0  0  0
   36.0116   24.1299   25.7678 C   0  0  1  0  0  0  0  0  0  0  0  0
   36.8362   24.5650   26.9324 C   0  0  0  0  0  0  0  0  0  0  0  0
   37.8999   23.7465   27.2170 C   0  0  0  0  0  0  0  0  0  0  0  0
   38.0511   22.6047   26.3353 C   0  0  1  0  0  0  0  0  0  0  0  0
   36.6667   20.5451   26.5150 C   0  0  0  0  0  0  0  0  0  0  0  0
   36.7821   21.8988   26.3088 C   0  0  0  0  0  0  0  0  0  0  0  0
   35.6942   22.6772   26.0174 C   0  0  0  0  0  0  0  0  0  0  0  0
   34.4364   22.1001   25.9223 C   0  0  0  0  0  0  0  0  0  0  0  0
   34.3001   20.7290   26.1496 C   0  0  0  0  0  0  0  0  0  0  0  0
   35.4148   19.9562   26.4479 C   0  0  0  0  0  0  0  0  0  0  0  0
   40.3506   26.6635   23.1984 C   0  0  0  0  0  0  0  0  0  0  0  0
   39.7984   26.5392   24.6135 C   0  0  0  0  0  0  0  0  0  0  0  0
   37.1102   26.4306   24.1246 O   0  0  0  0  0  0  0  0  0  0  0  0
   40.4755   23.8556   25.1870 O   0  0  0  0  0  0  0  0  0  0  0  0
   39.3335   24.1852   24.9125 C   0  0  0  0  0  0  0  0  0  0  0  0
   38.9398   25.3656   24.6294 N   0  0  0  0  0  0  0  0  0  0  0  0
   37.6994   25.4216   24.4141 C   0  0  0  0  0  0  0  0  0  0  0  0
   37.0134   24.1131   24.6024 C   0  0  1  0  0  0  0  0  0  0  0  0
   38.2050   23.2171   24.9499 C   0  0  2  0  0  0  0  0  0  0  0  0
  1  2  1  0  0  0  0
  2  3  1  0  0  0  0
  3 20  1  0  0  0  0
  4  5  1  0  0  0  0
  6  7  2  0  0  0  0
  6 12  1  0  0  0  0
  7  8  1  0  0  0  0
  8  9  2  0  0  0  0
  9 11  1  0  0  0  0
 10  5  1  6  0  0  0
 10 11  1  0  0  0  0
 10 16  1  0  0  0  0
 10 27  1  0  0  0  0
 11 12  2  0  0  0  0
 13 12  1  1  0  0  0
 13 15  1  0  0  0  0
 13 28  1  0  0  0  0
 14 15  2  0  0  0  0
 14 19  1  0  0  0  0
 15 16  1  0  0  0  0
 16 17  2  0  0  0  0
 17 18  1  0  0  0  0
 18 19  2  0  0  0  0
 20 21  1  0  0  0  0
 21 25  1  0  0  0  0
 22 26  2  0  0  0  0
 23 24  2  0  0  0  0
 24 25  1  0  0  0  0
 25 26  1  0  0  0  0
 27 26  1  1  0  0  0
 27 28  1  0  0  0  0
 28 24  1  1  0  0  0
M  END
>  <CHROM.1>
-175.34993429,-178.05852216,-169.06645931,-110.62839634,90.38295915,37.92877024
24.33153700,25.40055395,0.34078483,-0.61181841,-1.74024604

>  <Name>
ligand

>  <RI>
0

>  <Rbt.Current_Directory>
/home/itssahil/PROJECTS/Mol_Feturizer/New_Systems/rnas/1YLS

>  <Rbt.Executable>
rbdock ($Id: //depot/dev/client3/rdock/2013.1/src/exe/rbdock.cxx#4 $)

>  <Rbt.Library>
libRbt.so (2013.1, Build901 2013/11/27)

>  <Rbt.Parameter_File>
/export/apps/rDock/src/rDock_2013.1_src/data/scripts/dock_solv.prm

>  <Rbt.Receptor>
prm/pocket_docking_6.prm

>  <SCORE>
-36.4794

>  <SCORE.INTER>
-34.4607

>  <SCORE.INTER.CONST>
1

>  <SCORE.INTER.POLAR>
0

>  <SCORE.INTER.ROT>
5

>  <SCORE.INTER.SOLV>
7.58422

>  <SCORE.INTER.VDW>
-32.4352

>  <SCORE.INTER.norm>
-1.23074

>  <SCORE.INTRA>
-2.01875

>  <SCORE.INTRA.DIHEDRAL>
-4.00778

>  <SCORE.INTRA.DIHEDRAL.0>
12.0148

>  <SCORE.INTRA.POLAR>
0

>  <SCORE.INTRA.POLAR.0>
0

>  <SCORE.INTRA.REPUL>
0

>  <SCORE.INTRA.REPUL.0>
0

>  <SCORE.INTRA.SOLV>
0.291246

>  <SCORE.INTRA.SOLV.lig_0>
-10.5235

>  <SCORE.INTRA.VDW>
-0.160482

>  <SCORE.INTRA.VDW.0>
-1.38455

>  <SCORE.INTRA.norm>
-0.0720981

>  <SCORE.RESTR>
0

>  <SCORE.RESTR.CAVITY>
0

>  <SCORE.RESTR.norm>
0

>  <SCORE.SYSTEM>
0

>  <SCORE.SYSTEM.CONST>
0

>  <SCORE.SYSTEM.DIHEDRAL>
0

>  <SCORE.SYSTEM.SOLV>
0

>  <SCORE.SYSTEM.norm>
0

>  <SCORE.heavy>
28

>  <SCORE.norm>
-1.30284

>  <RMSD>
1.019

$$$$
ligand
 OpenBabel11021811413D
libRbt.so/2013.1/901 2013/11/27
 28 32  0  0  0  0  0  0  0  0999 V2000
   43.5497   28.5804   22.1938 C   0  0  0  0  0  0  0  0  0  0  0  0
   42.4910   27.4968   22.2459 C   0  0  0  0  0  0  0  0  0  0  0  0
   42.2274   27.0373   23.6721 C   0  0  0  0  0  0  0  0  0  0  0  0
   34.5079   25.1747   26.3647 O   0  0  0  0  0  0  0  0  0  0  0  0
   35.5126   24.9845   25.3670 C   0  0  0  0  0  0  0  0  0  0  0  0
   38.8864   23.5189   28.6506 C   0  0  0  0  0  0  0  0  0  0  0  0
   38.7863   24.7250   29.3323 C   0  0  0  0  0  0  0  0  0  0  0  0
   37.9229   25.7159   28.8580 C   0  0  0  0  0  0  0  0  0  0  0  0
   37.1598   25.5029   27.7094 C   0  0  0  0  0  0  0  0  0  0  0  0
   36.5349   23.9309   25.8125 C   0  0  1  0  0  0  0  0  0  0  0  0
   37.2560   24.2901   27.0680 C   0  0  0  0  0  0  0  0  0  0  0  0
   38.1073   23.3210   27.5354 C   0  0  0  0  0  0  0  0  0  0  0  0
   38.1720   22.1174   26.7283 C   0  0  1  0  0  0  0  0  0  0  0  0
   36.4310   20.3405   26.7804 C   0  0  0  0  0  0  0  0  0  0  0  0
   36.8133   21.6390   26.5430 C   0  0  0  0  0  0  0  0  0  0  0  0
   35.9322   22.5725   26.0669 C   0  0  0  0  0  0  0  0  0  0  0  0
   34.6168   22.2145   25.8106 C   0  0  0  0  0  0  0  0  0  0  0  0
   34.2082   20.9038   26.0665 C   0  0  0  0  0  0  0  0  0  0  0  0
   35.1154   19.9717   26.5530 C   0  0  0  0  0  0  0  0  0  0  0  0
   41.1512   25.9598   23.6985 C   0  0  0  0  0  0  0  0  0  0  0  0
   40.8128   25.5794   25.1350 C   0  0  0  0  0  0  0  0  0  0  0  0
   38.2414   25.9025   24.2630 O   0  0  0  0  0  0  0  0  0  0  0  0
   40.9150   22.8606   25.9009 O   0  0  0  0  0  0  0  0  0  0  0  0
   39.8988   23.3630   25.4503 C   0  0  0  0  0  0  0  0  0  0  0  0
   39.7647   24.5734   25.0690 N   0  0  0  0  0  0  0  0  0  0  0  0
   38.5957   24.8275   24.6728 C   0  0  0  0  0  0  0  0  0  0  0  0
   37.6680   23.6702   24.8074 C   0  0  1  0  0  0  0  0  0  0  0  0
   38.6214   22.6068   25.3584 C   0  0  2  0  0  0  0  0  0  0  0  0
  1  2  1  0  0  0  0
  2  3  1  0  0  0  0
  3 20  1  0  0  0  0
  4  5  1  0  0  0  0
  6  7  2  0  0  0  0
  6 12  1  0  0  0  0
  7  8  1  0  0  0  0
  8  9  2  0  0  0  0
  9 11  1  0  0  0  0
 10  5  1  6  0  0  0
 10 11  1  0  0  0  0
 10 16  1  0  0  0  0
 10 27  1  0  0  0  0
 11 12  2  0  0  0  0
 13 12  1  1  0  0  0
 13 15  1  0  0  0  0
 13 28  1  0  0  0  0
 14 15  2  0  0  0  0
 14 19  1  0  0  0  0
 15 16  1  0  0  0  0
 16 17  2  0  0  0  0
 17 18  1  0  0  0  0
 18 19  2  0  0  0  0
 20 21  1  0  0  0  0
 21 25  1  0  0  0  0
 22 26  2  0  0  0  0
 23 24  2  0  0  0  0
 24 25  1  0  0  0  0
 25 26  1  0  0  0  0
 27 26  1  1  0  0  0
 27 28  1  0  0  0  0
 28 24  1  1  0  0  0
M  END
>  <CHROM.1>
179.42377091,-60.35707956,-175.61140407,178.81557146,114.80106986,38.31354432
24.15821988,25.74956495,0.74339196,-0.01942836,-0.62812528

>  <Name>
ligand

>  <RI>
0

>  <Rbt.Current_Directory>
/home/itssahil/PROJECTS/Mol_Feturizer/New_Systems/rnas/1YLS

>  <Rbt.Executable>
rbdock ($Id: //depot/dev/client3/rdock/2013.1/src/exe/rbdock.cxx#4 $)

>  <Rbt.Library>
libRbt.so (2013.1, Build901 2013/11/27)

>  <Rbt.Parameter_File>
/export/apps/rDock/src/rDock_2013.1_src/data/scripts/dock_solv.prm

>  <Rbt.Receptor>
prm/pocket_docking_7.prm

>  <SCORE>
-36.5697

>  <SCORE.INTER>
-32.1643

>  <SCORE.INTER.CONST>
1

>  <SCORE.INTER.POLAR>
0

>  <SCORE.INTER.ROT>
5

>  <SCORE.INTER.SOLV>
6.86113

>  <SCORE.INTER.VDW>
-30.6632

>  <SCORE.INTER.norm>
-1.14872

>  <SCORE.INTRA>
-4.40545

>  <SCORE.INTRA.DIHEDRAL>
-9.59172

>  <SCORE.INTRA.DIHEDRAL.0>
12.0148

>  <SCORE.INTRA.POLAR>
0

>  <SCORE.INTRA.POLAR.0>
0

>  <SCORE.INTRA.REPUL>
0

>  <SCORE.INTRA.REPUL.0>
0

>  <SCORE.INTRA.SOLV>
-0.0263294

>  <SCORE.INTRA.SOLV.lig_0>
-10.5235

>  <SCORE.INTRA.VDW>
0.403571

>  <SCORE.INTRA.VDW.0>
-1.38455

>  <SCORE.INTRA.norm>
-0.157338

>  <SCORE.RESTR>
0

>  <SCORE.RESTR.CAVITY>
0

>  <SCORE.RESTR.norm>
0

>  <SCORE.SYSTEM>
0

>  <SCORE.SYSTEM.CONST>
0

>  <SCORE.SYSTEM.DIHEDRAL>
0

>  <SCORE.SYSTEM.SOLV>
0

>  <SCORE.SYSTEM.norm>
0

>  <SCORE.heavy>
28

>  <SCORE.norm>
-1.30606

>  <RMSD>
1.019

$$$$
ligand
 OpenBabel11021811413D
libRbt.so/2013.1/901 2013/11/27
 28 32  0  0  0  0  0  0  0  0999 V2000
   43.9842   27.8616   22.2569 C   0  0  0  0  0  0  0  0  0  0  0  0
   42.8096   26.9041   22.2190 C   0  0  0  0  0  0  0  0  0  0  0  0
   41.8098   27.1976   23.3276 C   0  0  0  0  0  0  0  0  0  0  0  0
   35.0932   26.5009   25.4547 O   0  0  0  0  0  0  0  0  0  0  0  0
   34.6696   25.1368   25.4830 C   0  0  0  0  0  0  0  0  0  0  0  0
   38.6371   23.9655   28.1661 C   0  0  0  0  0  0  0  0  0  0  0  0
   38.5024   25.1240   28.9205 C   0  0  0  0  0  0  0  0  0  0  0  0
   37.4713   26.0208   28.6294 C   0  0  0  0  0  0  0  0  0  0  0  0
   36.5758   25.7609   27.5914 C   0  0  0  0  0  0  0  0  0  0  0  0
   35.8597   24.1980   25.7194 C   0  0  1  0  0  0  0  0  0  0  0  0
   36.7132   24.5938   26.8771 C   0  0  0  0  0  0  0  0  0  0  0  0
   37.7290   23.7174   27.1642 C   0  0  0  0  0  0  0  0  0  0  0  0
   37.8100   22.5618   26.2912 C   0  0  1  0  0  0  0  0  0  0  0  0
   36.3095   20.5873   26.4931 C   0  0  0  0  0  0  0  0  0  0  0  0
   36.5021   21.9304   26.2755 C   0  0  0  0  0  0  0  0  0  0  0  0
   35.4598   22.7682   25.9820 C   0  0  0  0  0  0  0  0  0  0  0  0
   34.1704   22.2642   25.8966 C   0  0  0  0  0  0  0  0  0  0  0  0
   33.9559   20.9051   26.1356 C   0  0  0  0  0  0  0  0  0  0  0  0
   35.0252   20.0714   26.4357 C   0  0  0  0  0  0  0  0  0  0  0  0
   40.7030   26.1512   23.3429 C   0  0  0  0  0  0  0  0  0  0  0  0
   39.7744   26.3748   24.5306 C   0  0  0  0  0  0  0  0  0  0  0  0
   37.0823   26.4182   24.0533 O   0  0  0  0  0  0  0  0  0  0  0  0
   40.2975   23.6611   25.1232 O   0  0  0  0  0  0  0  0  0  0  0  0
   39.1754   24.0541   24.8505 C   0  0  0  0  0  0  0  0  0  0  0  0
   38.8494   25.2530   24.5594 N   0  0  0  0  0  0  0  0  0  0  0  0
   37.6134   25.3791   24.3486 C   0  0  0  0  0  0  0  0  0  0  0  0
   36.8536   24.1141   24.5502 C   0  0  1  0  0  0  0  0  0  0  0  0
   37.9929   23.1533   24.9003 C   0  0  2  0  0  0  0  0  0  0  0  0
  1  2  1  0  0  0  0
  2  3  1  0  0  0  0
  3 20  1  0  0  0  0
  4  5  1  0  0  0  0
  6  7  2  0  0  0  0
  6 12  1  0  0  0  0
  7  8  1  0  0  0  0
  8  9  2  0  0  0  0
  9 11  1  0  0  0  0
 10  5  1  6  0  0  0
 10 11  1  0  0  0  0
 10 16  1  0  0  0  0
 10 27  1  0  0  0  0
 11 12  2  0  0  0  0
 13 12  1  1  0  0  0
 13 15  1  0  0  0  0
 13 28  1  0  0  0  0
 14 15  2  0  0  0  0
 14 19  1  0  0  0  0
 15 16  1  0  0  0  0
 16 17  2  0  0  0  0
 17 18  1  0  0  0  0
 18 19  2  0  0  0  0
 20 21  1  0  0  0  0
 21 25  1  0  0  0  0
 22 26  2  0  0  0  0
 23 24  2  0  0  0  0
 24 25  1  0  0  0  0
 25 26  1  0  0  0  0
 27 26  1  1  0  0  0
 27 28  1  0  0  0  0
 28 24  1  1  0  0  0
M  END
>  <CHROM.1>
-175.12686717,49.91768723,174.88646121,-173.52817696,69.19987239,37.87205179
24.49573763,25.45010513,-0.55900306,-0.45078596,3.10650294

>  <Name>
ligand

>  <RI>
0

>  <Rbt.Current_Directory>
/home/itssahil/PROJECTS/Mol_Feturizer/New_Systems/rnas/1YLS

>  <Rbt.Executable>
rbdock ($Id: //depot/dev/client3/rdock/2013.1/src/exe/rbdock.cxx#4 $)

>  <Rbt.Library>
libRbt.so (2013.1, Build901 2013/11/27)

>  <Rbt.Parameter_File>
/export/apps/rDock/src/rDock_2013.1_src/data/scripts/dock_solv.prm

>  <Rbt.Receptor>
prm/pocket_docking_2.prm

>  <SCORE>
-37.4884

>  <SCORE.INTER>
-34.6278

>  <SCORE.INTER.CONST>
1

>  <SCORE.INTER.POLAR>
0

>  <SCORE.INTER.ROT>
5

>  <SCORE.INTER.SOLV>
7.74934

>  <SCORE.INTER.VDW>
-32.6016

>  <SCORE.INTER.norm>
-1.23671

>  <SCORE.INTRA>
-2.86059

>  <SCORE.INTRA.DIHEDRAL>
-9.01972

>  <SCORE.INTRA.DIHEDRAL.0>
12.0148

>  <SCORE.INTRA.POLAR>
0

>  <SCORE.INTRA.POLAR.0>
0

>  <SCORE.INTRA.REPUL>
0

>  <SCORE.INTRA.REPUL.0>
0

>  <SCORE.INTRA.SOLV>
0.616781

>  <SCORE.INTRA.SOLV.lig_0>
-10.5235

>  <SCORE.INTRA.VDW>
1.34088

>  <SCORE.INTRA.VDW.0>
-1.38455

>  <SCORE.INTRA.norm>
-0.102164

>  <SCORE.RESTR>
0

>  <SCORE.RESTR.CAVITY>
0

>  <SCORE.RESTR.norm>
0

>  <SCORE.SYSTEM>
0

>  <SCORE.SYSTEM.CONST>
0

>  <SCORE.SYSTEM.DIHEDRAL>
0

>  <SCORE.SYSTEM.SOLV>
0

>  <SCORE.SYSTEM.norm>
0

>  <SCORE.heavy>
28

>  <SCORE.norm>
-1.33887

>  <RMSD>
1.021

$$$$
ligand
 OpenBabel11021811413D
libRbt.so/2013.1/901 2013/11/27
 28 32  0  0  0  0  0  0  0  0999 V2000
   43.9538   27.8897   22.1875 C   0  0  0  0  0  0  0  0  0  0  0  0
   42.8238   26.8795   22.2090 C   0  0  0  0  0  0  0  0  0  0  0  0
   41.8149   27.1887   23.3051 C   0  0  0  0  0  0  0  0  0  0  0  0
   35.1172   26.5352   25.5119 O   0  0  0  0  0  0  0  0  0  0  0  0
   34.6838   25.1739   25.5016 C   0  0  0  0  0  0  0  0  0  0  0  0
   38.6477   23.9489   28.1661 C   0  0  0  0  0  0  0  0  0  0  0  0
   38.5287   25.1062   28.9250 C   0  0  0  0  0  0  0  0  0  0  0  0
   37.5066   26.0155   28.6409 C   0  0  0  0  0  0  0  0  0  0  0  0
   36.6045   25.7693   27.6052 C   0  0  0  0  0  0  0  0  0  0  0  0
   35.8643   24.2211   25.7303 C   0  0  1  0  0  0  0  0  0  0  0  0
   36.7263   24.6032   26.8863 C   0  0  0  0  0  0  0  0  0  0  0  0
   37.7333   23.7145   27.1666 C   0  0  0  0  0  0  0  0  0  0  0  0
   37.7982   22.5613   26.2893 C   0  0  1  0  0  0  0  0  0  0  0  0
   36.2765   20.6028   26.4897 C   0  0  0  0  0  0  0  0  0  0  0  0
   36.4833   21.9445   26.2761 C   0  0  0  0  0  0  0  0  0  0  0  0
   35.4494   22.7949   25.9894 C   0  0  0  0  0  0  0  0  0  0  0  0
   34.1541   22.3056   25.9069 C   0  0  0  0  0  0  0  0  0  0  0  0
   33.9254   20.9481   26.1419 C   0  0  0  0  0  0  0  0  0  0  0  0
   34.9864   20.1015   26.4352 C   0  0  0  0  0  0  0  0  0  0  0  0
   40.7279   26.1226   23.3500 C   0  0  0  0  0  0  0  0  0  0  0  0
   39.7988   26.3583   24.5349 C   0  0  0  0  0  0  0  0  0  0  0  0
   37.1056   26.4335   24.0676 O   0  0  0  0  0  0  0  0  0  0  0  0
   40.2937   23.6369   25.1161 O   0  0  0  0  0  0  0  0  0  0  0  0
   39.1750   24.0433   24.8489 C   0  0  0  0  0  0  0  0  0  0  0  0
   38.8614   25.2468   24.5632 N   0  0  0  0  0  0  0  0  0  0  0  0
   37.6261   25.3874   24.3573 C   0  0  0  0  0  0  0  0  0  0  0  0
   36.8530   24.1303   24.5572 C   0  0  1  0  0  0  0  0  0  0  0  0
   37.9827   23.1556   24.8998 C   0  0  2  0  0  0  0  0  0  0  0  0
  1  2  1  0  0  0  0
  2  3  1  0  0  0  0
  3 20  1  0  0  0  0
  4  5  1  0  0  0  0
  6  7  2  0  0  0  0
  6 12  1  0  0  0  0
  7  8  1  0  0  0  0
  8  9  2  0  0  0  0
  9 11  1  0  0  0  0
 10  5  1  6  0  0  0
 10 11  1  0  0  0  0
 10 16  1  0  0  0  0
 10 27  1  0  0  0  0
 11 12  2  0  0  0  0
 13 12  1  1  0  0  0
 13 15  1  0  0  0  0
 13 28  1  0  0  0  0
 14 15  2  0  0  0  0
 14 19  1  0  0  0  0
 15 16  1  0  0  0  0
 16 17  2  0  0  0  0
 17 18  1  0  0  0  0
 18 19  2  0  0  0  0
 20 21  1  0  0  0  0
 21 25  1  0  0  0  0
 22 26  2  0  0  0  0
 23 24  2  0  0  0  0
 24 25  1  0  0  0  0
 25 26  1  0  0  0  0
 27 26  1  1  0  0  0
 27 28  1  0  0  0  0
 28 24  1  1  0  0  0
M  END
>  <CHROM.1>
-177.22489221,48.37883055,174.36640959,-175.70824836,68.73761115,37.87510495
24.50228373,25.45290598,-0.54649132,-0.46488772,3.12531052

>  <Name>
ligand

>  <RI>
0

>  <Rbt.Current_Directory>
/home/itssahil/PROJECTS/Mol_Feturizer/New_Systems/rnas/1YLS

>  <Rbt.Executable>
rbdock ($Id: //depot/dev/client3/rdock/2013.1/src/exe/rbdock.cxx#4 $)

>  <Rbt.Library>
libRbt.so (2013.1, Build901 2013/11/27)

>  <Rbt.Parameter_File>
/export/apps/rDock/src/rDock_2013.1_src/data/scripts/dock_solv.prm

>  <Rbt.Receptor>
prm/pocket_docking_2.prm

>  <SCORE>
-37.5441

>  <SCORE.INTER>
-34.6089

>  <SCORE.INTER.CONST>
1

>  <SCORE.INTER.POLAR>
0

>  <SCORE.INTER.ROT>
5

>  <SCORE.INTER.SOLV>
7.74063

>  <SCORE.INTER.VDW>
-32.5861

>  <SCORE.INTER.norm>
-1.23603

>  <SCORE.INTRA>
-2.9352

>  <SCORE.INTRA.DIHEDRAL>
-9.04307

>  <SCORE.INTRA.DIHEDRAL.0>
12.0148

>  <SCORE.INTRA.POLAR>
0

>  <SCORE.INTRA.POLAR.0>
0

>  <SCORE.INTRA.REPUL>
0

>  <SCORE.INTRA.REPUL.0>
0

>  <SCORE.INTRA.SOLV>
0.604594

>  <SCORE.INTRA.SOLV.lig_0>
-10.5235

>  <SCORE.INTRA.VDW>
1.28404

>  <SCORE.INTRA.VDW.0>
-1.38455

>  <SCORE.INTRA.norm>
-0.104829

>  <SCORE.RESTR>
0

>  <SCORE.RESTR.CAVITY>
0

>  <SCORE.RESTR.norm>
0

>  <SCORE.SYSTEM>
0

>  <SCORE.SYSTEM.CONST>
0

>  <SCORE.SYSTEM.DIHEDRAL>
0

>  <SCORE.SYSTEM.SOLV>
0

>  <SCORE.SYSTEM.norm>
0

>  <SCORE.heavy>
28

>  <SCORE.norm>
-1.34086

>  <RMSD>
1.021

$$$$
ligand
 OpenBabel11021811413D
libRbt.so/2013.1/901 2013/11/27
 28 32  0  0  0  0  0  0  0  0999 V2000
   43.5987   26.3483   22.0400 C   0  0  0  0  0  0  0  0  0  0  0  0
   42.6090   26.9365   23.0261 C   0  0  0  0  0  0  0  0  0  0  0  0
   41.1724   26.6266   22.6323 C   0  0  0  0  0  0  0  0  0  0  0  0
   34.2559   25.2833   24.7224 O   0  0  0  0  0  0  0  0  0  0  0  0
   35.0583   25.5328   25.8779 C   0  0  0  0  0  0  0  0  0  0  0  0
   39.0110   23.8779   28.3172 C   0  0  0  0  0  0  0  0  0  0  0  0
   38.9511   24.9513   29.1968 C   0  0  0  0  0  0  0  0  0  0  0  0
   37.9624   25.9245   29.0313 C   0  0  0  0  0  0  0  0  0  0  0  0
   37.0347   25.8254   27.9937 C   0  0  0  0  0  0  0  0  0  0  0  0
   36.2026   24.5160   25.9805 C   0  0  1  0  0  0  0  0  0  0  0  0
   37.0976   24.7389   27.1529 C   0  0  0  0  0  0  0  0  0  0  0  0
   38.0720   23.7871   27.3171 C   0  0  0  0  0  0  0  0  0  0  0  0
   38.0761   22.7324   26.3213 C   0  0  1  0  0  0  0  0  0  0  0  0
   36.4795   20.8241   26.3435 C   0  0  0  0  0  0  0  0  0  0  0  0
   36.7372   22.1719   26.2693 C   0  0  0  0  0  0  0  0  0  0  0  0
   35.7343   23.0874   26.0952 C   0  0  0  0  0  0  0  0  0  0  0  0
   34.4190   22.6602   25.9874 C   0  0  0  0  0  0  0  0  0  0  0  0
   34.1391   21.2953   26.0817 C   0  0  0  0  0  0  0  0  0  0  0  0
   35.1694   20.3818   26.2621 C   0  0  0  0  0  0  0  0  0  0  0  0
   40.1966   27.3086   23.5825 C   0  0  0  0  0  0  0  0  0  0  0  0
   40.2011   26.6148   24.9395 C   0  0  0  0  0  0  0  0  0  0  0  0
   37.5061   26.8435   24.5370 O   0  0  0  0  0  0  0  0  0  0  0  0
   40.5943   23.8298   25.2188 O   0  0  0  0  0  0  0  0  0  0  0  0
   39.4889   24.3054   25.0187 C   0  0  0  0  0  0  0  0  0  0  0  0
   39.2199   25.5437   24.8687 N   0  0  0  0  0  0  0  0  0  0  0  0
   37.9883   25.7532   24.7037 C   0  0  0  0  0  0  0  0  0  0  0  0
   37.1680   24.5127   24.7847 C   0  0  1  0  0  0  0  0  0  0  0  0
   38.2625   23.4641   24.9992 C   0  0  2  0  0  0  0  0  0  0  0  0
  1  2  1  0  0  0  0
  2  3  1  0  0  0  0
  3 20  1  0  0  0  0
  4  5  1  0  0  0  0
  6  7  2  0  0  0  0
  6 12  1  0  0  0  0
  7  8  1  0  0  0  0
  8  9  2  0  0  0  0
  9 11  1  0  0  0  0
 10  5  1  6  0  0  0
 10 11  1  0  0  0  0
 10 16  1  0  0  0  0
 10 27  1  0  0  0  0
 11 12  2  0  0  0  0
 13 12  1  1  0  0  0
 13 15  1  0  0  0  0
 13 28  1  0  0  0  0
 14 15  2  0  0  0  0
 14 19  1  0  0  0  0
 15 16  1  0  0  0  0
 16 17  2  0  0  0  0
 17 18  1  0  0  0  0
 18 19  2  0  0  0  0
 20 21  1  0  0  0  0
 21 25  1  0  0  0  0
 22 26  2  0  0  0  0
 23 24  2  0  0  0  0
 24 25  1  0  0  0  0
 25 26  1  0  0  0  0
 27 26  1  1  0  0  0
 27 28  1  0  0  0  0
 28 24  1  1  0  0  0
M  END
>  <CHROM.1>
-176.06363196,178.77621697,-72.49620563,-88.12835950,119.04177786,38.03217180
24.58731968,25.57774848,0.63359239,-0.25701010,-1.02006732

>  <Name>
ligand

>  <RI>
0

>  <Rbt.Current_Directory>
/home/itssahil/PROJECTS/Mol_Feturizer/New_Systems/rnas/1YLS

>  <Rbt.Executable>
rbdock ($Id: //depot/dev/client3/rdock/2013.1/src/exe/rbdock.cxx#4 $)

>  <Rbt.Library>
libRbt.so (2013.1, Build901 2013/11/27)

>  <Rbt.Parameter_File>
/export/apps/rDock/src/rDock_2013.1_src/data/scripts/dock_solv.prm

>  <Rbt.Receptor>
prm/pocket_docking_2.prm

>  <SCORE>
-33.4748

>  <SCORE.INTER>
-31.4333

>  <SCORE.INTER.CONST>
1

>  <SCORE.INTER.POLAR>
0

>  <SCORE.INTER.ROT>
5

>  <SCORE.INTER.SOLV>
6.7207

>  <SCORE.INTER.VDW>
-30.1291

>  <SCORE.INTER.norm>
-1.12262

>  <SCORE.INTRA>
-2.04149

>  <SCORE.INTRA.DIHEDRAL>
-6.45042

>  <SCORE.INTRA.DIHEDRAL.0>
12.0148

>  <SCORE.INTRA.POLAR>
0

>  <SCORE.INTRA.POLAR.0>
0

>  <SCORE.INTRA.REPUL>
0

>  <SCORE.INTRA.REPUL.0>
0

>  <SCORE.INTRA.SOLV>
0.432208

>  <SCORE.INTRA.SOLV.lig_0>
-10.5235

>  <SCORE.INTRA.VDW>
0.967613

>  <SCORE.INTRA.VDW.0>
-1.38455

>  <SCORE.INTRA.norm>
-0.0729105

>  <SCORE.RESTR>
0

>  <SCORE.RESTR.CAVITY>
0

>  <SCORE.RESTR.norm>
0

>  <SCORE.SYSTEM>
0

>  <SCORE.SYSTEM.CONST>
0

>  <SCORE.SYSTEM.DIHEDRAL>
0

>  <SCORE.SYSTEM.SOLV>
0

>  <SCORE.SYSTEM.norm>
0

>  <SCORE.heavy>
28

>  <SCORE.norm>
-1.19553

>  <RMSD>
1.022

$$$$
ligand
 OpenBabel11021811413D
libRbt.so/2013.1/901 2013/11/27
 28 32  0  0  0  0  0  0  0  0999 V2000
   43.9587   27.8755   22.1870 C   0  0  0  0  0  0  0  0  0  0  0  0
   42.7463   26.9664   22.1456 C   0  0  0  0  0  0  0  0  0  0  0  0
   41.8270   27.2020   23.3348 C   0  0  0  0  0  0  0  0  0  0  0  0
   35.1216   26.5524   25.5519 O   0  0  0  0  0  0  0  0  0  0  0  0
   34.6913   25.1905   25.5175 C   0  0  0  0  0  0  0  0  0  0  0  0
   38.6516   23.9500   28.1802 C   0  0  0  0  0  0  0  0  0  0  0  0
   38.5308   25.1021   28.9465 C   0  0  0  0  0  0  0  0  0  0  0  0
   37.5087   26.0128   28.6668 C   0  0  0  0  0  0  0  0  0  0  0  0
   36.6083   25.7730   27.6281 C   0  0  0  0  0  0  0  0  0  0  0  0
   35.8719   24.2368   25.7419 C   0  0  1  0  0  0  0  0  0  0  0  0
   36.7319   24.6117   26.9017 C   0  0  0  0  0  0  0  0  0  0  0  0
   37.7389   23.7217   27.1778 C   0  0  0  0  0  0  0  0  0  0  0  0
   37.8058   22.5743   26.2929 C   0  0  1  0  0  0  0  0  0  0  0  0
   36.2848   20.6138   26.4781 C   0  0  0  0  0  0  0  0  0  0  0  0
   36.4913   21.9570   26.2736 C   0  0  0  0  0  0  0  0  0  0  0  0
   35.4574   22.8087   25.9909 C   0  0  0  0  0  0  0  0  0  0  0  0
   34.1625   22.3193   25.9031 C   0  0  0  0  0  0  0  0  0  0  0  0
   33.9341   20.9601   26.1288 C   0  0  0  0  0  0  0  0  0  0  0  0
   34.9951   20.1122   26.4182 C   0  0  0  0  0  0  0  0  0  0  0  0
   40.6657   26.2164   23.3187 C   0  0  0  0  0  0  0  0  0  0  0  0
   39.8072   26.3838   24.5668 C   0  0  0  0  0  0  0  0  0  0  0  0
   37.1147   26.4606   24.0957 O   0  0  0  0  0  0  0  0  0  0  0  0
   40.3026   23.6589   25.1308 O   0  0  0  0  0  0  0  0  0  0  0  0
   39.1841   24.0665   24.8645 C   0  0  0  0  0  0  0  0  0  0  0  0
   38.8703   25.2717   24.5863 N   0  0  0  0  0  0  0  0  0  0  0  0
   37.6353   25.4130   24.3793 C   0  0  0  0  0  0  0  0  0  0  0  0
   36.8625   24.1541   24.5697 C   0  0  1  0  0  0  0  0  0  0  0  0
   37.9922   23.1779   24.9077 C   0  0  2  0  0  0  0  0  0  0  0  0
  1  2  1  0  0  0  0
  2  3  1  0  0  0  0
  3 20  1  0  0  0  0
  4  5  1  0  0  0  0
  6  7  2  0  0  0  0
  6 12  1  0  0  0  0
  7  8  1  0  0  0  0
  8  9  2  0  0  0  0
  9 11  1  0  0  0  0
 10  5  1  6  0  0  0
 10 11  1  0  0  0  0
 10 16  1  0  0  0  0
 10 27  1  0  0  0  0
 11 12  2  0  0  0  0
 13 12  1  1  0  0  0
 13 15  1  0  0  0  0
 13 28  1  0  0  0  0
 14 15  2  0  0  0  0
 14 19  1  0  0  0  0
 15 16  1  0  0  0  0
 16 17  2  0  0  0  0
 17 18  1  0  0  0  0
 18 19  2  0  0  0  0
 20 21  1  0  0  0  0
 21 25  1  0  0  0  0
 22 26  2  0  0  0  0
 23 24  2  0  0  0  0
 24 25  1  0  0  0  0
 25 26  1  0  0  0  0
 27 26  1  1  0  0  0
 27 28  1  0  0  0  0
 28 24  1  1  0  0  0
M  END
>  <CHROM.1>
-176.31672547,47.75171273,175.63712940,-170.53532900,73.19122957,37.87654940
24.52165117,25.46130792,-0.54207710,-0.47798958,-3.14039630

>  <Name>
ligand

>  <RI>
0

>  <Rbt.Current_Directory>
/home/itssahil/PROJECTS/Mol_Feturizer/New_Systems/rnas/1YLS

>  <Rbt.Executable>
rbdock ($Id: //depot/dev/client3/rdock/2013.1/src/exe/rbdock.cxx#4 $)

>  <Rbt.Library>
libRbt.so (2013.1, Build901 2013/11/27)

>  <Rbt.Parameter_File>
/export/apps/rDock/src/rDock_2013.1_src/data/scripts/dock_solv.prm

>  <Rbt.Receptor>
prm/pocket_docking_5.prm

>  <SCORE>
-37.5749

>  <SCORE.INTER>
-34.6148

>  <SCORE.INTER.CONST>
1

>  <SCORE.INTER.POLAR>
0

>  <SCORE.INTER.ROT>
5

>  <SCORE.INTER.SOLV>
7.72991

>  <SCORE.INTER.VDW>
-32.5865

>  <SCORE.INTER.norm>
-1.23624

>  <SCORE.INTRA>
-2.96014

>  <SCORE.INTRA.DIHEDRAL>
-8.80108

>  <SCORE.INTRA.DIHEDRAL.0>
12.0148

>  <SCORE.INTRA.POLAR>
0

>  <SCORE.INTRA.POLAR.0>
0

>  <SCORE.INTRA.REPUL>
0

>  <SCORE.INTRA.REPUL.0>
0

>  <SCORE.INTRA.SOLV>
0.599774

>  <SCORE.INTRA.SOLV.lig_0>
-10.5235

>  <SCORE.INTRA.VDW>
1.14052

>  <SCORE.INTRA.VDW.0>
-1.38455

>  <SCORE.INTRA.norm>
-0.105719

>  <SCORE.RESTR>
0

>  <SCORE.RESTR.CAVITY>
0

>  <SCORE.RESTR.norm>
0

>  <SCORE.SYSTEM>
0

>  <SCORE.SYSTEM.CONST>
0

>  <SCORE.SYSTEM.DIHEDRAL>
0

>  <SCORE.SYSTEM.SOLV>
0

>  <SCORE.SYSTEM.norm>
0

>  <SCORE.heavy>
28

>  <SCORE.norm>
-1.34196

>  <RMSD>
1.023

$$$$
ligand
 OpenBabel11021811413D
libRbt.so/2013.1/901 2013/11/27
 28 32  0  0  0  0  0  0  0  0999 V2000
   43.4739   26.3283   22.0279 C   0  0  0  0  0  0  0  0  0  0  0  0
   42.5064   27.4951   22.0073 C   0  0  0  0  0  0  0  0  0  0  0  0
   41.7002   27.5790   23.2949 C   0  0  0  0  0  0  0  0  0  0  0  0
   34.1358   24.8588   24.3328 O   0  0  0  0  0  0  0  0  0  0  0  0
   34.8147   25.1978   25.5433 C   0  0  0  0  0  0  0  0  0  0  0  0
   38.7546   24.0169   28.2627 C   0  0  0  0  0  0  0  0  0  0  0  0
   38.5993   25.1617   29.0337 C   0  0  0  0  0  0  0  0  0  0  0  0
   37.5645   26.0544   28.7427 C   0  0  0  0  0  0  0  0  0  0  0  0
   36.6858   25.8038   27.6881 C   0  0  0  0  0  0  0  0  0  0  0  0
   36.0096   24.2655   25.7812 C   0  0  1  0  0  0  0  0  0  0  0  0
   36.8434   24.6497   26.9571 C   0  0  0  0  0  0  0  0  0  0  0  0
   37.8627   23.7774   27.2442 C   0  0  0  0  0  0  0  0  0  0  0  0
   37.9660   22.6369   26.3539 C   0  0  1  0  0  0  0  0  0  0  0  0
   36.4802   20.6466   26.5027 C   0  0  0  0  0  0  0  0  0  0  0  0
   36.6641   21.9947   26.3095 C   0  0  0  0  0  0  0  0  0  0  0  0
   35.6187   22.8282   26.0150 C   0  0  0  0  0  0  0  0  0  0  0  0
   34.3350   22.3147   25.9033 C   0  0  0  0  0  0  0  0  0  0  0  0
   34.1292   20.9501   26.1173 C   0  0  0  0  0  0  0  0  0  0  0  0
   35.2015   20.1208   26.4189 C   0  0  0  0  0  0  0  0  0  0  0  0
   40.6610   26.4667   23.3507 C   0  0  0  0  0  0  0  0  0  0  0  0
   39.9213   26.4947   24.6829 C   0  0  0  0  0  0  0  0  0  0  0  0
   37.2358   26.5229   24.1686 O   0  0  0  0  0  0  0  0  0  0  0  0
   40.4599   23.7763   25.2389 O   0  0  0  0  0  0  0  0  0  0  0  0
   39.3382   24.1641   24.9569 C   0  0  0  0  0  0  0  0  0  0  0  0
   39.0059   25.3648   24.6807 N   0  0  0  0  0  0  0  0  0  0  0  0
   37.7719   25.4837   24.4545 C   0  0  0  0  0  0  0  0  0  0  0  0
   37.0205   24.2091   24.6249 C   0  0  1  0  0  0  0  0  0  0  0  0
   38.1631   23.2526   24.9754 C   0  0  2  0  0  0  0  0  0  0  0  0
  1  2  1  0  0  0  0
  2  3  1  0  0  0  0
  3 20  1  0  0  0  0
  4  5  1  0  0  0  0
  6  7  2  0  0  0  0
  6 12  1  0  0  0  0
  7  8  1  0  0  0  0
  8  9  2  0  0  0  0
  9 11  1  0  0  0  0
 10  5  1  6  0  0  0
 10 11  1  0  0  0  0
 10 16  1  0  0  0  0
 10 27  1  0  0  0  0
 11 12  2  0  0  0  0
 13 12  1  1  0  0  0
 13 15  1  0  0  0  0
 13 28  1  0  0  0  0
 14 15  2  0  0  0  0
 14 19  1  0  0  0  0
 15 16  1  0  0  0  0
 16 17  2  0  0  0  0
 17 18  1  0  0  0  0
 18 19  2  0  0  0  0
 20 21  1  0  0  0  0
 21 25  1  0  0  0  0
 22 26  2  0  0  0  0
 23 24  2  0  0  0  0
 24 25  1  0  0  0  0
 25 26  1  0  0  0  0
 27 26  1  1  0  0  0
 27 28  1  0  0  0  0
 28 24  1  1  0  0  0
M  END
>  <CHROM.1>
-72.80336515,174.23254092,176.07959709,-177.01277589,81.33426837,37.91112248
24.47004903,25.44264069,0.62954892,-0.34474081,-1.09363221

>  <Name>
ligand

>  <RI>
0

>  <Rbt.Current_Directory>
/home/itssahil/PROJECTS/Mol_Feturizer/New_Systems/rnas/1YLS

>  <Rbt.Executable>
rbdock ($Id: //depot/dev/client3/rdock/2013.1/src/exe/rbdock.cxx#4 $)

>  <Rbt.Library>
libRbt.so (2013.1, Build901 2013/11/27)

>  <Rbt.Parameter_File>
/export/apps/rDock/src/rDock_2013.1_src/data/scripts/dock_solv.prm

>  <Rbt.Receptor>
prm/pocket_docking_5.prm

>  <SCORE>
-37.9636

>  <SCORE.INTER>
-34.4177

>  <SCORE.INTER.CONST>
1

>  <SCORE.INTER.POLAR>
0

>  <SCORE.INTER.ROT>
5

>  <SCORE.INTER.SOLV>
7.62938

>  <SCORE.INTER.VDW>
-32.4216

>  <SCORE.INTER.norm>
-1.2292

>  <SCORE.INTRA>
-3.54593

>  <SCORE.INTRA.DIHEDRAL>
-8.9255

>  <SCORE.INTRA.DIHEDRAL.0>
12.0148

>  <SCORE.INTRA.POLAR>
0

>  <SCORE.INTRA.POLAR.0>
0

>  <SCORE.INTRA.REPUL>
0

>  <SCORE.INTRA.REPUL.0>
0

>  <SCORE.INTRA.SOLV>
0.167805

>  <SCORE.INTRA.SOLV.lig_0>
-10.5235

>  <SCORE.INTRA.VDW>
0.832916

>  <SCORE.INTRA.VDW.0>
-1.38455

>  <SCORE.INTRA.norm>
-0.12664

>  <SCORE.RESTR>
0

>  <SCORE.RESTR.CAVITY>
0

>  <SCORE.RESTR.norm>
0

>  <SCORE.SYSTEM>
0

>  <SCORE.SYSTEM.CONST>
0

>  <SCORE.SYSTEM.DIHEDRAL>
0

>  <SCORE.SYSTEM.SOLV>
0

>  <SCORE.SYSTEM.norm>
0

>  <SCORE.heavy>
28

>  <SCORE.norm>
-1.35584

>  <RMSD>
1.024

$$$$
ligand
 OpenBabel11021811413D
libRbt.so/2013.1/901 2013/11/27
 28 32  0  0  0  0  0  0  0  0999 V2000
   43.2885   26.4695   22.0311 C   0  0  0  0  0  0  0  0  0  0  0  0
   42.7750   27.2003   23.2559 C   0  0  0  0  0  0  0  0  0  0  0  0
   41.3594   27.7179   23.0485 C   0  0  0  0  0  0  0  0  0  0  0  0
   34.3013   24.7573   24.0757 O   0  0  0  0  0  0  0  0  0  0  0  0
   34.9496   25.1603   25.2834 C   0  0  0  0  0  0  0  0  0  0  0  0
   38.6905   23.9956   28.2771 C   0  0  0  0  0  0  0  0  0  0  0  0
   38.5451   25.1916   28.9683 C   0  0  0  0  0  0  0  0  0  0  0  0
   37.5660   26.1047   28.5688 C   0  0  0  0  0  0  0  0  0  0  0  0
   36.7326   25.8240   27.4854 C   0  0  0  0  0  0  0  0  0  0  0  0
   36.0896   24.1978   25.6409 C   0  0  1  0  0  0  0  0  0  0  0  0
   36.8777   24.6211   26.8347 C   0  0  0  0  0  0  0  0  0  0  0  0
   37.8425   23.7286   27.2283 C   0  0  0  0  0  0  0  0  0  0  0  0
   37.9422   22.5317   26.4151 C   0  0  1  0  0  0  0  0  0  0  0  0
   36.3666   20.6152   26.6033 C   0  0  0  0  0  0  0  0  0  0  0  0
   36.6179   21.9402   26.3395 C   0  0  0  0  0  0  0  0  0  0  0  0
   35.6258   22.7946   25.9395 C   0  0  0  0  0  0  0  0  0  0  0  0
   34.3286   22.3265   25.7900 C   0  0  0  0  0  0  0  0  0  0  0  0
   34.0536   20.9872   26.0743 C   0  0  0  0  0  0  0  0  0  0  0  0
   35.0724   20.1364   26.4826 C   0  0  0  0  0  0  0  0  0  0  0  0
   40.3508   26.5822   23.1625 C   0  0  0  0  0  0  0  0  0  0  0  0
   40.1447   26.1969   24.6226 C   0  0  0  0  0  0  0  0  0  0  0  0
   37.4928   26.2997   23.9637 O   0  0  0  0  0  0  0  0  0  0  0  0
   40.5367   23.4992   25.3694 O   0  0  0  0  0  0  0  0  0  0  0  0
   39.4487   23.9129   25.0046 C   0  0  0  0  0  0  0  0  0  0  0  0
   39.1828   25.1063   24.6391 N   0  0  0  0  0  0  0  0  0  0  0  0
   37.9683   25.2599   24.3401 C   0  0  0  0  0  0  0  0  0  0  0  0
   37.1550   24.0293   24.5462 C   0  0  1  0  0  0  0  0  0  0  0  0
   38.2360   23.0518   25.0147 C   0  0  2  0  0  0  0  0  0  0  0  0
  1  2  1  0  0  0  0
  2  3  1  0  0  0  0
  3 20  1  0  0  0  0
  4  5  1  0  0  0  0
  6  7  2  0  0  0  0
  6 12  1  0  0  0  0
  7  8  1  0  0  0  0
  8  9  2  0  0  0  0
  9 11  1  0  0  0  0
 10  5  1  6  0  0  0
 10 11  1  0  0  0  0
 10 16  1  0  0  0  0
 10 27  1  0  0  0  0
 11 12  2  0  0  0  0
 13 12  1  1  0  0  0
 13 15  1  0  0  0  0
 13 28  1  0  0  0  0
 14 15  2  0  0  0  0
 14 19  1  0  0  0  0
 15 16  1  0  0  0  0
 16 17  2  0  0  0  0
 17 18  1  0  0  0  0
 18 19  2  0  0  0  0
 20 21  1  0  0  0  0
 21 25  1  0  0  0  0
 22 26  2  0  0  0  0
 23 24  2  0  0  0  0
 24 25  1  0  0  0  0
 25 26  1  0  0  0  0
 27 26  1  1  0  0  0
 27 28  1  0  0  0  0
 28 24  1  1  0  0  0
M  END
>  <CHROM.1>
76.39021936,175.46911881,75.87655511,-179.52268913,113.80979381,37.93661149
24.38850170,25.41982635,0.62998272,-0.33027657,-1.02631780

>  <Name>
ligand

>  <RI>
0

>  <Rbt.Current_Directory>
/home/itssahil/PROJECTS/Mol_Feturizer/New_Systems/rnas/1YLS

>  <Rbt.Executable>
rbdock ($Id: //depot/dev/client3/rdock/2013.1/src/exe/rbdock.cxx#4 $)

>  <Rbt.Library>
libRbt.so (2013.1, Build901 2013/11/27)

>  <Rbt.Parameter_File>
/export/apps/rDock/src/rDock_2013.1_src/data/scripts/dock_solv.prm

>  <Rbt.Receptor>
prm/pocket_docking_7.prm

>  <SCORE>
-37.0695

>  <SCORE.INTER>
-34.8743

>  <SCORE.INTER.CONST>
1

>  <SCORE.INTER.POLAR>
0

>  <SCORE.INTER.ROT>
5

>  <SCORE.INTER.SOLV>
7.94707

>  <SCORE.INTER.VDW>
-32.8319

>  <SCORE.INTER.norm>
-1.24551

>  <SCORE.INTRA>
-2.1953

>  <SCORE.INTRA.DIHEDRAL>
-7.57733

>  <SCORE.INTRA.DIHEDRAL.0>
12.0148

>  <SCORE.INTRA.POLAR>
0

>  <SCORE.INTRA.POLAR.0>
0

>  <SCORE.INTRA.REPUL>
0

>  <SCORE.INTRA.REPUL.0>
0

>  <SCORE.INTRA.SOLV>
0.190638

>  <SCORE.INTRA.SOLV.lig_0>
-10.5235

>  <SCORE.INTRA.VDW>
1.49805

>  <SCORE.INTRA.VDW.0>
-1.38455

>  <SCORE.INTRA.norm>
-0.0784035

>  <SCORE.RESTR>
0

>  <SCORE.RESTR.CAVITY>
0

>  <SCORE.RESTR.norm>
0

>  <SCORE.SYSTEM>
0

>  <SCORE.SYSTEM.CONST>
0

>  <SCORE.SYSTEM.DIHEDRAL>
0

>  <SCORE.SYSTEM.SOLV>
0

>  <SCORE.SYSTEM.norm>
0

>  <SCORE.heavy>
28

>  <SCORE.norm>
-1.32391

>  <RMSD>
1.024

$$$$
ligand
 OpenBabel11021811413D
libRbt.so/2013.1/901 2013/11/27
 28 32  0  0  0  0  0  0  0  0999 V2000
   43.3681   27.0307   21.8409 C   0  0  0  0  0  0  0  0  0  0  0  0
   43.1354   26.7578   23.3138 C   0  0  0  0  0  0  0  0  0  0  0  0
   42.7790   25.3003   23.5654 C   0  0  0  0  0  0  0  0  0  0  0  0
   34.7360   25.0189   25.7740 O   0  0  0  0  0  0  0  0  0  0  0  0
   35.9172   24.8139   24.9969 C   0  0  0  0  0  0  0  0  0  0  0  0
   38.8146   23.9922   28.9011 C   0  0  0  0  0  0  0  0  0  0  0  0
   38.5692   25.2704   29.3862 C   0  0  0  0  0  0  0  0  0  0  0  0
   37.7504   26.1387   28.6597 C   0  0  0  0  0  0  0  0  0  0  0  0
   37.1758   25.7318   27.4549 C   0  0  0  0  0  0  0  0  0  0  0  0
   36.8997   23.8888   25.7267 C   0  0  1  0  0  0  0  0  0  0  0  0
   37.4114   24.4521   27.0097 C   0  0  0  0  0  0  0  0  0  0  0  0
   38.2186   23.6038   27.7247 C   0  0  0  0  0  0  0  0  0  0  0  0
   38.4475   22.3094   27.1113 C   0  0  1  0  0  0  0  0  0  0  0  0
   36.7851   20.4587   27.1619 C   0  0  0  0  0  0  0  0  0  0  0  0
   37.1503   21.7339   26.8025 C   0  0  0  0  0  0  0  0  0  0  0  0
   36.3163   22.5440   26.0796 C   0  0  0  0  0  0  0  0  0  0  0  0
   35.0681   22.0807   25.6906 C   0  0  0  0  0  0  0  0  0  0  0  0
   34.6745   20.7945   26.0661 C   0  0  0  0  0  0  0  0  0  0  0  0
   35.5327   19.9885   26.8026 C   0  0  0  0  0  0  0  0  0  0  0  0
   42.5047   25.0626   25.0447 C   0  0  0  0  0  0  0  0  0  0  0  0
   41.1669   25.6742   25.4438 C   0  0  0  0  0  0  0  0  0  0  0  0
   38.7444   25.7313   24.1767 O   0  0  0  0  0  0  0  0  0  0  0  0
   41.2539   23.0914   26.5887 O   0  0  0  0  0  0  0  0  0  0  0  0
   40.2986   23.4708   25.9318 C   0  0  0  0  0  0  0  0  0  0  0  0
   40.1783   24.6102   25.3699 N   0  0  0  0  0  0  0  0  0  0  0  0
   39.0730   24.7423   24.7792 C   0  0  0  0  0  0  0  0  0  0  0  0
   38.1790   23.5620   24.9402 C   0  0  1  0  0  0  0  0  0  0  0  0
   39.0780   22.6374   25.7649 C   0  0  2  0  0  0  0  0  0  0  0  0
  1  2  1  0  0  0  0
  2  3  1  0  0  0  0
  3 20  1  0  0  0  0
  4  5  1  0  0  0  0
  6  7  2  0  0  0  0
  6 12  1  0  0  0  0
  7  8  1  0  0  0  0
  8  9  2  0  0  0  0
  9 11  1  0  0  0  0
 10  5  1  6  0  0  0
 10 11  1  0  0  0  0
 10 16  1  0  0  0  0
 10 27  1  0  0  0  0
 11 12  2  0  0  0  0
 13 12  1  1  0  0  0
 13 15  1  0  0  0  0
 13 28  1  0  0  0  0
 14 15  2  0  0  0  0
 14 19  1  0  0  0  0
 15 16  1  0  0  0  0
 16 17  2  0  0  0  0
 17 18  1  0  0  0  0
 18 19  2  0  0  0  0
 20 21  1  0  0  0  0
 21 25  1  0  0  0  0
 22 26  2  0  0  0  0
 23 24  2  0  0  0  0
 24 25  1  0  0  0  0
 25 26  1  0  0  0  0
 27 26  1  1  0  0  0
 27 28  1  0  0  0  0
 28 24  1  1  0  0  0
M  END
>  <CHROM.1>
-178.10273170,-63.50117611,72.84417588,95.49231258,51.57812608,38.65330549
24.03119042,25.90738143,0.59158337,-0.20075973,-0.96348000

>  <Name>
ligand

>  <RI>
0

>  <Rbt.Current_Directory>
/home/itssahil/PROJECTS/Mol_Feturizer/New_Systems/rnas/1YLS

>  <Rbt.Executable>
rbdock ($Id: //depot/dev/client3/rdock/2013.1/src/exe/rbdock.cxx#4 $)

>  <Rbt.Library>
libRbt.so (2013.1, Build901 2013/11/27)

>  <Rbt.Parameter_File>
/export/apps/rDock/src/rDock_2013.1_src/data/scripts/dock_solv.prm

>  <Rbt.Receptor>
prm/pocket_docking_2.prm

>  <SCORE>
-29.0046

>  <SCORE.INTER>
-27.9444

>  <SCORE.INTER.CONST>
1

>  <SCORE.INTER.POLAR>
0

>  <SCORE.INTER.ROT>
5

>  <SCORE.INTER.SOLV>
5.03517

>  <SCORE.INTER.VDW>
-27.2413

>  <SCORE.INTER.norm>
-0.998014

>  <SCORE.INTRA>
-1.06018

>  <SCORE.INTRA.DIHEDRAL>
-5.26726

>  <SCORE.INTRA.DIHEDRAL.0>
12.0148

>  <SCORE.INTRA.POLAR>
0

>  <SCORE.INTRA.POLAR.0>
0

>  <SCORE.INTRA.REPUL>
0

>  <SCORE.INTRA.REPUL.0>
0

>  <SCORE.INTRA.SOLV>
0.176124

>  <SCORE.INTRA.SOLV.lig_0>
-10.5235

>  <SCORE.INTRA.VDW>
1.48539

>  <SCORE.INTRA.VDW.0>
-1.38455

>  <SCORE.INTRA.norm>
-0.0378634

>  <SCORE.RESTR>
0

>  <SCORE.RESTR.CAVITY>
0

>  <SCORE.RESTR.norm>
0

>  <SCORE.SYSTEM>
0

>  <SCORE.SYSTEM.CONST>
0

>  <SCORE.SYSTEM.DIHEDRAL>
0

>  <SCORE.SYSTEM.SOLV>
0

>  <SCORE.SYSTEM.norm>
0

>  <SCORE.heavy>
28

>  <SCORE.norm>
-1.03588

>  <RMSD>
1.028

$$$$
ligand
 OpenBabel11021811413D
libRbt.so/2013.1/901 2013/11/27
 28 32  0  0  0  0  0  0  0  0999 V2000
   42.6288   28.6037   22.3531 C   0  0  0  0  0  0  0  0  0  0  0  0
   42.8832   27.1150   22.2223 C   0  0  0  0  0  0  0  0  0  0  0  0
   42.4864   26.3644   23.4848 C   0  0  0  0  0  0  0  0  0  0  0  0
   34.5768   24.8026   24.2043 O   0  0  0  0  0  0  0  0  0  0  0  0
   35.2290   25.1449   25.4285 C   0  0  0  0  0  0  0  0  0  0  0  0
   38.8216   23.6875   28.4751 C   0  0  0  0  0  0  0  0  0  0  0  0
   38.7260   24.8703   29.1971 C   0  0  0  0  0  0  0  0  0  0  0  0
   37.8100   25.8482   28.8012 C   0  0  0  0  0  0  0  0  0  0  0  0
   36.9899   25.6453   27.6906 C   0  0  0  0  0  0  0  0  0  0  0  0
   36.3038   24.1098   25.7849 C   0  0  1  0  0  0  0  0  0  0  0  0
   37.0839   24.4545   27.0089 C   0  0  0  0  0  0  0  0  0  0  0  0
   37.9869   23.4982   27.3992 C   0  0  0  0  0  0  0  0  0  0  0  0
   38.0400   22.3205   26.5541 C   0  0  1  0  0  0  0  0  0  0  0  0
   36.3551   20.4919   26.6491 C   0  0  0  0  0  0  0  0  0  0  0  0
   36.6869   21.8074   26.4299 C   0  0  0  0  0  0  0  0  0  0  0  0
   35.7547   22.7275   26.0315 C   0  0  0  0  0  0  0  0  0  0  0  0
   34.4375   22.3380   25.8377 C   0  0  0  0  0  0  0  0  0  0  0  0
   34.0808   21.0091   26.0764 C   0  0  0  0  0  0  0  0  0  0  0  0
   35.0397   20.0909   26.4839 C   0  0  0  0  0  0  0  0  0  0  0  0
   40.9895   26.0825   23.4933 C   0  0  0  0  0  0  0  0  0  0  0  0
   40.4890   25.9031   24.9217 C   0  0  0  0  0  0  0  0  0  0  0  0
   37.8646   26.1743   24.2032 O   0  0  0  0  0  0  0  0  0  0  0  0
   40.7102   23.1679   25.5989 O   0  0  0  0  0  0  0  0  0  0  0  0
   39.6567   23.6525   25.2205 C   0  0  0  0  0  0  0  0  0  0  0  0
   39.4675   24.8687   24.8836 N   0  0  0  0  0  0  0  0  0  0  0  0
   38.2714   25.0991   24.5604 C   0  0  0  0  0  0  0  0  0  0  0  0
   37.3855   23.9114   24.7114 C   0  0  1  0  0  0  0  0  0  0  0  0
   38.3978   22.8616   25.1768 C   0  0  2  0  0  0  0  0  0  0  0  0
  1  2  1  0  0  0  0
  2  3  1  0  0  0  0
  3 20  1  0  0  0  0
  4  5  1  0  0  0  0
  6  7  2  0  0  0  0
  6 12  1  0  0  0  0
  7  8  1  0  0  0  0
  8  9  2  0  0  0  0
  9 11  1  0  0  0  0
 10  5  1  6  0  0  0
 10 11  1  0  0  0  0
 10 16  1  0  0  0  0
 10 27  1  0  0  0  0
 11 12  2  0  0  0  0
 13 12  1  1  0  0  0
 13 15  1  0  0  0  0
 13 28  1  0  0  0  0
 14 15  2  0  0  0  0
 14 19  1  0  0  0  0
 15 16  1  0  0  0  0
 16 17  2  0  0  0  0
 17 18  1  0  0  0  0
 18 19  2  0  0  0  0
 20 21  1  0  0  0  0
 21 25  1  0  0  0  0
 22 26  2  0  0  0  0
 23 24  2  0  0  0  0
 24 25  1  0  0  0  0
 25 26  1  0  0  0  0
 27 26  1  1  0  0  0
 27 28  1  0  0  0  0
 28 24  1  1  0  0  0
M  END
>  <CHROM.1>
82.49770145,176.30123859,-155.55653341,-143.46593985,100.71421934,38.14073752
24.26891561,25.55966077,0.64422338,-0.35692582,-1.03530112

>  <Name>
ligand

>  <RI>
0

>  <Rbt.Current_Directory>
/home/itssahil/PROJECTS/Mol_Feturizer/New_Systems/rnas/1YLS

>  <Rbt.Executable>
rbdock ($Id: //depot/dev/client3/rdock/2013.1/src/exe/rbdock.cxx#4 $)

>  <Rbt.Library>
libRbt.so (2013.1, Build901 2013/11/27)

>  <Rbt.Parameter_File>
/export/apps/rDock/src/rDock_2013.1_src/data/scripts/dock_solv.prm

>  <Rbt.Receptor>
prm/pocket_docking_3.prm

>  <SCORE>
-34.0731

>  <SCORE.INTER>
-33.7026

>  <SCORE.INTER.CONST>
1

>  <SCORE.INTER.POLAR>
0

>  <SCORE.INTER.ROT>
5

>  <SCORE.INTER.SOLV>
7.13382

>  <SCORE.INTER.VDW>
-31.7797

>  <SCORE.INTER.norm>
-1.20366

>  <SCORE.INTRA>
-0.374114

>  <SCORE.INTRA.DIHEDRAL>
-1.99186

>  <SCORE.INTRA.DIHEDRAL.0>
12.0148

>  <SCORE.INTRA.POLAR>
0

>  <SCORE.INTRA.POLAR.0>
0

>  <SCORE.INTRA.REPUL>
0

>  <SCORE.INTRA.REPUL.0>
0

>  <SCORE.INTRA.SOLV>
0.194106

>  <SCORE.INTRA.SOLV.lig_0>
-10.5235

>  <SCORE.INTRA.VDW>
0.524765

>  <SCORE.INTRA.VDW.0>
-1.38455

>  <SCORE.INTRA.norm>
-0.0133612

>  <SCORE.RESTR>
0.00366108

>  <SCORE.RESTR.CAVITY>
0.00366108

>  <SCORE.RESTR.norm>
0.000130753

>  <SCORE.SYSTEM>
0

>  <SCORE.SYSTEM.CONST>
0

>  <SCORE.SYSTEM.DIHEDRAL>
0

>  <SCORE.SYSTEM.SOLV>
0

>  <SCORE.SYSTEM.norm>
0

>  <SCORE.heavy>
28

>  <SCORE.norm>
-1.2169

>  <RMSD>
1.029

$$$$
ligand
 OpenBabel11021811413D
libRbt.so/2013.1/901 2013/11/27
 28 32  0  0  0  0  0  0  0  0999 V2000
   43.8649   28.0548   22.2093 C   0  0  0  0  0  0  0  0  0  0  0  0
   42.6466   27.1560   22.1336 C   0  0  0  0  0  0  0  0  0  0  0  0
   41.7045   27.3872   23.3057 C   0  0  0  0  0  0  0  0  0  0  0  0
   35.0727   26.5098   25.5772 O   0  0  0  0  0  0  0  0  0  0  0  0
   34.6793   25.1370   25.5365 C   0  0  0  0  0  0  0  0  0  0  0  0
   38.6699   24.0002   28.2002 C   0  0  0  0  0  0  0  0  0  0  0  0
   38.5187   25.1487   28.9666 C   0  0  0  0  0  0  0  0  0  0  0  0
   37.4732   26.0323   28.6867 C   0  0  0  0  0  0  0  0  0  0  0  0
   36.5797   25.7692   27.6477 C   0  0  0  0  0  0  0  0  0  0  0  0
   35.8843   24.2145   25.7611 C   0  0  1  0  0  0  0  0  0  0  0  0
   36.7339   24.6117   26.9212 C   0  0  0  0  0  0  0  0  0  0  0  0
   37.7637   23.7483   27.1974 C   0  0  0  0  0  0  0  0  0  0  0  0
   37.8609   22.6031   26.3125 C   0  0  1  0  0  0  0  0  0  0  0  0
   36.3917   20.6035   26.4969 C   0  0  0  0  0  0  0  0  0  0  0  0
   36.5630   21.9516   26.2927 C   0  0  0  0  0  0  0  0  0  0  0  0
   35.5073   22.7760   26.0097 C   0  0  0  0  0  0  0  0  0  0  0  0
   34.2256   22.2529   25.9215 C   0  0  0  0  0  0  0  0  0  0  0  0
   34.0328   20.8882   26.1470 C   0  0  0  0  0  0  0  0  0  0  0  0
   35.1156   20.0683   26.4366 C   0  0  0  0  0  0  0  0  0  0  0  0
   40.5964   26.3421   23.3176 C   0  0  0  0  0  0  0  0  0  0  0  0
   39.7624   26.4640   24.5874 C   0  0  0  0  0  0  0  0  0  0  0  0
   37.0690   26.4704   24.1155 O   0  0  0  0  0  0  0  0  0  0  0  0
   40.3288   23.7529   25.1512 O   0  0  0  0  0  0  0  0  0  0  0  0
   39.2001   24.1311   24.8847 C   0  0  0  0  0  0  0  0  0  0  0  0
   38.8550   25.3277   24.6065 N   0  0  0  0  0  0  0  0  0  0  0  0
   37.6167   25.4367   24.3992 C   0  0  0  0  0  0  0  0  0  0  0  0
   36.8771   24.1580   24.5892 C   0  0  1  0  0  0  0  0  0  0  0  0
   38.0318   23.2116   24.9273 C   0  0  2  0  0  0  0  0  0  0  0  0
  1  2  1  0  0  0  0
  2  3  1  0  0  0  0
  3 20  1  0  0  0  0
  4  5  1  0  0  0  0
  6  7  2  0  0  0  0
  6 12  1  0  0  0  0
  7  8  1  0  0  0  0
  8  9  2  0  0  0  0
  9 11  1  0  0  0  0
 10  5  1  6  0  0  0
 10 11  1  0  0  0  0
 10 16  1  0  0  0  0
 10 27  1  0  0  0  0
 11 12  2  0  0  0  0
 13 12  1  1  0  0  0
 13 15  1  0  0  0  0
 13 28  1  0  0  0  0
 14 15  2  0  0  0  0
 14 19  1  0  0  0  0
 15 16  1  0  0  0  0
 16 17  2  0  0  0  0
 17 18  1  0  0  0  0
 18 19  2  0  0  0  0
 20 21  1  0  0  0  0
 21 25  1  0  0  0  0
 22 26  2  0  0  0  0
 23 24  2  0  0  0  0
 24 25  1  0  0  0  0
 25 26  1  0  0  0  0
 27 26  1  1  0  0  0
 27 28  1  0  0  0  0
 28 24  1  1  0  0  0
M  END
>  <CHROM.1>
-171.86677545,47.49300611,172.67755027,-172.38246322,74.87767155,37.87572407
24.55552943,25.47733658,-0.57464154,-0.48203405,3.12922867

>  <Name>
ligand

>  <RI>
0

>  <Rbt.Current_Directory>
/home/itssahil/PROJECTS/Mol_Feturizer/New_Systems/rnas/1YLS

>  <Rbt.Executable>
rbdock ($Id: //depot/dev/client3/rdock/2013.1/src/exe/rbdock.cxx#4 $)

>  <Rbt.Library>
libRbt.so (2013.1, Build901 2013/11/27)

>  <Rbt.Parameter_File>
/export/apps/rDock/src/rDock_2013.1_src/data/scripts/dock_solv.prm

>  <Rbt.Receptor>
prm/pocket_docking_3.prm

>  <SCORE>
-37.5759

>  <SCORE.INTER>
-34.6966

>  <SCORE.INTER.CONST>
1

>  <SCORE.INTER.POLAR>
0

>  <SCORE.INTER.ROT>
5

>  <SCORE.INTER.SOLV>
7.79459

>  <SCORE.INTER.VDW>
-32.6626

>  <SCORE.INTER.norm>
-1.23916

>  <SCORE.INTRA>
-2.87934

>  <SCORE.INTRA.DIHEDRAL>
-8.55074

>  <SCORE.INTRA.DIHEDRAL.0>
12.0148

>  <SCORE.INTRA.POLAR>
0

>  <SCORE.INTRA.POLAR.0>
0

>  <SCORE.INTRA.REPUL>
0

>  <SCORE.INTRA.REPUL.0>
0

>  <SCORE.INTRA.SOLV>
0.592063

>  <SCORE.INTRA.SOLV.lig_0>
-10.5235

>  <SCORE.INTRA.VDW>
1.1

>  <SCORE.INTRA.VDW.0>
-1.38455

>  <SCORE.INTRA.norm>
-0.102834

>  <SCORE.RESTR>
0

>  <SCORE.RESTR.CAVITY>
0

>  <SCORE.RESTR.norm>
0

>  <SCORE.SYSTEM>
0

>  <SCORE.SYSTEM.CONST>
0

>  <SCORE.SYSTEM.DIHEDRAL>
0

>  <SCORE.SYSTEM.SOLV>
0

>  <SCORE.SYSTEM.norm>
0

>  <SCORE.heavy>
28

>  <SCORE.norm>
-1.342

>  <RMSD>
1.030

$$$$
ligand
 OpenBabel11021811413D
libRbt.so/2013.1/901 2013/11/27
 28 32  0  0  0  0  0  0  0  0999 V2000
   42.5174   28.6045   22.5067 C   0  0  0  0  0  0  0  0  0  0  0  0
   42.7289   27.5651   23.5896 C   0  0  0  0  0  0  0  0  0  0  0  0
   42.2058   26.2001   23.1677 C   0  0  0  0  0  0  0  0  0  0  0  0
   33.9104   25.1583   26.0722 O   0  0  0  0  0  0  0  0  0  0  0  0
   34.9514   25.0873   25.0963 C   0  0  0  0  0  0  0  0  0  0  0  0
   38.5407   24.0512   28.3143 C   0  0  0  0  0  0  0  0  0  0  0  0
   38.3717   25.2799   28.9397 C   0  0  0  0  0  0  0  0  0  0  0  0
   37.4185   26.1772   28.4514 C   0  0  0  0  0  0  0  0  0  0  0  0
   36.6345   25.8484   27.3449 C   0  0  0  0  0  0  0  0  0  0  0  0
   36.0668   24.1380   25.5526 C   0  0  1  0  0  0  0  0  0  0  0  0
   36.8014   24.6148   26.7603 C   0  0  0  0  0  0  0  0  0  0  0  0
   37.7407   23.7379   27.2410 C   0  0  0  0  0  0  0  0  0  0  0  0
   37.8698   22.5026   26.4918 C   0  0  1  0  0  0  0  0  0  0  0  0
   36.2738   20.6048   26.6980 C   0  0  0  0  0  0  0  0  0  0  0  0
   36.5463   21.9143   26.3828 C   0  0  0  0  0  0  0  0  0  0  0  0
   35.5798   22.7530   25.8962 C   0  0  0  0  0  0  0  0  0  0  0  0
   34.2878   22.2843   25.7089 C   0  0  0  0  0  0  0  0  0  0  0  0
   33.9906   20.9616   26.0441 C   0  0  0  0  0  0  0  0  0  0  0  0
   34.9834   20.1268   26.5400 C   0  0  0  0  0  0  0  0  0  0  0  0
   40.6831   26.1767   23.1964 C   0  0  0  0  0  0  0  0  0  0  0  0
   40.1786   26.0666   24.6303 C   0  0  0  0  0  0  0  0  0  0  0  0
   37.5610   26.1498   23.8438 O   0  0  0  0  0  0  0  0  0  0  0  0
   40.5167   23.4063   25.5234 O   0  0  0  0  0  0  0  0  0  0  0  0
   39.4497   23.8070   25.0886 C   0  0  0  0  0  0  0  0  0  0  0  0
   39.2095   24.9825   24.6542 N   0  0  0  0  0  0  0  0  0  0  0  0
   38.0112   25.1271   24.2916 C   0  0  0  0  0  0  0  0  0  0  0  0
   37.1808   23.9118   24.5183 C   0  0  1  0  0  0  0  0  0  0  0  0
   38.2320   22.9530   25.0833 C   0  0  2  0  0  0  0  0  0  0  0  0
  1  2  1  0  0  0  0
  2  3  1  0  0  0  0
  3 20  1  0  0  0  0
  4  5  1  0  0  0  0
  6  7  2  0  0  0  0
  6 12  1  0  0  0  0
  7  8  1  0  0  0  0
  8  9  2  0  0  0  0
  9 11  1  0  0  0  0
 10  5  1  6  0  0  0
 10 11  1  0  0  0  0
 10 16  1  0  0  0  0
 10 27  1  0  0  0  0
 11 12  2  0  0  0  0
 13 12  1  1  0  0  0
 13 15  1  0  0  0  0
 13 28  1  0  0  0  0
 14 15  2  0  0  0  0
 14 19  1  0  0  0  0
 15 16  1  0  0  0  0
 16 17  2  0  0  0  0
 17 18  1  0  0  0  0
 18 19  2  0  0  0  0
 20 21  1  0  0  0  0
 21 25  1  0  0  0  0
 22 26  2  0  0  0  0
 23 24  2  0  0  0  0
 24 25  1  0  0  0  0
 25 26  1  0  0  0  0
 27 26  1  1  0  0  0
 27 28  1  0  0  0  0
 28 24  1  1  0  0  0
M  END
>  <CHROM.1>
-73.60518512,-65.60672581,-76.44835676,-130.01829393,101.72764316,37.89694169
24.39521929,25.53394031,0.63556131,0.31977604,-0.17116768

>  <Name>
ligand

>  <RI>
0

>  <Rbt.Current_Directory>
/home/itssahil/PROJECTS/Mol_Feturizer/New_Systems/rnas/1YLS

>  <Rbt.Executable>
rbdock ($Id: //depot/dev/client3/rdock/2013.1/src/exe/rbdock.cxx#4 $)

>  <Rbt.Library>
libRbt.so (2013.1, Build901 2013/11/27)

>  <Rbt.Parameter_File>
/export/apps/rDock/src/rDock_2013.1_src/data/scripts/dock_solv.prm

>  <Rbt.Receptor>
prm/pocket_docking_3.prm

>  <SCORE>
-33.3941

>  <SCORE.INTER>
-33.2369

>  <SCORE.INTER.CONST>
1

>  <SCORE.INTER.POLAR>
0

>  <SCORE.INTER.ROT>
5

>  <SCORE.INTER.SOLV>
7.96415

>  <SCORE.INTER.VDW>
-31.746

>  <SCORE.INTER.norm>
-1.18703

>  <SCORE.INTRA>
-0.161711

>  <SCORE.INTRA.DIHEDRAL>
-2.73153

>  <SCORE.INTRA.DIHEDRAL.0>
12.0148

>  <SCORE.INTRA.POLAR>
0

>  <SCORE.INTRA.POLAR.0>
0

>  <SCORE.INTRA.REPUL>
0

>  <SCORE.INTRA.REPUL.0>
0

>  <SCORE.INTRA.SOLV>
0.0239281

>  <SCORE.INTRA.SOLV.lig_0>
-10.5235

>  <SCORE.INTRA.VDW>
1.19209

>  <SCORE.INTRA.VDW.0>
-1.38455

>  <SCORE.INTRA.norm>
-0.00577538

>  <SCORE.RESTR>
0.00450354

>  <SCORE.RESTR.CAVITY>
0.00450354

>  <SCORE.RESTR.norm>
0.000160841

>  <SCORE.SYSTEM>
0

>  <SCORE.SYSTEM.CONST>
0

>  <SCORE.SYSTEM.DIHEDRAL>
0

>  <SCORE.SYSTEM.SOLV>
0

>  <SCORE.SYSTEM.norm>
0

>  <SCORE.heavy>
28

>  <SCORE.norm>
-1.19265

>  <RMSD>
1.030

$$$$
ligand
 OpenBabel11021811413D
libRbt.so/2013.1/901 2013/11/27
 28 32  0  0  0  0  0  0  0  0999 V2000
   43.9503   27.8127   22.1685 C   0  0  0  0  0  0  0  0  0  0  0  0
   42.7141   26.9374   22.1106 C   0  0  0  0  0  0  0  0  0  0  0  0
   41.7857   27.1983   23.2875 C   0  0  0  0  0  0  0  0  0  0  0  0
   35.0945   26.5037   25.5337 O   0  0  0  0  0  0  0  0  0  0  0  0
   34.6763   25.1377   25.5157 C   0  0  0  0  0  0  0  0  0  0  0  0
   38.6634   23.9461   28.1607 C   0  0  0  0  0  0  0  0  0  0  0  0
   38.5350   25.0995   28.9240 C   0  0  0  0  0  0  0  0  0  0  0  0
   37.5022   25.9988   28.6469 C   0  0  0  0  0  0  0  0  0  0  0  0
   36.5987   25.7465   27.6139 C   0  0  0  0  0  0  0  0  0  0  0  0
   35.8677   24.1968   25.7367 C   0  0  1  0  0  0  0  0  0  0  0  0
   36.7301   24.5842   26.8906 C   0  0  0  0  0  0  0  0  0  0  0  0
   37.7476   23.7053   27.1640 C   0  0  0  0  0  0  0  0  0  0  0  0
   37.8214   22.5558   26.2825 C   0  0  1  0  0  0  0  0  0  0  0  0
   36.3214   20.5806   26.4822 C   0  0  0  0  0  0  0  0  0  0  0  0
   36.5131   21.9251   26.2723 C   0  0  0  0  0  0  0  0  0  0  0  0
   35.4691   22.7654   25.9925 C   0  0  0  0  0  0  0  0  0  0  0  0
   34.1787   22.2626   25.9134 C   0  0  0  0  0  0  0  0  0  0  0  0
   33.9654   20.9019   26.1447 C   0  0  0  0  0  0  0  0  0  0  0  0
   35.0365   20.0657   26.4310 C   0  0  0  0  0  0  0  0  0  0  0  0
   40.6066   26.2343   23.2647 C   0  0  0  0  0  0  0  0  0  0  0  0
   39.7745   26.3798   24.5333 C   0  0  0  0  0  0  0  0  0  0  0  0
   37.0789   26.4278   24.0766 O   0  0  0  0  0  0  0  0  0  0  0  0
   40.3007   23.6619   25.1033 O   0  0  0  0  0  0  0  0  0  0  0  0
   39.1767   24.0572   24.8418 C   0  0  0  0  0  0  0  0  0  0  0  0
   38.8492   25.2583   24.5615 N   0  0  0  0  0  0  0  0  0  0  0  0
   37.6117   25.3864   24.3608 C   0  0  0  0  0  0  0  0  0  0  0  0
   36.8528   24.1204   24.5594 C   0  0  1  0  0  0  0  0  0  0  0  0
   37.9941   23.1567   24.8943 C   0  0  2  0  0  0  0  0  0  0  0  0
  1  2  1  0  0  0  0
  2  3  1  0  0  0  0
  3 20  1  0  0  0  0
  4  5  1  0  0  0  0
  6  7  2  0  0  0  0
  6 12  1  0  0  0  0
  7  8  1  0  0  0  0
  8  9  2  0  0  0  0
  9 11  1  0  0  0  0
 10  5  1  6  0  0  0
 10 11  1  0  0  0  0
 10 16  1  0  0  0  0
 10 27  1  0  0  0  0
 11 12  2  0  0  0  0
 13 12  1  1  0  0  0
 13 15  1  0  0  0  0
 13 28  1  0  0  0  0
 14 15  2  0  0  0  0
 14 19  1  0  0  0  0
 15 16  1  0  0  0  0
 16 17  2  0  0  0  0
 17 18  1  0  0  0  0
 18 19  2  0  0  0  0
 20 21  1  0  0  0  0
 21 25  1  0  0  0  0
 22 26  2  0  0  0  0
 23 24  2  0  0  0  0
 24 25  1  0  0  0  0
 25 26  1  0  0  0  0
 27 26  1  1  0  0  0
 27 28  1  0  0  0  0
 28 24  1  1  0  0  0
M  END
>  <CHROM.1>
-175.65288422,48.17525113,172.92118580,-168.61116296,74.44818489,37.87022941
24.49547725,25.44557861,-0.55040579,-0.47814772,3.13048008

>  <Name>
ligand

>  <RI>
0

>  <Rbt.Current_Directory>
/home/itssahil/PROJECTS/Mol_Feturizer/New_Systems/rnas/1YLS

>  <Rbt.Executable>
rbdock ($Id: //depot/dev/client3/rdock/2013.1/src/exe/rbdock.cxx#4 $)

>  <Rbt.Library>
libRbt.so (2013.1, Build901 2013/11/27)

>  <Rbt.Parameter_File>
/export/apps/rDock/src/rDock_2013.1_src/data/scripts/dock_solv.prm

>  <Rbt.Receptor>
prm/pocket_docking_5.prm

>  <SCORE>
-37.6097

>  <SCORE.INTER>
-34.7621

>  <SCORE.INTER.CONST>
1

>  <SCORE.INTER.POLAR>
0

>  <SCORE.INTER.ROT>
5

>  <SCORE.INTER.SOLV>
7.81159

>  <SCORE.INTER.VDW>
-32.7119

>  <SCORE.INTER.norm>
-1.2415

>  <SCORE.INTRA>
-2.84759

>  <SCORE.INTRA.DIHEDRAL>
-8.54767

>  <SCORE.INTRA.DIHEDRAL.0>
12.0148

>  <SCORE.INTRA.POLAR>
0

>  <SCORE.INTRA.POLAR.0>
0

>  <SCORE.INTRA.REPUL>
0

>  <SCORE.INTRA.REPUL.0>
0

>  <SCORE.INTRA.SOLV>
0.603516

>  <SCORE.INTRA.SOLV.lig_0>
-10.5235

>  <SCORE.INTRA.VDW>
1.12449

>  <SCORE.INTRA.VDW.0>
-1.38455

>  <SCORE.INTRA.norm>
-0.101699

>  <SCORE.RESTR>
0

>  <SCORE.RESTR.CAVITY>
0

>  <SCORE.RESTR.norm>
0

>  <SCORE.SYSTEM>
0

>  <SCORE.SYSTEM.CONST>
0

>  <SCORE.SYSTEM.DIHEDRAL>
0

>  <SCORE.SYSTEM.SOLV>
0

>  <SCORE.SYSTEM.norm>
0

>  <SCORE.heavy>
28

>  <SCORE.norm>
-1.3432

>  <RMSD>
1.032

$$$$
ligand
 OpenBabel11021811413D
libRbt.so/2013.1/901 2013/11/27
 28 32  0  0  0  0  0  0  0  0999 V2000
   43.9384   27.8828   22.1989 C   0  0  0  0  0  0  0  0  0  0  0  0
   42.7327   26.9652   22.1524 C   0  0  0  0  0  0  0  0  0  0  0  0
   41.7941   27.2115   23.3243 C   0  0  0  0  0  0  0  0  0  0  0  0
   35.0763   26.5207   25.5214 O   0  0  0  0  0  0  0  0  0  0  0  0
   34.6590   25.1544   25.5096 C   0  0  0  0  0  0  0  0  0  0  0  0
   38.6438   23.9698   28.1611 C   0  0  0  0  0  0  0  0  0  0  0  0
   38.5128   25.1235   28.9234 C   0  0  0  0  0  0  0  0  0  0  0  0
   37.4792   26.0213   28.6443 C   0  0  0  0  0  0  0  0  0  0  0  0
   36.5776   25.7671   27.6101 C   0  0  0  0  0  0  0  0  0  0  0  0
   35.8514   24.2151   25.7329 C   0  0  1  0  0  0  0  0  0  0  0  0
   36.7116   24.6045   26.8878 C   0  0  0  0  0  0  0  0  0  0  0  0
   37.7298   23.7271   27.1633 C   0  0  0  0  0  0  0  0  0  0  0  0
   37.8064   22.5771   26.2826 C   0  0  1  0  0  0  0  0  0  0  0  0
   36.3087   20.6001   26.4815 C   0  0  0  0  0  0  0  0  0  0  0  0
   36.4989   21.9447   26.2710 C   0  0  0  0  0  0  0  0  0  0  0  0
   35.4542   22.7834   25.9891 C   0  0  0  0  0  0  0  0  0  0  0  0
   34.1647   22.2788   25.9084 C   0  0  0  0  0  0  0  0  0  0  0  0
   33.9528   20.9181   26.1404 C   0  0  0  0  0  0  0  0  0  0  0  0
   35.0246   20.0835   26.4288 C   0  0  0  0  0  0  0  0  0  0  0  0
   40.6391   26.2186   23.3044 C   0  0  0  0  0  0  0  0  0  0  0  0
   39.7570   26.4025   24.5337 C   0  0  0  0  0  0  0  0  0  0  0  0
   37.0620   26.4466   24.0731 O   0  0  0  0  0  0  0  0  0  0  0  0
   40.2859   23.6856   25.1063 O   0  0  0  0  0  0  0  0  0  0  0  0
   39.1618   24.0793   24.8429 C   0  0  0  0  0  0  0  0  0  0  0  0
   38.8331   25.2798   24.5613 N   0  0  0  0  0  0  0  0  0  0  0  0
   37.5957   25.4061   24.3587 C   0  0  0  0  0  0  0  0  0  0  0  0
   36.8382   24.1393   24.5571 C   0  0  1  0  0  0  0  0  0  0  0  0
   37.9803   23.1773   24.8943 C   0  0  2  0  0  0  0  0  0  0  0  0
  1  2  1  0  0  0  0
  2  3  1  0  0  0  0
  3 20  1  0  0  0  0
  4  5  1  0  0  0  0
  6  7  2  0  0  0  0
  6 12  1  0  0  0  0
  7  8  1  0  0  0  0
  8  9  2  0  0  0  0
  9 11  1  0  0  0  0
 10  5  1  6  0  0  0
 10 11  1  0  0  0  0
 10 16  1  0  0  0  0
 10 27  1  0  0  0  0
 11 12  2  0  0  0  0
 13 12  1  1  0  0  0
 13 15  1  0  0  0  0
 13 28  1  0  0  0  0
 14 15  2  0  0  0  0
 14 19  1  0  0  0  0
 15 16  1  0  0  0  0
 16 17  2  0  0  0  0
 17 18  1  0  0  0  0
 18 19  2  0  0  0  0
 20 21  1  0  0  0  0
 21 25  1  0  0  0  0
 22 26  2  0  0  0  0
 23 24  2  0  0  0  0
 24 25  1  0  0  0  0
 25 26  1  0  0  0  0
 27 26  1  1  0  0  0
 27 28  1  0  0  0  0
 28 24  1  1  0  0  0
M  END
>  <CHROM.1>
-176.35064771,48.42773195,175.91134307,-170.11977589,71.60272679,37.85817105
24.51625807,25.44944788,-0.55383189,-0.46950189,3.12528212

>  <Name>
ligand

>  <RI>
0

>  <Rbt.Current_Directory>
/home/itssahil/PROJECTS/Mol_Feturizer/New_Systems/rnas/1YLS

>  <Rbt.Executable>
rbdock ($Id: //depot/dev/client3/rdock/2013.1/src/exe/rbdock.cxx#4 $)

>  <Rbt.Library>
libRbt.so (2013.1, Build901 2013/11/27)

>  <Rbt.Parameter_File>
/export/apps/rDock/src/rDock_2013.1_src/data/scripts/dock_solv.prm

>  <Rbt.Receptor>
prm/pocket_docking_5.prm

>  <SCORE>
-37.587

>  <SCORE.INTER>
-34.6814

>  <SCORE.INTER.CONST>
1

>  <SCORE.INTER.POLAR>
0

>  <SCORE.INTER.ROT>
5

>  <SCORE.INTER.SOLV>
7.80385

>  <SCORE.INTER.VDW>
-32.6556

>  <SCORE.INTER.norm>
-1.23862

>  <SCORE.INTRA>
-2.90555

>  <SCORE.INTRA.DIHEDRAL>
-8.81913

>  <SCORE.INTRA.DIHEDRAL.0>
12.0148

>  <SCORE.INTRA.POLAR>
0

>  <SCORE.INTRA.POLAR.0>
0

>  <SCORE.INTRA.REPUL>
0

>  <SCORE.INTRA.REPUL.0>
0

>  <SCORE.INTRA.SOLV>
0.607848

>  <SCORE.INTRA.SOLV.lig_0>
-10.5235

>  <SCORE.INTRA.VDW>
1.20009

>  <SCORE.INTRA.VDW.0>
-1.38455

>  <SCORE.INTRA.norm>
-0.10377

>  <SCORE.RESTR>
0

>  <SCORE.RESTR.CAVITY>
0

>  <SCORE.RESTR.norm>
0

>  <SCORE.SYSTEM>
0

>  <SCORE.SYSTEM.CONST>
0

>  <SCORE.SYSTEM.DIHEDRAL>
0

>  <SCORE.SYSTEM.SOLV>
0

>  <SCORE.SYSTEM.norm>
0

>  <SCORE.heavy>
28

>  <SCORE.norm>
-1.34239

>  <RMSD>
1.035

$$$$
ligand
 OpenBabel11021811413D
libRbt.so/2013.1/901 2013/11/27
 28 32  0  0  0  0  0  0  0  0999 V2000
   43.8612   26.4157   21.7131 C   0  0  0  0  0  0  0  0  0  0  0  0
   42.3917   26.7783   21.7964 C   0  0  0  0  0  0  0  0  0  0  0  0
   41.8451   26.5874   23.2034 C   0  0  0  0  0  0  0  0  0  0  0  0
   33.9620   24.4840   24.5041 O   0  0  0  0  0  0  0  0  0  0  0  0
   34.7591   24.9868   25.5777 C   0  0  0  0  0  0  0  0  0  0  0  0
   38.8002   23.9993   28.2248 C   0  0  0  0  0  0  0  0  0  0  0  0
   38.6056   25.1375   28.9968 C   0  0  0  0  0  0  0  0  0  0  0  0
   37.5246   25.9797   28.7238 C   0  0  0  0  0  0  0  0  0  0  0  0
   36.6392   25.6855   27.6862 C   0  0  0  0  0  0  0  0  0  0  0  0
   36.0009   24.1124   25.7947 C   0  0  1  0  0  0  0  0  0  0  0  0
   36.8374   24.5382   26.9542 C   0  0  0  0  0  0  0  0  0  0  0  0
   37.9018   23.7156   27.2236 C   0  0  0  0  0  0  0  0  0  0  0  0
   38.0421   22.5791   26.3333 C   0  0  1  0  0  0  0  0  0  0  0  0
   36.6547   20.5214   26.5131 C   0  0  0  0  0  0  0  0  0  0  0  0
   36.7713   21.8762   26.3144 C   0  0  0  0  0  0  0  0  0  0  0  0
   35.6825   22.6589   26.0381 C   0  0  0  0  0  0  0  0  0  0  0  0
   34.4225   22.0852   25.9513 C   0  0  0  0  0  0  0  0  0  0  0  0
   34.2852   20.7129   26.1713 C   0  0  0  0  0  0  0  0  0  0  0  0
   35.4008   19.9358   26.4541 C   0  0  0  0  0  0  0  0  0  0  0  0
   40.3233   26.6509   23.2011 C   0  0  0  0  0  0  0  0  0  0  0  0
   39.7821   26.5204   24.6199 C   0  0  0  0  0  0  0  0  0  0  0  0
   37.0892   26.4210   24.1558 O   0  0  0  0  0  0  0  0  0  0  0  0
   40.4584   23.8317   25.1700 O   0  0  0  0  0  0  0  0  0  0  0  0
   39.3146   24.1656   24.9084 C   0  0  0  0  0  0  0  0  0  0  0  0
   38.9210   25.3486   24.6365 N   0  0  0  0  0  0  0  0  0  0  0  0
   37.6788   25.4088   24.4333 C   0  0  0  0  0  0  0  0  0  0  0  0
   36.9915   24.1007   24.6198 C   0  0  1  0  0  0  0  0  0  0  0  0
   38.1843   23.1999   24.9504 C   0  0  2  0  0  0  0  0  0  0  0  0
  1  2  1  0  0  0  0
  2  3  1  0  0  0  0
  3 20  1  0  0  0  0
  4  5  1  0  0  0  0
  6  7  2  0  0  0  0
  6 12  1  0  0  0  0
  7  8  1  0  0  0  0
  8  9  2  0  0  0  0
  9 11  1  0  0  0  0
 10  5  1  6  0  0  0
 10 11  1  0  0  0  0
 10 16  1  0  0  0  0
 10 27  1  0  0  0  0
 11 12  2  0  0  0  0
 13 12  1  1  0  0  0
 13 15  1  0  0  0  0
 13 28  1  0  0  0  0
 14 15  2  0  0  0  0
 14 19  1  0  0  0  0
 15 16  1  0  0  0  0
 16 17  2  0  0  0  0
 17 18  1  0  0  0  0
 18 19  2  0  0  0  0
 20 21  1  0  0  0  0
 21 25  1  0  0  0  0
 22 26  2  0  0  0  0
 23 24  2  0  0  0  0
 24 25  1  0  0  0  0
 25 26  1  0  0  0  0
 27 26  1  1  0  0  0
 27 28  1  0  0  0  0
 28 24  1  1  0  0  0
M  END
>  <CHROM.1>
-167.27057142,-176.69188395,-177.52478240,-120.61680277,90.27889351,37.91459421
24.32567890,25.41176068,0.45212130,-0.55405226,-1.54157158

>  <Name>
ligand

>  <RI>
0

>  <Rbt.Current_Directory>
/home/itssahil/PROJECTS/Mol_Feturizer/New_Systems/rnas/1YLS

>  <Rbt.Executable>
rbdock ($Id: //depot/dev/client3/rdock/2013.1/src/exe/rbdock.cxx#4 $)

>  <Rbt.Library>
libRbt.so (2013.1, Build901 2013/11/27)

>  <Rbt.Parameter_File>
/export/apps/rDock/src/rDock_2013.1_src/data/scripts/dock_solv.prm

>  <Rbt.Receptor>
prm/pocket_docking_5.prm

>  <SCORE>
-36.3713

>  <SCORE.INTER>
-34.6385

>  <SCORE.INTER.CONST>
1

>  <SCORE.INTER.POLAR>
0

>  <SCORE.INTER.ROT>
5

>  <SCORE.INTER.SOLV>
7.677

>  <SCORE.INTER.VDW>
-32.5847

>  <SCORE.INTER.norm>
-1.23709

>  <SCORE.INTRA>
-1.7328

>  <SCORE.INTRA.DIHEDRAL>
-3.55067

>  <SCORE.INTRA.DIHEDRAL.0>
12.0148

>  <SCORE.INTRA.POLAR>
0

>  <SCORE.INTRA.POLAR.0>
0

>  <SCORE.INTRA.REPUL>
0

>  <SCORE.INTRA.REPUL.0>
0

>  <SCORE.INTRA.SOLV>
0.248412

>  <SCORE.INTRA.SOLV.lig_0>
-10.5235

>  <SCORE.INTRA.VDW>
-0.0816739

>  <SCORE.INTRA.VDW.0>
-1.38455

>  <SCORE.INTRA.norm>
-0.0618857

>  <SCORE.RESTR>
0

>  <SCORE.RESTR.CAVITY>
0

>  <SCORE.RESTR.norm>
0

>  <SCORE.SYSTEM>
0

>  <SCORE.SYSTEM.CONST>
0

>  <SCORE.SYSTEM.DIHEDRAL>
0

>  <SCORE.SYSTEM.SOLV>
0

>  <SCORE.SYSTEM.norm>
0

>  <SCORE.heavy>
28

>  <SCORE.norm>
-1.29898

>  <RMSD>
1.035

$$$$
ligand
 OpenBabel11021811413D
libRbt.so/2013.1/901 2013/11/27
 28 32  0  0  0  0  0  0  0  0999 V2000
   42.9895   28.6161   22.3714 C   0  0  0  0  0  0  0  0  0  0  0  0
   41.9104   27.6332   22.7802 C   0  0  0  0  0  0  0  0  0  0  0  0
   42.4613   26.5362   23.6790 C   0  0  0  0  0  0  0  0  0  0  0  0
   34.0141   25.1255   26.0312 O   0  0  0  0  0  0  0  0  0  0  0  0
   35.0092   24.9142   25.0281 C   0  0  0  0  0  0  0  0  0  0  0  0
   38.5277   24.0206   28.3649 C   0  0  0  0  0  0  0  0  0  0  0  0
   38.3350   25.2691   28.9423 C   0  0  0  0  0  0  0  0  0  0  0  0
   37.3874   26.1411   28.4002 C   0  0  0  0  0  0  0  0  0  0  0  0
   36.6325   25.7673   27.2877 C   0  0  0  0  0  0  0  0  0  0  0  0
   36.1202   23.9905   25.5440 C   0  0  1  0  0  0  0  0  0  0  0  0
   36.8222   24.5153   26.7512 C   0  0  0  0  0  0  0  0  0  0  0  0
   37.7559   23.6634   27.2847 C   0  0  0  0  0  0  0  0  0  0  0  0
   37.9118   22.4036   26.5829 C   0  0  1  0  0  0  0  0  0  0  0  0
   36.3250   20.5015   26.8180 C   0  0  0  0  0  0  0  0  0  0  0  0
   36.5956   21.8013   26.4634 C   0  0  0  0  0  0  0  0  0  0  0  0
   35.6351   22.6146   25.9247 C   0  0  0  0  0  0  0  0  0  0  0  0
   34.3513   22.1293   25.7234 C   0  0  0  0  0  0  0  0  0  0  0  0
   34.0557   20.8168   26.0980 C   0  0  0  0  0  0  0  0  0  0  0  0
   35.0422   20.0079   26.6465 C   0  0  0  0  0  0  0  0  0  0  0  0
   41.4382   25.4212   23.8535 C   0  0  0  0  0  0  0  0  0  0  0  0
   40.2390   25.9183   24.6519 C   0  0  0  0  0  0  0  0  0  0  0  0
   37.6405   25.9529   23.8011 O   0  0  0  0  0  0  0  0  0  0  0  0
   40.5747   23.2939   25.6462 O   0  0  0  0  0  0  0  0  0  0  0  0
   39.5156   23.6705   25.1723 C   0  0  0  0  0  0  0  0  0  0  0  0
   39.2774   24.8281   24.6910 N   0  0  0  0  0  0  0  0  0  0  0  0
   38.0872   24.9502   24.2953 C   0  0  0  0  0  0  0  0  0  0  0  0
   37.2603   23.7370   24.5451 C   0  0  1  0  0  0  0  0  0  0  0  0
   38.3045   22.8071   25.1683 C   0  0  2  0  0  0  0  0  0  0  0  0
  1  2  1  0  0  0  0
  2  3  1  0  0  0  0
  3 20  1  0  0  0  0
  4  5  1  0  0  0  0
  6  7  2  0  0  0  0
  6 12  1  0  0  0  0
  7  8  1  0  0  0  0
  8  9  2  0  0  0  0
  9 11  1  0  0  0  0
 10  5  1  6  0  0  0
 10 11  1  0  0  0  0
 10 16  1  0  0  0  0
 10 27  1  0  0  0  0
 11 12  2  0  0  0  0
 13 12  1  1  0  0  0
 13 15  1  0  0  0  0
 13 28  1  0  0  0  0
 14 15  2  0  0  0  0
 14 19  1  0  0  0  0
 15 16  1  0  0  0  0
 16 17  2  0  0  0  0
 17 18  1  0  0  0  0
 18 19  2  0  0  0  0
 20 21  1  0  0  0  0
 21 25  1  0  0  0  0
 22 26  2  0  0  0  0
 23 24  2  0  0  0  0
 24 25  1  0  0  0  0
 25 26  1  0  0  0  0
 27 26  1  1  0  0  0
 27 28  1  0  0  0  0
 28 24  1  1  0  0  0
M  END
>  <CHROM.1>
-168.93528709,-59.38936617,-67.62555332,176.12208472,58.71108116,37.96432791
24.28281991,25.56582140,0.66542110,0.26220835,-0.25778999

>  <Name>
ligand

>  <RI>
0

>  <Rbt.Current_Directory>
/home/itssahil/PROJECTS/Mol_Feturizer/New_Systems/rnas/1YLS

>  <Rbt.Executable>
rbdock ($Id: //depot/dev/client3/rdock/2013.1/src/exe/rbdock.cxx#4 $)

>  <Rbt.Library>
libRbt.so (2013.1, Build901 2013/11/27)

>  <Rbt.Parameter_File>
/export/apps/rDock/src/rDock_2013.1_src/data/scripts/dock_solv.prm

>  <Rbt.Receptor>
prm/pocket_docking_3.prm

>  <SCORE>
-37.2767

>  <SCORE.INTER>
-34.2612

>  <SCORE.INTER.CONST>
1

>  <SCORE.INTER.POLAR>
0

>  <SCORE.INTER.ROT>
5

>  <SCORE.INTER.SOLV>
7.77928

>  <SCORE.INTER.VDW>
-32.3673

>  <SCORE.INTER.norm>
-1.22362

>  <SCORE.INTRA>
-3.03156

>  <SCORE.INTRA.DIHEDRAL>
-8.78467

>  <SCORE.INTRA.DIHEDRAL.0>
12.0148

>  <SCORE.INTRA.POLAR>
0

>  <SCORE.INTRA.POLAR.0>
0

>  <SCORE.INTRA.REPUL>
0

>  <SCORE.INTRA.REPUL.0>
0

>  <SCORE.INTRA.SOLV>
0.00394755

>  <SCORE.INTRA.SOLV.lig_0>
-10.5235

>  <SCORE.INTRA.VDW>
1.3588

>  <SCORE.INTRA.VDW.0>
-1.38455

>  <SCORE.INTRA.norm>
-0.10827

>  <SCORE.RESTR>
0.0161419

>  <SCORE.RESTR.CAVITY>
0.0161419

>  <SCORE.RESTR.norm>
0.000576497

>  <SCORE.SYSTEM>
0

>  <SCORE.SYSTEM.CONST>
0

>  <SCORE.SYSTEM.DIHEDRAL>
0

>  <SCORE.SYSTEM.SOLV>
0

>  <SCORE.SYSTEM.norm>
0

>  <SCORE.heavy>
28

>  <SCORE.norm>
-1.33131

>  <RMSD>
1.036

$$$$
ligand
 OpenBabel11021811413D
libRbt.so/2013.1/901 2013/11/27
 28 32  0  0  0  0  0  0  0  0999 V2000
   43.5971   26.3513   22.2394 C   0  0  0  0  0  0  0  0  0  0  0  0
   42.5315   27.4014   21.9951 C   0  0  0  0  0  0  0  0  0  0  0  0
   41.6164   27.5636   23.1998 C   0  0  0  0  0  0  0  0  0  0  0  0
   34.0668   24.5818   24.2625 O   0  0  0  0  0  0  0  0  0  0  0  0
   34.7683   25.0377   25.4205 C   0  0  0  0  0  0  0  0  0  0  0  0
   38.7031   24.0749   28.2318 C   0  0  0  0  0  0  0  0  0  0  0  0
   38.4993   25.2384   28.9626 C   0  0  0  0  0  0  0  0  0  0  0  0
   37.4407   26.0867   28.6282 C   0  0  0  0  0  0  0  0  0  0  0  0
   36.5865   25.7736   27.5702 C   0  0  0  0  0  0  0  0  0  0  0  0
   35.9890   24.1532   25.7055 C   0  0  1  0  0  0  0  0  0  0  0  0
   36.7922   24.6022   26.8796 C   0  0  0  0  0  0  0  0  0  0  0  0
   37.8348   23.7735   27.2094 C   0  0  0  0  0  0  0  0  0  0  0  0
   37.9881   22.6089   26.3584 C   0  0  1  0  0  0  0  0  0  0  0  0
   36.5653   20.5769   26.5516 C   0  0  0  0  0  0  0  0  0  0  0  0
   36.7084   21.9233   26.3170 C   0  0  0  0  0  0  0  0  0  0  0  0
   35.6412   22.7122   25.9808 C   0  0  0  0  0  0  0  0  0  0  0  0
   34.3766   22.1535   25.8681 C   0  0  0  0  0  0  0  0  0  0  0  0
   34.2117   20.7905   26.1238 C   0  0  0  0  0  0  0  0  0  0  0  0
   35.3056   20.0070   26.4673 C   0  0  0  0  0  0  0  0  0  0  0  0
   40.6394   26.3987   23.2921 C   0  0  0  0  0  0  0  0  0  0  0  0
   39.8427   26.4727   24.5893 C   0  0  0  0  0  0  0  0  0  0  0  0
   37.1657   26.3963   24.0369 O   0  0  0  0  0  0  0  0  0  0  0  0
   40.4604   23.7928   25.2415 O   0  0  0  0  0  0  0  0  0  0  0  0
   39.3311   24.1343   24.9313 C   0  0  0  0  0  0  0  0  0  0  0  0
   38.9644   25.3139   24.6113 N   0  0  0  0  0  0  0  0  0  0  0  0
   37.7307   25.3850   24.3642 C   0  0  0  0  0  0  0  0  0  0  0  0
   37.0183   24.0927   24.5658 C   0  0  1  0  0  0  0  0  0  0  0  0
   38.1859   23.1859   24.9633 C   0  0  2  0  0  0  0  0  0  0  0  0
  1  2  1  0  0  0  0
  2  3  1  0  0  0  0
  3 20  1  0  0  0  0
  4  5  1  0  0  0  0
  6  7  2  0  0  0  0
  6 12  1  0  0  0  0
  7  8  1  0  0  0  0
  8  9  2  0  0  0  0
  9 11  1  0  0  0  0
 10  5  1  6  0  0  0
 10 11  1  0  0  0  0
 10 16  1  0  0  0  0
 10 27  1  0  0  0  0
 11 12  2  0  0  0  0
 13 12  1  1  0  0  0
 13 15  1  0  0  0  0
 13 28  1  0  0  0  0
 14 15  2  0  0  0  0
 14 19  1  0  0  0  0
 15 16  1  0  0  0  0
 16 17  2  0  0  0  0
 17 18  1  0  0  0  0
 18 19  2  0  0  0  0
 20 21  1  0  0  0  0
 21 25  1  0  0  0  0
 22 26  2  0  0  0  0
 23 24  2  0  0  0  0
 24 25  1  0  0  0  0
 25 26  1  0  0  0  0
 27 26  1  1  0  0  0
 27 28  1  0  0  0  0
 28 24  1  1  0  0  0
M  END
>  <CHROM.1>
-75.44336945,178.15741497,172.99657616,-178.63379626,79.32885230,37.89752927
24.40311358,25.40341068,-0.65682261,0.28680641,2.14696213

>  <Name>
ligand

>  <RI>
0

>  <Rbt.Current_Directory>
/home/itssahil/PROJECTS/Mol_Feturizer/New_Systems/rnas/1YLS

>  <Rbt.Executable>
rbdock ($Id: //depot/dev/client3/rdock/2013.1/src/exe/rbdock.cxx#4 $)

>  <Rbt.Library>
libRbt.so (2013.1, Build901 2013/11/27)

>  <Rbt.Parameter_File>
/export/apps/rDock/src/rDock_2013.1_src/data/scripts/dock_solv.prm

>  <Rbt.Receptor>
prm/pocket_docking_3.prm

>  <SCORE>
-38.2089

>  <SCORE.INTER>
-34.7231

>  <SCORE.INTER.CONST>
1

>  <SCORE.INTER.POLAR>
0

>  <SCORE.INTER.ROT>
5

>  <SCORE.INTER.SOLV>
7.82805

>  <SCORE.INTER.VDW>
-32.6914

>  <SCORE.INTER.norm>
-1.24011

>  <SCORE.INTRA>
-3.48576

>  <SCORE.INTRA.DIHEDRAL>
-8.60315

>  <SCORE.INTRA.DIHEDRAL.0>
12.0148

>  <SCORE.INTRA.POLAR>
0

>  <SCORE.INTRA.POLAR.0>
0

>  <SCORE.INTRA.REPUL>
0

>  <SCORE.INTRA.REPUL.0>
0

>  <SCORE.INTRA.SOLV>
0.145298

>  <SCORE.INTRA.SOLV.lig_0>
-10.5235

>  <SCORE.INTRA.VDW>
0.743171

>  <SCORE.INTRA.VDW.0>
-1.38455

>  <SCORE.INTRA.norm>
-0.124491

>  <SCORE.RESTR>
0

>  <SCORE.RESTR.CAVITY>
0

>  <SCORE.RESTR.norm>
0

>  <SCORE.SYSTEM>
0

>  <SCORE.SYSTEM.CONST>
0

>  <SCORE.SYSTEM.DIHEDRAL>
0

>  <SCORE.SYSTEM.SOLV>
0

>  <SCORE.SYSTEM.norm>
0

>  <SCORE.heavy>
28

>  <SCORE.norm>
-1.3646

>  <RMSD>
1.036

$$$$
ligand
 OpenBabel11021811413D
libRbt.so/2013.1/901 2013/11/27
 28 32  0  0  0  0  0  0  0  0999 V2000
   43.7126   28.5360   22.2517 C   0  0  0  0  0  0  0  0  0  0  0  0
   42.7818   27.3397   22.2725 C   0  0  0  0  0  0  0  0  0  0  0  0
   41.6360   27.5367   23.2539 C   0  0  0  0  0  0  0  0  0  0  0  0
   33.9747   24.1169   26.0799 O   0  0  0  0  0  0  0  0  0  0  0  0
   34.9913   24.0959   25.0764 C   0  0  0  0  0  0  0  0  0  0  0  0
   38.6261   24.4781   28.3862 C   0  0  0  0  0  0  0  0  0  0  0  0
   38.1082   25.6781   28.8565 C   0  0  0  0  0  0  0  0  0  0  0  0
   36.9614   26.2137   28.2647 C   0  0  0  0  0  0  0  0  0  0  0  0
   36.3318   25.5526   27.2094 C   0  0  0  0  0  0  0  0  0  0  0  0
   36.3092   23.5516   25.6425 C   0  0  1  0  0  0  0  0  0  0  0  0
   36.8478   24.3522   26.7801 C   0  0  0  0  0  0  0  0  0  0  0  0
   37.9758   23.8314   27.3621 C   0  0  0  0  0  0  0  0  0  0  0  0
   38.4610   22.5994   26.7698 C   0  0  1  0  0  0  0  0  0  0  0  0
   37.4395   20.3741   27.2124 C   0  0  0  0  0  0  0  0  0  0  0  0
   37.3529   21.6609   26.7380 C   0  0  0  0  0  0  0  0  0  0  0  0
   36.2094   22.1372   26.1550 C   0  0  0  0  0  0  0  0  0  0  0  0
   35.1013   21.3121   26.0306 C   0  0  0  0  0  0  0  0  0  0  0  0
   35.1671   20.0083   26.5266 C   0  0  0  0  0  0  0  0  0  0  0  0
   36.3346   19.5441   27.1182 C   0  0  0  0  0  0  0  0  0  0  0  0
   40.8247   26.2554   23.3956 C   0  0  0  0  0  0  0  0  0  0  0  0
   39.7631   26.4136   24.4777 C   0  0  0  0  0  0  0  0  0  0  0  0
   37.2482   25.6789   23.6949 O   0  0  0  0  0  0  0  0  0  0  0  0
   40.7883   24.0750   25.6897 O   0  0  0  0  0  0  0  0  0  0  0  0
   39.6664   24.1118   25.2122 C   0  0  0  0  0  0  0  0  0  0  0  0
   39.1272   25.1155   24.6374 N   0  0  0  0  0  0  0  0  0  0  0  0
   37.9469   24.8805   24.2635 C   0  0  0  0  0  0  0  0  0  0  0  0
   37.4740   23.5194   24.6403 C   0  0  1  0  0  0  0  0  0  0  0  0
   38.7295   22.9613   25.3156 C   0  0  2  0  0  0  0  0  0  0  0  0
  1  2  1  0  0  0  0
  2  3  1  0  0  0  0
  3 20  1  0  0  0  0
  4  5  1  0  0  0  0
  6  7  2  0  0  0  0
  6 12  1  0  0  0  0
  7  8  1  0  0  0  0
  8  9  2  0  0  0  0
  9 11  1  0  0  0  0
 10  5  1  6  0  0  0
 10 11  1  0  0  0  0
 10 16  1  0  0  0  0
 10 27  1  0  0  0  0
 11 12  2  0  0  0  0
 13 12  1  1  0  0  0
 13 15  1  0  0  0  0
 13 28  1  0  0  0  0
 14 15  2  0  0  0  0
 14 19  1  0  0  0  0
 15 16  1  0  0  0  0
 16 17  2  0  0  0  0
 17 18  1  0  0  0  0
 18 19  2  0  0  0  0
 20 21  1  0  0  0  0
 21 25  1  0  0  0  0
 22 26  2  0  0  0  0
 23 24  2  0  0  0  0
 24 25  1  0  0  0  0
 25 26  1  0  0  0  0
 27 26  1  1  0  0  0
 27 28  1  0  0  0  0
 28 24  1  1  0  0  0
M  END
>  <CHROM.1>
-172.39932476,-59.82688154,174.50350535,-174.57326058,73.76339016,38.15044427
24.24874164,25.58236419,-0.71741863,-0.42750459,2.98885080

>  <Name>
ligand

>  <RI>
0

>  <Rbt.Current_Directory>
/home/itssahil/PROJECTS/Mol_Feturizer/New_Systems/rnas/1YLS

>  <Rbt.Executable>
rbdock ($Id: //depot/dev/client3/rdock/2013.1/src/exe/rbdock.cxx#4 $)

>  <Rbt.Library>
libRbt.so (2013.1, Build901 2013/11/27)

>  <Rbt.Parameter_File>
/export/apps/rDock/src/rDock_2013.1_src/data/scripts/dock_solv.prm

>  <Rbt.Receptor>
prm/pocket_docking_6.prm

>  <SCORE>
-38.4571

>  <SCORE.INTER>
-33.8529

>  <SCORE.INTER.CONST>
1

>  <SCORE.INTER.POLAR>
0

>  <SCORE.INTER.ROT>
5

>  <SCORE.INTER.SOLV>
7.75096

>  <SCORE.INTER.VDW>
-32.0856

>  <SCORE.INTER.norm>
-1.20903

>  <SCORE.INTRA>
-4.60417

>  <SCORE.INTRA.DIHEDRAL>
-9.24943

>  <SCORE.INTRA.DIHEDRAL.0>
12.0148

>  <SCORE.INTRA.POLAR>
0

>  <SCORE.INTRA.POLAR.0>
0

>  <SCORE.INTRA.REPUL>
0

>  <SCORE.INTRA.REPUL.0>
0

>  <SCORE.INTRA.SOLV>
-0.0318813

>  <SCORE.INTRA.SOLV.lig_0>
-10.5235

>  <SCORE.INTRA.VDW>
0.0364852

>  <SCORE.INTRA.VDW.0>
-1.38455

>  <SCORE.INTRA.norm>
-0.164435

>  <SCORE.RESTR>
0

>  <SCORE.RESTR.CAVITY>
0

>  <SCORE.RESTR.norm>
0

>  <SCORE.SYSTEM>
0

>  <SCORE.SYSTEM.CONST>
0

>  <SCORE.SYSTEM.DIHEDRAL>
0

>  <SCORE.SYSTEM.SOLV>
0

>  <SCORE.SYSTEM.norm>
0

>  <SCORE.heavy>
28

>  <SCORE.norm>
-1.37347

>  <RMSD>
1.036

$$$$
ligand
 OpenBabel11021811413D
libRbt.so/2013.1/901 2013/11/27
 28 32  0  0  0  0  0  0  0  0999 V2000
   43.6803   28.6012   22.2456 C   0  0  0  0  0  0  0  0  0  0  0  0
   42.7570   27.3993   22.2742 C   0  0  0  0  0  0  0  0  0  0  0  0
   41.6440   27.5703   23.2973 C   0  0  0  0  0  0  0  0  0  0  0  0
   33.9859   24.0438   26.0525 O   0  0  0  0  0  0  0  0  0  0  0  0
   35.0379   24.0971   25.0874 C   0  0  0  0  0  0  0  0  0  0  0  0
   38.6214   24.4809   28.4526 C   0  0  0  0  0  0  0  0  0  0  0  0
   38.0955   25.6804   28.9152 C   0  0  0  0  0  0  0  0  0  0  0  0
   36.9576   26.2154   28.3060 C   0  0  0  0  0  0  0  0  0  0  0  0
   36.3447   25.5541   27.2410 C   0  0  0  0  0  0  0  0  0  0  0  0
   36.3474   23.5535   25.6735 C   0  0  1  0  0  0  0  0  0  0  0  0
   36.8679   24.3542   26.8195 C   0  0  0  0  0  0  0  0  0  0  0  0
   37.9872   23.8339   27.4185 C   0  0  0  0  0  0  0  0  0  0  0  0
   38.4822   22.6024   26.8334 C   0  0  1  0  0  0  0  0  0  0  0  0
   37.4555   20.3763   27.2598 C   0  0  0  0  0  0  0  0  0  0  0  0
   37.3754   21.6632   26.7844 C   0  0  0  0  0  0  0  0  0  0  0  0
   36.2406   22.1388   26.1841 C   0  0  0  0  0  0  0  0  0  0  0  0
   35.1351   21.3131   26.0426 C   0  0  0  0  0  0  0  0  0  0  0  0
   35.1941   20.0092   26.5392 C   0  0  0  0  0  0  0  0  0  0  0  0
   36.3527   19.5456   27.1486 C   0  0  0  0  0  0  0  0  0  0  0  0
   40.8702   26.2699   23.4708 C   0  0  0  0  0  0  0  0  0  0  0  0
   39.8168   26.4180   24.5623 C   0  0  0  0  0  0  0  0  0  0  0  0
   37.3146   25.6819   23.7410 O   0  0  0  0  0  0  0  0  0  0  0  0
   40.8249   24.0798   25.7893 O   0  0  0  0  0  0  0  0  0  0  0  0
   39.7104   24.1160   25.2948 C   0  0  0  0  0  0  0  0  0  0  0  0
   39.1794   25.1194   24.7120 N   0  0  0  0  0  0  0  0  0  0  0  0
   38.0051   24.8838   24.3201 C   0  0  0  0  0  0  0  0  0  0  0  0
   37.5274   23.5223   24.6893 C   0  0  1  0  0  0  0  0  0  0  0  0
   38.7727   22.9648   25.3835 C   0  0  2  0  0  0  0  0  0  0  0  0
  1  2  1  0  0  0  0
  2  3  1  0  0  0  0
  3 20  1  0  0  0  0
  4  5  1  0  0  0  0
  6  7  2  0  0  0  0
  6 12  1  0  0  0  0
  7  8  1  0  0  0  0
  8  9  2  0  0  0  0
  9 11  1  0  0  0  0
 10  5  1  6  0  0  0
 10 11  1  0  0  0  0
 10 16  1  0  0  0  0
 10 27  1  0  0  0  0
 11 12  2  0  0  0  0
 13 12  1  1  0  0  0
 13 15  1  0  0  0  0
 13 28  1  0  0  0  0
 14 15  2  0  0  0  0
 14 19  1  0  0  0  0
 15 16  1  0  0  0  0
 16 17  2  0  0  0  0
 17 18  1  0  0  0  0
 18 19  2  0  0  0  0
 20 21  1  0  0  0  0
 21 25  1  0  0  0  0
 22 26  2  0  0  0  0
 23 24  2  0  0  0  0
 24 25  1  0  0  0  0
 25 26  1  0  0  0  0
 27 26  1  1  0  0  0
 27 28  1  0  0  0  0
 28 24  1  1  0  0  0
M  END
>  <CHROM.1>
-170.74930647,-63.23626216,176.24510365,-176.95879852,75.21218710,38.17546254
24.25442594,25.62585717,-0.72318345,-0.42922772,2.99022919

>  <Name>
ligand

>  <RI>
0

>  <Rbt.Current_Directory>
/home/itssahil/PROJECTS/Mol_Feturizer/New_Systems/rnas/1YLS

>  <Rbt.Executable>
rbdock ($Id: //depot/dev/client3/rdock/2013.1/src/exe/rbdock.cxx#4 $)

>  <Rbt.Library>
libRbt.so (2013.1, Build901 2013/11/27)

>  <Rbt.Parameter_File>
/export/apps/rDock/src/rDock_2013.1_src/data/scripts/dock_solv.prm

>  <Rbt.Receptor>
prm/pocket_docking_4.prm

>  <SCORE>
-38.4377

>  <SCORE.INTER>
-33.8369

>  <SCORE.INTER.CONST>
1

>  <SCORE.INTER.POLAR>
0

>  <SCORE.INTER.ROT>
5

>  <SCORE.INTER.SOLV>
7.54896

>  <SCORE.INTER.VDW>
-32.0076

>  <SCORE.INTER.norm>
-1.20846

>  <SCORE.INTRA>
-4.60085

>  <SCORE.INTRA.DIHEDRAL>
-9.26877

>  <SCORE.INTRA.DIHEDRAL.0>
12.0148

>  <SCORE.INTRA.POLAR>
0

>  <SCORE.INTRA.POLAR.0>
0

>  <SCORE.INTRA.REPUL>
0

>  <SCORE.INTRA.REPUL.0>
0

>  <SCORE.INTRA.SOLV>
-0.0385893

>  <SCORE.INTRA.SOLV.lig_0>
-10.5235

>  <SCORE.INTRA.VDW>
0.0528249

>  <SCORE.INTRA.VDW.0>
-1.38455

>  <SCORE.INTRA.norm>
-0.164316

>  <SCORE.RESTR>
0

>  <SCORE.RESTR.CAVITY>
0

>  <SCORE.RESTR.norm>
0

>  <SCORE.SYSTEM>
0

>  <SCORE.SYSTEM.CONST>
0

>  <SCORE.SYSTEM.DIHEDRAL>
0

>  <SCORE.SYSTEM.SOLV>
0

>  <SCORE.SYSTEM.norm>
0

>  <SCORE.heavy>
28

>  <SCORE.norm>
-1.37278

>  <RMSD>
1.039

$$$$
ligand
 OpenBabel11021811413D
libRbt.so/2013.1/901 2013/11/27
 28 32  0  0  0  0  0  0  0  0999 V2000
   43.8911   28.0158   22.2236 C   0  0  0  0  0  0  0  0  0  0  0  0
   42.7064   27.0711   22.1826 C   0  0  0  0  0  0  0  0  0  0  0  0
   41.7555   27.3120   23.3456 C   0  0  0  0  0  0  0  0  0  0  0  0
   35.0774   26.5358   25.5627 O   0  0  0  0  0  0  0  0  0  0  0  0
   34.6648   25.1685   25.5284 C   0  0  0  0  0  0  0  0  0  0  0  0
   38.6420   23.9682   28.1842 C   0  0  0  0  0  0  0  0  0  0  0  0
   38.5052   25.1142   28.9571 C   0  0  0  0  0  0  0  0  0  0  0  0
   37.4705   26.0121   28.6824 C   0  0  0  0  0  0  0  0  0  0  0  0
   36.5735   25.7656   27.6423 C   0  0  0  0  0  0  0  0  0  0  0  0
   35.8585   24.2300   25.7474 C   0  0  1  0  0  0  0  0  0  0  0  0
   36.7132   24.6103   26.9094 C   0  0  0  0  0  0  0  0  0  0  0  0
   37.7326   23.7329   27.1805 C   0  0  0  0  0  0  0  0  0  0  0  0
   37.8154   22.5915   26.2892 C   0  0  1  0  0  0  0  0  0  0  0  0
   36.3219   20.6090   26.4632 C   0  0  0  0  0  0  0  0  0  0  0  0
   36.5096   21.9561   26.2663 C   0  0  0  0  0  0  0  0  0  0  0  0
   35.4640   22.7949   25.9883 C   0  0  0  0  0  0  0  0  0  0  0  0
   34.1760   22.2880   25.8978 C   0  0  0  0  0  0  0  0  0  0  0  0
   33.9665   20.9246   26.1158 C   0  0  0  0  0  0  0  0  0  0  0  0
   35.0392   20.0899   26.4004 C   0  0  0  0  0  0  0  0  0  0  0  0
   40.6314   26.2842   23.3413 C   0  0  0  0  0  0  0  0  0  0  0  0
   39.7635   26.4383   24.5847 C   0  0  0  0  0  0  0  0  0  0  0  0
   37.0702   26.4803   24.1139 O   0  0  0  0  0  0  0  0  0  0  0  0
   40.2968   23.7173   25.1333 O   0  0  0  0  0  0  0  0  0  0  0  0
   39.1728   24.1108   24.8693 C   0  0  0  0  0  0  0  0  0  0  0  0
   38.8422   25.3131   24.5979 N   0  0  0  0  0  0  0  0  0  0  0  0
   37.6053   25.4384   24.3917 C   0  0  0  0  0  0  0  0  0  0  0  0
   36.8502   24.1678   24.5749 C   0  0  1  0  0  0  0  0  0  0  0  0
   37.9933   23.2055   24.9074 C   0  0  2  0  0  0  0  0  0  0  0  0
  1  2  1  0  0  0  0
  2  3  1  0  0  0  0
  3 20  1  0  0  0  0
  4  5  1  0  0  0  0
  6  7  2  0  0  0  0
  6 12  1  0  0  0  0
  7  8  1  0  0  0  0
  8  9  2  0  0  0  0
  9 11  1  0  0  0  0
 10  5  1  6  0  0  0
 10 11  1  0  0  0  0
 10 16  1  0  0  0  0
 10 27  1  0  0  0  0
 11 12  2  0  0  0  0
 13 12  1  1  0  0  0
 13 15  1  0  0  0  0
 13 28  1  0  0  0  0
 14 15  2  0  0  0  0
 14 19  1  0  0  0  0
 15 16  1  0  0  0  0
 16 17  2  0  0  0  0
 17 18  1  0  0  0  0
 18 19  2  0  0  0  0
 20 21  1  0  0  0  0
 21 25  1  0  0  0  0
 22 26  2  0  0  0  0
 23 24  2  0  0  0  0
 24 25  1  0  0  0  0
 25 26  1  0  0  0  0
 27 26  1  1  0  0  0
 27 28  1  0  0  0  0
 28 24  1  1  0  0  0
M  END
>  <CHROM.1>
-175.73489372,48.09613988,174.19218464,-172.13871042,72.77082729,37.85908076
24.54537891,25.46901769,-0.56043589,-0.47525628,3.13753585

>  <Name>
ligand

>  <RI>
0

>  <Rbt.Current_Directory>
/home/itssahil/PROJECTS/Mol_Feturizer/New_Systems/rnas/1YLS

>  <Rbt.Executable>
rbdock ($Id: //depot/dev/client3/rdock/2013.1/src/exe/rbdock.cxx#4 $)

>  <Rbt.Library>
libRbt.so (2013.1, Build901 2013/11/27)

>  <Rbt.Parameter_File>
/export/apps/rDock/src/rDock_2013.1_src/data/scripts/dock_solv.prm

>  <Rbt.Receptor>
prm/pocket_docking_3.prm

>  <SCORE>
-37.6242

>  <SCORE.INTER>
-34.6646

>  <SCORE.INTER.CONST>
1

>  <SCORE.INTER.POLAR>
0

>  <SCORE.INTER.ROT>
5

>  <SCORE.INTER.SOLV>
7.80344

>  <SCORE.INTER.VDW>
-32.6442

>  <SCORE.INTER.norm>
-1.23802

>  <SCORE.INTRA>
-2.95958

>  <SCORE.INTRA.DIHEDRAL>
-8.84466

>  <SCORE.INTRA.DIHEDRAL.0>
12.0148

>  <SCORE.INTRA.POLAR>
0

>  <SCORE.INTRA.POLAR.0>
0

>  <SCORE.INTRA.REPUL>
0

>  <SCORE.INTRA.REPUL.0>
0

>  <SCORE.INTRA.SOLV>
0.600354

>  <SCORE.INTRA.SOLV.lig_0>
-10.5235

>  <SCORE.INTRA.VDW>
1.16257

>  <SCORE.INTRA.VDW.0>
-1.38455

>  <SCORE.INTRA.norm>
-0.105699

>  <SCORE.RESTR>
0

>  <SCORE.RESTR.CAVITY>
0

>  <SCORE.RESTR.norm>
0

>  <SCORE.SYSTEM>
0

>  <SCORE.SYSTEM.CONST>
0

>  <SCORE.SYSTEM.DIHEDRAL>
0

>  <SCORE.SYSTEM.SOLV>
0

>  <SCORE.SYSTEM.norm>
0

>  <SCORE.heavy>
28

>  <SCORE.norm>
-1.34372

>  <RMSD>
1.040

$$$$
ligand
 OpenBabel11021811413D
libRbt.so/2013.1/901 2013/11/27
 28 32  0  0  0  0  0  0  0  0999 V2000
   44.0781   26.6553   22.7705 C   0  0  0  0  0  0  0  0  0  0  0  0
   42.6965   26.0834   23.0200 C   0  0  0  0  0  0  0  0  0  0  0  0
   41.6092   27.1238   22.7959 C   0  0  0  0  0  0  0  0  0  0  0  0
   35.2432   26.5715   25.3660 O   0  0  0  0  0  0  0  0  0  0  0  0
   34.7752   25.2217   25.3687 C   0  0  0  0  0  0  0  0  0  0  0  0
   38.6751   23.9595   28.1092 C   0  0  0  0  0  0  0  0  0  0  0  0
   38.5805   25.1395   28.8358 C   0  0  0  0  0  0  0  0  0  0  0  0
   37.5873   26.0687   28.5162 C   0  0  0  0  0  0  0  0  0  0  0  0
   36.6895   25.8199   27.4773 C   0  0  0  0  0  0  0  0  0  0  0  0
   35.9261   24.2431   25.6359 C   0  0  1  0  0  0  0  0  0  0  0  0
   36.7863   24.6321   26.7910 C   0  0  0  0  0  0  0  0  0  0  0  0
   37.7650   23.7237   27.1061 C   0  0  0  0  0  0  0  0  0  0  0  0
   37.8069   22.5459   26.2604 C   0  0  1  0  0  0  0  0  0  0  0  0
   36.2291   20.6364   26.4956 C   0  0  0  0  0  0  0  0  0  0  0  0
   36.4755   21.9657   26.2488 C   0  0  0  0  0  0  0  0  0  0  0  0
   35.4689   22.8363   25.9281 C   0  0  0  0  0  0  0  0  0  0  0  0
   34.1613   22.3810   25.8440 C   0  0  0  0  0  0  0  0  0  0  0  0
   33.8923   21.0372   26.1124 C   0  0  0  0  0  0  0  0  0  0  0  0
   34.9261   20.1697   26.4399 C   0  0  0  0  0  0  0  0  0  0  0  0
   40.2288   26.5005   22.9571 C   0  0  0  0  0  0  0  0  0  0  0  0
   39.9311   26.2378   24.4286 C   0  0  0  0  0  0  0  0  0  0  0  0
   37.2462   26.3748   23.9291 O   0  0  0  0  0  0  0  0  0  0  0  0
   40.3437   23.5203   25.0872 O   0  0  0  0  0  0  0  0  0  0  0  0
   39.2396   23.9502   24.7968 C   0  0  0  0  0  0  0  0  0  0  0  0
   38.9628   25.1538   24.4758 N   0  0  0  0  0  0  0  0  0  0  0  0
   37.7342   25.3229   24.2524 C   0  0  0  0  0  0  0  0  0  0  0  0
   36.9242   24.0935   24.4768 C   0  0  1  0  0  0  0  0  0  0  0  0
   38.0225   23.0975   24.8578 C   0  0  2  0  0  0  0  0  0  0  0  0
  1  2  1  0  0  0  0
  2  3  1  0  0  0  0
  3 20  1  0  0  0  0
  4  5  1  0  0  0  0
  6  7  2  0  0  0  0
  6 12  1  0  0  0  0
  7  8  1  0  0  0  0
  8  9  2  0  0  0  0
  9 11  1  0  0  0  0
 10  5  1  6  0  0  0
 10 11  1  0  0  0  0
 10 16  1  0  0  0  0
 10 27  1  0  0  0  0
 11 12  2  0  0  0  0
 13 12  1  1  0  0  0
 13 15  1  0  0  0  0
 13 28  1  0  0  0  0
 14 15  2  0  0  0  0
 14 19  1  0  0  0  0
 15 16  1  0  0  0  0
 16 17  2  0  0  0  0
 17 18  1  0  0  0  0
 18 19  2  0  0  0  0
 20 21  1  0  0  0  0
 21 25  1  0  0  0  0
 22 26  2  0  0  0  0
 23 24  2  0  0  0  0
 24 25  1  0  0  0  0
 25 26  1  0  0  0  0
 27 26  1  1  0  0  0
 27 28  1  0  0  0  0
 28 24  1  1  0  0  0
M  END
>  <CHROM.1>
176.02926147,47.58468455,73.86374259,-154.68519786,104.59892082,37.89360412
24.42923136,25.40979104,-0.57025510,-0.34643754,2.95830088

>  <Name>
ligand

>  <RI>
0

>  <Rbt.Current_Directory>
/home/itssahil/PROJECTS/Mol_Feturizer/New_Systems/rnas/1YLS

>  <Rbt.Executable>
rbdock ($Id: //depot/dev/client3/rdock/2013.1/src/exe/rbdock.cxx#4 $)

>  <Rbt.Library>
libRbt.so (2013.1, Build901 2013/11/27)

>  <Rbt.Parameter_File>
/export/apps/rDock/src/rDock_2013.1_src/data/scripts/dock_solv.prm

>  <Rbt.Receptor>
prm/pocket_docking_2.prm

>  <SCORE>
-34.9724

>  <SCORE.INTER>
-33.7092

>  <SCORE.INTER.CONST>
1

>  <SCORE.INTER.POLAR>
0

>  <SCORE.INTER.ROT>
5

>  <SCORE.INTER.SOLV>
7.71665

>  <SCORE.INTER.VDW>
-31.9784

>  <SCORE.INTER.norm>
-1.2039

>  <SCORE.INTRA>
-1.28701

>  <SCORE.INTRA.DIHEDRAL>
-6.36736

>  <SCORE.INTRA.DIHEDRAL.0>
12.0148

>  <SCORE.INTRA.POLAR>
0

>  <SCORE.INTRA.POLAR.0>
0

>  <SCORE.INTRA.REPUL>
0

>  <SCORE.INTRA.REPUL.0>
0

>  <SCORE.INTRA.SOLV>
0.682283

>  <SCORE.INTRA.SOLV.lig_0>
-10.5235

>  <SCORE.INTRA.VDW>
1.55553

>  <SCORE.INTRA.VDW.0>
-1.38455

>  <SCORE.INTRA.norm>
-0.0459647

>  <SCORE.RESTR>
0.0238123

>  <SCORE.RESTR.CAVITY>
0.0238123

>  <SCORE.RESTR.norm>
0.000850438

>  <SCORE.SYSTEM>
0

>  <SCORE.SYSTEM.CONST>
0

>  <SCORE.SYSTEM.DIHEDRAL>
0

>  <SCORE.SYSTEM.SOLV>
0

>  <SCORE.SYSTEM.norm>
0

>  <SCORE.heavy>
28

>  <SCORE.norm>
-1.24902

>  <RMSD>
1.041

$$$$
ligand
 OpenBabel11021811413D
libRbt.so/2013.1/901 2013/11/27
 28 32  0  0  0  0  0  0  0  0999 V2000
   43.9048   28.0008   22.1836 C   0  0  0  0  0  0  0  0  0  0  0  0
   42.6585   27.1418   22.1024 C   0  0  0  0  0  0  0  0  0  0  0  0
   41.7793   27.3099   23.3327 C   0  0  0  0  0  0  0  0  0  0  0  0
   33.9298   24.7181   24.3672 O   0  0  0  0  0  0  0  0  0  0  0  0
   34.6937   25.1495   25.4948 C   0  0  0  0  0  0  0  0  0  0  0  0
   38.6533   23.9989   28.1984 C   0  0  0  0  0  0  0  0  0  0  0  0
   38.5042   25.1528   28.9571 C   0  0  0  0  0  0  0  0  0  0  0  0
   37.4675   26.0424   28.6634 C   0  0  0  0  0  0  0  0  0  0  0  0
   36.5809   25.7799   27.6184 C   0  0  0  0  0  0  0  0  0  0  0  0
   35.8900   24.2196   25.7347 C   0  0  1  0  0  0  0  0  0  0  0  0
   36.7326   24.6171   26.8998 C   0  0  0  0  0  0  0  0  0  0  0  0
   37.7538   23.7478   27.1895 C   0  0  0  0  0  0  0  0  0  0  0  0
   37.8500   22.5970   26.3119 C   0  0  1  0  0  0  0  0  0  0  0  0
   36.3647   20.6092   26.4952 C   0  0  0  0  0  0  0  0  0  0  0  0
   36.5476   21.9549   26.2848 C   0  0  0  0  0  0  0  0  0  0  0  0
   35.5003   22.7853   25.9883 C   0  0  0  0  0  0  0  0  0  0  0  0
   34.2156   22.2710   25.8923 C   0  0  0  0  0  0  0  0  0  0  0  0
   34.0110   20.9091   26.1238 C   0  0  0  0  0  0  0  0  0  0  0  0
   35.0852   20.0830   26.4271 C   0  0  0  0  0  0  0  0  0  0  0  0
   40.6456   26.2926   23.3250 C   0  0  0  0  0  0  0  0  0  0  0  0
   39.7942   26.4340   24.5812 C   0  0  0  0  0  0  0  0  0  0  0  0
   37.1049   26.4573   24.0866 O   0  0  0  0  0  0  0  0  0  0  0  0
   40.3359   23.7221   25.1650 O   0  0  0  0  0  0  0  0  0  0  0  0
   39.2123   24.1070   24.8868 C   0  0  0  0  0  0  0  0  0  0  0  0
   38.8783   25.3045   24.5990 N   0  0  0  0  0  0  0  0  0  0  0  0
   37.6427   25.4213   24.3807 C   0  0  0  0  0  0  0  0  0  0  0  0
   36.8921   24.1492   24.5717 C   0  0  1  0  0  0  0  0  0  0  0  0
   38.0370   23.1963   24.9248 C   0  0  2  0  0  0  0  0  0  0  0  0
  1  2  1  0  0  0  0
  2  3  1  0  0  0  0
  3 20  1  0  0  0  0
  4  5  1  0  0  0  0
  6  7  2  0  0  0  0
  6 12  1  0  0  0  0
  7  8  1  0  0  0  0
  8  9  2  0  0  0  0
  9 11  1  0  0  0  0
 10  5  1  6  0  0  0
 10 11  1  0  0  0  0
 10 16  1  0  0  0  0
 10 27  1  0  0  0  0
 11 12  2  0  0  0  0
 13 12  1  1  0  0  0
 13 15  1  0  0  0  0
 13 28  1  0  0  0  0
 14 15  2  0  0  0  0
 14 19  1  0  0  0  0
 15 16  1  0  0  0  0
 16 17  2  0  0  0  0
 17 18  1  0  0  0  0
 18 19  2  0  0  0  0
 20 21  1  0  0  0  0
 21 25  1  0  0  0  0
 22 26  2  0  0  0  0
 23 24  2  0  0  0  0
 24 25  1  0  0  0  0
 25 26  1  0  0  0  0
 27 26  1  1  0  0  0
 27 28  1  0  0  0  0
 28 24  1  1  0  0  0
M  END
>  <CHROM.1>
-171.67773659,179.88771449,178.14671741,-171.16404968,74.42691641,37.83377605
24.46730140,25.41255870,0.62841333,-0.33092205,-1.03322691

>  <Name>
ligand

>  <RI>
0

>  <Rbt.Current_Directory>
/home/itssahil/PROJECTS/Mol_Feturizer/New_Systems/rnas/1YLS

>  <Rbt.Executable>
rbdock ($Id: //depot/dev/client3/rdock/2013.1/src/exe/rbdock.cxx#4 $)

>  <Rbt.Library>
libRbt.so (2013.1, Build901 2013/11/27)

>  <Rbt.Parameter_File>
/export/apps/rDock/src/rDock_2013.1_src/data/scripts/dock_solv.prm

>  <Rbt.Receptor>
prm/pocket_docking_3.prm

>  <SCORE>
-38.796

>  <SCORE.INTER>
-34.459

>  <SCORE.INTER.CONST>
1

>  <SCORE.INTER.POLAR>
0

>  <SCORE.INTER.ROT>
5

>  <SCORE.INTER.SOLV>
7.77666

>  <SCORE.INTER.VDW>
-32.4982

>  <SCORE.INTER.norm>
-1.23068

>  <SCORE.INTRA>
-4.33703

>  <SCORE.INTRA.DIHEDRAL>
-9.14105

>  <SCORE.INTRA.DIHEDRAL.0>
12.0148

>  <SCORE.INTRA.POLAR>
0

>  <SCORE.INTRA.POLAR.0>
0

>  <SCORE.INTRA.REPUL>
0

>  <SCORE.INTRA.REPUL.0>
0

>  <SCORE.INTRA.SOLV>
0.164346

>  <SCORE.INTRA.SOLV.lig_0>
-10.5235

>  <SCORE.INTRA.VDW>
0.151322

>  <SCORE.INTRA.VDW.0>
-1.38455

>  <SCORE.INTRA.norm>
-0.154894

>  <SCORE.RESTR>
0

>  <SCORE.RESTR.CAVITY>
0

>  <SCORE.RESTR.norm>
0

>  <SCORE.SYSTEM>
0

>  <SCORE.SYSTEM.CONST>
0

>  <SCORE.SYSTEM.DIHEDRAL>
0

>  <SCORE.SYSTEM.SOLV>
0

>  <SCORE.SYSTEM.norm>
0

>  <SCORE.heavy>
28

>  <SCORE.norm>
-1.38557

>  <RMSD>
1.043

$$$$
ligand
 OpenBabel11021811413D
libRbt.so/2013.1/901 2013/11/27
 28 32  0  0  0  0  0  0  0  0999 V2000
   43.8399   26.4186   21.7490 C   0  0  0  0  0  0  0  0  0  0  0  0
   42.3681   26.7744   21.8202 C   0  0  0  0  0  0  0  0  0  0  0  0
   41.7665   26.4085   23.1690 C   0  0  0  0  0  0  0  0  0  0  0  0
   34.2338   23.8528   24.4494 O   0  0  0  0  0  0  0  0  0  0  0  0
   34.9124   24.5018   25.5261 C   0  0  0  0  0  0  0  0  0  0  0  0
   38.9481   24.1935   28.3423 C   0  0  0  0  0  0  0  0  0  0  0  0
   38.5843   25.3404   29.0362 C   0  0  0  0  0  0  0  0  0  0  0  0
   37.4166   26.0205   28.6811 C   0  0  0  0  0  0  0  0  0  0  0  0
   36.6130   25.5559   27.6392 C   0  0  0  0  0  0  0  0  0  0  0  0
   36.2456   23.8071   25.8319 C   0  0  1  0  0  0  0  0  0  0  0  0
   36.9798   24.4028   26.9858 C   0  0  0  0  0  0  0  0  0  0  0  0
   38.1289   23.7398   27.3357 C   0  0  0  0  0  0  0  0  0  0  0  0
   38.4427   22.5807   26.5220 C   0  0  1  0  0  0  0  0  0  0  0  0
   37.3194   20.3767   26.7901 C   0  0  0  0  0  0  0  0  0  0  0  0
   37.2718   21.7215   26.5110 C   0  0  0  0  0  0  0  0  0  0  0  0
   36.1039   22.3414   26.1561 C   0  0  0  0  0  0  0  0  0  0  0  0
   34.9299   21.6076   26.0696 C   0  0  0  0  0  0  0  0  0  0  0  0
   34.9584   20.2442   26.3704 C   0  0  0  0  0  0  0  0  0  0  0  0
   36.1520   19.6335   26.7323 C   0  0  0  0  0  0  0  0  0  0  0  0
   40.2791   26.7354   23.1995 C   0  0  0  0  0  0  0  0  0  0  0  0
   39.7338   26.6057   24.6168 C   0  0  0  0  0  0  0  0  0  0  0  0
   37.0931   26.1366   24.0841 O   0  0  0  0  0  0  0  0  0  0  0  0
   40.7225   24.0618   25.3517 O   0  0  0  0  0  0  0  0  0  0  0  0
   39.5560   24.2312   25.0377 C   0  0  0  0  0  0  0  0  0  0  0  0
   39.0268   25.3366   24.6819 N   0  0  0  0  0  0  0  0  0  0  0  0
   37.7949   25.2258   24.4404 C   0  0  0  0  0  0  0  0  0  0  0  0
   37.2713   23.8538   24.6884 C   0  0  1  0  0  0  0  0  0  0  0  0
   38.5552   23.1332   25.1078 C   0  0  2  0  0  0  0  0  0  0  0  0
  1  2  1  0  0  0  0
  2  3  1  0  0  0  0
  3 20  1  0  0  0  0
  4  5  1  0  0  0  0
  6  7  2  0  0  0  0
  6 12  1  0  0  0  0
  7  8  1  0  0  0  0
  8  9  2  0  0  0  0
  9 11  1  0  0  0  0
 10  5  1  6  0  0  0
 10 11  1  0  0  0  0
 10 16  1  0  0  0  0
 10 27  1  0  0  0  0
 11 12  2  0  0  0  0
 13 12  1  1  0  0  0
 13 15  1  0  0  0  0
 13 28  1  0  0  0  0
 14 15  2  0  0  0  0
 14 19  1  0  0  0  0
 15 16  1  0  0  0  0
 16 17  2  0  0  0  0
 17 18  1  0  0  0  0
 18 19  2  0  0  0  0
 20 21  1  0  0  0  0
 21 25  1  0  0  0  0
 22 26  2  0  0  0  0
 23 24  2  0  0  0  0
 24 25  1  0  0  0  0
 25 26  1  0  0  0  0
 27 26  1  1  0  0  0
 27 28  1  0  0  0  0
 28 24  1  1  0  0  0
M  END
>  <CHROM.1>
-178.22445748,-177.62509596,-169.85116158,-102.03664525,91.47749461,38.12404674
24.19671641,25.48107452,-0.16148093,-0.75177328,-2.50265321

>  <Name>
ligand

>  <RI>
0

>  <Rbt.Current_Directory>
/home/itssahil/PROJECTS/Mol_Feturizer/New_Systems/rnas/1YLS

>  <Rbt.Executable>
rbdock ($Id: //depot/dev/client3/rdock/2013.1/src/exe/rbdock.cxx#4 $)

>  <Rbt.Library>
libRbt.so (2013.1, Build901 2013/11/27)

>  <Rbt.Parameter_File>
/export/apps/rDock/src/rDock_2013.1_src/data/scripts/dock_solv.prm

>  <Rbt.Receptor>
prm/pocket_docking_4.prm

>  <SCORE>
-36.1908

>  <SCORE.INTER>
-33.7036

>  <SCORE.INTER.CONST>
1

>  <SCORE.INTER.POLAR>
0

>  <SCORE.INTER.ROT>
5

>  <SCORE.INTER.SOLV>
7.35366

>  <SCORE.INTER.VDW>
-31.8536

>  <SCORE.INTER.norm>
-1.2037

>  <SCORE.INTRA>
-2.48723

>  <SCORE.INTRA.DIHEDRAL>
-4.95056

>  <SCORE.INTRA.DIHEDRAL.0>
12.0148

>  <SCORE.INTRA.POLAR>
0

>  <SCORE.INTRA.POLAR.0>
0

>  <SCORE.INTRA.REPUL>
0

>  <SCORE.INTRA.REPUL.0>
0

>  <SCORE.INTRA.SOLV>
0.318039

>  <SCORE.INTRA.SOLV.lig_0>
-10.5235

>  <SCORE.INTRA.VDW>
-0.170966

>  <SCORE.INTRA.VDW.0>
-1.38455

>  <SCORE.INTRA.norm>
-0.0888295

>  <SCORE.RESTR>
0

>  <SCORE.RESTR.CAVITY>
0

>  <SCORE.RESTR.norm>
0

>  <SCORE.SYSTEM>
0

>  <SCORE.SYSTEM.CONST>
0

>  <SCORE.SYSTEM.DIHEDRAL>
0

>  <SCORE.SYSTEM.SOLV>
0

>  <SCORE.SYSTEM.norm>
0

>  <SCORE.heavy>
28

>  <SCORE.norm>
-1.29253

>  <RMSD>
1.043

$$$$
ligand
 OpenBabel11021811413D
libRbt.so/2013.1/901 2013/11/27
 28 32  0  0  0  0  0  0  0  0999 V2000
   43.8842   28.0019   22.1978 C   0  0  0  0  0  0  0  0  0  0  0  0
   42.6886   27.0714   22.1461 C   0  0  0  0  0  0  0  0  0  0  0  0
   41.7441   27.3052   23.3157 C   0  0  0  0  0  0  0  0  0  0  0  0
   35.0661   26.5203   25.5220 O   0  0  0  0  0  0  0  0  0  0  0  0
   34.6557   25.1519   25.5193 C   0  0  0  0  0  0  0  0  0  0  0  0
   38.6491   23.9807   28.1639 C   0  0  0  0  0  0  0  0  0  0  0  0
   38.5103   25.1293   28.9324 C   0  0  0  0  0  0  0  0  0  0  0  0
   37.4704   26.0214   28.6582 C   0  0  0  0  0  0  0  0  0  0  0  0
   36.5704   25.7665   27.6228 C   0  0  0  0  0  0  0  0  0  0  0  0
   35.8546   24.2197   25.7374 C   0  0  1  0  0  0  0  0  0  0  0  0
   36.7123   24.6088   26.8943 C   0  0  0  0  0  0  0  0  0  0  0  0
   37.7366   23.7370   27.1649 C   0  0  0  0  0  0  0  0  0  0  0  0
   37.8209   22.5923   26.2781 C   0  0  1  0  0  0  0  0  0  0  0  0
   36.3370   20.6039   26.4665 C   0  0  0  0  0  0  0  0  0  0  0  0
   36.5179   21.9509   26.2632 C   0  0  0  0  0  0  0  0  0  0  0  0
   35.4674   22.7839   25.9860 C   0  0  0  0  0  0  0  0  0  0  0  0
   34.1813   22.2709   25.9028 C   0  0  0  0  0  0  0  0  0  0  0  0
   33.9789   20.9075   26.1274 C   0  0  0  0  0  0  0  0  0  0  0  0
   35.0565   20.0787   26.4112 C   0  0  0  0  0  0  0  0  0  0  0  0
   40.6259   26.2708   23.3174 C   0  0  0  0  0  0  0  0  0  0  0  0
   39.7448   26.4404   24.5494 C   0  0  0  0  0  0  0  0  0  0  0  0
   37.0495   26.4684   24.0894 O   0  0  0  0  0  0  0  0  0  0  0  0
   40.2925   23.7242   25.1073 O   0  0  0  0  0  0  0  0  0  0  0  0
   39.1657   24.1116   24.8462 C   0  0  0  0  0  0  0  0  0  0  0  0
   38.8287   25.3112   24.5711 N   0  0  0  0  0  0  0  0  0  0  0  0
   37.5904   25.4301   24.3694 C   0  0  0  0  0  0  0  0  0  0  0  0
   36.8417   24.1570   24.5611 C   0  0  1  0  0  0  0  0  0  0  0  0
   37.9905   23.2011   24.8930 C   0  0  2  0  0  0  0  0  0  0  0  0
  1  2  1  0  0  0  0
  2  3  1  0  0  0  0
  3 20  1  0  0  0  0
  4  5  1  0  0  0  0
  6  7  2  0  0  0  0
  6 12  1  0  0  0  0
  7  8  1  0  0  0  0
  8  9  2  0  0  0  0
  9 11  1  0  0  0  0
 10  5  1  6  0  0  0
 10 11  1  0  0  0  0
 10 16  1  0  0  0  0
 10 27  1  0  0  0  0
 11 12  2  0  0  0  0
 13 12  1  1  0  0  0
 13 15  1  0  0  0  0
 13 28  1  0  0  0  0
 14 15  2  0  0  0  0
 14 19  1  0  0  0  0
 15 16  1  0  0  0  0
 16 17  2  0  0  0  0
 17 18  1  0  0  0  0
 18 19  2  0  0  0  0
 20 21  1  0  0  0  0
 21 25  1  0  0  0  0
 22 26  2  0  0  0  0
 23 24  2  0  0  0  0
 24 25  1  0  0  0  0
 25 26  1  0  0  0  0
 27 26  1  1  0  0  0
 27 28  1  0  0  0  0
 28 24  1  1  0  0  0
M  END
>  <CHROM.1>
-174.45275546,49.14274723,175.59269293,-172.21496457,71.72387399,37.85566096
24.54056133,25.45149658,-0.56715657,-0.47149992,3.12362485

>  <Name>
ligand

>  <RI>
0

>  <Rbt.Current_Directory>
/home/itssahil/PROJECTS/Mol_Feturizer/New_Systems/rnas/1YLS

>  <Rbt.Executable>
rbdock ($Id: //depot/dev/client3/rdock/2013.1/src/exe/rbdock.cxx#4 $)

>  <Rbt.Library>
libRbt.so (2013.1, Build901 2013/11/27)

>  <Rbt.Parameter_File>
/export/apps/rDock/src/rDock_2013.1_src/data/scripts/dock_solv.prm

>  <Rbt.Receptor>
prm/pocket_docking_7.prm

>  <SCORE>
-37.6327

>  <SCORE.INTER>
-34.7076

>  <SCORE.INTER.CONST>
1

>  <SCORE.INTER.POLAR>
0

>  <SCORE.INTER.ROT>
5

>  <SCORE.INTER.SOLV>
7.85661

>  <SCORE.INTER.VDW>
-32.6906

>  <SCORE.INTER.norm>
-1.23956

>  <SCORE.INTRA>
-2.92514

>  <SCORE.INTRA.DIHEDRAL>
-8.92116

>  <SCORE.INTRA.DIHEDRAL.0>
12.0148

>  <SCORE.INTRA.POLAR>
0

>  <SCORE.INTRA.POLAR.0>
0

>  <SCORE.INTRA.REPUL>
0

>  <SCORE.INTRA.REPUL.0>
0

>  <SCORE.INTRA.SOLV>
0.609055

>  <SCORE.INTRA.SOLV.lig_0>
-10.5235

>  <SCORE.INTRA.VDW>
1.23091

>  <SCORE.INTRA.VDW.0>
-1.38455

>  <SCORE.INTRA.norm>
-0.104469

>  <SCORE.RESTR>
0

>  <SCORE.RESTR.CAVITY>
0

>  <SCORE.RESTR.norm>
0

>  <SCORE.SYSTEM>
0

>  <SCORE.SYSTEM.CONST>
0

>  <SCORE.SYSTEM.DIHEDRAL>
0

>  <SCORE.SYSTEM.SOLV>
0

>  <SCORE.SYSTEM.norm>
0

>  <SCORE.heavy>
28

>  <SCORE.norm>
-1.34402

>  <RMSD>
1.043

$$$$
ligand
 OpenBabel11021811413D
libRbt.so/2013.1/901 2013/11/27
 28 32  0  0  0  0  0  0  0  0999 V2000
   43.7951   27.6484   22.4243 C   0  0  0  0  0  0  0  0  0  0  0  0
   42.6141   26.7500   22.7342 C   0  0  0  0  0  0  0  0  0  0  0  0
   41.3371   27.5515   22.9384 C   0  0  0  0  0  0  0  0  0  0  0  0
   34.1592   24.6887   24.2725 O   0  0  0  0  0  0  0  0  0  0  0  0
   34.8936   25.0952   25.4286 C   0  0  0  0  0  0  0  0  0  0  0  0
   38.7589   23.8621   28.2307 C   0  0  0  0  0  0  0  0  0  0  0  0
   38.6431   25.0407   28.9564 C   0  0  0  0  0  0  0  0  0  0  0  0
   37.6478   25.9623   28.6214 C   0  0  0  0  0  0  0  0  0  0  0  0
   36.7689   25.7071   27.5681 C   0  0  0  0  0  0  0  0  0  0  0  0
   36.0478   24.1256   25.7137 C   0  0  1  0  0  0  0  0  0  0  0  0
   36.8862   24.5206   26.8827 C   0  0  0  0  0  0  0  0  0  0  0  0
   37.8670   23.6198   27.2129 C   0  0  0  0  0  0  0  0  0  0  0  0
   37.9319   22.4431   26.3672 C   0  0  1  0  0  0  0  0  0  0  0  0
   36.3658   20.5209   26.5758 C   0  0  0  0  0  0  0  0  0  0  0  0
   36.6055   21.8522   26.3338 C   0  0  0  0  0  0  0  0  0  0  0  0
   35.5972   22.7150   25.9975 C   0  0  0  0  0  0  0  0  0  0  0  0
   34.2949   22.2493   25.8921 C   0  0  0  0  0  0  0  0  0  0  0  0
   34.0323   20.9032   26.1552 C   0  0  0  0  0  0  0  0  0  0  0  0
   35.0677   20.0438   26.4988 C   0  0  0  0  0  0  0  0  0  0  0  0
   40.1446   26.6225   23.1249 C   0  0  0  0  0  0  0  0  0  0  0  0
   40.0557   26.1532   24.5722 C   0  0  0  0  0  0  0  0  0  0  0  0
   37.3781   26.2692   24.0297 O   0  0  0  0  0  0  0  0  0  0  0  0
   40.4793   23.4386   25.2357 O   0  0  0  0  0  0  0  0  0  0  0  0
   39.3767   23.8599   24.9278 C   0  0  0  0  0  0  0  0  0  0  0  0
   39.0954   25.0615   24.6031 N   0  0  0  0  0  0  0  0  0  0  0  0
   37.8692   25.2210   24.3601 C   0  0  0  0  0  0  0  0  0  0  0  0
   37.0656   23.9849   24.5707 C   0  0  1  0  0  0  0  0  0  0  0  0
   38.1656   22.9974   24.9686 C   0  0  2  0  0  0  0  0  0  0  0  0
  1  2  1  0  0  0  0
  2  3  1  0  0  0  0
  3 20  1  0  0  0  0
  4  5  1  0  0  0  0
  6  7  2  0  0  0  0
  6 12  1  0  0  0  0
  7  8  1  0  0  0  0
  8  9  2  0  0  0  0
  9 11  1  0  0  0  0
 10  5  1  6  0  0  0
 10 11  1  0  0  0  0
 10 16  1  0  0  0  0
 10 27  1  0  0  0  0
 11 12  2  0  0  0  0
 13 12  1  1  0  0  0
 13 15  1  0  0  0  0
 13 28  1  0  0  0  0
 14 15  2  0  0  0  0
 14 19  1  0  0  0  0
 15 16  1  0  0  0  0
 16 17  2  0  0  0  0
 17 18  1  0  0  0  0
 18 19  2  0  0  0  0
 20 21  1  0  0  0  0
 21 25  1  0  0  0  0
 22 26  2  0  0  0  0
 23 24  2  0  0  0  0
 24 25  1  0  0  0  0
 25 26  1  0  0  0  0
 27 26  1  1  0  0  0
 27 28  1  0  0  0  0
 28 24  1  1  0  0  0
M  END
>  <CHROM.1>
174.96395708,177.94322179,82.86101327,-167.70896673,116.70597441,37.91392910
24.34831934,25.42720641,-0.66721428,0.28084384,2.20598528

>  <Name>
ligand

>  <RI>
0

>  <Rbt.Current_Directory>
/home/itssahil/PROJECTS/Mol_Feturizer/New_Systems/rnas/1YLS

>  <Rbt.Executable>
rbdock ($Id: //depot/dev/client3/rdock/2013.1/src/exe/rbdock.cxx#4 $)

>  <Rbt.Library>
libRbt.so (2013.1, Build901 2013/11/27)

>  <Rbt.Parameter_File>
/export/apps/rDock/src/rDock_2013.1_src/data/scripts/dock_solv.prm

>  <Rbt.Receptor>
prm/pocket_docking_5.prm

>  <SCORE>
-37.1991

>  <SCORE.INTER>
-34.5907

>  <SCORE.INTER.CONST>
1

>  <SCORE.INTER.POLAR>
0

>  <SCORE.INTER.ROT>
5

>  <SCORE.INTER.SOLV>
7.95752

>  <SCORE.INTER.VDW>
-32.6463

>  <SCORE.INTER.norm>
-1.23538

>  <SCORE.INTRA>
-2.60845

>  <SCORE.INTRA.DIHEDRAL>
-7.05339

>  <SCORE.INTRA.DIHEDRAL.0>
12.0148

>  <SCORE.INTRA.POLAR>
0

>  <SCORE.INTRA.POLAR.0>
0

>  <SCORE.INTRA.REPUL>
0

>  <SCORE.INTRA.REPUL.0>
0

>  <SCORE.INTRA.SOLV>
0.186129

>  <SCORE.INTRA.SOLV.lig_0>
-10.5235

>  <SCORE.INTRA.VDW>
0.825178

>  <SCORE.INTRA.VDW.0>
-1.38455

>  <SCORE.INTRA.norm>
-0.0931589

>  <SCORE.RESTR>
0

>  <SCORE.RESTR.CAVITY>
0

>  <SCORE.RESTR.norm>
0

>  <SCORE.SYSTEM>
0

>  <SCORE.SYSTEM.CONST>
0

>  <SCORE.SYSTEM.DIHEDRAL>
0

>  <SCORE.SYSTEM.SOLV>
0

>  <SCORE.SYSTEM.norm>
0

>  <SCORE.heavy>
28

>  <SCORE.norm>
-1.32854

>  <RMSD>
1.044

$$$$
ligand
 OpenBabel11021811413D
libRbt.so/2013.1/901 2013/11/27
 28 32  0  0  0  0  0  0  0  0999 V2000
   43.9260   27.8645   22.1884 C   0  0  0  0  0  0  0  0  0  0  0  0
   42.6902   26.9882   22.1346 C   0  0  0  0  0  0  0  0  0  0  0  0
   41.7954   27.2043   23.3460 C   0  0  0  0  0  0  0  0  0  0  0  0
   35.0851   26.5352   25.6196 O   0  0  0  0  0  0  0  0  0  0  0  0
   34.6654   25.1708   25.5616 C   0  0  0  0  0  0  0  0  0  0  0  0
   38.6594   23.9320   28.1743 C   0  0  0  0  0  0  0  0  0  0  0  0
   38.5390   25.0766   28.9518 C   0  0  0  0  0  0  0  0  0  0  0  0
   37.5086   25.9833   28.6901 C   0  0  0  0  0  0  0  0  0  0  0  0
   36.5996   25.7469   27.6582 C   0  0  0  0  0  0  0  0  0  0  0  0
   35.8540   24.2226   25.7660 C   0  0  1  0  0  0  0  0  0  0  0  0
   36.7231   24.5928   26.9206 C   0  0  0  0  0  0  0  0  0  0  0  0
   37.7382   23.7067   27.1789 C   0  0  0  0  0  0  0  0  0  0  0  0
   37.8034   22.5674   26.2835 C   0  0  1  0  0  0  0  0  0  0  0  0
   36.2964   20.5960   26.4664 C   0  0  0  0  0  0  0  0  0  0  0  0
   36.4926   21.9421   26.2717 C   0  0  0  0  0  0  0  0  0  0  0  0
   35.4507   22.7898   26.0066 C   0  0  0  0  0  0  0  0  0  0  0  0
   34.1580   22.2931   25.9273 C   0  0  0  0  0  0  0  0  0  0  0  0
   33.9402   20.9307   26.1433 C   0  0  0  0  0  0  0  0  0  0  0  0
   35.0092   20.0869   26.4148 C   0  0  0  0  0  0  0  0  0  0  0  0
   40.5976   26.2643   23.3028 C   0  0  0  0  0  0  0  0  0  0  0  0
   39.7642   26.4042   24.5711 C   0  0  0  0  0  0  0  0  0  0  0  0
   37.0668   26.4684   24.1272 O   0  0  0  0  0  0  0  0  0  0  0  0
   40.2819   23.6776   25.1064 O   0  0  0  0  0  0  0  0  0  0  0  0
   39.1584   24.0805   24.8547 C   0  0  0  0  0  0  0  0  0  0  0  0
   38.8345   25.2861   24.5901 N   0  0  0  0  0  0  0  0  0  0  0  0
   37.5966   25.4215   24.3966 C   0  0  0  0  0  0  0  0  0  0  0  0
   36.8335   24.1563   24.5835 C   0  0  1  0  0  0  0  0  0  0  0  0
   37.9724   23.1842   24.9018 C   0  0  2  0  0  0  0  0  0  0  0  0
  1  2  1  0  0  0  0
  2  3  1  0  0  0  0
  3 20  1  0  0  0  0
  4  5  1  0  0  0  0
  6  7  2  0  0  0  0
  6 12  1  0  0  0  0
  7  8  1  0  0  0  0
  8  9  2  0  0  0  0
  9 11  1  0  0  0  0
 10  5  1  6  0  0  0
 10 11  1  0  0  0  0
 10 16  1  0  0  0  0
 10 27  1  0  0  0  0
 11 12  2  0  0  0  0
 13 12  1  1  0  0  0
 13 15  1  0  0  0  0
 13 28  1  0  0  0  0
 14 15  2  0  0  0  0
 14 19  1  0  0  0  0
 15 16  1  0  0  0  0
 16 17  2  0  0  0  0
 17 18  1  0  0  0  0
 18 19  2  0  0  0  0
 20 21  1  0  0  0  0
 21 25  1  0  0  0  0
 22 26  2  0  0  0  0
 23 24  2  0  0  0  0
 24 25  1  0  0  0  0
 25 26  1  0  0  0  0
 27 26  1  1  0  0  0
 27 28  1  0  0  0  0
 28 24  1  1  0  0  0
M  END
>  <CHROM.1>
-177.19387121,47.05767524,175.45156898,-167.52337643,74.00496700,37.85678306
24.51657588,25.47063323,-0.54193551,-0.48703977,-3.13091934

>  <Name>
ligand

>  <RI>
0

>  <Rbt.Current_Directory>
/home/itssahil/PROJECTS/Mol_Feturizer/New_Systems/rnas/1YLS

>  <Rbt.Executable>
rbdock ($Id: //depot/dev/client3/rdock/2013.1/src/exe/rbdock.cxx#4 $)

>  <Rbt.Library>
libRbt.so (2013.1, Build901 2013/11/27)

>  <Rbt.Parameter_File>
/export/apps/rDock/src/rDock_2013.1_src/data/scripts/dock_solv.prm

>  <Rbt.Receptor>
prm/pocket_docking_4.prm

>  <SCORE>
-37.5803

>  <SCORE.INTER>
-34.7126

>  <SCORE.INTER.CONST>
1

>  <SCORE.INTER.POLAR>
0

>  <SCORE.INTER.ROT>
5

>  <SCORE.INTER.SOLV>
7.78938

>  <SCORE.INTER.VDW>
-32.6715

>  <SCORE.INTER.norm>
-1.23974

>  <SCORE.INTRA>
-2.86766

>  <SCORE.INTRA.DIHEDRAL>
-8.53446

>  <SCORE.INTRA.DIHEDRAL.0>
12.0148

>  <SCORE.INTRA.POLAR>
0

>  <SCORE.INTRA.POLAR.0>
0

>  <SCORE.INTRA.REPUL>
0

>  <SCORE.INTRA.REPUL.0>
0

>  <SCORE.INTRA.SOLV>
0.598613

>  <SCORE.INTRA.SOLV.lig_0>
-10.5235

>  <SCORE.INTRA.VDW>
1.10027

>  <SCORE.INTRA.VDW.0>
-1.38455

>  <SCORE.INTRA.norm>
-0.102416

>  <SCORE.RESTR>
0

>  <SCORE.RESTR.CAVITY>
0

>  <SCORE.RESTR.norm>
0

>  <SCORE.SYSTEM>
0

>  <SCORE.SYSTEM.CONST>
0

>  <SCORE.SYSTEM.DIHEDRAL>
0

>  <SCORE.SYSTEM.SOLV>
0

>  <SCORE.SYSTEM.norm>
0

>  <SCORE.heavy>
28

>  <SCORE.norm>
-1.34215

>  <RMSD>
1.045

$$$$
ligand
 OpenBabel11021811413D
libRbt.so/2013.1/901 2013/11/27
 28 32  0  0  0  0  0  0  0  0999 V2000
   43.5323   26.3343   22.2833 C   0  0  0  0  0  0  0  0  0  0  0  0
   42.4924   27.4000   21.9993 C   0  0  0  0  0  0  0  0  0  0  0  0
   41.5446   27.5873   23.1747 C   0  0  0  0  0  0  0  0  0  0  0  0
   35.0557   26.4294   25.5240 O   0  0  0  0  0  0  0  0  0  0  0  0
   34.7015   25.0453   25.5280 C   0  0  0  0  0  0  0  0  0  0  0  0
   38.7406   24.0589   28.1786 C   0  0  0  0  0  0  0  0  0  0  0  0
   38.5563   25.2078   28.9371 C   0  0  0  0  0  0  0  0  0  0  0  0
   37.4813   26.0549   28.6561 C   0  0  0  0  0  0  0  0  0  0  0  0
   36.5914   25.7550   27.6240 C   0  0  0  0  0  0  0  0  0  0  0  0
   35.9370   24.1641   25.7530 C   0  0  1  0  0  0  0  0  0  0  0  0
   36.7792   24.5975   26.9055 C   0  0  0  0  0  0  0  0  0  0  0  0
   37.8379   23.7700   27.1827 C   0  0  0  0  0  0  0  0  0  0  0  0
   37.9676   22.6218   26.3059 C   0  0  1  0  0  0  0  0  0  0  0  0
   36.5648   20.5771   26.5135 C   0  0  0  0  0  0  0  0  0  0  0  0
   36.6913   21.9285   26.2981 C   0  0  0  0  0  0  0  0  0  0  0  0
   35.6080   22.7161   26.0147 C   0  0  0  0  0  0  0  0  0  0  0  0
   34.3435   22.1511   25.9374 C   0  0  0  0  0  0  0  0  0  0  0  0
   34.1962   20.7827   26.1742 C   0  0  0  0  0  0  0  0  0  0  0  0
   35.3064   20.0005   26.4641 C   0  0  0  0  0  0  0  0  0  0  0  0
   40.5825   26.4112   23.2807 C   0  0  0  0  0  0  0  0  0  0  0  0
   39.7340   26.5286   24.5414 C   0  0  0  0  0  0  0  0  0  0  0  0
   37.0394   26.4443   24.0841 O   0  0  0  0  0  0  0  0  0  0  0  0
   40.3908   23.8417   25.1226 O   0  0  0  0  0  0  0  0  0  0  0  0
   39.2491   24.1811   24.8593 C   0  0  0  0  0  0  0  0  0  0  0  0
   38.8640   25.3638   24.5740 N   0  0  0  0  0  0  0  0  0  0  0  0
   37.6218   25.4310   24.3726 C   0  0  0  0  0  0  0  0  0  0  0  0
   36.9250   24.1306   24.5763 C   0  0  1  0  0  0  0  0  0  0  0  0
   38.1115   23.2247   24.9153 C   0  0  2  0  0  0  0  0  0  0  0  0
  1  2  1  0  0  0  0
  2  3  1  0  0  0  0
  3 20  1  0  0  0  0
  4  5  1  0  0  0  0
  6  7  2  0  0  0  0
  6 12  1  0  0  0  0
  7  8  1  0  0  0  0
  8  9  2  0  0  0  0
  9 11  1  0  0  0  0
 10  5  1  6  0  0  0
 10 11  1  0  0  0  0
 10 16  1  0  0  0  0
 10 27  1  0  0  0  0
 11 12  2  0  0  0  0
 13 12  1  1  0  0  0
 13 15  1  0  0  0  0
 13 28  1  0  0  0  0
 14 15  2  0  0  0  0
 14 19  1  0  0  0  0
 15 16  1  0  0  0  0
 16 17  2  0  0  0  0
 17 18  1  0  0  0  0
 18 19  2  0  0  0  0
 20 21  1  0  0  0  0
 21 25  1  0  0  0  0
 22 26  2  0  0  0  0
 23 24  2  0  0  0  0
 24 25  1  0  0  0  0
 25 26  1  0  0  0  0
 27 26  1  1  0  0  0
 27 28  1  0  0  0  0
 28 24  1  1  0  0  0
M  END
>  <CHROM.1>
-73.12463826,48.89066304,174.04253720,-179.17351641,73.89131579,37.89890788
24.49589142,25.45619408,-0.57105090,-0.49372533,3.10395100

>  <Name>
ligand

>  <RI>
0

>  <Rbt.Current_Directory>
/home/itssahil/PROJECTS/Mol_Feturizer/New_Systems/rnas/1YLS

>  <Rbt.Executable>
rbdock ($Id: //depot/dev/client3/rdock/2013.1/src/exe/rbdock.cxx#4 $)

>  <Rbt.Library>
libRbt.so (2013.1, Build901 2013/11/27)

>  <Rbt.Parameter_File>
/export/apps/rDock/src/rDock_2013.1_src/data/scripts/dock_solv.prm

>  <Rbt.Receptor>
prm/pocket_docking_5.prm

>  <SCORE>
-37.0881

>  <SCORE.INTER>
-35.0882

>  <SCORE.INTER.CONST>
1

>  <SCORE.INTER.POLAR>
0

>  <SCORE.INTER.ROT>
5

>  <SCORE.INTER.SOLV>
7.79361

>  <SCORE.INTER.VDW>
-32.9234

>  <SCORE.INTER.norm>
-1.25315

>  <SCORE.INTRA>
-1.99988

>  <SCORE.INTRA.DIHEDRAL>
-8.51239

>  <SCORE.INTRA.DIHEDRAL.0>
12.0148

>  <SCORE.INTRA.POLAR>
0

>  <SCORE.INTRA.POLAR.0>
0

>  <SCORE.INTRA.REPUL>
0

>  <SCORE.INTRA.REPUL.0>
0

>  <SCORE.INTRA.SOLV>
0.582555

>  <SCORE.INTRA.SOLV.lig_0>
-10.5235

>  <SCORE.INTRA.VDW>
1.96504

>  <SCORE.INTRA.VDW.0>
-1.38455

>  <SCORE.INTRA.norm>
-0.0714242

>  <SCORE.RESTR>
0

>  <SCORE.RESTR.CAVITY>
0

>  <SCORE.RESTR.norm>
0

>  <SCORE.SYSTEM>
0

>  <SCORE.SYSTEM.CONST>
0

>  <SCORE.SYSTEM.DIHEDRAL>
0

>  <SCORE.SYSTEM.SOLV>
0

>  <SCORE.SYSTEM.norm>
0

>  <SCORE.heavy>
28

>  <SCORE.norm>
-1.32458

>  <RMSD>
1.046

$$$$
ligand
 OpenBabel11021811413D
libRbt.so/2013.1/901 2013/11/27
 28 32  0  0  0  0  0  0  0  0999 V2000
   43.5412   26.3030   22.0561 C   0  0  0  0  0  0  0  0  0  0  0  0
   42.5244   27.4259   21.9991 C   0  0  0  0  0  0  0  0  0  0  0  0
   41.6872   27.4903   23.2679 C   0  0  0  0  0  0  0  0  0  0  0  0
   34.2922   23.7745   24.1608 O   0  0  0  0  0  0  0  0  0  0  0  0
   34.9037   24.4854   25.2386 C   0  0  0  0  0  0  0  0  0  0  0  0
   38.7020   24.2958   28.3771 C   0  0  0  0  0  0  0  0  0  0  0  0
   38.3161   25.4965   28.9589 C   0  0  0  0  0  0  0  0  0  0  0  0
   37.1972   26.1734   28.4669 C   0  0  0  0  0  0  0  0  0  0  0  0
   36.4640   25.6524   27.4001 C   0  0  0  0  0  0  0  0  0  0  0  0
   36.1909   23.7869   25.6956 C   0  0  1  0  0  0  0  0  0  0  0  0
   36.8498   24.4482   26.8592 C   0  0  0  0  0  0  0  0  0  0  0  0
   37.9509   23.7884   27.3434 C   0  0  0  0  0  0  0  0  0  0  0  0
   38.2959   22.5680   26.6394 C   0  0  1  0  0  0  0  0  0  0  0  0
   37.0983   20.4123   26.9713 C   0  0  0  0  0  0  0  0  0  0  0  0
   37.1073   21.7344   26.5964 C   0  0  0  0  0  0  0  0  0  0  0  0
   35.9866   22.3514   26.1088 C   0  0  0  0  0  0  0  0  0  0  0  0
   34.8041   21.6376   25.9818 C   0  0  0  0  0  0  0  0  0  0  0  0
   34.7738   20.2988   26.3780 C   0  0  0  0  0  0  0  0  0  0  0  0
   35.9198   19.6910   26.8739 C   0  0  0  0  0  0  0  0  0  0  0  0
   40.7438   26.2972   23.3493 C   0  0  0  0  0  0  0  0  0  0  0  0
   39.8339   26.4193   24.5659 C   0  0  0  0  0  0  0  0  0  0  0  0
   37.2305   25.9679   23.8618 O   0  0  0  0  0  0  0  0  0  0  0  0
   40.6966   23.9146   25.5512 O   0  0  0  0  0  0  0  0  0  0  0  0
   39.5625   24.0851   25.1358 C   0  0  0  0  0  0  0  0  0  0  0  0
   39.0911   25.1729   24.6636 N   0  0  0  0  0  0  0  0  0  0  0  0
   37.8789   25.0706   24.3345 C   0  0  0  0  0  0  0  0  0  0  0  0
   37.3022   23.7308   24.6355 C   0  0  1  0  0  0  0  0  0  0  0  0
   38.5309   23.0157   25.2033 C   0  0  2  0  0  0  0  0  0  0  0  0
  1  2  1  0  0  0  0
  2  3  1  0  0  0  0
  3 20  1  0  0  0  0
  4  5  1  0  0  0  0
  6  7  2  0  0  0  0
  6 12  1  0  0  0  0
  7  8  1  0  0  0  0
  8  9  2  0  0  0  0
  9 11  1  0  0  0  0
 10  5  1  6  0  0  0
 10 11  1  0  0  0  0
 10 16  1  0  0  0  0
 10 27  1  0  0  0  0
 11 12  2  0  0  0  0
 13 12  1  1  0  0  0
 13 15  1  0  0  0  0
 13 28  1  0  0  0  0
 14 15  2  0  0  0  0
 14 19  1  0  0  0  0
 15 16  1  0  0  0  0
 16 17  2  0  0  0  0
 17 18  1  0  0  0  0
 18 19  2  0  0  0  0
 20 21  1  0  0  0  0
 21 25  1  0  0  0  0
 22 26  2  0  0  0  0
 23 24  2  0  0  0  0
 24 25  1  0  0  0  0
 25 26  1  0  0  0  0
 27 26  1  1  0  0  0
 27 28  1  0  0  0  0
 28 24  1  1  0  0  0
M  END
>  <CHROM.1>
-70.04734877,-177.55998031,-175.72590900,-172.98306339,78.46124505,38.06879533
24.21707728,25.47280881,0.48820932,-0.61712726,-1.46532945

>  <Name>
ligand

>  <RI>
0

>  <Rbt.Current_Directory>
/home/itssahil/PROJECTS/Mol_Feturizer/New_Systems/rnas/1YLS

>  <Rbt.Executable>
rbdock ($Id: //depot/dev/client3/rdock/2013.1/src/exe/rbdock.cxx#4 $)

>  <Rbt.Library>
libRbt.so (2013.1, Build901 2013/11/27)

>  <Rbt.Parameter_File>
/export/apps/rDock/src/rDock_2013.1_src/data/scripts/dock_solv.prm

>  <Rbt.Receptor>
prm/pocket_docking_4.prm

>  <SCORE>
-37.5173

>  <SCORE.INTER>
-34.1425

>  <SCORE.INTER.CONST>
1

>  <SCORE.INTER.POLAR>
0

>  <SCORE.INTER.ROT>
5

>  <SCORE.INTER.SOLV>
7.87762

>  <SCORE.INTER.VDW>
-32.3208

>  <SCORE.INTER.norm>
-1.21937

>  <SCORE.INTRA>
-3.37488

>  <SCORE.INTRA.DIHEDRAL>
-9.0543

>  <SCORE.INTRA.DIHEDRAL.0>
12.0148

>  <SCORE.INTRA.POLAR>
0

>  <SCORE.INTRA.POLAR.0>
0

>  <SCORE.INTRA.REPUL>
0

>  <SCORE.INTRA.REPUL.0>
0

>  <SCORE.INTRA.SOLV>
0.127539

>  <SCORE.INTRA.SOLV.lig_0>
-10.5235

>  <SCORE.INTRA.VDW>
1.0885

>  <SCORE.INTRA.VDW.0>
-1.38455

>  <SCORE.INTRA.norm>
-0.120531

>  <SCORE.RESTR>
0

>  <SCORE.RESTR.CAVITY>
0

>  <SCORE.RESTR.norm>
0

>  <SCORE.SYSTEM>
0

>  <SCORE.SYSTEM.CONST>
0

>  <SCORE.SYSTEM.DIHEDRAL>
0

>  <SCORE.SYSTEM.SOLV>
0

>  <SCORE.SYSTEM.norm>
0

>  <SCORE.heavy>
28

>  <SCORE.norm>
-1.3399

>  <RMSD>
1.047

$$$$
ligand
 OpenBabel11021811413D
libRbt.so/2013.1/901 2013/11/27
 28 32  0  0  0  0  0  0  0  0999 V2000
   43.8817   28.0444   22.1891 C   0  0  0  0  0  0  0  0  0  0  0  0
   42.6592   27.1500   22.1291 C   0  0  0  0  0  0  0  0  0  0  0  0
   41.7921   27.3002   23.3703 C   0  0  0  0  0  0  0  0  0  0  0  0
   33.9091   24.7187   24.3991 O   0  0  0  0  0  0  0  0  0  0  0  0
   34.6833   25.1531   25.5185 C   0  0  0  0  0  0  0  0  0  0  0  0
   38.6563   23.9974   28.2004 C   0  0  0  0  0  0  0  0  0  0  0  0
   38.5077   25.1471   28.9655 C   0  0  0  0  0  0  0  0  0  0  0  0
   37.4680   26.0359   28.6804 C   0  0  0  0  0  0  0  0  0  0  0  0
   36.5777   25.7768   27.6376 C   0  0  0  0  0  0  0  0  0  0  0  0
   35.8826   24.2246   25.7489 C   0  0  1  0  0  0  0  0  0  0  0  0
   36.7291   24.6180   26.9125 C   0  0  0  0  0  0  0  0  0  0  0  0
   37.7533   23.7495   27.1938 C   0  0  0  0  0  0  0  0  0  0  0  0
   37.8484   22.6033   26.3099 C   0  0  1  0  0  0  0  0  0  0  0  0
   36.3681   20.6114   26.4891 C   0  0  0  0  0  0  0  0  0  0  0  0
   36.5473   21.9585   26.2848 C   0  0  0  0  0  0  0  0  0  0  0  0
   35.4970   22.7882   25.9968 C   0  0  0  0  0  0  0  0  0  0  0  0
   34.2131   22.2716   25.9032 C   0  0  0  0  0  0  0  0  0  0  0  0
   34.0123   20.9081   26.1286 C   0  0  0  0  0  0  0  0  0  0  0  0
   35.0895   20.0828   26.4235 C   0  0  0  0  0  0  0  0  0  0  0  0
   40.6319   26.3139   23.3367 C   0  0  0  0  0  0  0  0  0  0  0  0
   39.7774   26.4533   24.5910 C   0  0  0  0  0  0  0  0  0  0  0  0
   37.0861   26.4733   24.1073 O   0  0  0  0  0  0  0  0  0  0  0  0
   40.3273   23.7396   25.1589 O   0  0  0  0  0  0  0  0  0  0  0  0
   39.2018   24.1235   24.8871 C   0  0  0  0  0  0  0  0  0  0  0  0
   38.8640   25.3217   24.6068 N   0  0  0  0  0  0  0  0  0  0  0  0
   37.6273   25.4369   24.3940 C   0  0  0  0  0  0  0  0  0  0  0  0
   36.8802   24.1622   24.5815 C   0  0  1  0  0  0  0  0  0  0  0  0
   38.0286   23.2101   24.9252 C   0  0  2  0  0  0  0  0  0  0  0  0
  1  2  1  0  0  0  0
  2  3  1  0  0  0  0
  3 20  1  0  0  0  0
  4  5  1  0  0  0  0
  6  7  2  0  0  0  0
  6 12  1  0  0  0  0
  7  8  1  0  0  0  0
  8  9  2  0  0  0  0
  9 11  1  0  0  0  0
 10  5  1  6  0  0  0
 10 11  1  0  0  0  0
 10 16  1  0  0  0  0
 10 27  1  0  0  0  0
 11 12  2  0  0  0  0
 13 12  1  1  0  0  0
 13 15  1  0  0  0  0
 13 28  1  0  0  0  0
 14 15  2  0  0  0  0
 14 19  1  0  0  0  0
 15 16  1  0  0  0  0
 16 17  2  0  0  0  0
 17 18  1  0  0  0  0
 18 19  2  0  0  0  0
 20 21  1  0  0  0  0
 21 25  1  0  0  0  0
 22 26  2  0  0  0  0
 23 24  2  0  0  0  0
 24 25  1  0  0  0  0
 25 26  1  0  0  0  0
 27 26  1  1  0  0  0
 27 28  1  0  0  0  0
 28 24  1  1  0  0  0
M  END
>  <CHROM.1>
-175.53145212,-179.58399004,179.17152474,-169.15653906,73.97083976,37.82735124
24.47507107,25.42305902,0.63117762,-0.32648323,-1.02291240

>  <Name>
ligand

>  <RI>
0

>  <Rbt.Current_Directory>
/home/itssahil/PROJECTS/Mol_Feturizer/New_Systems/rnas/1YLS

>  <Rbt.Executable>
rbdock ($Id: //depot/dev/client3/rdock/2013.1/src/exe/rbdock.cxx#4 $)

>  <Rbt.Library>
libRbt.so (2013.1, Build901 2013/11/27)

>  <Rbt.Parameter_File>
/export/apps/rDock/src/rDock_2013.1_src/data/scripts/dock_solv.prm

>  <Rbt.Receptor>
prm/pocket_docking_4.prm

>  <SCORE>
-38.7673

>  <SCORE.INTER>
-34.3941

>  <SCORE.INTER.CONST>
1

>  <SCORE.INTER.POLAR>
0

>  <SCORE.INTER.ROT>
5

>  <SCORE.INTER.SOLV>
7.74711

>  <SCORE.INTER.VDW>
-32.4451

>  <SCORE.INTER.norm>
-1.22836

>  <SCORE.INTRA>
-4.37318

>  <SCORE.INTRA.DIHEDRAL>
-9.20593

>  <SCORE.INTRA.DIHEDRAL.0>
12.0148

>  <SCORE.INTRA.POLAR>
0

>  <SCORE.INTRA.POLAR.0>
0

>  <SCORE.INTRA.REPUL>
0

>  <SCORE.INTRA.REPUL.0>
0

>  <SCORE.INTRA.SOLV>
0.165197

>  <SCORE.INTRA.SOLV.lig_0>
-10.5235

>  <SCORE.INTRA.VDW>
0.14719

>  <SCORE.INTRA.VDW.0>
-1.38455

>  <SCORE.INTRA.norm>
-0.156185

>  <SCORE.RESTR>
0

>  <SCORE.RESTR.CAVITY>
0

>  <SCORE.RESTR.norm>
0

>  <SCORE.SYSTEM>
0

>  <SCORE.SYSTEM.CONST>
0

>  <SCORE.SYSTEM.DIHEDRAL>
0

>  <SCORE.SYSTEM.SOLV>
0

>  <SCORE.SYSTEM.norm>
0

>  <SCORE.heavy>
28

>  <SCORE.norm>
-1.38455

>  <RMSD>
1.048

$$$$
ligand
 OpenBabel11021811413D
libRbt.so/2013.1/901 2013/11/27
 28 32  0  0  0  0  0  0  0  0999 V2000
   43.8695   28.0235   22.1889 C   0  0  0  0  0  0  0  0  0  0  0  0
   42.6700   27.0981   22.1366 C   0  0  0  0  0  0  0  0  0  0  0  0
   41.7416   27.3146   23.3223 C   0  0  0  0  0  0  0  0  0  0  0  0
   35.0789   26.5321   25.5818 O   0  0  0  0  0  0  0  0  0  0  0  0
   34.6649   25.1651   25.5498 C   0  0  0  0  0  0  0  0  0  0  0  0
   38.6633   23.9540   28.1686 C   0  0  0  0  0  0  0  0  0  0  0  0
   38.5333   25.0973   28.9465 C   0  0  0  0  0  0  0  0  0  0  0  0
   37.4968   25.9966   28.6835 C   0  0  0  0  0  0  0  0  0  0  0  0
   36.5912   25.7541   27.6500 C   0  0  0  0  0  0  0  0  0  0  0  0
   35.8600   24.2255   25.7557 C   0  0  1  0  0  0  0  0  0  0  0  0
   36.7244   24.6014   26.9120 C   0  0  0  0  0  0  0  0  0  0  0  0
   37.7455   23.7226   27.1716 C   0  0  0  0  0  0  0  0  0  0  0  0
   37.8205   22.5843   26.2756 C   0  0  1  0  0  0  0  0  0  0  0  0
   36.3276   20.6018   26.4549 C   0  0  0  0  0  0  0  0  0  0  0  0
   36.5143   21.9495   26.2613 C   0  0  0  0  0  0  0  0  0  0  0  0
   35.4668   22.7897   25.9948 C   0  0  0  0  0  0  0  0  0  0  0  0
   34.1779   22.2836   25.9130 C   0  0  0  0  0  0  0  0  0  0  0  0
   33.9696   20.9195   26.1280 C   0  0  0  0  0  0  0  0  0  0  0  0
   35.0443   20.0834   26.4009 C   0  0  0  0  0  0  0  0  0  0  0  0
   40.6310   26.2722   23.3314 C   0  0  0  0  0  0  0  0  0  0  0  0
   39.7562   26.4362   24.5687 C   0  0  0  0  0  0  0  0  0  0  0  0
   37.0592   26.4809   24.1201 O   0  0  0  0  0  0  0  0  0  0  0  0
   40.2929   23.7131   25.1034 O   0  0  0  0  0  0  0  0  0  0  0  0
   39.1668   24.1080   24.8500 C   0  0  0  0  0  0  0  0  0  0  0  0
   38.8346   25.3114   24.5855 N   0  0  0  0  0  0  0  0  0  0  0  0
   37.5961   25.4378   24.3899 C   0  0  0  0  0  0  0  0  0  0  0  0
   36.8419   24.1670   24.5749 C   0  0  1  0  0  0  0  0  0  0  0  0
   37.9874   23.2030   24.8946 C   0  0  2  0  0  0  0  0  0  0  0  0
  1  2  1  0  0  0  0
  2  3  1  0  0  0  0
  3 20  1  0  0  0  0
  4  5  1  0  0  0  0
  6  7  2  0  0  0  0
  6 12  1  0  0  0  0
  7  8  1  0  0  0  0
  8  9  2  0  0  0  0
  9 11  1  0  0  0  0
 10  5  1  6  0  0  0
 10 11  1  0  0  0  0
 10 16  1  0  0  0  0
 10 27  1  0  0  0  0
 11 12  2  0  0  0  0
 13 12  1  1  0  0  0
 13 15  1  0  0  0  0
 13 28  1  0  0  0  0
 14 15  2  0  0  0  0
 14 19  1  0  0  0  0
 15 16  1  0  0  0  0
 16 17  2  0  0  0  0
 17 18  1  0  0  0  0
 18 19  2  0  0  0  0
 20 21  1  0  0  0  0
 21 25  1  0  0  0  0
 22 26  2  0  0  0  0
 23 24  2  0  0  0  0
 24 25  1  0  0  0  0
 25 26  1  0  0  0  0
 27 26  1  1  0  0  0
 27 28  1  0  0  0  0
 28 24  1  1  0  0  0
M  END
>  <CHROM.1>
-173.65610353,48.25169438,176.34672537,-173.07656963,71.74616971,37.85894318
24.54145698,25.46264164,-0.56113177,-0.48198363,3.13978159

>  <Name>
ligand

>  <RI>
0

>  <Rbt.Current_Directory>
/home/itssahil/PROJECTS/Mol_Feturizer/New_Systems/rnas/1YLS

>  <Rbt.Executable>
rbdock ($Id: //depot/dev/client3/rdock/2013.1/src/exe/rbdock.cxx#4 $)

>  <Rbt.Library>
libRbt.so (2013.1, Build901 2013/11/27)

>  <Rbt.Parameter_File>
/export/apps/rDock/src/rDock_2013.1_src/data/scripts/dock_solv.prm

>  <Rbt.Receptor>
prm/pocket_docking_5.prm

>  <SCORE>
-37.6226

>  <SCORE.INTER>
-34.6718

>  <SCORE.INTER.CONST>
1

>  <SCORE.INTER.POLAR>
0

>  <SCORE.INTER.ROT>
5

>  <SCORE.INTER.SOLV>
7.85942

>  <SCORE.INTER.VDW>
-32.6677

>  <SCORE.INTER.norm>
-1.23828

>  <SCORE.INTRA>
-2.95075

>  <SCORE.INTRA.DIHEDRAL>
-8.89192

>  <SCORE.INTRA.DIHEDRAL.0>
12.0148

>  <SCORE.INTRA.POLAR>
0

>  <SCORE.INTRA.POLAR.0>
0

>  <SCORE.INTRA.REPUL>
0

>  <SCORE.INTRA.REPUL.0>
0

>  <SCORE.INTRA.SOLV>
0.601832

>  <SCORE.INTRA.SOLV.lig_0>
-10.5235

>  <SCORE.INTRA.VDW>
1.19429

>  <SCORE.INTRA.VDW.0>
-1.38455

>  <SCORE.INTRA.norm>
-0.105384

>  <SCORE.RESTR>
0

>  <SCORE.RESTR.CAVITY>
0

>  <SCORE.RESTR.norm>
0

>  <SCORE.SYSTEM>
0

>  <SCORE.SYSTEM.CONST>
0

>  <SCORE.SYSTEM.DIHEDRAL>
0

>  <SCORE.SYSTEM.SOLV>
0

>  <SCORE.SYSTEM.norm>
0

>  <SCORE.heavy>
28

>  <SCORE.norm>
-1.34366

>  <RMSD>
1.048

$$$$
ligand
 OpenBabel11021811413D
libRbt.so/2013.1/901 2013/11/27
 28 32  0  0  0  0  0  0  0  0999 V2000
   43.1396   27.8938   22.2984 C   0  0  0  0  0  0  0  0  0  0  0  0
   42.7170   26.4383   22.2683 C   0  0  0  0  0  0  0  0  0  0  0  0
   41.8208   26.0891   23.4472 C   0  0  0  0  0  0  0  0  0  0  0  0
   33.9173   24.8749   24.6113 O   0  0  0  0  0  0  0  0  0  0  0  0
   34.6997   25.2201   25.7557 C   0  0  0  0  0  0  0  0  0  0  0  0
   38.8597   24.0570   28.1335 C   0  0  0  0  0  0  0  0  0  0  0  0
   38.7256   25.1619   28.9645 C   0  0  0  0  0  0  0  0  0  0  0  0
   37.6458   26.0308   28.7881 C   0  0  0  0  0  0  0  0  0  0  0  0
   36.7013   25.7963   27.7880 C   0  0  0  0  0  0  0  0  0  0  0  0
   35.9366   24.3192   25.8662 C   0  0  1  0  0  0  0  0  0  0  0  0
   36.8409   24.6805   26.9963 C   0  0  0  0  0  0  0  0  0  0  0  0
   37.9045   23.8315   27.1709 C   0  0  0  0  0  0  0  0  0  0  0  0
   37.9779   22.7344   26.2249 C   0  0  1  0  0  0  0  0  0  0  0  0
   36.5682   20.6906   26.3885 C   0  0  0  0  0  0  0  0  0  0  0  0
   36.6964   22.0512   26.2438 C   0  0  0  0  0  0  0  0  0  0  0  0
   35.6076   22.8609   26.0619 C   0  0  0  0  0  0  0  0  0  0  0  0
   34.3354   22.3097   26.0183 C   0  0  0  0  0  0  0  0  0  0  0  0
   34.1873   20.9310   26.1844 C   0  0  0  0  0  0  0  0  0  0  0  0
   35.3034   20.1261   26.3717 C   0  0  0  0  0  0  0  0  0  0  0  0
   40.4365   26.6986   23.2677 C   0  0  0  0  0  0  0  0  0  0  0  0
   39.6890   26.7239   24.5957 C   0  0  0  0  0  0  0  0  0  0  0  0
   36.9738   26.6837   24.2744 O   0  0  0  0  0  0  0  0  0  0  0  0
   40.3490   24.0038   24.9889 O   0  0  0  0  0  0  0  0  0  0  0  0
   39.1986   24.3653   24.8047 C   0  0  0  0  0  0  0  0  0  0  0  0
   38.8107   25.5649   24.6072 N   0  0  0  0  0  0  0  0  0  0  0  0
   37.5605   25.6517   24.4745 C   0  0  0  0  0  0  0  0  0  0  0  0
   36.8626   24.3465   24.6399 C   0  0  1  0  0  0  0  0  0  0  0  0
   38.0562   23.4148   24.8651 C   0  0  2  0  0  0  0  0  0  0  0  0
  1  2  1  0  0  0  0
  2  3  1  0  0  0  0
  3 20  1  0  0  0  0
  4  5  1  0  0  0  0
  6  7  2  0  0  0  0
  6 12  1  0  0  0  0
  7  8  1  0  0  0  0
  8  9  2  0  0  0  0
  9 11  1  0  0  0  0
 10  5  1  6  0  0  0
 10 11  1  0  0  0  0
 10 16  1  0  0  0  0
 10 27  1  0  0  0  0
 11 12  2  0  0  0  0
 13 12  1  1  0  0  0
 13 15  1  0  0  0  0
 13 28  1  0  0  0  0
 14 15  2  0  0  0  0
 14 19  1  0  0  0  0
 15 16  1  0  0  0  0
 16 17  2  0  0  0  0
 17 18  1  0  0  0  0
 18 19  2  0  0  0  0
 20 21  1  0  0  0  0
 21 25  1  0  0  0  0
 22 26  2  0  0  0  0
 23 24  2  0  0  0  0
 24 25  1  0  0  0  0
 25 26  1  0  0  0  0
 27 26  1  1  0  0  0
 27 28  1  0  0  0  0
 28 24  1  1  0  0  0
M  END
>  <CHROM.1>
72.71272030,176.56167699,-162.67598329,-98.19057462,75.74856018,37.85289436
24.51539810,25.46192696,0.69271816,0.00869750,-0.63609525

>  <Name>
ligand

>  <RI>
0

>  <Rbt.Current_Directory>
/home/itssahil/PROJECTS/Mol_Feturizer/New_Systems/rnas/1YLS

>  <Rbt.Executable>
rbdock ($Id: //depot/dev/client3/rdock/2013.1/src/exe/rbdock.cxx#4 $)

>  <Rbt.Library>
libRbt.so (2013.1, Build901 2013/11/27)

>  <Rbt.Parameter_File>
/export/apps/rDock/src/rDock_2013.1_src/data/scripts/dock_solv.prm

>  <Rbt.Receptor>
prm/pocket_docking_7.prm

>  <SCORE>
-34.7406

>  <SCORE.INTER>
-33.8361

>  <SCORE.INTER.CONST>
1

>  <SCORE.INTER.POLAR>
0

>  <SCORE.INTER.ROT>
5

>  <SCORE.INTER.SOLV>
7.11369

>  <SCORE.INTER.VDW>
-31.8619

>  <SCORE.INTER.norm>
-1.20843

>  <SCORE.INTRA>
-0.904491

>  <SCORE.INTRA.DIHEDRAL>
-3.97895

>  <SCORE.INTRA.DIHEDRAL.0>
12.0148

>  <SCORE.INTRA.POLAR>
0

>  <SCORE.INTRA.POLAR.0>
0

>  <SCORE.INTRA.REPUL>
0

>  <SCORE.INTRA.REPUL.0>
0

>  <SCORE.INTRA.SOLV>
0.412969

>  <SCORE.INTRA.SOLV.lig_0>
-10.5235

>  <SCORE.INTRA.VDW>
0.8785

>  <SCORE.INTRA.VDW.0>
-1.38455

>  <SCORE.INTRA.norm>
-0.0323033

>  <SCORE.RESTR>
0

>  <SCORE.RESTR.CAVITY>
0

>  <SCORE.RESTR.norm>
0

>  <SCORE.SYSTEM>
0

>  <SCORE.SYSTEM.CONST>
0

>  <SCORE.SYSTEM.DIHEDRAL>
0

>  <SCORE.SYSTEM.SOLV>
0

>  <SCORE.SYSTEM.norm>
0

>  <SCORE.heavy>
28

>  <SCORE.norm>
-1.24073

>  <RMSD>
1.050

$$$$
ligand
 OpenBabel11021811413D
libRbt.so/2013.1/901 2013/11/27
 28 32  0  0  0  0  0  0  0  0999 V2000
   42.6168   28.5935   22.3572 C   0  0  0  0  0  0  0  0  0  0  0  0
   42.8148   27.1008   22.1821 C   0  0  0  0  0  0  0  0  0  0  0  0
   42.3782   26.3277   23.4176 C   0  0  0  0  0  0  0  0  0  0  0  0
   34.4622   24.7819   24.1421 O   0  0  0  0  0  0  0  0  0  0  0  0
   35.1054   25.1378   25.3671 C   0  0  0  0  0  0  0  0  0  0  0  0
   38.7248   23.7562   28.4173 C   0  0  0  0  0  0  0  0  0  0  0  0
   38.6130   24.9426   29.1309 C   0  0  0  0  0  0  0  0  0  0  0  0
   37.6819   25.9039   28.7296 C   0  0  0  0  0  0  0  0  0  0  0  0
   36.8629   25.6808   27.6221 C   0  0  0  0  0  0  0  0  0  0  0  0
   36.1961   24.1214   25.7290 C   0  0  1  0  0  0  0  0  0  0  0  0
   36.9732   24.4866   26.9489 C   0  0  0  0  0  0  0  0  0  0  0  0
   37.8911   23.5467   27.3444 C   0  0  0  0  0  0  0  0  0  0  0  0
   37.9600   22.3637   26.5079 C   0  0  1  0  0  0  0  0  0  0  0  0
   36.3027   20.5111   26.6194 C   0  0  0  0  0  0  0  0  0  0  0  0
   36.6145   21.8297   26.3900 C   0  0  0  0  0  0  0  0  0  0  0  0
   35.6680   22.7329   25.9867 C   0  0  0  0  0  0  0  0  0  0  0  0
   34.3564   22.3226   25.7983 C   0  0  0  0  0  0  0  0  0  0  0  0
   34.0199   20.9903   26.0474 C   0  0  0  0  0  0  0  0  0  0  0  0
   34.9930   20.0894   26.4596 C   0  0  0  0  0  0  0  0  0  0  0  0
   40.8683   26.1268   23.4190 C   0  0  0  0  0  0  0  0  0  0  0  0
   40.3527   25.9702   24.8446 C   0  0  0  0  0  0  0  0  0  0  0  0
   37.7233   26.1972   24.1293 O   0  0  0  0  0  0  0  0  0  0  0  0
   40.6157   23.2436   25.5413 O   0  0  0  0  0  0  0  0  0  0  0  0
   39.5544   23.7098   25.1614 C   0  0  0  0  0  0  0  0  0  0  0  0
   39.3465   24.9205   24.8161 N   0  0  0  0  0  0  0  0  0  0  0  0
   38.1466   25.1308   24.4936 C   0  0  0  0  0  0  0  0  0  0  0  0
   37.2787   23.9313   24.6548 C   0  0  1  0  0  0  0  0  0  0  0  0
   38.3073   22.9000   25.1259 C   0  0  2  0  0  0  0  0  0  0  0  0
  1  2  1  0  0  0  0
  2  3  1  0  0  0  0
  3 20  1  0  0  0  0
  4  5  1  0  0  0  0
  6  7  2  0  0  0  0
  6 12  1  0  0  0  0
  7  8  1  0  0  0  0
  8  9  2  0  0  0  0
  9 11  1  0  0  0  0
 10  5  1  6  0  0  0
 10 11  1  0  0  0  0
 10 16  1  0  0  0  0
 10 27  1  0  0  0  0
 11 12  2  0  0  0  0
 13 12  1  1  0  0  0
 13 15  1  0  0  0  0
 13 28  1  0  0  0  0
 14 15  2  0  0  0  0
 14 19  1  0  0  0  0
 15 16  1  0  0  0  0
 16 17  2  0  0  0  0
 17 18  1  0  0  0  0
 18 19  2  0  0  0  0
 20 21  1  0  0  0  0
 21 25  1  0  0  0  0
 22 26  2  0  0  0  0
 23 24  2  0  0  0  0
 24 25  1  0  0  0  0
 25 26  1  0  0  0  0
 27 26  1  1  0  0  0
 27 28  1  0  0  0  0
 28 24  1  1  0  0  0
M  END
>  <CHROM.1>
81.42120574,175.91016773,-153.65200131,-139.28669113,99.58282448,38.04300895
24.29345626,25.50592069,0.63844665,-0.36359987,-1.04674453

>  <Name>
ligand

>  <RI>
0

>  <Rbt.Current_Directory>
/home/itssahil/PROJECTS/Mol_Feturizer/New_Systems/rnas/1YLS

>  <Rbt.Executable>
rbdock ($Id: //depot/dev/client3/rdock/2013.1/src/exe/rbdock.cxx#4 $)

>  <Rbt.Library>
libRbt.so (2013.1, Build901 2013/11/27)

>  <Rbt.Parameter_File>
/export/apps/rDock/src/rDock_2013.1_src/data/scripts/dock_solv.prm

>  <Rbt.Receptor>
prm/pocket_docking_3.prm

>  <SCORE>
-33.9806

>  <SCORE.INTER>
-33.957

>  <SCORE.INTER.CONST>
1

>  <SCORE.INTER.POLAR>
0

>  <SCORE.INTER.ROT>
5

>  <SCORE.INTER.SOLV>
7.44508

>  <SCORE.INTER.VDW>
-32.053

>  <SCORE.INTER.norm>
-1.21275

>  <SCORE.INTRA>
-0.0236554

>  <SCORE.INTRA.DIHEDRAL>
-1.30679

>  <SCORE.INTRA.DIHEDRAL.0>
12.0148

>  <SCORE.INTRA.POLAR>
0

>  <SCORE.INTRA.POLAR.0>
0

>  <SCORE.INTRA.REPUL>
0

>  <SCORE.INTRA.REPUL.0>
0

>  <SCORE.INTRA.SOLV>
0.209047

>  <SCORE.INTRA.SOLV.lig_0>
-10.5235

>  <SCORE.INTRA.VDW>
0.525216

>  <SCORE.INTRA.VDW.0>
-1.38455

>  <SCORE.INTRA.norm>
-0.000844837

>  <SCORE.RESTR>
0

>  <SCORE.RESTR.CAVITY>
0

>  <SCORE.RESTR.norm>
0

>  <SCORE.SYSTEM>
0

>  <SCORE.SYSTEM.CONST>
0

>  <SCORE.SYSTEM.DIHEDRAL>
0

>  <SCORE.SYSTEM.SOLV>
0

>  <SCORE.SYSTEM.norm>
0

>  <SCORE.heavy>
28

>  <SCORE.norm>
-1.21359

>  <RMSD>
1.052

$$$$
ligand
 OpenBabel11021811413D
libRbt.so/2013.1/901 2013/11/27
 28 32  0  0  0  0  0  0  0  0999 V2000
   43.8906   27.9968   22.1848 C   0  0  0  0  0  0  0  0  0  0  0  0
   42.6742   27.0948   22.1183 C   0  0  0  0  0  0  0  0  0  0  0  0
   41.7297   27.3387   23.2859 C   0  0  0  0  0  0  0  0  0  0  0  0
   33.9285   24.7486   24.3819 O   0  0  0  0  0  0  0  0  0  0  0  0
   34.6827   25.1533   25.5258 C   0  0  0  0  0  0  0  0  0  0  0  0
   38.6700   23.9911   28.1835 C   0  0  0  0  0  0  0  0  0  0  0  0
   38.5291   25.1421   28.9481 C   0  0  0  0  0  0  0  0  0  0  0  0
   37.4898   26.0331   28.6686 C   0  0  0  0  0  0  0  0  0  0  0  0
   36.5923   25.7749   27.6319 C   0  0  0  0  0  0  0  0  0  0  0  0
   35.8812   24.2220   25.7497 C   0  0  1  0  0  0  0  0  0  0  0  0
   36.7361   24.6149   26.9074 C   0  0  0  0  0  0  0  0  0  0  0  0
   37.7599   23.7441   27.1831 C   0  0  0  0  0  0  0  0  0  0  0  0
   37.8465   22.5966   26.3002 C   0  0  1  0  0  0  0  0  0  0  0  0
   36.3624   20.6086   26.4914 C   0  0  0  0  0  0  0  0  0  0  0  0
   36.5436   21.9550   26.2842 C   0  0  0  0  0  0  0  0  0  0  0  0
   35.4936   22.7869   26.0019 C   0  0  0  0  0  0  0  0  0  0  0  0
   34.2078   22.2735   25.9173 C   0  0  0  0  0  0  0  0  0  0  0  0
   34.0050   20.9107   26.1457 C   0  0  0  0  0  0  0  0  0  0  0  0
   35.0821   20.0831   26.4346 C   0  0  0  0  0  0  0  0  0  0  0  0
   40.6162   26.2995   23.3014 C   0  0  0  0  0  0  0  0  0  0  0  0
   39.7739   26.4396   24.5639 C   0  0  0  0  0  0  0  0  0  0  0  0
   37.0797   26.4657   24.0975 O   0  0  0  0  0  0  0  0  0  0  0  0
   40.3207   23.7252   25.1317 O   0  0  0  0  0  0  0  0  0  0  0  0
   39.1944   24.1116   24.8667 C   0  0  0  0  0  0  0  0  0  0  0  0
   38.8579   25.3103   24.5870 N   0  0  0  0  0  0  0  0  0  0  0  0
   37.6201   25.4283   24.3820 C   0  0  0  0  0  0  0  0  0  0  0  0
   36.8711   24.1557   24.5759 C   0  0  1  0  0  0  0  0  0  0  0  0
   38.0192   23.2011   24.9135 C   0  0  2  0  0  0  0  0  0  0  0  0
  1  2  1  0  0  0  0
  2  3  1  0  0  0  0
  3 20  1  0  0  0  0
  4  5  1  0  0  0  0
  6  7  2  0  0  0  0
  6 12  1  0  0  0  0
  7  8  1  0  0  0  0
  8  9  2  0  0  0  0
  9 11  1  0  0  0  0
 10  5  1  6  0  0  0
 10 11  1  0  0  0  0
 10 16  1  0  0  0  0
 10 27  1  0  0  0  0
 11 12  2  0  0  0  0
 13 12  1  1  0  0  0
 13 15  1  0  0  0  0
 13 28  1  0  0  0  0
 14 15  2  0  0  0  0
 14 19  1  0  0  0  0
 15 16  1  0  0  0  0
 16 17  2  0  0  0  0
 17 18  1  0  0  0  0
 18 19  2  0  0  0  0
 20 21  1  0  0  0  0
 21 25  1  0  0  0  0
 22 26  2  0  0  0  0
 23 24  2  0  0  0  0
 24 25  1  0  0  0  0
 25 26  1  0  0  0  0
 27 26  1  1  0  0  0
 27 28  1  0  0  0  0
 28 24  1  1  0  0  0
M  END
>  <CHROM.1>
-172.39592850,178.24192263,173.00858722,-172.54536395,74.19247124,37.82565014
24.46887669,25.41141221,0.63984240,-0.30965824,-1.00505460

>  <Name>
ligand

>  <RI>
0

>  <Rbt.Current_Directory>
/home/itssahil/PROJECTS/Mol_Feturizer/New_Systems/rnas/1YLS

>  <Rbt.Executable>
rbdock ($Id: //depot/dev/client3/rdock/2013.1/src/exe/rbdock.cxx#4 $)

>  <Rbt.Library>
libRbt.so (2013.1, Build901 2013/11/27)

>  <Rbt.Parameter_File>
/export/apps/rDock/src/rDock_2013.1_src/data/scripts/dock_solv.prm

>  <Rbt.Receptor>
prm/pocket_docking_5.prm

>  <SCORE>
-38.7544

>  <SCORE.INTER>
-34.419

>  <SCORE.INTER.CONST>
1

>  <SCORE.INTER.POLAR>
0

>  <SCORE.INTER.ROT>
5

>  <SCORE.INTER.SOLV>
7.80513

>  <SCORE.INTER.VDW>
-32.4811

>  <SCORE.INTER.norm>
-1.22925

>  <SCORE.INTRA>
-4.33534

>  <SCORE.INTRA.DIHEDRAL>
-9.07637

>  <SCORE.INTRA.DIHEDRAL.0>
12.0148

>  <SCORE.INTRA.POLAR>
0

>  <SCORE.INTRA.POLAR.0>
0

>  <SCORE.INTRA.REPUL>
0

>  <SCORE.INTRA.REPUL.0>
0

>  <SCORE.INTRA.SOLV>
0.172684

>  <SCORE.INTRA.SOLV.lig_0>
-10.5235

>  <SCORE.INTRA.VDW>
0.116504

>  <SCORE.INTRA.VDW.0>
-1.38455

>  <SCORE.INTRA.norm>
-0.154833

>  <SCORE.RESTR>
0

>  <SCORE.RESTR.CAVITY>
0

>  <SCORE.RESTR.norm>
0

>  <SCORE.SYSTEM>
0

>  <SCORE.SYSTEM.CONST>
0

>  <SCORE.SYSTEM.DIHEDRAL>
0

>  <SCORE.SYSTEM.SOLV>
0

>  <SCORE.SYSTEM.norm>
0

>  <SCORE.heavy>
28

>  <SCORE.norm>
-1.38408

>  <RMSD>
1.052

$$$$
ligand
 OpenBabel11021811413D
libRbt.so/2013.1/901 2013/11/27
 28 32  0  0  0  0  0  0  0  0999 V2000
   43.9504   27.8285   22.1567 C   0  0  0  0  0  0  0  0  0  0  0  0
   42.7275   26.9338   22.1121 C   0  0  0  0  0  0  0  0  0  0  0  0
   41.7986   27.1932   23.2889 C   0  0  0  0  0  0  0  0  0  0  0  0
   33.8960   24.6893   24.3902 O   0  0  0  0  0  0  0  0  0  0  0  0
   34.6873   25.1260   25.4966 C   0  0  0  0  0  0  0  0  0  0  0  0
   38.6643   23.9401   28.1593 C   0  0  0  0  0  0  0  0  0  0  0  0
   38.5319   25.0942   28.9208 C   0  0  0  0  0  0  0  0  0  0  0  0
   37.4996   25.9924   28.6385 C   0  0  0  0  0  0  0  0  0  0  0  0
   36.6006   25.7384   27.6021 C   0  0  0  0  0  0  0  0  0  0  0  0
   35.8784   24.1862   25.7235 C   0  0  1  0  0  0  0  0  0  0  0  0
   36.7358   24.5754   26.8806 C   0  0  0  0  0  0  0  0  0  0  0  0
   37.7528   23.6976   27.1591 C   0  0  0  0  0  0  0  0  0  0  0  0
   37.8310   22.5472   26.2791 C   0  0  1  0  0  0  0  0  0  0  0  0
   36.3317   20.5711   26.4747 C   0  0  0  0  0  0  0  0  0  0  0  0
   36.5233   21.9156   26.2642 C   0  0  0  0  0  0  0  0  0  0  0  0
   35.4798   22.7548   25.9792 C   0  0  0  0  0  0  0  0  0  0  0  0
   34.1901   22.2509   25.8953 C   0  0  0  0  0  0  0  0  0  0  0  0
   33.9768   20.8904   26.1271 C   0  0  0  0  0  0  0  0  0  0  0  0
   35.0474   20.0553   26.4187 C   0  0  0  0  0  0  0  0  0  0  0  0
   40.6184   26.2307   23.2632 C   0  0  0  0  0  0  0  0  0  0  0  0
   39.7886   26.3708   24.5339 C   0  0  0  0  0  0  0  0  0  0  0  0
   37.0948   26.4164   24.0661 O   0  0  0  0  0  0  0  0  0  0  0  0
   40.3143   23.6539   25.1089 O   0  0  0  0  0  0  0  0  0  0  0  0
   39.1912   24.0481   24.8424 C   0  0  0  0  0  0  0  0  0  0  0  0
   38.8639   25.2487   24.5594 N   0  0  0  0  0  0  0  0  0  0  0  0
   37.6272   25.3756   24.3536 C   0  0  0  0  0  0  0  0  0  0  0  0
   36.8684   24.1093   24.5504 C   0  0  1  0  0  0  0  0  0  0  0  0
   38.0090   23.1468   24.8910 C   0  0  2  0  0  0  0  0  0  0  0  0
  1  2  1  0  0  0  0
  2  3  1  0  0  0  0
  3 20  1  0  0  0  0
  4  5  1  0  0  0  0
  6  7  2  0  0  0  0
  6 12  1  0  0  0  0
  7  8  1  0  0  0  0
  8  9  2  0  0  0  0
  9 11  1  0  0  0  0
 10  5  1  6  0  0  0
 10 11  1  0  0  0  0
 10 16  1  0  0  0  0
 10 27  1  0  0  0  0
 11 12  2  0  0  0  0
 13 12  1  1  0  0  0
 13 15  1  0  0  0  0
 13 28  1  0  0  0  0
 14 15  2  0  0  0  0
 14 19  1  0  0  0  0
 15 16  1  0  0  0  0
 16 17  2  0  0  0  0
 17 18  1  0  0  0  0
 18 19  2  0  0  0  0
 20 21  1  0  0  0  0
 21 25  1  0  0  0  0
 22 26  2  0  0  0  0
 23 24  2  0  0  0  0
 24 25  1  0  0  0  0
 25 26  1  0  0  0  0
 27 26  1  1  0  0  0
 27 28  1  0  0  0  0
 28 24  1  1  0  0  0
M  END
>  <CHROM.1>
-176.87551871,-179.12242752,172.71343237,-168.49250076,74.89059193,37.82731063
24.40891278,25.38916806,0.63033492,-0.29643185,-1.00732815

>  <Name>
ligand

>  <RI>
0

>  <Rbt.Current_Directory>
/home/itssahil/PROJECTS/Mol_Feturizer/New_Systems/rnas/1YLS

>  <Rbt.Executable>
rbdock ($Id: //depot/dev/client3/rdock/2013.1/src/exe/rbdock.cxx#4 $)

>  <Rbt.Library>
libRbt.so (2013.1, Build901 2013/11/27)

>  <Rbt.Parameter_File>
/export/apps/rDock/src/rDock_2013.1_src/data/scripts/dock_solv.prm

>  <Rbt.Receptor>
prm/pocket_docking_6.prm

>  <SCORE>
-38.7911

>  <SCORE.INTER>
-34.5136

>  <SCORE.INTER.CONST>
1

>  <SCORE.INTER.POLAR>
0

>  <SCORE.INTER.ROT>
5

>  <SCORE.INTER.SOLV>
7.84821

>  <SCORE.INTER.VDW>
-32.5585

>  <SCORE.INTER.norm>
-1.23263

>  <SCORE.INTRA>
-4.2775

>  <SCORE.INTRA.DIHEDRAL>
-8.98139

>  <SCORE.INTRA.DIHEDRAL.0>
12.0148

>  <SCORE.INTRA.POLAR>
0

>  <SCORE.INTRA.POLAR.0>
0

>  <SCORE.INTRA.REPUL>
0

>  <SCORE.INTRA.REPUL.0>
0

>  <SCORE.INTRA.SOLV>
0.161952

>  <SCORE.INTRA.SOLV.lig_0>
-10.5235

>  <SCORE.INTRA.VDW>
0.132215

>  <SCORE.INTRA.VDW.0>
-1.38455

>  <SCORE.INTRA.norm>
-0.152768

>  <SCORE.RESTR>
0

>  <SCORE.RESTR.CAVITY>
0

>  <SCORE.RESTR.norm>
0

>  <SCORE.SYSTEM>
0

>  <SCORE.SYSTEM.CONST>
0

>  <SCORE.SYSTEM.DIHEDRAL>
0

>  <SCORE.SYSTEM.SOLV>
0

>  <SCORE.SYSTEM.norm>
0

>  <SCORE.heavy>
28

>  <SCORE.norm>
-1.3854

>  <RMSD>
1.052

$$$$
ligand
 OpenBabel11021811413D
libRbt.so/2013.1/901 2013/11/27
 28 32  0  0  0  0  0  0  0  0999 V2000
   43.6647   28.2265   22.4690 C   0  0  0  0  0  0  0  0  0  0  0  0
   42.6772   27.1568   22.8916 C   0  0  0  0  0  0  0  0  0  0  0  0
   41.2778   27.7252   23.0745 C   0  0  0  0  0  0  0  0  0  0  0  0
   34.3026   24.7831   24.1995 O   0  0  0  0  0  0  0  0  0  0  0  0
   34.9649   25.1144   25.4212 C   0  0  0  0  0  0  0  0  0  0  0  0
   38.7856   23.8165   28.2550 C   0  0  0  0  0  0  0  0  0  0  0  0
   38.6752   24.9908   28.9885 C   0  0  0  0  0  0  0  0  0  0  0  0
   37.6939   25.9260   28.6501 C   0  0  0  0  0  0  0  0  0  0  0  0
   36.8237   25.6888   27.5854 C   0  0  0  0  0  0  0  0  0  0  0  0
   36.1051   24.1297   25.7111 C   0  0  1  0  0  0  0  0  0  0  0  0
   36.9351   24.5063   26.8921 C   0  0  0  0  0  0  0  0  0  0  0  0
   37.9021   23.5921   27.2258 C   0  0  0  0  0  0  0  0  0  0  0  0
   37.9630   22.4212   26.3718 C   0  0  1  0  0  0  0  0  0  0  0  0
   36.3733   20.5152   26.5486 C   0  0  0  0  0  0  0  0  0  0  0  0
   36.6306   21.8456   26.3196 C   0  0  0  0  0  0  0  0  0  0  0  0
   35.6357   22.7222   25.9791 C   0  0  0  0  0  0  0  0  0  0  0  0
   34.3294   22.2720   25.8562 C   0  0  0  0  0  0  0  0  0  0  0  0
   34.0490   20.9270   26.1060 C   0  0  0  0  0  0  0  0  0  0  0  0
   35.0709   20.0533   26.4540 C   0  0  0  0  0  0  0  0  0  0  0  0
   40.2535   26.6035   23.1868 C   0  0  0  0  0  0  0  0  0  0  0  0
   40.1474   26.1208   24.6285 C   0  0  0  0  0  0  0  0  0  0  0  0
   37.4773   26.2710   24.0582 O   0  0  0  0  0  0  0  0  0  0  0  0
   40.5335   23.3965   25.2754 O   0  0  0  0  0  0  0  0  0  0  0  0
   39.4391   23.8325   24.9590 C   0  0  0  0  0  0  0  0  0  0  0  0
   39.1748   25.0397   24.6407 N   0  0  0  0  0  0  0  0  0  0  0  0
   37.9531   25.2148   24.3857 C   0  0  0  0  0  0  0  0  0  0  0  0
   37.1335   23.9863   24.5781 C   0  0  1  0  0  0  0  0  0  0  0  0
   38.2180   22.9835   24.9801 C   0  0  2  0  0  0  0  0  0  0  0  0
  1  2  1  0  0  0  0
  2  3  1  0  0  0  0
  3 20  1  0  0  0  0
  4  5  1  0  0  0  0
  6  7  2  0  0  0  0
  6 12  1  0  0  0  0
  7  8  1  0  0  0  0
  8  9  2  0  0  0  0
  9 11  1  0  0  0  0
 10  5  1  6  0  0  0
 10 11  1  0  0  0  0
 10 16  1  0  0  0  0
 10 27  1  0  0  0  0
 11 12  2  0  0  0  0
 13 12  1  1  0  0  0
 13 15  1  0  0  0  0
 13 28  1  0  0  0  0
 14 15  2  0  0  0  0
 14 19  1  0  0  0  0
 15 16  1  0  0  0  0
 16 17  2  0  0  0  0
 17 18  1  0  0  0  0
 18 19  2  0  0  0  0
 20 21  1  0  0  0  0
 21 25  1  0  0  0  0
 22 26  2  0  0  0  0
 23 24  2  0  0  0  0
 24 25  1  0  0  0  0
 25 26  1  0  0  0  0
 27 26  1  1  0  0  0
 27 28  1  0  0  0  0
 28 24  1  1  0  0  0
M  END
>  <CHROM.1>
167.21636381,173.55361303,85.83027103,-178.89003412,116.90809514,37.95929034
24.38774909,25.44623665,0.67687507,-0.32286438,-0.92984612

>  <Name>
ligand

>  <RI>
0

>  <Rbt.Current_Directory>
/home/itssahil/PROJECTS/Mol_Feturizer/New_Systems/rnas/1YLS

>  <Rbt.Executable>
rbdock ($Id: //depot/dev/client3/rdock/2013.1/src/exe/rbdock.cxx#4 $)

>  <Rbt.Library>
libRbt.so (2013.1, Build901 2013/11/27)

>  <Rbt.Parameter_File>
/export/apps/rDock/src/rDock_2013.1_src/data/scripts/dock_solv.prm

>  <Rbt.Receptor>
prm/pocket_docking_6.prm

>  <SCORE>
-36.8598

>  <SCORE.INTER>
-34.5004

>  <SCORE.INTER.CONST>
1

>  <SCORE.INTER.POLAR>
0

>  <SCORE.INTER.ROT>
5

>  <SCORE.INTER.SOLV>
8.17094

>  <SCORE.INTER.VDW>
-32.6573

>  <SCORE.INTER.norm>
-1.23216

>  <SCORE.INTRA>
-2.35934

>  <SCORE.INTRA.DIHEDRAL>
-6.48036

>  <SCORE.INTRA.DIHEDRAL.0>
12.0148

>  <SCORE.INTRA.POLAR>
0

>  <SCORE.INTRA.POLAR.0>
0

>  <SCORE.INTRA.REPUL>
0

>  <SCORE.INTRA.REPUL.0>
0

>  <SCORE.INTRA.SOLV>
0.212939

>  <SCORE.INTRA.SOLV.lig_0>
-10.5235

>  <SCORE.INTRA.VDW>
0.774371

>  <SCORE.INTRA.VDW.0>
-1.38455

>  <SCORE.INTRA.norm>
-0.0842622

>  <SCORE.RESTR>
0

>  <SCORE.RESTR.CAVITY>
0

>  <SCORE.RESTR.norm>
0

>  <SCORE.SYSTEM>
0

>  <SCORE.SYSTEM.CONST>
0

>  <SCORE.SYSTEM.DIHEDRAL>
0

>  <SCORE.SYSTEM.SOLV>
0

>  <SCORE.SYSTEM.norm>
0

>  <SCORE.heavy>
28

>  <SCORE.norm>
-1.31642

>  <RMSD>
1.053

$$$$
ligand
 OpenBabel11021811413D
libRbt.so/2013.1/901 2013/11/27
 28 32  0  0  0  0  0  0  0  0999 V2000
   43.9032   26.4440   21.8191 C   0  0  0  0  0  0  0  0  0  0  0  0
   42.4175   26.7445   21.8288 C   0  0  0  0  0  0  0  0  0  0  0  0
   41.7945   26.4533   23.1860 C   0  0  0  0  0  0  0  0  0  0  0  0
   35.0656   26.6022   25.7414 O   0  0  0  0  0  0  0  0  0  0  0  0
   34.6814   25.2281   25.6675 C   0  0  0  0  0  0  0  0  0  0  0  0
   38.7863   24.0335   28.1241 C   0  0  0  0  0  0  0  0  0  0  0  0
   38.6577   25.1523   28.9372 C   0  0  0  0  0  0  0  0  0  0  0  0
   37.5947   26.0356   28.7321 C   0  0  0  0  0  0  0  0  0  0  0  0
   36.6616   25.8017   27.7214 C   0  0  0  0  0  0  0  0  0  0  0  0
   35.9018   24.3094   25.8094 C   0  0  1  0  0  0  0  0  0  0  0  0
   36.7949   24.6725   26.9478 C   0  0  0  0  0  0  0  0  0  0  0  0
   37.8419   23.8093   27.1505 C   0  0  0  0  0  0  0  0  0  0  0  0
   37.9118   22.6976   26.2214 C   0  0  1  0  0  0  0  0  0  0  0  0
   36.4670   20.6791   26.3927 C   0  0  0  0  0  0  0  0  0  0  0  0
   36.6193   22.0352   26.2307 C   0  0  0  0  0  0  0  0  0  0  0  0
   35.5464   22.8594   26.0209 C   0  0  0  0  0  0  0  0  0  0  0  0
   34.2664   22.3279   25.9659 C   0  0  0  0  0  0  0  0  0  0  0  0
   34.0936   20.9544   26.1494 C   0  0  0  0  0  0  0  0  0  0  0  0
   35.1936   20.1346   26.3648 C   0  0  0  0  0  0  0  0  0  0  0  0
   40.2952   26.7208   23.1566 C   0  0  0  0  0  0  0  0  0  0  0  0
   39.7110   26.6354   24.5617 C   0  0  0  0  0  0  0  0  0  0  0  0
   37.0005   26.6338   24.2000 O   0  0  0  0  0  0  0  0  0  0  0  0
   40.3211   23.9111   25.0034 O   0  0  0  0  0  0  0  0  0  0  0  0
   39.1795   24.2882   24.7968 C   0  0  0  0  0  0  0  0  0  0  0  0
   38.8140   25.4908   24.5764 N   0  0  0  0  0  0  0  0  0  0  0  0
   37.5675   25.5956   24.4236 C   0  0  0  0  0  0  0  0  0  0  0  0
   36.8462   24.3042   24.5970 C   0  0  1  0  0  0  0  0  0  0  0  0
   38.0212   23.3570   24.8535 C   0  0  2  0  0  0  0  0  0  0  0  0
  1  2  1  0  0  0  0
  2  3  1  0  0  0  0
  3 20  1  0  0  0  0
  4  5  1  0  0  0  0
  6  7  2  0  0  0  0
  6 12  1  0  0  0  0
  7  8  1  0  0  0  0
  8  9  2  0  0  0  0
  9 11  1  0  0  0  0
 10  5  1  6  0  0  0
 10 11  1  0  0  0  0
 10 16  1  0  0  0  0
 10 27  1  0  0  0  0
 11 12  2  0  0  0  0
 13 12  1  1  0  0  0
 13 15  1  0  0  0  0
 13 28  1  0  0  0  0
 14 15  2  0  0  0  0
 14 19  1  0  0  0  0
 15 16  1  0  0  0  0
 16 17  2  0  0  0  0
 17 18  1  0  0  0  0
 18 19  2  0  0  0  0
 20 21  1  0  0  0  0
 21 25  1  0  0  0  0
 22 26  2  0  0  0  0
 23 24  2  0  0  0  0
 24 25  1  0  0  0  0
 25 26  1  0  0  0  0
 27 26  1  1  0  0  0
 27 28  1  0  0  0  0
 28 24  1  1  0  0  0
M  END
>  <CHROM.1>
-178.20037770,47.51766746,-171.36219016,-114.18109443,85.48333329,37.88305901
24.53510811,25.43400193,-0.44512902,-0.55570621,-3.07001329

>  <Name>
ligand

>  <RI>
0

>  <Rbt.Current_Directory>
/home/itssahil/PROJECTS/Mol_Feturizer/New_Systems/rnas/1YLS

>  <Rbt.Executable>
rbdock ($Id: //depot/dev/client3/rdock/2013.1/src/exe/rbdock.cxx#4 $)

>  <Rbt.Library>
libRbt.so (2013.1, Build901 2013/11/27)

>  <Rbt.Parameter_File>
/export/apps/rDock/src/rDock_2013.1_src/data/scripts/dock_solv.prm

>  <Rbt.Receptor>
prm/pocket_docking_3.prm

>  <SCORE>
-35.5665

>  <SCORE.INTER>
-34.9407

>  <SCORE.INTER.CONST>
1

>  <SCORE.INTER.POLAR>
0

>  <SCORE.INTER.ROT>
5

>  <SCORE.INTER.SOLV>
7.71377

>  <SCORE.INTER.VDW>
-32.7984

>  <SCORE.INTER.norm>
-1.24788

>  <SCORE.INTRA>
-0.625814

>  <SCORE.INTRA.DIHEDRAL>
-3.6085

>  <SCORE.INTRA.DIHEDRAL.0>
12.0148

>  <SCORE.INTRA.POLAR>
0

>  <SCORE.INTRA.POLAR.0>
0

>  <SCORE.INTRA.REPUL>
0

>  <SCORE.INTRA.REPUL.0>
0

>  <SCORE.INTRA.SOLV>
0.730416

>  <SCORE.INTRA.SOLV.lig_0>
-10.5235

>  <SCORE.INTRA.VDW>
0.813229

>  <SCORE.INTRA.VDW.0>
-1.38455

>  <SCORE.INTRA.norm>
-0.0223505

>  <SCORE.RESTR>
0

>  <SCORE.RESTR.CAVITY>
0

>  <SCORE.RESTR.norm>
0

>  <SCORE.SYSTEM>
0

>  <SCORE.SYSTEM.CONST>
0

>  <SCORE.SYSTEM.DIHEDRAL>
0

>  <SCORE.SYSTEM.SOLV>
0

>  <SCORE.SYSTEM.norm>
0

>  <SCORE.heavy>
28

>  <SCORE.norm>
-1.27023

>  <RMSD>
1.054

$$$$
ligand
 OpenBabel11021811413D
libRbt.so/2013.1/901 2013/11/27
 28 32  0  0  0  0  0  0  0  0999 V2000
   43.5666   26.3359   22.2830 C   0  0  0  0  0  0  0  0  0  0  0  0
   42.5229   27.4051   22.0275 C   0  0  0  0  0  0  0  0  0  0  0  0
   41.5915   27.5766   23.2183 C   0  0  0  0  0  0  0  0  0  0  0  0
   34.0212   24.6320   24.3181 O   0  0  0  0  0  0  0  0  0  0  0  0
   34.7204   25.0507   25.4916 C   0  0  0  0  0  0  0  0  0  0  0  0
   38.7177   24.0740   28.2083 C   0  0  0  0  0  0  0  0  0  0  0  0
   38.5238   25.2276   28.9572 C   0  0  0  0  0  0  0  0  0  0  0  0
   37.4544   26.0746   28.6552 C   0  0  0  0  0  0  0  0  0  0  0  0
   36.5797   25.7699   27.6116 C   0  0  0  0  0  0  0  0  0  0  0  0
   35.9510   24.1690   25.7403 C   0  0  1  0  0  0  0  0  0  0  0  0
   36.7765   24.6079   26.9028 C   0  0  0  0  0  0  0  0  0  0  0  0
   37.8297   23.7806   27.2006 C   0  0  0  0  0  0  0  0  0  0  0  0
   37.9707   22.6271   26.3326 C   0  0  1  0  0  0  0  0  0  0  0  0
   36.5619   20.5857   26.5310 C   0  0  0  0  0  0  0  0  0  0  0  0
   36.6937   21.9356   26.3097 C   0  0  0  0  0  0  0  0  0  0  0  0
   35.6159   22.7231   26.0054 C   0  0  0  0  0  0  0  0  0  0  0  0
   34.3519   22.1595   25.9124 C   0  0  0  0  0  0  0  0  0  0  0  0
   34.1989   20.7927   26.1550 C   0  0  0  0  0  0  0  0  0  0  0  0
   35.3035   20.0106   26.4661 C   0  0  0  0  0  0  0  0  0  0  0  0
   40.6218   26.4058   23.3139 C   0  0  0  0  0  0  0  0  0  0  0  0
   39.7695   26.5210   24.5721 C   0  0  0  0  0  0  0  0  0  0  0  0
   37.0819   26.4378   24.0748 O   0  0  0  0  0  0  0  0  0  0  0  0
   40.4134   23.8366   25.1788 O   0  0  0  0  0  0  0  0  0  0  0  0
   39.2763   24.1761   24.8964 C   0  0  0  0  0  0  0  0  0  0  0  0
   38.8973   25.3576   24.5984 N   0  0  0  0  0  0  0  0  0  0  0  0
   37.6584   25.4254   24.3780 C   0  0  0  0  0  0  0  0  0  0  0  0
   36.9566   24.1273   24.5787 C   0  0  1  0  0  0  0  0  0  0  0  0
   38.1365   23.2216   24.9409 C   0  0  2  0  0  0  0  0  0  0  0  0
  1  2  1  0  0  0  0
  2  3  1  0  0  0  0
  3 20  1  0  0  0  0
  4  5  1  0  0  0  0
  6  7  2  0  0  0  0
  6 12  1  0  0  0  0
  7  8  1  0  0  0  0
  8  9  2  0  0  0  0
  9 11  1  0  0  0  0
 10  5  1  6  0  0  0
 10 11  1  0  0  0  0
 10 16  1  0  0  0  0
 10 27  1  0  0  0  0
 11 12  2  0  0  0  0
 13 12  1  1  0  0  0
 13 15  1  0  0  0  0
 13 28  1  0  0  0  0
 14 15  2  0  0  0  0
 14 19  1  0  0  0  0
 15 16  1  0  0  0  0
 16 17  2  0  0  0  0
 17 18  1  0  0  0  0
 18 19  2  0  0  0  0
 20 21  1  0  0  0  0
 21 25  1  0  0  0  0
 22 26  2  0  0  0  0
 23 24  2  0  0  0  0
 24 25  1  0  0  0  0
 25 26  1  0  0  0  0
 27 26  1  1  0  0  0
 27 28  1  0  0  0  0
 28 24  1  1  0  0  0
M  END
>  <CHROM.1>
-73.67517332,176.27293910,175.25448727,-178.87763178,74.73295454,37.86753659
24.42063132,25.41417742,-0.68622104,0.18652527,2.27675040

>  <Name>
ligand

>  <RI>
0

>  <Rbt.Current_Directory>
/home/itssahil/PROJECTS/Mol_Feturizer/New_Systems/rnas/1YLS

>  <Rbt.Executable>
rbdock ($Id: //depot/dev/client3/rdock/2013.1/src/exe/rbdock.cxx#4 $)

>  <Rbt.Library>
libRbt.so (2013.1, Build901 2013/11/27)

>  <Rbt.Parameter_File>
/export/apps/rDock/src/rDock_2013.1_src/data/scripts/dock_solv.prm

>  <Rbt.Receptor>
prm/pocket_docking_7.prm

>  <SCORE>
-38.3493

>  <SCORE.INTER>
-34.883

>  <SCORE.INTER.CONST>
1

>  <SCORE.INTER.POLAR>
0

>  <SCORE.INTER.ROT>
5

>  <SCORE.INTER.SOLV>
7.80582

>  <SCORE.INTER.VDW>
-32.7906

>  <SCORE.INTER.norm>
-1.24582

>  <SCORE.INTRA>
-3.46634

>  <SCORE.INTRA.DIHEDRAL>
-8.8511

>  <SCORE.INTRA.DIHEDRAL.0>
12.0148

>  <SCORE.INTRA.POLAR>
0

>  <SCORE.INTRA.POLAR.0>
0

>  <SCORE.INTRA.REPUL>
0

>  <SCORE.INTRA.REPUL.0>
0

>  <SCORE.INTRA.SOLV>
0.163969

>  <SCORE.INTRA.SOLV.lig_0>
-10.5235

>  <SCORE.INTRA.VDW>
0.87723

>  <SCORE.INTRA.VDW.0>
-1.38455

>  <SCORE.INTRA.norm>
-0.123798

>  <SCORE.RESTR>
0

>  <SCORE.RESTR.CAVITY>
0

>  <SCORE.RESTR.norm>
0

>  <SCORE.SYSTEM>
0

>  <SCORE.SYSTEM.CONST>
0

>  <SCORE.SYSTEM.DIHEDRAL>
0

>  <SCORE.SYSTEM.SOLV>
0

>  <SCORE.SYSTEM.norm>
0

>  <SCORE.heavy>
28

>  <SCORE.norm>
-1.36962

>  <RMSD>
1.057

$$$$
ligand
 OpenBabel11021811413D
libRbt.so/2013.1/901 2013/11/27
 28 32  0  0  0  0  0  0  0  0999 V2000
   43.8579   28.0584   22.2053 C   0  0  0  0  0  0  0  0  0  0  0  0
   42.6475   27.1483   22.1375 C   0  0  0  0  0  0  0  0  0  0  0  0
   41.7187   27.3599   23.3240 C   0  0  0  0  0  0  0  0  0  0  0  0
   33.9720   24.7338   24.3136 O   0  0  0  0  0  0  0  0  0  0  0  0
   34.6719   25.1204   25.4975 C   0  0  0  0  0  0  0  0  0  0  0  0
   38.6334   24.0223   28.2202 C   0  0  0  0  0  0  0  0  0  0  0  0
   38.4712   25.1792   28.9715 C   0  0  0  0  0  0  0  0  0  0  0  0
   37.4274   26.0574   28.6693 C   0  0  0  0  0  0  0  0  0  0  0  0
   36.5465   25.7806   27.6232 C   0  0  0  0  0  0  0  0  0  0  0  0
   35.8760   24.2029   25.7467 C   0  0  1  0  0  0  0  0  0  0  0  0
   36.7112   24.6151   26.9119 C   0  0  0  0  0  0  0  0  0  0  0  0
   37.7395   23.7570   27.2100 C   0  0  0  0  0  0  0  0  0  0  0  0
   37.8490   22.6019   26.3395 C   0  0  1  0  0  0  0  0  0  0  0  0
   36.3815   20.6016   26.5299 C   0  0  0  0  0  0  0  0  0  0  0  0
   36.5527   21.9477   26.3121 C   0  0  0  0  0  0  0  0  0  0  0  0
   35.4987   22.7667   26.0075 C   0  0  0  0  0  0  0  0  0  0  0  0
   34.2192   22.2400   25.9105 C   0  0  0  0  0  0  0  0  0  0  0  0
   34.0263   20.8776   26.1494 C   0  0  0  0  0  0  0  0  0  0  0  0
   35.1071   20.0632   26.4610 C   0  0  0  0  0  0  0  0  0  0  0  0
   40.6182   26.3069   23.3382 C   0  0  0  0  0  0  0  0  0  0  0  0
   39.7632   26.4465   24.5922 C   0  0  0  0  0  0  0  0  0  0  0  0
   37.0754   26.4421   24.0891 O   0  0  0  0  0  0  0  0  0  0  0  0
   40.3281   23.7432   25.1937 O   0  0  0  0  0  0  0  0  0  0  0  0
   39.2019   24.1160   24.9097 C   0  0  0  0  0  0  0  0  0  0  0  0
   38.8578   25.3087   24.6138 N   0  0  0  0  0  0  0  0  0  0  0  0
   37.6218   25.4128   24.3910 C   0  0  0  0  0  0  0  0  0  0  0  0
   36.8824   24.1349   24.5871 C   0  0  1  0  0  0  0  0  0  0  0  0
   38.0349   23.1948   24.9495 C   0  0  2  0  0  0  0  0  0  0  0  0
  1  2  1  0  0  0  0
  2  3  1  0  0  0  0
  3 20  1  0  0  0  0
  4  5  1  0  0  0  0
  6  7  2  0  0  0  0
  6 12  1  0  0  0  0
  7  8  1  0  0  0  0
  8  9  2  0  0  0  0
  9 11  1  0  0  0  0
 10  5  1  6  0  0  0
 10 11  1  0  0  0  0
 10 16  1  0  0  0  0
 10 27  1  0  0  0  0
 11 12  2  0  0  0  0
 13 12  1  1  0  0  0
 13 15  1  0  0  0  0
 13 28  1  0  0  0  0
 14 15  2  0  0  0  0
 14 19  1  0  0  0  0
 15 16  1  0  0  0  0
 16 17  2  0  0  0  0
 17 18  1  0  0  0  0
 18 19  2  0  0  0  0
 20 21  1  0  0  0  0
 21 25  1  0  0  0  0
 22 26  2  0  0  0  0
 23 24  2  0  0  0  0
 24 25  1  0  0  0  0
 25 26  1  0  0  0  0
 27 26  1  1  0  0  0
 27 28  1  0  0  0  0
 28 24  1  1  0  0  0
M  END
>  <CHROM.1>
-172.07139793,175.63781328,175.05249533,-172.75258305,74.52517106,37.82018014
24.47052462,25.42677227,0.63537296,-0.33525823,-1.02818608

>  <Name>
ligand

>  <RI>
0

>  <Rbt.Current_Directory>
/home/itssahil/PROJECTS/Mol_Feturizer/New_Systems/rnas/1YLS

>  <Rbt.Executable>
rbdock ($Id: //depot/dev/client3/rdock/2013.1/src/exe/rbdock.cxx#4 $)

>  <Rbt.Library>
libRbt.so (2013.1, Build901 2013/11/27)

>  <Rbt.Parameter_File>
/export/apps/rDock/src/rDock_2013.1_src/data/scripts/dock_solv.prm

>  <Rbt.Receptor>
prm/pocket_docking_8.prm

>  <SCORE>
-38.7742

>  <SCORE.INTER>
-34.3939

>  <SCORE.INTER.CONST>
1

>  <SCORE.INTER.POLAR>
0

>  <SCORE.INTER.ROT>
5

>  <SCORE.INTER.SOLV>
7.7975

>  <SCORE.INTER.VDW>
-32.4617

>  <SCORE.INTER.norm>
-1.22835

>  <SCORE.INTRA>
-4.38037

>  <SCORE.INTRA.DIHEDRAL>
-9.1264

>  <SCORE.INTRA.DIHEDRAL.0>
12.0148

>  <SCORE.INTRA.POLAR>
0

>  <SCORE.INTRA.POLAR.0>
0

>  <SCORE.INTRA.REPUL>
0

>  <SCORE.INTRA.REPUL.0>
0

>  <SCORE.INTRA.SOLV>
0.187803

>  <SCORE.INTRA.SOLV.lig_0>
-10.5235

>  <SCORE.INTRA.VDW>
0.0889215

>  <SCORE.INTRA.VDW.0>
-1.38455

>  <SCORE.INTRA.norm>
-0.156442

>  <SCORE.RESTR>
0

>  <SCORE.RESTR.CAVITY>
0

>  <SCORE.RESTR.norm>
0

>  <SCORE.SYSTEM>
0

>  <SCORE.SYSTEM.CONST>
0

>  <SCORE.SYSTEM.DIHEDRAL>
0

>  <SCORE.SYSTEM.SOLV>
0

>  <SCORE.SYSTEM.norm>
0

>  <SCORE.heavy>
28

>  <SCORE.norm>
-1.38479

>  <RMSD>
1.057

$$$$
ligand
 OpenBabel11021811413D
libRbt.so/2013.1/901 2013/11/27
 28 32  0  0  0  0  0  0  0  0999 V2000
   43.8694   28.0639   22.2097 C   0  0  0  0  0  0  0  0  0  0  0  0
   42.7448   27.0475   22.2211 C   0  0  0  0  0  0  0  0  0  0  0  0
   41.7748   27.2960   23.3665 C   0  0  0  0  0  0  0  0  0  0  0  0
   33.9156   24.7910   24.4007 O   0  0  0  0  0  0  0  0  0  0  0  0
   34.6753   25.1775   25.5472 C   0  0  0  0  0  0  0  0  0  0  0  0
   38.6494   23.9457   28.1933 C   0  0  0  0  0  0  0  0  0  0  0  0
   38.5206   25.0902   28.9697 C   0  0  0  0  0  0  0  0  0  0  0  0
   37.4908   25.9950   28.6994 C   0  0  0  0  0  0  0  0  0  0  0  0
   36.5908   25.7570   27.6600 C   0  0  0  0  0  0  0  0  0  0  0  0
   35.8638   24.2313   25.7616 C   0  0  1  0  0  0  0  0  0  0  0  0
   36.7225   24.6031   26.9234 C   0  0  0  0  0  0  0  0  0  0  0  0
   37.7370   23.7188   27.1903 C   0  0  0  0  0  0  0  0  0  0  0  0
   37.8117   22.5796   26.2954 C   0  0  1  0  0  0  0  0  0  0  0  0
   36.3067   20.6055   26.4658 C   0  0  0  0  0  0  0  0  0  0  0  0
   36.5021   21.9520   26.2727 C   0  0  0  0  0  0  0  0  0  0  0  0
   35.4611   22.7979   25.9988 C   0  0  0  0  0  0  0  0  0  0  0  0
   34.1699   22.2989   25.9087 C   0  0  0  0  0  0  0  0  0  0  0  0
   33.9527   20.9361   26.1230 C   0  0  0  0  0  0  0  0  0  0  0  0
   35.0209   20.0942   26.4035 C   0  0  0  0  0  0  0  0  0  0  0  0
   40.6878   26.2292   23.3901 C   0  0  0  0  0  0  0  0  0  0  0  0
   39.7800   26.4198   24.5994 C   0  0  0  0  0  0  0  0  0  0  0  0
   37.0863   26.4792   24.1329 O   0  0  0  0  0  0  0  0  0  0  0  0
   40.2980   23.6942   25.1391 O   0  0  0  0  0  0  0  0  0  0  0  0
   39.1759   24.0951   24.8780 C   0  0  0  0  0  0  0  0  0  0  0  0
   38.8521   25.3001   24.6107 N   0  0  0  0  0  0  0  0  0  0  0  0
   37.6157   25.4333   24.4068 C   0  0  0  0  0  0  0  0  0  0  0  0
   36.8532   24.1668   24.5874 C   0  0  1  0  0  0  0  0  0  0  0  0
   37.9912   23.1967   24.9152 C   0  0  2  0  0  0  0  0  0  0  0  0
  1  2  1  0  0  0  0
  2  3  1  0  0  0  0
  3 20  1  0  0  0  0
  4  5  1  0  0  0  0
  6  7  2  0  0  0  0
  6 12  1  0  0  0  0
  7  8  1  0  0  0  0
  8  9  2  0  0  0  0
  9 11  1  0  0  0  0
 10  5  1  6  0  0  0
 10 11  1  0  0  0  0
 10 16  1  0  0  0  0
 10 27  1  0  0  0  0
 11 12  2  0  0  0  0
 13 12  1  1  0  0  0
 13 15  1  0  0  0  0
 13 28  1  0  0  0  0
 14 15  2  0  0  0  0
 14 19  1  0  0  0  0
 15 16  1  0  0  0  0
 16 17  2  0  0  0  0
 17 18  1  0  0  0  0
 18 19  2  0  0  0  0
 20 21  1  0  0  0  0
 21 25  1  0  0  0  0
 22 26  2  0  0  0  0
 23 24  2  0  0  0  0
 24 25  1  0  0  0  0
 25 26  1  0  0  0  0
 27 26  1  1  0  0  0
 27 28  1  0  0  0  0
 28 24  1  1  0  0  0
M  END
>  <CHROM.1>
-177.68241112,178.36178661,175.73044543,-175.07290095,70.18291752,37.81484210
24.46187418,25.43084618,0.63481899,-0.29507451,-0.98439017

>  <Name>
ligand

>  <RI>
0

>  <Rbt.Current_Directory>
/home/itssahil/PROJECTS/Mol_Feturizer/New_Systems/rnas/1YLS

>  <Rbt.Executable>
rbdock ($Id: //depot/dev/client3/rdock/2013.1/src/exe/rbdock.cxx#4 $)

>  <Rbt.Library>
libRbt.so (2013.1, Build901 2013/11/27)

>  <Rbt.Parameter_File>
/export/apps/rDock/src/rDock_2013.1_src/data/scripts/dock_solv.prm

>  <Rbt.Receptor>
prm/pocket_docking_8.prm

>  <SCORE>
-38.8316

>  <SCORE.INTER>
-34.3845

>  <SCORE.INTER.CONST>
1

>  <SCORE.INTER.POLAR>
0

>  <SCORE.INTER.ROT>
5

>  <SCORE.INTER.SOLV>
7.71135

>  <SCORE.INTER.VDW>
-32.4268

>  <SCORE.INTER.norm>
-1.22802

>  <SCORE.INTRA>
-4.4471

>  <SCORE.INTRA.DIHEDRAL>
-9.50341

>  <SCORE.INTRA.DIHEDRAL.0>
12.0148

>  <SCORE.INTRA.POLAR>
0

>  <SCORE.INTRA.POLAR.0>
0

>  <SCORE.INTRA.REPUL>
0

>  <SCORE.INTRA.REPUL.0>
0

>  <SCORE.INTRA.SOLV>
0.175391

>  <SCORE.INTRA.SOLV.lig_0>
-10.5235

>  <SCORE.INTRA.VDW>
0.216904

>  <SCORE.INTRA.VDW.0>
-1.38455

>  <SCORE.INTRA.norm>
-0.158825

>  <SCORE.RESTR>
0

>  <SCORE.RESTR.CAVITY>
0

>  <SCORE.RESTR.norm>
0

>  <SCORE.SYSTEM>
0

>  <SCORE.SYSTEM.CONST>
0

>  <SCORE.SYSTEM.DIHEDRAL>
0

>  <SCORE.SYSTEM.SOLV>
0

>  <SCORE.SYSTEM.norm>
0

>  <SCORE.heavy>
28

>  <SCORE.norm>
-1.38684

>  <RMSD>
1.061

$$$$
ligand
 OpenBabel11021811413D
libRbt.so/2013.1/901 2013/11/27
 28 32  0  0  0  0  0  0  0  0999 V2000
   43.8261   25.8030   23.3686 C   0  0  0  0  0  0  0  0  0  0  0  0
   42.9477   26.8735   23.9853 C   0  0  0  0  0  0  0  0  0  0  0  0
   41.7120   27.1421   23.1393 C   0  0  0  0  0  0  0  0  0  0  0  0
   35.3539   25.9602   25.0623 O   0  0  0  0  0  0  0  0  0  0  0  0
   34.9927   24.5825   25.1740 C   0  0  0  0  0  0  0  0  0  0  0  0
   38.6442   23.9502   28.4266 C   0  0  0  0  0  0  0  0  0  0  0  0
   38.3746   25.1818   29.0095 C   0  0  0  0  0  0  0  0  0  0  0  0
   37.3536   25.9820   28.4905 C   0  0  0  0  0  0  0  0  0  0  0  0
   36.6020   25.5533   27.3957 C   0  0  0  0  0  0  0  0  0  0  0  0
   36.1797   23.7425   25.6629 C   0  0  1  0  0  0  0  0  0  0  0  0
   36.8698   24.3181   26.8537 C   0  0  0  0  0  0  0  0  0  0  0  0
   37.8753   23.5368   27.3645 C   0  0  0  0  0  0  0  0  0  0  0  0
   38.1060   22.2911   26.6581 C   0  0  1  0  0  0  0  0  0  0  0  0
   36.6679   20.2787   26.9286 C   0  0  0  0  0  0  0  0  0  0  0  0
   36.8348   21.5945   26.5689 C   0  0  0  0  0  0  0  0  0  0  0  0
   35.8052   22.3353   26.0536 C   0  0  0  0  0  0  0  0  0  0  0  0
   34.5558   21.7576   25.8820 C   0  0  0  0  0  0  0  0  0  0  0  0
   34.3654   20.4274   26.2623 C   0  0  0  0  0  0  0  0  0  0  0  0
   35.4208   19.6929   26.7868 C   0  0  0  0  0  0  0  0  0  0  0  0
   40.7132   25.9995   23.2706 C   0  0  0  0  0  0  0  0  0  0  0  0
   40.1252   25.9644   24.6762 C   0  0  0  0  0  0  0  0  0  0  0  0
   37.5118   25.8090   23.8866 O   0  0  0  0  0  0  0  0  0  0  0  0
   40.6743   23.3722   25.6600 O   0  0  0  0  0  0  0  0  0  0  0  0
   39.5798   23.6703   25.2114 C   0  0  0  0  0  0  0  0  0  0  0  0
   39.2467   24.8071   24.7369 N   0  0  0  0  0  0  0  0  0  0  0  0
   38.0418   24.8419   24.3693 C   0  0  0  0  0  0  0  0  0  0  0  0
   37.3115   23.5719   24.6373 C   0  0  1  0  0  0  0  0  0  0  0  0
   38.4350   22.7211   25.2350 C   0  0  2  0  0  0  0  0  0  0  0  0
  1  2  1  0  0  0  0
  2  3  1  0  0  0  0
  3 20  1  0  0  0  0
  4  5  1  0  0  0  0
  6  7  2  0  0  0  0
  6 12  1  0  0  0  0
  7  8  1  0  0  0  0
  8  9  2  0  0  0  0
  9 11  1  0  0  0  0
 10  5  1  6  0  0  0
 10 11  1  0  0  0  0
 10 16  1  0  0  0  0
 10 27  1  0  0  0  0
 11 12  2  0  0  0  0
 13 12  1  1  0  0  0
 13 15  1  0  0  0  0
 13 28  1  0  0  0  0
 14 15  2  0  0  0  0
 14 19  1  0  0  0  0
 15 16  1  0  0  0  0
 16 17  2  0  0  0  0
 17 18  1  0  0  0  0
 18 19  2  0  0  0  0
 20 21  1  0  0  0  0
 21 25  1  0  0  0  0
 22 26  2  0  0  0  0
 23 24  2  0  0  0  0
 24 25  1  0  0  0  0
 25 26  1  0  0  0  0
 27 26  1  1  0  0  0
 27 28  1  0  0  0  0
 28 24  1  1  0  0  0
M  END
>  <CHROM.1>
73.65671585,48.23550147,68.12698337,-176.83309363,97.17089238,38.11134454
24.09436545,25.63932182,-0.65145151,-0.22407830,2.85636300

>  <Name>
ligand

>  <RI>
0

>  <Rbt.Current_Directory>
/home/itssahil/PROJECTS/Mol_Feturizer/New_Systems/rnas/1YLS

>  <Rbt.Executable>
rbdock ($Id: //depot/dev/client3/rdock/2013.1/src/exe/rbdock.cxx#4 $)

>  <Rbt.Library>
libRbt.so (2013.1, Build901 2013/11/27)

>  <Rbt.Parameter_File>
/export/apps/rDock/src/rDock_2013.1_src/data/scripts/dock_solv.prm

>  <Rbt.Receptor>
prm/pocket_docking_2.prm

>  <SCORE>
-33.5888

>  <SCORE.INTER>
-32.2146

>  <SCORE.INTER.CONST>
1

>  <SCORE.INTER.POLAR>
0

>  <SCORE.INTER.ROT>
5

>  <SCORE.INTER.SOLV>
7.04269

>  <SCORE.INTER.VDW>
-30.7573

>  <SCORE.INTER.norm>
-1.15052

>  <SCORE.INTRA>
-1.37671

>  <SCORE.INTRA.DIHEDRAL>
-8.31708

>  <SCORE.INTRA.DIHEDRAL.0>
12.0148

>  <SCORE.INTRA.POLAR>
0

>  <SCORE.INTRA.POLAR.0>
0

>  <SCORE.INTRA.REPUL>
0

>  <SCORE.INTRA.REPUL.0>
0

>  <SCORE.INTRA.SOLV>
0.596836

>  <SCORE.INTRA.SOLV.lig_0>
-10.5235

>  <SCORE.INTRA.VDW>
2.48341

>  <SCORE.INTRA.VDW.0>
-1.38455

>  <SCORE.INTRA.norm>
-0.0491684

>  <SCORE.RESTR>
0.00247751

>  <SCORE.RESTR.CAVITY>
0.00247751

>  <SCORE.RESTR.norm>
8.84825e-05

>  <SCORE.SYSTEM>
0

>  <SCORE.SYSTEM.CONST>
0

>  <SCORE.SYSTEM.DIHEDRAL>
0

>  <SCORE.SYSTEM.SOLV>
0

>  <SCORE.SYSTEM.norm>
0

>  <SCORE.heavy>
28

>  <SCORE.norm>
-1.1996

>  <RMSD>
1.062

$$$$
ligand
 OpenBabel11021811413D
libRbt.so/2013.1/901 2013/11/27
 28 32  0  0  0  0  0  0  0  0999 V2000
   43.8580   28.0685   22.1868 C   0  0  0  0  0  0  0  0  0  0  0  0
   42.7281   27.0579   22.1886 C   0  0  0  0  0  0  0  0  0  0  0  0
   41.7600   27.2999   23.3371 C   0  0  0  0  0  0  0  0  0  0  0  0
   33.8907   24.7463   24.4109 O   0  0  0  0  0  0  0  0  0  0  0  0
   34.6684   25.1578   25.5366 C   0  0  0  0  0  0  0  0  0  0  0  0
   38.6581   23.9573   28.1735 C   0  0  0  0  0  0  0  0  0  0  0  0
   38.5257   25.1040   28.9461 C   0  0  0  0  0  0  0  0  0  0  0  0
   37.4902   26.0022   28.6759 C   0  0  0  0  0  0  0  0  0  0  0  0
   36.5879   25.7555   27.6405 C   0  0  0  0  0  0  0  0  0  0  0  0
   35.8627   24.2188   25.7504 C   0  0  1  0  0  0  0  0  0  0  0  0
   36.7233   24.5995   26.9078 C   0  0  0  0  0  0  0  0  0  0  0  0
   37.7435   23.7217   27.1745 C   0  0  0  0  0  0  0  0  0  0  0  0
   37.8213   22.5796   26.2837 C   0  0  1  0  0  0  0  0  0  0  0  0
   36.3275   20.5981   26.4666 C   0  0  0  0  0  0  0  0  0  0  0  0
   36.5150   21.9449   26.2678 C   0  0  0  0  0  0  0  0  0  0  0  0
   35.4685   22.7841   25.9943 C   0  0  0  0  0  0  0  0  0  0  0  0
   34.1798   22.2779   25.9105 C   0  0  0  0  0  0  0  0  0  0  0  0
   33.9706   20.9148   26.1306 C   0  0  0  0  0  0  0  0  0  0  0  0
   35.0443   20.0796   26.4106 C   0  0  0  0  0  0  0  0  0  0  0  0
   40.6950   26.2117   23.3795 C   0  0  0  0  0  0  0  0  0  0  0  0
   39.7630   26.4240   24.5666 C   0  0  0  0  0  0  0  0  0  0  0  0
   37.0675   26.4671   24.1091 O   0  0  0  0  0  0  0  0  0  0  0  0
   40.2976   23.7032   25.1147 O   0  0  0  0  0  0  0  0  0  0  0  0
   39.1724   24.0971   24.8559 C   0  0  0  0  0  0  0  0  0  0  0  0
   38.8412   25.2993   24.5852 N   0  0  0  0  0  0  0  0  0  0  0  0
   37.6034   25.4251   24.3850 C   0  0  0  0  0  0  0  0  0  0  0  0
   36.8484   24.1552   24.5730 C   0  0  1  0  0  0  0  0  0  0  0  0
   37.9927   23.1924   24.9005 C   0  0  2  0  0  0  0  0  0  0  0  0
  1  2  1  0  0  0  0
  2  3  1  0  0  0  0
  3 20  1  0  0  0  0
  4  5  1  0  0  0  0
  6  7  2  0  0  0  0
  6 12  1  0  0  0  0
  7  8  1  0  0  0  0
  8  9  2  0  0  0  0
  9 11  1  0  0  0  0
 10  5  1  6  0  0  0
 10 11  1  0  0  0  0
 10 16  1  0  0  0  0
 10 27  1  0  0  0  0
 11 12  2  0  0  0  0
 13 12  1  1  0  0  0
 13 15  1  0  0  0  0
 13 28  1  0  0  0  0
 14 15  2  0  0  0  0
 14 19  1  0  0  0  0
 15 16  1  0  0  0  0
 16 17  2  0  0  0  0
 17 18  1  0  0  0  0
 18 19  2  0  0  0  0
 20 21  1  0  0  0  0
 21 25  1  0  0  0  0
 22 26  2  0  0  0  0
 23 24  2  0  0  0  0
 24 25  1  0  0  0  0
 25 26  1  0  0  0  0
 27 26  1  1  0  0  0
 27 28  1  0  0  0  0
 28 24  1  1  0  0  0
M  END
>  <CHROM.1>
-175.74418925,179.59024494,177.57220662,-176.18384779,68.49972947,37.81346637
24.45625131,25.41597556,0.63971532,-0.29146116,-0.97822380

>  <Name>
ligand

>  <RI>
0

>  <Rbt.Current_Directory>
/home/itssahil/PROJECTS/Mol_Feturizer/New_Systems/rnas/1YLS

>  <Rbt.Executable>
rbdock ($Id: //depot/dev/client3/rdock/2013.1/src/exe/rbdock.cxx#4 $)

>  <Rbt.Library>
libRbt.so (2013.1, Build901 2013/11/27)

>  <Rbt.Parameter_File>
/export/apps/rDock/src/rDock_2013.1_src/data/scripts/dock_solv.prm

>  <Rbt.Receptor>
prm/pocket_docking_6.prm

>  <SCORE>
-38.783

>  <SCORE.INTER>
-34.3878

>  <SCORE.INTER.CONST>
1

>  <SCORE.INTER.POLAR>
0

>  <SCORE.INTER.ROT>
5

>  <SCORE.INTER.SOLV>
7.79049

>  <SCORE.INTER.VDW>
-32.4554

>  <SCORE.INTER.norm>
-1.22814

>  <SCORE.INTRA>
-4.39516

>  <SCORE.INTRA.DIHEDRAL>
-9.52636

>  <SCORE.INTRA.DIHEDRAL.0>
12.0148

>  <SCORE.INTRA.POLAR>
0

>  <SCORE.INTRA.POLAR.0>
0

>  <SCORE.INTRA.REPUL>
0

>  <SCORE.INTRA.REPUL.0>
0

>  <SCORE.INTRA.SOLV>
0.169385

>  <SCORE.INTRA.SOLV.lig_0>
-10.5235

>  <SCORE.INTRA.VDW>
0.283331

>  <SCORE.INTRA.VDW.0>
-1.38455

>  <SCORE.INTRA.norm>
-0.15697

>  <SCORE.RESTR>
0

>  <SCORE.RESTR.CAVITY>
0

>  <SCORE.RESTR.norm>
0

>  <SCORE.SYSTEM>
0

>  <SCORE.SYSTEM.CONST>
0

>  <SCORE.SYSTEM.DIHEDRAL>
0

>  <SCORE.SYSTEM.SOLV>
0

>  <SCORE.SYSTEM.norm>
0

>  <SCORE.heavy>
28

>  <SCORE.norm>
-1.38511

>  <RMSD>
1.063

$$$$
ligand
 OpenBabel11021811413D
libRbt.so/2013.1/901 2013/11/27
 28 32  0  0  0  0  0  0  0  0999 V2000
   43.8663   28.0389   22.1961 C   0  0  0  0  0  0  0  0  0  0  0  0
   42.6263   27.1699   22.1234 C   0  0  0  0  0  0  0  0  0  0  0  0
   41.7567   27.3274   23.3618 C   0  0  0  0  0  0  0  0  0  0  0  0
   33.9139   24.7505   24.4225 O   0  0  0  0  0  0  0  0  0  0  0  0
   34.6802   25.1541   25.5587 C   0  0  0  0  0  0  0  0  0  0  0  0
   38.6686   23.9612   28.2010 C   0  0  0  0  0  0  0  0  0  0  0  0
   38.5283   25.1035   28.9787 C   0  0  0  0  0  0  0  0  0  0  0  0
   37.4890   25.9978   28.7100 C   0  0  0  0  0  0  0  0  0  0  0  0
   36.5909   25.7515   27.6708 C   0  0  0  0  0  0  0  0  0  0  0  0
   35.8787   24.2202   25.7713 C   0  0  1  0  0  0  0  0  0  0  0  0
   36.7342   24.5997   26.9330 C   0  0  0  0  0  0  0  0  0  0  0  0
   37.7580   23.7258   27.1983 C   0  0  0  0  0  0  0  0  0  0  0  0
   37.8441   22.5884   26.3023 C   0  0  1  0  0  0  0  0  0  0  0  0
   36.3599   20.5985   26.4715 C   0  0  0  0  0  0  0  0  0  0  0  0
   36.5411   21.9472   26.2797 C   0  0  0  0  0  0  0  0  0  0  0  0
   35.4911   22.7824   26.0073 C   0  0  0  0  0  0  0  0  0  0  0  0
   34.2052   22.2700   25.9175 C   0  0  0  0  0  0  0  0  0  0  0  0
   34.0024   20.9048   26.1305 C   0  0  0  0  0  0  0  0  0  0  0  0
   35.0795   20.0738   26.4095 C   0  0  0  0  0  0  0  0  0  0  0  0
   40.6041   26.3319   23.3382 C   0  0  0  0  0  0  0  0  0  0  0  0
   39.7711   26.4508   24.6090 C   0  0  0  0  0  0  0  0  0  0  0  0
   37.0766   26.4825   24.1442 O   0  0  0  0  0  0  0  0  0  0  0  0
   40.3179   23.7301   25.1456 O   0  0  0  0  0  0  0  0  0  0  0  0
   39.1915   24.1195   24.8856 C   0  0  0  0  0  0  0  0  0  0  0  0
   38.8549   25.3214   24.6197 N   0  0  0  0  0  0  0  0  0  0  0  0
   37.6170   25.4419   24.4167 C   0  0  0  0  0  0  0  0  0  0  0  0
   36.8680   24.1672   24.5964 C   0  0  1  0  0  0  0  0  0  0  0  0
   38.0162   23.2087   24.9226 C   0  0  2  0  0  0  0  0  0  0  0  0
  1  2  1  0  0  0  0
  2  3  1  0  0  0  0
  3 20  1  0  0  0  0
  4  5  1  0  0  0  0
  6  7  2  0  0  0  0
  6 12  1  0  0  0  0
  7  8  1  0  0  0  0
  8  9  2  0  0  0  0
  9 11  1  0  0  0  0
 10  5  1  6  0  0  0
 10 11  1  0  0  0  0
 10 16  1  0  0  0  0
 10 27  1  0  0  0  0
 11 12  2  0  0  0  0
 13 12  1  1  0  0  0
 13 15  1  0  0  0  0
 13 28  1  0  0  0  0
 14 15  2  0  0  0  0
 14 19  1  0  0  0  0
 15 16  1  0  0  0  0
 16 17  2  0  0  0  0
 17 18  1  0  0  0  0
 18 19  2  0  0  0  0
 20 21  1  0  0  0  0
 21 25  1  0  0  0  0
 22 26  2  0  0  0  0
 23 24  2  0  0  0  0
 24 25  1  0  0  0  0
 25 26  1  0  0  0  0
 27 26  1  1  0  0  0
 27 28  1  0  0  0  0
 28 24  1  1  0  0  0
M  END
>  <CHROM.1>
-173.57483492,179.12063045,177.50301539,-169.90882905,74.69327982,37.82082615
24.47062140,25.43224250,0.63758287,-0.32113381,-1.01160762

>  <Name>
ligand

>  <RI>
0

>  <Rbt.Current_Directory>
/home/itssahil/PROJECTS/Mol_Feturizer/New_Systems/rnas/1YLS

>  <Rbt.Executable>
rbdock ($Id: //depot/dev/client3/rdock/2013.1/src/exe/rbdock.cxx#4 $)

>  <Rbt.Library>
libRbt.so (2013.1, Build901 2013/11/27)

>  <Rbt.Parameter_File>
/export/apps/rDock/src/rDock_2013.1_src/data/scripts/dock_solv.prm

>  <Rbt.Receptor>
prm/pocket_docking_7.prm

>  <SCORE>
-38.8021

>  <SCORE.INTER>
-34.423

>  <SCORE.INTER.CONST>
1

>  <SCORE.INTER.POLAR>
0

>  <SCORE.INTER.ROT>
5

>  <SCORE.INTER.SOLV>
7.7444

>  <SCORE.INTER.VDW>
-32.4635

>  <SCORE.INTER.norm>
-1.22939

>  <SCORE.INTRA>
-4.37908

>  <SCORE.INTRA.DIHEDRAL>
-9.16017

>  <SCORE.INTRA.DIHEDRAL.0>
12.0148

>  <SCORE.INTRA.POLAR>
0

>  <SCORE.INTRA.POLAR.0>
0

>  <SCORE.INTRA.REPUL>
0

>  <SCORE.INTRA.REPUL.0>
0

>  <SCORE.INTRA.SOLV>
0.170592

>  <SCORE.INTRA.SOLV.lig_0>
-10.5235

>  <SCORE.INTRA.VDW>
0.115705

>  <SCORE.INTRA.VDW.0>
-1.38455

>  <SCORE.INTRA.norm>
-0.156396

>  <SCORE.RESTR>
0

>  <SCORE.RESTR.CAVITY>
0

>  <SCORE.RESTR.norm>
0

>  <SCORE.SYSTEM>
0

>  <SCORE.SYSTEM.CONST>
0

>  <SCORE.SYSTEM.DIHEDRAL>
0

>  <SCORE.SYSTEM.SOLV>
0

>  <SCORE.SYSTEM.norm>
0

>  <SCORE.heavy>
28

>  <SCORE.norm>
-1.38579

>  <RMSD>
1.063

$$$$
ligand
 OpenBabel11021811413D
libRbt.so/2013.1/901 2013/11/27
 28 32  0  0  0  0  0  0  0  0999 V2000
   43.9403   27.9469   22.2466 C   0  0  0  0  0  0  0  0  0  0  0  0
   42.7069   27.0696   22.1630 C   0  0  0  0  0  0  0  0  0  0  0  0
   41.7803   27.2891   23.3496 C   0  0  0  0  0  0  0  0  0  0  0  0
   33.8913   24.8005   24.3930 O   0  0  0  0  0  0  0  0  0  0  0  0
   34.6647   25.2001   25.5258 C   0  0  0  0  0  0  0  0  0  0  0  0
   38.6394   23.9673   28.1705 C   0  0  0  0  0  0  0  0  0  0  0  0
   38.5115   25.1121   28.9466 C   0  0  0  0  0  0  0  0  0  0  0  0
   37.4820   26.0173   28.6764 C   0  0  0  0  0  0  0  0  0  0  0  0
   36.5815   25.7794   27.6374 C   0  0  0  0  0  0  0  0  0  0  0  0
   35.8528   24.2534   25.7400 C   0  0  1  0  0  0  0  0  0  0  0  0
   36.7122   24.6252   26.9013 C   0  0  0  0  0  0  0  0  0  0  0  0
   37.7264   23.7405   27.1680 C   0  0  0  0  0  0  0  0  0  0  0  0
   37.8001   22.6009   26.2735 C   0  0  1  0  0  0  0  0  0  0  0  0
   36.2941   20.6277   26.4454 C   0  0  0  0  0  0  0  0  0  0  0  0
   36.4902   21.9740   26.2516 C   0  0  0  0  0  0  0  0  0  0  0  0
   35.4494   22.8203   25.9779 C   0  0  0  0  0  0  0  0  0  0  0  0
   34.1580   22.3219   25.8886 C   0  0  0  0  0  0  0  0  0  0  0  0
   33.9402   20.9593   26.1035 C   0  0  0  0  0  0  0  0  0  0  0  0
   35.0081   20.1169   26.3838 C   0  0  0  0  0  0  0  0  0  0  0  0
   40.6439   26.2748   23.3377 C   0  0  0  0  0  0  0  0  0  0  0  0
   39.7696   26.4395   24.5752 C   0  0  0  0  0  0  0  0  0  0  0  0
   37.0757   26.5001   24.1099 O   0  0  0  0  0  0  0  0  0  0  0  0
   40.2864   23.7137   25.1156 O   0  0  0  0  0  0  0  0  0  0  0  0
   39.1644   24.1151   24.8549 C   0  0  0  0  0  0  0  0  0  0  0  0
   38.8411   25.3202   24.5873 N   0  0  0  0  0  0  0  0  0  0  0  0
   37.6046   25.4540   24.3839 C   0  0  0  0  0  0  0  0  0  0  0  0
   36.8416   24.1879   24.5653 C   0  0  1  0  0  0  0  0  0  0  0  0
   37.9792   23.2173   24.8930 C   0  0  2  0  0  0  0  0  0  0  0  0
  1  2  1  0  0  0  0
  2  3  1  0  0  0  0
  3 20  1  0  0  0  0
  4  5  1  0  0  0  0
  6  7  2  0  0  0  0
  6 12  1  0  0  0  0
  7  8  1  0  0  0  0
  8  9  2  0  0  0  0
  9 11  1  0  0  0  0
 10  5  1  6  0  0  0
 10 11  1  0  0  0  0
 10 16  1  0  0  0  0
 10 27  1  0  0  0  0
 11 12  2  0  0  0  0
 13 12  1  1  0  0  0
 13 15  1  0  0  0  0
 13 28  1  0  0  0  0
 14 15  2  0  0  0  0
 14 19  1  0  0  0  0
 15 16  1  0  0  0  0
 16 17  2  0  0  0  0
 17 18  1  0  0  0  0
 18 19  2  0  0  0  0
 20 21  1  0  0  0  0
 21 25  1  0  0  0  0
 22 26  2  0  0  0  0
 23 24  2  0  0  0  0
 24 25  1  0  0  0  0
 25 26  1  0  0  0  0
 27 26  1  1  0  0  0
 27 28  1  0  0  0  0
 28 24  1  1  0  0  0
M  END
>  <CHROM.1>
-172.70653885,179.33347946,176.33661789,-171.73791286,72.17211507,37.80491565
24.47702334,25.40946521,0.63075342,-0.28983602,-0.98525802

>  <Name>
ligand

>  <RI>
0

>  <Rbt.Current_Directory>
/home/itssahil/PROJECTS/Mol_Feturizer/New_Systems/rnas/1YLS

>  <Rbt.Executable>
rbdock ($Id: //depot/dev/client3/rdock/2013.1/src/exe/rbdock.cxx#4 $)

>  <Rbt.Library>
libRbt.so (2013.1, Build901 2013/11/27)

>  <Rbt.Parameter_File>
/export/apps/rDock/src/rDock_2013.1_src/data/scripts/dock_solv.prm

>  <Rbt.Receptor>
prm/pocket_docking_8.prm

>  <SCORE>
-38.764

>  <SCORE.INTER>
-34.4314

>  <SCORE.INTER.CONST>
1

>  <SCORE.INTER.POLAR>
0

>  <SCORE.INTER.ROT>
5

>  <SCORE.INTER.SOLV>
7.75798

>  <SCORE.INTER.VDW>
-32.4736

>  <SCORE.INTER.norm>
-1.22969

>  <SCORE.INTRA>
-4.33267

>  <SCORE.INTRA.DIHEDRAL>
-9.18341

>  <SCORE.INTRA.DIHEDRAL.0>
12.0148

>  <SCORE.INTRA.POLAR>
0

>  <SCORE.INTRA.POLAR.0>
0

>  <SCORE.INTRA.REPUL>
0

>  <SCORE.INTRA.REPUL.0>
0

>  <SCORE.INTRA.SOLV>
0.170712

>  <SCORE.INTRA.SOLV.lig_0>
-10.5235

>  <SCORE.INTRA.VDW>
0.17368

>  <SCORE.INTRA.VDW.0>
-1.38455

>  <SCORE.INTRA.norm>
-0.154738

>  <SCORE.RESTR>
0

>  <SCORE.RESTR.CAVITY>
0

>  <SCORE.RESTR.norm>
0

>  <SCORE.SYSTEM>
0

>  <SCORE.SYSTEM.CONST>
0

>  <SCORE.SYSTEM.DIHEDRAL>
0

>  <SCORE.SYSTEM.SOLV>
0

>  <SCORE.SYSTEM.norm>
0

>  <SCORE.heavy>
28

>  <SCORE.norm>
-1.38443

>  <RMSD>
1.063

$$$$
ligand
 OpenBabel11021811413D
libRbt.so/2013.1/901 2013/11/27
 28 32  0  0  0  0  0  0  0  0999 V2000
   43.8678   28.0232   22.1657 C   0  0  0  0  0  0  0  0  0  0  0  0
   42.6745   27.0891   22.1270 C   0  0  0  0  0  0  0  0  0  0  0  0
   41.7709   27.2820   23.3358 C   0  0  0  0  0  0  0  0  0  0  0  0
   33.9164   24.7517   24.3723 O   0  0  0  0  0  0  0  0  0  0  0  0
   34.6718   25.1529   25.5167 C   0  0  0  0  0  0  0  0  0  0  0  0
   38.6481   23.9680   28.1809 C   0  0  0  0  0  0  0  0  0  0  0  0
   38.5100   25.1177   28.9480 C   0  0  0  0  0  0  0  0  0  0  0  0
   37.4750   26.0136   28.6683 C   0  0  0  0  0  0  0  0  0  0  0  0
   36.5788   25.7615   27.6289 C   0  0  0  0  0  0  0  0  0  0  0  0
   35.8660   24.2163   25.7410 C   0  0  1  0  0  0  0  0  0  0  0  0
   36.7197   24.6028   26.9017 C   0  0  0  0  0  0  0  0  0  0  0  0
   37.7394   23.7273   27.1777 C   0  0  0  0  0  0  0  0  0  0  0  0
   37.8235   22.5816   26.2920 C   0  0  1  0  0  0  0  0  0  0  0  0
   36.3311   20.5991   26.4746 C   0  0  0  0  0  0  0  0  0  0  0  0
   36.5182   21.9453   26.2714 C   0  0  0  0  0  0  0  0  0  0  0  0
   35.4721   22.7821   25.9886 C   0  0  0  0  0  0  0  0  0  0  0  0
   34.1845   22.2740   25.8997 C   0  0  0  0  0  0  0  0  0  0  0  0
   33.9758   20.9115   26.1242 C   0  0  0  0  0  0  0  0  0  0  0  0
   35.0489   20.0788   26.4136 C   0  0  0  0  0  0  0  0  0  0  0  0
   40.6424   26.2590   23.3307 C   0  0  0  0  0  0  0  0  0  0  0  0
   39.7703   26.4213   24.5701 C   0  0  0  0  0  0  0  0  0  0  0  0
   37.0773   26.4593   24.0973 O   0  0  0  0  0  0  0  0  0  0  0  0
   40.3050   23.7034   25.1323 O   0  0  0  0  0  0  0  0  0  0  0  0
   39.1809   24.0949   24.8656 C   0  0  0  0  0  0  0  0  0  0  0  0
   38.8497   25.2956   24.5881 N   0  0  0  0  0  0  0  0  0  0  0  0
   37.6129   25.4191   24.3805 C   0  0  0  0  0  0  0  0  0  0  0  0
   36.8584   24.1490   24.5695 C   0  0  1  0  0  0  0  0  0  0  0  0
   38.0020   23.1890   24.9073 C   0  0  2  0  0  0  0  0  0  0  0  0
  1  2  1  0  0  0  0
  2  3  1  0  0  0  0
  3 20  1  0  0  0  0
  4  5  1  0  0  0  0
  6  7  2  0  0  0  0
  6 12  1  0  0  0  0
  7  8  1  0  0  0  0
  8  9  2  0  0  0  0
  9 11  1  0  0  0  0
 10  5  1  6  0  0  0
 10 11  1  0  0  0  0
 10 16  1  0  0  0  0
 10 27  1  0  0  0  0
 11 12  2  0  0  0  0
 13 12  1  1  0  0  0
 13 15  1  0  0  0  0
 13 28  1  0  0  0  0
 14 15  2  0  0  0  0
 14 19  1  0  0  0  0
 15 16  1  0  0  0  0
 16 17  2  0  0  0  0
 17 18  1  0  0  0  0
 18 19  2  0  0  0  0
 20 21  1  0  0  0  0
 21 25  1  0  0  0  0
 22 26  2  0  0  0  0
 23 24  2  0  0  0  0
 24 25  1  0  0  0  0
 25 26  1  0  0  0  0
 27 26  1  1  0  0  0
 27 28  1  0  0  0  0
 28 24  1  1  0  0  0
M  END
>  <CHROM.1>
-175.49873849,178.41737881,177.85778524,-171.78540543,72.57281534,37.81321297
24.45693312,25.40847247,0.63418185,-0.31296405,-1.01016864

>  <Name>
ligand

>  <RI>
0

>  <Rbt.Current_Directory>
/home/itssahil/PROJECTS/Mol_Feturizer/New_Systems/rnas/1YLS

>  <Rbt.Executable>
rbdock ($Id: //depot/dev/client3/rdock/2013.1/src/exe/rbdock.cxx#4 $)

>  <Rbt.Library>
libRbt.so (2013.1, Build901 2013/11/27)

>  <Rbt.Parameter_File>
/export/apps/rDock/src/rDock_2013.1_src/data/scripts/dock_solv.prm

>  <Rbt.Receptor>
prm/pocket_docking_6.prm

>  <SCORE>
-38.8336

>  <SCORE.INTER>
-34.3962

>  <SCORE.INTER.CONST>
1

>  <SCORE.INTER.POLAR>
0

>  <SCORE.INTER.ROT>
5

>  <SCORE.INTER.SOLV>
7.81644

>  <SCORE.INTER.VDW>
-32.4696

>  <SCORE.INTER.norm>
-1.22843

>  <SCORE.INTRA>
-4.43744

>  <SCORE.INTRA.DIHEDRAL>
-9.35911

>  <SCORE.INTRA.DIHEDRAL.0>
12.0148

>  <SCORE.INTRA.POLAR>
0

>  <SCORE.INTRA.POLAR.0>
0

>  <SCORE.INTRA.REPUL>
0

>  <SCORE.INTRA.REPUL.0>
0

>  <SCORE.INTRA.SOLV>
0.175592

>  <SCORE.INTRA.SOLV.lig_0>
-10.5235

>  <SCORE.INTRA.VDW>
0.154317

>  <SCORE.INTRA.VDW.0>
-1.38455

>  <SCORE.INTRA.norm>
-0.15848

>  <SCORE.RESTR>
0

>  <SCORE.RESTR.CAVITY>
0

>  <SCORE.RESTR.norm>
0

>  <SCORE.SYSTEM>
0

>  <SCORE.SYSTEM.CONST>
0

>  <SCORE.SYSTEM.DIHEDRAL>
0

>  <SCORE.SYSTEM.SOLV>
0

>  <SCORE.SYSTEM.norm>
0

>  <SCORE.heavy>
28

>  <SCORE.norm>
-1.38691

>  <RMSD>
1.064

$$$$
ligand
 OpenBabel11021811413D
libRbt.so/2013.1/901 2013/11/27
 28 32  0  0  0  0  0  0  0  0999 V2000
   43.6786   28.4572   22.2379 C   0  0  0  0  0  0  0  0  0  0  0  0
   42.6483   27.3455   22.2184 C   0  0  0  0  0  0  0  0  0  0  0  0
   41.5675   27.5631   23.2669 C   0  0  0  0  0  0  0  0  0  0  0  0
   34.1382   24.0134   24.2414 O   0  0  0  0  0  0  0  0  0  0  0  0
   34.7853   24.6069   25.3684 C   0  0  0  0  0  0  0  0  0  0  0  0
   38.7289   24.1507   28.2929 C   0  0  0  0  0  0  0  0  0  0  0  0
   38.4023   25.3235   28.9616 C   0  0  0  0  0  0  0  0  0  0  0  0
   37.2775   26.0524   28.5670 C   0  0  0  0  0  0  0  0  0  0  0  0
   36.4796   25.6109   27.5109 C   0  0  0  0  0  0  0  0  0  0  0  0
   36.0759   23.8548   25.7183 C   0  0  1  0  0  0  0  0  0  0  0  0
   36.8080   24.4323   26.8828 C   0  0  0  0  0  0  0  0  0  0  0  0
   37.9151   23.7212   27.2715 C   0  0  0  0  0  0  0  0  0  0  0  0
   38.1942   22.5368   26.4820 C   0  0  1  0  0  0  0  0  0  0  0  0
   36.9614   20.3923   26.7503 C   0  0  0  0  0  0  0  0  0  0  0  0
   36.9846   21.7335   26.4519 C   0  0  0  0  0  0  0  0  0  0  0  0
   35.8568   22.4024   26.0583 C   0  0  0  0  0  0  0  0  0  0  0  0
   34.6520   21.7233   25.9511 C   0  0  0  0  0  0  0  0  0  0  0  0
   34.6082   20.3646   26.2709 C   0  0  0  0  0  0  0  0  0  0  0  0
   35.7619   19.7039   26.6721 C   0  0  0  0  0  0  0  0  0  0  0  0
   40.6558   26.3463   23.3583 C   0  0  0  0  0  0  0  0  0  0  0  0
   39.7226   26.4683   24.5571 C   0  0  0  0  0  0  0  0  0  0  0  0
   37.0770   26.1161   23.9619 O   0  0  0  0  0  0  0  0  0  0  0  0
   40.5707   23.8919   25.3518 O   0  0  0  0  0  0  0  0  0  0  0  0
   39.4218   24.1113   25.0052 C   0  0  0  0  0  0  0  0  0  0  0  0
   38.9548   25.2349   24.6208 N   0  0  0  0  0  0  0  0  0  0  0  0
   37.7256   25.1786   24.3487 C   0  0  0  0  0  0  0  0  0  0  0  0
   37.1315   23.8365   24.6014 C   0  0  1  0  0  0  0  0  0  0  0  0
   38.3687   23.0626   25.0638 C   0  0  2  0  0  0  0  0  0  0  0  0
  1  2  1  0  0  0  0
  2  3  1  0  0  0  0
  3 20  1  0  0  0  0
  4  5  1  0  0  0  0
  6  7  2  0  0  0  0
  6 12  1  0  0  0  0
  7  8  1  0  0  0  0
  8  9  2  0  0  0  0
  9 11  1  0  0  0  0
 10  5  1  6  0  0  0
 10 11  1  0  0  0  0
 10 16  1  0  0  0  0
 10 27  1  0  0  0  0
 11 12  2  0  0  0  0
 13 12  1  1  0  0  0
 13 15  1  0  0  0  0
 13 28  1  0  0  0  0
 14 15  2  0  0  0  0
 14 19  1  0  0  0  0
 15 16  1  0  0  0  0
 16 17  2  0  0  0  0
 17 18  1  0  0  0  0
 18 19  2  0  0  0  0
 20 21  1  0  0  0  0
 21 25  1  0  0  0  0
 22 26  2  0  0  0  0
 23 24  2  0  0  0  0
 24 25  1  0  0  0  0
 25 26  1  0  0  0  0
 27 26  1  1  0  0  0
 27 28  1  0  0  0  0
 28 24  1  1  0  0  0
M  END
>  <CHROM.1>
-172.25854493,179.53166017,170.70034861,-176.32866762,73.64855611,37.98540410
24.33070030,25.45420994,0.66418333,-0.45198183,-1.07036771

>  <Name>
ligand

>  <RI>
0

>  <Rbt.Current_Directory>
/home/itssahil/PROJECTS/Mol_Feturizer/New_Systems/rnas/1YLS

>  <Rbt.Executable>
rbdock ($Id: //depot/dev/client3/rdock/2013.1/src/exe/rbdock.cxx#4 $)

>  <Rbt.Library>
libRbt.so (2013.1, Build901 2013/11/27)

>  <Rbt.Parameter_File>
/export/apps/rDock/src/rDock_2013.1_src/data/scripts/dock_solv.prm

>  <Rbt.Receptor>
prm/pocket_docking_5.prm

>  <SCORE>
-38.4271

>  <SCORE.INTER>
-34.1177

>  <SCORE.INTER.CONST>
1

>  <SCORE.INTER.POLAR>
0

>  <SCORE.INTER.ROT>
5

>  <SCORE.INTER.SOLV>
8.24148

>  <SCORE.INTER.VDW>
-32.4256

>  <SCORE.INTER.norm>
-1.21849

>  <SCORE.INTRA>
-4.30942

>  <SCORE.INTRA.DIHEDRAL>
-9.07179

>  <SCORE.INTRA.DIHEDRAL.0>
12.0148

>  <SCORE.INTRA.POLAR>
0

>  <SCORE.INTRA.POLAR.0>
0

>  <SCORE.INTRA.REPUL>
0

>  <SCORE.INTRA.REPUL.0>
0

>  <SCORE.INTRA.SOLV>
0.16048

>  <SCORE.INTRA.SOLV.lig_0>
-10.5235

>  <SCORE.INTRA.VDW>
0.146233

>  <SCORE.INTRA.VDW.0>
-1.38455

>  <SCORE.INTRA.norm>
-0.153908

>  <SCORE.RESTR>
0

>  <SCORE.RESTR.CAVITY>
0

>  <SCORE.RESTR.norm>
0

>  <SCORE.SYSTEM>
0

>  <SCORE.SYSTEM.CONST>
0

>  <SCORE.SYSTEM.DIHEDRAL>
0

>  <SCORE.SYSTEM.SOLV>
0

>  <SCORE.SYSTEM.norm>
0

>  <SCORE.heavy>
28

>  <SCORE.norm>
-1.3724

>  <RMSD>
1.065

$$$$
ligand
 OpenBabel11021811413D
libRbt.so/2013.1/901 2013/11/27
 28 32  0  0  0  0  0  0  0  0999 V2000
   43.8813   28.0141   22.1966 C   0  0  0  0  0  0  0  0  0  0  0  0
   42.6941   27.0722   22.1588 C   0  0  0  0  0  0  0  0  0  0  0  0
   41.7821   27.2698   23.3605 C   0  0  0  0  0  0  0  0  0  0  0  0
   33.9409   24.7814   24.3354 O   0  0  0  0  0  0  0  0  0  0  0  0
   34.6591   25.1471   25.5150 C   0  0  0  0  0  0  0  0  0  0  0  0
   38.6423   23.9778   28.1757 C   0  0  0  0  0  0  0  0  0  0  0  0
   38.5003   25.1268   28.9431 C   0  0  0  0  0  0  0  0  0  0  0  0
   37.4614   26.0185   28.6645 C   0  0  0  0  0  0  0  0  0  0  0  0
   36.5654   25.7630   27.6257 C   0  0  0  0  0  0  0  0  0  0  0  0
   35.8572   24.2153   25.7382 C   0  0  1  0  0  0  0  0  0  0  0  0
   36.7103   24.6050   26.8982 C   0  0  0  0  0  0  0  0  0  0  0  0
   37.7338   23.7336   27.1732 C   0  0  0  0  0  0  0  0  0  0  0  0
   37.8218   22.5884   26.2872 C   0  0  1  0  0  0  0  0  0  0  0  0
   36.3375   20.5999   26.4708 C   0  0  0  0  0  0  0  0  0  0  0  0
   36.5189   21.9468   26.2676 C   0  0  0  0  0  0  0  0  0  0  0  0
   35.4693   22.7795   25.9859 C   0  0  0  0  0  0  0  0  0  0  0  0
   34.1837   22.2662   25.8979 C   0  0  0  0  0  0  0  0  0  0  0  0
   33.9806   20.9028   26.1224 C   0  0  0  0  0  0  0  0  0  0  0  0
   35.0573   20.0744   26.4107 C   0  0  0  0  0  0  0  0  0  0  0  0
   40.6340   26.2691   23.3329 C   0  0  0  0  0  0  0  0  0  0  0  0
   39.7517   26.4362   24.5644 C   0  0  0  0  0  0  0  0  0  0  0  0
   37.0581   26.4634   24.0939 O   0  0  0  0  0  0  0  0  0  0  0  0
   40.2977   23.7203   25.1257 O   0  0  0  0  0  0  0  0  0  0  0  0
   39.1718   24.1073   24.8600 C   0  0  0  0  0  0  0  0  0  0  0  0
   38.8357   25.3068   24.5830 N   0  0  0  0  0  0  0  0  0  0  0  0
   37.5982   25.4253   24.3765 C   0  0  0  0  0  0  0  0  0  0  0  0
   36.8489   24.1522   24.5658 C   0  0  1  0  0  0  0  0  0  0  0  0
   37.9966   23.1967   24.9025 C   0  0  2  0  0  0  0  0  0  0  0  0
  1  2  1  0  0  0  0
  2  3  1  0  0  0  0
  3 20  1  0  0  0  0
  4  5  1  0  0  0  0
  6  7  2  0  0  0  0
  6 12  1  0  0  0  0
  7  8  1  0  0  0  0
  8  9  2  0  0  0  0
  9 11  1  0  0  0  0
 10  5  1  6  0  0  0
 10 11  1  0  0  0  0
 10 16  1  0  0  0  0
 10 27  1  0  0  0  0
 11 12  2  0  0  0  0
 13 12  1  1  0  0  0
 13 15  1  0  0  0  0
 13 28  1  0  0  0  0
 14 15  2  0  0  0  0
 14 19  1  0  0  0  0
 15 16  1  0  0  0  0
 16 17  2  0  0  0  0
 17 18  1  0  0  0  0
 18 19  2  0  0  0  0
 20 21  1  0  0  0  0
 21 25  1  0  0  0  0
 22 26  2  0  0  0  0
 23 24  2  0  0  0  0
 24 25  1  0  0  0  0
 25 26  1  0  0  0  0
 27 26  1  1  0  0  0
 27 28  1  0  0  0  0
 28 24  1  1  0  0  0
M  END
>  <CHROM.1>
-177.35521250,175.67191219,177.92084203,-170.11687019,71.93927154,37.80980454
24.46045068,25.40720767,0.63715334,-0.30092961,-0.99144349

>  <Name>
ligand

>  <RI>
0

>  <Rbt.Current_Directory>
/home/itssahil/PROJECTS/Mol_Feturizer/New_Systems/rnas/1YLS

>  <Rbt.Executable>
rbdock ($Id: //depot/dev/client3/rdock/2013.1/src/exe/rbdock.cxx#4 $)

>  <Rbt.Library>
libRbt.so (2013.1, Build901 2013/11/27)

>  <Rbt.Parameter_File>
/export/apps/rDock/src/rDock_2013.1_src/data/scripts/dock_solv.prm

>  <Rbt.Receptor>
prm/pocket_docking_5.prm

>  <SCORE>
-38.8341

>  <SCORE.INTER>
-34.4469

>  <SCORE.INTER.CONST>
1

>  <SCORE.INTER.POLAR>
0

>  <SCORE.INTER.ROT>
5

>  <SCORE.INTER.SOLV>
7.82851

>  <SCORE.INTER.VDW>
-32.5074

>  <SCORE.INTER.norm>
-1.23025

>  <SCORE.INTRA>
-4.38727

>  <SCORE.INTRA.DIHEDRAL>
-9.25596

>  <SCORE.INTRA.DIHEDRAL.0>
12.0148

>  <SCORE.INTRA.POLAR>
0

>  <SCORE.INTRA.POLAR.0>
0

>  <SCORE.INTRA.REPUL>
0

>  <SCORE.INTRA.REPUL.0>
0

>  <SCORE.INTRA.SOLV>
0.196177

>  <SCORE.INTRA.SOLV.lig_0>
-10.5235

>  <SCORE.INTRA.VDW>
0.142623

>  <SCORE.INTRA.VDW.0>
-1.38455

>  <SCORE.INTRA.norm>
-0.156688

>  <SCORE.RESTR>
0

>  <SCORE.RESTR.CAVITY>
0

>  <SCORE.RESTR.norm>
0

>  <SCORE.SYSTEM>
0

>  <SCORE.SYSTEM.CONST>
0

>  <SCORE.SYSTEM.DIHEDRAL>
0

>  <SCORE.SYSTEM.SOLV>
0

>  <SCORE.SYSTEM.norm>
0

>  <SCORE.heavy>
28

>  <SCORE.norm>
-1.38693

>  <RMSD>
1.066

$$$$
ligand
 OpenBabel11021811413D
libRbt.so/2013.1/901 2013/11/27
 28 32  0  0  0  0  0  0  0  0999 V2000
   43.1913   28.7668   22.3935 C   0  0  0  0  0  0  0  0  0  0  0  0
   41.9835   27.8800   22.6227 C   0  0  0  0  0  0  0  0  0  0  0  0
   42.2383   26.8566   23.7194 C   0  0  0  0  0  0  0  0  0  0  0  0
   35.2126   25.9349   25.0165 O   0  0  0  0  0  0  0  0  0  0  0  0
   34.9224   24.5396   25.1172 C   0  0  0  0  0  0  0  0  0  0  0  0
   38.6310   24.1255   28.3402 C   0  0  0  0  0  0  0  0  0  0  0  0
   38.3176   25.3573   28.9003 C   0  0  0  0  0  0  0  0  0  0  0  0
   37.2593   26.1042   28.3765 C   0  0  0  0  0  0  0  0  0  0  0  0
   36.5143   25.6221   27.2996 C   0  0  0  0  0  0  0  0  0  0  0  0
   36.1479   23.7592   25.6099 C   0  0  1  0  0  0  0  0  0  0  0  0
   36.8265   24.3875   26.7805 C   0  0  0  0  0  0  0  0  0  0  0  0
   37.8685   23.6587   27.2959 C   0  0  0  0  0  0  0  0  0  0  0  0
   38.1423   22.4087   26.6130 C   0  0  1  0  0  0  0  0  0  0  0  0
   36.7905   20.3458   26.9420 C   0  0  0  0  0  0  0  0  0  0  0  0
   36.8996   21.6593   26.5530 C   0  0  0  0  0  0  0  0  0  0  0  0
   35.8353   22.3465   26.0342 C   0  0  0  0  0  0  0  0  0  0  0  0
   34.6088   21.7151   25.8891 C   0  0  0  0  0  0  0  0  0  0  0  0
   34.4768   20.3867   26.2992 C   0  0  0  0  0  0  0  0  0  0  0  0
   35.5669   19.7069   26.8267 C   0  0  0  0  0  0  0  0  0  0  0  0
   41.1930   25.7496   23.6735 C   0  0  0  0  0  0  0  0  0  0  0  0
   39.9887   26.1178   24.5319 C   0  0  0  0  0  0  0  0  0  0  0  0
   37.3756   25.8396   23.7757 O   0  0  0  0  0  0  0  0  0  0  0  0
   40.6535   23.5716   25.5632 O   0  0  0  0  0  0  0  0  0  0  0  0
   39.5431   23.8153   25.1211 C   0  0  0  0  0  0  0  0  0  0  0  0
   39.1588   24.9273   24.6268 N   0  0  0  0  0  0  0  0  0  0  0  0
   37.9497   24.9054   24.2724 C   0  0  0  0  0  0  0  0  0  0  0  0
   37.2748   23.6128   24.5752 C   0  0  1  0  0  0  0  0  0  0  0  0
   38.4383   22.8211   25.1776 C   0  0  2  0  0  0  0  0  0  0  0  0
  1  2  1  0  0  0  0
  2  3  1  0  0  0  0
  3 20  1  0  0  0  0
  4  5  1  0  0  0  0
  6  7  2  0  0  0  0
  6 12  1  0  0  0  0
  7  8  1  0  0  0  0
  8  9  2  0  0  0  0
  9 11  1  0  0  0  0
 10  5  1  6  0  0  0
 10 11  1  0  0  0  0
 10 16  1  0  0  0  0
 10 27  1  0  0  0  0
 11 12  2  0  0  0  0
 13 12  1  1  0  0  0
 13 15  1  0  0  0  0
 13 28  1  0  0  0  0
 14 15  2  0  0  0  0
 14 19  1  0  0  0  0
 15 16  1  0  0  0  0
 16 17  2  0  0  0  0
 17 18  1  0  0  0  0
 18 19  2  0  0  0  0
 20 21  1  0  0  0  0
 21 25  1  0  0  0  0
 22 26  2  0  0  0  0
 23 24  2  0  0  0  0
 24 25  1  0  0  0  0
 25 26  1  0  0  0  0
 27 26  1  1  0  0  0
 27 28  1  0  0  0  0
 28 24  1  1  0  0  0
M  END
>  <CHROM.1>
-164.30370475,46.24675737,-89.20830643,-170.06192982,59.96798175,38.06482717
24.29479837,25.53214985,-0.78219907,-0.20189131,2.79628808

>  <Name>
ligand

>  <RI>
0

>  <Rbt.Current_Directory>
/home/itssahil/PROJECTS/Mol_Feturizer/New_Systems/rnas/1YLS

>  <Rbt.Executable>
rbdock ($Id: //depot/dev/client3/rdock/2013.1/src/exe/rbdock.cxx#4 $)

>  <Rbt.Library>
libRbt.so (2013.1, Build901 2013/11/27)

>  <Rbt.Parameter_File>
/export/apps/rDock/src/rDock_2013.1_src/data/scripts/dock_solv.prm

>  <Rbt.Receptor>
prm/pocket_docking_8.prm

>  <SCORE>
-34.5074

>  <SCORE.INTER>
-34.2179

>  <SCORE.INTER.CONST>
1

>  <SCORE.INTER.POLAR>
0

>  <SCORE.INTER.ROT>
5

>  <SCORE.INTER.SOLV>
7.85548

>  <SCORE.INTER.VDW>
-32.3638

>  <SCORE.INTER.norm>
-1.22207

>  <SCORE.INTRA>
-0.289493

>  <SCORE.INTRA.DIHEDRAL>
-4.75065

>  <SCORE.INTRA.DIHEDRAL.0>
12.0148

>  <SCORE.INTRA.POLAR>
0

>  <SCORE.INTRA.POLAR.0>
0

>  <SCORE.INTRA.REPUL>
0

>  <SCORE.INTRA.REPUL.0>
0

>  <SCORE.INTRA.SOLV>
0.619658

>  <SCORE.INTRA.SOLV.lig_0>
-10.5235

>  <SCORE.INTRA.VDW>
1.776

>  <SCORE.INTRA.VDW.0>
-1.38455

>  <SCORE.INTRA.norm>
-0.010339

>  <SCORE.RESTR>
0

>  <SCORE.RESTR.CAVITY>
0

>  <SCORE.RESTR.norm>
0

>  <SCORE.SYSTEM>
0

>  <SCORE.SYSTEM.CONST>
0

>  <SCORE.SYSTEM.DIHEDRAL>
0

>  <SCORE.SYSTEM.SOLV>
0

>  <SCORE.SYSTEM.norm>
0

>  <SCORE.heavy>
28

>  <SCORE.norm>
-1.23241

>  <RMSD>
1.066

$$$$
ligand
 OpenBabel11021811413D
libRbt.so/2013.1/901 2013/11/27
 28 32  0  0  0  0  0  0  0  0999 V2000
   43.8575   28.0191   22.1676 C   0  0  0  0  0  0  0  0  0  0  0  0
   42.6501   27.1037   22.1230 C   0  0  0  0  0  0  0  0  0  0  0  0
   41.7731   27.2705   23.3550 C   0  0  0  0  0  0  0  0  0  0  0  0
   33.9369   24.7676   24.3773 O   0  0  0  0  0  0  0  0  0  0  0  0
   34.6742   25.1438   25.5417 C   0  0  0  0  0  0  0  0  0  0  0  0
   38.6547   23.9493   28.1952 C   0  0  0  0  0  0  0  0  0  0  0  0
   38.5183   25.0965   28.9663 C   0  0  0  0  0  0  0  0  0  0  0  0
   37.4830   25.9936   28.6913 C   0  0  0  0  0  0  0  0  0  0  0  0
   36.5850   25.7451   27.6526 C   0  0  0  0  0  0  0  0  0  0  0  0
   35.8685   24.2062   25.7610 C   0  0  1  0  0  0  0  0  0  0  0  0
   36.7243   24.5887   26.9214 C   0  0  0  0  0  0  0  0  0  0  0  0
   37.7442   23.7120   27.1928 C   0  0  0  0  0  0  0  0  0  0  0  0
   37.8265   22.5692   26.3033 C   0  0  1  0  0  0  0  0  0  0  0  0
   36.3337   20.5865   26.4822 C   0  0  0  0  0  0  0  0  0  0  0  0
   36.5208   21.9333   26.2829 C   0  0  0  0  0  0  0  0  0  0  0  0
   35.4746   22.7713   26.0047 C   0  0  0  0  0  0  0  0  0  0  0  0
   34.1867   22.2639   25.9163 C   0  0  0  0  0  0  0  0  0  0  0  0
   33.9779   20.9008   26.1368 C   0  0  0  0  0  0  0  0  0  0  0  0
   35.0512   20.0668   26.4217 C   0  0  0  0  0  0  0  0  0  0  0  0
   40.6287   26.2654   23.3390 C   0  0  0  0  0  0  0  0  0  0  0  0
   39.7714   26.4138   24.5904 C   0  0  0  0  0  0  0  0  0  0  0  0
   37.0776   26.4541   24.1224 O   0  0  0  0  0  0  0  0  0  0  0  0
   40.3062   23.6939   25.1429 O   0  0  0  0  0  0  0  0  0  0  0  0
   39.1818   24.0866   24.8795 C   0  0  0  0  0  0  0  0  0  0  0  0
   38.8506   25.2883   24.6064 N   0  0  0  0  0  0  0  0  0  0  0  0
   37.6134   25.4128   24.4014 C   0  0  0  0  0  0  0  0  0  0  0  0
   36.8589   24.1424   24.5875 C   0  0  1  0  0  0  0  0  0  0  0  0
   38.0027   23.1809   24.9203 C   0  0  2  0  0  0  0  0  0  0  0  0
  1  2  1  0  0  0  0
  2  3  1  0  0  0  0
  3 20  1  0  0  0  0
  4  5  1  0  0  0  0
  6  7  2  0  0  0  0
  6 12  1  0  0  0  0
  7  8  1  0  0  0  0
  8  9  2  0  0  0  0
  9 11  1  0  0  0  0
 10  5  1  6  0  0  0
 10 11  1  0  0  0  0
 10 16  1  0  0  0  0
 10 27  1  0  0  0  0
 11 12  2  0  0  0  0
 13 12  1  1  0  0  0
 13 15  1  0  0  0  0
 13 28  1  0  0  0  0
 14 15  2  0  0  0  0
 14 19  1  0  0  0  0
 15 16  1  0  0  0  0
 16 17  2  0  0  0  0
 17 18  1  0  0  0  0
 18 19  2  0  0  0  0
 20 21  1  0  0  0  0
 21 25  1  0  0  0  0
 22 26  2  0  0  0  0
 23 24  2  0  0  0  0
 24 25  1  0  0  0  0
 25 26  1  0  0  0  0
 27 26  1  1  0  0  0
 27 28  1  0  0  0  0
 28 24  1  1  0  0  0
M  END
>  <CHROM.1>
-175.56565305,176.89561859,178.67486428,-170.72951847,73.32410060,37.81455324
24.44879427,25.42307638,0.63618641,-0.31555416,-1.01184720

>  <Name>
ligand

>  <RI>
0

>  <Rbt.Current_Directory>
/home/itssahil/PROJECTS/Mol_Feturizer/New_Systems/rnas/1YLS

>  <Rbt.Executable>
rbdock ($Id: //depot/dev/client3/rdock/2013.1/src/exe/rbdock.cxx#4 $)

>  <Rbt.Library>
libRbt.so (2013.1, Build901 2013/11/27)

>  <Rbt.Parameter_File>
/export/apps/rDock/src/rDock_2013.1_src/data/scripts/dock_solv.prm

>  <Rbt.Receptor>
prm/pocket_docking_3.prm

>  <SCORE>
-38.8378

>  <SCORE.INTER>
-34.4052

>  <SCORE.INTER.CONST>
1

>  <SCORE.INTER.POLAR>
0

>  <SCORE.INTER.ROT>
5

>  <SCORE.INTER.SOLV>
7.77461

>  <SCORE.INTER.VDW>
-32.4617

>  <SCORE.INTER.norm>
-1.22876

>  <SCORE.INTRA>
-4.43259

>  <SCORE.INTRA.DIHEDRAL>
-9.29401

>  <SCORE.INTRA.DIHEDRAL.0>
12.0148

>  <SCORE.INTRA.POLAR>
0

>  <SCORE.INTRA.POLAR.0>
0

>  <SCORE.INTRA.REPUL>
0

>  <SCORE.INTRA.REPUL.0>
0

>  <SCORE.INTRA.SOLV>
0.185267

>  <SCORE.INTRA.SOLV.lig_0>
-10.5235

>  <SCORE.INTRA.VDW>
0.121776

>  <SCORE.INTRA.VDW.0>
-1.38455

>  <SCORE.INTRA.norm>
-0.158307

>  <SCORE.RESTR>
0

>  <SCORE.RESTR.CAVITY>
0

>  <SCORE.RESTR.norm>
0

>  <SCORE.SYSTEM>
0

>  <SCORE.SYSTEM.CONST>
0

>  <SCORE.SYSTEM.DIHEDRAL>
0

>  <SCORE.SYSTEM.SOLV>
0

>  <SCORE.SYSTEM.norm>
0

>  <SCORE.heavy>
28

>  <SCORE.norm>
-1.38706

>  <RMSD>
1.068

$$$$
ligand
 OpenBabel11021811413D
libRbt.so/2013.1/901 2013/11/27
 28 32  0  0  0  0  0  0  0  0999 V2000
   43.9008   27.9452   22.1972 C   0  0  0  0  0  0  0  0  0  0  0  0
   42.6510   27.0944   22.0866 C   0  0  0  0  0  0  0  0  0  0  0  0
   41.6904   27.3553   23.2372 C   0  0  0  0  0  0  0  0  0  0  0  0
   33.9480   24.7961   24.3594 O   0  0  0  0  0  0  0  0  0  0  0  0
   34.6921   25.1687   25.5207 C   0  0  0  0  0  0  0  0  0  0  0  0
   38.6637   23.9394   28.1717 C   0  0  0  0  0  0  0  0  0  0  0  0
   38.5364   25.0865   28.9445 C   0  0  0  0  0  0  0  0  0  0  0  0
   37.5080   25.9920   28.6710 C   0  0  0  0  0  0  0  0  0  0  0  0
   36.6079   25.7521   27.6321 C   0  0  0  0  0  0  0  0  0  0  0  0
   35.8791   24.2215   25.7384 C   0  0  1  0  0  0  0  0  0  0  0  0
   36.7381   24.5956   26.8992 C   0  0  0  0  0  0  0  0  0  0  0  0
   37.7512   23.7107   27.1692 C   0  0  0  0  0  0  0  0  0  0  0  0
   37.8244   22.5685   26.2780 C   0  0  1  0  0  0  0  0  0  0  0  0
   36.3163   20.5973   26.4543 C   0  0  0  0  0  0  0  0  0  0  0  0
   36.5139   21.9428   26.2569 C   0  0  0  0  0  0  0  0  0  0  0  0
   35.4741   22.7894   25.9801 C   0  0  0  0  0  0  0  0  0  0  0  0
   34.1823   22.2921   25.8913 C   0  0  0  0  0  0  0  0  0  0  0  0
   33.9630   20.9303   26.1098 C   0  0  0  0  0  0  0  0  0  0  0  0
   35.0298   20.0876   26.3933 C   0  0  0  0  0  0  0  0  0  0  0  0
   40.6026   26.2899   23.2800 C   0  0  0  0  0  0  0  0  0  0  0  0
   39.7989   26.4003   24.5702 C   0  0  0  0  0  0  0  0  0  0  0  0
   37.1054   26.4623   24.1029 O   0  0  0  0  0  0  0  0  0  0  0  0
   40.3126   23.6756   25.1187 O   0  0  0  0  0  0  0  0  0  0  0  0
   39.1912   24.0774   24.8561 C   0  0  0  0  0  0  0  0  0  0  0  0
   38.8693   25.2821   24.5848 N   0  0  0  0  0  0  0  0  0  0  0  0
   37.6331   25.4165   24.3802 C   0  0  0  0  0  0  0  0  0  0  0  0
   36.8687   24.1517   24.5646 C   0  0  1  0  0  0  0  0  0  0  0  0
   38.0051   23.1809   24.8958 C   0  0  2  0  0  0  0  0  0  0  0  0
  1  2  1  0  0  0  0
  2  3  1  0  0  0  0
  3 20  1  0  0  0  0
  4  5  1  0  0  0  0
  6  7  2  0  0  0  0
  6 12  1  0  0  0  0
  7  8  1  0  0  0  0
  8  9  2  0  0  0  0
  9 11  1  0  0  0  0
 10  5  1  6  0  0  0
 10 11  1  0  0  0  0
 10 16  1  0  0  0  0
 10 27  1  0  0  0  0
 11 12  2  0  0  0  0
 13 12  1  1  0  0  0
 13 15  1  0  0  0  0
 13 28  1  0  0  0  0
 14 15  2  0  0  0  0
 14 19  1  0  0  0  0
 15 16  1  0  0  0  0
 16 17  2  0  0  0  0
 17 18  1  0  0  0  0
 18 19  2  0  0  0  0
 20 21  1  0  0  0  0
 21 25  1  0  0  0  0
 22 26  2  0  0  0  0
 23 24  2  0  0  0  0
 24 25  1  0  0  0  0
 25 26  1  0  0  0  0
 27 26  1  1  0  0  0
 27 28  1  0  0  0  0
 28 24  1  1  0  0  0
M  END
>  <CHROM.1>
-167.51753226,177.16715143,169.60973726,-175.01204680,76.37128069,37.81927343
24.45476295,25.39671909,-0.63775975,0.31015835,2.13330342

>  <Name>
ligand

>  <RI>
0

>  <Rbt.Current_Directory>
/home/itssahil/PROJECTS/Mol_Feturizer/New_Systems/rnas/1YLS

>  <Rbt.Executable>
rbdock ($Id: //depot/dev/client3/rdock/2013.1/src/exe/rbdock.cxx#4 $)

>  <Rbt.Library>
libRbt.so (2013.1, Build901 2013/11/27)

>  <Rbt.Parameter_File>
/export/apps/rDock/src/rDock_2013.1_src/data/scripts/dock_solv.prm

>  <Rbt.Receptor>
prm/pocket_docking_7.prm

>  <SCORE>
-38.6879

>  <SCORE.INTER>
-34.5781

>  <SCORE.INTER.CONST>
1

>  <SCORE.INTER.POLAR>
0

>  <SCORE.INTER.ROT>
5

>  <SCORE.INTER.SOLV>
7.86836

>  <SCORE.INTER.VDW>
-32.6082

>  <SCORE.INTER.norm>
-1.23493

>  <SCORE.INTRA>
-4.1098

>  <SCORE.INTRA.DIHEDRAL>
-8.56376

>  <SCORE.INTRA.DIHEDRAL.0>
12.0148

>  <SCORE.INTRA.POLAR>
0

>  <SCORE.INTRA.POLAR.0>
0

>  <SCORE.INTRA.REPUL>
0

>  <SCORE.INTRA.REPUL.0>
0

>  <SCORE.INTRA.SOLV>
0.171928

>  <SCORE.INTRA.SOLV.lig_0>
-10.5235

>  <SCORE.INTRA.VDW>
0.086112

>  <SCORE.INTRA.VDW.0>
-1.38455

>  <SCORE.INTRA.norm>
-0.146779

>  <SCORE.RESTR>
0

>  <SCORE.RESTR.CAVITY>
0

>  <SCORE.RESTR.norm>
0

>  <SCORE.SYSTEM>
0

>  <SCORE.SYSTEM.CONST>
0

>  <SCORE.SYSTEM.DIHEDRAL>
0

>  <SCORE.SYSTEM.SOLV>
0

>  <SCORE.SYSTEM.norm>
0

>  <SCORE.heavy>
28

>  <SCORE.norm>
-1.38171

>  <RMSD>
1.068

$$$$
ligand
 OpenBabel11021811413D
libRbt.so/2013.1/901 2013/11/27
 28 32  0  0  0  0  0  0  0  0999 V2000
   43.8560   28.0745   22.1562 C   0  0  0  0  0  0  0  0  0  0  0  0
   42.6614   27.1421   22.1154 C   0  0  0  0  0  0  0  0  0  0  0  0
   41.6999   27.4106   23.2635 C   0  0  0  0  0  0  0  0  0  0  0  0
   33.8975   24.9023   24.4637 O   0  0  0  0  0  0  0  0  0  0  0  0
   34.6787   25.2640   25.6039 C   0  0  0  0  0  0  0  0  0  0  0  0
   38.7009   23.9750   28.1482 C   0  0  0  0  0  0  0  0  0  0  0  0
   38.5942   25.1088   28.9435 C   0  0  0  0  0  0  0  0  0  0  0  0
   37.5636   26.0223   28.7077 C   0  0  0  0  0  0  0  0  0  0  0  0
   36.6409   25.8037   27.6841 C   0  0  0  0  0  0  0  0  0  0  0  0
   35.8666   24.3091   25.7798 C   0  0  1  0  0  0  0  0  0  0  0  0
   36.7513   24.6599   26.9285 C   0  0  0  0  0  0  0  0  0  0  0  0
   37.7666   23.7670   27.1614 C   0  0  0  0  0  0  0  0  0  0  0  0
   37.8167   22.6405   26.2489 C   0  0  1  0  0  0  0  0  0  0  0  0
   36.3055   20.6714   26.4225 C   0  0  0  0  0  0  0  0  0  0  0  0
   36.5037   22.0196   26.2447 C   0  0  0  0  0  0  0  0  0  0  0  0
   35.4615   22.8744   26.0048 C   0  0  0  0  0  0  0  0  0  0  0  0
   34.1662   22.3830   25.9347 C   0  0  0  0  0  0  0  0  0  0  0  0
   33.9466   21.0183   26.1339 C   0  0  0  0  0  0  0  0  0  0  0  0
   35.0161   20.1673   26.3799 C   0  0  0  0  0  0  0  0  0  0  0  0
   40.5920   26.3658   23.2910 C   0  0  0  0  0  0  0  0  0  0  0  0
   39.7688   26.4952   24.5672 C   0  0  0  0  0  0  0  0  0  0  0  0
   37.0663   26.5743   24.1582 O   0  0  0  0  0  0  0  0  0  0  0  0
   40.2840   23.7596   25.0568 O   0  0  0  0  0  0  0  0  0  0  0  0
   39.1587   24.1696   24.8250 C   0  0  0  0  0  0  0  0  0  0  0  0
   38.8356   25.3800   24.5818 N   0  0  0  0  0  0  0  0  0  0  0  0
   37.5959   25.5221   24.4058 C   0  0  0  0  0  0  0  0  0  0  0  0
   36.8309   24.2567   24.5842 C   0  0  1  0  0  0  0  0  0  0  0  0
   37.9705   23.2765   24.8742 C   0  0  2  0  0  0  0  0  0  0  0  0
  1  2  1  0  0  0  0
  2  3  1  0  0  0  0
  3 20  1  0  0  0  0
  4  5  1  0  0  0  0
  6  7  2  0  0  0  0
  6 12  1  0  0  0  0
  7  8  1  0  0  0  0
  8  9  2  0  0  0  0
  9 11  1  0  0  0  0
 10  5  1  6  0  0  0
 10 11  1  0  0  0  0
 10 16  1  0  0  0  0
 10 27  1  0  0  0  0
 11 12  2  0  0  0  0
 13 12  1  1  0  0  0
 13 15  1  0  0  0  0
 13 28  1  0  0  0  0
 14 15  2  0  0  0  0
 14 19  1  0  0  0  0
 15 16  1  0  0  0  0
 16 17  2  0  0  0  0
 17 18  1  0  0  0  0
 18 19  2  0  0  0  0
 20 21  1  0  0  0  0
 21 25  1  0  0  0  0
 22 26  2  0  0  0  0
 23 24  2  0  0  0  0
 24 25  1  0  0  0  0
 25 26  1  0  0  0  0
 27 26  1  1  0  0  0
 27 28  1  0  0  0  0
 28 24  1  1  0  0  0
M  END
>  <CHROM.1>
-173.73543386,178.03424454,170.57795182,-173.95487909,73.64424305,37.80847977
24.53492732,25.40881135,0.65055173,-0.27903374,-0.96737552

>  <Name>
ligand

>  <RI>
0

>  <Rbt.Current_Directory>
/home/itssahil/PROJECTS/Mol_Feturizer/New_Systems/rnas/1YLS

>  <Rbt.Executable>
rbdock ($Id: //depot/dev/client3/rdock/2013.1/src/exe/rbdock.cxx#4 $)

>  <Rbt.Library>
libRbt.so (2013.1, Build901 2013/11/27)

>  <Rbt.Parameter_File>
/export/apps/rDock/src/rDock_2013.1_src/data/scripts/dock_solv.prm

>  <Rbt.Receptor>
prm/pocket_docking_8.prm

>  <SCORE>
-38.7395

>  <SCORE.INTER>
-34.4245

>  <SCORE.INTER.CONST>
1

>  <SCORE.INTER.POLAR>
0

>  <SCORE.INTER.ROT>
5

>  <SCORE.INTER.SOLV>
7.78588

>  <SCORE.INTER.VDW>
-32.4783

>  <SCORE.INTER.norm>
-1.22945

>  <SCORE.INTRA>
-4.31503

>  <SCORE.INTRA.DIHEDRAL>
-9.05482

>  <SCORE.INTRA.DIHEDRAL.0>
12.0148

>  <SCORE.INTRA.POLAR>
0

>  <SCORE.INTRA.POLAR.0>
0

>  <SCORE.INTRA.REPUL>
0

>  <SCORE.INTRA.REPUL.0>
0

>  <SCORE.INTRA.SOLV>
0.17287

>  <SCORE.INTRA.SOLV.lig_0>
-10.5235

>  <SCORE.INTRA.VDW>
0.125948

>  <SCORE.INTRA.VDW.0>
-1.38455

>  <SCORE.INTRA.norm>
-0.154108

>  <SCORE.RESTR>
0

>  <SCORE.RESTR.CAVITY>
0

>  <SCORE.RESTR.norm>
0

>  <SCORE.SYSTEM>
0

>  <SCORE.SYSTEM.CONST>
0

>  <SCORE.SYSTEM.DIHEDRAL>
0

>  <SCORE.SYSTEM.SOLV>
0

>  <SCORE.SYSTEM.norm>
0

>  <SCORE.heavy>
28

>  <SCORE.norm>
-1.38355

>  <RMSD>
1.068

$$$$
ligand
 OpenBabel11021811413D
libRbt.so/2013.1/901 2013/11/27
 28 32  0  0  0  0  0  0  0  0999 V2000
   43.7027   28.4372   22.2609 C   0  0  0  0  0  0  0  0  0  0  0  0
   42.6668   27.3307   22.2383 C   0  0  0  0  0  0  0  0  0  0  0  0
   41.6205   27.5187   23.3268 C   0  0  0  0  0  0  0  0  0  0  0  0
   34.1068   24.0519   24.2629 O   0  0  0  0  0  0  0  0  0  0  0  0
   34.7570   24.6116   25.4053 C   0  0  0  0  0  0  0  0  0  0  0  0
   38.7564   24.1269   28.2482 C   0  0  0  0  0  0  0  0  0  0  0  0
   38.4428   25.2929   28.9349 C   0  0  0  0  0  0  0  0  0  0  0  0
   37.3105   26.0255   28.5694 C   0  0  0  0  0  0  0  0  0  0  0  0
   36.4923   25.5944   27.5246 C   0  0  0  0  0  0  0  0  0  0  0  0
   36.0541   23.8564   25.7225 C   0  0  1  0  0  0  0  0  0  0  0  0
   36.8085   24.4222   26.8784 C   0  0  0  0  0  0  0  0  0  0  0  0
   37.9230   23.7076   27.2385 C   0  0  0  0  0  0  0  0  0  0  0  0
   38.1868   22.5313   26.4318 C   0  0  1  0  0  0  0  0  0  0  0  0
   36.9595   20.3838   26.7024 C   0  0  0  0  0  0  0  0  0  0  0  0
   36.9769   21.7280   26.4171 C   0  0  0  0  0  0  0  0  0  0  0  0
   35.8416   22.4005   26.0521 C   0  0  0  0  0  0  0  0  0  0  0  0
   34.6350   21.7223   25.9614 C   0  0  0  0  0  0  0  0  0  0  0  0
   34.5975   20.3605   26.2683 C   0  0  0  0  0  0  0  0  0  0  0  0
   35.7588   19.6960   26.6404 C   0  0  0  0  0  0  0  0  0  0  0  0
   40.6946   26.3111   23.3953 C   0  0  0  0  0  0  0  0  0  0  0  0
   39.6775   26.4823   24.5174 C   0  0  0  0  0  0  0  0  0  0  0  0
   37.0210   26.1354   23.9700 O   0  0  0  0  0  0  0  0  0  0  0  0
   40.5409   23.8982   25.2696 O   0  0  0  0  0  0  0  0  0  0  0  0
   39.3856   24.1208   24.9475 C   0  0  0  0  0  0  0  0  0  0  0  0
   38.9112   25.2481   24.5836 N   0  0  0  0  0  0  0  0  0  0  0  0
   37.6770   25.1943   24.3348 C   0  0  0  0  0  0  0  0  0  0  0  0
   37.0879   23.8495   24.5853 C   0  0  1  0  0  0  0  0  0  0  0  0
   38.3339   23.0713   25.0160 C   0  0  2  0  0  0  0  0  0  0  0  0
  1  2  1  0  0  0  0
  2  3  1  0  0  0  0
  3 20  1  0  0  0  0
  4  5  1  0  0  0  0
  6  7  2  0  0  0  0
  6 12  1  0  0  0  0
  7  8  1  0  0  0  0
  8  9  2  0  0  0  0
  9 11  1  0  0  0  0
 10  5  1  6  0  0  0
 10 11  1  0  0  0  0
 10 16  1  0  0  0  0
 10 27  1  0  0  0  0
 11 12  2  0  0  0  0
 13 12  1  1  0  0  0
 13 15  1  0  0  0  0
 13 28  1  0  0  0  0
 14 15  2  0  0  0  0
 14 19  1  0  0  0  0
 15 16  1  0  0  0  0
 16 17  2  0  0  0  0
 17 18  1  0  0  0  0
 18 19  2  0  0  0  0
 20 21  1  0  0  0  0
 21 25  1  0  0  0  0
 22 26  2  0  0  0  0
 23 24  2  0  0  0  0
 24 25  1  0  0  0  0
 25 26  1  0  0  0  0
 27 26  1  1  0  0  0
 27 28  1  0  0  0  0
 28 24  1  1  0  0  0
M  END
>  <CHROM.1>
-173.01938442,177.95703844,178.09742018,-175.43886509,67.50959180,37.97664826
24.32681416,25.44280078,0.68392141,-0.40278299,-1.00595543

>  <Name>
ligand

>  <RI>
0

>  <Rbt.Current_Directory>
/home/itssahil/PROJECTS/Mol_Feturizer/New_Systems/rnas/1YLS

>  <Rbt.Executable>
rbdock ($Id: //depot/dev/client3/rdock/2013.1/src/exe/rbdock.cxx#4 $)

>  <Rbt.Library>
libRbt.so (2013.1, Build901 2013/11/27)

>  <Rbt.Parameter_File>
/export/apps/rDock/src/rDock_2013.1_src/data/scripts/dock_solv.prm

>  <Rbt.Receptor>
prm/pocket_docking_4.prm

>  <SCORE>
-38.4642

>  <SCORE.INTER>
-34.1659

>  <SCORE.INTER.CONST>
1

>  <SCORE.INTER.POLAR>
0

>  <SCORE.INTER.ROT>
5

>  <SCORE.INTER.SOLV>
8.29216

>  <SCORE.INTER.VDW>
-32.4746

>  <SCORE.INTER.norm>
-1.22021

>  <SCORE.INTRA>
-4.29835

>  <SCORE.INTRA.DIHEDRAL>
-9.36982

>  <SCORE.INTRA.DIHEDRAL.0>
12.0148

>  <SCORE.INTRA.POLAR>
0

>  <SCORE.INTRA.POLAR.0>
0

>  <SCORE.INTRA.REPUL>
0

>  <SCORE.INTRA.REPUL.0>
0

>  <SCORE.INTRA.SOLV>
0.182068

>  <SCORE.INTRA.SOLV.lig_0>
-10.5235

>  <SCORE.INTRA.VDW>
0.29553

>  <SCORE.INTRA.VDW.0>
-1.38455

>  <SCORE.INTRA.norm>
-0.153512

>  <SCORE.RESTR>
0

>  <SCORE.RESTR.CAVITY>
0

>  <SCORE.RESTR.norm>
0

>  <SCORE.SYSTEM>
0

>  <SCORE.SYSTEM.CONST>
0

>  <SCORE.SYSTEM.DIHEDRAL>
0

>  <SCORE.SYSTEM.SOLV>
0

>  <SCORE.SYSTEM.norm>
0

>  <SCORE.heavy>
28

>  <SCORE.norm>
-1.37372

>  <RMSD>
1.069

$$$$
ligand
 OpenBabel11021811413D
libRbt.so/2013.1/901 2013/11/27
 28 32  0  0  0  0  0  0  0  0999 V2000
   42.5861   28.7819   22.3963 C   0  0  0  0  0  0  0  0  0  0  0  0
   42.6885   27.2913   22.1399 C   0  0  0  0  0  0  0  0  0  0  0  0
   42.2821   26.4820   23.3625 C   0  0  0  0  0  0  0  0  0  0  0  0
   34.3509   24.8651   24.2689 O   0  0  0  0  0  0  0  0  0  0  0  0
   35.0490   25.2043   25.4683 C   0  0  0  0  0  0  0  0  0  0  0  0
   38.7714   23.7561   28.3596 C   0  0  0  0  0  0  0  0  0  0  0  0
   38.6777   24.9214   29.1097 C   0  0  0  0  0  0  0  0  0  0  0  0
   37.7299   25.8888   28.7661 C   0  0  0  0  0  0  0  0  0  0  0  0
   36.8764   25.6926   27.6798 C   0  0  0  0  0  0  0  0  0  0  0  0
   36.1553   24.1838   25.7658 C   0  0  1  0  0  0  0  0  0  0  0  0
   36.9700   24.5185   26.9698 C   0  0  0  0  0  0  0  0  0  0  0  0
   37.9042   23.5726   27.3087 C   0  0  0  0  0  0  0  0  0  0  0  0
   37.9510   22.4140   26.4372 C   0  0  1  0  0  0  0  0  0  0  0  0
   36.3061   20.5505   26.5497 C   0  0  0  0  0  0  0  0  0  0  0  0
   36.6047   21.8766   26.3478 C   0  0  0  0  0  0  0  0  0  0  0  0
   35.6417   22.7859   26.0010 C   0  0  0  0  0  0  0  0  0  0  0  0
   34.3265   22.3742   25.8436 C   0  0  0  0  0  0  0  0  0  0  0  0
   34.0039   21.0337   26.0656 C   0  0  0  0  0  0  0  0  0  0  0  0
   34.9937   20.1266   26.4205 C   0  0  0  0  0  0  0  0  0  0  0  0
   40.7778   26.2428   23.3717 C   0  0  0  0  0  0  0  0  0  0  0  0
   40.2730   26.0782   24.8003 C   0  0  0  0  0  0  0  0  0  0  0  0
   37.6208   26.3117   24.1770 O   0  0  0  0  0  0  0  0  0  0  0  0
   40.5701   23.3345   25.4106 O   0  0  0  0  0  0  0  0  0  0  0  0
   39.4950   23.8057   25.0786 C   0  0  0  0  0  0  0  0  0  0  0  0
   39.2709   25.0246   24.7746 N   0  0  0  0  0  0  0  0  0  0  0  0
   38.0603   25.2377   24.4971 C   0  0  0  0  0  0  0  0  0  0  0  0
   37.2032   24.0296   24.6523 C   0  0  1  0  0  0  0  0  0  0  0  0
   38.2510   22.9908   25.0605 C   0  0  2  0  0  0  0  0  0  0  0  0
  1  2  1  0  0  0  0
  2  3  1  0  0  0  0
  3 20  1  0  0  0  0
  4  5  1  0  0  0  0
  6  7  2  0  0  0  0
  6 12  1  0  0  0  0
  7  8  1  0  0  0  0
  8  9  2  0  0  0  0
  9 11  1  0  0  0  0
 10  5  1  6  0  0  0
 10 11  1  0  0  0  0
 10 16  1  0  0  0  0
 10 27  1  0  0  0  0
 11 12  2  0  0  0  0
 13 12  1  1  0  0  0
 13 15  1  0  0  0  0
 13 28  1  0  0  0  0
 14 15  2  0  0  0  0
 14 19  1  0  0  0  0
 15 16  1  0  0  0  0
 16 17  2  0  0  0  0
 17 18  1  0  0  0  0
 18 19  2  0  0  0  0
 20 21  1  0  0  0  0
 21 25  1  0  0  0  0
 22 26  2  0  0  0  0
 23 24  2  0  0  0  0
 24 25  1  0  0  0  0
 25 26  1  0  0  0  0
 27 26  1  1  0  0  0
 27 28  1  0  0  0  0
 28 24  1  1  0  0  0
M  END
>  <CHROM.1>
87.14606850,177.04151605,-152.24543953,-140.59470671,97.57736448,38.00265118
24.36927681,25.49577266,0.66182057,-0.34782403,-1.00446561

>  <Name>
ligand

>  <RI>
0

>  <Rbt.Current_Directory>
/home/itssahil/PROJECTS/Mol_Feturizer/New_Systems/rnas/1YLS

>  <Rbt.Executable>
rbdock ($Id: //depot/dev/client3/rdock/2013.1/src/exe/rbdock.cxx#4 $)

>  <Rbt.Library>
libRbt.so (2013.1, Build901 2013/11/27)

>  <Rbt.Parameter_File>
/export/apps/rDock/src/rDock_2013.1_src/data/scripts/dock_solv.prm

>  <Rbt.Receptor>
prm/pocket_docking_8.prm

>  <SCORE>
-34.1216

>  <SCORE.INTER>
-34.3781

>  <SCORE.INTER.CONST>
1

>  <SCORE.INTER.POLAR>
0

>  <SCORE.INTER.ROT>
5

>  <SCORE.INTER.SOLV>
7.59196

>  <SCORE.INTER.VDW>
-32.3827

>  <SCORE.INTER.norm>
-1.22779

>  <SCORE.INTRA>
0.256468

>  <SCORE.INTRA.DIHEDRAL>
-0.404189

>  <SCORE.INTRA.DIHEDRAL.0>
12.0148

>  <SCORE.INTRA.POLAR>
0

>  <SCORE.INTRA.POLAR.0>
0

>  <SCORE.INTRA.REPUL>
0

>  <SCORE.INTRA.REPUL.0>
0

>  <SCORE.INTRA.SOLV>
0.202541

>  <SCORE.INTRA.SOLV.lig_0>
-10.5235

>  <SCORE.INTRA.VDW>
0.357292

>  <SCORE.INTRA.VDW.0>
-1.38455

>  <SCORE.INTRA.norm>
0.00915958

>  <SCORE.RESTR>
0

>  <SCORE.RESTR.CAVITY>
0

>  <SCORE.RESTR.norm>
0

>  <SCORE.SYSTEM>
0

>  <SCORE.SYSTEM.CONST>
0

>  <SCORE.SYSTEM.DIHEDRAL>
0

>  <SCORE.SYSTEM.SOLV>
0

>  <SCORE.SYSTEM.norm>
0

>  <SCORE.heavy>
28

>  <SCORE.norm>
-1.21863

>  <RMSD>
1.069

$$$$
ligand
 OpenBabel11021811413D
libRbt.so/2013.1/901 2013/11/27
 28 32  0  0  0  0  0  0  0  0999 V2000
   44.0915   27.7529   22.1548 C   0  0  0  0  0  0  0  0  0  0  0  0
   42.8326   26.9087   22.1385 C   0  0  0  0  0  0  0  0  0  0  0  0
   41.9490   27.1948   23.3436 C   0  0  0  0  0  0  0  0  0  0  0  0
   33.9966   25.4109   24.4921 O   0  0  0  0  0  0  0  0  0  0  0  0
   34.7834   25.6303   25.6642 C   0  0  0  0  0  0  0  0  0  0  0  0
   38.6633   23.8679   28.1447 C   0  0  0  0  0  0  0  0  0  0  0  0
   38.6668   24.9770   28.9809 C   0  0  0  0  0  0  0  0  0  0  0  0
   37.7291   25.9936   28.7823 C   0  0  0  0  0  0  0  0  0  0  0  0
   36.7892   25.9024   27.7550 C   0  0  0  0  0  0  0  0  0  0  0  0
   35.8737   24.5596   25.8009 C   0  0  1  0  0  0  0  0  0  0  0  0
   36.7885   24.7815   26.9581 C   0  0  0  0  0  0  0  0  0  0  0  0
   37.7130   23.7870   27.1546 C   0  0  0  0  0  0  0  0  0  0  0  0
   37.6539   22.6948   26.2019 C   0  0  1  0  0  0  0  0  0  0  0  0
   35.9598   20.8756   26.3100 C   0  0  0  0  0  0  0  0  0  0  0  0
   36.2872   22.2040   26.1802 C   0  0  0  0  0  0  0  0  0  0  0  0
   35.3322   23.1634   25.9754 C   0  0  0  0  0  0  0  0  0  0  0  0
   33.9955   22.8020   25.8926 C   0  0  0  0  0  0  0  0  0  0  0  0
   33.6453   21.4585   26.0431 C   0  0  0  0  0  0  0  0  0  0  0  0
   34.6277   20.5000   26.2540 C   0  0  0  0  0  0  0  0  0  0  0  0
   40.7154   26.3014   23.3285 C   0  0  0  0  0  0  0  0  0  0  0  0
   39.9682   26.4020   24.6531 C   0  0  0  0  0  0  0  0  0  0  0  0
   37.2858   26.7561   24.2576 O   0  0  0  0  0  0  0  0  0  0  0  0
   40.2172   23.6134   25.0415 O   0  0  0  0  0  0  0  0  0  0  0  0
   39.1367   24.1382   24.8291 C   0  0  0  0  0  0  0  0  0  0  0  0
   38.9318   25.3821   24.6310 N   0  0  0  0  0  0  0  0  0  0  0  0
   37.7115   25.6494   24.4651 C   0  0  0  0  0  0  0  0  0  0  0  0
   36.8281   24.4580   24.6005 C   0  0  1  0  0  0  0  0  0  0  0  0
   37.8678   23.3626   24.8504 C   0  0  2  0  0  0  0  0  0  0  0  0
  1  2  1  0  0  0  0
  2  3  1  0  0  0  0
  3 20  1  0  0  0  0
  4  5  1  0  0  0  0
  6  7  2  0  0  0  0
  6 12  1  0  0  0  0
  7  8  1  0  0  0  0
  8  9  2  0  0  0  0
  9 11  1  0  0  0  0
 10  5  1  6  0  0  0
 10 11  1  0  0  0  0
 10 16  1  0  0  0  0
 10 27  1  0  0  0  0
 11 12  2  0  0  0  0
 13 12  1  1  0  0  0
 13 15  1  0  0  0  0
 13 28  1  0  0  0  0
 14 15  2  0  0  0  0
 14 19  1  0  0  0  0
 15 16  1  0  0  0  0
 16 17  2  0  0  0  0
 17 18  1  0  0  0  0
 18 19  2  0  0  0  0
 20 21  1  0  0  0  0
 21 25  1  0  0  0  0
 22 26  2  0  0  0  0
 23 24  2  0  0  0  0
 24 25  1  0  0  0  0
 25 26  1  0  0  0  0
 27 26  1  1  0  0  0
 27 28  1  0  0  0  0
 28 24  1  1  0  0  0
M  END
>  <CHROM.1>
-178.08359589,176.24247411,169.55977372,-171.72659974,77.36260024,37.81906382
24.62025896,25.41875123,0.60147048,-0.22470255,-0.97913529

>  <Name>
ligand

>  <RI>
0

>  <Rbt.Current_Directory>
/home/itssahil/PROJECTS/Mol_Feturizer/New_Systems/rnas/1YLS

>  <Rbt.Executable>
rbdock ($Id: //depot/dev/client3/rdock/2013.1/src/exe/rbdock.cxx#4 $)

>  <Rbt.Library>
libRbt.so (2013.1, Build901 2013/11/27)

>  <Rbt.Parameter_File>
/export/apps/rDock/src/rDock_2013.1_src/data/scripts/dock_solv.prm

>  <Rbt.Receptor>
prm/pocket_docking_2.prm

>  <SCORE>
-37.4983

>  <SCORE.INTER>
-33.1285

>  <SCORE.INTER.CONST>
1

>  <SCORE.INTER.POLAR>
0

>  <SCORE.INTER.ROT>
5

>  <SCORE.INTER.SOLV>
7.48523

>  <SCORE.INTER.VDW>
-31.5141

>  <SCORE.INTER.norm>
-1.18316

>  <SCORE.INTRA>
-4.36987

>  <SCORE.INTRA.DIHEDRAL>
-9.00322

>  <SCORE.INTRA.DIHEDRAL.0>
12.0148

>  <SCORE.INTRA.POLAR>
0

>  <SCORE.INTRA.POLAR.0>
0

>  <SCORE.INTRA.REPUL>
0

>  <SCORE.INTRA.REPUL.0>
0

>  <SCORE.INTRA.SOLV>
0.18093

>  <SCORE.INTRA.SOLV.lig_0>
-10.5235

>  <SCORE.INTRA.VDW>
0.041278

>  <SCORE.INTRA.VDW.0>
-1.38455

>  <SCORE.INTRA.norm>
-0.156067

>  <SCORE.RESTR>
0

>  <SCORE.RESTR.CAVITY>
0

>  <SCORE.RESTR.norm>
0

>  <SCORE.SYSTEM>
0

>  <SCORE.SYSTEM.CONST>
0

>  <SCORE.SYSTEM.DIHEDRAL>
0

>  <SCORE.SYSTEM.SOLV>
0

>  <SCORE.SYSTEM.norm>
0

>  <SCORE.heavy>
28

>  <SCORE.norm>
-1.33923

>  <RMSD>
1.070

$$$$
ligand
 OpenBabel11021811413D
libRbt.so/2013.1/901 2013/11/27
 28 32  0  0  0  0  0  0  0  0999 V2000
   43.6838   28.5448   22.2630 C   0  0  0  0  0  0  0  0  0  0  0  0
   42.8192   27.3032   22.3573 C   0  0  0  0  0  0  0  0  0  0  0  0
   41.6371   27.5117   23.2921 C   0  0  0  0  0  0  0  0  0  0  0  0
   33.8818   24.0318   25.8692 O   0  0  0  0  0  0  0  0  0  0  0  0
   34.9558   24.0413   24.9270 C   0  0  0  0  0  0  0  0  0  0  0  0
   38.4320   24.5909   28.3805 C   0  0  0  0  0  0  0  0  0  0  0  0
   37.8778   25.7987   28.7846 C   0  0  0  0  0  0  0  0  0  0  0  0
   36.7521   26.2967   28.1236 C   0  0  0  0  0  0  0  0  0  0  0  0
   36.1794   25.5904   27.0651 C   0  0  0  0  0  0  0  0  0  0  0  0
   36.2538   23.5362   25.5703 C   0  0  1  0  0  0  0  0  0  0  0  0
   36.7298   24.3835   26.7020 C   0  0  0  0  0  0  0  0  0  0  0  0
   37.8371   23.8997   27.3517 C   0  0  0  0  0  0  0  0  0  0  0  0
   38.3646   22.6551   26.8256 C   0  0  1  0  0  0  0  0  0  0  0  0
   37.3532   20.4318   27.3002 C   0  0  0  0  0  0  0  0  0  0  0  0
   37.2714   21.7000   26.7773 C   0  0  0  0  0  0  0  0  0  0  0  0
   36.1493   22.1390   26.1274 C   0  0  0  0  0  0  0  0  0  0  0  0
   35.0588   21.2941   25.9828 C   0  0  0  0  0  0  0  0  0  0  0  0
   35.1190   20.0093   26.5269 C   0  0  0  0  0  0  0  0  0  0  0  0
   36.2646   19.5830   27.1861 C   0  0  0  0  0  0  0  0  0  0  0  0
   40.8381   26.2237   23.4424 C   0  0  0  0  0  0  0  0  0  0  0  0
   39.7191   26.4062   24.4609 C   0  0  0  0  0  0  0  0  0  0  0  0
   37.2519   25.6083   23.5929 O   0  0  0  0  0  0  0  0  0  0  0  0
   40.7189   24.1262   25.7992 O   0  0  0  0  0  0  0  0  0  0  0  0
   39.6193   24.1301   25.2710 C   0  0  0  0  0  0  0  0  0  0  0  0
   39.0937   25.1053   24.6377 N   0  0  0  0  0  0  0  0  0  0  0  0
   37.9346   24.8403   24.2200 C   0  0  0  0  0  0  0  0  0  0  0  0
   37.4630   23.4863   24.6230 C   0  0  1  0  0  0  0  0  0  0  0  0
   38.6938   22.9703   25.3729 C   0  0  2  0  0  0  0  0  0  0  0  0
  1  2  1  0  0  0  0
  2  3  1  0  0  0  0
  3 20  1  0  0  0  0
  4  5  1  0  0  0  0
  6  7  2  0  0  0  0
  6 12  1  0  0  0  0
  7  8  1  0  0  0  0
  8  9  2  0  0  0  0
  9 11  1  0  0  0  0
 10  5  1  6  0  0  0
 10 11  1  0  0  0  0
 10 16  1  0  0  0  0
 10 27  1  0  0  0  0
 11 12  2  0  0  0  0
 13 12  1  1  0  0  0
 13 15  1  0  0  0  0
 13 28  1  0  0  0  0
 14 15  2  0  0  0  0
 14 19  1  0  0  0  0
 15 16  1  0  0  0  0
 16 17  2  0  0  0  0
 17 18  1  0  0  0  0
 18 19  2  0  0  0  0
 20 21  1  0  0  0  0
 21 25  1  0  0  0  0
 22 26  2  0  0  0  0
 23 24  2  0  0  0  0
 24 25  1  0  0  0  0
 25 26  1  0  0  0  0
 27 26  1  1  0  0  0
 27 28  1  0  0  0  0
 28 24  1  1  0  0  0
M  END
>  <CHROM.1>
-176.20830699,-62.13487266,175.66375477,-174.63653038,73.29683499,38.08423897
24.25693902,25.56477531,-0.72605437,-0.38339996,2.95096367

>  <Name>
ligand

>  <RI>
0

>  <Rbt.Current_Directory>
/home/itssahil/PROJECTS/Mol_Feturizer/New_Systems/rnas/1YLS

>  <Rbt.Executable>
rbdock ($Id: //depot/dev/client3/rdock/2013.1/src/exe/rbdock.cxx#4 $)

>  <Rbt.Library>
libRbt.so (2013.1, Build901 2013/11/27)

>  <Rbt.Parameter_File>
/export/apps/rDock/src/rDock_2013.1_src/data/scripts/dock_solv.prm

>  <Rbt.Receptor>
prm/pocket_docking_7.prm

>  <SCORE>
-38.3801

>  <SCORE.INTER>
-33.6967

>  <SCORE.INTER.CONST>
1

>  <SCORE.INTER.POLAR>
0

>  <SCORE.INTER.ROT>
5

>  <SCORE.INTER.SOLV>
7.69709

>  <SCORE.INTER.VDW>
-31.9635

>  <SCORE.INTER.norm>
-1.20345

>  <SCORE.INTRA>
-4.68345

>  <SCORE.INTRA.DIHEDRAL>
-9.46873

>  <SCORE.INTRA.DIHEDRAL.0>
12.0148

>  <SCORE.INTRA.POLAR>
0

>  <SCORE.INTRA.POLAR.0>
0

>  <SCORE.INTRA.REPUL>
0

>  <SCORE.INTRA.REPUL.0>
0

>  <SCORE.INTRA.SOLV>
-0.0322701

>  <SCORE.INTRA.SOLV.lig_0>
-10.5235

>  <SCORE.INTRA.VDW>
0.0670536

>  <SCORE.INTRA.VDW.0>
-1.38455

>  <SCORE.INTRA.norm>
-0.167266

>  <SCORE.RESTR>
0

>  <SCORE.RESTR.CAVITY>
0

>  <SCORE.RESTR.norm>
0

>  <SCORE.SYSTEM>
0

>  <SCORE.SYSTEM.CONST>
0

>  <SCORE.SYSTEM.DIHEDRAL>
0

>  <SCORE.SYSTEM.SOLV>
0

>  <SCORE.SYSTEM.norm>
0

>  <SCORE.heavy>
28

>  <SCORE.norm>
-1.37072

>  <RMSD>
1.072

$$$$
ligand
 OpenBabel11021811413D
libRbt.so/2013.1/901 2013/11/27
 28 32  0  0  0  0  0  0  0  0999 V2000
   44.1339   27.6416   22.1282 C   0  0  0  0  0  0  0  0  0  0  0  0
   42.8393   26.8552   22.0693 C   0  0  0  0  0  0  0  0  0  0  0  0
   41.9494   27.1480   23.2682 C   0  0  0  0  0  0  0  0  0  0  0  0
   33.8475   25.8191   26.5447 O   0  0  0  0  0  0  0  0  0  0  0  0
   34.6785   25.6924   25.3894 C   0  0  0  0  0  0  0  0  0  0  0  0
   38.4875   24.0853   28.0767 C   0  0  0  0  0  0  0  0  0  0  0  0
   38.4558   25.2334   28.8576 C   0  0  0  0  0  0  0  0  0  0  0  0
   37.5180   26.2312   28.5798 C   0  0  0  0  0  0  0  0  0  0  0  0
   36.6129   26.0823   27.5282 C   0  0  0  0  0  0  0  0  0  0  0  0
   35.7711   24.6390   25.6130 C   0  0  1  0  0  0  0  0  0  0  0  0
   36.6460   24.9243   26.7871 C   0  0  0  0  0  0  0  0  0  0  0  0
   37.5706   23.9484   27.0615 C   0  0  0  0  0  0  0  0  0  0  0  0
   37.5503   22.8111   26.1615 C   0  0  1  0  0  0  0  0  0  0  0  0
   35.8664   20.9847   26.3030 C   0  0  0  0  0  0  0  0  0  0  0  0
   36.1885   22.3080   26.1195 C   0  0  0  0  0  0  0  0  0  0  0  0
   35.2340   23.2482   25.8377 C   0  0  0  0  0  0  0  0  0  0  0  0
   33.9033   22.8718   25.7293 C   0  0  0  0  0  0  0  0  0  0  0  0
   33.5578   21.5342   25.9335 C   0  0  0  0  0  0  0  0  0  0  0  0
   34.5395   20.5954   26.2224 C   0  0  0  0  0  0  0  0  0  0  0  0
   40.6958   26.2836   23.2297 C   0  0  0  0  0  0  0  0  0  0  0  0
   39.8880   26.4588   24.5101 C   0  0  0  0  0  0  0  0  0  0  0  0
   37.2175   26.7704   24.0114 O   0  0  0  0  0  0  0  0  0  0  0  0
   40.1437   23.6945   25.0413 O   0  0  0  0  0  0  0  0  0  0  0  0
   39.0671   24.1991   24.7688 C   0  0  0  0  0  0  0  0  0  0  0  0
   38.8600   25.4302   24.5041 N   0  0  0  0  0  0  0  0  0  0  0  0
   37.6439   25.6786   24.2860 C   0  0  0  0  0  0  0  0  0  0  0  0
   36.7649   24.4877   24.4505 C   0  0  1  0  0  0  0  0  0  0  0  0
   37.8036   23.4146   24.7868 C   0  0  2  0  0  0  0  0  0  0  0  0
  1  2  1  0  0  0  0
  2  3  1  0  0  0  0
  3 20  1  0  0  0  0
  4  5  1  0  0  0  0
  6  7  2  0  0  0  0
  6 12  1  0  0  0  0
  7  8  1  0  0  0  0
  8  9  2  0  0  0  0
  9 11  1  0  0  0  0
 10  5  1  6  0  0  0
 10 11  1  0  0  0  0
 10 16  1  0  0  0  0
 10 27  1  0  0  0  0
 11 12  2  0  0  0  0
 13 12  1  1  0  0  0
 13 15  1  0  0  0  0
 13 28  1  0  0  0  0
 14 15  2  0  0  0  0
 14 19  1  0  0  0  0
 15 16  1  0  0  0  0
 16 17  2  0  0  0  0
 17 18  1  0  0  0  0
 18 19  2  0  0  0  0
 20 21  1  0  0  0  0
 21 25  1  0  0  0  0
 22 26  2  0  0  0  0
 23 24  2  0  0  0  0
 24 25  1  0  0  0  0
 25 26  1  0  0  0  0
 27 26  1  1  0  0  0
 27 28  1  0  0  0  0
 28 24  1  1  0  0  0
M  END
>  <CHROM.1>
-176.52878359,-57.82587055,173.37398148,-169.59355372,76.28325584,37.72870659
24.70899802,25.39760470,-0.31852890,-0.53930531,-2.86995513

>  <Name>
ligand

>  <RI>
0

>  <Rbt.Current_Directory>
/home/itssahil/PROJECTS/Mol_Feturizer/New_Systems/rnas/1YLS

>  <Rbt.Executable>
rbdock ($Id: //depot/dev/client3/rdock/2013.1/src/exe/rbdock.cxx#4 $)

>  <Rbt.Library>
libRbt.so (2013.1, Build901 2013/11/27)

>  <Rbt.Parameter_File>
/export/apps/rDock/src/rDock_2013.1_src/data/scripts/dock_solv.prm

>  <Rbt.Receptor>
prm/pocket_docking_2.prm

>  <SCORE>
-37.7427

>  <SCORE.INTER>
-33.178

>  <SCORE.INTER.CONST>
1

>  <SCORE.INTER.POLAR>
0

>  <SCORE.INTER.ROT>
5

>  <SCORE.INTER.SOLV>
8.14381

>  <SCORE.INTER.VDW>
-31.7666

>  <SCORE.INTER.norm>
-1.18493

>  <SCORE.INTRA>
-4.5647

>  <SCORE.INTRA.DIHEDRAL>
-9.08699

>  <SCORE.INTRA.DIHEDRAL.0>
12.0148

>  <SCORE.INTRA.POLAR>
0

>  <SCORE.INTRA.POLAR.0>
0

>  <SCORE.INTRA.REPUL>
0

>  <SCORE.INTRA.REPUL.0>
0

>  <SCORE.INTRA.SOLV>
-0.0257869

>  <SCORE.INTRA.SOLV.lig_0>
-10.5235

>  <SCORE.INTRA.VDW>
-0.00831202

>  <SCORE.INTRA.VDW.0>
-1.38455

>  <SCORE.INTRA.norm>
-0.163025

>  <SCORE.RESTR>
0

>  <SCORE.RESTR.CAVITY>
0

>  <SCORE.RESTR.norm>
0

>  <SCORE.SYSTEM>
0

>  <SCORE.SYSTEM.CONST>
0

>  <SCORE.SYSTEM.DIHEDRAL>
0

>  <SCORE.SYSTEM.SOLV>
0

>  <SCORE.SYSTEM.norm>
0

>  <SCORE.heavy>
28

>  <SCORE.norm>
-1.34795

>  <RMSD>
1.075

$$$$
ligand
 OpenBabel11021811413D
libRbt.so/2013.1/901 2013/11/27
 28 32  0  0  0  0  0  0  0  0999 V2000
   42.7019   28.8990   22.4376 C   0  0  0  0  0  0  0  0  0  0  0  0
   41.8396   27.6945   22.7595 C   0  0  0  0  0  0  0  0  0  0  0  0
   42.5965   26.6672   23.5880 C   0  0  0  0  0  0  0  0  0  0  0  0
   34.3303   24.5608   25.8190 O   0  0  0  0  0  0  0  0  0  0  0  0
   35.4443   24.4209   24.9355 C   0  0  0  0  0  0  0  0  0  0  0  0
   38.7621   24.0903   28.5681 C   0  0  0  0  0  0  0  0  0  0  0  0
   38.4351   25.3627   29.0191 C   0  0  0  0  0  0  0  0  0  0  0  0
   37.4683   26.1082   28.3396 C   0  0  0  0  0  0  0  0  0  0  0  0
   36.8278   25.5847   27.2159 C   0  0  0  0  0  0  0  0  0  0  0  0
   36.5792   23.6349   25.6046 C   0  0  1  0  0  0  0  0  0  0  0  0
   37.1490   24.3120   26.8056 C   0  0  0  0  0  0  0  0  0  0  0  0
   38.1011   23.5845   27.4739 C   0  0  0  0  0  0  0  0  0  0  0  0
   38.4014   22.2876   26.8977 C   0  0  1  0  0  0  0  0  0  0  0  0
   36.9468   20.2904   27.1914 C   0  0  0  0  0  0  0  0  0  0  0  0
   37.1460   21.5741   26.7430 C   0  0  0  0  0  0  0  0  0  0  0  0
   36.1704   22.2606   26.0711 C   0  0  0  0  0  0  0  0  0  0  0  0
   34.9446   21.6591   25.8270 C   0  0  0  0  0  0  0  0  0  0  0  0
   34.7200   20.3625   26.2947 C   0  0  0  0  0  0  0  0  0  0  0  0
   35.7203   19.6832   26.9777 C   0  0  0  0  0  0  0  0  0  0  0  0
   41.7231   25.4497   23.8616 C   0  0  0  0  0  0  0  0  0  0  0  0
   40.5988   25.8063   24.8268 C   0  0  0  0  0  0  0  0  0  0  0  0
   38.0752   25.5623   23.8026 O   0  0  0  0  0  0  0  0  0  0  0  0
   41.0532   23.3082   26.0685 O   0  0  0  0  0  0  0  0  0  0  0  0
   40.0072   23.5583   25.4928 C   0  0  0  0  0  0  0  0  0  0  0  0
   39.7203   24.6495   24.8966 N   0  0  0  0  0  0  0  0  0  0  0  0
   38.5570   24.6428   24.4121 C   0  0  0  0  0  0  0  0  0  0  0  0
   37.8059   23.3920   24.7112 C   0  0  1  0  0  0  0  0  0  0  0  0
   38.8670   22.6033   25.4829 C   0  0  2  0  0  0  0  0  0  0  0  0
  1  2  1  0  0  0  0
  2  3  1  0  0  0  0
  3 20  1  0  0  0  0
  4  5  1  0  0  0  0
  6  7  2  0  0  0  0
  6 12  1  0  0  0  0
  7  8  1  0  0  0  0
  8  9  2  0  0  0  0
  9 11  1  0  0  0  0
 10  5  1  6  0  0  0
 10 11  1  0  0  0  0
 10 16  1  0  0  0  0
 10 27  1  0  0  0  0
 11 12  2  0  0  0  0
 13 12  1  1  0  0  0
 13 15  1  0  0  0  0
 13 28  1  0  0  0  0
 14 15  2  0  0  0  0
 14 19  1  0  0  0  0
 15 16  1  0  0  0  0
 16 17  2  0  0  0  0
 17 18  1  0  0  0  0
 18 19  2  0  0  0  0
 20 21  1  0  0  0  0
 21 25  1  0  0  0  0
 22 26  2  0  0  0  0
 23 24  2  0  0  0  0
 24 25  1  0  0  0  0
 25 26  1  0  0  0  0
 27 26  1  1  0  0  0
 27 28  1  0  0  0  0
 28 24  1  1  0  0  0
M  END
>  <CHROM.1>
-178.27651599,-63.04927032,-69.76040417,172.76172541,72.70905817,38.33175842
24.10487859,25.68914126,0.78183533,0.12022227,-0.43251284

>  <Name>
ligand

>  <RI>
0

>  <Rbt.Current_Directory>
/home/itssahil/PROJECTS/Mol_Feturizer/New_Systems/rnas/1YLS

>  <Rbt.Executable>
rbdock ($Id: //depot/dev/client3/rdock/2013.1/src/exe/rbdock.cxx#4 $)

>  <Rbt.Library>
libRbt.so (2013.1, Build901 2013/11/27)

>  <Rbt.Parameter_File>
/export/apps/rDock/src/rDock_2013.1_src/data/scripts/dock_solv.prm

>  <Rbt.Receptor>
prm/pocket_docking_7.prm

>  <SCORE>
-37.7506

>  <SCORE.INTER>
-33.8983

>  <SCORE.INTER.CONST>
1

>  <SCORE.INTER.POLAR>
0

>  <SCORE.INTER.ROT>
5

>  <SCORE.INTER.SOLV>
7.25911

>  <SCORE.INTER.VDW>
-31.9519

>  <SCORE.INTER.norm>
-1.21065

>  <SCORE.INTRA>
-3.85227

>  <SCORE.INTRA.DIHEDRAL>
-9.09893

>  <SCORE.INTRA.DIHEDRAL.0>
12.0148

>  <SCORE.INTRA.POLAR>
0

>  <SCORE.INTRA.POLAR.0>
0

>  <SCORE.INTRA.REPUL>
0

>  <SCORE.INTRA.REPUL.0>
0

>  <SCORE.INTRA.SOLV>
-0.0098257

>  <SCORE.INTRA.SOLV.lig_0>
-10.5235

>  <SCORE.INTRA.VDW>
0.702103

>  <SCORE.INTRA.VDW.0>
-1.38455

>  <SCORE.INTRA.norm>
-0.137581

>  <SCORE.RESTR>
0

>  <SCORE.RESTR.CAVITY>
0

>  <SCORE.RESTR.norm>
0

>  <SCORE.SYSTEM>
0

>  <SCORE.SYSTEM.CONST>
0

>  <SCORE.SYSTEM.DIHEDRAL>
0

>  <SCORE.SYSTEM.SOLV>
0

>  <SCORE.SYSTEM.norm>
0

>  <SCORE.heavy>
28

>  <SCORE.norm>
-1.34823

>  <RMSD>
1.075

$$$$
ligand
 OpenBabel11021811413D
libRbt.so/2013.1/901 2013/11/27
 28 32  0  0  0  0  0  0  0  0999 V2000
   43.2623   28.0257   22.5837 C   0  0  0  0  0  0  0  0  0  0  0  0
   41.8196   28.1665   23.0269 C   0  0  0  0  0  0  0  0  0  0  0  0
   40.9749   26.9851   22.5734 C   0  0  0  0  0  0  0  0  0  0  0  0
   34.1069   25.1520   26.2103 O   0  0  0  0  0  0  0  0  0  0  0  0
   35.0960   25.0005   25.1906 C   0  0  0  0  0  0  0  0  0  0  0  0
   38.6632   23.9091   28.4151 C   0  0  0  0  0  0  0  0  0  0  0  0
   38.4955   25.1304   29.0552 C   0  0  0  0  0  0  0  0  0  0  0  0
   37.5486   26.0377   28.5731 C   0  0  0  0  0  0  0  0  0  0  0  0
   36.7695   25.7261   27.4582 C   0  0  0  0  0  0  0  0  0  0  0  0
   36.2051   24.0410   25.6411 C   0  0  1  0  0  0  0  0  0  0  0  0
   36.9348   24.4994   26.8588 C   0  0  0  0  0  0  0  0  0  0  0  0
   37.8679   23.6127   27.3335 C   0  0  0  0  0  0  0  0  0  0  0  0
   37.9964   22.3865   26.5694 C   0  0  1  0  0  0  0  0  0  0  0  0
   36.3919   20.4926   26.7424 C   0  0  0  0  0  0  0  0  0  0  0  0
   36.6713   21.8050   26.4455 C   0  0  0  0  0  0  0  0  0  0  0  0
   35.7108   22.6537   25.9643 C   0  0  0  0  0  0  0  0  0  0  0  0
   34.4180   22.1926   25.7638 C   0  0  0  0  0  0  0  0  0  0  0  0
   34.1138   20.8669   26.0804 C   0  0  0  0  0  0  0  0  0  0  0  0
   35.1005   20.0219   26.5711 C   0  0  0  0  0  0  0  0  0  0  0  0
   41.1700   25.7967   23.5060 C   0  0  0  0  0  0  0  0  0  0  0  0
   40.3296   25.9646   24.7663 C   0  0  0  0  0  0  0  0  0  0  0  0
   37.7168   26.0683   23.9664 O   0  0  0  0  0  0  0  0  0  0  0  0
   40.6522   23.2919   25.6273 O   0  0  0  0  0  0  0  0  0  0  0  0
   39.5893   23.7023   25.1917 C   0  0  0  0  0  0  0  0  0  0  0  0
   39.3561   24.8843   24.7710 N   0  0  0  0  0  0  0  0  0  0  0  0
   38.1605   25.0383   24.4036 C   0  0  0  0  0  0  0  0  0  0  0  0
   37.3240   23.8235   24.6102 C   0  0  1  0  0  0  0  0  0  0  0  0
   38.3683   22.8534   25.1687 C   0  0  2  0  0  0  0  0  0  0  0  0
  1  2  1  0  0  0  0
  2  3  1  0  0  0  0
  3 20  1  0  0  0  0
  4  5  1  0  0  0  0
  6  7  2  0  0  0  0
  6 12  1  0  0  0  0
  7  8  1  0  0  0  0
  8  9  2  0  0  0  0
  9 11  1  0  0  0  0
 10  5  1  6  0  0  0
 10 11  1  0  0  0  0
 10 16  1  0  0  0  0
 10 27  1  0  0  0  0
 11 12  2  0  0  0  0
 13 12  1  1  0  0  0
 13 15  1  0  0  0  0
 13 28  1  0  0  0  0
 14 15  2  0  0  0  0
 14 19  1  0  0  0  0
 15 16  1  0  0  0  0
 16 17  2  0  0  0  0
 17 18  1  0  0  0  0
 18 19  2  0  0  0  0
 20 21  1  0  0  0  0
 21 25  1  0  0  0  0
 22 26  2  0  0  0  0
 23 24  2  0  0  0  0
 24 25  1  0  0  0  0
 25 26  1  0  0  0  0
 27 26  1  1  0  0  0
 27 28  1  0  0  0  0
 28 24  1  1  0  0  0
M  END
>  <CHROM.1>
80.38082713,-60.61187689,80.20791971,116.09927158,83.11804300,37.98059088
24.32377180,25.58367791,-0.70039096,-0.29612372,2.88089157

>  <Name>
ligand

>  <RI>
0

>  <Rbt.Current_Directory>
/home/itssahil/PROJECTS/Mol_Feturizer/New_Systems/rnas/1YLS

>  <Rbt.Executable>
rbdock ($Id: //depot/dev/client3/rdock/2013.1/src/exe/rbdock.cxx#4 $)

>  <Rbt.Library>
libRbt.so (2013.1, Build901 2013/11/27)

>  <Rbt.Parameter_File>
/export/apps/rDock/src/rDock_2013.1_src/data/scripts/dock_solv.prm

>  <Rbt.Receptor>
prm/pocket_docking_7.prm

>  <SCORE>
-34.1383

>  <SCORE.INTER>
-34.2313

>  <SCORE.INTER.CONST>
1

>  <SCORE.INTER.POLAR>
0

>  <SCORE.INTER.ROT>
5

>  <SCORE.INTER.SOLV>
7.84996

>  <SCORE.INTER.VDW>
-32.3709

>  <SCORE.INTER.norm>
-1.22255

>  <SCORE.INTRA>
0.0930221

>  <SCORE.INTRA.DIHEDRAL>
-1.18041

>  <SCORE.INTRA.DIHEDRAL.0>
12.0148

>  <SCORE.INTRA.POLAR>
0

>  <SCORE.INTRA.POLAR.0>
0

>  <SCORE.INTRA.REPUL>
0

>  <SCORE.INTRA.REPUL.0>
0

>  <SCORE.INTRA.SOLV>
0.0786594

>  <SCORE.INTRA.SOLV.lig_0>
-10.5235

>  <SCORE.INTRA.VDW>
0.643899

>  <SCORE.INTRA.VDW.0>
-1.38455

>  <SCORE.INTRA.norm>
0.00332222

>  <SCORE.RESTR>
0

>  <SCORE.RESTR.CAVITY>
0

>  <SCORE.RESTR.norm>
0

>  <SCORE.SYSTEM>
0

>  <SCORE.SYSTEM.CONST>
0

>  <SCORE.SYSTEM.DIHEDRAL>
0

>  <SCORE.SYSTEM.SOLV>
0

>  <SCORE.SYSTEM.norm>
0

>  <SCORE.heavy>
28

>  <SCORE.norm>
-1.21922

>  <RMSD>
1.076

$$$$
ligand
 OpenBabel11021811413D
libRbt.so/2013.1/901 2013/11/27
 28 32  0  0  0  0  0  0  0  0999 V2000
   43.4629   28.0612   22.3522 C   0  0  0  0  0  0  0  0  0  0  0  0
   42.3889   27.0614   22.7327 C   0  0  0  0  0  0  0  0  0  0  0  0
   42.8854   26.0750   23.7794 C   0  0  0  0  0  0  0  0  0  0  0  0
   34.8356   24.7065   23.9863 O   0  0  0  0  0  0  0  0  0  0  0  0
   35.4002   25.0391   25.2558 C   0  0  0  0  0  0  0  0  0  0  0  0
   38.8320   23.5897   28.4861 C   0  0  0  0  0  0  0  0  0  0  0  0
   38.7650   24.8101   29.1459 C   0  0  0  0  0  0  0  0  0  0  0  0
   37.9042   25.8039   28.6729 C   0  0  0  0  0  0  0  0  0  0  0  0
   37.1106   25.5794   27.5473 C   0  0  0  0  0  0  0  0  0  0  0  0
   36.4183   23.9799   25.6974 C   0  0  1  0  0  0  0  0  0  0  0  0
   37.1745   24.3531   26.9280 C   0  0  0  0  0  0  0  0  0  0  0  0
   38.0234   23.3812   27.3939 C   0  0  0  0  0  0  0  0  0  0  0  0
   38.0519   22.1614   26.6096 C   0  0  1  0  0  0  0  0  0  0  0  0
   36.2883   20.4109   26.7386 C   0  0  0  0  0  0  0  0  0  0  0  0
   36.6826   21.6989   26.4664 C   0  0  0  0  0  0  0  0  0  0  0  0
   35.8032   22.6354   25.9931 C   0  0  0  0  0  0  0  0  0  0  0  0
   34.4772   22.2913   25.7755 C   0  0  0  0  0  0  0  0  0  0  0  0
   34.0568   20.9919   26.0671 C   0  0  0  0  0  0  0  0  0  0  0  0
   34.9626   20.0565   26.5501 C   0  0  0  0  0  0  0  0  0  0  0  0
   41.8405   24.9977   24.0396 C   0  0  0  0  0  0  0  0  0  0  0  0
   40.7009   25.5536   24.8852 C   0  0  0  0  0  0  0  0  0  0  0  0
   38.1138   25.8963   24.0687 O   0  0  0  0  0  0  0  0  0  0  0  0
   40.7840   22.8490   25.7021 O   0  0  0  0  0  0  0  0  0  0  0  0
   39.7643   23.3571   25.2662 C   0  0  0  0  0  0  0  0  0  0  0  0
   39.6377   24.5616   24.8643 N   0  0  0  0  0  0  0  0  0  0  0  0
   38.4630   24.8246   24.4912 C   0  0  0  0  0  0  0  0  0  0  0  0
   37.5230   23.6835   24.6709 C   0  0  1  0  0  0  0  0  0  0  0  0
   38.4747   22.6175   25.2199 C   0  0  2  0  0  0  0  0  0  0  0  0
  1  2  1  0  0  0  0
  2  3  1  0  0  0  0
  3 20  1  0  0  0  0
  4  5  1  0  0  0  0
  6  7  2  0  0  0  0
  6 12  1  0  0  0  0
  7  8  1  0  0  0  0
  8  9  2  0  0  0  0
  9 11  1  0  0  0  0
 10  5  1  6  0  0  0
 10 11  1  0  0  0  0
 10 16  1  0  0  0  0
 10 27  1  0  0  0  0
 11 12  2  0  0  0  0
 13 12  1  1  0  0  0
 13 15  1  0  0  0  0
 13 28  1  0  0  0  0
 14 15  2  0  0  0  0
 14 19  1  0  0  0  0
 15 16  1  0  0  0  0
 16 17  2  0  0  0  0
 17 18  1  0  0  0  0
 18 19  2  0  0  0  0
 20 21  1  0  0  0  0
 21 25  1  0  0  0  0
 22 26  2  0  0  0  0
 23 24  2  0  0  0  0
 24 25  1  0  0  0  0
 25 26  1  0  0  0  0
 27 26  1  1  0  0  0
 27 28  1  0  0  0  0
 28 24  1  1  0  0  0
M  END
>  <CHROM.1>
-174.20641016,172.50868306,-75.34033791,168.99321836,58.83730109,38.28214340
24.05879355,25.57982021,0.59701157,-0.29533248,-0.99014918

>  <Name>
ligand

>  <RI>
0

>  <Rbt.Current_Directory>
/home/itssahil/PROJECTS/Mol_Feturizer/New_Systems/rnas/1YLS

>  <Rbt.Executable>
rbdock ($Id: //depot/dev/client3/rdock/2013.1/src/exe/rbdock.cxx#4 $)

>  <Rbt.Library>
libRbt.so (2013.1, Build901 2013/11/27)

>  <Rbt.Parameter_File>
/export/apps/rDock/src/rDock_2013.1_src/data/scripts/dock_solv.prm

>  <Rbt.Receptor>
prm/pocket_docking_2.prm

>  <SCORE>
-35.1837

>  <SCORE.INTER>
-32.4489

>  <SCORE.INTER.CONST>
1

>  <SCORE.INTER.POLAR>
0

>  <SCORE.INTER.ROT>
5

>  <SCORE.INTER.SOLV>
7.06928

>  <SCORE.INTER.VDW>
-30.9223

>  <SCORE.INTER.norm>
-1.15889

>  <SCORE.INTRA>
-2.74346

>  <SCORE.INTRA.DIHEDRAL>
-7.90545

>  <SCORE.INTRA.DIHEDRAL.0>
12.0148

>  <SCORE.INTRA.POLAR>
0

>  <SCORE.INTRA.POLAR.0>
0

>  <SCORE.INTRA.REPUL>
0

>  <SCORE.INTRA.REPUL.0>
0

>  <SCORE.INTRA.SOLV>
0.237846

>  <SCORE.INTRA.SOLV.lig_0>
-10.5235

>  <SCORE.INTRA.VDW>
1.09034

>  <SCORE.INTRA.VDW.0>
-1.38455

>  <SCORE.INTRA.norm>
-0.0979806

>  <SCORE.RESTR>
0.00866287

>  <SCORE.RESTR.CAVITY>
0.00866287

>  <SCORE.RESTR.norm>
0.000309388

>  <SCORE.SYSTEM>
0

>  <SCORE.SYSTEM.CONST>
0

>  <SCORE.SYSTEM.DIHEDRAL>
0

>  <SCORE.SYSTEM.SOLV>
0

>  <SCORE.SYSTEM.norm>
0

>  <SCORE.heavy>
28

>  <SCORE.norm>
-1.25656

>  <RMSD>
1.079

$$$$
ligand
 OpenBabel11021811413D
libRbt.so/2013.1/901 2013/11/27
 28 32  0  0  0  0  0  0  0  0999 V2000
   43.8800   26.2971   21.8896 C   0  0  0  0  0  0  0  0  0  0  0  0
   42.4178   26.6965   21.8755 C   0  0  0  0  0  0  0  0  0  0  0  0
   41.7486   26.4253   23.2147 C   0  0  0  0  0  0  0  0  0  0  0  0
   33.8490   24.8976   24.6356 O   0  0  0  0  0  0  0  0  0  0  0  0
   34.6677   25.2629   25.7479 C   0  0  0  0  0  0  0  0  0  0  0  0
   38.8373   24.0589   28.0883 C   0  0  0  0  0  0  0  0  0  0  0  0
   38.7174   25.1607   28.9256 C   0  0  0  0  0  0  0  0  0  0  0  0
   37.6424   26.0381   28.7615 C   0  0  0  0  0  0  0  0  0  0  0  0
   36.6888   25.8150   27.7676 C   0  0  0  0  0  0  0  0  0  0  0  0
   35.8989   24.3527   25.8446 C   0  0  1  0  0  0  0  0  0  0  0  0
   36.8144   24.7021   26.9695 C   0  0  0  0  0  0  0  0  0  0  0  0
   37.8731   23.8448   27.1320 C   0  0  0  0  0  0  0  0  0  0  0  0
   37.9316   22.7517   26.1802 C   0  0  1  0  0  0  0  0  0  0  0  0
   36.5086   20.7173   26.3448 C   0  0  0  0  0  0  0  0  0  0  0  0
   36.6454   22.0776   26.2056 C   0  0  0  0  0  0  0  0  0  0  0  0
   35.5610   22.8959   26.0359 C   0  0  0  0  0  0  0  0  0  0  0  0
   34.2847   22.3539   25.9993 C   0  0  0  0  0  0  0  0  0  0  0  0
   34.1280   20.9755   26.1601 C   0  0  0  0  0  0  0  0  0  0  0  0
   35.2397   20.1618   26.3349 C   0  0  0  0  0  0  0  0  0  0  0  0
   40.2744   26.8053   23.1646 C   0  0  0  0  0  0  0  0  0  0  0  0
   39.6586   26.7368   24.5571 C   0  0  0  0  0  0  0  0  0  0  0  0
   36.9409   26.7174   24.2563 O   0  0  0  0  0  0  0  0  0  0  0  0
   40.3022   24.0102   24.9322 O   0  0  0  0  0  0  0  0  0  0  0  0
   39.1530   24.3808   24.7585 C   0  0  0  0  0  0  0  0  0  0  0  0
   38.7722   25.5840   24.5697 N   0  0  0  0  0  0  0  0  0  0  0  0
   37.5217   25.6804   24.4470 C   0  0  0  0  0  0  0  0  0  0  0  0
   36.8158   24.3794   24.6115 C   0  0  1  0  0  0  0  0  0  0  0  0
   38.0044   23.4381   24.8231 C   0  0  2  0  0  0  0  0  0  0  0  0
  1  2  1  0  0  0  0
  2  3  1  0  0  0  0
  3 20  1  0  0  0  0
  4  5  1  0  0  0  0
  6  7  2  0  0  0  0
  6 12  1  0  0  0  0
  7  8  1  0  0  0  0
  8  9  2  0  0  0  0
  9 11  1  0  0  0  0
 10  5  1  6  0  0  0
 10 11  1  0  0  0  0
 10 16  1  0  0  0  0
 10 27  1  0  0  0  0
 11 12  2  0  0  0  0
 13 12  1  1  0  0  0
 13 15  1  0  0  0  0
 13 28  1  0  0  0  0
 14 15  2  0  0  0  0
 14 19  1  0  0  0  0
 15 16  1  0  0  0  0
 16 17  2  0  0  0  0
 17 18  1  0  0  0  0
 18 19  2  0  0  0  0
 20 21  1  0  0  0  0
 21 25  1  0  0  0  0
 22 26  2  0  0  0  0
 23 24  2  0  0  0  0
 24 25  1  0  0  0  0
 25 26  1  0  0  0  0
 27 26  1  1  0  0  0
 27 28  1  0  0  0  0
 28 24  1  1  0  0  0
M  END
>  <CHROM.1>
-178.71881049,178.65421994,-171.30303069,-108.90351554,82.18029504,37.82912245
24.49647196,25.39201523,-0.55623938,-0.38727668,2.94939348

>  <Name>
ligand

>  <RI>
0

>  <Rbt.Current_Directory>
/home/itssahil/PROJECTS/Mol_Feturizer/New_Systems/rnas/1YLS

>  <Rbt.Executable>
rbdock ($Id: //depot/dev/client3/rdock/2013.1/src/exe/rbdock.cxx#4 $)

>  <Rbt.Library>
libRbt.so (2013.1, Build901 2013/11/27)

>  <Rbt.Parameter_File>
/export/apps/rDock/src/rDock_2013.1_src/data/scripts/dock_solv.prm

>  <Rbt.Receptor>
prm/pocket_docking_5.prm

>  <SCORE>
-36.7686

>  <SCORE.INTER>
-34.5333

>  <SCORE.INTER.CONST>
1

>  <SCORE.INTER.POLAR>
0

>  <SCORE.INTER.ROT>
5

>  <SCORE.INTER.SOLV>
7.4837

>  <SCORE.INTER.VDW>
-32.4501

>  <SCORE.INTER.norm>
-1.23333

>  <SCORE.INTRA>
-2.23526

>  <SCORE.INTRA.DIHEDRAL>
-4.39331

>  <SCORE.INTRA.DIHEDRAL.0>
12.0148

>  <SCORE.INTRA.POLAR>
0

>  <SCORE.INTRA.POLAR.0>
0

>  <SCORE.INTRA.REPUL>
0

>  <SCORE.INTRA.REPUL.0>
0

>  <SCORE.INTRA.SOLV>
0.336258

>  <SCORE.INTRA.SOLV.lig_0>
-10.5235

>  <SCORE.INTRA.VDW>
-0.206737

>  <SCORE.INTRA.VDW.0>
-1.38455

>  <SCORE.INTRA.norm>
-0.0798308

>  <SCORE.RESTR>
0

>  <SCORE.RESTR.CAVITY>
0

>  <SCORE.RESTR.norm>
0

>  <SCORE.SYSTEM>
0

>  <SCORE.SYSTEM.CONST>
0

>  <SCORE.SYSTEM.DIHEDRAL>
0

>  <SCORE.SYSTEM.SOLV>
0

>  <SCORE.SYSTEM.norm>
0

>  <SCORE.heavy>
28

>  <SCORE.norm>
-1.31316

>  <RMSD>
1.082

$$$$
ligand
 OpenBabel11021811413D
libRbt.so/2013.1/901 2013/11/27
 28 32  0  0  0  0  0  0  0  0999 V2000
   43.5426   26.3367   22.3800 C   0  0  0  0  0  0  0  0  0  0  0  0
   42.5578   27.4583   22.1152 C   0  0  0  0  0  0  0  0  0  0  0  0
   41.6042   27.6560   23.2840 C   0  0  0  0  0  0  0  0  0  0  0  0
   33.8858   24.8199   24.5510 O   0  0  0  0  0  0  0  0  0  0  0  0
   34.6800   25.2063   25.6740 C   0  0  0  0  0  0  0  0  0  0  0  0
   38.8005   24.0518   28.1237 C   0  0  0  0  0  0  0  0  0  0  0  0
   38.6606   25.1676   28.9390 C   0  0  0  0  0  0  0  0  0  0  0  0
   37.5879   26.0397   28.7368 C   0  0  0  0  0  0  0  0  0  0  0  0
   36.6562   25.7975   27.7267 C   0  0  0  0  0  0  0  0  0  0  0  0
   35.9105   24.3006   25.8128 C   0  0  1  0  0  0  0  0  0  0  0  0
   36.8009   24.6712   26.9508 C   0  0  0  0  0  0  0  0  0  0  0  0
   37.8575   23.8191   27.1507 C   0  0  0  0  0  0  0  0  0  0  0  0
   37.9383   22.7100   26.2194 C   0  0  1  0  0  0  0  0  0  0  0  0
   36.5158   20.6756   26.3886 C   0  0  0  0  0  0  0  0  0  0  0  0
   36.6531   22.0336   26.2289 C   0  0  0  0  0  0  0  0  0  0  0  0
   35.5711   22.8465   26.0219 C   0  0  0  0  0  0  0  0  0  0  0  0
   34.2969   22.3012   25.9673 C   0  0  0  0  0  0  0  0  0  0  0  0
   34.1392   20.9255   26.1484 C   0  0  0  0  0  0  0  0  0  0  0  0
   35.2484   20.1173   26.3611 C   0  0  0  0  0  0  0  0  0  0  0  0
   40.5596   26.5479   23.3176 C   0  0  0  0  0  0  0  0  0  0  0  0
   39.6926   26.6702   24.5651 C   0  0  0  0  0  0  0  0  0  0  0  0
   36.9820   26.6398   24.2065 O   0  0  0  0  0  0  0  0  0  0  0  0
   40.3329   23.9519   25.0010 O   0  0  0  0  0  0  0  0  0  0  0  0
   39.1870   24.3170   24.7963 C   0  0  0  0  0  0  0  0  0  0  0  0
   38.8082   25.5159   24.5787 N   0  0  0  0  0  0  0  0  0  0  0  0
   37.5604   25.6075   24.4275 C   0  0  0  0  0  0  0  0  0  0  0  0
   36.8535   24.3079   24.5993 C   0  0  1  0  0  0  0  0  0  0  0  0
   38.0390   23.3731   24.8526 C   0  0  2  0  0  0  0  0  0  0  0  0
  1  2  1  0  0  0  0
  2  3  1  0  0  0  0
  3 20  1  0  0  0  0
  4  5  1  0  0  0  0
  6  7  2  0  0  0  0
  6 12  1  0  0  0  0
  7  8  1  0  0  0  0
  8  9  2  0  0  0  0
  9 11  1  0  0  0  0
 10  5  1  6  0  0  0
 10 11  1  0  0  0  0
 10 16  1  0  0  0  0
 10 27  1  0  0  0  0
 11 12  2  0  0  0  0
 13 12  1  1  0  0  0
 13 15  1  0  0  0  0
 13 28  1  0  0  0  0
 14 15  2  0  0  0  0
 14 19  1  0  0  0  0
 15 16  1  0  0  0  0
 16 17  2  0  0  0  0
 17 18  1  0  0  0  0
 18 19  2  0  0  0  0
 20 21  1  0  0  0  0
 21 25  1  0  0  0  0
 22 26  2  0  0  0  0
 23 24  2  0  0  0  0
 24 25  1  0  0  0  0
 25 26  1  0  0  0  0
 27 26  1  1  0  0  0
 27 28  1  0  0  0  0
 28 24  1  1  0  0  0
M  END
>  <CHROM.1>
-74.89830132,178.66770699,174.40645522,-175.08868718,70.05701319,37.83447554
24.52372114,25.42696591,-0.69353236,-0.04437522,2.55770698

>  <Name>
ligand

>  <RI>
0

>  <Rbt.Current_Directory>
/home/itssahil/PROJECTS/Mol_Feturizer/New_Systems/rnas/1YLS

>  <Rbt.Executable>
rbdock ($Id: //depot/dev/client3/rdock/2013.1/src/exe/rbdock.cxx#4 $)

>  <Rbt.Library>
libRbt.so (2013.1, Build901 2013/11/27)

>  <Rbt.Parameter_File>
/export/apps/rDock/src/rDock_2013.1_src/data/scripts/dock_solv.prm

>  <Rbt.Receptor>
prm/pocket_docking_4.prm

>  <SCORE>
-38.1953

>  <SCORE.INTER>
-34.8876

>  <SCORE.INTER.CONST>
1

>  <SCORE.INTER.POLAR>
0

>  <SCORE.INTER.ROT>
5

>  <SCORE.INTER.SOLV>
7.67295

>  <SCORE.INTER.VDW>
-32.7494

>  <SCORE.INTER.norm>
-1.24599

>  <SCORE.INTRA>
-3.3077

>  <SCORE.INTRA.DIHEDRAL>
-8.5883

>  <SCORE.INTRA.DIHEDRAL.0>
12.0148

>  <SCORE.INTRA.POLAR>
0

>  <SCORE.INTRA.POLAR.0>
0

>  <SCORE.INTRA.REPUL>
0

>  <SCORE.INTRA.REPUL.0>
0

>  <SCORE.INTRA.SOLV>
0.162324

>  <SCORE.INTRA.SOLV.lig_0>
-10.5235

>  <SCORE.INTRA.VDW>
0.905283

>  <SCORE.INTRA.VDW.0>
-1.38455

>  <SCORE.INTRA.norm>
-0.118132

>  <SCORE.RESTR>
0

>  <SCORE.RESTR.CAVITY>
0

>  <SCORE.RESTR.norm>
0

>  <SCORE.SYSTEM>
0

>  <SCORE.SYSTEM.CONST>
0

>  <SCORE.SYSTEM.DIHEDRAL>
0

>  <SCORE.SYSTEM.SOLV>
0

>  <SCORE.SYSTEM.norm>
0

>  <SCORE.heavy>
28

>  <SCORE.norm>
-1.36412

>  <RMSD>
1.083

$$$$
ligand
 OpenBabel11021811413D
libRbt.so/2013.1/901 2013/11/27
 28 32  0  0  0  0  0  0  0  0999 V2000
   43.8635   28.0497   22.2214 C   0  0  0  0  0  0  0  0  0  0  0  0
   42.6457   27.1506   22.1414 C   0  0  0  0  0  0  0  0  0  0  0  0
   41.7059   27.3720   23.3173 C   0  0  0  0  0  0  0  0  0  0  0  0
   33.9037   24.8201   24.4097 O   0  0  0  0  0  0  0  0  0  0  0  0
   34.6649   25.1916   25.5602 C   0  0  0  0  0  0  0  0  0  0  0  0
   38.6539   23.9374   28.1731 C   0  0  0  0  0  0  0  0  0  0  0  0
   38.5286   25.0744   28.9611 C   0  0  0  0  0  0  0  0  0  0  0  0
   37.4968   25.9810   28.7048 C   0  0  0  0  0  0  0  0  0  0  0  0
   36.5914   25.7523   27.6680 C   0  0  0  0  0  0  0  0  0  0  0  0
   35.8551   24.2442   25.7592 C   0  0  1  0  0  0  0  0  0  0  0  0
   36.7198   24.6055   26.9199 C   0  0  0  0  0  0  0  0  0  0  0  0
   37.7363   23.7194   27.1729 C   0  0  0  0  0  0  0  0  0  0  0  0
   37.8069   22.5888   26.2669 C   0  0  1  0  0  0  0  0  0  0  0  0
   36.3040   20.6122   26.4267 C   0  0  0  0  0  0  0  0  0  0  0  0
   36.4976   21.9606   26.2453 C   0  0  0  0  0  0  0  0  0  0  0  0
   35.4545   22.8083   25.9850 C   0  0  0  0  0  0  0  0  0  0  0  0
   34.1632   22.3094   25.8971 C   0  0  0  0  0  0  0  0  0  0  0  0
   33.9480   20.9445   26.0996 C   0  0  0  0  0  0  0  0  0  0  0  0
   35.0182   20.1006   26.3664 C   0  0  0  0  0  0  0  0  0  0  0  0
   40.6169   26.3073   23.3416 C   0  0  0  0  0  0  0  0  0  0  0  0
   39.7637   26.4462   24.5968 C   0  0  0  0  0  0  0  0  0  0  0  0
   37.0674   26.5083   24.1454 O   0  0  0  0  0  0  0  0  0  0  0  0
   40.2862   23.7159   25.1079 O   0  0  0  0  0  0  0  0  0  0  0  0
   39.1625   24.1185   24.8566 C   0  0  0  0  0  0  0  0  0  0  0  0
   38.8365   25.3258   24.6024 N   0  0  0  0  0  0  0  0  0  0  0  0
   37.5989   25.4602   24.4064 C   0  0  0  0  0  0  0  0  0  0  0  0
   36.8383   24.1914   24.5791 C   0  0  1  0  0  0  0  0  0  0  0  0
   37.9785   23.2190   24.8916 C   0  0  2  0  0  0  0  0  0  0  0  0
  1  2  1  0  0  0  0
  2  3  1  0  0  0  0
  3 20  1  0  0  0  0
  4  5  1  0  0  0  0
  6  7  2  0  0  0  0
  6 12  1  0  0  0  0
  7  8  1  0  0  0  0
  8  9  2  0  0  0  0
  9 11  1  0  0  0  0
 10  5  1  6  0  0  0
 10 11  1  0  0  0  0
 10 16  1  0  0  0  0
 10 27  1  0  0  0  0
 11 12  2  0  0  0  0
 13 12  1  1  0  0  0
 13 15  1  0  0  0  0
 13 28  1  0  0  0  0
 14 15  2  0  0  0  0
 14 19  1  0  0  0  0
 15 16  1  0  0  0  0
 16 17  2  0  0  0  0
 17 18  1  0  0  0  0
 18 19  2  0  0  0  0
 20 21  1  0  0  0  0
 21 25  1  0  0  0  0
 22 26  2  0  0  0  0
 23 24  2  0  0  0  0
 24 25  1  0  0  0  0
 25 26  1  0  0  0  0
 27 26  1  1  0  0  0
 27 28  1  0  0  0  0
 28 24  1  1  0  0  0
M  END
>  <CHROM.1>
-170.58686719,178.02658700,174.23892993,-174.84582616,73.07498189,37.79915618
24.48159128,25.41507243,0.64032449,-0.30188832,-0.98662911

>  <Name>
ligand

>  <RI>
0

>  <Rbt.Current_Directory>
/home/itssahil/PROJECTS/Mol_Feturizer/New_Systems/rnas/1YLS

>  <Rbt.Executable>
rbdock ($Id: //depot/dev/client3/rdock/2013.1/src/exe/rbdock.cxx#4 $)

>  <Rbt.Library>
libRbt.so (2013.1, Build901 2013/11/27)

>  <Rbt.Parameter_File>
/export/apps/rDock/src/rDock_2013.1_src/data/scripts/dock_solv.prm

>  <Rbt.Receptor>
prm/pocket_docking_6.prm

>  <SCORE>
-38.8252

>  <SCORE.INTER>
-34.4958

>  <SCORE.INTER.CONST>
1

>  <SCORE.INTER.POLAR>
0

>  <SCORE.INTER.ROT>
5

>  <SCORE.INTER.SOLV>
7.81672

>  <SCORE.INTER.VDW>
-32.5361

>  <SCORE.INTER.norm>
-1.23199

>  <SCORE.INTRA>
-4.32936

>  <SCORE.INTRA.DIHEDRAL>
-9.11303

>  <SCORE.INTRA.DIHEDRAL.0>
12.0148

>  <SCORE.INTRA.POLAR>
0

>  <SCORE.INTRA.POLAR.0>
0

>  <SCORE.INTRA.REPUL>
0

>  <SCORE.INTRA.REPUL.0>
0

>  <SCORE.INTRA.SOLV>
0.172598

>  <SCORE.INTRA.SOLV.lig_0>
-10.5235

>  <SCORE.INTRA.VDW>
0.140854

>  <SCORE.INTRA.VDW.0>
-1.38455

>  <SCORE.INTRA.norm>
-0.15462

>  <SCORE.RESTR>
0

>  <SCORE.RESTR.CAVITY>
0

>  <SCORE.RESTR.norm>
0

>  <SCORE.SYSTEM>
0

>  <SCORE.SYSTEM.CONST>
0

>  <SCORE.SYSTEM.DIHEDRAL>
0

>  <SCORE.SYSTEM.SOLV>
0

>  <SCORE.SYSTEM.norm>
0

>  <SCORE.heavy>
28

>  <SCORE.norm>
-1.38661

>  <RMSD>
1.084

$$$$
ligand
 OpenBabel11021811413D
libRbt.so/2013.1/901 2013/11/27
 28 32  0  0  0  0  0  0  0  0999 V2000
   43.5530   26.3116   22.3199 C   0  0  0  0  0  0  0  0  0  0  0  0
   42.5246   27.3855   22.0247 C   0  0  0  0  0  0  0  0  0  0  0  0
   41.5726   27.5879   23.1941 C   0  0  0  0  0  0  0  0  0  0  0  0
   33.8591   24.7167   24.5077 O   0  0  0  0  0  0  0  0  0  0  0  0
   34.6726   25.1642   25.5936 C   0  0  0  0  0  0  0  0  0  0  0  0
   38.7507   24.0493   28.1309 C   0  0  0  0  0  0  0  0  0  0  0  0
   38.6038   25.1843   28.9181 C   0  0  0  0  0  0  0  0  0  0  0  0
   37.5382   26.0560   28.6797 C   0  0  0  0  0  0  0  0  0  0  0  0
   36.6206   25.7945   27.6615 C   0  0  0  0  0  0  0  0  0  0  0  0
   35.8967   24.2568   25.7717 C   0  0  1  0  0  0  0  0  0  0  0  0
   36.7717   24.6499   26.9141 C   0  0  0  0  0  0  0  0  0  0  0  0
   37.8213   23.7982   27.1496 C   0  0  0  0  0  0  0  0  0  0  0  0
   37.9110   22.6675   26.2455 C   0  0  1  0  0  0  0  0  0  0  0  0
   36.4767   20.6436   26.4401 C   0  0  0  0  0  0  0  0  0  0  0  0
   36.6227   21.9969   26.2513 C   0  0  0  0  0  0  0  0  0  0  0  0
   35.5476   22.8094   26.0093 C   0  0  0  0  0  0  0  0  0  0  0  0
   34.2718   22.2684   25.9481 C   0  0  0  0  0  0  0  0  0  0  0  0
   34.1052   20.8979   26.1586 C   0  0  0  0  0  0  0  0  0  0  0  0
   35.2074   20.0902   26.4065 C   0  0  0  0  0  0  0  0  0  0  0  0
   40.5916   26.4270   23.2945 C   0  0  0  0  0  0  0  0  0  0  0  0
   39.7079   26.5809   24.5267 C   0  0  0  0  0  0  0  0  0  0  0  0
   37.0028   26.5536   24.1282 O   0  0  0  0  0  0  0  0  0  0  0  0
   40.3291   23.8707   25.0348 O   0  0  0  0  0  0  0  0  0  0  0  0
   39.1882   24.2358   24.8046 C   0  0  0  0  0  0  0  0  0  0  0  0
   38.8181   25.4309   24.5536 N   0  0  0  0  0  0  0  0  0  0  0  0
   37.5732   25.5243   24.3816 C   0  0  0  0  0  0  0  0  0  0  0  0
   36.8578   24.2321   24.5727 C   0  0  1  0  0  0  0  0  0  0  0  0
   38.0351   23.2983   24.8653 C   0  0  2  0  0  0  0  0  0  0  0  0
  1  2  1  0  0  0  0
  2  3  1  0  0  0  0
  3 20  1  0  0  0  0
  4  5  1  0  0  0  0
  6  7  2  0  0  0  0
  6 12  1  0  0  0  0
  7  8  1  0  0  0  0
  8  9  2  0  0  0  0
  9 11  1  0  0  0  0
 10  5  1  6  0  0  0
 10 11  1  0  0  0  0
 10 16  1  0  0  0  0
 10 27  1  0  0  0  0
 11 12  2  0  0  0  0
 13 12  1  1  0  0  0
 13 15  1  0  0  0  0
 13 28  1  0  0  0  0
 14 15  2  0  0  0  0
 14 19  1  0  0  0  0
 15 16  1  0  0  0  0
 16 17  2  0  0  0  0
 17 18  1  0  0  0  0
 18 19  2  0  0  0  0
 20 21  1  0  0  0  0
 21 25  1  0  0  0  0
 22 26  2  0  0  0  0
 23 24  2  0  0  0  0
 24 25  1  0  0  0  0
 25 26  1  0  0  0  0
 27 26  1  1  0  0  0
 27 28  1  0  0  0  0
 28 24  1  1  0  0  0
M  END
>  <CHROM.1>
-73.57949945,-178.53224265,175.79188359,-179.37557752,70.13020155,37.81820595
24.47206713,25.40272462,-0.69355291,0.02590528,2.46026620

>  <Name>
ligand

>  <RI>
0

>  <Rbt.Current_Directory>
/home/itssahil/PROJECTS/Mol_Feturizer/New_Systems/rnas/1YLS

>  <Rbt.Executable>
rbdock ($Id: //depot/dev/client3/rdock/2013.1/src/exe/rbdock.cxx#4 $)

>  <Rbt.Library>
libRbt.so (2013.1, Build901 2013/11/27)

>  <Rbt.Parameter_File>
/export/apps/rDock/src/rDock_2013.1_src/data/scripts/dock_solv.prm

>  <Rbt.Receptor>
prm/pocket_docking_4.prm

>  <SCORE>
-38.2602

>  <SCORE.INTER>
-34.9118

>  <SCORE.INTER.CONST>
1

>  <SCORE.INTER.POLAR>
0

>  <SCORE.INTER.ROT>
5

>  <SCORE.INTER.SOLV>
7.78595

>  <SCORE.INTER.VDW>
-32.8032

>  <SCORE.INTER.norm>
-1.24685

>  <SCORE.INTRA>
-3.34849

>  <SCORE.INTRA.DIHEDRAL>
-8.86473

>  <SCORE.INTRA.DIHEDRAL.0>
12.0148

>  <SCORE.INTRA.POLAR>
0

>  <SCORE.INTRA.POLAR.0>
0

>  <SCORE.INTRA.REPUL>
0

>  <SCORE.INTRA.REPUL.0>
0

>  <SCORE.INTRA.SOLV>
0.13968

>  <SCORE.INTRA.SOLV.lig_0>
-10.5235

>  <SCORE.INTRA.VDW>
1.01403

>  <SCORE.INTRA.VDW.0>
-1.38455

>  <SCORE.INTRA.norm>
-0.119589

>  <SCORE.RESTR>
0

>  <SCORE.RESTR.CAVITY>
0

>  <SCORE.RESTR.norm>
0

>  <SCORE.SYSTEM>
0

>  <SCORE.SYSTEM.CONST>
0

>  <SCORE.SYSTEM.DIHEDRAL>
0

>  <SCORE.SYSTEM.SOLV>
0

>  <SCORE.SYSTEM.norm>
0

>  <SCORE.heavy>
28

>  <SCORE.norm>
-1.36644

>  <RMSD>
1.088

$$$$
ligand
 OpenBabel11021811413D
libRbt.so/2013.1/901 2013/11/27
 28 32  0  0  0  0  0  0  0  0999 V2000
   42.7267   28.9824   22.4316 C   0  0  0  0  0  0  0  0  0  0  0  0
   41.8102   27.8125   22.7302 C   0  0  0  0  0  0  0  0  0  0  0  0
   42.4717   26.8031   23.6567 C   0  0  0  0  0  0  0  0  0  0  0  0
   34.1713   24.4039   25.8355 O   0  0  0  0  0  0  0  0  0  0  0  0
   35.2816   24.3333   24.9393 C   0  0  0  0  0  0  0  0  0  0  0  0
   38.6889   24.1925   28.5005 C   0  0  0  0  0  0  0  0  0  0  0  0
   38.3129   25.4527   28.9474 C   0  0  0  0  0  0  0  0  0  0  0  0
   37.2980   26.1460   28.2829 C   0  0  0  0  0  0  0  0  0  0  0  0
   36.6584   25.5823   27.1782 C   0  0  0  0  0  0  0  0  0  0  0  0
   36.4661   23.6073   25.5900 C   0  0  1  0  0  0  0  0  0  0  0  0
   37.0295   24.3219   26.7721 C   0  0  0  0  0  0  0  0  0  0  0  0
   38.0287   23.6459   27.4257 C   0  0  0  0  0  0  0  0  0  0  0  0
   38.3765   22.3587   26.8545 C   0  0  1  0  0  0  0  0  0  0  0  0
   37.0231   20.2992   27.1978 C   0  0  0  0  0  0  0  0  0  0  0  0
   37.1526   21.5863   26.7337 C   0  0  0  0  0  0  0  0  0  0  0  0
   36.1319   22.2203   26.0776 C   0  0  0  0  0  0  0  0  0  0  0  0
   34.9304   21.5602   25.8659 C   0  0  0  0  0  0  0  0  0  0  0  0
   34.7765   20.2593   26.3498 C   0  0  0  0  0  0  0  0  0  0  0  0
   35.8219   19.6338   27.0165 C   0  0  0  0  0  0  0  0  0  0  0  0
   41.5741   25.5887   23.8556 C   0  0  0  0  0  0  0  0  0  0  0  0
   40.3625   25.9549   24.7047 C   0  0  0  0  0  0  0  0  0  0  0  0
   37.8314   25.5842   23.7386 O   0  0  0  0  0  0  0  0  0  0  0  0
   40.9594   23.4928   25.9580 O   0  0  0  0  0  0  0  0  0  0  0  0
   39.8907   23.6885   25.4033 C   0  0  0  0  0  0  0  0  0  0  0  0
   39.5405   24.7593   24.8040 N   0  0  0  0  0  0  0  0  0  0  0  0
   38.3685   24.6940   24.3454 C   0  0  0  0  0  0  0  0  0  0  0  0
   37.6831   23.4128   24.6719 C   0  0  1  0  0  0  0  0  0  0  0  0
   38.7962   22.6817   25.4270 C   0  0  2  0  0  0  0  0  0  0  0  0
  1  2  1  0  0  0  0
  2  3  1  0  0  0  0
  3 20  1  0  0  0  0
  4  5  1  0  0  0  0
  6  7  2  0  0  0  0
  6 12  1  0  0  0  0
  7  8  1  0  0  0  0
  8  9  2  0  0  0  0
  9 11  1  0  0  0  0
 10  5  1  6  0  0  0
 10 11  1  0  0  0  0
 10 16  1  0  0  0  0
 10 27  1  0  0  0  0
 11 12  2  0  0  0  0
 13 12  1  1  0  0  0
 13 15  1  0  0  0  0
 13 28  1  0  0  0  0
 14 15  2  0  0  0  0
 14 19  1  0  0  0  0
 15 16  1  0  0  0  0
 16 17  2  0  0  0  0
 17 18  1  0  0  0  0
 18 19  2  0  0  0  0
 20 21  1  0  0  0  0
 21 25  1  0  0  0  0
 22 26  2  0  0  0  0
 23 24  2  0  0  0  0
 24 25  1  0  0  0  0
 25 26  1  0  0  0  0
 27 26  1  1  0  0  0
 27 28  1  0  0  0  0
 28 24  1  1  0  0  0
M  END
>  <CHROM.1>
-175.67545025,-64.33671435,-70.75492249,177.99992709,65.86220043,38.23821401
24.14404550,25.65882232,0.79154037,0.15332816,-0.39184330

>  <Name>
ligand

>  <RI>
0

>  <Rbt.Current_Directory>
/home/itssahil/PROJECTS/Mol_Feturizer/New_Systems/rnas/1YLS

>  <Rbt.Executable>
rbdock ($Id: //depot/dev/client3/rdock/2013.1/src/exe/rbdock.cxx#4 $)

>  <Rbt.Library>
libRbt.so (2013.1, Build901 2013/11/27)

>  <Rbt.Parameter_File>
/export/apps/rDock/src/rDock_2013.1_src/data/scripts/dock_solv.prm

>  <Rbt.Receptor>
prm/pocket_docking_4.prm

>  <SCORE>
-37.9759

>  <SCORE.INTER>
-34.3263

>  <SCORE.INTER.CONST>
1

>  <SCORE.INTER.POLAR>
0

>  <SCORE.INTER.ROT>
5

>  <SCORE.INTER.SOLV>
7.55525

>  <SCORE.INTER.VDW>
-32.3359

>  <SCORE.INTER.norm>
-1.22594

>  <SCORE.INTRA>
-3.64958

>  <SCORE.INTRA.DIHEDRAL>
-9.04335

>  <SCORE.INTRA.DIHEDRAL.0>
12.0148

>  <SCORE.INTRA.POLAR>
0

>  <SCORE.INTRA.POLAR.0>
0

>  <SCORE.INTRA.REPUL>
0

>  <SCORE.INTRA.REPUL.0>
0

>  <SCORE.INTRA.SOLV>
-0.0112168

>  <SCORE.INTRA.SOLV.lig_0>
-10.5235

>  <SCORE.INTRA.VDW>
0.877705

>  <SCORE.INTRA.VDW.0>
-1.38455

>  <SCORE.INTRA.norm>
-0.130342

>  <SCORE.RESTR>
0

>  <SCORE.RESTR.CAVITY>
0

>  <SCORE.RESTR.norm>
0

>  <SCORE.SYSTEM>
0

>  <SCORE.SYSTEM.CONST>
0

>  <SCORE.SYSTEM.DIHEDRAL>
0

>  <SCORE.SYSTEM.SOLV>
0

>  <SCORE.SYSTEM.norm>
0

>  <SCORE.heavy>
28

>  <SCORE.norm>
-1.35628

>  <RMSD>
1.088

$$$$
ligand
 OpenBabel11021811413D
libRbt.so/2013.1/901 2013/11/27
 28 32  0  0  0  0  0  0  0  0999 V2000
   43.5317   26.5262   21.6626 C   0  0  0  0  0  0  0  0  0  0  0  0
   42.4172   27.4202   22.1690 C   0  0  0  0  0  0  0  0  0  0  0  0
   42.0472   27.0956   23.6087 C   0  0  0  0  0  0  0  0  0  0  0  0
   36.0979   26.1309   25.1672 O   0  0  0  0  0  0  0  0  0  0  0  0
   35.5344   24.8207   25.2514 C   0  0  0  0  0  0  0  0  0  0  0  0
   38.8532   23.6002   28.6877 C   0  0  0  0  0  0  0  0  0  0  0  0
   38.7129   24.8383   29.3016 C   0  0  0  0  0  0  0  0  0  0  0  0
   37.8426   25.7848   28.7548 C   0  0  0  0  0  0  0  0  0  0  0  0
   37.1126   25.4958   27.6013 C   0  0  0  0  0  0  0  0  0  0  0  0
   36.5654   23.8133   25.7765 C   0  0  1  0  0  0  0  0  0  0  0  0
   37.2480   24.2531   27.0279 C   0  0  0  0  0  0  0  0  0  0  0  0
   38.1060   23.3277   27.5664 C   0  0  0  0  0  0  0  0  0  0  0  0
   38.2139   22.0848   26.8264 C   0  0  1  0  0  0  0  0  0  0  0  0
   36.5068   20.2777   26.9316 C   0  0  0  0  0  0  0  0  0  0  0  0
   36.8697   21.5694   26.6345 C   0  0  0  0  0  0  0  0  0  0  0  0
   35.9829   22.4581   26.0885 C   0  0  0  0  0  0  0  0  0  0  0  0
   34.6814   22.0601   25.8204 C   0  0  0  0  0  0  0  0  0  0  0  0
   34.2919   20.7567   26.1360 C   0  0  0  0  0  0  0  0  0  0  0  0
   35.2045   19.8704   26.6929 C   0  0  0  0  0  0  0  0  0  0  0  0
   41.1462   25.8689   23.6675 C   0  0  0  0  0  0  0  0  0  0  0  0
   40.8263   25.5114   25.1142 C   0  0  0  0  0  0  0  0  0  0  0  0
   38.2715   25.7350   24.1652 O   0  0  0  0  0  0  0  0  0  0  0  0
   40.9618   22.8395   26.0260 O   0  0  0  0  0  0  0  0  0  0  0  0
   39.9476   23.2965   25.5253 C   0  0  0  0  0  0  0  0  0  0  0  0
   39.7997   24.4820   25.0770 N   0  0  0  0  0  0  0  0  0  0  0  0
   38.6362   24.6907   24.6401 C   0  0  0  0  0  0  0  0  0  0  0  0
   37.7280   23.5233   24.8140 C   0  0  1  0  0  0  0  0  0  0  0  0
   38.6877   22.5103   25.4435 C   0  0  2  0  0  0  0  0  0  0  0  0
  1  2  1  0  0  0  0
  2  3  1  0  0  0  0
  3 20  1  0  0  0  0
  4  5  1  0  0  0  0
  6  7  2  0  0  0  0
  6 12  1  0  0  0  0
  7  8  1  0  0  0  0
  8  9  2  0  0  0  0
  9 11  1  0  0  0  0
 10  5  1  6  0  0  0
 10 11  1  0  0  0  0
 10 16  1  0  0  0  0
 10 27  1  0  0  0  0
 11 12  2  0  0  0  0
 13 12  1  1  0  0  0
 13 15  1  0  0  0  0
 13 28  1  0  0  0  0
 14 15  2  0  0  0  0
 14 19  1  0  0  0  0
 15 16  1  0  0  0  0
 16 17  2  0  0  0  0
 17 18  1  0  0  0  0
 18 19  2  0  0  0  0
 20 21  1  0  0  0  0
 21 25  1  0  0  0  0
 22 26  2  0  0  0  0
 23 24  2  0  0  0  0
 24 25  1  0  0  0  0
 25 26  1  0  0  0  0
 27 26  1  1  0  0  0
 27 28  1  0  0  0  0
 28 24  1  1  0  0  0
M  END
>  <CHROM.1>
-79.59337341,50.46149441,177.58759179,170.86864486,117.38767705,38.39407467
24.05667986,25.68097315,0.68499622,-0.36051115,-1.08228494

>  <Name>
ligand

>  <RI>
0

>  <Rbt.Current_Directory>
/home/itssahil/PROJECTS/Mol_Feturizer/New_Systems/rnas/1YLS

>  <Rbt.Executable>
rbdock ($Id: //depot/dev/client3/rdock/2013.1/src/exe/rbdock.cxx#4 $)

>  <Rbt.Library>
libRbt.so (2013.1, Build901 2013/11/27)

>  <Rbt.Parameter_File>
/export/apps/rDock/src/rDock_2013.1_src/data/scripts/dock_solv.prm

>  <Rbt.Receptor>
prm/pocket_docking_5.prm

>  <SCORE>
-34.3395

>  <SCORE.INTER>
-33.1692

>  <SCORE.INTER.CONST>
1

>  <SCORE.INTER.POLAR>
0

>  <SCORE.INTER.ROT>
5

>  <SCORE.INTER.SOLV>
6.55824

>  <SCORE.INTER.VDW>
-31.2322

>  <SCORE.INTER.norm>
-1.18461

>  <SCORE.INTRA>
-1.17032

>  <SCORE.INTRA.DIHEDRAL>
-7.57653

>  <SCORE.INTRA.DIHEDRAL.0>
12.0148

>  <SCORE.INTRA.POLAR>
0

>  <SCORE.INTRA.POLAR.0>
0

>  <SCORE.INTRA.REPUL>
0

>  <SCORE.INTRA.REPUL.0>
0

>  <SCORE.INTRA.SOLV>
0.609025

>  <SCORE.INTRA.SOLV.lig_0>
-10.5235

>  <SCORE.INTRA.VDW>
2.31343

>  <SCORE.INTRA.VDW.0>
-1.38455

>  <SCORE.INTRA.norm>
-0.0417971

>  <SCORE.RESTR>
0

>  <SCORE.RESTR.CAVITY>
0

>  <SCORE.RESTR.norm>
0

>  <SCORE.SYSTEM>
0

>  <SCORE.SYSTEM.CONST>
0

>  <SCORE.SYSTEM.DIHEDRAL>
0

>  <SCORE.SYSTEM.SOLV>
0

>  <SCORE.SYSTEM.norm>
0

>  <SCORE.heavy>
28

>  <SCORE.norm>
-1.22641

>  <RMSD>
1.089

$$$$
ligand
 OpenBabel11021811413D
libRbt.so/2013.1/901 2013/11/27
 28 32  0  0  0  0  0  0  0  0999 V2000
   42.7054   28.8965   22.4075 C   0  0  0  0  0  0  0  0  0  0  0  0
   41.7501   27.7459   22.6556 C   0  0  0  0  0  0  0  0  0  0  0  0
   42.3744   26.6790   23.5425 C   0  0  0  0  0  0  0  0  0  0  0  0
   34.0571   24.7125   25.9635 O   0  0  0  0  0  0  0  0  0  0  0  0
   35.1039   24.5812   25.0001 C   0  0  0  0  0  0  0  0  0  0  0  0
   38.6289   24.0323   28.4039 C   0  0  0  0  0  0  0  0  0  0  0  0
   38.3508   25.2861   28.9330 C   0  0  0  0  0  0  0  0  0  0  0  0
   37.3573   26.0764   28.3494 C   0  0  0  0  0  0  0  0  0  0  0  0
   36.6416   25.6158   27.2437 C   0  0  0  0  0  0  0  0  0  0  0  0
   36.2640   23.7486   25.5612 C   0  0  1  0  0  0  0  0  0  0  0  0
   36.9163   24.3599   26.7554 C   0  0  0  0  0  0  0  0  0  0  0  0
   37.8948   23.5884   27.3296 C   0  0  0  0  0  0  0  0  0  0  0  0
   38.1383   22.3165   26.6761 C   0  0  1  0  0  0  0  0  0  0  0  0
   36.6712   20.3276   26.9644 C   0  0  0  0  0  0  0  0  0  0  0  0
   36.8642   21.6283   26.5652 C   0  0  0  0  0  0  0  0  0  0  0  0
   35.8614   22.3594   25.9870 C   0  0  0  0  0  0  0  0  0  0  0  0
   34.6133   21.7870   25.7903 C   0  0  0  0  0  0  0  0  0  0  0  0
   34.3959   20.4728   26.2097 C   0  0  0  0  0  0  0  0  0  0  0  0
   35.4242   19.7481   26.7978 C   0  0  0  0  0  0  0  0  0  0  0  0
   41.4184   25.5074   23.7264 C   0  0  0  0  0  0  0  0  0  0  0  0
   40.2646   25.8995   24.6418 C   0  0  0  0  0  0  0  0  0  0  0  0
   37.6801   25.7392   23.7633 O   0  0  0  0  0  0  0  0  0  0  0  0
   40.7517   23.3390   25.7352 O   0  0  0  0  0  0  0  0  0  0  0  0
   39.6772   23.6306   25.2368 C   0  0  0  0  0  0  0  0  0  0  0  0
   39.3729   24.7528   24.7109 N   0  0  0  0  0  0  0  0  0  0  0  0
   38.1825   24.7852   24.2986 C   0  0  0  0  0  0  0  0  0  0  0  0
   37.4303   23.5319   24.5841 C   0  0  1  0  0  0  0  0  0  0  0  0
   38.5228   22.6929   25.2519 C   0  0  2  0  0  0  0  0  0  0  0  0
  1  2  1  0  0  0  0
  2  3  1  0  0  0  0
  3 20  1  0  0  0  0
  4  5  1  0  0  0  0
  6  7  2  0  0  0  0
  6 12  1  0  0  0  0
  7  8  1  0  0  0  0
  8  9  2  0  0  0  0
  9 11  1  0  0  0  0
 10  5  1  6  0  0  0
 10 11  1  0  0  0  0
 10 16  1  0  0  0  0
 10 27  1  0  0  0  0
 11 12  2  0  0  0  0
 13 12  1  1  0  0  0
 13 15  1  0  0  0  0
 13 28  1  0  0  0  0
 14 15  2  0  0  0  0
 14 19  1  0  0  0  0
 15 16  1  0  0  0  0
 16 17  2  0  0  0  0
 17 18  1  0  0  0  0
 18 19  2  0  0  0  0
 20 21  1  0  0  0  0
 21 25  1  0  0  0  0
 22 26  2  0  0  0  0
 23 24  2  0  0  0  0
 24 25  1  0  0  0  0
 25 26  1  0  0  0  0
 27 26  1  1  0  0  0
 27 28  1  0  0  0  0
 28 24  1  1  0  0  0
M  END
>  <CHROM.1>
-177.52011112,-62.09311920,-72.46822076,177.32857999,65.77399411,38.06765043
24.17213148,25.58194972,0.74627488,0.22185518,-0.32415116

>  <Name>
ligand

>  <RI>
0

>  <Rbt.Current_Directory>
/home/itssahil/PROJECTS/Mol_Feturizer/New_Systems/rnas/1YLS

>  <Rbt.Executable>
rbdock ($Id: //depot/dev/client3/rdock/2013.1/src/exe/rbdock.cxx#4 $)

>  <Rbt.Library>
libRbt.so (2013.1, Build901 2013/11/27)

>  <Rbt.Parameter_File>
/export/apps/rDock/src/rDock_2013.1_src/data/scripts/dock_solv.prm

>  <Rbt.Receptor>
prm/pocket_docking_6.prm

>  <SCORE>
-38.0021

>  <SCORE.INTER>
-34.3135

>  <SCORE.INTER.CONST>
1

>  <SCORE.INTER.POLAR>
0

>  <SCORE.INTER.ROT>
5

>  <SCORE.INTER.SOLV>
7.98194

>  <SCORE.INTER.VDW>
-32.4697

>  <SCORE.INTER.norm>
-1.22548

>  <SCORE.INTRA>
-3.68855

>  <SCORE.INTRA.DIHEDRAL>
-8.96645

>  <SCORE.INTRA.DIHEDRAL.0>
12.0148

>  <SCORE.INTRA.POLAR>
0

>  <SCORE.INTRA.POLAR.0>
0

>  <SCORE.INTRA.REPUL>
0

>  <SCORE.INTRA.REPUL.0>
0

>  <SCORE.INTRA.SOLV>
-0.0120073

>  <SCORE.INTRA.SOLV.lig_0>
-10.5235

>  <SCORE.INTRA.VDW>
0.800684

>  <SCORE.INTRA.VDW.0>
-1.38455

>  <SCORE.INTRA.norm>
-0.131734

>  <SCORE.RESTR>
0

>  <SCORE.RESTR.CAVITY>
0

>  <SCORE.RESTR.norm>
0

>  <SCORE.SYSTEM>
0

>  <SCORE.SYSTEM.CONST>
0

>  <SCORE.SYSTEM.DIHEDRAL>
0

>  <SCORE.SYSTEM.SOLV>
0

>  <SCORE.SYSTEM.norm>
0

>  <SCORE.heavy>
28

>  <SCORE.norm>
-1.35722

>  <RMSD>
1.090

$$$$
ligand
 OpenBabel11021811413D
libRbt.so/2013.1/901 2013/11/27
 28 32  0  0  0  0  0  0  0  0999 V2000
   43.8059   28.0877   22.1743 C   0  0  0  0  0  0  0  0  0  0  0  0
   42.5952   27.1779   22.1078 C   0  0  0  0  0  0  0  0  0  0  0  0
   41.6718   27.3840   23.2993 C   0  0  0  0  0  0  0  0  0  0  0  0
   33.8745   24.7724   24.4474 O   0  0  0  0  0  0  0  0  0  0  0  0
   34.6523   25.1687   25.5784 C   0  0  0  0  0  0  0  0  0  0  0  0
   38.6601   23.9515   28.1799 C   0  0  0  0  0  0  0  0  0  0  0  0
   38.5307   25.0910   28.9636 C   0  0  0  0  0  0  0  0  0  0  0  0
   37.4920   25.9899   28.7078 C   0  0  0  0  0  0  0  0  0  0  0  0
   36.5838   25.7509   27.6757 C   0  0  0  0  0  0  0  0  0  0  0  0
   35.8494   24.2299   25.7765 C   0  0  1  0  0  0  0  0  0  0  0  0
   36.7166   24.6017   26.9320 C   0  0  0  0  0  0  0  0  0  0  0  0
   37.7398   23.7233   27.1845 C   0  0  0  0  0  0  0  0  0  0  0  0
   37.8140   22.5893   26.2831 C   0  0  1  0  0  0  0  0  0  0  0  0
   36.3246   20.6038   26.4575 C   0  0  0  0  0  0  0  0  0  0  0  0
   36.5087   21.9526   26.2695 C   0  0  0  0  0  0  0  0  0  0  0  0
   35.4591   22.7924   26.0100 C   0  0  0  0  0  0  0  0  0  0  0  0
   34.1707   22.2847   25.9297 C   0  0  0  0  0  0  0  0  0  0  0  0
   33.9652   20.9193   26.1389 C   0  0  0  0  0  0  0  0  0  0  0  0
   35.0419   20.0836   26.4047 C   0  0  0  0  0  0  0  0  0  0  0  0
   40.5938   26.3084   23.3350 C   0  0  0  0  0  0  0  0  0  0  0  0
   39.7387   26.4521   24.5884 C   0  0  0  0  0  0  0  0  0  0  0  0
   37.0403   26.4948   24.1480 O   0  0  0  0  0  0  0  0  0  0  0  0
   40.2811   23.7275   25.1089 O   0  0  0  0  0  0  0  0  0  0  0  0
   39.1538   24.1217   24.8606 C   0  0  0  0  0  0  0  0  0  0  0  0
   38.8189   25.3258   24.6027 N   0  0  0  0  0  0  0  0  0  0  0  0
   37.5797   25.4513   24.4113 C   0  0  0  0  0  0  0  0  0  0  0  0
   36.8280   24.1784   24.5925 C   0  0  1  0  0  0  0  0  0  0  0  0
   37.9758   23.2147   24.9044 C   0  0  2  0  0  0  0  0  0  0  0  0
  1  2  1  0  0  0  0
  2  3  1  0  0  0  0
  3 20  1  0  0  0  0
  4  5  1  0  0  0  0
  6  7  2  0  0  0  0
  6 12  1  0  0  0  0
  7  8  1  0  0  0  0
  8  9  2  0  0  0  0
  9 11  1  0  0  0  0
 10  5  1  6  0  0  0
 10 11  1  0  0  0  0
 10 16  1  0  0  0  0
 10 27  1  0  0  0  0
 11 12  2  0  0  0  0
 13 12  1  1  0  0  0
 13 15  1  0  0  0  0
 13 28  1  0  0  0  0
 14 15  2  0  0  0  0
 14 19  1  0  0  0  0
 15 16  1  0  0  0  0
 16 17  2  0  0  0  0
 17 18  1  0  0  0  0
 18 19  2  0  0  0  0
 20 21  1  0  0  0  0
 21 25  1  0  0  0  0
 22 26  2  0  0  0  0
 23 24  2  0  0  0  0
 24 25  1  0  0  0  0
 25 26  1  0  0  0  0
 27 26  1  1  0  0  0
 27 28  1  0  0  0  0
 28 24  1  1  0  0  0
M  END
>  <CHROM.1>
-170.53372457,179.11854248,175.52487205,-175.10995199,72.71760028,37.78920761
24.47863008,25.42311977,0.64708117,-0.30903478,-0.99365187

>  <Name>
ligand

>  <RI>
0

>  <Rbt.Current_Directory>
/home/itssahil/PROJECTS/Mol_Feturizer/New_Systems/rnas/1YLS

>  <Rbt.Executable>
rbdock ($Id: //depot/dev/client3/rdock/2013.1/src/exe/rbdock.cxx#4 $)

>  <Rbt.Library>
libRbt.so (2013.1, Build901 2013/11/27)

>  <Rbt.Parameter_File>
/export/apps/rDock/src/rDock_2013.1_src/data/scripts/dock_solv.prm

>  <Rbt.Receptor>
prm/pocket_docking_3.prm

>  <SCORE>
-38.7918

>  <SCORE.INTER>
-34.4487

>  <SCORE.INTER.CONST>
1

>  <SCORE.INTER.POLAR>
0

>  <SCORE.INTER.ROT>
5

>  <SCORE.INTER.SOLV>
7.82881

>  <SCORE.INTER.VDW>
-32.5088

>  <SCORE.INTER.norm>
-1.23031

>  <SCORE.INTRA>
-4.34308

>  <SCORE.INTRA.DIHEDRAL>
-9.17668

>  <SCORE.INTRA.DIHEDRAL.0>
12.0148

>  <SCORE.INTRA.POLAR>
0

>  <SCORE.INTRA.POLAR.0>
0

>  <SCORE.INTRA.REPUL>
0

>  <SCORE.INTRA.REPUL.0>
0

>  <SCORE.INTRA.SOLV>
0.166184

>  <SCORE.INTRA.SOLV.lig_0>
-10.5235

>  <SCORE.INTRA.VDW>
0.162169

>  <SCORE.INTRA.VDW.0>
-1.38455

>  <SCORE.INTRA.norm>
-0.15511

>  <SCORE.RESTR>
0

>  <SCORE.RESTR.CAVITY>
0

>  <SCORE.RESTR.norm>
0

>  <SCORE.SYSTEM>
0

>  <SCORE.SYSTEM.CONST>
0

>  <SCORE.SYSTEM.DIHEDRAL>
0

>  <SCORE.SYSTEM.SOLV>
0

>  <SCORE.SYSTEM.norm>
0

>  <SCORE.heavy>
28

>  <SCORE.norm>
-1.38542

>  <RMSD>
1.093

$$$$
ligand
 OpenBabel11021811413D
libRbt.so/2013.1/901 2013/11/27
 28 32  0  0  0  0  0  0  0  0999 V2000
   43.7816   27.5348   22.6377 C   0  0  0  0  0  0  0  0  0  0  0  0
   42.5511   26.6946   22.9166 C   0  0  0  0  0  0  0  0  0  0  0  0
   41.2790   27.5277   22.8658 C   0  0  0  0  0  0  0  0  0  0  0  0
   35.1812   26.5022   25.5482 O   0  0  0  0  0  0  0  0  0  0  0  0
   34.7396   25.1438   25.5175 C   0  0  0  0  0  0  0  0  0  0  0  0
   38.7147   23.8893   28.1514 C   0  0  0  0  0  0  0  0  0  0  0  0
   38.6127   25.0494   28.9084 C   0  0  0  0  0  0  0  0  0  0  0  0
   37.5965   25.9673   28.6306 C   0  0  0  0  0  0  0  0  0  0  0  0
   36.6834   25.7268   27.6032 C   0  0  0  0  0  0  0  0  0  0  0  0
   35.9133   24.1808   25.7386 C   0  0  1  0  0  0  0  0  0  0  0  0
   36.7885   24.5579   26.8863 C   0  0  0  0  0  0  0  0  0  0  0  0
   37.7897   23.6607   27.1603 C   0  0  0  0  0  0  0  0  0  0  0  0
   37.8367   22.5048   26.2853 C   0  0  1  0  0  0  0  0  0  0  0  0
   36.2990   20.5608   26.5036 C   0  0  0  0  0  0  0  0  0  0  0  0
   36.5162   21.9000   26.2849 C   0  0  0  0  0  0  0  0  0  0  0  0
   35.4877   22.7591   26.0048 C   0  0  0  0  0  0  0  0  0  0  0  0
   34.1873   22.2814   25.9345 C   0  0  0  0  0  0  0  0  0  0  0  0
   33.9483   20.9267   26.1749 C   0  0  0  0  0  0  0  0  0  0  0  0
   35.0040   20.0711   26.4613 C   0  0  0  0  0  0  0  0  0  0  0  0
   40.0510   26.6429   23.0372 C   0  0  0  0  0  0  0  0  0  0  0  0
   39.8567   26.2792   24.5045 C   0  0  0  0  0  0  0  0  0  0  0  0
   37.1605   26.3777   24.0598 O   0  0  0  0  0  0  0  0  0  0  0  0
   40.3318   23.5548   25.0883 O   0  0  0  0  0  0  0  0  0  0  0  0
   39.2146   23.9707   24.8296 C   0  0  0  0  0  0  0  0  0  0  0  0
   38.9096   25.1763   24.5436 N   0  0  0  0  0  0  0  0  0  0  0  0
   37.6739   25.3277   24.3478 C   0  0  0  0  0  0  0  0  0  0  0  0
   36.8911   24.0781   24.5574 C   0  0  1  0  0  0  0  0  0  0  0  0
   38.0148   23.0941   24.8928 C   0  0  2  0  0  0  0  0  0  0  0  0
  1  2  1  0  0  0  0
  2  3  1  0  0  0  0
  3 20  1  0  0  0  0
  4  5  1  0  0  0  0
  6  7  2  0  0  0  0
  6 12  1  0  0  0  0
  7  8  1  0  0  0  0
  8  9  2  0  0  0  0
  9 11  1  0  0  0  0
 10  5  1  6  0  0  0
 10 11  1  0  0  0  0
 10 16  1  0  0  0  0
 10 27  1  0  0  0  0
 11 12  2  0  0  0  0
 13 12  1  1  0  0  0
 13 15  1  0  0  0  0
 13 28  1  0  0  0  0
 14 15  2  0  0  0  0
 14 19  1  0  0  0  0
 15 16  1  0  0  0  0
 16 17  2  0  0  0  0
 17 18  1  0  0  0  0
 18 19  2  0  0  0  0
 20 21  1  0  0  0  0
 21 25  1  0  0  0  0
 22 26  2  0  0  0  0
 23 24  2  0  0  0  0
 24 25  1  0  0  0  0
 25 26  1  0  0  0  0
 27 26  1  1  0  0  0
 27 28  1  0  0  0  0
 28 24  1  1  0  0  0
M  END
>  <CHROM.1>
175.43366328,47.18273929,78.19134562,-165.28247110,108.21766827,37.85241681
24.47094886,25.46981767,-0.65325234,-0.34799103,2.94425813

>  <Name>
ligand

>  <RI>
0

>  <Rbt.Current_Directory>
/home/itssahil/PROJECTS/Mol_Feturizer/New_Systems/rnas/1YLS

>  <Rbt.Executable>
rbdock ($Id: //depot/dev/client3/rdock/2013.1/src/exe/rbdock.cxx#4 $)

>  <Rbt.Library>
libRbt.so (2013.1, Build901 2013/11/27)

>  <Rbt.Parameter_File>
/export/apps/rDock/src/rDock_2013.1_src/data/scripts/dock_solv.prm

>  <Rbt.Receptor>
prm/pocket_docking_5.prm

>  <SCORE>
-36.1161

>  <SCORE.INTER>
-34.4453

>  <SCORE.INTER.CONST>
1

>  <SCORE.INTER.POLAR>
0

>  <SCORE.INTER.ROT>
5

>  <SCORE.INTER.SOLV>
8.03493

>  <SCORE.INTER.VDW>
-32.5752

>  <SCORE.INTER.norm>
-1.23019

>  <SCORE.INTRA>
-1.67082

>  <SCORE.INTRA.DIHEDRAL>
-7.08501

>  <SCORE.INTRA.DIHEDRAL.0>
12.0148

>  <SCORE.INTRA.POLAR>
0

>  <SCORE.INTRA.POLAR.0>
0

>  <SCORE.INTRA.REPUL>
0

>  <SCORE.INTRA.REPUL.0>
0

>  <SCORE.INTRA.SOLV>
0.612346

>  <SCORE.INTRA.SOLV.lig_0>
-10.5235

>  <SCORE.INTRA.VDW>
1.56551

>  <SCORE.INTRA.VDW.0>
-1.38455

>  <SCORE.INTRA.norm>
-0.0596721

>  <SCORE.RESTR>
0

>  <SCORE.RESTR.CAVITY>
0

>  <SCORE.RESTR.norm>
0

>  <SCORE.SYSTEM>
0

>  <SCORE.SYSTEM.CONST>
0

>  <SCORE.SYSTEM.DIHEDRAL>
0

>  <SCORE.SYSTEM.SOLV>
0

>  <SCORE.SYSTEM.norm>
0

>  <SCORE.heavy>
28

>  <SCORE.norm>
-1.28986

>  <RMSD>
1.093

$$$$
ligand
 OpenBabel11021811413D
libRbt.so/2013.1/901 2013/11/27
 28 32  0  0  0  0  0  0  0  0999 V2000
   43.6463   28.5046   22.2553 C   0  0  0  0  0  0  0  0  0  0  0  0
   42.5827   27.4246   22.2435 C   0  0  0  0  0  0  0  0  0  0  0  0
   41.5639   27.6276   23.3552 C   0  0  0  0  0  0  0  0  0  0  0  0
   33.9166   24.5602   24.4920 O   0  0  0  0  0  0  0  0  0  0  0  0
   34.6621   24.9848   25.6344 C   0  0  0  0  0  0  0  0  0  0  0  0
   38.7727   24.0352   28.1865 C   0  0  0  0  0  0  0  0  0  0  0  0
   38.5755   25.1614   28.9752 C   0  0  0  0  0  0  0  0  0  0  0  0
   37.4756   25.9885   28.7341 C   0  0  0  0  0  0  0  0  0  0  0  0
   36.5738   25.6912   27.7116 C   0  0  0  0  0  0  0  0  0  0  0  0
   35.9221   24.1287   25.8159 C   0  0  1  0  0  0  0  0  0  0  0  0
   36.7754   24.5555   26.9627 C   0  0  0  0  0  0  0  0  0  0  0  0
   37.8585   23.7477   27.2008 C   0  0  0  0  0  0  0  0  0  0  0  0
   37.9988   22.6236   26.2949 C   0  0  1  0  0  0  0  0  0  0  0  0
   36.6492   20.5414   26.4796 C   0  0  0  0  0  0  0  0  0  0  0  0
   36.7395   21.9000   26.2940 C   0  0  0  0  0  0  0  0  0  0  0  0
   35.6326   22.6676   26.0492 C   0  0  0  0  0  0  0  0  0  0  0  0
   34.3807   22.0741   25.9817 C   0  0  0  0  0  0  0  0  0  0  0  0
   34.2704   20.6974   26.1888 C   0  0  0  0  0  0  0  0  0  0  0  0
   35.4041   19.9358   26.4397 C   0  0  0  0  0  0  0  0  0  0  0  0
   40.5903   26.4575   23.4109 C   0  0  0  0  0  0  0  0  0  0  0  0
   39.6384   26.6119   24.5911 C   0  0  0  0  0  0  0  0  0  0  0  0
   36.9384   26.4730   24.1814 O   0  0  0  0  0  0  0  0  0  0  0  0
   40.3697   23.9289   25.0966 O   0  0  0  0  0  0  0  0  0  0  0  0
   39.2155   24.2466   24.8623 C   0  0  0  0  0  0  0  0  0  0  0  0
   38.7971   25.4259   24.6121 N   0  0  0  0  0  0  0  0  0  0  0  0
   37.5501   25.4678   24.4352 C   0  0  0  0  0  0  0  0  0  0  0  0
   36.8883   24.1465   24.6208 C   0  0  1  0  0  0  0  0  0  0  0  0
   38.1022   23.2619   24.9165 C   0  0  2  0  0  0  0  0  0  0  0  0
  1  2  1  0  0  0  0
  2  3  1  0  0  0  0
  3 20  1  0  0  0  0
  4  5  1  0  0  0  0
  6  7  2  0  0  0  0
  6 12  1  0  0  0  0
  7  8  1  0  0  0  0
  8  9  2  0  0  0  0
  9 11  1  0  0  0  0
 10  5  1  6  0  0  0
 10 11  1  0  0  0  0
 10 16  1  0  0  0  0
 10 27  1  0  0  0  0
 11 12  2  0  0  0  0
 13 12  1  1  0  0  0
 13 15  1  0  0  0  0
 13 28  1  0  0  0  0
 14 15  2  0  0  0  0
 14 19  1  0  0  0  0
 15 16  1  0  0  0  0
 16 17  2  0  0  0  0
 17 18  1  0  0  0  0
 18 19  2  0  0  0  0
 20 21  1  0  0  0  0
 21 25  1  0  0  0  0
 22 26  2  0  0  0  0
 23 24  2  0  0  0  0
 24 25  1  0  0  0  0
 25 26  1  0  0  0  0
 27 26  1  1  0  0  0
 27 28  1  0  0  0  0
 28 24  1  1  0  0  0
M  END
>  <CHROM.1>
-174.28550520,177.71633113,175.68630114,-177.01969246,66.77946013,37.85428874
24.50022500,25.45763132,0.69836598,-0.30868391,-0.91387232

>  <Name>
ligand

>  <RI>
0

>  <Rbt.Current_Directory>
/home/itssahil/PROJECTS/Mol_Feturizer/New_Systems/rnas/1YLS

>  <Rbt.Executable>
rbdock ($Id: //depot/dev/client3/rdock/2013.1/src/exe/rbdock.cxx#4 $)

>  <Rbt.Library>
libRbt.so (2013.1, Build901 2013/11/27)

>  <Rbt.Parameter_File>
/export/apps/rDock/src/rDock_2013.1_src/data/scripts/dock_solv.prm

>  <Rbt.Receptor>
prm/pocket_docking_6.prm

>  <SCORE>
-38.6943

>  <SCORE.INTER>
-34.4004

>  <SCORE.INTER.CONST>
1

>  <SCORE.INTER.POLAR>
0

>  <SCORE.INTER.ROT>
5

>  <SCORE.INTER.SOLV>
8.1207

>  <SCORE.INTER.VDW>
-32.5738

>  <SCORE.INTER.norm>
-1.22858

>  <SCORE.INTRA>
-4.2939

>  <SCORE.INTRA.DIHEDRAL>
-9.40876

>  <SCORE.INTRA.DIHEDRAL.0>
12.0148

>  <SCORE.INTRA.POLAR>
0

>  <SCORE.INTRA.POLAR.0>
0

>  <SCORE.INTRA.REPUL>
0

>  <SCORE.INTRA.REPUL.0>
0

>  <SCORE.INTRA.SOLV>
0.182852

>  <SCORE.INTRA.SOLV.lig_0>
-10.5235

>  <SCORE.INTRA.VDW>
0.319055

>  <SCORE.INTRA.VDW.0>
-1.38455

>  <SCORE.INTRA.norm>
-0.153354

>  <SCORE.RESTR>
0

>  <SCORE.RESTR.CAVITY>
0

>  <SCORE.RESTR.norm>
0

>  <SCORE.SYSTEM>
0

>  <SCORE.SYSTEM.CONST>
0

>  <SCORE.SYSTEM.DIHEDRAL>
0

>  <SCORE.SYSTEM.SOLV>
0

>  <SCORE.SYSTEM.norm>
0

>  <SCORE.heavy>
28

>  <SCORE.norm>
-1.38194

>  <RMSD>
1.093

$$$$
ligand
 OpenBabel11021811413D
libRbt.so/2013.1/901 2013/11/27
 28 32  0  0  0  0  0  0  0  0999 V2000
   43.7841   28.1230   22.1762 C   0  0  0  0  0  0  0  0  0  0  0  0
   42.6628   27.1029   22.1876 C   0  0  0  0  0  0  0  0  0  0  0  0
   41.6939   27.3462   23.3352 C   0  0  0  0  0  0  0  0  0  0  0  0
   33.8672   24.7446   24.4045 O   0  0  0  0  0  0  0  0  0  0  0  0
   34.6272   25.1476   25.5452 C   0  0  0  0  0  0  0  0  0  0  0  0
   38.6250   23.9785   28.1840 C   0  0  0  0  0  0  0  0  0  0  0  0
   38.4835   25.1242   28.9563 C   0  0  0  0  0  0  0  0  0  0  0  0
   37.4411   26.0144   28.6856 C   0  0  0  0  0  0  0  0  0  0  0  0
   36.5412   25.7605   27.6498 C   0  0  0  0  0  0  0  0  0  0  0  0
   35.8287   24.2180   25.7596 C   0  0  1  0  0  0  0  0  0  0  0  0
   36.6859   24.6055   26.9174 C   0  0  0  0  0  0  0  0  0  0  0  0
   37.7127   23.7357   27.1846 C   0  0  0  0  0  0  0  0  0  0  0  0
   37.7997   22.5940   26.2940 C   0  0  1  0  0  0  0  0  0  0  0  0
   36.3212   20.6011   26.4767 C   0  0  0  0  0  0  0  0  0  0  0  0
   36.4984   21.9493   26.2777 C   0  0  0  0  0  0  0  0  0  0  0  0
   35.4455   22.7803   26.0037 C   0  0  0  0  0  0  0  0  0  0  0  0
   34.1607   22.2641   25.9195 C   0  0  0  0  0  0  0  0  0  0  0  0
   33.9621   20.8994   26.1397 C   0  0  0  0  0  0  0  0  0  0  0  0
   35.0420   20.0727   26.4203 C   0  0  0  0  0  0  0  0  0  0  0  0
   40.6089   26.2775   23.3571 C   0  0  0  0  0  0  0  0  0  0  0  0
   39.7124   26.4530   24.5770 C   0  0  0  0  0  0  0  0  0  0  0  0
   37.0167   26.4752   24.1185 O   0  0  0  0  0  0  0  0  0  0  0  0
   40.2677   23.7365   25.1258 O   0  0  0  0  0  0  0  0  0  0  0  0
   39.1396   24.1216   24.8665 C   0  0  0  0  0  0  0  0  0  0  0  0
   38.7993   25.3212   24.5955 N   0  0  0  0  0  0  0  0  0  0  0  0
   37.5606   25.4374   24.3948 C   0  0  0  0  0  0  0  0  0  0  0  0
   36.8154   24.1617   24.5827 C   0  0  1  0  0  0  0  0  0  0  0  0
   37.9669   23.2079   24.9108 C   0  0  2  0  0  0  0  0  0  0  0  0
  1  2  1  0  0  0  0
  2  3  1  0  0  0  0
  3 20  1  0  0  0  0
  4  5  1  0  0  0  0
  6  7  2  0  0  0  0
  6 12  1  0  0  0  0
  7  8  1  0  0  0  0
  8  9  2  0  0  0  0
  9 11  1  0  0  0  0
 10  5  1  6  0  0  0
 10 11  1  0  0  0  0
 10 16  1  0  0  0  0
 10 27  1  0  0  0  0
 11 12  2  0  0  0  0
 13 12  1  1  0  0  0
 13 15  1  0  0  0  0
 13 28  1  0  0  0  0
 14 15  2  0  0  0  0
 14 19  1  0  0  0  0
 15 16  1  0  0  0  0
 16 17  2  0  0  0  0
 17 18  1  0  0  0  0
 18 19  2  0  0  0  0
 20 21  1  0  0  0  0
 21 25  1  0  0  0  0
 22 26  2  0  0  0  0
 23 24  2  0  0  0  0
 24 25  1  0  0  0  0
 25 26  1  0  0  0  0
 27 26  1  1  0  0  0
 27 28  1  0  0  0  0
 28 24  1  1  0  0  0
M  END
>  <CHROM.1>
-177.78820513,178.51636676,175.07050867,-174.25541851,70.79057523,37.77565079
24.47177542,25.42218539,0.64442882,-0.30340470,-0.98519607

>  <Name>
ligand

>  <RI>
0

>  <Rbt.Current_Directory>
/home/itssahil/PROJECTS/Mol_Feturizer/New_Systems/rnas/1YLS

>  <Rbt.Executable>
rbdock ($Id: //depot/dev/client3/rdock/2013.1/src/exe/rbdock.cxx#4 $)

>  <Rbt.Library>
libRbt.so (2013.1, Build901 2013/11/27)

>  <Rbt.Parameter_File>
/export/apps/rDock/src/rDock_2013.1_src/data/scripts/dock_solv.prm

>  <Rbt.Receptor>
prm/pocket_docking_8.prm

>  <SCORE>
-38.7687

>  <SCORE.INTER>
-34.33

>  <SCORE.INTER.CONST>
1

>  <SCORE.INTER.POLAR>
0

>  <SCORE.INTER.ROT>
5

>  <SCORE.INTER.SOLV>
7.85721

>  <SCORE.INTER.VDW>
-32.439

>  <SCORE.INTER.norm>
-1.22607

>  <SCORE.INTRA>
-4.43875

>  <SCORE.INTRA.DIHEDRAL>
-9.45399

>  <SCORE.INTRA.DIHEDRAL.0>
12.0148

>  <SCORE.INTRA.POLAR>
0

>  <SCORE.INTRA.POLAR.0>
0

>  <SCORE.INTRA.REPUL>
0

>  <SCORE.INTRA.REPUL.0>
0

>  <SCORE.INTRA.SOLV>
0.1745

>  <SCORE.INTRA.SOLV.lig_0>
-10.5235

>  <SCORE.INTRA.VDW>
0.201

>  <SCORE.INTRA.VDW.0>
-1.38455

>  <SCORE.INTRA.norm>
-0.158527

>  <SCORE.RESTR>
0

>  <SCORE.RESTR.CAVITY>
0

>  <SCORE.RESTR.norm>
0

>  <SCORE.SYSTEM>
0

>  <SCORE.SYSTEM.CONST>
0

>  <SCORE.SYSTEM.DIHEDRAL>
0

>  <SCORE.SYSTEM.SOLV>
0

>  <SCORE.SYSTEM.norm>
0

>  <SCORE.heavy>
28

>  <SCORE.norm>
-1.3846

>  <RMSD>
1.095

$$$$
ligand
 OpenBabel11021811413D
libRbt.so/2013.1/901 2013/11/27
 28 32  0  0  0  0  0  0  0  0999 V2000
   44.0780   27.7413   22.2417 C   0  0  0  0  0  0  0  0  0  0  0  0
   42.8116   26.9093   22.1969 C   0  0  0  0  0  0  0  0  0  0  0  0
   41.9013   27.2082   23.3787 C   0  0  0  0  0  0  0  0  0  0  0  0
   33.9751   25.4418   24.5367 O   0  0  0  0  0  0  0  0  0  0  0  0
   34.7070   25.5798   25.7559 C   0  0  0  0  0  0  0  0  0  0  0  0
   38.7008   23.8796   28.0950 C   0  0  0  0  0  0  0  0  0  0  0  0
   38.7011   24.9758   28.9481 C   0  0  0  0  0  0  0  0  0  0  0  0
   37.7329   25.9711   28.7928 C   0  0  0  0  0  0  0  0  0  0  0  0
   36.7659   25.8714   27.7918 C   0  0  0  0  0  0  0  0  0  0  0  0
   35.8272   24.5353   25.8441 C   0  0  1  0  0  0  0  0  0  0  0  0
   36.7698   24.7630   26.9777 C   0  0  0  0  0  0  0  0  0  0  0  0
   37.7242   23.7894   27.1317 C   0  0  0  0  0  0  0  0  0  0  0  0
   37.6645   22.7105   26.1640 C   0  0  1  0  0  0  0  0  0  0  0  0
   36.0202   20.8474   26.2925 C   0  0  0  0  0  0  0  0  0  0  0  0
   36.3103   22.1855   26.1742 C   0  0  0  0  0  0  0  0  0  0  0  0
   35.3261   23.1232   26.0123 C   0  0  0  0  0  0  0  0  0  0  0  0
   33.9970   22.7293   25.9624 C   0  0  0  0  0  0  0  0  0  0  0  0
   33.6850   21.3753   26.1020 C   0  0  0  0  0  0  0  0  0  0  0  0
   34.6969   20.4389   26.2692 C   0  0  0  0  0  0  0  0  0  0  0  0
   40.6553   26.3334   23.3309 C   0  0  0  0  0  0  0  0  0  0  0  0
   39.8391   26.4981   24.6074 C   0  0  0  0  0  0  0  0  0  0  0  0
   37.1382   26.7898   24.2953 O   0  0  0  0  0  0  0  0  0  0  0  0
   40.1689   23.7113   24.9445 O   0  0  0  0  0  0  0  0  0  0  0  0
   39.0699   24.2116   24.7717 C   0  0  0  0  0  0  0  0  0  0  0  0
   38.8282   25.4527   24.5993 N   0  0  0  0  0  0  0  0  0  0  0  0
   37.5973   25.6913   24.4729 C   0  0  0  0  0  0  0  0  0  0  0  0
   36.7482   24.4760   24.6151 C   0  0  1  0  0  0  0  0  0  0  0  0
   37.8219   23.4037   24.8176 C   0  0  2  0  0  0  0  0  0  0  0  0
  1  2  1  0  0  0  0
  2  3  1  0  0  0  0
  3 20  1  0  0  0  0
  4  5  1  0  0  0  0
  6  7  2  0  0  0  0
  6 12  1  0  0  0  0
  7  8  1  0  0  0  0
  8  9  2  0  0  0  0
  9 11  1  0  0  0  0
 10  5  1  6  0  0  0
 10 11  1  0  0  0  0
 10 16  1  0  0  0  0
 10 27  1  0  0  0  0
 11 12  2  0  0  0  0
 13 12  1  1  0  0  0
 13 15  1  0  0  0  0
 13 28  1  0  0  0  0
 14 15  2  0  0  0  0
 14 19  1  0  0  0  0
 15 16  1  0  0  0  0
 16 17  2  0  0  0  0
 17 18  1  0  0  0  0
 18 19  2  0  0  0  0
 20 21  1  0  0  0  0
 21 25  1  0  0  0  0
 22 26  2  0  0  0  0
 23 24  2  0  0  0  0
 24 25  1  0  0  0  0
 25 26  1  0  0  0  0
 27 26  1  1  0  0  0
 27 28  1  0  0  0  0
 28 24  1  1  0  0  0
M  END
>  <CHROM.1>
-178.45854537,170.41123944,172.39528918,-169.04276872,70.92442022,37.78833721
24.62682855,25.42757849,-0.62698801,0.14970547,2.28191526

>  <Name>
ligand

>  <RI>
0

>  <Rbt.Current_Directory>
/home/itssahil/PROJECTS/Mol_Feturizer/New_Systems/rnas/1YLS

>  <Rbt.Executable>
rbdock ($Id: //depot/dev/client3/rdock/2013.1/src/exe/rbdock.cxx#4 $)

>  <Rbt.Library>
libRbt.so (2013.1, Build901 2013/11/27)

>  <Rbt.Parameter_File>
/export/apps/rDock/src/rDock_2013.1_src/data/scripts/dock_solv.prm

>  <Rbt.Receptor>
prm/pocket_docking_2.prm

>  <SCORE>
-37.7185

>  <SCORE.INTER>
-33.6129

>  <SCORE.INTER.CONST>
1

>  <SCORE.INTER.POLAR>
0

>  <SCORE.INTER.ROT>
5

>  <SCORE.INTER.SOLV>
7.60087

>  <SCORE.INTER.VDW>
-31.8756

>  <SCORE.INTER.norm>
-1.20046

>  <SCORE.INTRA>
-4.10561

>  <SCORE.INTRA.DIHEDRAL>
-8.73911

>  <SCORE.INTRA.DIHEDRAL.0>
12.0148

>  <SCORE.INTRA.POLAR>
0

>  <SCORE.INTRA.POLAR.0>
0

>  <SCORE.INTRA.REPUL>
0

>  <SCORE.INTRA.REPUL.0>
0

>  <SCORE.INTRA.SOLV>
0.232344

>  <SCORE.INTRA.SOLV.lig_0>
-10.5235

>  <SCORE.INTRA.VDW>
0.147772

>  <SCORE.INTRA.VDW.0>
-1.38455

>  <SCORE.INTRA.norm>
-0.146629

>  <SCORE.RESTR>
0

>  <SCORE.RESTR.CAVITY>
0

>  <SCORE.RESTR.norm>
0

>  <SCORE.SYSTEM>
0

>  <SCORE.SYSTEM.CONST>
0

>  <SCORE.SYSTEM.DIHEDRAL>
0

>  <SCORE.SYSTEM.SOLV>
0

>  <SCORE.SYSTEM.norm>
0

>  <SCORE.heavy>
28

>  <SCORE.norm>
-1.34709

>  <RMSD>
1.096

$$$$
ligand
 OpenBabel11021811413D
libRbt.so/2013.1/901 2013/11/27
 28 32  0  0  0  0  0  0  0  0999 V2000
   43.5092   26.2801   22.2561 C   0  0  0  0  0  0  0  0  0  0  0  0
   42.4630   27.3439   21.9884 C   0  0  0  0  0  0  0  0  0  0  0  0
   41.5419   27.5389   23.1835 C   0  0  0  0  0  0  0  0  0  0  0  0
   34.0041   24.7199   24.2890 O   0  0  0  0  0  0  0  0  0  0  0  0
   34.6965   25.1160   25.4742 C   0  0  0  0  0  0  0  0  0  0  0  0
   38.6384   24.0383   28.2333 C   0  0  0  0  0  0  0  0  0  0  0  0
   38.4680   25.1984   28.9780 C   0  0  0  0  0  0  0  0  0  0  0  0
   37.4248   26.0731   28.6635 C   0  0  0  0  0  0  0  0  0  0  0  0
   36.5529   25.7897   27.6116 C   0  0  0  0  0  0  0  0  0  0  0  0
   35.9004   24.2021   25.7371 C   0  0  1  0  0  0  0  0  0  0  0  0
   36.7255   24.6213   26.9071 C   0  0  0  0  0  0  0  0  0  0  0  0
   37.7530   23.7666   27.2173 C   0  0  0  0  0  0  0  0  0  0  0  0
   37.8718   22.6078   26.3530 C   0  0  1  0  0  0  0  0  0  0  0  0
   36.4067   20.6055   26.5409 C   0  0  0  0  0  0  0  0  0  0  0  0
   36.5769   21.9508   26.3184 C   0  0  0  0  0  0  0  0  0  0  0  0
   35.5239   22.7663   26.0016 C   0  0  0  0  0  0  0  0  0  0  0  0
   34.2461   22.2366   25.8969 C   0  0  0  0  0  0  0  0  0  0  0  0
   34.0540   20.8750   26.1405 C   0  0  0  0  0  0  0  0  0  0  0  0
   35.1340   20.0642   26.4644 C   0  0  0  0  0  0  0  0  0  0  0  0
   40.5254   26.4077   23.2677 C   0  0  0  0  0  0  0  0  0  0  0  0
   39.7922   26.4481   24.6033 C   0  0  0  0  0  0  0  0  0  0  0  0
   37.1086   26.4361   24.0789 O   0  0  0  0  0  0  0  0  0  0  0  0
   40.3576   23.7487   25.2217 O   0  0  0  0  0  0  0  0  0  0  0  0
   39.2330   24.1180   24.9271 C   0  0  0  0  0  0  0  0  0  0  0  0
   38.8889   25.3086   24.6230 N   0  0  0  0  0  0  0  0  0  0  0  0
   37.6545   25.4092   24.3898 C   0  0  0  0  0  0  0  0  0  0  0  0
   36.9161   24.1308   24.5860 C   0  0  1  0  0  0  0  0  0  0  0  0
   38.0675   23.1946   24.9618 C   0  0  2  0  0  0  0  0  0  0  0  0
  1  2  1  0  0  0  0
  2  3  1  0  0  0  0
  3 20  1  0  0  0  0
  4  5  1  0  0  0  0
  6  7  2  0  0  0  0
  6 12  1  0  0  0  0
  7  8  1  0  0  0  0
  8  9  2  0  0  0  0
  9 11  1  0  0  0  0
 10  5  1  6  0  0  0
 10 11  1  0  0  0  0
 10 16  1  0  0  0  0
 10 27  1  0  0  0  0
 11 12  2  0  0  0  0
 13 12  1  1  0  0  0
 13 15  1  0  0  0  0
 13 28  1  0  0  0  0
 14 15  2  0  0  0  0
 14 19  1  0  0  0  0
 15 16  1  0  0  0  0
 16 17  2  0  0  0  0
 17 18  1  0  0  0  0
 18 19  2  0  0  0  0
 20 21  1  0  0  0  0
 21 25  1  0  0  0  0
 22 26  2  0  0  0  0
 23 24  2  0  0  0  0
 24 25  1  0  0  0  0
 25 26  1  0  0  0  0
 27 26  1  1  0  0  0
 27 28  1  0  0  0  0
 28 24  1  1  0  0  0
M  END
>  <CHROM.1>
-76.67914413,175.83115344,168.69131418,-177.61714085,81.98591173,37.80813765
24.41753265,25.41565388,-0.66018003,0.25411326,2.17217184

>  <Name>
ligand

>  <RI>
0

>  <Rbt.Current_Directory>
/home/itssahil/PROJECTS/Mol_Feturizer/New_Systems/rnas/1YLS

>  <Rbt.Executable>
rbdock ($Id: //depot/dev/client3/rdock/2013.1/src/exe/rbdock.cxx#4 $)

>  <Rbt.Library>
libRbt.so (2013.1, Build901 2013/11/27)

>  <Rbt.Parameter_File>
/export/apps/rDock/src/rDock_2013.1_src/data/scripts/dock_solv.prm

>  <Rbt.Receptor>
prm/pocket_docking_8.prm

>  <SCORE>
-38.1104

>  <SCORE.INTER>
-34.7946

>  <SCORE.INTER.CONST>
1

>  <SCORE.INTER.POLAR>
0

>  <SCORE.INTER.ROT>
5

>  <SCORE.INTER.SOLV>
7.80644

>  <SCORE.INTER.VDW>
-32.7319

>  <SCORE.INTER.norm>
-1.24267

>  <SCORE.INTRA>
-3.31579

>  <SCORE.INTRA.DIHEDRAL>
-8.09952

>  <SCORE.INTRA.DIHEDRAL.0>
12.0148

>  <SCORE.INTRA.POLAR>
0

>  <SCORE.INTRA.POLAR.0>
0

>  <SCORE.INTRA.REPUL>
0

>  <SCORE.INTRA.REPUL.0>
0

>  <SCORE.INTRA.SOLV>
0.156644

>  <SCORE.INTRA.SOLV.lig_0>
-10.5235

>  <SCORE.INTRA.VDW>
0.655646

>  <SCORE.INTRA.VDW.0>
-1.38455

>  <SCORE.INTRA.norm>
-0.118421

>  <SCORE.RESTR>
0

>  <SCORE.RESTR.CAVITY>
0

>  <SCORE.RESTR.norm>
0

>  <SCORE.SYSTEM>
0

>  <SCORE.SYSTEM.CONST>
0

>  <SCORE.SYSTEM.DIHEDRAL>
0

>  <SCORE.SYSTEM.SOLV>
0

>  <SCORE.SYSTEM.norm>
0

>  <SCORE.heavy>
28

>  <SCORE.norm>
-1.36109

>  <RMSD>
1.098

$$$$
ligand
 OpenBabel11021811413D
libRbt.so/2013.1/901 2013/11/27
 28 32  0  0  0  0  0  0  0  0999 V2000
   43.4766   26.3251   22.3585 C   0  0  0  0  0  0  0  0  0  0  0  0
   42.5220   27.4732   22.0965 C   0  0  0  0  0  0  0  0  0  0  0  0
   41.5597   27.6794   23.2568 C   0  0  0  0  0  0  0  0  0  0  0  0
   33.8944   24.8843   24.5682 O   0  0  0  0  0  0  0  0  0  0  0  0
   34.6760   25.2310   25.7128 C   0  0  0  0  0  0  0  0  0  0  0  0
   38.8040   24.0317   28.1281 C   0  0  0  0  0  0  0  0  0  0  0  0
   38.6781   25.1439   28.9505 C   0  0  0  0  0  0  0  0  0  0  0  0
   37.6107   26.0252   28.7605 C   0  0  0  0  0  0  0  0  0  0  0  0
   36.6704   25.7958   27.7553 C   0  0  0  0  0  0  0  0  0  0  0  0
   35.9005   24.3153   25.8382 C   0  0  1  0  0  0  0  0  0  0  0  0
   36.8013   24.6728   26.9722 C   0  0  0  0  0  0  0  0  0  0  0  0
   37.8527   23.8117   27.1602 C   0  0  0  0  0  0  0  0  0  0  0  0
   37.9189   22.7072   26.2223 C   0  0  1  0  0  0  0  0  0  0  0  0
   36.4821   20.6827   26.3897 C   0  0  0  0  0  0  0  0  0  0  0  0
   36.6287   22.0405   26.2367 C   0  0  0  0  0  0  0  0  0  0  0  0
   35.5515   22.8626   26.0416 C   0  0  0  0  0  0  0  0  0  0  0  0
   34.2728   22.3273   25.9926 C   0  0  0  0  0  0  0  0  0  0  0  0
   34.1060   20.9518   26.1671 C   0  0  0  0  0  0  0  0  0  0  0  0
   35.2104   20.1341   26.3678 C   0  0  0  0  0  0  0  0  0  0  0  0
   40.5468   26.5436   23.3221 C   0  0  0  0  0  0  0  0  0  0  0  0
   39.6920   26.6633   24.5782 C   0  0  0  0  0  0  0  0  0  0  0  0
   36.9789   26.6553   24.2378 O   0  0  0  0  0  0  0  0  0  0  0  0
   40.3145   23.9379   24.9946 O   0  0  0  0  0  0  0  0  0  0  0  0
   39.1702   24.3127   24.7997 C   0  0  0  0  0  0  0  0  0  0  0  0
   38.7990   25.5157   24.5913 N   0  0  0  0  0  0  0  0  0  0  0  0
   37.5510   25.6175   24.4491 C   0  0  0  0  0  0  0  0  0  0  0  0
   36.8353   24.3224   24.6184 C   0  0  1  0  0  0  0  0  0  0  0  0
   38.0154   23.3772   24.8585 C   0  0  2  0  0  0  0  0  0  0  0  0
  1  2  1  0  0  0  0
  2  3  1  0  0  0  0
  3 20  1  0  0  0  0
  4  5  1  0  0  0  0
  6  7  2  0  0  0  0
  6 12  1  0  0  0  0
  7  8  1  0  0  0  0
  8  9  2  0  0  0  0
  9 11  1  0  0  0  0
 10  5  1  6  0  0  0
 10 11  1  0  0  0  0
 10 16  1  0  0  0  0
 10 27  1  0  0  0  0
 11 12  2  0  0  0  0
 13 12  1  1  0  0  0
 13 15  1  0  0  0  0
 13 28  1  0  0  0  0
 14 15  2  0  0  0  0
 14 19  1  0  0  0  0
 15 16  1  0  0  0  0
 16 17  2  0  0  0  0
 17 18  1  0  0  0  0
 18 19  2  0  0  0  0
 20 21  1  0  0  0  0
 21 25  1  0  0  0  0
 22 26  2  0  0  0  0
 23 24  2  0  0  0  0
 24 25  1  0  0  0  0
 25 26  1  0  0  0  0
 27 26  1  1  0  0  0
 27 28  1  0  0  0  0
 28 24  1  1  0  0  0
M  END
>  <CHROM.1>
-70.98249261,176.79445188,173.24777700,-177.55144807,70.21604461,37.81985007
24.53042323,25.43729521,-0.69761366,-0.03127866,2.53570452

>  <Name>
ligand

>  <RI>
0

>  <Rbt.Current_Directory>
/home/itssahil/PROJECTS/Mol_Feturizer/New_Systems/rnas/1YLS

>  <Rbt.Executable>
rbdock ($Id: //depot/dev/client3/rdock/2013.1/src/exe/rbdock.cxx#4 $)

>  <Rbt.Library>
libRbt.so (2013.1, Build901 2013/11/27)

>  <Rbt.Parameter_File>
/export/apps/rDock/src/rDock_2013.1_src/data/scripts/dock_solv.prm

>  <Rbt.Receptor>
prm/pocket_docking_8.prm

>  <SCORE>
-38.2397

>  <SCORE.INTER>
-34.9119

>  <SCORE.INTER.CONST>
1

>  <SCORE.INTER.POLAR>
0

>  <SCORE.INTER.ROT>
5

>  <SCORE.INTER.SOLV>
7.6647

>  <SCORE.INTER.VDW>
-32.7629

>  <SCORE.INTER.norm>
-1.24685

>  <SCORE.INTRA>
-3.32774

>  <SCORE.INTRA.DIHEDRAL>
-8.97008

>  <SCORE.INTRA.DIHEDRAL.0>
12.0148

>  <SCORE.INTRA.POLAR>
0

>  <SCORE.INTRA.POLAR.0>
0

>  <SCORE.INTRA.REPUL>
0

>  <SCORE.INTRA.REPUL.0>
0

>  <SCORE.INTRA.SOLV>
0.169706

>  <SCORE.INTRA.SOLV.lig_0>
-10.5235

>  <SCORE.INTRA.VDW>
1.07245

>  <SCORE.INTRA.VDW.0>
-1.38455

>  <SCORE.INTRA.norm>
-0.118848

>  <SCORE.RESTR>
0

>  <SCORE.RESTR.CAVITY>
0

>  <SCORE.RESTR.norm>
0

>  <SCORE.SYSTEM>
0

>  <SCORE.SYSTEM.CONST>
0

>  <SCORE.SYSTEM.DIHEDRAL>
0

>  <SCORE.SYSTEM.SOLV>
0

>  <SCORE.SYSTEM.norm>
0

>  <SCORE.heavy>
28

>  <SCORE.norm>
-1.3657

>  <RMSD>
1.100

$$$$
ligand
 OpenBabel11021811413D
libRbt.so/2013.1/901 2013/11/27
 28 32  0  0  0  0  0  0  0  0999 V2000
   42.5328   28.6549   22.4204 C   0  0  0  0  0  0  0  0  0  0  0  0
   42.8598   27.1862   22.2363 C   0  0  0  0  0  0  0  0  0  0  0  0
   42.5751   26.3850   23.4980 C   0  0  0  0  0  0  0  0  0  0  0  0
   34.6552   25.0977   24.3367 O   0  0  0  0  0  0  0  0  0  0  0  0
   35.3999   25.3673   25.5258 C   0  0  0  0  0  0  0  0  0  0  0  0
   38.8653   23.4697   28.4758 C   0  0  0  0  0  0  0  0  0  0  0  0
   38.8795   24.6247   29.2471 C   0  0  0  0  0  0  0  0  0  0  0  0
   38.0521   25.6960   28.9006 C   0  0  0  0  0  0  0  0  0  0  0  0
   37.2110   25.6136   27.7902 C   0  0  0  0  0  0  0  0  0  0  0  0
   36.3802   24.2268   25.8290 C   0  0  1  0  0  0  0  0  0  0  0  0
   37.1947   24.4490   27.0589 C   0  0  0  0  0  0  0  0  0  0  0  0
   38.0111   23.4007   27.4008 C   0  0  0  0  0  0  0  0  0  0  0  0
   37.9542   22.2596   26.5072 C   0  0  1  0  0  0  0  0  0  0  0  0
   36.1137   20.5855   26.5419 C   0  0  0  0  0  0  0  0  0  0  0  0
   36.5602   21.8744   26.3744 C   0  0  0  0  0  0  0  0  0  0  0  0
   35.7114   22.8895   26.0231 C   0  0  0  0  0  0  0  0  0  0  0  0
   34.3638   22.6271   25.8256 C   0  0  0  0  0  0  0  0  0  0  0  0
   33.8914   21.3262   26.0124 C   0  0  0  0  0  0  0  0  0  0  0  0
   34.7668   20.3101   26.3725 C   0  0  0  0  0  0  0  0  0  0  0  0
   41.1037   25.9973   23.5668 C   0  0  0  0  0  0  0  0  0  0  0  0
   40.7037   25.6761   25.0019 C   0  0  0  0  0  0  0  0  0  0  0  0
   38.1099   26.2093   24.3198 O   0  0  0  0  0  0  0  0  0  0  0  0
   40.6840   22.9059   25.5631 O   0  0  0  0  0  0  0  0  0  0  0  0
   39.6758   23.4978   25.2149 C   0  0  0  0  0  0  0  0  0  0  0  0
   39.5938   24.7391   24.9305 N   0  0  0  0  0  0  0  0  0  0  0  0
   38.4213   25.0882   24.6283 C   0  0  0  0  0  0  0  0  0  0  0  0
   37.4339   23.9786   24.7381 C   0  0  1  0  0  0  0  0  0  0  0  0
   38.3512   22.8243   25.1502 C   0  0  2  0  0  0  0  0  0  0  0  0
  1  2  1  0  0  0  0
  2  3  1  0  0  0  0
  3 20  1  0  0  0  0
  4  5  1  0  0  0  0
  6  7  2  0  0  0  0
  6 12  1  0  0  0  0
  7  8  1  0  0  0  0
  8  9  2  0  0  0  0
  9 11  1  0  0  0  0
 10  5  1  6  0  0  0
 10 11  1  0  0  0  0
 10 16  1  0  0  0  0
 10 27  1  0  0  0  0
 11 12  2  0  0  0  0
 13 12  1  1  0  0  0
 13 15  1  0  0  0  0
 13 28  1  0  0  0  0
 14 15  2  0  0  0  0
 14 19  1  0  0  0  0
 15 16  1  0  0  0  0
 16 17  2  0  0  0  0
 17 18  1  0  0  0  0
 18 19  2  0  0  0  0
 20 21  1  0  0  0  0
 21 25  1  0  0  0  0
 22 26  2  0  0  0  0
 23 24  2  0  0  0  0
 24 25  1  0  0  0  0
 25 26  1  0  0  0  0
 27 26  1  1  0  0  0
 27 28  1  0  0  0  0
 28 24  1  1  0  0  0
M  END
>  <CHROM.1>
83.57846548,179.78749484,-158.85439005,-152.82407612,107.23938059,38.17632401
24.27945508,25.58413383,0.65080081,-0.29097099,-0.96651452

>  <Name>
ligand

>  <RI>
0

>  <Rbt.Current_Directory>
/home/itssahil/PROJECTS/Mol_Feturizer/New_Systems/rnas/1YLS

>  <Rbt.Executable>
rbdock ($Id: //depot/dev/client3/rdock/2013.1/src/exe/rbdock.cxx#4 $)

>  <Rbt.Library>
libRbt.so (2013.1, Build901 2013/11/27)

>  <Rbt.Parameter_File>
/export/apps/rDock/src/rDock_2013.1_src/data/scripts/dock_solv.prm

>  <Rbt.Receptor>
prm/pocket_docking_6.prm

>  <SCORE>
-33.9794

>  <SCORE.INTER>
-32.924

>  <SCORE.INTER.CONST>
1

>  <SCORE.INTER.POLAR>
0

>  <SCORE.INTER.ROT>
5

>  <SCORE.INTER.SOLV>
7.04105

>  <SCORE.INTER.VDW>
-31.2297

>  <SCORE.INTER.norm>
-1.17586

>  <SCORE.INTRA>
-1.05545

>  <SCORE.INTRA.DIHEDRAL>
-3.64653

>  <SCORE.INTRA.DIHEDRAL.0>
12.0148

>  <SCORE.INTRA.POLAR>
0

>  <SCORE.INTRA.POLAR.0>
0

>  <SCORE.INTRA.REPUL>
0

>  <SCORE.INTRA.REPUL.0>
0

>  <SCORE.INTRA.SOLV>
0.147063

>  <SCORE.INTRA.SOLV.lig_0>
-10.5235

>  <SCORE.INTRA.VDW>
0.694283

>  <SCORE.INTRA.VDW.0>
-1.38455

>  <SCORE.INTRA.norm>
-0.0376947

>  <SCORE.RESTR>
0

>  <SCORE.RESTR.CAVITY>
0

>  <SCORE.RESTR.norm>
0

>  <SCORE.SYSTEM>
0

>  <SCORE.SYSTEM.CONST>
0

>  <SCORE.SYSTEM.DIHEDRAL>
0

>  <SCORE.SYSTEM.SOLV>
0

>  <SCORE.SYSTEM.norm>
0

>  <SCORE.heavy>
28

>  <SCORE.norm>
-1.21355

>  <RMSD>
1.101

$$$$
ligand
 OpenBabel11021811413D
libRbt.so/2013.1/901 2013/11/27
 28 32  0  0  0  0  0  0  0  0999 V2000
   43.2476   25.4813   24.1440 C   0  0  0  0  0  0  0  0  0  0  0  0
   42.9192   26.1705   22.8344 C   0  0  0  0  0  0  0  0  0  0  0  0
   41.7227   27.1000   22.9737 C   0  0  0  0  0  0  0  0  0  0  0  0
   33.9658   25.2283   26.3571 O   0  0  0  0  0  0  0  0  0  0  0  0
   34.8877   25.0994   25.2734 C   0  0  0  0  0  0  0  0  0  0  0  0
   38.6380   23.9014   28.2421 C   0  0  0  0  0  0  0  0  0  0  0  0
   38.5159   25.1040   28.9262 C   0  0  0  0  0  0  0  0  0  0  0  0
   37.5464   26.0284   28.5291 C   0  0  0  0  0  0  0  0  0  0  0  0
   36.6995   25.7524   27.4551 C   0  0  0  0  0  0  0  0  0  0  0  0
   36.0170   24.1232   25.6276 C   0  0  1  0  0  0  0  0  0  0  0  0
   36.8216   24.5432   26.8114 C   0  0  0  0  0  0  0  0  0  0  0  0
   37.7771   23.6396   27.2027 C   0  0  0  0  0  0  0  0  0  0  0  0
   37.8524   22.4358   26.3969 C   0  0  1  0  0  0  0  0  0  0  0  0
   36.2512   20.5435   26.6122 C   0  0  0  0  0  0  0  0  0  0  0  0
   36.5191   21.8630   26.3370 C   0  0  0  0  0  0  0  0  0  0  0  0
   35.5358   22.7288   25.9399 C   0  0  0  0  0  0  0  0  0  0  0  0
   34.2308   22.2784   25.8050 C   0  0  0  0  0  0  0  0  0  0  0  0
   33.9392   20.9451   26.1010 C   0  0  0  0  0  0  0  0  0  0  0  0
   34.9493   20.0825   26.5062 C   0  0  0  0  0  0  0  0  0  0  0  0
   40.4326   26.2994   23.0945 C   0  0  0  0  0  0  0  0  0  0  0  0
   40.0910   26.0568   24.5599 C   0  0  0  0  0  0  0  0  0  0  0  0
   37.4351   26.1932   23.9235 O   0  0  0  0  0  0  0  0  0  0  0  0
   40.4510   23.3589   25.3218 O   0  0  0  0  0  0  0  0  0  0  0  0
   39.3658   23.7857   24.9637 C   0  0  0  0  0  0  0  0  0  0  0  0
   39.1138   24.9803   24.5923 N   0  0  0  0  0  0  0  0  0  0  0  0
   37.8990   25.1492   24.3030 C   0  0  0  0  0  0  0  0  0  0  0  0
   37.0701   23.9319   24.5247 C   0  0  1  0  0  0  0  0  0  0  0  0
   38.1411   22.9422   24.9904 C   0  0  2  0  0  0  0  0  0  0  0  0
  1  2  1  0  0  0  0
  2  3  1  0  0  0  0
  3 20  1  0  0  0  0
  4  5  1  0  0  0  0
  6  7  2  0  0  0  0
  6 12  1  0  0  0  0
  7  8  1  0  0  0  0
  8  9  2  0  0  0  0
  9 11  1  0  0  0  0
 10  5  1  6  0  0  0
 10 11  1  0  0  0  0
 10 16  1  0  0  0  0
 10 27  1  0  0  0  0
 11 12  2  0  0  0  0
 13 12  1  1  0  0  0
 13 15  1  0  0  0  0
 13 28  1  0  0  0  0
 14 15  2  0  0  0  0
 14 19  1  0  0  0  0
 15 16  1  0  0  0  0
 16 17  2  0  0  0  0
 17 18  1  0  0  0  0
 18 19  2  0  0  0  0
 20 21  1  0  0  0  0
 21 25  1  0  0  0  0
 22 26  2  0  0  0  0
 23 24  2  0  0  0  0
 24 25  1  0  0  0  0
 25 26  1  0  0  0  0
 27 26  1  1  0  0  0
 27 28  1  0  0  0  0
 28 24  1  1  0  0  0
M  END
>  <CHROM.1>
-73.02436224,-60.39706719,92.86222916,-163.25936514,106.22075337,37.88322302
24.22226603,25.56680729,-0.51825793,-0.33126258,2.99604642

>  <Name>
ligand

>  <RI>
0

>  <Rbt.Current_Directory>
/home/itssahil/PROJECTS/Mol_Feturizer/New_Systems/rnas/1YLS

>  <Rbt.Executable>
rbdock ($Id: //depot/dev/client3/rdock/2013.1/src/exe/rbdock.cxx#4 $)

>  <Rbt.Library>
libRbt.so (2013.1, Build901 2013/11/27)

>  <Rbt.Parameter_File>
/export/apps/rDock/src/rDock_2013.1_src/data/scripts/dock_solv.prm

>  <Rbt.Receptor>
prm/pocket_docking_2.prm

>  <SCORE>
-34.1133

>  <SCORE.INTER>
-33.0949

>  <SCORE.INTER.CONST>
1

>  <SCORE.INTER.POLAR>
0

>  <SCORE.INTER.ROT>
5

>  <SCORE.INTER.SOLV>
7.55557

>  <SCORE.INTER.VDW>
-31.5151

>  <SCORE.INTER.norm>
-1.18196

>  <SCORE.INTRA>
-1.0184

>  <SCORE.INTRA.DIHEDRAL>
-4.55415

>  <SCORE.INTRA.DIHEDRAL.0>
12.0148

>  <SCORE.INTRA.POLAR>
0

>  <SCORE.INTRA.POLAR.0>
0

>  <SCORE.INTRA.REPUL>
0

>  <SCORE.INTRA.REPUL.0>
0

>  <SCORE.INTRA.SOLV>
0.115867

>  <SCORE.INTRA.SOLV.lig_0>
-10.5235

>  <SCORE.INTRA.VDW>
1.20075

>  <SCORE.INTRA.VDW.0>
-1.38455

>  <SCORE.INTRA.norm>
-0.0363714

>  <SCORE.RESTR>
9.12213e-07

>  <SCORE.RESTR.CAVITY>
9.12213e-07

>  <SCORE.RESTR.norm>
3.2579e-08

>  <SCORE.SYSTEM>
0

>  <SCORE.SYSTEM.CONST>
0

>  <SCORE.SYSTEM.DIHEDRAL>
0

>  <SCORE.SYSTEM.SOLV>
0

>  <SCORE.SYSTEM.norm>
0

>  <SCORE.heavy>
28

>  <SCORE.norm>
-1.21833

>  <RMSD>
1.103

$$$$
ligand
 OpenBabel11021811413D
libRbt.so/2013.1/901 2013/11/27
 28 32  0  0  0  0  0  0  0  0999 V2000
   43.3179   26.3337   22.3728 C   0  0  0  0  0  0  0  0  0  0  0  0
   42.6814   27.1938   23.4466 C   0  0  0  0  0  0  0  0  0  0  0  0
   41.3177   27.7127   23.0155 C   0  0  0  0  0  0  0  0  0  0  0  0
   34.0005   24.8094   24.3623 O   0  0  0  0  0  0  0  0  0  0  0  0
   34.7518   25.1936   25.5152 C   0  0  0  0  0  0  0  0  0  0  0  0
   38.7093   23.9594   28.1849 C   0  0  0  0  0  0  0  0  0  0  0  0
   38.5850   25.1111   28.9513 C   0  0  0  0  0  0  0  0  0  0  0  0
   37.5618   26.0200   28.6699 C   0  0  0  0  0  0  0  0  0  0  0  0
   36.6638   25.7789   27.6294 C   0  0  0  0  0  0  0  0  0  0  0  0
   35.9336   24.2419   25.7415 C   0  0  1  0  0  0  0  0  0  0  0  0
   36.7907   24.6180   26.9030 C   0  0  0  0  0  0  0  0  0  0  0  0
   37.7988   23.7297   27.1807 C   0  0  0  0  0  0  0  0  0  0  0  0
   37.8694   22.5827   26.2957 C   0  0  1  0  0  0  0  0  0  0  0  0
   36.3515   20.6195   26.4775 C   0  0  0  0  0  0  0  0  0  0  0  0
   36.5560   21.9630   26.2737 C   0  0  0  0  0  0  0  0  0  0  0  0
   35.5211   22.8130   25.9893 C   0  0  0  0  0  0  0  0  0  0  0  0
   34.2272   22.3213   25.8990 C   0  0  0  0  0  0  0  0  0  0  0  0
   34.0008   20.9618   26.1239 C   0  0  0  0  0  0  0  0  0  0  0  0
   35.0628   20.1156   26.4151 C   0  0  0  0  0  0  0  0  0  0  0  0
   40.2680   26.6139   23.1200 C   0  0  0  0  0  0  0  0  0  0  0  0
   39.8672   26.3962   24.5743 C   0  0  0  0  0  0  0  0  0  0  0  0
   37.1755   26.4684   24.0982 O   0  0  0  0  0  0  0  0  0  0  0  0
   40.3664   23.6720   25.1385 O   0  0  0  0  0  0  0  0  0  0  0  0
   39.2477   24.0777   24.8702 C   0  0  0  0  0  0  0  0  0  0  0  0
   38.9323   25.2824   24.5918 N   0  0  0  0  0  0  0  0  0  0  0  0
   37.6974   25.4216   24.3826 C   0  0  0  0  0  0  0  0  0  0  0  0
   36.9265   24.1614   24.5712 C   0  0  1  0  0  0  0  0  0  0  0  0
   38.0573   23.1870   24.9109 C   0  0  2  0  0  0  0  0  0  0  0  0
  1  2  1  0  0  0  0
  2  3  1  0  0  0  0
  3 20  1  0  0  0  0
  4  5  1  0  0  0  0
  6  7  2  0  0  0  0
  6 12  1  0  0  0  0
  7  8  1  0  0  0  0
  8  9  2  0  0  0  0
  9 11  1  0  0  0  0
 10  5  1  6  0  0  0
 10 11  1  0  0  0  0
 10 16  1  0  0  0  0
 10 27  1  0  0  0  0
 11 12  2  0  0  0  0
 13 12  1  1  0  0  0
 13 15  1  0  0  0  0
 13 28  1  0  0  0  0
 14 15  2  0  0  0  0
 14 19  1  0  0  0  0
 15 16  1  0  0  0  0
 16 17  2  0  0  0  0
 17 18  1  0  0  0  0
 18 19  2  0  0  0  0
 20 21  1  0  0  0  0
 21 25  1  0  0  0  0
 22 26  2  0  0  0  0
 23 24  2  0  0  0  0
 24 25  1  0  0  0  0
 25 26  1  0  0  0  0
 27 26  1  1  0  0  0
 27 28  1  0  0  0  0
 28 24  1  1  0  0  0
M  END
>  <CHROM.1>
76.61763252,177.83488774,76.36959480,-176.50181179,98.29807845,37.81355075
24.43162018,25.44848336,-0.66750416,0.17369581,2.33214081

>  <Name>
ligand

>  <RI>
0

>  <Rbt.Current_Directory>
/home/itssahil/PROJECTS/Mol_Feturizer/New_Systems/rnas/1YLS

>  <Rbt.Executable>
rbdock ($Id: //depot/dev/client3/rdock/2013.1/src/exe/rbdock.cxx#4 $)

>  <Rbt.Library>
libRbt.so (2013.1, Build901 2013/11/27)

>  <Rbt.Parameter_File>
/export/apps/rDock/src/rDock_2013.1_src/data/scripts/dock_solv.prm

>  <Rbt.Receptor>
prm/pocket_docking_3.prm

>  <SCORE>
-37.1432

>  <SCORE.INTER>
-34.4798

>  <SCORE.INTER.CONST>
1

>  <SCORE.INTER.POLAR>
0

>  <SCORE.INTER.ROT>
5

>  <SCORE.INTER.SOLV>
7.85959

>  <SCORE.INTER.VDW>
-32.5397

>  <SCORE.INTER.norm>
-1.23142

>  <SCORE.INTRA>
-2.6634

>  <SCORE.INTRA.DIHEDRAL>
-7.59284

>  <SCORE.INTRA.DIHEDRAL.0>
12.0148

>  <SCORE.INTRA.POLAR>
0

>  <SCORE.INTRA.POLAR.0>
0

>  <SCORE.INTRA.REPUL>
0

>  <SCORE.INTRA.REPUL.0>
0

>  <SCORE.INTRA.SOLV>
0.161476

>  <SCORE.INTRA.SOLV.lig_0>
-10.5235

>  <SCORE.INTRA.VDW>
1.05228

>  <SCORE.INTRA.VDW.0>
-1.38455

>  <SCORE.INTRA.norm>
-0.0951213

>  <SCORE.RESTR>
0

>  <SCORE.RESTR.CAVITY>
0

>  <SCORE.RESTR.norm>
0

>  <SCORE.SYSTEM>
0

>  <SCORE.SYSTEM.CONST>
0

>  <SCORE.SYSTEM.DIHEDRAL>
0

>  <SCORE.SYSTEM.SOLV>
0

>  <SCORE.SYSTEM.norm>
0

>  <SCORE.heavy>
28

>  <SCORE.norm>
-1.32654

>  <RMSD>
1.109

$$$$
ligand
 OpenBabel11021811413D
libRbt.so/2013.1/901 2013/11/27
 28 32  0  0  0  0  0  0  0  0999 V2000
   43.3561   28.6129   22.4167 C   0  0  0  0  0  0  0  0  0  0  0  0
   41.9682   28.2723   22.9222 C   0  0  0  0  0  0  0  0  0  0  0  0
   41.5591   26.8600   22.5312 C   0  0  0  0  0  0  0  0  0  0  0  0
   33.9062   25.1990   26.2783 O   0  0  0  0  0  0  0  0  0  0  0  0
   34.8190   25.0845   25.1853 C   0  0  0  0  0  0  0  0  0  0  0  0
   38.6632   24.1334   28.1229 C   0  0  0  0  0  0  0  0  0  0  0  0
   38.4991   25.3481   28.7762 C   0  0  0  0  0  0  0  0  0  0  0  0
   37.4839   26.2181   28.3703 C   0  0  0  0  0  0  0  0  0  0  0  0
   36.6336   25.8759   27.3183 C   0  0  0  0  0  0  0  0  0  0  0  0
   35.9953   24.1684   25.5470 C   0  0  1  0  0  0  0  0  0  0  0  0
   36.7988   24.6557   26.7057 C   0  0  0  0  0  0  0  0  0  0  0  0
   37.7988   23.8057   27.1054 C   0  0  0  0  0  0  0  0  0  0  0  0
   37.9145   22.5844   26.3313 C   0  0  1  0  0  0  0  0  0  0  0  0
   36.4013   20.6310   26.6241 C   0  0  0  0  0  0  0  0  0  0  0  0
   36.6069   21.9527   26.3090 C   0  0  0  0  0  0  0  0  0  0  0  0
   35.5805   22.7637   25.9049 C   0  0  0  0  0  0  0  0  0  0  0  0
   34.2946   22.2535   25.8038 C   0  0  0  0  0  0  0  0  0  0  0  0
   34.0664   20.9175   26.1406 C   0  0  0  0  0  0  0  0  0  0  0  0
   35.1195   20.1112   26.5522 C   0  0  0  0  0  0  0  0  0  0  0  0
   40.0995   26.6067   22.8855 C   0  0  0  0  0  0  0  0  0  0  0  0
   39.9637   26.2468   24.3602 C   0  0  0  0  0  0  0  0  0  0  0  0
   37.2950   26.2501   23.7644 O   0  0  0  0  0  0  0  0  0  0  0  0
   40.4533   23.5893   25.1889 O   0  0  0  0  0  0  0  0  0  0  0  0
   39.3451   23.9584   24.8373 C   0  0  0  0  0  0  0  0  0  0  0  0
   39.0353   25.1302   24.4380 N   0  0  0  0  0  0  0  0  0  0  0  0
   37.8100   25.2381   24.1642 C   0  0  0  0  0  0  0  0  0  0  0  0
   37.0388   23.9926   24.4325 C   0  0  1  0  0  0  0  0  0  0  0  0
   38.1592   23.0636   24.9070 C   0  0  2  0  0  0  0  0  0  0  0  0
  1  2  1  0  0  0  0
  2  3  1  0  0  0  0
  3 20  1  0  0  0  0
  4  5  1  0  0  0  0
  6  7  2  0  0  0  0
  6 12  1  0  0  0  0
  7  8  1  0  0  0  0
  8  9  2  0  0  0  0
  9 11  1  0  0  0  0
 10  5  1  6  0  0  0
 10 11  1  0  0  0  0
 10 16  1  0  0  0  0
 10 27  1  0  0  0  0
 11 12  2  0  0  0  0
 13 12  1  1  0  0  0
 13 15  1  0  0  0  0
 13 28  1  0  0  0  0
 14 15  2  0  0  0  0
 14 19  1  0  0  0  0
 15 16  1  0  0  0  0
 16 17  2  0  0  0  0
 17 18  1  0  0  0  0
 18 19  2  0  0  0  0
 20 21  1  0  0  0  0
 21 25  1  0  0  0  0
 22 26  2  0  0  0  0
 23 24  2  0  0  0  0
 24 25  1  0  0  0  0
 25 26  1  0  0  0  0
 27 26  1  1  0  0  0
 27 28  1  0  0  0  0
 28 24  1  1  0  0  0
M  END
>  <CHROM.1>
-172.44955479,-60.63425639,-81.55584186,-136.50881675,115.03321068,37.82768625
24.52049392,25.39725454,-0.66243121,-0.41703555,3.02315609

>  <Name>
ligand

>  <RI>
0

>  <Rbt.Current_Directory>
/home/itssahil/PROJECTS/Mol_Feturizer/New_Systems/rnas/1YLS

>  <Rbt.Executable>
rbdock ($Id: //depot/dev/client3/rdock/2013.1/src/exe/rbdock.cxx#4 $)

>  <Rbt.Library>
libRbt.so (2013.1, Build901 2013/11/27)

>  <Rbt.Parameter_File>
/export/apps/rDock/src/rDock_2013.1_src/data/scripts/dock_solv.prm

>  <Rbt.Receptor>
prm/pocket_docking_6.prm

>  <SCORE>
-35.9172

>  <SCORE.INTER>
-35.064

>  <SCORE.INTER.CONST>
1

>  <SCORE.INTER.POLAR>
0

>  <SCORE.INTER.ROT>
5

>  <SCORE.INTER.SOLV>
9.13994

>  <SCORE.INTER.VDW>
-33.356

>  <SCORE.INTER.norm>
-1.25229

>  <SCORE.INTRA>
-0.85323

>  <SCORE.INTRA.DIHEDRAL>
-3.13865

>  <SCORE.INTRA.DIHEDRAL.0>
12.0148

>  <SCORE.INTRA.POLAR>
0

>  <SCORE.INTRA.POLAR.0>
0

>  <SCORE.INTRA.REPUL>
0

>  <SCORE.INTRA.REPUL.0>
0

>  <SCORE.INTRA.SOLV>
0.00557602

>  <SCORE.INTRA.SOLV.lig_0>
-10.5235

>  <SCORE.INTRA.VDW>
0.713309

>  <SCORE.INTRA.VDW.0>
-1.38455

>  <SCORE.INTRA.norm>
-0.0304725

>  <SCORE.RESTR>
0

>  <SCORE.RESTR.CAVITY>
0

>  <SCORE.RESTR.norm>
0

>  <SCORE.SYSTEM>
0

>  <SCORE.SYSTEM.CONST>
0

>  <SCORE.SYSTEM.DIHEDRAL>
0

>  <SCORE.SYSTEM.SOLV>
0

>  <SCORE.SYSTEM.norm>
0

>  <SCORE.heavy>
28

>  <SCORE.norm>
-1.28276

>  <RMSD>
1.110

$$$$
ligand
 OpenBabel11021811413D
libRbt.so/2013.1/901 2013/11/27
 28 32  0  0  0  0  0  0  0  0999 V2000
   43.8031   27.3762   22.4910 C   0  0  0  0  0  0  0  0  0  0  0  0
   42.5426   26.5834   22.7745 C   0  0  0  0  0  0  0  0  0  0  0  0
   41.3202   27.4850   22.8633 C   0  0  0  0  0  0  0  0  0  0  0  0
   33.9705   24.7895   24.3628 O   0  0  0  0  0  0  0  0  0  0  0  0
   34.7371   25.1661   25.5081 C   0  0  0  0  0  0  0  0  0  0  0  0
   38.7043   23.8877   28.1423 C   0  0  0  0  0  0  0  0  0  0  0  0
   38.6056   25.0456   28.9032 C   0  0  0  0  0  0  0  0  0  0  0  0
   37.5932   25.9681   28.6275 C   0  0  0  0  0  0  0  0  0  0  0  0
   36.6805   25.7346   27.5982 C   0  0  0  0  0  0  0  0  0  0  0  0
   35.9069   24.1981   25.7273 C   0  0  1  0  0  0  0  0  0  0  0  0
   36.7821   24.5679   26.8773 C   0  0  0  0  0  0  0  0  0  0  0  0
   37.7797   23.6661   27.1494 C   0  0  0  0  0  0  0  0  0  0  0  0
   37.8234   22.5130   26.2704 C   0  0  1  0  0  0  0  0  0  0  0  0
   36.2783   20.5740   26.4801 C   0  0  0  0  0  0  0  0  0  0  0  0
   36.5007   21.9132   26.2663 C   0  0  0  0  0  0  0  0  0  0  0  0
   35.4757   22.7770   25.9879 C   0  0  0  0  0  0  0  0  0  0  0  0
   34.1737   22.3043   25.9145 C   0  0  0  0  0  0  0  0  0  0  0  0
   33.9293   20.9497   26.1498 C   0  0  0  0  0  0  0  0  0  0  0  0
   34.9816   20.0893   26.4345 C   0  0  0  0  0  0  0  0  0  0  0  0
   40.0542   26.6566   23.0397 C   0  0  0  0  0  0  0  0  0  0  0  0
   39.8595   26.2861   24.5052 C   0  0  0  0  0  0  0  0  0  0  0  0
   37.1642   26.3962   24.0576 O   0  0  0  0  0  0  0  0  0  0  0  0
   40.3238   23.5580   25.0801 O   0  0  0  0  0  0  0  0  0  0  0  0
   39.2085   23.9789   24.8214 C   0  0  0  0  0  0  0  0  0  0  0  0
   38.9083   25.1867   24.5393 N   0  0  0  0  0  0  0  0  0  0  0  0
   37.6734   25.3432   24.3425 C   0  0  0  0  0  0  0  0  0  0  0  0
   36.8858   24.0958   24.5469 C   0  0  1  0  0  0  0  0  0  0  0  0
   38.0054   23.1065   24.8802 C   0  0  2  0  0  0  0  0  0  0  0  0
  1  2  1  0  0  0  0
  2  3  1  0  0  0  0
  3 20  1  0  0  0  0
  4  5  1  0  0  0  0
  6  7  2  0  0  0  0
  6 12  1  0  0  0  0
  7  8  1  0  0  0  0
  8  9  2  0  0  0  0
  9 11  1  0  0  0  0
 10  5  1  6  0  0  0
 10 11  1  0  0  0  0
 10 16  1  0  0  0  0
 10 27  1  0  0  0  0
 11 12  2  0  0  0  0
 13 12  1  1  0  0  0
 13 15  1  0  0  0  0
 13 28  1  0  0  0  0
 14 15  2  0  0  0  0
 14 19  1  0  0  0  0
 15 16  1  0  0  0  0
 16 17  2  0  0  0  0
 17 18  1  0  0  0  0
 18 19  2  0  0  0  0
 20 21  1  0  0  0  0
 21 25  1  0  0  0  0
 22 26  2  0  0  0  0
 23 24  2  0  0  0  0
 24 25  1  0  0  0  0
 25 26  1  0  0  0  0
 27 26  1  1  0  0  0
 27 28  1  0  0  0  0
 28 24  1  1  0  0  0
M  END
>  <CHROM.1>
175.57688446,177.62787507,82.89477289,-162.72369577,108.35734929,37.79547013
24.39361226,25.39778343,-0.66818699,0.20486604,2.27676988

>  <Name>
ligand

>  <RI>
0

>  <Rbt.Current_Directory>
/home/itssahil/PROJECTS/Mol_Feturizer/New_Systems/rnas/1YLS

>  <Rbt.Executable>
rbdock ($Id: //depot/dev/client3/rdock/2013.1/src/exe/rbdock.cxx#4 $)

>  <Rbt.Library>
libRbt.so (2013.1, Build901 2013/11/27)

>  <Rbt.Parameter_File>
/export/apps/rDock/src/rDock_2013.1_src/data/scripts/dock_solv.prm

>  <Rbt.Receptor>
prm/pocket_docking_7.prm

>  <SCORE>
-37.2832

>  <SCORE.INTER>
-34.5232

>  <SCORE.INTER.CONST>
1

>  <SCORE.INTER.POLAR>
0

>  <SCORE.INTER.ROT>
5

>  <SCORE.INTER.SOLV>
7.96712

>  <SCORE.INTER.VDW>
-32.6045

>  <SCORE.INTER.norm>
-1.23297

>  <SCORE.INTRA>
-2.76

>  <SCORE.INTRA.DIHEDRAL>
-6.63981

>  <SCORE.INTRA.DIHEDRAL.0>
12.0148

>  <SCORE.INTRA.POLAR>
0

>  <SCORE.INTRA.POLAR.0>
0

>  <SCORE.INTRA.REPUL>
0

>  <SCORE.INTRA.REPUL.0>
0

>  <SCORE.INTRA.SOLV>
0.20297

>  <SCORE.INTRA.SOLV.lig_0>
-10.5235

>  <SCORE.INTRA.VDW>
0.458418

>  <SCORE.INTRA.VDW.0>
-1.38455

>  <SCORE.INTRA.norm>
-0.0985714

>  <SCORE.RESTR>
0

>  <SCORE.RESTR.CAVITY>
0

>  <SCORE.RESTR.norm>
0

>  <SCORE.SYSTEM>
0

>  <SCORE.SYSTEM.CONST>
0

>  <SCORE.SYSTEM.DIHEDRAL>
0

>  <SCORE.SYSTEM.SOLV>
0

>  <SCORE.SYSTEM.norm>
0

>  <SCORE.heavy>
28

>  <SCORE.norm>
-1.33154

>  <RMSD>
1.110

$$$$
ligand
 OpenBabel11021811413D
libRbt.so/2013.1/901 2013/11/27
 28 32  0  0  0  0  0  0  0  0999 V2000
   42.8163   28.9644   22.4257 C   0  0  0  0  0  0  0  0  0  0  0  0
   41.7756   27.9089   22.7431 C   0  0  0  0  0  0  0  0  0  0  0  0
   42.3783   26.7367   23.5031 C   0  0  0  0  0  0  0  0  0  0  0  0
   34.4308   24.5900   23.9492 O   0  0  0  0  0  0  0  0  0  0  0  0
   35.0518   25.0544   25.1491 C   0  0  0  0  0  0  0  0  0  0  0  0
   38.6522   23.9877   28.3447 C   0  0  0  0  0  0  0  0  0  0  0  0
   38.4912   25.2139   28.9769 C   0  0  0  0  0  0  0  0  0  0  0  0
   37.5395   26.1176   28.4976 C   0  0  0  0  0  0  0  0  0  0  0  0
   36.7488   25.7974   27.3933 C   0  0  0  0  0  0  0  0  0  0  0  0
   36.1654   24.0983   25.5955 C   0  0  1  0  0  0  0  0  0  0  0  0
   36.9078   24.5661   26.8019 C   0  0  0  0  0  0  0  0  0  0  0  0
   37.8457   23.6829   27.2738 C   0  0  0  0  0  0  0  0  0  0  0  0
   37.9660   22.4508   26.5179 C   0  0  1  0  0  0  0  0  0  0  0  0
   36.3632   20.5586   26.7225 C   0  0  0  0  0  0  0  0  0  0  0  0
   36.6397   21.8686   26.4124 C   0  0  0  0  0  0  0  0  0  0  0  0
   35.6744   22.7137   25.9346 C   0  0  0  0  0  0  0  0  0  0  0  0
   34.3795   22.2513   25.7512 C   0  0  0  0  0  0  0  0  0  0  0  0
   34.0784   20.9281   26.0813 C   0  0  0  0  0  0  0  0  0  0  0  0
   35.0701   20.0868   26.5683 C   0  0  0  0  0  0  0  0  0  0  0  0
   41.3575   25.6171   23.6600 C   0  0  0  0  0  0  0  0  0  0  0  0
   40.2807   26.0143   24.6628 C   0  0  0  0  0  0  0  0  0  0  0  0
   37.6598   26.1122   23.8893 O   0  0  0  0  0  0  0  0  0  0  0  0
   40.6121   23.3483   25.5413 O   0  0  0  0  0  0  0  0  0  0  0  0
   39.5447   23.7555   25.1136 C   0  0  0  0  0  0  0  0  0  0  0  0
   39.3072   24.9342   24.6860 N   0  0  0  0  0  0  0  0  0  0  0  0
   38.1079   25.0855   24.3300 C   0  0  0  0  0  0  0  0  0  0  0  0
   37.2735   23.8725   24.5547 C   0  0  1  0  0  0  0  0  0  0  0  0
   38.3234   22.9066   25.1099 C   0  0  2  0  0  0  0  0  0  0  0  0
  1  2  1  0  0  0  0
  2  3  1  0  0  0  0
  3 20  1  0  0  0  0
  4  5  1  0  0  0  0
  6  7  2  0  0  0  0
  6 12  1  0  0  0  0
  7  8  1  0  0  0  0
  8  9  2  0  0  0  0
  9 11  1  0  0  0  0
 10  5  1  6  0  0  0
 10 11  1  0  0  0  0
 10 16  1  0  0  0  0
 10 27  1  0  0  0  0
 11 12  2  0  0  0  0
 13 12  1  1  0  0  0
 13 15  1  0  0  0  0
 13 28  1  0  0  0  0
 14 15  2  0  0  0  0
 14 19  1  0  0  0  0
 15 16  1  0  0  0  0
 16 17  2  0  0  0  0
 17 18  1  0  0  0  0
 18 19  2  0  0  0  0
 20 21  1  0  0  0  0
 21 25  1  0  0  0  0
 22 26  2  0  0  0  0
 23 24  2  0  0  0  0
 24 25  1  0  0  0  0
 25 26  1  0  0  0  0
 27 26  1  1  0  0  0
 27 28  1  0  0  0  0
 28 24  1  1  0  0  0
M  END
>  <CHROM.1>
-173.05761519,176.70553181,-71.70896933,176.34288468,66.37164361,38.00734170
24.35987037,25.46431859,0.67143639,-0.35030989,-0.93620793

>  <Name>
ligand

>  <RI>
0

>  <Rbt.Current_Directory>
/home/itssahil/PROJECTS/Mol_Feturizer/New_Systems/rnas/1YLS

>  <Rbt.Executable>
rbdock ($Id: //depot/dev/client3/rdock/2013.1/src/exe/rbdock.cxx#4 $)

>  <Rbt.Library>
libRbt.so (2013.1, Build901 2013/11/27)

>  <Rbt.Parameter_File>
/export/apps/rDock/src/rDock_2013.1_src/data/scripts/dock_solv.prm

>  <Rbt.Receptor>
prm/pocket_docking_5.prm

>  <SCORE>
-37.725

>  <SCORE.INTER>
-34.2931

>  <SCORE.INTER.CONST>
1

>  <SCORE.INTER.POLAR>
0

>  <SCORE.INTER.ROT>
5

>  <SCORE.INTER.SOLV>
8.21571

>  <SCORE.INTER.VDW>
-32.534

>  <SCORE.INTER.norm>
-1.22475

>  <SCORE.INTRA>
-3.43187

>  <SCORE.INTRA.DIHEDRAL>
-8.82924

>  <SCORE.INTRA.DIHEDRAL.0>
12.0148

>  <SCORE.INTRA.POLAR>
0

>  <SCORE.INTRA.POLAR.0>
0

>  <SCORE.INTRA.REPUL>
0

>  <SCORE.INTRA.REPUL.0>
0

>  <SCORE.INTRA.SOLV>
0.200121

>  <SCORE.INTRA.SOLV.lig_0>
-10.5235

>  <SCORE.INTRA.VDW>
0.88269

>  <SCORE.INTRA.VDW.0>
-1.38455

>  <SCORE.INTRA.norm>
-0.122567

>  <SCORE.RESTR>
0

>  <SCORE.RESTR.CAVITY>
0

>  <SCORE.RESTR.norm>
0

>  <SCORE.SYSTEM>
0

>  <SCORE.SYSTEM.CONST>
0

>  <SCORE.SYSTEM.DIHEDRAL>
0

>  <SCORE.SYSTEM.SOLV>
0

>  <SCORE.SYSTEM.norm>
0

>  <SCORE.heavy>
28

>  <SCORE.norm>
-1.34732

>  <RMSD>
1.113

$$$$
ligand
 OpenBabel11021811413D
libRbt.so/2013.1/901 2013/11/27
 28 32  0  0  0  0  0  0  0  0999 V2000
   43.4344   28.4603   22.4392 C   0  0  0  0  0  0  0  0  0  0  0  0
   42.0383   28.1892   22.9636 C   0  0  0  0  0  0  0  0  0  0  0  0
   41.5132   26.8413   22.4920 C   0  0  0  0  0  0  0  0  0  0  0  0
   33.8846   25.2404   26.3459 O   0  0  0  0  0  0  0  0  0  0  0  0
   34.7856   25.1530   25.2406 C   0  0  0  0  0  0  0  0  0  0  0  0
   38.6738   24.1205   28.0916 C   0  0  0  0  0  0  0  0  0  0  0  0
   38.5297   25.3236   28.7706 C   0  0  0  0  0  0  0  0  0  0  0  0
   37.5138   26.2080   28.3991 C   0  0  0  0  0  0  0  0  0  0  0  0
   36.6428   25.8915   27.3559 C   0  0  0  0  0  0  0  0  0  0  0  0
   35.9616   24.2224   25.5643 C   0  0  1  0  0  0  0  0  0  0  0  0
   36.7886   24.6821   26.7176 C   0  0  0  0  0  0  0  0  0  0  0  0
   37.7895   23.8180   27.0835 C   0  0  0  0  0  0  0  0  0  0  0  0
   37.8830   22.6109   26.2846 C   0  0  1  0  0  0  0  0  0  0  0  0
   36.3615   20.6625   26.5671 C   0  0  0  0  0  0  0  0  0  0  0  0
   36.5707   21.9886   26.2734 C   0  0  0  0  0  0  0  0  0  0  0  0
   35.5433   22.8139   25.9028 C   0  0  0  0  0  0  0  0  0  0  0  0
   34.2522   22.3144   25.8148 C   0  0  0  0  0  0  0  0  0  0  0  0
   34.0205   20.9738   26.1302 C   0  0  0  0  0  0  0  0  0  0  0  0
   35.0749   20.1527   26.5079 C   0  0  0  0  0  0  0  0  0  0  0  0
   40.0488   26.6720   22.8755 C   0  0  0  0  0  0  0  0  0  0  0  0
   39.9232   26.2963   24.3472 C   0  0  0  0  0  0  0  0  0  0  0  0
   37.2445   26.3287   23.7987 O   0  0  0  0  0  0  0  0  0  0  0  0
   40.4085   23.6202   25.1167 O   0  0  0  0  0  0  0  0  0  0  0  0
   39.2969   24.0034   24.7918 C   0  0  0  0  0  0  0  0  0  0  0  0
   38.9885   25.1846   24.4202 N   0  0  0  0  0  0  0  0  0  0  0  0
   37.7593   25.3059   24.1702 C   0  0  0  0  0  0  0  0  0  0  0  0
   36.9841   24.0607   24.4284 C   0  0  1  0  0  0  0  0  0  0  0  0
   38.1061   23.1154   24.8655 C   0  0  2  0  0  0  0  0  0  0  0  0
  1  2  1  0  0  0  0
  2  3  1  0  0  0  0
  3 20  1  0  0  0  0
  4  5  1  0  0  0  0
  6  7  2  0  0  0  0
  6 12  1  0  0  0  0
  7  8  1  0  0  0  0
  8  9  2  0  0  0  0
  9 11  1  0  0  0  0
 10  5  1  6  0  0  0
 10 11  1  0  0  0  0
 10 16  1  0  0  0  0
 10 27  1  0  0  0  0
 11 12  2  0  0  0  0
 13 12  1  1  0  0  0
 13 15  1  0  0  0  0
 13 28  1  0  0  0  0
 14 15  2  0  0  0  0
 14 19  1  0  0  0  0
 15 16  1  0  0  0  0
 16 17  2  0  0  0  0
 17 18  1  0  0  0  0
 18 19  2  0  0  0  0
 20 21  1  0  0  0  0
 21 25  1  0  0  0  0
 22 26  2  0  0  0  0
 23 24  2  0  0  0  0
 24 25  1  0  0  0  0
 25 26  1  0  0  0  0
 27 26  1  1  0  0  0
 27 28  1  0  0  0  0
 28 24  1  1  0  0  0
M  END
>  <CHROM.1>
-172.53023556,-61.31992330,-78.44453818,-133.23433254,114.35619538,37.80478432
24.54598162,25.39221105,-0.63114792,-0.44232167,3.06559539

>  <Name>
ligand

>  <RI>
0

>  <Rbt.Current_Directory>
/home/itssahil/PROJECTS/Mol_Feturizer/New_Systems/rnas/1YLS

>  <Rbt.Executable>
rbdock ($Id: //depot/dev/client3/rdock/2013.1/src/exe/rbdock.cxx#4 $)

>  <Rbt.Library>
libRbt.so (2013.1, Build901 2013/11/27)

>  <Rbt.Parameter_File>
/export/apps/rDock/src/rDock_2013.1_src/data/scripts/dock_solv.prm

>  <Rbt.Receptor>
prm/pocket_docking_4.prm

>  <SCORE>
-35.8739

>  <SCORE.INTER>
-35.0049

>  <SCORE.INTER.CONST>
1

>  <SCORE.INTER.POLAR>
0

>  <SCORE.INTER.ROT>
5

>  <SCORE.INTER.SOLV>
9.14032

>  <SCORE.INTER.VDW>
-33.3167

>  <SCORE.INTER.norm>
-1.25018

>  <SCORE.INTRA>
-0.86895

>  <SCORE.INTRA.DIHEDRAL>
-3.24745

>  <SCORE.INTRA.DIHEDRAL.0>
12.0148

>  <SCORE.INTRA.POLAR>
0

>  <SCORE.INTRA.POLAR.0>
0

>  <SCORE.INTRA.REPUL>
0

>  <SCORE.INTRA.REPUL.0>
0

>  <SCORE.INTRA.SOLV>
0.0157916

>  <SCORE.INTRA.SOLV.lig_0>
-10.5235

>  <SCORE.INTRA.VDW>
0.74688

>  <SCORE.INTRA.VDW.0>
-1.38455

>  <SCORE.INTRA.norm>
-0.0310339

>  <SCORE.RESTR>
0

>  <SCORE.RESTR.CAVITY>
0

>  <SCORE.RESTR.norm>
0

>  <SCORE.SYSTEM>
0

>  <SCORE.SYSTEM.CONST>
0

>  <SCORE.SYSTEM.DIHEDRAL>
0

>  <SCORE.SYSTEM.SOLV>
0

>  <SCORE.SYSTEM.norm>
0

>  <SCORE.heavy>
28

>  <SCORE.norm>
-1.28121

>  <RMSD>
1.114

$$$$
ligand
 OpenBabel11021811413D
libRbt.so/2013.1/901 2013/11/27
 28 32  0  0  0  0  0  0  0  0999 V2000
   43.6808   28.5285   22.2978 C   0  0  0  0  0  0  0  0  0  0  0  0
   42.5880   27.4783   22.2737 C   0  0  0  0  0  0  0  0  0  0  0  0
   41.5511   27.7217   23.3602 C   0  0  0  0  0  0  0  0  0  0  0  0
   33.8563   24.8556   24.5338 O   0  0  0  0  0  0  0  0  0  0  0  0
   34.6241   25.2221   25.6815 C   0  0  0  0  0  0  0  0  0  0  0  0
   38.7280   24.0733   28.1614 C   0  0  0  0  0  0  0  0  0  0  0  0
   38.5763   25.1845   28.9809 C   0  0  0  0  0  0  0  0  0  0  0  0
   37.5016   26.0530   28.7736 C   0  0  0  0  0  0  0  0  0  0  0  0
   36.5798   25.8117   27.7542 C   0  0  0  0  0  0  0  0  0  0  0  0
   35.8572   24.3210   25.8267 C   0  0  1  0  0  0  0  0  0  0  0  0
   36.7361   24.6899   26.9742 C   0  0  0  0  0  0  0  0  0  0  0  0
   37.7945   23.8413   27.1792 C   0  0  0  0  0  0  0  0  0  0  0  0
   37.8883   22.7371   26.2433 C   0  0  1  0  0  0  0  0  0  0  0  0
   36.4730   20.6958   26.3902 C   0  0  0  0  0  0  0  0  0  0  0  0
   36.6059   22.0552   26.2384 C   0  0  0  0  0  0  0  0  0  0  0  0
   35.5223   22.8644   26.0258 C   0  0  0  0  0  0  0  0  0  0  0  0
   34.2509   22.3140   25.9575 C   0  0  0  0  0  0  0  0  0  0  0  0
   34.0976   20.9368   26.1306 C   0  0  0  0  0  0  0  0  0  0  0  0
   35.2084   20.1323   26.3491 C   0  0  0  0  0  0  0  0  0  0  0  0
   40.5363   26.5864   23.3973 C   0  0  0  0  0  0  0  0  0  0  0  0
   39.6399   26.7127   24.6235 C   0  0  0  0  0  0  0  0  0  0  0  0
   36.9326   26.6725   24.2411 O   0  0  0  0  0  0  0  0  0  0  0  0
   40.2879   23.9951   25.0518 O   0  0  0  0  0  0  0  0  0  0  0  0
   39.1424   24.3562   24.8389 C   0  0  0  0  0  0  0  0  0  0  0  0
   38.7603   25.5546   24.6237 N   0  0  0  0  0  0  0  0  0  0  0  0
   37.5135   25.6416   24.4621 C   0  0  0  0  0  0  0  0  0  0  0  0
   36.8107   24.3382   24.6215 C   0  0  1  0  0  0  0  0  0  0  0  0
   37.9979   23.4072   24.8806 C   0  0  2  0  0  0  0  0  0  0  0  0
  1  2  1  0  0  0  0
  2  3  1  0  0  0  0
  3 20  1  0  0  0  0
  4  5  1  0  0  0  0
  6  7  2  0  0  0  0
  6 12  1  0  0  0  0
  7  8  1  0  0  0  0
  8  9  2  0  0  0  0
  9 11  1  0  0  0  0
 10  5  1  6  0  0  0
 10 11  1  0  0  0  0
 10 16  1  0  0  0  0
 10 27  1  0  0  0  0
 11 12  2  0  0  0  0
 13 12  1  1  0  0  0
 13 15  1  0  0  0  0
 13 28  1  0  0  0  0
 14 15  2  0  0  0  0
 14 19  1  0  0  0  0
 15 16  1  0  0  0  0
 16 17  2  0  0  0  0
 17 18  1  0  0  0  0
 18 19  2  0  0  0  0
 20 21  1  0  0  0  0
 21 25  1  0  0  0  0
 22 26  2  0  0  0  0
 23 24  2  0  0  0  0
 24 25  1  0  0  0  0
 25 26  1  0  0  0  0
 27 26  1  1  0  0  0
 27 28  1  0  0  0  0
 28 24  1  1  0  0  0
M  END
>  <CHROM.1>
-174.84263342,177.45451253,170.74427952,-176.69810856,69.00037411,37.79408712
24.64007229,25.45408633,0.68788360,-0.27695066,-0.89190218

>  <Name>
ligand

>  <RI>
0

>  <Rbt.Current_Directory>
/home/itssahil/PROJECTS/Mol_Feturizer/New_Systems/rnas/1YLS

>  <Rbt.Executable>
rbdock ($Id: //depot/dev/client3/rdock/2013.1/src/exe/rbdock.cxx#4 $)

>  <Rbt.Library>
libRbt.so (2013.1, Build901 2013/11/27)

>  <Rbt.Parameter_File>
/export/apps/rDock/src/rDock_2013.1_src/data/scripts/dock_solv.prm

>  <Rbt.Receptor>
prm/pocket_docking_5.prm

>  <SCORE>
-38.7056

>  <SCORE.INTER>
-34.4525

>  <SCORE.INTER.CONST>
1

>  <SCORE.INTER.POLAR>
0

>  <SCORE.INTER.ROT>
5

>  <SCORE.INTER.SOLV>
8.02931

>  <SCORE.INTER.VDW>
-32.5781

>  <SCORE.INTER.norm>
-1.23045

>  <SCORE.INTRA>
-4.25309

>  <SCORE.INTRA.DIHEDRAL>
-9.16906

>  <SCORE.INTRA.DIHEDRAL.0>
12.0148

>  <SCORE.INTRA.POLAR>
0

>  <SCORE.INTRA.POLAR.0>
0

>  <SCORE.INTRA.REPUL>
0

>  <SCORE.INTRA.REPUL.0>
0

>  <SCORE.INTRA.SOLV>
0.180881

>  <SCORE.INTRA.SOLV.lig_0>
-10.5235

>  <SCORE.INTRA.VDW>
0.241006

>  <SCORE.INTRA.VDW.0>
-1.38455

>  <SCORE.INTRA.norm>
-0.151896

>  <SCORE.RESTR>
0

>  <SCORE.RESTR.CAVITY>
0

>  <SCORE.RESTR.norm>
0

>  <SCORE.SYSTEM>
0

>  <SCORE.SYSTEM.CONST>
0

>  <SCORE.SYSTEM.DIHEDRAL>
0

>  <SCORE.SYSTEM.SOLV>
0

>  <SCORE.SYSTEM.norm>
0

>  <SCORE.heavy>
28

>  <SCORE.norm>
-1.38234

>  <RMSD>
1.114

$$$$
ligand
 OpenBabel11021811413D
libRbt.so/2013.1/901 2013/11/27
 28 32  0  0  0  0  0  0  0  0999 V2000
   43.3534   26.2961   22.4358 C   0  0  0  0  0  0  0  0  0  0  0  0
   42.6862   27.1509   23.4950 C   0  0  0  0  0  0  0  0  0  0  0  0
   41.3393   27.6790   23.0241 C   0  0  0  0  0  0  0  0  0  0  0  0
   33.9775   24.8088   24.3897 O   0  0  0  0  0  0  0  0  0  0  0  0
   34.7267   25.1832   25.5471 C   0  0  0  0  0  0  0  0  0  0  0  0
   38.7120   23.9601   28.1804 C   0  0  0  0  0  0  0  0  0  0  0  0
   38.5876   25.1081   28.9523 C   0  0  0  0  0  0  0  0  0  0  0  0
   37.5572   26.0125   28.6827 C   0  0  0  0  0  0  0  0  0  0  0  0
   36.6523   25.7705   27.6484 C   0  0  0  0  0  0  0  0  0  0  0  0
   35.9155   24.2371   25.7602 C   0  0  1  0  0  0  0  0  0  0  0  0
   36.7798   24.6133   26.9164 C   0  0  0  0  0  0  0  0  0  0  0  0
   37.7948   23.7294   27.1826 C   0  0  0  0  0  0  0  0  0  0  0  0
   37.8646   22.5862   26.2924 C   0  0  1  0  0  0  0  0  0  0  0  0
   36.3589   20.6141   26.4785 C   0  0  0  0  0  0  0  0  0  0  0  0
   36.5544   21.9595   26.2785 C   0  0  0  0  0  0  0  0  0  0  0  0
   35.5127   22.8050   26.0057 C   0  0  0  0  0  0  0  0  0  0  0  0
   34.2208   22.3066   25.9237 C   0  0  0  0  0  0  0  0  0  0  0  0
   34.0036   20.9449   26.1450 C   0  0  0  0  0  0  0  0  0  0  0  0
   35.0724   20.1034   26.4243 C   0  0  0  0  0  0  0  0  0  0  0  0
   40.2736   26.5953   23.1238 C   0  0  0  0  0  0  0  0  0  0  0  0
   39.8279   26.4174   24.5704 C   0  0  0  0  0  0  0  0  0  0  0  0
   37.1322   26.4768   24.1160 O   0  0  0  0  0  0  0  0  0  0  0  0
   40.3464   23.6937   25.1198 O   0  0  0  0  0  0  0  0  0  0  0  0
   39.2234   24.0943   24.8621 C   0  0  0  0  0  0  0  0  0  0  0  0
   38.8993   25.2984   24.5909 N   0  0  0  0  0  0  0  0  0  0  0  0
   37.6620   25.4317   24.3921 C   0  0  0  0  0  0  0  0  0  0  0  0
   36.8995   24.1665   24.5818 C   0  0  1  0  0  0  0  0  0  0  0  0
   38.0382   23.1970   24.9087 C   0  0  2  0  0  0  0  0  0  0  0  0
  1  2  1  0  0  0  0
  2  3  1  0  0  0  0
  3 20  1  0  0  0  0
  4  5  1  0  0  0  0
  6  7  2  0  0  0  0
  6 12  1  0  0  0  0
  7  8  1  0  0  0  0
  8  9  2  0  0  0  0
  9 11  1  0  0  0  0
 10  5  1  6  0  0  0
 10 11  1  0  0  0  0
 10 16  1  0  0  0  0
 10 27  1  0  0  0  0
 11 12  2  0  0  0  0
 13 12  1  1  0  0  0
 13 15  1  0  0  0  0
 13 28  1  0  0  0  0
 14 15  2  0  0  0  0
 14 19  1  0  0  0  0
 15 16  1  0  0  0  0
 16 17  2  0  0  0  0
 17 18  1  0  0  0  0
 18 19  2  0  0  0  0
 20 21  1  0  0  0  0
 21 25  1  0  0  0  0
 22 26  2  0  0  0  0
 23 24  2  0  0  0  0
 24 25  1  0  0  0  0
 25 26  1  0  0  0  0
 27 26  1  1  0  0  0
 27 28  1  0  0  0  0
 28 24  1  1  0  0  0
M  END
>  <CHROM.1>
78.22389610,177.15252107,76.90665793,-175.41475204,95.33262648,37.80364487
24.42737506,25.46039199,-0.66876358,0.14381705,2.36906394

>  <Name>
ligand

>  <RI>
0

>  <Rbt.Current_Directory>
/home/itssahil/PROJECTS/Mol_Feturizer/New_Systems/rnas/1YLS

>  <Rbt.Executable>
rbdock ($Id: //depot/dev/client3/rdock/2013.1/src/exe/rbdock.cxx#4 $)

>  <Rbt.Library>
libRbt.so (2013.1, Build901 2013/11/27)

>  <Rbt.Parameter_File>
/export/apps/rDock/src/rDock_2013.1_src/data/scripts/dock_solv.prm

>  <Rbt.Receptor>
prm/pocket_docking_4.prm

>  <SCORE>
-37.1569

>  <SCORE.INTER>
-34.5305

>  <SCORE.INTER.CONST>
1

>  <SCORE.INTER.POLAR>
0

>  <SCORE.INTER.ROT>
5

>  <SCORE.INTER.SOLV>
7.80158

>  <SCORE.INTER.VDW>
-32.5542

>  <SCORE.INTER.norm>
-1.23323

>  <SCORE.INTRA>
-2.62635

>  <SCORE.INTRA.DIHEDRAL>
-7.28968

>  <SCORE.INTRA.DIHEDRAL.0>
12.0148

>  <SCORE.INTRA.POLAR>
0

>  <SCORE.INTRA.POLAR.0>
0

>  <SCORE.INTRA.REPUL>
0

>  <SCORE.INTRA.REPUL.0>
0

>  <SCORE.INTRA.SOLV>
0.168119

>  <SCORE.INTRA.SOLV.lig_0>
-10.5235

>  <SCORE.INTRA.VDW>
0.934433

>  <SCORE.INTRA.VDW.0>
-1.38455

>  <SCORE.INTRA.norm>
-0.0937981

>  <SCORE.RESTR>
0

>  <SCORE.RESTR.CAVITY>
0

>  <SCORE.RESTR.norm>
0

>  <SCORE.SYSTEM>
0

>  <SCORE.SYSTEM.CONST>
0

>  <SCORE.SYSTEM.DIHEDRAL>
0

>  <SCORE.SYSTEM.SOLV>
0

>  <SCORE.SYSTEM.norm>
0

>  <SCORE.heavy>
28

>  <SCORE.norm>
-1.32703

>  <RMSD>
1.116

$$$$
ligand
 OpenBabel11021811413D
libRbt.so/2013.1/901 2013/11/27
 28 32  0  0  0  0  0  0  0  0999 V2000
   43.1396   26.4181   24.2238 C   0  0  0  0  0  0  0  0  0  0  0  0
   42.7143   26.8803   22.8442 C   0  0  0  0  0  0  0  0  0  0  0  0
   41.3732   27.5978   22.8809 C   0  0  0  0  0  0  0  0  0  0  0  0
   33.8436   25.2675   26.3715 O   0  0  0  0  0  0  0  0  0  0  0  0
   34.7605   25.2021   25.2778 C   0  0  0  0  0  0  0  0  0  0  0  0
   38.6052   24.0839   28.1553 C   0  0  0  0  0  0  0  0  0  0  0  0
   38.4591   25.2727   28.8587 C   0  0  0  0  0  0  0  0  0  0  0  0
   37.4531   26.1711   28.4937 C   0  0  0  0  0  0  0  0  0  0  0  0
   36.5940   25.8828   27.4326 C   0  0  0  0  0  0  0  0  0  0  0  0
   35.9268   24.2575   25.5960 C   0  0  1  0  0  0  0  0  0  0  0  0
   36.7413   24.6869   26.7697 C   0  0  0  0  0  0  0  0  0  0  0  0
   37.7324   23.8089   27.1294 C   0  0  0  0  0  0  0  0  0  0  0  0
   37.8294   22.6192   26.3053 C   0  0  1  0  0  0  0  0  0  0  0  0
   36.2933   20.6741   26.5251 C   0  0  0  0  0  0  0  0  0  0  0  0
   36.5140   22.0051   26.2634 C   0  0  0  0  0  0  0  0  0  0  0  0
   35.4961   22.8445   25.8979 C   0  0  0  0  0  0  0  0  0  0  0  0
   34.2035   22.3547   25.7822 C   0  0  0  0  0  0  0  0  0  0  0  0
   33.9601   21.0089   26.0650 C   0  0  0  0  0  0  0  0  0  0  0  0
   35.0048   20.1735   26.4380 C   0  0  0  0  0  0  0  0  0  0  0  0
   40.2324   26.5967   23.0087 C   0  0  0  0  0  0  0  0  0  0  0  0
   39.9157   26.3340   24.4762 C   0  0  0  0  0  0  0  0  0  0  0  0
   37.2446   26.3945   23.8940 O   0  0  0  0  0  0  0  0  0  0  0  0
   40.3757   23.6388   25.1928 O   0  0  0  0  0  0  0  0  0  0  0  0
   39.2707   24.0357   24.8620 C   0  0  0  0  0  0  0  0  0  0  0  0
   38.9738   25.2266   24.5126 N   0  0  0  0  0  0  0  0  0  0  0  0
   37.7487   25.3607   24.2494 C   0  0  0  0  0  0  0  0  0  0  0  0
   36.9632   24.1148   24.4701 C   0  0  1  0  0  0  0  0  0  0  0  0
   38.0739   23.1534   24.9007 C   0  0  2  0  0  0  0  0  0  0  0  0
  1  2  1  0  0  0  0
  2  3  1  0  0  0  0
  3 20  1  0  0  0  0
  4  5  1  0  0  0  0
  6  7  2  0  0  0  0
  6 12  1  0  0  0  0
  7  8  1  0  0  0  0
  8  9  2  0  0  0  0
  9 11  1  0  0  0  0
 10  5  1  6  0  0  0
 10 11  1  0  0  0  0
 10 16  1  0  0  0  0
 10 27  1  0  0  0  0
 11 12  2  0  0  0  0
 13 12  1  1  0  0  0
 13 15  1  0  0  0  0
 13 28  1  0  0  0  0
 14 15  2  0  0  0  0
 14 19  1  0  0  0  0
 15 16  1  0  0  0  0
 16 17  2  0  0  0  0
 17 18  1  0  0  0  0
 18 19  2  0  0  0  0
 20 21  1  0  0  0  0
 21 25  1  0  0  0  0
 22 26  2  0  0  0  0
 23 24  2  0  0  0  0
 24 25  1  0  0  0  0
 25 26  1  0  0  0  0
 27 26  1  1  0  0  0
 27 28  1  0  0  0  0
 28 24  1  1  0  0  0
M  END
>  <CHROM.1>
-76.93252776,-61.49034703,90.12513539,-171.30650929,105.58551911,37.78598321
24.45607937,25.51520124,-0.60004477,-0.28845836,2.93857492

>  <Name>
ligand

>  <RI>
0

>  <Rbt.Current_Directory>
/home/itssahil/PROJECTS/Mol_Feturizer/New_Systems/rnas/1YLS

>  <Rbt.Executable>
rbdock ($Id: //depot/dev/client3/rdock/2013.1/src/exe/rbdock.cxx#4 $)

>  <Rbt.Library>
libRbt.so (2013.1, Build901 2013/11/27)

>  <Rbt.Parameter_File>
/export/apps/rDock/src/rDock_2013.1_src/data/scripts/dock_solv.prm

>  <Rbt.Receptor>
prm/pocket_docking_4.prm

>  <SCORE>
-34.9441

>  <SCORE.INTER>
-33.4608

>  <SCORE.INTER.CONST>
1

>  <SCORE.INTER.POLAR>
0

>  <SCORE.INTER.ROT>
5

>  <SCORE.INTER.SOLV>
8.20246

>  <SCORE.INTER.VDW>
-31.9747

>  <SCORE.INTER.norm>
-1.19503

>  <SCORE.INTRA>
-1.48332

>  <SCORE.INTRA.DIHEDRAL>
-5.26436

>  <SCORE.INTRA.DIHEDRAL.0>
12.0148

>  <SCORE.INTRA.POLAR>
0

>  <SCORE.INTRA.POLAR.0>
0

>  <SCORE.INTRA.REPUL>
0

>  <SCORE.INTRA.REPUL.0>
0

>  <SCORE.INTRA.SOLV>
0.049328

>  <SCORE.INTRA.SOLV.lig_0>
-10.5235

>  <SCORE.INTRA.VDW>
1.1242

>  <SCORE.INTRA.VDW.0>
-1.38455

>  <SCORE.INTRA.norm>
-0.0529756

>  <SCORE.RESTR>
0

>  <SCORE.RESTR.CAVITY>
0

>  <SCORE.RESTR.norm>
0

>  <SCORE.SYSTEM>
0

>  <SCORE.SYSTEM.CONST>
0

>  <SCORE.SYSTEM.DIHEDRAL>
0

>  <SCORE.SYSTEM.SOLV>
0

>  <SCORE.SYSTEM.norm>
0

>  <SCORE.heavy>
28

>  <SCORE.norm>
-1.248

>  <RMSD>
1.118

$$$$
ligand
 OpenBabel11021811413D
libRbt.so/2013.1/901 2013/11/27
 28 32  0  0  0  0  0  0  0  0999 V2000
   42.9705   28.5994   22.3511 C   0  0  0  0  0  0  0  0  0  0  0  0
   41.9096   27.5800   22.7162 C   0  0  0  0  0  0  0  0  0  0  0  0
   42.4525   26.5180   23.6607 C   0  0  0  0  0  0  0  0  0  0  0  0
   34.3485   24.5055   23.9910 O   0  0  0  0  0  0  0  0  0  0  0  0
   35.0047   24.9927   25.1628 C   0  0  0  0  0  0  0  0  0  0  0  0
   38.6044   23.9138   28.3551 C   0  0  0  0  0  0  0  0  0  0  0  0
   38.4524   25.1431   28.9835 C   0  0  0  0  0  0  0  0  0  0  0  0
   37.5055   26.0512   28.5030 C   0  0  0  0  0  0  0  0  0  0  0  0
   36.7107   25.7324   27.4013 C   0  0  0  0  0  0  0  0  0  0  0  0
   36.1131   24.0310   25.6102 C   0  0  1  0  0  0  0  0  0  0  0  0
   36.8607   24.4981   26.8137 C   0  0  0  0  0  0  0  0  0  0  0  0
   37.7939   23.6106   27.2868 C   0  0  0  0  0  0  0  0  0  0  0  0
   37.9051   22.3752   26.5348 C   0  0  1  0  0  0  0  0  0  0  0  0
   36.2907   20.4939   26.7487 C   0  0  0  0  0  0  0  0  0  0  0  0
   36.5748   21.8011   26.4338 C   0  0  0  0  0  0  0  0  0  0  0  0
   35.6140   22.6507   25.9549 C   0  0  0  0  0  0  0  0  0  0  0  0
   34.3159   22.1959   25.7755 C   0  0  0  0  0  0  0  0  0  0  0  0
   34.0071   20.8758   26.1106 C   0  0  0  0  0  0  0  0  0  0  0  0
   34.9943   20.0297   26.5986 C   0  0  0  0  0  0  0  0  0  0  0  0
   41.4307   25.4067   23.8629 C   0  0  0  0  0  0  0  0  0  0  0  0
   40.2387   25.9178   24.6635 C   0  0  0  0  0  0  0  0  0  0  0  0
   37.6170   26.0298   23.8946 O   0  0  0  0  0  0  0  0  0  0  0  0
   40.5548   23.2527   25.5502 O   0  0  0  0  0  0  0  0  0  0  0  0
   39.4893   23.6652   25.1231 C   0  0  0  0  0  0  0  0  0  0  0  0
   39.2584   24.8440   24.6921 N   0  0  0  0  0  0  0  0  0  0  0  0
   38.0594   25.0017   24.3378 C   0  0  0  0  0  0  0  0  0  0  0  0
   37.2178   23.7948   24.5682 C   0  0  1  0  0  0  0  0  0  0  0  0
   38.2626   22.8241   25.1246 C   0  0  2  0  0  0  0  0  0  0  0  0
  1  2  1  0  0  0  0
  2  3  1  0  0  0  0
  3 20  1  0  0  0  0
  4  5  1  0  0  0  0
  6  7  2  0  0  0  0
  6 12  1  0  0  0  0
  7  8  1  0  0  0  0
  8  9  2  0  0  0  0
  9 11  1  0  0  0  0
 10  5  1  6  0  0  0
 10 11  1  0  0  0  0
 10 16  1  0  0  0  0
 10 27  1  0  0  0  0
 11 12  2  0  0  0  0
 13 12  1  1  0  0  0
 13 15  1  0  0  0  0
 13 28  1  0  0  0  0
 14 15  2  0  0  0  0
 14 19  1  0  0  0  0
 15 16  1  0  0  0  0
 16 17  2  0  0  0  0
 17 18  1  0  0  0  0
 18 19  2  0  0  0  0
 20 21  1  0  0  0  0
 21 25  1  0  0  0  0
 22 26  2  0  0  0  0
 23 24  2  0  0  0  0
 24 25  1  0  0  0  0
 25 26  1  0  0  0  0
 27 26  1  1  0  0  0
 27 28  1  0  0  0  0
 28 24  1  1  0  0  0
M  END
>  <CHROM.1>
-172.35637397,178.65503695,-69.27674704,174.29667128,56.24531145,37.97793964
24.25316643,25.48668690,0.64534198,-0.32778506,-0.94859424

>  <Name>
ligand

>  <RI>
0

>  <Rbt.Current_Directory>
/home/itssahil/PROJECTS/Mol_Feturizer/New_Systems/rnas/1YLS

>  <Rbt.Executable>
rbdock ($Id: //depot/dev/client3/rdock/2013.1/src/exe/rbdock.cxx#4 $)

>  <Rbt.Library>
libRbt.so (2013.1, Build901 2013/11/27)

>  <Rbt.Parameter_File>
/export/apps/rDock/src/rDock_2013.1_src/data/scripts/dock_solv.prm

>  <Rbt.Receptor>
prm/pocket_docking_3.prm

>  <SCORE>
-36.9885

>  <SCORE.INTER>
-34.2114

>  <SCORE.INTER.CONST>
1

>  <SCORE.INTER.POLAR>
0

>  <SCORE.INTER.ROT>
5

>  <SCORE.INTER.SOLV>
8.02696

>  <SCORE.INTER.VDW>
-32.4166

>  <SCORE.INTER.norm>
-1.22183

>  <SCORE.INTRA>
-2.77713

>  <SCORE.INTRA.DIHEDRAL>
-8.84295

>  <SCORE.INTRA.DIHEDRAL.0>
12.0148

>  <SCORE.INTRA.POLAR>
0

>  <SCORE.INTRA.POLAR.0>
0

>  <SCORE.INTRA.REPUL>
0

>  <SCORE.INTRA.REPUL.0>
0

>  <SCORE.INTRA.SOLV>
0.207519

>  <SCORE.INTRA.SOLV.lig_0>
-10.5235

>  <SCORE.INTRA.VDW>
1.54059

>  <SCORE.INTRA.VDW.0>
-1.38455

>  <SCORE.INTRA.norm>
-0.0991831

>  <SCORE.RESTR>
0

>  <SCORE.RESTR.CAVITY>
0

>  <SCORE.RESTR.norm>
0

>  <SCORE.SYSTEM>
0

>  <SCORE.SYSTEM.CONST>
0

>  <SCORE.SYSTEM.DIHEDRAL>
0

>  <SCORE.SYSTEM.SOLV>
0

>  <SCORE.SYSTEM.norm>
0

>  <SCORE.heavy>
28

>  <SCORE.norm>
-1.32102

>  <RMSD>
1.119

$$$$
ligand
 OpenBabel11021811413D
libRbt.so/2013.1/901 2013/11/27
 28 32  0  0  0  0  0  0  0  0999 V2000
   42.8086   28.9232   22.4164 C   0  0  0  0  0  0  0  0  0  0  0  0
   41.7882   27.8393   22.7023 C   0  0  0  0  0  0  0  0  0  0  0  0
   42.3899   26.7013   23.5134 C   0  0  0  0  0  0  0  0  0  0  0  0
   34.4467   24.4933   23.8619 O   0  0  0  0  0  0  0  0  0  0  0  0
   35.0546   25.0077   25.0481 C   0  0  0  0  0  0  0  0  0  0  0  0
   38.5762   24.0453   28.3623 C   0  0  0  0  0  0  0  0  0  0  0  0
   38.3937   25.2873   28.9569 C   0  0  0  0  0  0  0  0  0  0  0  0
   37.4506   26.1729   28.4293 C   0  0  0  0  0  0  0  0  0  0  0  0
   36.6900   25.8192   27.3142 C   0  0  0  0  0  0  0  0  0  0  0  0
   36.1605   24.0695   25.5484 C   0  0  1  0  0  0  0  0  0  0  0  0
   36.8695   24.5733   26.7604 C   0  0  0  0  0  0  0  0  0  0  0  0
   37.7989   23.7079   27.2798 C   0  0  0  0  0  0  0  0  0  0  0  0
   37.9441   22.4565   26.5607 C   0  0  1  0  0  0  0  0  0  0  0  0
   36.3449   20.5624   26.7750 C   0  0  0  0  0  0  0  0  0  0  0  0
   36.6234   21.8650   26.4370 C   0  0  0  0  0  0  0  0  0  0  0  0
   35.6670   22.6920   25.9120 C   0  0  0  0  0  0  0  0  0  0  0  0
   34.3794   22.2183   25.7080 C   0  0  0  0  0  0  0  0  0  0  0  0
   34.0757   20.9030   26.0659 C   0  0  0  0  0  0  0  0  0  0  0  0
   35.0582   20.0800   26.6007 C   0  0  0  0  0  0  0  0  0  0  0  0
   41.3807   25.5737   23.6864 C   0  0  0  0  0  0  0  0  0  0  0  0
   40.2900   25.9807   24.6701 C   0  0  0  0  0  0  0  0  0  0  0  0
   37.6894   26.0445   23.8274 O   0  0  0  0  0  0  0  0  0  0  0  0
   40.6104   23.3410   25.6282 O   0  0  0  0  0  0  0  0  0  0  0  0
   39.5526   23.7311   25.1625 C   0  0  0  0  0  0  0  0  0  0  0  0
   39.3210   24.8967   24.6975 N   0  0  0  0  0  0  0  0  0  0  0  0
   38.1306   25.0323   24.3069 C   0  0  0  0  0  0  0  0  0  0  0  0
   37.2960   23.8216   24.5428 C   0  0  1  0  0  0  0  0  0  0  0  0
   38.3355   22.8763   25.1505 C   0  0  2  0  0  0  0  0  0  0  0  0
  1  2  1  0  0  0  0
  2  3  1  0  0  0  0
  3 20  1  0  0  0  0
  4  5  1  0  0  0  0
  6  7  2  0  0  0  0
  6 12  1  0  0  0  0
  7  8  1  0  0  0  0
  8  9  2  0  0  0  0
  9 11  1  0  0  0  0
 10  5  1  6  0  0  0
 10 11  1  0  0  0  0
 10 16  1  0  0  0  0
 10 27  1  0  0  0  0
 11 12  2  0  0  0  0
 13 12  1  1  0  0  0
 13 15  1  0  0  0  0
 13 28  1  0  0  0  0
 14 15  2  0  0  0  0
 14 19  1  0  0  0  0
 15 16  1  0  0  0  0
 16 17  2  0  0  0  0
 17 18  1  0  0  0  0
 18 19  2  0  0  0  0
 20 21  1  0  0  0  0
 21 25  1  0  0  0  0
 22 26  2  0  0  0  0
 23 24  2  0  0  0  0
 24 25  1  0  0  0  0
 25 26  1  0  0  0  0
 27 26  1  1  0  0  0
 27 28  1  0  0  0  0
 28 24  1  1  0  0  0
M  END
>  <CHROM.1>
-175.22115560,177.98036669,-72.62173290,175.70626980,67.40912795,37.99785501
24.33936106,25.45460743,0.65675677,-0.37100400,-0.96919971

>  <Name>
ligand

>  <RI>
0

>  <Rbt.Current_Directory>
/home/itssahil/PROJECTS/Mol_Feturizer/New_Systems/rnas/1YLS

>  <Rbt.Executable>
rbdock ($Id: //depot/dev/client3/rdock/2013.1/src/exe/rbdock.cxx#4 $)

>  <Rbt.Library>
libRbt.so (2013.1, Build901 2013/11/27)

>  <Rbt.Parameter_File>
/export/apps/rDock/src/rDock_2013.1_src/data/scripts/dock_solv.prm

>  <Rbt.Receptor>
prm/pocket_docking_6.prm

>  <SCORE>
-37.6785

>  <SCORE.INTER>
-34.1838

>  <SCORE.INTER.CONST>
1

>  <SCORE.INTER.POLAR>
0

>  <SCORE.INTER.ROT>
5

>  <SCORE.INTER.SOLV>
8.22267

>  <SCORE.INTER.VDW>
-32.4634

>  <SCORE.INTER.norm>
-1.22085

>  <SCORE.INTRA>
-3.4947

>  <SCORE.INTRA.DIHEDRAL>
-8.85573

>  <SCORE.INTRA.DIHEDRAL.0>
12.0148

>  <SCORE.INTRA.POLAR>
0

>  <SCORE.INTRA.POLAR.0>
0

>  <SCORE.INTRA.REPUL>
0

>  <SCORE.INTRA.REPUL.0>
0

>  <SCORE.INTRA.SOLV>
0.189761

>  <SCORE.INTRA.SOLV.lig_0>
-10.5235

>  <SCORE.INTRA.VDW>
0.83829

>  <SCORE.INTRA.VDW.0>
-1.38455

>  <SCORE.INTRA.norm>
-0.124811

>  <SCORE.RESTR>
0

>  <SCORE.RESTR.CAVITY>
0

>  <SCORE.RESTR.norm>
0

>  <SCORE.SYSTEM>
0

>  <SCORE.SYSTEM.CONST>
0

>  <SCORE.SYSTEM.DIHEDRAL>
0

>  <SCORE.SYSTEM.SOLV>
0

>  <SCORE.SYSTEM.norm>
0

>  <SCORE.heavy>
28

>  <SCORE.norm>
-1.34566

>  <RMSD>
1.121

$$$$
ligand
 OpenBabel11021811413D
libRbt.so/2013.1/901 2013/11/27
 28 32  0  0  0  0  0  0  0  0999 V2000
   43.3225   26.3030   22.4387 C   0  0  0  0  0  0  0  0  0  0  0  0
   42.6669   27.1860   23.4819 C   0  0  0  0  0  0  0  0  0  0  0  0
   41.3134   27.6989   23.0132 C   0  0  0  0  0  0  0  0  0  0  0  0
   33.9728   24.8086   24.3997 O   0  0  0  0  0  0  0  0  0  0  0  0
   34.7211   25.1803   25.5586 C   0  0  0  0  0  0  0  0  0  0  0  0
   38.7184   23.9663   28.1778 C   0  0  0  0  0  0  0  0  0  0  0  0
   38.5937   25.1137   28.9506 C   0  0  0  0  0  0  0  0  0  0  0  0
   37.5603   26.0156   28.6847 C   0  0  0  0  0  0  0  0  0  0  0  0
   36.6524   25.7718   27.6535 C   0  0  0  0  0  0  0  0  0  0  0  0
   35.9129   24.2371   25.7673 C   0  0  1  0  0  0  0  0  0  0  0  0
   36.7802   24.6151   26.9207 C   0  0  0  0  0  0  0  0  0  0  0  0
   37.7984   23.7337   27.1831 C   0  0  0  0  0  0  0  0  0  0  0  0
   37.8679   22.5909   26.2923 C   0  0  1  0  0  0  0  0  0  0  0  0
   36.3677   20.6150   26.4829 C   0  0  0  0  0  0  0  0  0  0  0  0
   36.5593   21.9610   26.2827 C   0  0  0  0  0  0  0  0  0  0  0  0
   35.5146   22.8040   26.0137 C   0  0  0  0  0  0  0  0  0  0  0  0
   34.2236   22.3024   25.9360 C   0  0  0  0  0  0  0  0  0  0  0  0
   34.0105   20.9401   26.1576 C   0  0  0  0  0  0  0  0  0  0  0  0
   35.0824   20.1012   26.4329 C   0  0  0  0  0  0  0  0  0  0  0  0
   40.2593   26.6043   23.1175 C   0  0  0  0  0  0  0  0  0  0  0  0
   39.8158   26.4275   24.5649 C   0  0  0  0  0  0  0  0  0  0  0  0
   37.1184   26.4804   24.1197 O   0  0  0  0  0  0  0  0  0  0  0  0
   40.3429   23.7050   25.1116 O   0  0  0  0  0  0  0  0  0  0  0  0
   39.2180   24.1029   24.8578 C   0  0  0  0  0  0  0  0  0  0  0  0
   38.8900   25.3063   24.5881 N   0  0  0  0  0  0  0  0  0  0  0  0
   37.6518   25.4365   24.3936 C   0  0  0  0  0  0  0  0  0  0  0  0
   36.8930   24.1694   24.5855 C   0  0  1  0  0  0  0  0  0  0  0  0
   38.0352   23.2026   24.9082 C   0  0  2  0  0  0  0  0  0  0  0  0
  1  2  1  0  0  0  0
  2  3  1  0  0  0  0
  3 20  1  0  0  0  0
  4  5  1  0  0  0  0
  6  7  2  0  0  0  0
  6 12  1  0  0  0  0
  7  8  1  0  0  0  0
  8  9  2  0  0  0  0
  9 11  1  0  0  0  0
 10  5  1  6  0  0  0
 10 11  1  0  0  0  0
 10 16  1  0  0  0  0
 10 27  1  0  0  0  0
 11 12  2  0  0  0  0
 13 12  1  1  0  0  0
 13 15  1  0  0  0  0
 13 28  1  0  0  0  0
 14 15  2  0  0  0  0
 14 19  1  0  0  0  0
 15 16  1  0  0  0  0
 16 17  2  0  0  0  0
 17 18  1  0  0  0  0
 18 19  2  0  0  0  0
 20 21  1  0  0  0  0
 21 25  1  0  0  0  0
 22 26  2  0  0  0  0
 23 24  2  0  0  0  0
 24 25  1  0  0  0  0
 25 26  1  0  0  0  0
 27 26  1  1  0  0  0
 27 28  1  0  0  0  0
 28 24  1  1  0  0  0
M  END
>  <CHROM.1>
76.55530599,176.85572221,77.08379590,-175.91052333,95.16314864,37.79908840
24.43265476,25.46185874,-0.67337171,0.14286756,2.37188892

>  <Name>
ligand

>  <RI>
0

>  <Rbt.Current_Directory>
/home/itssahil/PROJECTS/Mol_Feturizer/New_Systems/rnas/1YLS

>  <Rbt.Executable>
rbdock ($Id: //depot/dev/client3/rdock/2013.1/src/exe/rbdock.cxx#4 $)

>  <Rbt.Library>
libRbt.so (2013.1, Build901 2013/11/27)

>  <Rbt.Parameter_File>
/export/apps/rDock/src/rDock_2013.1_src/data/scripts/dock_solv.prm

>  <Rbt.Receptor>
prm/pocket_docking_6.prm

>  <SCORE>
-37.1455

>  <SCORE.INTER>
-34.4732

>  <SCORE.INTER.CONST>
1

>  <SCORE.INTER.POLAR>
0

>  <SCORE.INTER.ROT>
5

>  <SCORE.INTER.SOLV>
7.81675

>  <SCORE.INTER.VDW>
-32.521

>  <SCORE.INTER.norm>
-1.23118

>  <SCORE.INTRA>
-2.67237

>  <SCORE.INTRA.DIHEDRAL>
-7.4903

>  <SCORE.INTRA.DIHEDRAL.0>
12.0148

>  <SCORE.INTRA.POLAR>
0

>  <SCORE.INTRA.POLAR.0>
0

>  <SCORE.INTRA.REPUL>
0

>  <SCORE.INTRA.REPUL.0>
0

>  <SCORE.INTRA.SOLV>
0.168291

>  <SCORE.INTRA.SOLV.lig_0>
-10.5235

>  <SCORE.INTRA.VDW>
0.988635

>  <SCORE.INTRA.VDW.0>
-1.38455

>  <SCORE.INTRA.norm>
-0.0954417

>  <SCORE.RESTR>
0

>  <SCORE.RESTR.CAVITY>
0

>  <SCORE.RESTR.norm>
0

>  <SCORE.SYSTEM>
0

>  <SCORE.SYSTEM.CONST>
0

>  <SCORE.SYSTEM.DIHEDRAL>
0

>  <SCORE.SYSTEM.SOLV>
0

>  <SCORE.SYSTEM.norm>
0

>  <SCORE.heavy>
28

>  <SCORE.norm>
-1.32663

>  <RMSD>
1.122

$$$$
ligand
 OpenBabel11021811413D
libRbt.so/2013.1/901 2013/11/27
 28 32  0  0  0  0  0  0  0  0999 V2000
   42.7987   28.9603   22.4238 C   0  0  0  0  0  0  0  0  0  0  0  0
   41.7540   27.9146   22.7602 C   0  0  0  0  0  0  0  0  0  0  0  0
   42.3538   26.7503   23.5345 C   0  0  0  0  0  0  0  0  0  0  0  0
   34.4018   24.5264   23.9683 O   0  0  0  0  0  0  0  0  0  0  0  0
   35.0297   25.0139   25.1554 C   0  0  0  0  0  0  0  0  0  0  0  0
   38.6304   23.9961   28.3666 C   0  0  0  0  0  0  0  0  0  0  0  0
   38.4562   25.2237   28.9924 C   0  0  0  0  0  0  0  0  0  0  0  0
   37.4974   26.1162   28.5061 C   0  0  0  0  0  0  0  0  0  0  0  0
   36.7131   25.7834   27.4011 C   0  0  0  0  0  0  0  0  0  0  0  0
   36.1509   24.0704   25.6096 C   0  0  1  0  0  0  0  0  0  0  0  0
   36.8853   24.5508   26.8159 C   0  0  0  0  0  0  0  0  0  0  0  0
   37.8300   23.6787   27.2948 C   0  0  0  0  0  0  0  0  0  0  0  0
   37.9642   22.4442   26.5451 C   0  0  1  0  0  0  0  0  0  0  0  0
   36.3785   20.5381   26.7539 C   0  0  0  0  0  0  0  0  0  0  0  0
   36.6436   21.8491   26.4385 C   0  0  0  0  0  0  0  0  0  0  0  0
   35.6719   22.6828   25.9538 C   0  0  0  0  0  0  0  0  0  0  0  0
   34.3820   22.2075   25.7688 C   0  0  0  0  0  0  0  0  0  0  0  0
   34.0923   20.8831   26.1043 C   0  0  0  0  0  0  0  0  0  0  0  0
   35.0903   20.0534   26.5983 C   0  0  0  0  0  0  0  0  0  0  0  0
   41.3371   25.6263   23.6861 C   0  0  0  0  0  0  0  0  0  0  0  0
   40.2509   26.0205   24.6799 C   0  0  0  0  0  0  0  0  0  0  0  0
   37.6315   26.0902   23.8983 O   0  0  0  0  0  0  0  0  0  0  0  0
   40.6046   23.3619   25.5719 O   0  0  0  0  0  0  0  0  0  0  0  0
   39.5347   23.7570   25.1392 C   0  0  0  0  0  0  0  0  0  0  0  0
   39.2875   24.9314   24.7054 N   0  0  0  0  0  0  0  0  0  0  0  0
   38.0879   25.0698   24.3451 C   0  0  0  0  0  0  0  0  0  0  0  0
   37.2642   23.8501   24.5731 C   0  0  1  0  0  0  0  0  0  0  0  0
   38.3214   22.8967   25.1360 C   0  0  2  0  0  0  0  0  0  0  0  0
  1  2  1  0  0  0  0
  2  3  1  0  0  0  0
  3 20  1  0  0  0  0
  4  5  1  0  0  0  0
  6  7  2  0  0  0  0
  6 12  1  0  0  0  0
  7  8  1  0  0  0  0
  8  9  2  0  0  0  0
  9 11  1  0  0  0  0
 10  5  1  6  0  0  0
 10 11  1  0  0  0  0
 10 16  1  0  0  0  0
 10 27  1  0  0  0  0
 11 12  2  0  0  0  0
 13 12  1  1  0  0  0
 13 15  1  0  0  0  0
 13 28  1  0  0  0  0
 14 15  2  0  0  0  0
 14 19  1  0  0  0  0
 15 16  1  0  0  0  0
 16 17  2  0  0  0  0
 17 18  1  0  0  0  0
 18 19  2  0  0  0  0
 20 21  1  0  0  0  0
 21 25  1  0  0  0  0
 22 26  2  0  0  0  0
 23 24  2  0  0  0  0
 24 25  1  0  0  0  0
 25 26  1  0  0  0  0
 27 26  1  1  0  0  0
 27 28  1  0  0  0  0
 28 24  1  1  0  0  0
M  END
>  <CHROM.1>
-171.88135238,177.67568714,-72.05035467,176.75247557,66.15723586,37.99265738
24.34658917,25.48337505,0.67217859,-0.35883780,-0.94171775

>  <Name>
ligand

>  <RI>
0

>  <Rbt.Current_Directory>
/home/itssahil/PROJECTS/Mol_Feturizer/New_Systems/rnas/1YLS

>  <Rbt.Executable>
rbdock ($Id: //depot/dev/client3/rdock/2013.1/src/exe/rbdock.cxx#4 $)

>  <Rbt.Library>
libRbt.so (2013.1, Build901 2013/11/27)

>  <Rbt.Parameter_File>
/export/apps/rDock/src/rDock_2013.1_src/data/scripts/dock_solv.prm

>  <Rbt.Receptor>
prm/pocket_docking_4.prm

>  <SCORE>
-37.681

>  <SCORE.INTER>
-34.2921

>  <SCORE.INTER.CONST>
1

>  <SCORE.INTER.POLAR>
0

>  <SCORE.INTER.ROT>
5

>  <SCORE.INTER.SOLV>
8.20536

>  <SCORE.INTER.VDW>
-32.5298

>  <SCORE.INTER.norm>
-1.22472

>  <SCORE.INTRA>
-3.38895

>  <SCORE.INTRA.DIHEDRAL>
-8.74825

>  <SCORE.INTRA.DIHEDRAL.0>
12.0148

>  <SCORE.INTRA.POLAR>
0

>  <SCORE.INTRA.POLAR.0>
0

>  <SCORE.INTRA.REPUL>
0

>  <SCORE.INTRA.REPUL.0>
0

>  <SCORE.INTRA.SOLV>
0.194604

>  <SCORE.INTRA.SOLV.lig_0>
-10.5235

>  <SCORE.INTRA.VDW>
0.887873

>  <SCORE.INTRA.VDW.0>
-1.38455

>  <SCORE.INTRA.norm>
-0.121034

>  <SCORE.RESTR>
0

>  <SCORE.RESTR.CAVITY>
0

>  <SCORE.RESTR.norm>
0

>  <SCORE.SYSTEM>
0

>  <SCORE.SYSTEM.CONST>
0

>  <SCORE.SYSTEM.DIHEDRAL>
0

>  <SCORE.SYSTEM.SOLV>
0

>  <SCORE.SYSTEM.norm>
0

>  <SCORE.heavy>
28

>  <SCORE.norm>
-1.34575

>  <RMSD>
1.124

$$$$
ligand
 OpenBabel11021811413D
libRbt.so/2013.1/901 2013/11/27
 28 32  0  0  0  0  0  0  0  0999 V2000
   43.7853   27.4780   22.6024 C   0  0  0  0  0  0  0  0  0  0  0  0
   42.5478   26.6839   22.9711 C   0  0  0  0  0  0  0  0  0  0  0  0
   41.2883   27.5325   22.8801 C   0  0  0  0  0  0  0  0  0  0  0  0
   33.9466   24.8167   24.3663 O   0  0  0  0  0  0  0  0  0  0  0  0
   34.6982   25.1801   25.5257 C   0  0  0  0  0  0  0  0  0  0  0  0
   38.6827   23.9235   28.1443 C   0  0  0  0  0  0  0  0  0  0  0  0
   38.5793   25.0798   28.9071 C   0  0  0  0  0  0  0  0  0  0  0  0
   37.5601   25.9962   28.6361 C   0  0  0  0  0  0  0  0  0  0  0  0
   36.6453   25.7583   27.6097 C   0  0  0  0  0  0  0  0  0  0  0  0
   35.8749   24.2192   25.7395 C   0  0  1  0  0  0  0  0  0  0  0  0
   36.7518   24.5931   26.8869 C   0  0  0  0  0  0  0  0  0  0  0  0
   37.7560   23.6973   27.1543 C   0  0  0  0  0  0  0  0  0  0  0  0
   37.8040   22.5457   26.2737 C   0  0  1  0  0  0  0  0  0  0  0  0
   36.2720   20.5966   26.4862 C   0  0  0  0  0  0  0  0  0  0  0  0
   36.4851   21.9374   26.2734 C   0  0  0  0  0  0  0  0  0  0  0  0
   35.4537   22.7951   25.9998 C   0  0  0  0  0  0  0  0  0  0  0  0
   34.1544   22.3143   25.9303 C   0  0  0  0  0  0  0  0  0  0  0  0
   33.9195   20.9578   26.1647 C   0  0  0  0  0  0  0  0  0  0  0  0
   34.9782   20.1037   26.4445 C   0  0  0  0  0  0  0  0  0  0  0  0
   40.0453   26.6663   23.0377 C   0  0  0  0  0  0  0  0  0  0  0  0
   39.8099   26.3340   24.5063 C   0  0  0  0  0  0  0  0  0  0  0  0
   37.1123   26.4274   24.0684 O   0  0  0  0  0  0  0  0  0  0  0  0
   40.2935   23.6080   25.0760 O   0  0  0  0  0  0  0  0  0  0  0  0
   39.1747   24.0222   24.8218 C   0  0  0  0  0  0  0  0  0  0  0  0
   38.8657   25.2284   24.5423 N   0  0  0  0  0  0  0  0  0  0  0  0
   37.6292   25.3774   24.3501 C   0  0  0  0  0  0  0  0  0  0  0  0
   36.8502   24.1248   24.5555 C   0  0  1  0  0  0  0  0  0  0  0  0
   37.9773   23.1421   24.8836 C   0  0  2  0  0  0  0  0  0  0  0  0
  1  2  1  0  0  0  0
  2  3  1  0  0  0  0
  3 20  1  0  0  0  0
  4  5  1  0  0  0  0
  6  7  2  0  0  0  0
  6 12  1  0  0  0  0
  7  8  1  0  0  0  0
  8  9  2  0  0  0  0
  9 11  1  0  0  0  0
 10  5  1  6  0  0  0
 10 11  1  0  0  0  0
 10 16  1  0  0  0  0
 10 27  1  0  0  0  0
 11 12  2  0  0  0  0
 13 12  1  1  0  0  0
 13 15  1  0  0  0  0
 13 28  1  0  0  0  0
 14 15  2  0  0  0  0
 14 19  1  0  0  0  0
 15 16  1  0  0  0  0
 16 17  2  0  0  0  0
 17 18  1  0  0  0  0
 18 19  2  0  0  0  0
 20 21  1  0  0  0  0
 21 25  1  0  0  0  0
 22 26  2  0  0  0  0
 23 24  2  0  0  0  0
 24 25  1  0  0  0  0
 25 26  1  0  0  0  0
 27 26  1  1  0  0  0
 27 28  1  0  0  0  0
 28 24  1  1  0  0  0
M  END
>  <CHROM.1>
171.04208824,176.40203441,78.51450872,-164.31949349,105.86252913,37.76907984
24.42825795,25.41642137,-0.66832267,0.20348191,2.29549287

>  <Name>
ligand

>  <RI>
0

>  <Rbt.Current_Directory>
/home/itssahil/PROJECTS/Mol_Feturizer/New_Systems/rnas/1YLS

>  <Rbt.Executable>
rbdock ($Id: //depot/dev/client3/rdock/2013.1/src/exe/rbdock.cxx#4 $)

>  <Rbt.Library>
libRbt.so (2013.1, Build901 2013/11/27)

>  <Rbt.Parameter_File>
/export/apps/rDock/src/rDock_2013.1_src/data/scripts/dock_solv.prm

>  <Rbt.Receptor>
prm/pocket_docking_3.prm

>  <SCORE>
-37.4317

>  <SCORE.INTER>
-34.4288

>  <SCORE.INTER.CONST>
1

>  <SCORE.INTER.POLAR>
0

>  <SCORE.INTER.ROT>
5

>  <SCORE.INTER.SOLV>
7.99701

>  <SCORE.INTER.VDW>
-32.5515

>  <SCORE.INTER.norm>
-1.2296

>  <SCORE.INTRA>
-3.00289

>  <SCORE.INTRA.DIHEDRAL>
-7.18309

>  <SCORE.INTRA.DIHEDRAL.0>
12.0148

>  <SCORE.INTRA.POLAR>
0

>  <SCORE.INTRA.POLAR.0>
0

>  <SCORE.INTRA.REPUL>
0

>  <SCORE.INTRA.REPUL.0>
0

>  <SCORE.INTRA.SOLV>
0.213833

>  <SCORE.INTRA.SOLV.lig_0>
-10.5235

>  <SCORE.INTRA.VDW>
0.481738

>  <SCORE.INTRA.VDW.0>
-1.38455

>  <SCORE.INTRA.norm>
-0.107246

>  <SCORE.RESTR>
0

>  <SCORE.RESTR.CAVITY>
0

>  <SCORE.RESTR.norm>
0

>  <SCORE.SYSTEM>
0

>  <SCORE.SYSTEM.CONST>
0

>  <SCORE.SYSTEM.DIHEDRAL>
0

>  <SCORE.SYSTEM.SOLV>
0

>  <SCORE.SYSTEM.norm>
0

>  <SCORE.heavy>
28

>  <SCORE.norm>
-1.33684

>  <RMSD>
1.125

$$$$
ligand
 OpenBabel11021811413D
libRbt.so/2013.1/901 2013/11/27
 28 32  0  0  0  0  0  0  0  0999 V2000
   43.7851   27.6600   22.7950 C   0  0  0  0  0  0  0  0  0  0  0  0
   42.5713   26.7889   23.0512 C   0  0  0  0  0  0  0  0  0  0  0  0
   41.2755   27.5702   22.8915 C   0  0  0  0  0  0  0  0  0  0  0  0
   33.9556   24.8159   24.3615 O   0  0  0  0  0  0  0  0  0  0  0  0
   34.7183   25.1917   25.5096 C   0  0  0  0  0  0  0  0  0  0  0  0
   38.6822   23.9168   28.1505 C   0  0  0  0  0  0  0  0  0  0  0  0
   38.5828   25.0758   28.9096 C   0  0  0  0  0  0  0  0  0  0  0  0
   37.5708   25.9980   28.6313 C   0  0  0  0  0  0  0  0  0  0  0  0
   36.6593   25.7631   27.6012 C   0  0  0  0  0  0  0  0  0  0  0  0
   35.8878   24.2239   25.7316 C   0  0  1  0  0  0  0  0  0  0  0  0
   36.7617   24.5953   26.8821 C   0  0  0  0  0  0  0  0  0  0  0  0
   37.7588   23.6938   27.1567 C   0  0  0  0  0  0  0  0  0  0  0  0
   37.8035   22.5395   26.2795 C   0  0  1  0  0  0  0  0  0  0  0  0
   36.2580   20.6009   26.4901 C   0  0  0  0  0  0  0  0  0  0  0  0
   36.4808   21.9397   26.2746 C   0  0  0  0  0  0  0  0  0  0  0  0
   35.4562   22.8032   25.9938 C   0  0  0  0  0  0  0  0  0  0  0  0
   34.1542   22.3306   25.9194 C   0  0  0  0  0  0  0  0  0  0  0  0
   33.9094   20.9763   26.1565 C   0  0  0  0  0  0  0  0  0  0  0  0
   34.9612   20.1162   26.4437 C   0  0  0  0  0  0  0  0  0  0  0  0
   40.0717   26.6495   23.0433 C   0  0  0  0  0  0  0  0  0  0  0  0
   39.8421   26.3098   24.5112 C   0  0  0  0  0  0  0  0  0  0  0  0
   37.1473   26.4194   24.0603 O   0  0  0  0  0  0  0  0  0  0  0  0
   40.3055   23.5824   25.0906 O   0  0  0  0  0  0  0  0  0  0  0  0
   39.1905   24.0031   24.8301 C   0  0  0  0  0  0  0  0  0  0  0  0
   38.8907   25.2105   24.5458 N   0  0  0  0  0  0  0  0  0  0  0  0
   37.6561   25.3669   24.3473 C   0  0  0  0  0  0  0  0  0  0  0  0
   36.8681   24.1199   24.5525 C   0  0  1  0  0  0  0  0  0  0  0  0
   37.9872   23.1309   24.8886 C   0  0  2  0  0  0  0  0  0  0  0  0
  1  2  1  0  0  0  0
  2  3  1  0  0  0  0
  3 20  1  0  0  0  0
  4  5  1  0  0  0  0
  6  7  2  0  0  0  0
  6 12  1  0  0  0  0
  7  8  1  0  0  0  0
  8  9  2  0  0  0  0
  9 11  1  0  0  0  0
 10  5  1  6  0  0  0
 10 11  1  0  0  0  0
 10 16  1  0  0  0  0
 10 27  1  0  0  0  0
 11 12  2  0  0  0  0
 13 12  1  1  0  0  0
 13 15  1  0  0  0  0
 13 28  1  0  0  0  0
 14 15  2  0  0  0  0
 14 19  1  0  0  0  0
 15 16  1  0  0  0  0
 16 17  2  0  0  0  0
 17 18  1  0  0  0  0
 18 19  2  0  0  0  0
 20 21  1  0  0  0  0
 21 25  1  0  0  0  0
 22 26  2  0  0  0  0
 23 24  2  0  0  0  0
 24 25  1  0  0  0  0
 25 26  1  0  0  0  0
 27 26  1  1  0  0  0
 27 28  1  0  0  0  0
 28 24  1  1  0  0  0
M  END
>  <CHROM.1>
175.44834740,177.44356554,76.11152334,-167.39241261,106.63747365,37.77858924
24.43811772,25.42710971,-0.66267051,0.22594136,2.28817925

>  <Name>
ligand

>  <RI>
0

>  <Rbt.Current_Directory>
/home/itssahil/PROJECTS/Mol_Feturizer/New_Systems/rnas/1YLS

>  <Rbt.Executable>
rbdock ($Id: //depot/dev/client3/rdock/2013.1/src/exe/rbdock.cxx#4 $)

>  <Rbt.Library>
libRbt.so (2013.1, Build901 2013/11/27)

>  <Rbt.Parameter_File>
/export/apps/rDock/src/rDock_2013.1_src/data/scripts/dock_solv.prm

>  <Rbt.Receptor>
prm/pocket_docking_6.prm

>  <SCORE>
-37.3921

>  <SCORE.INTER>
-34.0577

>  <SCORE.INTER.CONST>
1

>  <SCORE.INTER.POLAR>
0

>  <SCORE.INTER.ROT>
5

>  <SCORE.INTER.SOLV>
8.09161

>  <SCORE.INTER.VDW>
-32.3357

>  <SCORE.INTER.norm>
-1.21635

>  <SCORE.INTRA>
-3.33437

>  <SCORE.INTRA.DIHEDRAL>
-8.04163

>  <SCORE.INTRA.DIHEDRAL.0>
12.0148

>  <SCORE.INTRA.POLAR>
0

>  <SCORE.INTRA.POLAR.0>
0

>  <SCORE.INTRA.REPUL>
0

>  <SCORE.INTRA.REPUL.0>
0

>  <SCORE.INTRA.SOLV>
0.199377

>  <SCORE.INTRA.SOLV.lig_0>
-10.5235

>  <SCORE.INTRA.VDW>
0.586754

>  <SCORE.INTRA.VDW.0>
-1.38455

>  <SCORE.INTRA.norm>
-0.119085

>  <SCORE.RESTR>
0

>  <SCORE.RESTR.CAVITY>
0

>  <SCORE.RESTR.norm>
0

>  <SCORE.SYSTEM>
0

>  <SCORE.SYSTEM.CONST>
0

>  <SCORE.SYSTEM.DIHEDRAL>
0

>  <SCORE.SYSTEM.SOLV>
0

>  <SCORE.SYSTEM.norm>
0

>  <SCORE.heavy>
28

>  <SCORE.norm>
-1.33543

>  <RMSD>
1.125

$$$$
ligand
 OpenBabel11021811413D
libRbt.so/2013.1/901 2013/11/27
 28 32  0  0  0  0  0  0  0  0999 V2000
   42.7675   28.9454   22.4275 C   0  0  0  0  0  0  0  0  0  0  0  0
   41.7458   27.8650   22.7220 C   0  0  0  0  0  0  0  0  0  0  0  0
   42.3649   26.6966   23.4746 C   0  0  0  0  0  0  0  0  0  0  0  0
   34.4403   24.5040   23.9344 O   0  0  0  0  0  0  0  0  0  0  0  0
   35.0610   24.9964   25.1232 C   0  0  0  0  0  0  0  0  0  0  0  0
   38.6345   23.9852   28.3667 C   0  0  0  0  0  0  0  0  0  0  0  0
   38.4657   25.2205   28.9788 C   0  0  0  0  0  0  0  0  0  0  0  0
   37.5166   26.1150   28.4774 C   0  0  0  0  0  0  0  0  0  0  0  0
   36.7365   25.7766   27.3711 C   0  0  0  0  0  0  0  0  0  0  0  0
   36.1723   24.0493   25.5940 C   0  0  1  0  0  0  0  0  0  0  0  0
   36.9030   24.5367   26.7997 C   0  0  0  0  0  0  0  0  0  0  0  0
   37.8383   23.6627   27.2934 C   0  0  0  0  0  0  0  0  0  0  0  0
   37.9677   22.4195   26.5574 C   0  0  1  0  0  0  0  0  0  0  0  0
   36.3665   20.5275   26.7762 C   0  0  0  0  0  0  0  0  0  0  0  0
   36.6433   21.8331   26.4488 C   0  0  0  0  0  0  0  0  0  0  0  0
   35.6808   22.6690   25.9496 C   0  0  0  0  0  0  0  0  0  0  0  0
   34.3885   22.2013   25.7616 C   0  0  0  0  0  0  0  0  0  0  0  0
   34.0869   20.8827   26.1091 C   0  0  0  0  0  0  0  0  0  0  0  0
   35.0757   20.0508   26.6176 C   0  0  0  0  0  0  0  0  0  0  0  0
   41.3526   25.5714   23.6453 C   0  0  0  0  0  0  0  0  0  0  0  0
   40.2924   25.9591   24.6693 C   0  0  0  0  0  0  0  0  0  0  0  0
   37.6783   26.0401   23.8710 O   0  0  0  0  0  0  0  0  0  0  0  0
   40.6207   23.3073   25.5909 O   0  0  0  0  0  0  0  0  0  0  0  0
   39.5565   23.7059   25.1475 C   0  0  0  0  0  0  0  0  0  0  0  0
   39.3207   24.8775   24.7001 N   0  0  0  0  0  0  0  0  0  0  0  0
   38.1243   25.0211   24.3311 C   0  0  0  0  0  0  0  0  0  0  0  0
   37.2901   23.8100   24.5667 C   0  0  1  0  0  0  0  0  0  0  0  0
   38.3368   22.8547   25.1458 C   0  0  2  0  0  0  0  0  0  0  0  0
  1  2  1  0  0  0  0
  2  3  1  0  0  0  0
  3 20  1  0  0  0  0
  4  5  1  0  0  0  0
  6  7  2  0  0  0  0
  6 12  1  0  0  0  0
  7  8  1  0  0  0  0
  8  9  2  0  0  0  0
  9 11  1  0  0  0  0
 10  5  1  6  0  0  0
 10 11  1  0  0  0  0
 10 16  1  0  0  0  0
 10 27  1  0  0  0  0
 11 12  2  0  0  0  0
 13 12  1  1  0  0  0
 13 15  1  0  0  0  0
 13 28  1  0  0  0  0
 14 15  2  0  0  0  0
 14 19  1  0  0  0  0
 15 16  1  0  0  0  0
 16 17  2  0  0  0  0
 17 18  1  0  0  0  0
 18 19  2  0  0  0  0
 20 21  1  0  0  0  0
 21 25  1  0  0  0  0
 22 26  2  0  0  0  0
 23 24  2  0  0  0  0
 24 25  1  0  0  0  0
 25 26  1  0  0  0  0
 27 26  1  1  0  0  0
 27 28  1  0  0  0  0
 28 24  1  1  0  0  0
M  END
>  <CHROM.1>
-174.78560806,177.44003289,-72.11773404,176.03149630,68.36065888,38.00690284
24.31818869,25.47292076,0.67177885,-0.36020817,-0.94992043

>  <Name>
ligand

>  <RI>
0

>  <Rbt.Current_Directory>
/home/itssahil/PROJECTS/Mol_Feturizer/New_Systems/rnas/1YLS

>  <Rbt.Executable>
rbdock ($Id: //depot/dev/client3/rdock/2013.1/src/exe/rbdock.cxx#4 $)

>  <Rbt.Library>
libRbt.so (2013.1, Build901 2013/11/27)

>  <Rbt.Parameter_File>
/export/apps/rDock/src/rDock_2013.1_src/data/scripts/dock_solv.prm

>  <Rbt.Receptor>
prm/pocket_docking_5.prm

>  <SCORE>
-37.6249

>  <SCORE.INTER>
-34.0909

>  <SCORE.INTER.CONST>
1

>  <SCORE.INTER.POLAR>
0

>  <SCORE.INTER.ROT>
5

>  <SCORE.INTER.SOLV>
8.23799

>  <SCORE.INTER.VDW>
-32.4066

>  <SCORE.INTER.norm>
-1.21753

>  <SCORE.INTRA>
-3.53393

>  <SCORE.INTRA.DIHEDRAL>
-8.89913

>  <SCORE.INTRA.DIHEDRAL.0>
12.0148

>  <SCORE.INTRA.POLAR>
0

>  <SCORE.INTRA.POLAR.0>
0

>  <SCORE.INTRA.REPUL>
0

>  <SCORE.INTRA.REPUL.0>
0

>  <SCORE.INTRA.SOLV>
0.191673

>  <SCORE.INTRA.SOLV.lig_0>
-10.5235

>  <SCORE.INTRA.VDW>
0.819795

>  <SCORE.INTRA.VDW.0>
-1.38455

>  <SCORE.INTRA.norm>
-0.126212

>  <SCORE.RESTR>
0

>  <SCORE.RESTR.CAVITY>
0

>  <SCORE.RESTR.norm>
0

>  <SCORE.SYSTEM>
0

>  <SCORE.SYSTEM.CONST>
0

>  <SCORE.SYSTEM.DIHEDRAL>
0

>  <SCORE.SYSTEM.SOLV>
0

>  <SCORE.SYSTEM.norm>
0

>  <SCORE.heavy>
28

>  <SCORE.norm>
-1.34375

>  <RMSD>
1.129

$$$$
ligand
 OpenBabel11021811413D
libRbt.so/2013.1/901 2013/11/27
 28 32  0  0  0  0  0  0  0  0999 V2000
   43.6812   28.4677   22.2562 C   0  0  0  0  0  0  0  0  0  0  0  0
   42.5421   27.4697   22.1901 C   0  0  0  0  0  0  0  0  0  0  0  0
   41.5268   27.7021   23.2991 C   0  0  0  0  0  0  0  0  0  0  0  0
   33.8700   24.9549   24.5253 O   0  0  0  0  0  0  0  0  0  0  0  0
   34.6119   25.2551   25.7088 C   0  0  0  0  0  0  0  0  0  0  0  0
   38.7391   24.0586   28.1267 C   0  0  0  0  0  0  0  0  0  0  0  0
   38.6095   25.1682   28.9521 C   0  0  0  0  0  0  0  0  0  0  0  0
   37.5403   26.0476   28.7629 C   0  0  0  0  0  0  0  0  0  0  0  0
   36.6020   25.8188   27.7558 C   0  0  0  0  0  0  0  0  0  0  0  0
   35.8383   24.3419   25.8334 C   0  0  1  0  0  0  0  0  0  0  0  0
   36.7367   24.6983   26.9698 C   0  0  0  0  0  0  0  0  0  0  0  0
   37.7898   23.8391   27.1569 C   0  0  0  0  0  0  0  0  0  0  0  0
   37.8599   22.7374   26.2160 C   0  0  1  0  0  0  0  0  0  0  0  0
   36.4275   20.7091   26.3757 C   0  0  0  0  0  0  0  0  0  0  0  0
   36.5712   22.0676   26.2267 C   0  0  0  0  0  0  0  0  0  0  0  0
   35.4924   22.8879   26.0322 C   0  0  0  0  0  0  0  0  0  0  0  0
   34.2150   22.3497   25.9799 C   0  0  0  0  0  0  0  0  0  0  0  0
   34.0511   20.9734   26.1504 C   0  0  0  0  0  0  0  0  0  0  0  0
   35.1571   20.1577   26.3504 C   0  0  0  0  0  0  0  0  0  0  0  0
   40.5472   26.5387   23.3821 C   0  0  0  0  0  0  0  0  0  0  0  0
   39.6263   26.7021   24.5854 C   0  0  0  0  0  0  0  0  0  0  0  0
   36.9136   26.6888   24.2411 O   0  0  0  0  0  0  0  0  0  0  0  0
   40.2544   23.9769   24.9952 O   0  0  0  0  0  0  0  0  0  0  0  0
   39.1095   24.3496   24.7997 C   0  0  0  0  0  0  0  0  0  0  0  0
   38.7358   25.5523   24.5941 N   0  0  0  0  0  0  0  0  0  0  0  0
   37.4878   25.6517   24.4503 C   0  0  0  0  0  0  0  0  0  0  0  0
   36.7749   24.3545   24.6150 C   0  0  1  0  0  0  0  0  0  0  0  0
   37.9568   23.4113   24.8542 C   0  0  2  0  0  0  0  0  0  0  0  0
  1  2  1  0  0  0  0
  2  3  1  0  0  0  0
  3 20  1  0  0  0  0
  4  5  1  0  0  0  0
  6  7  2  0  0  0  0
  6 12  1  0  0  0  0
  7  8  1  0  0  0  0
  8  9  2  0  0  0  0
  9 11  1  0  0  0  0
 10  5  1  6  0  0  0
 10 11  1  0  0  0  0
 10 16  1  0  0  0  0
 10 27  1  0  0  0  0
 11 12  2  0  0  0  0
 13 12  1  1  0  0  0
 13 15  1  0  0  0  0
 13 28  1  0  0  0  0
 14 15  2  0  0  0  0
 14 19  1  0  0  0  0
 15 16  1  0  0  0  0
 16 17  2  0  0  0  0
 17 18  1  0  0  0  0
 18 19  2  0  0  0  0
 20 21  1  0  0  0  0
 21 25  1  0  0  0  0
 22 26  2  0  0  0  0
 23 24  2  0  0  0  0
 24 25  1  0  0  0  0
 25 26  1  0  0  0  0
 27 26  1  1  0  0  0
 27 28  1  0  0  0  0
 28 24  1  1  0  0  0
M  END
>  <CHROM.1>
-168.97137174,173.82807825,173.96093756,-179.63349685,66.44814876,37.77724684
24.64527588,25.43579293,-0.69431440,0.25189941,2.26670471

>  <Name>
ligand

>  <RI>
0

>  <Rbt.Current_Directory>
/home/itssahil/PROJECTS/Mol_Feturizer/New_Systems/rnas/1YLS

>  <Rbt.Executable>
rbdock ($Id: //depot/dev/client3/rdock/2013.1/src/exe/rbdock.cxx#4 $)

>  <Rbt.Library>
libRbt.so (2013.1, Build901 2013/11/27)

>  <Rbt.Parameter_File>
/export/apps/rDock/src/rDock_2013.1_src/data/scripts/dock_solv.prm

>  <Rbt.Receptor>
prm/pocket_docking_6.prm

>  <SCORE>
-38.5871

>  <SCORE.INTER>
-34.5234

>  <SCORE.INTER.CONST>
1

>  <SCORE.INTER.POLAR>
0

>  <SCORE.INTER.ROT>
5

>  <SCORE.INTER.SOLV>
8.07206

>  <SCORE.INTER.VDW>
-32.6396

>  <SCORE.INTER.norm>
-1.23298

>  <SCORE.INTRA>
-4.06367

>  <SCORE.INTRA.DIHEDRAL>
-8.90808

>  <SCORE.INTRA.DIHEDRAL.0>
12.0148

>  <SCORE.INTRA.POLAR>
0

>  <SCORE.INTRA.POLAR.0>
0

>  <SCORE.INTRA.REPUL>
0

>  <SCORE.INTRA.REPUL.0>
0

>  <SCORE.INTRA.SOLV>
0.204274

>  <SCORE.INTRA.SOLV.lig_0>
-10.5235

>  <SCORE.INTRA.VDW>
0.288232

>  <SCORE.INTRA.VDW.0>
-1.38455

>  <SCORE.INTRA.norm>
-0.145131

>  <SCORE.RESTR>
0

>  <SCORE.RESTR.CAVITY>
0

>  <SCORE.RESTR.norm>
0

>  <SCORE.SYSTEM>
0

>  <SCORE.SYSTEM.CONST>
0

>  <SCORE.SYSTEM.DIHEDRAL>
0

>  <SCORE.SYSTEM.SOLV>
0

>  <SCORE.SYSTEM.norm>
0

>  <SCORE.heavy>
28

>  <SCORE.norm>
-1.37811

>  <RMSD>
1.129

$$$$
ligand
 OpenBabel11021811413D
libRbt.so/2013.1/901 2013/11/27
 28 32  0  0  0  0  0  0  0  0999 V2000
   42.7827   28.9596   22.4372 C   0  0  0  0  0  0  0  0  0  0  0  0
   41.7439   27.9001   22.7473 C   0  0  0  0  0  0  0  0  0  0  0  0
   42.3467   26.7281   23.5075 C   0  0  0  0  0  0  0  0  0  0  0  0
   34.4067   24.5138   23.9776 O   0  0  0  0  0  0  0  0  0  0  0  0
   35.0354   24.9995   25.1650 C   0  0  0  0  0  0  0  0  0  0  0  0
   38.6417   23.9792   28.3690 C   0  0  0  0  0  0  0  0  0  0  0  0
   38.4717   25.2083   28.9933 C   0  0  0  0  0  0  0  0  0  0  0  0
   37.5137   26.1020   28.5077 C   0  0  0  0  0  0  0  0  0  0  0  0
   36.7259   25.7691   27.4052 C   0  0  0  0  0  0  0  0  0  0  0  0
   36.1557   24.0543   25.6180 C   0  0  1  0  0  0  0  0  0  0  0  0
   36.8940   24.5351   26.8217 C   0  0  0  0  0  0  0  0  0  0  0  0
   37.8380   23.6618   27.2997 C   0  0  0  0  0  0  0  0  0  0  0  0
   37.9676   22.4257   26.5519 C   0  0  1  0  0  0  0  0  0  0  0  0
   36.3783   20.5234   26.7678 C   0  0  0  0  0  0  0  0  0  0  0  0
   36.6455   21.8333   26.4495 C   0  0  0  0  0  0  0  0  0  0  0  0
   35.6744   22.6684   25.9658 C   0  0  0  0  0  0  0  0  0  0  0  0
   34.3830   22.1955   25.7847 C   0  0  0  0  0  0  0  0  0  0  0  0
   34.0913   20.8724   26.1232 C   0  0  0  0  0  0  0  0  0  0  0  0
   35.0887   20.0413   26.6161 C   0  0  0  0  0  0  0  0  0  0  0  0
   41.3274   25.6067   23.6608 C   0  0  0  0  0  0  0  0  0  0  0  0
   40.2576   25.9938   24.6750 C   0  0  0  0  0  0  0  0  0  0  0  0
   37.6364   26.0679   23.8996 O   0  0  0  0  0  0  0  0  0  0  0  0
   40.6076   23.3359   25.5707 O   0  0  0  0  0  0  0  0  0  0  0  0
   39.5376   23.7327   25.1398 C   0  0  0  0  0  0  0  0  0  0  0  0
   39.2919   24.9069   24.7046 N   0  0  0  0  0  0  0  0  0  0  0  0
   38.0916   25.0473   24.3471 C   0  0  0  0  0  0  0  0  0  0  0  0
   37.2659   23.8298   24.5792 C   0  0  1  0  0  0  0  0  0  0  0  0
   38.3224   22.8751   25.1411 C   0  0  2  0  0  0  0  0  0  0  0  0
  1  2  1  0  0  0  0
  2  3  1  0  0  0  0
  3 20  1  0  0  0  0
  4  5  1  0  0  0  0
  6  7  2  0  0  0  0
  6 12  1  0  0  0  0
  7  8  1  0  0  0  0
  8  9  2  0  0  0  0
  9 11  1  0  0  0  0
 10  5  1  6  0  0  0
 10 11  1  0  0  0  0
 10 16  1  0  0  0  0
 10 27  1  0  0  0  0
 11 12  2  0  0  0  0
 13 12  1  1  0  0  0
 13 15  1  0  0  0  0
 13 28  1  0  0  0  0
 14 15  2  0  0  0  0
 14 19  1  0  0  0  0
 15 16  1  0  0  0  0
 16 17  2  0  0  0  0
 17 18  1  0  0  0  0
 18 19  2  0  0  0  0
 20 21  1  0  0  0  0
 21 25  1  0  0  0  0
 22 26  2  0  0  0  0
 23 24  2  0  0  0  0
 24 25  1  0  0  0  0
 25 26  1  0  0  0  0
 27 26  1  1  0  0  0
 27 28  1  0  0  0  0
 28 24  1  1  0  0  0
M  END
>  <CHROM.1>
-173.22851201,177.46864265,-72.44354426,176.91548351,67.14961198,37.99522834
24.32936106,25.48656398,0.67540205,-0.35716005,-0.94074704

>  <Name>
ligand

>  <RI>
0

>  <Rbt.Current_Directory>
/home/itssahil/PROJECTS/Mol_Feturizer/New_Systems/rnas/1YLS

>  <Rbt.Executable>
rbdock ($Id: //depot/dev/client3/rdock/2013.1/src/exe/rbdock.cxx#4 $)

>  <Rbt.Library>
libRbt.so (2013.1, Build901 2013/11/27)

>  <Rbt.Parameter_File>
/export/apps/rDock/src/rDock_2013.1_src/data/scripts/dock_solv.prm

>  <Rbt.Receptor>
prm/pocket_docking_6.prm

>  <SCORE>
-37.6527

>  <SCORE.INTER>
-34.2001

>  <SCORE.INTER.CONST>
1

>  <SCORE.INTER.POLAR>
0

>  <SCORE.INTER.ROT>
5

>  <SCORE.INTER.SOLV>
8.2205

>  <SCORE.INTER.VDW>
-32.4735

>  <SCORE.INTER.norm>
-1.22143

>  <SCORE.INTRA>
-3.45259

>  <SCORE.INTRA.DIHEDRAL>
-8.80333

>  <SCORE.INTRA.DIHEDRAL.0>
12.0148

>  <SCORE.INTRA.POLAR>
0

>  <SCORE.INTRA.POLAR.0>
0

>  <SCORE.INTRA.REPUL>
0

>  <SCORE.INTRA.REPUL.0>
0

>  <SCORE.INTRA.SOLV>
0.193977

>  <SCORE.INTRA.SOLV.lig_0>
-10.5235

>  <SCORE.INTRA.VDW>
0.852086

>  <SCORE.INTRA.VDW.0>
-1.38455

>  <SCORE.INTRA.norm>
-0.123307

>  <SCORE.RESTR>
0

>  <SCORE.RESTR.CAVITY>
0

>  <SCORE.RESTR.norm>
0

>  <SCORE.SYSTEM>
0

>  <SCORE.SYSTEM.CONST>
0

>  <SCORE.SYSTEM.DIHEDRAL>
0

>  <SCORE.SYSTEM.SOLV>
0

>  <SCORE.SYSTEM.norm>
0

>  <SCORE.heavy>
28

>  <SCORE.norm>
-1.34474

>  <RMSD>
1.130

$$$$
ligand
 OpenBabel11021811413D
libRbt.so/2013.1/901 2013/11/27
 28 32  0  0  0  0  0  0  0  0999 V2000
   43.8141   27.5176   22.7653 C   0  0  0  0  0  0  0  0  0  0  0  0
   42.5691   26.6990   23.0442 C   0  0  0  0  0  0  0  0  0  0  0  0
   41.3043   27.5306   22.8910 C   0  0  0  0  0  0  0  0  0  0  0  0
   33.9139   24.8193   24.4198 O   0  0  0  0  0  0  0  0  0  0  0  0
   34.6851   25.1795   25.5672 C   0  0  0  0  0  0  0  0  0  0  0  0
   38.7065   23.9090   28.1220 C   0  0  0  0  0  0  0  0  0  0  0  0
   38.6083   25.0561   28.8990 C   0  0  0  0  0  0  0  0  0  0  0  0
   37.5823   25.9716   28.6510 C   0  0  0  0  0  0  0  0  0  0  0  0
   36.6557   25.7417   27.6334 C   0  0  0  0  0  0  0  0  0  0  0  0
   35.8679   24.2208   25.7556 C   0  0  1  0  0  0  0  0  0  0  0  0
   36.7576   24.5852   26.8963 C   0  0  0  0  0  0  0  0  0  0  0  0
   37.7684   23.6903   27.1411 C   0  0  0  0  0  0  0  0  0  0  0  0
   37.8098   22.5489   26.2470 C   0  0  1  0  0  0  0  0  0  0  0  0
   36.2878   20.5916   26.4564 C   0  0  0  0  0  0  0  0  0  0  0  0
   36.4933   21.9356   26.2561 C   0  0  0  0  0  0  0  0  0  0  0  0
   35.4553   22.7922   26.0050 C   0  0  0  0  0  0  0  0  0  0  0  0
   34.1571   22.3072   25.9461 C   0  0  0  0  0  0  0  0  0  0  0  0
   33.9302   20.9472   26.1681 C   0  0  0  0  0  0  0  0  0  0  0  0
   34.9955   20.0942   26.4251 C   0  0  0  0  0  0  0  0  0  0  0  0
   40.0661   26.6543   23.0292 C   0  0  0  0  0  0  0  0  0  0  0  0
   39.7794   26.3645   24.4978 C   0  0  0  0  0  0  0  0  0  0  0  0
   37.0763   26.4525   24.0944 O   0  0  0  0  0  0  0  0  0  0  0  0
   40.2802   23.6343   25.0306 O   0  0  0  0  0  0  0  0  0  0  0  0
   39.1568   24.0470   24.7950 C   0  0  0  0  0  0  0  0  0  0  0  0
   38.8399   25.2550   24.5330 N   0  0  0  0  0  0  0  0  0  0  0  0
   37.6005   25.4013   24.3578 C   0  0  0  0  0  0  0  0  0  0  0  0
   36.8288   24.1435   24.5587 C   0  0  1  0  0  0  0  0  0  0  0  0
   37.9635   23.1616   24.8617 C   0  0  2  0  0  0  0  0  0  0  0  0
  1  2  1  0  0  0  0
  2  3  1  0  0  0  0
  3 20  1  0  0  0  0
  4  5  1  0  0  0  0
  6  7  2  0  0  0  0
  6 12  1  0  0  0  0
  7  8  1  0  0  0  0
  8  9  2  0  0  0  0
  9 11  1  0  0  0  0
 10  5  1  6  0  0  0
 10 11  1  0  0  0  0
 10 16  1  0  0  0  0
 10 27  1  0  0  0  0
 11 12  2  0  0  0  0
 13 12  1  1  0  0  0
 13 15  1  0  0  0  0
 13 28  1  0  0  0  0
 14 15  2  0  0  0  0
 14 19  1  0  0  0  0
 15 16  1  0  0  0  0
 16 17  2  0  0  0  0
 17 18  1  0  0  0  0
 18 19  2  0  0  0  0
 20 21  1  0  0  0  0
 21 25  1  0  0  0  0
 22 26  2  0  0  0  0
 23 24  2  0  0  0  0
 24 25  1  0  0  0  0
 25 26  1  0  0  0  0
 27 26  1  1  0  0  0
 27 28  1  0  0  0  0
 28 24  1  1  0  0  0
M  END
>  <CHROM.1>
173.95450653,176.89823984,78.97310917,-164.70478421,102.21564158,37.76869295
24.43326472,25.42544097,-0.66784494,0.18888502,2.32516549

>  <Name>
ligand

>  <RI>
0

>  <Rbt.Current_Directory>
/home/itssahil/PROJECTS/Mol_Feturizer/New_Systems/rnas/1YLS

>  <Rbt.Executable>
rbdock ($Id: //depot/dev/client3/rdock/2013.1/src/exe/rbdock.cxx#4 $)

>  <Rbt.Library>
libRbt.so (2013.1, Build901 2013/11/27)

>  <Rbt.Parameter_File>
/export/apps/rDock/src/rDock_2013.1_src/data/scripts/dock_solv.prm

>  <Rbt.Receptor>
prm/pocket_docking_5.prm

>  <SCORE>
-37.3376

>  <SCORE.INTER>
-34.1503

>  <SCORE.INTER.CONST>
1

>  <SCORE.INTER.POLAR>
0

>  <SCORE.INTER.ROT>
5

>  <SCORE.INTER.SOLV>
8.03355

>  <SCORE.INTER.VDW>
-32.378

>  <SCORE.INTER.norm>
-1.21965

>  <SCORE.INTRA>
-3.18731

>  <SCORE.INTRA.DIHEDRAL>
-7.37214

>  <SCORE.INTRA.DIHEDRAL.0>
12.0148

>  <SCORE.INTRA.POLAR>
0

>  <SCORE.INTRA.POLAR.0>
0

>  <SCORE.INTRA.REPUL>
0

>  <SCORE.INTRA.REPUL.0>
0

>  <SCORE.INTRA.SOLV>
0.214501

>  <SCORE.INTRA.SOLV.lig_0>
-10.5235

>  <SCORE.INTRA.VDW>
0.391514

>  <SCORE.INTRA.VDW.0>
-1.38455

>  <SCORE.INTRA.norm>
-0.113832

>  <SCORE.RESTR>
0

>  <SCORE.RESTR.CAVITY>
0

>  <SCORE.RESTR.norm>
0

>  <SCORE.SYSTEM>
0

>  <SCORE.SYSTEM.CONST>
0

>  <SCORE.SYSTEM.DIHEDRAL>
0

>  <SCORE.SYSTEM.SOLV>
0

>  <SCORE.SYSTEM.norm>
0

>  <SCORE.heavy>
28

>  <SCORE.norm>
-1.33349

>  <RMSD>
1.132

$$$$
ligand
 OpenBabel11021811413D
libRbt.so/2013.1/901 2013/11/27
 28 32  0  0  0  0  0  0  0  0999 V2000
   43.8269   27.5028   22.8348 C   0  0  0  0  0  0  0  0  0  0  0  0
   42.5714   26.6914   23.0861 C   0  0  0  0  0  0  0  0  0  0  0  0
   41.3146   27.5256   22.8877 C   0  0  0  0  0  0  0  0  0  0  0  0
   33.9118   24.8223   24.3995 O   0  0  0  0  0  0  0  0  0  0  0  0
   34.6794   25.1872   25.5478 C   0  0  0  0  0  0  0  0  0  0  0  0
   38.6934   23.9281   28.1198 C   0  0  0  0  0  0  0  0  0  0  0  0
   38.5913   25.0773   28.8933 C   0  0  0  0  0  0  0  0  0  0  0  0
   37.5652   25.9910   28.6393 C   0  0  0  0  0  0  0  0  0  0  0  0
   36.6424   25.7572   27.6192 C   0  0  0  0  0  0  0  0  0  0  0  0
   35.8627   24.2303   25.7429 C   0  0  1  0  0  0  0  0  0  0  0  0
   36.7480   24.5988   26.8856 C   0  0  0  0  0  0  0  0  0  0  0  0
   37.7590   23.7057   27.1363 C   0  0  0  0  0  0  0  0  0  0  0  0
   37.8046   22.5619   26.2454 C   0  0  1  0  0  0  0  0  0  0  0  0
   36.2841   20.6035   26.4550 C   0  0  0  0  0  0  0  0  0  0  0  0
   36.4888   21.9471   26.2518 C   0  0  0  0  0  0  0  0  0  0  0  0
   35.4508   22.8020   25.9948 C   0  0  0  0  0  0  0  0  0  0  0  0
   34.1533   22.3154   25.9328 C   0  0  0  0  0  0  0  0  0  0  0  0
   33.9271   20.9557   26.1577 C   0  0  0  0  0  0  0  0  0  0  0  0
   34.9924   20.1046   26.4208 C   0  0  0  0  0  0  0  0  0  0  0  0
   40.0689   26.6598   23.0242 C   0  0  0  0  0  0  0  0  0  0  0  0
   39.7760   26.3749   24.4926 C   0  0  0  0  0  0  0  0  0  0  0  0
   37.0743   26.4587   24.0796 O   0  0  0  0  0  0  0  0  0  0  0  0
   40.2781   23.6466   25.0345 O   0  0  0  0  0  0  0  0  0  0  0  0
   39.1550   24.0574   24.7940 C   0  0  0  0  0  0  0  0  0  0  0  0
   38.8377   25.2644   24.5276 N   0  0  0  0  0  0  0  0  0  0  0  0
   37.5988   25.4089   24.3477 C   0  0  0  0  0  0  0  0  0  0  0  0
   36.8278   24.1507   24.5494 C   0  0  1  0  0  0  0  0  0  0  0  0
   37.9625   23.1709   24.8590 C   0  0  2  0  0  0  0  0  0  0  0  0
  1  2  1  0  0  0  0
  2  3  1  0  0  0  0
  3 20  1  0  0  0  0
  4  5  1  0  0  0  0
  6  7  2  0  0  0  0
  6 12  1  0  0  0  0
  7  8  1  0  0  0  0
  8  9  2  0  0  0  0
  9 11  1  0  0  0  0
 10  5  1  6  0  0  0
 10 11  1  0  0  0  0
 10 16  1  0  0  0  0
 10 27  1  0  0  0  0
 11 12  2  0  0  0  0
 13 12  1  1  0  0  0
 13 15  1  0  0  0  0
 13 28  1  0  0  0  0
 14 15  2  0  0  0  0
 14 19  1  0  0  0  0
 15 16  1  0  0  0  0
 16 17  2  0  0  0  0
 17 18  1  0  0  0  0
 18 19  2  0  0  0  0
 20 21  1  0  0  0  0
 21 25  1  0  0  0  0
 22 26  2  0  0  0  0
 23 24  2  0  0  0  0
 24 25  1  0  0  0  0
 25 26  1  0  0  0  0
 27 26  1  1  0  0  0
 27 28  1  0  0  0  0
 28 24  1  1  0  0  0
M  END
>  <CHROM.1>
174.97653149,176.95256954,77.31176695,-164.15103405,102.14359232,37.76520678
24.44171493,25.42275774,-0.66340590,0.18965575,2.32705697

>  <Name>
ligand

>  <RI>
0

>  <Rbt.Current_Directory>
/home/itssahil/PROJECTS/Mol_Feturizer/New_Systems/rnas/1YLS

>  <Rbt.Executable>
rbdock ($Id: //depot/dev/client3/rdock/2013.1/src/exe/rbdock.cxx#4 $)

>  <Rbt.Library>
libRbt.so (2013.1, Build901 2013/11/27)

>  <Rbt.Parameter_File>
/export/apps/rDock/src/rDock_2013.1_src/data/scripts/dock_solv.prm

>  <Rbt.Receptor>
prm/pocket_docking_8.prm

>  <SCORE>
-37.3476

>  <SCORE.INTER>
-34.0998

>  <SCORE.INTER.CONST>
1

>  <SCORE.INTER.POLAR>
0

>  <SCORE.INTER.ROT>
5

>  <SCORE.INTER.SOLV>
8.0435

>  <SCORE.INTER.VDW>
-32.3477

>  <SCORE.INTER.norm>
-1.21785

>  <SCORE.INTRA>
-3.24778

>  <SCORE.INTRA.DIHEDRAL>
-7.57841

>  <SCORE.INTRA.DIHEDRAL.0>
12.0148

>  <SCORE.INTRA.POLAR>
0

>  <SCORE.INTRA.POLAR.0>
0

>  <SCORE.INTRA.REPUL>
0

>  <SCORE.INTRA.REPUL.0>
0

>  <SCORE.INTRA.SOLV>
0.219668

>  <SCORE.INTRA.SOLV.lig_0>
-10.5235

>  <SCORE.INTRA.VDW>
0.431591

>  <SCORE.INTRA.VDW.0>
-1.38455

>  <SCORE.INTRA.norm>
-0.115992

>  <SCORE.RESTR>
0

>  <SCORE.RESTR.CAVITY>
0

>  <SCORE.RESTR.norm>
0

>  <SCORE.SYSTEM>
0

>  <SCORE.SYSTEM.CONST>
0

>  <SCORE.SYSTEM.DIHEDRAL>
0

>  <SCORE.SYSTEM.SOLV>
0

>  <SCORE.SYSTEM.norm>
0

>  <SCORE.heavy>
28

>  <SCORE.norm>
-1.33384

>  <RMSD>
1.132

$$$$
ligand
 OpenBabel11021811413D
libRbt.so/2013.1/901 2013/11/27
 28 32  0  0  0  0  0  0  0  0999 V2000
   42.5968   28.6031   22.5198 C   0  0  0  0  0  0  0  0  0  0  0  0
   42.5546   27.4252   23.4731 C   0  0  0  0  0  0  0  0  0  0  0  0
   41.6933   26.2943   22.9307 C   0  0  0  0  0  0  0  0  0  0  0  0
   34.1485   24.1651   24.1580 O   0  0  0  0  0  0  0  0  0  0  0  0
   34.7816   24.7370   25.3040 C   0  0  0  0  0  0  0  0  0  0  0  0
   38.6897   24.2257   28.2667 C   0  0  0  0  0  0  0  0  0  0  0  0
   38.3833   25.4123   28.9205 C   0  0  0  0  0  0  0  0  0  0  0  0
   37.2780   26.1613   28.5088 C   0  0  0  0  0  0  0  0  0  0  0  0
   36.4794   25.7262   27.4505 C   0  0  0  0  0  0  0  0  0  0  0  0
   36.0525   23.9607   25.6727 C   0  0  1  0  0  0  0  0  0  0  0  0
   36.7872   24.5342   26.8374 C   0  0  0  0  0  0  0  0  0  0  0  0
   37.8752   23.8034   27.2429 C   0  0  0  0  0  0  0  0  0  0  0  0
   38.1350   22.6050   26.4680 C   0  0  1  0  0  0  0  0  0  0  0  0
   36.8534   20.4907   26.7479 C   0  0  0  0  0  0  0  0  0  0  0  0
   36.9084   21.8279   26.4359 C   0  0  0  0  0  0  0  0  0  0  0  0
   35.7988   22.5170   26.0258 C   0  0  0  0  0  0  0  0  0  0  0  0
   34.5804   21.8632   25.9153 C   0  0  0  0  0  0  0  0  0  0  0  0
   34.5043   20.5092   26.2487 C   0  0  0  0  0  0  0  0  0  0  0  0
   35.6399   19.8278   26.6664 C   0  0  0  0  0  0  0  0  0  0  0  0
   40.2146   26.6331   23.0675 C   0  0  0  0  0  0  0  0  0  0  0  0
   39.7649   26.4819   24.5159 C   0  0  0  0  0  0  0  0  0  0  0  0
   37.1173   26.1811   23.9017 O   0  0  0  0  0  0  0  0  0  0  0  0
   40.5498   23.8961   25.3443 O   0  0  0  0  0  0  0  0  0  0  0  0
   39.4090   24.1368   24.9857 C   0  0  0  0  0  0  0  0  0  0  0  0
   38.9699   25.2662   24.5858 N   0  0  0  0  0  0  0  0  0  0  0  0
   37.7420   25.2338   24.3038 C   0  0  0  0  0  0  0  0  0  0  0  0
   37.1166   23.9077   24.5651 C   0  0  1  0  0  0  0  0  0  0  0  0
   38.3328   23.1120   25.0461 C   0  0  2  0  0  0  0  0  0  0  0  0
  1  2  1  0  0  0  0
  2  3  1  0  0  0  0
  3 20  1  0  0  0  0
  4  5  1  0  0  0  0
  6  7  2  0  0  0  0
  6 12  1  0  0  0  0
  7  8  1  0  0  0  0
  8  9  2  0  0  0  0
  9 11  1  0  0  0  0
 10  5  1  6  0  0  0
 10 11  1  0  0  0  0
 10 16  1  0  0  0  0
 10 27  1  0  0  0  0
 11 12  2  0  0  0  0
 13 12  1  1  0  0  0
 13 15  1  0  0  0  0
 13 28  1  0  0  0  0
 14 15  2  0  0  0  0
 14 19  1  0  0  0  0
 15 16  1  0  0  0  0
 16 17  2  0  0  0  0
 17 18  1  0  0  0  0
 18 19  2  0  0  0  0
 20 21  1  0  0  0  0
 21 25  1  0  0  0  0
 22 26  2  0  0  0  0
 23 24  2  0  0  0  0
 24 25  1  0  0  0  0
 25 26  1  0  0  0  0
 27 26  1  1  0  0  0
 27 28  1  0  0  0  0
 28 24  1  1  0  0  0
M  END
>  <CHROM.1>
-75.40006751,178.13100537,-75.38224694,-106.04367645,98.73672921,37.90255467
24.37353665,25.45952311,0.68321348,-0.41742954,-0.99302971

>  <Name>
ligand

>  <RI>
0

>  <Rbt.Current_Directory>
/home/itssahil/PROJECTS/Mol_Feturizer/New_Systems/rnas/1YLS

>  <Rbt.Executable>
rbdock ($Id: //depot/dev/client3/rdock/2013.1/src/exe/rbdock.cxx#4 $)

>  <Rbt.Library>
libRbt.so (2013.1, Build901 2013/11/27)

>  <Rbt.Parameter_File>
/export/apps/rDock/src/rDock_2013.1_src/data/scripts/dock_solv.prm

>  <Rbt.Receptor>
prm/pocket_docking_3.prm

>  <SCORE>
-34.0142

>  <SCORE.INTER>
-33.6585

>  <SCORE.INTER.CONST>
1

>  <SCORE.INTER.POLAR>
0

>  <SCORE.INTER.ROT>
5

>  <SCORE.INTER.SOLV>
8.39925

>  <SCORE.INTER.VDW>
-32.1721

>  <SCORE.INTER.norm>
-1.20209

>  <SCORE.INTRA>
-0.358794

>  <SCORE.INTRA.DIHEDRAL>
-3.08689

>  <SCORE.INTRA.DIHEDRAL.0>
12.0148

>  <SCORE.INTRA.POLAR>
0

>  <SCORE.INTRA.POLAR.0>
0

>  <SCORE.INTRA.REPUL>
0

>  <SCORE.INTRA.REPUL.0>
0

>  <SCORE.INTRA.SOLV>
0.330922

>  <SCORE.INTRA.SOLV.lig_0>
-10.5235

>  <SCORE.INTRA.VDW>
1.01919

>  <SCORE.INTRA.VDW.0>
-1.38455

>  <SCORE.INTRA.norm>
-0.0128141

>  <SCORE.RESTR>
0.00306685

>  <SCORE.RESTR.CAVITY>
0.00306685

>  <SCORE.RESTR.norm>
0.00010953

>  <SCORE.SYSTEM>
0

>  <SCORE.SYSTEM.CONST>
0

>  <SCORE.SYSTEM.DIHEDRAL>
0

>  <SCORE.SYSTEM.SOLV>
0

>  <SCORE.SYSTEM.norm>
0

>  <SCORE.heavy>
28

>  <SCORE.norm>
-1.21479

>  <RMSD>
1.136

$$$$
ligand
 OpenBabel11021811413D
libRbt.so/2013.1/901 2013/11/27
 28 32  0  0  0  0  0  0  0  0999 V2000
   43.4926   26.2515   22.3559 C   0  0  0  0  0  0  0  0  0  0  0  0
   42.4703   27.3174   22.0147 C   0  0  0  0  0  0  0  0  0  0  0  0
   41.4914   27.5431   23.1574 C   0  0  0  0  0  0  0  0  0  0  0  0
   33.8872   24.7873   24.4083 O   0  0  0  0  0  0  0  0  0  0  0  0
   34.6282   25.1549   25.5732 C   0  0  0  0  0  0  0  0  0  0  0  0
   38.6656   23.9955   28.1553 C   0  0  0  0  0  0  0  0  0  0  0  0
   38.5269   25.1361   28.9358 C   0  0  0  0  0  0  0  0  0  0  0  0
   37.4759   26.0214   28.6831 C   0  0  0  0  0  0  0  0  0  0  0  0
   36.5646   25.7678   27.6572 C   0  0  0  0  0  0  0  0  0  0  0  0
   35.8378   24.2314   25.7674 C   0  0  1  0  0  0  0  0  0  0  0  0
   36.7071   24.6178   26.9165 C   0  0  0  0  0  0  0  0  0  0  0  0
   37.7424   23.7527   27.1660 C   0  0  0  0  0  0  0  0  0  0  0  0
   37.8251   22.6166   26.2680 C   0  0  1  0  0  0  0  0  0  0  0  0
   36.3610   20.6137   26.4579 C   0  0  0  0  0  0  0  0  0  0  0  0
   36.5276   21.9640   26.2643 C   0  0  0  0  0  0  0  0  0  0  0  0
   35.4663   22.7901   26.0081 C   0  0  0  0  0  0  0  0  0  0  0  0
   34.1838   22.2666   25.9370 C   0  0  0  0  0  0  0  0  0  0  0  0
   33.9961   20.8995   26.1521 C   0  0  0  0  0  0  0  0  0  0  0  0
   35.0845   20.0778   26.4145 C   0  0  0  0  0  0  0  0  0  0  0  0
   40.5369   26.3632   23.2871 C   0  0  0  0  0  0  0  0  0  0  0  0
   39.6928   26.4966   24.5490 C   0  0  0  0  0  0  0  0  0  0  0  0
   36.9916   26.5050   24.1243 O   0  0  0  0  0  0  0  0  0  0  0  0
   40.2713   23.7806   25.0755 O   0  0  0  0  0  0  0  0  0  0  0  0
   39.1378   24.1603   24.8325 C   0  0  0  0  0  0  0  0  0  0  0  0
   38.7868   25.3593   24.5725 N   0  0  0  0  0  0  0  0  0  0  0  0
   37.5451   25.4690   24.3880 C   0  0  0  0  0  0  0  0  0  0  0  0
   36.8100   24.1878   24.5779 C   0  0  1  0  0  0  0  0  0  0  0  0
   37.9713   23.2392   24.8863 C   0  0  2  0  0  0  0  0  0  0  0  0
  1  2  1  0  0  0  0
  2  3  1  0  0  0  0
  3 20  1  0  0  0  0
  4  5  1  0  0  0  0
  6  7  2  0  0  0  0
  6 12  1  0  0  0  0
  7  8  1  0  0  0  0
  8  9  2  0  0  0  0
  9 11  1  0  0  0  0
 10  5  1  6  0  0  0
 10 11  1  0  0  0  0
 10 16  1  0  0  0  0
 10 27  1  0  0  0  0
 11 12  2  0  0  0  0
 13 12  1  1  0  0  0
 13 15  1  0  0  0  0
 13 28  1  0  0  0  0
 14 15  2  0  0  0  0
 14 19  1  0  0  0  0
 15 16  1  0  0  0  0
 16 17  2  0  0  0  0
 17 18  1  0  0  0  0
 18 19  2  0  0  0  0
 20 21  1  0  0  0  0
 21 25  1  0  0  0  0
 22 26  2  0  0  0  0
 23 24  2  0  0  0  0
 24 25  1  0  0  0  0
 25 26  1  0  0  0  0
 27 26  1  1  0  0  0
 27 28  1  0  0  0  0
 28 24  1  1  0  0  0
M  END
>  <CHROM.1>
-71.83135938,176.13013313,171.87008078,178.24662526,73.02783485,37.75769148
24.43193064,25.40554076,-0.68601257,0.09445641,2.37168102

>  <Name>
ligand

>  <RI>
0

>  <Rbt.Current_Directory>
/home/itssahil/PROJECTS/Mol_Feturizer/New_Systems/rnas/1YLS

>  <Rbt.Executable>
rbdock ($Id: //depot/dev/client3/rdock/2013.1/src/exe/rbdock.cxx#4 $)

>  <Rbt.Library>
libRbt.so (2013.1, Build901 2013/11/27)

>  <Rbt.Parameter_File>
/export/apps/rDock/src/rDock_2013.1_src/data/scripts/dock_solv.prm

>  <Rbt.Receptor>
prm/pocket_docking_4.prm

>  <SCORE>
-38.2508

>  <SCORE.INTER>
-34.8971

>  <SCORE.INTER.CONST>
1

>  <SCORE.INTER.POLAR>
0

>  <SCORE.INTER.ROT>
5

>  <SCORE.INTER.SOLV>
7.82701

>  <SCORE.INTER.VDW>
-32.8071

>  <SCORE.INTER.norm>
-1.24633

>  <SCORE.INTRA>
-3.35372

>  <SCORE.INTRA.DIHEDRAL>
-8.83142

>  <SCORE.INTRA.DIHEDRAL.0>
12.0148

>  <SCORE.INTRA.POLAR>
0

>  <SCORE.INTRA.POLAR.0>
0

>  <SCORE.INTRA.REPUL>
0

>  <SCORE.INTRA.REPUL.0>
0

>  <SCORE.INTRA.SOLV>
0.164286

>  <SCORE.INTRA.SOLV.lig_0>
-10.5235

>  <SCORE.INTRA.VDW>
0.979848

>  <SCORE.INTRA.VDW.0>
-1.38455

>  <SCORE.INTRA.norm>
-0.119776

>  <SCORE.RESTR>
0

>  <SCORE.RESTR.CAVITY>
0

>  <SCORE.RESTR.norm>
0

>  <SCORE.SYSTEM>
0

>  <SCORE.SYSTEM.CONST>
0

>  <SCORE.SYSTEM.DIHEDRAL>
0

>  <SCORE.SYSTEM.SOLV>
0

>  <SCORE.SYSTEM.norm>
0

>  <SCORE.heavy>
28

>  <SCORE.norm>
-1.3661

>  <RMSD>
1.143

$$$$
ligand
 OpenBabel11021811413D
libRbt.so/2013.1/901 2013/11/27
 28 32  0  0  0  0  0  0  0  0999 V2000
   43.7033   28.4102   22.2900 C   0  0  0  0  0  0  0  0  0  0  0  0
   42.5550   27.4228   22.2240 C   0  0  0  0  0  0  0  0  0  0  0  0
   41.5088   27.7061   23.2918 C   0  0  0  0  0  0  0  0  0  0  0  0
   33.7628   24.8237   24.6211 O   0  0  0  0  0  0  0  0  0  0  0  0
   34.5760   25.2073   25.7313 C   0  0  0  0  0  0  0  0  0  0  0  0
   38.7777   24.0971   28.0606 C   0  0  0  0  0  0  0  0  0  0  0  0
   38.6404   25.2015   28.8917 C   0  0  0  0  0  0  0  0  0  0  0  0
   37.5482   26.0572   28.7271 C   0  0  0  0  0  0  0  0  0  0  0  0
   36.5948   25.8101   27.7387 C   0  0  0  0  0  0  0  0  0  0  0  0
   35.8247   24.3213   25.8281 C   0  0  1  0  0  0  0  0  0  0  0  0
   36.7381   24.6949   26.9468 C   0  0  0  0  0  0  0  0  0  0  0  0
   37.8137   23.8588   27.1098 C   0  0  0  0  0  0  0  0  0  0  0  0
   37.8889   22.7613   26.1644 C   0  0  1  0  0  0  0  0  0  0  0  0
   36.5056   20.7012   26.3474 C   0  0  0  0  0  0  0  0  0  0  0  0
   36.6160   22.0630   26.1995 C   0  0  0  0  0  0  0  0  0  0  0  0
   35.5154   22.8594   26.0296 C   0  0  0  0  0  0  0  0  0  0  0  0
   34.2495   22.2931   26.0019 C   0  0  0  0  0  0  0  0  0  0  0  0
   34.1198   20.9130   26.1716 C   0  0  0  0  0  0  0  0  0  0  0  0
   35.2476   20.1217   26.3465 C   0  0  0  0  0  0  0  0  0  0  0  0
   40.4319   26.6289   23.2869 C   0  0  0  0  0  0  0  0  0  0  0  0
   39.5328   26.7685   24.5097 C   0  0  0  0  0  0  0  0  0  0  0  0
   36.8147   26.6956   24.2210 O   0  0  0  0  0  0  0  0  0  0  0  0
   40.2298   24.0570   24.8984 O   0  0  0  0  0  0  0  0  0  0  0  0
   39.0730   24.4046   24.7276 C   0  0  0  0  0  0  0  0  0  0  0  0
   38.6686   25.5992   24.5332 N   0  0  0  0  0  0  0  0  0  0  0  0
   37.4159   25.6710   24.4153 C   0  0  0  0  0  0  0  0  0  0  0  0
   36.7356   24.3578   24.5907 C   0  0  1  0  0  0  0  0  0  0  0  0
   37.9428   23.4407   24.8029 C   0  0  2  0  0  0  0  0  0  0  0  0
  1  2  1  0  0  0  0
  2  3  1  0  0  0  0
  3 20  1  0  0  0  0
  4  5  1  0  0  0  0
  6  7  2  0  0  0  0
  6 12  1  0  0  0  0
  7  8  1  0  0  0  0
  8  9  2  0  0  0  0
  9 11  1  0  0  0  0
 10  5  1  6  0  0  0
 10 11  1  0  0  0  0
 10 16  1  0  0  0  0
 10 27  1  0  0  0  0
 11 12  2  0  0  0  0
 13 12  1  1  0  0  0
 13 15  1  0  0  0  0
 13 28  1  0  0  0  0
 14 15  2  0  0  0  0
 14 19  1  0  0  0  0
 15 16  1  0  0  0  0
 16 17  2  0  0  0  0
 17 18  1  0  0  0  0
 18 19  2  0  0  0  0
 20 21  1  0  0  0  0
 21 25  1  0  0  0  0
 22 26  2  0  0  0  0
 23 24  2  0  0  0  0
 24 25  1  0  0  0  0
 25 26  1  0  0  0  0
 27 26  1  1  0  0  0
 27 28  1  0  0  0  0
 28 24  1  1  0  0  0
M  END
>  <CHROM.1>
-174.86815644,178.38425179,169.63600239,-171.77005835,66.47014832,37.76535702
24.64562256,25.41226289,-0.71434132,0.18139979,2.35550653

>  <Name>
ligand

>  <RI>
0

>  <Rbt.Current_Directory>
/home/itssahil/PROJECTS/Mol_Feturizer/New_Systems/rnas/1YLS

>  <Rbt.Executable>
rbdock ($Id: //depot/dev/client3/rdock/2013.1/src/exe/rbdock.cxx#4 $)

>  <Rbt.Library>
libRbt.so (2013.1, Build901 2013/11/27)

>  <Rbt.Parameter_File>
/export/apps/rDock/src/rDock_2013.1_src/data/scripts/dock_solv.prm

>  <Rbt.Receptor>
prm/pocket_docking_6.prm

>  <SCORE>
-38.712

>  <SCORE.INTER>
-34.685

>  <SCORE.INTER.CONST>
1

>  <SCORE.INTER.POLAR>
0

>  <SCORE.INTER.ROT>
5

>  <SCORE.INTER.SOLV>
8.18979

>  <SCORE.INTER.VDW>
-32.7866

>  <SCORE.INTER.norm>
-1.23875

>  <SCORE.INTRA>
-4.02701

>  <SCORE.INTRA.DIHEDRAL>
-8.85747

>  <SCORE.INTRA.DIHEDRAL.0>
12.0148

>  <SCORE.INTRA.POLAR>
0

>  <SCORE.INTRA.POLAR.0>
0

>  <SCORE.INTRA.REPUL>
0

>  <SCORE.INTRA.REPUL.0>
0

>  <SCORE.INTRA.SOLV>
0.186501

>  <SCORE.INTRA.SOLV.lig_0>
-10.5235

>  <SCORE.INTRA.VDW>
0.308471

>  <SCORE.INTRA.VDW.0>
-1.38455

>  <SCORE.INTRA.norm>
-0.143822

>  <SCORE.RESTR>
0

>  <SCORE.RESTR.CAVITY>
0

>  <SCORE.RESTR.norm>
0

>  <SCORE.SYSTEM>
0

>  <SCORE.SYSTEM.CONST>
0

>  <SCORE.SYSTEM.DIHEDRAL>
0

>  <SCORE.SYSTEM.SOLV>
0

>  <SCORE.SYSTEM.norm>
0

>  <SCORE.heavy>
28

>  <SCORE.norm>
-1.38257

>  <RMSD>
1.143

$$$$
ligand
 OpenBabel11021811413D
libRbt.so/2013.1/901 2013/11/27
 28 32  0  0  0  0  0  0  0  0999 V2000
   43.3859   26.3230   22.2387 C   0  0  0  0  0  0  0  0  0  0  0  0
   42.4489   27.5044   22.0821 C   0  0  0  0  0  0  0  0  0  0  0  0
   41.5476   27.6711   23.2965 C   0  0  0  0  0  0  0  0  0  0  0  0
   33.7726   24.8212   24.6647 O   0  0  0  0  0  0  0  0  0  0  0  0
   34.6199   25.2327   25.7390 C   0  0  0  0  0  0  0  0  0  0  0  0
   38.7832   24.0451   28.0987 C   0  0  0  0  0  0  0  0  0  0  0  0
   38.6569   25.1483   28.9331 C   0  0  0  0  0  0  0  0  0  0  0  0
   37.5803   26.0225   28.7628 C   0  0  0  0  0  0  0  0  0  0  0  0
   36.6313   25.7947   27.7655 C   0  0  0  0  0  0  0  0  0  0  0  0
   35.8532   24.3261   25.8426 C   0  0  1  0  0  0  0  0  0  0  0  0
   36.7631   24.6804   26.9704 C   0  0  0  0  0  0  0  0  0  0  0  0
   37.8235   23.8263   27.1390 C   0  0  0  0  0  0  0  0  0  0  0  0
   37.8888   22.7314   26.1898 C   0  0  1  0  0  0  0  0  0  0  0  0
   36.4706   20.6934   26.3530 C   0  0  0  0  0  0  0  0  0  0  0  0
   36.6044   22.0538   26.2115 C   0  0  0  0  0  0  0  0  0  0  0  0
   35.5184   22.8688   26.0357 C   0  0  0  0  0  0  0  0  0  0  0  0
   34.2437   22.3232   25.9951 C   0  0  0  0  0  0  0  0  0  0  0  0
   34.0901   20.9448   26.1582 C   0  0  0  0  0  0  0  0  0  0  0  0
   35.2033   20.1345   26.3393 C   0  0  0  0  0  0  0  0  0  0  0  0
   40.4337   26.6322   23.2846 C   0  0  0  0  0  0  0  0  0  0  0  0
   39.6115   26.7176   24.5650 C   0  0  0  0  0  0  0  0  0  0  0  0
   36.8950   26.6902   24.2533 O   0  0  0  0  0  0  0  0  0  0  0  0
   40.2609   23.9937   24.9486 O   0  0  0  0  0  0  0  0  0  0  0  0
   39.1115   24.3607   24.7695 C   0  0  0  0  0  0  0  0  0  0  0  0
   38.7281   25.5625   24.5766 N   0  0  0  0  0  0  0  0  0  0  0  0
   37.4779   25.6552   24.4486 C   0  0  0  0  0  0  0  0  0  0  0  0
   36.7749   24.3526   24.6131 C   0  0  1  0  0  0  0  0  0  0  0  0
   37.9651   23.4151   24.8316 C   0  0  2  0  0  0  0  0  0  0  0  0
  1  2  1  0  0  0  0
  2  3  1  0  0  0  0
  3 20  1  0  0  0  0
  4  5  1  0  0  0  0
  6  7  2  0  0  0  0
  6 12  1  0  0  0  0
  7  8  1  0  0  0  0
  8  9  2  0  0  0  0
  9 11  1  0  0  0  0
 10  5  1  6  0  0  0
 10 11  1  0  0  0  0
 10 16  1  0  0  0  0
 10 27  1  0  0  0  0
 11 12  2  0  0  0  0
 13 12  1  1  0  0  0
 13 15  1  0  0  0  0
 13 28  1  0  0  0  0
 14 15  2  0  0  0  0
 14 19  1  0  0  0  0
 15 16  1  0  0  0  0
 16 17  2  0  0  0  0
 17 18  1  0  0  0  0
 18 19  2  0  0  0  0
 20 21  1  0  0  0  0
 21 25  1  0  0  0  0
 22 26  2  0  0  0  0
 23 24  2  0  0  0  0
 24 25  1  0  0  0  0
 25 26  1  0  0  0  0
 27 26  1  1  0  0  0
 27 28  1  0  0  0  0
 28 24  1  1  0  0  0
M  END
>  <CHROM.1>
-76.11550966,-178.45609898,174.72742554,-170.57451205,71.35314882,37.76857453
24.54802428,25.42631991,-0.69472167,-0.11282077,2.63073610

>  <Name>
ligand

>  <RI>
0

>  <Rbt.Current_Directory>
/home/itssahil/PROJECTS/Mol_Feturizer/New_Systems/rnas/1YLS

>  <Rbt.Executable>
rbdock ($Id: //depot/dev/client3/rdock/2013.1/src/exe/rbdock.cxx#4 $)

>  <Rbt.Library>
libRbt.so (2013.1, Build901 2013/11/27)

>  <Rbt.Parameter_File>
/export/apps/rDock/src/rDock_2013.1_src/data/scripts/dock_solv.prm

>  <Rbt.Receptor>
prm/pocket_docking_3.prm

>  <SCORE>
-37.9857

>  <SCORE.INTER>
-34.8027

>  <SCORE.INTER.CONST>
1

>  <SCORE.INTER.POLAR>
0

>  <SCORE.INTER.ROT>
5

>  <SCORE.INTER.SOLV>
7.80851

>  <SCORE.INTER.VDW>
-32.7379

>  <SCORE.INTER.norm>
-1.24295

>  <SCORE.INTRA>
-3.183

>  <SCORE.INTRA.DIHEDRAL>
-8.21977

>  <SCORE.INTRA.DIHEDRAL.0>
12.0148

>  <SCORE.INTRA.POLAR>
0

>  <SCORE.INTRA.POLAR.0>
0

>  <SCORE.INTRA.REPUL>
0

>  <SCORE.INTRA.REPUL.0>
0

>  <SCORE.INTRA.SOLV>
0.149382

>  <SCORE.INTRA.SOLV.lig_0>
-10.5235

>  <SCORE.INTRA.VDW>
0.852196

>  <SCORE.INTRA.VDW.0>
-1.38455

>  <SCORE.INTRA.norm>
-0.113678

>  <SCORE.RESTR>
0

>  <SCORE.RESTR.CAVITY>
0

>  <SCORE.RESTR.norm>
0

>  <SCORE.SYSTEM>
0

>  <SCORE.SYSTEM.CONST>
0

>  <SCORE.SYSTEM.DIHEDRAL>
0

>  <SCORE.SYSTEM.SOLV>
0

>  <SCORE.SYSTEM.norm>
0

>  <SCORE.heavy>
28

>  <SCORE.norm>
-1.35663

>  <RMSD>
1.144

$$$$
ligand
 OpenBabel11021811413D
libRbt.so/2013.1/901 2013/11/27
 28 32  0  0  0  0  0  0  0  0999 V2000
   42.2963   27.0533   21.8263 C   0  0  0  0  0  0  0  0  0  0  0  0
   42.4726   27.4614   23.2756 C   0  0  0  0  0  0  0  0  0  0  0  0
   43.0292   26.3219   24.1161 C   0  0  0  0  0  0  0  0  0  0  0  0
   34.4887   24.4732   25.8434 O   0  0  0  0  0  0  0  0  0  0  0  0
   35.6243   24.3116   24.9917 C   0  0  0  0  0  0  0  0  0  0  0  0
   38.8380   23.9563   28.7145 C   0  0  0  0  0  0  0  0  0  0  0  0
   38.5185   25.2366   29.1481 C   0  0  0  0  0  0  0  0  0  0  0  0
   37.5818   25.9919   28.4379 C   0  0  0  0  0  0  0  0  0  0  0  0
   36.9638   25.4703   27.3008 C   0  0  0  0  0  0  0  0  0  0  0  0
   36.7288   23.5132   25.6963 C   0  0  1  0  0  0  0  0  0  0  0  0
   37.2763   24.1900   26.9077 C   0  0  0  0  0  0  0  0  0  0  0  0
   38.1989   23.4529   27.6062 C   0  0  0  0  0  0  0  0  0  0  0  0
   38.4948   22.1477   27.0469 C   0  0  1  0  0  0  0  0  0  0  0  0
   37.0025   20.1748   27.3145 C   0  0  0  0  0  0  0  0  0  0  0  0
   37.2332   21.4521   26.8631 C   0  0  0  0  0  0  0  0  0  0  0  0
   36.2866   22.1486   26.1607 C   0  0  0  0  0  0  0  0  0  0  0  0
   35.0588   21.5639   25.8876 C   0  0  0  0  0  0  0  0  0  0  0  0
   34.8019   20.2742   26.3577 C   0  0  0  0  0  0  0  0  0  0  0  0
   35.7730   19.5847   27.0718 C   0  0  0  0  0  0  0  0  0  0  0  0
   42.0217   25.1835   24.2112 C   0  0  0  0  0  0  0  0  0  0  0  0
   40.8004   25.6182   25.0128 C   0  0  0  0  0  0  0  0  0  0  0  0
   38.3018   25.4052   23.9226 O   0  0  0  0  0  0  0  0  0  0  0  0
   41.1831   23.1222   26.2827 O   0  0  0  0  0  0  0  0  0  0  0  0
   40.1569   23.3841   25.6774 C   0  0  0  0  0  0  0  0  0  0  0  0
   39.9028   24.4753   25.0665 N   0  0  0  0  0  0  0  0  0  0  0  0
   38.7529   24.4828   24.5509 C   0  0  0  0  0  0  0  0  0  0  0  0
   37.9751   23.2456   24.8379 C   0  0  1  0  0  0  0  0  0  0  0  0
   39.0029   22.4464   25.6431 C   0  0  2  0  0  0  0  0  0  0  0  0
  1  2  1  0  0  0  0
  2  3  1  0  0  0  0
  3 20  1  0  0  0  0
  4  5  1  0  0  0  0
  6  7  2  0  0  0  0
  6 12  1  0  0  0  0
  7  8  1  0  0  0  0
  8  9  2  0  0  0  0
  9 11  1  0  0  0  0
 10  5  1  6  0  0  0
 10 11  1  0  0  0  0
 10 16  1  0  0  0  0
 10 27  1  0  0  0  0
 11 12  2  0  0  0  0
 13 12  1  1  0  0  0
 13 15  1  0  0  0  0
 13 28  1  0  0  0  0
 14 15  2  0  0  0  0
 14 19  1  0  0  0  0
 15 16  1  0  0  0  0
 16 17  2  0  0  0  0
 17 18  1  0  0  0  0
 18 19  2  0  0  0  0
 20 21  1  0  0  0  0
 21 25  1  0  0  0  0
 22 26  2  0  0  0  0
 23 24  2  0  0  0  0
 24 25  1  0  0  0  0
 25 26  1  0  0  0  0
 27 26  1  1  0  0  0
 27 28  1  0  0  0  0
 28 24  1  1  0  0  0
M  END
>  <CHROM.1>
-66.38692844,-63.10926046,-67.22503579,-179.38923885,66.37605786,38.47925169
23.88414485,25.81870976,0.72688359,0.00129780,-0.59769505

>  <Name>
ligand

>  <RI>
0

>  <Rbt.Current_Directory>
/home/itssahil/PROJECTS/Mol_Feturizer/New_Systems/rnas/1YLS

>  <Rbt.Executable>
rbdock ($Id: //depot/dev/client3/rdock/2013.1/src/exe/rbdock.cxx#4 $)

>  <Rbt.Library>
libRbt.so (2013.1, Build901 2013/11/27)

>  <Rbt.Parameter_File>
/export/apps/rDock/src/rDock_2013.1_src/data/scripts/dock_solv.prm

>  <Rbt.Receptor>
prm/pocket_docking_8.prm

>  <SCORE>
-34.3796

>  <SCORE.INTER>
-31.8942

>  <SCORE.INTER.CONST>
1

>  <SCORE.INTER.POLAR>
0

>  <SCORE.INTER.ROT>
5

>  <SCORE.INTER.SOLV>
6.42384

>  <SCORE.INTER.VDW>
-30.3374

>  <SCORE.INTER.norm>
-1.13908

>  <SCORE.INTRA>
-2.48542

>  <SCORE.INTRA.DIHEDRAL>
-9.25297

>  <SCORE.INTRA.DIHEDRAL.0>
12.0148

>  <SCORE.INTRA.POLAR>
0

>  <SCORE.INTRA.POLAR.0>
0

>  <SCORE.INTRA.REPUL>
0

>  <SCORE.INTRA.REPUL.0>
0

>  <SCORE.INTRA.SOLV>
-0.0218094

>  <SCORE.INTRA.SOLV.lig_0>
-10.5235

>  <SCORE.INTRA.VDW>
2.15197

>  <SCORE.INTRA.VDW.0>
-1.38455

>  <SCORE.INTRA.norm>
-0.0887649

>  <SCORE.RESTR>
0

>  <SCORE.RESTR.CAVITY>
0

>  <SCORE.RESTR.norm>
0

>  <SCORE.SYSTEM>
0

>  <SCORE.SYSTEM.CONST>
0

>  <SCORE.SYSTEM.DIHEDRAL>
0

>  <SCORE.SYSTEM.SOLV>
0

>  <SCORE.SYSTEM.norm>
0

>  <SCORE.heavy>
28

>  <SCORE.norm>
-1.22784

>  <RMSD>
1.144

$$$$
ligand
 OpenBabel11021811413D
libRbt.so/2013.1/901 2013/11/27
 28 32  0  0  0  0  0  0  0  0999 V2000
   43.7097   28.4266   22.2955 C   0  0  0  0  0  0  0  0  0  0  0  0
   42.5474   27.4561   22.2238 C   0  0  0  0  0  0  0  0  0  0  0  0
   41.5375   27.7063   23.3339 C   0  0  0  0  0  0  0  0  0  0  0  0
   33.7462   24.8546   24.6645 O   0  0  0  0  0  0  0  0  0  0  0  0
   34.5752   25.2347   25.7642 C   0  0  0  0  0  0  0  0  0  0  0  0
   38.7967   24.0998   28.0455 C   0  0  0  0  0  0  0  0  0  0  0  0
   38.6675   25.1964   28.8881 C   0  0  0  0  0  0  0  0  0  0  0  0
   37.5746   26.0544   28.7413 C   0  0  0  0  0  0  0  0  0  0  0  0
   36.6122   25.8172   27.7591 C   0  0  0  0  0  0  0  0  0  0  0  0
   35.8241   24.3470   25.8415 C   0  0  1  0  0  0  0  0  0  0  0  0
   36.7477   24.7094   26.9555 C   0  0  0  0  0  0  0  0  0  0  0  0
   37.8241   23.8712   27.1011 C   0  0  0  0  0  0  0  0  0  0  0  0
   37.8901   22.7826   26.1447 C   0  0  1  0  0  0  0  0  0  0  0  0
   36.5069   20.7217   26.3207 C   0  0  0  0  0  0  0  0  0  0  0  0
   36.6169   22.0848   26.1846 C   0  0  0  0  0  0  0  0  0  0  0  0
   35.5156   22.8835   26.0320 C   0  0  0  0  0  0  0  0  0  0  0  0
   34.2490   22.3183   26.0103 C   0  0  0  0  0  0  0  0  0  0  0  0
   34.1198   20.9367   26.1681 C   0  0  0  0  0  0  0  0  0  0  0  0
   35.2485   20.1431   26.3255 C   0  0  0  0  0  0  0  0  0  0  0  0
   40.4307   26.6605   23.2980 C   0  0  0  0  0  0  0  0  0  0  0  0
   39.5222   26.8041   24.5133 C   0  0  0  0  0  0  0  0  0  0  0  0
   36.8015   26.7357   24.2480 O   0  0  0  0  0  0  0  0  0  0  0  0
   40.2205   24.0886   24.8703 O   0  0  0  0  0  0  0  0  0  0  0  0
   39.0626   24.4385   24.7130 C   0  0  0  0  0  0  0  0  0  0  0  0
   38.6573   25.6351   24.5334 N   0  0  0  0  0  0  0  0  0  0  0  0
   37.4037   25.7089   24.4274 C   0  0  0  0  0  0  0  0  0  0  0  0
   36.7240   24.3946   24.5965 C   0  0  1  0  0  0  0  0  0  0  0  0
   37.9324   23.4747   24.7893 C   0  0  2  0  0  0  0  0  0  0  0  0
  1  2  1  0  0  0  0
  2  3  1  0  0  0  0
  3 20  1  0  0  0  0
  4  5  1  0  0  0  0
  6  7  2  0  0  0  0
  6 12  1  0  0  0  0
  7  8  1  0  0  0  0
  8  9  2  0  0  0  0
  9 11  1  0  0  0  0
 10  5  1  6  0  0  0
 10 11  1  0  0  0  0
 10 16  1  0  0  0  0
 10 27  1  0  0  0  0
 11 12  2  0  0  0  0
 13 12  1  1  0  0  0
 13 15  1  0  0  0  0
 13 28  1  0  0  0  0
 14 15  2  0  0  0  0
 14 19  1  0  0  0  0
 15 16  1  0  0  0  0
 16 17  2  0  0  0  0
 17 18  1  0  0  0  0
 18 19  2  0  0  0  0
 20 21  1  0  0  0  0
 21 25  1  0  0  0  0
 22 26  2  0  0  0  0
 23 24  2  0  0  0  0
 24 25  1  0  0  0  0
 25 26  1  0  0  0  0
 27 26  1  1  0  0  0
 27 28  1  0  0  0  0
 28 24  1  1  0  0  0
M  END
>  <CHROM.1>
-176.11806521,178.88285472,172.73036194,-169.76155994,65.27721112,37.76599244
24.66894226,25.41586752,-0.71692804,0.15995800,2.38146081

>  <Name>
ligand

>  <RI>
0

>  <Rbt.Current_Directory>
/home/itssahil/PROJECTS/Mol_Feturizer/New_Systems/rnas/1YLS

>  <Rbt.Executable>
rbdock ($Id: //depot/dev/client3/rdock/2013.1/src/exe/rbdock.cxx#4 $)

>  <Rbt.Library>
libRbt.so (2013.1, Build901 2013/11/27)

>  <Rbt.Parameter_File>
/export/apps/rDock/src/rDock_2013.1_src/data/scripts/dock_solv.prm

>  <Rbt.Receptor>
prm/pocket_docking_6.prm

>  <SCORE>
-38.746

>  <SCORE.INTER>
-34.7072

>  <SCORE.INTER.CONST>
1

>  <SCORE.INTER.POLAR>
0

>  <SCORE.INTER.ROT>
5

>  <SCORE.INTER.SOLV>
8.19774

>  <SCORE.INTER.VDW>
-32.8041

>  <SCORE.INTER.norm>
-1.23954

>  <SCORE.INTRA>
-4.03873

>  <SCORE.INTRA.DIHEDRAL>
-8.9811

>  <SCORE.INTRA.DIHEDRAL.0>
12.0148

>  <SCORE.INTRA.POLAR>
0

>  <SCORE.INTRA.POLAR.0>
0

>  <SCORE.INTRA.REPUL>
0

>  <SCORE.INTRA.REPUL.0>
0

>  <SCORE.INTRA.SOLV>
0.188725

>  <SCORE.INTRA.SOLV.lig_0>
-10.5235

>  <SCORE.INTRA.VDW>
0.357462

>  <SCORE.INTRA.VDW.0>
-1.38455

>  <SCORE.INTRA.norm>
-0.14424

>  <SCORE.RESTR>
0

>  <SCORE.RESTR.CAVITY>
0

>  <SCORE.RESTR.norm>
0

>  <SCORE.SYSTEM>
0

>  <SCORE.SYSTEM.CONST>
0

>  <SCORE.SYSTEM.DIHEDRAL>
0

>  <SCORE.SYSTEM.SOLV>
0

>  <SCORE.SYSTEM.norm>
0

>  <SCORE.heavy>
28

>  <SCORE.norm>
-1.38378

>  <RMSD>
1.147

$$$$
ligand
 OpenBabel11021811413D
libRbt.so/2013.1/901 2013/11/27
 28 32  0  0  0  0  0  0  0  0999 V2000
   43.4059   28.7052   22.1977 C   0  0  0  0  0  0  0  0  0  0  0  0
   42.4658   27.5173   22.2536 C   0  0  0  0  0  0  0  0  0  0  0  0
   42.1527   27.1160   23.6873 C   0  0  0  0  0  0  0  0  0  0  0  0
   34.8972   24.5529   24.3448 O   0  0  0  0  0  0  0  0  0  0  0  0
   35.5540   24.8934   25.5670 C   0  0  0  0  0  0  0  0  0  0  0  0
   39.0721   23.3640   28.6649 C   0  0  0  0  0  0  0  0  0  0  0  0
   38.9818   24.5437   29.3926 C   0  0  0  0  0  0  0  0  0  0  0  0
   38.0872   25.5376   28.9874 C   0  0  0  0  0  0  0  0  0  0  0  0
   37.2833   25.3536   27.8618 C   0  0  0  0  0  0  0  0  0  0  0  0
   36.6071   23.8402   25.9351 C   0  0  1  0  0  0  0  0  0  0  0  0
   37.3712   24.1658   27.1743 C   0  0  0  0  0  0  0  0  0  0  0  0
   38.2531   23.1938   27.5739 C   0  0  0  0  0  0  0  0  0  0  0  0
   38.3031   22.0205   26.7224 C   0  0  1  0  0  0  0  0  0  0  0  0
   36.5899   20.2168   26.7772 C   0  0  0  0  0  0  0  0  0  0  0  0
   36.9449   21.5285   26.5720 C   0  0  0  0  0  0  0  0  0  0  0  0
   36.0334   22.4648   26.1636 C   0  0  0  0  0  0  0  0  0  0  0  0
   34.7141   22.0962   25.9450 C   0  0  0  0  0  0  0  0  0  0  0  0
   34.3337   20.7714   26.1693 C   0  0  0  0  0  0  0  0  0  0  0  0
   35.2717   19.8365   26.5871 C   0  0  0  0  0  0  0  0  0  0  0  0
   41.1596   25.9614   23.7166 C   0  0  0  0  0  0  0  0  0  0  0  0
   40.8326   25.5759   25.1544 C   0  0  0  0  0  0  0  0  0  0  0  0
   38.2252   25.8907   24.3932 O   0  0  0  0  0  0  0  0  0  0  0  0
   41.0016   22.8336   25.8180 O   0  0  0  0  0  0  0  0  0  0  0  0
   39.9620   23.3363   25.4248 C   0  0  0  0  0  0  0  0  0  0  0  0
   39.7966   24.5572   25.0925 N   0  0  0  0  0  0  0  0  0  0  0  0
   38.6098   24.8074   24.7505 C   0  0  0  0  0  0  0  0  0  0  0  0
   37.7039   23.6322   24.8789 C   0  0  1  0  0  0  0  0  0  0  0  0
   38.6924   22.5645   25.3548 C   0  0  2  0  0  0  0  0  0  0  0  0
  1  2  1  0  0  0  0
  2  3  1  0  0  0  0
  3 20  1  0  0  0  0
  4  5  1  0  0  0  0
  6  7  2  0  0  0  0
  6 12  1  0  0  0  0
  7  8  1  0  0  0  0
  8  9  2  0  0  0  0
  9 11  1  0  0  0  0
 10  5  1  6  0  0  0
 10 11  1  0  0  0  0
 10 16  1  0  0  0  0
 10 27  1  0  0  0  0
 11 12  2  0  0  0  0
 13 12  1  1  0  0  0
 13 15  1  0  0  0  0
 13 28  1  0  0  0  0
 14 15  2  0  0  0  0
 14 19  1  0  0  0  0
 15 16  1  0  0  0  0
 16 17  2  0  0  0  0
 17 18  1  0  0  0  0
 18 19  2  0  0  0  0
 20 21  1  0  0  0  0
 21 25  1  0  0  0  0
 22 26  2  0  0  0  0
 23 24  2  0  0  0  0
 24 25  1  0  0  0  0
 25 26  1  0  0  0  0
 27 26  1  1  0  0  0
 27 28  1  0  0  0  0
 28 24  1  1  0  0  0
M  END
>  <CHROM.1>
177.50112399,177.58087921,-179.15888061,175.01507391,112.01780570,38.39689084
24.06943060,25.71173559,0.68388188,-0.41497552,-1.02656607

>  <Name>
ligand

>  <RI>
0

>  <Rbt.Current_Directory>
/home/itssahil/PROJECTS/Mol_Feturizer/New_Systems/rnas/1YLS

>  <Rbt.Executable>
rbdock ($Id: //depot/dev/client3/rdock/2013.1/src/exe/rbdock.cxx#4 $)

>  <Rbt.Library>
libRbt.so (2013.1, Build901 2013/11/27)

>  <Rbt.Parameter_File>
/export/apps/rDock/src/rDock_2013.1_src/data/scripts/dock_solv.prm

>  <Rbt.Receptor>
prm/pocket_docking_4.prm

>  <SCORE>
-36.5

>  <SCORE.INTER>
-32.1673

>  <SCORE.INTER.CONST>
1

>  <SCORE.INTER.POLAR>
0

>  <SCORE.INTER.ROT>
5

>  <SCORE.INTER.SOLV>
6.86202

>  <SCORE.INTER.VDW>
-30.6655

>  <SCORE.INTER.norm>
-1.14883

>  <SCORE.INTRA>
-4.33276

>  <SCORE.INTRA.DIHEDRAL>
-9.57028

>  <SCORE.INTRA.DIHEDRAL.0>
12.0148

>  <SCORE.INTRA.POLAR>
0

>  <SCORE.INTRA.POLAR.0>
0

>  <SCORE.INTRA.REPUL>
0

>  <SCORE.INTRA.REPUL.0>
0

>  <SCORE.INTRA.SOLV>
0.177693

>  <SCORE.INTRA.SOLV.lig_0>
-10.5235

>  <SCORE.INTRA.VDW>
0.363535

>  <SCORE.INTRA.VDW.0>
-1.38455

>  <SCORE.INTRA.norm>
-0.154741

>  <SCORE.RESTR>
0

>  <SCORE.RESTR.CAVITY>
0

>  <SCORE.RESTR.norm>
0

>  <SCORE.SYSTEM>
0

>  <SCORE.SYSTEM.CONST>
0

>  <SCORE.SYSTEM.DIHEDRAL>
0

>  <SCORE.SYSTEM.SOLV>
0

>  <SCORE.SYSTEM.norm>
0

>  <SCORE.heavy>
28

>  <SCORE.norm>
-1.30357

>  <RMSD>
1.148

$$$$
ligand
 OpenBabel11021811413D
libRbt.so/2013.1/901 2013/11/27
 28 32  0  0  0  0  0  0  0  0999 V2000
   42.6810   28.6063   22.4191 C   0  0  0  0  0  0  0  0  0  0  0  0
   42.5552   27.1243   22.1262 C   0  0  0  0  0  0  0  0  0  0  0  0
   41.8085   26.3946   23.2330 C   0  0  0  0  0  0  0  0  0  0  0  0
   33.8866   24.8841   24.5271 O   0  0  0  0  0  0  0  0  0  0  0  0
   34.6687   25.2416   25.6679 C   0  0  0  0  0  0  0  0  0  0  0  0
   38.7744   24.0370   28.1184 C   0  0  0  0  0  0  0  0  0  0  0  0
   38.6485   25.1549   28.9331 C   0  0  0  0  0  0  0  0  0  0  0  0
   37.5867   26.0403   28.7304 C   0  0  0  0  0  0  0  0  0  0  0  0
   36.6521   25.8092   27.7204 C   0  0  0  0  0  0  0  0  0  0  0  0
   35.8878   24.3207   25.8073 C   0  0  1  0  0  0  0  0  0  0  0  0
   36.7827   24.6808   26.9451 C   0  0  0  0  0  0  0  0  0  0  0  0
   37.8286   23.8157   27.1455 C   0  0  0  0  0  0  0  0  0  0  0  0
   37.8956   22.7051   26.2149 C   0  0  1  0  0  0  0  0  0  0  0  0
   36.4477   20.6887   26.3851 C   0  0  0  0  0  0  0  0  0  0  0  0
   36.6020   22.0448   26.2247 C   0  0  0  0  0  0  0  0  0  0  0  0
   35.5303   22.8711   26.0172 C   0  0  0  0  0  0  0  0  0  0  0  0
   34.2493   22.3418   25.9629 C   0  0  0  0  0  0  0  0  0  0  0  0
   34.0745   20.9682   26.1447 C   0  0  0  0  0  0  0  0  0  0  0  0
   35.1734   20.1464   26.3579 C   0  0  0  0  0  0  0  0  0  0  0  0
   40.3179   26.7007   23.1667 C   0  0  0  0  0  0  0  0  0  0  0  0
   39.6993   26.6422   24.5584 C   0  0  0  0  0  0  0  0  0  0  0  0
   36.9885   26.6455   24.1998 O   0  0  0  0  0  0  0  0  0  0  0  0
   40.3055   23.9163   24.9958 O   0  0  0  0  0  0  0  0  0  0  0  0
   39.1643   24.2955   24.7909 C   0  0  0  0  0  0  0  0  0  0  0  0
   38.8005   25.4990   24.5726 N   0  0  0  0  0  0  0  0  0  0  0  0
   37.5540   25.6061   24.4213 C   0  0  0  0  0  0  0  0  0  0  0  0
   36.8309   24.3156   24.5938 C   0  0  1  0  0  0  0  0  0  0  0  0
   38.0045   23.3661   24.8477 C   0  0  2  0  0  0  0  0  0  0  0  0
  1  2  1  0  0  0  0
  2  3  1  0  0  0  0
  3 20  1  0  0  0  0
  4  5  1  0  0  0  0
  6  7  2  0  0  0  0
  6 12  1  0  0  0  0
  7  8  1  0  0  0  0
  8  9  2  0  0  0  0
  9 11  1  0  0  0  0
 10  5  1  6  0  0  0
 10 11  1  0  0  0  0
 10 16  1  0  0  0  0
 10 27  1  0  0  0  0
 11 12  2  0  0  0  0
 13 12  1  1  0  0  0
 13 15  1  0  0  0  0
 13 28  1  0  0  0  0
 14 15  2  0  0  0  0
 14 19  1  0  0  0  0
 15 16  1  0  0  0  0
 16 17  2  0  0  0  0
 17 18  1  0  0  0  0
 18 19  2  0  0  0  0
 20 21  1  0  0  0  0
 21 25  1  0  0  0  0
 22 26  2  0  0  0  0
 23 24  2  0  0  0  0
 24 25  1  0  0  0  0
 25 26  1  0  0  0  0
 27 26  1  1  0  0  0
 27 28  1  0  0  0  0
 28 24  1  1  0  0  0
M  END
>  <CHROM.1>
74.20253653,177.31937043,-149.90580826,-112.63719467,83.62343666,37.77665046
24.56751476,25.41596663,0.70285036,-0.24483783,-0.88430328

>  <Name>
ligand

>  <RI>
0

>  <Rbt.Current_Directory>
/home/itssahil/PROJECTS/Mol_Feturizer/New_Systems/rnas/1YLS

>  <Rbt.Executable>
rbdock ($Id: //depot/dev/client3/rdock/2013.1/src/exe/rbdock.cxx#4 $)

>  <Rbt.Library>
libRbt.so (2013.1, Build901 2013/11/27)

>  <Rbt.Parameter_File>
/export/apps/rDock/src/rDock_2013.1_src/data/scripts/dock_solv.prm

>  <Rbt.Receptor>
prm/pocket_docking_4.prm

>  <SCORE>
-34.6512

>  <SCORE.INTER>
-35.1111

>  <SCORE.INTER.CONST>
1

>  <SCORE.INTER.POLAR>
0

>  <SCORE.INTER.ROT>
5

>  <SCORE.INTER.SOLV>
7.89108

>  <SCORE.INTER.VDW>
-32.9711

>  <SCORE.INTER.norm>
-1.25397

>  <SCORE.INTRA>
0.459918

>  <SCORE.INTRA.DIHEDRAL>
-0.572098

>  <SCORE.INTRA.DIHEDRAL.0>
12.0148

>  <SCORE.INTRA.POLAR>
0

>  <SCORE.INTRA.POLAR.0>
0

>  <SCORE.INTRA.REPUL>
0

>  <SCORE.INTRA.REPUL.0>
0

>  <SCORE.INTRA.SOLV>
0.314255

>  <SCORE.INTRA.SOLV.lig_0>
-10.5235

>  <SCORE.INTRA.VDW>
0.588839

>  <SCORE.INTRA.VDW.0>
-1.38455

>  <SCORE.INTRA.norm>
0.0164256

>  <SCORE.RESTR>
0

>  <SCORE.RESTR.CAVITY>
0

>  <SCORE.RESTR.norm>
0

>  <SCORE.SYSTEM>
0

>  <SCORE.SYSTEM.CONST>
0

>  <SCORE.SYSTEM.DIHEDRAL>
0

>  <SCORE.SYSTEM.SOLV>
0

>  <SCORE.SYSTEM.norm>
0

>  <SCORE.heavy>
28

>  <SCORE.norm>
-1.23754

>  <RMSD>
1.149

$$$$
ligand
 OpenBabel11021811413D
libRbt.so/2013.1/901 2013/11/27
 28 32  0  0  0  0  0  0  0  0999 V2000
   43.2594   25.7368   24.3637 C   0  0  0  0  0  0  0  0  0  0  0  0
   42.8950   26.1810   22.9609 C   0  0  0  0  0  0  0  0  0  0  0  0
   41.6793   27.0958   22.9596 C   0  0  0  0  0  0  0  0  0  0  0  0
   35.3770   26.3913   25.1725 O   0  0  0  0  0  0  0  0  0  0  0  0
   34.8896   25.0515   25.2653 C   0  0  0  0  0  0  0  0  0  0  0  0
   38.6286   23.8911   28.2630 C   0  0  0  0  0  0  0  0  0  0  0  0
   38.5003   25.0998   28.9352 C   0  0  0  0  0  0  0  0  0  0  0  0
   37.5304   26.0180   28.5247 C   0  0  0  0  0  0  0  0  0  0  0  0
   36.6893   25.7296   27.4493 C   0  0  0  0  0  0  0  0  0  0  0  0
   36.0196   24.0815   25.6341 C   0  0  1  0  0  0  0  0  0  0  0  0
   36.8175   24.5147   26.8178 C   0  0  0  0  0  0  0  0  0  0  0  0
   37.7733   23.6173   27.2221 C   0  0  0  0  0  0  0  0  0  0  0  0
   37.8554   22.4062   26.4281 C   0  0  1  0  0  0  0  0  0  0  0  0
   36.2579   20.5119   26.6537 C   0  0  0  0  0  0  0  0  0  0  0  0
   36.5239   21.8294   26.3673 C   0  0  0  0  0  0  0  0  0  0  0  0
   35.5403   22.6890   25.9573 C   0  0  0  0  0  0  0  0  0  0  0  0
   34.2371   22.2340   25.8205 C   0  0  0  0  0  0  0  0  0  0  0  0
   33.9474   20.9029   26.1277 C   0  0  0  0  0  0  0  0  0  0  0  0
   34.9577   20.0467   26.5459 C   0  0  0  0  0  0  0  0  0  0  0  0
   40.3974   26.2848   23.0985 C   0  0  0  0  0  0  0  0  0  0  0  0
   40.0939   26.0152   24.5676 C   0  0  0  0  0  0  0  0  0  0  0  0
   37.4407   26.1389   23.9173 O   0  0  0  0  0  0  0  0  0  0  0  0
   40.4569   23.3256   25.3567 O   0  0  0  0  0  0  0  0  0  0  0  0
   39.3724   23.7462   24.9894 C   0  0  0  0  0  0  0  0  0  0  0  0
   39.1192   24.9366   24.6056 N   0  0  0  0  0  0  0  0  0  0  0  0
   37.9054   25.0997   24.3088 C   0  0  0  0  0  0  0  0  0  0  0  0
   37.0784   23.8825   24.5381 C   0  0  1  0  0  0  0  0  0  0  0  0
   38.1497   22.8999   25.0183 C   0  0  2  0  0  0  0  0  0  0  0  0
  1  2  1  0  0  0  0
  2  3  1  0  0  0  0
  3 20  1  0  0  0  0
  4  5  1  0  0  0  0
  6  7  2  0  0  0  0
  6 12  1  0  0  0  0
  7  8  1  0  0  0  0
  8  9  2  0  0  0  0
  9 11  1  0  0  0  0
 10  5  1  6  0  0  0
 10 11  1  0  0  0  0
 10 16  1  0  0  0  0
 10 27  1  0  0  0  0
 11 12  2  0  0  0  0
 13 12  1  1  0  0  0
 13 15  1  0  0  0  0
 13 28  1  0  0  0  0
 14 15  2  0  0  0  0
 14 19  1  0  0  0  0
 15 16  1  0  0  0  0
 16 17  2  0  0  0  0
 17 18  1  0  0  0  0
 18 19  2  0  0  0  0
 20 21  1  0  0  0  0
 21 25  1  0  0  0  0
 22 26  2  0  0  0  0
 23 24  2  0  0  0  0
 24 25  1  0  0  0  0
 25 26  1  0  0  0  0
 27 26  1  1  0  0  0
 27 28  1  0  0  0  0
 28 24  1  1  0  0  0
M  END
>  <CHROM.1>
-78.85611986,50.29688358,85.33931170,-163.54843835,108.57235078,37.94283981
24.25501399,25.54122636,-0.62037256,-0.19427459,2.79909648

>  <Name>
ligand

>  <RI>
0

>  <Rbt.Current_Directory>
/home/itssahil/PROJECTS/Mol_Feturizer/New_Systems/rnas/1YLS

>  <Rbt.Executable>
rbdock ($Id: //depot/dev/client3/rdock/2013.1/src/exe/rbdock.cxx#4 $)

>  <Rbt.Library>
libRbt.so (2013.1, Build901 2013/11/27)

>  <Rbt.Parameter_File>
/export/apps/rDock/src/rDock_2013.1_src/data/scripts/dock_solv.prm

>  <Rbt.Receptor>
prm/pocket_docking_2.prm

>  <SCORE>
-32.6495

>  <SCORE.INTER>
-33.1319

>  <SCORE.INTER.CONST>
1

>  <SCORE.INTER.POLAR>
0

>  <SCORE.INTER.ROT>
5

>  <SCORE.INTER.SOLV>
7.41933

>  <SCORE.INTER.VDW>
-31.4943

>  <SCORE.INTER.norm>
-1.18328

>  <SCORE.INTRA>
0.482356

>  <SCORE.INTRA.DIHEDRAL>
-4.79547

>  <SCORE.INTRA.DIHEDRAL.0>
12.0148

>  <SCORE.INTRA.POLAR>
0

>  <SCORE.INTRA.POLAR.0>
0

>  <SCORE.INTRA.REPUL>
0

>  <SCORE.INTRA.REPUL.0>
0

>  <SCORE.INTRA.SOLV>
0.744799

>  <SCORE.INTRA.SOLV.lig_0>
-10.5235

>  <SCORE.INTRA.VDW>
2.50769

>  <SCORE.INTRA.VDW.0>
-1.38455

>  <SCORE.INTRA.norm>
0.017227

>  <SCORE.RESTR>
0

>  <SCORE.RESTR.CAVITY>
0

>  <SCORE.RESTR.norm>
0

>  <SCORE.SYSTEM>
0

>  <SCORE.SYSTEM.CONST>
0

>  <SCORE.SYSTEM.DIHEDRAL>
0

>  <SCORE.SYSTEM.SOLV>
0

>  <SCORE.SYSTEM.norm>
0

>  <SCORE.heavy>
28

>  <SCORE.norm>
-1.16605

>  <RMSD>
1.150

$$$$
ligand
 OpenBabel11021811413D
libRbt.so/2013.1/901 2013/11/27
 28 32  0  0  0  0  0  0  0  0999 V2000
   43.7213   28.4087   22.3108 C   0  0  0  0  0  0  0  0  0  0  0  0
   42.5462   27.4557   22.2176 C   0  0  0  0  0  0  0  0  0  0  0  0
   41.5104   27.7341   23.2967 C   0  0  0  0  0  0  0  0  0  0  0  0
   33.7371   24.8565   24.6685 O   0  0  0  0  0  0  0  0  0  0  0  0
   34.5732   25.2436   25.7604 C   0  0  0  0  0  0  0  0  0  0  0  0
   38.7990   24.1099   28.0342 C   0  0  0  0  0  0  0  0  0  0  0  0
   38.6714   25.2068   28.8767 C   0  0  0  0  0  0  0  0  0  0  0  0
   37.5781   26.0647   28.7316 C   0  0  0  0  0  0  0  0  0  0  0  0
   36.6139   25.8270   27.7513 C   0  0  0  0  0  0  0  0  0  0  0  0
   35.8223   24.3560   25.8357 C   0  0  1  0  0  0  0  0  0  0  0  0
   36.7480   24.7189   26.9479 C   0  0  0  0  0  0  0  0  0  0  0  0
   37.8247   23.8809   27.0917 C   0  0  0  0  0  0  0  0  0  0  0  0
   37.8890   22.7919   26.1357 C   0  0  1  0  0  0  0  0  0  0  0  0
   36.5063   20.7310   26.3150 C   0  0  0  0  0  0  0  0  0  0  0  0
   36.6160   22.0940   26.1782 C   0  0  0  0  0  0  0  0  0  0  0  0
   35.5142   22.8926   26.0274 C   0  0  0  0  0  0  0  0  0  0  0  0
   34.2477   22.3273   26.0082 C   0  0  0  0  0  0  0  0  0  0  0  0
   34.1189   20.9458   26.1668 C   0  0  0  0  0  0  0  0  0  0  0  0
   35.2479   20.1523   26.3224 C   0  0  0  0  0  0  0  0  0  0  0  0
   40.4165   26.6743   23.2767 C   0  0  0  0  0  0  0  0  0  0  0  0
   39.5177   26.8129   24.4997 C   0  0  0  0  0  0  0  0  0  0  0  0
   36.7965   26.7442   24.2396 O   0  0  0  0  0  0  0  0  0  0  0  0
   40.2169   24.0976   24.8563 O   0  0  0  0  0  0  0  0  0  0  0  0
   39.0586   24.4474   24.7011 C   0  0  0  0  0  0  0  0  0  0  0  0
   38.6529   25.6439   24.5219 N   0  0  0  0  0  0  0  0  0  0  0  0
   37.3991   25.7176   24.4182 C   0  0  0  0  0  0  0  0  0  0  0  0
   36.7199   24.4032   24.5891 C   0  0  1  0  0  0  0  0  0  0  0  0
   37.9286   23.4835   24.7799 C   0  0  2  0  0  0  0  0  0  0  0  0
  1  2  1  0  0  0  0
  2  3  1  0  0  0  0
  3 20  1  0  0  0  0
  4  5  1  0  0  0  0
  6  7  2  0  0  0  0
  6 12  1  0  0  0  0
  7  8  1  0  0  0  0
  8  9  2  0  0  0  0
  9 11  1  0  0  0  0
 10  5  1  6  0  0  0
 10 11  1  0  0  0  0
 10 16  1  0  0  0  0
 10 27  1  0  0  0  0
 11 12  2  0  0  0  0
 13 12  1  1  0  0  0
 13 15  1  0  0  0  0
 13 28  1  0  0  0  0
 14 15  2  0  0  0  0
 14 19  1  0  0  0  0
 15 16  1  0  0  0  0
 16 17  2  0  0  0  0
 17 18  1  0  0  0  0
 18 19  2  0  0  0  0
 20 21  1  0  0  0  0
 21 25  1  0  0  0  0
 22 26  2  0  0  0  0
 23 24  2  0  0  0  0
 24 25  1  0  0  0  0
 25 26  1  0  0  0  0
 27 26  1  1  0  0  0
 27 28  1  0  0  0  0
 28 24  1  1  0  0  0
M  END
>  <CHROM.1>
-173.92232213,179.32129785,170.23143443,-170.66630176,65.70599695,37.76322127
24.67724437,25.40767082,-0.71810827,0.15241053,2.38915244

>  <Name>
ligand

>  <RI>
0

>  <Rbt.Current_Directory>
/home/itssahil/PROJECTS/Mol_Feturizer/New_Systems/rnas/1YLS

>  <Rbt.Executable>
rbdock ($Id: //depot/dev/client3/rdock/2013.1/src/exe/rbdock.cxx#4 $)

>  <Rbt.Library>
libRbt.so (2013.1, Build901 2013/11/27)

>  <Rbt.Parameter_File>
/export/apps/rDock/src/rDock_2013.1_src/data/scripts/dock_solv.prm

>  <Rbt.Receptor>
prm/pocket_docking_3.prm

>  <SCORE>
-38.7049

>  <SCORE.INTER>
-34.7496

>  <SCORE.INTER.CONST>
1

>  <SCORE.INTER.POLAR>
0

>  <SCORE.INTER.ROT>
5

>  <SCORE.INTER.SOLV>
8.22868

>  <SCORE.INTER.VDW>
-32.8426

>  <SCORE.INTER.norm>
-1.24106

>  <SCORE.INTRA>
-3.95532

>  <SCORE.INTRA.DIHEDRAL>
-8.78696

>  <SCORE.INTRA.DIHEDRAL.0>
12.0148

>  <SCORE.INTRA.POLAR>
0

>  <SCORE.INTRA.POLAR.0>
0

>  <SCORE.INTRA.REPUL>
0

>  <SCORE.INTRA.REPUL.0>
0

>  <SCORE.INTRA.SOLV>
0.183808

>  <SCORE.INTRA.SOLV.lig_0>
-10.5235

>  <SCORE.INTRA.VDW>
0.346257

>  <SCORE.INTRA.VDW.0>
-1.38455

>  <SCORE.INTRA.norm>
-0.141261

>  <SCORE.RESTR>
0

>  <SCORE.RESTR.CAVITY>
0

>  <SCORE.RESTR.norm>
0

>  <SCORE.SYSTEM>
0

>  <SCORE.SYSTEM.CONST>
0

>  <SCORE.SYSTEM.DIHEDRAL>
0

>  <SCORE.SYSTEM.SOLV>
0

>  <SCORE.SYSTEM.norm>
0

>  <SCORE.heavy>
28

>  <SCORE.norm>
-1.38232

>  <RMSD>
1.150

$$$$
ligand
 OpenBabel11021811413D
libRbt.so/2013.1/901 2013/11/27
 28 32  0  0  0  0  0  0  0  0999 V2000
   41.7275   28.0781   22.9929 C   0  0  0  0  0  0  0  0  0  0  0  0
   42.6677   26.9366   22.6597 C   0  0  0  0  0  0  0  0  0  0  0  0
   42.9514   26.0692   23.8770 C   0  0  0  0  0  0  0  0  0  0  0  0
   34.7183   24.5289   23.8484 O   0  0  0  0  0  0  0  0  0  0  0  0
   35.3681   25.0309   25.0176 C   0  0  0  0  0  0  0  0  0  0  0  0
   38.7039   23.8348   28.4461 C   0  0  0  0  0  0  0  0  0  0  0  0
   38.5937   25.0903   29.0300 C   0  0  0  0  0  0  0  0  0  0  0  0
   37.7348   26.0390   28.4692 C   0  0  0  0  0  0  0  0  0  0  0  0
   36.9860   25.7349   27.3317 C   0  0  0  0  0  0  0  0  0  0  0  0
   36.3864   24.0178   25.5564 C   0  0  1  0  0  0  0  0  0  0  0  0
   37.0917   24.4759   26.7885 C   0  0  0  0  0  0  0  0  0  0  0  0
   37.9386   23.5483   27.3405 C   0  0  0  0  0  0  0  0  0  0  0  0
   38.0148   22.2854   26.6310 C   0  0  1  0  0  0  0  0  0  0  0  0
   36.2758   20.5140   26.8012 C   0  0  0  0  0  0  0  0  0  0  0  0
   36.6591   21.7908   26.4674 C   0  0  0  0  0  0  0  0  0  0  0  0
   35.7826   22.6821   25.9091 C   0  0  0  0  0  0  0  0  0  0  0  0
   34.4709   22.3020   25.6659 C   0  0  0  0  0  0  0  0  0  0  0  0
   34.0610   21.0144   26.0187 C   0  0  0  0  0  0  0  0  0  0  0  0
   34.9636   20.1254   26.5876 C   0  0  0  0  0  0  0  0  0  0  0  0
   41.8585   25.0237   24.0574 C   0  0  0  0  0  0  0  0  0  0  0  0
   40.6699   25.6183   24.8034 C   0  0  0  0  0  0  0  0  0  0  0  0
   38.1088   25.8661   23.8778 O   0  0  0  0  0  0  0  0  0  0  0  0
   40.7666   22.9680   25.7809 O   0  0  0  0  0  0  0  0  0  0  0  0
   39.7553   23.4313   25.2803 C   0  0  0  0  0  0  0  0  0  0  0  0
   39.6241   24.6078   24.8038 N   0  0  0  0  0  0  0  0  0  0  0  0
   38.4596   24.8273   24.3749 C   0  0  0  0  0  0  0  0  0  0  0  0
   37.5320   23.6819   24.5885 C   0  0  1  0  0  0  0  0  0  0  0  0
   38.4801   22.6672   25.2325 C   0  0  2  0  0  0  0  0  0  0  0  0
  1  2  1  0  0  0  0
  2  3  1  0  0  0  0
  3 20  1  0  0  0  0
  4  5  1  0  0  0  0
  6  7  2  0  0  0  0
  6 12  1  0  0  0  0
  7  8  1  0  0  0  0
  8  9  2  0  0  0  0
  9 11  1  0  0  0  0
 10  5  1  6  0  0  0
 10 11  1  0  0  0  0
 10 16  1  0  0  0  0
 10 27  1  0  0  0  0
 11 12  2  0  0  0  0
 13 12  1  1  0  0  0
 13 15  1  0  0  0  0
 13 28  1  0  0  0  0
 14 15  2  0  0  0  0
 14 19  1  0  0  0  0
 15 16  1  0  0  0  0
 16 17  2  0  0  0  0
 17 18  1  0  0  0  0
 18 19  2  0  0  0  0
 20 21  1  0  0  0  0
 21 25  1  0  0  0  0
 22 26  2  0  0  0  0
 23 24  2  0  0  0  0
 24 25  1  0  0  0  0
 25 26  1  0  0  0  0
 27 26  1  1  0  0  0
 27 28  1  0  0  0  0
 28 24  1  1  0  0  0
M  END
>  <CHROM.1>
84.44771992,-179.38695389,-83.48850745,173.93520647,57.69261525,38.18669286
24.11620916,25.54276332,0.59969702,-0.28072182,-0.92977795

>  <Name>
ligand

>  <RI>
0

>  <Rbt.Current_Directory>
/home/itssahil/PROJECTS/Mol_Feturizer/New_Systems/rnas/1YLS

>  <Rbt.Executable>
rbdock ($Id: //depot/dev/client3/rdock/2013.1/src/exe/rbdock.cxx#4 $)

>  <Rbt.Library>
libRbt.so (2013.1, Build901 2013/11/27)

>  <Rbt.Parameter_File>
/export/apps/rDock/src/rDock_2013.1_src/data/scripts/dock_solv.prm

>  <Rbt.Receptor>
prm/pocket_docking_6.prm

>  <SCORE>
-33.5459

>  <SCORE.INTER>
-32.8091

>  <SCORE.INTER.CONST>
1

>  <SCORE.INTER.POLAR>
0

>  <SCORE.INTER.ROT>
5

>  <SCORE.INTER.SOLV>
7.55197

>  <SCORE.INTER.VDW>
-31.3234

>  <SCORE.INTER.norm>
-1.17175

>  <SCORE.INTRA>
-0.736815

>  <SCORE.INTRA.DIHEDRAL>
-5.21374

>  <SCORE.INTRA.DIHEDRAL.0>
12.0148

>  <SCORE.INTRA.POLAR>
0

>  <SCORE.INTRA.POLAR.0>
0

>  <SCORE.INTRA.REPUL>
0

>  <SCORE.INTRA.REPUL.0>
0

>  <SCORE.INTRA.SOLV>
0.225635

>  <SCORE.INTRA.SOLV.lig_0>
-10.5235

>  <SCORE.INTRA.VDW>
1.75724

>  <SCORE.INTRA.VDW.0>
-1.38455

>  <SCORE.INTRA.norm>
-0.0263148

>  <SCORE.RESTR>
0

>  <SCORE.RESTR.CAVITY>
0

>  <SCORE.RESTR.norm>
0

>  <SCORE.SYSTEM>
0

>  <SCORE.SYSTEM.CONST>
0

>  <SCORE.SYSTEM.DIHEDRAL>
0

>  <SCORE.SYSTEM.SOLV>
0

>  <SCORE.SYSTEM.norm>
0

>  <SCORE.heavy>
28

>  <SCORE.norm>
-1.19807

>  <RMSD>
1.163

$$$$
ligand
 OpenBabel11021811413D
libRbt.so/2013.1/901 2013/11/27
 28 32  0  0  0  0  0  0  0  0999 V2000
   43.5849   28.5864   22.2960 C   0  0  0  0  0  0  0  0  0  0  0  0
   42.7333   27.3341   22.3621 C   0  0  0  0  0  0  0  0  0  0  0  0
   41.5474   27.5101   23.2988 C   0  0  0  0  0  0  0  0  0  0  0  0
   33.9355   23.8216   26.0766 O   0  0  0  0  0  0  0  0  0  0  0  0
   34.9659   23.8566   25.0876 C   0  0  0  0  0  0  0  0  0  0  0  0
   38.5658   24.4973   28.3956 C   0  0  0  0  0  0  0  0  0  0  0  0
   37.9932   25.6864   28.8286 C   0  0  0  0  0  0  0  0  0  0  0  0
   36.8264   26.1528   28.2177 C   0  0  0  0  0  0  0  0  0  0  0  0
   36.2313   25.4336   27.1805 C   0  0  0  0  0  0  0  0  0  0  0  0
   36.3042   23.3883   25.6735 C   0  0  1  0  0  0  0  0  0  0  0  0
   36.8018   24.2452   26.7886 C   0  0  0  0  0  0  0  0  0  0  0  0
   37.9493   23.7924   27.3891 C   0  0  0  0  0  0  0  0  0  0  0  0
   38.4911   22.5662   26.8351 C   0  0  1  0  0  0  0  0  0  0  0  0
   37.5674   20.3117   27.3402 C   0  0  0  0  0  0  0  0  0  0  0  0
   37.4259   21.5790   26.8277 C   0  0  0  0  0  0  0  0  0  0  0  0
   36.2649   21.9865   26.2275 C   0  0  0  0  0  0  0  0  0  0  0  0
   35.1950   21.1097   26.1242 C   0  0  0  0  0  0  0  0  0  0  0  0
   35.3164   19.8253   26.6588 C   0  0  0  0  0  0  0  0  0  0  0  0
   36.5007   19.4311   27.2674 C   0  0  0  0  0  0  0  0  0  0  0  0
   40.7817   26.2018   23.4468 C   0  0  0  0  0  0  0  0  0  0  0  0
   39.6328   26.3653   24.4348 C   0  0  0  0  0  0  0  0  0  0  0  0
   37.1563   25.4969   23.6666 O   0  0  0  0  0  0  0  0  0  0  0  0
   40.7554   24.1113   25.7186 O   0  0  0  0  0  0  0  0  0  0  0  0
   39.6350   24.0842   25.2369 C   0  0  0  0  0  0  0  0  0  0  0  0
   39.0544   25.0455   24.6311 N   0  0  0  0  0  0  0  0  0  0  0  0
   37.8873   24.7474   24.2608 C   0  0  0  0  0  0  0  0  0  0  0  0
   37.4736   23.3784   24.6763 C   0  0  1  0  0  0  0  0  0  0  0  0
   38.7496   22.8967   25.3715 C   0  0  2  0  0  0  0  0  0  0  0  0
  1  2  1  0  0  0  0
  2  3  1  0  0  0  0
  3 20  1  0  0  0  0
  4  5  1  0  0  0  0
  6  7  2  0  0  0  0
  6 12  1  0  0  0  0
  7  8  1  0  0  0  0
  8  9  2  0  0  0  0
  9 11  1  0  0  0  0
 10  5  1  6  0  0  0
 10 11  1  0  0  0  0
 10 16  1  0  0  0  0
 10 27  1  0  0  0  0
 11 12  2  0  0  0  0
 13 12  1  1  0  0  0
 13 15  1  0  0  0  0
 13 28  1  0  0  0  0
 14 15  2  0  0  0  0
 14 19  1  0  0  0  0
 15 16  1  0  0  0  0
 16 17  2  0  0  0  0
 17 18  1  0  0  0  0
 18 19  2  0  0  0  0
 20 21  1  0  0  0  0
 21 25  1  0  0  0  0
 22 26  2  0  0  0  0
 23 24  2  0  0  0  0
 24 25  1  0  0  0  0
 25 26  1  0  0  0  0
 27 26  1  1  0  0  0
 27 28  1  0  0  0  0
 28 24  1  1  0  0  0
M  END
>  <CHROM.1>
-174.81965772,-61.65972231,177.41662843,-173.70198472,69.17361692,38.12701148
24.15969487,25.61691963,-0.75958634,-0.39073596,2.93650331

>  <Name>
ligand

>  <RI>
0

>  <Rbt.Current_Directory>
/home/itssahil/PROJECTS/Mol_Feturizer/New_Systems/rnas/1YLS

>  <Rbt.Executable>
rbdock ($Id: //depot/dev/client3/rdock/2013.1/src/exe/rbdock.cxx#4 $)

>  <Rbt.Library>
libRbt.so (2013.1, Build901 2013/11/27)

>  <Rbt.Parameter_File>
/export/apps/rDock/src/rDock_2013.1_src/data/scripts/dock_solv.prm

>  <Rbt.Receptor>
prm/pocket_docking_4.prm

>  <SCORE>
-38.4616

>  <SCORE.INTER>
-33.9034

>  <SCORE.INTER.CONST>
1

>  <SCORE.INTER.POLAR>
0

>  <SCORE.INTER.ROT>
5

>  <SCORE.INTER.SOLV>
8.00916

>  <SCORE.INTER.VDW>
-32.2053

>  <SCORE.INTER.norm>
-1.21084

>  <SCORE.INTRA>
-4.55815

>  <SCORE.INTRA.DIHEDRAL>
-9.39562

>  <SCORE.INTRA.DIHEDRAL.0>
12.0148

>  <SCORE.INTRA.POLAR>
0

>  <SCORE.INTRA.POLAR.0>
0

>  <SCORE.INTRA.REPUL>
0

>  <SCORE.INTRA.REPUL.0>
0

>  <SCORE.INTRA.SOLV>
-0.0240269

>  <SCORE.INTRA.SOLV.lig_0>
-10.5235

>  <SCORE.INTRA.VDW>
0.15167

>  <SCORE.INTRA.VDW.0>
-1.38455

>  <SCORE.INTRA.norm>
-0.162791

>  <SCORE.RESTR>
0

>  <SCORE.RESTR.CAVITY>
0

>  <SCORE.RESTR.norm>
0

>  <SCORE.SYSTEM>
0

>  <SCORE.SYSTEM.CONST>
0

>  <SCORE.SYSTEM.DIHEDRAL>
0

>  <SCORE.SYSTEM.SOLV>
0

>  <SCORE.SYSTEM.norm>
0

>  <SCORE.heavy>
28

>  <SCORE.norm>
-1.37363

>  <RMSD>
1.167

$$$$
ligand
 OpenBabel11021811413D
libRbt.so/2013.1/901 2013/11/27
 28 32  0  0  0  0  0  0  0  0999 V2000
   43.6662   28.4695   22.2831 C   0  0  0  0  0  0  0  0  0  0  0  0
   42.5385   27.4580   22.2274 C   0  0  0  0  0  0  0  0  0  0  0  0
   41.4854   27.7318   23.2909 C   0  0  0  0  0  0  0  0  0  0  0  0
   33.7086   24.8426   24.6843 O   0  0  0  0  0  0  0  0  0  0  0  0
   34.5516   25.2346   25.7692 C   0  0  0  0  0  0  0  0  0  0  0  0
   38.7883   24.1068   28.0255 C   0  0  0  0  0  0  0  0  0  0  0  0
   38.6636   25.2047   28.8672 C   0  0  0  0  0  0  0  0  0  0  0  0
   37.5691   26.0616   28.7259 C   0  0  0  0  0  0  0  0  0  0  0  0
   36.6007   25.8220   27.7502 C   0  0  0  0  0  0  0  0  0  0  0  0
   35.8017   24.3480   25.8401 C   0  0  1  0  0  0  0  0  0  0  0  0
   36.7320   24.7130   26.9476 C   0  0  0  0  0  0  0  0  0  0  0  0
   37.8099   23.8759   27.0877 C   0  0  0  0  0  0  0  0  0  0  0  0
   37.8707   22.7857   26.1328 C   0  0  1  0  0  0  0  0  0  0  0  0
   36.4904   20.7241   26.3209 C   0  0  0  0  0  0  0  0  0  0  0  0
   36.5984   22.0870   26.1819 C   0  0  0  0  0  0  0  0  0  0  0  0
   35.4955   22.8846   26.0349 C   0  0  0  0  0  0  0  0  0  0  0  0
   34.2293   22.3184   26.0221 C   0  0  0  0  0  0  0  0  0  0  0  0
   34.1021   20.9370   26.1831 C   0  0  0  0  0  0  0  0  0  0  0  0
   35.2324   20.1445   26.3346 C   0  0  0  0  0  0  0  0  0  0  0  0
   40.4353   26.6285   23.3027 C   0  0  0  0  0  0  0  0  0  0  0  0
   39.4892   26.8058   24.4844 C   0  0  0  0  0  0  0  0  0  0  0  0
   36.7670   26.7349   24.2365 O   0  0  0  0  0  0  0  0  0  0  0  0
   40.1920   24.0915   24.8414 O   0  0  0  0  0  0  0  0  0  0  0  0
   39.0328   24.4402   24.6909 C   0  0  0  0  0  0  0  0  0  0  0  0
   38.6254   25.6362   24.5120 N   0  0  0  0  0  0  0  0  0  0  0  0
   37.3711   25.7089   24.4138 C   0  0  0  0  0  0  0  0  0  0  0  0
   36.6936   24.3943   24.5893 C   0  0  1  0  0  0  0  0  0  0  0  0
   37.9039   23.4756   24.7759 C   0  0  2  0  0  0  0  0  0  0  0  0
  1  2  1  0  0  0  0
  2  3  1  0  0  0  0
  3 20  1  0  0  0  0
  4  5  1  0  0  0  0
  6  7  2  0  0  0  0
  6 12  1  0  0  0  0
  7  8  1  0  0  0  0
  8  9  2  0  0  0  0
  9 11  1  0  0  0  0
 10  5  1  6  0  0  0
 10 11  1  0  0  0  0
 10 16  1  0  0  0  0
 10 27  1  0  0  0  0
 11 12  2  0  0  0  0
 13 12  1  1  0  0  0
 13 15  1  0  0  0  0
 13 28  1  0  0  0  0
 14 15  2  0  0  0  0
 14 19  1  0  0  0  0
 15 16  1  0  0  0  0
 16 17  2  0  0  0  0
 17 18  1  0  0  0  0
 18 19  2  0  0  0  0
 20 21  1  0  0  0  0
 21 25  1  0  0  0  0
 22 26  2  0  0  0  0
 23 24  2  0  0  0  0
 24 25  1  0  0  0  0
 25 26  1  0  0  0  0
 27 26  1  1  0  0  0
 27 28  1  0  0  0  0
 28 24  1  1  0  0  0
M  END
>  <CHROM.1>
-174.54387689,179.52180552,172.50837491,-173.47234989,62.60714449,37.74321334
24.67184952,25.40737953,-0.72196891,0.14317846,2.40065982

>  <Name>
ligand

>  <RI>
0

>  <Rbt.Current_Directory>
/home/itssahil/PROJECTS/Mol_Feturizer/New_Systems/rnas/1YLS

>  <Rbt.Executable>
rbdock ($Id: //depot/dev/client3/rdock/2013.1/src/exe/rbdock.cxx#4 $)

>  <Rbt.Library>
libRbt.so (2013.1, Build901 2013/11/27)

>  <Rbt.Parameter_File>
/export/apps/rDock/src/rDock_2013.1_src/data/scripts/dock_solv.prm

>  <Rbt.Receptor>
prm/pocket_docking_5.prm

>  <SCORE>
-38.6403

>  <SCORE.INTER>
-34.664

>  <SCORE.INTER.CONST>
1

>  <SCORE.INTER.POLAR>
0

>  <SCORE.INTER.ROT>
5

>  <SCORE.INTER.SOLV>
8.27738

>  <SCORE.INTER.VDW>
-32.8018

>  <SCORE.INTER.norm>
-1.238

>  <SCORE.INTRA>
-3.97623

>  <SCORE.INTRA.DIHEDRAL>
-9.10884

>  <SCORE.INTRA.DIHEDRAL.0>
12.0148

>  <SCORE.INTRA.POLAR>
0

>  <SCORE.INTRA.POLAR.0>
0

>  <SCORE.INTRA.REPUL>
0

>  <SCORE.INTRA.REPUL.0>
0

>  <SCORE.INTRA.SOLV>
0.184011

>  <SCORE.INTRA.SOLV.lig_0>
-10.5235

>  <SCORE.INTRA.VDW>
0.486182

>  <SCORE.INTRA.VDW.0>
-1.38455

>  <SCORE.INTRA.norm>
-0.142008

>  <SCORE.RESTR>
0

>  <SCORE.RESTR.CAVITY>
0

>  <SCORE.RESTR.norm>
0

>  <SCORE.SYSTEM>
0

>  <SCORE.SYSTEM.CONST>
0

>  <SCORE.SYSTEM.DIHEDRAL>
0

>  <SCORE.SYSTEM.SOLV>
0

>  <SCORE.SYSTEM.norm>
0

>  <SCORE.heavy>
28

>  <SCORE.norm>
-1.38001

>  <RMSD>
1.168

$$$$
ligand
 OpenBabel11021811413D
libRbt.so/2013.1/901 2013/11/27
 28 32  0  0  0  0  0  0  0  0999 V2000
   43.7283   27.5365   22.1165 C   0  0  0  0  0  0  0  0  0  0  0  0
   43.1483   26.1545   22.3438 C   0  0  0  0  0  0  0  0  0  0  0  0
   42.1063   26.1582   23.4524 C   0  0  0  0  0  0  0  0  0  0  0  0
   33.9772   25.5302   23.7951 O   0  0  0  0  0  0  0  0  0  0  0  0
   34.7481   26.1132   24.8472 C   0  0  0  0  0  0  0  0  0  0  0  0
   38.4605   25.1442   27.9441 C   0  0  0  0  0  0  0  0  0  0  0  0
   38.2945   26.3728   28.5705 C   0  0  0  0  0  0  0  0  0  0  0  0
   37.3117   27.2538   28.1119 C   0  0  0  0  0  0  0  0  0  0  0  0
   36.4954   26.9086   27.0341 C   0  0  0  0  0  0  0  0  0  0  0  0
   35.8926   25.1826   25.2685 C   0  0  1  0  0  0  0  0  0  0  0  0
   36.6608   25.6753   26.4486 C   0  0  0  0  0  0  0  0  0  0  0  0
   37.6291   24.8145   26.9001 C   0  0  0  0  0  0  0  0  0  0  0  0
   37.7511   23.5782   26.1514 C   0  0  1  0  0  0  0  0  0  0  0  0
   36.1920   21.6576   26.4189 C   0  0  0  0  0  0  0  0  0  0  0  0
   36.4338   22.9698   26.0899 C   0  0  0  0  0  0  0  0  0  0  0  0
   35.4387   23.7919   25.6336 C   0  0  0  0  0  0  0  0  0  0  0  0
   34.1482   23.3032   25.4923 C   0  0  0  0  0  0  0  0  0  0  0  0
   33.8827   21.9776   25.8422 C   0  0  0  0  0  0  0  0  0  0  0  0
   34.9043   21.1597   26.3069 C   0  0  0  0  0  0  0  0  0  0  0  0
   40.8518   26.8985   23.0072 C   0  0  0  0  0  0  0  0  0  0  0  0
   39.9410   27.1686   24.1990 C   0  0  0  0  0  0  0  0  0  0  0  0
   37.2971   27.2094   23.5023 O   0  0  0  0  0  0  0  0  0  0  0  0
   40.3495   24.5174   25.0897 O   0  0  0  0  0  0  0  0  0  0  0  0
   39.2624   24.9002   24.6902 C   0  0  0  0  0  0  0  0  0  0  0  0
   38.9897   26.0703   24.2599 N   0  0  0  0  0  0  0  0  0  0  0  0
   37.7777   26.1954   23.9381 C   0  0  0  0  0  0  0  0  0  0  0  0
   36.9739   24.9687   24.1975 C   0  0  1  0  0  0  0  0  0  0  0  0
   38.0582   24.0281   24.7296 C   0  0  2  0  0  0  0  0  0  0  0  0
  1  2  1  0  0  0  0
  2  3  1  0  0  0  0
  3 20  1  0  0  0  0
  4  5  1  0  0  0  0
  6  7  2  0  0  0  0
  6 12  1  0  0  0  0
  7  8  1  0  0  0  0
  8  9  2  0  0  0  0
  9 11  1  0  0  0  0
 10  5  1  6  0  0  0
 10 11  1  0  0  0  0
 10 16  1  0  0  0  0
 10 27  1  0  0  0  0
 11 12  2  0  0  0  0
 13 12  1  1  0  0  0
 13 15  1  0  0  0  0
 13 28  1  0  0  0  0
 14 15  2  0  0  0  0
 14 19  1  0  0  0  0
 15 16  1  0  0  0  0
 16 17  2  0  0  0  0
 17 18  1  0  0  0  0
 18 19  2  0  0  0  0
 20 21  1  0  0  0  0
 21 25  1  0  0  0  0
 22 26  2  0  0  0  0
 23 24  2  0  0  0  0
 24 25  1  0  0  0  0
 25 26  1  0  0  0  0
 27 26  1  1  0  0  0
 27 28  1  0  0  0  0
 28 24  1  1  0  0  0
M  END
>  <CHROM.1>
69.69698077,-174.66806176,-167.58831060,-93.71043398,75.99612108,37.84370531
25.19207083,25.11378194,0.54587918,0.08415829,-0.59970581

>  <Name>
ligand

>  <RI>
0

>  <Rbt.Current_Directory>
/home/itssahil/PROJECTS/Mol_Feturizer/New_Systems/rnas/1YLS

>  <Rbt.Executable>
rbdock ($Id: //depot/dev/client3/rdock/2013.1/src/exe/rbdock.cxx#4 $)

>  <Rbt.Library>
libRbt.so (2013.1, Build901 2013/11/27)

>  <Rbt.Parameter_File>
/export/apps/rDock/src/rDock_2013.1_src/data/scripts/dock_solv.prm

>  <Rbt.Receptor>
prm/blind_docking_60.prm

>  <SCORE>
-31.7449

>  <SCORE.INTER>
-31.2727

>  <SCORE.INTER.CONST>
1

>  <SCORE.INTER.POLAR>
0

>  <SCORE.INTER.ROT>
5

>  <SCORE.INTER.SOLV>
7.32003

>  <SCORE.INTER.VDW>
-30.2218

>  <SCORE.INTER.norm>
-1.11688

>  <SCORE.INTRA>
-1.1531

>  <SCORE.INTRA.DIHEDRAL>
-5.32045

>  <SCORE.INTRA.DIHEDRAL.0>
12.0148

>  <SCORE.INTRA.POLAR>
0

>  <SCORE.INTRA.POLAR.0>
0

>  <SCORE.INTRA.REPUL>
0

>  <SCORE.INTRA.REPUL.0>
0

>  <SCORE.INTRA.SOLV>
0.392475

>  <SCORE.INTRA.SOLV.lig_0>
-10.5235

>  <SCORE.INTRA.VDW>
1.31089

>  <SCORE.INTRA.VDW.0>
-1.38455

>  <SCORE.INTRA.norm>
-0.041182

>  <SCORE.RESTR>
0.680935

>  <SCORE.RESTR.CAVITY>
0.680935

>  <SCORE.RESTR.norm>
0.0243191

>  <SCORE.SYSTEM>
0

>  <SCORE.SYSTEM.CONST>
0

>  <SCORE.SYSTEM.DIHEDRAL>
0

>  <SCORE.SYSTEM.SOLV>
0

>  <SCORE.SYSTEM.norm>
0

>  <SCORE.heavy>
28

>  <SCORE.norm>
-1.13375

>  <RMSD>
1.170

$$$$
ligand
 OpenBabel11021811413D
libRbt.so/2013.1/901 2013/11/27
 28 32  0  0  0  0  0  0  0  0999 V2000
   43.9122   28.5234   22.4334 C   0  0  0  0  0  0  0  0  0  0  0  0
   42.4350   28.4102   22.7542 C   0  0  0  0  0  0  0  0  0  0  0  0
   41.9549   26.9680   22.6881 C   0  0  0  0  0  0  0  0  0  0  0  0
   35.1637   26.9492   24.4539 O   0  0  0  0  0  0  0  0  0  0  0  0
   34.8070   25.5690   24.5488 C   0  0  0  0  0  0  0  0  0  0  0  0
   38.2682   25.1233   28.0322 C   0  0  0  0  0  0  0  0  0  0  0  0
   37.9940   26.3998   28.5061 C   0  0  0  0  0  0  0  0  0  0  0  0
   37.0185   27.1755   27.8744 C   0  0  0  0  0  0  0  0  0  0  0  0
   36.3169   26.6779   26.7757 C   0  0  0  0  0  0  0  0  0  0  0  0
   35.9489   24.7486   25.1625 C   0  0  1  0  0  0  0  0  0  0  0  0
   36.5871   25.4009   26.3427 C   0  0  0  0  0  0  0  0  0  0  0  0
   37.5479   24.6437   26.9639 C   0  0  0  0  0  0  0  0  0  0  0  0
   37.7895   23.3445   26.3659 C   0  0  1  0  0  0  0  0  0  0  0  0
   36.2976   21.3827   26.7077 C   0  0  0  0  0  0  0  0  0  0  0  0
   36.5105   22.6646   26.2604 C   0  0  0  0  0  0  0  0  0  0  0  0
   35.5251   23.3814   25.6363 C   0  0  0  0  0  0  0  0  0  0  0  0
   34.2747   22.8135   25.4410 C   0  0  0  0  0  0  0  0  0  0  0  0
   34.0369   21.5192   25.9086 C   0  0  0  0  0  0  0  0  0  0  0  0
   35.0478   20.8089   26.5427 C   0  0  0  0  0  0  0  0  0  0  0  0
   40.4355   26.9039   22.7734 C   0  0  0  0  0  0  0  0  0  0  0  0
   39.9862   26.8230   24.2276 C   0  0  0  0  0  0  0  0  0  0  0  0
   37.4154   26.6522   23.3116 O   0  0  0  0  0  0  0  0  0  0  0  0
   40.4287   24.3038   25.4303 O   0  0  0  0  0  0  0  0  0  0  0  0
   39.3657   24.5854   24.9022 C   0  0  0  0  0  0  0  0  0  0  0  0
   39.0818   25.6885   24.3269 N   0  0  0  0  0  0  0  0  0  0  0  0
   37.8989   25.7156   23.8931 C   0  0  0  0  0  0  0  0  0  0  0  0
   37.1293   24.4820   24.2152 C   0  0  1  0  0  0  0  0  0  0  0  0
   38.2018   23.6600   24.9346 C   0  0  2  0  0  0  0  0  0  0  0  0
  1  2  1  0  0  0  0
  2  3  1  0  0  0  0
  3 20  1  0  0  0  0
  4  5  1  0  0  0  0
  6  7  2  0  0  0  0
  6 12  1  0  0  0  0
  7  8  1  0  0  0  0
  8  9  2  0  0  0  0
  9 11  1  0  0  0  0
 10  5  1  6  0  0  0
 10 11  1  0  0  0  0
 10 16  1  0  0  0  0
 10 27  1  0  0  0  0
 11 12  2  0  0  0  0
 13 12  1  1  0  0  0
 13 15  1  0  0  0  0
 13 28  1  0  0  0  0
 14 15  2  0  0  0  0
 14 19  1  0  0  0  0
 15 16  1  0  0  0  0
 16 17  2  0  0  0  0
 17 18  1  0  0  0  0
 18 19  2  0  0  0  0
 20 21  1  0  0  0  0
 21 25  1  0  0  0  0
 22 26  2  0  0  0  0
 23 24  2  0  0  0  0
 24 25  1  0  0  0  0
 25 26  1  0  0  0  0
 27 26  1  1  0  0  0
 27 28  1  0  0  0  0
 28 24  1  1  0  0  0
M  END
>  <CHROM.1>
-170.18293472,43.56379152,-88.61112661,-128.29129195,108.19097013,37.87737001
25.15125290,25.15589478,-0.67564189,-0.22980017,2.81269816

>  <Name>
ligand

>  <RI>
0

>  <Rbt.Current_Directory>
/home/itssahil/PROJECTS/Mol_Feturizer/New_Systems/rnas/1YLS

>  <Rbt.Executable>
rbdock ($Id: //depot/dev/client3/rdock/2013.1/src/exe/rbdock.cxx#4 $)

>  <Rbt.Library>
libRbt.so (2013.1, Build901 2013/11/27)

>  <Rbt.Parameter_File>
/export/apps/rDock/src/rDock_2013.1_src/data/scripts/dock_solv.prm

>  <Rbt.Receptor>
prm/blind_docking_80.prm

>  <SCORE>
-29.1934

>  <SCORE.INTER>
-31.9219

>  <SCORE.INTER.CONST>
1

>  <SCORE.INTER.POLAR>
0

>  <SCORE.INTER.ROT>
5

>  <SCORE.INTER.SOLV>
8.93349

>  <SCORE.INTER.VDW>
-31.1924

>  <SCORE.INTER.norm>
-1.14007

>  <SCORE.INTRA>
1.45598

>  <SCORE.INTRA.DIHEDRAL>
-0.421974

>  <SCORE.INTRA.DIHEDRAL.0>
12.0148

>  <SCORE.INTRA.POLAR>
0

>  <SCORE.INTRA.POLAR.0>
0

>  <SCORE.INTRA.REPUL>
0

>  <SCORE.INTRA.REPUL.0>
0

>  <SCORE.INTRA.SOLV>
0.618619

>  <SCORE.INTRA.SOLV.lig_0>
-10.5235

>  <SCORE.INTRA.VDW>
1.35766

>  <SCORE.INTRA.VDW.0>
-1.38455

>  <SCORE.INTRA.norm>
0.0519995

>  <SCORE.RESTR>
1.27255

>  <SCORE.RESTR.CAVITY>
1.27255

>  <SCORE.RESTR.norm>
0.0454482

>  <SCORE.SYSTEM>
0

>  <SCORE.SYSTEM.CONST>
0

>  <SCORE.SYSTEM.DIHEDRAL>
0

>  <SCORE.SYSTEM.SOLV>
0

>  <SCORE.SYSTEM.norm>
0

>  <SCORE.heavy>
28

>  <SCORE.norm>
-1.04262

>  <RMSD>
1.174

$$$$
ligand
 OpenBabel11021811413D
libRbt.so/2013.1/901 2013/11/27
 28 32  0  0  0  0  0  0  0  0999 V2000
   43.0563   28.8729   22.3879 C   0  0  0  0  0  0  0  0  0  0  0  0
   41.7568   28.3468   22.9645 C   0  0  0  0  0  0  0  0  0  0  0  0
   41.5339   26.8853   22.6051 C   0  0  0  0  0  0  0  0  0  0  0  0
   33.8945   25.0293   26.2386 O   0  0  0  0  0  0  0  0  0  0  0  0
   34.8354   24.9125   25.1699 C   0  0  0  0  0  0  0  0  0  0  0  0
   38.6359   24.0653   28.1949 C   0  0  0  0  0  0  0  0  0  0  0  0
   38.4485   25.2925   28.8179 C   0  0  0  0  0  0  0  0  0  0  0  0
   37.4324   26.1431   28.3750 C   0  0  0  0  0  0  0  0  0  0  0  0
   36.6042   25.7690   27.3161 C   0  0  0  0  0  0  0  0  0  0  0  0
   36.0138   24.0165   25.5726 C   0  0  1  0  0  0  0  0  0  0  0  0
   36.7919   24.5373   26.7339 C   0  0  0  0  0  0  0  0  0  0  0  0
   37.7929   23.7064   27.1700 C   0  0  0  0  0  0  0  0  0  0  0  0
   37.9340   22.4695   26.4255 C   0  0  1  0  0  0  0  0  0  0  0  0
   36.4348   20.5080   26.7354 C   0  0  0  0  0  0  0  0  0  0  0  0
   36.6331   21.8245   26.3944 C   0  0  0  0  0  0  0  0  0  0  0  0
   35.6064   22.6159   25.9544 C   0  0  0  0  0  0  0  0  0  0  0  0
   34.3274   22.0907   25.8423 C   0  0  0  0  0  0  0  0  0  0  0  0
   34.1061   20.7604   26.2047 C   0  0  0  0  0  0  0  0  0  0  0  0
   35.1594   19.9739   26.6526 C   0  0  0  0  0  0  0  0  0  0  0  0
   40.1073   26.4638   22.9326 C   0  0  0  0  0  0  0  0  0  0  0  0
   39.9825   26.1077   24.4093 C   0  0  0  0  0  0  0  0  0  0  0  0
   37.3248   26.0710   23.7669 O   0  0  0  0  0  0  0  0  0  0  0  0
   40.4829   23.4742   25.3055 O   0  0  0  0  0  0  0  0  0  0  0  0
   39.3776   23.8244   24.9264 C   0  0  0  0  0  0  0  0  0  0  0  0
   39.0637   24.9838   24.4957 N   0  0  0  0  0  0  0  0  0  0  0  0
   37.8424   25.0734   24.1982 C   0  0  0  0  0  0  0  0  0  0  0  0
   37.0785   23.8264   24.4807 C   0  0  1  0  0  0  0  0  0  0  0  0
   38.1993   22.9194   24.9954 C   0  0  2  0  0  0  0  0  0  0  0  0
  1  2  1  0  0  0  0
  2  3  1  0  0  0  0
  3 20  1  0  0  0  0
  4  5  1  0  0  0  0
  6  7  2  0  0  0  0
  6 12  1  0  0  0  0
  7  8  1  0  0  0  0
  8  9  2  0  0  0  0
  9 11  1  0  0  0  0
 10  5  1  6  0  0  0
 10 11  1  0  0  0  0
 10 16  1  0  0  0  0
 10 27  1  0  0  0  0
 11 12  2  0  0  0  0
 13 12  1  1  0  0  0
 13 15  1  0  0  0  0
 13 28  1  0  0  0  0
 14 15  2  0  0  0  0
 14 19  1  0  0  0  0
 15 16  1  0  0  0  0
 16 17  2  0  0  0  0
 17 18  1  0  0  0  0
 18 19  2  0  0  0  0
 20 21  1  0  0  0  0
 21 25  1  0  0  0  0
 22 26  2  0  0  0  0
 23 24  2  0  0  0  0
 24 25  1  0  0  0  0
 25 26  1  0  0  0  0
 27 26  1  1  0  0  0
 27 28  1  0  0  0  0
 28 24  1  1  0  0  0
M  END
>  <CHROM.1>
-167.96485239,-61.31298242,-82.42314996,-143.09957979,116.74923434,37.81827706
24.41665107,25.44394249,-0.72685994,-0.35949060,2.93774739

>  <Name>
ligand

>  <RI>
0

>  <Rbt.Current_Directory>
/home/itssahil/PROJECTS/Mol_Feturizer/New_Systems/rnas/1YLS

>  <Rbt.Executable>
rbdock ($Id: //depot/dev/client3/rdock/2013.1/src/exe/rbdock.cxx#4 $)

>  <Rbt.Library>
libRbt.so (2013.1, Build901 2013/11/27)

>  <Rbt.Parameter_File>
/export/apps/rDock/src/rDock_2013.1_src/data/scripts/dock_solv.prm

>  <Rbt.Receptor>
prm/pocket_docking_4.prm

>  <SCORE>
-35.7566

>  <SCORE.INTER>
-34.8042

>  <SCORE.INTER.CONST>
1

>  <SCORE.INTER.POLAR>
0

>  <SCORE.INTER.ROT>
5

>  <SCORE.INTER.SOLV>
9.29614

>  <SCORE.INTER.VDW>
-33.2349

>  <SCORE.INTER.norm>
-1.24301

>  <SCORE.INTRA>
-0.952335

>  <SCORE.INTRA.DIHEDRAL>
-3.45798

>  <SCORE.INTRA.DIHEDRAL.0>
12.0148

>  <SCORE.INTRA.POLAR>
0

>  <SCORE.INTRA.POLAR.0>
0

>  <SCORE.INTRA.REPUL>
0

>  <SCORE.INTRA.REPUL.0>
0

>  <SCORE.INTRA.SOLV>
-0.0103362

>  <SCORE.INTRA.SOLV.lig_0>
-10.5235

>  <SCORE.INTRA.VDW>
0.781823

>  <SCORE.INTRA.VDW.0>
-1.38455

>  <SCORE.INTRA.norm>
-0.0340119

>  <SCORE.RESTR>
0

>  <SCORE.RESTR.CAVITY>
0

>  <SCORE.RESTR.norm>
0

>  <SCORE.SYSTEM>
0

>  <SCORE.SYSTEM.CONST>
0

>  <SCORE.SYSTEM.DIHEDRAL>
0

>  <SCORE.SYSTEM.SOLV>
0

>  <SCORE.SYSTEM.norm>
0

>  <SCORE.heavy>
28

>  <SCORE.norm>
-1.27702

>  <RMSD>
1.176

$$$$
ligand
 OpenBabel11021811413D
libRbt.so/2013.1/901 2013/11/27
 28 32  0  0  0  0  0  0  0  0999 V2000
   41.6268   28.1810   23.1330 C   0  0  0  0  0  0  0  0  0  0  0  0
   42.6256   27.1084   22.7458 C   0  0  0  0  0  0  0  0  0  0  0  0
   42.8892   26.1457   23.8940 C   0  0  0  0  0  0  0  0  0  0  0  0
   34.6835   24.5817   23.8553 O   0  0  0  0  0  0  0  0  0  0  0  0
   35.3022   25.0465   25.0562 C   0  0  0  0  0  0  0  0  0  0  0  0
   38.6908   23.8300   28.4252 C   0  0  0  0  0  0  0  0  0  0  0  0
   38.5777   25.0761   29.0283 C   0  0  0  0  0  0  0  0  0  0  0  0
   37.7040   26.0254   28.4920 C   0  0  0  0  0  0  0  0  0  0  0  0
   36.9434   25.7312   27.3597 C   0  0  0  0  0  0  0  0  0  0  0  0
   36.3355   24.0345   25.5677 C   0  0  1  0  0  0  0  0  0  0  0  0
   37.0525   24.4810   26.7973 C   0  0  0  0  0  0  0  0  0  0  0  0
   37.9140   23.5528   27.3253 C   0  0  0  0  0  0  0  0  0  0  0  0
   37.9916   22.3008   26.5969 C   0  0  1  0  0  0  0  0  0  0  0  0
   36.2696   20.5125   26.7635 C   0  0  0  0  0  0  0  0  0  0  0  0
   36.6381   21.7971   26.4433 C   0  0  0  0  0  0  0  0  0  0  0  0
   35.7472   22.6888   25.9088 C   0  0  0  0  0  0  0  0  0  0  0  0
   34.4358   22.3012   25.6766 C   0  0  0  0  0  0  0  0  0  0  0  0
   34.0410   21.0054   26.0161 C   0  0  0  0  0  0  0  0  0  0  0  0
   34.9580   20.1160   26.5608 C   0  0  0  0  0  0  0  0  0  0  0  0
   41.7721   25.1153   23.9975 C   0  0  0  0  0  0  0  0  0  0  0  0
   40.5958   25.6815   24.7839 C   0  0  0  0  0  0  0  0  0  0  0  0
   38.0212   25.9208   23.8943 O   0  0  0  0  0  0  0  0  0  0  0  0
   40.7267   23.0185   25.7222 O   0  0  0  0  0  0  0  0  0  0  0  0
   39.7053   23.4803   25.2409 C   0  0  0  0  0  0  0  0  0  0  0  0
   39.5584   24.6623   24.7830 N   0  0  0  0  0  0  0  0  0  0  0  0
   38.3869   24.8781   24.3719 C   0  0  0  0  0  0  0  0  0  0  0  0
   37.4715   23.7220   24.5808 C   0  0  1  0  0  0  0  0  0  0  0  0
   38.4360   22.7062   25.1983 C   0  0  2  0  0  0  0  0  0  0  0  0
  1  2  1  0  0  0  0
  2  3  1  0  0  0  0
  3 20  1  0  0  0  0
  4  5  1  0  0  0  0
  6  7  2  0  0  0  0
  6 12  1  0  0  0  0
  7  8  1  0  0  0  0
  8  9  2  0  0  0  0
  9 11  1  0  0  0  0
 10  5  1  6  0  0  0
 10 11  1  0  0  0  0
 10 16  1  0  0  0  0
 10 27  1  0  0  0  0
 11 12  2  0  0  0  0
 13 12  1  1  0  0  0
 13 15  1  0  0  0  0
 13 28  1  0  0  0  0
 14 15  2  0  0  0  0
 14 19  1  0  0  0  0
 15 16  1  0  0  0  0
 16 17  2  0  0  0  0
 17 18  1  0  0  0  0
 18 19  2  0  0  0  0
 20 21  1  0  0  0  0
 21 25  1  0  0  0  0
 22 26  2  0  0  0  0
 23 24  2  0  0  0  0
 24 25  1  0  0  0  0
 25 26  1  0  0  0  0
 27 26  1  1  0  0  0
 27 28  1  0  0  0  0
 28 24  1  1  0  0  0
M  END
>  <CHROM.1>
79.94548419,178.07005631,-83.28448678,177.50546166,58.49087050,38.14058255
24.15149539,25.54290572,0.61206901,-0.27625133,-0.89531459

>  <Name>
ligand

>  <RI>
0

>  <Rbt.Current_Directory>
/home/itssahil/PROJECTS/Mol_Feturizer/New_Systems/rnas/1YLS

>  <Rbt.Executable>
rbdock ($Id: //depot/dev/client3/rdock/2013.1/src/exe/rbdock.cxx#4 $)

>  <Rbt.Library>
libRbt.so (2013.1, Build901 2013/11/27)

>  <Rbt.Parameter_File>
/export/apps/rDock/src/rDock_2013.1_src/data/scripts/dock_solv.prm

>  <Rbt.Receptor>
prm/pocket_docking_6.prm

>  <SCORE>
-33.4477

>  <SCORE.INTER>
-32.5634

>  <SCORE.INTER.CONST>
1

>  <SCORE.INTER.POLAR>
0

>  <SCORE.INTER.ROT>
5

>  <SCORE.INTER.SOLV>
7.67622

>  <SCORE.INTER.VDW>
-31.201

>  <SCORE.INTER.norm>
-1.16298

>  <SCORE.INTRA>
-0.884373

>  <SCORE.INTRA.DIHEDRAL>
-6.02638

>  <SCORE.INTRA.DIHEDRAL.0>
12.0148

>  <SCORE.INTRA.POLAR>
0

>  <SCORE.INTRA.POLAR.0>
0

>  <SCORE.INTRA.REPUL>
0

>  <SCORE.INTRA.REPUL.0>
0

>  <SCORE.INTRA.SOLV>
0.244074

>  <SCORE.INTRA.SOLV.lig_0>
-10.5235

>  <SCORE.INTRA.VDW>
2.00678

>  <SCORE.INTRA.VDW.0>
-1.38455

>  <SCORE.INTRA.norm>
-0.0315847

>  <SCORE.RESTR>
0

>  <SCORE.RESTR.CAVITY>
0

>  <SCORE.RESTR.norm>
0

>  <SCORE.SYSTEM>
0

>  <SCORE.SYSTEM.CONST>
0

>  <SCORE.SYSTEM.DIHEDRAL>
0

>  <SCORE.SYSTEM.SOLV>
0

>  <SCORE.SYSTEM.norm>
0

>  <SCORE.heavy>
28

>  <SCORE.norm>
-1.19456

>  <RMSD>
1.176

$$$$
ligand
 OpenBabel11021811413D
libRbt.so/2013.1/901 2013/11/27
 28 32  0  0  0  0  0  0  0  0999 V2000
   43.8959   27.4784   22.1793 C   0  0  0  0  0  0  0  0  0  0  0  0
   42.4554   27.0357   22.0147 C   0  0  0  0  0  0  0  0  0  0  0  0
   41.6579   27.2319   23.2954 C   0  0  0  0  0  0  0  0  0  0  0  0
   33.7257   25.0449   24.6338 O   0  0  0  0  0  0  0  0  0  0  0  0
   34.5326   25.3250   25.7790 C   0  0  0  0  0  0  0  0  0  0  0  0
   38.7059   23.9763   28.0322 C   0  0  0  0  0  0  0  0  0  0  0  0
   38.6355   25.0750   28.8792 C   0  0  0  0  0  0  0  0  0  0  0  0
   37.5852   25.9861   28.7414 C   0  0  0  0  0  0  0  0  0  0  0  0
   36.6069   25.7998   27.7641 C   0  0  0  0  0  0  0  0  0  0  0  0
   35.7368   24.3769   25.8462 C   0  0  1  0  0  0  0  0  0  0  0  0
   36.6833   24.6896   26.9561 C   0  0  0  0  0  0  0  0  0  0  0  0
   37.7180   23.7991   27.0927 C   0  0  0  0  0  0  0  0  0  0  0  0
   37.7252   22.7119   26.1324 C   0  0  1  0  0  0  0  0  0  0  0  0
   36.2436   20.7208   26.3095 C   0  0  0  0  0  0  0  0  0  0  0  0
   36.4196   22.0773   26.1773 C   0  0  0  0  0  0  0  0  0  0  0  0
   35.3579   22.9296   26.0337 C   0  0  0  0  0  0  0  0  0  0  0  0
   34.0650   22.4273   26.0174 C   0  0  0  0  0  0  0  0  0  0  0  0
   33.8690   21.0532   26.1714 C   0  0  0  0  0  0  0  0  0  0  0  0
   34.9583   20.2046   26.3197 C   0  0  0  0  0  0  0  0  0  0  0  0
   40.2782   26.5986   23.1706 C   0  0  0  0  0  0  0  0  0  0  0  0
   39.5435   26.6543   24.5048 C   0  0  0  0  0  0  0  0  0  0  0  0
   36.8213   26.7204   24.2550 O   0  0  0  0  0  0  0  0  0  0  0  0
   40.1097   23.9066   24.8488 O   0  0  0  0  0  0  0  0  0  0  0  0
   38.9695   24.3134   24.6994 C   0  0  0  0  0  0  0  0  0  0  0  0
   38.6224   25.5291   24.5261 N   0  0  0  0  0  0  0  0  0  0  0  0
   37.3734   25.6647   24.4276 C   0  0  0  0  0  0  0  0  0  0  0  0
   36.6310   24.3847   24.5962 C   0  0  1  0  0  0  0  0  0  0  0  0
   37.7938   23.4060   24.7790 C   0  0  2  0  0  0  0  0  0  0  0  0
  1  2  1  0  0  0  0
  2  3  1  0  0  0  0
  3 20  1  0  0  0  0
  4  5  1  0  0  0  0
  6  7  2  0  0  0  0
  6 12  1  0  0  0  0
  7  8  1  0  0  0  0
  8  9  2  0  0  0  0
  9 11  1  0  0  0  0
 10  5  1  6  0  0  0
 10 11  1  0  0  0  0
 10 16  1  0  0  0  0
 10 27  1  0  0  0  0
 11 12  2  0  0  0  0
 13 12  1  1  0  0  0
 13 15  1  0  0  0  0
 13 28  1  0  0  0  0
 14 15  2  0  0  0  0
 14 19  1  0  0  0  0
 15 16  1  0  0  0  0
 16 17  2  0  0  0  0
 17 18  1  0  0  0  0
 18 19  2  0  0  0  0
 20 21  1  0  0  0  0
 21 25  1  0  0  0  0
 22 26  2  0  0  0  0
 23 24  2  0  0  0  0
 24 25  1  0  0  0  0
 25 26  1  0  0  0  0
 27 26  1  1  0  0  0
 27 28  1  0  0  0  0
 28 24  1  1  0  0  0
M  END
>  <CHROM.1>
-171.82248000,175.15716507,173.45206168,-152.15575973,74.45001901,37.68739985
24.57370403,25.39241597,-0.67844442,0.08233859,2.38631129

>  <Name>
ligand

>  <RI>
0

>  <Rbt.Current_Directory>
/home/itssahil/PROJECTS/Mol_Feturizer/New_Systems/rnas/1YLS

>  <Rbt.Executable>
rbdock ($Id: //depot/dev/client3/rdock/2013.1/src/exe/rbdock.cxx#4 $)

>  <Rbt.Library>
libRbt.so (2013.1, Build901 2013/11/27)

>  <Rbt.Parameter_File>
/export/apps/rDock/src/rDock_2013.1_src/data/scripts/dock_solv.prm

>  <Rbt.Receptor>
prm/pocket_docking_5.prm

>  <SCORE>
-37.8941

>  <SCORE.INTER>
-34.667

>  <SCORE.INTER.CONST>
1

>  <SCORE.INTER.POLAR>
0

>  <SCORE.INTER.ROT>
5

>  <SCORE.INTER.SOLV>
7.91143

>  <SCORE.INTER.VDW>
-32.6818

>  <SCORE.INTER.norm>
-1.23811

>  <SCORE.INTRA>
-3.22713

>  <SCORE.INTRA.DIHEDRAL>
-6.76758

>  <SCORE.INTRA.DIHEDRAL.0>
12.0148

>  <SCORE.INTRA.POLAR>
0

>  <SCORE.INTRA.POLAR.0>
0

>  <SCORE.INTRA.REPUL>
0

>  <SCORE.INTRA.REPUL.0>
0

>  <SCORE.INTRA.SOLV>
0.231668

>  <SCORE.INTRA.SOLV.lig_0>
-10.5235

>  <SCORE.INTRA.VDW>
0.0408225

>  <SCORE.INTRA.VDW.0>
-1.38455

>  <SCORE.INTRA.norm>
-0.115255

>  <SCORE.RESTR>
0

>  <SCORE.RESTR.CAVITY>
0

>  <SCORE.RESTR.norm>
0

>  <SCORE.SYSTEM>
0

>  <SCORE.SYSTEM.CONST>
0

>  <SCORE.SYSTEM.DIHEDRAL>
0

>  <SCORE.SYSTEM.SOLV>
0

>  <SCORE.SYSTEM.norm>
0

>  <SCORE.heavy>
28

>  <SCORE.norm>
-1.35336

>  <RMSD>
1.178

$$$$
ligand
 OpenBabel11021811413D
libRbt.so/2013.1/901 2013/11/27
 28 32  0  0  0  0  0  0  0  0999 V2000
   42.6594   29.0282   22.4026 C   0  0  0  0  0  0  0  0  0  0  0  0
   42.2703   27.9162   23.3565 C   0  0  0  0  0  0  0  0  0  0  0  0
   41.4679   26.8301   22.6554 C   0  0  0  0  0  0  0  0  0  0  0  0
   34.2650   24.4430   24.0111 O   0  0  0  0  0  0  0  0  0  0  0  0
   34.9128   24.9426   25.1823 C   0  0  0  0  0  0  0  0  0  0  0  0
   38.5976   23.9834   28.3151 C   0  0  0  0  0  0  0  0  0  0  0  0
   38.4126   25.2052   28.9493 C   0  0  0  0  0  0  0  0  0  0  0  0
   37.4269   26.0806   28.4862 C   0  0  0  0  0  0  0  0  0  0  0  0
   36.6267   25.7366   27.3961 C   0  0  0  0  0  0  0  0  0  0  0  0
   36.0611   24.0194   25.6097 C   0  0  1  0  0  0  0  0  0  0  0  0
   36.8106   24.5097   26.8027 C   0  0  0  0  0  0  0  0  0  0  0  0
   37.7817   23.6544   27.2587 C   0  0  0  0  0  0  0  0  0  0  0  0
   37.9242   22.4254   26.5015 C   0  0  1  0  0  0  0  0  0  0  0  0
   36.3803   20.4881   26.7352 C   0  0  0  0  0  0  0  0  0  0  0  0
   36.6135   21.8052   26.4196 C   0  0  0  0  0  0  0  0  0  0  0  0
   35.6161   22.6216   25.9582 C   0  0  0  0  0  0  0  0  0  0  0  0
   34.3321   22.1219   25.7977 C   0  0  0  0  0  0  0  0  0  0  0  0
   34.0750   20.7911   26.1339 C   0  0  0  0  0  0  0  0  0  0  0  0
   35.0988   19.9791   26.6040 C   0  0  0  0  0  0  0  0  0  0  0  0
   41.1888   25.6720   23.6046 C   0  0  0  0  0  0  0  0  0  0  0  0
   40.1027   26.0519   24.6041 C   0  0  0  0  0  0  0  0  0  0  0  0
   37.4669   26.0736   23.8765 O   0  0  0  0  0  0  0  0  0  0  0  0
   40.5259   23.3975   25.4782 O   0  0  0  0  0  0  0  0  0  0  0  0
   39.4399   23.7734   25.0690 C   0  0  0  0  0  0  0  0  0  0  0  0
   39.1612   24.9443   24.6450 N   0  0  0  0  0  0  0  0  0  0  0  0
   37.9520   25.0607   24.3098 C   0  0  0  0  0  0  0  0  0  0  0  0
   37.1569   23.8244   24.5499 C   0  0  1  0  0  0  0  0  0  0  0  0
   38.2437   22.8898   25.0872 C   0  0  2  0  0  0  0  0  0  0  0  0
  1  2  1  0  0  0  0
  2  3  1  0  0  0  0
  3 20  1  0  0  0  0
  4  5  1  0  0  0  0
  6  7  2  0  0  0  0
  6 12  1  0  0  0  0
  7  8  1  0  0  0  0
  8  9  2  0  0  0  0
  9 11  1  0  0  0  0
 10  5  1  6  0  0  0
 10 11  1  0  0  0  0
 10 16  1  0  0  0  0
 10 27  1  0  0  0  0
 11 12  2  0  0  0  0
 13 12  1  1  0  0  0
 13 15  1  0  0  0  0
 13 28  1  0  0  0  0
 14 15  2  0  0  0  0
 14 19  1  0  0  0  0
 15 16  1  0  0  0  0
 16 17  2  0  0  0  0
 17 18  1  0  0  0  0
 18 19  2  0  0  0  0
 20 21  1  0  0  0  0
 21 25  1  0  0  0  0
 22 26  2  0  0  0  0
 23 24  2  0  0  0  0
 24 25  1  0  0  0  0
 25 26  1  0  0  0  0
 27 26  1  1  0  0  0
 27 28  1  0  0  0  0
 28 24  1  1  0  0  0
M  END
>  <CHROM.1>
175.31348530,178.02585975,74.95930797,133.20788298,65.19538214,37.90067142
24.32792267,25.44911675,0.66959889,-0.40701276,-0.98940734

>  <Name>
ligand

>  <RI>
0

>  <Rbt.Current_Directory>
/home/itssahil/PROJECTS/Mol_Feturizer/New_Systems/rnas/1YLS

>  <Rbt.Executable>
rbdock ($Id: //depot/dev/client3/rdock/2013.1/src/exe/rbdock.cxx#4 $)

>  <Rbt.Library>
libRbt.so (2013.1, Build901 2013/11/27)

>  <Rbt.Parameter_File>
/export/apps/rDock/src/rDock_2013.1_src/data/scripts/dock_solv.prm

>  <Rbt.Receptor>
prm/pocket_docking_8.prm

>  <SCORE>
-35.426

>  <SCORE.INTER>
-34.4775

>  <SCORE.INTER.CONST>
1

>  <SCORE.INTER.POLAR>
0

>  <SCORE.INTER.ROT>
5

>  <SCORE.INTER.SOLV>
8.60913

>  <SCORE.INTER.VDW>
-32.7881

>  <SCORE.INTER.norm>
-1.23134

>  <SCORE.INTRA>
-0.948479

>  <SCORE.INTRA.DIHEDRAL>
-3.77477

>  <SCORE.INTRA.DIHEDRAL.0>
12.0148

>  <SCORE.INTRA.POLAR>
0

>  <SCORE.INTRA.POLAR.0>
0

>  <SCORE.INTRA.REPUL>
0

>  <SCORE.INTRA.REPUL.0>
0

>  <SCORE.INTRA.SOLV>
0.225955

>  <SCORE.INTRA.SOLV.lig_0>
-10.5235

>  <SCORE.INTRA.VDW>
0.825929

>  <SCORE.INTRA.VDW.0>
-1.38455

>  <SCORE.INTRA.norm>
-0.0338742

>  <SCORE.RESTR>
0

>  <SCORE.RESTR.CAVITY>
0

>  <SCORE.RESTR.norm>
0

>  <SCORE.SYSTEM>
0

>  <SCORE.SYSTEM.CONST>
0

>  <SCORE.SYSTEM.DIHEDRAL>
0

>  <SCORE.SYSTEM.SOLV>
0

>  <SCORE.SYSTEM.norm>
0

>  <SCORE.heavy>
28

>  <SCORE.norm>
-1.26521

>  <RMSD>
1.190

$$$$
ligand
 OpenBabel11021811413D
libRbt.so/2013.1/901 2013/11/27
 28 32  0  0  0  0  0  0  0  0999 V2000
   44.7071   26.9990   24.6848 C   0  0  0  0  0  0  0  0  0  0  0  0
   43.5207   26.0629   24.5657 C   0  0  0  0  0  0  0  0  0  0  0  0
   42.5438   26.5277   23.4960 C   0  0  0  0  0  0  0  0  0  0  0  0
   34.2732   26.1732   26.4774 O   0  0  0  0  0  0  0  0  0  0  0  0
   35.1677   25.9675   25.3825 C   0  0  0  0  0  0  0  0  0  0  0  0
   38.5452   23.7492   28.2081 C   0  0  0  0  0  0  0  0  0  0  0  0
   38.6535   24.8773   29.0112 C   0  0  0  0  0  0  0  0  0  0  0  0
   37.8964   26.0127   28.7117 C   0  0  0  0  0  0  0  0  0  0  0  0
   37.0318   26.0214   27.6164 C   0  0  0  0  0  0  0  0  0  0  0  0
   36.0717   24.7537   25.6338 C   0  0  1  0  0  0  0  0  0  0  0  0
   36.9215   24.8828   26.8530 C   0  0  0  0  0  0  0  0  0  0  0  0
   37.6691   23.7711   27.1488 C   0  0  0  0  0  0  0  0  0  0  0  0
   37.5171   22.6635   26.2247 C   0  0  1  0  0  0  0  0  0  0  0  0
   35.5657   21.1199   26.2488 C   0  0  0  0  0  0  0  0  0  0  0  0
   36.0975   22.3793   26.1089 C   0  0  0  0  0  0  0  0  0  0  0  0
   35.3152   23.4605   25.8034 C   0  0  0  0  0  0  0  0  0  0  0  0
   33.9492   23.2975   25.6255 C   0  0  0  0  0  0  0  0  0  0  0  0
   33.3911   22.0274   25.7848 C   0  0  0  0  0  0  0  0  0  0  0  0
   34.2002   20.9432   26.0985 C   0  0  0  0  0  0  0  0  0  0  0  0
   41.2890   25.6642   23.5035 C   0  0  0  0  0  0  0  0  0  0  0  0
   40.4698   25.9254   24.7619 C   0  0  0  0  0  0  0  0  0  0  0  0
   37.9076   26.6560   24.1469 O   0  0  0  0  0  0  0  0  0  0  0  0
   40.2679   23.1478   25.2450 O   0  0  0  0  0  0  0  0  0  0  0  0
   39.2971   23.8177   24.9338 C   0  0  0  0  0  0  0  0  0  0  0  0
   39.2965   25.0696   24.6863 N   0  0  0  0  0  0  0  0  0  0  0  0
   38.1457   25.5074   24.4175 C   0  0  0  0  0  0  0  0  0  0  0  0
   37.0859   24.4657   24.5155 C   0  0  1  0  0  0  0  0  0  0  0  0
   37.9280   23.2394   24.8765 C   0  0  2  0  0  0  0  0  0  0  0  0
  1  2  1  0  0  0  0
  2  3  1  0  0  0  0
  3 20  1  0  0  0  0
  4  5  1  0  0  0  0
  6  7  2  0  0  0  0
  6 12  1  0  0  0  0
  7  8  1  0  0  0  0
  8  9  2  0  0  0  0
  9 11  1  0  0  0  0
 10  5  1  6  0  0  0
 10 11  1  0  0  0  0
 10 16  1  0  0  0  0
 10 27  1  0  0  0  0
 11 12  2  0  0  0  0
 13 12  1  1  0  0  0
 13 15  1  0  0  0  0
 13 28  1  0  0  0  0
 14 15  2  0  0  0  0
 14 19  1  0  0  0  0
 15 16  1  0  0  0  0
 16 17  2  0  0  0  0
 17 18  1  0  0  0  0
 18 19  2  0  0  0  0
 20 21  1  0  0  0  0
 21 25  1  0  0  0  0
 22 26  2  0  0  0  0
 23 24  2  0  0  0  0
 24 25  1  0  0  0  0
 25 26  1  0  0  0  0
 27 26  1  1  0  0  0
 27 28  1  0  0  0  0
 28 24  1  1  0  0  0
M  END
>  <CHROM.1>
-173.58464874,-60.18165884,69.55598095,179.81498602,77.36249011,38.00561250
24.55738254,25.66963681,0.31667056,0.29140772,0.17087660

>  <Name>
ligand

>  <RI>
0

>  <Rbt.Current_Directory>
/home/itssahil/PROJECTS/Mol_Feturizer/New_Systems/rnas/1YLS

>  <Rbt.Executable>
rbdock ($Id: //depot/dev/client3/rdock/2013.1/src/exe/rbdock.cxx#4 $)

>  <Rbt.Library>
libRbt.so (2013.1, Build901 2013/11/27)

>  <Rbt.Parameter_File>
/export/apps/rDock/src/rDock_2013.1_src/data/scripts/dock_solv.prm

>  <Rbt.Receptor>
prm/pocket_docking_8.prm

>  <SCORE>
-31.7238

>  <SCORE.INTER>
-27.7478

>  <SCORE.INTER.CONST>
1

>  <SCORE.INTER.POLAR>
0

>  <SCORE.INTER.ROT>
5

>  <SCORE.INTER.SOLV>
7.25795

>  <SCORE.INTER.VDW>
-27.8512

>  <SCORE.INTER.norm>
-0.990992

>  <SCORE.INTRA>
-3.97606

>  <SCORE.INTRA.DIHEDRAL>
-9.20668

>  <SCORE.INTRA.DIHEDRAL.0>
12.0148

>  <SCORE.INTRA.POLAR>
0

>  <SCORE.INTRA.POLAR.0>
0

>  <SCORE.INTRA.REPUL>
0

>  <SCORE.INTRA.REPUL.0>
0

>  <SCORE.INTRA.SOLV>
-0.0119253

>  <SCORE.INTRA.SOLV.lig_0>
-10.5235

>  <SCORE.INTRA.VDW>
0.633243

>  <SCORE.INTRA.VDW.0>
-1.38455

>  <SCORE.INTRA.norm>
-0.142002

>  <SCORE.RESTR>
0

>  <SCORE.RESTR.CAVITY>
0

>  <SCORE.RESTR.norm>
0

>  <SCORE.SYSTEM>
0

>  <SCORE.SYSTEM.CONST>
0

>  <SCORE.SYSTEM.DIHEDRAL>
0

>  <SCORE.SYSTEM.SOLV>
0

>  <SCORE.SYSTEM.norm>
0

>  <SCORE.heavy>
28

>  <SCORE.norm>
-1.13299

>  <RMSD>
1.191

$$$$
ligand
 OpenBabel11021811413D
libRbt.so/2013.1/901 2013/11/27
 28 32  0  0  0  0  0  0  0  0999 V2000
   43.6642   27.5085   22.1334 C   0  0  0  0  0  0  0  0  0  0  0  0
   42.5630   26.5915   21.6392 C   0  0  0  0  0  0  0  0  0  0  0  0
   41.2087   26.9802   22.2132 C   0  0  0  0  0  0  0  0  0  0  0  0
   33.6789   26.1224   25.6601 O   0  0  0  0  0  0  0  0  0  0  0  0
   34.7079   26.0019   24.6764 C   0  0  0  0  0  0  0  0  0  0  0  0
   38.2617   25.3113   28.0240 C   0  0  0  0  0  0  0  0  0  0  0  0
   37.9995   26.5490   28.5973 C   0  0  0  0  0  0  0  0  0  0  0  0
   37.0070   27.3663   28.0505 C   0  0  0  0  0  0  0  0  0  0  0  0
   36.2765   26.9487   26.9374 C   0  0  0  0  0  0  0  0  0  0  0  0
   35.8664   25.1418   25.1976 C   0  0  1  0  0  0  0  0  0  0  0  0
   36.5357   25.7075   26.4049 C   0  0  0  0  0  0  0  0  0  0  0  0
   37.5133   24.9094   26.9431 C   0  0  0  0  0  0  0  0  0  0  0  0
   37.7396   23.6580   26.2453 C   0  0  1  0  0  0  0  0  0  0  0  0
   36.2586   21.6727   26.4822 C   0  0  0  0  0  0  0  0  0  0  0  0
   36.4586   22.9844   26.1244 C   0  0  0  0  0  0  0  0  0  0  0  0
   35.4564   23.7425   25.5812 C   0  0  0  0  0  0  0  0  0  0  0  0
   34.2016   23.1871   25.3783 C   0  0  0  0  0  0  0  0  0  0  0  0
   33.9772   21.8615   25.7560 C   0  0  0  0  0  0  0  0  0  0  0  0
   35.0051   21.1092   26.3091 C   0  0  0  0  0  0  0  0  0  0  0  0
   41.1927   26.7927   23.7247 C   0  0  0  0  0  0  0  0  0  0  0  0
   39.8759   27.2895   24.3096 C   0  0  0  0  0  0  0  0  0  0  0  0
   37.2815   27.1795   23.4526 O   0  0  0  0  0  0  0  0  0  0  0  0
   40.3521   24.6901   25.3122 O   0  0  0  0  0  0  0  0  0  0  0  0
   39.2752   25.0068   24.8348 C   0  0  0  0  0  0  0  0  0  0  0  0
   38.9752   26.1484   24.3496 N   0  0  0  0  0  0  0  0  0  0  0  0
   37.7811   26.2042   23.9507 C   0  0  0  0  0  0  0  0  0  0  0  0
   37.0212   24.9482   24.2021 C   0  0  1  0  0  0  0  0  0  0  0  0
   38.1131   24.0786   24.8304 C   0  0  2  0  0  0  0  0  0  0  0  0
  1  2  1  0  0  0  0
  2  3  1  0  0  0  0
  3 20  1  0  0  0  0
  4  5  1  0  0  0  0
  6  7  2  0  0  0  0
  6 12  1  0  0  0  0
  7  8  1  0  0  0  0
  8  9  2  0  0  0  0
  9 11  1  0  0  0  0
 10  5  1  6  0  0  0
 10 11  1  0  0  0  0
 10 16  1  0  0  0  0
 10 27  1  0  0  0  0
 11 12  2  0  0  0  0
 13 12  1  1  0  0  0
 13 15  1  0  0  0  0
 13 28  1  0  0  0  0
 14 15  2  0  0  0  0
 14 19  1  0  0  0  0
 15 16  1  0  0  0  0
 16 17  2  0  0  0  0
 17 18  1  0  0  0  0
 18 19  2  0  0  0  0
 20 21  1  0  0  0  0
 21 25  1  0  0  0  0
 22 26  2  0  0  0  0
 23 24  2  0  0  0  0
 24 25  1  0  0  0  0
 25 26  1  0  0  0  0
 27 26  1  1  0  0  0
 27 28  1  0  0  0  0
 28 24  1  1  0  0  0
M  END
>  <CHROM.1>
-64.72478234,-61.41869981,175.38635927,91.85870864,49.40392120,37.75255192
25.28737019,25.16084484,-0.28495963,-0.54715011,-2.88035279

>  <Name>
ligand

>  <RI>
0

>  <Rbt.Current_Directory>
/home/itssahil/PROJECTS/Mol_Feturizer/New_Systems/rnas/1YLS

>  <Rbt.Executable>
rbdock ($Id: //depot/dev/client3/rdock/2013.1/src/exe/rbdock.cxx#4 $)

>  <Rbt.Library>
libRbt.so (2013.1, Build901 2013/11/27)

>  <Rbt.Parameter_File>
/export/apps/rDock/src/rDock_2013.1_src/data/scripts/dock_solv.prm

>  <Rbt.Receptor>
prm/blind_docking_100.prm

>  <SCORE>
-29.0638

>  <SCORE.INTER>
-29.8061

>  <SCORE.INTER.CONST>
1

>  <SCORE.INTER.POLAR>
0

>  <SCORE.INTER.ROT>
5

>  <SCORE.INTER.SOLV>
7.51588

>  <SCORE.INTER.VDW>
-29.3094

>  <SCORE.INTER.norm>
-1.0645

>  <SCORE.INTRA>
-0.594093

>  <SCORE.INTRA.DIHEDRAL>
-6.28977

>  <SCORE.INTRA.DIHEDRAL.0>
12.0148

>  <SCORE.INTRA.POLAR>
0

>  <SCORE.INTRA.POLAR.0>
0

>  <SCORE.INTRA.REPUL>
0

>  <SCORE.INTRA.REPUL.0>
0

>  <SCORE.INTRA.SOLV>
0.159155

>  <SCORE.INTRA.SOLV.lig_0>
-10.5235

>  <SCORE.INTRA.VDW>
2.47121

>  <SCORE.INTRA.VDW.0>
-1.38455

>  <SCORE.INTRA.norm>
-0.0212176

>  <SCORE.RESTR>
1.33645

>  <SCORE.RESTR.CAVITY>
1.33645

>  <SCORE.RESTR.norm>
0.0477302

>  <SCORE.SYSTEM>
0

>  <SCORE.SYSTEM.CONST>
0

>  <SCORE.SYSTEM.DIHEDRAL>
0

>  <SCORE.SYSTEM.SOLV>
0

>  <SCORE.SYSTEM.norm>
0

>  <SCORE.heavy>
28

>  <SCORE.norm>
-1.03799

>  <RMSD>
1.228

$$$$
ligand
 OpenBabel11021811413D
libRbt.so/2013.1/901 2013/11/27
 28 32  0  0  0  0  0  0  0  0999 V2000
   42.5771   29.0666   22.4363 C   0  0  0  0  0  0  0  0  0  0  0  0
   42.2246   27.9113   23.3522 C   0  0  0  0  0  0  0  0  0  0  0  0
   41.3771   26.8680   22.6394 C   0  0  0  0  0  0  0  0  0  0  0  0
   34.2454   24.0607   24.1105 O   0  0  0  0  0  0  0  0  0  0  0  0
   34.8945   24.6324   25.2475 C   0  0  0  0  0  0  0  0  0  0  0  0
   38.6810   23.9539   28.3321 C   0  0  0  0  0  0  0  0  0  0  0  0
   38.4357   25.1759   28.9450 C   0  0  0  0  0  0  0  0  0  0  0  0
   37.3932   25.9829   28.4823 C   0  0  0  0  0  0  0  0  0  0  0  0
   36.5961   25.5704   27.4139 C   0  0  0  0  0  0  0  0  0  0  0  0
   36.1016   23.7863   25.6725 C   0  0  1  0  0  0  0  0  0  0  0  0
   36.8413   24.3441   26.8418 C   0  0  0  0  0  0  0  0  0  0  0  0
   37.8680   23.5561   27.2972 C   0  0  0  0  0  0  0  0  0  0  0  0
   38.0692   22.3219   26.5623 C   0  0  1  0  0  0  0  0  0  0  0  0
   36.6449   20.3038   26.8622 C   0  0  0  0  0  0  0  0  0  0  0  0
   36.7956   21.6252   26.5163 C   0  0  0  0  0  0  0  0  0  0  0  0
   35.7447   22.3727   26.0567 C   0  0  0  0  0  0  0  0  0  0  0  0
   34.4895   21.7963   25.9293 C   0  0  0  0  0  0  0  0  0  0  0  0
   34.3160   20.4601   26.2965 C   0  0  0  0  0  0  0  0  0  0  0  0
   35.3932   19.7188   26.7642 C   0  0  0  0  0  0  0  0  0  0  0  0
   41.1002   25.6839   23.5566 C   0  0  0  0  0  0  0  0  0  0  0  0
   40.0005   26.0280   24.5541 C   0  0  0  0  0  0  0  0  0  0  0  0
   37.3561   25.8818   23.8737 O   0  0  0  0  0  0  0  0  0  0  0  0
   40.5922   23.4214   25.4732 O   0  0  0  0  0  0  0  0  0  0  0  0
   39.4795   23.7251   25.0761 C   0  0  0  0  0  0  0  0  0  0  0  0
   39.1260   24.8688   24.6340 N   0  0  0  0  0  0  0  0  0  0  0  0
   37.9066   24.9079   24.3184 C   0  0  0  0  0  0  0  0  0  0  0  0
   37.1890   23.6330   24.5972 C   0  0  1  0  0  0  0  0  0  0  0  0
   38.3372   22.7743   25.1335 C   0  0  2  0  0  0  0  0  0  0  0  0
  1  2  1  0  0  0  0
  2  3  1  0  0  0  0
  3 20  1  0  0  0  0
  4  5  1  0  0  0  0
  6  7  2  0  0  0  0
  6 12  1  0  0  0  0
  7  8  1  0  0  0  0
  8  9  2  0  0  0  0
  9 11  1  0  0  0  0
 10  5  1  6  0  0  0
 10 11  1  0  0  0  0
 10 16  1  0  0  0  0
 10 27  1  0  0  0  0
 11 12  2  0  0  0  0
 13 12  1  1  0  0  0
 13 15  1  0  0  0  0
 13 28  1  0  0  0  0
 14 15  2  0  0  0  0
 14 19  1  0  0  0  0
 15 16  1  0  0  0  0
 16 17  2  0  0  0  0
 17 18  1  0  0  0  0
 18 19  2  0  0  0  0
 20 21  1  0  0  0  0
 21 25  1  0  0  0  0
 22 26  2  0  0  0  0
 23 24  2  0  0  0  0
 24 25  1  0  0  0  0
 25 26  1  0  0  0  0
 27 26  1  1  0  0  0
 27 28  1  0  0  0  0
 28 24  1  1  0  0  0
M  END
>  <CHROM.1>
176.93295458,178.89791139,77.97497856,137.46095295,64.47475363,37.93745980
24.19331373,25.48898801,0.70092123,-0.43890730,-0.98538328

>  <Name>
ligand

>  <RI>
0

>  <Rbt.Current_Directory>
/home/itssahil/PROJECTS/Mol_Feturizer/New_Systems/rnas/1YLS

>  <Rbt.Executable>
rbdock ($Id: //depot/dev/client3/rdock/2013.1/src/exe/rbdock.cxx#4 $)

>  <Rbt.Library>
libRbt.so (2013.1, Build901 2013/11/27)

>  <Rbt.Parameter_File>
/export/apps/rDock/src/rDock_2013.1_src/data/scripts/dock_solv.prm

>  <Rbt.Receptor>
prm/pocket_docking_6.prm

>  <SCORE>
-35.3153

>  <SCORE.INTER>
-34.2562

>  <SCORE.INTER.CONST>
1

>  <SCORE.INTER.POLAR>
0

>  <SCORE.INTER.ROT>
5

>  <SCORE.INTER.SOLV>
8.9048

>  <SCORE.INTER.VDW>
-32.7391

>  <SCORE.INTER.norm>
-1.22344

>  <SCORE.INTRA>
-1.05909

>  <SCORE.INTRA.DIHEDRAL>
-3.90037

>  <SCORE.INTRA.DIHEDRAL.0>
12.0148

>  <SCORE.INTRA.POLAR>
0

>  <SCORE.INTRA.POLAR.0>
0

>  <SCORE.INTRA.REPUL>
0

>  <SCORE.INTRA.REPUL.0>
0

>  <SCORE.INTRA.SOLV>
0.208889

>  <SCORE.INTRA.SOLV.lig_0>
-10.5235

>  <SCORE.INTRA.VDW>
0.786643

>  <SCORE.INTRA.VDW.0>
-1.38455

>  <SCORE.INTRA.norm>
-0.0378248

>  <SCORE.RESTR>
0

>  <SCORE.RESTR.CAVITY>
0

>  <SCORE.RESTR.norm>
0

>  <SCORE.SYSTEM>
0

>  <SCORE.SYSTEM.CONST>
0

>  <SCORE.SYSTEM.DIHEDRAL>
0

>  <SCORE.SYSTEM.SOLV>
0

>  <SCORE.SYSTEM.norm>
0

>  <SCORE.heavy>
28

>  <SCORE.norm>
-1.26126

>  <RMSD>
1.245

$$$$
ligand
 OpenBabel11021811413D
libRbt.so/2013.1/901 2013/11/27
 28 32  0  0  0  0  0  0  0  0999 V2000
   44.3332   25.5135   24.2006 C   0  0  0  0  0  0  0  0  0  0  0  0
   42.8744   25.2341   24.5037 C   0  0  0  0  0  0  0  0  0  0  0  0
   42.2445   26.3564   25.3152 C   0  0  0  0  0  0  0  0  0  0  0  0
   33.8963   25.2644   26.3524 O   0  0  0  0  0  0  0  0  0  0  0  0
   34.7891   25.1494   25.2430 C   0  0  0  0  0  0  0  0  0  0  0  0
   38.6531   23.9700   28.0699 C   0  0  0  0  0  0  0  0  0  0  0  0
   38.5566   25.1760   28.7521 C   0  0  0  0  0  0  0  0  0  0  0  0
   37.5714   26.0976   28.3881 C   0  0  0  0  0  0  0  0  0  0  0  0
   36.6837   25.8152   27.3492 C   0  0  0  0  0  0  0  0  0  0  0  0
   35.9323   24.1759   25.5582 C   0  0  1  0  0  0  0  0  0  0  0  0
   36.7819   24.6028   26.7077 C   0  0  0  0  0  0  0  0  0  0  0  0
   37.7527   23.7020   27.0662 C   0  0  0  0  0  0  0  0  0  0  0  0
   37.7979   22.4941   26.2643 C   0  0  1  0  0  0  0  0  0  0  0  0
   36.2082   20.6016   26.5515 C   0  0  0  0  0  0  0  0  0  0  0  0
   36.4638   21.9199   26.2593 C   0  0  0  0  0  0  0  0  0  0  0  0
   35.4650   22.7828   25.8962 C   0  0  0  0  0  0  0  0  0  0  0  0
   34.1562   22.3307   25.8145 C   0  0  0  0  0  0  0  0  0  0  0  0
   33.8777   20.9987   26.1285 C   0  0  0  0  0  0  0  0  0  0  0  0
   34.9036   20.1391   26.4986 C   0  0  0  0  0  0  0  0  0  0  0  0
   40.7806   26.0520   25.6059 C   0  0  0  0  0  0  0  0  0  0  0  0
   39.9598   26.1072   24.3229 C   0  0  0  0  0  0  0  0  0  0  0  0
   37.2811   26.2382   23.7896 O   0  0  0  0  0  0  0  0  0  0  0  0
   40.3518   23.4136   25.0843 O   0  0  0  0  0  0  0  0  0  0  0  0
   39.2531   23.8377   24.7664 C   0  0  0  0  0  0  0  0  0  0  0  0
   38.9857   25.0301   24.3989 N   0  0  0  0  0  0  0  0  0  0  0  0
   37.7604   25.1965   24.1561 C   0  0  0  0  0  0  0  0  0  0  0  0
   36.9419   23.9797   24.4162 C   0  0  1  0  0  0  0  0  0  0  0  0
   38.0312   22.9933   24.8450 C   0  0  2  0  0  0  0  0  0  0  0  0
  1  2  1  0  0  0  0
  2  3  1  0  0  0  0
  3 20  1  0  0  0  0
  4  5  1  0  0  0  0
  6  7  2  0  0  0  0
  6 12  1  0  0  0  0
  7  8  1  0  0  0  0
  8  9  2  0  0  0  0
  9 11  1  0  0  0  0
 10  5  1  6  0  0  0
 10 11  1  0  0  0  0
 10 16  1  0  0  0  0
 10 27  1  0  0  0  0
 11 12  2  0  0  0  0
 13 12  1  1  0  0  0
 13 15  1  0  0  0  0
 13 28  1  0  0  0  0
 14 15  2  0  0  0  0
 14 19  1  0  0  0  0
 15 16  1  0  0  0  0
 16 17  2  0  0  0  0
 17 18  1  0  0  0  0
 18 19  2  0  0  0  0
 20 21  1  0  0  0  0
 21 25  1  0  0  0  0
 22 26  2  0  0  0  0
 23 24  2  0  0  0  0
 24 25  1  0  0  0  0
 25 26  1  0  0  0  0
 27 26  1  1  0  0  0
 27 28  1  0  0  0  0
 28 24  1  1  0  0  0
M  END
>  <CHROM.1>
179.99004946,-61.46393557,-68.42086991,141.36273364,-45.41619808,37.89866792
24.19585116,25.72514523,-0.39682627,-0.19812629,3.13719808

>  <Name>
ligand

>  <RI>
0

>  <Rbt.Current_Directory>
/home/itssahil/PROJECTS/Mol_Feturizer/New_Systems/rnas/1YLS

>  <Rbt.Executable>
rbdock ($Id: //depot/dev/client3/rdock/2013.1/src/exe/rbdock.cxx#4 $)

>  <Rbt.Library>
libRbt.so (2013.1, Build901 2013/11/27)

>  <Rbt.Parameter_File>
/export/apps/rDock/src/rDock_2013.1_src/data/scripts/dock_solv.prm

>  <Rbt.Receptor>
prm/pocket_docking_8.prm

>  <SCORE>
-30.906

>  <SCORE.INTER>
-29.9878

>  <SCORE.INTER.CONST>
1

>  <SCORE.INTER.POLAR>
0

>  <SCORE.INTER.ROT>
5

>  <SCORE.INTER.SOLV>
7.73233

>  <SCORE.INTER.VDW>
-29.5027

>  <SCORE.INTER.norm>
-1.07099

>  <SCORE.INTRA>
-0.918182

>  <SCORE.INTRA.DIHEDRAL>
-5.47237

>  <SCORE.INTRA.DIHEDRAL.0>
12.0148

>  <SCORE.INTRA.POLAR>
0

>  <SCORE.INTRA.POLAR.0>
0

>  <SCORE.INTRA.REPUL>
0

>  <SCORE.INTRA.REPUL.0>
0

>  <SCORE.INTRA.SOLV>
0.303778

>  <SCORE.INTRA.SOLV.lig_0>
-10.5235

>  <SCORE.INTRA.VDW>
1.66612

>  <SCORE.INTRA.VDW.0>
-1.38455

>  <SCORE.INTRA.norm>
-0.0327922

>  <SCORE.RESTR>
0

>  <SCORE.RESTR.CAVITY>
0

>  <SCORE.RESTR.norm>
0

>  <SCORE.SYSTEM>
0

>  <SCORE.SYSTEM.CONST>
0

>  <SCORE.SYSTEM.DIHEDRAL>
0

>  <SCORE.SYSTEM.SOLV>
0

>  <SCORE.SYSTEM.norm>
0

>  <SCORE.heavy>
28

>  <SCORE.norm>
-1.10379

>  <RMSD>
1.254

$$$$
ligand
 OpenBabel11021811413D
libRbt.so/2013.1/901 2013/11/27
 28 32  0  0  0  0  0  0  0  0999 V2000
   42.8982   28.9277   22.4280 C   0  0  0  0  0  0  0  0  0  0  0  0
   41.6791   28.3330   23.1048 C   0  0  0  0  0  0  0  0  0  0  0  0
   41.3793   26.9323   22.5920 C   0  0  0  0  0  0  0  0  0  0  0  0
   35.1419   26.1513   25.0506 O   0  0  0  0  0  0  0  0  0  0  0  0
   34.7736   24.7771   25.1809 C   0  0  0  0  0  0  0  0  0  0  0  0
   38.5868   24.0761   28.2272 C   0  0  0  0  0  0  0  0  0  0  0  0
   38.3563   25.3006   28.8411 C   0  0  0  0  0  0  0  0  0  0  0  0
   37.3146   26.1142   28.3882 C   0  0  0  0  0  0  0  0  0  0  0  0
   36.5038   25.7059   27.3285 C   0  0  0  0  0  0  0  0  0  0  0  0
   35.9792   23.9232   25.5945 C   0  0  1  0  0  0  0  0  0  0  0  0
   36.7346   24.4772   26.7554 C   0  0  0  0  0  0  0  0  0  0  0  0
   37.7605   23.6828   27.2012 C   0  0  0  0  0  0  0  0  0  0  0  0
   37.9457   22.4463   26.4658 C   0  0  1  0  0  0  0  0  0  0  0  0
   36.5107   20.4384   26.7828 C   0  0  0  0  0  0  0  0  0  0  0  0
   36.6669   21.7584   26.4337 C   0  0  0  0  0  0  0  0  0  0  0  0
   35.6165   22.5126   25.9841 C   0  0  0  0  0  0  0  0  0  0  0  0
   34.3561   21.9447   25.8703 C   0  0  0  0  0  0  0  0  0  0  0  0
   34.1773   20.6101   26.2408 C   0  0  0  0  0  0  0  0  0  0  0  0
   35.2541   19.8619   26.6984 C   0  0  0  0  0  0  0  0  0  0  0  0
   39.9604   26.5184   22.9599 C   0  0  0  0  0  0  0  0  0  0  0  0
   39.8816   26.1367   24.4334 C   0  0  0  0  0  0  0  0  0  0  0  0
   37.2294   26.0079   23.7803 O   0  0  0  0  0  0  0  0  0  0  0  0
   40.4649   23.5272   25.3495 O   0  0  0  0  0  0  0  0  0  0  0  0
   39.3502   23.8381   24.9635 C   0  0  0  0  0  0  0  0  0  0  0  0
   39.0000   24.9837   24.5236 N   0  0  0  0  0  0  0  0  0  0  0  0
   37.7778   25.0308   24.2205 C   0  0  0  0  0  0  0  0  0  0  0  0
   37.0543   23.7612   24.5083 C   0  0  1  0  0  0  0  0  0  0  0  0
   38.2021   22.8952   25.0338 C   0  0  2  0  0  0  0  0  0  0  0  0
  1  2  1  0  0  0  0
  2  3  1  0  0  0  0
  3 20  1  0  0  0  0
  4  5  1  0  0  0  0
  6  7  2  0  0  0  0
  6 12  1  0  0  0  0
  7  8  1  0  0  0  0
  8  9  2  0  0  0  0
  9 11  1  0  0  0  0
 10  5  1  6  0  0  0
 10 11  1  0  0  0  0
 10 16  1  0  0  0  0
 10 27  1  0  0  0  0
 11 12  2  0  0  0  0
 13 12  1  1  0  0  0
 13 15  1  0  0  0  0
 13 28  1  0  0  0  0
 14 15  2  0  0  0  0
 14 19  1  0  0  0  0
 15 16  1  0  0  0  0
 16 17  2  0  0  0  0
 17 18  1  0  0  0  0
 18 19  2  0  0  0  0
 20 21  1  0  0  0  0
 21 25  1  0  0  0  0
 22 26  2  0  0  0  0
 23 24  2  0  0  0  0
 24 25  1  0  0  0  0
 25 26  1  0  0  0  0
 27 26  1  1  0  0  0
 27 28  1  0  0  0  0
 28 24  1  1  0  0  0
M  END
>  <CHROM.1>
-163.41178834,49.10385858,-76.25800197,-140.69237632,118.77944570,37.82920637
24.43237592,25.42278590,-0.84093094,-0.14571936,2.72095997

>  <Name>
ligand

>  <RI>
0

>  <Rbt.Current_Directory>
/home/itssahil/PROJECTS/Mol_Feturizer/New_Systems/rnas/1YLS

>  <Rbt.Executable>
rbdock ($Id: //depot/dev/client3/rdock/2013.1/src/exe/rbdock.cxx#4 $)

>  <Rbt.Library>
libRbt.so (2013.1, Build901 2013/11/27)

>  <Rbt.Parameter_File>
/export/apps/rDock/src/rDock_2013.1_src/data/scripts/dock_solv.prm

>  <Rbt.Receptor>
prm/pocket_docking_7.prm

>  <SCORE>
-34.3276

>  <SCORE.INTER>
-35.2814

>  <SCORE.INTER.CONST>
1

>  <SCORE.INTER.POLAR>
0

>  <SCORE.INTER.ROT>
5

>  <SCORE.INTER.SOLV>
9.22783

>  <SCORE.INTER.VDW>
-33.5302

>  <SCORE.INTER.norm>
-1.26005

>  <SCORE.INTRA>
0.953803

>  <SCORE.INTRA.DIHEDRAL>
-3.1052

>  <SCORE.INTRA.DIHEDRAL.0>
12.0148

>  <SCORE.INTRA.POLAR>
0

>  <SCORE.INTRA.POLAR.0>
0

>  <SCORE.INTRA.REPUL>
0

>  <SCORE.INTRA.REPUL.0>
0

>  <SCORE.INTRA.SOLV>
0.624568

>  <SCORE.INTRA.SOLV.lig_0>
-10.5235

>  <SCORE.INTRA.VDW>
2.19412

>  <SCORE.INTRA.VDW.0>
-1.38455

>  <SCORE.INTRA.norm>
0.0340644

>  <SCORE.RESTR>
0

>  <SCORE.RESTR.CAVITY>
0

>  <SCORE.RESTR.norm>
0

>  <SCORE.SYSTEM>
0

>  <SCORE.SYSTEM.CONST>
0

>  <SCORE.SYSTEM.DIHEDRAL>
0

>  <SCORE.SYSTEM.SOLV>
0

>  <SCORE.SYSTEM.norm>
0

>  <SCORE.heavy>
28

>  <SCORE.norm>
-1.22599

>  <RMSD>
1.257

$$$$
ligand
 OpenBabel11021811413D
libRbt.so/2013.1/901 2013/11/27
 28 32  0  0  0  0  0  0  0  0999 V2000
   43.6506   26.2330   22.1764 C   0  0  0  0  0  0  0  0  0  0  0  0
   42.9414   27.5594   21.9877 C   0  0  0  0  0  0  0  0  0  0  0  0
   41.9729   27.8452   23.1257 C   0  0  0  0  0  0  0  0  0  0  0  0
   33.5372   26.1244   25.5993 O   0  0  0  0  0  0  0  0  0  0  0  0
   34.6201   26.1102   24.6675 C   0  0  0  0  0  0  0  0  0  0  0  0
   38.1933   25.1723   27.9333 C   0  0  0  0  0  0  0  0  0  0  0  0
   38.0009   26.4073   28.5391 C   0  0  0  0  0  0  0  0  0  0  0  0
   37.0397   27.2838   28.0290 C   0  0  0  0  0  0  0  0  0  0  0  0
   36.2709   26.9277   26.9202 C   0  0  0  0  0  0  0  0  0  0  0  0
   35.7445   25.1836   25.1480 C   0  0  1  0  0  0  0  0  0  0  0  0
   36.4608   25.6884   26.3552 C   0  0  0  0  0  0  0  0  0  0  0  0
   37.4079   24.8320   26.8574 C   0  0  0  0  0  0  0  0  0  0  0  0
   37.5616   23.5880   26.1275 C   0  0  1  0  0  0  0  0  0  0  0  0
   35.9910   21.6707   26.3466 C   0  0  0  0  0  0  0  0  0  0  0  0
   36.2478   22.9793   26.0149 C   0  0  0  0  0  0  0  0  0  0  0  0
   35.2741   23.7969   25.5072 C   0  0  0  0  0  0  0  0  0  0  0  0
   33.9907   23.3071   25.3148 C   0  0  0  0  0  0  0  0  0  0  0  0
   33.7092   21.9852   25.6665 C   0  0  0  0  0  0  0  0  0  0  0  0
   34.7090   21.1720   26.1837 C   0  0  0  0  0  0  0  0  0  0  0  0
   40.8005   26.8735   23.0893 C   0  0  0  0  0  0  0  0  0  0  0  0
   39.8370   27.1575   24.2356 C   0  0  0  0  0  0  0  0  0  0  0  0
   37.2260   27.1918   23.4238 O   0  0  0  0  0  0  0  0  0  0  0  0
   40.2045   24.5156   25.1705 O   0  0  0  0  0  0  0  0  0  0  0  0
   39.1361   24.8945   24.7200 C   0  0  0  0  0  0  0  0  0  0  0  0
   38.8832   26.0601   24.2663 N   0  0  0  0  0  0  0  0  0  0  0  0
   37.6865   26.1822   23.8906 C   0  0  0  0  0  0  0  0  0  0  0  0
   36.8713   24.9585   24.1274 C   0  0  1  0  0  0  0  0  0  0  0  0
   37.9307   24.0232   24.7160 C   0  0  2  0  0  0  0  0  0  0  0  0
  1  2  1  0  0  0  0
  2  3  1  0  0  0  0
  3 20  1  0  0  0  0
  4  5  1  0  0  0  0
  6  7  2  0  0  0  0
  6 12  1  0  0  0  0
  7  8  1  0  0  0  0
  8  9  2  0  0  0  0
  9 11  1  0  0  0  0
 10  5  1  6  0  0  0
 10 11  1  0  0  0  0
 10 16  1  0  0  0  0
 10 27  1  0  0  0  0
 11 12  2  0  0  0  0
 13 12  1  1  0  0  0
 13 15  1  0  0  0  0
 13 28  1  0  0  0  0
 14 15  2  0  0  0  0
 14 19  1  0  0  0  0
 15 16  1  0  0  0  0
 16 17  2  0  0  0  0
 17 18  1  0  0  0  0
 18 19  2  0  0  0  0
 20 21  1  0  0  0  0
 21 25  1  0  0  0  0
 22 26  2  0  0  0  0
 23 24  2  0  0  0  0
 24 25  1  0  0  0  0
 25 26  1  0  0  0  0
 27 26  1  1  0  0  0
 27 28  1  0  0  0  0
 28 24  1  1  0  0  0
M  END
>  <CHROM.1>
-68.05117859,-68.71529480,179.65770799,-170.49762222,75.88079491,37.67322137
25.28573884,25.12165680,-0.36053349,-0.45383260,-3.03532370

>  <Name>
ligand

>  <RI>
0

>  <Rbt.Current_Directory>
/home/itssahil/PROJECTS/Mol_Feturizer/New_Systems/rnas/1YLS

>  <Rbt.Executable>
rbdock ($Id: //depot/dev/client3/rdock/2013.1/src/exe/rbdock.cxx#4 $)

>  <Rbt.Library>
libRbt.so (2013.1, Build901 2013/11/27)

>  <Rbt.Parameter_File>
/export/apps/rDock/src/rDock_2013.1_src/data/scripts/dock_solv.prm

>  <Rbt.Receptor>
prm/blind_docking_100.prm

>  <SCORE>
-32.7675

>  <SCORE.INTER>
-30.545

>  <SCORE.INTER.CONST>
1

>  <SCORE.INTER.POLAR>
0

>  <SCORE.INTER.ROT>
5

>  <SCORE.INTER.SOLV>
7.98192

>  <SCORE.INTER.VDW>
-29.9573

>  <SCORE.INTER.norm>
-1.09089

>  <SCORE.INTRA>
-3.34914

>  <SCORE.INTRA.DIHEDRAL>
-8.91689

>  <SCORE.INTRA.DIHEDRAL.0>
12.0148

>  <SCORE.INTRA.POLAR>
0

>  <SCORE.INTRA.POLAR.0>
0

>  <SCORE.INTRA.REPUL>
0

>  <SCORE.INTRA.REPUL.0>
0

>  <SCORE.INTRA.SOLV>
-0.0431844

>  <SCORE.INTRA.SOLV.lig_0>
-10.5235

>  <SCORE.INTRA.VDW>
1.1309

>  <SCORE.INTRA.VDW.0>
-1.38455

>  <SCORE.INTRA.norm>
-0.119612

>  <SCORE.RESTR>
1.12664

>  <SCORE.RESTR.CAVITY>
1.12664

>  <SCORE.RESTR.norm>
0.0402372

>  <SCORE.SYSTEM>
0

>  <SCORE.SYSTEM.CONST>
0

>  <SCORE.SYSTEM.DIHEDRAL>
0

>  <SCORE.SYSTEM.SOLV>
0

>  <SCORE.SYSTEM.norm>
0

>  <SCORE.heavy>
28

>  <SCORE.norm>
-1.17027

>  <RMSD>
1.300

$$$$
ligand
 OpenBabel11021811413D
libRbt.so/2013.1/901 2013/11/27
 28 32  0  0  0  0  0  0  0  0999 V2000
   43.8358   25.8597   23.4212 C   0  0  0  0  0  0  0  0  0  0  0  0
   42.4619   25.5419   23.9774 C   0  0  0  0  0  0  0  0  0  0  0  0
   42.0061   26.5905   24.9811 C   0  0  0  0  0  0  0  0  0  0  0  0
   33.7372   24.9613   24.6060 O   0  0  0  0  0  0  0  0  0  0  0  0
   34.5834   25.2744   25.7137 C   0  0  0  0  0  0  0  0  0  0  0  0
   38.7730   23.9148   27.9298 C   0  0  0  0  0  0  0  0  0  0  0  0
   38.7333   25.0340   28.7514 C   0  0  0  0  0  0  0  0  0  0  0  0
   37.6947   25.9578   28.6092 C   0  0  0  0  0  0  0  0  0  0  0  0
   36.6975   25.7637   27.6527 C   0  0  0  0  0  0  0  0  0  0  0  0
   35.7741   24.3096   25.7838 C   0  0  1  0  0  0  0  0  0  0  0  0
   36.7436   24.6337   26.8702 C   0  0  0  0  0  0  0  0  0  0  0  0
   37.7670   23.7307   27.0110 C   0  0  0  0  0  0  0  0  0  0  0  0
   37.7417   22.6213   26.0770 C   0  0  1  0  0  0  0  0  0  0  0  0
   36.2334   20.6580   26.3257 C   0  0  0  0  0  0  0  0  0  0  0  0
   36.4276   22.0082   26.1584 C   0  0  0  0  0  0  0  0  0  0  0  0
   35.3766   22.8732   26.0119 C   0  0  0  0  0  0  0  0  0  0  0  0
   34.0762   22.3907   26.0287 C   0  0  0  0  0  0  0  0  0  0  0  0
   33.8621   21.0238   26.2186 C   0  0  0  0  0  0  0  0  0  0  0  0
   34.9408   20.1621   26.3692 C   0  0  0  0  0  0  0  0  0  0  0  0
   40.5906   26.2954   25.4600 C   0  0  0  0  0  0  0  0  0  0  0  0
   39.5917   26.4956   24.3263 C   0  0  0  0  0  0  0  0  0  0  0  0
   36.8670   26.5979   24.1196 O   0  0  0  0  0  0  0  0  0  0  0  0
   40.1221   23.7483   24.7265 O   0  0  0  0  0  0  0  0  0  0  0  0
   38.9858   24.1691   24.5860 C   0  0  0  0  0  0  0  0  0  0  0  0
   38.6543   25.3856   24.3895 N   0  0  0  0  0  0  0  0  0  0  0  0
   37.4060   25.5381   24.3082 C   0  0  0  0  0  0  0  0  0  0  0  0
   36.6473   24.2741   24.5195 C   0  0  1  0  0  0  0  0  0  0  0  0
   37.7981   23.2821   24.7065 C   0  0  2  0  0  0  0  0  0  0  0  0
  1  2  1  0  0  0  0
  2  3  1  0  0  0  0
  3 20  1  0  0  0  0
  4  5  1  0  0  0  0
  6  7  2  0  0  0  0
  6 12  1  0  0  0  0
  7  8  1  0  0  0  0
  8  9  2  0  0  0  0
  9 11  1  0  0  0  0
 10  5  1  6  0  0  0
 10 11  1  0  0  0  0
 10 16  1  0  0  0  0
 10 27  1  0  0  0  0
 11 12  2  0  0  0  0
 13 12  1  1  0  0  0
 13 15  1  0  0  0  0
 13 28  1  0  0  0  0
 14 15  2  0  0  0  0
 14 19  1  0  0  0  0
 15 16  1  0  0  0  0
 16 17  2  0  0  0  0
 17 18  1  0  0  0  0
 18 19  2  0  0  0  0
 20 21  1  0  0  0  0
 21 25  1  0  0  0  0
 22 26  2  0  0  0  0
 23 24  2  0  0  0  0
 24 25  1  0  0  0  0
 25 26  1  0  0  0  0
 27 26  1  1  0  0  0
 27 28  1  0  0  0  0
 28 24  1  1  0  0  0
M  END
>  <CHROM.1>
176.51739432,176.44258397,-68.09966826,137.32970609,-43.24652644,37.73831064
24.34260282,25.60843752,-0.49674243,-0.08607588,2.84649889

>  <Name>
ligand

>  <RI>
0

>  <Rbt.Current_Directory>
/home/itssahil/PROJECTS/Mol_Feturizer/New_Systems/rnas/1YLS

>  <Rbt.Executable>
rbdock ($Id: //depot/dev/client3/rdock/2013.1/src/exe/rbdock.cxx#4 $)

>  <Rbt.Library>
libRbt.so (2013.1, Build901 2013/11/27)

>  <Rbt.Parameter_File>
/export/apps/rDock/src/rDock_2013.1_src/data/scripts/dock_solv.prm

>  <Rbt.Receptor>
prm/pocket_docking_7.prm

>  <SCORE>
-31.3788

>  <SCORE.INTER>
-31.2788

>  <SCORE.INTER.CONST>
1

>  <SCORE.INTER.POLAR>
0

>  <SCORE.INTER.ROT>
5

>  <SCORE.INTER.SOLV>
7.45435

>  <SCORE.INTER.VDW>
-30.2707

>  <SCORE.INTER.norm>
-1.1171

>  <SCORE.INTRA>
-0.0999569

>  <SCORE.INTRA.DIHEDRAL>
-4.93809

>  <SCORE.INTRA.DIHEDRAL.0>
12.0148

>  <SCORE.INTRA.POLAR>
0

>  <SCORE.INTRA.POLAR.0>
0

>  <SCORE.INTRA.REPUL>
0

>  <SCORE.INTRA.REPUL.0>
0

>  <SCORE.INTRA.SOLV>
0.562634

>  <SCORE.INTRA.SOLV.lig_0>
-10.5235

>  <SCORE.INTRA.VDW>
2.08777

>  <SCORE.INTRA.VDW.0>
-1.38455

>  <SCORE.INTRA.norm>
-0.00356989

>  <SCORE.RESTR>
0

>  <SCORE.RESTR.CAVITY>
0

>  <SCORE.RESTR.norm>
0

>  <SCORE.SYSTEM>
0

>  <SCORE.SYSTEM.CONST>
0

>  <SCORE.SYSTEM.DIHEDRAL>
0

>  <SCORE.SYSTEM.SOLV>
0

>  <SCORE.SYSTEM.norm>
0

>  <SCORE.heavy>
28

>  <SCORE.norm>
-1.12067

>  <RMSD>
1.310

$$$$
ligand
 OpenBabel11021811413D
libRbt.so/2013.1/901 2013/11/27
 28 32  0  0  0  0  0  0  0  0999 V2000
   42.9088   26.7494   22.1482 C   0  0  0  0  0  0  0  0  0  0  0  0
   42.9392   27.4039   23.5152 C   0  0  0  0  0  0  0  0  0  0  0  0
   42.1702   26.5896   24.5449 C   0  0  0  0  0  0  0  0  0  0  0  0
   34.0575   25.9893   24.3888 O   0  0  0  0  0  0  0  0  0  0  0  0
   35.0101   26.3143   25.4027 C   0  0  0  0  0  0  0  0  0  0  0  0
   39.2897   24.8347   27.3543 C   0  0  0  0  0  0  0  0  0  0  0  0
   39.3770   25.9960   28.1112 C   0  0  0  0  0  0  0  0  0  0  0  0
   38.3807   26.9692   27.9992 C   0  0  0  0  0  0  0  0  0  0  0  0
   37.2993   26.7826   27.1372 C   0  0  0  0  0  0  0  0  0  0  0  0
   36.1498   25.2877   25.4333 C   0  0  1  0  0  0  0  0  0  0  0  0
   37.2211   25.6122   26.4193 C   0  0  0  0  0  0  0  0  0  0  0  0
   38.2032   24.6606   26.5300 C   0  0  0  0  0  0  0  0  0  0  0  0
   38.0425   23.5069   25.6657 C   0  0  1  0  0  0  0  0  0  0  0  0
   36.4578   21.6493   26.1447 C   0  0  0  0  0  0  0  0  0  0  0  0
   36.7089   22.9754   25.8857 C   0  0  0  0  0  0  0  0  0  0  0  0
   35.6967   23.8905   25.7737 C   0  0  0  0  0  0  0  0  0  0  0  0
   34.3784   23.4850   25.9209 C   0  0  0  0  0  0  0  0  0  0  0  0
   34.1085   22.1446   26.2049 C   0  0  0  0  0  0  0  0  0  0  0  0
   35.1487   21.2315   26.3186 C   0  0  0  0  0  0  0  0  0  0  0  0
   40.8066   27.2134   24.8125 C   0  0  0  0  0  0  0  0  0  0  0  0
   39.9452   27.1711   23.5559 C   0  0  0  0  0  0  0  0  0  0  0  0
   37.2220   27.4187   23.5600 O   0  0  0  0  0  0  0  0  0  0  0  0
   40.3603   24.4227   24.0689 O   0  0  0  0  0  0  0  0  0  0  0  0
   39.2402   24.9001   23.9951 C   0  0  0  0  0  0  0  0  0  0  0  0
   38.9585   26.1217   23.7563 N   0  0  0  0  0  0  0  0  0  0  0  0
   37.7176   26.3411   23.7655 C   0  0  0  0  0  0  0  0  0  0  0  0
   36.9129   25.1356   24.1080 C   0  0  1  0  0  0  0  0  0  0  0  0
   38.0210   24.0903   24.2596 C   0  0  2  0  0  0  0  0  0  0  0  0
  1  2  1  0  0  0  0
  2  3  1  0  0  0  0
  3 20  1  0  0  0  0
  4  5  1  0  0  0  0
  6  7  2  0  0  0  0
  6 12  1  0  0  0  0
  7  8  1  0  0  0  0
  8  9  2  0  0  0  0
  9 11  1  0  0  0  0
 10  5  1  6  0  0  0
 10 11  1  0  0  0  0
 10 16  1  0  0  0  0
 10 27  1  0  0  0  0
 11 12  2  0  0  0  0
 13 12  1  1  0  0  0
 13 15  1  0  0  0  0
 13 28  1  0  0  0  0
 14 15  2  0  0  0  0
 14 19  1  0  0  0  0
 15 16  1  0  0  0  0
 16 17  2  0  0  0  0
 17 18  1  0  0  0  0
 18 19  2  0  0  0  0
 20 21  1  0  0  0  0
 21 25  1  0  0  0  0
 22 26  2  0  0  0  0
 23 24  2  0  0  0  0
 24 25  1  0  0  0  0
 25 26  1  0  0  0  0
 27 26  1  1  0  0  0
 27 28  1  0  0  0  0
 28 24  1  1  0  0  0
M  END
>  <CHROM.1>
-102.43334507,176.68187444,64.27041939,105.17191378,-58.09879040,38.03547951
25.25868252,25.13940449,-0.55305685,-0.01015536,2.58132639

>  <Name>
ligand

>  <RI>
0

>  <Rbt.Current_Directory>
/home/itssahil/PROJECTS/Mol_Feturizer/New_Systems/rnas/1YLS

>  <Rbt.Executable>
rbdock ($Id: //depot/dev/client3/rdock/2013.1/src/exe/rbdock.cxx#4 $)

>  <Rbt.Library>
libRbt.so (2013.1, Build901 2013/11/27)

>  <Rbt.Parameter_File>
/export/apps/rDock/src/rDock_2013.1_src/data/scripts/dock_solv.prm

>  <Rbt.Receptor>
prm/blind_docking_100.prm

>  <SCORE>
-24.2876

>  <SCORE.INTER>
-27.4079

>  <SCORE.INTER.CONST>
1

>  <SCORE.INTER.POLAR>
0

>  <SCORE.INTER.ROT>
5

>  <SCORE.INTER.SOLV>
9.35047

>  <SCORE.INTER.VDW>
-28.3221

>  <SCORE.INTER.norm>
-0.978852

>  <SCORE.INTRA>
1.62801

>  <SCORE.INTRA.DIHEDRAL>
0.126836

>  <SCORE.INTRA.DIHEDRAL.0>
12.0148

>  <SCORE.INTRA.POLAR>
0

>  <SCORE.INTRA.POLAR.0>
0

>  <SCORE.INTRA.REPUL>
0

>  <SCORE.INTRA.REPUL.0>
0

>  <SCORE.INTRA.SOLV>
0.590595

>  <SCORE.INTRA.SOLV.lig_0>
-10.5235

>  <SCORE.INTRA.VDW>
1.2693

>  <SCORE.INTRA.VDW.0>
-1.38455

>  <SCORE.INTRA.norm>
0.0581433

>  <SCORE.RESTR>
1.49224

>  <SCORE.RESTR.CAVITY>
1.49224

>  <SCORE.RESTR.norm>
0.0532942

>  <SCORE.SYSTEM>
0

>  <SCORE.SYSTEM.CONST>
0

>  <SCORE.SYSTEM.DIHEDRAL>
0

>  <SCORE.SYSTEM.SOLV>
0

>  <SCORE.SYSTEM.norm>
0

>  <SCORE.heavy>
28

>  <SCORE.norm>
-0.867414

>  <RMSD>
1.311

$$$$
ligand
 OpenBabel11021811413D
libRbt.so/2013.1/901 2013/11/27
 28 32  0  0  0  0  0  0  0  0999 V2000
   43.8564   25.9562   23.4522 C   0  0  0  0  0  0  0  0  0  0  0  0
   42.4971   25.5798   24.0077 C   0  0  0  0  0  0  0  0  0  0  0  0
   42.0094   26.5927   25.0330 C   0  0  0  0  0  0  0  0  0  0  0  0
   33.7341   24.9560   24.5663 O   0  0  0  0  0  0  0  0  0  0  0  0
   34.5781   25.2826   25.6718 C   0  0  0  0  0  0  0  0  0  0  0  0
   38.7325   23.9143   27.9480 C   0  0  0  0  0  0  0  0  0  0  0  0
   38.6914   25.0412   28.7589 C   0  0  0  0  0  0  0  0  0  0  0  0
   37.6610   25.9708   28.5964 C   0  0  0  0  0  0  0  0  0  0  0  0
   36.6734   25.7750   27.6304 C   0  0  0  0  0  0  0  0  0  0  0  0
   35.7612   24.3102   25.7643 C   0  0  1  0  0  0  0  0  0  0  0  0
   36.7205   24.6375   26.8588 C   0  0  0  0  0  0  0  0  0  0  0  0
   37.7358   23.7288   27.0195 C   0  0  0  0  0  0  0  0  0  0  0  0
   37.7133   22.6110   26.0953 C   0  0  1  0  0  0  0  0  0  0  0  0
   36.1884   20.6607   26.3445 C   0  0  0  0  0  0  0  0  0  0  0  0
   36.3940   22.0078   26.1672 C   0  0  0  0  0  0  0  0  0  0  0  0
   35.3509   22.8788   26.0008 C   0  0  0  0  0  0  0  0  0  0  0  0
   34.0471   22.4055   26.0071 C   0  0  0  0  0  0  0  0  0  0  0  0
   33.8212   21.0419   26.2070 C   0  0  0  0  0  0  0  0  0  0  0  0
   34.8919   20.1742   26.3777 C   0  0  0  0  0  0  0  0  0  0  0  0
   40.5916   26.2624   25.4810 C   0  0  0  0  0  0  0  0  0  0  0  0
   39.6104   26.4562   24.3309 C   0  0  0  0  0  0  0  0  0  0  0  0
   36.8891   26.5756   24.0921 O   0  0  0  0  0  0  0  0  0  0  0  0
   40.1169   23.7091   24.7619 O   0  0  0  0  0  0  0  0  0  0  0  0
   38.9852   24.1365   24.6047 C   0  0  0  0  0  0  0  0  0  0  0  0
   38.6645   25.3534   24.3934 N   0  0  0  0  0  0  0  0  0  0  0  0
   37.4183   25.5139   24.2964 C   0  0  0  0  0  0  0  0  0  0  0  0
   36.6484   24.2571   24.5104 C   0  0  1  0  0  0  0  0  0  0  0  0
   37.7899   23.2589   24.7196 C   0  0  2  0  0  0  0  0  0  0  0  0
  1  2  1  0  0  0  0
  2  3  1  0  0  0  0
  3 20  1  0  0  0  0
  4  5  1  0  0  0  0
  6  7  2  0  0  0  0
  6 12  1  0  0  0  0
  7  8  1  0  0  0  0
  8  9  2  0  0  0  0
  9 11  1  0  0  0  0
 10  5  1  6  0  0  0
 10 11  1  0  0  0  0
 10 16  1  0  0  0  0
 10 27  1  0  0  0  0
 11 12  2  0  0  0  0
 13 12  1  1  0  0  0
 13 15  1  0  0  0  0
 13 28  1  0  0  0  0
 14 15  2  0  0  0  0
 14 19  1  0  0  0  0
 15 16  1  0  0  0  0
 16 17  2  0  0  0  0
 17 18  1  0  0  0  0
 18 19  2  0  0  0  0
 20 21  1  0  0  0  0
 21 25  1  0  0  0  0
 22 26  2  0  0  0  0
 23 24  2  0  0  0  0
 24 25  1  0  0  0  0
 25 26  1  0  0  0  0
 27 26  1  1  0  0  0
 27 28  1  0  0  0  0
 28 24  1  1  0  0  0
M  END
>  <CHROM.1>
174.83236091,177.10192728,-67.13611188,139.43729055,-43.46314030,37.72718676
24.34067183,25.61070030,-0.49749971,-0.06419069,2.81762303

>  <Name>
ligand

>  <RI>
0

>  <Rbt.Current_Directory>
/home/itssahil/PROJECTS/Mol_Feturizer/New_Systems/rnas/1YLS

>  <Rbt.Executable>
rbdock ($Id: //depot/dev/client3/rdock/2013.1/src/exe/rbdock.cxx#4 $)

>  <Rbt.Library>
libRbt.so (2013.1, Build901 2013/11/27)

>  <Rbt.Parameter_File>
/export/apps/rDock/src/rDock_2013.1_src/data/scripts/dock_solv.prm

>  <Rbt.Receptor>
prm/pocket_docking_3.prm

>  <SCORE>
-31.4096

>  <SCORE.INTER>
-31.1481

>  <SCORE.INTER.CONST>
1

>  <SCORE.INTER.POLAR>
0

>  <SCORE.INTER.ROT>
5

>  <SCORE.INTER.SOLV>
7.47994

>  <SCORE.INTER.VDW>
-30.1921

>  <SCORE.INTER.norm>
-1.11243

>  <SCORE.INTRA>
-0.261512

>  <SCORE.INTRA.DIHEDRAL>
-5.19763

>  <SCORE.INTRA.DIHEDRAL.0>
12.0148

>  <SCORE.INTRA.POLAR>
0

>  <SCORE.INTRA.POLAR.0>
0

>  <SCORE.INTRA.REPUL>
0

>  <SCORE.INTRA.REPUL.0>
0

>  <SCORE.INTRA.SOLV>
0.534163

>  <SCORE.INTRA.SOLV.lig_0>
-10.5235

>  <SCORE.INTRA.VDW>
2.07022

>  <SCORE.INTRA.VDW.0>
-1.38455

>  <SCORE.INTRA.norm>
-0.00933973

>  <SCORE.RESTR>
0

>  <SCORE.RESTR.CAVITY>
0

>  <SCORE.RESTR.norm>
0

>  <SCORE.SYSTEM>
0

>  <SCORE.SYSTEM.CONST>
0

>  <SCORE.SYSTEM.DIHEDRAL>
0

>  <SCORE.SYSTEM.SOLV>
0

>  <SCORE.SYSTEM.norm>
0

>  <SCORE.heavy>
28

>  <SCORE.norm>
-1.12177

>  <RMSD>
1.313

$$$$
ligand
 OpenBabel11021811413D
libRbt.so/2013.1/901 2013/11/27
 28 32  0  0  0  0  0  0  0  0999 V2000
   43.8278   25.8255   23.5517 C   0  0  0  0  0  0  0  0  0  0  0  0
   42.4449   25.5039   24.0828 C   0  0  0  0  0  0  0  0  0  0  0  0
   41.9667   26.5528   25.0757 C   0  0  0  0  0  0  0  0  0  0  0  0
   33.7094   24.9930   24.5840 O   0  0  0  0  0  0  0  0  0  0  0  0
   34.5413   25.2853   25.7081 C   0  0  0  0  0  0  0  0  0  0  0  0
   38.7013   23.8801   27.9515 C   0  0  0  0  0  0  0  0  0  0  0  0
   38.6682   24.9995   28.7731 C   0  0  0  0  0  0  0  0  0  0  0  0
   37.6406   25.9345   28.6243 C   0  0  0  0  0  0  0  0  0  0  0  0
   36.6477   25.7514   27.6612 C   0  0  0  0  0  0  0  0  0  0  0  0
   35.7211   24.3076   25.7858 C   0  0  1  0  0  0  0  0  0  0  0  0
   36.6869   24.6210   26.8788 C   0  0  0  0  0  0  0  0  0  0  0  0
   37.6994   23.7071   27.0261 C   0  0  0  0  0  0  0  0  0  0  0  0
   37.6683   22.5981   26.0916 C   0  0  1  0  0  0  0  0  0  0  0  0
   36.1373   20.6512   26.3299 C   0  0  0  0  0  0  0  0  0  0  0  0
   36.3472   21.9992   26.1642 C   0  0  0  0  0  0  0  0  0  0  0  0
   35.3066   22.8756   26.0109 C   0  0  0  0  0  0  0  0  0  0  0  0
   34.0010   22.4071   26.0190 C   0  0  0  0  0  0  0  0  0  0  0  0
   33.7709   21.0426   26.2072 C   0  0  0  0  0  0  0  0  0  0  0  0
   34.8392   20.1693   26.3647 C   0  0  0  0  0  0  0  0  0  0  0  0
   40.5382   26.2620   25.5171 C   0  0  0  0  0  0  0  0  0  0  0  0
   39.5716   26.4526   24.3542 C   0  0  0  0  0  0  0  0  0  0  0  0
   36.8496   26.5843   24.1296 O   0  0  0  0  0  0  0  0  0  0  0  0
   40.0697   23.6996   24.7571 O   0  0  0  0  0  0  0  0  0  0  0  0
   38.9390   24.1327   24.6093 C   0  0  0  0  0  0  0  0  0  0  0  0
   38.6218   25.3528   24.4109 N   0  0  0  0  0  0  0  0  0  0  0  0
   37.3758   25.5188   24.3214 C   0  0  0  0  0  0  0  0  0  0  0  0
   36.6021   24.2629   24.5274 C   0  0  1  0  0  0  0  0  0  0  0  0
   37.7409   23.2585   24.7217 C   0  0  2  0  0  0  0  0  0  0  0  0
  1  2  1  0  0  0  0
  2  3  1  0  0  0  0
  3 20  1  0  0  0  0
  4  5  1  0  0  0  0
  6  7  2  0  0  0  0
  6 12  1  0  0  0  0
  7  8  1  0  0  0  0
  8  9  2  0  0  0  0
  9 11  1  0  0  0  0
 10  5  1  6  0  0  0
 10 11  1  0  0  0  0
 10 16  1  0  0  0  0
 10 27  1  0  0  0  0
 11 12  2  0  0  0  0
 13 12  1  1  0  0  0
 13 15  1  0  0  0  0
 13 28  1  0  0  0  0
 14 15  2  0  0  0  0
 14 19  1  0  0  0  0
 15 16  1  0  0  0  0
 16 17  2  0  0  0  0
 17 18  1  0  0  0  0
 18 19  2  0  0  0  0
 20 21  1  0  0  0  0
 21 25  1  0  0  0  0
 22 26  2  0  0  0  0
 23 24  2  0  0  0  0
 24 25  1  0  0  0  0
 25 26  1  0  0  0  0
 27 26  1  1  0  0  0
 27 28  1  0  0  0  0
 28 24  1  1  0  0  0
M  END
>  <CHROM.1>
175.90779877,175.63495549,-67.49353699,138.05043892,-44.74238881,37.68660382
24.32557726,25.63115758,-0.48779659,-0.06806943,2.83520601

>  <Name>
ligand

>  <RI>
0

>  <Rbt.Current_Directory>
/home/itssahil/PROJECTS/Mol_Feturizer/New_Systems/rnas/1YLS

>  <Rbt.Executable>
rbdock ($Id: //depot/dev/client3/rdock/2013.1/src/exe/rbdock.cxx#4 $)

>  <Rbt.Library>
libRbt.so (2013.1, Build901 2013/11/27)

>  <Rbt.Parameter_File>
/export/apps/rDock/src/rDock_2013.1_src/data/scripts/dock_solv.prm

>  <Rbt.Receptor>
prm/pocket_docking_8.prm

>  <SCORE>
-31.4416

>  <SCORE.INTER>
-31.1007

>  <SCORE.INTER.CONST>
1

>  <SCORE.INTER.POLAR>
0

>  <SCORE.INTER.ROT>
5

>  <SCORE.INTER.SOLV>
7.47192

>  <SCORE.INTER.VDW>
-30.1578

>  <SCORE.INTER.norm>
-1.11074

>  <SCORE.INTRA>
-0.340839

>  <SCORE.INTRA.DIHEDRAL>
-5.01133

>  <SCORE.INTRA.DIHEDRAL.0>
12.0148

>  <SCORE.INTRA.POLAR>
0

>  <SCORE.INTRA.POLAR.0>
0

>  <SCORE.INTRA.REPUL>
0

>  <SCORE.INTRA.REPUL.0>
0

>  <SCORE.INTRA.SOLV>
0.559893

>  <SCORE.INTRA.SOLV.lig_0>
-10.5235

>  <SCORE.INTRA.VDW>
1.88488

>  <SCORE.INTRA.VDW.0>
-1.38455

>  <SCORE.INTRA.norm>
-0.0121728

>  <SCORE.RESTR>
0

>  <SCORE.RESTR.CAVITY>
0

>  <SCORE.RESTR.norm>
0

>  <SCORE.SYSTEM>
0

>  <SCORE.SYSTEM.CONST>
0

>  <SCORE.SYSTEM.DIHEDRAL>
0

>  <SCORE.SYSTEM.SOLV>
0

>  <SCORE.SYSTEM.norm>
0

>  <SCORE.heavy>
28

>  <SCORE.norm>
-1.12291

>  <RMSD>
1.366

$$$$
ligand
 OpenBabel11021811413D
libRbt.so/2013.1/901 2013/11/27
 28 32  0  0  0  0  0  0  0  0999 V2000
   43.8663   25.7755   23.6559 C   0  0  0  0  0  0  0  0  0  0  0  0
   42.4488   25.4954   24.1144 C   0  0  0  0  0  0  0  0  0  0  0  0
   41.9559   26.5515   25.0924 C   0  0  0  0  0  0  0  0  0  0  0  0
   33.6843   24.9876   24.5959 O   0  0  0  0  0  0  0  0  0  0  0  0
   34.5366   25.3013   25.6988 C   0  0  0  0  0  0  0  0  0  0  0  0
   38.6906   23.8861   27.9468 C   0  0  0  0  0  0  0  0  0  0  0  0
   38.6636   25.0095   28.7632 C   0  0  0  0  0  0  0  0  0  0  0  0
   37.6405   25.9488   28.6105 C   0  0  0  0  0  0  0  0  0  0  0  0
   36.6462   25.7661   27.6487 C   0  0  0  0  0  0  0  0  0  0  0  0
   35.7115   24.3182   25.7806 C   0  0  1  0  0  0  0  0  0  0  0  0
   36.6794   24.6319   26.8715 C   0  0  0  0  0  0  0  0  0  0  0  0
   37.6875   23.7137   27.0227 C   0  0  0  0  0  0  0  0  0  0  0  0
   37.6504   22.6005   26.0934 C   0  0  1  0  0  0  0  0  0  0  0  0
   36.1099   20.6624   26.3416 C   0  0  0  0  0  0  0  0  0  0  0  0
   36.3263   22.0085   26.1694 C   0  0  0  0  0  0  0  0  0  0  0  0
   35.2900   22.8893   26.0126 C   0  0  0  0  0  0  0  0  0  0  0  0
   33.9821   22.4273   26.0235 C   0  0  0  0  0  0  0  0  0  0  0  0
   33.7454   21.0649   26.2182 C   0  0  0  0  0  0  0  0  0  0  0  0
   34.8094   20.1871   26.3793 C   0  0  0  0  0  0  0  0  0  0  0  0
   40.5217   26.2626   25.5162 C   0  0  0  0  0  0  0  0  0  0  0  0
   39.5719   26.4373   24.3371 C   0  0  0  0  0  0  0  0  0  0  0  0
   36.8505   26.5815   24.1131 O   0  0  0  0  0  0  0  0  0  0  0  0
   40.0566   23.6839   24.7527 O   0  0  0  0  0  0  0  0  0  0  0  0
   38.9279   24.1218   24.6033 C   0  0  0  0  0  0  0  0  0  0  0  0
   38.6167   25.3425   24.3994 N   0  0  0  0  0  0  0  0  0  0  0  0
   37.3715   25.5142   24.3097 C   0  0  0  0  0  0  0  0  0  0  0  0
   36.5917   24.2632   24.5219 C   0  0  1  0  0  0  0  0  0  0  0  0
   37.7256   23.2541   24.7204 C   0  0  2  0  0  0  0  0  0  0  0  0
  1  2  1  0  0  0  0
  2  3  1  0  0  0  0
  3 20  1  0  0  0  0
  4  5  1  0  0  0  0
  6  7  2  0  0  0  0
  6 12  1  0  0  0  0
  7  8  1  0  0  0  0
  8  9  2  0  0  0  0
  9 11  1  0  0  0  0
 10  5  1  6  0  0  0
 10 11  1  0  0  0  0
 10 16  1  0  0  0  0
 10 27  1  0  0  0  0
 11 12  2  0  0  0  0
 13 12  1  1  0  0  0
 13 15  1  0  0  0  0
 13 28  1  0  0  0  0
 14 15  2  0  0  0  0
 14 19  1  0  0  0  0
 15 16  1  0  0  0  0
 16 17  2  0  0  0  0
 17 18  1  0  0  0  0
 18 19  2  0  0  0  0
 20 21  1  0  0  0  0
 21 25  1  0  0  0  0
 22 26  2  0  0  0  0
 23 24  2  0  0  0  0
 24 25  1  0  0  0  0
 25 26  1  0  0  0  0
 27 26  1  1  0  0  0
 27 28  1  0  0  0  0
 28 24  1  1  0  0  0
M  END
>  <CHROM.1>
178.89374609,177.07709963,-67.24933955,138.52723409,-45.81937169,37.67717700
24.32668927,25.63436876,-0.48136130,-0.06183651,2.83087077

>  <Name>
ligand

>  <RI>
0

>  <Rbt.Current_Directory>
/home/itssahil/PROJECTS/Mol_Feturizer/New_Systems/rnas/1YLS

>  <Rbt.Executable>
rbdock ($Id: //depot/dev/client3/rdock/2013.1/src/exe/rbdock.cxx#4 $)

>  <Rbt.Library>
libRbt.so (2013.1, Build901 2013/11/27)

>  <Rbt.Parameter_File>
/export/apps/rDock/src/rDock_2013.1_src/data/scripts/dock_solv.prm

>  <Rbt.Receptor>
prm/pocket_docking_6.prm

>  <SCORE>
-31.3694

>  <SCORE.INTER>
-30.8169

>  <SCORE.INTER.CONST>
1

>  <SCORE.INTER.POLAR>
0

>  <SCORE.INTER.ROT>
5

>  <SCORE.INTER.SOLV>
7.49403

>  <SCORE.INTER.VDW>
-29.976

>  <SCORE.INTER.norm>
-1.1006

>  <SCORE.INTRA>
-0.552422

>  <SCORE.INTRA.DIHEDRAL>
-5.16911

>  <SCORE.INTRA.DIHEDRAL.0>
12.0148

>  <SCORE.INTRA.POLAR>
0

>  <SCORE.INTRA.POLAR.0>
0

>  <SCORE.INTRA.REPUL>
0

>  <SCORE.INTRA.REPUL.0>
0

>  <SCORE.INTRA.SOLV>
0.546644

>  <SCORE.INTRA.SOLV.lig_0>
-10.5235

>  <SCORE.INTRA.VDW>
1.75881

>  <SCORE.INTRA.VDW.0>
-1.38455

>  <SCORE.INTRA.norm>
-0.0197294

>  <SCORE.RESTR>
0

>  <SCORE.RESTR.CAVITY>
0

>  <SCORE.RESTR.norm>
0

>  <SCORE.SYSTEM>
0

>  <SCORE.SYSTEM.CONST>
0

>  <SCORE.SYSTEM.DIHEDRAL>
0

>  <SCORE.SYSTEM.SOLV>
0

>  <SCORE.SYSTEM.norm>
0

>  <SCORE.heavy>
28

>  <SCORE.norm>
-1.12033

>  <RMSD>
1.378

$$$$
ligand
 OpenBabel11021811413D
libRbt.so/2013.1/901 2013/11/27
 28 32  0  0  0  0  0  0  0  0999 V2000
   43.3269   26.5335   21.6379 C   0  0  0  0  0  0  0  0  0  0  0  0
   43.3811   26.0885   23.0860 C   0  0  0  0  0  0  0  0  0  0  0  0
   42.2215   26.6553   23.8915 C   0  0  0  0  0  0  0  0  0  0  0  0
   35.0760   27.0928   24.5012 O   0  0  0  0  0  0  0  0  0  0  0  0
   34.5071   25.7844   24.5750 C   0  0  0  0  0  0  0  0  0  0  0  0
   37.7370   24.6606   28.1271 C   0  0  0  0  0  0  0  0  0  0  0  0
   37.6081   25.9272   28.6824 C   0  0  0  0  0  0  0  0  0  0  0  0
   36.7662   26.8635   28.0769 C   0  0  0  0  0  0  0  0  0  0  0  0
   36.0529   26.5360   26.9232 C   0  0  0  0  0  0  0  0  0  0  0  0
   35.5091   24.7834   25.1647 C   0  0  1  0  0  0  0  0  0  0  0  0
   36.1760   25.2667   26.4085 C   0  0  0  0  0  0  0  0  0  0  0  0
   37.0062   24.3513   27.0044 C   0  0  0  0  0  0  0  0  0  0  0  0
   37.1050   23.0747   26.3228 C   0  0  1  0  0  0  0  0  0  0  0  0
   35.3628   21.3047   26.4746 C   0  0  0  0  0  0  0  0  0  0  0  0
   35.7553   22.5752   26.1275 C   0  0  0  0  0  0  0  0  0  0  0  0
   34.8957   23.4541   25.5251 C   0  0  0  0  0  0  0  0  0  0  0  0
   33.5923   23.0676   25.2494 C   0  0  0  0  0  0  0  0  0  0  0  0
   33.1727   21.7868   25.6149 C   0  0  0  0  0  0  0  0  0  0  0  0
   34.0580   20.9103   26.2286 C   0  0  0  0  0  0  0  0  0  0  0  0
   40.9579   25.8365   23.6620 C   0  0  0  0  0  0  0  0  0  0  0  0
   39.8126   26.3742   24.5117 C   0  0  0  0  0  0  0  0  0  0  0  0
   37.2809   26.6004   23.5034 O   0  0  0  0  0  0  0  0  0  0  0  0
   39.8811   23.7439   25.5440 O   0  0  0  0  0  0  0  0  0  0  0  0
   38.8853   24.1959   25.0035 C   0  0  0  0  0  0  0  0  0  0  0  0
   38.7679   25.3626   24.5000 N   0  0  0  0  0  0  0  0  0  0  0  0
   37.6170   25.5721   24.0314 C   0  0  0  0  0  0  0  0  0  0  0  0
   36.6841   24.4299   24.2391 C   0  0  1  0  0  0  0  0  0  0  0  0
   37.6127   23.4293   24.9319 C   0  0  2  0  0  0  0  0  0  0  0  0
  1  2  1  0  0  0  0
  2  3  1  0  0  0  0
  3 20  1  0  0  0  0
  4  5  1  0  0  0  0
  6  7  2  0  0  0  0
  6 12  1  0  0  0  0
  7  8  1  0  0  0  0
  8  9  2  0  0  0  0
  9 11  1  0  0  0  0
 10  5  1  6  0  0  0
 10 11  1  0  0  0  0
 10 16  1  0  0  0  0
 10 27  1  0  0  0  0
 11 12  2  0  0  0  0
 13 12  1  1  0  0  0
 13 15  1  0  0  0  0
 13 28  1  0  0  0  0
 14 15  2  0  0  0  0
 14 19  1  0  0  0  0
 15 16  1  0  0  0  0
 16 17  2  0  0  0  0
 17 18  1  0  0  0  0
 18 19  2  0  0  0  0
 20 21  1  0  0  0  0
 21 25  1  0  0  0  0
 22 26  2  0  0  0  0
 23 24  2  0  0  0  0
 24 25  1  0  0  0  0
 25 26  1  0  0  0  0
 27 26  1  1  0  0  0
 27 28  1  0  0  0  0
 28 24  1  1  0  0  0
M  END
>  <CHROM.1>
80.34729499,47.77599728,177.80626983,-165.93839984,64.77522694,37.51815549
24.80787561,25.23908363,-0.37918926,-0.35381696,3.11568277

>  <Name>
ligand

>  <RI>
0

>  <Rbt.Current_Directory>
/home/itssahil/PROJECTS/Mol_Feturizer/New_Systems/rnas/1YLS

>  <Rbt.Executable>
rbdock ($Id: //depot/dev/client3/rdock/2013.1/src/exe/rbdock.cxx#4 $)

>  <Rbt.Library>
libRbt.so (2013.1, Build901 2013/11/27)

>  <Rbt.Parameter_File>
/export/apps/rDock/src/rDock_2013.1_src/data/scripts/dock_solv.prm

>  <Rbt.Receptor>
prm/blind_docking_100.prm

>  <SCORE>
-27.5824

>  <SCORE.INTER>
-28.1603

>  <SCORE.INTER.CONST>
1

>  <SCORE.INTER.POLAR>
0

>  <SCORE.INTER.ROT>
5

>  <SCORE.INTER.SOLV>
8.27331

>  <SCORE.INTER.VDW>
-28.4646

>  <SCORE.INTER.norm>
-1.00573

>  <SCORE.INTRA>
-1.21372

>  <SCORE.INTRA.DIHEDRAL>
-6.88134

>  <SCORE.INTRA.DIHEDRAL.0>
12.0148

>  <SCORE.INTRA.POLAR>
0

>  <SCORE.INTRA.POLAR.0>
0

>  <SCORE.INTRA.REPUL>
0

>  <SCORE.INTRA.REPUL.0>
0

>  <SCORE.INTRA.SOLV>
0.61284

>  <SCORE.INTRA.SOLV.lig_0>
-10.5235

>  <SCORE.INTRA.VDW>
1.92053

>  <SCORE.INTRA.VDW.0>
-1.38455

>  <SCORE.INTRA.norm>
-0.043347

>  <SCORE.RESTR>
1.79167

>  <SCORE.RESTR.CAVITY>
1.79167

>  <SCORE.RESTR.norm>
0.0639881

>  <SCORE.SYSTEM>
0

>  <SCORE.SYSTEM.CONST>
0

>  <SCORE.SYSTEM.DIHEDRAL>
0

>  <SCORE.SYSTEM.SOLV>
0

>  <SCORE.SYSTEM.norm>
0

>  <SCORE.heavy>
28

>  <SCORE.norm>
-0.985084

>  <RMSD>
1.403

$$$$
ligand
 OpenBabel11021811413D
libRbt.so/2013.1/901 2013/11/27
 28 32  0  0  0  0  0  0  0  0999 V2000
   42.0591   26.8833   22.3969 C   0  0  0  0  0  0  0  0  0  0  0  0
   42.2587   26.1907   23.7305 C   0  0  0  0  0  0  0  0  0  0  0  0
   41.6785   27.0040   24.8780 C   0  0  0  0  0  0  0  0  0  0  0  0
   34.8014   26.5317   25.9185 O   0  0  0  0  0  0  0  0  0  0  0  0
   34.4098   25.1597   25.8456 C   0  0  0  0  0  0  0  0  0  0  0  0
   38.7553   23.9071   27.8102 C   0  0  0  0  0  0  0  0  0  0  0  0
   38.7171   25.0038   28.6617 C   0  0  0  0  0  0  0  0  0  0  0  0
   37.6393   25.8906   28.5964 C   0  0  0  0  0  0  0  0  0  0  0  0
   36.6018   25.6820   27.6870 C   0  0  0  0  0  0  0  0  0  0  0  0
   35.6372   24.2394   25.8300 C   0  0  1  0  0  0  0  0  0  0  0  0
   36.6489   24.5737   26.8740 C   0  0  0  0  0  0  0  0  0  0  0  0
   37.7106   23.7072   26.9392 C   0  0  0  0  0  0  0  0  0  0  0  0
   37.6778   22.6204   25.9790 C   0  0  1  0  0  0  0  0  0  0  0  0
   36.2575   20.5959   26.2527 C   0  0  0  0  0  0  0  0  0  0  0  0
   36.3931   21.9560   26.1109 C   0  0  0  0  0  0  0  0  0  0  0  0
   35.3049   22.7838   26.0405 C   0  0  0  0  0  0  0  0  0  0  0  0
   34.0257   22.2520   26.1106 C   0  0  0  0  0  0  0  0  0  0  0  0
   33.8721   20.8738   26.2755 C   0  0  0  0  0  0  0  0  0  0  0  0
   34.9879   20.0503   26.3487 C   0  0  0  0  0  0  0  0  0  0  0  0
   40.3437   26.4230   25.3263 C   0  0  0  0  0  0  0  0  0  0  0  0
   39.2916   26.6034   24.2384 C   0  0  0  0  0  0  0  0  0  0  0  0
   36.5580   26.6071   24.1728 O   0  0  0  0  0  0  0  0  0  0  0  0
   39.9425   23.8694   24.5394 O   0  0  0  0  0  0  0  0  0  0  0  0
   38.7857   24.2500   24.4677 C   0  0  0  0  0  0  0  0  0  0  0  0
   38.4000   25.4574   24.3201 N   0  0  0  0  0  0  0  0  0  0  0  0
   37.1444   25.5643   24.3062 C   0  0  0  0  0  0  0  0  0  0  0  0
   36.4446   24.2676   24.5226 C   0  0  1  0  0  0  0  0  0  0  0  0
   37.6391   23.3158   24.6251 C   0  0  2  0  0  0  0  0  0  0  0  0
  1  2  1  0  0  0  0
  2  3  1  0  0  0  0
  3 20  1  0  0  0  0
  4  5  1  0  0  0  0
  6  7  2  0  0  0  0
  6 12  1  0  0  0  0
  7  8  1  0  0  0  0
  8  9  2  0  0  0  0
  9 11  1  0  0  0  0
 10  5  1  6  0  0  0
 10 11  1  0  0  0  0
 10 16  1  0  0  0  0
 10 27  1  0  0  0  0
 11 12  2  0  0  0  0
 13 12  1  1  0  0  0
 13 15  1  0  0  0  0
 13 28  1  0  0  0  0
 14 15  2  0  0  0  0
 14 19  1  0  0  0  0
 15 16  1  0  0  0  0
 16 17  2  0  0  0  0
 17 18  1  0  0  0  0
 18 19  2  0  0  0  0
 20 21  1  0  0  0  0
 21 25  1  0  0  0  0
 22 26  2  0  0  0  0
 23 24  2  0  0  0  0
 24 25  1  0  0  0  0
 25 26  1  0  0  0  0
 27 26  1  1  0  0  0
 27 28  1  0  0  0  0
 28 24  1  1  0  0  0
M  END
>  <CHROM.1>
102.46600625,47.30180580,-67.53615474,147.11874261,-43.96715130,37.58468590
24.48037775,25.58218780,-0.58930886,-0.34820958,3.11492967

>  <Name>
ligand

>  <RI>
0

>  <Rbt.Current_Directory>
/home/itssahil/PROJECTS/Mol_Feturizer/New_Systems/rnas/1YLS

>  <Rbt.Executable>
rbdock ($Id: //depot/dev/client3/rdock/2013.1/src/exe/rbdock.cxx#4 $)

>  <Rbt.Library>
libRbt.so (2013.1, Build901 2013/11/27)

>  <Rbt.Parameter_File>
/export/apps/rDock/src/rDock_2013.1_src/data/scripts/dock_solv.prm

>  <Rbt.Receptor>
prm/pocket_docking_2.prm

>  <SCORE>
-27.6629

>  <SCORE.INTER>
-30.9623

>  <SCORE.INTER.CONST>
1

>  <SCORE.INTER.POLAR>
0

>  <SCORE.INTER.ROT>
5

>  <SCORE.INTER.SOLV>
8.45301

>  <SCORE.INTER.VDW>
-30.3925

>  <SCORE.INTER.norm>
-1.1058

>  <SCORE.INTRA>
3.26148

>  <SCORE.INTRA.DIHEDRAL>
-0.928102

>  <SCORE.INTRA.DIHEDRAL.0>
12.0148

>  <SCORE.INTRA.POLAR>
0

>  <SCORE.INTRA.POLAR.0>
0

>  <SCORE.INTRA.REPUL>
0

>  <SCORE.INTRA.REPUL.0>
0

>  <SCORE.INTRA.SOLV>
0.930358

>  <SCORE.INTRA.SOLV.lig_0>
-10.5235

>  <SCORE.INTRA.VDW>
3.26035

>  <SCORE.INTRA.VDW.0>
-1.38455

>  <SCORE.INTRA.norm>
0.116481

>  <SCORE.RESTR>
0.0379352

>  <SCORE.RESTR.CAVITY>
0.0379352

>  <SCORE.RESTR.norm>
0.00135483

>  <SCORE.SYSTEM>
0

>  <SCORE.SYSTEM.CONST>
0

>  <SCORE.SYSTEM.DIHEDRAL>
0

>  <SCORE.SYSTEM.SOLV>
0

>  <SCORE.SYSTEM.norm>
0

>  <SCORE.heavy>
28

>  <SCORE.norm>
-0.98796

>  <RMSD>
1.441

$$$$
ligand
 OpenBabel11021811413D
libRbt.so/2013.1/901 2013/11/27
 28 32  0  0  0  0  0  0  0  0999 V2000
   42.3104   28.5022   22.6416 C   0  0  0  0  0  0  0  0  0  0  0  0
   41.2933   27.5282   23.2027 C   0  0  0  0  0  0  0  0  0  0  0  0
   41.4665   27.3371   24.7021 C   0  0  0  0  0  0  0  0  0  0  0  0
   34.5750   25.7713   25.5130 O   0  0  0  0  0  0  0  0  0  0  0  0
   35.5748   25.2709   24.6236 C   0  0  0  0  0  0  0  0  0  0  0  0
   38.4599   23.7145   28.3069 C   0  0  0  0  0  0  0  0  0  0  0  0
   38.5472   25.0028   28.8188 C   0  0  0  0  0  0  0  0  0  0  0  0
   37.9029   26.0525   28.1592 C   0  0  0  0  0  0  0  0  0  0  0  0
   37.1713   25.8170   26.9945 C   0  0  0  0  0  0  0  0  0  0  0  0
   36.3652   24.1284   25.2744 C   0  0  1  0  0  0  0  0  0  0  0  0
   37.0768   24.5286   26.5230 C   0  0  0  0  0  0  0  0  0  0  0  0
   37.7136   23.5012   27.1721 C   0  0  0  0  0  0  0  0  0  0  0  0
   37.5981   22.2041   26.5333 C   0  0  1  0  0  0  0  0  0  0  0  0
   35.5626   20.7811   26.6851 C   0  0  0  0  0  0  0  0  0  0  0  0
   36.1858   21.9476   26.3117 C   0  0  0  0  0  0  0  0  0  0  0  0
   35.5138   22.9441   25.6563 C   0  0  0  0  0  0  0  0  0  0  0  0
   34.1695   22.7876   25.3522 C   0  0  0  0  0  0  0  0  0  0  0  0
   33.5172   21.6165   25.7436 C   0  0  0  0  0  0  0  0  0  0  0  0
   34.2147   20.6181   26.4110 C   0  0  0  0  0  0  0  0  0  0  0  0
   40.5042   26.2774   25.2226 C   0  0  0  0  0  0  0  0  0  0  0  0
   40.8997   24.8988   24.7068 C   0  0  0  0  0  0  0  0  0  0  0  0
   38.4760   25.5384   23.6141 O   0  0  0  0  0  0  0  0  0  0  0  0
   40.4679   22.3373   25.8208 O   0  0  0  0  0  0  0  0  0  0  0  0
   39.5835   22.9406   25.2361 C   0  0  0  0  0  0  0  0  0  0  0  0
   39.6906   24.0908   24.6938 N   0  0  0  0  0  0  0  0  0  0  0  0
   38.6083   24.4860   24.1835 C   0  0  0  0  0  0  0  0  0  0  0  0
   37.4801   23.5375   24.3971 C   0  0  1  0  0  0  0  0  0  0  0  0
   38.1960   22.4122   25.1486 C   0  0  2  0  0  0  0  0  0  0  0  0
  1  2  1  0  0  0  0
  2  3  1  0  0  0  0
  3 20  1  0  0  0  0
  4  5  1  0  0  0  0
  6  7  2  0  0  0  0
  6 12  1  0  0  0  0
  7  8  1  0  0  0  0
  8  9  2  0  0  0  0
  9 11  1  0  0  0  0
 10  5  1  6  0  0  0
 10 11  1  0  0  0  0
 10 16  1  0  0  0  0
 10 27  1  0  0  0  0
 11 12  2  0  0  0  0
 13 12  1  1  0  0  0
 13 15  1  0  0  0  0
 13 28  1  0  0  0  0
 14 15  2  0  0  0  0
 14 19  1  0  0  0  0
 15 16  1  0  0  0  0
 16 17  2  0  0  0  0
 17 18  1  0  0  0  0
 18 19  2  0  0  0  0
 20 21  1  0  0  0  0
 21 25  1  0  0  0  0
 22 26  2  0  0  0  0
 23 24  2  0  0  0  0
 24 25  1  0  0  0  0
 25 26  1  0  0  0  0
 27 26  1  1  0  0  0
 27 28  1  0  0  0  0
 28 24  1  1  0  0  0
M  END
>  <CHROM.1>
-175.71985963,-60.25245771,69.04194702,-154.22108098,-127.98409093,37.93132490
24.25714971,25.54581166,0.69406316,-0.04649561,-0.49614168

>  <Name>
ligand

>  <RI>
0

>  <Rbt.Current_Directory>
/home/itssahil/PROJECTS/Mol_Feturizer/New_Systems/rnas/1YLS

>  <Rbt.Executable>
rbdock ($Id: //depot/dev/client3/rdock/2013.1/src/exe/rbdock.cxx#4 $)

>  <Rbt.Library>
libRbt.so (2013.1, Build901 2013/11/27)

>  <Rbt.Parameter_File>
/export/apps/rDock/src/rDock_2013.1_src/data/scripts/dock_solv.prm

>  <Rbt.Receptor>
prm/pocket_docking_3.prm

>  <SCORE>
-31.2422

>  <SCORE.INTER>
-29.7123

>  <SCORE.INTER.CONST>
1

>  <SCORE.INTER.POLAR>
0

>  <SCORE.INTER.ROT>
5

>  <SCORE.INTER.SOLV>
8.92091

>  <SCORE.INTER.VDW>
-29.7151

>  <SCORE.INTER.norm>
-1.06115

>  <SCORE.INTRA>
-1.52994

>  <SCORE.INTRA.DIHEDRAL>
-7.13567

>  <SCORE.INTRA.DIHEDRAL.0>
12.0148

>  <SCORE.INTRA.POLAR>
0

>  <SCORE.INTRA.POLAR.0>
0

>  <SCORE.INTRA.REPUL>
0

>  <SCORE.INTRA.REPUL.0>
0

>  <SCORE.INTRA.SOLV>
0.187695

>  <SCORE.INTRA.SOLV.lig_0>
-10.5235

>  <SCORE.INTRA.VDW>
1.94405

>  <SCORE.INTRA.VDW.0>
-1.38455

>  <SCORE.INTRA.norm>
-0.0546406

>  <SCORE.RESTR>
0

>  <SCORE.RESTR.CAVITY>
0

>  <SCORE.RESTR.norm>
0

>  <SCORE.SYSTEM>
0

>  <SCORE.SYSTEM.CONST>
0

>  <SCORE.SYSTEM.DIHEDRAL>
0

>  <SCORE.SYSTEM.SOLV>
0

>  <SCORE.SYSTEM.norm>
0

>  <SCORE.heavy>
28

>  <SCORE.norm>
-1.11579

>  <RMSD>
1.452

$$$$
ligand
 OpenBabel11021811413D
libRbt.so/2013.1/901 2013/11/27
 28 32  0  0  0  0  0  0  0  0999 V2000
   42.9751   28.3636   22.3422 C   0  0  0  0  0  0  0  0  0  0  0  0
   41.9311   27.3048   22.0474 C   0  0  0  0  0  0  0  0  0  0  0  0
   41.7377   26.3631   23.2268 C   0  0  0  0  0  0  0  0  0  0  0  0
   36.5516   27.1180   27.0117 O   0  0  0  0  0  0  0  0  0  0  0  0
   35.8057   25.9474   26.6732 C   0  0  0  0  0  0  0  0  0  0  0  0
   39.4173   23.1659   28.5527 C   0  0  0  0  0  0  0  0  0  0  0  0
   39.5933   24.0569   29.6036 C   0  0  0  0  0  0  0  0  0  0  0  0
   38.8119   25.2135   29.6658 C   0  0  0  0  0  0  0  0  0  0  0  0
   37.8559   25.4784   28.6845 C   0  0  0  0  0  0  0  0  0  0  0  0
   36.7294   24.7306   26.5324 C   0  0  1  0  0  0  0  0  0  0  0  0
   37.6813   24.5673   27.6693 C   0  0  0  0  0  0  0  0  0  0  0  0
   38.4529   23.4343   27.6104 C   0  0  0  0  0  0  0  0  0  0  0  0
   38.2228   22.5927   26.4516 C   0  0  1  0  0  0  0  0  0  0  0  0
   36.2825   21.0486   26.2463 C   0  0  0  0  0  0  0  0  0  0  0  0
   36.7989   22.3144   26.3863 C   0  0  0  0  0  0  0  0  0  0  0  0
   35.9919   23.4194   26.4311 C   0  0  0  0  0  0  0  0  0  0  0  0
   34.6158   23.2753   26.3322 C   0  0  0  0  0  0  0  0  0  0  0  0
   34.0749   21.9936   26.2102 C   0  0  0  0  0  0  0  0  0  0  0  0
   34.9093   20.8842   26.1704 C   0  0  0  0  0  0  0  0  0  0  0  0
   41.1267   27.1031   24.4096 C   0  0  0  0  0  0  0  0  0  0  0  0
   41.0344   26.1851   25.6227 C   0  0  0  0  0  0  0  0  0  0  0  0
   38.4278   26.9883   25.4287 O   0  0  0  0  0  0  0  0  0  0  0  0
   40.8781   23.3717   25.4010 O   0  0  0  0  0  0  0  0  0  0  0  0
   39.8833   24.0760   25.3518 C   0  0  0  0  0  0  0  0  0  0  0  0
   39.8599   25.3494   25.4306 N   0  0  0  0  0  0  0  0  0  0  0  0
   38.6898   25.8144   25.3784 C   0  0  0  0  0  0  0  0  0  0  0  0
   37.6435   24.7576   25.2972 C   0  0  1  0  0  0  0  0  0  0  0  0
   38.5150   23.4995   25.2640 C   0  0  2  0  0  0  0  0  0  0  0  0
  1  2  1  0  0  0  0
  2  3  1  0  0  0  0
  3 20  1  0  0  0  0
  4  5  1  0  0  0  0
  6  7  2  0  0  0  0
  6 12  1  0  0  0  0
  7  8  1  0  0  0  0
  8  9  2  0  0  0  0
  9 11  1  0  0  0  0
 10  5  1  1  0  0  0
 10 11  1  0  0  0  0
 10 16  1  0  0  0  0
 10 27  1  0  0  0  0
 11 12  2  0  0  0  0
 13 12  1  1  0  0  0
 13 15  1  0  0  0  0
 13 28  1  0  0  0  0
 14 15  2  0  0  0  0
 14 19  1  0  0  0  0
 15 16  1  0  0  0  0
 16 17  2  0  0  0  0
 17 18  1  0  0  0  0
 18 19  2  0  0  0  0
 20 21  1  0  0  0  0
 21 25  1  0  0  0  0
 22 26  2  0  0  0  0
 23 24  2  0  0  0  0
 24 25  1  0  0  0  0
 25 26  1  0  0  0  0
 27 26  1  1  0  0  0
 27 28  1  0  0  0  0
 28 24  1  1  0  0  0
M  END
>  <CHROM.1>
66.70179632,48.46724890,-175.61571844,-79.77918902,119.35486738,38.48061379
24.70900405,26.03064828,0.30566555,-0.71309350,-1.80303541

>  <Name>
ligand

>  <RI>
0

>  <Rbt.Current_Directory>
/home/itssahil/PROJECTS/Mol_Feturizer/New_Systems/rnas/1YLS

>  <Rbt.Executable>
rbdock ($Id: //depot/dev/client3/rdock/2013.1/src/exe/rbdock.cxx#4 $)

>  <Rbt.Library>
libRbt.so (2013.1, Build901 2013/11/27)

>  <Rbt.Parameter_File>
/export/apps/rDock/src/rDock_2013.1_src/data/scripts/dock_solv.prm

>  <Rbt.Receptor>
prm/pocket_docking_3.prm

>  <SCORE>
-30.249

>  <SCORE.INTER>
-29.5775

>  <SCORE.INTER.CONST>
1

>  <SCORE.INTER.POLAR>
0

>  <SCORE.INTER.ROT>
5

>  <SCORE.INTER.SOLV>
6.85327

>  <SCORE.INTER.VDW>
-28.9361

>  <SCORE.INTER.norm>
-1.05634

>  <SCORE.INTRA>
-0.671507

>  <SCORE.INTRA.DIHEDRAL>
-7.61538

>  <SCORE.INTRA.DIHEDRAL.0>
12.0148

>  <SCORE.INTRA.POLAR>
0

>  <SCORE.INTRA.POLAR.0>
0

>  <SCORE.INTRA.REPUL>
0

>  <SCORE.INTRA.REPUL.0>
0

>  <SCORE.INTRA.SOLV>
0.814961

>  <SCORE.INTRA.SOLV.lig_0>
-10.5235

>  <SCORE.INTRA.VDW>
2.7287

>  <SCORE.INTRA.VDW.0>
-1.38455

>  <SCORE.INTRA.norm>
-0.0239824

>  <SCORE.RESTR>
0

>  <SCORE.RESTR.CAVITY>
0

>  <SCORE.RESTR.norm>
0

>  <SCORE.SYSTEM>
0

>  <SCORE.SYSTEM.CONST>
0

>  <SCORE.SYSTEM.DIHEDRAL>
0

>  <SCORE.SYSTEM.SOLV>
0

>  <SCORE.SYSTEM.norm>
0

>  <SCORE.heavy>
28

>  <SCORE.norm>
-1.08032

>  <RMSD>
1.463

$$$$
ligand
 OpenBabel11021811413D
libRbt.so/2013.1/901 2013/11/27
 28 32  0  0  0  0  0  0  0  0999 V2000
   43.9205   27.6587   22.1858 C   0  0  0  0  0  0  0  0  0  0  0  0
   42.5366   27.0668   22.0058 C   0  0  0  0  0  0  0  0  0  0  0  0
   41.6565   27.3165   23.2215 C   0  0  0  0  0  0  0  0  0  0  0  0
   33.4992   25.5692   24.0770 O   0  0  0  0  0  0  0  0  0  0  0  0
   34.3176   25.9446   25.1862 C   0  0  0  0  0  0  0  0  0  0  0  0
   38.0587   24.3635   27.9821 C   0  0  0  0  0  0  0  0  0  0  0  0
   38.0165   25.5249   28.7428 C   0  0  0  0  0  0  0  0  0  0  0  0
   37.0905   26.5227   28.4279 C   0  0  0  0  0  0  0  0  0  0  0  0
   36.2075   26.3607   27.3596 C   0  0  0  0  0  0  0  0  0  0  0  0
   35.3993   24.8894   25.4512 C   0  0  1  0  0  0  0  0  0  0  0  0
   36.2503   25.1901   26.6390 C   0  0  0  0  0  0  0  0  0  0  0  0
   37.1632   24.2143   26.9497 C   0  0  0  0  0  0  0  0  0  0  0  0
   37.1561   23.0619   26.0687 C   0  0  1  0  0  0  0  0  0  0  0  0
   35.4595   21.2470   26.2044 C   0  0  0  0  0  0  0  0  0  0  0  0
   35.7928   22.5653   26.0057 C   0  0  0  0  0  0  0  0  0  0  0  0
   34.8498   23.5054   25.6874 C   0  0  0  0  0  0  0  0  0  0  0  0
   33.5197   23.1341   25.5566 C   0  0  0  0  0  0  0  0  0  0  0  0
   33.1625   21.8020   25.7758 C   0  0  0  0  0  0  0  0  0  0  0  0
   34.1325   20.8632   26.1016 C   0  0  0  0  0  0  0  0  0  0  0  0
   40.4138   26.4370   23.1739 C   0  0  0  0  0  0  0  0  0  0  0  0
   39.5491   26.6691   24.4073 C   0  0  0  0  0  0  0  0  0  0  0  0
   36.8917   26.9859   23.8456 O   0  0  0  0  0  0  0  0  0  0  0  0
   39.7779   23.9129   24.9904 O   0  0  0  0  0  0  0  0  0  0  0  0
   38.7103   24.4183   24.6861 C   0  0  0  0  0  0  0  0  0  0  0  0
   38.5158   25.6458   24.3963 N   0  0  0  0  0  0  0  0  0  0  0  0
   37.3061   25.8968   24.1477 C   0  0  0  0  0  0  0  0  0  0  0  0
   36.4172   24.7134   24.3132 C   0  0  1  0  0  0  0  0  0  0  0  0
   37.4424   23.6408   24.6899 C   0  0  2  0  0  0  0  0  0  0  0  0
  1  2  1  0  0  0  0
  2  3  1  0  0  0  0
  3 20  1  0  0  0  0
  4  5  1  0  0  0  0
  6  7  2  0  0  0  0
  6 12  1  0  0  0  0
  7  8  1  0  0  0  0
  8  9  2  0  0  0  0
  9 11  1  0  0  0  0
 10  5  1  6  0  0  0
 10 11  1  0  0  0  0
 10 16  1  0  0  0  0
 10 27  1  0  0  0  0
 11 12  2  0  0  0  0
 13 12  1  1  0  0  0
 13 15  1  0  0  0  0
 13 28  1  0  0  0  0
 14 15  2  0  0  0  0
 14 19  1  0  0  0  0
 15 16  1  0  0  0  0
 16 17  2  0  0  0  0
 17 18  1  0  0  0  0
 18 19  2  0  0  0  0
 20 21  1  0  0  0  0
 21 25  1  0  0  0  0
 22 26  2  0  0  0  0
 23 24  2  0  0  0  0
 24 25  1  0  0  0  0
 25 26  1  0  0  0  0
 27 26  1  1  0  0  0
 27 28  1  0  0  0  0
 28 24  1  1  0  0  0
M  END
>  <CHROM.1>
-165.99634982,-177.29955739,178.83733093,-170.69277852,74.29516245,37.36698167
24.91802325,25.18381646,-0.54484956,0.23956866,2.09872158

>  <Name>
ligand

>  <RI>
0

>  <Rbt.Current_Directory>
/home/itssahil/PROJECTS/Mol_Feturizer/New_Systems/rnas/1YLS

>  <Rbt.Executable>
rbdock ($Id: //depot/dev/client3/rdock/2013.1/src/exe/rbdock.cxx#4 $)

>  <Rbt.Library>
libRbt.so (2013.1, Build901 2013/11/27)

>  <Rbt.Parameter_File>
/export/apps/rDock/src/rDock_2013.1_src/data/scripts/dock_solv.prm

>  <Rbt.Receptor>
prm/blind_docking_80.prm

>  <SCORE>
-33.6173

>  <SCORE.INTER>
-30.9439

>  <SCORE.INTER.CONST>
1

>  <SCORE.INTER.POLAR>
0

>  <SCORE.INTER.ROT>
5

>  <SCORE.INTER.SOLV>
8.37187

>  <SCORE.INTER.VDW>
-30.3532

>  <SCORE.INTER.norm>
-1.10514

>  <SCORE.INTRA>
-4.0152

>  <SCORE.INTRA.DIHEDRAL>
-8.58026

>  <SCORE.INTRA.DIHEDRAL.0>
12.0148

>  <SCORE.INTRA.POLAR>
0

>  <SCORE.INTRA.POLAR.0>
0

>  <SCORE.INTRA.REPUL>
0

>  <SCORE.INTRA.REPUL.0>
0

>  <SCORE.INTRA.SOLV>
0.148126

>  <SCORE.INTRA.SOLV.lig_0>
-10.5235

>  <SCORE.INTRA.VDW>
0.200864

>  <SCORE.INTRA.VDW.0>
-1.38455

>  <SCORE.INTRA.norm>
-0.1434

>  <SCORE.RESTR>
1.34183

>  <SCORE.RESTR.CAVITY>
1.34183

>  <SCORE.RESTR.norm>
0.0479225

>  <SCORE.SYSTEM>
0

>  <SCORE.SYSTEM.CONST>
0

>  <SCORE.SYSTEM.DIHEDRAL>
0

>  <SCORE.SYSTEM.SOLV>
0

>  <SCORE.SYSTEM.norm>
0

>  <SCORE.heavy>
28

>  <SCORE.norm>
-1.20062

>  <RMSD>
1.472

$$$$
ligand
 OpenBabel11021811413D
libRbt.so/2013.1/901 2013/11/27
 28 32  0  0  0  0  0  0  0  0999 V2000
   43.1874   24.4214   24.9243 C   0  0  0  0  0  0  0  0  0  0  0  0
   42.7003   25.6573   24.1941 C   0  0  0  0  0  0  0  0  0  0  0  0
   42.0376   26.6452   25.1426 C   0  0  0  0  0  0  0  0  0  0  0  0
   33.7867   24.9681   24.5426 O   0  0  0  0  0  0  0  0  0  0  0  0
   34.6268   25.2859   25.6536 C   0  0  0  0  0  0  0  0  0  0  0  0
   38.7432   23.8639   27.9658 C   0  0  0  0  0  0  0  0  0  0  0  0
   38.7177   24.9987   28.7664 C   0  0  0  0  0  0  0  0  0  0  0  0
   37.7051   25.9451   28.5898 C   0  0  0  0  0  0  0  0  0  0  0  0
   36.7195   25.7582   27.6198 C   0  0  0  0  0  0  0  0  0  0  0  0
   35.7917   24.2934   25.7615 C   0  0  1  0  0  0  0  0  0  0  0  0
   36.7506   24.6133   26.8586 C   0  0  0  0  0  0  0  0  0  0  0  0
   37.7484   23.6880   27.0333 C   0  0  0  0  0  0  0  0  0  0  0  0
   37.7111   22.5626   26.1189 C   0  0  1  0  0  0  0  0  0  0  0  0
   36.1501   20.6421   26.3766 C   0  0  0  0  0  0  0  0  0  0  0  0
   36.3809   21.9837   26.1885 C   0  0  0  0  0  0  0  0  0  0  0  0
   35.3545   22.8717   26.0084 C   0  0  0  0  0  0  0  0  0  0  0  0
   34.0423   22.4219   26.0114 C   0  0  0  0  0  0  0  0  0  0  0  0
   33.7909   21.0644   26.2220 C   0  0  0  0  0  0  0  0  0  0  0  0
   34.8449   20.1792   26.4067 C   0  0  0  0  0  0  0  0  0  0  0  0
   40.6355   26.1775   25.5107 C   0  0  0  0  0  0  0  0  0  0  0  0
   39.6868   26.3572   24.3314 C   0  0  0  0  0  0  0  0  0  0  0  0
   36.9694   26.5231   24.0759 O   0  0  0  0  0  0  0  0  0  0  0  0
   40.1415   23.6054   24.7898 O   0  0  0  0  0  0  0  0  0  0  0  0
   39.0186   24.0516   24.6222 C   0  0  0  0  0  0  0  0  0  0  0  0
   38.7209   25.2721   24.3983 N   0  0  0  0  0  0  0  0  0  0  0  0
   37.4784   25.4539   24.2927 C   0  0  0  0  0  0  0  0  0  0  0  0
   36.6848   24.2131   24.5134 C   0  0  1  0  0  0  0  0  0  0  0  0
   37.8071   23.1965   24.7380 C   0  0  2  0  0  0  0  0  0  0  0  0
  1  2  1  0  0  0  0
  2  3  1  0  0  0  0
  3 20  1  0  0  0  0
  4  5  1  0  0  0  0
  6  7  2  0  0  0  0
  6 12  1  0  0  0  0
  7  8  1  0  0  0  0
  8  9  2  0  0  0  0
  9 11  1  0  0  0  0
 10  5  1  6  0  0  0
 10 11  1  0  0  0  0
 10 16  1  0  0  0  0
 10 27  1  0  0  0  0
 11 12  2  0  0  0  0
 13 12  1  1  0  0  0
 13 15  1  0  0  0  0
 13 28  1  0  0  0  0
 14 15  2  0  0  0  0
 14 19  1  0  0  0  0
 15 16  1  0  0  0  0
 16 17  2  0  0  0  0
 17 18  1  0  0  0  0
 18 19  2  0  0  0  0
 20 21  1  0  0  0  0
 21 25  1  0  0  0  0
 22 26  2  0  0  0  0
 23 24  2  0  0  0  0
 24 25  1  0  0  0  0
 25 26  1  0  0  0  0
 27 26  1  1  0  0  0
 27 28  1  0  0  0  0
 28 24  1  1  0  0  0
M  END
>  <CHROM.1>
-76.63770395,176.83695299,-72.89890177,146.79703361,-44.94918671,37.73130185
24.24878756,25.68881416,-0.45290935,-0.00349659,2.80529866

>  <Name>
ligand

>  <RI>
0

>  <Rbt.Current_Directory>
/home/itssahil/PROJECTS/Mol_Feturizer/New_Systems/rnas/1YLS

>  <Rbt.Executable>
rbdock ($Id: //depot/dev/client3/rdock/2013.1/src/exe/rbdock.cxx#4 $)

>  <Rbt.Library>
libRbt.so (2013.1, Build901 2013/11/27)

>  <Rbt.Parameter_File>
/export/apps/rDock/src/rDock_2013.1_src/data/scripts/dock_solv.prm

>  <Rbt.Receptor>
prm/pocket_docking_5.prm

>  <SCORE>
-29.8463

>  <SCORE.INTER>
-29.9913

>  <SCORE.INTER.CONST>
1

>  <SCORE.INTER.POLAR>
0

>  <SCORE.INTER.ROT>
5

>  <SCORE.INTER.SOLV>
7.45238

>  <SCORE.INTER.VDW>
-29.4117

>  <SCORE.INTER.norm>
-1.07112

>  <SCORE.INTRA>
0.145049

>  <SCORE.INTRA.DIHEDRAL>
-4.73273

>  <SCORE.INTRA.DIHEDRAL.0>
12.0148

>  <SCORE.INTRA.POLAR>
0

>  <SCORE.INTRA.POLAR.0>
0

>  <SCORE.INTRA.REPUL>
0

>  <SCORE.INTRA.REPUL.0>
0

>  <SCORE.INTRA.SOLV>
0.62147

>  <SCORE.INTRA.SOLV.lig_0>
-10.5235

>  <SCORE.INTRA.VDW>
2.20068

>  <SCORE.INTRA.VDW.0>
-1.38455

>  <SCORE.INTRA.norm>
0.00518031

>  <SCORE.RESTR>
0

>  <SCORE.RESTR.CAVITY>
0

>  <SCORE.RESTR.norm>
0

>  <SCORE.SYSTEM>
0

>  <SCORE.SYSTEM.CONST>
0

>  <SCORE.SYSTEM.DIHEDRAL>
0

>  <SCORE.SYSTEM.SOLV>
0

>  <SCORE.SYSTEM.norm>
0

>  <SCORE.heavy>
28

>  <SCORE.norm>
-1.06594

>  <RMSD>
1.494

$$$$
ligand
 OpenBabel11021811413D
libRbt.so/2013.1/901 2013/11/27
 28 32  0  0  0  0  0  0  0  0999 V2000
   43.9014   23.6978   25.8008 C   0  0  0  0  0  0  0  0  0  0  0  0
   43.5828   24.9804   25.0581 C   0  0  0  0  0  0  0  0  0  0  0  0
   42.7035   25.9054   25.8864 C   0  0  0  0  0  0  0  0  0  0  0  0
   34.3832   25.1228   26.1562 O   0  0  0  0  0  0  0  0  0  0  0  0
   35.3283   24.8397   25.1229 C   0  0  0  0  0  0  0  0  0  0  0  0
   38.8333   23.5550   28.3442 C   0  0  0  0  0  0  0  0  0  0  0  0
   38.7749   24.8048   28.9474 C   0  0  0  0  0  0  0  0  0  0  0  0
   37.9000   25.7723   28.4467 C   0  0  0  0  0  0  0  0  0  0  0  0
   37.0841   25.4927   27.3499 C   0  0  0  0  0  0  0  0  0  0  0  0
   36.3601   23.8058   25.5920 C   0  0  1  0  0  0  0  0  0  0  0  0
   37.1402   24.2389   26.7875 C   0  0  0  0  0  0  0  0  0  0  0  0
   38.0029   23.2928   27.2804 C   0  0  0  0  0  0  0  0  0  0  0  0
   38.0203   22.0376   26.5536 C   0  0  1  0  0  0  0  0  0  0  0  0
   36.2674   20.2891   26.8017 C   0  0  0  0  0  0  0  0  0  0  0  0
   36.6503   21.5643   26.4612 C   0  0  0  0  0  0  0  0  0  0  0  0
   35.7572   22.4746   25.9632 C   0  0  0  0  0  0  0  0  0  0  0  0
   34.4284   22.1162   25.7901 C   0  0  0  0  0  0  0  0  0  0  0  0
   34.0199   20.8305   26.1510 C   0  0  0  0  0  0  0  0  0  0  0  0
   34.9396   19.9219   26.6581 C   0  0  0  0  0  0  0  0  0  0  0  0
   41.2875   25.3530   25.9857 C   0  0  0  0  0  0  0  0  0  0  0  0
   40.6178   25.3540   24.6166 C   0  0  0  0  0  0  0  0  0  0  0  0
   38.0127   25.6494   23.8398 O   0  0  0  0  0  0  0  0  0  0  0  0
   40.7298   22.6911   25.5574 O   0  0  0  0  0  0  0  0  0  0  0  0
   39.6990   23.1747   25.1198 C   0  0  0  0  0  0  0  0  0  0  0  0
   39.5587   24.3586   24.6647 N   0  0  0  0  0  0  0  0  0  0  0  0
   38.3754   24.5998   24.3046 C   0  0  0  0  0  0  0  0  0  0  0  0
   37.4443   23.4652   24.5573 C   0  0  1  0  0  0  0  0  0  0  0  0
   38.4119   22.4294   25.1355 C   0  0  2  0  0  0  0  0  0  0  0  0
  1  2  1  0  0  0  0
  2  3  1  0  0  0  0
  3 20  1  0  0  0  0
  4  5  1  0  0  0  0
  6  7  2  0  0  0  0
  6 12  1  0  0  0  0
  7  8  1  0  0  0  0
  8  9  2  0  0  0  0
  9 11  1  0  0  0  0
 10  5  1  6  0  0  0
 10 11  1  0  0  0  0
 10 16  1  0  0  0  0
 10 27  1  0  0  0  0
 11 12  2  0  0  0  0
 13 12  1  1  0  0  0
 13 15  1  0  0  0  0
 13 28  1  0  0  0  0
 14 15  2  0  0  0  0
 14 19  1  0  0  0  0
 15 16  1  0  0  0  0
 16 17  2  0  0  0  0
 17 18  1  0  0  0  0
 18 19  2  0  0  0  0
 20 21  1  0  0  0  0
 21 25  1  0  0  0  0
 22 26  2  0  0  0  0
 23 24  2  0  0  0  0
 24 25  1  0  0  0  0
 25 26  1  0  0  0  0
 27 26  1  1  0  0  0
 27 28  1  0  0  0  0
 28 24  1  1  0  0  0
M  END
>  <CHROM.1>
-71.68097961,-59.47868445,-65.90941492,157.11233783,-47.41309479,38.25990167
23.70580139,25.97186754,-0.35255515,-0.06104807,3.03145943

>  <Name>
ligand

>  <RI>
0

>  <Rbt.Current_Directory>
/home/itssahil/PROJECTS/Mol_Feturizer/New_Systems/rnas/1YLS

>  <Rbt.Executable>
rbdock ($Id: //depot/dev/client3/rdock/2013.1/src/exe/rbdock.cxx#4 $)

>  <Rbt.Library>
libRbt.so (2013.1, Build901 2013/11/27)

>  <Rbt.Parameter_File>
/export/apps/rDock/src/rDock_2013.1_src/data/scripts/dock_solv.prm

>  <Rbt.Receptor>
prm/pocket_docking_8.prm

>  <SCORE>
-29.1497

>  <SCORE.INTER>
-28.0591

>  <SCORE.INTER.CONST>
1

>  <SCORE.INTER.POLAR>
0

>  <SCORE.INTER.ROT>
5

>  <SCORE.INTER.SOLV>
7.09638

>  <SCORE.INTER.VDW>
-28.0049

>  <SCORE.INTER.norm>
-1.00211

>  <SCORE.INTRA>
-1.09057

>  <SCORE.INTRA.DIHEDRAL>
-7.25746

>  <SCORE.INTRA.DIHEDRAL.0>
12.0148

>  <SCORE.INTRA.POLAR>
0

>  <SCORE.INTRA.POLAR.0>
0

>  <SCORE.INTRA.REPUL>
0

>  <SCORE.INTRA.REPUL.0>
0

>  <SCORE.INTRA.SOLV>
0.317806

>  <SCORE.INTRA.SOLV.lig_0>
-10.5235

>  <SCORE.INTRA.VDW>
2.37926

>  <SCORE.INTRA.VDW.0>
-1.38455

>  <SCORE.INTRA.norm>
-0.0389488

>  <SCORE.RESTR>
0

>  <SCORE.RESTR.CAVITY>
0

>  <SCORE.RESTR.norm>
0

>  <SCORE.SYSTEM>
0

>  <SCORE.SYSTEM.CONST>
0

>  <SCORE.SYSTEM.DIHEDRAL>
0

>  <SCORE.SYSTEM.SOLV>
0

>  <SCORE.SYSTEM.norm>
0

>  <SCORE.heavy>
28

>  <SCORE.norm>
-1.04106

>  <RMSD>
1.621

$$$$
ligand
 OpenBabel11021811413D
libRbt.so/2013.1/901 2013/11/27
 28 32  0  0  0  0  0  0  0  0999 V2000
   43.0665   28.9305   22.3971 C   0  0  0  0  0  0  0  0  0  0  0  0
   41.7844   28.3701   22.9804 C   0  0  0  0  0  0  0  0  0  0  0  0
   41.7518   26.8507   22.9084 C   0  0  0  0  0  0  0  0  0  0  0  0
   33.7447   25.9859   23.6444 O   0  0  0  0  0  0  0  0  0  0  0  0
   34.4553   26.2898   24.8460 C   0  0  0  0  0  0  0  0  0  0  0  0
   37.8174   24.4686   27.9591 C   0  0  0  0  0  0  0  0  0  0  0  0
   37.8816   25.6777   28.6397 C   0  0  0  0  0  0  0  0  0  0  0  0
   37.1058   26.7557   28.2059 C   0  0  0  0  0  0  0  0  0  0  0  0
   36.2664   26.6267   27.0987 C   0  0  0  0  0  0  0  0  0  0  0  0
   35.3807   25.1325   25.2432 C   0  0  1  0  0  0  0  0  0  0  0  0
   36.1995   25.4113   26.4586 C   0  0  0  0  0  0  0  0  0  0  0  0
   36.9653   24.3562   26.8861 C   0  0  0  0  0  0  0  0  0  0  0  0
   36.8597   23.1535   26.0821 C   0  0  1  0  0  0  0  0  0  0  0  0
   34.9440   21.5728   26.2309 C   0  0  0  0  0  0  0  0  0  0  0  0
   35.4500   22.8232   25.9686 C   0  0  0  0  0  0  0  0  0  0  0  0
   34.6503   23.8460   25.5341 C   0  0  0  0  0  0  0  0  0  0  0  0
   33.2928   23.6309   25.3469 C   0  0  0  0  0  0  0  0  0  0  0  0
   32.7603   22.3711   25.6291 C   0  0  0  0  0  0  0  0  0  0  0  0
   33.5865   21.3469   26.0727 C   0  0  0  0  0  0  0  0  0  0  0  0
   40.3155   26.3438   22.9179 C   0  0  0  0  0  0  0  0  0  0  0  0
   39.7697   26.3153   24.3406 C   0  0  0  0  0  0  0  0  0  0  0  0
   37.2061   26.9122   23.5998 O   0  0  0  0  0  0  0  0  0  0  0  0
   39.6202   23.6003   25.1122 O   0  0  0  0  0  0  0  0  0  0  0  0
   38.6418   24.2090   24.7120 C   0  0  0  0  0  0  0  0  0  0  0  0
   38.6182   25.4272   24.3327 N   0  0  0  0  0  0  0  0  0  0  0  0
   37.4642   25.8051   23.9957 C   0  0  0  0  0  0  0  0  0  0  0  0
   36.4264   24.7534   24.1826 C   0  0  1  0  0  0  0  0  0  0  0  0
   37.2879   23.5936   24.6889 C   0  0  2  0  0  0  0  0  0  0  0  0
  1  2  1  0  0  0  0
  2  3  1  0  0  0  0
  3 20  1  0  0  0  0
  4  5  1  0  0  0  0
  6  7  2  0  0  0  0
  6 12  1  0  0  0  0
  7  8  1  0  0  0  0
  8  9  2  0  0  0  0
  9 11  1  0  0  0  0
 10  5  1  6  0  0  0
 10 11  1  0  0  0  0
 10 16  1  0  0  0  0
 10 27  1  0  0  0  0
 11 12  2  0  0  0  0
 13 12  1  1  0  0  0
 13 15  1  0  0  0  0
 13 28  1  0  0  0  0
 14 15  2  0  0  0  0
 14 19  1  0  0  0  0
 15 16  1  0  0  0  0
 16 17  2  0  0  0  0
 17 18  1  0  0  0  0
 18 19  2  0  0  0  0
 20 21  1  0  0  0  0
 21 25  1  0  0  0  0
 22 26  2  0  0  0  0
 23 24  2  0  0  0  0
 24 25  1  0  0  0  0
 25 26  1  0  0  0  0
 27 26  1  1  0  0  0
 27 28  1  0  0  0  0
 28 24  1  1  0  0  0
M  END
>  <CHROM.1>
-155.72832864,177.39274902,-80.74157248,-161.14435487,99.07289086,37.23360651
25.11026075,25.10458223,0.56183548,-0.25534962,-0.96460427

>  <Name>
ligand

>  <RI>
0

>  <Rbt.Current_Directory>
/home/itssahil/PROJECTS/Mol_Feturizer/New_Systems/rnas/1YLS

>  <Rbt.Executable>
rbdock ($Id: //depot/dev/client3/rdock/2013.1/src/exe/rbdock.cxx#4 $)

>  <Rbt.Library>
libRbt.so (2013.1, Build901 2013/11/27)

>  <Rbt.Parameter_File>
/export/apps/rDock/src/rDock_2013.1_src/data/scripts/dock_solv.prm

>  <Rbt.Receptor>
prm/blind_docking_100.prm

>  <SCORE>
-30.1468

>  <SCORE.INTER>
-30.008

>  <SCORE.INTER.CONST>
1

>  <SCORE.INTER.POLAR>
0

>  <SCORE.INTER.ROT>
5

>  <SCORE.INTER.SOLV>
9.56005

>  <SCORE.INTER.VDW>
-30.1254

>  <SCORE.INTER.norm>
-1.07172

>  <SCORE.INTRA>
-1.91098

>  <SCORE.INTRA.DIHEDRAL>
-4.74542

>  <SCORE.INTRA.DIHEDRAL.0>
12.0148

>  <SCORE.INTRA.POLAR>
0

>  <SCORE.INTRA.POLAR.0>
0

>  <SCORE.INTRA.REPUL>
0

>  <SCORE.INTRA.REPUL.0>
0

>  <SCORE.INTRA.SOLV>
0.166478

>  <SCORE.INTRA.SOLV.lig_0>
-10.5235

>  <SCORE.INTRA.VDW>
0.378491

>  <SCORE.INTRA.VDW.0>
-1.38455

>  <SCORE.INTRA.norm>
-0.0682493

>  <SCORE.RESTR>
1.77218

>  <SCORE.RESTR.CAVITY>
1.77218

>  <SCORE.RESTR.norm>
0.0632921

>  <SCORE.SYSTEM>
0

>  <SCORE.SYSTEM.CONST>
0

>  <SCORE.SYSTEM.DIHEDRAL>
0

>  <SCORE.SYSTEM.SOLV>
0

>  <SCORE.SYSTEM.norm>
0

>  <SCORE.heavy>
28

>  <SCORE.norm>
-1.07667

>  <RMSD>
1.775

$$$$
ligand
 OpenBabel11021811413D
libRbt.so/2013.1/901 2013/11/27
 28 32  0  0  0  0  0  0  0  0999 V2000
   41.8840   28.4644   22.9776 C   0  0  0  0  0  0  0  0  0  0  0  0
   42.5531   27.1267   22.7312 C   0  0  0  0  0  0  0  0  0  0  0  0
   42.3178   26.1606   23.8828 C   0  0  0  0  0  0  0  0  0  0  0  0
   33.7828   27.0418   25.8942 O   0  0  0  0  0  0  0  0  0  0  0  0
   34.5632   26.5627   24.7976 C   0  0  0  0  0  0  0  0  0  0  0  0
   37.7057   24.5038   27.9910 C   0  0  0  0  0  0  0  0  0  0  0  0
   37.8273   25.7009   28.6848 C   0  0  0  0  0  0  0  0  0  0  0  0
   37.1361   26.8302   28.2386 C   0  0  0  0  0  0  0  0  0  0  0  0
   36.3238   26.7643   27.1059 C   0  0  0  0  0  0  0  0  0  0  0  0
   35.3997   25.3449   25.2108 C   0  0  1  0  0  0  0  0  0  0  0  0
   36.1979   25.5607   26.4525 C   0  0  0  0  0  0  0  0  0  0  0  0
   36.8808   24.4550   26.8923 C   0  0  0  0  0  0  0  0  0  0  0  0
   36.7220   23.2679   26.0741 C   0  0  1  0  0  0  0  0  0  0  0  0
   34.7047   21.8134   26.1511 C   0  0  0  0  0  0  0  0  0  0  0  0
   35.2980   23.0304   25.9158 C   0  0  0  0  0  0  0  0  0  0  0  0
   34.5794   24.1062   25.4677 C   0  0  0  0  0  0  0  0  0  0  0  0
   33.2171   23.9809   25.2386 C   0  0  0  0  0  0  0  0  0  0  0  0
   32.5962   22.7561   25.4929 C   0  0  0  0  0  0  0  0  0  0  0  0
   33.3409   21.6771   25.9508 C   0  0  0  0  0  0  0  0  0  0  0  0
   40.9723   25.4628   23.7314 C   0  0  0  0  0  0  0  0  0  0  0  0
   39.8810   26.2477   24.4496 C   0  0  0  0  0  0  0  0  0  0  0  0
   37.3847   27.0151   23.6391 O   0  0  0  0  0  0  0  0  0  0  0  0
   39.5336   23.5423   25.1904 O   0  0  0  0  0  0  0  0  0  0  0  0
   38.6089   24.2161   24.7673 C   0  0  0  0  0  0  0  0  0  0  0  0
   38.6754   25.4361   24.3992 N   0  0  0  0  0  0  0  0  0  0  0  0
   37.5588   25.8906   24.0319 C   0  0  0  0  0  0  0  0  0  0  0  0
   36.4502   24.9069   24.1780 C   0  0  1  0  0  0  0  0  0  0  0  0
   37.2194   23.6899   24.6984 C   0  0  2  0  0  0  0  0  0  0  0  0
  1  2  1  0  0  0  0
  2  3  1  0  0  0  0
  3 20  1  0  0  0  0
  4  5  1  0  0  0  0
  6  7  2  0  0  0  0
  6 12  1  0  0  0  0
  7  8  1  0  0  0  0
  8  9  2  0  0  0  0
  9 11  1  0  0  0  0
 10  5  1  6  0  0  0
 10 11  1  0  0  0  0
 10 16  1  0  0  0  0
 10 27  1  0  0  0  0
 11 12  2  0  0  0  0
 13 12  1  1  0  0  0
 13 15  1  0  0  0  0
 13 28  1  0  0  0  0
 14 15  2  0  0  0  0
 14 19  1  0  0  0  0
 15 16  1  0  0  0  0
 16 17  2  0  0  0  0
 17 18  1  0  0  0  0
 18 19  2  0  0  0  0
 20 21  1  0  0  0  0
 21 25  1  0  0  0  0
 22 26  2  0  0  0  0
 23 24  2  0  0  0  0
 24 25  1  0  0  0  0
 25 26  1  0  0  0  0
 27 26  1  1  0  0  0
 27 28  1  0  0  0  0
 28 24  1  1  0  0  0
M  END
>  <CHROM.1>
83.43181385,-50.99807437,-91.12100244,-173.05683083,52.18493150,37.23728544
25.13772410,25.28267662,0.38260689,0.29399506,-0.05733654

>  <Name>
ligand

>  <RI>
0

>  <Rbt.Current_Directory>
/home/itssahil/PROJECTS/Mol_Feturizer/New_Systems/rnas/1YLS

>  <Rbt.Executable>
rbdock ($Id: //depot/dev/client3/rdock/2013.1/src/exe/rbdock.cxx#4 $)

>  <Rbt.Library>
libRbt.so (2013.1, Build901 2013/11/27)

>  <Rbt.Parameter_File>
/export/apps/rDock/src/rDock_2013.1_src/data/scripts/dock_solv.prm

>  <Rbt.Receptor>
prm/blind_docking_100.prm

>  <SCORE>
-26.6039

>  <SCORE.INTER>
-28.3863

>  <SCORE.INTER.CONST>
1

>  <SCORE.INTER.POLAR>
0

>  <SCORE.INTER.ROT>
5

>  <SCORE.INTER.SOLV>
8.35547

>  <SCORE.INTER.VDW>
-28.6427

>  <SCORE.INTER.norm>
-1.0138

>  <SCORE.INTRA>
0.0967864

>  <SCORE.INTRA.DIHEDRAL>
-3.76482

>  <SCORE.INTRA.DIHEDRAL.0>
12.0148

>  <SCORE.INTRA.POLAR>
0

>  <SCORE.INTRA.POLAR.0>
0

>  <SCORE.INTRA.REPUL>
0

>  <SCORE.INTRA.REPUL.0>
0

>  <SCORE.INTRA.SOLV>
0.0196017

>  <SCORE.INTRA.SOLV.lig_0>
-10.5235

>  <SCORE.INTRA.VDW>
1.9694

>  <SCORE.INTRA.VDW.0>
-1.38455

>  <SCORE.INTRA.norm>
0.00345666

>  <SCORE.RESTR>
1.68555

>  <SCORE.RESTR.CAVITY>
1.68555

>  <SCORE.RESTR.norm>
0.0601982

>  <SCORE.SYSTEM>
0

>  <SCORE.SYSTEM.CONST>
0

>  <SCORE.SYSTEM.DIHEDRAL>
0

>  <SCORE.SYSTEM.SOLV>
0

>  <SCORE.SYSTEM.norm>
0

>  <SCORE.heavy>
28

>  <SCORE.norm>
-0.950141

>  <RMSD>
1.816

$$$$
ligand
 OpenBabel11021811413D
libRbt.so/2013.1/901 2013/11/27
 28 32  0  0  0  0  0  0  0  0999 V2000
   45.0171   26.3683   26.1048 C   0  0  0  0  0  0  0  0  0  0  0  0
   43.5668   26.1528   25.7196 C   0  0  0  0  0  0  0  0  0  0  0  0
   42.8234   25.3356   26.7657 C   0  0  0  0  0  0  0  0  0  0  0  0
   35.1389   26.0628   25.7400 O   0  0  0  0  0  0  0  0  0  0  0  0
   36.1005   25.5032   24.8436 C   0  0  0  0  0  0  0  0  0  0  0  0
   38.6495   23.3215   28.4568 C   0  0  0  0  0  0  0  0  0  0  0  0
   38.8961   24.5480   29.0602 C   0  0  0  0  0  0  0  0  0  0  0  0
   38.4172   25.7182   28.4655 C   0  0  0  0  0  0  0  0  0  0  0  0
   37.6920   25.6643   27.2746 C   0  0  0  0  0  0  0  0  0  0  0  0
   36.7119   24.2221   25.4255 C   0  0  1  0  0  0  0  0  0  0  0  0
   37.4372   24.4358   26.7114 C   0  0  0  0  0  0  0  0  0  0  0  0
   37.9120   23.2895   27.2970 C   0  0  0  0  0  0  0  0  0  0  0  0
   37.6396   22.0666   26.5660 C   0  0  1  0  0  0  0  0  0  0  0  0
   35.4274   20.9277   26.5813 C   0  0  0  0  0  0  0  0  0  0  0  0
   36.2121   22.0209   26.3023 C   0  0  0  0  0  0  0  0  0  0  0  0
   35.6985   23.1420   25.7076 C   0  0  0  0  0  0  0  0  0  0  0  0
   34.3540   23.1913   25.3700 C   0  0  0  0  0  0  0  0  0  0  0  0
   33.5394   22.0963   25.6660 C   0  0  0  0  0  0  0  0  0  0  0  0
   34.0777   20.9692   26.2730 C   0  0  0  0  0  0  0  0  0  0  0  0
   41.3780   25.1093   26.3421 C   0  0  0  0  0  0  0  0  0  0  0  0
   41.3223   24.4032   24.9925 C   0  0  0  0  0  0  0  0  0  0  0  0
   39.0373   25.4402   23.9060 O   0  0  0  0  0  0  0  0  0  0  0  0
   40.5192   21.8550   25.9146 O   0  0  0  0  0  0  0  0  0  0  0  0
   39.7403   22.6116   25.3589 C   0  0  0  0  0  0  0  0  0  0  0  0
   40.0161   23.7705   24.9013 N   0  0  0  0  0  0  0  0  0  0  0  0
   39.0111   24.3435   24.4016 C   0  0  0  0  0  0  0  0  0  0  0  0
   37.7599   23.5455   24.5279 C   0  0  1  0  0  0  0  0  0  0  0  0
   38.2970   22.2847   25.2101 C   0  0  2  0  0  0  0  0  0  0  0  0
  1  2  1  0  0  0  0
  2  3  1  0  0  0  0
  3 20  1  0  0  0  0
  4  5  1  0  0  0  0
  6  7  2  0  0  0  0
  6 12  1  0  0  0  0
  7  8  1  0  0  0  0
  8  9  2  0  0  0  0
  9 11  1  0  0  0  0
 10  5  1  6  0  0  0
 10 11  1  0  0  0  0
 10 16  1  0  0  0  0
 10 27  1  0  0  0  0
 11 12  2  0  0  0  0
 13 12  1  1  0  0  0
 13 15  1  0  0  0  0
 13 28  1  0  0  0  0
 14 15  2  0  0  0  0
 14 19  1  0  0  0  0
 15 16  1  0  0  0  0
 16 17  2  0  0  0  0
 17 18  1  0  0  0  0
 18 19  2  0  0  0  0
 20 21  1  0  0  0  0
 21 25  1  0  0  0  0
 22 26  2  0  0  0  0
 23 24  2  0  0  0  0
 24 25  1  0  0  0  0
 25 26  1  0  0  0  0
 27 26  1  1  0  0  0
 27 28  1  0  0  0  0
 28 24  1  1  0  0  0
M  END
>  <CHROM.1>
-178.84727318,-61.14087338,57.94385531,158.29907340,-86.13028087,38.43433385
23.93954077,26.01813405,0.33264194,-0.03791118,-0.08327506

>  <Name>
ligand

>  <RI>
0

>  <Rbt.Current_Directory>
/home/itssahil/PROJECTS/Mol_Feturizer/New_Systems/rnas/1YLS

>  <Rbt.Executable>
rbdock ($Id: //depot/dev/client3/rdock/2013.1/src/exe/rbdock.cxx#4 $)

>  <Rbt.Library>
libRbt.so (2013.1, Build901 2013/11/27)

>  <Rbt.Parameter_File>
/export/apps/rDock/src/rDock_2013.1_src/data/scripts/dock_solv.prm

>  <Rbt.Receptor>
prm/pocket_docking_8.prm

>  <SCORE>
-27.7655

>  <SCORE.INTER>
-24.3353

>  <SCORE.INTER.CONST>
1

>  <SCORE.INTER.POLAR>
0

>  <SCORE.INTER.ROT>
5

>  <SCORE.INTER.SOLV>
7.16751

>  <SCORE.INTER.VDW>
-25.546

>  <SCORE.INTER.norm>
-0.869117

>  <SCORE.INTRA>
-3.43021

>  <SCORE.INTRA.DIHEDRAL>
-7.80426

>  <SCORE.INTRA.DIHEDRAL.0>
12.0148

>  <SCORE.INTRA.POLAR>
0

>  <SCORE.INTRA.POLAR.0>
0

>  <SCORE.INTRA.REPUL>
0

>  <SCORE.INTRA.REPUL.0>
0

>  <SCORE.INTRA.SOLV>
-0.0106142

>  <SCORE.INTRA.SOLV.lig_0>
-10.5235

>  <SCORE.INTRA.VDW>
0.477229

>  <SCORE.INTRA.VDW.0>
-1.38455

>  <SCORE.INTRA.norm>
-0.122507

>  <SCORE.RESTR>
0

>  <SCORE.RESTR.CAVITY>
0

>  <SCORE.RESTR.norm>
0

>  <SCORE.SYSTEM>
0

>  <SCORE.SYSTEM.CONST>
0

>  <SCORE.SYSTEM.DIHEDRAL>
0

>  <SCORE.SYSTEM.SOLV>
0

>  <SCORE.SYSTEM.norm>
0

>  <SCORE.heavy>
28

>  <SCORE.norm>
-0.991625

>  <RMSD>
1.843

$$$$
ligand
 OpenBabel11021811413D
libRbt.so/2013.1/901 2013/11/27
 28 32  0  0  0  0  0  0  0  0999 V2000
   43.0251   24.7302   26.5732 C   0  0  0  0  0  0  0  0  0  0  0  0
   42.1528   25.7792   25.9126 C   0  0  0  0  0  0  0  0  0  0  0  0
   40.7622   25.8221   26.5284 C   0  0  0  0  0  0  0  0  0  0  0  0
   33.7457   24.8905   24.5009 O   0  0  0  0  0  0  0  0  0  0  0  0
   34.5729   25.2399   25.6122 C   0  0  0  0  0  0  0  0  0  0  0  0
   38.6725   23.8981   28.0008 C   0  0  0  0  0  0  0  0  0  0  0  0
   38.6172   25.0385   28.7919 C   0  0  0  0  0  0  0  0  0  0  0  0
   37.5935   25.9681   28.5916 C   0  0  0  0  0  0  0  0  0  0  0  0
   36.6265   25.7589   27.6076 C   0  0  0  0  0  0  0  0  0  0  0  0
   35.7506   24.2659   25.7465 C   0  0  1  0  0  0  0  0  0  0  0  0
   36.6869   24.6087   26.8561 C   0  0  0  0  0  0  0  0  0  0  0  0
   37.6956   23.7000   27.0540 C   0  0  0  0  0  0  0  0  0  0  0  0
   37.6897   22.5671   26.1481 C   0  0  1  0  0  0  0  0  0  0  0  0
   36.1537   20.6254   26.3963 C   0  0  0  0  0  0  0  0  0  0  0  0
   36.3674   21.9688   26.2012 C   0  0  0  0  0  0  0  0  0  0  0  0
   35.3309   22.8398   25.9977 C   0  0  0  0  0  0  0  0  0  0  0  0
   34.0257   22.3702   25.9833 C   0  0  0  0  0  0  0  0  0  0  0  0
   33.7913   21.0108   26.2008 C   0  0  0  0  0  0  0  0  0  0  0  0
   34.8553   20.1431   26.4092 C   0  0  0  0  0  0  0  0  0  0  0  0
   39.8824   26.8279   25.7973 C   0  0  0  0  0  0  0  0  0  0  0  0
   39.6369   26.3772   24.3622 C   0  0  0  0  0  0  0  0  0  0  0  0
   36.9217   26.5001   24.0621 O   0  0  0  0  0  0  0  0  0  0  0  0
   40.1252   23.6362   24.8496 O   0  0  0  0  0  0  0  0  0  0  0  0
   38.9986   24.0641   24.6606 C   0  0  0  0  0  0  0  0  0  0  0  0
   38.6864   25.2782   24.4223 N   0  0  0  0  0  0  0  0  0  0  0  0
   37.4431   25.4404   24.2955 C   0  0  0  0  0  0  0  0  0  0  0  0
   36.6647   24.1895   24.5134 C   0  0  1  0  0  0  0  0  0  0  0  0
   37.7984   23.1918   24.7639 C   0  0  2  0  0  0  0  0  0  0  0  0
  1  2  1  0  0  0  0
  2  3  1  0  0  0  0
  3 20  1  0  0  0  0
  4  5  1  0  0  0  0
  6  7  2  0  0  0  0
  6 12  1  0  0  0  0
  7  8  1  0  0  0  0
  8  9  2  0  0  0  0
  9 11  1  0  0  0  0
 10  5  1  6  0  0  0
 10 11  1  0  0  0  0
 10 16  1  0  0  0  0
 10 27  1  0  0  0  0
 11 12  2  0  0  0  0
 13 12  1  1  0  0  0
 13 15  1  0  0  0  0
 13 28  1  0  0  0  0
 14 15  2  0  0  0  0
 14 19  1  0  0  0  0
 15 16  1  0  0  0  0
 16 17  2  0  0  0  0
 17 18  1  0  0  0  0
 18 19  2  0  0  0  0
 20 21  1  0  0  0  0
 21 25  1  0  0  0  0
 22 26  2  0  0  0  0
 23 24  2  0  0  0  0
 24 25  1  0  0  0  0
 25 26  1  0  0  0  0
 27 26  1  1  0  0  0
 27 28  1  0  0  0  0
 28 24  1  1  0  0  0
M  END
>  <CHROM.1>
-176.84233058,177.59911707,65.37182627,74.29497796,-82.84462769,37.59378062
24.25065684,25.89121601,-0.41686241,0.22198431,2.70107632

>  <Name>
ligand

>  <RI>
0

>  <Rbt.Current_Directory>
/home/itssahil/PROJECTS/Mol_Feturizer/New_Systems/rnas/1YLS

>  <Rbt.Executable>
rbdock ($Id: //depot/dev/client3/rdock/2013.1/src/exe/rbdock.cxx#4 $)

>  <Rbt.Library>
libRbt.so (2013.1, Build901 2013/11/27)

>  <Rbt.Parameter_File>
/export/apps/rDock/src/rDock_2013.1_src/data/scripts/dock_solv.prm

>  <Rbt.Receptor>
prm/pocket_docking_7.prm

>  <SCORE>
-32.5343

>  <SCORE.INTER>
-28.4707

>  <SCORE.INTER.CONST>
1

>  <SCORE.INTER.POLAR>
0

>  <SCORE.INTER.ROT>
5

>  <SCORE.INTER.SOLV>
7.38092

>  <SCORE.INTER.VDW>
-28.3741

>  <SCORE.INTER.norm>
-1.01681

>  <SCORE.INTRA>
-4.06365

>  <SCORE.INTRA.DIHEDRAL>
-8.52264

>  <SCORE.INTRA.DIHEDRAL.0>
12.0148

>  <SCORE.INTRA.POLAR>
0

>  <SCORE.INTRA.POLAR.0>
0

>  <SCORE.INTRA.REPUL>
0

>  <SCORE.INTRA.REPUL.0>
0

>  <SCORE.INTRA.SOLV>
0.773387

>  <SCORE.INTRA.SOLV.lig_0>
-10.5235

>  <SCORE.INTRA.VDW>
-0.189022

>  <SCORE.INTRA.VDW.0>
-1.38455

>  <SCORE.INTRA.norm>
-0.14513

>  <SCORE.RESTR>
0

>  <SCORE.RESTR.CAVITY>
0

>  <SCORE.RESTR.norm>
0

>  <SCORE.SYSTEM>
0

>  <SCORE.SYSTEM.CONST>
0

>  <SCORE.SYSTEM.DIHEDRAL>
0

>  <SCORE.SYSTEM.SOLV>
0

>  <SCORE.SYSTEM.norm>
0

>  <SCORE.heavy>
28

>  <SCORE.norm>
-1.16194

>  <RMSD>
1.886

$$$$
ligand
 OpenBabel11021811413D
libRbt.so/2013.1/901 2013/11/27
 28 32  0  0  0  0  0  0  0  0999 V2000
   43.0200   24.6420   26.5571 C   0  0  0  0  0  0  0  0  0  0  0  0
   42.1727   25.7283   25.9245 C   0  0  0  0  0  0  0  0  0  0  0  0
   40.7787   25.7784   26.5321 C   0  0  0  0  0  0  0  0  0  0  0  0
   33.7334   24.9071   24.5094 O   0  0  0  0  0  0  0  0  0  0  0  0
   34.5867   25.2693   25.5965 C   0  0  0  0  0  0  0  0  0  0  0  0
   38.6669   23.8753   27.9884 C   0  0  0  0  0  0  0  0  0  0  0  0
   38.6190   25.0105   28.7873 C   0  0  0  0  0  0  0  0  0  0  0  0
   37.6040   25.9503   28.5904 C   0  0  0  0  0  0  0  0  0  0  0  0
   36.6384   25.7564   27.6020 C   0  0  0  0  0  0  0  0  0  0  0  0
   35.7555   24.2843   25.7276 C   0  0  1  0  0  0  0  0  0  0  0  0
   36.6912   24.6111   26.8426 C   0  0  0  0  0  0  0  0  0  0  0  0
   37.6914   23.6923   27.0371 C   0  0  0  0  0  0  0  0  0  0  0  0
   37.6786   22.5659   26.1232 C   0  0  1  0  0  0  0  0  0  0  0  0
   36.1252   20.6358   26.3528 C   0  0  0  0  0  0  0  0  0  0  0  0
   36.3510   21.9787   26.1679 C   0  0  0  0  0  0  0  0  0  0  0  0
   35.3227   22.8600   25.9674 C   0  0  0  0  0  0  0  0  0  0  0  0
   34.0136   22.4019   25.9456 C   0  0  0  0  0  0  0  0  0  0  0  0
   33.7668   21.0430   26.1527 C   0  0  0  0  0  0  0  0  0  0  0  0
   34.8227   20.1647   26.3583 C   0  0  0  0  0  0  0  0  0  0  0  0
   39.9152   26.8046   25.8100 C   0  0  0  0  0  0  0  0  0  0  0  0
   39.6642   26.3716   24.3704 C   0  0  0  0  0  0  0  0  0  0  0  0
   36.9512   26.5200   24.0628 O   0  0  0  0  0  0  0  0  0  0  0  0
   40.1274   23.6231   24.8399 O   0  0  0  0  0  0  0  0  0  0  0  0
   39.0051   24.0620   24.6504 C   0  0  0  0  0  0  0  0  0  0  0  0
   38.7041   25.2804   24.4197 N   0  0  0  0  0  0  0  0  0  0  0  0
   37.4627   25.4543   24.2902 C   0  0  0  0  0  0  0  0  0  0  0  0
   36.6729   24.2087   24.4969 C   0  0  1  0  0  0  0  0  0  0  0  0
   37.7971   23.1994   24.7438 C   0  0  2  0  0  0  0  0  0  0  0  0
  1  2  1  0  0  0  0
  2  3  1  0  0  0  0
  3 20  1  0  0  0  0
  4  5  1  0  0  0  0
  6  7  2  0  0  0  0
  6 12  1  0  0  0  0
  7  8  1  0  0  0  0
  8  9  2  0  0  0  0
  9 11  1  0  0  0  0
 10  5  1  6  0  0  0
 10 11  1  0  0  0  0
 10 16  1  0  0  0  0
 10 27  1  0  0  0  0
 11 12  2  0  0  0  0
 13 12  1  1  0  0  0
 13 15  1  0  0  0  0
 13 28  1  0  0  0  0
 14 15  2  0  0  0  0
 14 19  1  0  0  0  0
 15 16  1  0  0  0  0
 16 17  2  0  0  0  0
 17 18  1  0  0  0  0
 18 19  2  0  0  0  0
 20 21  1  0  0  0  0
 21 25  1  0  0  0  0
 22 26  2  0  0  0  0
 23 24  2  0  0  0  0
 24 25  1  0  0  0  0
 25 26  1  0  0  0  0
 27 26  1  1  0  0  0
 27 28  1  0  0  0  0
 28 24  1  1  0  0  0
M  END
>  <CHROM.1>
-175.74431911,179.67040288,65.84201629,73.89607195,-82.52156011,37.59677910
24.24806128,25.87816584,-0.40751337,0.21650890,2.71155332

>  <Name>
ligand

>  <RI>
0

>  <Rbt.Current_Directory>
/home/itssahil/PROJECTS/Mol_Feturizer/New_Systems/rnas/1YLS

>  <Rbt.Executable>
rbdock ($Id: //depot/dev/client3/rdock/2013.1/src/exe/rbdock.cxx#4 $)

>  <Rbt.Library>
libRbt.so (2013.1, Build901 2013/11/27)

>  <Rbt.Parameter_File>
/export/apps/rDock/src/rDock_2013.1_src/data/scripts/dock_solv.prm

>  <Rbt.Receptor>
prm/pocket_docking_8.prm

>  <SCORE>
-32.444

>  <SCORE.INTER>
-28.4405

>  <SCORE.INTER.CONST>
1

>  <SCORE.INTER.POLAR>
0

>  <SCORE.INTER.ROT>
5

>  <SCORE.INTER.SOLV>
7.37294

>  <SCORE.INTER.VDW>
-28.3513

>  <SCORE.INTER.norm>
-1.01573

>  <SCORE.INTRA>
-4.00357

>  <SCORE.INTRA.DIHEDRAL>
-8.51742

>  <SCORE.INTRA.DIHEDRAL.0>
12.0148

>  <SCORE.INTRA.POLAR>
0

>  <SCORE.INTRA.POLAR.0>
0

>  <SCORE.INTRA.REPUL>
0

>  <SCORE.INTRA.REPUL.0>
0

>  <SCORE.INTRA.SOLV>
0.766961

>  <SCORE.INTRA.SOLV.lig_0>
-10.5235

>  <SCORE.INTRA.VDW>
-0.128336

>  <SCORE.INTRA.VDW.0>
-1.38455

>  <SCORE.INTRA.norm>
-0.142984

>  <SCORE.RESTR>
0

>  <SCORE.RESTR.CAVITY>
0

>  <SCORE.RESTR.norm>
0

>  <SCORE.SYSTEM>
0

>  <SCORE.SYSTEM.CONST>
0

>  <SCORE.SYSTEM.DIHEDRAL>
0

>  <SCORE.SYSTEM.SOLV>
0

>  <SCORE.SYSTEM.norm>
0

>  <SCORE.heavy>
28

>  <SCORE.norm>
-1.15872

>  <RMSD>
1.891

$$$$
ligand
 OpenBabel11021811413D
libRbt.so/2013.1/901 2013/11/27
 28 32  0  0  0  0  0  0  0  0999 V2000
   43.1322   24.5988   27.3708 C   0  0  0  0  0  0  0  0  0  0  0  0
   42.3881   25.5439   26.4483 C   0  0  0  0  0  0  0  0  0  0  0  0
   40.9171   25.6511   26.8217 C   0  0  0  0  0  0  0  0  0  0  0  0
   33.9783   25.2389   26.2476 O   0  0  0  0  0  0  0  0  0  0  0  0
   34.9087   25.0819   25.1748 C   0  0  0  0  0  0  0  0  0  0  0  0
   38.6302   23.9070   28.1887 C   0  0  0  0  0  0  0  0  0  0  0  0
   38.5187   25.1259   28.8454 C   0  0  0  0  0  0  0  0  0  0  0  0
   37.5619   26.0523   28.4229 C   0  0  0  0  0  0  0  0  0  0  0  0
   36.7172   25.7622   27.3509 C   0  0  0  0  0  0  0  0  0  0  0  0
   36.0248   24.1008   25.5564 C   0  0  1  0  0  0  0  0  0  0  0  0
   36.8284   24.5377   26.7348 C   0  0  0  0  0  0  0  0  0  0  0  0
   37.7714   23.6321   27.1509 C   0  0  0  0  0  0  0  0  0  0  0  0
   37.8367   22.4100   26.3724 C   0  0  1  0  0  0  0  0  0  0  0  0
   36.2126   20.5414   26.6212 C   0  0  0  0  0  0  0  0  0  0  0  0
   36.4972   21.8513   26.3183 C   0  0  0  0  0  0  0  0  0  0  0  0
   35.5259   22.7194   25.8969 C   0  0  0  0  0  0  0  0  0  0  0  0
   34.2165   22.2811   25.7653 C   0  0  0  0  0  0  0  0  0  0  0  0
   33.9080   20.9581   26.0893 C   0  0  0  0  0  0  0  0  0  0  0  0
   34.9060   20.0932   26.5186 C   0  0  0  0  0  0  0  0  0  0  0  0
   40.1857   26.5788   25.8603 C   0  0  0  0  0  0  0  0  0  0  0  0
   40.1262   25.9634   24.4672 C   0  0  0  0  0  0  0  0  0  0  0  0
   37.4753   26.1161   23.8143 O   0  0  0  0  0  0  0  0  0  0  0  0
   40.4511   23.2790   25.2906 O   0  0  0  0  0  0  0  0  0  0  0  0
   39.3727   23.7102   24.9175 C   0  0  0  0  0  0  0  0  0  0  0  0
   39.1365   24.8991   24.5185 N   0  0  0  0  0  0  0  0  0  0  0  0
   37.9251   25.0755   24.2191 C   0  0  0  0  0  0  0  0  0  0  0  0
   37.0811   23.8730   24.4635 C   0  0  1  0  0  0  0  0  0  0  0  0
   38.1382   22.8816   24.9565 C   0  0  2  0  0  0  0  0  0  0  0  0
  1  2  1  0  0  0  0
  2  3  1  0  0  0  0
  3 20  1  0  0  0  0
  4  5  1  0  0  0  0
  6  7  2  0  0  0  0
  6 12  1  0  0  0  0
  7  8  1  0  0  0  0
  8  9  2  0  0  0  0
  9 11  1  0  0  0  0
 10  5  1  6  0  0  0
 10 11  1  0  0  0  0
 10 16  1  0  0  0  0
 10 27  1  0  0  0  0
 11 12  2  0  0  0  0
 13 12  1  1  0  0  0
 13 15  1  0  0  0  0
 13 28  1  0  0  0  0
 14 15  2  0  0  0  0
 14 19  1  0  0  0  0
 15 16  1  0  0  0  0
 16 17  2  0  0  0  0
 17 18  1  0  0  0  0
 18 19  2  0  0  0  0
 20 21  1  0  0  0  0
 21 25  1  0  0  0  0
 22 26  2  0  0  0  0
 23 24  2  0  0  0  0
 24 25  1  0  0  0  0
 25 26  1  0  0  0  0
 27 26  1  1  0  0  0
 27 28  1  0  0  0  0
 28 24  1  1  0  0  0
M  END
>  <CHROM.1>
-178.61634642,-60.76718557,67.30773291,74.30645205,-84.09487458,37.81999048
24.09444300,26.04034924,-0.41488069,0.16306412,2.84932298

>  <Name>
ligand

>  <RI>
0

>  <Rbt.Current_Directory>
/home/itssahil/PROJECTS/Mol_Feturizer/New_Systems/rnas/1YLS

>  <Rbt.Executable>
rbdock ($Id: //depot/dev/client3/rdock/2013.1/src/exe/rbdock.cxx#4 $)

>  <Rbt.Library>
libRbt.so (2013.1, Build901 2013/11/27)

>  <Rbt.Parameter_File>
/export/apps/rDock/src/rDock_2013.1_src/data/scripts/dock_solv.prm

>  <Rbt.Receptor>
prm/pocket_docking_8.prm

>  <SCORE>
-32.5031

>  <SCORE.INTER>
-28.0659

>  <SCORE.INTER.CONST>
1

>  <SCORE.INTER.POLAR>
0

>  <SCORE.INTER.ROT>
5

>  <SCORE.INTER.SOLV>
7.30655

>  <SCORE.INTER.VDW>
-28.0794

>  <SCORE.INTER.norm>
-1.00235

>  <SCORE.INTRA>
-4.43724

>  <SCORE.INTRA.DIHEDRAL>
-8.46191

>  <SCORE.INTRA.DIHEDRAL.0>
12.0148

>  <SCORE.INTRA.POLAR>
0

>  <SCORE.INTRA.POLAR.0>
0

>  <SCORE.INTRA.REPUL>
0

>  <SCORE.INTRA.REPUL.0>
0

>  <SCORE.INTRA.SOLV>
0.545075

>  <SCORE.INTRA.SOLV.lig_0>
-10.5235

>  <SCORE.INTRA.VDW>
-0.478818

>  <SCORE.INTRA.VDW.0>
-1.38455

>  <SCORE.INTRA.norm>
-0.158473

>  <SCORE.RESTR>
0

>  <SCORE.RESTR.CAVITY>
0

>  <SCORE.RESTR.norm>
0

>  <SCORE.SYSTEM>
0

>  <SCORE.SYSTEM.CONST>
0

>  <SCORE.SYSTEM.DIHEDRAL>
0

>  <SCORE.SYSTEM.SOLV>
0

>  <SCORE.SYSTEM.norm>
0

>  <SCORE.heavy>
28

>  <SCORE.norm>
-1.16083

>  <RMSD>
1.891

$$$$
ligand
 OpenBabel11021811413D
libRbt.so/2013.1/901 2013/11/27
 28 32  0  0  0  0  0  0  0  0999 V2000
   43.0397   24.6123   27.3911 C   0  0  0  0  0  0  0  0  0  0  0  0
   42.3235   25.5484   26.4379 C   0  0  0  0  0  0  0  0  0  0  0  0
   40.8549   25.7060   26.8031 C   0  0  0  0  0  0  0  0  0  0  0  0
   33.9899   25.2568   26.2595 O   0  0  0  0  0  0  0  0  0  0  0  0
   34.9011   25.0841   25.1728 C   0  0  0  0  0  0  0  0  0  0  0  0
   38.6459   23.9199   28.1616 C   0  0  0  0  0  0  0  0  0  0  0  0
   38.5365   25.1391   28.8180 C   0  0  0  0  0  0  0  0  0  0  0  0
   37.5748   26.0631   28.4014 C   0  0  0  0  0  0  0  0  0  0  0  0
   36.7232   25.7703   27.3355 C   0  0  0  0  0  0  0  0  0  0  0  0
   36.0218   24.1058   25.5474 C   0  0  1  0  0  0  0  0  0  0  0  0
   36.8327   24.5454   26.7198 C   0  0  0  0  0  0  0  0  0  0  0  0
   37.7805   23.6422   27.1301 C   0  0  0  0  0  0  0  0  0  0  0  0
   37.8430   22.4195   26.3522 C   0  0  1  0  0  0  0  0  0  0  0  0
   36.2246   20.5477   26.6140 C   0  0  0  0  0  0  0  0  0  0  0  0
   36.5043   21.8579   26.3080 C   0  0  0  0  0  0  0  0  0  0  0  0
   35.5283   22.7236   25.8927 C   0  0  0  0  0  0  0  0  0  0  0  0
   34.2189   22.2824   25.7706 C   0  0  0  0  0  0  0  0  0  0  0  0
   33.9155   20.9591   26.0979 C   0  0  0  0  0  0  0  0  0  0  0  0
   34.9183   20.0967   26.5211 C   0  0  0  0  0  0  0  0  0  0  0  0
   40.1499   26.6196   25.8090 C   0  0  0  0  0  0  0  0  0  0  0  0
   40.1116   25.9760   24.4280 C   0  0  0  0  0  0  0  0  0  0  0  0
   37.4558   26.1226   23.7934 O   0  0  0  0  0  0  0  0  0  0  0  0
   40.4479   23.2931   25.2514 O   0  0  0  0  0  0  0  0  0  0  0  0
   39.3661   23.7217   24.8855 C   0  0  0  0  0  0  0  0  0  0  0  0
   39.1245   24.9097   24.4871 N   0  0  0  0  0  0  0  0  0  0  0  0
   37.9107   25.0833   24.1960 C   0  0  0  0  0  0  0  0  0  0  0  0
   37.0709   23.8792   24.4474 C   0  0  1  0  0  0  0  0  0  0  0  0
   38.1336   22.8905   24.9339 C   0  0  2  0  0  0  0  0  0  0  0  0
  1  2  1  0  0  0  0
  2  3  1  0  0  0  0
  3 20  1  0  0  0  0
  4  5  1  0  0  0  0
  6  7  2  0  0  0  0
  6 12  1  0  0  0  0
  7  8  1  0  0  0  0
  8  9  2  0  0  0  0
  9 11  1  0  0  0  0
 10  5  1  6  0  0  0
 10 11  1  0  0  0  0
 10 16  1  0  0  0  0
 10 27  1  0  0  0  0
 11 12  2  0  0  0  0
 13 12  1  1  0  0  0
 13 15  1  0  0  0  0
 13 28  1  0  0  0  0
 14 15  2  0  0  0  0
 14 19  1  0  0  0  0
 15 16  1  0  0  0  0
 16 17  2  0  0  0  0
 17 18  1  0  0  0  0
 18 19  2  0  0  0  0
 20 21  1  0  0  0  0
 21 25  1  0  0  0  0
 22 26  2  0  0  0  0
 23 24  2  0  0  0  0
 24 25  1  0  0  0  0
 25 26  1  0  0  0  0
 27 26  1  1  0  0  0
 27 28  1  0  0  0  0
 28 24  1  1  0  0  0
M  END
>  <CHROM.1>
-178.43256357,-59.82504611,65.74444272,73.57719767,-85.72301106,37.81067737
24.10597405,26.02468696,-0.42284978,0.16623697,2.84208704

>  <Name>
ligand

>  <RI>
0

>  <Rbt.Current_Directory>
/home/itssahil/PROJECTS/Mol_Feturizer/New_Systems/rnas/1YLS

>  <Rbt.Executable>
rbdock ($Id: //depot/dev/client3/rdock/2013.1/src/exe/rbdock.cxx#4 $)

>  <Rbt.Library>
libRbt.so (2013.1, Build901 2013/11/27)

>  <Rbt.Parameter_File>
/export/apps/rDock/src/rDock_2013.1_src/data/scripts/dock_solv.prm

>  <Rbt.Receptor>
prm/pocket_docking_8.prm

>  <SCORE>
-32.5657

>  <SCORE.INTER>
-28.1024

>  <SCORE.INTER.CONST>
1

>  <SCORE.INTER.POLAR>
0

>  <SCORE.INTER.ROT>
5

>  <SCORE.INTER.SOLV>
7.39145

>  <SCORE.INTER.VDW>
-28.1321

>  <SCORE.INTER.norm>
-1.00366

>  <SCORE.INTRA>
-4.46333

>  <SCORE.INTRA.DIHEDRAL>
-8.60876

>  <SCORE.INTRA.DIHEDRAL.0>
12.0148

>  <SCORE.INTRA.POLAR>
0

>  <SCORE.INTRA.POLAR.0>
0

>  <SCORE.INTRA.REPUL>
0

>  <SCORE.INTRA.REPUL.0>
0

>  <SCORE.INTRA.SOLV>
0.557598

>  <SCORE.INTRA.SOLV.lig_0>
-10.5235

>  <SCORE.INTRA.VDW>
-0.437747

>  <SCORE.INTRA.VDW.0>
-1.38455

>  <SCORE.INTRA.norm>
-0.159405

>  <SCORE.RESTR>
0

>  <SCORE.RESTR.CAVITY>
0

>  <SCORE.RESTR.norm>
0

>  <SCORE.SYSTEM>
0

>  <SCORE.SYSTEM.CONST>
0

>  <SCORE.SYSTEM.DIHEDRAL>
0

>  <SCORE.SYSTEM.SOLV>
0

>  <SCORE.SYSTEM.norm>
0

>  <SCORE.heavy>
28

>  <SCORE.norm>
-1.16306

>  <RMSD>
1.895

$$$$
ligand
 OpenBabel11021811413D
libRbt.so/2013.1/901 2013/11/27
 28 32  0  0  0  0  0  0  0  0999 V2000
   43.0225   24.7759   26.6744 C   0  0  0  0  0  0  0  0  0  0  0  0
   42.1430   25.7827   25.9598 C   0  0  0  0  0  0  0  0  0  0  0  0
   40.7449   25.8314   26.5579 C   0  0  0  0  0  0  0  0  0  0  0  0
   33.7549   24.8901   24.5000 O   0  0  0  0  0  0  0  0  0  0  0  0
   34.5790   25.2382   25.6139 C   0  0  0  0  0  0  0  0  0  0  0  0
   38.6748   23.8968   28.0092 C   0  0  0  0  0  0  0  0  0  0  0  0
   38.6159   25.0351   28.8029 C   0  0  0  0  0  0  0  0  0  0  0  0
   37.5912   25.9637   28.6025 C   0  0  0  0  0  0  0  0  0  0  0  0
   36.6270   25.7554   27.6156 C   0  0  0  0  0  0  0  0  0  0  0  0
   35.7579   24.2657   25.7487 C   0  0  1  0  0  0  0  0  0  0  0  0
   36.6909   24.6072   26.8614 C   0  0  0  0  0  0  0  0  0  0  0  0
   37.7006   23.6995   27.0595 C   0  0  0  0  0  0  0  0  0  0  0  0
   37.6986   22.5689   26.1508 C   0  0  1  0  0  0  0  0  0  0  0  0
   36.1651   20.6242   26.3904 C   0  0  0  0  0  0  0  0  0  0  0  0
   36.3771   21.9684   26.1992 C   0  0  0  0  0  0  0  0  0  0  0  0
   35.3397   22.8383   25.9954 C   0  0  0  0  0  0  0  0  0  0  0  0
   34.0353   22.3668   25.9767 C   0  0  0  0  0  0  0  0  0  0  0  0
   33.8025   21.0064   26.1901 C   0  0  0  0  0  0  0  0  0  0  0  0
   34.8674   20.1399   26.3990 C   0  0  0  0  0  0  0  0  0  0  0  0
   39.8784   26.8401   25.8151 C   0  0  0  0  0  0  0  0  0  0  0  0
   39.6442   26.3864   24.3791 C   0  0  0  0  0  0  0  0  0  0  0  0
   36.9296   26.5058   24.0727 O   0  0  0  0  0  0  0  0  0  0  0  0
   40.1356   23.6450   24.8609 O   0  0  0  0  0  0  0  0  0  0  0  0
   39.0088   24.0716   24.6702 C   0  0  0  0  0  0  0  0  0  0  0  0
   38.6953   25.2858   24.4341 N   0  0  0  0  0  0  0  0  0  0  0  0
   37.4521   25.4464   24.3047 C   0  0  0  0  0  0  0  0  0  0  0  0
   36.6751   24.1938   24.5176 C   0  0  1  0  0  0  0  0  0  0  0  0
   37.8097   23.1971   24.7684 C   0  0  2  0  0  0  0  0  0  0  0  0
  1  2  1  0  0  0  0
  2  3  1  0  0  0  0
  3 20  1  0  0  0  0
  4  5  1  0  0  0  0
  6  7  2  0  0  0  0
  6 12  1  0  0  0  0
  7  8  1  0  0  0  0
  8  9  2  0  0  0  0
  9 11  1  0  0  0  0
 10  5  1  6  0  0  0
 10 11  1  0  0  0  0
 10 16  1  0  0  0  0
 10 27  1  0  0  0  0
 11 12  2  0  0  0  0
 13 12  1  1  0  0  0
 13 15  1  0  0  0  0
 13 28  1  0  0  0  0
 14 15  2  0  0  0  0
 14 19  1  0  0  0  0
 15 16  1  0  0  0  0
 16 17  2  0  0  0  0
 17 18  1  0  0  0  0
 18 19  2  0  0  0  0
 20 21  1  0  0  0  0
 21 25  1  0  0  0  0
 22 26  2  0  0  0  0
 23 24  2  0  0  0  0
 24 25  1  0  0  0  0
 25 26  1  0  0  0  0
 27 26  1  1  0  0  0
 27 28  1  0  0  0  0
 28 24  1  1  0  0  0
M  END
>  <CHROM.1>
-179.48794665,177.61113334,65.61923696,73.82227107,-83.21854849,37.59881751
24.25458874,25.90254246,-0.41524294,0.23270417,2.69694961

>  <Name>
ligand

>  <RI>
0

>  <Rbt.Current_Directory>
/home/itssahil/PROJECTS/Mol_Feturizer/New_Systems/rnas/1YLS

>  <Rbt.Executable>
rbdock ($Id: //depot/dev/client3/rdock/2013.1/src/exe/rbdock.cxx#4 $)

>  <Rbt.Library>
libRbt.so (2013.1, Build901 2013/11/27)

>  <Rbt.Parameter_File>
/export/apps/rDock/src/rDock_2013.1_src/data/scripts/dock_solv.prm

>  <Rbt.Receptor>
prm/pocket_docking_4.prm

>  <SCORE>
-32.5278

>  <SCORE.INTER>
-28.4246

>  <SCORE.INTER.CONST>
1

>  <SCORE.INTER.POLAR>
0

>  <SCORE.INTER.ROT>
5

>  <SCORE.INTER.SOLV>
7.36496

>  <SCORE.INTER.VDW>
-28.3381

>  <SCORE.INTER.norm>
-1.01516

>  <SCORE.INTRA>
-4.1032

>  <SCORE.INTRA.DIHEDRAL>
-8.59698

>  <SCORE.INTRA.DIHEDRAL.0>
12.0148

>  <SCORE.INTRA.POLAR>
0

>  <SCORE.INTRA.POLAR.0>
0

>  <SCORE.INTRA.REPUL>
0

>  <SCORE.INTRA.REPUL.0>
0

>  <SCORE.INTRA.SOLV>
0.769066

>  <SCORE.INTRA.SOLV.lig_0>
-10.5235

>  <SCORE.INTRA.VDW>
-0.18924

>  <SCORE.INTRA.VDW.0>
-1.38455

>  <SCORE.INTRA.norm>
-0.146543

>  <SCORE.RESTR>
0

>  <SCORE.RESTR.CAVITY>
0

>  <SCORE.RESTR.norm>
0

>  <SCORE.SYSTEM>
0

>  <SCORE.SYSTEM.CONST>
0

>  <SCORE.SYSTEM.DIHEDRAL>
0

>  <SCORE.SYSTEM.SOLV>
0

>  <SCORE.SYSTEM.norm>
0

>  <SCORE.heavy>
28

>  <SCORE.norm>
-1.16171

>  <RMSD>
1.896

$$$$
ligand
 OpenBabel11021811413D
libRbt.so/2013.1/901 2013/11/27
 28 32  0  0  0  0  0  0  0  0999 V2000
   43.0659   24.6632   27.4271 C   0  0  0  0  0  0  0  0  0  0  0  0
   42.3353   25.5804   26.4664 C   0  0  0  0  0  0  0  0  0  0  0  0
   40.8616   25.7078   26.8227 C   0  0  0  0  0  0  0  0  0  0  0  0
   35.3950   26.4380   25.1020 O   0  0  0  0  0  0  0  0  0  0  0  0
   34.8951   25.1014   25.1711 C   0  0  0  0  0  0  0  0  0  0  0  0
   38.6230   23.9176   28.1734 C   0  0  0  0  0  0  0  0  0  0  0  0
   38.5158   25.1362   28.8312 C   0  0  0  0  0  0  0  0  0  0  0  0
   37.5596   26.0648   28.4120 C   0  0  0  0  0  0  0  0  0  0  0  0
   36.7112   25.7769   27.3422 C   0  0  0  0  0  0  0  0  0  0  0  0
   36.0104   24.1179   25.5488 C   0  0  1  0  0  0  0  0  0  0  0  0
   36.8183   24.5526   26.7252 C   0  0  0  0  0  0  0  0  0  0  0  0
   37.7607   23.6449   27.1380 C   0  0  0  0  0  0  0  0  0  0  0  0
   37.8213   22.4231   26.3586 C   0  0  1  0  0  0  0  0  0  0  0  0
   36.1944   20.5575   26.6110 C   0  0  0  0  0  0  0  0  0  0  0  0
   36.4806   21.8670   26.3080 C   0  0  0  0  0  0  0  0  0  0  0  0
   35.5098   22.7372   25.8900 C   0  0  0  0  0  0  0  0  0  0  0  0
   34.1991   22.3016   25.7620 C   0  0  0  0  0  0  0  0  0  0  0  0
   33.8890   20.9791   26.0860 C   0  0  0  0  0  0  0  0  0  0  0  0
   34.8866   20.1119   26.5120 C   0  0  0  0  0  0  0  0  0  0  0  0
   40.1463   26.6156   25.8305 C   0  0  0  0  0  0  0  0  0  0  0  0
   40.1122   25.9731   24.4489 C   0  0  0  0  0  0  0  0  0  0  0  0
   37.4597   26.1314   23.8037 O   0  0  0  0  0  0  0  0  0  0  0  0
   40.4343   23.2877   25.2697 O   0  0  0  0  0  0  0  0  0  0  0  0
   39.3557   23.7212   24.9000 C   0  0  0  0  0  0  0  0  0  0  0  0
   39.1206   24.9108   24.5024 N   0  0  0  0  0  0  0  0  0  0  0  0
   37.9087   25.0897   24.2066 C   0  0  0  0  0  0  0  0  0  0  0  0
   37.0630   23.8887   24.4527 C   0  0  1  0  0  0  0  0  0  0  0  0
   38.1197   22.8950   24.9421 C   0  0  2  0  0  0  0  0  0  0  0  0
  1  2  1  0  0  0  0
  2  3  1  0  0  0  0
  3 20  1  0  0  0  0
  4  5  1  0  0  0  0
  6  7  2  0  0  0  0
  6 12  1  0  0  0  0
  7  8  1  0  0  0  0
  8  9  2  0  0  0  0
  9 11  1  0  0  0  0
 10  5  1  6  0  0  0
 10 11  1  0  0  0  0
 10 16  1  0  0  0  0
 10 27  1  0  0  0  0
 11 12  2  0  0  0  0
 13 12  1  1  0  0  0
 13 15  1  0  0  0  0
 13 28  1  0  0  0  0
 14 15  2  0  0  0  0
 14 19  1  0  0  0  0
 15 16  1  0  0  0  0
 16 17  2  0  0  0  0
 17 18  1  0  0  0  0
 18 19  2  0  0  0  0
 20 21  1  0  0  0  0
 21 25  1  0  0  0  0
 22 26  2  0  0  0  0
 23 24  2  0  0  0  0
 24 25  1  0  0  0  0
 25 26  1  0  0  0  0
 27 26  1  1  0  0  0
 27 28  1  0  0  0  0
 28 24  1  1  0  0  0
M  END
>  <CHROM.1>
-179.09127559,48.47253540,66.54002320,74.44010999,-85.78643385,37.86220415
24.16602045,25.98310141,-0.43144763,0.24620510,2.74695413

>  <Name>
ligand

>  <RI>
0

>  <Rbt.Current_Directory>
/home/itssahil/PROJECTS/Mol_Feturizer/New_Systems/rnas/1YLS

>  <Rbt.Executable>
rbdock ($Id: //depot/dev/client3/rdock/2013.1/src/exe/rbdock.cxx#4 $)

>  <Rbt.Library>
libRbt.so (2013.1, Build901 2013/11/27)

>  <Rbt.Parameter_File>
/export/apps/rDock/src/rDock_2013.1_src/data/scripts/dock_solv.prm

>  <Rbt.Receptor>
prm/pocket_docking_7.prm

>  <SCORE>
-31.1562

>  <SCORE.INTER>
-28.238

>  <SCORE.INTER.CONST>
1

>  <SCORE.INTER.POLAR>
0

>  <SCORE.INTER.ROT>
5

>  <SCORE.INTER.SOLV>
7.27695

>  <SCORE.INTER.VDW>
-28.1843

>  <SCORE.INTER.norm>
-1.0085

>  <SCORE.INTRA>
-2.91825

>  <SCORE.INTRA.DIHEDRAL>
-8.09351

>  <SCORE.INTRA.DIHEDRAL.0>
12.0148

>  <SCORE.INTRA.POLAR>
0

>  <SCORE.INTRA.POLAR.0>
0

>  <SCORE.INTRA.REPUL>
0

>  <SCORE.INTRA.REPUL.0>
0

>  <SCORE.INTRA.SOLV>
1.16395

>  <SCORE.INTRA.SOLV.lig_0>
-10.5235

>  <SCORE.INTRA.VDW>
0.546525

>  <SCORE.INTRA.VDW.0>
-1.38455

>  <SCORE.INTRA.norm>
-0.104223

>  <SCORE.RESTR>
0

>  <SCORE.RESTR.CAVITY>
0

>  <SCORE.RESTR.norm>
0

>  <SCORE.SYSTEM>
0

>  <SCORE.SYSTEM.CONST>
0

>  <SCORE.SYSTEM.DIHEDRAL>
0

>  <SCORE.SYSTEM.SOLV>
0

>  <SCORE.SYSTEM.norm>
0

>  <SCORE.heavy>
28

>  <SCORE.norm>
-1.11272

>  <RMSD>
1.924

$$$$
ligand
 OpenBabel11021811413D
libRbt.so/2013.1/901 2013/11/27
 28 32  0  0  0  0  0  0  0  0999 V2000
   42.1070   24.2574   27.5279 C   0  0  0  0  0  0  0  0  0  0  0  0
   42.6499   25.4963   26.8435 C   0  0  0  0  0  0  0  0  0  0  0  0
   41.9417   25.7650   25.5241 C   0  0  0  0  0  0  0  0  0  0  0  0
   33.8310   24.9576   24.5393 O   0  0  0  0  0  0  0  0  0  0  0  0
   34.6626   25.2820   25.6547 C   0  0  0  0  0  0  0  0  0  0  0  0
   38.7216   23.8324   28.0498 C   0  0  0  0  0  0  0  0  0  0  0  0
   38.6791   24.9601   28.8597 C   0  0  0  0  0  0  0  0  0  0  0  0
   37.6724   25.9097   28.6678 C   0  0  0  0  0  0  0  0  0  0  0  0
   36.7095   25.7332   27.6735 C   0  0  0  0  0  0  0  0  0  0  0  0
   35.8232   24.2865   25.7810 C   0  0  1  0  0  0  0  0  0  0  0  0
   36.7566   24.5950   26.9030 C   0  0  0  0  0  0  0  0  0  0  0  0
   37.7487   23.6665   27.0927 C   0  0  0  0  0  0  0  0  0  0  0  0
   37.7311   22.5493   26.1677 C   0  0  1  0  0  0  0  0  0  0  0  0
   36.1616   20.6294   26.3717 C   0  0  0  0  0  0  0  0  0  0  0  0
   36.3987   21.9722   26.2010 C   0  0  0  0  0  0  0  0  0  0  0  0
   35.3782   22.8635   26.0049 C   0  0  0  0  0  0  0  0  0  0  0  0
   34.0657   22.4159   25.9732 C   0  0  0  0  0  0  0  0  0  0  0  0
   33.8073   21.0570   26.1657 C   0  0  0  0  0  0  0  0  0  0  0  0
   34.8554   20.1685   26.3671 C   0  0  0  0  0  0  0  0  0  0  0  0
   40.5341   26.2933   25.7685 C   0  0  0  0  0  0  0  0  0  0  0  0
   39.7538   26.3563   24.4608 C   0  0  0  0  0  0  0  0  0  0  0  0
   37.0434   26.5291   24.1433 O   0  0  0  0  0  0  0  0  0  0  0  0
   40.1934   23.5998   24.9051 O   0  0  0  0  0  0  0  0  0  0  0  0
   39.0755   24.0493   24.7153 C   0  0  0  0  0  0  0  0  0  0  0  0
   38.7850   25.2723   24.4954 N   0  0  0  0  0  0  0  0  0  0  0  0
   37.5455   25.4572   24.3624 C   0  0  0  0  0  0  0  0  0  0  0  0
   36.7451   24.2158   24.5534 C   0  0  1  0  0  0  0  0  0  0  0  0
   37.8603   23.1954   24.7951 C   0  0  2  0  0  0  0  0  0  0  0  0
  1  2  1  0  0  0  0
  2  3  1  0  0  0  0
  3 20  1  0  0  0  0
  4  5  1  0  0  0  0
  6  7  2  0  0  0  0
  6 12  1  0  0  0  0
  7  8  1  0  0  0  0
  8  9  2  0  0  0  0
  9 11  1  0  0  0  0
 10  5  1  6  0  0  0
 10 11  1  0  0  0  0
 10 16  1  0  0  0  0
 10 27  1  0  0  0  0
 11 12  2  0  0  0  0
 13 12  1  1  0  0  0
 13 15  1  0  0  0  0
 13 28  1  0  0  0  0
 14 15  2  0  0  0  0
 14 19  1  0  0  0  0
 15 16  1  0  0  0  0
 16 17  2  0  0  0  0
 17 18  1  0  0  0  0
 18 19  2  0  0  0  0
 20 21  1  0  0  0  0
 21 25  1  0  0  0  0
 22 26  2  0  0  0  0
 23 24  2  0  0  0  0
 24 25  1  0  0  0  0
 25 26  1  0  0  0  0
 27 26  1  1  0  0  0
 27 28  1  0  0  0  0
 28 24  1  1  0  0  0
M  END
>  <CHROM.1>
73.29973370,178.14701619,-171.22633977,106.82564711,-53.56018689,37.70136922
24.19797162,25.95853623,-0.33832878,0.26517268,2.60349800

>  <Name>
ligand

>  <RI>
0

>  <Rbt.Current_Directory>
/home/itssahil/PROJECTS/Mol_Feturizer/New_Systems/rnas/1YLS

>  <Rbt.Executable>
rbdock ($Id: //depot/dev/client3/rdock/2013.1/src/exe/rbdock.cxx#4 $)

>  <Rbt.Library>
libRbt.so (2013.1, Build901 2013/11/27)

>  <Rbt.Parameter_File>
/export/apps/rDock/src/rDock_2013.1_src/data/scripts/dock_solv.prm

>  <Rbt.Receptor>
prm/pocket_docking_5.prm

>  <SCORE>
-29.5674

>  <SCORE.INTER>
-28.6322

>  <SCORE.INTER.CONST>
1

>  <SCORE.INTER.POLAR>
0

>  <SCORE.INTER.ROT>
5

>  <SCORE.INTER.SOLV>
6.94677

>  <SCORE.INTER.VDW>
-28.3371

>  <SCORE.INTER.norm>
-1.02258

>  <SCORE.INTRA>
-0.935221

>  <SCORE.INTRA.DIHEDRAL>
-3.73839

>  <SCORE.INTRA.DIHEDRAL.0>
12.0148

>  <SCORE.INTRA.POLAR>
0

>  <SCORE.INTRA.POLAR.0>
0

>  <SCORE.INTRA.REPUL>
0

>  <SCORE.INTRA.REPUL.0>
0

>  <SCORE.INTRA.SOLV>
0.633297

>  <SCORE.INTRA.SOLV.lig_0>
-10.5235

>  <SCORE.INTRA.VDW>
0.617326

>  <SCORE.INTRA.VDW.0>
-1.38455

>  <SCORE.INTRA.norm>
-0.0334007

>  <SCORE.RESTR>
0

>  <SCORE.RESTR.CAVITY>
0

>  <SCORE.RESTR.norm>
0

>  <SCORE.SYSTEM>
0

>  <SCORE.SYSTEM.CONST>
0

>  <SCORE.SYSTEM.DIHEDRAL>
0

>  <SCORE.SYSTEM.SOLV>
0

>  <SCORE.SYSTEM.norm>
0

>  <SCORE.heavy>
28

>  <SCORE.norm>
-1.05598

>  <RMSD>
1.965

$$$$
ligand
 OpenBabel11021811413D
libRbt.so/2013.1/901 2013/11/27
 28 32  0  0  0  0  0  0  0  0999 V2000
   44.8027   26.1999   28.0944 C   0  0  0  0  0  0  0  0  0  0  0  0
   43.4061   25.6247   27.9662 C   0  0  0  0  0  0  0  0  0  0  0  0
   42.9243   25.6361   26.5231 C   0  0  0  0  0  0  0  0  0  0  0  0
   35.0496   24.6342   24.0273 O   0  0  0  0  0  0  0  0  0  0  0  0
   35.7517   24.9863   25.2207 C   0  0  0  0  0  0  0  0  0  0  0  0
   38.9510   23.2220   28.5318 C   0  0  0  0  0  0  0  0  0  0  0  0
   38.9925   24.4473   29.1847 C   0  0  0  0  0  0  0  0  0  0  0  0
   38.2460   25.5190   28.6885 C   0  0  0  0  0  0  0  0  0  0  0  0
   37.4582   25.3677   27.5468 C   0  0  0  0  0  0  0  0  0  0  0  0
   36.6488   23.8334   25.6892 C   0  0  1  0  0  0  0  0  0  0  0  0
   37.4121   24.1372   26.9344 C   0  0  0  0  0  0  0  0  0  0  0  0
   38.1492   23.0883   27.4231 C   0  0  0  0  0  0  0  0  0  0  0  0
   38.0721   21.8665   26.6450 C   0  0  1  0  0  0  0  0  0  0  0  0
   36.1396   20.3022   26.7429 C   0  0  0  0  0  0  0  0  0  0  0  0
   36.6667   21.5425   26.4738 C   0  0  0  0  0  0  0  0  0  0  0  0
   35.8960   22.5592   25.9772 C   0  0  0  0  0  0  0  0  0  0  0  0
   34.5471   22.3481   25.7320 C   0  0  0  0  0  0  0  0  0  0  0  0
   33.9925   21.0992   26.0200 C   0  0  0  0  0  0  0  0  0  0  0  0
   34.7894   20.0811   26.5269 C   0  0  0  0  0  0  0  0  0  0  0  0
   41.5189   25.0575   26.4221 C   0  0  0  0  0  0  0  0  0  0  0  0
   41.0840   24.9652   24.9643 C   0  0  0  0  0  0  0  0  0  0  0  0
   38.5623   25.5598   24.0897 O   0  0  0  0  0  0  0  0  0  0  0  0
   40.8782   22.2713   25.7947 O   0  0  0  0  0  0  0  0  0  0  0  0
   39.9240   22.8760   25.3343 C   0  0  0  0  0  0  0  0  0  0  0  0
   39.9274   24.0845   24.9244 N   0  0  0  0  0  0  0  0  0  0  0  0
   38.7933   24.4612   24.5245 C   0  0  0  0  0  0  0  0  0  0  0  0
   37.7400   23.4212   24.6884 C   0  0  1  0  0  0  0  0  0  0  0  0
   38.5681   22.2689   25.2629 C   0  0  2  0  0  0  0  0  0  0  0  0
  1  2  1  0  0  0  0
  2  3  1  0  0  0  0
  3 20  1  0  0  0  0
  4  5  1  0  0  0  0
  6  7  2  0  0  0  0
  6 12  1  0  0  0  0
  7  8  1  0  0  0  0
  8  9  2  0  0  0  0
  9 11  1  0  0  0  0
 10  5  1  6  0  0  0
 10 11  1  0  0  0  0
 10 16  1  0  0  0  0
 10 27  1  0  0  0  0
 11 12  2  0  0  0  0
 13 12  1  1  0  0  0
 13 15  1  0  0  0  0
 13 28  1  0  0  0  0
 14 15  2  0  0  0  0
 14 19  1  0  0  0  0
 15 16  1  0  0  0  0
 16 17  2  0  0  0  0
 17 18  1  0  0  0  0
 18 19  2  0  0  0  0
 20 21  1  0  0  0  0
 21 25  1  0  0  0  0
 22 26  2  0  0  0  0
 23 24  2  0  0  0  0
 24 25  1  0  0  0  0
 25 26  1  0  0  0  0
 27 26  1  1  0  0  0
 27 28  1  0  0  0  0
 28 24  1  1  0  0  0
M  END
>  <CHROM.1>
-179.83387244,179.99823665,-175.39103412,164.55825209,-58.37956990,38.51086678
23.70045115,26.22980030,-0.15391021,0.41399274,2.30367351

>  <Name>
ligand

>  <RI>
0

>  <Rbt.Current_Directory>
/home/itssahil/PROJECTS/Mol_Feturizer/New_Systems/rnas/1YLS

>  <Rbt.Executable>
rbdock ($Id: //depot/dev/client3/rdock/2013.1/src/exe/rbdock.cxx#4 $)

>  <Rbt.Library>
libRbt.so (2013.1, Build901 2013/11/27)

>  <Rbt.Parameter_File>
/export/apps/rDock/src/rDock_2013.1_src/data/scripts/dock_solv.prm

>  <Rbt.Receptor>
prm/pocket_docking_6.prm

>  <SCORE>
-30.4709

>  <SCORE.INTER>
-26.2111

>  <SCORE.INTER.CONST>
1

>  <SCORE.INTER.POLAR>
0

>  <SCORE.INTER.ROT>
5

>  <SCORE.INTER.SOLV>
6.90781

>  <SCORE.INTER.VDW>
-26.71

>  <SCORE.INTER.norm>
-0.936112

>  <SCORE.INTRA>
-4.25977

>  <SCORE.INTRA.DIHEDRAL>
-8.67111

>  <SCORE.INTRA.DIHEDRAL.0>
12.0148

>  <SCORE.INTRA.POLAR>
0

>  <SCORE.INTRA.POLAR.0>
0

>  <SCORE.INTRA.REPUL>
0

>  <SCORE.INTRA.REPUL.0>
0

>  <SCORE.INTRA.SOLV>
0.19955

>  <SCORE.INTRA.SOLV.lig_0>
-10.5235

>  <SCORE.INTRA.VDW>
-0.0239856

>  <SCORE.INTRA.VDW.0>
-1.38455

>  <SCORE.INTRA.norm>
-0.152135

>  <SCORE.RESTR>
0

>  <SCORE.RESTR.CAVITY>
0

>  <SCORE.RESTR.norm>
0

>  <SCORE.SYSTEM>
0

>  <SCORE.SYSTEM.CONST>
0

>  <SCORE.SYSTEM.DIHEDRAL>
0

>  <SCORE.SYSTEM.SOLV>
0

>  <SCORE.SYSTEM.norm>
0

>  <SCORE.heavy>
28

>  <SCORE.norm>
-1.08825

>  <RMSD>
2.107

$$$$
ligand
 OpenBabel11021811413D
libRbt.so/2013.1/901 2013/11/27
 28 32  0  0  0  0  0  0  0  0999 V2000
   42.6802   24.5579   28.6735 C   0  0  0  0  0  0  0  0  0  0  0  0
   41.6392   25.4845   28.0773 C   0  0  0  0  0  0  0  0  0  0  0  0
   41.5470   25.3278   26.5668 C   0  0  0  0  0  0  0  0  0  0  0  0
   34.0378   25.3208   26.3765 O   0  0  0  0  0  0  0  0  0  0  0  0
   34.9576   25.1813   25.2922 C   0  0  0  0  0  0  0  0  0  0  0  0
   38.6743   23.7763   28.2118 C   0  0  0  0  0  0  0  0  0  0  0  0
   38.6131   24.9745   28.9118 C   0  0  0  0  0  0  0  0  0  0  0  0
   37.6834   25.9470   28.5348 C   0  0  0  0  0  0  0  0  0  0  0  0
   36.8157   25.7234   27.4652 C   0  0  0  0  0  0  0  0  0  0  0  0
   36.0440   24.1502   25.6241 C   0  0  1  0  0  0  0  0  0  0  0  0
   36.8770   24.5182   26.8057 C   0  0  0  0  0  0  0  0  0  0  0  0
   37.7935   23.5672   27.1772 C   0  0  0  0  0  0  0  0  0  0  0  0
   37.8069   22.3715   26.3561 C   0  0  1  0  0  0  0  0  0  0  0  0
   36.1229   20.5514   26.5626 C   0  0  0  0  0  0  0  0  0  0  0  0
   36.4484   21.8607   26.3013 C   0  0  0  0  0  0  0  0  0  0  0  0
   35.5023   22.7754   25.9237 C   0  0  0  0  0  0  0  0  0  0  0  0
   34.1770   22.3866   25.7951 C   0  0  0  0  0  0  0  0  0  0  0  0
   33.8274   21.0644   26.0774 C   0  0  0  0  0  0  0  0  0  0  0  0
   34.8005   20.1516   26.4628 C   0  0  0  0  0  0  0  0  0  0  0  0
   40.4970   26.2700   25.9927 C   0  0  0  0  0  0  0  0  0  0  0  0
   40.1929   25.9097   24.5433 C   0  0  0  0  0  0  0  0  0  0  0  0
   37.5407   26.1750   23.9328 O   0  0  0  0  0  0  0  0  0  0  0  0
   40.4358   23.1888   25.2689 O   0  0  0  0  0  0  0  0  0  0  0  0
   39.3682   23.6690   24.9258 C   0  0  0  0  0  0  0  0  0  0  0  0
   39.1679   24.8785   24.5714 N   0  0  0  0  0  0  0  0  0  0  0  0
   37.9596   25.1062   24.2952 C   0  0  0  0  0  0  0  0  0  0  0  0
   37.0779   23.9252   24.5095 C   0  0  1  0  0  0  0  0  0  0  0  0
   38.1065   22.8819   24.9533 C   0  0  2  0  0  0  0  0  0  0  0  0
  1  2  1  0  0  0  0
  2  3  1  0  0  0  0
  3 20  1  0  0  0  0
  4  5  1  0  0  0  0
  6  7  2  0  0  0  0
  6 12  1  0  0  0  0
  7  8  1  0  0  0  0
  8  9  2  0  0  0  0
  9 11  1  0  0  0  0
 10  5  1  6  0  0  0
 10 11  1  0  0  0  0
 10 16  1  0  0  0  0
 10 27  1  0  0  0  0
 11 12  2  0  0  0  0
 13 12  1  1  0  0  0
 13 15  1  0  0  0  0
 13 28  1  0  0  0  0
 14 15  2  0  0  0  0
 14 19  1  0  0  0  0
 15 16  1  0  0  0  0
 16 17  2  0  0  0  0
 17 18  1  0  0  0  0
 18 19  2  0  0  0  0
 20 21  1  0  0  0  0
 21 25  1  0  0  0  0
 22 26  2  0  0  0  0
 23 24  2  0  0  0  0
 24 25  1  0  0  0  0
 25 26  1  0  0  0  0
 27 26  1  1  0  0  0
 27 28  1  0  0  0  0
 28 24  1  1  0  0  0
M  END
>  <CHROM.1>
-179.90944249,-61.43639384,-167.91935465,86.06876109,-72.60916253,37.81988741
24.06583730,26.18738654,-0.28542642,0.34335732,2.57822474

>  <Name>
ligand

>  <RI>
0

>  <Rbt.Current_Directory>
/home/itssahil/PROJECTS/Mol_Feturizer/New_Systems/rnas/1YLS

>  <Rbt.Executable>
rbdock ($Id: //depot/dev/client3/rdock/2013.1/src/exe/rbdock.cxx#4 $)

>  <Rbt.Library>
libRbt.so (2013.1, Build901 2013/11/27)

>  <Rbt.Parameter_File>
/export/apps/rDock/src/rDock_2013.1_src/data/scripts/dock_solv.prm

>  <Rbt.Receptor>
prm/pocket_docking_7.prm

>  <SCORE>
-31.3718

>  <SCORE.INTER>
-27.2519

>  <SCORE.INTER.CONST>
1

>  <SCORE.INTER.POLAR>
0

>  <SCORE.INTER.ROT>
5

>  <SCORE.INTER.SOLV>
7.2076

>  <SCORE.INTER.VDW>
-27.5038

>  <SCORE.INTER.norm>
-0.973282

>  <SCORE.INTRA>
-4.11994

>  <SCORE.INTRA.DIHEDRAL>
-6.69652

>  <SCORE.INTRA.DIHEDRAL.0>
12.0148

>  <SCORE.INTRA.POLAR>
0

>  <SCORE.INTRA.POLAR.0>
0

>  <SCORE.INTRA.REPUL>
0

>  <SCORE.INTRA.REPUL.0>
0

>  <SCORE.INTRA.SOLV>
0.359951

>  <SCORE.INTRA.SOLV.lig_0>
-10.5235

>  <SCORE.INTRA.VDW>
-0.951659

>  <SCORE.INTRA.VDW.0>
-1.38455

>  <SCORE.INTRA.norm>
-0.147141

>  <SCORE.RESTR>
0

>  <SCORE.RESTR.CAVITY>
0

>  <SCORE.RESTR.norm>
0

>  <SCORE.SYSTEM>
0

>  <SCORE.SYSTEM.CONST>
0

>  <SCORE.SYSTEM.DIHEDRAL>
0

>  <SCORE.SYSTEM.SOLV>
0

>  <SCORE.SYSTEM.norm>
0

>  <SCORE.heavy>
28

>  <SCORE.norm>
-1.12042

>  <RMSD>
2.186

$$$$
ligand
 OpenBabel11021811413D
libRbt.so/2013.1/901 2013/11/27
 28 32  0  0  0  0  0  0  0  0999 V2000
   44.6081   26.3966   28.7146 C   0  0  0  0  0  0  0  0  0  0  0  0
   43.2965   25.6794   28.4634 C   0  0  0  0  0  0  0  0  0  0  0  0
   43.0151   25.5282   26.9758 C   0  0  0  0  0  0  0  0  0  0  0  0
   35.1005   25.5053   26.5167 O   0  0  0  0  0  0  0  0  0  0  0  0
   36.0765   25.2087   25.5164 C   0  0  0  0  0  0  0  0  0  0  0  0
   39.0674   22.8459   28.6444 C   0  0  0  0  0  0  0  0  0  0  0  0
   39.2172   23.9944   29.4111 C   0  0  0  0  0  0  0  0  0  0  0  0
   38.5784   25.1737   29.0193 C   0  0  0  0  0  0  0  0  0  0  0  0
   37.7903   25.2060   27.8683 C   0  0  0  0  0  0  0  0  0  0  0  0
   36.8580   23.9375   25.8729 C   0  0  1  0  0  0  0  0  0  0  0  0
   37.6350   24.0489   27.1415 C   0  0  0  0  0  0  0  0  0  0  0  0
   38.2666   22.8938   27.5280 C   0  0  0  0  0  0  0  0  0  0  0  0
   38.0828   21.7641   26.6369 C   0  0  1  0  0  0  0  0  0  0  0  0
   36.0120   20.3857   26.5852 C   0  0  0  0  0  0  0  0  0  0  0  0
   36.6549   21.5910   26.4355 C   0  0  0  0  0  0  0  0  0  0  0  0
   35.9869   22.7180   26.0381 C   0  0  0  0  0  0  0  0  0  0  0  0
   34.6265   22.6585   25.7739 C   0  0  0  0  0  0  0  0  0  0  0  0
   33.9552   21.4454   25.9415 C   0  0  0  0  0  0  0  0  0  0  0  0
   34.6490   20.3136   26.3490 C   0  0  0  0  0  0  0  0  0  0  0  0
   41.6612   24.8676   26.7503 C   0  0  0  0  0  0  0  0  0  0  0  0
   41.3857   24.7122   25.2594 C   0  0  0  0  0  0  0  0  0  0  0  0
   38.9385   25.6209   24.4454 O   0  0  0  0  0  0  0  0  0  0  0  0
   40.9219   21.9829   25.8293 O   0  0  0  0  0  0  0  0  0  0  0  0
   40.0326   22.7153   25.4285 C   0  0  0  0  0  0  0  0  0  0  0  0
   40.1524   23.9516   25.1357 N   0  0  0  0  0  0  0  0  0  0  0  0
   39.0620   24.4692   24.7735 C   0  0  0  0  0  0  0  0  0  0  0  0
   37.9148   23.5217   24.8375 C   0  0  1  0  0  0  0  0  0  0  0  0
   38.6266   22.2476   25.2996 C   0  0  2  0  0  0  0  0  0  0  0  0
  1  2  1  0  0  0  0
  2  3  1  0  0  0  0
  3 20  1  0  0  0  0
  4  5  1  0  0  0  0
  6  7  2  0  0  0  0
  6 12  1  0  0  0  0
  7  8  1  0  0  0  0
  8  9  2  0  0  0  0
  9 11  1  0  0  0  0
 10  5  1  6  0  0  0
 10 11  1  0  0  0  0
 10 16  1  0  0  0  0
 10 27  1  0  0  0  0
 11 12  2  0  0  0  0
 13 12  1  1  0  0  0
 13 15  1  0  0  0  0
 13 28  1  0  0  0  0
 14 15  2  0  0  0  0
 14 19  1  0  0  0  0
 15 16  1  0  0  0  0
 16 17  2  0  0  0  0
 17 18  1  0  0  0  0
 18 19  2  0  0  0  0
 20 21  1  0  0  0  0
 21 25  1  0  0  0  0
 22 26  2  0  0  0  0
 23 24  2  0  0  0  0
 24 25  1  0  0  0  0
 25 26  1  0  0  0  0
 27 26  1  1  0  0  0
 27 28  1  0  0  0  0
 28 24  1  1  0  0  0
M  END
>  <CHROM.1>
-177.18413067,-62.25448564,-179.74535700,174.06115076,-69.74467343,38.62795545
23.70426633,26.51548079,0.42712784,-0.06010740,0.27819895

>  <Name>
ligand

>  <RI>
0

>  <Rbt.Current_Directory>
/home/itssahil/PROJECTS/Mol_Feturizer/New_Systems/rnas/1YLS

>  <Rbt.Executable>
rbdock ($Id: //depot/dev/client3/rdock/2013.1/src/exe/rbdock.cxx#4 $)

>  <Rbt.Library>
libRbt.so (2013.1, Build901 2013/11/27)

>  <Rbt.Parameter_File>
/export/apps/rDock/src/rDock_2013.1_src/data/scripts/dock_solv.prm

>  <Rbt.Receptor>
prm/pocket_docking_7.prm

>  <SCORE>
-30.5143

>  <SCORE.INTER>
-25.1521

>  <SCORE.INTER.CONST>
1

>  <SCORE.INTER.POLAR>
0

>  <SCORE.INTER.ROT>
5

>  <SCORE.INTER.SOLV>
6.23418

>  <SCORE.INTER.VDW>
-25.7795

>  <SCORE.INTER.norm>
-0.898289

>  <SCORE.INTRA>
-5.36224

>  <SCORE.INTRA.DIHEDRAL>
-9.33396

>  <SCORE.INTRA.DIHEDRAL.0>
12.0148

>  <SCORE.INTRA.POLAR>
0

>  <SCORE.INTRA.POLAR.0>
0

>  <SCORE.INTRA.REPUL>
0

>  <SCORE.INTRA.REPUL.0>
0

>  <SCORE.INTRA.SOLV>
-0.0291851

>  <SCORE.INTRA.SOLV.lig_0>
-10.5235

>  <SCORE.INTRA.VDW>
-0.680664

>  <SCORE.INTRA.VDW.0>
-1.38455

>  <SCORE.INTRA.norm>
-0.191509

>  <SCORE.RESTR>
0

>  <SCORE.RESTR.CAVITY>
0

>  <SCORE.RESTR.norm>
0

>  <SCORE.SYSTEM>
0

>  <SCORE.SYSTEM.CONST>
0

>  <SCORE.SYSTEM.DIHEDRAL>
0

>  <SCORE.SYSTEM.SOLV>
0

>  <SCORE.SYSTEM.norm>
0

>  <SCORE.heavy>
28

>  <SCORE.norm>
-1.0898

>  <RMSD>
2.325

$$$$
ligand
 OpenBabel11021811413D
libRbt.so/2013.1/901 2013/11/27
 28 32  0  0  0  0  0  0  0  0999 V2000
   44.6158   26.4137   28.6886 C   0  0  0  0  0  0  0  0  0  0  0  0
   43.3154   25.6725   28.4487 C   0  0  0  0  0  0  0  0  0  0  0  0
   43.0303   25.5051   26.9636 C   0  0  0  0  0  0  0  0  0  0  0  0
   35.1237   25.4903   26.5375 O   0  0  0  0  0  0  0  0  0  0  0  0
   36.0745   25.1683   25.5210 C   0  0  0  0  0  0  0  0  0  0  0  0
   39.0812   22.8483   28.6658 C   0  0  0  0  0  0  0  0  0  0  0  0
   39.2270   24.0045   29.4216 C   0  0  0  0  0  0  0  0  0  0  0  0
   38.5822   25.1772   29.0199 C   0  0  0  0  0  0  0  0  0  0  0  0
   37.7921   25.1952   27.8700 C   0  0  0  0  0  0  0  0  0  0  0  0
   36.8623   23.9041   25.8880 C   0  0  1  0  0  0  0  0  0  0  0  0
   37.6409   24.0307   27.1541 C   0  0  0  0  0  0  0  0  0  0  0  0
   38.2783   22.8822   27.5503 C   0  0  0  0  0  0  0  0  0  0  0  0
   38.0982   21.7434   26.6701 C   0  0  1  0  0  0  0  0  0  0  0  0
   36.0336   20.3552   26.6345 C   0  0  0  0  0  0  0  0  0  0  0  0
   36.6708   21.5620   26.4726 C   0  0  0  0  0  0  0  0  0  0  0  0
   35.9971   22.6822   26.0659 C   0  0  0  0  0  0  0  0  0  0  0  0
   34.6365   22.6141   25.8045 C   0  0  0  0  0  0  0  0  0  0  0  0
   33.9710   21.3996   25.9844 C   0  0  0  0  0  0  0  0  0  0  0  0
   34.6706   20.2748   26.4013 C   0  0  0  0  0  0  0  0  0  0  0  0
   41.6743   24.8455   26.7486 C   0  0  0  0  0  0  0  0  0  0  0  0
   41.3855   24.6936   25.2598 C   0  0  0  0  0  0  0  0  0  0  0  0
   38.9328   25.5835   24.4414 O   0  0  0  0  0  0  0  0  0  0  0  0
   40.9350   21.9676   25.8557 O   0  0  0  0  0  0  0  0  0  0  0  0
   40.0417   22.6922   25.4496 C   0  0  0  0  0  0  0  0  0  0  0  0
   40.1554   23.9263   25.1452 N   0  0  0  0  0  0  0  0  0  0  0  0
   39.0621   24.4356   24.7800 C   0  0  0  0  0  0  0  0  0  0  0  0
   37.9194   23.4834   24.8547 C   0  0  1  0  0  0  0  0  0  0  0  0
   38.6377   22.2169   25.3274 C   0  0  2  0  0  0  0  0  0  0  0  0
  1  2  1  0  0  0  0
  2  3  1  0  0  0  0
  3 20  1  0  0  0  0
  4  5  1  0  0  0  0
  6  7  2  0  0  0  0
  6 12  1  0  0  0  0
  7  8  1  0  0  0  0
  8  9  2  0  0  0  0
  9 11  1  0  0  0  0
 10  5  1  6  0  0  0
 10 11  1  0  0  0  0
 10 16  1  0  0  0  0
 10 27  1  0  0  0  0
 11 12  2  0  0  0  0
 13 12  1  1  0  0  0
 13 15  1  0  0  0  0
 13 28  1  0  0  0  0
 14 15  2  0  0  0  0
 14 19  1  0  0  0  0
 15 16  1  0  0  0  0
 16 17  2  0  0  0  0
 17 18  1  0  0  0  0
 18 19  2  0  0  0  0
 20 21  1  0  0  0  0
 21 25  1  0  0  0  0
 22 26  2  0  0  0  0
 23 24  2  0  0  0  0
 24 25  1  0  0  0  0
 25 26  1  0  0  0  0
 27 26  1  1  0  0  0
 27 28  1  0  0  0  0
 28 24  1  1  0  0  0
M  END
>  <CHROM.1>
-176.04993628,-60.67882198,179.37196048,173.70800998,-68.88208517,38.63765929
23.68250876,26.53006560,0.42870181,-0.05772283,0.26825093

>  <Name>
ligand

>  <RI>
0

>  <Rbt.Current_Directory>
/home/itssahil/PROJECTS/Mol_Feturizer/New_Systems/rnas/1YLS

>  <Rbt.Executable>
rbdock ($Id: //depot/dev/client3/rdock/2013.1/src/exe/rbdock.cxx#4 $)

>  <Rbt.Library>
libRbt.so (2013.1, Build901 2013/11/27)

>  <Rbt.Parameter_File>
/export/apps/rDock/src/rDock_2013.1_src/data/scripts/dock_solv.prm

>  <Rbt.Receptor>
prm/pocket_docking_7.prm

>  <SCORE>
-30.5569

>  <SCORE.INTER>
-25.2374

>  <SCORE.INTER.CONST>
1

>  <SCORE.INTER.POLAR>
0

>  <SCORE.INTER.ROT>
5

>  <SCORE.INTER.SOLV>
6.22498

>  <SCORE.INTER.VDW>
-25.8333

>  <SCORE.INTER.norm>
-0.901337

>  <SCORE.INTRA>
-5.31943

>  <SCORE.INTRA.DIHEDRAL>
-9.301

>  <SCORE.INTRA.DIHEDRAL.0>
12.0148

>  <SCORE.INTRA.POLAR>
0

>  <SCORE.INTRA.POLAR.0>
0

>  <SCORE.INTRA.REPUL>
0

>  <SCORE.INTRA.REPUL.0>
0

>  <SCORE.INTRA.SOLV>
-0.0272002

>  <SCORE.INTRA.SOLV.lig_0>
-10.5235

>  <SCORE.INTRA.VDW>
-0.655331

>  <SCORE.INTRA.VDW.0>
-1.38455

>  <SCORE.INTRA.norm>
-0.18998

>  <SCORE.RESTR>
0

>  <SCORE.RESTR.CAVITY>
0

>  <SCORE.RESTR.norm>
0

>  <SCORE.SYSTEM>
0

>  <SCORE.SYSTEM.CONST>
0

>  <SCORE.SYSTEM.DIHEDRAL>
0

>  <SCORE.SYSTEM.SOLV>
0

>  <SCORE.SYSTEM.norm>
0

>  <SCORE.heavy>
28

>  <SCORE.norm>
-1.09132

>  <RMSD>
2.326

$$$$
ligand
 OpenBabel11021811413D
libRbt.so/2013.1/901 2013/11/27
 28 32  0  0  0  0  0  0  0  0999 V2000
   45.5132   26.3674   21.8169 C   0  0  0  0  0  0  0  0  0  0  0  0
   44.2571   27.0599   22.3075 C   0  0  0  0  0  0  0  0  0  0  0  0
   43.2980   26.0812   22.9686 C   0  0  0  0  0  0  0  0  0  0  0  0
   38.2669   25.0947   29.5712 O   0  0  0  0  0  0  0  0  0  0  0  0
   39.1787   25.8539   28.7754 C   0  0  0  0  0  0  0  0  0  0  0  0
   38.7263   22.8514   24.8904 C   0  0  0  0  0  0  0  0  0  0  0  0
   39.1753   21.7710   25.6390 C   0  0  0  0  0  0  0  0  0  0  0  0
   39.5426   21.9613   26.9735 C   0  0  0  0  0  0  0  0  0  0  0  0
   39.4592   23.2247   27.5600 C   0  0  0  0  0  0  0  0  0  0  0  0
   38.8759   25.6827   27.2812 C   0  0  1  0  0  0  0  0  0  0  0  0
   38.9853   24.2728   26.8062 C   0  0  0  0  0  0  0  0  0  0  0  0
   38.6286   24.0822   25.4952 C   0  0  0  0  0  0  0  0  0  0  0  0
   38.2161   25.2802   24.7892 C   0  0  1  0  0  0  0  0  0  0  0  0
   35.9682   26.3151   25.0487 C   0  0  0  0  0  0  0  0  0  0  0  0
   37.1735   25.9164   25.5750 C   0  0  0  0  0  0  0  0  0  0  0  0
   37.4925   26.1355   26.8883 C   0  0  0  0  0  0  0  0  0  0  0  0
   36.5881   26.7766   27.7220 C   0  0  0  0  0  0  0  0  0  0  0  0
   35.3509   27.1692   27.2068 C   0  0  0  0  0  0  0  0  0  0  0  0
   35.0436   26.9350   25.8729 C   0  0  0  0  0  0  0  0  0  0  0  0
   43.7599   25.7489   24.3815 C   0  0  0  0  0  0  0  0  0  0  0  0
   42.8152   24.7428   25.0282 C   0  0  0  0  0  0  0  0  0  0  0  0
   41.9005   25.9067   27.3274 O   0  0  0  0  0  0  0  0  0  0  0  0
   40.7056   25.1558   23.1930 O   0  0  0  0  0  0  0  0  0  0  0  0
   40.6434   25.5563   24.3436 C   0  0  0  0  0  0  0  0  0  0  0  0
   41.5481   25.4263   25.2341 N   0  0  0  0  0  0  0  0  0  0  0  0
   41.2043   25.9112   26.3453 C   0  0  0  0  0  0  0  0  0  0  0  0
   39.8174   26.4539   26.3427 C   0  0  1  0  0  0  0  0  0  0  0  0
   39.4204   26.2068   24.8850 C   0  0  2  0  0  0  0  0  0  0  0  0
  1  2  1  0  0  0  0
  2  3  1  0  0  0  0
  3 20  1  0  0  0  0
  4  5  1  0  0  0  0
  6  7  2  0  0  0  0
  6 12  1  0  0  0  0
  7  8  1  0  0  0  0
  8  9  2  0  0  0  0
  9 11  1  0  0  0  0
 10  5  1  1  0  0  0
 10 11  1  0  0  0  0
 10 16  1  0  0  0  0
 10 27  1  0  0  0  0
 11 12  2  0  0  0  0
 13 12  1  1  0  0  0
 13 15  1  0  0  0  0
 13 28  1  0  0  0  0
 14 15  2  0  0  0  0
 14 19  1  0  0  0  0
 15 16  1  0  0  0  0
 16 17  2  0  0  0  0
 17 18  1  0  0  0  0
 18 19  2  0  0  0  0
 20 21  1  0  0  0  0
 21 25  1  0  0  0  0
 22 26  2  0  0  0  0
 23 24  2  0  0  0  0
 24 25  1  0  0  0  0
 25 26  1  0  0  0  0
 27 26  1  6  0  0  0
 27 28  1  0  0  0  0
 28 24  1  6  0  0  0
M  END
>  <CHROM.1>
78.00844799,-60.49549855,-178.64456538,-67.93775902,83.57192157,39.85281473
25.38482838,25.68919470,0.42029077,0.32928011,-0.86500488

>  <Name>
ligand

>  <RI>
0

>  <Rbt.Current_Directory>
/home/itssahil/PROJECTS/Mol_Feturizer/New_Systems/rnas/1YLS

>  <Rbt.Executable>
rbdock ($Id: //depot/dev/client3/rdock/2013.1/src/exe/rbdock.cxx#4 $)

>  <Rbt.Library>
libRbt.so (2013.1, Build901 2013/11/27)

>  <Rbt.Parameter_File>
/export/apps/rDock/src/rDock_2013.1_src/data/scripts/dock_solv.prm

>  <Rbt.Receptor>
prm/pocket_docking_3.prm

>  <SCORE>
-16.6779

>  <SCORE.INTER>
-14.7314

>  <SCORE.INTER.CONST>
1

>  <SCORE.INTER.POLAR>
0

>  <SCORE.INTER.ROT>
5

>  <SCORE.INTER.SOLV>
6.81856

>  <SCORE.INTER.VDW>
-19.0272

>  <SCORE.INTER.norm>
-0.526123

>  <SCORE.INTRA>
-2.56393

>  <SCORE.INTRA.DIHEDRAL>
-8.2818

>  <SCORE.INTRA.DIHEDRAL.0>
12.0148

>  <SCORE.INTRA.POLAR>
0

>  <SCORE.INTRA.POLAR.0>
0

>  <SCORE.INTRA.REPUL>
0

>  <SCORE.INTRA.REPUL.0>
0

>  <SCORE.INTRA.SOLV>
0.34281

>  <SCORE.INTRA.SOLV.lig_0>
-10.5235

>  <SCORE.INTRA.VDW>
1.40556

>  <SCORE.INTRA.VDW.0>
-1.38455

>  <SCORE.INTRA.norm>
-0.091569

>  <SCORE.RESTR>
0.617502

>  <SCORE.RESTR.CAVITY>
0.617502

>  <SCORE.RESTR.norm>
0.0220537

>  <SCORE.SYSTEM>
0

>  <SCORE.SYSTEM.CONST>
0

>  <SCORE.SYSTEM.DIHEDRAL>
0

>  <SCORE.SYSTEM.SOLV>
0

>  <SCORE.SYSTEM.norm>
0

>  <SCORE.heavy>
28

>  <SCORE.norm>
-0.595638

>  <RMSD>
3.349

$$$$
ligand
 OpenBabel11021811413D
libRbt.so/2013.1/901 2013/11/27
 28 32  0  0  0  0  0  0  0  0999 V2000
   43.5439   26.7017   22.1157 C   0  0  0  0  0  0  0  0  0  0  0  0
   42.1497   27.2766   22.2696 C   0  0  0  0  0  0  0  0  0  0  0  0
   41.2261   26.3196   23.0086 C   0  0  0  0  0  0  0  0  0  0  0  0
   37.9376   21.5012   28.2995 O   0  0  0  0  0  0  0  0  0  0  0  0
   38.9431   22.1008   27.4808 C   0  0  0  0  0  0  0  0  0  0  0  0
   36.6961   26.4885   27.5900 C   0  0  0  0  0  0  0  0  0  0  0  0
   35.5355   25.9375   27.0620 C   0  0  0  0  0  0  0  0  0  0  0  0
   35.5019   24.5786   26.7390 C   0  0  0  0  0  0  0  0  0  0  0  0
   36.6214   23.7715   26.9452 C   0  0  0  0  0  0  0  0  0  0  0  0
   39.0309   23.6107   27.7380 C   0  0  1  0  0  0  0  0  0  0  0  0
   37.7493   24.3345   27.4951 C   0  0  0  0  0  0  0  0  0  0  0  0
   37.7790   25.6700   27.8079 C   0  0  0  0  0  0  0  0  0  0  0  0
   39.0498   26.1561   28.3109 C   0  0  1  0  0  0  0  0  0  0  0  0
   39.8269   25.7897   30.6460 C   0  0  0  0  0  0  0  0  0  0  0  0
   39.4382   25.3037   29.4208 C   0  0  0  0  0  0  0  0  0  0  0  0
   39.4327   23.9621   29.1481 C   0  0  0  0  0  0  0  0  0  0  0  0
   39.8284   23.0569   30.1217 C   0  0  0  0  0  0  0  0  0  0  0  0
   40.2064   23.5342   31.3785 C   0  0  0  0  0  0  0  0  0  0  0  0
   40.2020   24.8985   31.6378 C   0  0  0  0  0  0  0  0  0  0  0  0
   39.8051   26.8669   23.0460 C   0  0  0  0  0  0  0  0  0  0  0  0
   38.8616   25.8567   23.6878 C   0  0  0  0  0  0  0  0  0  0  0  0
   39.4931   23.4159   24.7466 O   0  0  0  0  0  0  0  0  0  0  0  0
   39.4347   27.6577   25.7894 O   0  0  0  0  0  0  0  0  0  0  0  0
   39.6055   26.4559   25.9092 C   0  0  0  0  0  0  0  0  0  0  0  0
   39.3864   25.5731   25.0141 N   0  0  0  0  0  0  0  0  0  0  0  0
   39.6239   24.4043   25.4211 C   0  0  0  0  0  0  0  0  0  0  0  0
   40.0402   24.3559   26.8502 C   0  0  1  0  0  0  0  0  0  0  0  0
   40.0388   25.8473   27.1953 C   0  0  2  0  0  0  0  0  0  0  0  0
  1  2  1  0  0  0  0
  2  3  1  0  0  0  0
  3 20  1  0  0  0  0
  4  5  1  0  0  0  0
  6  7  2  0  0  0  0
  6 12  1  0  0  0  0
  7  8  1  0  0  0  0
  8  9  2  0  0  0  0
  9 11  1  0  0  0  0
 10  5  1  6  0  0  0
 10 11  1  0  0  0  0
 10 16  1  0  0  0  0
 10 27  1  0  0  0  0
 11 12  2  0  0  0  0
 13 12  1  6  0  0  0
 13 15  1  0  0  0  0
 13 28  1  0  0  0  0
 14 15  2  0  0  0  0
 14 19  1  0  0  0  0
 15 16  1  0  0  0  0
 16 17  2  0  0  0  0
 17 18  1  0  0  0  0
 18 19  2  0  0  0  0
 20 21  1  0  0  0  0
 21 25  1  0  0  0  0
 22 26  2  0  0  0  0
 23 24  2  0  0  0  0
 24 25  1  0  0  0  0
 25 26  1  0  0  0  0
 27 26  1  6  0  0  0
 27 28  1  0  0  0  0
 28 24  1  6  0  0  0
M  END
>  <CHROM.1>
-175.17017267,-58.18688887,175.48021743,57.19864151,56.62621078,39.24044503
25.06008502,26.74125646,-1.23115755,0.20671931,1.88622300

>  <Name>
ligand

>  <RI>
0

>  <Rbt.Current_Directory>
/home/itssahil/PROJECTS/Mol_Feturizer/New_Systems/rnas/1YLS

>  <Rbt.Executable>
rbdock ($Id: //depot/dev/client3/rdock/2013.1/src/exe/rbdock.cxx#4 $)

>  <Rbt.Library>
libRbt.so (2013.1, Build901 2013/11/27)

>  <Rbt.Parameter_File>
/export/apps/rDock/src/rDock_2013.1_src/data/scripts/dock_solv.prm

>  <Rbt.Receptor>
prm/pocket_docking_8.prm

>  <SCORE>
-24.6338

>  <SCORE.INTER>
-20.9559

>  <SCORE.INTER.CONST>
1

>  <SCORE.INTER.POLAR>
0

>  <SCORE.INTER.ROT>
5

>  <SCORE.INTER.SOLV>
7.73646

>  <SCORE.INTER.VDW>
-23.4828

>  <SCORE.INTER.norm>
-0.748425

>  <SCORE.INTRA>
-3.67787

>  <SCORE.INTRA.DIHEDRAL>
-9.3338

>  <SCORE.INTRA.DIHEDRAL.0>
12.0148

>  <SCORE.INTRA.POLAR>
0

>  <SCORE.INTRA.POLAR.0>
0

>  <SCORE.INTRA.REPUL>
0

>  <SCORE.INTRA.REPUL.0>
0

>  <SCORE.INTRA.SOLV>
0.344121

>  <SCORE.INTRA.SOLV.lig_0>
-10.5235

>  <SCORE.INTRA.VDW>
0.81697

>  <SCORE.INTRA.VDW.0>
-1.38455

>  <SCORE.INTRA.norm>
-0.131353

>  <SCORE.RESTR>
0

>  <SCORE.RESTR.CAVITY>
0

>  <SCORE.RESTR.norm>
0

>  <SCORE.SYSTEM>
0

>  <SCORE.SYSTEM.CONST>
0

>  <SCORE.SYSTEM.DIHEDRAL>
0

>  <SCORE.SYSTEM.SOLV>
0

>  <SCORE.SYSTEM.norm>
0

>  <SCORE.heavy>
28

>  <SCORE.norm>
-0.879777

>  <RMSD>
3.513

$$$$
ligand
 OpenBabel11021811413D
libRbt.so/2013.1/901 2013/11/27
 28 32  0  0  0  0  0  0  0  0999 V2000
   45.6214   26.2289   22.1478 C   0  0  0  0  0  0  0  0  0  0  0  0
   44.3435   26.7160   22.8018 C   0  0  0  0  0  0  0  0  0  0  0  0
   43.1594   26.6352   21.8499 C   0  0  0  0  0  0  0  0  0  0  0  0
   37.9435   28.0409   28.1609 O   0  0  0  0  0  0  0  0  0  0  0  0
   38.2221   26.6857   27.8045 C   0  0  0  0  0  0  0  0  0  0  0  0
   37.7953   23.4573   24.1022 C   0  0  0  0  0  0  0  0  0  0  0  0
   38.5655   22.5272   24.7885 C   0  0  0  0  0  0  0  0  0  0  0  0
   39.0884   22.8550   26.0420 C   0  0  0  0  0  0  0  0  0  0  0  0
   38.8411   24.1053   26.6101 C   0  0  0  0  0  0  0  0  0  0  0  0
   37.7330   26.3813   26.3826 C   0  0  1  0  0  0  0  0  0  0  0  0
   38.0526   24.9985   25.9232 C   0  0  0  0  0  0  0  0  0  0  0  0
   37.5436   24.6737   24.6912 C   0  0  0  0  0  0  0  0  0  0  0  0
   36.7913   25.7283   24.0386 C   0  0  1  0  0  0  0  0  0  0  0  0
   34.4476   26.3092   24.6392 C   0  0  0  0  0  0  0  0  0  0  0  0
   35.7754   26.1849   24.9708 C   0  0  0  0  0  0  0  0  0  0  0  0
   36.2425   26.5301   26.2105 C   0  0  0  0  0  0  0  0  0  0  0  0
   35.3666   27.0214   27.1674 C   0  0  0  0  0  0  0  0  0  0  0  0
   34.0108   27.1339   26.8521 C   0  0  0  0  0  0  0  0  0  0  0  0
   33.5550   26.7751   25.5903 C   0  0  0  0  0  0  0  0  0  0  0  0
   41.8923   27.1437   22.5253 C   0  0  0  0  0  0  0  0  0  0  0  0
   41.3838   26.1260   23.5395 C   0  0  0  0  0  0  0  0  0  0  0  0
   40.6182   27.2023   25.9338 O   0  0  0  0  0  0  0  0  0  0  0  0
   38.9761   26.0178   22.0628 O   0  0  0  0  0  0  0  0  0  0  0  0
   39.0125   26.4566   23.2004 C   0  0  0  0  0  0  0  0  0  0  0  0
   40.0515   26.5545   23.9349 N   0  0  0  0  0  0  0  0  0  0  0  0
   39.7923   27.0182   25.0776 C   0  0  0  0  0  0  0  0  0  0  0  0
   38.3406   27.2745   25.2894 C   0  0  1  0  0  0  0  0  0  0  0  0
   37.7814   26.8788   23.9203 C   0  0  2  0  0  0  0  0  0  0  0  0
  1  2  1  0  0  0  0
  2  3  1  0  0  0  0
  3 20  1  0  0  0  0
  4  5  1  0  0  0  0
  6  7  2  0  0  0  0
  6 12  1  0  0  0  0
  7  8  1  0  0  0  0
  8  9  2  0  0  0  0
  9 11  1  0  0  0  0
 10  5  1  1  0  0  0
 10 11  1  0  0  0  0
 10 16  1  0  0  0  0
 10 27  1  0  0  0  0
 11 12  2  0  0  0  0
 13 12  1  1  0  0  0
 13 15  1  0  0  0  0
 13 28  1  0  0  0  0
 14 15  2  0  0  0  0
 14 19  1  0  0  0  0
 15 16  1  0  0  0  0
 16 17  2  0  0  0  0
 17 18  1  0  0  0  0
 18 19  2  0  0  0  0
 20 21  1  0  0  0  0
 21 25  1  0  0  0  0
 22 26  2  0  0  0  0
 23 24  2  0  0  0  0
 24 25  1  0  0  0  0
 25 26  1  0  0  0  0
 27 26  1  6  0  0  0
 27 28  1  0  0  0  0
 28 24  1  6  0  0  0
M  END
>  <CHROM.1>
-179.39074258,177.21590071,-73.81849296,-168.81272201,73.46408417,38.76971066
26.11820592,24.82012048,-0.31394598,0.30614841,0.83556720

>  <Name>
ligand

>  <RI>
0

>  <Rbt.Current_Directory>
/home/itssahil/PROJECTS/Mol_Feturizer/New_Systems/rnas/1YLS

>  <Rbt.Executable>
rbdock ($Id: //depot/dev/client3/rdock/2013.1/src/exe/rbdock.cxx#4 $)

>  <Rbt.Library>
libRbt.so (2013.1, Build901 2013/11/27)

>  <Rbt.Parameter_File>
/export/apps/rDock/src/rDock_2013.1_src/data/scripts/dock_solv.prm

>  <Rbt.Receptor>
prm/pocket_docking_8.prm

>  <SCORE>
-23.6607

>  <SCORE.INTER>
-20.1491

>  <SCORE.INTER.CONST>
1

>  <SCORE.INTER.POLAR>
0

>  <SCORE.INTER.ROT>
5

>  <SCORE.INTER.SOLV>
11.1878

>  <SCORE.INTER.VDW>
-24.0953

>  <SCORE.INTER.norm>
-0.719609

>  <SCORE.INTRA>
-3.51164

>  <SCORE.INTRA.DIHEDRAL>
-8.48027

>  <SCORE.INTRA.DIHEDRAL.0>
12.0148

>  <SCORE.INTRA.POLAR>
0

>  <SCORE.INTRA.POLAR.0>
0

>  <SCORE.INTRA.REPUL>
0

>  <SCORE.INTRA.REPUL.0>
0

>  <SCORE.INTRA.SOLV>
0.197113

>  <SCORE.INTRA.SOLV.lig_0>
-10.5235

>  <SCORE.INTRA.VDW>
0.629933

>  <SCORE.INTRA.VDW.0>
-1.38455

>  <SCORE.INTRA.norm>
-0.125416

>  <SCORE.RESTR>
0

>  <SCORE.RESTR.CAVITY>
0

>  <SCORE.RESTR.norm>
0

>  <SCORE.SYSTEM>
0

>  <SCORE.SYSTEM.CONST>
0

>  <SCORE.SYSTEM.DIHEDRAL>
0

>  <SCORE.SYSTEM.SOLV>
0

>  <SCORE.SYSTEM.norm>
0

>  <SCORE.heavy>
28

>  <SCORE.norm>
-0.845025

>  <RMSD>
3.537

$$$$
ligand
 OpenBabel11021811413D
libRbt.so/2013.1/901 2013/11/27
 28 32  0  0  0  0  0  0  0  0999 V2000
   42.7810   24.4026   24.4954 C   0  0  0  0  0  0  0  0  0  0  0  0
   42.4571   25.8829   24.4570 C   0  0  0  0  0  0  0  0  0  0  0  0
   41.9355   26.3787   25.7975 C   0  0  0  0  0  0  0  0  0  0  0  0
   36.2465   21.4820   26.6657 O   0  0  0  0  0  0  0  0  0  0  0  0
   36.7637   22.3972   25.6982 C   0  0  0  0  0  0  0  0  0  0  0  0
   36.7044   27.1561   24.4089 C   0  0  0  0  0  0  0  0  0  0  0  0
   37.5652   26.9072   23.3476 C   0  0  0  0  0  0  0  0  0  0  0  0
   38.0430   25.6114   23.1362 C   0  0  0  0  0  0  0  0  0  0  0  0
   37.6607   24.5670   23.9789 C   0  0  0  0  0  0  0  0  0  0  0  0
   36.3180   23.8322   26.0079 C   0  0  1  0  0  0  0  0  0  0  0  0
   36.7857   24.8334   25.0058 C   0  0  0  0  0  0  0  0  0  0  0  0
   36.3213   26.1079   25.2118 C   0  0  0  0  0  0  0  0  0  0  0  0
   35.4647   26.2710   26.3710 C   0  0  1  0  0  0  0  0  0  0  0  0
   33.0691   25.5996   26.4068 C   0  0  0  0  0  0  0  0  0  0  0  0
   34.4007   25.2873   26.2730 C   0  0  0  0  0  0  0  0  0  0  0  0
   34.8212   23.9991   26.0781 C   0  0  0  0  0  0  0  0  0  0  0  0
   33.8925   22.9708   26.0132 C   0  0  0  0  0  0  0  0  0  0  0  0
   32.5343   23.2751   26.1267 C   0  0  0  0  0  0  0  0  0  0  0  0
   32.1265   24.5884   26.3203 C   0  0  0  0  0  0  0  0  0  0  0  0
   40.4469   26.0866   25.9352 C   0  0  0  0  0  0  0  0  0  0  0  0
   39.9916   26.3056   27.3732 C   0  0  0  0  0  0  0  0  0  0  0  0
   39.1020   23.7252   27.2070 O   0  0  0  0  0  0  0  0  0  0  0  0
   37.6177   27.8037   27.7037 O   0  0  0  0  0  0  0  0  0  0  0  0
   37.6006   26.5887   27.5973 C   0  0  0  0  0  0  0  0  0  0  0  0
   38.6190   25.8325   27.4574 N   0  0  0  0  0  0  0  0  0  0  0  0
   38.3053   24.6173   27.3434 C   0  0  0  0  0  0  0  0  0  0  0  0
   36.8334   24.3906   27.3438 C   0  0  1  0  0  0  0  0  0  0  0  0
   36.3275   25.8217   27.5423 C   0  0  2  0  0  0  0  0  0  0  0  0
  1  2  1  0  0  0  0
  2  3  1  0  0  0  0
  3 20  1  0  0  0  0
  4  5  1  0  0  0  0
  6  7  2  0  0  0  0
  6 12  1  0  0  0  0
  7  8  1  0  0  0  0
  8  9  2  0  0  0  0
  9 11  1  0  0  0  0
 10  5  1  6  0  0  0
 10 11  1  0  0  0  0
 10 16  1  0  0  0  0
 10 27  1  0  0  0  0
 11 12  2  0  0  0  0
 13 12  1  6  0  0  0
 13 15  1  0  0  0  0
 13 28  1  0  0  0  0
 14 15  2  0  0  0  0
 14 19  1  0  0  0  0
 15 16  1  0  0  0  0
 16 17  2  0  0  0  0
 17 18  1  0  0  0  0
 18 19  2  0  0  0  0
 20 21  1  0  0  0  0
 21 25  1  0  0  0  0
 22 26  2  0  0  0  0
 23 24  2  0  0  0  0
 24 25  1  0  0  0  0
 25 26  1  0  0  0  0
 27 26  1  6  0  0  0
 27 28  1  0  0  0  0
 28 24  1  6  0  0  0
M  END
>  <CHROM.1>
-82.68700668,-177.96283223,167.89541463,-172.33466302,-109.46077215,37.31793256
25.08253952,26.01652007,-0.20445467,-0.12409688,-3.05452860

>  <Name>
ligand

>  <RI>
0

>  <Rbt.Current_Directory>
/home/itssahil/PROJECTS/Mol_Feturizer/New_Systems/rnas/1YLS

>  <Rbt.Executable>
rbdock ($Id: //depot/dev/client3/rdock/2013.1/src/exe/rbdock.cxx#4 $)

>  <Rbt.Library>
libRbt.so (2013.1, Build901 2013/11/27)

>  <Rbt.Parameter_File>
/export/apps/rDock/src/rDock_2013.1_src/data/scripts/dock_solv.prm

>  <Rbt.Receptor>
prm/blind_docking_100.prm

>  <SCORE>
-15.5473

>  <SCORE.INTER>
-15.1952

>  <SCORE.INTER.CONST>
1

>  <SCORE.INTER.POLAR>
0

>  <SCORE.INTER.ROT>
5

>  <SCORE.INTER.SOLV>
8.28447

>  <SCORE.INTER.VDW>
-19.825

>  <SCORE.INTER.norm>
-0.542687

>  <SCORE.INTRA>
-3.27751

>  <SCORE.INTRA.DIHEDRAL>
-6.77345

>  <SCORE.INTRA.DIHEDRAL.0>
12.0148

>  <SCORE.INTRA.POLAR>
0

>  <SCORE.INTRA.POLAR.0>
0

>  <SCORE.INTRA.REPUL>
0

>  <SCORE.INTRA.REPUL.0>
0

>  <SCORE.INTRA.SOLV>
0.149076

>  <SCORE.INTRA.SOLV.lig_0>
-10.5235

>  <SCORE.INTRA.VDW>
0.0346809

>  <SCORE.INTRA.VDW.0>
-1.38455

>  <SCORE.INTRA.norm>
-0.117054

>  <SCORE.RESTR>
2.9254

>  <SCORE.RESTR.CAVITY>
2.9254

>  <SCORE.RESTR.norm>
0.104479

>  <SCORE.SYSTEM>
0

>  <SCORE.SYSTEM.CONST>
0

>  <SCORE.SYSTEM.DIHEDRAL>
0

>  <SCORE.SYSTEM.SOLV>
0

>  <SCORE.SYSTEM.norm>
0

>  <SCORE.heavy>
28

>  <SCORE.norm>
-0.555262

>  <RMSD>
3.931

$$$$
ligand
 OpenBabel11021811413D
libRbt.so/2013.1/901 2013/11/27
 28 32  0  0  0  0  0  0  0  0999 V2000
   44.0070   26.0598   24.2298 C   0  0  0  0  0  0  0  0  0  0  0  0
   42.5096   25.9517   24.4400 C   0  0  0  0  0  0  0  0  0  0  0  0
   42.1589   25.7985   25.9126 C   0  0  0  0  0  0  0  0  0  0  0  0
   35.6211   21.7614   26.8189 O   0  0  0  0  0  0  0  0  0  0  0  0
   36.2863   22.5629   25.8411 C   0  0  0  0  0  0  0  0  0  0  0  0
   37.2817   27.2435   24.6520 C   0  0  0  0  0  0  0  0  0  0  0  0
   38.0655   26.8331   23.5812 C   0  0  0  0  0  0  0  0  0  0  0  0
   38.2443   25.4685   23.3401 C   0  0  0  0  0  0  0  0  0  0  0  0
   37.6406   24.5168   24.1628 C   0  0  0  0  0  0  0  0  0  0  0  0
   36.1696   24.0539   26.1831 C   0  0  1  0  0  0  0  0  0  0  0  0
   36.8468   24.9481   25.1997 C   0  0  0  0  0  0  0  0  0  0  0  0
   36.6763   26.2891   25.4347 C   0  0  0  0  0  0  0  0  0  0  0  0
   35.8778   26.6127   26.6016 C   0  0  1  0  0  0  0  0  0  0  0  0
   33.3930   26.4878   26.6359 C   0  0  0  0  0  0  0  0  0  0  0  0
   34.6222   25.8914   26.4887 C   0  0  0  0  0  0  0  0  0  0  0  0
   34.7469   24.5466   26.2646 C   0  0  0  0  0  0  0  0  0  0  0  0
   33.6135   23.7511   26.1831 C   0  0  0  0  0  0  0  0  0  0  0  0
   32.3564   24.3460   26.3101 C   0  0  0  0  0  0  0  0  0  0  0  0
   32.2497   25.7125   26.5333 C   0  0  0  0  0  0  0  0  0  0  0  0
   40.6485   25.7452   26.1016 C   0  0  0  0  0  0  0  0  0  0  0  0
   40.3004   25.6226   27.5804 C   0  0  0  0  0  0  0  0  0  0  0  0
   38.8614   23.3074   27.3650 O   0  0  0  0  0  0  0  0  0  0  0  0
   38.3174   27.6016   27.9547 O   0  0  0  0  0  0  0  0  0  0  0  0
   38.0316   26.4231   27.8230 C   0  0  0  0  0  0  0  0  0  0  0  0
   38.8572   25.4634   27.6620 N   0  0  0  0  0  0  0  0  0  0  0  0
   38.2821   24.3506   27.5242 C   0  0  0  0  0  0  0  0  0  0  0  0
   36.7965   24.4554   27.5276 C   0  0  1  0  0  0  0  0  0  0  0  0
   36.6202   25.9584   27.7587 C   0  0  2  0  0  0  0  0  0  0  0  0
  1  2  1  0  0  0  0
  2  3  1  0  0  0  0
  3 20  1  0  0  0  0
  4  5  1  0  0  0  0
  6  7  2  0  0  0  0
  6 12  1  0  0  0  0
  7  8  1  0  0  0  0
  8  9  2  0  0  0  0
  9 11  1  0  0  0  0
 10  5  1  6  0  0  0
 10 11  1  0  0  0  0
 10 16  1  0  0  0  0
 10 27  1  0  0  0  0
 11 12  2  0  0  0  0
 13 12  1  6  0  0  0
 13 15  1  0  0  0  0
 13 28  1  0  0  0  0
 14 15  2  0  0  0  0
 14 19  1  0  0  0  0
 15 16  1  0  0  0  0
 16 17  2  0  0  0  0
 17 18  1  0  0  0  0
 18 19  2  0  0  0  0
 20 21  1  0  0  0  0
 21 25  1  0  0  0  0
 22 26  2  0  0  0  0
 23 24  2  0  0  0  0
 24 25  1  0  0  0  0
 25 26  1  0  0  0  0
 27 26  1  6  0  0  0
 27 28  1  0  0  0  0
 28 24  1  6  0  0  0
M  END
>  <CHROM.1>
177.85569926,179.91222388,-178.76085748,-175.24249430,-93.29908834,37.47359531
25.24971363,26.18425840,0.19109454,0.07582301,-0.33727111

>  <Name>
ligand

>  <RI>
0

>  <Rbt.Current_Directory>
/home/itssahil/PROJECTS/Mol_Feturizer/New_Systems/rnas/1YLS

>  <Rbt.Executable>
rbdock ($Id: //depot/dev/client3/rdock/2013.1/src/exe/rbdock.cxx#4 $)

>  <Rbt.Library>
libRbt.so (2013.1, Build901 2013/11/27)

>  <Rbt.Parameter_File>
/export/apps/rDock/src/rDock_2013.1_src/data/scripts/dock_solv.prm

>  <Rbt.Receptor>
prm/pocket_docking_7.prm

>  <SCORE>
-26.3312

>  <SCORE.INTER>
-20.9512

>  <SCORE.INTER.CONST>
1

>  <SCORE.INTER.POLAR>
0

>  <SCORE.INTER.ROT>
5

>  <SCORE.INTER.SOLV>
8.09777

>  <SCORE.INTER.VDW>
-23.6001

>  <SCORE.INTER.norm>
-0.748258

>  <SCORE.INTRA>
-5.37995

>  <SCORE.INTRA.DIHEDRAL>
-9.31923

>  <SCORE.INTRA.DIHEDRAL.0>
12.0148

>  <SCORE.INTRA.POLAR>
0

>  <SCORE.INTRA.POLAR.0>
0

>  <SCORE.INTRA.REPUL>
0

>  <SCORE.INTRA.REPUL.0>
0

>  <SCORE.INTRA.SOLV>
0.144734

>  <SCORE.INTRA.SOLV.lig_0>
-10.5235

>  <SCORE.INTRA.VDW>
-0.792704

>  <SCORE.INTRA.VDW.0>
-1.38455

>  <SCORE.INTRA.norm>
-0.192141

>  <SCORE.RESTR>
0

>  <SCORE.RESTR.CAVITY>
0

>  <SCORE.RESTR.norm>
0

>  <SCORE.SYSTEM>
0

>  <SCORE.SYSTEM.CONST>
0

>  <SCORE.SYSTEM.DIHEDRAL>
0

>  <SCORE.SYSTEM.SOLV>
0

>  <SCORE.SYSTEM.norm>
0

>  <SCORE.heavy>
28

>  <SCORE.norm>
-0.940399

>  <RMSD>
3.940

$$$$
ligand
 OpenBabel11021811413D
libRbt.so/2013.1/901 2013/11/27
 28 32  0  0  0  0  0  0  0  0999 V2000
   43.8922   23.9851   25.3310 C   0  0  0  0  0  0  0  0  0  0  0  0
   42.4264   24.2235   25.6352 C   0  0  0  0  0  0  0  0  0  0  0  0
   42.1232   25.7039   25.8123 C   0  0  0  0  0  0  0  0  0  0  0  0
   35.5455   21.7859   26.7011 O   0  0  0  0  0  0  0  0  0  0  0  0
   36.2369   22.6017   25.7536 C   0  0  0  0  0  0  0  0  0  0  0  0
   37.3129   27.2960   24.6963 C   0  0  0  0  0  0  0  0  0  0  0  0
   38.0788   26.9032   23.6062 C   0  0  0  0  0  0  0  0  0  0  0  0
   38.2288   25.5433   23.3226 C   0  0  0  0  0  0  0  0  0  0  0  0
   37.6140   24.5789   24.1219 C   0  0  0  0  0  0  0  0  0  0  0  0
   36.1524   24.0836   26.1414 C   0  0  1  0  0  0  0  0  0  0  0  0
   36.8382   24.9939   25.1789 C   0  0  0  0  0  0  0  0  0  0  0  0
   36.6960   26.3302   25.4558 C   0  0  0  0  0  0  0  0  0  0  0  0
   35.9145   26.6337   26.6395 C   0  0  1  0  0  0  0  0  0  0  0  0
   33.4281   26.5557   26.6938 C   0  0  0  0  0  0  0  0  0  0  0  0
   34.6441   25.9405   26.5169 C   0  0  0  0  0  0  0  0  0  0  0  0
   34.7405   24.6009   26.2513 C   0  0  0  0  0  0  0  0  0  0  0  0
   33.5910   23.8302   26.1568 C   0  0  0  0  0  0  0  0  0  0  0  0
   32.3470   24.4451   26.3136 C   0  0  0  0  0  0  0  0  0  0  0  0
   32.2691   25.8060   26.5789 C   0  0  0  0  0  0  0  0  0  0  0  0
   40.6440   25.9172   26.1065 C   0  0  0  0  0  0  0  0  0  0  0  0
   40.3255   25.5294   27.5456 C   0  0  0  0  0  0  0  0  0  0  0  0
   38.8396   23.2499   27.2745 O   0  0  0  0  0  0  0  0  0  0  0  0
   38.3851   27.5340   27.9983 O   0  0  0  0  0  0  0  0  0  0  0  0
   38.0751   26.3657   27.8339 C   0  0  0  0  0  0  0  0  0  0  0  0
   38.8802   25.3956   27.6362 N   0  0  0  0  0  0  0  0  0  0  0  0
   38.2823   24.2988   27.4706 C   0  0  0  0  0  0  0  0  0  0  0  0
   36.7991   24.4321   27.4913 C   0  0  1  0  0  0  0  0  0  0  0  0
   36.6543   25.9305   27.7692 C   0  0  2  0  0  0  0  0  0  0  0  0
  1  2  1  0  0  0  0
  2  3  1  0  0  0  0
  3 20  1  0  0  0  0
  4  5  1  0  0  0  0
  6  7  2  0  0  0  0
  6 12  1  0  0  0  0
  7  8  1  0  0  0  0
  8  9  2  0  0  0  0
  9 11  1  0  0  0  0
 10  5  1  6  0  0  0
 10 11  1  0  0  0  0
 10 16  1  0  0  0  0
 10 27  1  0  0  0  0
 11 12  2  0  0  0  0
 13 12  1  6  0  0  0
 13 15  1  0  0  0  0
 13 28  1  0  0  0  0
 14 15  2  0  0  0  0
 14 19  1  0  0  0  0
 15 16  1  0  0  0  0
 16 17  2  0  0  0  0
 17 18  1  0  0  0  0
 18 19  2  0  0  0  0
 20 21  1  0  0  0  0
 21 25  1  0  0  0  0
 22 26  2  0  0  0  0
 23 24  2  0  0  0  0
 24 25  1  0  0  0  0
 25 26  1  0  0  0  0
 27 26  1  6  0  0  0
 27 28  1  0  0  0  0
 28 24  1  6  0  0  0
M  END
>  <CHROM.1>
179.58550256,-179.10094109,75.51897423,-164.23314885,-84.20754296,37.46798841
25.11451132,26.25986213,-0.01420534,-0.05518507,3.11292305

>  <Name>
ligand

>  <RI>
0

>  <Rbt.Current_Directory>
/home/itssahil/PROJECTS/Mol_Feturizer/New_Systems/rnas/1YLS

>  <Rbt.Executable>
rbdock ($Id: //depot/dev/client3/rdock/2013.1/src/exe/rbdock.cxx#4 $)

>  <Rbt.Library>
libRbt.so (2013.1, Build901 2013/11/27)

>  <Rbt.Parameter_File>
/export/apps/rDock/src/rDock_2013.1_src/data/scripts/dock_solv.prm

>  <Rbt.Receptor>
prm/pocket_docking_6.prm

>  <SCORE>
-24.5464

>  <SCORE.INTER>
-20.456

>  <SCORE.INTER.CONST>
1

>  <SCORE.INTER.POLAR>
0

>  <SCORE.INTER.ROT>
5

>  <SCORE.INTER.SOLV>
7.66685

>  <SCORE.INTER.VDW>
-23.1263

>  <SCORE.INTER.norm>
-0.73057

>  <SCORE.INTRA>
-4.09041

>  <SCORE.INTRA.DIHEDRAL>
-7.57712

>  <SCORE.INTRA.DIHEDRAL.0>
12.0148

>  <SCORE.INTRA.POLAR>
0

>  <SCORE.INTRA.POLAR.0>
0

>  <SCORE.INTRA.REPUL>
0

>  <SCORE.INTRA.REPUL.0>
0

>  <SCORE.INTRA.SOLV>
0.226289

>  <SCORE.INTRA.SOLV.lig_0>
-10.5235

>  <SCORE.INTRA.VDW>
-0.414997

>  <SCORE.INTRA.VDW.0>
-1.38455

>  <SCORE.INTRA.norm>
-0.146086

>  <SCORE.RESTR>
0

>  <SCORE.RESTR.CAVITY>
0

>  <SCORE.RESTR.norm>
0

>  <SCORE.SYSTEM>
0

>  <SCORE.SYSTEM.CONST>
0

>  <SCORE.SYSTEM.DIHEDRAL>
0

>  <SCORE.SYSTEM.SOLV>
0

>  <SCORE.SYSTEM.norm>
0

>  <SCORE.heavy>
28

>  <SCORE.norm>
-0.876656

>  <RMSD>
4.049

$$$$
ligand
 OpenBabel11021811413D
libRbt.so/2013.1/901 2013/11/27
 28 32  0  0  0  0  0  0  0  0999 V2000
   42.8629   24.0498   26.6124 C   0  0  0  0  0  0  0  0  0  0  0  0
   43.0157   25.3174   27.4296 C   0  0  0  0  0  0  0  0  0  0  0  0
   41.9427   25.4264   28.5028 C   0  0  0  0  0  0  0  0  0  0  0  0
   35.5410   22.1387   26.2817 O   0  0  0  0  0  0  0  0  0  0  0  0
   36.6451   22.7829   25.6438 C   0  0  0  0  0  0  0  0  0  0  0  0
   38.5918   27.2273   24.7662 C   0  0  0  0  0  0  0  0  0  0  0  0
   39.7628   26.6505   24.2914 C   0  0  0  0  0  0  0  0  0  0  0  0
   39.8949   25.2596   24.2886 C   0  0  0  0  0  0  0  0  0  0  0  0
   38.8608   24.4469   24.7549 C   0  0  0  0  0  0  0  0  0  0  0  0
   36.5282   24.3086   25.7546 C   0  0  1  0  0  0  0  0  0  0  0  0
   37.7007   25.0408   25.1939 C   0  0  0  0  0  0  0  0  0  0  0  0
   37.5764   26.4072   25.1978 C   0  0  0  0  0  0  0  0  0  0  0  0
   36.3348   26.9105   25.7539 C   0  0  1  0  0  0  0  0  0  0  0  0
   34.1800   26.9114   24.5097 C   0  0  0  0  0  0  0  0  0  0  0  0
   35.2431   26.2426   25.0674 C   0  0  0  0  0  0  0  0  0  0  0  0
   35.3223   24.8759   25.0494 C   0  0  0  0  0  0  0  0  0  0  0  0
   34.3112   24.1323   24.4588 C   0  0  0  0  0  0  0  0  0  0  0  0
   33.2346   24.7986   23.8696 C   0  0  0  0  0  0  0  0  0  0  0  0
   33.1734   26.1857   23.8943 C   0  0  0  0  0  0  0  0  0  0  0  0
   40.5762   25.6634   27.8730 C   0  0  0  0  0  0  0  0  0  0  0  0
   39.5143   25.8355   28.9528 C   0  0  0  0  0  0  0  0  0  0  0  0
   38.1505   23.5839   28.2129 O   0  0  0  0  0  0  0  0  0  0  0  0
   37.8368   27.9394   28.0877 O   0  0  0  0  0  0  0  0  0  0  0  0
   37.5356   26.7688   27.9229 C   0  0  0  0  0  0  0  0  0  0  0  0
   38.2224   25.7578   28.2897 N   0  0  0  0  0  0  0  0  0  0  0  0
   37.6839   24.6656   27.9651 C   0  0  0  0  0  0  0  0  0  0  0  0
   36.4231   24.8420   27.1921 C   0  0  1  0  0  0  0  0  0  0  0  0
   36.3129   26.3688   27.1766 C   0  0  2  0  0  0  0  0  0  0  0  0
  1  2  1  0  0  0  0
  2  3  1  0  0  0  0
  3 20  1  0  0  0  0
  4  5  1  0  0  0  0
  6  7  2  0  0  0  0
  6 12  1  0  0  0  0
  7  8  1  0  0  0  0
  8  9  2  0  0  0  0
  9 11  1  0  0  0  0
 10  5  1  6  0  0  0
 10 11  1  0  0  0  0
 10 16  1  0  0  0  0
 10 27  1  0  0  0  0
 11 12  2  0  0  0  0
 13 12  1  6  0  0  0
 13 15  1  0  0  0  0
 13 28  1  0  0  0  0
 14 15  2  0  0  0  0
 14 19  1  0  0  0  0
 15 16  1  0  0  0  0
 16 17  2  0  0  0  0
 17 18  1  0  0  0  0
 18 19  2  0  0  0  0
 20 21  1  0  0  0  0
 21 25  1  0  0  0  0
 22 26  2  0  0  0  0
 23 24  2  0  0  0  0
 24 25  1  0  0  0  0
 25 26  1  0  0  0  0
 27 26  1  1  0  0  0
 27 28  1  0  0  0  0
 28 24  1  1  0  0  0
M  END
>  <CHROM.1>
-68.89990823,175.83839751,-177.42137208,-167.63291749,-97.03214698,37.70390005
25.33590637,26.28317821,-0.01708615,0.38652339,3.13676864

>  <Name>
ligand

>  <RI>
0

>  <Rbt.Current_Directory>
/home/itssahil/PROJECTS/Mol_Feturizer/New_Systems/rnas/1YLS

>  <Rbt.Executable>
rbdock ($Id: //depot/dev/client3/rdock/2013.1/src/exe/rbdock.cxx#4 $)

>  <Rbt.Library>
libRbt.so (2013.1, Build901 2013/11/27)

>  <Rbt.Parameter_File>
/export/apps/rDock/src/rDock_2013.1_src/data/scripts/dock_solv.prm

>  <Rbt.Receptor>
prm/pocket_docking_8.prm

>  <SCORE>
-24.6709

>  <SCORE.INTER>
-20.4871

>  <SCORE.INTER.CONST>
1

>  <SCORE.INTER.POLAR>
0

>  <SCORE.INTER.ROT>
5

>  <SCORE.INTER.SOLV>
8.2517

>  <SCORE.INTER.VDW>
-23.342

>  <SCORE.INTER.norm>
-0.731682

>  <SCORE.INTRA>
-4.18376

>  <SCORE.INTRA.DIHEDRAL>
-8.48749

>  <SCORE.INTRA.DIHEDRAL.0>
12.0148

>  <SCORE.INTRA.POLAR>
0

>  <SCORE.INTRA.POLAR.0>
0

>  <SCORE.INTRA.REPUL>
0

>  <SCORE.INTRA.REPUL.0>
0

>  <SCORE.INTRA.SOLV>
0.168063

>  <SCORE.INTRA.SOLV.lig_0>
-10.5235

>  <SCORE.INTRA.VDW>
-0.0240464

>  <SCORE.INTRA.VDW.0>
-1.38455

>  <SCORE.INTRA.norm>
-0.14942

>  <SCORE.RESTR>
0

>  <SCORE.RESTR.CAVITY>
0

>  <SCORE.RESTR.norm>
0

>  <SCORE.SYSTEM>
0

>  <SCORE.SYSTEM.CONST>
0

>  <SCORE.SYSTEM.DIHEDRAL>
0

>  <SCORE.SYSTEM.SOLV>
0

>  <SCORE.SYSTEM.norm>
0

>  <SCORE.heavy>
28

>  <SCORE.norm>
-0.881102

>  <RMSD>
4.443

$$$$
ligand
 OpenBabel11021811413D
libRbt.so/2013.1/901 2013/11/27
 28 32  0  0  0  0  0  0  0  0999 V2000
   42.1899   23.0347   25.7495 C   0  0  0  0  0  0  0  0  0  0  0  0
   41.9141   24.4126   26.3181 C   0  0  0  0  0  0  0  0  0  0  0  0
   40.7586   24.3907   27.3078 C   0  0  0  0  0  0  0  0  0  0  0  0
   35.5005   22.1219   26.1428 O   0  0  0  0  0  0  0  0  0  0  0  0
   36.5860   22.7940   25.5016 C   0  0  0  0  0  0  0  0  0  0  0  0
   38.5189   27.2738   24.7891 C   0  0  0  0  0  0  0  0  0  0  0  0
   39.6957   26.7184   24.3033 C   0  0  0  0  0  0  0  0  0  0  0  0
   39.8340   25.3289   24.2541 C   0  0  0  0  0  0  0  0  0  0  0  0
   38.8004   24.4966   24.6853 C   0  0  0  0  0  0  0  0  0  0  0  0
   36.4615   24.3145   25.6633 C   0  0  1  0  0  0  0  0  0  0  0  0
   37.6346   25.0703   25.1360 C   0  0  0  0  0  0  0  0  0  0  0  0
   37.5042   26.4352   25.1855 C   0  0  0  0  0  0  0  0  0  0  0  0
   36.2566   26.9141   25.7496 C   0  0  1  0  0  0  0  0  0  0  0  0
   34.1104   26.9483   24.4911 C   0  0  0  0  0  0  0  0  0  0  0  0
   35.1726   26.2653   25.0331 C   0  0  0  0  0  0  0  0  0  0  0  0
   35.2580   24.9004   24.9693 C   0  0  0  0  0  0  0  0  0  0  0  0
   34.2543   24.1730   24.3467 C   0  0  0  0  0  0  0  0  0  0  0  0
   33.1788   24.8544   23.7729 C   0  0  0  0  0  0  0  0  0  0  0  0
   33.1113   26.2397   23.8443 C   0  0  0  0  0  0  0  0  0  0  0  0
   40.4857   25.7897   27.8449 C   0  0  0  0  0  0  0  0  0  0  0  0
   39.4188   25.7444   28.9324 C   0  0  0  0  0  0  0  0  0  0  0  0
   38.0701   23.5135   28.1069 O   0  0  0  0  0  0  0  0  0  0  0  0
   37.7379   27.8693   28.1275 O   0  0  0  0  0  0  0  0  0  0  0  0
   37.4431   26.7038   27.9210 C   0  0  0  0  0  0  0  0  0  0  0  0
   38.1318   25.6838   28.2579 N   0  0  0  0  0  0  0  0  0  0  0  0
   37.6004   24.6010   27.8927 C   0  0  0  0  0  0  0  0  0  0  0  0
   36.3442   24.7983   27.1173 C   0  0  1  0  0  0  0  0  0  0  0  0
   36.2273   26.3242   27.1529 C   0  0  2  0  0  0  0  0  0  0  0  0
  1  2  1  0  0  0  0
  2  3  1  0  0  0  0
  3 20  1  0  0  0  0
  4  5  1  0  0  0  0
  6  7  2  0  0  0  0
  6 12  1  0  0  0  0
  7  8  1  0  0  0  0
  8  9  2  0  0  0  0
  9 11  1  0  0  0  0
 10  5  1  6  0  0  0
 10 11  1  0  0  0  0
 10 16  1  0  0  0  0
 10 27  1  0  0  0  0
 11 12  2  0  0  0  0
 13 12  1  6  0  0  0
 13 15  1  0  0  0  0
 13 28  1  0  0  0  0
 14 15  2  0  0  0  0
 14 19  1  0  0  0  0
 15 16  1  0  0  0  0
 16 17  2  0  0  0  0
 17 18  1  0  0  0  0
 18 19  2  0  0  0  0
 20 21  1  0  0  0  0
 21 25  1  0  0  0  0
 22 26  2  0  0  0  0
 23 24  2  0  0  0  0
 24 25  1  0  0  0  0
 25 26  1  0  0  0  0
 27 26  1  1  0  0  0
 27 28  1  0  0  0  0
 28 24  1  1  0  0  0
M  END
>  <CHROM.1>
-178.98008235,174.16182962,-174.61920983,-80.71699919,-90.09797580,37.52423060
25.22220001,26.11549919,-0.08511232,0.34561078,-2.66469685

>  <Name>
ligand

>  <RI>
0

>  <Rbt.Current_Directory>
/home/itssahil/PROJECTS/Mol_Feturizer/New_Systems/rnas/1YLS

>  <Rbt.Executable>
rbdock ($Id: //depot/dev/client3/rdock/2013.1/src/exe/rbdock.cxx#4 $)

>  <Rbt.Library>
libRbt.so (2013.1, Build901 2013/11/27)

>  <Rbt.Parameter_File>
/export/apps/rDock/src/rDock_2013.1_src/data/scripts/dock_solv.prm

>  <Rbt.Receptor>
prm/pocket_docking_8.prm

>  <SCORE>
-26.2303

>  <SCORE.INTER>
-20.9737

>  <SCORE.INTER.CONST>
1

>  <SCORE.INTER.POLAR>
0

>  <SCORE.INTER.ROT>
5

>  <SCORE.INTER.SOLV>
8.26106

>  <SCORE.INTER.VDW>
-23.6695

>  <SCORE.INTER.norm>
-0.74906

>  <SCORE.INTRA>
-5.25664

>  <SCORE.INTRA.DIHEDRAL>
-7.73638

>  <SCORE.INTRA.DIHEDRAL.0>
12.0148

>  <SCORE.INTRA.POLAR>
0

>  <SCORE.INTRA.POLAR.0>
0

>  <SCORE.INTRA.REPUL>
0

>  <SCORE.INTRA.REPUL.0>
0

>  <SCORE.INTRA.SOLV>
0.443878

>  <SCORE.INTRA.SOLV.lig_0>
-10.5235

>  <SCORE.INTRA.VDW>
-1.6104

>  <SCORE.INTRA.VDW.0>
-1.38455

>  <SCORE.INTRA.norm>
-0.187737

>  <SCORE.RESTR>
0

>  <SCORE.RESTR.CAVITY>
0

>  <SCORE.RESTR.norm>
0

>  <SCORE.SYSTEM>
0

>  <SCORE.SYSTEM.CONST>
0

>  <SCORE.SYSTEM.DIHEDRAL>
0

>  <SCORE.SYSTEM.SOLV>
0

>  <SCORE.SYSTEM.norm>
0

>  <SCORE.heavy>
28

>  <SCORE.norm>
-0.936798

>  <RMSD>
4.456

$$$$
ligand
 OpenBabel11021811413D
libRbt.so/2013.1/901 2013/11/27
 28 32  0  0  0  0  0  0  0  0999 V2000
   44.4306   25.4161   28.3922 C   0  0  0  0  0  0  0  0  0  0  0  0
   43.0614   25.4027   27.7418 C   0  0  0  0  0  0  0  0  0  0  0  0
   41.9508   25.5746   28.7674 C   0  0  0  0  0  0  0  0  0  0  0  0
   35.7425   22.1388   26.1407 O   0  0  0  0  0  0  0  0  0  0  0  0
   36.8613   22.8482   25.6058 C   0  0  0  0  0  0  0  0  0  0  0  0
   38.6403   27.3975   24.9340 C   0  0  0  0  0  0  0  0  0  0  0  0
   39.8493   26.8868   24.4792 C   0  0  0  0  0  0  0  0  0  0  0  0
   40.0414   25.5035   24.4362 C   0  0  0  0  0  0  0  0  0  0  0  0
   39.0295   24.6329   24.8426 C   0  0  0  0  0  0  0  0  0  0  0  0
   36.6752   24.3631   25.7614 C   0  0  1  0  0  0  0  0  0  0  0  0
   37.8318   25.1624   25.2626 C   0  0  0  0  0  0  0  0  0  0  0  0
   37.6484   26.5214   25.3062 C   0  0  0  0  0  0  0  0  0  0  0  0
   36.3697   26.9531   25.8376 C   0  0  1  0  0  0  0  0  0  0  0  0
   34.2564   26.9046   24.5251 C   0  0  0  0  0  0  0  0  0  0  0  0
   35.3296   26.2629   25.0952 C   0  0  0  0  0  0  0  0  0  0  0  0
   35.4683   24.9022   25.0361 C   0  0  0  0  0  0  0  0  0  0  0  0
   34.5091   24.1367   24.3896 C   0  0  0  0  0  0  0  0  0  0  0  0
   33.4234   24.7762   23.7875 C   0  0  0  0  0  0  0  0  0  0  0  0
   33.3016   26.1580   23.8546 C   0  0  0  0  0  0  0  0  0  0  0  0
   40.5923   25.6385   28.0815 C   0  0  0  0  0  0  0  0  0  0  0  0
   39.4922   25.9072   29.1016 C   0  0  0  0  0  0  0  0  0  0  0  0
   38.2505   23.6260   28.2464 O   0  0  0  0  0  0  0  0  0  0  0  0
   37.7529   27.9661   28.2504 O   0  0  0  0  0  0  0  0  0  0  0  0
   37.5078   26.7900   28.0387 C   0  0  0  0  0  0  0  0  0  0  0  0
   38.2260   25.7972   28.3949 N   0  0  0  0  0  0  0  0  0  0  0  0
   37.7455   24.6947   28.0184 C   0  0  0  0  0  0  0  0  0  0  0  0
   36.5028   24.8434   27.2111 C   0  0  1  0  0  0  0  0  0  0  0  0
   36.3272   26.3638   27.2408 C   0  0  2  0  0  0  0  0  0  0  0  0
  1  2  1  0  0  0  0
  2  3  1  0  0  0  0
  3 20  1  0  0  0  0
  4  5  1  0  0  0  0
  6  7  2  0  0  0  0
  6 12  1  0  0  0  0
  7  8  1  0  0  0  0
  8  9  2  0  0  0  0
  9 11  1  0  0  0  0
 10  5  1  6  0  0  0
 10 11  1  0  0  0  0
 10 16  1  0  0  0  0
 10 27  1  0  0  0  0
 11 12  2  0  0  0  0
 13 12  1  6  0  0  0
 13 15  1  0  0  0  0
 13 28  1  0  0  0  0
 14 15  2  0  0  0  0
 14 19  1  0  0  0  0
 15 16  1  0  0  0  0
 16 17  2  0  0  0  0
 17 18  1  0  0  0  0
 18 19  2  0  0  0  0
 20 21  1  0  0  0  0
 21 25  1  0  0  0  0
 22 26  2  0  0  0  0
 23 24  2  0  0  0  0
 24 25  1  0  0  0  0
 25 26  1  0  0  0  0
 27 26  1  1  0  0  0
 27 28  1  0  0  0  0
 28 24  1  1  0  0  0
M  END
>  <CHROM.1>
176.72639005,178.07620587,-176.08932514,-173.48977303,-104.10891752,37.84691071
25.44949492,26.42854241,0.06369589,0.43689534,2.84862060

>  <Name>
ligand

>  <RI>
0

>  <Rbt.Current_Directory>
/home/itssahil/PROJECTS/Mol_Feturizer/New_Systems/rnas/1YLS

>  <Rbt.Executable>
rbdock ($Id: //depot/dev/client3/rdock/2013.1/src/exe/rbdock.cxx#4 $)

>  <Rbt.Library>
libRbt.so (2013.1, Build901 2013/11/27)

>  <Rbt.Parameter_File>
/export/apps/rDock/src/rDock_2013.1_src/data/scripts/dock_solv.prm

>  <Rbt.Receptor>
prm/pocket_docking_8.prm

>  <SCORE>
-25.7817

>  <SCORE.INTER>
-20.6849

>  <SCORE.INTER.CONST>
1

>  <SCORE.INTER.POLAR>
0

>  <SCORE.INTER.ROT>
5

>  <SCORE.INTER.SOLV>
8.59302

>  <SCORE.INTER.VDW>
-23.5876

>  <SCORE.INTER.norm>
-0.738748

>  <SCORE.INTRA>
-5.0968

>  <SCORE.INTRA.DIHEDRAL>
-9.21133

>  <SCORE.INTRA.DIHEDRAL.0>
12.0148

>  <SCORE.INTRA.POLAR>
0

>  <SCORE.INTRA.POLAR.0>
0

>  <SCORE.INTRA.REPUL>
0

>  <SCORE.INTRA.REPUL.0>
0

>  <SCORE.INTRA.SOLV>
0.168874

>  <SCORE.INTRA.SOLV.lig_0>
-10.5235

>  <SCORE.INTRA.VDW>
-0.575571

>  <SCORE.INTRA.VDW.0>
-1.38455

>  <SCORE.INTRA.norm>
-0.182029

>  <SCORE.RESTR>
0

>  <SCORE.RESTR.CAVITY>
0

>  <SCORE.RESTR.norm>
0

>  <SCORE.SYSTEM>
0

>  <SCORE.SYSTEM.CONST>
0

>  <SCORE.SYSTEM.DIHEDRAL>
0

>  <SCORE.SYSTEM.SOLV>
0

>  <SCORE.SYSTEM.norm>
0

>  <SCORE.heavy>
28

>  <SCORE.norm>
-0.920776

>  <RMSD>
4.505

$$$$
ligand
 OpenBabel11021811413D
libRbt.so/2013.1/901 2013/11/27
 28 32  0  0  0  0  0  0  0  0999 V2000
   43.6671   26.3500   31.6207 C   0  0  0  0  0  0  0  0  0  0  0  0
   42.2327   25.9453   31.3436 C   0  0  0  0  0  0  0  0  0  0  0  0
   41.8877   26.0750   29.8675 C   0  0  0  0  0  0  0  0  0  0  0  0
   36.5503   21.2221   26.7572 O   0  0  0  0  0  0  0  0  0  0  0  0
   37.1703   22.1455   25.8605 C   0  0  0  0  0  0  0  0  0  0  0  0
   37.3426   26.9319   24.6887 C   0  0  0  0  0  0  0  0  0  0  0  0
   38.3797   26.7031   23.7935 C   0  0  0  0  0  0  0  0  0  0  0  0
   38.8877   25.4104   23.6419 C   0  0  0  0  0  0  0  0  0  0  0  0
   38.3607   24.3491   24.3788 C   0  0  0  0  0  0  0  0  0  0  0  0
   36.6762   23.5750   26.1175 C   0  0  1  0  0  0  0  0  0  0  0  0
   37.3158   24.5962   25.2381 C   0  0  0  0  0  0  0  0  0  0  0  0
   36.8219   25.8677   25.3862 C   0  0  0  0  0  0  0  0  0  0  0  0
   35.7715   26.0085   26.3766 C   0  0  1  0  0  0  0  0  0  0  0  0
   33.4083   25.3460   25.9676 C   0  0  0  0  0  0  0  0  0  0  0  0
   34.7423   25.0315   26.0675 C   0  0  0  0  0  0  0  0  0  0  0  0
   35.1910   23.7462   25.9221 C   0  0  0  0  0  0  0  0  0  0  0  0
   34.2891   22.7233   25.6689 C   0  0  0  0  0  0  0  0  0  0  0  0
   32.9325   23.0304   25.5440 C   0  0  0  0  0  0  0  0  0  0  0  0
   32.4965   24.3407   25.6909 C   0  0  0  0  0  0  0  0  0  0  0  0
   40.4205   25.7434   29.6282 C   0  0  0  0  0  0  0  0  0  0  0  0
   40.0456   26.0030   28.1739 C   0  0  0  0  0  0  0  0  0  0  0  0
   39.2004   23.4305   27.7932 O   0  0  0  0  0  0  0  0  0  0  0  0
   37.6508   27.5028   28.1075 O   0  0  0  0  0  0  0  0  0  0  0  0
   37.6531   26.2905   27.9725 C   0  0  0  0  0  0  0  0  0  0  0  0
   38.6801   25.5336   28.0003 N   0  0  0  0  0  0  0  0  0  0  0  0
   38.3921   24.3225   27.8047 C   0  0  0  0  0  0  0  0  0  0  0  0
   36.9439   24.1017   27.5363 C   0  0  1  0  0  0  0  0  0  0  0  0
   36.4105   25.5300   27.6731 C   0  0  2  0  0  0  0  0  0  0  0  0
  1  2  1  0  0  0  0
  2  3  1  0  0  0  0
  3 20  1  0  0  0  0
  4  5  1  0  0  0  0
  6  7  2  0  0  0  0
  6 12  1  0  0  0  0
  7  8  1  0  0  0  0
  8  9  2  0  0  0  0
  9 11  1  0  0  0  0
 10  5  1  6  0  0  0
 10 11  1  0  0  0  0
 10 16  1  0  0  0  0
 10 27  1  0  0  0  0
 11 12  2  0  0  0  0
 13 12  1  6  0  0  0
 13 15  1  0  0  0  0
 13 28  1  0  0  0  0
 14 15  2  0  0  0  0
 14 19  1  0  0  0  0
 15 16  1  0  0  0  0
 16 17  2  0  0  0  0
 17 18  1  0  0  0  0
 18 19  2  0  0  0  0
 20 21  1  0  0  0  0
 21 25  1  0  0  0  0
 22 26  2  0  0  0  0
 23 24  2  0  0  0  0
 24 25  1  0  0  0  0
 25 26  1  0  0  0  0
 27 26  1  6  0  0  0
 27 28  1  0  0  0  0
 28 24  1  6  0  0  0
M  END
>  <CHROM.1>
-176.60585701,178.34815354,174.57439245,174.23772709,101.37510766,37.62059162
24.91956660,27.00682890,0.11339649,0.61755153,2.52944767

>  <Name>
ligand

>  <RI>
0

>  <Rbt.Current_Directory>
/home/itssahil/PROJECTS/Mol_Feturizer/New_Systems/rnas/1YLS

>  <Rbt.Executable>
rbdock ($Id: //depot/dev/client3/rdock/2013.1/src/exe/rbdock.cxx#4 $)

>  <Rbt.Library>
libRbt.so (2013.1, Build901 2013/11/27)

>  <Rbt.Parameter_File>
/export/apps/rDock/src/rDock_2013.1_src/data/scripts/dock_solv.prm

>  <Rbt.Receptor>
prm/pocket_docking_8.prm

>  <SCORE>
-26.0134

>  <SCORE.INTER>
-21.477

>  <SCORE.INTER.CONST>
1

>  <SCORE.INTER.POLAR>
0

>  <SCORE.INTER.ROT>
5

>  <SCORE.INTER.SOLV>
8.01046

>  <SCORE.INTER.VDW>
-23.9215

>  <SCORE.INTER.norm>
-0.767036

>  <SCORE.INTRA>
-4.5364

>  <SCORE.INTRA.DIHEDRAL>
-9.47914

>  <SCORE.INTRA.DIHEDRAL.0>
12.0148

>  <SCORE.INTRA.POLAR>
0

>  <SCORE.INTRA.POLAR.0>
0

>  <SCORE.INTRA.REPUL>
0

>  <SCORE.INTRA.REPUL.0>
0

>  <SCORE.INTRA.SOLV>
0.161074

>  <SCORE.INTRA.SOLV.lig_0>
-10.5235

>  <SCORE.INTRA.VDW>
0.122632

>  <SCORE.INTRA.VDW.0>
-1.38455

>  <SCORE.INTRA.norm>
-0.162014

>  <SCORE.RESTR>
0

>  <SCORE.RESTR.CAVITY>
0

>  <SCORE.RESTR.norm>
0

>  <SCORE.SYSTEM>
0

>  <SCORE.SYSTEM.CONST>
0

>  <SCORE.SYSTEM.DIHEDRAL>
0

>  <SCORE.SYSTEM.SOLV>
0

>  <SCORE.SYSTEM.norm>
0

>  <SCORE.heavy>
28

>  <SCORE.norm>
-0.929051

>  <RMSD>
4.756

$$$$
ligand
 OpenBabel11021811413D
libRbt.so/2013.1/901 2013/11/27
 28 32  0  0  0  0  0  0  0  0999 V2000
   42.4551   26.1693   33.2671 C   0  0  0  0  0  0  0  0  0  0  0  0
   41.1348   25.8723   32.5840 C   0  0  0  0  0  0  0  0  0  0  0  0
   41.2910   25.7872   31.0730 C   0  0  0  0  0  0  0  0  0  0  0  0
   36.0557   22.0710   26.2861 O   0  0  0  0  0  0  0  0  0  0  0  0
   37.0650   22.8306   25.6188 C   0  0  0  0  0  0  0  0  0  0  0  0
   38.6641   27.4447   24.9365 C   0  0  0  0  0  0  0  0  0  0  0  0
   39.8158   26.9821   24.3128 C   0  0  0  0  0  0  0  0  0  0  0  0
   40.0258   25.6068   24.1843 C   0  0  0  0  0  0  0  0  0  0  0  0
   39.0885   24.6963   24.6735 C   0  0  0  0  0  0  0  0  0  0  0  0
   36.8726   24.3328   25.8641 C   0  0  1  0  0  0  0  0  0  0  0  0
   37.9432   25.1793   25.2622 C   0  0  0  0  0  0  0  0  0  0  0  0
   37.7424   26.5306   25.3891 C   0  0  0  0  0  0  0  0  0  0  0  0
   36.5325   26.9094   26.0938 C   0  0  1  0  0  0  0  0  0  0  0  0
   34.2730   26.8670   25.0525 C   0  0  0  0  0  0  0  0  0  0  0  0
   35.4204   26.2271   25.4558 C   0  0  0  0  0  0  0  0  0  0  0  0
   35.5751   24.8737   25.3190 C   0  0  0  0  0  0  0  0  0  0  0  0
   34.5565   24.1139   24.7627 C   0  0  0  0  0  0  0  0  0  0  0  0
   33.3928   24.7528   24.3292 C   0  0  0  0  0  0  0  0  0  0  0  0
   33.2555   26.1272   24.4728 C   0  0  0  0  0  0  0  0  0  0  0  0
   39.9348   25.6102   30.4025 C   0  0  0  0  0  0  0  0  0  0  0  0
   40.0565   25.7998   28.8952 C   0  0  0  0  0  0  0  0  0  0  0  0
   38.7588   23.5284   28.0991 O   0  0  0  0  0  0  0  0  0  0  0  0
   38.1877   27.8516   28.3595 O   0  0  0  0  0  0  0  0  0  0  0  0
   37.9393   26.6801   28.1272 C   0  0  0  0  0  0  0  0  0  0  0  0
   38.7141   25.6901   28.3468 N   0  0  0  0  0  0  0  0  0  0  0  0
   38.2102   24.5936   27.9836 C   0  0  0  0  0  0  0  0  0  0  0  0
   36.8740   24.7472   27.3441 C   0  0  1  0  0  0  0  0  0  0  0  0
   36.6761   26.2605   27.4635 C   0  0  2  0  0  0  0  0  0  0  0  0
  1  2  1  0  0  0  0
  2  3  1  0  0  0  0
  3 20  1  0  0  0  0
  4  5  1  0  0  0  0
  6  7  2  0  0  0  0
  6 12  1  0  0  0  0
  7  8  1  0  0  0  0
  8  9  2  0  0  0  0
  9 11  1  0  0  0  0
 10  5  1  6  0  0  0
 10 11  1  0  0  0  0
 10 16  1  0  0  0  0
 10 27  1  0  0  0  0
 11 12  2  0  0  0  0
 13 12  1  6  0  0  0
 13 15  1  0  0  0  0
 13 28  1  0  0  0  0
 14 15  2  0  0  0  0
 14 19  1  0  0  0  0
 15 16  1  0  0  0  0
 16 17  2  0  0  0  0
 17 18  1  0  0  0  0
 18 19  2  0  0  0  0
 20 21  1  0  0  0  0
 21 25  1  0  0  0  0
 22 26  2  0  0  0  0
 23 24  2  0  0  0  0
 24 25  1  0  0  0  0
 25 26  1  0  0  0  0
 27 26  1  6  0  0  0
 27 28  1  0  0  0  0
 28 24  1  6  0  0  0
M  END
>  <CHROM.1>
-175.04419698,176.49203175,168.85539287,-176.84589622,93.91814597,37.82569497
25.47290984,27.08556040,0.55084486,0.68426183,2.25002231

>  <Name>
ligand

>  <RI>
0

>  <Rbt.Current_Directory>
/home/itssahil/PROJECTS/Mol_Feturizer/New_Systems/rnas/1YLS

>  <Rbt.Executable>
rbdock ($Id: //depot/dev/client3/rdock/2013.1/src/exe/rbdock.cxx#4 $)

>  <Rbt.Library>
libRbt.so (2013.1, Build901 2013/11/27)

>  <Rbt.Parameter_File>
/export/apps/rDock/src/rDock_2013.1_src/data/scripts/dock_solv.prm

>  <Rbt.Receptor>
prm/pocket_docking_7.prm

>  <SCORE>
-26.5478

>  <SCORE.INTER>
-22.0896

>  <SCORE.INTER.CONST>
1

>  <SCORE.INTER.POLAR>
0

>  <SCORE.INTER.ROT>
5

>  <SCORE.INTER.SOLV>
7.95561

>  <SCORE.INTER.VDW>
-24.3116

>  <SCORE.INTER.norm>
-0.788916

>  <SCORE.INTRA>
-4.45817

>  <SCORE.INTRA.DIHEDRAL>
-9.1263

>  <SCORE.INTRA.DIHEDRAL.0>
12.0148

>  <SCORE.INTRA.POLAR>
0

>  <SCORE.INTRA.POLAR.0>
0

>  <SCORE.INTRA.REPUL>
0

>  <SCORE.INTRA.REPUL.0>
0

>  <SCORE.INTRA.SOLV>
0.155669

>  <SCORE.INTRA.SOLV.lig_0>
-10.5235

>  <SCORE.INTRA.VDW>
0.027144

>  <SCORE.INTRA.VDW.0>
-1.38455

>  <SCORE.INTRA.norm>
-0.15922

>  <SCORE.RESTR>
0

>  <SCORE.RESTR.CAVITY>
0

>  <SCORE.RESTR.norm>
0

>  <SCORE.SYSTEM>
0

>  <SCORE.SYSTEM.CONST>
0

>  <SCORE.SYSTEM.DIHEDRAL>
0

>  <SCORE.SYSTEM.SOLV>
0

>  <SCORE.SYSTEM.norm>
0

>  <SCORE.heavy>
28

>  <SCORE.norm>
-0.948136

>  <RMSD>
5.267

$$$$
ligand
 OpenBabel11021811413D
libRbt.so/2013.1/901 2013/11/27
 28 32  0  0  0  0  0  0  0  0999 V2000
   31.8154   23.5539   23.5556 C   0  0  0  0  0  0  0  0  0  0  0  0
   33.1251   23.7052   24.3037 C   0  0  0  0  0  0  0  0  0  0  0  0
   33.7246   25.0903   24.1120 C   0  0  0  0  0  0  0  0  0  0  0  0
   41.6617   24.7445   25.5556 O   0  0  0  0  0  0  0  0  0  0  0  0
   40.7821   25.8703   25.5484 C   0  0  0  0  0  0  0  0  0  0  0  0
   37.0281   23.3221   27.4789 C   0  0  0  0  0  0  0  0  0  0  0  0
   37.0406   22.4393   26.4066 C   0  0  0  0  0  0  0  0  0  0  0  0
   37.9545   22.6294   25.3670 C   0  0  0  0  0  0  0  0  0  0  0  0
   38.8551   23.6948   25.3989 C   0  0  0  0  0  0  0  0  0  0  0  0
   39.7141   25.7386   26.6419 C   0  0  1  0  0  0  0  0  0  0  0  0
   38.8417   24.5388   26.4847 C   0  0  0  0  0  0  0  0  0  0  0  0
   37.9405   24.3503   27.5019 C   0  0  0  0  0  0  0  0  0  0  0  0
   37.9789   25.3509   28.5514 C   0  0  1  0  0  0  0  0  0  0  0  0
   39.7029   25.3860   30.3451 C   0  0  0  0  0  0  0  0  0  0  0  0
   39.3509   25.4458   29.0181 C   0  0  0  0  0  0  0  0  0  0  0  0
   40.2828   25.6452   28.0351 C   0  0  0  0  0  0  0  0  0  0  0  0
   41.6205   25.7945   28.3704 C   0  0  0  0  0  0  0  0  0  0  0  0
   41.9964   25.7155   29.7130 C   0  0  0  0  0  0  0  0  0  0  0  0
   41.0373   25.5089   30.6959 C   0  0  0  0  0  0  0  0  0  0  0  0
   35.0457   25.2115   24.8603 C   0  0  0  0  0  0  0  0  0  0  0  0
   35.5510   26.6488   24.8206 C   0  0  0  0  0  0  0  0  0  0  0  0
   38.2105   27.1306   24.4054 O   0  0  0  0  0  0  0  0  0  0  0  0
   35.3590   26.3719   27.6269 O   0  0  0  0  0  0  0  0  0  0  0  0
   36.4225   26.6026   27.0757 C   0  0  0  0  0  0  0  0  0  0  0  0
   36.6010   26.7544   25.8212 N   0  0  0  0  0  0  0  0  0  0  0  0
   37.8098   26.9551   25.5269 C   0  0  0  0  0  0  0  0  0  0  0  0
   38.7155   26.9049   26.7081 C   0  0  1  0  0  0  0  0  0  0  0  0
   37.7027   26.6631   27.8303 C   0  0  2  0  0  0  0  0  0  0  0  0
  1  2  1  0  0  0  0
  2  3  1  0  0  0  0
  3 20  1  0  0  0  0
  4  5  1  0  0  0  0
  6  7  2  0  0  0  0
  6 12  1  0  0  0  0
  7  8  1  0  0  0  0
  8  9  2  0  0  0  0
  9 11  1  0  0  0  0
 10  5  1  6  0  0  0
 10 11  1  0  0  0  0
 10 16  1  0  0  0  0
 10 27  1  0  0  0  0
 11 12  2  0  0  0  0
 13 12  1  6  0  0  0
 13 15  1  0  0  0  0
 13 28  1  0  0  0  0
 14 15  2  0  0  0  0
 14 19  1  0  0  0  0
 15 16  1  0  0  0  0
 16 17  2  0  0  0  0
 17 18  1  0  0  0  0
 18 19  2  0  0  0  0
 20 21  1  0  0  0  0
 21 25  1  0  0  0  0
 22 26  2  0  0  0  0
 23 24  2  0  0  0  0
 24 25  1  0  0  0  0
 25 26  1  0  0  0  0
 27 26  1  6  0  0  0
 27 28  1  0  0  0  0
 28 24  1  6  0  0  0
M  END
>  <CHROM.1>
-179.38108616,-60.87049470,-172.51358462,165.65267026,-63.76852153,37.82127126
25.30676425,26.60114317,2.61083252,-0.09190748,-1.63761676

>  <Name>
ligand

>  <RI>
0

>  <Rbt.Current_Directory>
/home/itssahil/PROJECTS/Mol_Feturizer/New_Systems/rnas/1YLS

>  <Rbt.Executable>
rbdock ($Id: //depot/dev/client3/rdock/2013.1/src/exe/rbdock.cxx#4 $)

>  <Rbt.Library>
libRbt.so (2013.1, Build901 2013/11/27)

>  <Rbt.Parameter_File>
/export/apps/rDock/src/rDock_2013.1_src/data/scripts/dock_solv.prm

>  <Rbt.Receptor>
prm/pocket_docking_8.prm

>  <SCORE>
-23.6194

>  <SCORE.INTER>
-18.8813

>  <SCORE.INTER.CONST>
1

>  <SCORE.INTER.POLAR>
0

>  <SCORE.INTER.ROT>
5

>  <SCORE.INTER.SOLV>
7.36587

>  <SCORE.INTER.VDW>
-21.9762

>  <SCORE.INTER.norm>
-0.674333

>  <SCORE.INTRA>
-4.73806

>  <SCORE.INTRA.DIHEDRAL>
-8.5858

>  <SCORE.INTRA.DIHEDRAL.0>
12.0148

>  <SCORE.INTRA.POLAR>
0

>  <SCORE.INTRA.POLAR.0>
0

>  <SCORE.INTRA.REPUL>
0

>  <SCORE.INTRA.REPUL.0>
0

>  <SCORE.INTRA.SOLV>
-0.00543107

>  <SCORE.INTRA.SOLV.lig_0>
-10.5235

>  <SCORE.INTRA.VDW>
-0.442443

>  <SCORE.INTRA.VDW.0>
-1.38455

>  <SCORE.INTRA.norm>
-0.169216

>  <SCORE.RESTR>
0

>  <SCORE.RESTR.CAVITY>
0

>  <SCORE.RESTR.norm>
0

>  <SCORE.SYSTEM>
0

>  <SCORE.SYSTEM.CONST>
0

>  <SCORE.SYSTEM.DIHEDRAL>
0

>  <SCORE.SYSTEM.SOLV>
0

>  <SCORE.SYSTEM.norm>
0

>  <SCORE.heavy>
28

>  <SCORE.norm>
-0.843549

>  <RMSD>
5.421

$$$$
ligand
 OpenBabel11021811413D
libRbt.so/2013.1/901 2013/11/27
 28 32  0  0  0  0  0  0  0  0999 V2000
   39.2250   22.6516   32.7610 C   0  0  0  0  0  0  0  0  0  0  0  0
   39.4861   24.0881   32.3532 C   0  0  0  0  0  0  0  0  0  0  0  0
   39.7940   24.2031   30.8677 C   0  0  0  0  0  0  0  0  0  0  0  0
   36.4127   22.0603   25.9491 O   0  0  0  0  0  0  0  0  0  0  0  0
   37.4536   22.8983   25.4436 C   0  0  0  0  0  0  0  0  0  0  0  0
   38.8430   27.6165   25.0974 C   0  0  0  0  0  0  0  0  0  0  0  0
   40.0288   27.2497   24.4740 C   0  0  0  0  0  0  0  0  0  0  0  0
   40.3076   25.8969   24.2631 C   0  0  0  0  0  0  0  0  0  0  0  0
   39.4048   24.9138   24.6698 C   0  0  0  0  0  0  0  0  0  0  0  0
   37.1838   24.3706   25.7797 C   0  0  1  0  0  0  0  0  0  0  0  0
   38.2252   25.3036   25.2597 C   0  0  0  0  0  0  0  0  0  0  0  0
   37.9568   26.6329   25.4677 C   0  0  0  0  0  0  0  0  0  0  0  0
   36.7151   26.9082   26.1651 C   0  0  1  0  0  0  0  0  0  0  0  0
   34.4833   26.8282   25.0678 C   0  0  0  0  0  0  0  0  0  0  0  0
   35.6512   26.2177   25.4575 C   0  0  0  0  0  0  0  0  0  0  0  0
   35.8738   24.8847   25.2383 C   0  0  0  0  0  0  0  0  0  0  0  0
   34.9053   24.1160   24.6097 C   0  0  0  0  0  0  0  0  0  0  0  0
   33.7218   24.7267   24.1892 C   0  0  0  0  0  0  0  0  0  0  0  0
   33.5155   26.0810   24.4170 C   0  0  0  0  0  0  0  0  0  0  0  0
   40.0564   25.6539   30.4849 C   0  0  0  0  0  0  0  0  0  0  0  0
   40.2270   25.7844   28.9760 C   0  0  0  0  0  0  0  0  0  0  0  0
   39.0578   23.5115   28.0045 O   0  0  0  0  0  0  0  0  0  0  0  0
   38.2737   27.7772   28.5265 O   0  0  0  0  0  0  0  0  0  0  0  0
   38.0870   26.6130   28.2138 C   0  0  0  0  0  0  0  0  0  0  0  0
   38.9036   25.6481   28.3887 N   0  0  0  0  0  0  0  0  0  0  0  0
   38.4611   24.5552   27.9438 C   0  0  0  0  0  0  0  0  0  0  0  0
   37.1332   24.6875   27.2827 C   0  0  1  0  0  0  0  0  0  0  0  0
   36.8602   26.1790   27.4937 C   0  0  2  0  0  0  0  0  0  0  0  0
  1  2  1  0  0  0  0
  2  3  1  0  0  0  0
  3 20  1  0  0  0  0
  4  5  1  0  0  0  0
  6  7  2  0  0  0  0
  6 12  1  0  0  0  0
  7  8  1  0  0  0  0
  8  9  2  0  0  0  0
  9 11  1  0  0  0  0
 10  5  1  6  0  0  0
 10 11  1  0  0  0  0
 10 16  1  0  0  0  0
 10 27  1  0  0  0  0
 11 12  2  0  0  0  0
 13 12  1  6  0  0  0
 13 15  1  0  0  0  0
 13 28  1  0  0  0  0
 14 15  2  0  0  0  0
 14 19  1  0  0  0  0
 15 16  1  0  0  0  0
 16 17  2  0  0  0  0
 17 18  1  0  0  0  0
 18 19  2  0  0  0  0
 20 21  1  0  0  0  0
 21 25  1  0  0  0  0
 22 26  2  0  0  0  0
 23 24  2  0  0  0  0
 24 25  1  0  0  0  0
 25 26  1  0  0  0  0
 27 26  1  6  0  0  0
 27 28  1  0  0  0  0
 28 24  1  6  0  0  0
M  END
>  <CHROM.1>
-179.82703046,-179.07221100,-174.37282869,74.08217528,87.41678807,37.78766054
25.22490563,27.03986044,0.88294701,0.62214388,2.18848671

>  <Name>
ligand

>  <RI>
0

>  <Rbt.Current_Directory>
/home/itssahil/PROJECTS/Mol_Feturizer/New_Systems/rnas/1YLS

>  <Rbt.Executable>
rbdock ($Id: //depot/dev/client3/rdock/2013.1/src/exe/rbdock.cxx#4 $)

>  <Rbt.Library>
libRbt.so (2013.1, Build901 2013/11/27)

>  <Rbt.Parameter_File>
/export/apps/rDock/src/rDock_2013.1_src/data/scripts/dock_solv.prm

>  <Rbt.Receptor>
prm/pocket_docking_8.prm

>  <SCORE>
-25.8329

>  <SCORE.INTER>
-21.5392

>  <SCORE.INTER.CONST>
1

>  <SCORE.INTER.POLAR>
0

>  <SCORE.INTER.ROT>
5

>  <SCORE.INTER.SOLV>
7.36643

>  <SCORE.INTER.VDW>
-23.7483

>  <SCORE.INTER.norm>
-0.769256

>  <SCORE.INTRA>
-4.29371

>  <SCORE.INTRA.DIHEDRAL>
-8.94169

>  <SCORE.INTRA.DIHEDRAL.0>
12.0148

>  <SCORE.INTRA.POLAR>
0

>  <SCORE.INTRA.POLAR.0>
0

>  <SCORE.INTRA.REPUL>
0

>  <SCORE.INTRA.REPUL.0>
0

>  <SCORE.INTRA.SOLV>
0.452423

>  <SCORE.INTRA.SOLV.lig_0>
-10.5235

>  <SCORE.INTRA.VDW>
-0.0490807

>  <SCORE.INTRA.VDW.0>
-1.38455

>  <SCORE.INTRA.norm>
-0.153347

>  <SCORE.RESTR>
0

>  <SCORE.RESTR.CAVITY>
0

>  <SCORE.RESTR.norm>
0

>  <SCORE.SYSTEM>
0

>  <SCORE.SYSTEM.CONST>
0

>  <SCORE.SYSTEM.DIHEDRAL>
0

>  <SCORE.SYSTEM.SOLV>
0

>  <SCORE.SYSTEM.norm>
0

>  <SCORE.heavy>
28

>  <SCORE.norm>
-0.922603

>  <RMSD>
5.447

$$$$
ligand
 OpenBabel11021811413D
libRbt.so/2013.1/901 2013/11/27
 28 32  0  0  0  0  0  0  0  0999 V2000
   34.2934   26.6183   25.1864 C   0  0  0  0  0  0  0  0  0  0  0  0
   35.0588   26.3190   26.4602 C   0  0  0  0  0  0  0  0  0  0  0  0
   36.2107   25.3570   26.2102 C   0  0  0  0  0  0  0  0  0  0  0  0
   40.7629   28.0534   23.3052 O   0  0  0  0  0  0  0  0  0  0  0  0
   39.9663   26.8725   23.4147 C   0  0  0  0  0  0  0  0  0  0  0  0
   39.5605   22.6579   25.9416 C   0  0  0  0  0  0  0  0  0  0  0  0
   38.3627   22.3598   25.3047 C   0  0  0  0  0  0  0  0  0  0  0  0
   37.8340   23.2581   24.3742 C   0  0  0  0  0  0  0  0  0  0  0  0
   38.4998   24.4480   24.0779 C   0  0  0  0  0  0  0  0  0  0  0  0
   40.5029   25.9496   24.5166 C   0  0  1  0  0  0  0  0  0  0  0  0
   39.6979   24.7074   24.7012 C   0  0  0  0  0  0  0  0  0  0  0  0
   40.2120   23.8240   25.6166 C   0  0  0  0  0  0  0  0  0  0  0  0
   41.4422   24.2482   26.2575 C   0  0  1  0  0  0  0  0  0  0  0  0
   43.6723   24.1121   25.1624 C   0  0  0  0  0  0  0  0  0  0  0  0
   42.3866   24.5949   25.2099 C   0  0  0  0  0  0  0  0  0  0  0  0
   41.9172   25.4836   24.2802 C   0  0  0  0  0  0  0  0  0  0  0  0
   42.7483   25.9193   23.2587 C   0  0  0  0  0  0  0  0  0  0  0  0
   44.0511   25.4217   23.1851 C   0  0  0  0  0  0  0  0  0  0  0  0
   44.5083   24.5179   24.1352 C   0  0  0  0  0  0  0  0  0  0  0  0
   36.8447   24.9255   27.5263 C   0  0  0  0  0  0  0  0  0  0  0  0
   37.6241   26.0794   28.1460 C   0  0  0  0  0  0  0  0  0  0  0  0
   38.3731   27.5506   25.9661 O   0  0  0  0  0  0  0  0  0  0  0  0
   39.9556   24.6172   28.7902 O   0  0  0  0  0  0  0  0  0  0  0  0
   39.9254   25.3974   27.8529 C   0  0  0  0  0  0  0  0  0  0  0  0
   38.9253   26.1058   27.4972 N   0  0  0  0  0  0  0  0  0  0  0  0
   39.1671   26.8028   26.4755 C   0  0  0  0  0  0  0  0  0  0  0  0
   40.5302   26.5742   25.9206 C   0  0  1  0  0  0  0  0  0  0  0  0
   41.0807   25.5648   26.9313 C   0  0  2  0  0  0  0  0  0  0  0  0
  1  2  1  0  0  0  0
  2  3  1  0  0  0  0
  3 20  1  0  0  0  0
  4  5  1  0  0  0  0
  6  7  2  0  0  0  0
  6 12  1  0  0  0  0
  7  8  1  0  0  0  0
  8  9  2  0  0  0  0
  9 11  1  0  0  0  0
 10  5  1  6  0  0  0
 10 11  1  0  0  0  0
 10 16  1  0  0  0  0
 10 27  1  0  0  0  0
 11 12  2  0  0  0  0
 13 12  1  6  0  0  0
 13 15  1  0  0  0  0
 13 28  1  0  0  0  0
 14 15  2  0  0  0  0
 14 19  1  0  0  0  0
 15 16  1  0  0  0  0
 16 17  2  0  0  0  0
 17 18  1  0  0  0  0
 18 19  2  0  0  0  0
 20 21  1  0  0  0  0
 21 25  1  0  0  0  0
 22 26  2  0  0  0  0
 23 24  2  0  0  0  0
 24 25  1  0  0  0  0
 25 26  1  0  0  0  0
 27 26  1  1  0  0  0
 27 28  1  0  0  0  0
 28 24  1  1  0  0  0
M  END
>  <CHROM.1>
-172.35388492,178.86650007,-71.27225664,-82.33594744,-84.87238250,39.67395661
25.37850068,25.61176759,2.94775899,-0.28058963,2.25871074

>  <Name>
ligand

>  <RI>
0

>  <Rbt.Current_Directory>
/home/itssahil/PROJECTS/Mol_Feturizer/New_Systems/rnas/1YLS

>  <Rbt.Executable>
rbdock ($Id: //depot/dev/client3/rdock/2013.1/src/exe/rbdock.cxx#4 $)

>  <Rbt.Library>
libRbt.so (2013.1, Build901 2013/11/27)

>  <Rbt.Parameter_File>
/export/apps/rDock/src/rDock_2013.1_src/data/scripts/dock_solv.prm

>  <Rbt.Receptor>
prm/pocket_docking_4.prm

>  <SCORE>
-24.1496

>  <SCORE.INTER>
-19.9186

>  <SCORE.INTER.CONST>
1

>  <SCORE.INTER.POLAR>
0

>  <SCORE.INTER.ROT>
5

>  <SCORE.INTER.SOLV>
7.43733

>  <SCORE.INTER.VDW>
-22.6915

>  <SCORE.INTER.norm>
-0.71138

>  <SCORE.INTRA>
-4.23097

>  <SCORE.INTRA.DIHEDRAL>
-6.98599

>  <SCORE.INTRA.DIHEDRAL.0>
12.0148

>  <SCORE.INTRA.POLAR>
0

>  <SCORE.INTRA.POLAR.0>
0

>  <SCORE.INTRA.REPUL>
0

>  <SCORE.INTRA.REPUL.0>
0

>  <SCORE.INTRA.SOLV>
0.555072

>  <SCORE.INTRA.SOLV.lig_0>
-10.5235

>  <SCORE.INTRA.VDW>
-1.01551

>  <SCORE.INTRA.VDW.0>
-1.38455

>  <SCORE.INTRA.norm>
-0.151106

>  <SCORE.RESTR>
0

>  <SCORE.RESTR.CAVITY>
0

>  <SCORE.RESTR.norm>
0

>  <SCORE.SYSTEM>
0

>  <SCORE.SYSTEM.CONST>
0

>  <SCORE.SYSTEM.DIHEDRAL>
0

>  <SCORE.SYSTEM.SOLV>
0

>  <SCORE.SYSTEM.norm>
0

>  <SCORE.heavy>
28

>  <SCORE.norm>
-0.862486

>  <RMSD>
5.502

$$$$
ligand
 OpenBabel11021811413D
libRbt.so/2013.1/901 2013/11/27
 28 32  0  0  0  0  0  0  0  0999 V2000
   35.3641   22.8075   26.1963 C   0  0  0  0  0  0  0  0  0  0  0  0
   36.5513   22.8003   27.1387 C   0  0  0  0  0  0  0  0  0  0  0  0
   37.1334   24.1944   27.3193 C   0  0  0  0  0  0  0  0  0  0  0  0
   38.6229   26.2231   22.0784 O   0  0  0  0  0  0  0  0  0  0  0  0
   38.7770   26.7872   23.3820 C   0  0  0  0  0  0  0  0  0  0  0  0
   40.6666   22.7934   25.5710 C   0  0  0  0  0  0  0  0  0  0  0  0
   39.4664   22.1105   25.4217 C   0  0  0  0  0  0  0  0  0  0  0  0
   38.3761   22.7529   24.8295 C   0  0  0  0  0  0  0  0  0  0  0  0
   38.4840   24.0711   24.3849 C   0  0  0  0  0  0  0  0  0  0  0  0
   39.9475   26.1331   24.1273 C   0  0  1  0  0  0  0  0  0  0  0  0
   39.6910   24.7166   24.5187 C   0  0  0  0  0  0  0  0  0  0  0  0
   40.7582   24.0831   25.1036 C   0  0  0  0  0  0  0  0  0  0  0  0
   41.9502   24.8961   25.2529 C   0  0  1  0  0  0  0  0  0  0  0  0
   43.5146   25.3863   23.3813 C   0  0  0  0  0  0  0  0  0  0  0  0
   42.2659   25.4564   23.9507 C   0  0  0  0  0  0  0  0  0  0  0  0
   41.2306   26.1078   23.3358 C   0  0  0  0  0  0  0  0  0  0  0  0
   41.4308   26.7196   22.1071 C   0  0  0  0  0  0  0  0  0  0  0  0
   42.6888   26.6393   21.5061 C   0  0  0  0  0  0  0  0  0  0  0  0
   43.7259   25.9708   22.1434 C   0  0  0  0  0  0  0  0  0  0  0  0
   38.3127   24.1627   28.2828 C   0  0  0  0  0  0  0  0  0  0  0  0
   38.7951   25.5773   28.5815 C   0  0  0  0  0  0  0  0  0  0  0  0
   38.1655   27.0857   26.3894 O   0  0  0  0  0  0  0  0  0  0  0  0
   41.5176   24.9321   28.1808 O   0  0  0  0  0  0  0  0  0  0  0  0
   40.8951   25.6137   27.3834 C   0  0  0  0  0  0  0  0  0  0  0  0
   39.6723   25.9633   27.4878 N   0  0  0  0  0  0  0  0  0  0  0  0
   39.2796   26.6441   26.5027 C   0  0  0  0  0  0  0  0  0  0  0  0
   40.3238   26.8117   25.4540 C   0  0  1  0  0  0  0  0  0  0  0  0
   41.4975   26.0746   26.1040 C   0  0  2  0  0  0  0  0  0  0  0  0
  1  2  1  0  0  0  0
  2  3  1  0  0  0  0
  3 20  1  0  0  0  0
  4  5  1  0  0  0  0
  6  7  2  0  0  0  0
  6 12  1  0  0  0  0
  7  8  1  0  0  0  0
  8  9  2  0  0  0  0
  9 11  1  0  0  0  0
 10  5  1  6  0  0  0
 10 11  1  0  0  0  0
 10 16  1  0  0  0  0
 10 27  1  0  0  0  0
 11 12  2  0  0  0  0
 13 12  1  6  0  0  0
 13 15  1  0  0  0  0
 13 28  1  0  0  0  0
 14 15  2  0  0  0  0
 14 19  1  0  0  0  0
 15 16  1  0  0  0  0
 16 17  2  0  0  0  0
 17 18  1  0  0  0  0
 18 19  2  0  0  0  0
 20 21  1  0  0  0  0
 21 25  1  0  0  0  0
 22 26  2  0  0  0  0
 23 24  2  0  0  0  0
 24 25  1  0  0  0  0
 25 26  1  0  0  0  0
 27 26  1  1  0  0  0
 27 28  1  0  0  0  0
 28 24  1  1  0  0  0
M  END
>  <CHROM.1>
179.30447372,-69.66458144,-173.73357899,-82.59076184,-80.41108731,39.86513986
25.13717861,25.30021473,2.39532165,0.38602123,1.64944022

>  <Name>
ligand

>  <RI>
0

>  <Rbt.Current_Directory>
/home/itssahil/PROJECTS/Mol_Feturizer/New_Systems/rnas/1YLS

>  <Rbt.Executable>
rbdock ($Id: //depot/dev/client3/rdock/2013.1/src/exe/rbdock.cxx#4 $)

>  <Rbt.Library>
libRbt.so (2013.1, Build901 2013/11/27)

>  <Rbt.Parameter_File>
/export/apps/rDock/src/rDock_2013.1_src/data/scripts/dock_solv.prm

>  <Rbt.Receptor>
prm/pocket_docking_6.prm

>  <SCORE>
-29.2186

>  <SCORE.INTER>
-24.3367

>  <SCORE.INTER.CONST>
1

>  <SCORE.INTER.POLAR>
0

>  <SCORE.INTER.ROT>
5

>  <SCORE.INTER.SOLV>
8.80108

>  <SCORE.INTER.VDW>
-26.0915

>  <SCORE.INTER.norm>
-0.869167

>  <SCORE.INTRA>
-4.88188

>  <SCORE.INTRA.DIHEDRAL>
-7.28288

>  <SCORE.INTRA.DIHEDRAL.0>
12.0148

>  <SCORE.INTRA.POLAR>
0

>  <SCORE.INTRA.POLAR.0>
0

>  <SCORE.INTRA.REPUL>
0

>  <SCORE.INTRA.REPUL.0>
0

>  <SCORE.INTRA.SOLV>
0.168494

>  <SCORE.INTRA.SOLV.lig_0>
-10.5235

>  <SCORE.INTRA.VDW>
-1.32469

>  <SCORE.INTRA.VDW.0>
-1.38455

>  <SCORE.INTRA.norm>
-0.174353

>  <SCORE.RESTR>
0

>  <SCORE.RESTR.CAVITY>
0

>  <SCORE.RESTR.norm>
0

>  <SCORE.SYSTEM>
0

>  <SCORE.SYSTEM.CONST>
0

>  <SCORE.SYSTEM.DIHEDRAL>
0

>  <SCORE.SYSTEM.SOLV>
0

>  <SCORE.SYSTEM.norm>
0

>  <SCORE.heavy>
28

>  <SCORE.norm>
-1.04352

>  <RMSD>
5.557

$$$$
ligand
 OpenBabel11021811413D
libRbt.so/2013.1/901 2013/11/27
 28 32  0  0  0  0  0  0  0  0999 V2000
   32.4372   25.9736   26.0299 C   0  0  0  0  0  0  0  0  0  0  0  0
   33.9088   25.6688   25.8313 C   0  0  0  0  0  0  0  0  0  0  0  0
   34.7912   26.6124   26.6349 C   0  0  0  0  0  0  0  0  0  0  0  0
   41.5408   27.2566   23.1924 O   0  0  0  0  0  0  0  0  0  0  0  0
   40.5347   26.2507   23.3228 C   0  0  0  0  0  0  0  0  0  0  0  0
   38.6720   22.9872   26.5154 C   0  0  0  0  0  0  0  0  0  0  0  0
   37.5992   22.7325   25.6708 C   0  0  0  0  0  0  0  0  0  0  0  0
   37.4931   23.4255   24.4621 C   0  0  0  0  0  0  0  0  0  0  0  0
   38.4558   24.3668   24.0961 C   0  0  0  0  0  0  0  0  0  0  0  0
   40.6068   25.5787   24.7001 C   0  0  1  0  0  0  0  0  0  0  0  0
   39.5232   24.5809   24.9365 C   0  0  0  0  0  0  0  0  0  0  0  0
   39.6219   23.9006   26.1238 C   0  0  0  0  0  0  0  0  0  0  0  0
   40.7531   24.2707   26.9530 C   0  0  1  0  0  0  0  0  0  0  0  0
   43.0748   23.4818   26.5305 C   0  0  0  0  0  0  0  0  0  0  0  0
   41.9496   24.1653   26.1365 C   0  0  0  0  0  0  0  0  0  0  0  0
   41.8977   24.8395   24.9460 C   0  0  0  0  0  0  0  0  0  0  0  0
   43.0009   24.8443   24.1053 C   0  0  0  0  0  0  0  0  0  0  0  0
   44.1445   24.1370   24.4824 C   0  0  0  0  0  0  0  0  0  0  0  0
   44.1772   23.4558   25.6922 C   0  0  0  0  0  0  0  0  0  0  0  0
   36.2568   26.2191   26.5032 C   0  0  0  0  0  0  0  0  0  0  0  0
   37.1339   27.1428   27.3401 C   0  0  0  0  0  0  0  0  0  0  0  0
   38.6347   27.8365   25.1621 O   0  0  0  0  0  0  0  0  0  0  0  0
   38.8891   25.5404   28.8698 O   0  0  0  0  0  0  0  0  0  0  0  0
   39.2323   26.0370   27.8098 C   0  0  0  0  0  0  0  0  0  0  0  0
   38.5144   26.7803   27.0612 N   0  0  0  0  0  0  0  0  0  0  0  0
   39.1154   27.1306   26.0105 C   0  0  0  0  0  0  0  0  0  0  0  0
   40.4778   26.5407   25.8917 C   0  0  1  0  0  0  0  0  0  0  0  0
   40.5629   25.7600   27.2057 C   0  0  2  0  0  0  0  0  0  0  0  0
  1  2  1  0  0  0  0
  2  3  1  0  0  0  0
  3 20  1  0  0  0  0
  4  5  1  0  0  0  0
  6  7  2  0  0  0  0
  6 12  1  0  0  0  0
  7  8  1  0  0  0  0
  8  9  2  0  0  0  0
  9 11  1  0  0  0  0
 10  5  1  6  0  0  0
 10 11  1  0  0  0  0
 10 16  1  0  0  0  0
 10 27  1  0  0  0  0
 11 12  2  0  0  0  0
 13 12  1  6  0  0  0
 13 15  1  0  0  0  0
 13 28  1  0  0  0  0
 14 15  2  0  0  0  0
 14 19  1  0  0  0  0
 15 16  1  0  0  0  0
 16 17  2  0  0  0  0
 17 18  1  0  0  0  0
 18 19  2  0  0  0  0
 20 21  1  0  0  0  0
 21 25  1  0  0  0  0
 22 26  2  0  0  0  0
 23 24  2  0  0  0  0
 24 25  1  0  0  0  0
 25 26  1  0  0  0  0
 27 26  1  6  0  0  0
 27 28  1  0  0  0  0
 28 24  1  6  0  0  0
M  END
>  <CHROM.1>
175.66307048,176.08019475,-178.43719620,-174.81684733,-99.38360344,39.27135602
25.36771183,25.81159824,3.08505020,0.23697464,-0.61940894

>  <Name>
ligand

>  <RI>
0

>  <Rbt.Current_Directory>
/home/itssahil/PROJECTS/Mol_Feturizer/New_Systems/rnas/1YLS

>  <Rbt.Executable>
rbdock ($Id: //depot/dev/client3/rdock/2013.1/src/exe/rbdock.cxx#4 $)

>  <Rbt.Library>
libRbt.so (2013.1, Build901 2013/11/27)

>  <Rbt.Parameter_File>
/export/apps/rDock/src/rDock_2013.1_src/data/scripts/dock_solv.prm

>  <Rbt.Receptor>
prm/pocket_docking_5.prm

>  <SCORE>
-23.3407

>  <SCORE.INTER>
-18.1037

>  <SCORE.INTER.CONST>
1

>  <SCORE.INTER.POLAR>
0

>  <SCORE.INTER.ROT>
5

>  <SCORE.INTER.SOLV>
7.16962

>  <SCORE.INTER.VDW>
-21.3923

>  <SCORE.INTER.norm>
-0.646559

>  <SCORE.INTRA>
-5.23708

>  <SCORE.INTRA.DIHEDRAL>
-9.22752

>  <SCORE.INTRA.DIHEDRAL.0>
12.0148

>  <SCORE.INTRA.POLAR>
0

>  <SCORE.INTRA.POLAR.0>
0

>  <SCORE.INTRA.REPUL>
0

>  <SCORE.INTRA.REPUL.0>
0

>  <SCORE.INTRA.SOLV>
0.174247

>  <SCORE.INTRA.SOLV.lig_0>
-10.5235

>  <SCORE.INTRA.VDW>
-0.710441

>  <SCORE.INTRA.VDW.0>
-1.38455

>  <SCORE.INTRA.norm>
-0.187038

>  <SCORE.RESTR>
0

>  <SCORE.RESTR.CAVITY>
0

>  <SCORE.RESTR.norm>
0

>  <SCORE.SYSTEM>
0

>  <SCORE.SYSTEM.CONST>
0

>  <SCORE.SYSTEM.DIHEDRAL>
0

>  <SCORE.SYSTEM.SOLV>
0

>  <SCORE.SYSTEM.norm>
0

>  <SCORE.heavy>
28

>  <SCORE.norm>
-0.833597

>  <RMSD>
5.647

$$$$
ligand
 OpenBabel11021811413D
libRbt.so/2013.1/901 2013/11/27
 28 32  0  0  0  0  0  0  0  0999 V2000
   32.3931   22.6219   25.6859 C   0  0  0  0  0  0  0  0  0  0  0  0
   33.8597   22.9665   25.8543 C   0  0  0  0  0  0  0  0  0  0  0  0
   34.0598   24.4487   26.1333 C   0  0  0  0  0  0  0  0  0  0  0  0
   40.9980   25.8722   22.9316 O   0  0  0  0  0  0  0  0  0  0  0  0
   40.0379   26.5910   23.7078 C   0  0  0  0  0  0  0  0  0  0  0  0
   38.9572   23.0745   26.9909 C   0  0  0  0  0  0  0  0  0  0  0  0
   38.3173   22.3219   26.0146 C   0  0  0  0  0  0  0  0  0  0  0  0
   38.2317   22.8141   24.7098 C   0  0  0  0  0  0  0  0  0  0  0  0
   38.7856   24.0516   24.3796 C   0  0  0  0  0  0  0  0  0  0  0  0
   40.0445   26.1146   25.1661 C   0  0  1  0  0  0  0  0  0  0  0  0
   39.4382   24.7651   25.3575 C   0  0  0  0  0  0  0  0  0  0  0  0
   39.5173   24.2795   26.6382 C   0  0  0  0  0  0  0  0  0  0  0  0
   40.1654   25.1601   27.5914 C   0  0  1  0  0  0  0  0  0  0  0  0
   42.6343   25.4277   27.7468 C   0  0  0  0  0  0  0  0  0  0  0  0
   41.4588   25.5269   27.0418 C   0  0  0  0  0  0  0  0  0  0  0  0
   41.4242   26.0270   25.7679 C   0  0  0  0  0  0  0  0  0  0  0  0
   42.5964   26.4506   25.1592 C   0  0  0  0  0  0  0  0  0  0  0  0
   43.8018   26.3369   25.8552 C   0  0  0  0  0  0  0  0  0  0  0  0
   43.8176   25.8235   27.1454 C   0  0  0  0  0  0  0  0  0  0  0  0
   35.5353   24.7598   26.3481 C   0  0  0  0  0  0  0  0  0  0  0  0
   35.7141   26.1997   26.8146 C   0  0  0  0  0  0  0  0  0  0  0  0
   37.2773   27.3212   24.8714 O   0  0  0  0  0  0  0  0  0  0  0  0
   37.5465   25.6272   28.8891 O   0  0  0  0  0  0  0  0  0  0  0  0
   37.9012   26.1481   27.8447 C   0  0  0  0  0  0  0  0  0  0  0  0
   37.1454   26.4526   26.8626 N   0  0  0  0  0  0  0  0  0  0  0  0
   37.7848   26.9544   25.8995 C   0  0  0  0  0  0  0  0  0  0  0  0
   39.2542   27.0064   26.1367 C   0  0  1  0  0  0  0  0  0  0  0  0
   39.3317   26.4335   27.5542 C   0  0  2  0  0  0  0  0  0  0  0  0
  1  2  1  0  0  0  0
  2  3  1  0  0  0  0
  3 20  1  0  0  0  0
  4  5  1  0  0  0  0
  6  7  2  0  0  0  0
  6 12  1  0  0  0  0
  7  8  1  0  0  0  0
  8  9  2  0  0  0  0
  9 11  1  0  0  0  0
 10  5  1  6  0  0  0
 10 11  1  0  0  0  0
 10 16  1  0  0  0  0
 10 27  1  0  0  0  0
 11 12  2  0  0  0  0
 13 12  1  6  0  0  0
 13 15  1  0  0  0  0
 13 28  1  0  0  0  0
 14 15  2  0  0  0  0
 14 19  1  0  0  0  0
 15 16  1  0  0  0  0
 16 17  2  0  0  0  0
 17 18  1  0  0  0  0
 18 19  2  0  0  0  0
 20 21  1  0  0  0  0
 21 25  1  0  0  0  0
 22 26  2  0  0  0  0
 23 24  2  0  0  0  0
 24 25  1  0  0  0  0
 25 26  1  0  0  0  0
 27 26  1  6  0  0  0
 27 28  1  0  0  0  0
 28 24  1  6  0  0  0
M  END
>  <CHROM.1>
177.95561689,-72.61662535,-172.22952837,-174.30947732,-83.82706799,38.71029358
25.28798952,26.09218385,-3.09400415,0.25108953,1.28150953

>  <Name>
ligand

>  <RI>
0

>  <Rbt.Current_Directory>
/home/itssahil/PROJECTS/Mol_Feturizer/New_Systems/rnas/1YLS

>  <Rbt.Executable>
rbdock ($Id: //depot/dev/client3/rdock/2013.1/src/exe/rbdock.cxx#4 $)

>  <Rbt.Library>
libRbt.so (2013.1, Build901 2013/11/27)

>  <Rbt.Parameter_File>
/export/apps/rDock/src/rDock_2013.1_src/data/scripts/dock_solv.prm

>  <Rbt.Receptor>
prm/pocket_docking_6.prm

>  <SCORE>
-24.907

>  <SCORE.INTER>
-19.8306

>  <SCORE.INTER.CONST>
1

>  <SCORE.INTER.POLAR>
0

>  <SCORE.INTER.ROT>
5

>  <SCORE.INTER.SOLV>
8.54285

>  <SCORE.INTER.VDW>
-23.0014

>  <SCORE.INTER.norm>
-0.708237

>  <SCORE.INTRA>
-5.07637

>  <SCORE.INTRA.DIHEDRAL>
-8.56034

>  <SCORE.INTRA.DIHEDRAL.0>
12.0148

>  <SCORE.INTRA.POLAR>
0

>  <SCORE.INTRA.POLAR.0>
0

>  <SCORE.INTRA.REPUL>
0

>  <SCORE.INTRA.REPUL.0>
0

>  <SCORE.INTRA.SOLV>
-0.055653

>  <SCORE.INTRA.SOLV.lig_0>
-10.5235

>  <SCORE.INTRA.VDW>
-0.768376

>  <SCORE.INTRA.VDW.0>
-1.38455

>  <SCORE.INTRA.norm>
-0.181299

>  <SCORE.RESTR>
0

>  <SCORE.RESTR.CAVITY>
0

>  <SCORE.RESTR.norm>
0

>  <SCORE.SYSTEM>
0

>  <SCORE.SYSTEM.CONST>
0

>  <SCORE.SYSTEM.DIHEDRAL>
0

>  <SCORE.SYSTEM.SOLV>
0

>  <SCORE.SYSTEM.norm>
0

>  <SCORE.heavy>
28

>  <SCORE.norm>
-0.889537

>  <RMSD>
5.658

$$$$
ligand
 OpenBabel11021811413D
libRbt.so/2013.1/901 2013/11/27
 28 32  0  0  0  0  0  0  0  0999 V2000
   31.5656   28.3805   26.7616 C   0  0  0  0  0  0  0  0  0  0  0  0
   32.9571   28.0245   26.2769 C   0  0  0  0  0  0  0  0  0  0  0  0
   33.3646   26.6263   26.7173 C   0  0  0  0  0  0  0  0  0  0  0  0
   38.8784   21.5706   25.2370 O   0  0  0  0  0  0  0  0  0  0  0  0
   38.6246   22.5558   26.2401 C   0  0  0  0  0  0  0  0  0  0  0  0
   38.5712   27.4282   26.9949 C   0  0  0  0  0  0  0  0  0  0  0  0
   37.9350   27.2590   28.2180 C   0  0  0  0  0  0  0  0  0  0  0  0
   37.5975   25.9731   28.6481 C   0  0  0  0  0  0  0  0  0  0  0  0
   37.8967   24.8598   27.8619 C   0  0  0  0  0  0  0  0  0  0  0  0
   38.9029   23.9666   25.7056 C   0  0  1  0  0  0  0  0  0  0  0  0
   38.5517   25.0511   26.6679 C   0  0  0  0  0  0  0  0  0  0  0  0
   38.8785   26.3157   26.2479 C   0  0  0  0  0  0  0  0  0  0  0  0
   39.4991   26.3882   24.9388 C   0  0  1  0  0  0  0  0  0  0  0  0
   41.8915   25.8423   24.5272 C   0  0  0  0  0  0  0  0  0  0  0  0
   40.6316   25.4789   24.9383 C   0  0  0  0  0  0  0  0  0  0  0  0
   40.3468   24.2017   25.3409 C   0  0  0  0  0  0  0  0  0  0  0  0
   41.3438   23.2372   25.3379 C   0  0  0  0  0  0  0  0  0  0  0  0
   42.6341   23.5963   24.9424 C   0  0  0  0  0  0  0  0  0  0  0  0
   42.9047   24.8979   24.5409 C   0  0  0  0  0  0  0  0  0  0  0  0
   34.7990   26.3291   26.3001 C   0  0  0  0  0  0  0  0  0  0  0  0
   34.8754   26.0726   24.7996 C   0  0  0  0  0  0  0  0  0  0  0  0
   35.9639   23.5782   25.0639 O   0  0  0  0  0  0  0  0  0  0  0  0
   37.0371   27.6436   23.8789 O   0  0  0  0  0  0  0  0  0  0  0  0
   37.1606   26.4514   24.1058 C   0  0  0  0  0  0  0  0  0  0  0  0
   36.2410   25.6647   24.5106 N   0  0  0  0  0  0  0  0  0  0  0  0
   36.6568   24.4886   24.6897 C   0  0  0  0  0  0  0  0  0  0  0  0
   38.1173   24.3400   24.4386 C   0  0  1  0  0  0  0  0  0  0  0  0
   38.4748   25.7630   24.0019 C   0  0  2  0  0  0  0  0  0  0  0  0
  1  2  1  0  0  0  0
  2  3  1  0  0  0  0
  3 20  1  0  0  0  0
  4  5  1  0  0  0  0
  6  7  2  0  0  0  0
  6 12  1  0  0  0  0
  7  8  1  0  0  0  0
  8  9  2  0  0  0  0
  9 11  1  0  0  0  0
 10  5  1  1  0  0  0
 10 11  1  0  0  0  0
 10 16  1  0  0  0  0
 10 27  1  0  0  0  0
 11 12  2  0  0  0  0
 13 12  1  1  0  0  0
 13 15  1  0  0  0  0
 13 28  1  0  0  0  0
 14 15  2  0  0  0  0
 14 19  1  0  0  0  0
 15 16  1  0  0  0  0
 16 17  2  0  0  0  0
 17 18  1  0  0  0  0
 18 19  2  0  0  0  0
 20 21  1  0  0  0  0
 21 25  1  0  0  0  0
 22 26  2  0  0  0  0
 23 24  2  0  0  0  0
 24 25  1  0  0  0  0
 25 26  1  0  0  0  0
 27 26  1  1  0  0  0
 27 28  1  0  0  0  0
 28 24  1  1  0  0  0
M  END
>  <CHROM.1>
-176.15632722,175.30321998,-74.10633931,-174.26798717,-95.85327543,37.77967532
25.42982518,25.61569377,-2.72926309,-0.08803778,-2.99429054

>  <Name>
ligand

>  <RI>
0

>  <Rbt.Current_Directory>
/home/itssahil/PROJECTS/Mol_Feturizer/New_Systems/rnas/1YLS

>  <Rbt.Executable>
rbdock ($Id: //depot/dev/client3/rdock/2013.1/src/exe/rbdock.cxx#4 $)

>  <Rbt.Library>
libRbt.so (2013.1, Build901 2013/11/27)

>  <Rbt.Parameter_File>
/export/apps/rDock/src/rDock_2013.1_src/data/scripts/dock_solv.prm

>  <Rbt.Receptor>
prm/pocket_docking_8.prm

>  <SCORE>
-25.2252

>  <SCORE.INTER>
-20.8916

>  <SCORE.INTER.CONST>
1

>  <SCORE.INTER.POLAR>
0

>  <SCORE.INTER.ROT>
5

>  <SCORE.INTER.SOLV>
8.95406

>  <SCORE.INTER.VDW>
-23.8458

>  <SCORE.INTER.norm>
-0.746129

>  <SCORE.INTRA>
-4.33359

>  <SCORE.INTRA.DIHEDRAL>
-8.39904

>  <SCORE.INTRA.DIHEDRAL.0>
12.0148

>  <SCORE.INTRA.POLAR>
0

>  <SCORE.INTRA.POLAR.0>
0

>  <SCORE.INTRA.REPUL>
0

>  <SCORE.INTRA.REPUL.0>
0

>  <SCORE.INTRA.SOLV>
0.188825

>  <SCORE.INTRA.SOLV.lig_0>
-10.5235

>  <SCORE.INTRA.VDW>
-0.22848

>  <SCORE.INTRA.VDW.0>
-1.38455

>  <SCORE.INTRA.norm>
-0.154771

>  <SCORE.RESTR>
0

>  <SCORE.RESTR.CAVITY>
0

>  <SCORE.RESTR.norm>
0

>  <SCORE.SYSTEM>
0

>  <SCORE.SYSTEM.CONST>
0

>  <SCORE.SYSTEM.DIHEDRAL>
0

>  <SCORE.SYSTEM.SOLV>
0

>  <SCORE.SYSTEM.norm>
0

>  <SCORE.heavy>
28

>  <SCORE.norm>
-0.9009

>  <RMSD>
5.962

$$$$
ligand
 OpenBabel11021811413D
libRbt.so/2013.1/901 2013/11/27
 28 32  0  0  0  0  0  0  0  0999 V2000
   30.6449   28.1485   22.1357 C   0  0  0  0  0  0  0  0  0  0  0  0
   31.5171   27.2928   23.0329 C   0  0  0  0  0  0  0  0  0  0  0  0
   31.8527   28.0051   24.3347 C   0  0  0  0  0  0  0  0  0  0  0  0
   39.4385   26.9469   28.3118 O   0  0  0  0  0  0  0  0  0  0  0  0
   38.0147   26.8381   28.2637 C   0  0  0  0  0  0  0  0  0  0  0  0
   37.8740   24.6176   23.8635 C   0  0  0  0  0  0  0  0  0  0  0  0
   38.4284   25.7346   23.2519 C   0  0  0  0  0  0  0  0  0  0  0  0
   38.7233   26.8655   24.0177 C   0  0  0  0  0  0  0  0  0  0  0  0
   38.4688   26.8804   25.3896 C   0  0  0  0  0  0  0  0  0  0  0  0
   37.5853   25.6314   27.4193 C   0  0  1  0  0  0  0  0  0  0  0  0
   37.9454   25.7522   25.9766 C   0  0  0  0  0  0  0  0  0  0  0  0
   37.6544   24.6451   25.2204 C   0  0  0  0  0  0  0  0  0  0  0  0
   37.0381   23.5497   25.9446 C   0  0  1  0  0  0  0  0  0  0  0  0
   38.3119   21.9831   27.3987 C   0  0  0  0  0  0  0  0  0  0  0  0
   37.8804   23.2507   27.0893 C   0  0  0  0  0  0  0  0  0  0  0  0
   38.1864   24.3270   27.8781 C   0  0  0  0  0  0  0  0  0  0  0  0
   38.9490   24.1507   29.0233 C   0  0  0  0  0  0  0  0  0  0  0  0
   39.4121   22.8718   29.3397 C   0  0  0  0  0  0  0  0  0  0  0  0
   39.0947   21.7926   28.5254 C   0  0  0  0  0  0  0  0  0  0  0  0
   32.6599   27.0952   25.2515 C   0  0  0  0  0  0  0  0  0  0  0  0
   34.0555   26.8678   24.6828 C   0  0  0  0  0  0  0  0  0  0  0  0
   35.2941   27.5774   27.0151 O   0  0  0  0  0  0  0  0  0  0  0  0
   34.4989   24.0811   24.5195 O   0  0  0  0  0  0  0  0  0  0  0  0
   34.9169   24.7442   25.4542 C   0  0  0  0  0  0  0  0  0  0  0  0
   34.7549   25.9995   25.6164 N   0  0  0  0  0  0  0  0  0  0  0  0
   35.3188   26.4278   26.6589 C   0  0  0  0  0  0  0  0  0  0  0  0
   36.0707   25.3723   27.3929 C   0  0  1  0  0  0  0  0  0  0  0  0
   35.7643   24.1507   26.5228 C   0  0  2  0  0  0  0  0  0  0  0  0
  1  2  1  0  0  0  0
  2  3  1  0  0  0  0
  3 20  1  0  0  0  0
  4  5  1  0  0  0  0
  6  7  2  0  0  0  0
  6 12  1  0  0  0  0
  7  8  1  0  0  0  0
  8  9  2  0  0  0  0
  9 11  1  0  0  0  0
 10  5  1  1  0  0  0
 10 11  1  0  0  0  0
 10 16  1  0  0  0  0
 10 27  1  0  0  0  0
 11 12  2  0  0  0  0
 13 12  1  6  0  0  0
 13 15  1  0  0  0  0
 13 28  1  0  0  0  0
 14 15  2  0  0  0  0
 14 19  1  0  0  0  0
 15 16  1  0  0  0  0
 16 17  2  0  0  0  0
 17 18  1  0  0  0  0
 18 19  2  0  0  0  0
 20 21  1  0  0  0  0
 21 25  1  0  0  0  0
 22 26  2  0  0  0  0
 23 24  2  0  0  0  0
 24 25  1  0  0  0  0
 25 26  1  0  0  0  0
 27 26  1  6  0  0  0
 27 28  1  0  0  0  0
 28 24  1  6  0  0  0
M  END
>  <CHROM.1>
176.67803530,-65.30650460,69.27195850,179.76359700,100.67621650,36.30433867
25.50670769,26.01703438,2.72058196,-0.55401154,-0.02331288

>  <Name>
ligand

>  <RI>
0

>  <Rbt.Current_Directory>
/home/itssahil/PROJECTS/Mol_Feturizer/New_Systems/rnas/1YLS

>  <Rbt.Executable>
rbdock ($Id: //depot/dev/client3/rdock/2013.1/src/exe/rbdock.cxx#4 $)

>  <Rbt.Library>
libRbt.so (2013.1, Build901 2013/11/27)

>  <Rbt.Parameter_File>
/export/apps/rDock/src/rDock_2013.1_src/data/scripts/dock_solv.prm

>  <Rbt.Receptor>
prm/pocket_docking_8.prm

>  <SCORE>
-21.7228

>  <SCORE.INTER>
-17.733

>  <SCORE.INTER.CONST>
1

>  <SCORE.INTER.POLAR>
0

>  <SCORE.INTER.ROT>
5

>  <SCORE.INTER.SOLV>
8.01733

>  <SCORE.INTER.VDW>
-21.4277

>  <SCORE.INTER.norm>
-0.63332

>  <SCORE.INTRA>
-3.98981

>  <SCORE.INTRA.DIHEDRAL>
-9.30601

>  <SCORE.INTRA.DIHEDRAL.0>
12.0148

>  <SCORE.INTRA.POLAR>
0

>  <SCORE.INTRA.POLAR.0>
0

>  <SCORE.INTRA.REPUL>
0

>  <SCORE.INTRA.REPUL.0>
0

>  <SCORE.INTRA.SOLV>
-0.0300854

>  <SCORE.INTRA.SOLV.lig_0>
-10.5235

>  <SCORE.INTRA.VDW>
0.678235

>  <SCORE.INTRA.VDW.0>
-1.38455

>  <SCORE.INTRA.norm>
-0.142493

>  <SCORE.RESTR>
0

>  <SCORE.RESTR.CAVITY>
0

>  <SCORE.RESTR.norm>
0

>  <SCORE.SYSTEM>
0

>  <SCORE.SYSTEM.CONST>
0

>  <SCORE.SYSTEM.DIHEDRAL>
0

>  <SCORE.SYSTEM.SOLV>
0

>  <SCORE.SYSTEM.norm>
0

>  <SCORE.heavy>
28

>  <SCORE.norm>
-0.775813

>  <RMSD>
6.017

$$$$
ligand
 OpenBabel11021811413D
libRbt.so/2013.1/901 2013/11/27
 28 32  0  0  0  0  0  0  0  0999 V2000
   36.7245   20.0899   26.9927 C   0  0  0  0  0  0  0  0  0  0  0  0
   36.0771   21.4450   26.7865 C   0  0  0  0  0  0  0  0  0  0  0  0
   37.0377   22.5807   27.1060 C   0  0  0  0  0  0  0  0  0  0  0  0
   42.4212   24.1885   25.9215 O   0  0  0  0  0  0  0  0  0  0  0  0
   41.3184   23.9048   25.0586 C   0  0  0  0  0  0  0  0  0  0  0  0
   38.4925   27.4695   26.9614 C   0  0  0  0  0  0  0  0  0  0  0  0
   38.5460   26.8787   28.2173 C   0  0  0  0  0  0  0  0  0  0  0  0
   39.2478   25.6826   28.3878 C   0  0  0  0  0  0  0  0  0  0  0  0
   39.8967   25.0798   27.3095 C   0  0  0  0  0  0  0  0  0  0  0  0
   40.4625   25.1579   24.8329 C   0  0  1  0  0  0  0  0  0  0  0  0
   39.8524   25.6987   26.0822 C   0  0  0  0  0  0  0  0  0  0  0  0
   39.1595   26.8715   25.9185 C   0  0  0  0  0  0  0  0  0  0  0  0
   39.1270   27.3828   24.5614 C   0  0  1  0  0  0  0  0  0  0  0  0
   41.0325   28.5867   23.5074 C   0  0  0  0  0  0  0  0  0  0  0  0
   40.4980   27.4620   24.0887 C   0  0  0  0  0  0  0  0  0  0  0  0
   41.2229   26.3084   24.2235 C   0  0  0  0  0  0  0  0  0  0  0  0
   42.5311   26.2562   23.7653 C   0  0  0  0  0  0  0  0  0  0  0  0
   43.0949   27.3976   23.1910 C   0  0  0  0  0  0  0  0  0  0  0  0
   42.3452   28.5598   23.0663 C   0  0  0  0  0  0  0  0  0  0  0  0
   36.3771   23.9296   26.8525 C   0  0  0  0  0  0  0  0  0  0  0  0
   35.9923   24.0670   25.3842 C   0  0  0  0  0  0  0  0  0  0  0  0
   38.4061   22.9288   24.7880 O   0  0  0  0  0  0  0  0  0  0  0  0
   36.2487   26.7088   24.4127 O   0  0  0  0  0  0  0  0  0  0  0  0
   37.1532   25.8967   24.3112 C   0  0  0  0  0  0  0  0  0  0  0  0
   37.1223   24.6844   24.7083 N   0  0  0  0  0  0  0  0  0  0  0  0
   38.2089   24.0809   24.5003 C   0  0  0  0  0  0  0  0  0  0  0  0
   39.2572   24.9532   23.9017 C   0  0  1  0  0  0  0  0  0  0  0  0
   38.4820   26.2650   23.7536 C   0  0  2  0  0  0  0  0  0  0  0  0
  1  2  1  0  0  0  0
  2  3  1  0  0  0  0
  3 20  1  0  0  0  0
  4  5  1  0  0  0  0
  6  7  2  0  0  0  0
  6 12  1  0  0  0  0
  7  8  1  0  0  0  0
  8  9  2  0  0  0  0
  9 11  1  0  0  0  0
 10  5  1  1  0  0  0
 10 11  1  0  0  0  0
 10 16  1  0  0  0  0
 10 27  1  0  0  0  0
 11 12  2  0  0  0  0
 13 12  1  1  0  0  0
 13 15  1  0  0  0  0
 13 28  1  0  0  0  0
 14 15  2  0  0  0  0
 14 19  1  0  0  0  0
 15 16  1  0  0  0  0
 16 17  2  0  0  0  0
 17 18  1  0  0  0  0
 18 19  2  0  0  0  0
 20 21  1  0  0  0  0
 21 25  1  0  0  0  0
 22 26  2  0  0  0  0
 23 24  2  0  0  0  0
 24 25  1  0  0  0  0
 25 26  1  0  0  0  0
 27 26  1  1  0  0  0
 27 28  1  0  0  0  0
 28 24  1  1  0  0  0
M  END
>  <CHROM.1>
178.35616038,-61.72084247,-61.55733355,-90.95323271,-105.82522738,39.06847377
25.24967365,25.32419834,-2.32436768,0.14042303,-0.35666296

>  <Name>
ligand

>  <RI>
0

>  <Rbt.Current_Directory>
/home/itssahil/PROJECTS/Mol_Feturizer/New_Systems/rnas/1YLS

>  <Rbt.Executable>
rbdock ($Id: //depot/dev/client3/rdock/2013.1/src/exe/rbdock.cxx#4 $)

>  <Rbt.Library>
libRbt.so (2013.1, Build901 2013/11/27)

>  <Rbt.Parameter_File>
/export/apps/rDock/src/rDock_2013.1_src/data/scripts/dock_solv.prm

>  <Rbt.Receptor>
prm/pocket_docking_7.prm

>  <SCORE>
-32.4561

>  <SCORE.INTER>
-30.2569

>  <SCORE.INTER.CONST>
1

>  <SCORE.INTER.POLAR>
0

>  <SCORE.INTER.ROT>
5

>  <SCORE.INTER.SOLV>
8.50102

>  <SCORE.INTER.VDW>
-29.9383

>  <SCORE.INTER.norm>
-1.0806

>  <SCORE.INTRA>
-2.19918

>  <SCORE.INTRA.DIHEDRAL>
-6.5743

>  <SCORE.INTRA.DIHEDRAL.0>
12.0148

>  <SCORE.INTRA.POLAR>
0

>  <SCORE.INTRA.POLAR.0>
0

>  <SCORE.INTRA.REPUL>
0

>  <SCORE.INTRA.REPUL.0>
0

>  <SCORE.INTRA.SOLV>
0.423447

>  <SCORE.INTRA.SOLV.lig_0>
-10.5235

>  <SCORE.INTRA.VDW>
0.876248

>  <SCORE.INTRA.VDW.0>
-1.38455

>  <SCORE.INTRA.norm>
-0.0785421

>  <SCORE.RESTR>
0

>  <SCORE.RESTR.CAVITY>
0

>  <SCORE.RESTR.norm>
0

>  <SCORE.SYSTEM>
0

>  <SCORE.SYSTEM.CONST>
0

>  <SCORE.SYSTEM.DIHEDRAL>
0

>  <SCORE.SYSTEM.SOLV>
0

>  <SCORE.SYSTEM.norm>
0

>  <SCORE.heavy>
28

>  <SCORE.norm>
-1.15915

>  <RMSD>
6.149

$$$$
ligand
 OpenBabel11021811413D
libRbt.so/2013.1/901 2013/11/27
 28 32  0  0  0  0  0  0  0  0999 V2000
   34.3098   26.8845   26.5175 C   0  0  0  0  0  0  0  0  0  0  0  0
   35.4698   26.0458   27.0163 C   0  0  0  0  0  0  0  0  0  0  0  0
   35.8015   24.9163   26.0525 C   0  0  0  0  0  0  0  0  0  0  0  0
   41.9343   23.7316   27.0838 O   0  0  0  0  0  0  0  0  0  0  0  0
   42.5463   24.6033   26.1316 C   0  0  0  0  0  0  0  0  0  0  0  0
   38.5154   27.4429   26.1724 C   0  0  0  0  0  0  0  0  0  0  0  0
   38.3937   27.2972   27.5483 C   0  0  0  0  0  0  0  0  0  0  0  0
   39.3091   26.5009   28.2414 C   0  0  0  0  0  0  0  0  0  0  0  0
   40.3441   25.8550   27.5643 C   0  0  0  0  0  0  0  0  0  0  0  0
   41.4869   25.3844   25.3433 C   0  0  1  0  0  0  0  0  0  0  0  0
   40.4599   26.0373   26.2061 C   0  0  0  0  0  0  0  0  0  0  0  0
   39.5571   26.8176   25.5290 C   0  0  0  0  0  0  0  0  0  0  0  0
   39.7445   26.8692   24.0915 C   0  0  1  0  0  0  0  0  0  0  0  0
   41.4847   28.2641   22.9883 C   0  0  0  0  0  0  0  0  0  0  0  0
   41.1238   27.2490   23.8416 C   0  0  0  0  0  0  0  0  0  0  0  0
   42.0590   26.4880   24.4901 C   0  0  0  0  0  0  0  0  0  0  0  0
   43.4096   26.7336   24.2906 C   0  0  0  0  0  0  0  0  0  0  0  0
   43.7918   27.7751   23.4425 C   0  0  0  0  0  0  0  0  0  0  0  0
   42.8287   28.5388   22.7962 C   0  0  0  0  0  0  0  0  0  0  0  0
   36.9015   24.0302   26.6225 C   0  0  0  0  0  0  0  0  0  0  0  0
   37.4555   23.1075   25.5433 C   0  0  0  0  0  0  0  0  0  0  0  0
   40.1489   22.6970   25.7765 O   0  0  0  0  0  0  0  0  0  0  0  0
   37.2707   25.2812   23.7462 O   0  0  0  0  0  0  0  0  0  0  0  0
   38.3470   24.8165   24.0833 C   0  0  0  0  0  0  0  0  0  0  0  0
   38.5251   23.8330   24.8767 N   0  0  0  0  0  0  0  0  0  0  0  0
   39.7453   23.5840   25.0698 C   0  0  0  0  0  0  0  0  0  0  0  0
   40.6540   24.5346   24.3707 C   0  0  1  0  0  0  0  0  0  0  0  0
   39.6351   25.4176   23.6456 C   0  0  2  0  0  0  0  0  0  0  0  0
  1  2  1  0  0  0  0
  2  3  1  0  0  0  0
  3 20  1  0  0  0  0
  4  5  1  0  0  0  0
  6  7  2  0  0  0  0
  6 12  1  0  0  0  0
  7  8  1  0  0  0  0
  8  9  2  0  0  0  0
  9 11  1  0  0  0  0
 10  5  1  1  0  0  0
 10 11  1  0  0  0  0
 10 16  1  0  0  0  0
 10 27  1  0  0  0  0
 11 12  2  0  0  0  0
 13 12  1  1  0  0  0
 13 15  1  0  0  0  0
 13 28  1  0  0  0  0
 14 15  2  0  0  0  0
 14 19  1  0  0  0  0
 15 16  1  0  0  0  0
 16 17  2  0  0  0  0
 17 18  1  0  0  0  0
 18 19  2  0  0  0  0
 20 21  1  0  0  0  0
 21 25  1  0  0  0  0
 22 26  2  0  0  0  0
 23 24  2  0  0  0  0
 24 25  1  0  0  0  0
 25 26  1  0  0  0  0
 27 26  1  1  0  0  0
 27 28  1  0  0  0  0
 28 24  1  1  0  0  0
M  END
>  <CHROM.1>
-175.93552444,49.41612639,-166.92315139,87.95855574,-72.16763725,39.58624871
25.64550320,25.35413033,2.80520148,-0.21059008,2.73909652

>  <Name>
ligand

>  <RI>
0

>  <Rbt.Current_Directory>
/home/itssahil/PROJECTS/Mol_Feturizer/New_Systems/rnas/1YLS

>  <Rbt.Executable>
rbdock ($Id: //depot/dev/client3/rdock/2013.1/src/exe/rbdock.cxx#4 $)

>  <Rbt.Library>
libRbt.so (2013.1, Build901 2013/11/27)

>  <Rbt.Parameter_File>
/export/apps/rDock/src/rDock_2013.1_src/data/scripts/dock_solv.prm

>  <Rbt.Receptor>
prm/pocket_docking_5.prm

>  <SCORE>
-28.1485

>  <SCORE.INTER>
-25.7694

>  <SCORE.INTER.CONST>
1

>  <SCORE.INTER.POLAR>
0

>  <SCORE.INTER.ROT>
5

>  <SCORE.INTER.SOLV>
7.3755

>  <SCORE.INTER.VDW>
-26.5714

>  <SCORE.INTER.norm>
-0.920336

>  <SCORE.INTRA>
-2.37908

>  <SCORE.INTRA.DIHEDRAL>
-5.93014

>  <SCORE.INTRA.DIHEDRAL.0>
12.0148

>  <SCORE.INTRA.POLAR>
0

>  <SCORE.INTRA.POLAR.0>
0

>  <SCORE.INTRA.REPUL>
0

>  <SCORE.INTRA.REPUL.0>
0

>  <SCORE.INTRA.SOLV>
0.987892

>  <SCORE.INTRA.SOLV.lig_0>
-10.5235

>  <SCORE.INTRA.VDW>
0.0920492

>  <SCORE.INTRA.VDW.0>
-1.38455

>  <SCORE.INTRA.norm>
-0.084967

>  <SCORE.RESTR>
0

>  <SCORE.RESTR.CAVITY>
0

>  <SCORE.RESTR.norm>
0

>  <SCORE.SYSTEM>
0

>  <SCORE.SYSTEM.CONST>
0

>  <SCORE.SYSTEM.DIHEDRAL>
0

>  <SCORE.SYSTEM.SOLV>
0

>  <SCORE.SYSTEM.norm>
0

>  <SCORE.heavy>
28

>  <SCORE.norm>
-1.0053

>  <RMSD>
6.239

$$$$
ligand
 OpenBabel11021811413D
libRbt.so/2013.1/901 2013/11/27
 28 32  0  0  0  0  0  0  0  0999 V2000
   34.1733   26.8919   26.4293 C   0  0  0  0  0  0  0  0  0  0  0  0
   35.3553   26.1159   26.9757 C   0  0  0  0  0  0  0  0  0  0  0  0
   35.5806   24.8217   26.2083 C   0  0  0  0  0  0  0  0  0  0  0  0
   43.1935   25.4432   27.0707 O   0  0  0  0  0  0  0  0  0  0  0  0
   42.4478   24.5725   26.2182 C   0  0  0  0  0  0  0  0  0  0  0  0
   38.4365   27.4389   26.2927 C   0  0  0  0  0  0  0  0  0  0  0  0
   38.3374   27.3106   27.6722 C   0  0  0  0  0  0  0  0  0  0  0  0
   39.2593   26.5168   28.3593 C   0  0  0  0  0  0  0  0  0  0  0  0
   40.2785   25.8559   27.6727 C   0  0  0  0  0  0  0  0  0  0  0  0
   41.3801   25.3509   25.4385 C   0  0  1  0  0  0  0  0  0  0  0  0
   40.3722   26.0210   26.3105 C   0  0  0  0  0  0  0  0  0  0  0  0
   39.4629   26.7989   25.6394 C   0  0  0  0  0  0  0  0  0  0  0  0
   39.6261   26.8318   24.1984 C   0  0  1  0  0  0  0  0  0  0  0  0
   41.3561   28.2016   23.0487 C   0  0  0  0  0  0  0  0  0  0  0  0
   41.0034   27.1995   23.9204 C   0  0  0  0  0  0  0  0  0  0  0  0
   41.9446   26.4403   24.5622 C   0  0  0  0  0  0  0  0  0  0  0  0
   43.2931   26.6744   24.3368 C   0  0  0  0  0  0  0  0  0  0  0  0
   43.6674   27.7031   23.4696 C   0  0  0  0  0  0  0  0  0  0  0  0
   42.6983   28.4652   22.8304 C   0  0  0  0  0  0  0  0  0  0  0  0
   36.7724   24.0618   26.7760 C   0  0  0  0  0  0  0  0  0  0  0  0
   37.3383   23.1031   25.7350 C   0  0  0  0  0  0  0  0  0  0  0  0
   40.0326   22.6778   25.9273 O   0  0  0  0  0  0  0  0  0  0  0  0
   37.1366   25.2560   23.9147 O   0  0  0  0  0  0  0  0  0  0  0  0
   38.2155   24.7884   24.2392 C   0  0  0  0  0  0  0  0  0  0  0  0
   38.4010   23.8134   25.0414 N   0  0  0  0  0  0  0  0  0  0  0  0
   39.6226   23.5588   25.2167 C   0  0  0  0  0  0  0  0  0  0  0  0
   40.5253   24.4948   24.4907 C   0  0  1  0  0  0  0  0  0  0  0  0
   39.4998   25.3756   23.7723 C   0  0  2  0  0  0  0  0  0  0  0  0
  1  2  1  0  0  0  0
  2  3  1  0  0  0  0
  3 20  1  0  0  0  0
  4  5  1  0  0  0  0
  6  7  2  0  0  0  0
  6 12  1  0  0  0  0
  7  8  1  0  0  0  0
  8  9  2  0  0  0  0
  9 11  1  0  0  0  0
 10  5  1  1  0  0  0
 10 11  1  0  0  0  0
 10 16  1  0  0  0  0
 10 27  1  0  0  0  0
 11 12  2  0  0  0  0
 13 12  1  1  0  0  0
 13 15  1  0  0  0  0
 13 28  1  0  0  0  0
 14 15  2  0  0  0  0
 14 19  1  0  0  0  0
 15 16  1  0  0  0  0
 16 17  2  0  0  0  0
 17 18  1  0  0  0  0
 18 19  2  0  0  0  0
 20 21  1  0  0  0  0
 21 25  1  0  0  0  0
 22 26  2  0  0  0  0
 23 24  2  0  0  0  0
 24 25  1  0  0  0  0
 25 26  1  0  0  0  0
 27 26  1  1  0  0  0
 27 28  1  0  0  0  0
 28 24  1  1  0  0  0
M  END
>  <CHROM.1>
179.99361759,-61.12113261,-157.72550364,93.12822189,-70.02009429,39.53023496
25.69747790,25.44964781,2.82419352,-0.15330889,2.69297478

>  <Name>
ligand

>  <RI>
0

>  <Rbt.Current_Directory>
/home/itssahil/PROJECTS/Mol_Feturizer/New_Systems/rnas/1YLS

>  <Rbt.Executable>
rbdock ($Id: //depot/dev/client3/rdock/2013.1/src/exe/rbdock.cxx#4 $)

>  <Rbt.Library>
libRbt.so (2013.1, Build901 2013/11/27)

>  <Rbt.Parameter_File>
/export/apps/rDock/src/rDock_2013.1_src/data/scripts/dock_solv.prm

>  <Rbt.Receptor>
prm/pocket_docking_5.prm

>  <SCORE>
-29.7278

>  <SCORE.INTER>
-26.4854

>  <SCORE.INTER.CONST>
1

>  <SCORE.INTER.POLAR>
0

>  <SCORE.INTER.ROT>
5

>  <SCORE.INTER.SOLV>
7.30172

>  <SCORE.INTER.VDW>
-27.0241

>  <SCORE.INTER.norm>
-0.945905

>  <SCORE.INTRA>
-3.24245

>  <SCORE.INTRA.DIHEDRAL>
-4.44022

>  <SCORE.INTRA.DIHEDRAL.0>
12.0148

>  <SCORE.INTRA.POLAR>
0

>  <SCORE.INTRA.POLAR.0>
0

>  <SCORE.INTRA.REPUL>
0

>  <SCORE.INTRA.REPUL.0>
0

>  <SCORE.INTRA.SOLV>
0.376428

>  <SCORE.INTRA.SOLV.lig_0>
-10.5235

>  <SCORE.INTRA.VDW>
-1.21055

>  <SCORE.INTRA.VDW.0>
-1.38455

>  <SCORE.INTRA.norm>
-0.115802

>  <SCORE.RESTR>
0

>  <SCORE.RESTR.CAVITY>
0

>  <SCORE.RESTR.norm>
0

>  <SCORE.SYSTEM>
0

>  <SCORE.SYSTEM.CONST>
0

>  <SCORE.SYSTEM.DIHEDRAL>
0

>  <SCORE.SYSTEM.SOLV>
0

>  <SCORE.SYSTEM.norm>
0

>  <SCORE.heavy>
28

>  <SCORE.norm>
-1.06171

>  <RMSD>
6.278

$$$$
ligand
 OpenBabel11021811413D
libRbt.so/2013.1/901 2013/11/27
 28 32  0  0  0  0  0  0  0  0999 V2000
   37.5621   20.4281   27.8484 C   0  0  0  0  0  0  0  0  0  0  0  0
   36.2718   20.3626   27.0555 C   0  0  0  0  0  0  0  0  0  0  0  0
   36.3114   21.2792   25.8418 C   0  0  0  0  0  0  0  0  0  0  0  0
   42.2847   23.3128   25.0811 O   0  0  0  0  0  0  0  0  0  0  0  0
   41.7703   24.0368   26.2002 C   0  0  0  0  0  0  0  0  0  0  0  0
   38.5040   27.5206   27.4279 C   0  0  0  0  0  0  0  0  0  0  0  0
   38.7225   27.2873   28.7796 C   0  0  0  0  0  0  0  0  0  0  0  0
   39.6199   26.2906   29.1714 C   0  0  0  0  0  0  0  0  0  0  0  0
   40.2994   25.5317   28.2177 C   0  0  0  0  0  0  0  0  0  0  0  0
   40.7087   25.0513   25.7557 C   0  0  1  0  0  0  0  0  0  0  0  0
   40.0869   25.8006   26.8859 C   0  0  0  0  0  0  0  0  0  0  0  0
   39.2024   26.7781   26.5055 C   0  0  0  0  0  0  0  0  0  0  0  0
   39.0122   26.9126   25.0738 C   0  0  1  0  0  0  0  0  0  0  0  0
   40.6331   28.0687   23.5813 C   0  0  0  0  0  0  0  0  0  0  0  0
   40.3236   27.0660   24.4687 C   0  0  0  0  0  0  0  0  0  0  0  0
   41.2348   26.1042   24.8134 C   0  0  0  0  0  0  0  0  0  0  0  0
   42.5068   26.1267   24.2606 C   0  0  0  0  0  0  0  0  0  0  0  0
   42.8428   27.1513   23.3731 C   0  0  0  0  0  0  0  0  0  0  0  0
   41.9062   28.1204   23.0382 C   0  0  0  0  0  0  0  0  0  0  0  0
   35.6137   22.5992   26.1434 C   0  0  0  0  0  0  0  0  0  0  0  0
   36.5160   23.5006   26.9778 C   0  0  0  0  0  0  0  0  0  0  0  0
   39.0481   22.6110   26.4540 O   0  0  0  0  0  0  0  0  0  0  0  0
   36.2804   25.8117   25.3677 O   0  0  0  0  0  0  0  0  0  0  0  0
   37.2995   25.1414   25.3837 C   0  0  0  0  0  0  0  0  0  0  0  0
   37.4903   24.0809   26.0673 N   0  0  0  0  0  0  0  0  0  0  0  0
   38.6484   23.6089   25.9122 C   0  0  0  0  0  0  0  0  0  0  0  0
   39.5045   24.4407   25.0214 C   0  0  1  0  0  0  0  0  0  0  0  0
   38.5171   25.5430   24.6298 C   0  0  2  0  0  0  0  0  0  0  0  0
  1  2  1  0  0  0  0
  2  3  1  0  0  0  0
  3 20  1  0  0  0  0
  4  5  1  0  0  0  0
  6  7  2  0  0  0  0
  6 12  1  0  0  0  0
  7  8  1  0  0  0  0
  8  9  2  0  0  0  0
  9 11  1  0  0  0  0
 10  5  1  1  0  0  0
 10 11  1  0  0  0  0
 10 16  1  0  0  0  0
 10 27  1  0  0  0  0
 11 12  2  0  0  0  0
 13 12  1  1  0  0  0
 13 15  1  0  0  0  0
 13 28  1  0  0  0  0
 14 15  2  0  0  0  0
 14 19  1  0  0  0  0
 15 16  1  0  0  0  0
 16 17  2  0  0  0  0
 17 18  1  0  0  0  0
 18 19  2  0  0  0  0
 20 21  1  0  0  0  0
 21 25  1  0  0  0  0
 22 26  2  0  0  0  0
 23 24  2  0  0  0  0
 24 25  1  0  0  0  0
 25 26  1  0  0  0  0
 27 26  1  1  0  0  0
 27 28  1  0  0  0  0
 28 24  1  1  0  0  0
M  END
>  <CHROM.1>
-97.85838298,177.47284502,77.60562996,77.99771973,86.02715348,39.16015802
24.87277510,25.91957697,-2.37142486,0.44761954,0.00883530

>  <Name>
ligand

>  <RI>
0

>  <Rbt.Current_Directory>
/home/itssahil/PROJECTS/Mol_Feturizer/New_Systems/rnas/1YLS

>  <Rbt.Executable>
rbdock ($Id: //depot/dev/client3/rdock/2013.1/src/exe/rbdock.cxx#4 $)

>  <Rbt.Library>
libRbt.so (2013.1, Build901 2013/11/27)

>  <Rbt.Parameter_File>
/export/apps/rDock/src/rDock_2013.1_src/data/scripts/dock_solv.prm

>  <Rbt.Receptor>
prm/pocket_docking_5.prm

>  <SCORE>
-28.2537

>  <SCORE.INTER>
-27.6043

>  <SCORE.INTER.CONST>
1

>  <SCORE.INTER.POLAR>
0

>  <SCORE.INTER.ROT>
5

>  <SCORE.INTER.SOLV>
6.14253

>  <SCORE.INTER.VDW>
-27.3837

>  <SCORE.INTER.norm>
-0.985869

>  <SCORE.INTRA>
-0.649325

>  <SCORE.INTRA.DIHEDRAL>
-3.15074

>  <SCORE.INTRA.DIHEDRAL.0>
12.0148

>  <SCORE.INTRA.POLAR>
0

>  <SCORE.INTRA.POLAR.0>
0

>  <SCORE.INTRA.REPUL>
0

>  <SCORE.INTRA.REPUL.0>
0

>  <SCORE.INTRA.SOLV>
0.746978

>  <SCORE.INTRA.SOLV.lig_0>
-10.5235

>  <SCORE.INTRA.VDW>
0.552558

>  <SCORE.INTRA.VDW.0>
-1.38455

>  <SCORE.INTRA.norm>
-0.0231902

>  <SCORE.RESTR>
0

>  <SCORE.RESTR.CAVITY>
0

>  <SCORE.RESTR.norm>
0

>  <SCORE.SYSTEM>
0

>  <SCORE.SYSTEM.CONST>
0

>  <SCORE.SYSTEM.DIHEDRAL>
0

>  <SCORE.SYSTEM.SOLV>
0

>  <SCORE.SYSTEM.norm>
0

>  <SCORE.heavy>
28

>  <SCORE.norm>
-1.00906

>  <RMSD>
6.278

$$$$
ligand
 OpenBabel11021811413D
libRbt.so/2013.1/901 2013/11/27
 28 32  0  0  0  0  0  0  0  0999 V2000
   34.2825   26.8702   26.4918 C   0  0  0  0  0  0  0  0  0  0  0  0
   35.4354   26.0397   27.0200 C   0  0  0  0  0  0  0  0  0  0  0  0
   35.7304   24.8505   26.1180 C   0  0  0  0  0  0  0  0  0  0  0  0
   43.2035   25.4689   27.0760 O   0  0  0  0  0  0  0  0  0  0  0  0
   42.5136   24.6052   26.1709 C   0  0  0  0  0  0  0  0  0  0  0  0
   38.4669   27.4220   26.2236 C   0  0  0  0  0  0  0  0  0  0  0  0
   38.3556   27.2835   27.6012 C   0  0  0  0  0  0  0  0  0  0  0  0
   39.2803   26.4965   28.2924 C   0  0  0  0  0  0  0  0  0  0  0  0
   40.3143   25.8526   27.6118 C   0  0  0  0  0  0  0  0  0  0  0  0
   41.4443   25.3757   25.3856 C   0  0  1  0  0  0  0  0  0  0  0  0
   40.4195   26.0277   26.2518 C   0  0  0  0  0  0  0  0  0  0  0  0
   39.5076   26.7988   25.5765 C   0  0  0  0  0  0  0  0  0  0  0  0
   39.6846   26.8432   24.1375 C   0  0  1  0  0  0  0  0  0  0  0  0
   41.4091   28.2415   23.0141 C   0  0  0  0  0  0  0  0  0  0  0  0
   41.0600   27.2294   23.8757 C   0  0  0  0  0  0  0  0  0  0  0  0
   42.0041   26.4776   24.5221 C   0  0  0  0  0  0  0  0  0  0  0  0
   43.3518   26.7296   24.3117 C   0  0  0  0  0  0  0  0  0  0  0  0
   43.7221   27.7684   23.4549 C   0  0  0  0  0  0  0  0  0  0  0  0
   42.7501   28.5228   22.8110 C   0  0  0  0  0  0  0  0  0  0  0  0
   36.8632   24.0095   26.6922 C   0  0  0  0  0  0  0  0  0  0  0  0
   37.4275   23.0769   25.6270 C   0  0  0  0  0  0  0  0  0  0  0  0
   40.1248   22.6832   25.8436 O   0  0  0  0  0  0  0  0  0  0  0  0
   37.2176   25.2391   23.8187 O   0  0  0  0  0  0  0  0  0  0  0  0
   38.2989   24.7825   24.1510 C   0  0  0  0  0  0  0  0  0  0  0  0
   38.4883   23.8046   24.9487 N   0  0  0  0  0  0  0  0  0  0  0  0
   39.7112   23.5638   25.1346 C   0  0  0  0  0  0  0  0  0  0  0  0
   40.6095   24.5155   24.4237 C   0  0  1  0  0  0  0  0  0  0  0  0
   39.5805   25.3884   23.7007 C   0  0  2  0  0  0  0  0  0  0  0  0
  1  2  1  0  0  0  0
  2  3  1  0  0  0  0
  3 20  1  0  0  0  0
  4  5  1  0  0  0  0
  6  7  2  0  0  0  0
  6 12  1  0  0  0  0
  7  8  1  0  0  0  0
  8  9  2  0  0  0  0
  9 11  1  0  0  0  0
 10  5  1  1  0  0  0
 10 11  1  0  0  0  0
 10 16  1  0  0  0  0
 10 27  1  0  0  0  0
 11 12  2  0  0  0  0
 13 12  1  1  0  0  0
 13 15  1  0  0  0  0
 13 28  1  0  0  0  0
 14 15  2  0  0  0  0
 14 19  1  0  0  0  0
 15 16  1  0  0  0  0
 16 17  2  0  0  0  0
 17 18  1  0  0  0  0
 18 19  2  0  0  0  0
 20 21  1  0  0  0  0
 21 25  1  0  0  0  0
 22 26  2  0  0  0  0
 23 24  2  0  0  0  0
 24 25  1  0  0  0  0
 25 26  1  0  0  0  0
 27 26  1  1  0  0  0
 27 28  1  0  0  0  0
 28 24  1  1  0  0  0
M  END
>  <CHROM.1>
-178.27790411,-58.76664500,-163.62102334,89.29653312,-71.42187261,39.59737155
25.70301698,25.39710363,2.81520257,-0.16232345,2.72154269

>  <Name>
ligand

>  <RI>
0

>  <Rbt.Current_Directory>
/home/itssahil/PROJECTS/Mol_Feturizer/New_Systems/rnas/1YLS

>  <Rbt.Executable>
rbdock ($Id: //depot/dev/client3/rdock/2013.1/src/exe/rbdock.cxx#4 $)

>  <Rbt.Library>
libRbt.so (2013.1, Build901 2013/11/27)

>  <Rbt.Parameter_File>
/export/apps/rDock/src/rDock_2013.1_src/data/scripts/dock_solv.prm

>  <Rbt.Receptor>
prm/pocket_docking_5.prm

>  <SCORE>
-29.8513

>  <SCORE.INTER>
-26.0987

>  <SCORE.INTER.CONST>
1

>  <SCORE.INTER.POLAR>
0

>  <SCORE.INTER.ROT>
5

>  <SCORE.INTER.SOLV>
7.60947

>  <SCORE.INTER.VDW>
-26.869

>  <SCORE.INTER.norm>
-0.932097

>  <SCORE.INTRA>
-3.75262

>  <SCORE.INTRA.DIHEDRAL>
-5.7552

>  <SCORE.INTRA.DIHEDRAL.0>
12.0148

>  <SCORE.INTRA.POLAR>
0

>  <SCORE.INTRA.POLAR.0>
0

>  <SCORE.INTRA.REPUL>
0

>  <SCORE.INTRA.REPUL.0>
0

>  <SCORE.INTRA.SOLV>
0.367172

>  <SCORE.INTRA.SOLV.lig_0>
-10.5235

>  <SCORE.INTRA.VDW>
-1.05861

>  <SCORE.INTRA.VDW.0>
-1.38455

>  <SCORE.INTRA.norm>
-0.134022

>  <SCORE.RESTR>
0

>  <SCORE.RESTR.CAVITY>
0

>  <SCORE.RESTR.norm>
0

>  <SCORE.SYSTEM>
0

>  <SCORE.SYSTEM.CONST>
0

>  <SCORE.SYSTEM.DIHEDRAL>
0

>  <SCORE.SYSTEM.SOLV>
0

>  <SCORE.SYSTEM.norm>
0

>  <SCORE.heavy>
28

>  <SCORE.norm>
-1.06612

>  <RMSD>
6.279

$$$$
ligand
 OpenBabel11021811413D
libRbt.so/2013.1/901 2013/11/27
 28 32  0  0  0  0  0  0  0  0999 V2000
   37.9289   20.0783   28.1111 C   0  0  0  0  0  0  0  0  0  0  0  0
   36.6849   19.7500   27.3095 C   0  0  0  0  0  0  0  0  0  0  0  0
   36.5056   20.7016   26.1360 C   0  0  0  0  0  0  0  0  0  0  0  0
   42.7386   25.3116   26.7858 O   0  0  0  0  0  0  0  0  0  0  0  0
   41.8846   24.2656   26.3193 C   0  0  0  0  0  0  0  0  0  0  0  0
   37.9251   27.2040   26.3214 C   0  0  0  0  0  0  0  0  0  0  0  0
   38.0909   27.4717   27.6742 C   0  0  0  0  0  0  0  0  0  0  0  0
   39.1362   26.8643   28.3747 C   0  0  0  0  0  0  0  0  0  0  0  0
   40.0148   25.9952   27.7267 C   0  0  0  0  0  0  0  0  0  0  0  0
   40.6789   24.8385   25.5632 C   0  0  1  0  0  0  0  0  0  0  0  0
   39.8464   25.7679   26.3809 C   0  0  0  0  0  0  0  0  0  0  0  0
   38.8168   26.3640   25.6976 C   0  0  0  0  0  0  0  0  0  0  0  0
   38.7034   25.9849   24.3021 C   0  0  1  0  0  0  0  0  0  0  0  0
   40.1668   26.9038   22.5118 C   0  0  0  0  0  0  0  0  0  0  0  0
   39.9983   26.2017   23.6811 C   0  0  0  0  0  0  0  0  0  0  0  0
   41.0535   25.6140   24.3256 C   0  0  0  0  0  0  0  0  0  0  0  0
   42.3318   25.7187   23.7972 C   0  0  0  0  0  0  0  0  0  0  0  0
   42.5220   26.4465   22.6206 C   0  0  0  0  0  0  0  0  0  0  0  0
   41.4399   27.0389   21.9830 C   0  0  0  0  0  0  0  0  0  0  0  0
   35.8017   21.9767   26.5819 C   0  0  0  0  0  0  0  0  0  0  0  0
   36.7948   22.9358   27.2275 C   0  0  0  0  0  0  0  0  0  0  0  0
   39.4817   22.4686   27.0295 O   0  0  0  0  0  0  0  0  0  0  0  0
   36.2250   24.4989   24.9425 O   0  0  0  0  0  0  0  0  0  0  0  0
   37.3516   24.0960   25.1803 C   0  0  0  0  0  0  0  0  0  0  0  0
   37.6978   23.3780   26.1768 N   0  0  0  0  0  0  0  0  0  0  0  0
   38.9336   23.1316   26.1875 C   0  0  0  0  0  0  0  0  0  0  0  0
   39.6706   23.7879   25.0720 C   0  0  1  0  0  0  0  0  0  0  0  0
   38.5166   24.4743   24.3367 C   0  0  2  0  0  0  0  0  0  0  0  0
  1  2  1  0  0  0  0
  2  3  1  0  0  0  0
  3 20  1  0  0  0  0
  4  5  1  0  0  0  0
  6  7  2  0  0  0  0
  6 12  1  0  0  0  0
  7  8  1  0  0  0  0
  8  9  2  0  0  0  0
  9 11  1  0  0  0  0
 10  5  1  1  0  0  0
 10 11  1  0  0  0  0
 10 16  1  0  0  0  0
 10 27  1  0  0  0  0
 11 12  2  0  0  0  0
 13 12  1  1  0  0  0
 13 15  1  0  0  0  0
 13 28  1  0  0  0  0
 14 15  2  0  0  0  0
 14 19  1  0  0  0  0
 15 16  1  0  0  0  0
 16 17  2  0  0  0  0
 17 18  1  0  0  0  0
 18 19  2  0  0  0  0
 20 21  1  0  0  0  0
 21 25  1  0  0  0  0
 22 26  2  0  0  0  0
 23 24  2  0  0  0  0
 24 25  1  0  0  0  0
 25 26  1  0  0  0  0
 27 26  1  1  0  0  0
 27 28  1  0  0  0  0
 28 24  1  1  0  0  0
M  END
>  <CHROM.1>
-84.26896409,-58.67430294,81.27145112,67.34954217,66.23202072,39.12115006
24.48250851,25.71836940,-2.20477975,0.04126420,-0.48323799

>  <Name>
ligand

>  <RI>
0

>  <Rbt.Current_Directory>
/home/itssahil/PROJECTS/Mol_Feturizer/New_Systems/rnas/1YLS

>  <Rbt.Executable>
rbdock ($Id: //depot/dev/client3/rdock/2013.1/src/exe/rbdock.cxx#4 $)

>  <Rbt.Library>
libRbt.so (2013.1, Build901 2013/11/27)

>  <Rbt.Parameter_File>
/export/apps/rDock/src/rDock_2013.1_src/data/scripts/dock_solv.prm

>  <Rbt.Receptor>
prm/pocket_docking_7.prm

>  <SCORE>
-28.7791

>  <SCORE.INTER>
-27.4393

>  <SCORE.INTER.CONST>
1

>  <SCORE.INTER.POLAR>
0

>  <SCORE.INTER.ROT>
5

>  <SCORE.INTER.SOLV>
5.7664

>  <SCORE.INTER.VDW>
-27.1483

>  <SCORE.INTER.norm>
-0.979975

>  <SCORE.INTRA>
-1.33981

>  <SCORE.INTRA.DIHEDRAL>
-5.58041

>  <SCORE.INTRA.DIHEDRAL.0>
12.0148

>  <SCORE.INTRA.POLAR>
0

>  <SCORE.INTRA.POLAR.0>
0

>  <SCORE.INTRA.REPUL>
0

>  <SCORE.INTRA.REPUL.0>
0

>  <SCORE.INTRA.SOLV>
0.594401

>  <SCORE.INTRA.SOLV.lig_0>
-10.5235

>  <SCORE.INTRA.VDW>
1.1532

>  <SCORE.INTRA.VDW.0>
-1.38455

>  <SCORE.INTRA.norm>
-0.0478503

>  <SCORE.RESTR>
0

>  <SCORE.RESTR.CAVITY>
0

>  <SCORE.RESTR.norm>
0

>  <SCORE.SYSTEM>
0

>  <SCORE.SYSTEM.CONST>
0

>  <SCORE.SYSTEM.DIHEDRAL>
0

>  <SCORE.SYSTEM.SOLV>
0

>  <SCORE.SYSTEM.norm>
0

>  <SCORE.heavy>
28

>  <SCORE.norm>
-1.02783

>  <RMSD>
6.282

$$$$
ligand
 OpenBabel11021811413D
libRbt.so/2013.1/901 2013/11/27
 28 32  0  0  0  0  0  0  0  0999 V2000
   35.2904   26.7099   26.2927 C   0  0  0  0  0  0  0  0  0  0  0  0
   34.6081   25.3601   26.3950 C   0  0  0  0  0  0  0  0  0  0  0  0
   35.3934   24.2775   25.6697 C   0  0  0  0  0  0  0  0  0  0  0  0
   43.5039   23.9720   25.2252 O   0  0  0  0  0  0  0  0  0  0  0  0
   42.5975   24.6122   26.1250 C   0  0  0  0  0  0  0  0  0  0  0  0
   38.4962   27.3467   26.2427 C   0  0  0  0  0  0  0  0  0  0  0  0
   38.3986   27.1896   27.6193 C   0  0  0  0  0  0  0  0  0  0  0  0
   39.3442   26.4131   28.2938 C   0  0  0  0  0  0  0  0  0  0  0  0
   40.3854   25.7981   27.5976 C   0  0  0  0  0  0  0  0  0  0  0  0
   41.5069   25.3704   25.3573 C   0  0  1  0  0  0  0  0  0  0  0  0
   40.4763   25.9915   26.2390 C   0  0  0  0  0  0  0  0  0  0  0  0
   39.5439   26.7522   25.5801 C   0  0  0  0  0  0  0  0  0  0  0  0
   39.7087   26.8172   24.1405 C   0  0  1  0  0  0  0  0  0  0  0  0
   41.3960   28.2629   23.0208 C   0  0  0  0  0  0  0  0  0  0  0  0
   41.0740   27.2339   23.8727 C   0  0  0  0  0  0  0  0  0  0  0  0
   42.0379   26.4934   24.5028 C   0  0  0  0  0  0  0  0  0  0  0  0
   43.3786   26.7749   24.2851 C   0  0  0  0  0  0  0  0  0  0  0  0
   43.7213   27.8310   23.4381 C   0  0  0  0  0  0  0  0  0  0  0  0
   42.7295   28.5734   22.8107 C   0  0  0  0  0  0  0  0  0  0  0  0
   36.7049   23.9924   26.3899 C   0  0  0  0  0  0  0  0  0  0  0  0
   37.5387   22.9891   25.6018 C   0  0  0  0  0  0  0  0  0  0  0  0
   40.2449   22.6468   25.7929 O   0  0  0  0  0  0  0  0  0  0  0  0
   37.2716   25.1680   23.8213 O   0  0  0  0  0  0  0  0  0  0  0  0
   38.3643   24.7292   24.1397 C   0  0  0  0  0  0  0  0  0  0  0  0
   38.5794   23.7459   24.9242 N   0  0  0  0  0  0  0  0  0  0  0  0
   39.8083   23.5274   25.0978 C   0  0  0  0  0  0  0  0  0  0  0  0
   40.6818   24.5052   24.3915 C   0  0  1  0  0  0  0  0  0  0  0  0
   39.6300   25.3659   23.6870 C   0  0  2  0  0  0  0  0  0  0  0  0
  1  2  1  0  0  0  0
  2  3  1  0  0  0  0
  3 20  1  0  0  0  0
  4  5  1  0  0  0  0
  6  7  2  0  0  0  0
  6 12  1  0  0  0  0
  7  8  1  0  0  0  0
  8  9  2  0  0  0  0
  9 11  1  0  0  0  0
 10  5  1  1  0  0  0
 10 11  1  0  0  0  0
 10 16  1  0  0  0  0
 10 27  1  0  0  0  0
 11 12  2  0  0  0  0
 13 12  1  1  0  0  0
 13 15  1  0  0  0  0
 13 28  1  0  0  0  0
 14 15  2  0  0  0  0
 14 19  1  0  0  0  0
 15 16  1  0  0  0  0
 16 17  2  0  0  0  0
 17 18  1  0  0  0  0
 18 19  2  0  0  0  0
 20 21  1  0  0  0  0
 21 25  1  0  0  0  0
 22 26  2  0  0  0  0
 23 24  2  0  0  0  0
 24 25  1  0  0  0  0
 25 26  1  0  0  0  0
 27 26  1  1  0  0  0
 27 28  1  0  0  0  0
 28 24  1  1  0  0  0
M  END
>  <CHROM.1>
68.48569766,176.36023688,-175.49485709,102.69574782,-55.56761722,39.64350395
25.56101454,25.24421911,2.83506814,-0.20228676,2.89019860

>  <Name>
ligand

>  <RI>
0

>  <Rbt.Current_Directory>
/home/itssahil/PROJECTS/Mol_Feturizer/New_Systems/rnas/1YLS

>  <Rbt.Executable>
rbdock ($Id: //depot/dev/client3/rdock/2013.1/src/exe/rbdock.cxx#4 $)

>  <Rbt.Library>
libRbt.so (2013.1, Build901 2013/11/27)

>  <Rbt.Parameter_File>
/export/apps/rDock/src/rDock_2013.1_src/data/scripts/dock_solv.prm

>  <Rbt.Receptor>
prm/pocket_docking_6.prm

>  <SCORE>
-26.5598

>  <SCORE.INTER>
-25.4521

>  <SCORE.INTER.CONST>
1

>  <SCORE.INTER.POLAR>
0

>  <SCORE.INTER.ROT>
5

>  <SCORE.INTER.SOLV>
7.44856

>  <SCORE.INTER.VDW>
-26.3842

>  <SCORE.INTER.norm>
-0.909002

>  <SCORE.INTRA>
-1.10777

>  <SCORE.INTRA.DIHEDRAL>
-4.76698

>  <SCORE.INTRA.DIHEDRAL.0>
12.0148

>  <SCORE.INTRA.POLAR>
0

>  <SCORE.INTRA.POLAR.0>
0

>  <SCORE.INTRA.REPUL>
0

>  <SCORE.INTRA.REPUL.0>
0

>  <SCORE.INTRA.SOLV>
0.624367

>  <SCORE.INTRA.SOLV.lig_0>
-10.5235

>  <SCORE.INTRA.VDW>
0.963533

>  <SCORE.INTRA.VDW.0>
-1.38455

>  <SCORE.INTRA.norm>
-0.0395633

>  <SCORE.RESTR>
0

>  <SCORE.RESTR.CAVITY>
0

>  <SCORE.RESTR.norm>
0

>  <SCORE.SYSTEM>
0

>  <SCORE.SYSTEM.CONST>
0

>  <SCORE.SYSTEM.DIHEDRAL>
0

>  <SCORE.SYSTEM.SOLV>
0

>  <SCORE.SYSTEM.norm>
0

>  <SCORE.heavy>
28

>  <SCORE.norm>
-0.948566

>  <RMSD>
6.286

$$$$
ligand
 OpenBabel11021811413D
libRbt.so/2013.1/901 2013/11/27
 28 32  0  0  0  0  0  0  0  0999 V2000
   37.4887   17.1126   25.9401 C   0  0  0  0  0  0  0  0  0  0  0  0
   36.9170   17.6725   27.2276 C   0  0  0  0  0  0  0  0  0  0  0  0
   37.2540   19.1464   27.3974 C   0  0  0  0  0  0  0  0  0  0  0  0
   41.9523   22.9905   25.3910 O   0  0  0  0  0  0  0  0  0  0  0  0
   41.1269   23.6971   26.3185 C   0  0  0  0  0  0  0  0  0  0  0  0
   36.7530   25.9357   26.7314 C   0  0  0  0  0  0  0  0  0  0  0  0
   36.9201   26.0685   28.1039 C   0  0  0  0  0  0  0  0  0  0  0  0
   38.0719   25.5614   28.7109 C   0  0  0  0  0  0  0  0  0  0  0  0
   39.0549   24.9268   27.9505 C   0  0  0  0  0  0  0  0  0  0  0  0
   39.8204   24.1509   25.6545 C   0  0  1  0  0  0  0  0  0  0  0  0
   38.8791   24.8324   26.5898 C   0  0  0  0  0  0  0  0  0  0  0  0
   37.7452   25.3290   25.9982 C   0  0  0  0  0  0  0  0  0  0  0  0
   37.6460   25.1004   24.5693 C   0  0  1  0  0  0  0  0  0  0  0  0
   38.8830   26.4448   22.8800 C   0  0  0  0  0  0  0  0  0  0  0  0
   38.8681   25.5943   23.9593 C   0  0  0  0  0  0  0  0  0  0  0  0
   40.0246   25.1145   24.5130 C   0  0  0  0  0  0  0  0  0  0  0  0
   41.2512   25.4852   23.9819 C   0  0  0  0  0  0  0  0  0  0  0  0
   41.2833   26.3652   22.8981 C   0  0  0  0  0  0  0  0  0  0  0  0
   40.0997   26.8444   22.3522 C   0  0  0  0  0  0  0  0  0  0  0  0
   36.2327   20.0168   26.6766 C   0  0  0  0  0  0  0  0  0  0  0  0
   36.3469   21.4651   27.1373 C   0  0  0  0  0  0  0  0  0  0  0  0
   39.0657   21.4650   26.8446 O   0  0  0  0  0  0  0  0  0  0  0  0
   35.4585   23.1689   25.0644 O   0  0  0  0  0  0  0  0  0  0  0  0
   36.6423   22.9289   25.2354 C   0  0  0  0  0  0  0  0  0  0  0  0
   37.1319   22.1661   26.1336 N   0  0  0  0  0  0  0  0  0  0  0  0
   38.3908   22.1234   26.0962 C   0  0  0  0  0  0  0  0  0  0  0  0
   38.9757   23.0148   25.0563 C   0  0  1  0  0  0  0  0  0  0  0  0
   37.7030   23.5858   24.4257 C   0  0  2  0  0  0  0  0  0  0  0  0
  1  2  1  0  0  0  0
  2  3  1  0  0  0  0
  3 20  1  0  0  0  0
  4  5  1  0  0  0  0
  6  7  2  0  0  0  0
  6 12  1  0  0  0  0
  7  8  1  0  0  0  0
  8  9  2  0  0  0  0
  9 11  1  0  0  0  0
 10  5  1  1  0  0  0
 10 11  1  0  0  0  0
 10 16  1  0  0  0  0
 10 27  1  0  0  0  0
 11 12  2  0  0  0  0
 13 12  1  1  0  0  0
 13 15  1  0  0  0  0
 13 28  1  0  0  0  0
 14 15  2  0  0  0  0
 14 19  1  0  0  0  0
 15 16  1  0  0  0  0
 16 17  2  0  0  0  0
 17 18  1  0  0  0  0
 18 19  2  0  0  0  0
 20 21  1  0  0  0  0
 21 25  1  0  0  0  0
 22 26  2  0  0  0  0
 23 24  2  0  0  0  0
 24 25  1  0  0  0  0
 25 26  1  0  0  0  0
 27 26  1  1  0  0  0
 27 28  1  0  0  0  0
 28 24  1  1  0  0  0
M  END
>  <CHROM.1>
85.52129844,176.89163218,165.20308654,98.90017546,101.87426399,38.40017042
23.33678992,25.74035985,-2.01440888,0.56589204,-0.09878192

>  <Name>
ligand

>  <RI>
0

>  <Rbt.Current_Directory>
/home/itssahil/PROJECTS/Mol_Feturizer/New_Systems/rnas/1YLS

>  <Rbt.Executable>
rbdock ($Id: //depot/dev/client3/rdock/2013.1/src/exe/rbdock.cxx#4 $)

>  <Rbt.Library>
libRbt.so (2013.1, Build901 2013/11/27)

>  <Rbt.Parameter_File>
/export/apps/rDock/src/rDock_2013.1_src/data/scripts/dock_solv.prm

>  <Rbt.Receptor>
prm/pocket_docking_8.prm

>  <SCORE>
-26.5595

>  <SCORE.INTER>
-25.8233

>  <SCORE.INTER.CONST>
1

>  <SCORE.INTER.POLAR>
0

>  <SCORE.INTER.ROT>
5

>  <SCORE.INTER.SOLV>
8.19989

>  <SCORE.INTER.VDW>
-26.8822

>  <SCORE.INTER.norm>
-0.922262

>  <SCORE.INTRA>
-0.736172

>  <SCORE.INTRA.DIHEDRAL>
-2.53192

>  <SCORE.INTRA.DIHEDRAL.0>
12.0148

>  <SCORE.INTRA.POLAR>
0

>  <SCORE.INTRA.POLAR.0>
0

>  <SCORE.INTRA.REPUL>
0

>  <SCORE.INTRA.REPUL.0>
0

>  <SCORE.INTRA.SOLV>
0.383491

>  <SCORE.INTRA.SOLV.lig_0>
-10.5235

>  <SCORE.INTRA.VDW>
0.338041

>  <SCORE.INTRA.VDW.0>
-1.38455

>  <SCORE.INTRA.norm>
-0.0262918

>  <SCORE.RESTR>
0

>  <SCORE.RESTR.CAVITY>
0

>  <SCORE.RESTR.norm>
0

>  <SCORE.SYSTEM>
0

>  <SCORE.SYSTEM.CONST>
0

>  <SCORE.SYSTEM.DIHEDRAL>
0

>  <SCORE.SYSTEM.SOLV>
0

>  <SCORE.SYSTEM.norm>
0

>  <SCORE.heavy>
28

>  <SCORE.norm>
-0.948554

>  <RMSD>
6.294

$$$$
ligand
 OpenBabel11021811413D
libRbt.so/2013.1/901 2013/11/27
 28 32  0  0  0  0  0  0  0  0999 V2000
   33.8011   24.3622   24.7689 C   0  0  0  0  0  0  0  0  0  0  0  0
   34.3575   23.1032   25.4039 C   0  0  0  0  0  0  0  0  0  0  0  0
   35.2192   23.4198   26.6172 C   0  0  0  0  0  0  0  0  0  0  0  0
   41.9228   23.6262   26.8965 O   0  0  0  0  0  0  0  0  0  0  0  0
   42.5062   24.5458   25.9718 C   0  0  0  0  0  0  0  0  0  0  0  0
   38.4760   27.3683   26.2942 C   0  0  0  0  0  0  0  0  0  0  0  0
   38.3936   27.1414   27.6621 C   0  0  0  0  0  0  0  0  0  0  0  0
   39.3289   26.3079   28.2808 C   0  0  0  0  0  0  0  0  0  0  0  0
   40.3447   25.7055   27.5377 C   0  0  0  0  0  0  0  0  0  0  0  0
   41.4242   25.3694   25.2613 C   0  0  1  0  0  0  0  0  0  0  0  0
   40.4217   25.9679   26.1898 C   0  0  0  0  0  0  0  0  0  0  0  0
   39.4994   26.7845   25.5858 C   0  0  0  0  0  0  0  0  0  0  0  0
   39.6458   26.9211   24.1491 C   0  0  1  0  0  0  0  0  0  0  0  0
   41.3529   28.3828   23.0812 C   0  0  0  0  0  0  0  0  0  0  0  0
   41.0172   27.3184   23.8830 C   0  0  0  0  0  0  0  0  0  0  0  0
   41.9710   26.5228   24.4588 C   0  0  0  0  0  0  0  0  0  0  0  0
   43.3152   26.7829   24.2359 C   0  0  0  0  0  0  0  0  0  0  0  0
   43.6723   27.8736   23.4402 C   0  0  0  0  0  0  0  0  0  0  0  0
   42.6906   28.6717   22.8676 C   0  0  0  0  0  0  0  0  0  0  0  0
   36.5274   24.0730   26.1905 C   0  0  0  0  0  0  0  0  0  0  0  0
   37.4019   23.0748   25.4409 C   0  0  0  0  0  0  0  0  0  0  0  0
   40.1011   22.6579   25.5730 O   0  0  0  0  0  0  0  0  0  0  0  0
   37.1644   25.3502   23.7810 O   0  0  0  0  0  0  0  0  0  0  0  0
   38.2502   24.8691   24.0596 C   0  0  0  0  0  0  0  0  0  0  0  0
   38.4516   23.8409   24.7882 N   0  0  0  0  0  0  0  0  0  0  0  0
   39.6769   23.5840   24.9316 C   0  0  0  0  0  0  0  0  0  0  0  0
   40.5646   24.5764   24.2643 C   0  0  1  0  0  0  0  0  0  0  0  0
   39.5249   25.4980   23.6217 C   0  0  2  0  0  0  0  0  0  0  0  0
  1  2  1  0  0  0  0
  2  3  1  0  0  0  0
  3 20  1  0  0  0  0
  4  5  1  0  0  0  0
  6  7  2  0  0  0  0
  6 12  1  0  0  0  0
  7  8  1  0  0  0  0
  8  9  2  0  0  0  0
  9 11  1  0  0  0  0
 10  5  1  1  0  0  0
 10 11  1  0  0  0  0
 10 16  1  0  0  0  0
 10 27  1  0  0  0  0
 11 12  2  0  0  0  0
 13 12  1  1  0  0  0
 13 15  1  0  0  0  0
 13 28  1  0  0  0  0
 14 15  2  0  0  0  0
 14 19  1  0  0  0  0
 15 16  1  0  0  0  0
 16 17  2  0  0  0  0
 17 18  1  0  0  0  0
 18 19  2  0  0  0  0
 20 21  1  0  0  0  0
 21 25  1  0  0  0  0
 22 26  2  0  0  0  0
 23 24  2  0  0  0  0
 24 25  1  0  0  0  0
 25 26  1  0  0  0  0
 27 26  1  1  0  0  0
 27 28  1  0  0  0  0
 28 24  1  1  0  0  0
M  END
>  <CHROM.1>
-70.64932252,48.90716802,-68.11986186,166.05319014,-50.48514791,39.42848482
25.36903544,25.19949901,2.68887305,0.14254766,2.47494463

>  <Name>
ligand

>  <RI>
0

>  <Rbt.Current_Directory>
/home/itssahil/PROJECTS/Mol_Feturizer/New_Systems/rnas/1YLS

>  <Rbt.Executable>
rbdock ($Id: //depot/dev/client3/rdock/2013.1/src/exe/rbdock.cxx#4 $)

>  <Rbt.Library>
libRbt.so (2013.1, Build901 2013/11/27)

>  <Rbt.Parameter_File>
/export/apps/rDock/src/rDock_2013.1_src/data/scripts/dock_solv.prm

>  <Rbt.Receptor>
prm/pocket_docking_6.prm

>  <SCORE>
-26.2546

>  <SCORE.INTER>
-25.9257

>  <SCORE.INTER.CONST>
1

>  <SCORE.INTER.POLAR>
0

>  <SCORE.INTER.ROT>
5

>  <SCORE.INTER.SOLV>
7.81448

>  <SCORE.INTER.VDW>
-26.8219

>  <SCORE.INTER.norm>
-0.925917

>  <SCORE.INTRA>
-0.328883

>  <SCORE.INTRA.DIHEDRAL>
-7.88143

>  <SCORE.INTRA.DIHEDRAL.0>
12.0148

>  <SCORE.INTRA.POLAR>
0

>  <SCORE.INTRA.POLAR.0>
0

>  <SCORE.INTRA.REPUL>
0

>  <SCORE.INTRA.REPUL.0>
0

>  <SCORE.INTRA.SOLV>
0.848304

>  <SCORE.INTRA.SOLV.lig_0>
-10.5235

>  <SCORE.INTRA.VDW>
3.18768

>  <SCORE.INTRA.VDW.0>
-1.38455

>  <SCORE.INTRA.norm>
-0.0117458

>  <SCORE.RESTR>
0

>  <SCORE.RESTR.CAVITY>
0

>  <SCORE.RESTR.norm>
0

>  <SCORE.SYSTEM>
0

>  <SCORE.SYSTEM.CONST>
0

>  <SCORE.SYSTEM.DIHEDRAL>
0

>  <SCORE.SYSTEM.SOLV>
0

>  <SCORE.SYSTEM.norm>
0

>  <SCORE.heavy>
28

>  <SCORE.norm>
-0.937663

>  <RMSD>
6.336

$$$$
ligand
 OpenBabel11021811413D
libRbt.so/2013.1/901 2013/11/27
 28 32  0  0  0  0  0  0  0  0999 V2000
   36.4525   19.3987   26.9883 C   0  0  0  0  0  0  0  0  0  0  0  0
   37.2581   20.6208   26.5940 C   0  0  0  0  0  0  0  0  0  0  0  0
   36.8522   21.8453   27.4006 C   0  0  0  0  0  0  0  0  0  0  0  0
   43.0624   23.9919   24.4793 O   0  0  0  0  0  0  0  0  0  0  0  0
   42.2389   24.4293   25.5617 C   0  0  0  0  0  0  0  0  0  0  0  0
   38.4982   27.4562   26.6374 C   0  0  0  0  0  0  0  0  0  0  0  0
   38.5357   27.0723   27.9718 C   0  0  0  0  0  0  0  0  0  0  0  0
   39.4593   26.1095   28.3869 C   0  0  0  0  0  0  0  0  0  0  0  0
   40.3444   25.5342   27.4744 C   0  0  0  0  0  0  0  0  0  0  0  0
   41.1599   25.4031   25.0707 C   0  0  1  0  0  0  0  0  0  0  0  0
   40.3062   25.9513   26.1645 C   0  0  0  0  0  0  0  0  0  0  0  0
   39.3957   26.8947   25.7604 C   0  0  0  0  0  0  0  0  0  0  0  0
   39.4076   27.1932   24.3410 C   0  0  1  0  0  0  0  0  0  0  0  0
   41.1094   28.6551   23.2650 C   0  0  0  0  0  0  0  0  0  0  0  0
   40.7725   27.5268   23.9735 C   0  0  0  0  0  0  0  0  0  0  0  0
   41.7132   26.6054   24.3486 C   0  0  0  0  0  0  0  0  0  0  0  0
   43.0445   26.7998   24.0113 C   0  0  0  0  0  0  0  0  0  0  0  0
   43.4054   27.9519   23.3094 C   0  0  0  0  0  0  0  0  0  0  0  0
   42.4376   28.8772   22.9408 C   0  0  0  0  0  0  0  0  0  0  0  0
   37.5093   23.0995   26.8393 C   0  0  0  0  0  0  0  0  0  0  0  0
   37.0065   23.3785   25.4278 C   0  0  0  0  0  0  0  0  0  0  0  0
   39.6637   22.7687   25.2171 O   0  0  0  0  0  0  0  0  0  0  0  0
   36.7849   25.8480   24.0708 O   0  0  0  0  0  0  0  0  0  0  0  0
   37.8516   25.2651   24.1733 C   0  0  0  0  0  0  0  0  0  0  0  0
   38.0429   24.1456   24.7551 N   0  0  0  0  0  0  0  0  0  0  0  0
   39.2522   23.7917   24.7342 C   0  0  0  0  0  0  0  0  0  0  0  0
   40.1443   24.7954   24.0903 C   0  0  1  0  0  0  0  0  0  0  0  0
   39.1217   25.8553   23.6728 C   0  0  2  0  0  0  0  0  0  0  0  0
  1  2  1  0  0  0  0
  2  3  1  0  0  0  0
  3 20  1  0  0  0  0
  4  5  1  0  0  0  0
  6  7  2  0  0  0  0
  6 12  1  0  0  0  0
  7  8  1  0  0  0  0
  8  9  2  0  0  0  0
  9 11  1  0  0  0  0
 10  5  1  1  0  0  0
 10 11  1  0  0  0  0
 10 16  1  0  0  0  0
 10 27  1  0  0  0  0
 11 12  2  0  0  0  0
 13 12  1  1  0  0  0
 13 15  1  0  0  0  0
 13 28  1  0  0  0  0
 14 15  2  0  0  0  0
 14 19  1  0  0  0  0
 15 16  1  0  0  0  0
 16 17  2  0  0  0  0
 17 18  1  0  0  0  0
 18 19  2  0  0  0  0
 20 21  1  0  0  0  0
 21 25  1  0  0  0  0
 22 26  2  0  0  0  0
 23 24  2  0  0  0  0
 24 25  1  0  0  0  0
 25 26  1  0  0  0  0
 27 26  1  1  0  0  0
 27 28  1  0  0  0  0
 28 24  1  1  0  0  0
M  END
>  <CHROM.1>
-170.93442345,-177.14077678,64.39852050,-154.73167157,-126.40483649,39.60024383
25.10506662,25.28235035,-2.27033684,0.36036532,-0.13513378

>  <Name>
ligand

>  <RI>
0

>  <Rbt.Current_Directory>
/home/itssahil/PROJECTS/Mol_Feturizer/New_Systems/rnas/1YLS

>  <Rbt.Executable>
rbdock ($Id: //depot/dev/client3/rdock/2013.1/src/exe/rbdock.cxx#4 $)

>  <Rbt.Library>
libRbt.so (2013.1, Build901 2013/11/27)

>  <Rbt.Parameter_File>
/export/apps/rDock/src/rDock_2013.1_src/data/scripts/dock_solv.prm

>  <Rbt.Receptor>
prm/pocket_docking_8.prm

>  <SCORE>
-30.96

>  <SCORE.INTER>
-29.6611

>  <SCORE.INTER.CONST>
1

>  <SCORE.INTER.POLAR>
0

>  <SCORE.INTER.ROT>
5

>  <SCORE.INTER.SOLV>
9.09067

>  <SCORE.INTER.VDW>
-29.7376

>  <SCORE.INTER.norm>
-1.05932

>  <SCORE.INTRA>
-1.29894

>  <SCORE.INTRA.DIHEDRAL>
-7.14635

>  <SCORE.INTRA.DIHEDRAL.0>
12.0148

>  <SCORE.INTRA.POLAR>
0

>  <SCORE.INTRA.POLAR.0>
0

>  <SCORE.INTRA.REPUL>
0

>  <SCORE.INTRA.REPUL.0>
0

>  <SCORE.INTRA.SOLV>
0.349633

>  <SCORE.INTRA.SOLV.lig_0>
-10.5235

>  <SCORE.INTRA.VDW>
2.09942

>  <SCORE.INTRA.VDW.0>
-1.38455

>  <SCORE.INTRA.norm>
-0.0463908

>  <SCORE.RESTR>
0

>  <SCORE.RESTR.CAVITY>
0

>  <SCORE.RESTR.norm>
0

>  <SCORE.SYSTEM>
0

>  <SCORE.SYSTEM.CONST>
0

>  <SCORE.SYSTEM.DIHEDRAL>
0

>  <SCORE.SYSTEM.SOLV>
0

>  <SCORE.SYSTEM.norm>
0

>  <SCORE.heavy>
28

>  <SCORE.norm>
-1.10572

>  <RMSD>
6.343

$$$$
ligand
 OpenBabel11021811413D
libRbt.so/2013.1/901 2013/11/27
 28 32  0  0  0  0  0  0  0  0999 V2000
   37.2159   17.9161   27.1566 C   0  0  0  0  0  0  0  0  0  0  0  0
   36.2454   18.9993   26.7292 C   0  0  0  0  0  0  0  0  0  0  0  0
   36.7952   20.3894   27.0124 C   0  0  0  0  0  0  0  0  0  0  0  0
   42.2506   25.2923   26.9331 O   0  0  0  0  0  0  0  0  0  0  0  0
   41.4154   24.2347   26.4588 C   0  0  0  0  0  0  0  0  0  0  0  0
   37.4289   27.1175   26.1277 C   0  0  0  0  0  0  0  0  0  0  0  0
   37.4851   27.3974   27.4870 C   0  0  0  0  0  0  0  0  0  0  0  0
   38.4806   26.8097   28.2719 C   0  0  0  0  0  0  0  0  0  0  0  0
   39.4185   25.9482   27.7017 C   0  0  0  0  0  0  0  0  0  0  0  0
   40.2649   24.7852   25.6062 C   0  0  1  0  0  0  0  0  0  0  0  0
   39.3588   25.7088   26.3487 C   0  0  0  0  0  0  0  0  0  0  0  0
   38.3778   26.2855   25.5823 C   0  0  0  0  0  0  0  0  0  0  0  0
   38.3787   25.8947   24.1854 C   0  0  1  0  0  0  0  0  0  0  0  0
   39.9650   26.8207   22.5070 C   0  0  0  0  0  0  0  0  0  0  0  0
   39.7151   26.1250   23.6655 C   0  0  0  0  0  0  0  0  0  0  0  0
   40.7245   25.5567   24.3951 C   0  0  0  0  0  0  0  0  0  0  0  0
   42.0386   25.6754   23.9672 C   0  0  0  0  0  0  0  0  0  0  0  0
   42.3104   26.3971   22.8029 C   0  0  0  0  0  0  0  0  0  0  0  0
   41.2736   26.9697   22.0779 C   0  0  0  0  0  0  0  0  0  0  0  0
   35.8200   21.4590   26.5378 C   0  0  0  0  0  0  0  0  0  0  0  0
   36.2884   22.8407   26.9786 C   0  0  0  0  0  0  0  0  0  0  0  0
   38.9886   22.4095   26.9946 O   0  0  0  0  0  0  0  0  0  0  0  0
   35.8779   24.3789   24.6432 O   0  0  0  0  0  0  0  0  0  0  0  0
   36.9877   23.9935   24.9714 C   0  0  0  0  0  0  0  0  0  0  0  0
   37.2647   23.2877   25.9978 N   0  0  0  0  0  0  0  0  0  0  0  0
   38.4991   23.0587   26.1068 C   0  0  0  0  0  0  0  0  0  0  0  0
   39.3120   23.7170   25.0467 C   0  0  1  0  0  0  0  0  0  0  0  0
   38.2099   24.3819   24.2180 C   0  0  2  0  0  0  0  0  0  0  0  0
  1  2  1  0  0  0  0
  2  3  1  0  0  0  0
  3 20  1  0  0  0  0
  4  5  1  0  0  0  0
  6  7  2  0  0  0  0
  6 12  1  0  0  0  0
  7  8  1  0  0  0  0
  8  9  2  0  0  0  0
  9 11  1  0  0  0  0
 10  5  1  1  0  0  0
 10 11  1  0  0  0  0
 10 16  1  0  0  0  0
 10 27  1  0  0  0  0
 11 12  2  0  0  0  0
 13 12  1  1  0  0  0
 13 15  1  0  0  0  0
 13 28  1  0  0  0  0
 14 15  2  0  0  0  0
 14 19  1  0  0  0  0
 15 16  1  0  0  0  0
 16 17  2  0  0  0  0
 17 18  1  0  0  0  0
 18 19  2  0  0  0  0
 20 21  1  0  0  0  0
 21 25  1  0  0  0  0
 22 26  2  0  0  0  0
 23 24  2  0  0  0  0
 24 25  1  0  0  0  0
 25 26  1  0  0  0  0
 27 26  1  1  0  0  0
 27 28  1  0  0  0  0
 28 24  1  1  0  0  0
M  END
>  <CHROM.1>
178.36786043,-61.22948692,172.86041781,83.26423381,92.74437089,38.74380114
24.27428049,25.64708094,-2.18169535,0.42001568,-0.11078064

>  <Name>
ligand

>  <RI>
0

>  <Rbt.Current_Directory>
/home/itssahil/PROJECTS/Mol_Feturizer/New_Systems/rnas/1YLS

>  <Rbt.Executable>
rbdock ($Id: //depot/dev/client3/rdock/2013.1/src/exe/rbdock.cxx#4 $)

>  <Rbt.Library>
libRbt.so (2013.1, Build901 2013/11/27)

>  <Rbt.Parameter_File>
/export/apps/rDock/src/rDock_2013.1_src/data/scripts/dock_solv.prm

>  <Rbt.Receptor>
prm/pocket_docking_7.prm

>  <SCORE>
-33.0875

>  <SCORE.INTER>
-29.1589

>  <SCORE.INTER.CONST>
1

>  <SCORE.INTER.POLAR>
0

>  <SCORE.INTER.ROT>
5

>  <SCORE.INTER.SOLV>
6.60253

>  <SCORE.INTER.VDW>
-28.5735

>  <SCORE.INTER.norm>
-1.04139

>  <SCORE.INTRA>
-3.92853

>  <SCORE.INTRA.DIHEDRAL>
-7.7722

>  <SCORE.INTRA.DIHEDRAL.0>
12.0148

>  <SCORE.INTRA.POLAR>
0

>  <SCORE.INTRA.POLAR.0>
0

>  <SCORE.INTRA.REPUL>
0

>  <SCORE.INTRA.REPUL.0>
0

>  <SCORE.INTRA.SOLV>
0.237158

>  <SCORE.INTRA.SOLV.lig_0>
-10.5235

>  <SCORE.INTRA.VDW>
-0.161011

>  <SCORE.INTRA.VDW.0>
-1.38455

>  <SCORE.INTRA.norm>
-0.140305

>  <SCORE.RESTR>
0

>  <SCORE.RESTR.CAVITY>
0

>  <SCORE.RESTR.norm>
0

>  <SCORE.SYSTEM>
0

>  <SCORE.SYSTEM.CONST>
0

>  <SCORE.SYSTEM.DIHEDRAL>
0

>  <SCORE.SYSTEM.SOLV>
0

>  <SCORE.SYSTEM.norm>
0

>  <SCORE.heavy>
28

>  <SCORE.norm>
-1.1817

>  <RMSD>
6.358

$$$$
ligand
 OpenBabel11021811413D
libRbt.so/2013.1/901 2013/11/27
 28 32  0  0  0  0  0  0  0  0999 V2000
   36.2073   19.1820   26.9936 C   0  0  0  0  0  0  0  0  0  0  0  0
   36.5294   20.5549   26.4374 C   0  0  0  0  0  0  0  0  0  0  0  0
   35.2758   21.4000   26.2668 C   0  0  0  0  0  0  0  0  0  0  0  0
   42.3339   23.5145   24.9876 O   0  0  0  0  0  0  0  0  0  0  0  0
   41.7373   24.1723   26.1067 C   0  0  0  0  0  0  0  0  0  0  0  0
   38.3892   27.5911   27.2959 C   0  0  0  0  0  0  0  0  0  0  0  0
   38.5235   27.2920   28.6456 C   0  0  0  0  0  0  0  0  0  0  0  0
   39.3979   26.2776   29.0438 C   0  0  0  0  0  0  0  0  0  0  0  0
   40.1382   25.5664   28.0987 C   0  0  0  0  0  0  0  0  0  0  0  0
   40.7023   25.2070   25.6466 C   0  0  1  0  0  0  0  0  0  0  0  0
   40.0085   25.9000   26.7708 C   0  0  0  0  0  0  0  0  0  0  0  0
   39.1464   26.8947   26.3839 C   0  0  0  0  0  0  0  0  0  0  0  0
   39.0457   27.0990   24.9514 C   0  0  1  0  0  0  0  0  0  0  0  0
   40.7529   28.3271   23.6215 C   0  0  0  0  0  0  0  0  0  0  0  0
   40.3919   27.2822   24.4378 C   0  0  0  0  0  0  0  0  0  0  0  0
   41.2829   26.3048   24.7917 C   0  0  0  0  0  0  0  0  0  0  0  0
   42.5869   26.3547   24.3213 C   0  0  0  0  0  0  0  0  0  0  0  0
   42.9744   27.4215   23.5077 C   0  0  0  0  0  0  0  0  0  0  0  0
   42.0574   28.4057   23.1625 C   0  0  0  0  0  0  0  0  0  0  0  0
   35.6100   22.7264   25.5967 C   0  0  0  0  0  0  0  0  0  0  0  0
   36.4465   23.5975   26.5265 C   0  0  0  0  0  0  0  0  0  0  0  0
   39.0093   22.7351   26.1196 O   0  0  0  0  0  0  0  0  0  0  0  0
   36.3046   25.9845   25.0195 O   0  0  0  0  0  0  0  0  0  0  0  0
   37.3228   25.3144   25.0665 C   0  0  0  0  0  0  0  0  0  0  0  0
   37.4739   24.2218   25.7083 N   0  0  0  0  0  0  0  0  0  0  0  0
   38.6411   23.7583   25.6031 C   0  0  0  0  0  0  0  0  0  0  0  0
   39.5485   24.6328   24.8094 C   0  0  1  0  0  0  0  0  0  0  0  0
   38.5838   25.7527   24.4110 C   0  0  2  0  0  0  0  0  0  0  0  0
  1  2  1  0  0  0  0
  2  3  1  0  0  0  0
  3 20  1  0  0  0  0
  4  5  1  0  0  0  0
  6  7  2  0  0  0  0
  6 12  1  0  0  0  0
  7  8  1  0  0  0  0
  8  9  2  0  0  0  0
  9 11  1  0  0  0  0
 10  5  1  1  0  0  0
 10 11  1  0  0  0  0
 10 16  1  0  0  0  0
 10 27  1  0  0  0  0
 11 12  2  0  0  0  0
 13 12  1  1  0  0  0
 13 15  1  0  0  0  0
 13 28  1  0  0  0  0
 14 15  2  0  0  0  0
 14 19  1  0  0  0  0
 15 16  1  0  0  0  0
 16 17  2  0  0  0  0
 17 18  1  0  0  0  0
 18 19  2  0  0  0  0
 20 21  1  0  0  0  0
 21 25  1  0  0  0  0
 22 26  2  0  0  0  0
 23 24  2  0  0  0  0
 24 25  1  0  0  0  0
 25 26  1  0  0  0  0
 27 26  1  1  0  0  0
 27 28  1  0  0  0  0
 28 24  1  1  0  0  0
M  END
>  <CHROM.1>
-175.13406339,178.11971899,-68.14866155,138.83431307,86.60080251,39.06942912
24.96920397,25.72944823,-2.36316760,0.37764109,0.05264452

>  <Name>
ligand

>  <RI>
0

>  <Rbt.Current_Directory>
/home/itssahil/PROJECTS/Mol_Feturizer/New_Systems/rnas/1YLS

>  <Rbt.Executable>
rbdock ($Id: //depot/dev/client3/rdock/2013.1/src/exe/rbdock.cxx#4 $)

>  <Rbt.Library>
libRbt.so (2013.1, Build901 2013/11/27)

>  <Rbt.Parameter_File>
/export/apps/rDock/src/rDock_2013.1_src/data/scripts/dock_solv.prm

>  <Rbt.Receptor>
prm/pocket_docking_5.prm

>  <SCORE>
-33.3213

>  <SCORE.INTER>
-31.3697

>  <SCORE.INTER.CONST>
1

>  <SCORE.INTER.POLAR>
0

>  <SCORE.INTER.ROT>
5

>  <SCORE.INTER.SOLV>
6.97386

>  <SCORE.INTER.VDW>
-30.1711

>  <SCORE.INTER.norm>
-1.12035

>  <SCORE.INTRA>
-1.95163

>  <SCORE.INTRA.DIHEDRAL>
-5.13498

>  <SCORE.INTRA.DIHEDRAL.0>
12.0148

>  <SCORE.INTRA.POLAR>
0

>  <SCORE.INTRA.POLAR.0>
0

>  <SCORE.INTRA.REPUL>
0

>  <SCORE.INTRA.REPUL.0>
0

>  <SCORE.INTRA.SOLV>
0.416525

>  <SCORE.INTRA.SOLV.lig_0>
-10.5235

>  <SCORE.INTRA.VDW>
0.407601

>  <SCORE.INTRA.VDW.0>
-1.38455

>  <SCORE.INTRA.norm>
-0.069701

>  <SCORE.RESTR>
0

>  <SCORE.RESTR.CAVITY>
0

>  <SCORE.RESTR.norm>
0

>  <SCORE.SYSTEM>
0

>  <SCORE.SYSTEM.CONST>
0

>  <SCORE.SYSTEM.DIHEDRAL>
0

>  <SCORE.SYSTEM.SOLV>
0

>  <SCORE.SYSTEM.norm>
0

>  <SCORE.heavy>
28

>  <SCORE.norm>
-1.19005

>  <RMSD>
6.359

$$$$
ligand
 OpenBabel11021811413D
libRbt.so/2013.1/901 2013/11/27
 28 32  0  0  0  0  0  0  0  0999 V2000
   36.7647   18.5780   27.0576 C   0  0  0  0  0  0  0  0  0  0  0  0
   35.9815   19.7656   26.5339 C   0  0  0  0  0  0  0  0  0  0  0  0
   36.6393   21.0838   26.9139 C   0  0  0  0  0  0  0  0  0  0  0  0
   42.2575   23.2951   25.3652 O   0  0  0  0  0  0  0  0  0  0  0  0
   41.6852   24.0847   26.4092 C   0  0  0  0  0  0  0  0  0  0  0  0
   38.3436   27.6121   27.2482 C   0  0  0  0  0  0  0  0  0  0  0  0
   38.4637   27.4370   28.6209 C   0  0  0  0  0  0  0  0  0  0  0  0
   39.3292   26.4596   29.1186 C   0  0  0  0  0  0  0  0  0  0  0  0
   40.0747   25.6618   28.2497 C   0  0  0  0  0  0  0  0  0  0  0  0
   40.6598   25.0774   25.8464 C   0  0  1  0  0  0  0  0  0  0  0  0
   39.9591   25.8732   26.8957 C   0  0  0  0  0  0  0  0  0  0  0  0
   39.1057   26.8320   26.4111 C   0  0  0  0  0  0  0  0  0  0  0  0
   39.0194   26.9049   24.9650 C   0  0  1  0  0  0  0  0  0  0  0  0
   40.7452   27.9991   23.5453 C   0  0  0  0  0  0  0  0  0  0  0  0
   40.3712   27.0347   24.4501 C   0  0  0  0  0  0  0  0  0  0  0  0
   41.2539   26.0900   24.9004 C   0  0  0  0  0  0  0  0  0  0  0  0
   42.5625   26.0912   24.4402 C   0  0  0  0  0  0  0  0  0  0  0  0
   42.9630   27.0775   23.5363 C   0  0  0  0  0  0  0  0  0  0  0  0
   42.0543   28.0298   23.0937 C   0  0  0  0  0  0  0  0  0  0  0  0
   35.9512   22.2484   26.2136 C   0  0  0  0  0  0  0  0  0  0  0  0
   36.3878   23.5730   26.8280 C   0  0  0  0  0  0  0  0  0  0  0  0
   38.9499   22.6663   26.5267 O   0  0  0  0  0  0  0  0  0  0  0  0
   36.2721   25.8128   25.1079 O   0  0  0  0  0  0  0  0  0  0  0  0
   37.2864   25.1456   25.2260 C   0  0  0  0  0  0  0  0  0  0  0  0
   37.4260   24.1156   25.9663 N   0  0  0  0  0  0  0  0  0  0  0  0
   38.5917   23.6395   25.9153 C   0  0  0  0  0  0  0  0  0  0  0  0
   39.5109   24.4339   25.0540 C   0  0  1  0  0  0  0  0  0  0  0  0
   38.5557   25.5168   24.5454 C   0  0  2  0  0  0  0  0  0  0  0  0
  1  2  1  0  0  0  0
  2  3  1  0  0  0  0
  3 20  1  0  0  0  0
  4  5  1  0  0  0  0
  6  7  2  0  0  0  0
  6 12  1  0  0  0  0
  7  8  1  0  0  0  0
  8  9  2  0  0  0  0
  9 11  1  0  0  0  0
 10  5  1  1  0  0  0
 10 11  1  0  0  0  0
 10 16  1  0  0  0  0
 10 27  1  0  0  0  0
 11 12  2  0  0  0  0
 13 12  1  1  0  0  0
 13 15  1  0  0  0  0
 13 28  1  0  0  0  0
 14 15  2  0  0  0  0
 14 19  1  0  0  0  0
 15 16  1  0  0  0  0
 16 17  2  0  0  0  0
 17 18  1  0  0  0  0
 18 19  2  0  0  0  0
 20 21  1  0  0  0  0
 21 25  1  0  0  0  0
 22 26  2  0  0  0  0
 23 24  2  0  0  0  0
 24 25  1  0  0  0  0
 25 26  1  0  0  0  0
 27 26  1  1  0  0  0
 27 28  1  0  0  0  0
 28 24  1  1  0  0  0
M  END
>  <CHROM.1>
171.91282136,176.25117605,167.02089188,98.58032536,110.17968113,39.10178779
24.77279582,25.90530618,-2.28786401,0.43128479,0.03583881

>  <Name>
ligand

>  <RI>
0

>  <Rbt.Current_Directory>
/home/itssahil/PROJECTS/Mol_Feturizer/New_Systems/rnas/1YLS

>  <Rbt.Executable>
rbdock ($Id: //depot/dev/client3/rdock/2013.1/src/exe/rbdock.cxx#4 $)

>  <Rbt.Library>
libRbt.so (2013.1, Build901 2013/11/27)

>  <Rbt.Parameter_File>
/export/apps/rDock/src/rDock_2013.1_src/data/scripts/dock_solv.prm

>  <Rbt.Receptor>
prm/pocket_docking_5.prm

>  <SCORE>
-31.8912

>  <SCORE.INTER>
-30.2371

>  <SCORE.INTER.CONST>
1

>  <SCORE.INTER.POLAR>
0

>  <SCORE.INTER.ROT>
5

>  <SCORE.INTER.SOLV>
6.08166

>  <SCORE.INTER.VDW>
-29.1186

>  <SCORE.INTER.norm>
-1.0799

>  <SCORE.INTRA>
-1.65406

>  <SCORE.INTRA.DIHEDRAL>
-4.77703

>  <SCORE.INTRA.DIHEDRAL.0>
12.0148

>  <SCORE.INTRA.POLAR>
0

>  <SCORE.INTRA.POLAR.0>
0

>  <SCORE.INTRA.REPUL>
0

>  <SCORE.INTRA.REPUL.0>
0

>  <SCORE.INTRA.SOLV>
0.437519

>  <SCORE.INTRA.SOLV.lig_0>
-10.5235

>  <SCORE.INTRA.VDW>
0.515702

>  <SCORE.INTRA.VDW.0>
-1.38455

>  <SCORE.INTRA.norm>
-0.0590734

>  <SCORE.RESTR>
0

>  <SCORE.RESTR.CAVITY>
0

>  <SCORE.RESTR.norm>
0

>  <SCORE.SYSTEM>
0

>  <SCORE.SYSTEM.CONST>
0

>  <SCORE.SYSTEM.DIHEDRAL>
0

>  <SCORE.SYSTEM.SOLV>
0

>  <SCORE.SYSTEM.norm>
0

>  <SCORE.heavy>
28

>  <SCORE.norm>
-1.13897

>  <RMSD>
6.387

$$$$
ligand
 OpenBabel11021811413D
libRbt.so/2013.1/901 2013/11/27
 28 32  0  0  0  0  0  0  0  0999 V2000
   37.0674   20.2721   27.4233 C   0  0  0  0  0  0  0  0  0  0  0  0
   35.8825   20.2031   26.4803 C   0  0  0  0  0  0  0  0  0  0  0  0
   35.1716   21.5439   26.3728 C   0  0  0  0  0  0  0  0  0  0  0  0
   42.7857   23.7644   25.0156 O   0  0  0  0  0  0  0  0  0  0  0  0
   42.1360   24.4130   26.1103 C   0  0  0  0  0  0  0  0  0  0  0  0
   38.4537   27.5121   27.1820 C   0  0  0  0  0  0  0  0  0  0  0  0
   38.6083   27.2687   28.5407 C   0  0  0  0  0  0  0  0  0  0  0  0
   39.5774   26.3599   28.9730 C   0  0  0  0  0  0  0  0  0  0  0  0
   40.3917   25.6986   28.0528 C   0  0  0  0  0  0  0  0  0  0  0  0
   41.0054   25.3241   25.6150 C   0  0  1  0  0  0  0  0  0  0  0  0
   40.2381   25.9773   26.7149 C   0  0  0  0  0  0  0  0  0  0  0  0
   39.2831   26.8682   26.2945 C   0  0  0  0  0  0  0  0  0  0  0  0
   39.1719   27.0181   24.8561 C   0  0  1  0  0  0  0  0  0  0  0  0
   40.7561   28.3710   23.4955 C   0  0  0  0  0  0  0  0  0  0  0  0
   40.4963   27.3202   24.3421 C   0  0  0  0  0  0  0  0  0  0  0  0
   41.4786   26.4485   24.7289 C   0  0  0  0  0  0  0  0  0  0  0  0
   42.7741   26.6150   24.2620 C   0  0  0  0  0  0  0  0  0  0  0  0
   43.0580   27.6904   23.4175 C   0  0  0  0  0  0  0  0  0  0  0  0
   42.0492   28.5665   23.0390 C   0  0  0  0  0  0  0  0  0  0  0  0
   36.0178   22.5386   25.5887 C   0  0  0  0  0  0  0  0  0  0  0  0
   36.9269   23.3220   26.5282 C   0  0  0  0  0  0  0  0  0  0  0  0
   39.5660   22.7099   26.1573 O   0  0  0  0  0  0  0  0  0  0  0  0
   36.5561   25.6362   24.9483 O   0  0  0  0  0  0  0  0  0  0  0  0
   37.6361   25.0736   25.0196 C   0  0  0  0  0  0  0  0  0  0  0  0
   37.8919   24.0215   25.6950 N   0  0  0  0  0  0  0  0  0  0  0  0
   39.1004   23.6748   25.6084 C   0  0  0  0  0  0  0  0  0  0  0  0
   39.9207   24.6118   24.7916 C   0  0  1  0  0  0  0  0  0  0  0  0
   38.8512   25.6165   24.3555 C   0  0  2  0  0  0  0  0  0  0  0  0
  1  2  1  0  0  0  0
  2  3  1  0  0  0  0
  3 20  1  0  0  0  0
  4  5  1  0  0  0  0
  6  7  2  0  0  0  0
  6 12  1  0  0  0  0
  7  8  1  0  0  0  0
  8  9  2  0  0  0  0
  9 11  1  0  0  0  0
 10  5  1  1  0  0  0
 10 11  1  0  0  0  0
 10 16  1  0  0  0  0
 10 27  1  0  0  0  0
 11 12  2  0  0  0  0
 13 12  1  1  0  0  0
 13 15  1  0  0  0  0
 13 28  1  0  0  0  0
 14 15  2  0  0  0  0
 14 19  1  0  0  0  0
 15 16  1  0  0  0  0
 16 17  2  0  0  0  0
 17 18  1  0  0  0  0
 18 19  2  0  0  0  0
 20 21  1  0  0  0  0
 21 25  1  0  0  0  0
 22 26  2  0  0  0  0
 23 24  2  0  0  0  0
 24 25  1  0  0  0  0
 25 26  1  0  0  0  0
 27 26  1  1  0  0  0
 27 28  1  0  0  0  0
 28 24  1  1  0  0  0
M  END
>  <CHROM.1>
71.65251486,176.95640695,-90.49180767,167.77810133,76.32929910,39.30834701
25.00449845,25.70950751,-2.36201257,0.33283271,-0.02825859

>  <Name>
ligand

>  <RI>
0

>  <Rbt.Current_Directory>
/home/itssahil/PROJECTS/Mol_Feturizer/New_Systems/rnas/1YLS

>  <Rbt.Executable>
rbdock ($Id: //depot/dev/client3/rdock/2013.1/src/exe/rbdock.cxx#4 $)

>  <Rbt.Library>
libRbt.so (2013.1, Build901 2013/11/27)

>  <Rbt.Parameter_File>
/export/apps/rDock/src/rDock_2013.1_src/data/scripts/dock_solv.prm

>  <Rbt.Receptor>
prm/pocket_docking_7.prm

>  <SCORE>
-32.4387

>  <SCORE.INTER>
-31.2879

>  <SCORE.INTER.CONST>
1

>  <SCORE.INTER.POLAR>
0

>  <SCORE.INTER.ROT>
5

>  <SCORE.INTER.SOLV>
6.76589

>  <SCORE.INTER.VDW>
-30.0472

>  <SCORE.INTER.norm>
-1.11742

>  <SCORE.INTRA>
-1.15083

>  <SCORE.INTRA.DIHEDRAL>
-5.48909

>  <SCORE.INTRA.DIHEDRAL.0>
12.0148

>  <SCORE.INTRA.POLAR>
0

>  <SCORE.INTRA.POLAR.0>
0

>  <SCORE.INTRA.REPUL>
0

>  <SCORE.INTRA.REPUL.0>
0

>  <SCORE.INTRA.SOLV>
0.307494

>  <SCORE.INTRA.SOLV.lig_0>
-10.5235

>  <SCORE.INTRA.VDW>
1.43997

>  <SCORE.INTRA.VDW.0>
-1.38455

>  <SCORE.INTRA.norm>
-0.0411009

>  <SCORE.RESTR>
0

>  <SCORE.RESTR.CAVITY>
0

>  <SCORE.RESTR.norm>
0

>  <SCORE.SYSTEM>
0

>  <SCORE.SYSTEM.CONST>
0

>  <SCORE.SYSTEM.DIHEDRAL>
0

>  <SCORE.SYSTEM.SOLV>
0

>  <SCORE.SYSTEM.norm>
0

>  <SCORE.heavy>
28

>  <SCORE.norm>
-1.15852

>  <RMSD>
6.391

$$$$
ligand
 OpenBabel11021811413D
libRbt.so/2013.1/901 2013/11/27
 28 32  0  0  0  0  0  0  0  0999 V2000
   36.6686   18.6078   27.0540 C   0  0  0  0  0  0  0  0  0  0  0  0
   35.8864   19.8073   26.5566 C   0  0  0  0  0  0  0  0  0  0  0  0
   36.5850   21.1146   26.8995 C   0  0  0  0  0  0  0  0  0  0  0  0
   42.2140   23.2766   25.3032 O   0  0  0  0  0  0  0  0  0  0  0  0
   41.6601   24.0670   26.3566 C   0  0  0  0  0  0  0  0  0  0  0  0
   38.3594   27.6205   27.2453 C   0  0  0  0  0  0  0  0  0  0  0  0
   38.4846   27.4315   28.6157 C   0  0  0  0  0  0  0  0  0  0  0  0
   39.3426   26.4407   29.0999 C   0  0  0  0  0  0  0  0  0  0  0  0
   40.0753   25.6434   28.2198 C   0  0  0  0  0  0  0  0  0  0  0  0
   40.6422   25.0753   25.8082 C   0  0  1  0  0  0  0  0  0  0  0  0
   39.9550   25.8685   26.8685 C   0  0  0  0  0  0  0  0  0  0  0  0
   39.1091   26.8404   26.3971 C   0  0  0  0  0  0  0  0  0  0  0  0
   39.0162   26.9276   24.9522 C   0  0  1  0  0  0  0  0  0  0  0  0
   40.7459   28.0170   23.5337 C   0  0  0  0  0  0  0  0  0  0  0  0
   40.3666   27.0482   24.4315 C   0  0  0  0  0  0  0  0  0  0  0  0
   41.2418   26.0905   24.8685 C   0  0  0  0  0  0  0  0  0  0  0  0
   42.5480   26.0824   24.4016 C   0  0  0  0  0  0  0  0  0  0  0  0
   42.9540   27.0729   23.5047 C   0  0  0  0  0  0  0  0  0  0  0  0
   42.0530   28.0386   23.0756 C   0  0  0  0  0  0  0  0  0  0  0  0
   35.9192   22.2826   26.1836 C   0  0  0  0  0  0  0  0  0  0  0  0
   36.3599   23.6058   26.7982 C   0  0  0  0  0  0  0  0  0  0  0  0
   38.9110   22.6757   26.4752 O   0  0  0  0  0  0  0  0  0  0  0  0
   36.2585   25.8625   25.0993 O   0  0  0  0  0  0  0  0  0  0  0  0
   37.2665   25.1838   25.2060 C   0  0  0  0  0  0  0  0  0  0  0  0
   37.3993   24.1456   25.9361 N   0  0  0  0  0  0  0  0  0  0  0  0
   38.5597   23.6581   25.8747 C   0  0  0  0  0  0  0  0  0  0  0  0
   39.4827   24.4510   25.0159 C   0  0  1  0  0  0  0  0  0  0  0  0
   38.5361   25.5482   24.5223 C   0  0  2  0  0  0  0  0  0  0  0  0
  1  2  1  0  0  0  0
  2  3  1  0  0  0  0
  3 20  1  0  0  0  0
  4  5  1  0  0  0  0
  6  7  2  0  0  0  0
  6 12  1  0  0  0  0
  7  8  1  0  0  0  0
  8  9  2  0  0  0  0
  9 11  1  0  0  0  0
 10  5  1  1  0  0  0
 10 11  1  0  0  0  0
 10 16  1  0  0  0  0
 10 27  1  0  0  0  0
 11 12  2  0  0  0  0
 13 12  1  1  0  0  0
 13 15  1  0  0  0  0
 13 28  1  0  0  0  0
 14 15  2  0  0  0  0
 14 19  1  0  0  0  0
 15 16  1  0  0  0  0
 16 17  2  0  0  0  0
 17 18  1  0  0  0  0
 18 19  2  0  0  0  0
 20 21  1  0  0  0  0
 21 25  1  0  0  0  0
 22 26  2  0  0  0  0
 23 24  2  0  0  0  0
 24 25  1  0  0  0  0
 25 26  1  0  0  0  0
 27 26  1  1  0  0  0
 27 28  1  0  0  0  0
 28 24  1  1  0  0  0
M  END
>  <CHROM.1>
169.96118692,175.96218663,164.89198161,99.59566006,110.89272417,39.07986925
24.78580724,25.88068106,-2.29832681,0.43445744,0.04014128

>  <Name>
ligand

>  <RI>
0

>  <Rbt.Current_Directory>
/home/itssahil/PROJECTS/Mol_Feturizer/New_Systems/rnas/1YLS

>  <Rbt.Executable>
rbdock ($Id: //depot/dev/client3/rdock/2013.1/src/exe/rbdock.cxx#4 $)

>  <Rbt.Library>
libRbt.so (2013.1, Build901 2013/11/27)

>  <Rbt.Parameter_File>
/export/apps/rDock/src/rDock_2013.1_src/data/scripts/dock_solv.prm

>  <Rbt.Receptor>
prm/pocket_docking_7.prm

>  <SCORE>
-31.9152

>  <SCORE.INTER>
-30.5222

>  <SCORE.INTER.CONST>
1

>  <SCORE.INTER.POLAR>
0

>  <SCORE.INTER.ROT>
5

>  <SCORE.INTER.SOLV>
6.20623

>  <SCORE.INTER.VDW>
-29.3502

>  <SCORE.INTER.norm>
-1.09008

>  <SCORE.INTRA>
-1.39292

>  <SCORE.INTRA.DIHEDRAL>
-4.26267

>  <SCORE.INTRA.DIHEDRAL.0>
12.0148

>  <SCORE.INTRA.POLAR>
0

>  <SCORE.INTRA.POLAR.0>
0

>  <SCORE.INTRA.REPUL>
0

>  <SCORE.INTRA.REPUL.0>
0

>  <SCORE.INTRA.SOLV>
0.432193

>  <SCORE.INTRA.SOLV.lig_0>
-10.5235

>  <SCORE.INTRA.VDW>
0.522319

>  <SCORE.INTRA.VDW.0>
-1.38455

>  <SCORE.INTRA.norm>
-0.0497471

>  <SCORE.RESTR>
0

>  <SCORE.RESTR.CAVITY>
0

>  <SCORE.RESTR.norm>
0

>  <SCORE.SYSTEM>
0

>  <SCORE.SYSTEM.CONST>
0

>  <SCORE.SYSTEM.DIHEDRAL>
0

>  <SCORE.SYSTEM.SOLV>
0

>  <SCORE.SYSTEM.norm>
0

>  <SCORE.heavy>
28

>  <SCORE.norm>
-1.13983

>  <RMSD>
6.393

$$$$
ligand
 OpenBabel11021811413D
libRbt.so/2013.1/901 2013/11/27
 28 32  0  0  0  0  0  0  0  0999 V2000
   37.0913   17.9943   27.0723 C   0  0  0  0  0  0  0  0  0  0  0  0
   36.1818   19.1552   26.7215 C   0  0  0  0  0  0  0  0  0  0  0  0
   36.8703   20.4941   26.9407 C   0  0  0  0  0  0  0  0  0  0  0  0
   42.6071   25.0647   26.8856 O   0  0  0  0  0  0  0  0  0  0  0  0
   41.6944   24.0768   26.4037 C   0  0  0  0  0  0  0  0  0  0  0  0
   37.8799   27.2002   26.3239 C   0  0  0  0  0  0  0  0  0  0  0  0
   38.0001   27.4245   27.6894 C   0  0  0  0  0  0  0  0  0  0  0  0
   38.9850   26.7497   28.4153 C   0  0  0  0  0  0  0  0  0  0  0  0
   39.8489   25.8567   27.7803 C   0  0  0  0  0  0  0  0  0  0  0  0
   40.5502   24.7262   25.6146 C   0  0  1  0  0  0  0  0  0  0  0  0
   39.7278   25.6728   26.4228 C   0  0  0  0  0  0  0  0  0  0  0  0
   38.7573   26.3351   25.7143 C   0  0  0  0  0  0  0  0  0  0  0  0
   38.6860   25.9982   24.3052 C   0  0  1  0  0  0  0  0  0  0  0  0
   40.2660   26.8922   22.6036 C   0  0  0  0  0  0  0  0  0  0  0  0
   40.0150   26.1689   23.7448 C   0  0  0  0  0  0  0  0  0  0  0  0
   41.0131   25.5147   24.4158 C   0  0  0  0  0  0  0  0  0  0  0  0
   42.3163   25.5719   23.9440 C   0  0  0  0  0  0  0  0  0  0  0  0
   42.5904   26.3200   22.7971 C   0  0  0  0  0  0  0  0  0  0  0  0
   41.5654   26.9800   22.1320 C   0  0  0  0  0  0  0  0  0  0  0  0
   35.9364   21.6427   26.5823 C   0  0  0  0  0  0  0  0  0  0  0  0
   36.5138   22.9689   27.0626 C   0  0  0  0  0  0  0  0  0  0  0  0
   39.1820   22.3790   26.9632 O   0  0  0  0  0  0  0  0  0  0  0  0
   36.1158   24.6163   24.8006 O   0  0  0  0  0  0  0  0  0  0  0  0
   37.2112   24.1539   25.0735 C   0  0  0  0  0  0  0  0  0  0  0  0
   37.4806   23.3945   26.0630 N   0  0  0  0  0  0  0  0  0  0  0  0
   38.7020   23.0891   26.1180 C   0  0  0  0  0  0  0  0  0  0  0  0
   39.5157   23.7381   25.0528 C   0  0  1  0  0  0  0  0  0  0  0  0
   38.4276   24.4979   24.2898 C   0  0  2  0  0  0  0  0  0  0  0  0
  1  2  1  0  0  0  0
  2  3  1  0  0  0  0
  3 20  1  0  0  0  0
  4  5  1  0  0  0  0
  6  7  2  0  0  0  0
  6 12  1  0  0  0  0
  7  8  1  0  0  0  0
  8  9  2  0  0  0  0
  9 11  1  0  0  0  0
 10  5  1  1  0  0  0
 10 11  1  0  0  0  0
 10 16  1  0  0  0  0
 10 27  1  0  0  0  0
 11 12  2  0  0  0  0
 13 12  1  1  0  0  0
 13 15  1  0  0  0  0
 13 28  1  0  0  0  0
 14 15  2  0  0  0  0
 14 19  1  0  0  0  0
 15 16  1  0  0  0  0
 16 17  2  0  0  0  0
 17 18  1  0  0  0  0
 18 19  2  0  0  0  0
 20 21  1  0  0  0  0
 21 25  1  0  0  0  0
 22 26  2  0  0  0  0
 23 24  2  0  0  0  0
 24 25  1  0  0  0  0
 25 26  1  0  0  0  0
 27 26  1  1  0  0  0
 27 28  1  0  0  0  0
 28 24  1  1  0  0  0
M  END
>  <CHROM.1>
-179.96468673,-61.16857284,168.57156996,81.88706902,92.11779048,38.99862276
24.30531173,25.69469362,-2.24606799,0.45625054,-0.05034774

>  <Name>
ligand

>  <RI>
0

>  <Rbt.Current_Directory>
/home/itssahil/PROJECTS/Mol_Feturizer/New_Systems/rnas/1YLS

>  <Rbt.Executable>
rbdock ($Id: //depot/dev/client3/rdock/2013.1/src/exe/rbdock.cxx#4 $)

>  <Rbt.Library>
libRbt.so (2013.1, Build901 2013/11/27)

>  <Rbt.Parameter_File>
/export/apps/rDock/src/rDock_2013.1_src/data/scripts/dock_solv.prm

>  <Rbt.Receptor>
prm/pocket_docking_6.prm

>  <SCORE>
-33.1211

>  <SCORE.INTER>
-29.2671

>  <SCORE.INTER.CONST>
1

>  <SCORE.INTER.POLAR>
0

>  <SCORE.INTER.ROT>
5

>  <SCORE.INTER.SOLV>
6.04751

>  <SCORE.INTER.VDW>
-28.4606

>  <SCORE.INTER.norm>
-1.04525

>  <SCORE.INTRA>
-3.85405

>  <SCORE.INTRA.DIHEDRAL>
-7.64768

>  <SCORE.INTRA.DIHEDRAL.0>
12.0148

>  <SCORE.INTRA.POLAR>
0

>  <SCORE.INTRA.POLAR.0>
0

>  <SCORE.INTRA.REPUL>
0

>  <SCORE.INTRA.REPUL.0>
0

>  <SCORE.INTRA.SOLV>
0.236101

>  <SCORE.INTRA.SOLV.lig_0>
-10.5235

>  <SCORE.INTRA.VDW>
-0.148266

>  <SCORE.INTRA.VDW.0>
-1.38455

>  <SCORE.INTRA.norm>
-0.137645

>  <SCORE.RESTR>
0

>  <SCORE.RESTR.CAVITY>
0

>  <SCORE.RESTR.norm>
0

>  <SCORE.SYSTEM>
0

>  <SCORE.SYSTEM.CONST>
0

>  <SCORE.SYSTEM.DIHEDRAL>
0

>  <SCORE.SYSTEM.SOLV>
0

>  <SCORE.SYSTEM.norm>
0

>  <SCORE.heavy>
28

>  <SCORE.norm>
-1.1829

>  <RMSD>
6.396

$$$$
ligand
 OpenBabel11021811413D
libRbt.so/2013.1/901 2013/11/27
 28 32  0  0  0  0  0  0  0  0999 V2000
   37.0051   18.0039   27.0175 C   0  0  0  0  0  0  0  0  0  0  0  0
   36.0965   19.1840   26.7354 C   0  0  0  0  0  0  0  0  0  0  0  0
   36.8181   20.5086   26.9347 C   0  0  0  0  0  0  0  0  0  0  0  0
   42.5858   25.0678   26.9054 O   0  0  0  0  0  0  0  0  0  0  0  0
   41.6818   24.0802   26.4069 C   0  0  0  0  0  0  0  0  0  0  0  0
   37.8754   27.2140   26.3450 C   0  0  0  0  0  0  0  0  0  0  0  0
   38.0033   27.4386   27.7097 C   0  0  0  0  0  0  0  0  0  0  0  0
   38.9901   26.7616   28.4309 C   0  0  0  0  0  0  0  0  0  0  0  0
   39.8483   25.8659   27.7919 C   0  0  0  0  0  0  0  0  0  0  0  0
   40.5353   24.7323   25.6233 C   0  0  1  0  0  0  0  0  0  0  0  0
   39.7197   25.6815   26.4351 C   0  0  0  0  0  0  0  0  0  0  0  0
   38.7473   26.3461   25.7314 C   0  0  0  0  0  0  0  0  0  0  0  0
   38.6678   26.0087   24.3229 C   0  0  1  0  0  0  0  0  0  0  0  0
   40.2414   26.8974   22.6126 C   0  0  0  0  0  0  0  0  0  0  0  0
   39.9943   26.1754   23.7555 C   0  0  0  0  0  0  0  0  0  0  0  0
   40.9941   25.5190   24.4216 C   0  0  0  0  0  0  0  0  0  0  0  0
   42.2950   25.5723   23.9431 C   0  0  0  0  0  0  0  0  0  0  0  0
   42.5653   26.3191   22.7944 C   0  0  0  0  0  0  0  0  0  0  0  0
   41.5386   26.9814   22.1342 C   0  0  0  0  0  0  0  0  0  0  0  0
   35.8978   21.6761   26.6029 C   0  0  0  0  0  0  0  0  0  0  0  0
   36.5017   22.9868   27.0931 C   0  0  0  0  0  0  0  0  0  0  0  0
   39.1678   22.3895   26.9802 O   0  0  0  0  0  0  0  0  0  0  0  0
   36.0965   24.6340   24.8322 O   0  0  0  0  0  0  0  0  0  0  0  0
   37.1920   24.1688   25.0997 C   0  0  0  0  0  0  0  0  0  0  0  0
   37.4644   23.4092   26.0883 N   0  0  0  0  0  0  0  0  0  0  0  0
   38.6853   23.1005   26.1371 C   0  0  0  0  0  0  0  0  0  0  0  0
   39.4953   23.7467   25.0674 C   0  0  1  0  0  0  0  0  0  0  0  0
   38.4053   24.5090   24.3096 C   0  0  2  0  0  0  0  0  0  0  0  0
  1  2  1  0  0  0  0
  2  3  1  0  0  0  0
  3 20  1  0  0  0  0
  4  5  1  0  0  0  0
  6  7  2  0  0  0  0
  6 12  1  0  0  0  0
  7  8  1  0  0  0  0
  8  9  2  0  0  0  0
  9 11  1  0  0  0  0
 10  5  1  1  0  0  0
 10 11  1  0  0  0  0
 10 16  1  0  0  0  0
 10 27  1  0  0  0  0
 11 12  2  0  0  0  0
 13 12  1  1  0  0  0
 13 15  1  0  0  0  0
 13 28  1  0  0  0  0
 14 15  2  0  0  0  0
 14 19  1  0  0  0  0
 15 16  1  0  0  0  0
 16 17  2  0  0  0  0
 17 18  1  0  0  0  0
 18 19  2  0  0  0  0
 20 21  1  0  0  0  0
 21 25  1  0  0  0  0
 22 26  2  0  0  0  0
 23 24  2  0  0  0  0
 24 25  1  0  0  0  0
 25 26  1  0  0  0  0
 27 26  1  1  0  0  0
 27 28  1  0  0  0  0
 28 24  1  1  0  0  0
M  END
>  <CHROM.1>
178.21109121,-60.05128801,167.35655207,81.78315558,91.00483587,38.97556186
24.31633812,25.70640192,-2.26187459,0.47683993,-0.02498308

>  <Name>
ligand

>  <RI>
0

>  <Rbt.Current_Directory>
/home/itssahil/PROJECTS/Mol_Feturizer/New_Systems/rnas/1YLS

>  <Rbt.Executable>
rbdock ($Id: //depot/dev/client3/rdock/2013.1/src/exe/rbdock.cxx#4 $)

>  <Rbt.Library>
libRbt.so (2013.1, Build901 2013/11/27)

>  <Rbt.Parameter_File>
/export/apps/rDock/src/rDock_2013.1_src/data/scripts/dock_solv.prm

>  <Rbt.Receptor>
prm/pocket_docking_6.prm

>  <SCORE>
-33.1042

>  <SCORE.INTER>
-29.2671

>  <SCORE.INTER.CONST>
1

>  <SCORE.INTER.POLAR>
0

>  <SCORE.INTER.ROT>
5

>  <SCORE.INTER.SOLV>
6.07195

>  <SCORE.INTER.VDW>
-28.4687

>  <SCORE.INTER.norm>
-1.04525

>  <SCORE.INTRA>
-3.83718

>  <SCORE.INTRA.DIHEDRAL>
-7.53324

>  <SCORE.INTRA.DIHEDRAL.0>
12.0148

>  <SCORE.INTRA.POLAR>
0

>  <SCORE.INTRA.POLAR.0>
0

>  <SCORE.INTRA.REPUL>
0

>  <SCORE.INTRA.REPUL.0>
0

>  <SCORE.INTRA.SOLV>
0.230663

>  <SCORE.INTRA.SOLV.lig_0>
-10.5235

>  <SCORE.INTRA.VDW>
-0.185893

>  <SCORE.INTRA.VDW.0>
-1.38455

>  <SCORE.INTRA.norm>
-0.137042

>  <SCORE.RESTR>
0

>  <SCORE.RESTR.CAVITY>
0

>  <SCORE.RESTR.norm>
0

>  <SCORE.SYSTEM>
0

>  <SCORE.SYSTEM.CONST>
0

>  <SCORE.SYSTEM.DIHEDRAL>
0

>  <SCORE.SYSTEM.SOLV>
0

>  <SCORE.SYSTEM.norm>
0

>  <SCORE.heavy>
28

>  <SCORE.norm>
-1.18229

>  <RMSD>
6.398

$$$$
ligand
 OpenBabel11021811413D
libRbt.so/2013.1/901 2013/11/27
 28 32  0  0  0  0  0  0  0  0999 V2000
   36.8611   18.1295   27.0652 C   0  0  0  0  0  0  0  0  0  0  0  0
   35.9485   19.2942   26.7358 C   0  0  0  0  0  0  0  0  0  0  0  0
   36.6670   20.6279   26.8764 C   0  0  0  0  0  0  0  0  0  0  0  0
   42.2274   22.9789   25.3684 O   0  0  0  0  0  0  0  0  0  0  0  0
   41.5638   23.9003   26.2354 C   0  0  0  0  0  0  0  0  0  0  0  0
   37.9620   27.2663   26.3339 C   0  0  0  0  0  0  0  0  0  0  0  0
   38.1157   27.4301   27.7046 C   0  0  0  0  0  0  0  0  0  0  0  0
   39.0641   26.6654   28.3887 C   0  0  0  0  0  0  0  0  0  0  0  0
   39.8586   25.7429   27.7070 C   0  0  0  0  0  0  0  0  0  0  0  0
   40.4539   24.6524   25.4897 C   0  0  1  0  0  0  0  0  0  0  0  0
   39.7068   25.6191   26.3457 C   0  0  0  0  0  0  0  0  0  0  0  0
   38.7722   26.3697   25.6783 C   0  0  0  0  0  0  0  0  0  0  0  0
   38.6593   26.0921   24.2591 C   0  0  1  0  0  0  0  0  0  0  0  0
   40.2709   26.9455   22.5662 C   0  0  0  0  0  0  0  0  0  0  0  0
   39.9887   26.1971   23.6837 C   0  0  0  0  0  0  0  0  0  0  0  0
   40.9509   25.4543   24.3135 C   0  0  0  0  0  0  0  0  0  0  0  0
   42.2484   25.4444   23.8230 C   0  0  0  0  0  0  0  0  0  0  0  0
   42.5552   26.2162   22.7003 C   0  0  0  0  0  0  0  0  0  0  0  0
   41.5666   26.9664   22.0770 C   0  0  0  0  0  0  0  0  0  0  0  0
   35.7493   21.7764   26.4776 C   0  0  0  0  0  0  0  0  0  0  0  0
   36.3313   23.1079   26.9372 C   0  0  0  0  0  0  0  0  0  0  0  0
   38.9533   22.3496   26.7724 O   0  0  0  0  0  0  0  0  0  0  0  0
   36.0110   24.8627   24.7447 O   0  0  0  0  0  0  0  0  0  0  0  0
   37.0773   24.3199   24.9823 C   0  0  0  0  0  0  0  0  0  0  0  0
   37.3099   23.5074   25.9385 N   0  0  0  0  0  0  0  0  0  0  0  0
   38.5093   23.1212   25.9621 C   0  0  0  0  0  0  0  0  0  0  0  0
   39.3491   23.7560   24.9086 C   0  0  1  0  0  0  0  0  0  0  0  0
   38.3027   24.6135   24.1922 C   0  0  2  0  0  0  0  0  0  0  0  0
  1  2  1  0  0  0  0
  2  3  1  0  0  0  0
  3 20  1  0  0  0  0
  4  5  1  0  0  0  0
  6  7  2  0  0  0  0
  6 12  1  0  0  0  0
  7  8  1  0  0  0  0
  8  9  2  0  0  0  0
  9 11  1  0  0  0  0
 10  5  1  1  0  0  0
 10 11  1  0  0  0  0
 10 16  1  0  0  0  0
 10 27  1  0  0  0  0
 11 12  2  0  0  0  0
 13 12  1  1  0  0  0
 13 15  1  0  0  0  0
 13 28  1  0  0  0  0
 14 15  2  0  0  0  0
 14 19  1  0  0  0  0
 15 16  1  0  0  0  0
 16 17  2  0  0  0  0
 17 18  1  0  0  0  0
 18 19  2  0  0  0  0
 20 21  1  0  0  0  0
 21 25  1  0  0  0  0
 22 26  2  0  0  0  0
 23 24  2  0  0  0  0
 24 25  1  0  0  0  0
 25 26  1  0  0  0  0
 27 26  1  1  0  0  0
 27 28  1  0  0  0  0
 28 24  1  1  0  0  0
M  END
>  <CHROM.1>
177.34822120,179.17426912,166.02522614,82.31680762,97.02188773,38.89358599
24.24775332,25.55133133,-2.26987089,0.48555722,-0.06424428

>  <Name>
ligand

>  <RI>
0

>  <Rbt.Current_Directory>
/home/itssahil/PROJECTS/Mol_Feturizer/New_Systems/rnas/1YLS

>  <Rbt.Executable>
rbdock ($Id: //depot/dev/client3/rdock/2013.1/src/exe/rbdock.cxx#4 $)

>  <Rbt.Library>
libRbt.so (2013.1, Build901 2013/11/27)

>  <Rbt.Parameter_File>
/export/apps/rDock/src/rDock_2013.1_src/data/scripts/dock_solv.prm

>  <Rbt.Receptor>
prm/pocket_docking_5.prm

>  <SCORE>
-33.1534

>  <SCORE.INTER>
-29.9704

>  <SCORE.INTER.CONST>
1

>  <SCORE.INTER.POLAR>
0

>  <SCORE.INTER.ROT>
5

>  <SCORE.INTER.SOLV>
6.9674

>  <SCORE.INTER.VDW>
-29.2361

>  <SCORE.INTER.norm>
-1.07037

>  <SCORE.INTRA>
-3.183

>  <SCORE.INTRA.DIHEDRAL>
-7.30297

>  <SCORE.INTRA.DIHEDRAL.0>
12.0148

>  <SCORE.INTRA.POLAR>
0

>  <SCORE.INTRA.POLAR.0>
0

>  <SCORE.INTRA.REPUL>
0

>  <SCORE.INTRA.REPUL.0>
0

>  <SCORE.INTRA.SOLV>
0.446301

>  <SCORE.INTRA.SOLV.lig_0>
-10.5235

>  <SCORE.INTRA.VDW>
0.245336

>  <SCORE.INTRA.VDW.0>
-1.38455

>  <SCORE.INTRA.norm>
-0.113678

>  <SCORE.RESTR>
0

>  <SCORE.RESTR.CAVITY>
0

>  <SCORE.RESTR.norm>
0

>  <SCORE.SYSTEM>
0

>  <SCORE.SYSTEM.CONST>
0

>  <SCORE.SYSTEM.DIHEDRAL>
0

>  <SCORE.SYSTEM.SOLV>
0

>  <SCORE.SYSTEM.norm>
0

>  <SCORE.heavy>
28

>  <SCORE.norm>
-1.18405

>  <RMSD>
6.399

$$$$
ligand
 OpenBabel11021811413D
libRbt.so/2013.1/901 2013/11/27
 28 32  0  0  0  0  0  0  0  0999 V2000
   36.8215   18.1584   27.0277 C   0  0  0  0  0  0  0  0  0  0  0  0
   35.9194   19.3303   26.6947 C   0  0  0  0  0  0  0  0  0  0  0  0
   36.6225   20.6611   26.9171 C   0  0  0  0  0  0  0  0  0  0  0  0
   42.1698   22.9030   25.3979 O   0  0  0  0  0  0  0  0  0  0  0  0
   41.5709   23.8899   26.2396 C   0  0  0  0  0  0  0  0  0  0  0  0
   38.0020   27.2910   26.3309 C   0  0  0  0  0  0  0  0  0  0  0  0
   38.1505   27.4490   27.7028 C   0  0  0  0  0  0  0  0  0  0  0  0
   39.0878   26.6728   28.3893 C   0  0  0  0  0  0  0  0  0  0  0  0
   39.8766   25.7446   27.7085 C   0  0  0  0  0  0  0  0  0  0  0  0
   40.4722   24.6553   25.4908 C   0  0  1  0  0  0  0  0  0  0  0  0
   39.7304   25.6266   26.3462 C   0  0  0  0  0  0  0  0  0  0  0  0
   38.8066   26.3884   25.6765 C   0  0  0  0  0  0  0  0  0  0  0  0
   38.6981   26.1164   24.2558 C   0  0  1  0  0  0  0  0  0  0  0  0
   40.3264   26.9591   22.5736 C   0  0  0  0  0  0  0  0  0  0  0  0
   40.0313   26.2100   23.6874 C   0  0  0  0  0  0  0  0  0  0  0  0
   40.9830   25.4558   24.3197 C   0  0  0  0  0  0  0  0  0  0  0  0
   42.2827   25.4346   23.8355 C   0  0  0  0  0  0  0  0  0  0  0  0
   42.6027   26.2069   22.7168 C   0  0  0  0  0  0  0  0  0  0  0  0
   41.6246   26.9687   22.0910 C   0  0  0  0  0  0  0  0  0  0  0  0
   35.7443   21.8160   26.4533 C   0  0  0  0  0  0  0  0  0  0  0  0
   36.3274   23.1470   26.9130 C   0  0  0  0  0  0  0  0  0  0  0  0
   38.9426   22.3634   26.7588 O   0  0  0  0  0  0  0  0  0  0  0  0
   36.0354   24.9117   24.7245 O   0  0  0  0  0  0  0  0  0  0  0  0
   37.0951   24.3576   24.9657 C   0  0  0  0  0  0  0  0  0  0  0  0
   37.3149   23.5399   25.9204 N   0  0  0  0  0  0  0  0  0  0  0  0
   38.5103   23.1418   25.9487 C   0  0  0  0  0  0  0  0  0  0  0  0
   39.3615   23.7716   24.9014 C   0  0  1  0  0  0  0  0  0  0  0  0
   38.3272   24.6416   24.1825 C   0  0  2  0  0  0  0  0  0  0  0  0
  1  2  1  0  0  0  0
  2  3  1  0  0  0  0
  3 20  1  0  0  0  0
  4  5  1  0  0  0  0
  6  7  2  0  0  0  0
  6 12  1  0  0  0  0
  7  8  1  0  0  0  0
  8  9  2  0  0  0  0
  9 11  1  0  0  0  0
 10  5  1  1  0  0  0
 10 11  1  0  0  0  0
 10 16  1  0  0  0  0
 10 27  1  0  0  0  0
 11 12  2  0  0  0  0
 13 12  1  1  0  0  0
 13 15  1  0  0  0  0
 13 28  1  0  0  0  0
 14 15  2  0  0  0  0
 14 19  1  0  0  0  0
 15 16  1  0  0  0  0
 16 17  2  0  0  0  0
 17 18  1  0  0  0  0
 18 19  2  0  0  0  0
 20 21  1  0  0  0  0
 21 25  1  0  0  0  0
 22 26  2  0  0  0  0
 23 24  2  0  0  0  0
 24 25  1  0  0  0  0
 25 26  1  0  0  0  0
 27 26  1  1  0  0  0
 27 28  1  0  0  0  0
 28 24  1  1  0  0  0
M  END
>  <CHROM.1>
174.70364180,175.33136856,169.30347263,84.86789731,97.55925157,38.90582923
24.26225473,25.54738029,-2.27780821,0.48359229,-0.05759583

>  <Name>
ligand

>  <RI>
0

>  <Rbt.Current_Directory>
/home/itssahil/PROJECTS/Mol_Feturizer/New_Systems/rnas/1YLS

>  <Rbt.Executable>
rbdock ($Id: //depot/dev/client3/rdock/2013.1/src/exe/rbdock.cxx#4 $)

>  <Rbt.Library>
libRbt.so (2013.1, Build901 2013/11/27)

>  <Rbt.Parameter_File>
/export/apps/rDock/src/rDock_2013.1_src/data/scripts/dock_solv.prm

>  <Rbt.Receptor>
prm/pocket_docking_8.prm

>  <SCORE>
-33.247

>  <SCORE.INTER>
-30.0571

>  <SCORE.INTER.CONST>
1

>  <SCORE.INTER.POLAR>
0

>  <SCORE.INTER.ROT>
5

>  <SCORE.INTER.SOLV>
6.97455

>  <SCORE.INTER.VDW>
-29.2963

>  <SCORE.INTER.norm>
-1.07347

>  <SCORE.INTRA>
-3.18989

>  <SCORE.INTRA.DIHEDRAL>
-7.12538

>  <SCORE.INTRA.DIHEDRAL.0>
12.0148

>  <SCORE.INTRA.POLAR>
0

>  <SCORE.INTRA.POLAR.0>
0

>  <SCORE.INTRA.REPUL>
0

>  <SCORE.INTRA.REPUL.0>
0

>  <SCORE.INTRA.SOLV>
0.461969

>  <SCORE.INTRA.SOLV.lig_0>
-10.5235

>  <SCORE.INTRA.VDW>
0.141816

>  <SCORE.INTRA.VDW.0>
-1.38455

>  <SCORE.INTRA.norm>
-0.113925

>  <SCORE.RESTR>
0

>  <SCORE.RESTR.CAVITY>
0

>  <SCORE.RESTR.norm>
0

>  <SCORE.SYSTEM>
0

>  <SCORE.SYSTEM.CONST>
0

>  <SCORE.SYSTEM.DIHEDRAL>
0

>  <SCORE.SYSTEM.SOLV>
0

>  <SCORE.SYSTEM.norm>
0

>  <SCORE.heavy>
28

>  <SCORE.norm>
-1.18739

>  <RMSD>
6.402

$$$$
ligand
 OpenBabel11021811413D
libRbt.so/2013.1/901 2013/11/27
 28 32  0  0  0  0  0  0  0  0999 V2000
   37.0535   17.9971   27.0284 C   0  0  0  0  0  0  0  0  0  0  0  0
   36.1535   19.1727   26.7027 C   0  0  0  0  0  0  0  0  0  0  0  0
   36.8442   20.5008   26.9742 C   0  0  0  0  0  0  0  0  0  0  0  0
   42.4135   23.1432   25.5976 O   0  0  0  0  0  0  0  0  0  0  0  0
   41.7088   24.0893   26.4035 C   0  0  0  0  0  0  0  0  0  0  0  0
   37.8928   27.2108   26.3207 C   0  0  0  0  0  0  0  0  0  0  0  0
   38.0166   27.4409   27.6849 C   0  0  0  0  0  0  0  0  0  0  0  0
   39.0037   26.7696   28.4110 C   0  0  0  0  0  0  0  0  0  0  0  0
   39.8663   25.8743   27.7774 C   0  0  0  0  0  0  0  0  0  0  0  0
   40.5622   24.7349   25.6147 C   0  0  1  0  0  0  0  0  0  0  0  0
   39.7416   25.6845   26.4211 C   0  0  0  0  0  0  0  0  0  0  0  0
   38.7689   26.3434   25.7124 C   0  0  0  0  0  0  0  0  0  0  0  0
   38.6940   26.0006   24.3050 C   0  0  1  0  0  0  0  0  0  0  0  0
   40.2690   26.8880   22.5953 C   0  0  0  0  0  0  0  0  0  0  0  0
   40.0214   26.1694   23.7403 C   0  0  0  0  0  0  0  0  0  0  0  0
   41.0215   25.5186   24.4113 C   0  0  0  0  0  0  0  0  0  0  0  0
   42.3234   25.5742   23.9358 C   0  0  0  0  0  0  0  0  0  0  0  0
   42.5942   26.3176   22.7850 C   0  0  0  0  0  0  0  0  0  0  0  0
   41.5671   26.9743   22.1199 C   0  0  0  0  0  0  0  0  0  0  0  0
   35.9366   21.6645   26.5972 C   0  0  0  0  0  0  0  0  0  0  0  0
   36.5305   22.9821   27.0810 C   0  0  0  0  0  0  0  0  0  0  0  0
   39.1986   22.3928   26.9769 O   0  0  0  0  0  0  0  0  0  0  0  0
   36.1257   24.6198   24.8131 O   0  0  0  0  0  0  0  0  0  0  0  0
   37.2220   24.1590   25.0850 C   0  0  0  0  0  0  0  0  0  0  0  0
   37.4943   23.4039   26.0770 N   0  0  0  0  0  0  0  0  0  0  0  0
   38.7160   23.0992   26.1300 C   0  0  0  0  0  0  0  0  0  0  0  0
   39.5266   23.7440   25.0599 C   0  0  1  0  0  0  0  0  0  0  0  0
   38.4361   24.5001   24.2966 C   0  0  2  0  0  0  0  0  0  0  0  0
  1  2  1  0  0  0  0
  2  3  1  0  0  0  0
  3 20  1  0  0  0  0
  4  5  1  0  0  0  0
  6  7  2  0  0  0  0
  6 12  1  0  0  0  0
  7  8  1  0  0  0  0
  8  9  2  0  0  0  0
  9 11  1  0  0  0  0
 10  5  1  1  0  0  0
 10 11  1  0  0  0  0
 10 16  1  0  0  0  0
 10 27  1  0  0  0  0
 11 12  2  0  0  0  0
 13 12  1  1  0  0  0
 13 15  1  0  0  0  0
 13 28  1  0  0  0  0
 14 15  2  0  0  0  0
 14 19  1  0  0  0  0
 15 16  1  0  0  0  0
 16 17  2  0  0  0  0
 17 18  1  0  0  0  0
 18 19  2  0  0  0  0
 20 21  1  0  0  0  0
 21 25  1  0  0  0  0
 22 26  2  0  0  0  0
 23 24  2  0  0  0  0
 24 25  1  0  0  0  0
 25 26  1  0  0  0  0
 27 26  1  1  0  0  0
 27 28  1  0  0  0  0
 28 24  1  1  0  0  0
M  END
>  <CHROM.1>
178.17889202,177.09379985,170.61080651,83.34687385,91.26019004,38.99556956
24.22913855,25.63917300,-2.24031045,0.48571316,-0.06513144

>  <Name>
ligand

>  <RI>
0

>  <Rbt.Current_Directory>
/home/itssahil/PROJECTS/Mol_Feturizer/New_Systems/rnas/1YLS

>  <Rbt.Executable>
rbdock ($Id: //depot/dev/client3/rdock/2013.1/src/exe/rbdock.cxx#4 $)

>  <Rbt.Library>
libRbt.so (2013.1, Build901 2013/11/27)

>  <Rbt.Parameter_File>
/export/apps/rDock/src/rDock_2013.1_src/data/scripts/dock_solv.prm

>  <Rbt.Receptor>
prm/pocket_docking_5.prm

>  <SCORE>
-33.1554

>  <SCORE.INTER>
-29.4437

>  <SCORE.INTER.CONST>
1

>  <SCORE.INTER.POLAR>
0

>  <SCORE.INTER.ROT>
5

>  <SCORE.INTER.SOLV>
6.34048

>  <SCORE.INTER.VDW>
-28.676

>  <SCORE.INTER.norm>
-1.05156

>  <SCORE.INTRA>
-3.71171

>  <SCORE.INTRA.DIHEDRAL>
-7.59074

>  <SCORE.INTRA.DIHEDRAL.0>
12.0148

>  <SCORE.INTRA.POLAR>
0

>  <SCORE.INTRA.POLAR.0>
0

>  <SCORE.INTRA.REPUL>
0

>  <SCORE.INTRA.REPUL.0>
0

>  <SCORE.INTRA.SOLV>
0.429902

>  <SCORE.INTRA.SOLV.lig_0>
-10.5235

>  <SCORE.INTRA.VDW>
-0.131288

>  <SCORE.INTRA.VDW.0>
-1.38455

>  <SCORE.INTRA.norm>
-0.132561

>  <SCORE.RESTR>
0

>  <SCORE.RESTR.CAVITY>
0

>  <SCORE.RESTR.norm>
0

>  <SCORE.SYSTEM>
0

>  <SCORE.SYSTEM.CONST>
0

>  <SCORE.SYSTEM.DIHEDRAL>
0

>  <SCORE.SYSTEM.SOLV>
0

>  <SCORE.SYSTEM.norm>
0

>  <SCORE.heavy>
28

>  <SCORE.norm>
-1.18412

>  <RMSD>
6.403

$$$$
ligand
 OpenBabel11021811413D
libRbt.so/2013.1/901 2013/11/27
 28 32  0  0  0  0  0  0  0  0999 V2000
   36.7623   18.5907   27.0870 C   0  0  0  0  0  0  0  0  0  0  0  0
   35.9918   19.7785   26.5452 C   0  0  0  0  0  0  0  0  0  0  0  0
   36.6457   21.0963   26.9331 C   0  0  0  0  0  0  0  0  0  0  0  0
   42.7514   24.7855   27.1218 O   0  0  0  0  0  0  0  0  0  0  0  0
   41.7150   24.1091   26.4081 C   0  0  0  0  0  0  0  0  0  0  0  0
   38.3658   27.6222   27.2759 C   0  0  0  0  0  0  0  0  0  0  0  0
   38.4812   27.4313   28.6469 C   0  0  0  0  0  0  0  0  0  0  0  0
   39.3462   26.4493   29.1364 C   0  0  0  0  0  0  0  0  0  0  0  0
   40.0958   25.6626   28.2610 C   0  0  0  0  0  0  0  0  0  0  0  0
   40.6903   25.1069   25.8532 C   0  0  1  0  0  0  0  0  0  0  0  0
   39.9848   25.8896   26.9091 C   0  0  0  0  0  0  0  0  0  0  0  0
   39.1319   26.8528   26.4326 C   0  0  0  0  0  0  0  0  0  0  0  0
   39.0507   26.9424   24.9871 C   0  0  1  0  0  0  0  0  0  0  0  0
   40.7801   28.0551   23.5864 C   0  0  0  0  0  0  0  0  0  0  0  0
   40.4041   27.0799   24.4786 C   0  0  0  0  0  0  0  0  0  0  0  0
   41.2865   26.1312   24.9211 C   0  0  0  0  0  0  0  0  0  0  0  0
   42.5967   26.1393   24.4657 C   0  0  0  0  0  0  0  0  0  0  0  0
   42.9991   27.1366   23.5747 C   0  0  0  0  0  0  0  0  0  0  0  0
   42.0908   28.0928   23.1399 C   0  0  0  0  0  0  0  0  0  0  0  0
   36.0016   22.2558   26.1842 C   0  0  0  0  0  0  0  0  0  0  0  0
   36.4169   23.5857   26.8020 C   0  0  0  0  0  0  0  0  0  0  0  0
   38.9812   22.6859   26.4993 O   0  0  0  0  0  0  0  0  0  0  0  0
   36.3043   25.8452   25.1075 O   0  0  0  0  0  0  0  0  0  0  0  0
   37.3191   25.1779   25.2215 C   0  0  0  0  0  0  0  0  0  0  0  0
   37.4574   24.1396   25.9503 N   0  0  0  0  0  0  0  0  0  0  0  0
   38.6239   23.6656   25.8980 C   0  0  0  0  0  0  0  0  0  0  0  0
   39.5451   24.4712   25.0492 C   0  0  1  0  0  0  0  0  0  0  0  0
   38.5904   25.5586   24.5498 C   0  0  2  0  0  0  0  0  0  0  0  0
  1  2  1  0  0  0  0
  2  3  1  0  0  0  0
  3 20  1  0  0  0  0
  4  5  1  0  0  0  0
  6  7  2  0  0  0  0
  6 12  1  0  0  0  0
  7  8  1  0  0  0  0
  8  9  2  0  0  0  0
  9 11  1  0  0  0  0
 10  5  1  1  0  0  0
 10 11  1  0  0  0  0
 10 16  1  0  0  0  0
 10 27  1  0  0  0  0
 11 12  2  0  0  0  0
 13 12  1  1  0  0  0
 13 15  1  0  0  0  0
 13 28  1  0  0  0  0
 14 15  2  0  0  0  0
 14 19  1  0  0  0  0
 15 16  1  0  0  0  0
 16 17  2  0  0  0  0
 17 18  1  0  0  0  0
 18 19  2  0  0  0  0
 20 21  1  0  0  0  0
 21 25  1  0  0  0  0
 22 26  2  0  0  0  0
 23 24  2  0  0  0  0
 24 25  1  0  0  0  0
 25 26  1  0  0  0  0
 27 26  1  1  0  0  0
 27 28  1  0  0  0  0
 28 24  1  1  0  0  0
M  END
>  <CHROM.1>
170.17788840,-61.95501274,166.64575230,101.18255966,111.16462156,39.14978942
24.86258510,25.99110367,-2.25129484,0.23247989,-0.10218445

>  <Name>
ligand

>  <RI>
0

>  <Rbt.Current_Directory>
/home/itssahil/PROJECTS/Mol_Feturizer/New_Systems/rnas/1YLS

>  <Rbt.Executable>
rbdock ($Id: //depot/dev/client3/rdock/2013.1/src/exe/rbdock.cxx#4 $)

>  <Rbt.Library>
libRbt.so (2013.1, Build901 2013/11/27)

>  <Rbt.Parameter_File>
/export/apps/rDock/src/rDock_2013.1_src/data/scripts/dock_solv.prm

>  <Rbt.Receptor>
prm/pocket_docking_8.prm

>  <SCORE>
-31.6822

>  <SCORE.INTER>
-30.024

>  <SCORE.INTER.CONST>
1

>  <SCORE.INTER.POLAR>
0

>  <SCORE.INTER.ROT>
5

>  <SCORE.INTER.SOLV>
5.54688

>  <SCORE.INTER.VDW>
-28.7983

>  <SCORE.INTER.norm>
-1.07229

>  <SCORE.INTRA>
-1.65814

>  <SCORE.INTRA.DIHEDRAL>
-4.30611

>  <SCORE.INTRA.DIHEDRAL.0>
12.0148

>  <SCORE.INTRA.POLAR>
0

>  <SCORE.INTRA.POLAR.0>
0

>  <SCORE.INTRA.REPUL>
0

>  <SCORE.INTRA.REPUL.0>
0

>  <SCORE.INTRA.SOLV>
0.217391

>  <SCORE.INTRA.SOLV.lig_0>
-10.5235

>  <SCORE.INTRA.VDW>
0.386218

>  <SCORE.INTRA.VDW.0>
-1.38455

>  <SCORE.INTRA.norm>
-0.0592194

>  <SCORE.RESTR>
0

>  <SCORE.RESTR.CAVITY>
0

>  <SCORE.RESTR.norm>
0

>  <SCORE.SYSTEM>
0

>  <SCORE.SYSTEM.CONST>
0

>  <SCORE.SYSTEM.DIHEDRAL>
0

>  <SCORE.SYSTEM.SOLV>
0

>  <SCORE.SYSTEM.norm>
0

>  <SCORE.heavy>
28

>  <SCORE.norm>
-1.13151

>  <RMSD>
6.403

$$$$
ligand
 OpenBabel11021811413D
libRbt.so/2013.1/901 2013/11/27
 28 32  0  0  0  0  0  0  0  0999 V2000
   36.8061   18.1525   27.0228 C   0  0  0  0  0  0  0  0  0  0  0  0
   35.9114   19.3323   26.6983 C   0  0  0  0  0  0  0  0  0  0  0  0
   36.6268   20.6569   26.9185 C   0  0  0  0  0  0  0  0  0  0  0  0
   42.2179   22.9700   25.3426 O   0  0  0  0  0  0  0  0  0  0  0  0
   41.5781   23.9123   26.2050 C   0  0  0  0  0  0  0  0  0  0  0  0
   37.9913   27.2939   26.3157 C   0  0  0  0  0  0  0  0  0  0  0  0
   38.1545   27.4614   27.6849 C   0  0  0  0  0  0  0  0  0  0  0  0
   39.1040   26.6950   28.3654 C   0  0  0  0  0  0  0  0  0  0  0  0
   39.8902   25.7669   27.6816 C   0  0  0  0  0  0  0  0  0  0  0  0
   40.4666   24.6667   25.4640 C   0  0  1  0  0  0  0  0  0  0  0  0
   39.7291   25.6393   26.3217 C   0  0  0  0  0  0  0  0  0  0  0  0
   38.7934   26.3917   25.6579 C   0  0  0  0  0  0  0  0  0  0  0  0
   38.6702   26.1100   24.2403 C   0  0  1  0  0  0  0  0  0  0  0  0
   40.2744   26.9511   22.5343 C   0  0  0  0  0  0  0  0  0  0  0  0
   39.9963   26.2075   23.6561 C   0  0  0  0  0  0  0  0  0  0  0  0
   40.9594   25.4626   24.2821 C   0  0  0  0  0  0  0  0  0  0  0  0
   42.2536   25.4456   23.7832 C   0  0  0  0  0  0  0  0  0  0  0  0
   42.5564   26.2125   22.6561 C   0  0  0  0  0  0  0  0  0  0  0  0
   41.5670   26.9648   22.0367 C   0  0  0  0  0  0  0  0  0  0  0  0
   35.7458   21.8212   26.4843 C   0  0  0  0  0  0  0  0  0  0  0  0
   36.3469   23.1445   26.9431 C   0  0  0  0  0  0  0  0  0  0  0  0
   38.9646   22.3745   26.7639 O   0  0  0  0  0  0  0  0  0  0  0  0
   36.0199   24.8935   24.7470 O   0  0  0  0  0  0  0  0  0  0  0  0
   37.0854   24.3469   24.9795 C   0  0  0  0  0  0  0  0  0  0  0  0
   37.3208   23.5365   25.9368 N   0  0  0  0  0  0  0  0  0  0  0  0
   38.5186   23.1453   25.9540 C   0  0  0  0  0  0  0  0  0  0  0  0
   39.3542   23.7731   24.8930 C   0  0  1  0  0  0  0  0  0  0  0  0
   38.3069   24.6327   24.1806 C   0  0  2  0  0  0  0  0  0  0  0  0
  1  2  1  0  0  0  0
  2  3  1  0  0  0  0
  3 20  1  0  0  0  0
  4  5  1  0  0  0  0
  6  7  2  0  0  0  0
  6 12  1  0  0  0  0
  7  8  1  0  0  0  0
  8  9  2  0  0  0  0
  9 11  1  0  0  0  0
 10  5  1  1  0  0  0
 10 11  1  0  0  0  0
 10 16  1  0  0  0  0
 10 27  1  0  0  0  0
 11 12  2  0  0  0  0
 13 12  1  1  0  0  0
 13 15  1  0  0  0  0
 13 28  1  0  0  0  0
 14 15  2  0  0  0  0
 14 19  1  0  0  0  0
 15 16  1  0  0  0  0
 16 17  2  0  0  0  0
 17 18  1  0  0  0  0
 18 19  2  0  0  0  0
 20 21  1  0  0  0  0
 21 25  1  0  0  0  0
 22 26  2  0  0  0  0
 23 24  2  0  0  0  0
 24 25  1  0  0  0  0
 25 26  1  0  0  0  0
 27 26  1  1  0  0  0
 27 28  1  0  0  0  0
 28 24  1  1  0  0  0
M  END
>  <CHROM.1>
175.63549380,178.24280645,169.35554841,84.53622801,96.44254900,38.89884694
24.26779898,25.53345562,-2.28024258,0.49540793,-0.05462151

>  <Name>
ligand

>  <RI>
0

>  <Rbt.Current_Directory>
/home/itssahil/PROJECTS/Mol_Feturizer/New_Systems/rnas/1YLS

>  <Rbt.Executable>
rbdock ($Id: //depot/dev/client3/rdock/2013.1/src/exe/rbdock.cxx#4 $)

>  <Rbt.Library>
libRbt.so (2013.1, Build901 2013/11/27)

>  <Rbt.Parameter_File>
/export/apps/rDock/src/rDock_2013.1_src/data/scripts/dock_solv.prm

>  <Rbt.Receptor>
prm/pocket_docking_8.prm

>  <SCORE>
-33.2809

>  <SCORE.INTER>
-29.972

>  <SCORE.INTER.CONST>
1

>  <SCORE.INTER.POLAR>
0

>  <SCORE.INTER.ROT>
5

>  <SCORE.INTER.SOLV>
7.04931

>  <SCORE.INTER.VDW>
-29.2644

>  <SCORE.INTER.norm>
-1.07043

>  <SCORE.INTRA>
-3.30898

>  <SCORE.INTRA.DIHEDRAL>
-7.26847

>  <SCORE.INTRA.DIHEDRAL.0>
12.0148

>  <SCORE.INTRA.POLAR>
0

>  <SCORE.INTRA.POLAR.0>
0

>  <SCORE.INTRA.REPUL>
0

>  <SCORE.INTRA.REPUL.0>
0

>  <SCORE.INTRA.SOLV>
0.441083

>  <SCORE.INTRA.SOLV.lig_0>
-10.5235

>  <SCORE.INTRA.VDW>
0.104718

>  <SCORE.INTRA.VDW.0>
-1.38455

>  <SCORE.INTRA.norm>
-0.118178

>  <SCORE.RESTR>
0

>  <SCORE.RESTR.CAVITY>
0

>  <SCORE.RESTR.norm>
0

>  <SCORE.SYSTEM>
0

>  <SCORE.SYSTEM.CONST>
0

>  <SCORE.SYSTEM.DIHEDRAL>
0

>  <SCORE.SYSTEM.SOLV>
0

>  <SCORE.SYSTEM.norm>
0

>  <SCORE.heavy>
28

>  <SCORE.norm>
-1.1886

>  <RMSD>
6.404

$$$$
ligand
 OpenBabel11021811413D
libRbt.so/2013.1/901 2013/11/27
 28 32  0  0  0  0  0  0  0  0999 V2000
   36.8799   18.1164   26.9827 C   0  0  0  0  0  0  0  0  0  0  0  0
   35.9915   19.3139   26.7092 C   0  0  0  0  0  0  0  0  0  0  0  0
   36.7352   20.6245   26.9194 C   0  0  0  0  0  0  0  0  0  0  0  0
   42.2787   22.9535   25.3547 O   0  0  0  0  0  0  0  0  0  0  0  0
   41.6871   23.9454   26.1957 C   0  0  0  0  0  0  0  0  0  0  0  0
   38.0547   27.2769   26.3348 C   0  0  0  0  0  0  0  0  0  0  0  0
   38.2407   27.4625   27.6987 C   0  0  0  0  0  0  0  0  0  0  0  0
   39.2135   26.7175   28.3701 C   0  0  0  0  0  0  0  0  0  0  0  0
   40.0002   25.7928   27.6823 C   0  0  0  0  0  0  0  0  0  0  0  0
   40.5514   24.6753   25.4670 C   0  0  1  0  0  0  0  0  0  0  0  0
   39.8159   25.6472   26.3272 C   0  0  0  0  0  0  0  0  0  0  0  0
   38.8575   26.3786   25.6724 C   0  0  0  0  0  0  0  0  0  0  0  0
   38.7123   26.0788   24.2606 C   0  0  1  0  0  0  0  0  0  0  0  0
   40.2725   26.9227   22.5157 C   0  0  0  0  0  0  0  0  0  0  0  0
   40.0259   26.1883   23.6508 C   0  0  0  0  0  0  0  0  0  0  0  0
   41.0109   25.4644   24.2672 C   0  0  0  0  0  0  0  0  0  0  0  0
   42.2958   25.4599   23.7446 C   0  0  0  0  0  0  0  0  0  0  0  0
   42.5668   26.2179   22.6035 C   0  0  0  0  0  0  0  0  0  0  0  0
   41.5554   26.9490   21.9941 C   0  0  0  0  0  0  0  0  0  0  0  0
   35.8422   21.8093   26.5744 C   0  0  0  0  0  0  0  0  0  0  0  0
   36.4820   23.1121   27.0395 C   0  0  0  0  0  0  0  0  0  0  0  0
   39.1067   22.3772   26.8204 O   0  0  0  0  0  0  0  0  0  0  0  0
   36.0895   24.8308   24.8302 O   0  0  0  0  0  0  0  0  0  0  0  0
   37.1668   24.3021   25.0490 C   0  0  0  0  0  0  0  0  0  0  0  0
   37.4314   23.5063   26.0109 N   0  0  0  0  0  0  0  0  0  0  0  0
   38.6348   23.1323   26.0102 C   0  0  0  0  0  0  0  0  0  0  0  0
   39.4417   23.7595   24.9269 C   0  0  1  0  0  0  0  0  0  0  0  0
   38.3692   24.5959   24.2243 C   0  0  2  0  0  0  0  0  0  0  0  0
  1  2  1  0  0  0  0
  2  3  1  0  0  0  0
  3 20  1  0  0  0  0
  4  5  1  0  0  0  0
  6  7  2  0  0  0  0
  6 12  1  0  0  0  0
  7  8  1  0  0  0  0
  8  9  2  0  0  0  0
  9 11  1  0  0  0  0
 10  5  1  1  0  0  0
 10 11  1  0  0  0  0
 10 16  1  0  0  0  0
 10 27  1  0  0  0  0
 11 12  2  0  0  0  0
 13 12  1  1  0  0  0
 13 15  1  0  0  0  0
 13 28  1  0  0  0  0
 14 15  2  0  0  0  0
 14 19  1  0  0  0  0
 15 16  1  0  0  0  0
 16 17  2  0  0  0  0
 17 18  1  0  0  0  0
 18 19  2  0  0  0  0
 20 21  1  0  0  0  0
 21 25  1  0  0  0  0
 22 26  2  0  0  0  0
 23 24  2  0  0  0  0
 24 25  1  0  0  0  0
 25 26  1  0  0  0  0
 27 26  1  1  0  0  0
 27 28  1  0  0  0  0
 28 24  1  1  0  0  0
M  END
>  <CHROM.1>
177.28957595,175.21552451,168.91567805,82.75510462,93.76192838,38.97530955
24.25445136,25.55244629,-2.28132708,0.52039108,-0.03972750

>  <Name>
ligand

>  <RI>
0

>  <Rbt.Current_Directory>
/home/itssahil/PROJECTS/Mol_Feturizer/New_Systems/rnas/1YLS

>  <Rbt.Executable>
rbdock ($Id: //depot/dev/client3/rdock/2013.1/src/exe/rbdock.cxx#4 $)

>  <Rbt.Library>
libRbt.so (2013.1, Build901 2013/11/27)

>  <Rbt.Parameter_File>
/export/apps/rDock/src/rDock_2013.1_src/data/scripts/dock_solv.prm

>  <Rbt.Receptor>
prm/pocket_docking_4.prm

>  <SCORE>
-33.0922

>  <SCORE.INTER>
-29.5527

>  <SCORE.INTER.CONST>
1

>  <SCORE.INTER.POLAR>
0

>  <SCORE.INTER.ROT>
5

>  <SCORE.INTER.SOLV>
6.89322

>  <SCORE.INTER.VDW>
-28.9329

>  <SCORE.INTER.norm>
-1.05545

>  <SCORE.INTRA>
-3.53954

>  <SCORE.INTRA.DIHEDRAL>
-7.47211

>  <SCORE.INTRA.DIHEDRAL.0>
12.0148

>  <SCORE.INTRA.POLAR>
0

>  <SCORE.INTRA.POLAR.0>
0

>  <SCORE.INTRA.REPUL>
0

>  <SCORE.INTRA.REPUL.0>
0

>  <SCORE.INTRA.SOLV>
0.454387

>  <SCORE.INTRA.SOLV.lig_0>
-10.5235

>  <SCORE.INTRA.VDW>
-0.0306849

>  <SCORE.INTRA.VDW.0>
-1.38455

>  <SCORE.INTRA.norm>
-0.126412

>  <SCORE.RESTR>
0

>  <SCORE.RESTR.CAVITY>
0

>  <SCORE.RESTR.norm>
0

>  <SCORE.SYSTEM>
0

>  <SCORE.SYSTEM.CONST>
0

>  <SCORE.SYSTEM.DIHEDRAL>
0

>  <SCORE.SYSTEM.SOLV>
0

>  <SCORE.SYSTEM.norm>
0

>  <SCORE.heavy>
28

>  <SCORE.norm>
-1.18187

>  <RMSD>
6.406

$$$$
ligand
 OpenBabel11021811413D
libRbt.so/2013.1/901 2013/11/27
 28 32  0  0  0  0  0  0  0  0999 V2000
   36.2327   19.0434   27.0028 C   0  0  0  0  0  0  0  0  0  0  0  0
   36.6570   20.4182   26.5255 C   0  0  0  0  0  0  0  0  0  0  0  0
   35.4582   21.3231   26.2830 C   0  0  0  0  0  0  0  0  0  0  0  0
   42.6234   23.6649   24.9601 O   0  0  0  0  0  0  0  0  0  0  0  0
   42.0046   24.3092   26.0750 C   0  0  0  0  0  0  0  0  0  0  0  0
   38.4798   27.5521   27.2463 C   0  0  0  0  0  0  0  0  0  0  0  0
   38.6367   27.2752   28.5984 C   0  0  0  0  0  0  0  0  0  0  0  0
   39.5673   26.3146   29.0024 C   0  0  0  0  0  0  0  0  0  0  0  0
   40.3410   25.6349   28.0609 C   0  0  0  0  0  0  0  0  0  0  0  0
   40.9122   25.2807   25.6097 C   0  0  1  0  0  0  0  0  0  0  0  0
   40.1869   25.9467   26.7303 C   0  0  0  0  0  0  0  0  0  0  0  0
   39.2697   26.8885   26.3376 C   0  0  0  0  0  0  0  0  0  0  0  0
   39.1511   27.0716   24.9036 C   0  0  1  0  0  0  0  0  0  0  0  0
   40.7821   28.3770   23.5519 C   0  0  0  0  0  0  0  0  0  0  0  0
   40.4827   27.3227   24.3810 C   0  0  0  0  0  0  0  0  0  0  0  0
   41.4277   26.3995   24.7402 C   0  0  0  0  0  0  0  0  0  0  0  0
   42.7247   26.5156   24.2624 C   0  0  0  0  0  0  0  0  0  0  0  0
   43.0493   27.5932   23.4356 C   0  0  0  0  0  0  0  0  0  0  0  0
   42.0781   28.5220   23.0851 C   0  0  0  0  0  0  0  0  0  0  0  0
   35.8893   22.6122   25.5957 C   0  0  0  0  0  0  0  0  0  0  0  0
   36.7553   23.4500   26.5291 C   0  0  0  0  0  0  0  0  0  0  0  0
   39.3595   22.7250   26.1175 O   0  0  0  0  0  0  0  0  0  0  0  0
   36.4755   25.8094   24.9980 O   0  0  0  0  0  0  0  0  0  0  0  0
   37.5291   25.1966   25.0466 C   0  0  0  0  0  0  0  0  0  0  0  0
   37.7430   24.1209   25.6989 N   0  0  0  0  0  0  0  0  0  0  0  0
   38.9333   23.7209   25.5924 C   0  0  0  0  0  0  0  0  0  0  0  0
   39.7876   24.6352   24.7847 C   0  0  1  0  0  0  0  0  0  0  0  0
   38.7611   25.6963   24.3798 C   0  0  2  0  0  0  0  0  0  0  0  0
  1  2  1  0  0  0  0
  2  3  1  0  0  0  0
  3 20  1  0  0  0  0
  4  5  1  0  0  0  0
  6  7  2  0  0  0  0
  6 12  1  0  0  0  0
  7  8  1  0  0  0  0
  8  9  2  0  0  0  0
  9 11  1  0  0  0  0
 10  5  1  1  0  0  0
 10 11  1  0  0  0  0
 10 16  1  0  0  0  0
 10 27  1  0  0  0  0
 11 12  2  0  0  0  0
 13 12  1  1  0  0  0
 13 15  1  0  0  0  0
 13 28  1  0  0  0  0
 14 15  2  0  0  0  0
 14 19  1  0  0  0  0
 15 16  1  0  0  0  0
 16 17  2  0  0  0  0
 17 18  1  0  0  0  0
 18 19  2  0  0  0  0
 20 21  1  0  0  0  0
 21 25  1  0  0  0  0
 22 26  2  0  0  0  0
 23 24  2  0  0  0  0
 24 25  1  0  0  0  0
 25 26  1  0  0  0  0
 27 26  1  1  0  0  0
 27 28  1  0  0  0  0
 28 24  1  1  0  0  0
M  END
>  <CHROM.1>
-170.88961454,177.63934373,-67.07708052,145.49275118,82.04208539,39.24763652
24.96336275,25.70291001,-2.34091203,0.38518823,0.04259370

>  <Name>
ligand

>  <RI>
0

>  <Rbt.Current_Directory>
/home/itssahil/PROJECTS/Mol_Feturizer/New_Systems/rnas/1YLS

>  <Rbt.Executable>
rbdock ($Id: //depot/dev/client3/rdock/2013.1/src/exe/rbdock.cxx#4 $)

>  <Rbt.Library>
libRbt.so (2013.1, Build901 2013/11/27)

>  <Rbt.Parameter_File>
/export/apps/rDock/src/rDock_2013.1_src/data/scripts/dock_solv.prm

>  <Rbt.Receptor>
prm/pocket_docking_8.prm

>  <SCORE>
-33.3025

>  <SCORE.INTER>
-31.1429

>  <SCORE.INTER.CONST>
1

>  <SCORE.INTER.POLAR>
0

>  <SCORE.INTER.ROT>
5

>  <SCORE.INTER.SOLV>
6.84554

>  <SCORE.INTER.VDW>
-29.9771

>  <SCORE.INTER.norm>
-1.11224

>  <SCORE.INTRA>
-2.15968

>  <SCORE.INTRA.DIHEDRAL>
-5.81517

>  <SCORE.INTRA.DIHEDRAL.0>
12.0148

>  <SCORE.INTRA.POLAR>
0

>  <SCORE.INTRA.POLAR.0>
0

>  <SCORE.INTRA.REPUL>
0

>  <SCORE.INTRA.REPUL.0>
0

>  <SCORE.INTRA.SOLV>
0.356434

>  <SCORE.INTRA.SOLV.lig_0>
-10.5235

>  <SCORE.INTRA.VDW>
0.56969

>  <SCORE.INTRA.VDW.0>
-1.38455

>  <SCORE.INTRA.norm>
-0.0771314

>  <SCORE.RESTR>
0

>  <SCORE.RESTR.CAVITY>
0

>  <SCORE.RESTR.norm>
0

>  <SCORE.SYSTEM>
0

>  <SCORE.SYSTEM.CONST>
0

>  <SCORE.SYSTEM.DIHEDRAL>
0

>  <SCORE.SYSTEM.SOLV>
0

>  <SCORE.SYSTEM.norm>
0

>  <SCORE.heavy>
28

>  <SCORE.norm>
-1.18938

>  <RMSD>
6.407

$$$$
ligand
 OpenBabel11021811413D
libRbt.so/2013.1/901 2013/11/27
 28 32  0  0  0  0  0  0  0  0999 V2000
   37.0269   18.0125   27.0791 C   0  0  0  0  0  0  0  0  0  0  0  0
   36.1359   19.1905   26.7380 C   0  0  0  0  0  0  0  0  0  0  0  0
   36.8449   20.5166   26.9702 C   0  0  0  0  0  0  0  0  0  0  0  0
   42.6340   25.0678   26.9030 O   0  0  0  0  0  0  0  0  0  0  0  0
   41.7278   24.0803   26.4083 C   0  0  0  0  0  0  0  0  0  0  0  0
   37.9281   27.2210   26.3016 C   0  0  0  0  0  0  0  0  0  0  0  0
   38.0454   27.4514   27.6663 C   0  0  0  0  0  0  0  0  0  0  0  0
   39.0249   26.7757   28.3985 C   0  0  0  0  0  0  0  0  0  0  0  0
   39.8866   25.8756   27.7705 C   0  0  0  0  0  0  0  0  0  0  0  0
   40.5889   24.7311   25.6126 C   0  0  1  0  0  0  0  0  0  0  0  0
   39.7686   25.6854   26.4135 C   0  0  0  0  0  0  0  0  0  0  0  0
   38.8033   26.3487   25.6989 C   0  0  0  0  0  0  0  0  0  0  0  0
   38.7346   26.0052   24.2914 C   0  0  1  0  0  0  0  0  0  0  0  0
   40.3237   26.8833   22.5900 C   0  0  0  0  0  0  0  0  0  0  0  0
   40.0660   26.1669   23.7340 C   0  0  0  0  0  0  0  0  0  0  0  0
   41.0591   25.5115   24.4112 C   0  0  0  0  0  0  0  0  0  0  0  0
   42.3639   25.5602   23.9430 C   0  0  0  0  0  0  0  0  0  0  0  0
   42.6449   26.3014   22.7933 C   0  0  0  0  0  0  0  0  0  0  0  0
   41.6249   26.9627   22.1219 C   0  0  0  0  0  0  0  0  0  0  0  0
   35.9470   21.6815   26.5742 C   0  0  0  0  0  0  0  0  0  0  0  0
   36.5402   22.9998   27.0572 C   0  0  0  0  0  0  0  0  0  0  0  0
   39.2059   22.3969   26.9687 O   0  0  0  0  0  0  0  0  0  0  0  0
   36.1565   24.6377   24.7859 O   0  0  0  0  0  0  0  0  0  0  0  0
   37.2489   24.1716   25.0643 C   0  0  0  0  0  0  0  0  0  0  0  0
   37.5118   23.4159   26.0584 N   0  0  0  0  0  0  0  0  0  0  0  0
   38.7316   23.1051   26.1186 C   0  0  0  0  0  0  0  0  0  0  0  0
   39.5516   23.7450   25.0526 C   0  0  1  0  0  0  0  0  0  0  0  0
   38.4692   24.5060   24.2826 C   0  0  2  0  0  0  0  0  0  0  0  0
  1  2  1  0  0  0  0
  2  3  1  0  0  0  0
  3 20  1  0  0  0  0
  4  5  1  0  0  0  0
  6  7  2  0  0  0  0
  6 12  1  0  0  0  0
  7  8  1  0  0  0  0
  8  9  2  0  0  0  0
  9 11  1  0  0  0  0
 10  5  1  1  0  0  0
 10 11  1  0  0  0  0
 10 16  1  0  0  0  0
 10 27  1  0  0  0  0
 11 12  2  0  0  0  0
 13 12  1  1  0  0  0
 13 15  1  0  0  0  0
 13 28  1  0  0  0  0
 14 15  2  0  0  0  0
 14 19  1  0  0  0  0
 15 16  1  0  0  0  0
 16 17  2  0  0  0  0
 17 18  1  0  0  0  0
 18 19  2  0  0  0  0
 20 21  1  0  0  0  0
 21 25  1  0  0  0  0
 22 26  2  0  0  0  0
 23 24  2  0  0  0  0
 24 25  1  0  0  0  0
 25 26  1  0  0  0  0
 27 26  1  1  0  0  0
 27 28  1  0  0  0  0
 28 24  1  1  0  0  0
M  END
>  <CHROM.1>
178.00996769,-60.39931842,168.88307541,83.73576166,91.51427392,39.02791444
24.31766430,25.69086618,-2.25834118,0.45913110,-0.04402939

>  <Name>
ligand

>  <RI>
0

>  <Rbt.Current_Directory>
/home/itssahil/PROJECTS/Mol_Feturizer/New_Systems/rnas/1YLS

>  <Rbt.Executable>
rbdock ($Id: //depot/dev/client3/rdock/2013.1/src/exe/rbdock.cxx#4 $)

>  <Rbt.Library>
libRbt.so (2013.1, Build901 2013/11/27)

>  <Rbt.Parameter_File>
/export/apps/rDock/src/rDock_2013.1_src/data/scripts/dock_solv.prm

>  <Rbt.Receptor>
prm/pocket_docking_4.prm

>  <SCORE>
-33.1067

>  <SCORE.INTER>
-29.3032

>  <SCORE.INTER.CONST>
1

>  <SCORE.INTER.POLAR>
0

>  <SCORE.INTER.ROT>
5

>  <SCORE.INTER.SOLV>
6.03521

>  <SCORE.INTER.VDW>
-28.4805

>  <SCORE.INTER.norm>
-1.04654

>  <SCORE.INTRA>
-3.80354

>  <SCORE.INTRA.DIHEDRAL>
-7.41151

>  <SCORE.INTRA.DIHEDRAL.0>
12.0148

>  <SCORE.INTRA.POLAR>
0

>  <SCORE.INTRA.POLAR.0>
0

>  <SCORE.INTRA.REPUL>
0

>  <SCORE.INTRA.REPUL.0>
0

>  <SCORE.INTRA.SOLV>
0.224656

>  <SCORE.INTRA.SOLV.lig_0>
-10.5235

>  <SCORE.INTRA.VDW>
-0.210115

>  <SCORE.INTRA.VDW.0>
-1.38455

>  <SCORE.INTRA.norm>
-0.135841

>  <SCORE.RESTR>
0

>  <SCORE.RESTR.CAVITY>
0

>  <SCORE.RESTR.norm>
0

>  <SCORE.SYSTEM>
0

>  <SCORE.SYSTEM.CONST>
0

>  <SCORE.SYSTEM.DIHEDRAL>
0

>  <SCORE.SYSTEM.SOLV>
0

>  <SCORE.SYSTEM.norm>
0

>  <SCORE.heavy>
28

>  <SCORE.norm>
-1.18238

>  <RMSD>
6.409

$$$$
ligand
 OpenBabel11021811413D
libRbt.so/2013.1/901 2013/11/27
 28 32  0  0  0  0  0  0  0  0999 V2000
   37.4806   19.0559   26.7754 C   0  0  0  0  0  0  0  0  0  0  0  0
   36.7772   20.1877   27.4980 C   0  0  0  0  0  0  0  0  0  0  0  0
   35.8810   20.9820   26.5594 C   0  0  0  0  0  0  0  0  0  0  0  0
   43.1298   23.8445   25.2786 O   0  0  0  0  0  0  0  0  0  0  0  0
   42.3850   24.5061   26.3026 C   0  0  0  0  0  0  0  0  0  0  0  0
   38.4552   27.3961   27.0217 C   0  0  0  0  0  0  0  0  0  0  0  0
   38.5579   27.2392   28.3979 C   0  0  0  0  0  0  0  0  0  0  0  0
   39.5629   26.4251   28.9265 C   0  0  0  0  0  0  0  0  0  0  0  0
   40.4643   25.7724   28.0847 C   0  0  0  0  0  0  0  0  0  0  0  0
   41.2222   25.3078   25.7036 C   0  0  1  0  0  0  0  0  0  0  0  0
   40.3591   25.9657   26.7272 C   0  0  0  0  0  0  0  0  0  0  0  0
   39.3688   26.7635   26.2122 C   0  0  0  0  0  0  0  0  0  0  0  0
   39.3196   26.8259   24.7639 C   0  0  1  0  0  0  0  0  0  0  0  0
   40.8756   28.2087   23.4008 C   0  0  0  0  0  0  0  0  0  0  0  0
   40.6448   27.1905   24.2944 C   0  0  0  0  0  0  0  0  0  0  0  0
   41.6626   26.4118   24.7761 C   0  0  0  0  0  0  0  0  0  0  0  0
   42.9657   26.6421   24.3602 C   0  0  0  0  0  0  0  0  0  0  0  0
   43.2188   27.6865   23.4683 C   0  0  0  0  0  0  0  0  0  0  0  0
   42.1738   28.4682   22.9935 C   0  0  0  0  0  0  0  0  0  0  0  0
   36.7089   21.9297   25.7012 C   0  0  0  0  0  0  0  0  0  0  0  0
   37.2461   23.0803   26.5441 C   0  0  0  0  0  0  0  0  0  0  0  0
   39.9354   22.6336   26.3309 O   0  0  0  0  0  0  0  0  0  0  0  0
   36.8006   25.2726   24.8165 O   0  0  0  0  0  0  0  0  0  0  0  0
   37.9109   24.7912   24.9700 C   0  0  0  0  0  0  0  0  0  0  0  0
   38.2025   23.7983   25.7166 N   0  0  0  0  0  0  0  0  0  0  0  0
   39.4343   23.5322   25.7059 C   0  0  0  0  0  0  0  0  0  0  0  0
   40.2297   24.4776   24.8743 C   0  0  1  0  0  0  0  0  0  0  0  0
   39.1185   25.3799   24.3317 C   0  0  2  0  0  0  0  0  0  0  0  0
  1  2  1  0  0  0  0
  2  3  1  0  0  0  0
  3 20  1  0  0  0  0
  4  5  1  0  0  0  0
  6  7  2  0  0  0  0
  6 12  1  0  0  0  0
  7  8  1  0  0  0  0
  8  9  2  0  0  0  0
  9 11  1  0  0  0  0
 10  5  1  1  0  0  0
 10 11  1  0  0  0  0
 10 16  1  0  0  0  0
 10 27  1  0  0  0  0
 11 12  2  0  0  0  0
 13 12  1  1  0  0  0
 13 15  1  0  0  0  0
 13 28  1  0  0  0  0
 14 15  2  0  0  0  0
 14 19  1  0  0  0  0
 15 16  1  0  0  0  0
 16 17  2  0  0  0  0
 17 18  1  0  0  0  0
 18 19  2  0  0  0  0
 20 21  1  0  0  0  0
 21 25  1  0  0  0  0
 22 26  2  0  0  0  0
 23 24  2  0  0  0  0
 24 25  1  0  0  0  0
 25 26  1  0  0  0  0
 27 26  1  1  0  0  0
 27 28  1  0  0  0  0
 28 24  1  1  0  0  0
M  END
>  <CHROM.1>
-77.64220132,176.92684890,-71.52384868,170.30909498,91.37781251,39.57895233
24.82751395,25.74630426,-2.25936104,0.35122129,-0.05710503

>  <Name>
ligand

>  <RI>
0

>  <Rbt.Current_Directory>
/home/itssahil/PROJECTS/Mol_Feturizer/New_Systems/rnas/1YLS

>  <Rbt.Executable>
rbdock ($Id: //depot/dev/client3/rdock/2013.1/src/exe/rbdock.cxx#4 $)

>  <Rbt.Library>
libRbt.so (2013.1, Build901 2013/11/27)

>  <Rbt.Parameter_File>
/export/apps/rDock/src/rDock_2013.1_src/data/scripts/dock_solv.prm

>  <Rbt.Receptor>
prm/pocket_docking_4.prm

>  <SCORE>
-32.2392

>  <SCORE.INTER>
-29.5729

>  <SCORE.INTER.CONST>
1

>  <SCORE.INTER.POLAR>
0

>  <SCORE.INTER.ROT>
5

>  <SCORE.INTER.SOLV>
6.31176

>  <SCORE.INTER.VDW>
-28.7525

>  <SCORE.INTER.norm>
-1.05618

>  <SCORE.INTRA>
-2.66625

>  <SCORE.INTRA.DIHEDRAL>
-7.67876

>  <SCORE.INTRA.DIHEDRAL.0>
12.0148

>  <SCORE.INTRA.POLAR>
0

>  <SCORE.INTRA.POLAR.0>
0

>  <SCORE.INTRA.REPUL>
0

>  <SCORE.INTRA.REPUL.0>
0

>  <SCORE.INTRA.SOLV>
0.24539

>  <SCORE.INTRA.SOLV.lig_0>
-10.5235

>  <SCORE.INTRA.VDW>
1.05044

>  <SCORE.INTRA.VDW.0>
-1.38455

>  <SCORE.INTRA.norm>
-0.0952232

>  <SCORE.RESTR>
0

>  <SCORE.RESTR.CAVITY>
0

>  <SCORE.RESTR.norm>
0

>  <SCORE.SYSTEM>
0

>  <SCORE.SYSTEM.CONST>
0

>  <SCORE.SYSTEM.DIHEDRAL>
0

>  <SCORE.SYSTEM.SOLV>
0

>  <SCORE.SYSTEM.norm>
0

>  <SCORE.heavy>
28

>  <SCORE.norm>
-1.1514

>  <RMSD>
6.414

$$$$
ligand
 OpenBabel11021811413D
libRbt.so/2013.1/901 2013/11/27
 28 32  0  0  0  0  0  0  0  0999 V2000
   36.3087   18.9410   27.0680 C   0  0  0  0  0  0  0  0  0  0  0  0
   36.7643   20.3122   26.6094 C   0  0  0  0  0  0  0  0  0  0  0  0
   35.5845   21.2274   26.3176 C   0  0  0  0  0  0  0  0  0  0  0  0
   42.7495   23.7334   25.0790 O   0  0  0  0  0  0  0  0  0  0  0  0
   42.1157   24.4167   26.1618 C   0  0  0  0  0  0  0  0  0  0  0  0
   38.4352   27.5342   27.1854 C   0  0  0  0  0  0  0  0  0  0  0  0
   38.5779   27.2982   28.5467 C   0  0  0  0  0  0  0  0  0  0  0  0
   39.5404   26.3887   28.9921 C   0  0  0  0  0  0  0  0  0  0  0  0
   40.3600   25.7193   28.0825 C   0  0  0  0  0  0  0  0  0  0  0  0
   40.9923   25.3287   25.6519 C   0  0  1  0  0  0  0  0  0  0  0  0
   40.2182   25.9909   26.7417 C   0  0  0  0  0  0  0  0  0  0  0  0
   39.2696   26.8824   26.3085 C   0  0  0  0  0  0  0  0  0  0  0  0
   39.1707   27.0244   24.8683 C   0  0  1  0  0  0  0  0  0  0  0  0
   40.7705   28.3641   23.5129 C   0  0  0  0  0  0  0  0  0  0  0  0
   40.5003   27.3190   24.3634 C   0  0  0  0  0  0  0  0  0  0  0  0
   41.4764   26.4463   24.7633 C   0  0  0  0  0  0  0  0  0  0  0  0
   42.7762   26.6058   24.3060 C   0  0  0  0  0  0  0  0  0  0  0  0
   43.0706   27.6754   23.4576 C   0  0  0  0  0  0  0  0  0  0  0  0
   42.0679   28.5526   23.0658 C   0  0  0  0  0  0  0  0  0  0  0  0
   36.0497   22.4929   25.6088 C   0  0  0  0  0  0  0  0  0  0  0  0
   36.8997   23.3454   26.5434 C   0  0  0  0  0  0  0  0  0  0  0  0
   39.5397   22.7224   26.1976 O   0  0  0  0  0  0  0  0  0  0  0  0
   36.5496   25.6516   24.9472 O   0  0  0  0  0  0  0  0  0  0  0  0
   37.6271   25.0859   25.0305 C   0  0  0  0  0  0  0  0  0  0  0  0
   37.8739   24.0369   25.7141 N   0  0  0  0  0  0  0  0  0  0  0  0
   39.0818   23.6857   25.6393 C   0  0  0  0  0  0  0  0  0  0  0  0
   39.9119   24.6152   24.8238 C   0  0  1  0  0  0  0  0  0  0  0  0
   38.8494   25.6209   24.3732 C   0  0  2  0  0  0  0  0  0  0  0  0
  1  2  1  0  0  0  0
  2  3  1  0  0  0  0
  3 20  1  0  0  0  0
  4  5  1  0  0  0  0
  6  7  2  0  0  0  0
  6 12  1  0  0  0  0
  7  8  1  0  0  0  0
  8  9  2  0  0  0  0
  9 11  1  0  0  0  0
 10  5  1  1  0  0  0
 10 11  1  0  0  0  0
 10 16  1  0  0  0  0
 10 27  1  0  0  0  0
 11 12  2  0  0  0  0
 13 12  1  1  0  0  0
 13 15  1  0  0  0  0
 13 28  1  0  0  0  0
 14 15  2  0  0  0  0
 14 19  1  0  0  0  0
 15 16  1  0  0  0  0
 16 17  2  0  0  0  0
 17 18  1  0  0  0  0
 18 19  2  0  0  0  0
 20 21  1  0  0  0  0
 21 25  1  0  0  0  0
 22 26  2  0  0  0  0
 23 24  2  0  0  0  0
 24 25  1  0  0  0  0
 25 26  1  0  0  0  0
 27 26  1  1  0  0  0
 27 28  1  0  0  0  0
 28 24  1  1  0  0  0
M  END
>  <CHROM.1>
-169.05898833,175.46107835,-67.40959016,148.38560978,79.71191138,39.31740964
24.94573335,25.72035686,-2.31216604,0.37000355,0.01487371

>  <Name>
ligand

>  <RI>
0

>  <Rbt.Current_Directory>
/home/itssahil/PROJECTS/Mol_Feturizer/New_Systems/rnas/1YLS

>  <Rbt.Executable>
rbdock ($Id: //depot/dev/client3/rdock/2013.1/src/exe/rbdock.cxx#4 $)

>  <Rbt.Library>
libRbt.so (2013.1, Build901 2013/11/27)

>  <Rbt.Parameter_File>
/export/apps/rDock/src/rDock_2013.1_src/data/scripts/dock_solv.prm

>  <Rbt.Receptor>
prm/pocket_docking_5.prm

>  <SCORE>
-33.2871

>  <SCORE.INTER>
-31.0679

>  <SCORE.INTER.CONST>
1

>  <SCORE.INTER.POLAR>
0

>  <SCORE.INTER.ROT>
5

>  <SCORE.INTER.SOLV>
6.71439

>  <SCORE.INTER.VDW>
-29.8834

>  <SCORE.INTER.norm>
-1.10957

>  <SCORE.INTRA>
-2.21922

>  <SCORE.INTRA.DIHEDRAL>
-6.00613

>  <SCORE.INTRA.DIHEDRAL.0>
12.0148

>  <SCORE.INTRA.POLAR>
0

>  <SCORE.INTRA.POLAR.0>
0

>  <SCORE.INTRA.REPUL>
0

>  <SCORE.INTRA.REPUL.0>
0

>  <SCORE.INTRA.SOLV>
0.344363

>  <SCORE.INTRA.SOLV.lig_0>
-10.5235

>  <SCORE.INTRA.VDW>
0.61166

>  <SCORE.INTRA.VDW.0>
-1.38455

>  <SCORE.INTRA.norm>
-0.079258

>  <SCORE.RESTR>
0

>  <SCORE.RESTR.CAVITY>
0

>  <SCORE.RESTR.norm>
0

>  <SCORE.SYSTEM>
0

>  <SCORE.SYSTEM.CONST>
0

>  <SCORE.SYSTEM.DIHEDRAL>
0

>  <SCORE.SYSTEM.SOLV>
0

>  <SCORE.SYSTEM.norm>
0

>  <SCORE.heavy>
28

>  <SCORE.norm>
-1.18883

>  <RMSD>
6.422

$$$$
ligand
 OpenBabel11021811413D
libRbt.so/2013.1/901 2013/11/27
 28 32  0  0  0  0  0  0  0  0999 V2000
   37.3315   19.1223   27.2751 C   0  0  0  0  0  0  0  0  0  0  0  0
   36.0625   19.6013   26.5981 C   0  0  0  0  0  0  0  0  0  0  0  0
   35.8496   21.0947   26.7963 C   0  0  0  0  0  0  0  0  0  0  0  0
   42.8058   23.7285   25.1663 O   0  0  0  0  0  0  0  0  0  0  0  0
   42.1110   24.4091   26.2128 C   0  0  0  0  0  0  0  0  0  0  0  0
   38.3969   27.5467   27.0338 C   0  0  0  0  0  0  0  0  0  0  0  0
   38.4899   27.3404   28.4043 C   0  0  0  0  0  0  0  0  0  0  0  0
   39.4353   26.4412   28.9040 C   0  0  0  0  0  0  0  0  0  0  0  0
   40.2871   25.7525   28.0396 C   0  0  0  0  0  0  0  0  0  0  0  0
   41.0071   25.3093   25.6427 C   0  0  1  0  0  0  0  0  0  0  0  0
   40.1942   25.9947   26.6890 C   0  0  0  0  0  0  0  0  0  0  0  0
   39.2624   26.8763   26.2022 C   0  0  0  0  0  0  0  0  0  0  0  0
   39.2159   26.9868   24.7567 C   0  0  1  0  0  0  0  0  0  0  0  0
   40.8644   28.2973   23.4314 C   0  0  0  0  0  0  0  0  0  0  0  0
   40.5630   27.2709   24.2941 C   0  0  0  0  0  0  0  0  0  0  0  0
   41.5237   26.4075   24.7481 C   0  0  0  0  0  0  0  0  0  0  0  0
   42.8393   26.5575   24.3350 C   0  0  0  0  0  0  0  0  0  0  0  0
   43.1647   27.6085   23.4748 C   0  0  0  0  0  0  0  0  0  0  0  0
   42.1772   28.4766   23.0278 C   0  0  0  0  0  0  0  0  0  0  0  0
   36.8430   21.8935   25.9625 C   0  0  0  0  0  0  0  0  0  0  0  0
   36.8841   23.3443   26.4279 C   0  0  0  0  0  0  0  0  0  0  0  0
   39.5347   22.7150   26.1918 O   0  0  0  0  0  0  0  0  0  0  0  0
   36.5932   25.6150   24.7701 O   0  0  0  0  0  0  0  0  0  0  0  0
   37.6667   25.0516   24.9048 C   0  0  0  0  0  0  0  0  0  0  0  0
   37.8880   24.0179   25.6196 N   0  0  0  0  0  0  0  0  0  0  0  0
   39.0978   23.6656   25.5965 C   0  0  0  0  0  0  0  0  0  0  0  0
   39.9573   24.5775   24.7916 C   0  0  1  0  0  0  0  0  0  0  0  0
   38.9122   25.5728   24.2809 C   0  0  2  0  0  0  0  0  0  0  0  0
  1  2  1  0  0  0  0
  2  3  1  0  0  0  0
  3 20  1  0  0  0  0
  4  5  1  0  0  0  0
  6  7  2  0  0  0  0
  6 12  1  0  0  0  0
  7  8  1  0  0  0  0
  8  9  2  0  0  0  0
  9 11  1  0  0  0  0
 10  5  1  1  0  0  0
 10 11  1  0  0  0  0
 10 16  1  0  0  0  0
 10 27  1  0  0  0  0
 11 12  2  0  0  0  0
 13 12  1  1  0  0  0
 13 15  1  0  0  0  0
 13 28  1  0  0  0  0
 14 15  2  0  0  0  0
 14 19  1  0  0  0  0
 15 16  1  0  0  0  0
 16 17  2  0  0  0  0
 17 18  1  0  0  0  0
 18 19  2  0  0  0  0
 20 21  1  0  0  0  0
 21 25  1  0  0  0  0
 22 26  2  0  0  0  0
 23 24  2  0  0  0  0
 24 25  1  0  0  0  0
 25 26  1  0  0  0  0
 27 26  1  1  0  0  0
 27 28  1  0  0  0  0
 28 24  1  1  0  0  0
M  END
>  <CHROM.1>
72.21015895,176.93685755,-165.04521227,177.82738651,123.14122540,39.38911858
24.88114978,25.71149687,-2.26003685,0.36725280,-0.03756169

>  <Name>
ligand

>  <RI>
0

>  <Rbt.Current_Directory>
/home/itssahil/PROJECTS/Mol_Feturizer/New_Systems/rnas/1YLS

>  <Rbt.Executable>
rbdock ($Id: //depot/dev/client3/rdock/2013.1/src/exe/rbdock.cxx#4 $)

>  <Rbt.Library>
libRbt.so (2013.1, Build901 2013/11/27)

>  <Rbt.Parameter_File>
/export/apps/rDock/src/rDock_2013.1_src/data/scripts/dock_solv.prm

>  <Rbt.Receptor>
prm/pocket_docking_8.prm

>  <SCORE>
-33.4995

>  <SCORE.INTER>
-31.3422

>  <SCORE.INTER.CONST>
1

>  <SCORE.INTER.POLAR>
0

>  <SCORE.INTER.ROT>
5

>  <SCORE.INTER.SOLV>
6.63408

>  <SCORE.INTER.VDW>
-30.0395

>  <SCORE.INTER.norm>
-1.11937

>  <SCORE.INTRA>
-2.15731

>  <SCORE.INTRA.DIHEDRAL>
-8.06389

>  <SCORE.INTRA.DIHEDRAL.0>
12.0148

>  <SCORE.INTRA.POLAR>
0

>  <SCORE.INTRA.POLAR.0>
0

>  <SCORE.INTRA.REPUL>
0

>  <SCORE.INTRA.REPUL.0>
0

>  <SCORE.INTRA.SOLV>
0.207854

>  <SCORE.INTRA.SOLV.lig_0>
-10.5235

>  <SCORE.INTRA.VDW>
1.7707

>  <SCORE.INTRA.VDW.0>
-1.38455

>  <SCORE.INTRA.norm>
-0.0770469

>  <SCORE.RESTR>
0

>  <SCORE.RESTR.CAVITY>
0

>  <SCORE.RESTR.norm>
0

>  <SCORE.SYSTEM>
0

>  <SCORE.SYSTEM.CONST>
0

>  <SCORE.SYSTEM.DIHEDRAL>
0

>  <SCORE.SYSTEM.SOLV>
0

>  <SCORE.SYSTEM.norm>
0

>  <SCORE.heavy>
28

>  <SCORE.norm>
-1.19641

>  <RMSD>
6.428

$$$$
ligand
 OpenBabel11021811413D
libRbt.so/2013.1/901 2013/11/27
 28 32  0  0  0  0  0  0  0  0999 V2000
   37.2375   19.1491   27.1950 C   0  0  0  0  0  0  0  0  0  0  0  0
   35.9542   19.6589   26.5696 C   0  0  0  0  0  0  0  0  0  0  0  0
   35.7754   21.1532   26.7935 C   0  0  0  0  0  0  0  0  0  0  0  0
   42.7543   23.6977   25.1871 O   0  0  0  0  0  0  0  0  0  0  0  0
   42.0752   24.3956   26.2325 C   0  0  0  0  0  0  0  0  0  0  0  0
   38.3964   27.5746   27.0523 C   0  0  0  0  0  0  0  0  0  0  0  0
   38.4835   27.3640   28.4225 C   0  0  0  0  0  0  0  0  0  0  0  0
   39.4170   26.4524   28.9223 C   0  0  0  0  0  0  0  0  0  0  0  0
   40.2628   25.7559   28.0582 C   0  0  0  0  0  0  0  0  0  0  0  0
   40.9835   25.3101   25.6620 C   0  0  1  0  0  0  0  0  0  0  0  0
   40.1761   26.0025   26.7080 C   0  0  0  0  0  0  0  0  0  0  0  0
   39.2559   26.8962   26.2212 C   0  0  0  0  0  0  0  0  0  0  0  0
   39.2144   27.0108   24.7758 C   0  0  1  0  0  0  0  0  0  0  0  0
   40.8814   28.3050   23.4579 C   0  0  0  0  0  0  0  0  0  0  0  0
   40.5659   27.2801   24.3173 C   0  0  0  0  0  0  0  0  0  0  0  0
   41.5151   26.4044   24.7714 C   0  0  0  0  0  0  0  0  0  0  0  0
   42.8335   26.5399   24.3619 C   0  0  0  0  0  0  0  0  0  0  0  0
   43.1734   27.5890   23.5052 C   0  0  0  0  0  0  0  0  0  0  0  0
   42.1973   28.4698   23.0579 C   0  0  0  0  0  0  0  0  0  0  0  0
   36.7756   21.9440   25.9602 C   0  0  0  0  0  0  0  0  0  0  0  0
   36.8357   23.3919   26.4322 C   0  0  0  0  0  0  0  0  0  0  0  0
   39.4792   22.7320   26.2010 O   0  0  0  0  0  0  0  0  0  0  0  0
   36.5756   25.6700   24.7794 O   0  0  0  0  0  0  0  0  0  0  0  0
   37.6421   25.0937   24.9154 C   0  0  0  0  0  0  0  0  0  0  0  0
   37.8495   24.0557   25.6281 N   0  0  0  0  0  0  0  0  0  0  0  0
   39.0550   23.6892   25.6070 C   0  0  0  0  0  0  0  0  0  0  0  0
   39.9272   24.5929   24.8066 C   0  0  1  0  0  0  0  0  0  0  0  0
   38.8952   25.6016   24.2958 C   0  0  2  0  0  0  0  0  0  0  0  0
  1  2  1  0  0  0  0
  2  3  1  0  0  0  0
  3 20  1  0  0  0  0
  4  5  1  0  0  0  0
  6  7  2  0  0  0  0
  6 12  1  0  0  0  0
  7  8  1  0  0  0  0
  8  9  2  0  0  0  0
  9 11  1  0  0  0  0
 10  5  1  1  0  0  0
 10 11  1  0  0  0  0
 10 16  1  0  0  0  0
 10 27  1  0  0  0  0
 11 12  2  0  0  0  0
 13 12  1  1  0  0  0
 13 15  1  0  0  0  0
 13 28  1  0  0  0  0
 14 15  2  0  0  0  0
 14 19  1  0  0  0  0
 15 16  1  0  0  0  0
 16 17  2  0  0  0  0
 17 18  1  0  0  0  0
 18 19  2  0  0  0  0
 20 21  1  0  0  0  0
 21 25  1  0  0  0  0
 22 26  2  0  0  0  0
 23 24  2  0  0  0  0
 24 25  1  0  0  0  0
 25 26  1  0  0  0  0
 27 26  1  1  0  0  0
 27 28  1  0  0  0  0
 28 24  1  1  0  0  0
M  END
>  <CHROM.1>
70.82878275,176.26709424,-166.00331283,177.56657637,122.97318079,39.35953882
24.89986743,25.72187100,-2.27408324,0.36829778,-0.02335155

>  <Name>
ligand

>  <RI>
0

>  <Rbt.Current_Directory>
/home/itssahil/PROJECTS/Mol_Feturizer/New_Systems/rnas/1YLS

>  <Rbt.Executable>
rbdock ($Id: //depot/dev/client3/rdock/2013.1/src/exe/rbdock.cxx#4 $)

>  <Rbt.Library>
libRbt.so (2013.1, Build901 2013/11/27)

>  <Rbt.Parameter_File>
/export/apps/rDock/src/rDock_2013.1_src/data/scripts/dock_solv.prm

>  <Rbt.Receptor>
prm/pocket_docking_4.prm

>  <SCORE>
-33.5397

>  <SCORE.INTER>
-31.329

>  <SCORE.INTER.CONST>
1

>  <SCORE.INTER.POLAR>
0

>  <SCORE.INTER.ROT>
5

>  <SCORE.INTER.SOLV>
6.66543

>  <SCORE.INTER.VDW>
-30.0411

>  <SCORE.INTER.norm>
-1.11889

>  <SCORE.INTRA>
-2.21075

>  <SCORE.INTRA.DIHEDRAL>
-8.2792

>  <SCORE.INTRA.DIHEDRAL.0>
12.0148

>  <SCORE.INTRA.POLAR>
0

>  <SCORE.INTRA.POLAR.0>
0

>  <SCORE.INTRA.REPUL>
0

>  <SCORE.INTRA.REPUL.0>
0

>  <SCORE.INTRA.SOLV>
0.21244

>  <SCORE.INTRA.SOLV.lig_0>
-10.5235

>  <SCORE.INTRA.VDW>
1.82264

>  <SCORE.INTRA.VDW.0>
-1.38455

>  <SCORE.INTRA.norm>
-0.0789552

>  <SCORE.RESTR>
0

>  <SCORE.RESTR.CAVITY>
0

>  <SCORE.RESTR.norm>
0

>  <SCORE.SYSTEM>
0

>  <SCORE.SYSTEM.CONST>
0

>  <SCORE.SYSTEM.DIHEDRAL>
0

>  <SCORE.SYSTEM.SOLV>
0

>  <SCORE.SYSTEM.norm>
0

>  <SCORE.heavy>
28

>  <SCORE.norm>
-1.19785

>  <RMSD>
6.429

$$$$
ligand
 OpenBabel11021811413D
libRbt.so/2013.1/901 2013/11/27
 28 32  0  0  0  0  0  0  0  0999 V2000
   32.1718   23.1396   26.0385 C   0  0  0  0  0  0  0  0  0  0  0  0
   33.5075   23.8542   26.0945 C   0  0  0  0  0  0  0  0  0  0  0  0
   34.6680   22.8718   26.1512 C   0  0  0  0  0  0  0  0  0  0  0  0
   43.1135   23.9699   25.8147 O   0  0  0  0  0  0  0  0  0  0  0  0
   42.0714   24.5416   26.6073 C   0  0  0  0  0  0  0  0  0  0  0  0
   37.8531   27.0725   26.2710 C   0  0  0  0  0  0  0  0  0  0  0  0
   37.6643   26.9929   27.6448 C   0  0  0  0  0  0  0  0  0  0  0  0
   38.5932   26.3054   28.4301 C   0  0  0  0  0  0  0  0  0  0  0  0
   39.7082   25.7023   27.8470 C   0  0  0  0  0  0  0  0  0  0  0  0
   41.0056   25.1981   25.7204 C   0  0  1  0  0  0  0  0  0  0  0  0
   39.8875   25.8189   26.4885 C   0  0  0  0  0  0  0  0  0  0  0  0
   38.9713   26.4922   25.7206 C   0  0  0  0  0  0  0  0  0  0  0  0
   39.2358   26.4796   24.2945 C   0  0  1  0  0  0  0  0  0  0  0  0
   40.9322   27.9379   23.2050 C   0  0  0  0  0  0  0  0  0  0  0  0
   40.5966   26.9466   24.0957 C   0  0  0  0  0  0  0  0  0  0  0  0
   41.5452   26.2933   24.8357 C   0  0  0  0  0  0  0  0  0  0  0  0
   42.8841   26.6271   24.6935 C   0  0  0  0  0  0  0  0  0  0  0  0
   43.2387   27.6467   23.8076 C   0  0  0  0  0  0  0  0  0  0  0  0
   42.2619   28.3007   23.0682 C   0  0  0  0  0  0  0  0  0  0  0  0
   35.9991   23.6116   26.1221 C   0  0  0  0  0  0  0  0  0  0  0  0
   37.1413   22.6427   25.8402 C   0  0  0  0  0  0  0  0  0  0  0  0
   39.8395   22.4463   26.2381 O   0  0  0  0  0  0  0  0  0  0  0  0
   36.9046   24.6962   23.9125 O   0  0  0  0  0  0  0  0  0  0  0  0
   37.9904   24.3315   24.3322 C   0  0  0  0  0  0  0  0  0  0  0  0
   38.1927   23.4083   25.1897 N   0  0  0  0  0  0  0  0  0  0  0  0
   39.4146   23.2614   25.4608 C   0  0  0  0  0  0  0  0  0  0  0  0
   40.2916   24.2375   24.7563 C   0  0  1  0  0  0  0  0  0  0  0  0
   39.2552   25.0018   23.9286 C   0  0  2  0  0  0  0  0  0  0  0  0
  1  2  1  0  0  0  0
  2  3  1  0  0  0  0
  3 20  1  0  0  0  0
  4  5  1  0  0  0  0
  6  7  2  0  0  0  0
  6 12  1  0  0  0  0
  7  8  1  0  0  0  0
  8  9  2  0  0  0  0
  9 11  1  0  0  0  0
 10  5  1  1  0  0  0
 10 11  1  0  0  0  0
 10 16  1  0  0  0  0
 10 27  1  0  0  0  0
 11 12  2  0  0  0  0
 13 12  1  1  0  0  0
 13 15  1  0  0  0  0
 13 28  1  0  0  0  0
 14 15  2  0  0  0  0
 14 19  1  0  0  0  0
 15 16  1  0  0  0  0
 16 17  2  0  0  0  0
 17 18  1  0  0  0  0
 18 19  2  0  0  0  0
 20 21  1  0  0  0  0
 21 25  1  0  0  0  0
 22 26  2  0  0  0  0
 23 24  2  0  0  0  0
 24 25  1  0  0  0  0
 25 26  1  0  0  0  0
 27 26  1  1  0  0  0
 27 28  1  0  0  0  0
 28 24  1  1  0  0  0
M  END
>  <CHROM.1>
176.59344827,-179.85657620,-166.33507814,152.41678946,-38.30034347,39.00771075
25.08555284,25.45990070,2.72437059,-0.00967912,2.74012502

>  <Name>
ligand

>  <RI>
0

>  <Rbt.Current_Directory>
/home/itssahil/PROJECTS/Mol_Feturizer/New_Systems/rnas/1YLS

>  <Rbt.Executable>
rbdock ($Id: //depot/dev/client3/rdock/2013.1/src/exe/rbdock.cxx#4 $)

>  <Rbt.Library>
libRbt.so (2013.1, Build901 2013/11/27)

>  <Rbt.Parameter_File>
/export/apps/rDock/src/rDock_2013.1_src/data/scripts/dock_solv.prm

>  <Rbt.Receptor>
prm/pocket_docking_4.prm

>  <SCORE>
-27.268

>  <SCORE.INTER>
-26.5398

>  <SCORE.INTER.CONST>
1

>  <SCORE.INTER.POLAR>
0

>  <SCORE.INTER.ROT>
5

>  <SCORE.INTER.SOLV>
7.1166

>  <SCORE.INTER.VDW>
-26.9987

>  <SCORE.INTER.norm>
-0.94785

>  <SCORE.INTRA>
-0.728179

>  <SCORE.INTRA.DIHEDRAL>
-6.5661

>  <SCORE.INTRA.DIHEDRAL.0>
12.0148

>  <SCORE.INTRA.POLAR>
0

>  <SCORE.INTRA.POLAR.0>
0

>  <SCORE.INTRA.REPUL>
0

>  <SCORE.INTRA.REPUL.0>
0

>  <SCORE.INTRA.SOLV>
0.295692

>  <SCORE.INTRA.SOLV.lig_0>
-10.5235

>  <SCORE.INTRA.VDW>
2.40702

>  <SCORE.INTRA.VDW.0>
-1.38455

>  <SCORE.INTRA.norm>
-0.0260064

>  <SCORE.RESTR>
0

>  <SCORE.RESTR.CAVITY>
0

>  <SCORE.RESTR.norm>
0

>  <SCORE.SYSTEM>
0

>  <SCORE.SYSTEM.CONST>
0

>  <SCORE.SYSTEM.DIHEDRAL>
0

>  <SCORE.SYSTEM.SOLV>
0

>  <SCORE.SYSTEM.norm>
0

>  <SCORE.heavy>
28

>  <SCORE.norm>
-0.973856

>  <RMSD>
6.431

$$$$
ligand
 OpenBabel11021811413D
libRbt.so/2013.1/901 2013/11/27
 28 32  0  0  0  0  0  0  0  0999 V2000
   36.2659   18.9145   27.0162 C   0  0  0  0  0  0  0  0  0  0  0  0
   36.7489   20.2930   26.6109 C   0  0  0  0  0  0  0  0  0  0  0  0
   35.5876   21.2381   26.3410 C   0  0  0  0  0  0  0  0  0  0  0  0
   42.7905   23.7912   25.0039 O   0  0  0  0  0  0  0  0  0  0  0  0
   42.1241   24.4137   26.1036 C   0  0  0  0  0  0  0  0  0  0  0  0
   38.4647   27.5345   27.1909 C   0  0  0  0  0  0  0  0  0  0  0  0
   38.6222   27.2885   28.5489 C   0  0  0  0  0  0  0  0  0  0  0  0
   39.5870   26.3730   28.9769 C   0  0  0  0  0  0  0  0  0  0  0  0
   40.3941   25.7078   28.0533 C   0  0  0  0  0  0  0  0  0  0  0  0
   40.9977   25.3325   25.6130 C   0  0  1  0  0  0  0  0  0  0  0  0
   40.2380   25.9892   26.7162 C   0  0  0  0  0  0  0  0  0  0  0  0
   39.2872   26.8865   26.3000 C   0  0  0  0  0  0  0  0  0  0  0  0
   39.1724   27.0389   24.8621 C   0  0  1  0  0  0  0  0  0  0  0  0
   40.7606   28.3836   23.4981 C   0  0  0  0  0  0  0  0  0  0  0  0
   40.4970   27.3333   24.3442 C   0  0  0  0  0  0  0  0  0  0  0  0
   41.4750   26.4550   24.7268 C   0  0  0  0  0  0  0  0  0  0  0  0
   42.7700   26.6140   24.2559 C   0  0  0  0  0  0  0  0  0  0  0  0
   43.0579   27.6886   23.4118 C   0  0  0  0  0  0  0  0  0  0  0  0
   42.0534   28.5715   23.0376 C   0  0  0  0  0  0  0  0  0  0  0  0
   36.0690   22.4847   25.6101 C   0  0  0  0  0  0  0  0  0  0  0  0
   36.9096   23.3548   26.5370 C   0  0  0  0  0  0  0  0  0  0  0  0
   39.5437   22.7267   26.1568 O   0  0  0  0  0  0  0  0  0  0  0  0
   36.5483   25.6732   24.9611 O   0  0  0  0  0  0  0  0  0  0  0  0
   37.6250   25.1038   25.0282 C   0  0  0  0  0  0  0  0  0  0  0  0
   37.8764   24.0493   25.7016 N   0  0  0  0  0  0  0  0  0  0  0  0
   39.0823   23.6951   25.6106 C   0  0  0  0  0  0  0  0  0  0  0  0
   39.9058   24.6280   24.7923 C   0  0  1  0  0  0  0  0  0  0  0  0
   38.8412   25.6400   24.3609 C   0  0  2  0  0  0  0  0  0  0  0  0
  1  2  1  0  0  0  0
  2  3  1  0  0  0  0
  3 20  1  0  0  0  0
  4  5  1  0  0  0  0
  6  7  2  0  0  0  0
  6 12  1  0  0  0  0
  7  8  1  0  0  0  0
  8  9  2  0  0  0  0
  9 11  1  0  0  0  0
 10  5  1  1  0  0  0
 10 11  1  0  0  0  0
 10 16  1  0  0  0  0
 10 27  1  0  0  0  0
 11 12  2  0  0  0  0
 13 12  1  1  0  0  0
 13 15  1  0  0  0  0
 13 28  1  0  0  0  0
 14 15  2  0  0  0  0
 14 19  1  0  0  0  0
 15 16  1  0  0  0  0
 16 17  2  0  0  0  0
 17 18  1  0  0  0  0
 18 19  2  0  0  0  0
 20 21  1  0  0  0  0
 21 25  1  0  0  0  0
 22 26  2  0  0  0  0
 23 24  2  0  0  0  0
 24 25  1  0  0  0  0
 25 26  1  0  0  0  0
 27 26  1  1  0  0  0
 27 28  1  0  0  0  0
 28 24  1  1  0  0  0
M  END
>  <CHROM.1>
-165.80631397,178.57436572,-70.17131749,149.84358397,81.09159122,39.32301638
24.95264641,25.69906796,-2.31668145,0.38310731,0.02518906

>  <Name>
ligand

>  <RI>
0

>  <Rbt.Current_Directory>
/home/itssahil/PROJECTS/Mol_Feturizer/New_Systems/rnas/1YLS

>  <Rbt.Executable>
rbdock ($Id: //depot/dev/client3/rdock/2013.1/src/exe/rbdock.cxx#4 $)

>  <Rbt.Library>
libRbt.so (2013.1, Build901 2013/11/27)

>  <Rbt.Parameter_File>
/export/apps/rDock/src/rDock_2013.1_src/data/scripts/dock_solv.prm

>  <Rbt.Receptor>
prm/pocket_docking_7.prm

>  <SCORE>
-33.2974

>  <SCORE.INTER>
-31.0863

>  <SCORE.INTER.CONST>
1

>  <SCORE.INTER.POLAR>
0

>  <SCORE.INTER.ROT>
5

>  <SCORE.INTER.SOLV>
6.77778

>  <SCORE.INTER.VDW>
-29.9168

>  <SCORE.INTER.norm>
-1.11023

>  <SCORE.INTRA>
-2.21105

>  <SCORE.INTRA.DIHEDRAL>
-5.76012

>  <SCORE.INTRA.DIHEDRAL.0>
12.0148

>  <SCORE.INTRA.POLAR>
0

>  <SCORE.INTRA.POLAR.0>
0

>  <SCORE.INTRA.REPUL>
0

>  <SCORE.INTRA.REPUL.0>
0

>  <SCORE.INTRA.SOLV>
0.316523

>  <SCORE.INTRA.SOLV.lig_0>
-10.5235

>  <SCORE.INTRA.VDW>
0.510752

>  <SCORE.INTRA.VDW.0>
-1.38455

>  <SCORE.INTRA.norm>
-0.0789659

>  <SCORE.RESTR>
0

>  <SCORE.RESTR.CAVITY>
0

>  <SCORE.RESTR.norm>
0

>  <SCORE.SYSTEM>
0

>  <SCORE.SYSTEM.CONST>
0

>  <SCORE.SYSTEM.DIHEDRAL>
0

>  <SCORE.SYSTEM.SOLV>
0

>  <SCORE.SYSTEM.norm>
0

>  <SCORE.heavy>
28

>  <SCORE.norm>
-1.18919

>  <RMSD>
6.432

$$$$
ligand
 OpenBabel11021811413D
libRbt.so/2013.1/901 2013/11/27
 28 32  0  0  0  0  0  0  0  0999 V2000
   36.2677   18.9527   27.0089 C   0  0  0  0  0  0  0  0  0  0  0  0
   36.7390   20.3219   26.5604 C   0  0  0  0  0  0  0  0  0  0  0  0
   35.5705   21.2620   26.3044 C   0  0  0  0  0  0  0  0  0  0  0  0
   43.1078   25.1182   26.8290 O   0  0  0  0  0  0  0  0  0  0  0  0
   42.1136   24.3870   26.1092 C   0  0  0  0  0  0  0  0  0  0  0  0
   38.4817   27.5429   27.1870 C   0  0  0  0  0  0  0  0  0  0  0  0
   38.6309   27.2929   28.5451 C   0  0  0  0  0  0  0  0  0  0  0  0
   39.5846   26.3669   28.9754 C   0  0  0  0  0  0  0  0  0  0  0  0
   40.3888   25.6952   28.0540 C   0  0  0  0  0  0  0  0  0  0  0  0
   40.9987   25.3181   25.6156 C   0  0  1  0  0  0  0  0  0  0  0  0
   40.2411   25.9805   26.7168 C   0  0  0  0  0  0  0  0  0  0  0  0
   39.3012   26.8882   26.2983 C   0  0  0  0  0  0  0  0  0  0  0  0
   39.1939   27.0444   24.8602 C   0  0  1  0  0  0  0  0  0  0  0  0
   40.8014   28.3752   23.5052 C   0  0  0  0  0  0  0  0  0  0  0  0
   40.5236   27.3262   24.3483 C   0  0  0  0  0  0  0  0  0  0  0  0
   41.4910   26.4373   24.7334 C   0  0  0  0  0  0  0  0  0  0  0  0
   42.7896   26.5839   24.2682 C   0  0  0  0  0  0  0  0  0  0  0  0
   43.0919   27.6571   23.4272 C   0  0  0  0  0  0  0  0  0  0  0  0
   42.0980   28.5508   23.0505 C   0  0  0  0  0  0  0  0  0  0  0  0
   36.0416   22.5204   25.5870 C   0  0  0  0  0  0  0  0  0  0  0  0
   36.8869   23.3805   26.5190 C   0  0  0  0  0  0  0  0  0  0  0  0
   39.5160   22.7262   26.1485 O   0  0  0  0  0  0  0  0  0  0  0  0
   36.5557   25.7052   24.9458 O   0  0  0  0  0  0  0  0  0  0  0  0
   37.6263   25.1248   25.0164 C   0  0  0  0  0  0  0  0  0  0  0  0
   37.8641   24.0666   25.6888 N   0  0  0  0  0  0  0  0  0  0  0  0
   39.0668   23.7003   25.6022 C   0  0  0  0  0  0  0  0  0  0  0  0
   39.9032   24.6263   24.7890 C   0  0  1  0  0  0  0  0  0  0  0  0
   38.8507   25.6497   24.3550 C   0  0  2  0  0  0  0  0  0  0  0  0
  1  2  1  0  0  0  0
  2  3  1  0  0  0  0
  3 20  1  0  0  0  0
  4  5  1  0  0  0  0
  6  7  2  0  0  0  0
  6 12  1  0  0  0  0
  7  8  1  0  0  0  0
  8  9  2  0  0  0  0
  9 11  1  0  0  0  0
 10  5  1  1  0  0  0
 10 11  1  0  0  0  0
 10 16  1  0  0  0  0
 10 27  1  0  0  0  0
 11 12  2  0  0  0  0
 13 12  1  1  0  0  0
 13 15  1  0  0  0  0
 13 28  1  0  0  0  0
 14 15  2  0  0  0  0
 14 19  1  0  0  0  0
 15 16  1  0  0  0  0
 16 17  2  0  0  0  0
 17 18  1  0  0  0  0
 18 19  2  0  0  0  0
 20 21  1  0  0  0  0
 21 25  1  0  0  0  0
 22 26  2  0  0  0  0
 23 24  2  0  0  0  0
 24 25  1  0  0  0  0
 25 26  1  0  0  0  0
 27 26  1  1  0  0  0
 27 28  1  0  0  0  0
 28 24  1  1  0  0  0
M  END
>  <CHROM.1>
-168.27591624,-62.95322542,-69.76012373,148.57105554,81.10324672,39.33991775
25.01420201,25.77287699,-2.27218213,0.00176907,-0.27154643

>  <Name>
ligand

>  <RI>
0

>  <Rbt.Current_Directory>
/home/itssahil/PROJECTS/Mol_Feturizer/New_Systems/rnas/1YLS

>  <Rbt.Executable>
rbdock ($Id: //depot/dev/client3/rdock/2013.1/src/exe/rbdock.cxx#4 $)

>  <Rbt.Library>
libRbt.so (2013.1, Build901 2013/11/27)

>  <Rbt.Parameter_File>
/export/apps/rDock/src/rDock_2013.1_src/data/scripts/dock_solv.prm

>  <Rbt.Receptor>
prm/pocket_docking_8.prm

>  <SCORE>
-33.1117

>  <SCORE.INTER>
-30.6808

>  <SCORE.INTER.CONST>
1

>  <SCORE.INTER.POLAR>
0

>  <SCORE.INTER.ROT>
5

>  <SCORE.INTER.SOLV>
6.30199

>  <SCORE.INTER.VDW>
-29.4879

>  <SCORE.INTER.norm>
-1.09574

>  <SCORE.INTRA>
-2.43091

>  <SCORE.INTRA.DIHEDRAL>
-5.84087

>  <SCORE.INTRA.DIHEDRAL.0>
12.0148

>  <SCORE.INTRA.POLAR>
0

>  <SCORE.INTRA.POLAR.0>
0

>  <SCORE.INTRA.REPUL>
0

>  <SCORE.INTRA.REPUL.0>
0

>  <SCORE.INTRA.SOLV>
0.128226

>  <SCORE.INTRA.SOLV.lig_0>
-10.5235

>  <SCORE.INTRA.VDW>
0.425414

>  <SCORE.INTRA.VDW.0>
-1.38455

>  <SCORE.INTRA.norm>
-0.0868182

>  <SCORE.RESTR>
0

>  <SCORE.RESTR.CAVITY>
0

>  <SCORE.RESTR.norm>
0

>  <SCORE.SYSTEM>
0

>  <SCORE.SYSTEM.CONST>
0

>  <SCORE.SYSTEM.DIHEDRAL>
0

>  <SCORE.SYSTEM.SOLV>
0

>  <SCORE.SYSTEM.norm>
0

>  <SCORE.heavy>
28

>  <SCORE.norm>
-1.18256

>  <RMSD>
6.435

$$$$
ligand
 OpenBabel11021811413D
libRbt.so/2013.1/901 2013/11/27
 28 32  0  0  0  0  0  0  0  0999 V2000
   37.4291   18.8876   27.3223 C   0  0  0  0  0  0  0  0  0  0  0  0
   36.1794   19.3992   26.6335 C   0  0  0  0  0  0  0  0  0  0  0  0
   35.9978   20.8958   26.8383 C   0  0  0  0  0  0  0  0  0  0  0  0
   43.0106   25.3840   27.2833 O   0  0  0  0  0  0  0  0  0  0  0  0
   42.1906   24.5076   26.5082 C   0  0  0  0  0  0  0  0  0  0  0  0
   38.2575   27.4676   26.7940 C   0  0  0  0  0  0  0  0  0  0  0  0
   38.2602   27.3821   28.1804 C   0  0  0  0  0  0  0  0  0  0  0  0
   39.2145   26.5875   28.8208 C   0  0  0  0  0  0  0  0  0  0  0  0
   40.1648   25.8832   28.0805 C   0  0  0  0  0  0  0  0  0  0  0  0
   41.0837   25.2875   25.7869 C   0  0  1  0  0  0  0  0  0  0  0  0
   40.1588   26.0061   26.7108 C   0  0  0  0  0  0  0  0  0  0  0  0
   39.2181   26.7850   26.0858 C   0  0  0  0  0  0  0  0  0  0  0  0
   39.2726   26.7719   24.6364 C   0  0  1  0  0  0  0  0  0  0  0  0
   40.9392   28.0669   23.3186 C   0  0  0  0  0  0  0  0  0  0  0  0
   40.6324   27.0991   24.2448 C   0  0  0  0  0  0  0  0  0  0  0  0
   41.6032   26.3373   24.8376 C   0  0  0  0  0  0  0  0  0  0  0  0
   42.9355   26.5333   24.5047 C   0  0  0  0  0  0  0  0  0  0  0  0
   43.2648   27.5271   23.5805 C   0  0  0  0  0  0  0  0  0  0  0  0
   42.2664   28.2926   22.9924 C   0  0  0  0  0  0  0  0  0  0  0  0
   37.0385   21.6760   26.0456 C   0  0  0  0  0  0  0  0  0  0  0  0
   37.0294   23.1442   26.4545 C   0  0  0  0  0  0  0  0  0  0  0  0
   39.7210   22.6620   26.4576 O   0  0  0  0  0  0  0  0  0  0  0  0
   36.7362   25.2469   24.5887 O   0  0  0  0  0  0  0  0  0  0  0  0
   37.8265   24.7640   24.8458 C   0  0  0  0  0  0  0  0  0  0  0  0
   38.0514   23.8089   25.6617 N   0  0  0  0  0  0  0  0  0  0  0  0
   39.2772   23.5311   25.7528 C   0  0  0  0  0  0  0  0  0  0  0  0
   40.1420   24.4242   24.9326 C   0  0  1  0  0  0  0  0  0  0  0  0
   39.0839   25.3072   24.2661 C   0  0  2  0  0  0  0  0  0  0  0  0
  1  2  1  0  0  0  0
  2  3  1  0  0  0  0
  3 20  1  0  0  0  0
  4  5  1  0  0  0  0
  6  7  2  0  0  0  0
  6 12  1  0  0  0  0
  7  8  1  0  0  0  0
  8  9  2  0  0  0  0
  9 11  1  0  0  0  0
 10  5  1  1  0  0  0
 10 11  1  0  0  0  0
 10 16  1  0  0  0  0
 10 27  1  0  0  0  0
 11 12  2  0  0  0  0
 13 12  1  1  0  0  0
 13 15  1  0  0  0  0
 13 28  1  0  0  0  0
 14 15  2  0  0  0  0
 14 19  1  0  0  0  0
 15 16  1  0  0  0  0
 16 17  2  0  0  0  0
 17 18  1  0  0  0  0
 18 19  2  0  0  0  0
 20 21  1  0  0  0  0
 21 25  1  0  0  0  0
 22 26  2  0  0  0  0
 23 24  2  0  0  0  0
 24 25  1  0  0  0  0
 25 26  1  0  0  0  0
 27 26  1  1  0  0  0
 27 28  1  0  0  0  0
 28 24  1  1  0  0  0
M  END
>  <CHROM.1>
70.94955541,-60.67900830,-169.19024172,179.61177262,119.32871092,39.46798167
24.83305609,25.82356595,-2.20091883,0.00367911,-0.28472677

>  <Name>
ligand

>  <RI>
0

>  <Rbt.Current_Directory>
/home/itssahil/PROJECTS/Mol_Feturizer/New_Systems/rnas/1YLS

>  <Rbt.Executable>
rbdock ($Id: //depot/dev/client3/rdock/2013.1/src/exe/rbdock.cxx#4 $)

>  <Rbt.Library>
libRbt.so (2013.1, Build901 2013/11/27)

>  <Rbt.Parameter_File>
/export/apps/rDock/src/rDock_2013.1_src/data/scripts/dock_solv.prm

>  <Rbt.Receptor>
prm/pocket_docking_7.prm

>  <SCORE>
-33.5818

>  <SCORE.INTER>
-30.7378

>  <SCORE.INTER.CONST>
1

>  <SCORE.INTER.POLAR>
0

>  <SCORE.INTER.ROT>
5

>  <SCORE.INTER.SOLV>
6.25098

>  <SCORE.INTER.VDW>
-29.5088

>  <SCORE.INTER.norm>
-1.09778

>  <SCORE.INTRA>
-2.84397

>  <SCORE.INTRA.DIHEDRAL>
-8.66853

>  <SCORE.INTRA.DIHEDRAL.0>
12.0148

>  <SCORE.INTRA.POLAR>
0

>  <SCORE.INTRA.POLAR.0>
0

>  <SCORE.INTRA.REPUL>
0

>  <SCORE.INTRA.REPUL.0>
0

>  <SCORE.INTRA.SOLV>
-0.017576

>  <SCORE.INTRA.SOLV.lig_0>
-10.5235

>  <SCORE.INTRA.VDW>
1.49908

>  <SCORE.INTRA.VDW.0>
-1.38455

>  <SCORE.INTRA.norm>
-0.10157

>  <SCORE.RESTR>
0

>  <SCORE.RESTR.CAVITY>
0

>  <SCORE.RESTR.norm>
0

>  <SCORE.SYSTEM>
0

>  <SCORE.SYSTEM.CONST>
0

>  <SCORE.SYSTEM.DIHEDRAL>
0

>  <SCORE.SYSTEM.SOLV>
0

>  <SCORE.SYSTEM.norm>
0

>  <SCORE.heavy>
28

>  <SCORE.norm>
-1.19935

>  <RMSD>
6.438

$$$$
ligand
 OpenBabel11021811413D
libRbt.so/2013.1/901 2013/11/27
 28 32  0  0  0  0  0  0  0  0999 V2000
   37.3702   18.9637   27.2741 C   0  0  0  0  0  0  0  0  0  0  0  0
   36.1063   19.4819   26.6169 C   0  0  0  0  0  0  0  0  0  0  0  0
   35.9252   20.9749   26.8470 C   0  0  0  0  0  0  0  0  0  0  0  0
   42.9419   23.8059   25.4288 O   0  0  0  0  0  0  0  0  0  0  0  0
   42.1778   24.4972   26.4184 C   0  0  0  0  0  0  0  0  0  0  0  0
   38.3077   27.5033   26.9647 C   0  0  0  0  0  0  0  0  0  0  0  0
   38.3632   27.3679   28.3460 C   0  0  0  0  0  0  0  0  0  0  0  0
   39.3287   26.5366   28.9195 C   0  0  0  0  0  0  0  0  0  0  0  0
   40.2377   25.8453   28.1176 C   0  0  0  0  0  0  0  0  0  0  0  0
   41.0564   25.3190   25.7697 C   0  0  1  0  0  0  0  0  0  0  0  0
   40.1802   26.0176   26.7544 C   0  0  0  0  0  0  0  0  0  0  0  0
   39.2285   26.8325   26.1952 C   0  0  0  0  0  0  0  0  0  0  0  0
   39.2261   26.8708   24.7452 C   0  0  1  0  0  0  0  0  0  0  0  0
   40.8608   28.1874   23.4091 C   0  0  0  0  0  0  0  0  0  0  0  0
   40.5746   27.1916   24.3118 C   0  0  0  0  0  0  0  0  0  0  0  0
   41.5554   26.3945   24.8383 C   0  0  0  0  0  0  0  0  0  0  0  0
   42.8766   26.5825   24.4599 C   0  0  0  0  0  0  0  0  0  0  0  0
   43.1857   27.6040   23.5592 C   0  0  0  0  0  0  0  0  0  0  0  0
   42.1776   28.4049   23.0386 C   0  0  0  0  0  0  0  0  0  0  0  0
   36.9410   21.7697   26.0367 C   0  0  0  0  0  0  0  0  0  0  0  0
   36.9969   23.2137   26.5212 C   0  0  0  0  0  0  0  0  0  0  0  0
   39.6783   22.6917   26.4005 O   0  0  0  0  0  0  0  0  0  0  0  0
   36.6653   25.3865   24.7442 O   0  0  0  0  0  0  0  0  0  0  0  0
   37.7567   24.8784   24.9406 C   0  0  0  0  0  0  0  0  0  0  0  0
   37.9978   23.8913   25.7125 N   0  0  0  0  0  0  0  0  0  0  0  0
   39.2215   23.5922   25.7451 C   0  0  0  0  0  0  0  0  0  0  0  0
   40.0679   24.5013   24.9234 C   0  0  1  0  0  0  0  0  0  0  0  0
   38.9991   25.4234   24.3311 C   0  0  2  0  0  0  0  0  0  0  0  0
  1  2  1  0  0  0  0
  2  3  1  0  0  0  0
  3 20  1  0  0  0  0
  4  5  1  0  0  0  0
  6  7  2  0  0  0  0
  6 12  1  0  0  0  0
  7  8  1  0  0  0  0
  8  9  2  0  0  0  0
  9 11  1  0  0  0  0
 10  5  1  1  0  0  0
 10 11  1  0  0  0  0
 10 16  1  0  0  0  0
 10 27  1  0  0  0  0
 11 12  2  0  0  0  0
 13 12  1  1  0  0  0
 13 15  1  0  0  0  0
 13 28  1  0  0  0  0
 14 15  2  0  0  0  0
 14 19  1  0  0  0  0
 15 16  1  0  0  0  0
 16 17  2  0  0  0  0
 17 18  1  0  0  0  0
 18 19  2  0  0  0  0
 20 21  1  0  0  0  0
 21 25  1  0  0  0  0
 22 26  2  0  0  0  0
 23 24  2  0  0  0  0
 24 25  1  0  0  0  0
 25 26  1  0  0  0  0
 27 26  1  1  0  0  0
 27 28  1  0  0  0  0
 28 24  1  1  0  0  0
M  END
>  <CHROM.1>
71.42812812,177.35704903,-165.85795394,179.20228050,117.93410993,39.43092587
24.82341887,25.77848931,-2.24123926,0.34275408,-0.05422235

>  <Name>
ligand

>  <RI>
0

>  <Rbt.Current_Directory>
/home/itssahil/PROJECTS/Mol_Feturizer/New_Systems/rnas/1YLS

>  <Rbt.Executable>
rbdock ($Id: //depot/dev/client3/rdock/2013.1/src/exe/rbdock.cxx#4 $)

>  <Rbt.Library>
libRbt.so (2013.1, Build901 2013/11/27)

>  <Rbt.Parameter_File>
/export/apps/rDock/src/rDock_2013.1_src/data/scripts/dock_solv.prm

>  <Rbt.Receptor>
prm/pocket_docking_7.prm

>  <SCORE>
-33.4703

>  <SCORE.INTER>
-30.8748

>  <SCORE.INTER.CONST>
1

>  <SCORE.INTER.POLAR>
0

>  <SCORE.INTER.ROT>
5

>  <SCORE.INTER.SOLV>
6.23625

>  <SCORE.INTER.VDW>
-29.5953

>  <SCORE.INTER.norm>
-1.10267

>  <SCORE.INTRA>
-2.59553

>  <SCORE.INTRA.DIHEDRAL>
-8.29965

>  <SCORE.INTRA.DIHEDRAL.0>
12.0148

>  <SCORE.INTRA.POLAR>
0

>  <SCORE.INTRA.POLAR.0>
0

>  <SCORE.INTRA.REPUL>
0

>  <SCORE.INTRA.REPUL.0>
0

>  <SCORE.INTRA.SOLV>
0.187591

>  <SCORE.INTRA.SOLV.lig_0>
-10.5235

>  <SCORE.INTRA.VDW>
1.4605

>  <SCORE.INTRA.VDW.0>
-1.38455

>  <SCORE.INTRA.norm>
-0.0926976

>  <SCORE.RESTR>
0

>  <SCORE.RESTR.CAVITY>
0

>  <SCORE.RESTR.norm>
0

>  <SCORE.SYSTEM>
0

>  <SCORE.SYSTEM.CONST>
0

>  <SCORE.SYSTEM.DIHEDRAL>
0

>  <SCORE.SYSTEM.SOLV>
0

>  <SCORE.SYSTEM.norm>
0

>  <SCORE.heavy>
28

>  <SCORE.norm>
-1.19537

>  <RMSD>
6.440

$$$$
ligand
 OpenBabel11021811413D
libRbt.so/2013.1/901 2013/11/27
 28 32  0  0  0  0  0  0  0  0999 V2000
   37.4164   18.8810   27.3239 C   0  0  0  0  0  0  0  0  0  0  0  0
   36.1709   19.3845   26.6217 C   0  0  0  0  0  0  0  0  0  0  0  0
   35.9827   20.8816   26.8167 C   0  0  0  0  0  0  0  0  0  0  0  0
   43.0443   25.4227   27.3115 O   0  0  0  0  0  0  0  0  0  0  0  0
   42.2374   24.5263   26.5457 C   0  0  0  0  0  0  0  0  0  0  0  0
   38.2708   27.4456   26.7829 C   0  0  0  0  0  0  0  0  0  0  0  0
   38.2723   27.3804   28.1704 C   0  0  0  0  0  0  0  0  0  0  0  0
   39.2345   26.6061   28.8236 C   0  0  0  0  0  0  0  0  0  0  0  0
   40.1938   25.9018   28.0951 C   0  0  0  0  0  0  0  0  0  0  0  0
   41.1228   25.2830   25.8117 C   0  0  1  0  0  0  0  0  0  0  0  0
   40.1885   26.0046   26.7236 C   0  0  0  0  0  0  0  0  0  0  0  0
   39.2400   26.7636   26.0860 C   0  0  0  0  0  0  0  0  0  0  0  0
   39.2968   26.7299   24.6370 C   0  0  1  0  0  0  0  0  0  0  0  0
   40.9508   28.0241   23.3027 C   0  0  0  0  0  0  0  0  0  0  0  0
   40.6534   27.0666   24.2425 C   0  0  0  0  0  0  0  0  0  0  0  0
   41.6319   26.3246   24.8477 C   0  0  0  0  0  0  0  0  0  0  0  0
   42.9624   26.5307   24.5138 C   0  0  0  0  0  0  0  0  0  0  0  0
   43.2818   27.5146   23.5756 C   0  0  0  0  0  0  0  0  0  0  0  0
   42.2758   28.2600   22.9750 C   0  0  0  0  0  0  0  0  0  0  0  0
   37.0203   21.6612   26.0194 C   0  0  0  0  0  0  0  0  0  0  0  0
   37.0919   23.1040   26.5051 C   0  0  0  0  0  0  0  0  0  0  0  0
   39.7888   22.6524   26.5189 O   0  0  0  0  0  0  0  0  0  0  0  0
   36.7779   25.1758   24.6083 O   0  0  0  0  0  0  0  0  0  0  0  0
   37.8731   24.7090   24.8739 C   0  0  0  0  0  0  0  0  0  0  0  0
   38.1076   23.7686   25.7040 N   0  0  0  0  0  0  0  0  0  0  0  0
   39.3363   23.5060   25.8009 C   0  0  0  0  0  0  0  0  0  0  0  0
   40.1922   24.3967   24.9689 C   0  0  1  0  0  0  0  0  0  0  0  0
   39.1252   25.2579   24.2880 C   0  0  2  0  0  0  0  0  0  0  0  0
  1  2  1  0  0  0  0
  2  3  1  0  0  0  0
  3 20  1  0  0  0  0
  4  5  1  0  0  0  0
  6  7  2  0  0  0  0
  6 12  1  0  0  0  0
  7  8  1  0  0  0  0
  8  9  2  0  0  0  0
  9 11  1  0  0  0  0
 10  5  1  1  0  0  0
 10 11  1  0  0  0  0
 10 16  1  0  0  0  0
 10 27  1  0  0  0  0
 11 12  2  0  0  0  0
 13 12  1  1  0  0  0
 13 15  1  0  0  0  0
 13 28  1  0  0  0  0
 14 15  2  0  0  0  0
 14 19  1  0  0  0  0
 15 16  1  0  0  0  0
 16 17  2  0  0  0  0
 17 18  1  0  0  0  0
 18 19  2  0  0  0  0
 20 21  1  0  0  0  0
 21 25  1  0  0  0  0
 22 26  2  0  0  0  0
 23 24  2  0  0  0  0
 24 25  1  0  0  0  0
 25 26  1  0  0  0  0
 27 26  1  1  0  0  0
 27 28  1  0  0  0  0
 28 24  1  1  0  0  0
M  END
>  <CHROM.1>
71.41224250,-60.54377692,-164.13581074,179.51993633,113.74438497,39.49518610
24.81516319,25.83612052,-2.20494910,-0.00937928,-0.29167046

>  <Name>
ligand

>  <RI>
0

>  <Rbt.Current_Directory>
/home/itssahil/PROJECTS/Mol_Feturizer/New_Systems/rnas/1YLS

>  <Rbt.Executable>
rbdock ($Id: //depot/dev/client3/rdock/2013.1/src/exe/rbdock.cxx#4 $)

>  <Rbt.Library>
libRbt.so (2013.1, Build901 2013/11/27)

>  <Rbt.Parameter_File>
/export/apps/rDock/src/rDock_2013.1_src/data/scripts/dock_solv.prm

>  <Rbt.Receptor>
prm/pocket_docking_6.prm

>  <SCORE>
-33.563

>  <SCORE.INTER>
-30.6441

>  <SCORE.INTER.CONST>
1

>  <SCORE.INTER.POLAR>
0

>  <SCORE.INTER.ROT>
5

>  <SCORE.INTER.SOLV>
6.21101

>  <SCORE.INTER.VDW>
-29.4331

>  <SCORE.INTER.norm>
-1.09443

>  <SCORE.INTRA>
-2.91889

>  <SCORE.INTRA.DIHEDRAL>
-8.16132

>  <SCORE.INTRA.DIHEDRAL.0>
12.0148

>  <SCORE.INTRA.POLAR>
0

>  <SCORE.INTRA.POLAR.0>
0

>  <SCORE.INTRA.REPUL>
0

>  <SCORE.INTRA.REPUL.0>
0

>  <SCORE.INTRA.SOLV>
-0.0276593

>  <SCORE.INTRA.SOLV.lig_0>
-10.5235

>  <SCORE.INTRA.VDW>
1.1756

>  <SCORE.INTRA.VDW.0>
-1.38455

>  <SCORE.INTRA.norm>
-0.104246

>  <SCORE.RESTR>
0

>  <SCORE.RESTR.CAVITY>
0

>  <SCORE.RESTR.norm>
0

>  <SCORE.SYSTEM>
0

>  <SCORE.SYSTEM.CONST>
0

>  <SCORE.SYSTEM.DIHEDRAL>
0

>  <SCORE.SYSTEM.SOLV>
0

>  <SCORE.SYSTEM.norm>
0

>  <SCORE.heavy>
28

>  <SCORE.norm>
-1.19868

>  <RMSD>
6.449

$$$$
ligand
 OpenBabel11021811413D
libRbt.so/2013.1/901 2013/11/27
 28 32  0  0  0  0  0  0  0  0999 V2000
   37.4136   18.8452   27.3004 C   0  0  0  0  0  0  0  0  0  0  0  0
   36.1710   19.3859   26.6212 C   0  0  0  0  0  0  0  0  0  0  0  0
   36.0110   20.8814   26.8510 C   0  0  0  0  0  0  0  0  0  0  0  0
   43.0371   23.7949   25.5944 O   0  0  0  0  0  0  0  0  0  0  0  0
   42.2228   24.5156   26.5210 C   0  0  0  0  0  0  0  0  0  0  0  0
   38.2720   27.4543   26.7808 C   0  0  0  0  0  0  0  0  0  0  0  0
   38.2765   27.3830   28.1679 C   0  0  0  0  0  0  0  0  0  0  0  0
   39.2362   26.6007   28.8154 C   0  0  0  0  0  0  0  0  0  0  0  0
   40.1901   25.8947   28.0814 C   0  0  0  0  0  0  0  0  0  0  0  0
   41.1105   25.2813   25.7930 C   0  0  1  0  0  0  0  0  0  0  0  0
   40.1821   26.0037   26.7105 C   0  0  0  0  0  0  0  0  0  0  0  0
   39.2359   26.7704   26.0785 C   0  0  0  0  0  0  0  0  0  0  0  0
   39.2892   26.7429   24.6293 C   0  0  1  0  0  0  0  0  0  0  0  0
   40.9466   28.0345   23.2967 C   0  0  0  0  0  0  0  0  0  0  0  0
   40.6466   27.0744   24.2330 C   0  0  0  0  0  0  0  0  0  0  0  0
   41.6226   26.3246   24.8325 C   0  0  0  0  0  0  0  0  0  0  0  0
   42.9533   26.5253   24.4963 C   0  0  0  0  0  0  0  0  0  0  0  0
   43.2757   27.5117   23.5617 C   0  0  0  0  0  0  0  0  0  0  0  0
   42.2720   28.2650   22.9669 C   0  0  0  0  0  0  0  0  0  0  0  0
   37.0429   21.6612   26.0466 C   0  0  0  0  0  0  0  0  0  0  0  0
   37.0700   23.1202   26.4864 C   0  0  0  0  0  0  0  0  0  0  0  0
   39.7645   22.6545   26.4917 O   0  0  0  0  0  0  0  0  0  0  0  0
   36.7622   25.2021   24.5996 O   0  0  0  0  0  0  0  0  0  0  0  0
   37.8556   24.7285   24.8605 C   0  0  0  0  0  0  0  0  0  0  0  0
   38.0871   23.7831   25.6858 N   0  0  0  0  0  0  0  0  0  0  0  0
   39.3147   23.5137   25.7786 C   0  0  0  0  0  0  0  0  0  0  0  0
   40.1732   24.4037   24.9485 C   0  0  1  0  0  0  0  0  0  0  0  0
   39.1091   25.2734   24.2741 C   0  0  2  0  0  0  0  0  0  0  0  0
  1  2  1  0  0  0  0
  2  3  1  0  0  0  0
  3 20  1  0  0  0  0
  4  5  1  0  0  0  0
  6  7  2  0  0  0  0
  6 12  1  0  0  0  0
  7  8  1  0  0  0  0
  8  9  2  0  0  0  0
  9 11  1  0  0  0  0
 10  5  1  1  0  0  0
 10 11  1  0  0  0  0
 10 16  1  0  0  0  0
 10 27  1  0  0  0  0
 11 12  2  0  0  0  0
 13 12  1  1  0  0  0
 13 15  1  0  0  0  0
 13 28  1  0  0  0  0
 14 15  2  0  0  0  0
 14 19  1  0  0  0  0
 15 16  1  0  0  0  0
 16 17  2  0  0  0  0
 17 18  1  0  0  0  0
 18 19  2  0  0  0  0
 20 21  1  0  0  0  0
 21 25  1  0  0  0  0
 22 26  2  0  0  0  0
 23 24  2  0  0  0  0
 24 25  1  0  0  0  0
 25 26  1  0  0  0  0
 27 26  1  1  0  0  0
 27 28  1  0  0  0  0
 28 24  1  1  0  0  0
M  END
>  <CHROM.1>
72.18857305,177.20512669,-168.58791174,179.25844445,116.75920075,39.48804620
24.74740929,25.75147080,-2.22920765,0.31019302,-0.08583242

>  <Name>
ligand

>  <RI>
0

>  <Rbt.Current_Directory>
/home/itssahil/PROJECTS/Mol_Feturizer/New_Systems/rnas/1YLS

>  <Rbt.Executable>
rbdock ($Id: //depot/dev/client3/rdock/2013.1/src/exe/rbdock.cxx#4 $)

>  <Rbt.Library>
libRbt.so (2013.1, Build901 2013/11/27)

>  <Rbt.Parameter_File>
/export/apps/rDock/src/rDock_2013.1_src/data/scripts/dock_solv.prm

>  <Rbt.Receptor>
prm/pocket_docking_5.prm

>  <SCORE>
-33.4969

>  <SCORE.INTER>
-30.6933

>  <SCORE.INTER.CONST>
1

>  <SCORE.INTER.POLAR>
0

>  <SCORE.INTER.ROT>
5

>  <SCORE.INTER.SOLV>
6.13797

>  <SCORE.INTER.VDW>
-29.4415

>  <SCORE.INTER.norm>
-1.09619

>  <SCORE.INTRA>
-2.80358

>  <SCORE.INTRA.DIHEDRAL>
-8.50955

>  <SCORE.INTRA.DIHEDRAL.0>
12.0148

>  <SCORE.INTRA.POLAR>
0

>  <SCORE.INTRA.POLAR.0>
0

>  <SCORE.INTRA.REPUL>
0

>  <SCORE.INTRA.REPUL.0>
0

>  <SCORE.INTRA.SOLV>
0.181127

>  <SCORE.INTRA.SOLV.lig_0>
-10.5235

>  <SCORE.INTRA.VDW>
1.36063

>  <SCORE.INTRA.VDW.0>
-1.38455

>  <SCORE.INTRA.norm>
-0.100128

>  <SCORE.RESTR>
0

>  <SCORE.RESTR.CAVITY>
0

>  <SCORE.RESTR.norm>
0

>  <SCORE.SYSTEM>
0

>  <SCORE.SYSTEM.CONST>
0

>  <SCORE.SYSTEM.DIHEDRAL>
0

>  <SCORE.SYSTEM.SOLV>
0

>  <SCORE.SYSTEM.norm>
0

>  <SCORE.heavy>
28

>  <SCORE.norm>
-1.19632

>  <RMSD>
6.452

$$$$
ligand
 OpenBabel11021811413D
libRbt.so/2013.1/901 2013/11/27
 28 32  0  0  0  0  0  0  0  0999 V2000
   37.2990   18.0817   27.6970 C   0  0  0  0  0  0  0  0  0  0  0  0
   37.0164   19.1254   26.6347 C   0  0  0  0  0  0  0  0  0  0  0  0
   37.0426   20.5337   27.2100 C   0  0  0  0  0  0  0  0  0  0  0  0
   43.1464   23.8920   25.6425 O   0  0  0  0  0  0  0  0  0  0  0  0
   42.3308   24.5978   26.5793 C   0  0  0  0  0  0  0  0  0  0  0  0
   38.2572   27.3569   26.9043 C   0  0  0  0  0  0  0  0  0  0  0  0
   38.2959   27.2988   28.2915 C   0  0  0  0  0  0  0  0  0  0  0  0
   39.3045   26.5669   28.9235 C   0  0  0  0  0  0  0  0  0  0  0  0
   40.2728   25.8980   28.1740 C   0  0  0  0  0  0  0  0  0  0  0  0
   41.1688   25.3056   25.8705 C   0  0  1  0  0  0  0  0  0  0  0  0
   40.2292   25.9937   26.8027 C   0  0  0  0  0  0  0  0  0  0  0  0
   39.2353   26.7109   26.1861 C   0  0  0  0  0  0  0  0  0  0  0  0
   39.2574   26.6722   24.7362 C   0  0  1  0  0  0  0  0  0  0  0  0
   40.8243   28.0250   23.3557 C   0  0  0  0  0  0  0  0  0  0  0  0
   40.5891   27.0611   24.3065 C   0  0  0  0  0  0  0  0  0  0  0  0
   41.6114   26.3619   24.8899 C   0  0  0  0  0  0  0  0  0  0  0  0
   42.9238   26.6195   24.5219 C   0  0  0  0  0  0  0  0  0  0  0  0
   43.1800   27.6107   23.5720 C   0  0  0  0  0  0  0  0  0  0  0  0
   42.1301   28.3122   22.9939 C   0  0  0  0  0  0  0  0  0  0  0  0
   37.1018   21.5683   26.0937 C   0  0  0  0  0  0  0  0  0  0  0  0
   37.2473   22.9703   26.6735 C   0  0  0  0  0  0  0  0  0  0  0  0
   39.9596   22.6271   26.6214 O   0  0  0  0  0  0  0  0  0  0  0  0
   36.8030   25.0184   24.7769 O   0  0  0  0  0  0  0  0  0  0  0  0
   37.9224   24.5972   25.0168 C   0  0  0  0  0  0  0  0  0  0  0  0
   38.2151   23.6710   25.8445 N   0  0  0  0  0  0  0  0  0  0  0  0
   39.4554   23.4584   25.9116 C   0  0  0  0  0  0  0  0  0  0  0  0
   40.2538   24.3785   25.0548 C   0  0  1  0  0  0  0  0  0  0  0  0
   39.1364   25.1928   24.3975 C   0  0  2  0  0  0  0  0  0  0  0  0
  1  2  1  0  0  0  0
  2  3  1  0  0  0  0
  3 20  1  0  0  0  0
  4  5  1  0  0  0  0
  6  7  2  0  0  0  0
  6 12  1  0  0  0  0
  7  8  1  0  0  0  0
  8  9  2  0  0  0  0
  9 11  1  0  0  0  0
 10  5  1  1  0  0  0
 10 11  1  0  0  0  0
 10 16  1  0  0  0  0
 10 27  1  0  0  0  0
 11 12  2  0  0  0  0
 13 12  1  1  0  0  0
 13 15  1  0  0  0  0
 13 28  1  0  0  0  0
 14 15  2  0  0  0  0
 14 19  1  0  0  0  0
 15 16  1  0  0  0  0
 16 17  2  0  0  0  0
 17 18  1  0  0  0  0
 18 19  2  0  0  0  0
 20 21  1  0  0  0  0
 21 25  1  0  0  0  0
 22 26  2  0  0  0  0
 23 24  2  0  0  0  0
 24 25  1  0  0  0  0
 25 26  1  0  0  0  0
 27 26  1  1  0  0  0
 27 28  1  0  0  0  0
 28 24  1  1  0  0  0
M  END
>  <CHROM.1>
166.01630428,176.46181052,-175.20155403,138.30927951,107.31649472,39.59137839
24.66490891,25.86826478,-2.14516748,0.35193072,-0.09882457

>  <Name>
ligand

>  <RI>
0

>  <Rbt.Current_Directory>
/home/itssahil/PROJECTS/Mol_Feturizer/New_Systems/rnas/1YLS

>  <Rbt.Executable>
rbdock ($Id: //depot/dev/client3/rdock/2013.1/src/exe/rbdock.cxx#4 $)

>  <Rbt.Library>
libRbt.so (2013.1, Build901 2013/11/27)

>  <Rbt.Parameter_File>
/export/apps/rDock/src/rDock_2013.1_src/data/scripts/dock_solv.prm

>  <Rbt.Receptor>
prm/pocket_docking_7.prm

>  <SCORE>
-30.0605

>  <SCORE.INTER>
-28.0163

>  <SCORE.INTER.CONST>
1

>  <SCORE.INTER.POLAR>
0

>  <SCORE.INTER.ROT>
5

>  <SCORE.INTER.SOLV>
5.70399

>  <SCORE.INTER.VDW>
-27.5122

>  <SCORE.INTER.norm>
-1.00058

>  <SCORE.INTRA>
-2.04421

>  <SCORE.INTRA.DIHEDRAL>
-4.48619

>  <SCORE.INTRA.DIHEDRAL.0>
12.0148

>  <SCORE.INTRA.POLAR>
0

>  <SCORE.INTRA.POLAR.0>
0

>  <SCORE.INTRA.REPUL>
0

>  <SCORE.INTRA.REPUL.0>
0

>  <SCORE.INTRA.SOLV>
0.255637

>  <SCORE.INTRA.SOLV.lig_0>
-10.5235

>  <SCORE.INTRA.VDW>
0.0710639

>  <SCORE.INTRA.VDW.0>
-1.38455

>  <SCORE.INTRA.norm>
-0.0730076

>  <SCORE.RESTR>
0

>  <SCORE.RESTR.CAVITY>
0

>  <SCORE.RESTR.norm>
0

>  <SCORE.SYSTEM>
0

>  <SCORE.SYSTEM.CONST>
0

>  <SCORE.SYSTEM.DIHEDRAL>
0

>  <SCORE.SYSTEM.SOLV>
0

>  <SCORE.SYSTEM.norm>
0

>  <SCORE.heavy>
28

>  <SCORE.norm>
-1.07359

>  <RMSD>
6.465

$$$$
ligand
 OpenBabel11021811413D
libRbt.so/2013.1/901 2013/11/27
 28 32  0  0  0  0  0  0  0  0999 V2000
   33.3781   22.8278   25.7272 C   0  0  0  0  0  0  0  0  0  0  0  0
   34.8042   22.6619   26.2138 C   0  0  0  0  0  0  0  0  0  0  0  0
   35.5558   23.9847   26.2115 C   0  0  0  0  0  0  0  0  0  0  0  0
   43.6568   24.1719   25.1594 O   0  0  0  0  0  0  0  0  0  0  0  0
   42.7370   24.7295   26.0997 C   0  0  0  0  0  0  0  0  0  0  0  0
   38.5097   27.2495   26.4015 C   0  0  0  0  0  0  0  0  0  0  0  0
   38.4849   27.0955   27.7817 C   0  0  0  0  0  0  0  0  0  0  0  0
   39.5000   26.3725   28.4135 C   0  0  0  0  0  0  0  0  0  0  0  0
   40.5379   25.8081   27.6710 C   0  0  0  0  0  0  0  0  0  0  0  0
   41.5739   25.4261   25.3818 C   0  0  1  0  0  0  0  0  0  0  0  0
   40.5550   25.9982   26.3090 C   0  0  0  0  0  0  0  0  0  0  0  0
   39.5546   26.7062   25.6923 C   0  0  0  0  0  0  0  0  0  0  0  0
   39.6482   26.7714   24.2463 C   0  0  1  0  0  0  0  0  0  0  0  0
   41.2042   28.2959   23.0438 C   0  0  0  0  0  0  0  0  0  0  0  0
   40.9760   27.2564   23.9133 C   0  0  0  0  0  0  0  0  0  0  0  0
   42.0054   26.5702   24.4996 C   0  0  0  0  0  0  0  0  0  0  0  0
   43.3181   26.9191   24.2182 C   0  0  0  0  0  0  0  0  0  0  0  0
   43.5657   27.9867   23.3526 C   0  0  0  0  0  0  0  0  0  0  0  0
   42.5085   28.6734   22.7703 C   0  0  0  0  0  0  0  0  0  0  0  0
   36.9767   23.7953   26.7267 C   0  0  0  0  0  0  0  0  0  0  0  0
   37.7501   22.8449   25.8204 C   0  0  0  0  0  0  0  0  0  0  0  0
   40.4763   22.6436   25.8850 O   0  0  0  0  0  0  0  0  0  0  0  0
   37.2875   24.9970   24.0474 O   0  0  0  0  0  0  0  0  0  0  0  0
   38.4152   24.6169   24.3155 C   0  0  0  0  0  0  0  0  0  0  0  0
   38.7173   23.6505   25.0921 N   0  0  0  0  0  0  0  0  0  0  0  0
   39.9626   23.4965   25.2084 C   0  0  0  0  0  0  0  0  0  0  0  0
   40.7504   24.5141   24.4587 C   0  0  1  0  0  0  0  0  0  0  0  0
   39.6236   25.3154   23.8017 C   0  0  2  0  0  0  0  0  0  0  0  0
  1  2  1  0  0  0  0
  2  3  1  0  0  0  0
  3 20  1  0  0  0  0
  4  5  1  0  0  0  0
  6  7  2  0  0  0  0
  6 12  1  0  0  0  0
  7  8  1  0  0  0  0
  8  9  2  0  0  0  0
  9 11  1  0  0  0  0
 10  5  1  1  0  0  0
 10 11  1  0  0  0  0
 10 16  1  0  0  0  0
 10 27  1  0  0  0  0
 11 12  2  0  0  0  0
 13 12  1  1  0  0  0
 13 15  1  0  0  0  0
 13 28  1  0  0  0  0
 14 15  2  0  0  0  0
 14 19  1  0  0  0  0
 15 16  1  0  0  0  0
 16 17  2  0  0  0  0
 17 18  1  0  0  0  0
 18 19  2  0  0  0  0
 20 21  1  0  0  0  0
 21 25  1  0  0  0  0
 22 26  2  0  0  0  0
 23 24  2  0  0  0  0
 24 25  1  0  0  0  0
 25 26  1  0  0  0  0
 27 26  1  1  0  0  0
 27 28  1  0  0  0  0
 28 24  1  1  0  0  0
M  END
>  <CHROM.1>
179.02468186,178.37896651,61.84302246,108.25055925,-59.95212369,39.62574118
25.27902084,25.31146267,2.62704365,-0.04389418,2.74861661

>  <Name>
ligand

>  <RI>
0

>  <Rbt.Current_Directory>
/home/itssahil/PROJECTS/Mol_Feturizer/New_Systems/rnas/1YLS

>  <Rbt.Executable>
rbdock ($Id: //depot/dev/client3/rdock/2013.1/src/exe/rbdock.cxx#4 $)

>  <Rbt.Library>
libRbt.so (2013.1, Build901 2013/11/27)

>  <Rbt.Parameter_File>
/export/apps/rDock/src/rDock_2013.1_src/data/scripts/dock_solv.prm

>  <Rbt.Receptor>
prm/pocket_docking_6.prm

>  <SCORE>
-29.6081

>  <SCORE.INTER>
-28.4376

>  <SCORE.INTER.CONST>
1

>  <SCORE.INTER.POLAR>
0

>  <SCORE.INTER.ROT>
5

>  <SCORE.INTER.SOLV>
7.60877

>  <SCORE.INTER.VDW>
-28.428

>  <SCORE.INTER.norm>
-1.01563

>  <SCORE.INTRA>
-1.17049

>  <SCORE.INTRA.DIHEDRAL>
-4.56397

>  <SCORE.INTRA.DIHEDRAL.0>
12.0148

>  <SCORE.INTRA.POLAR>
0

>  <SCORE.INTRA.POLAR.0>
0

>  <SCORE.INTRA.REPUL>
0

>  <SCORE.INTRA.REPUL.0>
0

>  <SCORE.INTRA.SOLV>
0.467333

>  <SCORE.INTRA.SOLV.lig_0>
-10.5235

>  <SCORE.INTRA.VDW>
0.877834

>  <SCORE.INTRA.VDW.0>
-1.38455

>  <SCORE.INTRA.norm>
-0.041803

>  <SCORE.RESTR>
0

>  <SCORE.RESTR.CAVITY>
0

>  <SCORE.RESTR.norm>
0

>  <SCORE.SYSTEM>
0

>  <SCORE.SYSTEM.CONST>
0

>  <SCORE.SYSTEM.DIHEDRAL>
0

>  <SCORE.SYSTEM.SOLV>
0

>  <SCORE.SYSTEM.norm>
0

>  <SCORE.heavy>
28

>  <SCORE.norm>
-1.05743

>  <RMSD>
6.477

$$$$
ligand
 OpenBabel11021811413D
libRbt.so/2013.1/901 2013/11/27
 28 32  0  0  0  0  0  0  0  0999 V2000
   33.0779   22.4463   25.7525 C   0  0  0  0  0  0  0  0  0  0  0  0
   34.3791   23.1282   25.3785 C   0  0  0  0  0  0  0  0  0  0  0  0
   35.2287   23.4278   26.6046 C   0  0  0  0  0  0  0  0  0  0  0  0
   43.2574   25.3830   26.8831 O   0  0  0  0  0  0  0  0  0  0  0  0
   42.5210   24.5666   25.9708 C   0  0  0  0  0  0  0  0  0  0  0  0
   38.4815   27.3769   26.2830 C   0  0  0  0  0  0  0  0  0  0  0  0
   38.4005   27.1557   27.6518 C   0  0  0  0  0  0  0  0  0  0  0  0
   39.3389   26.3281   28.2737 C   0  0  0  0  0  0  0  0  0  0  0  0
   40.3564   25.7258   27.5327 C   0  0  0  0  0  0  0  0  0  0  0  0
   41.4359   25.3834   25.2573 C   0  0  1  0  0  0  0  0  0  0  0  0
   40.4318   25.9825   26.1837 C   0  0  0  0  0  0  0  0  0  0  0  0
   39.5065   26.7934   25.5765 C   0  0  0  0  0  0  0  0  0  0  0  0
   39.6517   26.9242   24.1393 C   0  0  1  0  0  0  0  0  0  0  0  0
   41.3533   28.3869   23.0640 C   0  0  0  0  0  0  0  0  0  0  0  0
   41.0216   27.3249   23.8707 C   0  0  0  0  0  0  0  0  0  0  0  0
   41.9784   26.5351   24.4495 C   0  0  0  0  0  0  0  0  0  0  0  0
   43.3216   26.7987   24.2247 C   0  0  0  0  0  0  0  0  0  0  0  0
   43.6746   27.8871   23.4241 C   0  0  0  0  0  0  0  0  0  0  0  0
   42.6900   28.6794   22.8485 C   0  0  0  0  0  0  0  0  0  0  0  0
   36.5470   24.0741   26.1989 C   0  0  0  0  0  0  0  0  0  0  0  0
   37.4214   23.0761   25.4490 C   0  0  0  0  0  0  0  0  0  0  0  0
   40.1221   22.6688   25.5815 O   0  0  0  0  0  0  0  0  0  0  0  0
   37.1754   25.3434   23.7793 O   0  0  0  0  0  0  0  0  0  0  0  0
   38.2629   24.8671   24.0594 C   0  0  0  0  0  0  0  0  0  0  0  0
   38.4681   23.8429   24.7924 N   0  0  0  0  0  0  0  0  0  0  0  0
   39.6944   23.5907   24.9363 C   0  0  0  0  0  0  0  0  0  0  0  0
   40.5785   24.5831   24.2642 C   0  0  1  0  0  0  0  0  0  0  0  0
   39.5353   25.4984   23.6181 C   0  0  2  0  0  0  0  0  0  0  0  0
  1  2  1  0  0  0  0
  2  3  1  0  0  0  0
  3 20  1  0  0  0  0
  4  5  1  0  0  0  0
  6  7  2  0  0  0  0
  6 12  1  0  0  0  0
  7  8  1  0  0  0  0
  8  9  2  0  0  0  0
  9 11  1  0  0  0  0
 10  5  1  1  0  0  0
 10 11  1  0  0  0  0
 10 16  1  0  0  0  0
 10 27  1  0  0  0  0
 11 12  2  0  0  0  0
 13 12  1  1  0  0  0
 13 15  1  0  0  0  0
 13 28  1  0  0  0  0
 14 15  2  0  0  0  0
 14 19  1  0  0  0  0
 15 16  1  0  0  0  0
 16 17  2  0  0  0  0
 17 18  1  0  0  0  0
 18 19  2  0  0  0  0
 20 21  1  0  0  0  0
 21 25  1  0  0  0  0
 22 26  2  0  0  0  0
 23 24  2  0  0  0  0
 24 25  1  0  0  0  0
 25 26  1  0  0  0  0
 27 26  1  1  0  0  0
 27 28  1  0  0  0  0
 28 24  1  1  0  0  0
M  END
>  <CHROM.1>
178.30714847,-60.41768712,-68.01204696,164.87354877,-50.69283394,39.46715854
25.37533659,25.23401152,2.72113077,0.27671411,2.25375253

>  <Name>
ligand

>  <RI>
0

>  <Rbt.Current_Directory>
/home/itssahil/PROJECTS/Mol_Feturizer/New_Systems/rnas/1YLS

>  <Rbt.Executable>
rbdock ($Id: //depot/dev/client3/rdock/2013.1/src/exe/rbdock.cxx#4 $)

>  <Rbt.Library>
libRbt.so (2013.1, Build901 2013/11/27)

>  <Rbt.Parameter_File>
/export/apps/rDock/src/rDock_2013.1_src/data/scripts/dock_solv.prm

>  <Rbt.Receptor>
prm/pocket_docking_4.prm

>  <SCORE>
-30.2229

>  <SCORE.INTER>
-27.2385

>  <SCORE.INTER.CONST>
1

>  <SCORE.INTER.POLAR>
0

>  <SCORE.INTER.ROT>
5

>  <SCORE.INTER.SOLV>
8.39618

>  <SCORE.INTER.VDW>
-27.8911

>  <SCORE.INTER.norm>
-0.972805

>  <SCORE.INTRA>
-2.98439

>  <SCORE.INTRA.DIHEDRAL>
-8.59033

>  <SCORE.INTRA.DIHEDRAL.0>
12.0148

>  <SCORE.INTRA.POLAR>
0

>  <SCORE.INTRA.POLAR.0>
0

>  <SCORE.INTRA.REPUL>
0

>  <SCORE.INTRA.REPUL.0>
0

>  <SCORE.INTRA.SOLV>
0.122414

>  <SCORE.INTRA.SOLV.lig_0>
-10.5235

>  <SCORE.INTRA.VDW>
1.24957

>  <SCORE.INTRA.VDW.0>
-1.38455

>  <SCORE.INTRA.norm>
-0.106585

>  <SCORE.RESTR>
0

>  <SCORE.RESTR.CAVITY>
0

>  <SCORE.RESTR.norm>
0

>  <SCORE.SYSTEM>
0

>  <SCORE.SYSTEM.CONST>
0

>  <SCORE.SYSTEM.DIHEDRAL>
0

>  <SCORE.SYSTEM.SOLV>
0

>  <SCORE.SYSTEM.norm>
0

>  <SCORE.heavy>
28

>  <SCORE.norm>
-1.07939

>  <RMSD>
6.497

$$$$
ligand
 OpenBabel11021811413D
libRbt.so/2013.1/901 2013/11/27
 28 32  0  0  0  0  0  0  0  0999 V2000
   33.0752   22.5027   25.8126 C   0  0  0  0  0  0  0  0  0  0  0  0
   34.3879   23.1468   25.4127 C   0  0  0  0  0  0  0  0  0  0  0  0
   35.2622   23.4382   26.6233 C   0  0  0  0  0  0  0  0  0  0  0  0
   43.2130   25.4558   27.0500 O   0  0  0  0  0  0  0  0  0  0  0  0
   42.5364   24.6025   26.1253 C   0  0  0  0  0  0  0  0  0  0  0  0
   38.4743   27.3971   26.1753 C   0  0  0  0  0  0  0  0  0  0  0  0
   38.3477   27.2359   27.5491 C   0  0  0  0  0  0  0  0  0  0  0  0
   39.2685   26.4427   28.2385 C   0  0  0  0  0  0  0  0  0  0  0  0
   40.3138   25.8152   27.5599 C   0  0  0  0  0  0  0  0  0  0  0  0
   41.4722   25.3799   25.3399 C   0  0  1  0  0  0  0  0  0  0  0  0
   40.4339   26.0126   26.2042 C   0  0  0  0  0  0  0  0  0  0  0  0
   39.5258   26.7898   25.5307 C   0  0  0  0  0  0  0  0  0  0  0  0
   39.7194   26.8581   24.0947 C   0  0  1  0  0  0  0  0  0  0  0  0
   41.4494   28.2832   23.0142 C   0  0  0  0  0  0  0  0  0  0  0  0
   41.0957   27.2556   23.8553 C   0  0  0  0  0  0  0  0  0  0  0  0
   42.0361   26.4984   24.5007 C   0  0  0  0  0  0  0  0  0  0  0  0
   43.3848   26.7608   24.3102 C   0  0  0  0  0  0  0  0  0  0  0  0
   43.7595   27.8151   23.4746 C   0  0  0  0  0  0  0  0  0  0  0  0
   42.7911   28.5747   22.8314 C   0  0  0  0  0  0  0  0  0  0  0  0
   36.5758   24.0793   26.1945 C   0  0  0  0  0  0  0  0  0  0  0  0
   37.4653   23.0568   25.4972 C   0  0  0  0  0  0  0  0  0  0  0  0
   40.1619   22.6737   25.7392 O   0  0  0  0  0  0  0  0  0  0  0  0
   37.2650   25.2466   23.7213 O   0  0  0  0  0  0  0  0  0  0  0  0
   38.3447   24.7904   24.0590 C   0  0  0  0  0  0  0  0  0  0  0  0
   38.5300   23.8008   24.8431 N   0  0  0  0  0  0  0  0  0  0  0  0
   39.7519   23.5633   25.0396 C   0  0  0  0  0  0  0  0  0  0  0  0
   40.6533   24.5310   24.3546 C   0  0  1  0  0  0  0  0  0  0  0  0
   39.6282   25.4100   23.6336 C   0  0  2  0  0  0  0  0  0  0  0  0
  1  2  1  0  0  0  0
  2  3  1  0  0  0  0
  3 20  1  0  0  0  0
  4  5  1  0  0  0  0
  6  7  2  0  0  0  0
  6 12  1  0  0  0  0
  7  8  1  0  0  0  0
  8  9  2  0  0  0  0
  9 11  1  0  0  0  0
 10  5  1  1  0  0  0
 10 11  1  0  0  0  0
 10 16  1  0  0  0  0
 10 27  1  0  0  0  0
 11 12  2  0  0  0  0
 13 12  1  1  0  0  0
 13 15  1  0  0  0  0
 13 28  1  0  0  0  0
 14 15  2  0  0  0  0
 14 19  1  0  0  0  0
 15 16  1  0  0  0  0
 16 17  2  0  0  0  0
 17 18  1  0  0  0  0
 18 19  2  0  0  0  0
 20 21  1  0  0  0  0
 21 25  1  0  0  0  0
 22 26  2  0  0  0  0
 23 24  2  0  0  0  0
 24 25  1  0  0  0  0
 25 26  1  0  0  0  0
 27 26  1  1  0  0  0
 27 28  1  0  0  0  0
 28 24  1  1  0  0  0
M  END
>  <CHROM.1>
179.77997456,-58.89433668,-71.35307380,166.50401171,-51.75946961,39.50291000
25.36321318,25.26338507,2.73887407,0.28979928,2.20787493

>  <Name>
ligand

>  <RI>
0

>  <Rbt.Current_Directory>
/home/itssahil/PROJECTS/Mol_Feturizer/New_Systems/rnas/1YLS

>  <Rbt.Executable>
rbdock ($Id: //depot/dev/client3/rdock/2013.1/src/exe/rbdock.cxx#4 $)

>  <Rbt.Library>
libRbt.so (2013.1, Build901 2013/11/27)

>  <Rbt.Parameter_File>
/export/apps/rDock/src/rDock_2013.1_src/data/scripts/dock_solv.prm

>  <Rbt.Receptor>
prm/pocket_docking_7.prm

>  <SCORE>
-30.1789

>  <SCORE.INTER>
-27.0067

>  <SCORE.INTER.CONST>
1

>  <SCORE.INTER.POLAR>
0

>  <SCORE.INTER.ROT>
5

>  <SCORE.INTER.SOLV>
8.25769

>  <SCORE.INTER.VDW>
-27.6903

>  <SCORE.INTER.norm>
-0.964524

>  <SCORE.INTRA>
-3.17224

>  <SCORE.INTRA.DIHEDRAL>
-8.48316

>  <SCORE.INTRA.DIHEDRAL.0>
12.0148

>  <SCORE.INTRA.POLAR>
0

>  <SCORE.INTRA.POLAR.0>
0

>  <SCORE.INTRA.REPUL>
0

>  <SCORE.INTRA.REPUL.0>
0

>  <SCORE.INTRA.SOLV>
0.11282

>  <SCORE.INTRA.SOLV.lig_0>
-10.5235

>  <SCORE.INTRA.VDW>
1.01292

>  <SCORE.INTRA.VDW.0>
-1.38455

>  <SCORE.INTRA.norm>
-0.113294

>  <SCORE.RESTR>
0

>  <SCORE.RESTR.CAVITY>
0

>  <SCORE.RESTR.norm>
0

>  <SCORE.SYSTEM>
0

>  <SCORE.SYSTEM.CONST>
0

>  <SCORE.SYSTEM.DIHEDRAL>
0

>  <SCORE.SYSTEM.SOLV>
0

>  <SCORE.SYSTEM.norm>
0

>  <SCORE.heavy>
28

>  <SCORE.norm>
-1.07782

>  <RMSD>
6.505

$$$$
ligand
 OpenBabel11021811413D
libRbt.so/2013.1/901 2013/11/27
 28 32  0  0  0  0  0  0  0  0999 V2000
   31.6710   23.9677   24.2018 C   0  0  0  0  0  0  0  0  0  0  0  0
   32.2378   22.8039   24.9905 C   0  0  0  0  0  0  0  0  0  0  0  0
   33.3166   23.2570   25.9631 C   0  0  0  0  0  0  0  0  0  0  0  0
   42.0404   23.9403   26.2615 O   0  0  0  0  0  0  0  0  0  0  0  0
   40.8553   23.6756   25.5089 C   0  0  0  0  0  0  0  0  0  0  0  0
   38.4411   27.5853   27.2972 C   0  0  0  0  0  0  0  0  0  0  0  0
   38.5452   27.0917   28.5913 C   0  0  0  0  0  0  0  0  0  0  0  0
   39.1702   25.8617   28.8123 C   0  0  0  0  0  0  0  0  0  0  0  0
   39.6924   25.1285   27.7461 C   0  0  0  0  0  0  0  0  0  0  0  0
   40.0770   24.9697   25.2388 C   0  0  1  0  0  0  0  0  0  0  0  0
   39.6015   25.6516   26.4775 C   0  0  0  0  0  0  0  0  0  0  0  0
   38.9842   26.8583   26.2645 C   0  0  0  0  0  0  0  0  0  0  0  0
   38.8878   27.2635   24.8751 C   0  0  1  0  0  0  0  0  0  0  0  0
   40.7912   28.2307   23.5972 C   0  0  0  0  0  0  0  0  0  0  0  0
   40.2221   27.1993   24.3050 C   0  0  0  0  0  0  0  0  0  0  0  0
   40.8705   26.0071   24.4854 C   0  0  0  0  0  0  0  0  0  0  0  0
   42.1340   25.8183   23.9450 C   0  0  0  0  0  0  0  0  0  0  0  0
   42.7339   26.8644   23.2408 C   0  0  0  0  0  0  0  0  0  0  0  0
   42.0622   28.0680   23.0713 C   0  0  0  0  0  0  0  0  0  0  0  0
   34.5532   23.7302   25.2102 C   0  0  0  0  0  0  0  0  0  0  0  0
   35.5933   24.2743   26.1824 C   0  0  0  0  0  0  0  0  0  0  0  0
   37.8684   22.9097   25.5196 O   0  0  0  0  0  0  0  0  0  0  0  0
   35.9656   26.8048   24.9795 O   0  0  0  0  0  0  0  0  0  0  0  0
   36.7996   25.9197   24.8844 C   0  0  0  0  0  0  0  0  0  0  0  0
   36.7114   24.7479   25.3820 N   0  0  0  0  0  0  0  0  0  0  0  0
   37.7335   24.0478   25.1513 C   0  0  0  0  0  0  0  0  0  0  0  0
   38.7943   24.7872   24.4122 C   0  0  1  0  0  0  0  0  0  0  0  0
   38.1063   26.1395   24.2089 C   0  0  2  0  0  0  0  0  0  0  0  0
  1  2  1  0  0  0  0
  2  3  1  0  0  0  0
  3 20  1  0  0  0  0
  4  5  1  0  0  0  0
  6  7  2  0  0  0  0
  6 12  1  0  0  0  0
  7  8  1  0  0  0  0
  8  9  2  0  0  0  0
  9 11  1  0  0  0  0
 10  5  1  1  0  0  0
 10 11  1  0  0  0  0
 10 16  1  0  0  0  0
 10 27  1  0  0  0  0
 11 12  2  0  0  0  0
 13 12  1  1  0  0  0
 13 15  1  0  0  0  0
 13 28  1  0  0  0  0
 14 15  2  0  0  0  0
 14 19  1  0  0  0  0
 15 16  1  0  0  0  0
 16 17  2  0  0  0  0
 17 18  1  0  0  0  0
 18 19  2  0  0  0  0
 20 21  1  0  0  0  0
 21 25  1  0  0  0  0
 22 26  2  0  0  0  0
 23 24  2  0  0  0  0
 24 25  1  0  0  0  0
 25 26  1  0  0  0  0
 27 26  1  1  0  0  0
 27 28  1  0  0  0  0
 28 24  1  1  0  0  0
M  END
>  <CHROM.1>
-68.26395332,-62.04829240,176.03202292,-177.87073828,87.23117156,38.23498893
25.39024570,25.38039486,2.92322521,0.24962642,2.14211931

>  <Name>
ligand

>  <RI>
0

>  <Rbt.Current_Directory>
/home/itssahil/PROJECTS/Mol_Feturizer/New_Systems/rnas/1YLS

>  <Rbt.Executable>
rbdock ($Id: //depot/dev/client3/rdock/2013.1/src/exe/rbdock.cxx#4 $)

>  <Rbt.Library>
libRbt.so (2013.1, Build901 2013/11/27)

>  <Rbt.Parameter_File>
/export/apps/rDock/src/rDock_2013.1_src/data/scripts/dock_solv.prm

>  <Rbt.Receptor>
prm/pocket_docking_6.prm

>  <SCORE>
-29.6946

>  <SCORE.INTER>
-25.9354

>  <SCORE.INTER.CONST>
1

>  <SCORE.INTER.POLAR>
0

>  <SCORE.INTER.ROT>
5

>  <SCORE.INTER.SOLV>
6.13327

>  <SCORE.INTER.VDW>
-26.268

>  <SCORE.INTER.norm>
-0.926263

>  <SCORE.INTRA>
-3.75928

>  <SCORE.INTRA.DIHEDRAL>
-9.42627

>  <SCORE.INTRA.DIHEDRAL.0>
12.0148

>  <SCORE.INTRA.POLAR>
0

>  <SCORE.INTRA.POLAR.0>
0

>  <SCORE.INTRA.REPUL>
0

>  <SCORE.INTRA.REPUL.0>
0

>  <SCORE.INTRA.SOLV>
-0.0690974

>  <SCORE.INTRA.SOLV.lig_0>
-10.5235

>  <SCORE.INTRA.VDW>
0.988408

>  <SCORE.INTRA.VDW.0>
-1.38455

>  <SCORE.INTRA.norm>
-0.13426

>  <SCORE.RESTR>
0

>  <SCORE.RESTR.CAVITY>
0

>  <SCORE.RESTR.norm>
0

>  <SCORE.SYSTEM>
0

>  <SCORE.SYSTEM.CONST>
0

>  <SCORE.SYSTEM.DIHEDRAL>
0

>  <SCORE.SYSTEM.SOLV>
0

>  <SCORE.SYSTEM.norm>
0

>  <SCORE.heavy>
28

>  <SCORE.norm>
-1.06052

>  <RMSD>
6.536

$$$$
ligand
 OpenBabel11021811413D
libRbt.so/2013.1/901 2013/11/27
 28 32  0  0  0  0  0  0  0  0999 V2000
   31.5745   23.8105   24.4221 C   0  0  0  0  0  0  0  0  0  0  0  0
   32.2447   22.6537   25.1367 C   0  0  0  0  0  0  0  0  0  0  0  0
   33.3241   23.1350   26.0948 C   0  0  0  0  0  0  0  0  0  0  0  0
   42.0100   23.9195   26.2359 O   0  0  0  0  0  0  0  0  0  0  0  0
   40.8219   23.6694   25.4828 C   0  0  0  0  0  0  0  0  0  0  0  0
   38.4253   27.5192   27.4185 C   0  0  0  0  0  0  0  0  0  0  0  0
   38.5610   26.9950   28.6976 C   0  0  0  0  0  0  0  0  0  0  0  0
   39.1979   25.7641   28.8748 C   0  0  0  0  0  0  0  0  0  0  0  0
   39.7006   25.0603   27.7798 C   0  0  0  0  0  0  0  0  0  0  0  0
   40.0303   24.9647   25.2615 C   0  0  1  0  0  0  0  0  0  0  0  0
   39.5785   25.6134   26.5266 C   0  0  0  0  0  0  0  0  0  0  0  0
   38.9496   26.8209   26.3567 C   0  0  0  0  0  0  0  0  0  0  0  0
   38.8200   27.2590   24.9800 C   0  0  1  0  0  0  0  0  0  0  0  0
   40.6888   28.2689   23.6844 C   0  0  0  0  0  0  0  0  0  0  0  0
   40.1416   27.2171   24.3793 C   0  0  0  0  0  0  0  0  0  0  0  0
   40.8008   26.0250   24.5163 C   0  0  0  0  0  0  0  0  0  0  0  0
   42.0531   25.8574   23.9437 C   0  0  0  0  0  0  0  0  0  0  0  0
   42.6311   26.9241   23.2521 C   0  0  0  0  0  0  0  0  0  0  0  0
   41.9488   28.1272   23.1268 C   0  0  0  0  0  0  0  0  0  0  0  0
   34.5255   23.6683   25.3253 C   0  0  0  0  0  0  0  0  0  0  0  0
   35.5729   24.2180   26.2865 C   0  0  0  0  0  0  0  0  0  0  0  0
   37.8406   22.8845   25.5407 O   0  0  0  0  0  0  0  0  0  0  0  0
   35.9035   26.7793   25.1377 O   0  0  0  0  0  0  0  0  0  0  0  0
   36.7403   25.9020   25.0026 C   0  0  0  0  0  0  0  0  0  0  0  0
   36.6701   24.7180   25.4734 N   0  0  0  0  0  0  0  0  0  0  0  0
   37.6909   24.0303   25.2033 C   0  0  0  0  0  0  0  0  0  0  0  0
   38.7306   24.7940   24.4592 C   0  0  1  0  0  0  0  0  0  0  0  0
   38.0304   26.1465   24.3040 C   0  0  2  0  0  0  0  0  0  0  0  0
  1  2  1  0  0  0  0
  2  3  1  0  0  0  0
  3 20  1  0  0  0  0
  4  5  1  0  0  0  0
  6  7  2  0  0  0  0
  6 12  1  0  0  0  0
  7  8  1  0  0  0  0
  8  9  2  0  0  0  0
  9 11  1  0  0  0  0
 10  5  1  1  0  0  0
 10 11  1  0  0  0  0
 10 16  1  0  0  0  0
 10 27  1  0  0  0  0
 11 12  2  0  0  0  0
 13 12  1  1  0  0  0
 13 15  1  0  0  0  0
 13 28  1  0  0  0  0
 14 15  2  0  0  0  0
 14 19  1  0  0  0  0
 15 16  1  0  0  0  0
 16 17  2  0  0  0  0
 17 18  1  0  0  0  0
 18 19  2  0  0  0  0
 20 21  1  0  0  0  0
 21 25  1  0  0  0  0
 22 26  2  0  0  0  0
 23 24  2  0  0  0  0
 24 25  1  0  0  0  0
 25 26  1  0  0  0  0
 27 26  1  1  0  0  0
 27 28  1  0  0  0  0
 28 24  1  1  0  0  0
M  END
>  <CHROM.1>
-70.76032215,-61.01317100,176.96845494,-179.30723309,88.22097771,38.19066473
25.35770934,25.45647342,2.89595471,0.25087453,2.16844784

>  <Name>
ligand

>  <RI>
0

>  <Rbt.Current_Directory>
/home/itssahil/PROJECTS/Mol_Feturizer/New_Systems/rnas/1YLS

>  <Rbt.Executable>
rbdock ($Id: //depot/dev/client3/rdock/2013.1/src/exe/rbdock.cxx#4 $)

>  <Rbt.Library>
libRbt.so (2013.1, Build901 2013/11/27)

>  <Rbt.Parameter_File>
/export/apps/rDock/src/rDock_2013.1_src/data/scripts/dock_solv.prm

>  <Rbt.Receptor>
prm/pocket_docking_5.prm

>  <SCORE>
-29.7898

>  <SCORE.INTER>
-25.9925

>  <SCORE.INTER.CONST>
1

>  <SCORE.INTER.POLAR>
0

>  <SCORE.INTER.ROT>
5

>  <SCORE.INTER.SOLV>
6.10074

>  <SCORE.INTER.VDW>
-26.2952

>  <SCORE.INTER.norm>
-0.928302

>  <SCORE.INTRA>
-3.79739

>  <SCORE.INTRA.DIHEDRAL>
-9.28648

>  <SCORE.INTRA.DIHEDRAL.0>
12.0148

>  <SCORE.INTRA.POLAR>
0

>  <SCORE.INTRA.POLAR.0>
0

>  <SCORE.INTRA.REPUL>
0

>  <SCORE.INTRA.REPUL.0>
0

>  <SCORE.INTRA.SOLV>
-0.0692393

>  <SCORE.INTRA.SOLV.lig_0>
-10.5235

>  <SCORE.INTRA.VDW>
0.880473

>  <SCORE.INTRA.VDW.0>
-1.38455

>  <SCORE.INTRA.norm>
-0.135621

>  <SCORE.RESTR>
0

>  <SCORE.RESTR.CAVITY>
0

>  <SCORE.RESTR.norm>
0

>  <SCORE.SYSTEM>
0

>  <SCORE.SYSTEM.CONST>
0

>  <SCORE.SYSTEM.DIHEDRAL>
0

>  <SCORE.SYSTEM.SOLV>
0

>  <SCORE.SYSTEM.norm>
0

>  <SCORE.heavy>
28

>  <SCORE.norm>
-1.06392

>  <RMSD>
6.541

$$$$
ligand
 OpenBabel11021811413D
libRbt.so/2013.1/901 2013/11/27
 28 32  0  0  0  0  0  0  0  0999 V2000
   32.6218   21.9356   25.9707 C   0  0  0  0  0  0  0  0  0  0  0  0
   34.0025   22.5025   25.7061 C   0  0  0  0  0  0  0  0  0  0  0  0
   35.0965   21.5846   26.2311 C   0  0  0  0  0  0  0  0  0  0  0  0
   42.7473   23.7008   25.1976 O   0  0  0  0  0  0  0  0  0  0  0  0
   42.0746   24.3949   26.2497 C   0  0  0  0  0  0  0  0  0  0  0  0
   38.3828   27.5492   27.1061 C   0  0  0  0  0  0  0  0  0  0  0  0
   38.4865   27.3409   28.4754 C   0  0  0  0  0  0  0  0  0  0  0  0
   39.4318   26.4365   28.9661 C   0  0  0  0  0  0  0  0  0  0  0  0
   40.2728   25.7448   28.0935 C   0  0  0  0  0  0  0  0  0  0  0  0
   40.9703   25.3010   25.6901 C   0  0  1  0  0  0  0  0  0  0  0  0
   40.1696   25.9891   26.7441 C   0  0  0  0  0  0  0  0  0  0  0  0
   39.2379   26.8757   26.2663 C   0  0  0  0  0  0  0  0  0  0  0  0
   39.1796   26.9881   24.8213 C   0  0  1  0  0  0  0  0  0  0  0  0
   40.8230   28.2923   23.4836 C   0  0  0  0  0  0  0  0  0  0  0  0
   40.5241   27.2664   24.3476 C   0  0  0  0  0  0  0  0  0  0  0  0
   41.4844   26.3978   24.7924 C   0  0  0  0  0  0  0  0  0  0  0  0
   42.7972   26.5421   24.3683 C   0  0  0  0  0  0  0  0  0  0  0  0
   43.1203   27.5925   23.5065 C   0  0  0  0  0  0  0  0  0  0  0  0
   42.1332   28.4658   23.0690 C   0  0  0  0  0  0  0  0  0  0  0  0
   36.4674   22.0707   25.7790 C   0  0  0  0  0  0  0  0  0  0  0  0
   36.8448   23.3548   26.5082 C   0  0  0  0  0  0  0  0  0  0  0  0
   39.4902   22.7131   26.2488 O   0  0  0  0  0  0  0  0  0  0  0  0
   36.5505   25.6289   24.8556 O   0  0  0  0  0  0  0  0  0  0  0  0
   37.6225   25.0603   24.9805 C   0  0  0  0  0  0  0  0  0  0  0  0
   37.8449   24.0246   25.6922 N   0  0  0  0  0  0  0  0  0  0  0  0
   39.0527   23.6666   25.6583 C   0  0  0  0  0  0  0  0  0  0  0  0
   39.9097   24.5753   24.8472 C   0  0  1  0  0  0  0  0  0  0  0  0
   38.8651   25.5761   24.3466 C   0  0  2  0  0  0  0  0  0  0  0  0
  1  2  1  0  0  0  0
  2  3  1  0  0  0  0
  3 20  1  0  0  0  0
  4  5  1  0  0  0  0
  6  7  2  0  0  0  0
  6 12  1  0  0  0  0
  7  8  1  0  0  0  0
  8  9  2  0  0  0  0
  9 11  1  0  0  0  0
 10  5  1  1  0  0  0
 10 11  1  0  0  0  0
 10 16  1  0  0  0  0
 10 27  1  0  0  0  0
 11 12  2  0  0  0  0
 13 12  1  1  0  0  0
 13 15  1  0  0  0  0
 13 28  1  0  0  0  0
 14 15  2  0  0  0  0
 14 19  1  0  0  0  0
 15 16  1  0  0  0  0
 16 17  2  0  0  0  0
 17 18  1  0  0  0  0
 18 19  2  0  0  0  0
 20 21  1  0  0  0  0
 21 25  1  0  0  0  0
 22 26  2  0  0  0  0
 23 24  2  0  0  0  0
 24 25  1  0  0  0  0
 25 26  1  0  0  0  0
 27 26  1  1  0  0  0
 27 28  1  0  0  0  0
 28 24  1  1  0  0  0
M  END
>  <CHROM.1>
171.81172549,176.28628822,70.79853309,-157.96781903,105.40805633,39.04312221
25.13024807,25.64348237,2.58266137,-0.17563291,3.11995344

>  <Name>
ligand

>  <RI>
0

>  <Rbt.Current_Directory>
/home/itssahil/PROJECTS/Mol_Feturizer/New_Systems/rnas/1YLS

>  <Rbt.Executable>
rbdock ($Id: //depot/dev/client3/rdock/2013.1/src/exe/rbdock.cxx#4 $)

>  <Rbt.Library>
libRbt.so (2013.1, Build901 2013/11/27)

>  <Rbt.Parameter_File>
/export/apps/rDock/src/rDock_2013.1_src/data/scripts/dock_solv.prm

>  <Rbt.Receptor>
prm/pocket_docking_7.prm

>  <SCORE>
-33.6937

>  <SCORE.INTER>
-30.8504

>  <SCORE.INTER.CONST>
1

>  <SCORE.INTER.POLAR>
0

>  <SCORE.INTER.ROT>
5

>  <SCORE.INTER.SOLV>
6.48763

>  <SCORE.INTER.VDW>
-29.6628

>  <SCORE.INTER.norm>
-1.1018

>  <SCORE.INTRA>
-2.84336

>  <SCORE.INTRA.DIHEDRAL>
-7.32718

>  <SCORE.INTRA.DIHEDRAL.0>
12.0148

>  <SCORE.INTRA.POLAR>
0

>  <SCORE.INTRA.POLAR.0>
0

>  <SCORE.INTRA.REPUL>
0

>  <SCORE.INTRA.REPUL.0>
0

>  <SCORE.INTRA.SOLV>
0.260395

>  <SCORE.INTRA.SOLV.lig_0>
-10.5235

>  <SCORE.INTRA.VDW>
0.690035

>  <SCORE.INTRA.VDW.0>
-1.38455

>  <SCORE.INTRA.norm>
-0.101548

>  <SCORE.RESTR>
0

>  <SCORE.RESTR.CAVITY>
0

>  <SCORE.RESTR.norm>
0

>  <SCORE.SYSTEM>
0

>  <SCORE.SYSTEM.CONST>
0

>  <SCORE.SYSTEM.DIHEDRAL>
0

>  <SCORE.SYSTEM.SOLV>
0

>  <SCORE.SYSTEM.norm>
0

>  <SCORE.heavy>
28

>  <SCORE.norm>
-1.20335

>  <RMSD>
6.548

$$$$
ligand
 OpenBabel11021811413D
libRbt.so/2013.1/901 2013/11/27
 28 32  0  0  0  0  0  0  0  0999 V2000
   32.5806   21.9212   25.9835 C   0  0  0  0  0  0  0  0  0  0  0  0
   33.9632   22.4919   25.7373 C   0  0  0  0  0  0  0  0  0  0  0  0
   35.0539   21.5576   26.2396 C   0  0  0  0  0  0  0  0  0  0  0  0
   42.9799   25.0951   27.1472 O   0  0  0  0  0  0  0  0  0  0  0  0
   42.0608   24.3255   26.3701 C   0  0  0  0  0  0  0  0  0  0  0  0
   38.3595   27.5123   27.0459 C   0  0  0  0  0  0  0  0  0  0  0  0
   38.4243   27.3374   28.4223 C   0  0  0  0  0  0  0  0  0  0  0  0
   39.3520   26.4421   28.9611 C   0  0  0  0  0  0  0  0  0  0  0  0
   40.2141   25.7264   28.1295 C   0  0  0  0  0  0  0  0  0  0  0  0
   40.9761   25.2213   25.7580 C   0  0  1  0  0  0  0  0  0  0  0  0
   40.1493   25.9378   26.7721 C   0  0  0  0  0  0  0  0  0  0  0  0
   39.2348   26.8155   26.2470 C   0  0  0  0  0  0  0  0  0  0  0  0
   39.2172   26.8926   24.7987 C   0  0  1  0  0  0  0  0  0  0  0  0
   40.9023   28.1580   23.4757 C   0  0  0  0  0  0  0  0  0  0  0  0
   40.5754   27.1545   24.3559 C   0  0  0  0  0  0  0  0  0  0  0  0
   41.5194   26.2940   24.8483 C   0  0  0  0  0  0  0  0  0  0  0  0
   42.8441   26.4233   24.4575 C   0  0  0  0  0  0  0  0  0  0  0  0
   43.1952   27.4511   23.5797 C   0  0  0  0  0  0  0  0  0  0  0  0
   42.2242   28.3168   23.0936 C   0  0  0  0  0  0  0  0  0  0  0  0
   36.4242   22.0339   25.7753 C   0  0  0  0  0  0  0  0  0  0  0  0
   36.8216   23.3097   26.5082 C   0  0  0  0  0  0  0  0  0  0  0  0
   39.4706   22.6529   26.3384 O   0  0  0  0  0  0  0  0  0  0  0  0
   36.5826   25.5435   24.7930 O   0  0  0  0  0  0  0  0  0  0  0  0
   37.6484   24.9745   24.9616 C   0  0  0  0  0  0  0  0  0  0  0  0
   37.8468   23.9559   25.7043 N   0  0  0  0  0  0  0  0  0  0  0  0
   39.0536   23.5930   25.7128 C   0  0  0  0  0  0  0  0  0  0  0  0
   39.9364   24.4787   24.9039 C   0  0  1  0  0  0  0  0  0  0  0  0
   38.9102   25.4704   24.3500 C   0  0  2  0  0  0  0  0  0  0  0  0
  1  2  1  0  0  0  0
  2  3  1  0  0  0  0
  3 20  1  0  0  0  0
  4  5  1  0  0  0  0
  6  7  2  0  0  0  0
  6 12  1  0  0  0  0
  7  8  1  0  0  0  0
  8  9  2  0  0  0  0
  9 11  1  0  0  0  0
 10  5  1  1  0  0  0
 10 11  1  0  0  0  0
 10 16  1  0  0  0  0
 10 27  1  0  0  0  0
 11 12  2  0  0  0  0
 13 12  1  1  0  0  0
 13 15  1  0  0  0  0
 13 28  1  0  0  0  0
 14 15  2  0  0  0  0
 14 19  1  0  0  0  0
 15 16  1  0  0  0  0
 16 17  2  0  0  0  0
 17 18  1  0  0  0  0
 18 19  2  0  0  0  0
 20 21  1  0  0  0  0
 21 25  1  0  0  0  0
 22 26  2  0  0  0  0
 23 24  2  0  0  0  0
 24 25  1  0  0  0  0
 25 26  1  0  0  0  0
 27 26  1  1  0  0  0
 27 28  1  0  0  0  0
 28 24  1  1  0  0  0
M  END
>  <CHROM.1>
170.43298828,-60.96144381,70.58553205,-159.57708826,103.44958160,39.05524387
25.12560941,25.74706260,2.69394526,0.36214479,2.27882100

>  <Name>
ligand

>  <RI>
0

>  <Rbt.Current_Directory>
/home/itssahil/PROJECTS/Mol_Feturizer/New_Systems/rnas/1YLS

>  <Rbt.Executable>
rbdock ($Id: //depot/dev/client3/rdock/2013.1/src/exe/rbdock.cxx#4 $)

>  <Rbt.Library>
libRbt.so (2013.1, Build901 2013/11/27)

>  <Rbt.Parameter_File>
/export/apps/rDock/src/rDock_2013.1_src/data/scripts/dock_solv.prm

>  <Rbt.Receptor>
prm/pocket_docking_4.prm

>  <SCORE>
-33.6261

>  <SCORE.INTER>
-30.483

>  <SCORE.INTER.CONST>
1

>  <SCORE.INTER.POLAR>
0

>  <SCORE.INTER.ROT>
5

>  <SCORE.INTER.SOLV>
5.97431

>  <SCORE.INTER.VDW>
-29.2468

>  <SCORE.INTER.norm>
-1.08868

>  <SCORE.INTRA>
-3.14308

>  <SCORE.INTRA.DIHEDRAL>
-7.49954

>  <SCORE.INTRA.DIHEDRAL.0>
12.0148

>  <SCORE.INTRA.POLAR>
0

>  <SCORE.INTRA.POLAR.0>
0

>  <SCORE.INTRA.REPUL>
0

>  <SCORE.INTRA.REPUL.0>
0

>  <SCORE.INTRA.SOLV>
0.041851

>  <SCORE.INTRA.SOLV.lig_0>
-10.5235

>  <SCORE.INTRA.VDW>
0.585764

>  <SCORE.INTRA.VDW.0>
-1.38455

>  <SCORE.INTRA.norm>
-0.112253

>  <SCORE.RESTR>
0

>  <SCORE.RESTR.CAVITY>
0

>  <SCORE.RESTR.norm>
0

>  <SCORE.SYSTEM>
0

>  <SCORE.SYSTEM.CONST>
0

>  <SCORE.SYSTEM.DIHEDRAL>
0

>  <SCORE.SYSTEM.SOLV>
0

>  <SCORE.SYSTEM.norm>
0

>  <SCORE.heavy>
28

>  <SCORE.norm>
-1.20093

>  <RMSD>
6.552

$$$$
ligand
 OpenBabel11021811413D
libRbt.so/2013.1/901 2013/11/27
 28 32  0  0  0  0  0  0  0  0999 V2000
   32.0131   21.4548   26.1527 C   0  0  0  0  0  0  0  0  0  0  0  0
   33.4733   21.7898   25.9218 C   0  0  0  0  0  0  0  0  0  0  0  0
   33.7004   23.2925   25.8510 C   0  0  0  0  0  0  0  0  0  0  0  0
   42.5274   24.3545   26.3615 O   0  0  0  0  0  0  0  0  0  0  0  0
   41.4448   23.9431   25.5250 C   0  0  0  0  0  0  0  0  0  0  0  0
   38.4895   27.5213   27.1911 C   0  0  0  0  0  0  0  0  0  0  0  0
   38.6187   27.0583   28.4943 C   0  0  0  0  0  0  0  0  0  0  0  0
   39.3920   25.9229   28.7496 C   0  0  0  0  0  0  0  0  0  0  0  0
   40.0366   25.2537   27.7086 C   0  0  0  0  0  0  0  0  0  0  0  0
   40.5127   25.1217   25.2154 C   0  0  1  0  0  0  0  0  0  0  0  0
   39.9159   25.7478   26.4309 C   0  0  0  0  0  0  0  0  0  0  0  0
   39.1532   26.8612   26.1841 C   0  0  0  0  0  0  0  0  0  0  0  0
   39.0459   27.2366   24.7871 C   0  0  1  0  0  0  0  0  0  0  0  0
   40.8439   28.4315   23.5500 C   0  0  0  0  0  0  0  0  0  0  0  0
   40.3935   27.3417   24.2556 C   0  0  0  0  0  0  0  0  0  0  0  0
   41.1861   26.2463   24.4705 C   0  0  0  0  0  0  0  0  0  0  0  0
   42.4789   26.2190   23.9684 C   0  0  0  0  0  0  0  0  0  0  0  0
   42.9579   27.3275   23.2670 C   0  0  0  0  0  0  0  0  0  0  0  0
   42.1403   28.4313   23.0623 C   0  0  0  0  0  0  0  0  0  0  0  0
   34.9762   23.6067   25.0805 C   0  0  0  0  0  0  0  0  0  0  0  0
   36.1321   23.8554   26.0423 C   0  0  0  0  0  0  0  0  0  0  0  0
   38.5843   22.7935   25.4624 O   0  0  0  0  0  0  0  0  0  0  0  0
   36.2066   26.4008   24.8157 O   0  0  0  0  0  0  0  0  0  0  0  0
   37.1514   25.6314   24.7562 C   0  0  0  0  0  0  0  0  0  0  0  0
   37.2020   24.4632   25.2672 N   0  0  0  0  0  0  0  0  0  0  0  0
   38.3131   23.9005   25.0749 C   0  0  0  0  0  0  0  0  0  0  0  0
   39.2898   24.7648   24.3557 C   0  0  1  0  0  0  0  0  0  0  0  0
   38.4377   26.0135   24.1147 C   0  0  2  0  0  0  0  0  0  0  0  0
  1  2  1  0  0  0  0
  2  3  1  0  0  0  0
  3 20  1  0  0  0  0
  4  5  1  0  0  0  0
  6  7  2  0  0  0  0
  6 12  1  0  0  0  0
  7  8  1  0  0  0  0
  8  9  2  0  0  0  0
  9 11  1  0  0  0  0
 10  5  1  1  0  0  0
 10 11  1  0  0  0  0
 10 16  1  0  0  0  0
 10 27  1  0  0  0  0
 11 12  2  0  0  0  0
 13 12  1  1  0  0  0
 13 15  1  0  0  0  0
 13 28  1  0  0  0  0
 14 15  2  0  0  0  0
 14 19  1  0  0  0  0
 15 16  1  0  0  0  0
 16 17  2  0  0  0  0
 17 18  1  0  0  0  0
 18 19  2  0  0  0  0
 20 21  1  0  0  0  0
 21 25  1  0  0  0  0
 22 26  2  0  0  0  0
 23 24  2  0  0  0  0
 24 25  1  0  0  0  0
 25 26  1  0  0  0  0
 27 26  1  1  0  0  0
 27 28  1  0  0  0  0
 28 24  1  1  0  0  0
M  END
>  <CHROM.1>
-156.80338517,-59.20168114,-97.98750186,-166.17851588,67.82023613,38.60933224
25.27358793,25.44004434,2.69044478,0.22517527,2.41647135

>  <Name>
ligand

>  <RI>
0

>  <Rbt.Current_Directory>
/home/itssahil/PROJECTS/Mol_Feturizer/New_Systems/rnas/1YLS

>  <Rbt.Executable>
rbdock ($Id: //depot/dev/client3/rdock/2013.1/src/exe/rbdock.cxx#4 $)

>  <Rbt.Library>
libRbt.so (2013.1, Build901 2013/11/27)

>  <Rbt.Parameter_File>
/export/apps/rDock/src/rDock_2013.1_src/data/scripts/dock_solv.prm

>  <Rbt.Receptor>
prm/pocket_docking_7.prm

>  <SCORE>
-30.1322

>  <SCORE.INTER>
-29.0967

>  <SCORE.INTER.CONST>
1

>  <SCORE.INTER.POLAR>
0

>  <SCORE.INTER.ROT>
5

>  <SCORE.INTER.SOLV>
7.0425

>  <SCORE.INTER.VDW>
-28.6787

>  <SCORE.INTER.norm>
-1.03917

>  <SCORE.INTRA>
-1.03546

>  <SCORE.INTRA.DIHEDRAL>
-2.68118

>  <SCORE.INTRA.DIHEDRAL.0>
12.0148

>  <SCORE.INTRA.POLAR>
0

>  <SCORE.INTRA.POLAR.0>
0

>  <SCORE.INTRA.REPUL>
0

>  <SCORE.INTRA.REPUL.0>
0

>  <SCORE.INTRA.SOLV>
-0.00727313

>  <SCORE.INTRA.SOLV.lig_0>
-10.5235

>  <SCORE.INTRA.VDW>
0.30877

>  <SCORE.INTRA.VDW.0>
-1.38455

>  <SCORE.INTRA.norm>
-0.0369806

>  <SCORE.RESTR>
0

>  <SCORE.RESTR.CAVITY>
0

>  <SCORE.RESTR.norm>
0

>  <SCORE.SYSTEM>
0

>  <SCORE.SYSTEM.CONST>
0

>  <SCORE.SYSTEM.DIHEDRAL>
0

>  <SCORE.SYSTEM.SOLV>
0

>  <SCORE.SYSTEM.norm>
0

>  <SCORE.heavy>
28

>  <SCORE.norm>
-1.07615

>  <RMSD>
6.602

$$$$
ligand
 OpenBabel11021811413D
libRbt.so/2013.1/901 2013/11/27
 28 32  0  0  0  0  0  0  0  0999 V2000
   32.0179   21.9594   25.8522 C   0  0  0  0  0  0  0  0  0  0  0  0
   33.4141   21.3908   26.0106 C   0  0  0  0  0  0  0  0  0  0  0  0
   34.4610   22.4908   26.1054 C   0  0  0  0  0  0  0  0  0  0  0  0
   42.5018   23.0724   25.2520 O   0  0  0  0  0  0  0  0  0  0  0  0
   41.8656   23.9932   26.1401 C   0  0  0  0  0  0  0  0  0  0  0  0
   38.1339   27.2041   26.4170 C   0  0  0  0  0  0  0  0  0  0  0  0
   38.3456   27.3740   27.7792 C   0  0  0  0  0  0  0  0  0  0  0  0
   39.3569   26.6500   28.4158 C   0  0  0  0  0  0  0  0  0  0  0  0
   40.1562   25.7619   27.6950 C   0  0  0  0  0  0  0  0  0  0  0  0
   40.6907   24.6978   25.4496 C   0  0  1  0  0  0  0  0  0  0  0  0
   39.9451   25.6320   26.3423 C   0  0  0  0  0  0  0  0  0  0  0  0
   38.9490   26.3425   25.7217 C   0  0  0  0  0  0  0  0  0  0  0  0
   38.7804   26.0606   24.3089 C   0  0  1  0  0  0  0  0  0  0  0  0
   40.2721   26.9814   22.5430 C   0  0  0  0  0  0  0  0  0  0  0  0
   40.0753   26.2216   23.6711 C   0  0  0  0  0  0  0  0  0  0  0  0
   41.0969   25.5200   24.2529 C   0  0  0  0  0  0  0  0  0  0  0  0
   42.3687   25.5649   23.7011 C   0  0  0  0  0  0  0  0  0  0  0  0
   42.5889   26.3492   22.5667 C   0  0  0  0  0  0  0  0  0  0  0  0
   41.5410   27.0570   21.9927 C   0  0  0  0  0  0  0  0  0  0  0  0
   35.8196   21.9082   26.4726 C   0  0  0  0  0  0  0  0  0  0  0  0
   36.7105   22.9805   27.0885 C   0  0  0  0  0  0  0  0  0  0  0  0
   39.3514   22.3336   26.7975 O   0  0  0  0  0  0  0  0  0  0  0  0
   36.2125   24.7204   24.9174 O   0  0  0  0  0  0  0  0  0  0  0  0
   37.3108   24.2230   25.1029 C   0  0  0  0  0  0  0  0  0  0  0  0
   37.6228   23.4210   26.0451 N   0  0  0  0  0  0  0  0  0  0  0  0
   38.8371   23.0858   26.0108 C   0  0  0  0  0  0  0  0  0  0  0  0
   39.5982   23.7556   24.9199 C   0  0  1  0  0  0  0  0  0  0  0  0
   38.4837   24.5682   24.2559 C   0  0  2  0  0  0  0  0  0  0  0  0
  1  2  1  0  0  0  0
  2  3  1  0  0  0  0
  3 20  1  0  0  0  0
  4  5  1  0  0  0  0
  6  7  2  0  0  0  0
  6 12  1  0  0  0  0
  7  8  1  0  0  0  0
  8  9  2  0  0  0  0
  9 11  1  0  0  0  0
 10  5  1  1  0  0  0
 10 11  1  0  0  0  0
 10 16  1  0  0  0  0
 10 27  1  0  0  0  0
 11 12  2  0  0  0  0
 13 12  1  1  0  0  0
 13 15  1  0  0  0  0
 13 28  1  0  0  0  0
 14 15  2  0  0  0  0
 14 19  1  0  0  0  0
 15 16  1  0  0  0  0
 16 17  2  0  0  0  0
 17 18  1  0  0  0  0
 18 19  2  0  0  0  0
 20 21  1  0  0  0  0
 21 25  1  0  0  0  0
 22 26  2  0  0  0  0
 23 24  2  0  0  0  0
 24 25  1  0  0  0  0
 25 26  1  0  0  0  0
 27 26  1  1  0  0  0
 27 28  1  0  0  0  0
 28 24  1  1  0  0  0
M  END
>  <CHROM.1>
171.47671386,177.51938876,-157.97871268,-100.88640946,78.03609951,38.69601102
24.55967652,25.45520771,2.63706265,0.13431957,2.38815116

>  <Name>
ligand

>  <RI>
0

>  <Rbt.Current_Directory>
/home/itssahil/PROJECTS/Mol_Feturizer/New_Systems/rnas/1YLS

>  <Rbt.Executable>
rbdock ($Id: //depot/dev/client3/rdock/2013.1/src/exe/rbdock.cxx#4 $)

>  <Rbt.Library>
libRbt.so (2013.1, Build901 2013/11/27)

>  <Rbt.Parameter_File>
/export/apps/rDock/src/rDock_2013.1_src/data/scripts/dock_solv.prm

>  <Rbt.Receptor>
prm/pocket_docking_5.prm

>  <SCORE>
-30.8505

>  <SCORE.INTER>
-29.2434

>  <SCORE.INTER.CONST>
1

>  <SCORE.INTER.POLAR>
0

>  <SCORE.INTER.ROT>
5

>  <SCORE.INTER.SOLV>
6.58902

>  <SCORE.INTER.VDW>
-28.6253

>  <SCORE.INTER.norm>
-1.04441

>  <SCORE.INTRA>
-1.60709

>  <SCORE.INTRA.DIHEDRAL>
-3.37833

>  <SCORE.INTRA.DIHEDRAL.0>
12.0148

>  <SCORE.INTRA.POLAR>
0

>  <SCORE.INTRA.POLAR.0>
0

>  <SCORE.INTRA.REPUL>
0

>  <SCORE.INTRA.REPUL.0>
0

>  <SCORE.INTRA.SOLV>
0.391199

>  <SCORE.INTRA.SOLV.lig_0>
-10.5235

>  <SCORE.INTRA.VDW>
-0.113526

>  <SCORE.INTRA.VDW.0>
-1.38455

>  <SCORE.INTRA.norm>
-0.0573961

>  <SCORE.RESTR>
0

>  <SCORE.RESTR.CAVITY>
0

>  <SCORE.RESTR.norm>
0

>  <SCORE.SYSTEM>
0

>  <SCORE.SYSTEM.CONST>
0

>  <SCORE.SYSTEM.DIHEDRAL>
0

>  <SCORE.SYSTEM.SOLV>
0

>  <SCORE.SYSTEM.norm>
0

>  <SCORE.heavy>
28

>  <SCORE.norm>
-1.1018

>  <RMSD>
6.606

$$$$
ligand
 OpenBabel11021811413D
libRbt.so/2013.1/901 2013/11/27
 28 32  0  0  0  0  0  0  0  0999 V2000
   31.9330   21.2709   26.1548 C   0  0  0  0  0  0  0  0  0  0  0  0
   32.3540   22.5457   25.4508 C   0  0  0  0  0  0  0  0  0  0  0  0
   33.4741   23.2555   26.1966 C   0  0  0  0  0  0  0  0  0  0  0  0
   41.8633   22.7183   25.3743 O   0  0  0  0  0  0  0  0  0  0  0  0
   41.2350   23.6415   26.2654 C   0  0  0  0  0  0  0  0  0  0  0  0
   37.9291   27.2972   26.4055 C   0  0  0  0  0  0  0  0  0  0  0  0
   38.0309   27.3726   27.7887 C   0  0  0  0  0  0  0  0  0  0  0  0
   38.8780   26.4926   28.4671 C   0  0  0  0  0  0  0  0  0  0  0  0
   39.6233   25.5428   27.7674 C   0  0  0  0  0  0  0  0  0  0  0  0
   40.2290   24.5264   25.5180 C   0  0  1  0  0  0  0  0  0  0  0  0
   39.5263   25.5065   26.3961 C   0  0  0  0  0  0  0  0  0  0  0  0
   38.6909   26.3704   25.7341 C   0  0  0  0  0  0  0  0  0  0  0  0
   38.6224   26.1809   24.2976 C   0  0  1  0  0  0  0  0  0  0  0  0
   40.3785   26.9815   22.7271 C   0  0  0  0  0  0  0  0  0  0  0  0
   39.9817   26.2010   23.7864 C   0  0  0  0  0  0  0  0  0  0  0  0
   40.8469   25.3445   24.4125 C   0  0  0  0  0  0  0  0  0  0  0  0
   42.1607   25.2485   23.9778 C   0  0  0  0  0  0  0  0  0  0  0  0
   42.5843   26.0505   22.9158 C   0  0  0  0  0  0  0  0  0  0  0  0
   41.6930   26.9162   22.2956 C   0  0  0  0  0  0  0  0  0  0  0  0
   34.8200   22.6180   25.8765 C   0  0  0  0  0  0  0  0  0  0  0  0
   35.9270   23.2695   26.6969 C   0  0  0  0  0  0  0  0  0  0  0  0
   38.4806   22.2965   26.6001 O   0  0  0  0  0  0  0  0  0  0  0  0
   35.8599   25.1615   24.5981 O   0  0  0  0  0  0  0  0  0  0  0  0
   36.8642   24.5161   24.8490 C   0  0  0  0  0  0  0  0  0  0  0  0
   36.9820   23.6360   25.7655 N   0  0  0  0  0  0  0  0  0  0  0  0
   38.1420   23.1464   25.8177 C   0  0  0  0  0  0  0  0  0  0  0  0
   39.0813   23.7620   24.8394 C   0  0  1  0  0  0  0  0  0  0  0  0
   38.1460   24.7446   24.1301 C   0  0  2  0  0  0  0  0  0  0  0  0
  1  2  1  0  0  0  0
  2  3  1  0  0  0  0
  3 20  1  0  0  0  0
  4  5  1  0  0  0  0
  6  7  2  0  0  0  0
  6 12  1  0  0  0  0
  7  8  1  0  0  0  0
  8  9  2  0  0  0  0
  9 11  1  0  0  0  0
 10  5  1  1  0  0  0
 10 11  1  0  0  0  0
 10 16  1  0  0  0  0
 10 27  1  0  0  0  0
 11 12  2  0  0  0  0
 13 12  1  1  0  0  0
 13 15  1  0  0  0  0
 13 28  1  0  0  0  0
 14 15  2  0  0  0  0
 14 19  1  0  0  0  0
 15 16  1  0  0  0  0
 16 17  2  0  0  0  0
 17 18  1  0  0  0  0
 18 19  2  0  0  0  0
 20 21  1  0  0  0  0
 21 25  1  0  0  0  0
 22 26  2  0  0  0  0
 23 24  2  0  0  0  0
 24 25  1  0  0  0  0
 25 26  1  0  0  0  0
 27 26  1  1  0  0  0
 27 28  1  0  0  0  0
 28 24  1  1  0  0  0
M  END
>  <CHROM.1>
80.80872273,179.43821467,-176.16223483,-129.37253070,65.80511219,38.24525906
24.61309017,25.42026586,-2.73167713,0.13885787,-0.20307148

>  <Name>
ligand

>  <RI>
0

>  <Rbt.Current_Directory>
/home/itssahil/PROJECTS/Mol_Feturizer/New_Systems/rnas/1YLS

>  <Rbt.Executable>
rbdock ($Id: //depot/dev/client3/rdock/2013.1/src/exe/rbdock.cxx#4 $)

>  <Rbt.Library>
libRbt.so (2013.1, Build901 2013/11/27)

>  <Rbt.Parameter_File>
/export/apps/rDock/src/rDock_2013.1_src/data/scripts/dock_solv.prm

>  <Rbt.Receptor>
prm/pocket_docking_6.prm

>  <SCORE>
-27.9994

>  <SCORE.INTER>
-27.4945

>  <SCORE.INTER.CONST>
1

>  <SCORE.INTER.POLAR>
0

>  <SCORE.INTER.ROT>
5

>  <SCORE.INTER.SOLV>
7.11387

>  <SCORE.INTER.VDW>
-27.6343

>  <SCORE.INTER.norm>
-0.981946

>  <SCORE.INTRA>
-0.504902

>  <SCORE.INTRA.DIHEDRAL>
-2.75687

>  <SCORE.INTRA.DIHEDRAL.0>
12.0148

>  <SCORE.INTRA.POLAR>
0

>  <SCORE.INTRA.POLAR.0>
0

>  <SCORE.INTRA.REPUL>
0

>  <SCORE.INTRA.REPUL.0>
0

>  <SCORE.INTRA.SOLV>
0.28984

>  <SCORE.INTRA.SOLV.lig_0>
-10.5235

>  <SCORE.INTRA.VDW>
0.728615

>  <SCORE.INTRA.VDW.0>
-1.38455

>  <SCORE.INTRA.norm>
-0.0180322

>  <SCORE.RESTR>
0

>  <SCORE.RESTR.CAVITY>
0

>  <SCORE.RESTR.norm>
0

>  <SCORE.SYSTEM>
0

>  <SCORE.SYSTEM.CONST>
0

>  <SCORE.SYSTEM.DIHEDRAL>
0

>  <SCORE.SYSTEM.SOLV>
0

>  <SCORE.SYSTEM.norm>
0

>  <SCORE.heavy>
28

>  <SCORE.norm>
-0.999978

>  <RMSD>
6.621

$$$$
ligand
 OpenBabel11021811413D
libRbt.so/2013.1/901 2013/11/27
 28 32  0  0  0  0  0  0  0  0999 V2000
   31.1882   21.5489   26.3482 C   0  0  0  0  0  0  0  0  0  0  0  0
   32.6581   21.5140   25.9792 C   0  0  0  0  0  0  0  0  0  0  0  0
   33.3381   22.8468   26.2550 C   0  0  0  0  0  0  0  0  0  0  0  0
   41.3540   22.1136   25.8189 O   0  0  0  0  0  0  0  0  0  0  0  0
   40.8296   23.1197   26.6871 C   0  0  0  0  0  0  0  0  0  0  0  0
   38.4438   27.4348   26.6688 C   0  0  0  0  0  0  0  0  0  0  0  0
   38.3753   27.4336   28.0561 C   0  0  0  0  0  0  0  0  0  0  0  0
   38.9046   26.3568   28.7721 C   0  0  0  0  0  0  0  0  0  0  0  0
   39.5029   25.2864   28.1062 C   0  0  0  0  0  0  0  0  0  0  0  0
   40.1572   24.2406   25.8840 C   0  0  1  0  0  0  0  0  0  0  0  0
   39.5832   25.3240   26.7338 C   0  0  0  0  0  0  0  0  0  0  0  0
   39.0594   26.3819   26.0345 C   0  0  0  0  0  0  0  0  0  0  0  0
   39.1414   26.2664   24.5909 C   0  0  1  0  0  0  0  0  0  0  0  0
   41.2253   26.6950   23.3006 C   0  0  0  0  0  0  0  0  0  0  0  0
   40.5258   25.9895   24.2501 C   0  0  0  0  0  0  0  0  0  0  0  0
   41.0848   24.9331   24.9179 C   0  0  0  0  0  0  0  0  0  0  0  0
   42.3890   24.5511   24.6398 C   0  0  0  0  0  0  0  0  0  0  0  0
   43.1195   25.2714   23.6923 C   0  0  0  0  0  0  0  0  0  0  0  0
   42.5368   26.3425   23.0277 C   0  0  0  0  0  0  0  0  0  0  0  0
   34.8064   22.7933   25.8533 C   0  0  0  0  0  0  0  0  0  0  0  0
   35.5652   23.9735   26.4485 C   0  0  0  0  0  0  0  0  0  0  0  0
   37.8236   22.4389   26.5967 O   0  0  0  0  0  0  0  0  0  0  0  0
   36.2055   25.9052   24.4871 O   0  0  0  0  0  0  0  0  0  0  0  0
   36.9961   25.0357   24.8142 C   0  0  0  0  0  0  0  0  0  0  0  0
   36.7898   24.1192   25.6778 N   0  0  0  0  0  0  0  0  0  0  0  0
   37.7922   23.3723   25.8372 C   0  0  0  0  0  0  0  0  0  0  0  0
   38.9674   23.7887   25.0225 C   0  0  1  0  0  0  0  0  0  0  0  0
   38.3802   24.9869   24.2721 C   0  0  2  0  0  0  0  0  0  0  0  0
  1  2  1  0  0  0  0
  2  3  1  0  0  0  0
  3 20  1  0  0  0  0
  4  5  1  0  0  0  0
  6  7  2  0  0  0  0
  6 12  1  0  0  0  0
  7  8  1  0  0  0  0
  8  9  2  0  0  0  0
  9 11  1  0  0  0  0
 10  5  1  1  0  0  0
 10 11  1  0  0  0  0
 10 16  1  0  0  0  0
 10 27  1  0  0  0  0
 11 12  2  0  0  0  0
 13 12  1  1  0  0  0
 13 15  1  0  0  0  0
 13 28  1  0  0  0  0
 14 15  2  0  0  0  0
 14 19  1  0  0  0  0
 15 16  1  0  0  0  0
 16 17  2  0  0  0  0
 17 18  1  0  0  0  0
 18 19  2  0  0  0  0
 20 21  1  0  0  0  0
 21 25  1  0  0  0  0
 22 26  2  0  0  0  0
 23 24  2  0  0  0  0
 24 25  1  0  0  0  0
 25 26  1  0  0  0  0
 27 26  1  1  0  0  0
 27 28  1  0  0  0  0
 28 24  1  1  0  0  0
M  END
>  <CHROM.1>
-178.99885134,179.81544880,-165.38788733,-160.76524768,105.30064768,38.30638322
24.53249144,25.68208927,-2.83535548,0.23114344,0.18941498

>  <Name>
ligand

>  <RI>
0

>  <Rbt.Current_Directory>
/home/itssahil/PROJECTS/Mol_Feturizer/New_Systems/rnas/1YLS

>  <Rbt.Executable>
rbdock ($Id: //depot/dev/client3/rdock/2013.1/src/exe/rbdock.cxx#4 $)

>  <Rbt.Library>
libRbt.so (2013.1, Build901 2013/11/27)

>  <Rbt.Parameter_File>
/export/apps/rDock/src/rDock_2013.1_src/data/scripts/dock_solv.prm

>  <Rbt.Receptor>
prm/pocket_docking_6.prm

>  <SCORE>
-29.479

>  <SCORE.INTER>
-25.9621

>  <SCORE.INTER.CONST>
1

>  <SCORE.INTER.POLAR>
0

>  <SCORE.INTER.ROT>
5

>  <SCORE.INTER.SOLV>
6.33475

>  <SCORE.INTER.VDW>
-26.353

>  <SCORE.INTER.norm>
-0.927219

>  <SCORE.INTRA>
-3.51683

>  <SCORE.INTRA.DIHEDRAL>
-7.61292

>  <SCORE.INTRA.DIHEDRAL.0>
12.0148

>  <SCORE.INTRA.POLAR>
0

>  <SCORE.INTRA.POLAR.0>
0

>  <SCORE.INTRA.REPUL>
0

>  <SCORE.INTRA.REPUL.0>
0

>  <SCORE.INTRA.SOLV>
0.145651

>  <SCORE.INTRA.SOLV.lig_0>
-10.5235

>  <SCORE.INTRA.VDW>
0.216799

>  <SCORE.INTRA.VDW.0>
-1.38455

>  <SCORE.INTRA.norm>
-0.125601

>  <SCORE.RESTR>
0

>  <SCORE.RESTR.CAVITY>
0

>  <SCORE.RESTR.norm>
0

>  <SCORE.SYSTEM>
0

>  <SCORE.SYSTEM.CONST>
0

>  <SCORE.SYSTEM.DIHEDRAL>
0

>  <SCORE.SYSTEM.SOLV>
0

>  <SCORE.SYSTEM.norm>
0

>  <SCORE.heavy>
28

>  <SCORE.norm>
-1.05282

>  <RMSD>
6.632

$$$$
ligand
 OpenBabel11021811413D
libRbt.so/2013.1/901 2013/11/27
 28 32  0  0  0  0  0  0  0  0999 V2000
   31.7325   21.7990   26.0427 C   0  0  0  0  0  0  0  0  0  0  0  0
   32.8458   22.5565   25.3466 C   0  0  0  0  0  0  0  0  0  0  0  0
   34.0890   22.6543   26.2183 C   0  0  0  0  0  0  0  0  0  0  0  0
   42.2569   23.4747   24.8767 O   0  0  0  0  0  0  0  0  0  0  0  0
   41.6727   24.1168   26.0114 C   0  0  0  0  0  0  0  0  0  0  0  0
   38.4144   27.5925   27.2823 C   0  0  0  0  0  0  0  0  0  0  0  0
   38.5388   27.2566   28.6243 C   0  0  0  0  0  0  0  0  0  0  0  0
   39.3857   26.2100   28.9979 C   0  0  0  0  0  0  0  0  0  0  0  0
   40.1082   25.5030   28.0361 C   0  0  0  0  0  0  0  0  0  0  0  0
   40.6660   25.1895   25.5763 C   0  0  1  0  0  0  0  0  0  0  0  0
   39.9892   25.8727   26.7168 C   0  0  0  0  0  0  0  0  0  0  0  0
   39.1542   26.8990   26.3540 C   0  0  0  0  0  0  0  0  0  0  0  0
   39.0608   27.1412   24.9268 C   0  0  1  0  0  0  0  0  0  0  0  0
   40.8016   28.3562   23.6290 C   0  0  0  0  0  0  0  0  0  0  0  0
   40.4120   27.3014   24.4189 C   0  0  0  0  0  0  0  0  0  0  0  0
   41.2765   26.2924   24.7491 C   0  0  0  0  0  0  0  0  0  0  0  0
   42.5819   26.3194   24.2811 C   0  0  0  0  0  0  0  0  0  0  0  0
   42.9986   27.3954   23.4943 C   0  0  0  0  0  0  0  0  0  0  0  0
   42.1084   28.4116   23.1729 C   0  0  0  0  0  0  0  0  0  0  0  0
   35.2180   23.3476   25.4668 C   0  0  0  0  0  0  0  0  0  0  0  0
   36.3679   23.6717   26.4131 C   0  0  0  0  0  0  0  0  0  0  0  0
   38.9077   22.7523   25.9868 O   0  0  0  0  0  0  0  0  0  0  0  0
   36.2911   26.0981   24.9655 O   0  0  0  0  0  0  0  0  0  0  0  0
   37.2912   25.4004   24.9967 C   0  0  0  0  0  0  0  0  0  0  0  0
   37.4126   24.2887   25.6113 N   0  0  0  0  0  0  0  0  0  0  0  0
   38.5673   23.7973   25.4956 C   0  0  0  0  0  0  0  0  0  0  0  0
   39.4985   24.6668   24.7244 C   0  0  1  0  0  0  0  0  0  0  0  0
   38.5643   25.8213   24.3530 C   0  0  2  0  0  0  0  0  0  0  0  0
  1  2  1  0  0  0  0
  2  3  1  0  0  0  0
  3 20  1  0  0  0  0
  4  5  1  0  0  0  0
  6  7  2  0  0  0  0
  6 12  1  0  0  0  0
  7  8  1  0  0  0  0
  8  9  2  0  0  0  0
  9 11  1  0  0  0  0
 10  5  1  1  0  0  0
 10 11  1  0  0  0  0
 10 16  1  0  0  0  0
 10 27  1  0  0  0  0
 11 12  2  0  0  0  0
 13 12  1  1  0  0  0
 13 15  1  0  0  0  0
 13 28  1  0  0  0  0
 14 15  2  0  0  0  0
 14 19  1  0  0  0  0
 15 16  1  0  0  0  0
 16 17  2  0  0  0  0
 17 18  1  0  0  0  0
 18 19  2  0  0  0  0
 20 21  1  0  0  0  0
 21 25  1  0  0  0  0
 22 26  2  0  0  0  0
 23 24  2  0  0  0  0
 24 25  1  0  0  0  0
 25 26  1  0  0  0  0
 27 26  1  1  0  0  0
 27 28  1  0  0  0  0
 28 24  1  1  0  0  0
M  END
>  <CHROM.1>
176.70903550,178.33435639,169.70180897,178.23312203,63.66046210,38.66544854
25.23413595,25.59243265,-2.72583092,0.24903160,0.21405636

>  <Name>
ligand

>  <RI>
0

>  <Rbt.Current_Directory>
/home/itssahil/PROJECTS/Mol_Feturizer/New_Systems/rnas/1YLS

>  <Rbt.Executable>
rbdock ($Id: //depot/dev/client3/rdock/2013.1/src/exe/rbdock.cxx#4 $)

>  <Rbt.Library>
libRbt.so (2013.1, Build901 2013/11/27)

>  <Rbt.Parameter_File>
/export/apps/rDock/src/rDock_2013.1_src/data/scripts/dock_solv.prm

>  <Rbt.Receptor>
prm/pocket_docking_7.prm

>  <SCORE>
-32.8502

>  <SCORE.INTER>
-28.8029

>  <SCORE.INTER.CONST>
1

>  <SCORE.INTER.POLAR>
0

>  <SCORE.INTER.ROT>
5

>  <SCORE.INTER.SOLV>
6.96389

>  <SCORE.INTER.VDW>
-28.4566

>  <SCORE.INTER.norm>
-1.02868

>  <SCORE.INTRA>
-4.04732

>  <SCORE.INTRA.DIHEDRAL>
-9.14025

>  <SCORE.INTRA.DIHEDRAL.0>
12.0148

>  <SCORE.INTRA.POLAR>
0

>  <SCORE.INTRA.POLAR.0>
0

>  <SCORE.INTRA.REPUL>
0

>  <SCORE.INTRA.REPUL.0>
0

>  <SCORE.INTRA.SOLV>
0.179577

>  <SCORE.INTRA.SOLV.lig_0>
-10.5235

>  <SCORE.INTRA.VDW>
0.433018

>  <SCORE.INTRA.VDW.0>
-1.38455

>  <SCORE.INTRA.norm>
-0.144547

>  <SCORE.RESTR>
0

>  <SCORE.RESTR.CAVITY>
0

>  <SCORE.RESTR.norm>
0

>  <SCORE.SYSTEM>
0

>  <SCORE.SYSTEM.CONST>
0

>  <SCORE.SYSTEM.DIHEDRAL>
0

>  <SCORE.SYSTEM.SOLV>
0

>  <SCORE.SYSTEM.norm>
0

>  <SCORE.heavy>
28

>  <SCORE.norm>
-1.17322

>  <RMSD>
6.638

$$$$
ligand
 OpenBabel11021811413D
libRbt.so/2013.1/901 2013/11/27
 28 32  0  0  0  0  0  0  0  0999 V2000
   31.6788   21.8009   26.0171 C   0  0  0  0  0  0  0  0  0  0  0  0
   32.7573   22.6255   25.3426 C   0  0  0  0  0  0  0  0  0  0  0  0
   34.0482   22.6280   26.1477 C   0  0  0  0  0  0  0  0  0  0  0  0
   42.7005   24.5666   26.5805 O   0  0  0  0  0  0  0  0  0  0  0  0
   41.6033   24.0415   25.8312 C   0  0  0  0  0  0  0  0  0  0  0  0
   38.4586   27.5405   27.3079 C   0  0  0  0  0  0  0  0  0  0  0  0
   38.6078   27.1531   28.6334 C   0  0  0  0  0  0  0  0  0  0  0  0
   39.4390   26.0749   28.9477 C   0  0  0  0  0  0  0  0  0  0  0  0
   40.1212   25.3875   27.9432 C   0  0  0  0  0  0  0  0  0  0  0  0
   40.6115   25.1517   25.4604 C   0  0  1  0  0  0  0  0  0  0  0  0
   39.9787   25.8077   26.6414 C   0  0  0  0  0  0  0  0  0  0  0  0
   39.1592   26.8650   26.3369 C   0  0  0  0  0  0  0  0  0  0  0  0
   39.0368   27.1612   24.9222 C   0  0  1  0  0  0  0  0  0  0  0  0
   40.7733   28.3836   23.6254 C   0  0  0  0  0  0  0  0  0  0  0  0
   40.3786   27.3096   24.3865 C   0  0  0  0  0  0  0  0  0  0  0  0
   41.2271   26.2701   24.6583 C   0  0  0  0  0  0  0  0  0  0  0  0
   42.5211   26.2850   24.1588 C   0  0  0  0  0  0  0  0  0  0  0  0
   42.9433   27.3794   23.4011 C   0  0  0  0  0  0  0  0  0  0  0  0
   42.0694   28.4264   23.1389 C   0  0  0  0  0  0  0  0  0  0  0  0
   35.1370   23.3996   25.4134 C   0  0  0  0  0  0  0  0  0  0  0  0
   36.3010   23.7008   26.3501 C   0  0  0  0  0  0  0  0  0  0  0  0
   38.8075   22.7410   25.8272 O   0  0  0  0  0  0  0  0  0  0  0  0
   36.2453   26.1796   24.9930 O   0  0  0  0  0  0  0  0  0  0  0  0
   37.2294   25.4590   24.9739 C   0  0  0  0  0  0  0  0  0  0  0  0
   37.3399   24.3231   25.5449 N   0  0  0  0  0  0  0  0  0  0  0  0
   38.4796   23.8106   25.3825 C   0  0  0  0  0  0  0  0  0  0  0  0
   39.4118   24.6867   24.6199 C   0  0  1  0  0  0  0  0  0  0  0  0
   38.4959   25.8746   24.3139 C   0  0  2  0  0  0  0  0  0  0  0  0
  1  2  1  0  0  0  0
  2  3  1  0  0  0  0
  3 20  1  0  0  0  0
  4  5  1  0  0  0  0
  6  7  2  0  0  0  0
  6 12  1  0  0  0  0
  7  8  1  0  0  0  0
  8  9  2  0  0  0  0
  9 11  1  0  0  0  0
 10  5  1  1  0  0  0
 10 11  1  0  0  0  0
 10 16  1  0  0  0  0
 10 27  1  0  0  0  0
 11 12  2  0  0  0  0
 13 12  1  1  0  0  0
 13 15  1  0  0  0  0
 13 28  1  0  0  0  0
 14 15  2  0  0  0  0
 14 19  1  0  0  0  0
 15 16  1  0  0  0  0
 16 17  2  0  0  0  0
 17 18  1  0  0  0  0
 18 19  2  0  0  0  0
 20 21  1  0  0  0  0
 21 25  1  0  0  0  0
 22 26  2  0  0  0  0
 23 24  2  0  0  0  0
 24 25  1  0  0  0  0
 25 26  1  0  0  0  0
 27 26  1  1  0  0  0
 27 28  1  0  0  0  0
 28 24  1  1  0  0  0
M  END
>  <CHROM.1>
176.94891696,-62.55288091,165.89040664,174.82429213,65.29964768,38.64413218
25.27526186,25.61083365,2.78045576,0.30878821,2.22207302

>  <Name>
ligand

>  <RI>
0

>  <Rbt.Current_Directory>
/home/itssahil/PROJECTS/Mol_Feturizer/New_Systems/rnas/1YLS

>  <Rbt.Executable>
rbdock ($Id: //depot/dev/client3/rdock/2013.1/src/exe/rbdock.cxx#4 $)

>  <Rbt.Library>
libRbt.so (2013.1, Build901 2013/11/27)

>  <Rbt.Parameter_File>
/export/apps/rDock/src/rDock_2013.1_src/data/scripts/dock_solv.prm

>  <Rbt.Receptor>
prm/pocket_docking_6.prm

>  <SCORE>
-32.7735

>  <SCORE.INTER>
-28.6837

>  <SCORE.INTER.CONST>
1

>  <SCORE.INTER.POLAR>
0

>  <SCORE.INTER.ROT>
5

>  <SCORE.INTER.SOLV>
6.14801

>  <SCORE.INTER.VDW>
-28.1051

>  <SCORE.INTER.norm>
-1.02442

>  <SCORE.INTRA>
-4.08981

>  <SCORE.INTRA.DIHEDRAL>
-8.70094

>  <SCORE.INTRA.DIHEDRAL.0>
12.0148

>  <SCORE.INTRA.POLAR>
0

>  <SCORE.INTRA.POLAR.0>
0

>  <SCORE.INTRA.REPUL>
0

>  <SCORE.INTRA.REPUL.0>
0

>  <SCORE.INTRA.SOLV>
-0.0298111

>  <SCORE.INTRA.SOLV.lig_0>
-10.5235

>  <SCORE.INTRA.VDW>
0.27556

>  <SCORE.INTRA.VDW.0>
-1.38455

>  <SCORE.INTRA.norm>
-0.146065

>  <SCORE.RESTR>
0

>  <SCORE.RESTR.CAVITY>
0

>  <SCORE.RESTR.norm>
0

>  <SCORE.SYSTEM>
0

>  <SCORE.SYSTEM.CONST>
0

>  <SCORE.SYSTEM.DIHEDRAL>
0

>  <SCORE.SYSTEM.SOLV>
0

>  <SCORE.SYSTEM.norm>
0

>  <SCORE.heavy>
28

>  <SCORE.norm>
-1.17048

>  <RMSD>
6.645

$$$$
ligand
 OpenBabel11021811413D
libRbt.so/2013.1/901 2013/11/27
 28 32  0  0  0  0  0  0  0  0999 V2000
   31.9098   21.8935   26.0167 C   0  0  0  0  0  0  0  0  0  0  0  0
   33.0170   22.6547   25.3148 C   0  0  0  0  0  0  0  0  0  0  0  0
   34.3127   22.6230   26.1117 C   0  0  0  0  0  0  0  0  0  0  0  0
   42.9219   24.8627   26.6974 O   0  0  0  0  0  0  0  0  0  0  0  0
   41.9101   24.2456   25.8995 C   0  0  0  0  0  0  0  0  0  0  0  0
   38.4894   27.5672   27.1560 C   0  0  0  0  0  0  0  0  0  0  0  0
   38.6228   27.2367   28.4985 C   0  0  0  0  0  0  0  0  0  0  0  0
   39.5150   26.2298   28.8758 C   0  0  0  0  0  0  0  0  0  0  0  0
   40.2739   25.5573   27.9172 C   0  0  0  0  0  0  0  0  0  0  0  0
   40.8572   25.2712   25.4600 C   0  0  1  0  0  0  0  0  0  0  0  0
   40.1443   25.9219   26.5974 C   0  0  0  0  0  0  0  0  0  0  0  0
   39.2647   26.9090   26.2310 C   0  0  0  0  0  0  0  0  0  0  0  0
   39.1672   27.1475   24.8035 C   0  0  1  0  0  0  0  0  0  0  0  0
   40.8565   28.4419   23.5145 C   0  0  0  0  0  0  0  0  0  0  0  0
   40.5120   27.3698   24.3022 C   0  0  0  0  0  0  0  0  0  0  0  0
   41.4203   26.4015   24.6361 C   0  0  0  0  0  0  0  0  0  0  0  0
   42.7254   26.4886   24.1744 C   0  0  0  0  0  0  0  0  0  0  0  0
   43.0959   27.5831   23.3900 C   0  0  0  0  0  0  0  0  0  0  0  0
   42.1615   28.5576   23.0647 C   0  0  0  0  0  0  0  0  0  0  0  0
   35.4149   23.3718   25.3737 C   0  0  0  0  0  0  0  0  0  0  0  0
   36.6295   23.5570   26.2756 C   0  0  0  0  0  0  0  0  0  0  0  0
   39.2108   22.7555   25.8612 O   0  0  0  0  0  0  0  0  0  0  0  0
   36.4482   25.9782   24.8284 O   0  0  0  0  0  0  0  0  0  0  0  0
   37.4791   25.3271   24.8642 C   0  0  0  0  0  0  0  0  0  0  0  0
   37.6486   24.2218   25.4790 N   0  0  0  0  0  0  0  0  0  0  0  0
   38.8251   23.7840   25.3687 C   0  0  0  0  0  0  0  0  0  0  0  0
   39.7191   24.6959   24.6022 C   0  0  1  0  0  0  0  0  0  0  0  0
   38.7346   25.8065   24.2268 C   0  0  2  0  0  0  0  0  0  0  0  0
  1  2  1  0  0  0  0
  2  3  1  0  0  0  0
  3 20  1  0  0  0  0
  4  5  1  0  0  0  0
  6  7  2  0  0  0  0
  6 12  1  0  0  0  0
  7  8  1  0  0  0  0
  8  9  2  0  0  0  0
  9 11  1  0  0  0  0
 10  5  1  1  0  0  0
 10 11  1  0  0  0  0
 10 16  1  0  0  0  0
 10 27  1  0  0  0  0
 11 12  2  0  0  0  0
 13 12  1  1  0  0  0
 13 15  1  0  0  0  0
 13 28  1  0  0  0  0
 14 15  2  0  0  0  0
 14 19  1  0  0  0  0
 15 16  1  0  0  0  0
 16 17  2  0  0  0  0
 17 18  1  0  0  0  0
 18 19  2  0  0  0  0
 20 21  1  0  0  0  0
 21 25  1  0  0  0  0
 22 26  2  0  0  0  0
 23 24  2  0  0  0  0
 24 25  1  0  0  0  0
 25 26  1  0  0  0  0
 27 26  1  1  0  0  0
 27 28  1  0  0  0  0
 28 24  1  1  0  0  0
M  END
>  <CHROM.1>
178.94858445,-60.67278689,169.76885681,177.48856091,55.20919367,38.85421228
25.32355765,25.56455710,2.77086713,0.32192602,2.22346376

>  <Name>
ligand

>  <RI>
0

>  <Rbt.Current_Directory>
/home/itssahil/PROJECTS/Mol_Feturizer/New_Systems/rnas/1YLS

>  <Rbt.Executable>
rbdock ($Id: //depot/dev/client3/rdock/2013.1/src/exe/rbdock.cxx#4 $)

>  <Rbt.Library>
libRbt.so (2013.1, Build901 2013/11/27)

>  <Rbt.Parameter_File>
/export/apps/rDock/src/rDock_2013.1_src/data/scripts/dock_solv.prm

>  <Rbt.Receptor>
prm/pocket_docking_4.prm

>  <SCORE>
-32.7245

>  <SCORE.INTER>
-29.0077

>  <SCORE.INTER.CONST>
1

>  <SCORE.INTER.POLAR>
0

>  <SCORE.INTER.ROT>
5

>  <SCORE.INTER.SOLV>
6.23991

>  <SCORE.INTER.VDW>
-28.3518

>  <SCORE.INTER.norm>
-1.03599

>  <SCORE.INTRA>
-3.71677

>  <SCORE.INTRA.DIHEDRAL>
-9.09577

>  <SCORE.INTRA.DIHEDRAL.0>
12.0148

>  <SCORE.INTRA.POLAR>
0

>  <SCORE.INTRA.POLAR.0>
0

>  <SCORE.INTRA.REPUL>
0

>  <SCORE.INTRA.REPUL.0>
0

>  <SCORE.INTRA.SOLV>
-0.00904483

>  <SCORE.INTRA.SOLV.lig_0>
-10.5235

>  <SCORE.INTRA.VDW>
0.835636

>  <SCORE.INTRA.VDW.0>
-1.38455

>  <SCORE.INTRA.norm>
-0.132742

>  <SCORE.RESTR>
2.46953e-05

>  <SCORE.RESTR.CAVITY>
2.46953e-05

>  <SCORE.RESTR.norm>
8.81974e-07

>  <SCORE.SYSTEM>
0

>  <SCORE.SYSTEM.CONST>
0

>  <SCORE.SYSTEM.DIHEDRAL>
0

>  <SCORE.SYSTEM.SOLV>
0

>  <SCORE.SYSTEM.norm>
0

>  <SCORE.heavy>
28

>  <SCORE.norm>
-1.16873

>  <RMSD>
6.648

$$$$
ligand
 OpenBabel11021811413D
libRbt.so/2013.1/901 2013/11/27
 28 32  0  0  0  0  0  0  0  0999 V2000
   31.7923   21.8299   26.0402 C   0  0  0  0  0  0  0  0  0  0  0  0
   32.8681   22.6427   25.3474 C   0  0  0  0  0  0  0  0  0  0  0  0
   34.1720   22.6323   26.1313 C   0  0  0  0  0  0  0  0  0  0  0  0
   42.8232   24.6104   26.4802 O   0  0  0  0  0  0  0  0  0  0  0  0
   41.7398   24.0835   25.7122 C   0  0  0  0  0  0  0  0  0  0  0  0
   38.5625   27.5150   27.2748 C   0  0  0  0  0  0  0  0  0  0  0  0
   38.7361   27.1140   28.5933 C   0  0  0  0  0  0  0  0  0  0  0  0
   39.5880   26.0451   28.8829 C   0  0  0  0  0  0  0  0  0  0  0  0
   40.2667   25.3806   27.8607 C   0  0  0  0  0  0  0  0  0  0  0  0
   40.7260   25.1825   25.3687 C   0  0  1  0  0  0  0  0  0  0  0  0
   40.0997   25.8142   26.5663 C   0  0  0  0  0  0  0  0  0  0  0  0
   39.2599   26.8623   26.2860 C   0  0  0  0  0  0  0  0  0  0  0  0
   39.1133   27.1737   24.8769 C   0  0  1  0  0  0  0  0  0  0  0  0
   40.8126   28.4385   23.5717 C   0  0  0  0  0  0  0  0  0  0  0  0
   40.4451   27.3494   24.3248 C   0  0  0  0  0  0  0  0  0  0  0  0
   41.3132   26.3200   24.5721 C   0  0  0  0  0  0  0  0  0  0  0  0
   42.5997   26.3610   24.0552 C   0  0  0  0  0  0  0  0  0  0  0  0
   42.9945   27.4710   23.3052 C   0  0  0  0  0  0  0  0  0  0  0  0
   42.1011   28.5073   23.0680 C   0  0  0  0  0  0  0  0  0  0  0  0
   35.2473   23.4204   25.3945 C   0  0  0  0  0  0  0  0  0  0  0  0
   36.4511   23.6541   26.2994 C   0  0  0  0  0  0  0  0  0  0  0  0
   38.9646   22.7398   25.7305 O   0  0  0  0  0  0  0  0  0  0  0  0
   36.3385   26.1480   24.9739 O   0  0  0  0  0  0  0  0  0  0  0  0
   37.3332   25.4431   24.9324 C   0  0  0  0  0  0  0  0  0  0  0  0
   37.4690   24.3022   25.4878 N   0  0  0  0  0  0  0  0  0  0  0  0
   38.6142   23.8095   25.3036 C   0  0  0  0  0  0  0  0  0  0  0  0
   39.5220   24.7091   24.5391 C   0  0  1  0  0  0  0  0  0  0  0  0
   38.5838   25.8862   24.2603 C   0  0  2  0  0  0  0  0  0  0  0  0
  1  2  1  0  0  0  0
  2  3  1  0  0  0  0
  3 20  1  0  0  0  0
  4  5  1  0  0  0  0
  6  7  2  0  0  0  0
  6 12  1  0  0  0  0
  7  8  1  0  0  0  0
  8  9  2  0  0  0  0
  9 11  1  0  0  0  0
 10  5  1  1  0  0  0
 10 11  1  0  0  0  0
 10 16  1  0  0  0  0
 10 27  1  0  0  0  0
 11 12  2  0  0  0  0
 13 12  1  1  0  0  0
 13 15  1  0  0  0  0
 13 28  1  0  0  0  0
 14 15  2  0  0  0  0
 14 19  1  0  0  0  0
 15 16  1  0  0  0  0
 16 17  2  0  0  0  0
 17 18  1  0  0  0  0
 18 19  2  0  0  0  0
 20 21  1  0  0  0  0
 21 25  1  0  0  0  0
 22 26  2  0  0  0  0
 23 24  2  0  0  0  0
 24 25  1  0  0  0  0
 25 26  1  0  0  0  0
 27 26  1  1  0  0  0
 27 28  1  0  0  0  0
 28 24  1  1  0  0  0
M  END
>  <CHROM.1>
178.31340999,-61.16755087,168.31556845,175.03938563,62.04111415,38.75163600
25.28937951,25.55232243,2.76331905,0.29884082,2.24525692

>  <Name>
ligand

>  <RI>
0

>  <Rbt.Current_Directory>
/home/itssahil/PROJECTS/Mol_Feturizer/New_Systems/rnas/1YLS

>  <Rbt.Executable>
rbdock ($Id: //depot/dev/client3/rdock/2013.1/src/exe/rbdock.cxx#4 $)

>  <Rbt.Library>
libRbt.so (2013.1, Build901 2013/11/27)

>  <Rbt.Parameter_File>
/export/apps/rDock/src/rDock_2013.1_src/data/scripts/dock_solv.prm

>  <Rbt.Receptor>
prm/pocket_docking_5.prm

>  <SCORE>
-32.871

>  <SCORE.INTER>
-28.7961

>  <SCORE.INTER.CONST>
1

>  <SCORE.INTER.POLAR>
0

>  <SCORE.INTER.ROT>
5

>  <SCORE.INTER.SOLV>
6.23286

>  <SCORE.INTER.VDW>
-28.2083

>  <SCORE.INTER.norm>
-1.02843

>  <SCORE.INTRA>
-4.07488

>  <SCORE.INTRA.DIHEDRAL>
-8.9588

>  <SCORE.INTRA.DIHEDRAL.0>
12.0148

>  <SCORE.INTRA.POLAR>
0

>  <SCORE.INTRA.POLAR.0>
0

>  <SCORE.INTRA.REPUL>
0

>  <SCORE.INTRA.REPUL.0>
0

>  <SCORE.INTRA.SOLV>
-0.0236864

>  <SCORE.INTRA.SOLV.lig_0>
-10.5235

>  <SCORE.INTRA.VDW>
0.416366

>  <SCORE.INTRA.VDW.0>
-1.38455

>  <SCORE.INTRA.norm>
-0.145531

>  <SCORE.RESTR>
0

>  <SCORE.RESTR.CAVITY>
0

>  <SCORE.RESTR.norm>
0

>  <SCORE.SYSTEM>
0

>  <SCORE.SYSTEM.CONST>
0

>  <SCORE.SYSTEM.DIHEDRAL>
0

>  <SCORE.SYSTEM.SOLV>
0

>  <SCORE.SYSTEM.norm>
0

>  <SCORE.heavy>
28

>  <SCORE.norm>
-1.17396

>  <RMSD>
6.651

$$$$
ligand
 OpenBabel11021811413D
libRbt.so/2013.1/901 2013/11/27
 28 32  0  0  0  0  0  0  0  0999 V2000
   31.7876   21.8486   26.0103 C   0  0  0  0  0  0  0  0  0  0  0  0
   32.8772   22.6392   25.3134 C   0  0  0  0  0  0  0  0  0  0  0  0
   34.1574   22.6756   26.1348 C   0  0  0  0  0  0  0  0  0  0  0  0
   42.7902   24.6427   26.5609 O   0  0  0  0  0  0  0  0  0  0  0  0
   41.7363   24.1123   25.7553 C   0  0  0  0  0  0  0  0  0  0  0  0
   38.5402   27.5600   27.2422 C   0  0  0  0  0  0  0  0  0  0  0  0
   38.7024   27.1773   28.5675 C   0  0  0  0  0  0  0  0  0  0  0  0
   39.5530   26.1136   28.8793 C   0  0  0  0  0  0  0  0  0  0  0  0
   40.2419   25.4363   27.8725 C   0  0  0  0  0  0  0  0  0  0  0  0
   40.7241   25.2050   25.3877 C   0  0  1  0  0  0  0  0  0  0  0  0
   40.0861   25.8520   26.5708 C   0  0  0  0  0  0  0  0  0  0  0  0
   39.2475   26.8950   26.2687 C   0  0  0  0  0  0  0  0  0  0  0  0
   39.1133   27.1870   24.8542 C   0  0  1  0  0  0  0  0  0  0  0  0
   40.8227   28.4364   23.5474 C   0  0  0  0  0  0  0  0  0  0  0  0
   40.4498   27.3571   24.3119 C   0  0  0  0  0  0  0  0  0  0  0  0
   41.3170   26.3325   24.5811 C   0  0  0  0  0  0  0  0  0  0  0  0
   42.6082   26.3683   24.0753 C   0  0  0  0  0  0  0  0  0  0  0  0
   43.0083   27.4686   23.3140 C   0  0  0  0  0  0  0  0  0  0  0  0
   42.1156   28.5003   23.0546 C   0  0  0  0  0  0  0  0  0  0  0  0
   35.2572   23.4128   25.3817 C   0  0  0  0  0  0  0  0  0  0  0  0
   36.4430   23.6832   26.3002 C   0  0  0  0  0  0  0  0  0  0  0  0
   38.9628   22.7649   25.7666 O   0  0  0  0  0  0  0  0  0  0  0  0
   36.3391   26.1586   24.9399 O   0  0  0  0  0  0  0  0  0  0  0  0
   37.3351   25.4547   24.9171 C   0  0  0  0  0  0  0  0  0  0  0  0
   37.4674   24.3217   25.4892 N   0  0  0  0  0  0  0  0  0  0  0  0
   38.6148   23.8281   25.3220 C   0  0  0  0  0  0  0  0  0  0  0  0
   39.5284   24.7187   24.5537 C   0  0  1  0  0  0  0  0  0  0  0  0
   38.5912   25.8905   24.2504 C   0  0  2  0  0  0  0  0  0  0  0  0
  1  2  1  0  0  0  0
  2  3  1  0  0  0  0
  3 20  1  0  0  0  0
  4  5  1  0  0  0  0
  6  7  2  0  0  0  0
  6 12  1  0  0  0  0
  7  8  1  0  0  0  0
  8  9  2  0  0  0  0
  9 11  1  0  0  0  0
 10  5  1  1  0  0  0
 10 11  1  0  0  0  0
 10 16  1  0  0  0  0
 10 27  1  0  0  0  0
 11 12  2  0  0  0  0
 13 12  1  1  0  0  0
 13 15  1  0  0  0  0
 13 28  1  0  0  0  0
 14 15  2  0  0  0  0
 14 19  1  0  0  0  0
 15 16  1  0  0  0  0
 16 17  2  0  0  0  0
 17 18  1  0  0  0  0
 18 19  2  0  0  0  0
 20 21  1  0  0  0  0
 21 25  1  0  0  0  0
 22 26  2  0  0  0  0
 23 24  2  0  0  0  0
 24 25  1  0  0  0  0
 25 26  1  0  0  0  0
 27 26  1  1  0  0  0
 27 28  1  0  0  0  0
 28 24  1  1  0  0  0
M  END
>  <CHROM.1>
177.05458702,-59.35716005,169.12049282,177.06859345,63.02913207,38.74728467
25.31044972,25.55240160,2.77226673,0.30913399,2.22364593

>  <Name>
ligand

>  <RI>
0

>  <Rbt.Current_Directory>
/home/itssahil/PROJECTS/Mol_Feturizer/New_Systems/rnas/1YLS

>  <Rbt.Executable>
rbdock ($Id: //depot/dev/client3/rdock/2013.1/src/exe/rbdock.cxx#4 $)

>  <Rbt.Library>
libRbt.so (2013.1, Build901 2013/11/27)

>  <Rbt.Parameter_File>
/export/apps/rDock/src/rDock_2013.1_src/data/scripts/dock_solv.prm

>  <Rbt.Receptor>
prm/pocket_docking_5.prm

>  <SCORE>
-32.8639

>  <SCORE.INTER>
-28.6873

>  <SCORE.INTER.CONST>
1

>  <SCORE.INTER.POLAR>
0

>  <SCORE.INTER.ROT>
5

>  <SCORE.INTER.SOLV>
6.21192

>  <SCORE.INTER.VDW>
-28.1288

>  <SCORE.INTER.norm>
-1.02455

>  <SCORE.INTRA>
-4.17662

>  <SCORE.INTRA.DIHEDRAL>
-9.07175

>  <SCORE.INTRA.DIHEDRAL.0>
12.0148

>  <SCORE.INTRA.POLAR>
0

>  <SCORE.INTRA.POLAR.0>
0

>  <SCORE.INTRA.REPUL>
0

>  <SCORE.INTRA.REPUL.0>
0

>  <SCORE.INTRA.SOLV>
-0.0220567

>  <SCORE.INTRA.SOLV.lig_0>
-10.5235

>  <SCORE.INTRA.VDW>
0.370284

>  <SCORE.INTRA.VDW.0>
-1.38455

>  <SCORE.INTRA.norm>
-0.149165

>  <SCORE.RESTR>
0

>  <SCORE.RESTR.CAVITY>
0

>  <SCORE.RESTR.norm>
0

>  <SCORE.SYSTEM>
0

>  <SCORE.SYSTEM.CONST>
0

>  <SCORE.SYSTEM.DIHEDRAL>
0

>  <SCORE.SYSTEM.SOLV>
0

>  <SCORE.SYSTEM.norm>
0

>  <SCORE.heavy>
28

>  <SCORE.norm>
-1.17371

>  <RMSD>
6.654

$$$$
ligand
 OpenBabel11021811413D
libRbt.so/2013.1/901 2013/11/27
 28 32  0  0  0  0  0  0  0  0999 V2000
   31.4597   21.5080   26.3214 C   0  0  0  0  0  0  0  0  0  0  0  0
   32.8608   21.7156   25.7813 C   0  0  0  0  0  0  0  0  0  0  0  0
   33.4428   23.0487   26.2273 C   0  0  0  0  0  0  0  0  0  0  0  0
   42.0945   23.9322   26.4171 O   0  0  0  0  0  0  0  0  0  0  0  0
   40.8905   23.6283   25.7107 C   0  0  0  0  0  0  0  0  0  0  0  0
   38.4845   27.6086   27.3480 C   0  0  0  0  0  0  0  0  0  0  0  0
   38.6054   27.1746   28.6619 C   0  0  0  0  0  0  0  0  0  0  0  0
   39.2370   25.9577   28.9312 C   0  0  0  0  0  0  0  0  0  0  0  0
   39.7490   25.1782   27.8932 C   0  0  0  0  0  0  0  0  0  0  0  0
   40.1048   24.9067   25.3913 C   0  0  1  0  0  0  0  0  0  0  0  0
   39.6416   25.6429   26.6033 C   0  0  0  0  0  0  0  0  0  0  0  0
   39.0179   26.8369   26.3431 C   0  0  0  0  0  0  0  0  0  0  0  0
   38.9039   27.1783   24.9379 C   0  0  1  0  0  0  0  0  0  0  0  0
   40.7890   28.0916   23.5950 C   0  0  0  0  0  0  0  0  0  0  0  0
   40.2316   27.0919   24.3556 C   0  0  0  0  0  0  0  0  0  0  0  0
   40.8860   25.9109   24.5823 C   0  0  0  0  0  0  0  0  0  0  0  0
   42.1437   25.7013   24.0361 C   0  0  0  0  0  0  0  0  0  0  0  0
   42.7320   26.7160   23.2780 C   0  0  0  0  0  0  0  0  0  0  0  0
   42.0544   27.9088   23.0620 C   0  0  0  0  0  0  0  0  0  0  0  0
   34.7984   23.2874   25.5752 C   0  0  0  0  0  0  0  0  0  0  0  0
   35.6348   24.2425   26.4185 C   0  0  0  0  0  0  0  0  0  0  0  0
   37.9065   22.8555   25.7915 O   0  0  0  0  0  0  0  0  0  0  0  0
   35.9846   26.7167   25.0976 O   0  0  0  0  0  0  0  0  0  0  0  0
   36.8204   25.8305   25.0329 C   0  0  0  0  0  0  0  0  0  0  0  0
   36.7419   24.6823   25.5843 N   0  0  0  0  0  0  0  0  0  0  0  0
   37.7635   23.9753   25.3735 C   0  0  0  0  0  0  0  0  0  0  0  0
   38.8131   24.6832   24.5891 C   0  0  1  0  0  0  0  0  0  0  0  0
   38.1184   26.0230   24.3327 C   0  0  2  0  0  0  0  0  0  0  0  0
  1  2  1  0  0  0  0
  2  3  1  0  0  0  0
  3 20  1  0  0  0  0
  4  5  1  0  0  0  0
  6  7  2  0  0  0  0
  6 12  1  0  0  0  0
  7  8  1  0  0  0  0
  8  9  2  0  0  0  0
  9 11  1  0  0  0  0
 10  5  1  1  0  0  0
 10 11  1  0  0  0  0
 10 16  1  0  0  0  0
 10 27  1  0  0  0  0
 11 12  2  0  0  0  0
 13 12  1  1  0  0  0
 13 15  1  0  0  0  0
 13 28  1  0  0  0  0
 14 15  2  0  0  0  0
 14 19  1  0  0  0  0
 15 16  1  0  0  0  0
 16 17  2  0  0  0  0
 17 18  1  0  0  0  0
 18 19  2  0  0  0  0
 20 21  1  0  0  0  0
 21 25  1  0  0  0  0
 22 26  2  0  0  0  0
 23 24  2  0  0  0  0
 24 25  1  0  0  0  0
 25 26  1  0  0  0  0
 27 26  1  1  0  0  0
 27 28  1  0  0  0  0
 28 24  1  1  0  0  0
M  END
>  <CHROM.1>
-175.08141261,-63.00969088,-155.52296675,-165.77257605,104.25971097,38.28820685
25.17451440,25.62819283,-2.68633473,-0.12582712,-0.58534072

>  <Name>
ligand

>  <RI>
0

>  <Rbt.Current_Directory>
/home/itssahil/PROJECTS/Mol_Feturizer/New_Systems/rnas/1YLS

>  <Rbt.Executable>
rbdock ($Id: //depot/dev/client3/rdock/2013.1/src/exe/rbdock.cxx#4 $)

>  <Rbt.Library>
libRbt.so (2013.1, Build901 2013/11/27)

>  <Rbt.Parameter_File>
/export/apps/rDock/src/rDock_2013.1_src/data/scripts/dock_solv.prm

>  <Rbt.Receptor>
prm/pocket_docking_4.prm

>  <SCORE>
-31.0048

>  <SCORE.INTER>
-27.7068

>  <SCORE.INTER.CONST>
1

>  <SCORE.INTER.POLAR>
0

>  <SCORE.INTER.ROT>
5

>  <SCORE.INTER.SOLV>
6.50993

>  <SCORE.INTER.VDW>
-27.5745

>  <SCORE.INTER.norm>
-0.989529

>  <SCORE.INTRA>
-3.29801

>  <SCORE.INTRA.DIHEDRAL>
-6.72328

>  <SCORE.INTRA.DIHEDRAL.0>
12.0148

>  <SCORE.INTRA.POLAR>
0

>  <SCORE.INTRA.POLAR.0>
0

>  <SCORE.INTRA.REPUL>
0

>  <SCORE.INTRA.REPUL.0>
0

>  <SCORE.INTRA.SOLV>
-0.0513978

>  <SCORE.INTRA.SOLV.lig_0>
-10.5235

>  <SCORE.INTRA.VDW>
0.0893272

>  <SCORE.INTRA.VDW.0>
-1.38455

>  <SCORE.INTRA.norm>
-0.117786

>  <SCORE.RESTR>
0

>  <SCORE.RESTR.CAVITY>
0

>  <SCORE.RESTR.norm>
0

>  <SCORE.SYSTEM>
0

>  <SCORE.SYSTEM.CONST>
0

>  <SCORE.SYSTEM.DIHEDRAL>
0

>  <SCORE.SYSTEM.SOLV>
0

>  <SCORE.SYSTEM.norm>
0

>  <SCORE.heavy>
28

>  <SCORE.norm>
-1.10731

>  <RMSD>
6.658

$$$$
ligand
 OpenBabel11021811413D
libRbt.so/2013.1/901 2013/11/27
 28 32  0  0  0  0  0  0  0  0999 V2000
   31.5084   21.7929   26.0162 C   0  0  0  0  0  0  0  0  0  0  0  0
   32.5879   22.5518   25.2702 C   0  0  0  0  0  0  0  0  0  0  0  0
   33.7829   22.8513   26.1629 C   0  0  0  0  0  0  0  0  0  0  0  0
   42.4233   24.1323   26.0291 O   0  0  0  0  0  0  0  0  0  0  0  0
   41.2044   23.8158   25.3544 C   0  0  0  0  0  0  0  0  0  0  0  0
   38.6645   27.5197   27.3897 C   0  0  0  0  0  0  0  0  0  0  0  0
   38.8627   26.9935   28.6598 C   0  0  0  0  0  0  0  0  0  0  0  0
   39.5677   25.7964   28.8083 C   0  0  0  0  0  0  0  0  0  0  0  0
   40.0759   25.1283   27.6937 C   0  0  0  0  0  0  0  0  0  0  0  0
   40.3404   25.0695   25.1665 C   0  0  1  0  0  0  0  0  0  0  0  0
   39.8905   25.6838   26.4493 C   0  0  0  0  0  0  0  0  0  0  0  0
   39.1950   26.8579   26.3077 C   0  0  0  0  0  0  0  0  0  0  0  0
   39.0046   27.2992   24.9391 C   0  0  1  0  0  0  0  0  0  0  0  0
   40.7816   28.4157   23.6023 C   0  0  0  0  0  0  0  0  0  0  0  0
   40.3095   27.3314   24.3022 C   0  0  0  0  0  0  0  0  0  0  0  0
   41.0336   26.1745   24.4103 C   0  0  0  0  0  0  0  0  0  0  0  0
   42.2765   26.0772   23.8023 C   0  0  0  0  0  0  0  0  0  0  0  0
   42.7787   27.1780   23.1050 C   0  0  0  0  0  0  0  0  0  0  0  0
   42.0313   28.3446   23.0093 C   0  0  0  0  0  0  0  0  0  0  0  0
   34.8885   23.5343   25.3683 C   0  0  0  0  0  0  0  0  0  0  0  0
   35.9581   24.0822   26.3057 C   0  0  0  0  0  0  0  0  0  0  0  0
   38.2709   22.8752   25.4863 O   0  0  0  0  0  0  0  0  0  0  0  0
   36.1226   26.6660   25.1717 O   0  0  0  0  0  0  0  0  0  0  0  0
   37.0001   25.8349   25.0060 C   0  0  0  0  0  0  0  0  0  0  0  0
   37.0048   24.6453   25.4677 N   0  0  0  0  0  0  0  0  0  0  0  0
   38.0522   24.0141   25.1635 C   0  0  0  0  0  0  0  0  0  0  0  0
   39.0297   24.8370   24.3984 C   0  0  1  0  0  0  0  0  0  0  0  0
   38.2558   26.1521   24.2747 C   0  0  2  0  0  0  0  0  0  0  0  0
  1  2  1  0  0  0  0
  2  3  1  0  0  0  0
  3 20  1  0  0  0  0
  4  5  1  0  0  0  0
  6  7  2  0  0  0  0
  6 12  1  0  0  0  0
  7  8  1  0  0  0  0
  8  9  2  0  0  0  0
  9 11  1  0  0  0  0
 10  5  1  1  0  0  0
 10 11  1  0  0  0  0
 10 16  1  0  0  0  0
 10 27  1  0  0  0  0
 11 12  2  0  0  0  0
 13 12  1  1  0  0  0
 13 15  1  0  0  0  0
 13 28  1  0  0  0  0
 14 15  2  0  0  0  0
 14 19  1  0  0  0  0
 15 16  1  0  0  0  0
 16 17  2  0  0  0  0
 17 18  1  0  0  0  0
 18 19  2  0  0  0  0
 20 21  1  0  0  0  0
 21 25  1  0  0  0  0
 22 26  2  0  0  0  0
 23 24  2  0  0  0  0
 24 25  1  0  0  0  0
 25 26  1  0  0  0  0
 27 26  1  1  0  0  0
 27 28  1  0  0  0  0
 28 24  1  1  0  0  0
M  END
>  <CHROM.1>
176.38583447,-63.37791503,168.66161042,176.81281879,86.05139031,38.46833274
25.30333892,25.47464812,2.76441533,0.26480211,2.25184307

>  <Name>
ligand

>  <RI>
0

>  <Rbt.Current_Directory>
/home/itssahil/PROJECTS/Mol_Feturizer/New_Systems/rnas/1YLS

>  <Rbt.Executable>
rbdock ($Id: //depot/dev/client3/rdock/2013.1/src/exe/rbdock.cxx#4 $)

>  <Rbt.Library>
libRbt.so (2013.1, Build901 2013/11/27)

>  <Rbt.Parameter_File>
/export/apps/rDock/src/rDock_2013.1_src/data/scripts/dock_solv.prm

>  <Rbt.Receptor>
prm/pocket_docking_5.prm

>  <SCORE>
-32.1687

>  <SCORE.INTER>
-27.517

>  <SCORE.INTER.CONST>
1

>  <SCORE.INTER.POLAR>
0

>  <SCORE.INTER.ROT>
5

>  <SCORE.INTER.SOLV>
6.68328

>  <SCORE.INTER.VDW>
-27.5058

>  <SCORE.INTER.norm>
-0.98275

>  <SCORE.INTRA>
-4.6517

>  <SCORE.INTRA.DIHEDRAL>
-9.15247

>  <SCORE.INTRA.DIHEDRAL.0>
12.0148

>  <SCORE.INTRA.POLAR>
0

>  <SCORE.INTRA.POLAR.0>
0

>  <SCORE.INTRA.REPUL>
0

>  <SCORE.INTRA.REPUL.0>
0

>  <SCORE.INTRA.SOLV>
-0.0566947

>  <SCORE.INTRA.SOLV.lig_0>
-10.5235

>  <SCORE.INTRA.VDW>
-0.0471169

>  <SCORE.INTRA.VDW.0>
-1.38455

>  <SCORE.INTRA.norm>
-0.166132

>  <SCORE.RESTR>
0

>  <SCORE.RESTR.CAVITY>
0

>  <SCORE.RESTR.norm>
0

>  <SCORE.SYSTEM>
0

>  <SCORE.SYSTEM.CONST>
0

>  <SCORE.SYSTEM.DIHEDRAL>
0

>  <SCORE.SYSTEM.SOLV>
0

>  <SCORE.SYSTEM.norm>
0

>  <SCORE.heavy>
28

>  <SCORE.norm>
-1.14888

>  <RMSD>
6.659

$$$$
ligand
 OpenBabel11021811413D
libRbt.so/2013.1/901 2013/11/27
 28 32  0  0  0  0  0  0  0  0999 V2000
   31.5784   21.1339   26.0068 C   0  0  0  0  0  0  0  0  0  0  0  0
   33.0810   20.9386   26.0489 C   0  0  0  0  0  0  0  0  0  0  0  0
   33.8185   22.2677   26.1140 C   0  0  0  0  0  0  0  0  0  0  0  0
   42.0655   22.8947   25.5074 O   0  0  0  0  0  0  0  0  0  0  0  0
   41.3514   23.7449   26.4065 C   0  0  0  0  0  0  0  0  0  0  0  0
   37.9380   27.3011   26.5295 C   0  0  0  0  0  0  0  0  0  0  0  0
   38.0138   27.3632   27.9151 C   0  0  0  0  0  0  0  0  0  0  0  0
   38.8745   26.5003   28.5983 C   0  0  0  0  0  0  0  0  0  0  0  0
   39.6592   25.5809   27.9012 C   0  0  0  0  0  0  0  0  0  0  0  0
   40.3329   24.6089   25.6515 C   0  0  1  0  0  0  0  0  0  0  0  0
   39.5869   25.5578   26.5281 C   0  0  0  0  0  0  0  0  0  0  0  0
   38.7381   26.4048   25.8613 C   0  0  0  0  0  0  0  0  0  0  0  0
   38.6999   26.2302   24.4218 C   0  0  1  0  0  0  0  0  0  0  0  0
   40.4586   27.0999   22.8915 C   0  0  0  0  0  0  0  0  0  0  0  0
   40.0666   26.2959   23.9348 C   0  0  0  0  0  0  0  0  0  0  0  0
   40.9457   25.4575   24.5663 C   0  0  0  0  0  0  0  0  0  0  0  0
   42.2689   25.4049   24.1537 C   0  0  0  0  0  0  0  0  0  0  0  0
   42.6871   26.2312   23.1084 C   0  0  0  0  0  0  0  0  0  0  0  0
   41.7817   27.0779   22.4823 C   0  0  0  0  0  0  0  0  0  0  0  0
   35.3253   22.0476   26.0789 C   0  0  0  0  0  0  0  0  0  0  0  0
   36.0499   23.2138   26.7405 C   0  0  0  0  0  0  0  0  0  0  0  0
   38.6322   22.3166   26.6777 O   0  0  0  0  0  0  0  0  0  0  0  0
   35.9637   25.1276   24.6623 O   0  0  0  0  0  0  0  0  0  0  0  0
   36.9819   24.5087   24.9235 C   0  0  0  0  0  0  0  0  0  0  0  0
   37.1096   23.6217   25.8320 N   0  0  0  0  0  0  0  0  0  0  0  0
   38.2824   23.1655   25.8991 C   0  0  0  0  0  0  0  0  0  0  0  0
   39.2200   23.8195   24.9444 C   0  0  1  0  0  0  0  0  0  0  0  0
   38.2687   24.7827   24.2298 C   0  0  2  0  0  0  0  0  0  0  0  0
  1  2  1  0  0  0  0
  2  3  1  0  0  0  0
  3 20  1  0  0  0  0
  4  5  1  0  0  0  0
  6  7  2  0  0  0  0
  6 12  1  0  0  0  0
  7  8  1  0  0  0  0
  8  9  2  0  0  0  0
  9 11  1  0  0  0  0
 10  5  1  1  0  0  0
 10 11  1  0  0  0  0
 10 16  1  0  0  0  0
 10 27  1  0  0  0  0
 11 12  2  0  0  0  0
 13 12  1  1  0  0  0
 13 15  1  0  0  0  0
 13 28  1  0  0  0  0
 14 15  2  0  0  0  0
 14 19  1  0  0  0  0
 15 16  1  0  0  0  0
 16 17  2  0  0  0  0
 17 18  1  0  0  0  0
 18 19  2  0  0  0  0
 20 21  1  0  0  0  0
 21 25  1  0  0  0  0
 22 26  2  0  0  0  0
 23 24  2  0  0  0  0
 24 25  1  0  0  0  0
 25 26  1  0  0  0  0
 27 26  1  1  0  0  0
 27 28  1  0  0  0  0
 28 24  1  1  0  0  0
M  END
>  <CHROM.1>
-176.92852864,-177.87188179,-154.95144726,-131.43206305,90.79834734,38.37180125
24.53409249,25.54335831,-2.68873505,0.26177951,0.09027024

>  <Name>
ligand

>  <RI>
0

>  <Rbt.Current_Directory>
/home/itssahil/PROJECTS/Mol_Feturizer/New_Systems/rnas/1YLS

>  <Rbt.Executable>
rbdock ($Id: //depot/dev/client3/rdock/2013.1/src/exe/rbdock.cxx#4 $)

>  <Rbt.Library>
libRbt.so (2013.1, Build901 2013/11/27)

>  <Rbt.Parameter_File>
/export/apps/rDock/src/rDock_2013.1_src/data/scripts/dock_solv.prm

>  <Rbt.Receptor>
prm/pocket_docking_2.prm

>  <SCORE>
-26.3875

>  <SCORE.INTER>
-27.2063

>  <SCORE.INTER.CONST>
1

>  <SCORE.INTER.POLAR>
0

>  <SCORE.INTER.ROT>
5

>  <SCORE.INTER.SOLV>
7.15913

>  <SCORE.INTER.VDW>
-27.4572

>  <SCORE.INTER.norm>
-0.971652

>  <SCORE.INTRA>
-1.11403

>  <SCORE.INTRA.DIHEDRAL>
-2.42189

>  <SCORE.INTRA.DIHEDRAL.0>
12.0148

>  <SCORE.INTRA.POLAR>
0

>  <SCORE.INTRA.POLAR.0>
0

>  <SCORE.INTRA.REPUL>
0

>  <SCORE.INTRA.REPUL.0>
0

>  <SCORE.INTRA.SOLV>
0.219552

>  <SCORE.INTRA.SOLV.lig_0>
-10.5235

>  <SCORE.INTRA.VDW>
-0.0128617

>  <SCORE.INTRA.VDW.0>
-1.38455

>  <SCORE.INTRA.norm>
-0.0397868

>  <SCORE.RESTR>
1.93284

>  <SCORE.RESTR.CAVITY>
1.93284

>  <SCORE.RESTR.norm>
0.06903

>  <SCORE.SYSTEM>
0

>  <SCORE.SYSTEM.CONST>
0

>  <SCORE.SYSTEM.DIHEDRAL>
0

>  <SCORE.SYSTEM.SOLV>
0

>  <SCORE.SYSTEM.norm>
0

>  <SCORE.heavy>
28

>  <SCORE.norm>
-0.942409

>  <RMSD>
6.675

$$$$
ligand
 OpenBabel11021811413D
libRbt.so/2013.1/901 2013/11/27
 28 32  0  0  0  0  0  0  0  0999 V2000
   45.6110   23.7280   14.1658 C   0  0  0  0  0  0  0  0  0  0  0  0
   45.5125   23.2743   12.7228 C   0  0  0  0  0  0  0  0  0  0  0  0
   45.5961   24.4479   11.7582 C   0  0  0  0  0  0  0  0  0  0  0  0
   42.8264   29.6475   14.5417 O   0  0  0  0  0  0  0  0  0  0  0  0
   41.5456   30.0096   14.0226 C   0  0  0  0  0  0  0  0  0  0  0  0
   40.7715   25.2391   13.0450 C   0  0  0  0  0  0  0  0  0  0  0  0
   41.4409   24.8653   14.2032 C   0  0  0  0  0  0  0  0  0  0  0  0
   41.9986   25.8478   15.0254 C   0  0  0  0  0  0  0  0  0  0  0  0
   41.8859   27.1987   14.6946 C   0  0  0  0  0  0  0  0  0  0  0  0
   41.0236   28.9392   13.0554 C   0  0  1  0  0  0  0  0  0  0  0  0
   41.1944   27.5448   13.5574 C   0  0  0  0  0  0  0  0  0  0  0  0
   40.6510   26.5767   12.7512 C   0  0  0  0  0  0  0  0  0  0  0  0
   40.0126   27.0675   11.5448 C   0  0  1  0  0  0  0  0  0  0  0  0
   37.7447   28.0908   11.5167 C   0  0  0  0  0  0  0  0  0  0  0  0
   39.0528   28.0842   11.9379 C   0  0  0  0  0  0  0  0  0  0  0  0
   39.5568   29.0767   12.7350 C   0  0  0  0  0  0  0  0  0  0  0  0
   38.7400   30.1239   13.1352 C   0  0  0  0  0  0  0  0  0  0  0  0
   37.4028   30.1337   12.7323 C   0  0  0  0  0  0  0  0  0  0  0  0
   36.9086   29.1161   11.9268 C   0  0  0  0  0  0  0  0  0  0  0  0
   44.3886   25.3622   11.9197 C   0  0  0  0  0  0  0  0  0  0  0  0
   44.6201   26.6837   11.1967 C   0  0  0  0  0  0  0  0  0  0  0  0
   43.9783   29.0633   12.3812 O   0  0  0  0  0  0  0  0  0  0  0  0
   42.2109   25.8964    9.9458 O   0  0  0  0  0  0  0  0  0  0  0  0
   42.2962   26.9361   10.5780 C   0  0  0  0  0  0  0  0  0  0  0  0
   43.3415   27.3757   11.1633 N   0  0  0  0  0  0  0  0  0  0  0  0
   43.1355   28.4632   11.7659 C   0  0  0  0  0  0  0  0  0  0  0  0
   41.7194   28.9174   11.6852 C   0  0  1  0  0  0  0  0  0  0  0  0
   41.1183   27.8138   10.8110 C   0  0  2  0  0  0  0  0  0  0  0  0
  1  2  1  0  0  0  0
  2  3  1  0  0  0  0
  3 20  1  0  0  0  0
  4  5  1  0  0  0  0
  6  7  2  0  0  0  0
  6 12  1  0  0  0  0
  7  8  1  0  0  0  0
  8  9  2  0  0  0  0
  9 11  1  0  0  0  0
 10  5  1  1  0  0  0
 10 11  1  0  0  0  0
 10 16  1  0  0  0  0
 10 27  1  0  0  0  0
 11 12  2  0  0  0  0
 13 12  1  1  0  0  0
 13 15  1  0  0  0  0
 13 28  1  0  0  0  0
 14 15  2  0  0  0  0
 14 19  1  0  0  0  0
 15 16  1  0  0  0  0
 16 17  2  0  0  0  0
 17 18  1  0  0  0  0
 18 19  2  0  0  0  0
 20 21  1  0  0  0  0
 21 25  1  0  0  0  0
 22 26  2  0  0  0  0
 23 24  2  0  0  0  0
 24 25  1  0  0  0  0
 25 26  1  0  0  0  0
 27 26  1  1  0  0  0
 27 28  1  0  0  0  0
 28 24  1  1  0  0  0
M  END
>  <CHROM.1>
-65.61708024,44.98938852,167.13113940,168.56585722,-62.02345717,41.80696566
27.30547199,12.50224543,-0.53679123,-0.34542637,0.51286535

>  <Name>
ligand

>  <RI>
0

>  <Rbt.Current_Directory>
/home/itssahil/PROJECTS/Mol_Feturizer/New_Systems/rnas/1YLS

>  <Rbt.Executable>
rbdock ($Id: //depot/dev/client3/rdock/2013.1/src/exe/rbdock.cxx#4 $)

>  <Rbt.Library>
libRbt.so (2013.1, Build901 2013/11/27)

>  <Rbt.Parameter_File>
/export/apps/rDock/src/rDock_2013.1_src/data/scripts/dock_solv.prm

>  <Rbt.Receptor>
prm/blind_docking_60.prm

>  <SCORE>
-11.0045

>  <SCORE.INTER>
-9.27864

>  <SCORE.INTER.CONST>
1

>  <SCORE.INTER.POLAR>
0

>  <SCORE.INTER.ROT>
5

>  <SCORE.INTER.SOLV>
9.81952

>  <SCORE.INTER.VDW>
-16.3923

>  <SCORE.INTER.norm>
-0.33138

>  <SCORE.INTRA>
-1.72581

>  <SCORE.INTRA.DIHEDRAL>
-7.61652

>  <SCORE.INTRA.DIHEDRAL.0>
12.0148

>  <SCORE.INTRA.POLAR>
0

>  <SCORE.INTRA.POLAR.0>
0

>  <SCORE.INTRA.REPUL>
0

>  <SCORE.INTRA.REPUL.0>
0

>  <SCORE.INTRA.SOLV>
0.585838

>  <SCORE.INTRA.SOLV.lig_0>
-10.5235

>  <SCORE.INTRA.VDW>
1.78953

>  <SCORE.INTRA.VDW.0>
-1.38455

>  <SCORE.INTRA.norm>
-0.0616361

>  <SCORE.RESTR>
0

>  <SCORE.RESTR.CAVITY>
0

>  <SCORE.RESTR.norm>
0

>  <SCORE.SYSTEM>
0

>  <SCORE.SYSTEM.CONST>
0

>  <SCORE.SYSTEM.DIHEDRAL>
0

>  <SCORE.SYSTEM.SOLV>
0

>  <SCORE.SYSTEM.norm>
0

>  <SCORE.heavy>
28

>  <SCORE.norm>
-0.393016

>  <RMSD>
14.338

$$$$
ligand
 OpenBabel11021811413D
libRbt.so/2013.1/901 2013/11/27
 28 32  0  0  0  0  0  0  0  0999 V2000
   45.5633   23.0728   13.5853 C   0  0  0  0  0  0  0  0  0  0  0  0
   44.1446   23.4454   13.2026 C   0  0  0  0  0  0  0  0  0  0  0  0
   44.1103   24.3249   11.9616 C   0  0  0  0  0  0  0  0  0  0  0  0
   41.3662   30.1446   15.0147 O   0  0  0  0  0  0  0  0  0  0  0  0
   41.8114   30.1955   13.6581 C   0  0  0  0  0  0  0  0  0  0  0  0
   40.9689   25.3551   13.2423 C   0  0  0  0  0  0  0  0  0  0  0  0
   41.7116   25.0999   14.3880 C   0  0  0  0  0  0  0  0  0  0  0  0
   42.3228   26.1590   15.0640 C   0  0  0  0  0  0  0  0  0  0  0  0
   42.1908   27.4684   14.6002 C   0  0  0  0  0  0  0  0  0  0  0  0
   41.2262   29.0334   12.8452 C   0  0  1  0  0  0  0  0  0  0  0  0
   41.4274   27.6984   13.4796 C   0  0  0  0  0  0  0  0  0  0  0  0
   40.8314   26.6552   12.8171 C   0  0  0  0  0  0  0  0  0  0  0  0
   40.1166   27.0213   11.6092 C   0  0  1  0  0  0  0  0  0  0  0  0
   37.8531   28.0546   11.6194 C   0  0  0  0  0  0  0  0  0  0  0  0
   39.1858   28.0817   11.9537 C   0  0  0  0  0  0  0  0  0  0  0  0
   39.7418   29.1485   12.6072 C   0  0  0  0  0  0  0  0  0  0  0  0
   38.9542   30.2388   12.9463 C   0  0  0  0  0  0  0  0  0  0  0  0
   37.5937   30.2170   12.6317 C   0  0  0  0  0  0  0  0  0  0  0  0
   37.0468   29.1243   11.9718 C   0  0  0  0  0  0  0  0  0  0  0  0
   44.6988   25.6976   12.2604 C   0  0  0  0  0  0  0  0  0  0  0  0
   44.6913   26.5651   11.0073 C   0  0  0  0  0  0  0  0  0  0  0  0
   44.1310   29.0615   11.9725 O   0  0  0  0  0  0  0  0  0  0  0  0
   42.2048   25.6701   10.0046 O   0  0  0  0  0  0  0  0  0  0  0  0
   42.3324   26.7700   10.5166 C   0  0  0  0  0  0  0  0  0  0  0  0
   43.4141   27.2602   10.9835 N   0  0  0  0  0  0  0  0  0  0  0  0
   43.2492   28.4068   11.4797 C   0  0  0  0  0  0  0  0  0  0  0  0
   41.8315   28.8617   11.4430 C   0  0  1  0  0  0  0  0  0  0  0  0
   41.1733   27.6770   10.7309 C   0  0  2  0  0  0  0  0  0  0  0  0
  1  2  1  0  0  0  0
  2  3  1  0  0  0  0
  3 20  1  0  0  0  0
  4  5  1  0  0  0  0
  6  7  2  0  0  0  0
  6 12  1  0  0  0  0
  7  8  1  0  0  0  0
  8  9  2  0  0  0  0
  9 11  1  0  0  0  0
 10  5  1  1  0  0  0
 10 11  1  0  0  0  0
 10 16  1  0  0  0  0
 10 27  1  0  0  0  0
 11 12  2  0  0  0  0
 13 12  1  1  0  0  0
 13 15  1  0  0  0  0
 13 28  1  0  0  0  0
 14 15  2  0  0  0  0
 14 19  1  0  0  0  0
 15 16  1  0  0  0  0
 16 17  2  0  0  0  0
 17 18  1  0  0  0  0
 18 19  2  0  0  0  0
 20 21  1  0  0  0  0
 21 25  1  0  0  0  0
 22 26  2  0  0  0  0
 23 24  2  0  0  0  0
 24 25  1  0  0  0  0
 25 26  1  0  0  0  0
 27 26  1  1  0  0  0
 27 28  1  0  0  0  0
 28 24  1  1  0  0  0
M  END
>  <CHROM.1>
-68.44085730,-51.12018170,178.74264690,89.16081466,-84.33000514,41.76844370
27.33648051,12.46945715,-0.57992488,-0.46325461,0.62483504

>  <Name>
ligand

>  <RI>
0

>  <Rbt.Current_Directory>
/home/itssahil/PROJECTS/Mol_Feturizer/New_Systems/rnas/1YLS

>  <Rbt.Executable>
rbdock ($Id: //depot/dev/client3/rdock/2013.1/src/exe/rbdock.cxx#4 $)

>  <Rbt.Library>
libRbt.so (2013.1, Build901 2013/11/27)

>  <Rbt.Parameter_File>
/export/apps/rDock/src/rDock_2013.1_src/data/scripts/dock_solv.prm

>  <Rbt.Receptor>
prm/blind_docking_60.prm

>  <SCORE>
-12.1188

>  <SCORE.INTER>
-8.61145

>  <SCORE.INTER.CONST>
1

>  <SCORE.INTER.POLAR>
0

>  <SCORE.INTER.ROT>
5

>  <SCORE.INTER.SOLV>
9.53973

>  <SCORE.INTER.VDW>
-15.8542

>  <SCORE.INTER.norm>
-0.307552

>  <SCORE.INTRA>
-3.53837

>  <SCORE.INTRA.DIHEDRAL>
-6.18539

>  <SCORE.INTRA.DIHEDRAL.0>
12.0148

>  <SCORE.INTRA.POLAR>
0

>  <SCORE.INTRA.POLAR.0>
0

>  <SCORE.INTRA.REPUL>
0

>  <SCORE.INTRA.REPUL.0>
0

>  <SCORE.INTRA.SOLV>
0.224222

>  <SCORE.INTRA.SOLV.lig_0>
-10.5235

>  <SCORE.INTRA.VDW>
-0.557791

>  <SCORE.INTRA.VDW.0>
-1.38455

>  <SCORE.INTRA.norm>
-0.126371

>  <SCORE.RESTR>
0.0310136

>  <SCORE.RESTR.CAVITY>
0.0310136

>  <SCORE.RESTR.norm>
0.00110763

>  <SCORE.SYSTEM>
0

>  <SCORE.SYSTEM.CONST>
0

>  <SCORE.SYSTEM.DIHEDRAL>
0

>  <SCORE.SYSTEM.SOLV>
0

>  <SCORE.SYSTEM.norm>
0

>  <SCORE.heavy>
28

>  <SCORE.norm>
-0.432815

>  <RMSD>
14.389

$$$$
ligand
 OpenBabel11021811413D
libRbt.so/2013.1/901 2013/11/27
 28 32  0  0  0  0  0  0  0  0999 V2000
   43.3893   21.8999   11.6267 C   0  0  0  0  0  0  0  0  0  0  0  0
   43.7742   23.1693   12.3605 C   0  0  0  0  0  0  0  0  0  0  0  0
   43.9903   24.3295   11.4003 C   0  0  0  0  0  0  0  0  0  0  0  0
   42.8180   29.6804   14.5347 O   0  0  0  0  0  0  0  0  0  0  0  0
   41.5160   30.0142   14.0505 C   0  0  0  0  0  0  0  0  0  0  0  0
   40.7869   25.2458   13.0292 C   0  0  0  0  0  0  0  0  0  0  0  0
   41.4591   24.8677   14.1844 C   0  0  0  0  0  0  0  0  0  0  0  0
   42.0071   25.8479   15.0158 C   0  0  0  0  0  0  0  0  0  0  0  0
   41.8820   27.2006   14.6973 C   0  0  0  0  0  0  0  0  0  0  0  0
   41.0045   28.9478   13.0733 C   0  0  1  0  0  0  0  0  0  0  0  0
   41.1880   27.5506   13.5627 C   0  0  0  0  0  0  0  0  0  0  0  0
   40.6542   26.5848   12.7474 C   0  0  0  0  0  0  0  0  0  0  0  0
   40.0119   27.0806   11.5451 C   0  0  1  0  0  0  0  0  0  0  0  0
   37.7346   28.0829   11.5248 C   0  0  0  0  0  0  0  0  0  0  0  0
   39.0424   28.0847   11.9468 C   0  0  0  0  0  0  0  0  0  0  0  0
   39.5366   29.0746   12.7532 C   0  0  0  0  0  0  0  0  0  0  0  0
   38.7099   30.1105   13.1623 C   0  0  0  0  0  0  0  0  0  0  0  0
   37.3730   30.1114   12.7587 C   0  0  0  0  0  0  0  0  0  0  0  0
   36.8887   29.0966   11.9437 C   0  0  0  0  0  0  0  0  0  0  0  0
   44.4775   25.5627   12.1498 C   0  0  0  0  0  0  0  0  0  0  0  0
   44.6230   26.7430   11.1966 C   0  0  0  0  0  0  0  0  0  0  0  0
   43.9583   29.1056   12.4022 O   0  0  0  0  0  0  0  0  0  0  0  0
   42.2219   25.9446    9.9370 O   0  0  0  0  0  0  0  0  0  0  0  0
   42.2972   26.9793   10.5787 C   0  0  0  0  0  0  0  0  0  0  0  0
   43.3380   27.4233   11.1687 N   0  0  0  0  0  0  0  0  0  0  0  0
   43.1215   28.5033   11.7809 C   0  0  0  0  0  0  0  0  0  0  0  0
   41.7013   28.9450   11.7035 C   0  0  1  0  0  0  0  0  0  0  0  0
   41.1110   27.8438   10.8189 C   0  0  2  0  0  0  0  0  0  0  0  0
  1  2  1  0  0  0  0
  2  3  1  0  0  0  0
  3 20  1  0  0  0  0
  4  5  1  0  0  0  0
  6  7  2  0  0  0  0
  6 12  1  0  0  0  0
  7  8  1  0  0  0  0
  8  9  2  0  0  0  0
  9 11  1  0  0  0  0
 10  5  1  1  0  0  0
 10 11  1  0  0  0  0
 10 16  1  0  0  0  0
 10 27  1  0  0  0  0
 11 12  2  0  0  0  0
 13 12  1  1  0  0  0
 13 15  1  0  0  0  0
 13 28  1  0  0  0  0
 14 15  2  0  0  0  0
 14 19  1  0  0  0  0
 15 16  1  0  0  0  0
 16 17  2  0  0  0  0
 17 18  1  0  0  0  0
 18 19  2  0  0  0  0
 20 21  1  0  0  0  0
 21 25  1  0  0  0  0
 22 26  2  0  0  0  0
 23 24  2  0  0  0  0
 24 25  1  0  0  0  0
 25 26  1  0  0  0  0
 27 26  1  1  0  0  0
 27 28  1  0  0  0  0
 28 24  1  1  0  0  0
M  END
>  <CHROM.1>
-175.72034137,46.82460378,-177.04448885,89.06196665,-73.61337047,41.58447631
27.24346189,12.38497263,0.81405328,0.08790802,-2.88776604

>  <Name>
ligand

>  <RI>
0

>  <Rbt.Current_Directory>
/home/itssahil/PROJECTS/Mol_Feturizer/New_Systems/rnas/1YLS

>  <Rbt.Executable>
rbdock ($Id: //depot/dev/client3/rdock/2013.1/src/exe/rbdock.cxx#4 $)

>  <Rbt.Library>
libRbt.so (2013.1, Build901 2013/11/27)

>  <Rbt.Parameter_File>
/export/apps/rDock/src/rDock_2013.1_src/data/scripts/dock_solv.prm

>  <Rbt.Receptor>
prm/blind_docking_100.prm

>  <SCORE>
-13.6732

>  <SCORE.INTER>
-10.8403

>  <SCORE.INTER.CONST>
1

>  <SCORE.INTER.POLAR>
0

>  <SCORE.INTER.ROT>
5

>  <SCORE.INTER.SOLV>
11.1859

>  <SCORE.INTER.VDW>
-17.8888

>  <SCORE.INTER.norm>
-0.387155

>  <SCORE.INTRA>
-2.8329

>  <SCORE.INTRA.DIHEDRAL>
-6.21639

>  <SCORE.INTRA.DIHEDRAL.0>
12.0148

>  <SCORE.INTRA.POLAR>
0

>  <SCORE.INTRA.POLAR.0>
0

>  <SCORE.INTRA.REPUL>
0

>  <SCORE.INTRA.REPUL.0>
0

>  <SCORE.INTRA.SOLV>
0.923824

>  <SCORE.INTRA.SOLV.lig_0>
-10.5235

>  <SCORE.INTRA.VDW>
-0.186617

>  <SCORE.INTRA.VDW.0>
-1.38455

>  <SCORE.INTRA.norm>
-0.101175

>  <SCORE.RESTR>
0

>  <SCORE.RESTR.CAVITY>
0

>  <SCORE.RESTR.norm>
0

>  <SCORE.SYSTEM>
0

>  <SCORE.SYSTEM.CONST>
0

>  <SCORE.SYSTEM.DIHEDRAL>
0

>  <SCORE.SYSTEM.SOLV>
0

>  <SCORE.SYSTEM.norm>
0

>  <SCORE.heavy>
28

>  <SCORE.norm>
-0.48833

>  <RMSD>
14.419

$$$$
ligand
 OpenBabel11021811413D
libRbt.so/2013.1/901 2013/11/27
 28 32  0  0  0  0  0  0  0  0999 V2000
   43.9418   22.3780   11.7656 C   0  0  0  0  0  0  0  0  0  0  0  0
   45.2005   23.0506   12.2765 C   0  0  0  0  0  0  0  0  0  0  0  0
   45.4563   24.3738   11.5704 C   0  0  0  0  0  0  0  0  0  0  0  0
   42.8242   29.6483   14.5280 O   0  0  0  0  0  0  0  0  0  0  0  0
   41.5345   30.0024   14.0258 C   0  0  0  0  0  0  0  0  0  0  0  0
   40.7691   25.2325   13.0389 C   0  0  0  0  0  0  0  0  0  0  0  0
   41.4459   24.8574   14.1924 C   0  0  0  0  0  0  0  0  0  0  0  0
   42.0051   25.8392   15.0143 C   0  0  0  0  0  0  0  0  0  0  0  0
   41.8867   27.1907   14.6880 C   0  0  0  0  0  0  0  0  0  0  0  0
   41.0104   28.9332   13.0584 C   0  0  1  0  0  0  0  0  0  0  0  0
   41.1881   27.5380   13.5555 C   0  0  0  0  0  0  0  0  0  0  0  0
   40.6431   26.5705   12.7495 C   0  0  0  0  0  0  0  0  0  0  0  0
   39.9968   27.0628   11.5479 C   0  0  1  0  0  0  0  0  0  0  0  0
   37.7258   28.0795   11.5351 C   0  0  0  0  0  0  0  0  0  0  0  0
   39.0361   28.0756   11.9491 C   0  0  0  0  0  0  0  0  0  0  0  0
   39.5415   29.0673   12.7463 C   0  0  0  0  0  0  0  0  0  0  0  0
   38.7237   30.1110   13.1539 C   0  0  0  0  0  0  0  0  0  0  0  0
   37.3844   30.1179   12.7583 C   0  0  0  0  0  0  0  0  0  0  0  0
   36.8888   29.1012   11.9526 C   0  0  0  0  0  0  0  0  0  0  0  0
   44.3939   25.3978   11.9482 C   0  0  0  0  0  0  0  0  0  0  0  0
   44.6035   26.6937   11.1739 C   0  0  0  0  0  0  0  0  0  0  0  0
   43.9610   29.0680   12.3686 O   0  0  0  0  0  0  0  0  0  0  0  0
   42.1898   25.9027    9.9338 O   0  0  0  0  0  0  0  0  0  0  0  0
   42.2755   26.9409   10.5685 C   0  0  0  0  0  0  0  0  0  0  0  0
   43.3226   27.3820   11.1494 N   0  0  0  0  0  0  0  0  0  0  0  0
   43.1167   28.4671   11.7561 C   0  0  0  0  0  0  0  0  0  0  0  0
   41.6988   28.9174   11.6844 C   0  0  1  0  0  0  0  0  0  0  0  0
   41.0963   27.8145   10.8104 C   0  0  2  0  0  0  0  0  0  0  0  0
  1  2  1  0  0  0  0
  2  3  1  0  0  0  0
  3 20  1  0  0  0  0
  4  5  1  0  0  0  0
  6  7  2  0  0  0  0
  6 12  1  0  0  0  0
  7  8  1  0  0  0  0
  8  9  2  0  0  0  0
  9 11  1  0  0  0  0
 10  5  1  1  0  0  0
 10 11  1  0  0  0  0
 10 16  1  0  0  0  0
 10 27  1  0  0  0  0
 11 12  2  0  0  0  0
 13 12  1  1  0  0  0
 13 15  1  0  0  0  0
 13 28  1  0  0  0  0
 14 15  2  0  0  0  0
 14 19  1  0  0  0  0
 15 16  1  0  0  0  0
 16 17  2  0  0  0  0
 17 18  1  0  0  0  0
 18 19  2  0  0  0  0
 20 21  1  0  0  0  0
 21 25  1  0  0  0  0
 22 26  2  0  0  0  0
 23 24  2  0  0  0  0
 24 25  1  0  0  0  0
 25 26  1  0  0  0  0
 27 26  1  1  0  0  0
 27 28  1  0  0  0  0
 28 24  1  1  0  0  0
M  END
>  <CHROM.1>
67.89779076,45.49345373,-176.51901630,157.26379704,-64.47719537,41.71042585
27.23701368,12.37954878,0.71945548,0.11587094,-2.84608139

>  <Name>
ligand

>  <RI>
0

>  <Rbt.Current_Directory>
/home/itssahil/PROJECTS/Mol_Feturizer/New_Systems/rnas/1YLS

>  <Rbt.Executable>
rbdock ($Id: //depot/dev/client3/rdock/2013.1/src/exe/rbdock.cxx#4 $)

>  <Rbt.Library>
libRbt.so (2013.1, Build901 2013/11/27)

>  <Rbt.Parameter_File>
/export/apps/rDock/src/rDock_2013.1_src/data/scripts/dock_solv.prm

>  <Rbt.Receptor>
prm/blind_docking_100.prm

>  <SCORE>
-12.2562

>  <SCORE.INTER>
-10.5379

>  <SCORE.INTER.CONST>
1

>  <SCORE.INTER.POLAR>
0

>  <SCORE.INTER.ROT>
5

>  <SCORE.INTER.SOLV>
10.1935

>  <SCORE.INTER.VDW>
-17.3565

>  <SCORE.INTER.norm>
-0.376355

>  <SCORE.INTRA>
-1.71825

>  <SCORE.INTRA.DIHEDRAL>
-6.87405

>  <SCORE.INTRA.DIHEDRAL.0>
12.0148

>  <SCORE.INTRA.POLAR>
0

>  <SCORE.INTRA.POLAR.0>
0

>  <SCORE.INTRA.REPUL>
0

>  <SCORE.INTRA.REPUL.0>
0

>  <SCORE.INTRA.SOLV>
0.637328

>  <SCORE.INTRA.SOLV.lig_0>
-10.5235

>  <SCORE.INTRA.VDW>
1.40011

>  <SCORE.INTRA.VDW.0>
-1.38455

>  <SCORE.INTRA.norm>
-0.0613659

>  <SCORE.RESTR>
0

>  <SCORE.RESTR.CAVITY>
0

>  <SCORE.RESTR.norm>
0

>  <SCORE.SYSTEM>
0

>  <SCORE.SYSTEM.CONST>
0

>  <SCORE.SYSTEM.DIHEDRAL>
0

>  <SCORE.SYSTEM.SOLV>
0

>  <SCORE.SYSTEM.norm>
0

>  <SCORE.heavy>
28

>  <SCORE.norm>
-0.43772

>  <RMSD>
14.419

$$$$
ligand
 OpenBabel11021811413D
libRbt.so/2013.1/901 2013/11/27
 28 32  0  0  0  0  0  0  0  0999 V2000
   45.1407   23.2576   14.0112 C   0  0  0  0  0  0  0  0  0  0  0  0
   45.5059   23.1899   12.5415 C   0  0  0  0  0  0  0  0  0  0  0  0
   45.7550   24.5737   11.9604 C   0  0  0  0  0  0  0  0  0  0  0  0
   41.5502   31.3873   13.2625 O   0  0  0  0  0  0  0  0  0  0  0  0
   41.6562   30.1119   13.8976 C   0  0  0  0  0  0  0  0  0  0  0  0
   40.8783   25.3023   13.1390 C   0  0  0  0  0  0  0  0  0  0  0  0
   41.5760   24.9794   14.2958 C   0  0  0  0  0  0  0  0  0  0  0  0
   42.1488   25.9972   15.0628 C   0  0  0  0  0  0  0  0  0  0  0  0
   42.0231   27.3327   14.6785 C   0  0  0  0  0  0  0  0  0  0  0  0
   41.1160   29.0003   12.9886 C   0  0  1  0  0  0  0  0  0  0  0  0
   41.3040   27.6288   13.5443 C   0  0  0  0  0  0  0  0  0  0  0  0
   40.7457   26.6261   12.7924 C   0  0  0  0  0  0  0  0  0  0  0  0
   40.0774   27.0639   11.5818 C   0  0  1  0  0  0  0  0  0  0  0  0
   37.8054   28.0785   11.5642 C   0  0  0  0  0  0  0  0  0  0  0  0
   39.1230   28.0934   11.9544 C   0  0  0  0  0  0  0  0  0  0  0  0
   39.6415   29.1199   12.6972 C   0  0  0  0  0  0  0  0  0  0  0  0
   38.8301   30.1806   13.0723 C   0  0  0  0  0  0  0  0  0  0  0  0
   37.4840   30.1695   12.7009 C   0  0  0  0  0  0  0  0  0  0  0  0
   36.9750   29.1176   11.9505 C   0  0  0  0  0  0  0  0  0  0  0  0
   44.4541   25.3613   11.8734 C   0  0  0  0  0  0  0  0  0  0  0  0
   44.6770   26.6796   11.1419 C   0  0  0  0  0  0  0  0  0  0  0  0
   44.0536   29.1048   12.2405 O   0  0  0  0  0  0  0  0  0  0  0  0
   42.2424   25.8333    9.9820 O   0  0  0  0  0  0  0  0  0  0  0  0
   42.3383   26.8989   10.5680 C   0  0  0  0  0  0  0  0  0  0  0  0
   43.3952   27.3658   11.1097 N   0  0  0  0  0  0  0  0  0  0  0  0
   43.1990   28.4770   11.6708 C   0  0  0  0  0  0  0  0  0  0  0  0
   41.7797   28.9232   11.6045 C   0  0  1  0  0  0  0  0  0  0  0  0
   41.1627   27.7821   10.7917 C   0  0  2  0  0  0  0  0  0  0  0  0
  1  2  1  0  0  0  0
  2  3  1  0  0  0  0
  3 20  1  0  0  0  0
  4  5  1  0  0  0  0
  6  7  2  0  0  0  0
  6 12  1  0  0  0  0
  7  8  1  0  0  0  0
  8  9  2  0  0  0  0
  9 11  1  0  0  0  0
 10  5  1  1  0  0  0
 10 11  1  0  0  0  0
 10 16  1  0  0  0  0
 10 27  1  0  0  0  0
 11 12  2  0  0  0  0
 13 12  1  1  0  0  0
 13 15  1  0  0  0  0
 13 28  1  0  0  0  0
 14 15  2  0  0  0  0
 14 19  1  0  0  0  0
 15 16  1  0  0  0  0
 16 17  2  0  0  0  0
 17 18  1  0  0  0  0
 18 19  2  0  0  0  0
 20 21  1  0  0  0  0
 21 25  1  0  0  0  0
 22 26  2  0  0  0  0
 23 24  2  0  0  0  0
 24 25  1  0  0  0  0
 25 26  1  0  0  0  0
 27 26  1  1  0  0  0
 27 28  1  0  0  0  0
 28 24  1  1  0  0  0
M  END
>  <CHROM.1>
-69.57214673,175.06313943,-173.32387696,-179.73954975,-59.67235649,41.80482536
27.39019203,12.42397669,0.69965937,-0.11543901,3.02226813

>  <Name>
ligand

>  <RI>
0

>  <Rbt.Current_Directory>
/home/itssahil/PROJECTS/Mol_Feturizer/New_Systems/rnas/1YLS

>  <Rbt.Executable>
rbdock ($Id: //depot/dev/client3/rdock/2013.1/src/exe/rbdock.cxx#4 $)

>  <Rbt.Library>
libRbt.so (2013.1, Build901 2013/11/27)

>  <Rbt.Parameter_File>
/export/apps/rDock/src/rDock_2013.1_src/data/scripts/dock_solv.prm

>  <Rbt.Receptor>
prm/blind_docking_60.prm

>  <SCORE>
-13.6263

>  <SCORE.INTER>
-9.84806

>  <SCORE.INTER.CONST>
1

>  <SCORE.INTER.POLAR>
0

>  <SCORE.INTER.ROT>
5

>  <SCORE.INTER.SOLV>
8.59196

>  <SCORE.INTER.VDW>
-16.3627

>  <SCORE.INTER.norm>
-0.351716

>  <SCORE.INTRA>
-3.77819

>  <SCORE.INTRA.DIHEDRAL>
-8.97647

>  <SCORE.INTRA.DIHEDRAL.0>
12.0148

>  <SCORE.INTRA.POLAR>
0

>  <SCORE.INTRA.POLAR.0>
0

>  <SCORE.INTRA.REPUL>
0

>  <SCORE.INTRA.REPUL.0>
0

>  <SCORE.INTRA.SOLV>
0.188406

>  <SCORE.INTRA.SOLV.lig_0>
-10.5235

>  <SCORE.INTRA.VDW>
0.615841

>  <SCORE.INTRA.VDW.0>
-1.38455

>  <SCORE.INTRA.norm>
-0.134935

>  <SCORE.RESTR>
0

>  <SCORE.RESTR.CAVITY>
0

>  <SCORE.RESTR.norm>
0

>  <SCORE.SYSTEM>
0

>  <SCORE.SYSTEM.CONST>
0

>  <SCORE.SYSTEM.DIHEDRAL>
0

>  <SCORE.SYSTEM.SOLV>
0

>  <SCORE.SYSTEM.norm>
0

>  <SCORE.heavy>
28

>  <SCORE.norm>
-0.486652

>  <RMSD>
14.419

$$$$
ligand
 OpenBabel11021811413D
libRbt.so/2013.1/901 2013/11/27
 28 32  0  0  0  0  0  0  0  0999 V2000
   45.3317   23.1895   13.7768 C   0  0  0  0  0  0  0  0  0  0  0  0
   45.5543   23.0438   12.2845 C   0  0  0  0  0  0  0  0  0  0  0  0
   45.7762   24.3922   11.6155 C   0  0  0  0  0  0  0  0  0  0  0  0
   41.3054   30.1755   15.0117 O   0  0  0  0  0  0  0  0  0  0  0  0
   41.8147   30.1879   13.6769 C   0  0  0  0  0  0  0  0  0  0  0  0
   41.0331   25.3377   13.2559 C   0  0  0  0  0  0  0  0  0  0  0  0
   41.7770   25.0909   14.4026 C   0  0  0  0  0  0  0  0  0  0  0  0
   42.3740   26.1569   15.0805 C   0  0  0  0  0  0  0  0  0  0  0  0
   42.2264   27.4650   14.6175 C   0  0  0  0  0  0  0  0  0  0  0  0
   41.2454   29.0194   12.8621 C   0  0  1  0  0  0  0  0  0  0  0  0
   41.4620   27.6864   13.4959 C   0  0  0  0  0  0  0  0  0  0  0  0
   40.8802   26.6364   12.8315 C   0  0  0  0  0  0  0  0  0  0  0  0
   40.1629   26.9946   11.6227 C   0  0  1  0  0  0  0  0  0  0  0  0
   37.8867   27.9997   11.6299 C   0  0  0  0  0  0  0  0  0  0  0  0
   39.2184   28.0430   11.9664 C   0  0  0  0  0  0  0  0  0  0  0  0
   39.7601   29.1161   12.6218 C   0  0  0  0  0  0  0  0  0  0  0  0
   38.9584   30.1962   12.9604 C   0  0  0  0  0  0  0  0  0  0  0  0
   37.5988   30.1578   12.6435 C   0  0  0  0  0  0  0  0  0  0  0  0
   37.0666   29.0589   11.9819 C   0  0  0  0  0  0  0  0  0  0  0  0
   44.5169   25.2452   11.6968 C   0  0  0  0  0  0  0  0  0  0  0  0
   44.7439   26.5958   11.0281 C   0  0  0  0  0  0  0  0  0  0  0  0
   44.1510   29.0842   11.9944 O   0  0  0  0  0  0  0  0  0  0  0  0
   42.2704   25.6708   10.0205 O   0  0  0  0  0  0  0  0  0  0  0  0
   42.3835   26.7717   10.5336 C   0  0  0  0  0  0  0  0  0  0  0  0
   43.4582   27.2750   11.0027 N   0  0  0  0  0  0  0  0  0  0  0  0
   43.2782   28.4190   11.4995 C   0  0  0  0  0  0  0  0  0  0  0  0
   41.8550   28.8563   11.4608 C   0  0  1  0  0  0  0  0  0  0  0  0
   41.2129   27.6641   10.7467 C   0  0  2  0  0  0  0  0  0  0  0  0
  1  2  1  0  0  0  0
  2  3  1  0  0  0  0
  3 20  1  0  0  0  0
  4  5  1  0  0  0  0
  6  7  2  0  0  0  0
  6 12  1  0  0  0  0
  7  8  1  0  0  0  0
  8  9  2  0  0  0  0
  9 11  1  0  0  0  0
 10  5  1  1  0  0  0
 10 11  1  0  0  0  0
 10 16  1  0  0  0  0
 10 27  1  0  0  0  0
 11 12  2  0  0  0  0
 13 12  1  1  0  0  0
 13 15  1  0  0  0  0
 13 28  1  0  0  0  0
 14 15  2  0  0  0  0
 14 19  1  0  0  0  0
 15 16  1  0  0  0  0
 16 17  2  0  0  0  0
 17 18  1  0  0  0  0
 18 19  2  0  0  0  0
 20 21  1  0  0  0  0
 21 25  1  0  0  0  0
 22 26  2  0  0  0  0
 23 24  2  0  0  0  0
 24 25  1  0  0  0  0
 25 26  1  0  0  0  0
 27 26  1  1  0  0  0
 27 28  1  0  0  0  0
 28 24  1  1  0  0  0
M  END
>  <CHROM.1>
-65.71072893,-54.55541329,179.89550973,173.10743964,-52.69293208,41.89532694
27.30170925,12.41999409,-0.39032385,-0.59116805,1.03794394

>  <Name>
ligand

>  <RI>
0

>  <Rbt.Current_Directory>
/home/itssahil/PROJECTS/Mol_Feturizer/New_Systems/rnas/1YLS

>  <Rbt.Executable>
rbdock ($Id: //depot/dev/client3/rdock/2013.1/src/exe/rbdock.cxx#4 $)

>  <Rbt.Library>
libRbt.so (2013.1, Build901 2013/11/27)

>  <Rbt.Parameter_File>
/export/apps/rDock/src/rDock_2013.1_src/data/scripts/dock_solv.prm

>  <Rbt.Receptor>
prm/blind_docking_80.prm

>  <SCORE>
-12.8507

>  <SCORE.INTER>
-9.68936

>  <SCORE.INTER.CONST>
1

>  <SCORE.INTER.POLAR>
0

>  <SCORE.INTER.ROT>
5

>  <SCORE.INTER.SOLV>
9.18047

>  <SCORE.INTER.VDW>
-16.4531

>  <SCORE.INTER.norm>
-0.346048

>  <SCORE.INTRA>
-3.2124

>  <SCORE.INTRA.DIHEDRAL>
-9.23137

>  <SCORE.INTRA.DIHEDRAL.0>
12.0148

>  <SCORE.INTRA.POLAR>
0

>  <SCORE.INTRA.POLAR.0>
0

>  <SCORE.INTRA.REPUL>
0

>  <SCORE.INTRA.REPUL.0>
0

>  <SCORE.INTRA.SOLV>
-0.0038186

>  <SCORE.INTRA.SOLV.lig_0>
-10.5235

>  <SCORE.INTRA.VDW>
1.4052

>  <SCORE.INTRA.VDW.0>
-1.38455

>  <SCORE.INTRA.norm>
-0.114728

>  <SCORE.RESTR>
0.0510353

>  <SCORE.RESTR.CAVITY>
0.0510353

>  <SCORE.RESTR.norm>
0.00182269

>  <SCORE.SYSTEM>
0

>  <SCORE.SYSTEM.CONST>
0

>  <SCORE.SYSTEM.DIHEDRAL>
0

>  <SCORE.SYSTEM.SOLV>
0

>  <SCORE.SYSTEM.norm>
0

>  <SCORE.heavy>
28

>  <SCORE.norm>
-0.458954

>  <RMSD>
14.436

$$$$
ligand
 OpenBabel11021811413D
libRbt.so/2013.1/901 2013/11/27
 28 32  0  0  0  0  0  0  0  0999 V2000
   47.3820   25.1829   11.4605 C   0  0  0  0  0  0  0  0  0  0  0  0
   46.4882   24.0888   12.0102 C   0  0  0  0  0  0  0  0  0  0  0  0
   45.1896   24.6519   12.5680 C   0  0  0  0  0  0  0  0  0  0  0  0
   41.2818   30.0871   15.1142 O   0  0  0  0  0  0  0  0  0  0  0  0
   41.7761   30.1536   13.7755 C   0  0  0  0  0  0  0  0  0  0  0  0
   40.8137   25.3554   13.1730 C   0  0  0  0  0  0  0  0  0  0  0  0
   41.5314   25.0398   14.3196 C   0  0  0  0  0  0  0  0  0  0  0  0
   42.1594   26.0574   15.0424 C   0  0  0  0  0  0  0  0  0  0  0  0
   42.0690   27.3855   14.6242 C   0  0  0  0  0  0  0  0  0  0  0  0
   41.1736   29.0374   12.9126 C   0  0  1  0  0  0  0  0  0  0  0  0
   41.3297   27.6757   13.5014 C   0  0  0  0  0  0  0  0  0  0  0  0
   40.7171   26.6731   12.7930 C   0  0  0  0  0  0  0  0  0  0  0  0
   40.0313   27.1010   11.5886 C   0  0  1  0  0  0  0  0  0  0  0  0
   37.7958   28.1934   11.6024 C   0  0  0  0  0  0  0  0  0  0  0  0
   39.1233   28.1729   11.9572 C   0  0  0  0  0  0  0  0  0  0  0  0
   39.6967   29.2005   12.6569 C   0  0  0  0  0  0  0  0  0  0  0  0
   38.9326   30.2986   13.0234 C   0  0  0  0  0  0  0  0  0  0  0  0
   37.5772   30.3245   12.6881 C   0  0  0  0  0  0  0  0  0  0  0  0
   37.0123   29.2710   11.9812 C   0  0  0  0  0  0  0  0  0  0  0  0
   44.2751   25.1106   11.4395 C   0  0  0  0  0  0  0  0  0  0  0  0
   44.6014   26.5443   11.0386 C   0  0  0  0  0  0  0  0  0  0  0  0
   44.0915   29.0188   12.0847 O   0  0  0  0  0  0  0  0  0  0  0  0
   42.1084   25.7525    9.9675 O   0  0  0  0  0  0  0  0  0  0  0  0
   42.2567   26.8296   10.5206 C   0  0  0  0  0  0  0  0  0  0  0  0
   43.3434   27.2738   11.0209 N   0  0  0  0  0  0  0  0  0  0  0  0
   43.2007   28.4059   11.5556 C   0  0  0  0  0  0  0  0  0  0  0  0
   41.7962   28.8996   11.5142 C   0  0  1  0  0  0  0  0  0  0  0  0
   41.1186   27.7591   10.7503 C   0  0  2  0  0  0  0  0  0  0  0  0
  1  2  1  0  0  0  0
  2  3  1  0  0  0  0
  3 20  1  0  0  0  0
  4  5  1  0  0  0  0
  6  7  2  0  0  0  0
  6 12  1  0  0  0  0
  7  8  1  0  0  0  0
  8  9  2  0  0  0  0
  9 11  1  0  0  0  0
 10  5  1  1  0  0  0
 10 11  1  0  0  0  0
 10 16  1  0  0  0  0
 10 27  1  0  0  0  0
 11 12  2  0  0  0  0
 13 12  1  1  0  0  0
 13 15  1  0  0  0  0
 13 28  1  0  0  0  0
 14 15  2  0  0  0  0
 14 19  1  0  0  0  0
 15 16  1  0  0  0  0
 16 17  2  0  0  0  0
 17 18  1  0  0  0  0
 18 19  2  0  0  0  0
 20 21  1  0  0  0  0
 21 25  1  0  0  0  0
 22 26  2  0  0  0  0
 23 24  2  0  0  0  0
 24 25  1  0  0  0  0
 25 26  1  0  0  0  0
 27 26  1  1  0  0  0
 27 28  1  0  0  0  0
 28 24  1  1  0  0  0
M  END
>  <CHROM.1>
72.46579927,-52.61504660,-86.45579126,-130.13786612,-43.61384570,41.89366466
27.45560778,12.35182707,-0.46605249,-0.34685939,0.83659273

>  <Name>
ligand

>  <RI>
0

>  <Rbt.Current_Directory>
/home/itssahil/PROJECTS/Mol_Feturizer/New_Systems/rnas/1YLS

>  <Rbt.Executable>
rbdock ($Id: //depot/dev/client3/rdock/2013.1/src/exe/rbdock.cxx#4 $)

>  <Rbt.Library>
libRbt.so (2013.1, Build901 2013/11/27)

>  <Rbt.Parameter_File>
/export/apps/rDock/src/rDock_2013.1_src/data/scripts/dock_solv.prm

>  <Rbt.Receptor>
prm/blind_docking_80.prm

>  <SCORE>
-5.26882

>  <SCORE.INTER>
-8.07039

>  <SCORE.INTER.CONST>
1

>  <SCORE.INTER.POLAR>
0

>  <SCORE.INTER.ROT>
5

>  <SCORE.INTER.SOLV>
9.30029

>  <SCORE.INTER.VDW>
-15.4137

>  <SCORE.INTER.norm>
-0.288228

>  <SCORE.INTRA>
2.44798

>  <SCORE.INTRA.DIHEDRAL>
-1.26461

>  <SCORE.INTRA.DIHEDRAL.0>
12.0148

>  <SCORE.INTRA.POLAR>
0

>  <SCORE.INTRA.POLAR.0>
0

>  <SCORE.INTRA.REPUL>
0

>  <SCORE.INTRA.REPUL.0>
0

>  <SCORE.INTRA.SOLV>
0.0518305

>  <SCORE.INTRA.SOLV.lig_0>
-10.5235

>  <SCORE.INTRA.VDW>
3.05437

>  <SCORE.INTRA.VDW.0>
-1.38455

>  <SCORE.INTRA.norm>
0.0874278

>  <SCORE.RESTR>
0.35359

>  <SCORE.RESTR.CAVITY>
0.35359

>  <SCORE.RESTR.norm>
0.0126282

>  <SCORE.SYSTEM>
0

>  <SCORE.SYSTEM.CONST>
0

>  <SCORE.SYSTEM.DIHEDRAL>
0

>  <SCORE.SYSTEM.SOLV>
0

>  <SCORE.SYSTEM.norm>
0

>  <SCORE.heavy>
28

>  <SCORE.norm>
-0.188172

>  <RMSD>
14.436

$$$$
ligand
 OpenBabel11021811413D
libRbt.so/2013.1/901 2013/11/27
 28 32  0  0  0  0  0  0  0  0999 V2000
   45.3945   23.0775   13.6969 C   0  0  0  0  0  0  0  0  0  0  0  0
   45.4142   23.0478   12.1814 C   0  0  0  0  0  0  0  0  0  0  0  0
   45.6743   24.4279   11.5961 C   0  0  0  0  0  0  0  0  0  0  0  0
   41.5370   31.3780   13.3307 O   0  0  0  0  0  0  0  0  0  0  0  0
   41.6900   30.0904   13.9305 C   0  0  0  0  0  0  0  0  0  0  0  0
   40.9020   25.2904   13.1237 C   0  0  0  0  0  0  0  0  0  0  0  0
   41.6037   24.9541   14.2743 C   0  0  0  0  0  0  0  0  0  0  0  0
   42.1811   25.9628   15.0498 C   0  0  0  0  0  0  0  0  0  0  0  0
   42.0559   27.3025   14.6803 C   0  0  0  0  0  0  0  0  0  0  0  0
   41.1446   28.9894   13.0118 C   0  0  1  0  0  0  0  0  0  0  0  0
   41.3327   27.6117   13.5521 C   0  0  0  0  0  0  0  0  0  0  0  0
   40.7700   26.6179   12.7918 C   0  0  0  0  0  0  0  0  0  0  0  0
   40.0976   27.0697   11.5885 C   0  0  1  0  0  0  0  0  0  0  0  0
   37.8272   28.0876   11.5906 C   0  0  0  0  0  0  0  0  0  0  0  0
   39.1463   28.0965   11.9758 C   0  0  0  0  0  0  0  0  0  0  0  0
   39.6692   29.1143   12.7275 C   0  0  0  0  0  0  0  0  0  0  0  0
   38.8609   30.1721   13.1171 C   0  0  0  0  0  0  0  0  0  0  0  0
   37.5133   30.1669   12.7508 C   0  0  0  0  0  0  0  0  0  0  0  0
   36.9999   29.1238   11.9913 C   0  0  0  0  0  0  0  0  0  0  0  0
   44.4565   25.3250   11.7754 C   0  0  0  0  0  0  0  0  0  0  0  0
   44.6949   26.6833   11.1266 C   0  0  0  0  0  0  0  0  0  0  0  0
   44.0795   29.0976   12.2534 O   0  0  0  0  0  0  0  0  0  0  0  0
   42.2545   25.8530    9.9673 O   0  0  0  0  0  0  0  0  0  0  0  0
   42.3544   26.9121   10.5642 C   0  0  0  0  0  0  0  0  0  0  0  0
   43.4141   27.3717   11.1067 N   0  0  0  0  0  0  0  0  0  0  0  0
   43.2217   28.4771   11.6804 C   0  0  0  0  0  0  0  0  0  0  0  0
   41.8028   28.9261   11.6244 C   0  0  1  0  0  0  0  0  0  0  0  0
   41.1810   27.7947   10.8019 C   0  0  2  0  0  0  0  0  0  0  0  0
  1  2  1  0  0  0  0
  2  3  1  0  0  0  0
  3 20  1  0  0  0  0
  4  5  1  0  0  0  0
  6  7  2  0  0  0  0
  6 12  1  0  0  0  0
  7  8  1  0  0  0  0
  8  9  2  0  0  0  0
  9 11  1  0  0  0  0
 10  5  1  1  0  0  0
 10 11  1  0  0  0  0
 10 16  1  0  0  0  0
 10 27  1  0  0  0  0
 11 12  2  0  0  0  0
 13 12  1  1  0  0  0
 13 15  1  0  0  0  0
 13 28  1  0  0  0  0
 14 15  2  0  0  0  0
 14 19  1  0  0  0  0
 15 16  1  0  0  0  0
 16 17  2  0  0  0  0
 17 18  1  0  0  0  0
 18 19  2  0  0  0  0
 20 21  1  0  0  0  0
 21 25  1  0  0  0  0
 22 26  2  0  0  0  0
 23 24  2  0  0  0  0
 24 25  1  0  0  0  0
 25 26  1  0  0  0  0
 27 26  1  1  0  0  0
 27 28  1  0  0  0  0
 28 24  1  1  0  0  0
M  END
>  <CHROM.1>
-71.94062094,177.26910522,-177.17637620,168.94942926,-56.58697303,41.82765338
27.36679197,12.39097759,0.71596565,-0.10894241,3.08959024

>  <Name>
ligand

>  <RI>
0

>  <Rbt.Current_Directory>
/home/itssahil/PROJECTS/Mol_Feturizer/New_Systems/rnas/1YLS

>  <Rbt.Executable>
rbdock ($Id: //depot/dev/client3/rdock/2013.1/src/exe/rbdock.cxx#4 $)

>  <Rbt.Library>
libRbt.so (2013.1, Build901 2013/11/27)

>  <Rbt.Parameter_File>
/export/apps/rDock/src/rDock_2013.1_src/data/scripts/dock_solv.prm

>  <Rbt.Receptor>
prm/blind_docking_80.prm

>  <SCORE>
-13.3477

>  <SCORE.INTER>
-9.96982

>  <SCORE.INTER.CONST>
1

>  <SCORE.INTER.POLAR>
0

>  <SCORE.INTER.ROT>
5

>  <SCORE.INTER.SOLV>
8.42051

>  <SCORE.INTER.VDW>
-16.3867

>  <SCORE.INTER.norm>
-0.356065

>  <SCORE.INTRA>
-3.37786

>  <SCORE.INTRA.DIHEDRAL>
-8.55599

>  <SCORE.INTRA.DIHEDRAL.0>
12.0148

>  <SCORE.INTRA.POLAR>
0

>  <SCORE.INTRA.POLAR.0>
0

>  <SCORE.INTRA.REPUL>
0

>  <SCORE.INTRA.REPUL.0>
0

>  <SCORE.INTRA.SOLV>
0.199528

>  <SCORE.INTRA.SOLV.lig_0>
-10.5235

>  <SCORE.INTRA.VDW>
0.800366

>  <SCORE.INTRA.VDW.0>
-1.38455

>  <SCORE.INTRA.norm>
-0.120638

>  <SCORE.RESTR>
0

>  <SCORE.RESTR.CAVITY>
0

>  <SCORE.RESTR.norm>
0

>  <SCORE.SYSTEM>
0

>  <SCORE.SYSTEM.CONST>
0

>  <SCORE.SYSTEM.DIHEDRAL>
0

>  <SCORE.SYSTEM.SOLV>
0

>  <SCORE.SYSTEM.norm>
0

>  <SCORE.heavy>
28

>  <SCORE.norm>
-0.476703

>  <RMSD>
14.443

$$$$
ligand
 OpenBabel11021811413D
libRbt.so/2013.1/901 2013/11/27
 28 32  0  0  0  0  0  0  0  0999 V2000
   45.3191   23.1441   13.6766 C   0  0  0  0  0  0  0  0  0  0  0  0
   45.5048   23.0888   12.1732 C   0  0  0  0  0  0  0  0  0  0  0  0
   45.7389   24.4723   11.5850 C   0  0  0  0  0  0  0  0  0  0  0  0
   41.5802   31.3959   13.2473 O   0  0  0  0  0  0  0  0  0  0  0  0
   41.7153   30.1223   13.8804 C   0  0  0  0  0  0  0  0  0  0  0  0
   40.9563   25.3051   13.1518 C   0  0  0  0  0  0  0  0  0  0  0  0
   41.6756   24.9909   14.2978 C   0  0  0  0  0  0  0  0  0  0  0  0
   42.2547   26.0151   15.0514 C   0  0  0  0  0  0  0  0  0  0  0  0
   42.1137   27.3484   14.6647 C   0  0  0  0  0  0  0  0  0  0  0  0
   41.1671   29.0040   12.9846 C   0  0  1  0  0  0  0  0  0  0  0  0
   41.3735   27.6357   13.5418 C   0  0  0  0  0  0  0  0  0  0  0  0
   40.8092   26.6267   12.8029 C   0  0  0  0  0  0  0  0  0  0  0  0
   40.1176   27.0558   11.6023 C   0  0  1  0  0  0  0  0  0  0  0  0
   37.8391   28.0555   11.6197 C   0  0  0  0  0  0  0  0  0  0  0  0
   39.1630   28.0804   11.9875 C   0  0  0  0  0  0  0  0  0  0  0  0
   39.6872   29.1129   12.7178 C   0  0  0  0  0  0  0  0  0  0  0  0
   38.8753   30.1697   13.1029 C   0  0  0  0  0  0  0  0  0  0  0  0
   37.5232   30.1484   12.7544 C   0  0  0  0  0  0  0  0  0  0  0  0
   37.0085   29.0905   12.0165 C   0  0  0  0  0  0  0  0  0  0  0  0
   44.4786   25.3210   11.6919 C   0  0  0  0  0  0  0  0  0  0  0  0
   44.7116   26.6999   11.0859 C   0  0  0  0  0  0  0  0  0  0  0  0
   44.0909   29.1249   12.1864 O   0  0  0  0  0  0  0  0  0  0  0  0
   42.2633   25.8336    9.9704 O   0  0  0  0  0  0  0  0  0  0  0  0
   42.3621   26.9019   10.5509 C   0  0  0  0  0  0  0  0  0  0  0  0
   43.4249   27.3776   11.0730 N   0  0  0  0  0  0  0  0  0  0  0  0
   43.2310   28.4895   11.6335 C   0  0  0  0  0  0  0  0  0  0  0  0
   41.8078   28.9262   11.5897 C   0  0  1  0  0  0  0  0  0  0  0  0
   41.1847   27.7783   10.7914 C   0  0  2  0  0  0  0  0  0  0  0  0
  1  2  1  0  0  0  0
  2  3  1  0  0  0  0
  3 20  1  0  0  0  0
  4  5  1  0  0  0  0
  6  7  2  0  0  0  0
  6 12  1  0  0  0  0
  7  8  1  0  0  0  0
  8  9  2  0  0  0  0
  9 11  1  0  0  0  0
 10  5  1  1  0  0  0
 10 11  1  0  0  0  0
 10 16  1  0  0  0  0
 10 27  1  0  0  0  0
 11 12  2  0  0  0  0
 13 12  1  1  0  0  0
 13 15  1  0  0  0  0
 13 28  1  0  0  0  0
 14 15  2  0  0  0  0
 14 19  1  0  0  0  0
 15 16  1  0  0  0  0
 16 17  2  0  0  0  0
 17 18  1  0  0  0  0
 18 19  2  0  0  0  0
 20 21  1  0  0  0  0
 21 25  1  0  0  0  0
 22 26  2  0  0  0  0
 23 24  2  0  0  0  0
 24 25  1  0  0  0  0
 25 26  1  0  0  0  0
 27 26  1  1  0  0  0
 27 28  1  0  0  0  0
 28 24  1  1  0  0  0
M  END
>  <CHROM.1>
-68.32358305,175.53948860,-179.28288103,172.87375446,-53.75422249,41.85211133
27.37791119,12.37378587,0.70767547,-0.13011867,3.06902993

>  <Name>
ligand

>  <RI>
0

>  <Rbt.Current_Directory>
/home/itssahil/PROJECTS/Mol_Feturizer/New_Systems/rnas/1YLS

>  <Rbt.Executable>
rbdock ($Id: //depot/dev/client3/rdock/2013.1/src/exe/rbdock.cxx#4 $)

>  <Rbt.Library>
libRbt.so (2013.1, Build901 2013/11/27)

>  <Rbt.Parameter_File>
/export/apps/rDock/src/rDock_2013.1_src/data/scripts/dock_solv.prm

>  <Rbt.Receptor>
prm/blind_docking_100.prm

>  <SCORE>
-13.2563

>  <SCORE.INTER>
-9.97163

>  <SCORE.INTER.CONST>
1

>  <SCORE.INTER.POLAR>
0

>  <SCORE.INTER.ROT>
5

>  <SCORE.INTER.SOLV>
8.2723

>  <SCORE.INTER.VDW>
-16.3385

>  <SCORE.INTER.norm>
-0.35613

>  <SCORE.INTRA>
-3.28467

>  <SCORE.INTRA.DIHEDRAL>
-9.13144

>  <SCORE.INTRA.DIHEDRAL.0>
12.0148

>  <SCORE.INTRA.POLAR>
0

>  <SCORE.INTRA.POLAR.0>
0

>  <SCORE.INTRA.REPUL>
0

>  <SCORE.INTRA.REPUL.0>
0

>  <SCORE.INTRA.SOLV>
0.208093

>  <SCORE.INTRA.SOLV.lig_0>
-10.5235

>  <SCORE.INTRA.VDW>
1.177

>  <SCORE.INTRA.VDW.0>
-1.38455

>  <SCORE.INTRA.norm>
-0.11731

>  <SCORE.RESTR>
0

>  <SCORE.RESTR.CAVITY>
0

>  <SCORE.RESTR.norm>
0

>  <SCORE.SYSTEM>
0

>  <SCORE.SYSTEM.CONST>
0

>  <SCORE.SYSTEM.DIHEDRAL>
0

>  <SCORE.SYSTEM.SOLV>
0

>  <SCORE.SYSTEM.norm>
0

>  <SCORE.heavy>
28

>  <SCORE.norm>
-0.47344

>  <RMSD>
14.464

$$$$
ligand
 OpenBabel11021811413D
libRbt.so/2013.1/901 2013/11/27
 28 32  0  0  0  0  0  0  0  0999 V2000
   43.5441   22.1811   11.5859 C   0  0  0  0  0  0  0  0  0  0  0  0
   44.3840   23.4419   11.5326 C   0  0  0  0  0  0  0  0  0  0  0  0
   43.7569   24.5689   12.3397 C   0  0  0  0  0  0  0  0  0  0  0  0
   43.0102   29.7383   14.2938 O   0  0  0  0  0  0  0  0  0  0  0  0
   41.7007   30.0637   13.8243 C   0  0  0  0  0  0  0  0  0  0  0  0
   40.8612   25.2526   13.1453 C   0  0  0  0  0  0  0  0  0  0  0  0
   41.5594   24.9395   14.3045 C   0  0  0  0  0  0  0  0  0  0  0  0
   42.1476   25.9622   15.0531 C   0  0  0  0  0  0  0  0  0  0  0  0
   42.0367   27.2929   14.6480 C   0  0  0  0  0  0  0  0  0  0  0  0
   41.1434   28.9445   12.9351 C   0  0  1  0  0  0  0  0  0  0  0  0
   41.3168   27.5798   13.5119 C   0  0  0  0  0  0  0  0  0  0  0  0
   40.7434   26.5722   12.7781 C   0  0  0  0  0  0  0  0  0  0  0  0
   40.0758   26.9989   11.5632 C   0  0  1  0  0  0  0  0  0  0  0  0
   37.8164   28.0409   11.5378 C   0  0  0  0  0  0  0  0  0  0  0  0
   39.1355   28.0458   11.9229 C   0  0  0  0  0  0  0  0  0  0  0  0
   39.6694   29.0776   12.6473 C   0  0  0  0  0  0  0  0  0  0  0  0
   38.8725   30.1540   13.0085 C   0  0  0  0  0  0  0  0  0  0  0  0
   37.5249   30.1535   12.6423 C   0  0  0  0  0  0  0  0  0  0  0  0
   37.0002   29.0961   11.9107 C   0  0  0  0  0  0  0  0  0  0  0  0
   44.6997   25.7628   12.4164 C   0  0  0  0  0  0  0  0  0  0  0  0
   44.6686   26.5512   11.1125 C   0  0  0  0  0  0  0  0  0  0  0  0
   44.0792   29.0010   12.1746 O   0  0  0  0  0  0  0  0  0  0  0  0
   42.2193   25.7166    9.9752 O   0  0  0  0  0  0  0  0  0  0  0  0
   42.3305   26.7901   10.5438 C   0  0  0  0  0  0  0  0  0  0  0  0
   43.3952   27.2525   11.0740 N   0  0  0  0  0  0  0  0  0  0  0  0
   43.2148   28.3748   11.6181 C   0  0  0  0  0  0  0  0  0  0  0  0
   41.8007   28.8373   11.5500 C   0  0  1  0  0  0  0  0  0  0  0  0
   41.1667   27.6911   10.7577 C   0  0  2  0  0  0  0  0  0  0  0  0
  1  2  1  0  0  0  0
  2  3  1  0  0  0  0
  3 20  1  0  0  0  0
  4  5  1  0  0  0  0
  6  7  2  0  0  0  0
  6 12  1  0  0  0  0
  7  8  1  0  0  0  0
  8  9  2  0  0  0  0
  9 11  1  0  0  0  0
 10  5  1  1  0  0  0
 10 11  1  0  0  0  0
 10 16  1  0  0  0  0
 10 27  1  0  0  0  0
 11 12  2  0  0  0  0
 13 12  1  1  0  0  0
 13 15  1  0  0  0  0
 13 28  1  0  0  0  0
 14 15  2  0  0  0  0
 14 19  1  0  0  0  0
 15 16  1  0  0  0  0
 16 17  2  0  0  0  0
 17 18  1  0  0  0  0
 18 19  2  0  0  0  0
 20 21  1  0  0  0  0
 21 25  1  0  0  0  0
 22 26  2  0  0  0  0
 23 24  2  0  0  0  0
 24 25  1  0  0  0  0
 25 26  1  0  0  0  0
 27 26  1  1  0  0  0
 27 28  1  0  0  0  0
 28 24  1  1  0  0  0
M  END
>  <CHROM.1>
172.85551872,46.84178204,77.78648143,72.69325709,-91.51064727,41.70140191
27.24574772,12.33841518,0.77273413,0.12228070,-2.85825474

>  <Name>
ligand

>  <RI>
0

>  <Rbt.Current_Directory>
/home/itssahil/PROJECTS/Mol_Feturizer/New_Systems/rnas/1YLS

>  <Rbt.Executable>
rbdock ($Id: //depot/dev/client3/rdock/2013.1/src/exe/rbdock.cxx#4 $)

>  <Rbt.Library>
libRbt.so (2013.1, Build901 2013/11/27)

>  <Rbt.Parameter_File>
/export/apps/rDock/src/rDock_2013.1_src/data/scripts/dock_solv.prm

>  <Rbt.Receptor>
prm/blind_docking_80.prm

>  <SCORE>
-12.1368

>  <SCORE.INTER>
-9.47944

>  <SCORE.INTER.CONST>
1

>  <SCORE.INTER.POLAR>
0

>  <SCORE.INTER.ROT>
5

>  <SCORE.INTER.SOLV>
10.296

>  <SCORE.INTER.VDW>
-16.685

>  <SCORE.INTER.norm>
-0.338551

>  <SCORE.INTRA>
-2.65735

>  <SCORE.INTRA.DIHEDRAL>
-6.87029

>  <SCORE.INTRA.DIHEDRAL.0>
12.0148

>  <SCORE.INTRA.POLAR>
0

>  <SCORE.INTRA.POLAR.0>
0

>  <SCORE.INTRA.REPUL>
0

>  <SCORE.INTRA.REPUL.0>
0

>  <SCORE.INTRA.SOLV>
1.05795

>  <SCORE.INTRA.SOLV.lig_0>
-10.5235

>  <SCORE.INTRA.VDW>
0.248821

>  <SCORE.INTRA.VDW.0>
-1.38455

>  <SCORE.INTRA.norm>
-0.0949052

>  <SCORE.RESTR>
0

>  <SCORE.RESTR.CAVITY>
0

>  <SCORE.RESTR.norm>
0

>  <SCORE.SYSTEM>
0

>  <SCORE.SYSTEM.CONST>
0

>  <SCORE.SYSTEM.DIHEDRAL>
0

>  <SCORE.SYSTEM.SOLV>
0

>  <SCORE.SYSTEM.norm>
0

>  <SCORE.heavy>
28

>  <SCORE.norm>
-0.433456

>  <RMSD>
14.470

$$$$
ligand
 OpenBabel11021811413D
libRbt.so/2013.1/901 2013/11/27
 28 32  0  0  0  0  0  0  0  0999 V2000
   43.4058   21.9281   11.7278 C   0  0  0  0  0  0  0  0  0  0  0  0
   43.8774   23.1942   12.4152 C   0  0  0  0  0  0  0  0  0  0  0  0
   44.0433   24.3404   11.4285 C   0  0  0  0  0  0  0  0  0  0  0  0
   41.5096   31.3794   13.3756 O   0  0  0  0  0  0  0  0  0  0  0  0
   41.6474   30.0887   13.9725 C   0  0  0  0  0  0  0  0  0  0  0  0
   40.9071   25.2912   13.1073 C   0  0  0  0  0  0  0  0  0  0  0  0
   41.6047   24.9483   14.2585 C   0  0  0  0  0  0  0  0  0  0  0  0
   42.1682   25.9533   15.0489 C   0  0  0  0  0  0  0  0  0  0  0  0
   42.0333   27.2959   14.6935 C   0  0  0  0  0  0  0  0  0  0  0  0
   41.1175   28.9933   13.0382 C   0  0  1  0  0  0  0  0  0  0  0  0
   41.3145   27.6114   13.5643 C   0  0  0  0  0  0  0  0  0  0  0  0
   40.7655   26.6212   12.7894 C   0  0  0  0  0  0  0  0  0  0  0  0
   40.0966   27.0804   11.5870 C   0  0  1  0  0  0  0  0  0  0  0  0
   37.8172   28.0782   11.5861 C   0  0  0  0  0  0  0  0  0  0  0  0
   39.1337   28.0944   11.9797 C   0  0  0  0  0  0  0  0  0  0  0  0
   39.6429   29.1083   12.7459 C   0  0  0  0  0  0  0  0  0  0  0  0
   38.8227   30.1545   13.1422 C   0  0  0  0  0  0  0  0  0  0  0  0
   37.4775   30.1414   12.7674 C   0  0  0  0  0  0  0  0  0  0  0  0
   36.9782   29.1024   11.9930 C   0  0  0  0  0  0  0  0  0  0  0  0
   44.5744   25.5821   12.1330 C   0  0  0  0  0  0  0  0  0  0  0  0
   44.6999   26.7400   11.1499 C   0  0  0  0  0  0  0  0  0  0  0  0
   44.0560   29.1359   12.2997 O   0  0  0  0  0  0  0  0  0  0  0  0
   42.2743   25.9011    9.9660 O   0  0  0  0  0  0  0  0  0  0  0  0
   42.3609   26.9543   10.5753 C   0  0  0  0  0  0  0  0  0  0  0  0
   43.4131   27.4171   11.1296 N   0  0  0  0  0  0  0  0  0  0  0  0
   43.2074   28.5143   11.7143 C   0  0  0  0  0  0  0  0  0  0  0  0
   41.7849   28.9513   11.6544 C   0  0  1  0  0  0  0  0  0  0  0  0
   41.1783   27.8237   10.8153 C   0  0  2  0  0  0  0  0  0  0  0  0
  1  2  1  0  0  0  0
  2  3  1  0  0  0  0
  3 20  1  0  0  0  0
  4  5  1  0  0  0  0
  6  7  2  0  0  0  0
  6 12  1  0  0  0  0
  7  8  1  0  0  0  0
  8  9  2  0  0  0  0
  9 11  1  0  0  0  0
 10  5  1  1  0  0  0
 10 11  1  0  0  0  0
 10 16  1  0  0  0  0
 10 27  1  0  0  0  0
 11 12  2  0  0  0  0
 13 12  1  1  0  0  0
 13 15  1  0  0  0  0
 13 28  1  0  0  0  0
 14 15  2  0  0  0  0
 14 19  1  0  0  0  0
 15 16  1  0  0  0  0
 16 17  2  0  0  0  0
 17 18  1  0  0  0  0
 18 19  2  0  0  0  0
 20 21  1  0  0  0  0
 21 25  1  0  0  0  0
 22 26  2  0  0  0  0
 23 24  2  0  0  0  0
 24 25  1  0  0  0  0
 25 26  1  0  0  0  0
 27 26  1  1  0  0  0
 27 28  1  0  0  0  0
 28 24  1  1  0  0  0
M  END
>  <CHROM.1>
-177.56939561,176.17745332,-178.31358245,87.65151370,-73.22482752,41.61807553
27.34116186,12.33919591,0.87086275,-0.06824429,-3.04376088

>  <Name>
ligand

>  <RI>
0

>  <Rbt.Current_Directory>
/home/itssahil/PROJECTS/Mol_Feturizer/New_Systems/rnas/1YLS

>  <Rbt.Executable>
rbdock ($Id: //depot/dev/client3/rdock/2013.1/src/exe/rbdock.cxx#4 $)

>  <Rbt.Library>
libRbt.so (2013.1, Build901 2013/11/27)

>  <Rbt.Parameter_File>
/export/apps/rDock/src/rDock_2013.1_src/data/scripts/dock_solv.prm

>  <Rbt.Receptor>
prm/blind_docking_60.prm

>  <SCORE>
-15.1469

>  <SCORE.INTER>
-10.8826

>  <SCORE.INTER.CONST>
1

>  <SCORE.INTER.POLAR>
0

>  <SCORE.INTER.ROT>
5

>  <SCORE.INTER.SOLV>
9.9247

>  <SCORE.INTER.VDW>
-17.4966

>  <SCORE.INTER.norm>
-0.388664

>  <SCORE.INTRA>
-4.26426

>  <SCORE.INTRA.DIHEDRAL>
-6.98873

>  <SCORE.INTRA.DIHEDRAL.0>
12.0148

>  <SCORE.INTRA.POLAR>
0

>  <SCORE.INTRA.POLAR.0>
0

>  <SCORE.INTRA.REPUL>
0

>  <SCORE.INTRA.REPUL.0>
0

>  <SCORE.INTRA.SOLV>
0.532243

>  <SCORE.INTRA.SOLV.lig_0>
-10.5235

>  <SCORE.INTRA.VDW>
-1.03601

>  <SCORE.INTRA.VDW.0>
-1.38455

>  <SCORE.INTRA.norm>
-0.152295

>  <SCORE.RESTR>
0

>  <SCORE.RESTR.CAVITY>
0

>  <SCORE.RESTR.norm>
0

>  <SCORE.SYSTEM>
0

>  <SCORE.SYSTEM.CONST>
0

>  <SCORE.SYSTEM.DIHEDRAL>
0

>  <SCORE.SYSTEM.SOLV>
0

>  <SCORE.SYSTEM.norm>
0

>  <SCORE.heavy>
28

>  <SCORE.norm>
-0.540959

>  <RMSD>
14.471

$$$$
ligand
 OpenBabel11021811413D
libRbt.so/2013.1/901 2013/11/27
 28 32  0  0  0  0  0  0  0  0999 V2000
   46.6220   19.8818   11.1468 C   0  0  0  0  0  0  0  0  0  0  0  0
   46.1036   21.2601   11.5069 C   0  0  0  0  0  0  0  0  0  0  0  0
   44.5950   21.3553   11.3345 C   0  0  0  0  0  0  0  0  0  0  0  0
   39.5248   26.5094   10.9117 O   0  0  0  0  0  0  0  0  0  0  0  0
   39.9089   25.7790   12.0780 C   0  0  0  0  0  0  0  0  0  0  0  0
   44.6701   26.8837   11.4279 C   0  0  0  0  0  0  0  0  0  0  0  0
   44.6555   26.3201   10.1585 C   0  0  0  0  0  0  0  0  0  0  0  0
   43.4817   25.7346    9.6771 C   0  0  0  0  0  0  0  0  0  0  0  0
   42.3258   25.7145   10.4584 C   0  0  0  0  0  0  0  0  0  0  0  0
   41.2173   26.3273   12.6619 C   0  0  1  0  0  0  0  0  0  0  0  0
   42.3578   26.3037   11.7006 C   0  0  0  0  0  0  0  0  0  0  0  0
   43.5133   26.8748   12.1707 C   0  0  0  0  0  0  0  0  0  0  0  0
   43.4370   27.3950   13.5226 C   0  0  1  0  0  0  0  0  0  0  0  0
   42.3609   29.5643   14.0946 C   0  0  0  0  0  0  0  0  0  0  0  0
   42.2946   28.2897   13.5853 C   0  0  0  0  0  0  0  0  0  0  0  0
   41.1172   27.7553   13.1354 C   0  0  0  0  0  0  0  0  0  0  0  0
   39.9518   28.5057   13.1896 C   0  0  0  0  0  0  0  0  0  0  0  0
   40.0072   29.8101   13.6853 C   0  0  0  0  0  0  0  0  0  0  0  0
   41.2115   30.3364   14.1336 C   0  0  0  0  0  0  0  0  0  0  0  0
   44.0862   22.7127   11.8020 C   0  0  0  0  0  0  0  0  0  0  0  0
   44.1770   22.8224   13.3194 C   0  0  0  0  0  0  0  0  0  0  0  0
   41.5021   23.3367   13.0803 O   0  0  0  0  0  0  0  0  0  0  0  0
   45.2126   25.2070   14.4285 O   0  0  0  0  0  0  0  0  0  0  0  0
   44.0246   25.0750   14.1852 C   0  0  0  0  0  0  0  0  0  0  0  0
   43.4688   24.0349   13.6976 N   0  0  0  0  0  0  0  0  0  0  0  0
   42.2299   24.1868   13.5236 C   0  0  0  0  0  0  0  0  0  0  0  0
   41.7529   25.5528   13.8766 C   0  0  1  0  0  0  0  0  0  0  0  0
   43.0556   26.1883   14.3690 C   0  0  2  0  0  0  0  0  0  0  0  0
  1  2  1  0  0  0  0
  2  3  1  0  0  0  0
  3 20  1  0  0  0  0
  4  5  1  0  0  0  0
  6  7  2  0  0  0  0
  6 12  1  0  0  0  0
  7  8  1  0  0  0  0
  8  9  2  0  0  0  0
  9 11  1  0  0  0  0
 10  5  1  6  0  0  0
 10 11  1  0  0  0  0
 10 16  1  0  0  0  0
 10 27  1  0  0  0  0
 11 12  2  0  0  0  0
 13 12  1  6  0  0  0
 13 15  1  0  0  0  0
 13 28  1  0  0  0  0
 14 15  2  0  0  0  0
 14 19  1  0  0  0  0
 15 16  1  0  0  0  0
 16 17  2  0  0  0  0
 17 18  1  0  0  0  0
 18 19  2  0  0  0  0
 20 21  1  0  0  0  0
 21 25  1  0  0  0  0
 22 26  2  0  0  0  0
 23 24  2  0  0  0  0
 24 25  1  0  0  0  0
 25 26  1  0  0  0  0
 27 26  1  6  0  0  0
 27 28  1  0  0  0  0
 28 24  1  6  0  0  0
M  END
>  <CHROM.1>
175.71247667,-57.81577430,-70.64467785,-170.44007212,-112.41721319,42.85330645
25.54989529,12.59739767,-0.92781648,-0.52548139,0.56545207

>  <Name>
ligand

>  <RI>
0

>  <Rbt.Current_Directory>
/home/itssahil/PROJECTS/Mol_Feturizer/New_Systems/rnas/1YLS

>  <Rbt.Executable>
rbdock ($Id: //depot/dev/client3/rdock/2013.1/src/exe/rbdock.cxx#4 $)

>  <Rbt.Library>
libRbt.so (2013.1, Build901 2013/11/27)

>  <Rbt.Parameter_File>
/export/apps/rDock/src/rDock_2013.1_src/data/scripts/dock_solv.prm

>  <Rbt.Receptor>
prm/blind_docking_100.prm

>  <SCORE>
-13.9464

>  <SCORE.INTER>
-10.0803

>  <SCORE.INTER.CONST>
1

>  <SCORE.INTER.POLAR>
0

>  <SCORE.INTER.ROT>
5

>  <SCORE.INTER.SOLV>
12.3738

>  <SCORE.INTER.VDW>
-17.7781

>  <SCORE.INTER.norm>
-0.360009

>  <SCORE.INTRA>
-3.86614

>  <SCORE.INTRA.DIHEDRAL>
-8.64951

>  <SCORE.INTRA.DIHEDRAL.0>
12.0148

>  <SCORE.INTRA.POLAR>
0

>  <SCORE.INTRA.POLAR.0>
0

>  <SCORE.INTRA.REPUL>
0

>  <SCORE.INTRA.REPUL.0>
0

>  <SCORE.INTRA.SOLV>
-0.000930893

>  <SCORE.INTRA.SOLV.lig_0>
-10.5235

>  <SCORE.INTRA.VDW>
0.45908

>  <SCORE.INTRA.VDW.0>
-1.38455

>  <SCORE.INTRA.norm>
-0.138076

>  <SCORE.RESTR>
0

>  <SCORE.RESTR.CAVITY>
0

>  <SCORE.RESTR.norm>
0

>  <SCORE.SYSTEM>
0

>  <SCORE.SYSTEM.CONST>
0

>  <SCORE.SYSTEM.DIHEDRAL>
0

>  <SCORE.SYSTEM.SOLV>
0

>  <SCORE.SYSTEM.norm>
0

>  <SCORE.heavy>
28

>  <SCORE.norm>
-0.498086

>  <RMSD>
14.482

$$$$
ligand
 OpenBabel11021811413D
libRbt.so/2013.1/901 2013/11/27
 28 32  0  0  0  0  0  0  0  0999 V2000
   47.2813   22.7060   11.5491 C   0  0  0  0  0  0  0  0  0  0  0  0
   46.5293   23.9719   11.9092 C   0  0  0  0  0  0  0  0  0  0  0  0
   45.3166   24.1785   11.0139 C   0  0  0  0  0  0  0  0  0  0  0  0
   41.3719   30.1244   15.1224 O   0  0  0  0  0  0  0  0  0  0  0  0
   41.8397   30.1759   13.7735 C   0  0  0  0  0  0  0  0  0  0  0  0
   40.9283   25.3601   13.2351 C   0  0  0  0  0  0  0  0  0  0  0  0
   41.6849   25.0634   14.3614 C   0  0  0  0  0  0  0  0  0  0  0  0
   42.3200   26.0951   15.0574 C   0  0  0  0  0  0  0  0  0  0  0  0
   42.1979   27.4187   14.6327 C   0  0  0  0  0  0  0  0  0  0  0  0
   41.2272   29.0447   12.9374 C   0  0  1  0  0  0  0  0  0  0  0  0
   41.4207   27.6898   13.5310 C   0  0  0  0  0  0  0  0  0  0  0  0
   40.8013   26.6733   12.8487 C   0  0  0  0  0  0  0  0  0  0  0  0
   40.0731   27.0824   11.6628 C   0  0  1  0  0  0  0  0  0  0  0  0
   37.8236   28.1432   11.7371 C   0  0  0  0  0  0  0  0  0  0  0  0
   39.1614   28.1441   12.0513 C   0  0  0  0  0  0  0  0  0  0  0  0
   39.7410   29.1850   12.7258 C   0  0  0  0  0  0  0  0  0  0  0  0
   38.9728   30.2750   13.1076 C   0  0  0  0  0  0  0  0  0  0  0  0
   37.6076   30.2792   12.8136 C   0  0  0  0  0  0  0  0  0  0  0  0
   37.0366   29.2125   12.1319 C   0  0  0  0  0  0  0  0  0  0  0  0
   44.3811   25.2224   11.6101 C   0  0  0  0  0  0  0  0  0  0  0  0
   44.6318   26.5861   10.9775 C   0  0  0  0  0  0  0  0  0  0  0  0
   44.1186   29.0610   12.0210 O   0  0  0  0  0  0  0  0  0  0  0  0
   42.1190   25.7510    9.9887 O   0  0  0  0  0  0  0  0  0  0  0  0
   42.2686   26.8343   10.5293 C   0  0  0  0  0  0  0  0  0  0  0  0
   43.3635   27.2976   10.9930 N   0  0  0  0  0  0  0  0  0  0  0  0
   43.2210   28.4316   11.5237 C   0  0  0  0  0  0  0  0  0  0  0  0
   41.8089   28.9051   11.5217 C   0  0  1  0  0  0  0  0  0  0  0  0
   41.1248   27.7494   10.7870 C   0  0  2  0  0  0  0  0  0  0  0  0
  1  2  1  0  0  0  0
  2  3  1  0  0  0  0
  3 20  1  0  0  0  0
  4  5  1  0  0  0  0
  6  7  2  0  0  0  0
  6 12  1  0  0  0  0
  7  8  1  0  0  0  0
  8  9  2  0  0  0  0
  9 11  1  0  0  0  0
 10  5  1  1  0  0  0
 10 11  1  0  0  0  0
 10 16  1  0  0  0  0
 10 27  1  0  0  0  0
 11 12  2  0  0  0  0
 13 12  1  1  0  0  0
 13 15  1  0  0  0  0
 13 28  1  0  0  0  0
 14 15  2  0  0  0  0
 14 19  1  0  0  0  0
 15 16  1  0  0  0  0
 16 17  2  0  0  0  0
 17 18  1  0  0  0  0
 18 19  2  0  0  0  0
 20 21  1  0  0  0  0
 21 25  1  0  0  0  0
 22 26  2  0  0  0  0
 23 24  2  0  0  0  0
 24 25  1  0  0  0  0
 25 26  1  0  0  0  0
 27 26  1  1  0  0  0
 27 28  1  0  0  0  0
 28 24  1  1  0  0  0
M  END
>  <CHROM.1>
164.93989233,-53.47347804,97.30487167,149.63662970,-52.55190393,41.94569140
27.33929176,12.32644845,-0.56518233,-0.37809900,0.80036308

>  <Name>
ligand

>  <RI>
0

>  <Rbt.Current_Directory>
/home/itssahil/PROJECTS/Mol_Feturizer/New_Systems/rnas/1YLS

>  <Rbt.Executable>
rbdock ($Id: //depot/dev/client3/rdock/2013.1/src/exe/rbdock.cxx#4 $)

>  <Rbt.Library>
libRbt.so (2013.1, Build901 2013/11/27)

>  <Rbt.Parameter_File>
/export/apps/rDock/src/rDock_2013.1_src/data/scripts/dock_solv.prm

>  <Rbt.Receptor>
prm/blind_docking_80.prm

>  <SCORE>
-10.0468

>  <SCORE.INTER>
-10.0154

>  <SCORE.INTER.CONST>
1

>  <SCORE.INTER.POLAR>
0

>  <SCORE.INTER.ROT>
5

>  <SCORE.INTER.SOLV>
8.9503

>  <SCORE.INTER.VDW>
-16.5937

>  <SCORE.INTER.norm>
-0.357694

>  <SCORE.INTRA>
-0.231285

>  <SCORE.INTRA.DIHEDRAL>
-1.58035

>  <SCORE.INTRA.DIHEDRAL.0>
12.0148

>  <SCORE.INTRA.POLAR>
0

>  <SCORE.INTRA.POLAR.0>
0

>  <SCORE.INTRA.REPUL>
0

>  <SCORE.INTRA.REPUL.0>
0

>  <SCORE.INTRA.SOLV>
0.0587221

>  <SCORE.INTRA.SOLV.lig_0>
-10.5235

>  <SCORE.INTRA.VDW>
0.529527

>  <SCORE.INTRA.VDW.0>
-1.38455

>  <SCORE.INTRA.norm>
-0.00826019

>  <SCORE.RESTR>
0.199929

>  <SCORE.RESTR.CAVITY>
0.199929

>  <SCORE.RESTR.norm>
0.00714031

>  <SCORE.SYSTEM>
0

>  <SCORE.SYSTEM.CONST>
0

>  <SCORE.SYSTEM.DIHEDRAL>
0

>  <SCORE.SYSTEM.SOLV>
0

>  <SCORE.SYSTEM.norm>
0

>  <SCORE.heavy>
28

>  <SCORE.norm>
-0.358814

>  <RMSD>
14.484

$$$$
ligand
 OpenBabel11021811413D
libRbt.so/2013.1/901 2013/11/27
 28 32  0  0  0  0  0  0  0  0999 V2000
   44.0210   22.3388   11.7674 C   0  0  0  0  0  0  0  0  0  0  0  0
   45.2423   23.0502   12.3154 C   0  0  0  0  0  0  0  0  0  0  0  0
   45.5101   24.3543   11.5789 C   0  0  0  0  0  0  0  0  0  0  0  0
   41.5745   31.3854   13.3128 O   0  0  0  0  0  0  0  0  0  0  0  0
   41.6944   30.1008   13.9264 C   0  0  0  0  0  0  0  0  0  0  0  0
   40.8708   25.3050   13.1300 C   0  0  0  0  0  0  0  0  0  0  0  0
   41.5726   24.9659   14.2797 C   0  0  0  0  0  0  0  0  0  0  0  0
   42.1587   25.9718   15.0522 C   0  0  0  0  0  0  0  0  0  0  0  0
   42.0421   27.3117   14.6805 C   0  0  0  0  0  0  0  0  0  0  0  0
   41.1393   29.0020   13.0109 C   0  0  1  0  0  0  0  0  0  0  0  0
   41.3188   27.6240   13.5533 C   0  0  0  0  0  0  0  0  0  0  0  0
   40.7475   26.6329   12.7959 C   0  0  0  0  0  0  0  0  0  0  0  0
   40.0757   27.0872   11.5933 C   0  0  1  0  0  0  0  0  0  0  0  0
   37.8125   28.1211   11.5984 C   0  0  0  0  0  0  0  0  0  0  0  0
   39.1325   28.1213   11.9808 C   0  0  0  0  0  0  0  0  0  0  0  0
   39.6642   29.1368   12.7295 C   0  0  0  0  0  0  0  0  0  0  0  0
   38.8642   30.2009   13.1189 C   0  0  0  0  0  0  0  0  0  0  0  0
   37.5157   30.2046   12.7555 C   0  0  0  0  0  0  0  0  0  0  0  0
   36.9934   29.1638   11.9989 C   0  0  0  0  0  0  0  0  0  0  0  0
   44.4699   25.4034   11.9499 C   0  0  0  0  0  0  0  0  0  0  0  0
   44.6692   26.6676   11.1223 C   0  0  0  0  0  0  0  0  0  0  0  0
   44.0732   29.0881   12.2461 O   0  0  0  0  0  0  0  0  0  0  0  0
   42.2205   25.8524    9.9697 O   0  0  0  0  0  0  0  0  0  0  0  0
   42.3291   26.9119   10.5644 C   0  0  0  0  0  0  0  0  0  0  0  0
   43.3932   27.3649   11.1039 N   0  0  0  0  0  0  0  0  0  0  0  0
   43.2098   28.4727   11.6760 C   0  0  0  0  0  0  0  0  0  0  0  0
   41.7940   28.9316   11.6222 C   0  0  1  0  0  0  0  0  0  0  0  0
   41.1625   27.8031   10.8030 C   0  0  2  0  0  0  0  0  0  0  0  0
  1  2  1  0  0  0  0
  2  3  1  0  0  0  0
  3 20  1  0  0  0  0
  4  5  1  0  0  0  0
  6  7  2  0  0  0  0
  6 12  1  0  0  0  0
  7  8  1  0  0  0  0
  8  9  2  0  0  0  0
  9 11  1  0  0  0  0
 10  5  1  1  0  0  0
 10 11  1  0  0  0  0
 10 16  1  0  0  0  0
 10 27  1  0  0  0  0
 11 12  2  0  0  0  0
 13 12  1  1  0  0  0
 13 15  1  0  0  0  0
 13 28  1  0  0  0  0
 14 15  2  0  0  0  0
 14 19  1  0  0  0  0
 15 16  1  0  0  0  0
 16 17  2  0  0  0  0
 17 18  1  0  0  0  0
 18 19  2  0  0  0  0
 20 21  1  0  0  0  0
 21 25  1  0  0  0  0
 22 26  2  0  0  0  0
 23 24  2  0  0  0  0
 24 25  1  0  0  0  0
 25 26  1  0  0  0  0
 27 26  1  1  0  0  0
 27 28  1  0  0  0  0
 28 24  1  1  0  0  0
M  END
>  <CHROM.1>
71.99680934,176.06334411,-175.14790682,156.93820644,-64.59791183,41.74849707
27.34606283,12.32307704,0.78618457,-0.06631151,-3.05458916

>  <Name>
ligand

>  <RI>
0

>  <Rbt.Current_Directory>
/home/itssahil/PROJECTS/Mol_Feturizer/New_Systems/rnas/1YLS

>  <Rbt.Executable>
rbdock ($Id: //depot/dev/client3/rdock/2013.1/src/exe/rbdock.cxx#4 $)

>  <Rbt.Library>
libRbt.so (2013.1, Build901 2013/11/27)

>  <Rbt.Parameter_File>
/export/apps/rDock/src/rDock_2013.1_src/data/scripts/dock_solv.prm

>  <Rbt.Receptor>
prm/blind_docking_100.prm

>  <SCORE>
-13.7024

>  <SCORE.INTER>
-10.4908

>  <SCORE.INTER.CONST>
1

>  <SCORE.INTER.POLAR>
0

>  <SCORE.INTER.ROT>
5

>  <SCORE.INTER.SOLV>
8.84774

>  <SCORE.INTER.VDW>
-16.8764

>  <SCORE.INTER.norm>
-0.374671

>  <SCORE.INTRA>
-3.21162

>  <SCORE.INTRA.DIHEDRAL>
-7.05508

>  <SCORE.INTRA.DIHEDRAL.0>
12.0148

>  <SCORE.INTRA.POLAR>
0

>  <SCORE.INTRA.POLAR.0>
0

>  <SCORE.INTRA.REPUL>
0

>  <SCORE.INTRA.REPUL.0>
0

>  <SCORE.INTRA.SOLV>
0.245998

>  <SCORE.INTRA.SOLV.lig_0>
-10.5235

>  <SCORE.INTRA.VDW>
0.192922

>  <SCORE.INTRA.VDW.0>
-1.38455

>  <SCORE.INTRA.norm>
-0.114701

>  <SCORE.RESTR>
0

>  <SCORE.RESTR.CAVITY>
0

>  <SCORE.RESTR.norm>
0

>  <SCORE.SYSTEM>
0

>  <SCORE.SYSTEM.CONST>
0

>  <SCORE.SYSTEM.DIHEDRAL>
0

>  <SCORE.SYSTEM.SOLV>
0

>  <SCORE.SYSTEM.norm>
0

>  <SCORE.heavy>
28

>  <SCORE.norm>
-0.489372

>  <RMSD>
14.487

$$$$
ligand
 OpenBabel11021811413D
libRbt.so/2013.1/901 2013/11/27
 28 32  0  0  0  0  0  0  0  0999 V2000
   46.6405   21.8731   10.0133 C   0  0  0  0  0  0  0  0  0  0  0  0
   46.0992   21.2566   11.2880 C   0  0  0  0  0  0  0  0  0  0  0  0
   44.5797   21.3150   11.3388 C   0  0  0  0  0  0  0  0  0  0  0  0
   39.5243   26.4686   10.9061 O   0  0  0  0  0  0  0  0  0  0  0  0
   39.9189   25.7324   12.0651 C   0  0  0  0  0  0  0  0  0  0  0  0
   44.6741   26.8670   11.4216 C   0  0  0  0  0  0  0  0  0  0  0  0
   44.6650   26.3022   10.1527 C   0  0  0  0  0  0  0  0  0  0  0  0
   43.4958   25.7088    9.6699 C   0  0  0  0  0  0  0  0  0  0  0  0
   42.3387   25.6820   10.4494 C   0  0  0  0  0  0  0  0  0  0  0  0
   41.2229   26.2895   12.6507 C   0  0  1  0  0  0  0  0  0  0  0  0
   42.3650   26.2724   11.6912 C   0  0  0  0  0  0  0  0  0  0  0  0
   43.5162   26.8512   12.1626 C   0  0  0  0  0  0  0  0  0  0  0  0
   43.4344   27.3720   13.5140 C   0  0  1  0  0  0  0  0  0  0  0  0
   42.3436   29.5349   14.0825 C   0  0  0  0  0  0  0  0  0  0  0  0
   42.2862   28.2594   13.5742 C   0  0  0  0  0  0  0  0  0  0  0  0
   41.1129   27.7172   13.1229 C   0  0  0  0  0  0  0  0  0  0  0  0
   39.9427   28.4602   13.1746 C   0  0  0  0  0  0  0  0  0  0  0  0
   39.9890   29.7653   13.6693 C   0  0  0  0  0  0  0  0  0  0  0  0
   41.1893   30.2997   14.1191 C   0  0  0  0  0  0  0  0  0  0  0  0
   44.1106   22.6892   11.7988 C   0  0  0  0  0  0  0  0  0  0  0  0
   44.2039   22.8041   13.3157 C   0  0  0  0  0  0  0  0  0  0  0  0
   41.5261   23.3011   13.0719 O   0  0  0  0  0  0  0  0  0  0  0  0
   45.2225   25.1961   14.4244 O   0  0  0  0  0  0  0  0  0  0  0  0
   44.0357   25.0563   14.1794 C   0  0  0  0  0  0  0  0  0  0  0  0
   43.4873   24.0123   13.6918 N   0  0  0  0  0  0  0  0  0  0  0  0
   42.2478   24.1562   13.5157 C   0  0  0  0  0  0  0  0  0  0  0  0
   41.7615   25.5194   13.8668 C   0  0  1  0  0  0  0  0  0  0  0  0
   43.0594   26.1636   14.3608 C   0  0  2  0  0  0  0  0  0  0  0  0
  1  2  1  0  0  0  0
  2  3  1  0  0  0  0
  3 20  1  0  0  0  0
  4  5  1  0  0  0  0
  6  7  2  0  0  0  0
  6 12  1  0  0  0  0
  7  8  1  0  0  0  0
  8  9  2  0  0  0  0
  9 11  1  0  0  0  0
 10  5  1  6  0  0  0
 10 11  1  0  0  0  0
 10 16  1  0  0  0  0
 10 27  1  0  0  0  0
 11 12  2  0  0  0  0
 13 12  1  6  0  0  0
 13 15  1  0  0  0  0
 13 28  1  0  0  0  0
 14 15  2  0  0  0  0
 14 19  1  0  0  0  0
 15 16  1  0  0  0  0
 16 17  2  0  0  0  0
 17 18  1  0  0  0  0
 18 19  2  0  0  0  0
 20 21  1  0  0  0  0
 21 25  1  0  0  0  0
 22 26  2  0  0  0  0
 23 24  2  0  0  0  0
 24 25  1  0  0  0  0
 25 26  1  0  0  0  0
 27 26  1  6  0  0  0
 27 28  1  0  0  0  0
 28 24  1  6  0  0  0
M  END
>  <CHROM.1>
-81.20347730,-58.44541804,-80.27100723,-168.31895647,-112.67134823,42.85835097
25.60392933,12.53496813,0.89575517,0.51191083,-2.49327074

>  <Name>
ligand

>  <RI>
0

>  <Rbt.Current_Directory>
/home/itssahil/PROJECTS/Mol_Feturizer/New_Systems/rnas/1YLS

>  <Rbt.Executable>
rbdock ($Id: //depot/dev/client3/rdock/2013.1/src/exe/rbdock.cxx#4 $)

>  <Rbt.Library>
libRbt.so (2013.1, Build901 2013/11/27)

>  <Rbt.Parameter_File>
/export/apps/rDock/src/rDock_2013.1_src/data/scripts/dock_solv.prm

>  <Rbt.Receptor>
prm/blind_docking_100.prm

>  <SCORE>
-14.1236

>  <SCORE.INTER>
-11.8013

>  <SCORE.INTER.CONST>
1

>  <SCORE.INTER.POLAR>
0

>  <SCORE.INTER.ROT>
5

>  <SCORE.INTER.SOLV>
12.7227

>  <SCORE.INTER.VDW>
-19.0418

>  <SCORE.INTER.norm>
-0.421476

>  <SCORE.INTRA>
-2.32225

>  <SCORE.INTRA.DIHEDRAL>
-5.77316

>  <SCORE.INTRA.DIHEDRAL.0>
12.0148

>  <SCORE.INTRA.POLAR>
0

>  <SCORE.INTRA.POLAR.0>
0

>  <SCORE.INTRA.REPUL>
0

>  <SCORE.INTRA.REPUL.0>
0

>  <SCORE.INTRA.SOLV>
-0.0121571

>  <SCORE.INTRA.SOLV.lig_0>
-10.5235

>  <SCORE.INTRA.VDW>
0.570408

>  <SCORE.INTRA.VDW.0>
-1.38455

>  <SCORE.INTRA.norm>
-0.0829376

>  <SCORE.RESTR>
0

>  <SCORE.RESTR.CAVITY>
0

>  <SCORE.RESTR.norm>
0

>  <SCORE.SYSTEM>
0

>  <SCORE.SYSTEM.CONST>
0

>  <SCORE.SYSTEM.DIHEDRAL>
0

>  <SCORE.SYSTEM.SOLV>
0

>  <SCORE.SYSTEM.norm>
0

>  <SCORE.heavy>
28

>  <SCORE.norm>
-0.504414

>  <RMSD>
14.495

$$$$
ligand
 OpenBabel11021811413D
libRbt.so/2013.1/901 2013/11/27
 28 32  0  0  0  0  0  0  0  0999 V2000
   46.4872   19.7516   10.9682 C   0  0  0  0  0  0  0  0  0  0  0  0
   46.1045   21.1276   11.4763 C   0  0  0  0  0  0  0  0  0  0  0  0
   44.6205   21.4038   11.2859 C   0  0  0  0  0  0  0  0  0  0  0  0
   39.5254   26.4496   10.8991 O   0  0  0  0  0  0  0  0  0  0  0  0
   39.9095   25.7327   12.0736 C   0  0  0  0  0  0  0  0  0  0  0  0
   44.6594   26.8825   11.4186 C   0  0  0  0  0  0  0  0  0  0  0  0
   44.6488   26.3187   10.1493 C   0  0  0  0  0  0  0  0  0  0  0  0
   43.4802   25.7221    9.6691 C   0  0  0  0  0  0  0  0  0  0  0  0
   42.3253   25.6911   10.4515 C   0  0  0  0  0  0  0  0  0  0  0  0
   41.2133   26.2934   12.6562 C   0  0  1  0  0  0  0  0  0  0  0  0
   42.3530   26.2806   11.6937 C   0  0  0  0  0  0  0  0  0  0  0  0
   43.5035   26.8626   12.1626 C   0  0  0  0  0  0  0  0  0  0  0  0
   43.4237   27.3821   13.5146 C   0  0  1  0  0  0  0  0  0  0  0  0
   42.3277   29.5411   14.0876 C   0  0  0  0  0  0  0  0  0  0  0  0
   42.2729   28.2659   13.5785 C   0  0  0  0  0  0  0  0  0  0  0  0
   41.1001   27.7203   13.1298 C   0  0  0  0  0  0  0  0  0  0  0  0
   39.9278   28.4597   13.1852 C   0  0  0  0  0  0  0  0  0  0  0  0
   39.9713   29.7645   13.6808 C   0  0  0  0  0  0  0  0  0  0  0  0
   41.1711   30.3023   14.1279 C   0  0  0  0  0  0  0  0  0  0  0  0
   44.2655   22.7974   11.7878 C   0  0  0  0  0  0  0  0  0  0  0  0
   44.2068   22.8166   13.3106 C   0  0  0  0  0  0  0  0  0  0  0  0
   41.5268   23.3056   13.0743 O   0  0  0  0  0  0  0  0  0  0  0  0
   45.2209   25.2110   14.4187 O   0  0  0  0  0  0  0  0  0  0  0  0
   44.0339   25.0677   14.1766 C   0  0  0  0  0  0  0  0  0  0  0  0
   43.4874   24.0224   13.6896 N   0  0  0  0  0  0  0  0  0  0  0  0
   42.2470   24.1626   13.5168 C   0  0  0  0  0  0  0  0  0  0  0  0
   41.7574   25.5240   13.8703 C   0  0  1  0  0  0  0  0  0  0  0  0
   43.0546   26.1718   14.3614 C   0  0  2  0  0  0  0  0  0  0  0  0
  1  2  1  0  0  0  0
  2  3  1  0  0  0  0
  3 20  1  0  0  0  0
  4  5  1  0  0  0  0
  6  7  2  0  0  0  0
  6 12  1  0  0  0  0
  7  8  1  0  0  0  0
  8  9  2  0  0  0  0
  9 11  1  0  0  0  0
 10  5  1  6  0  0  0
 10 11  1  0  0  0  0
 10 16  1  0  0  0  0
 10 27  1  0  0  0  0
 11 12  2  0  0  0  0
 13 12  1  6  0  0  0
 13 15  1  0  0  0  0
 13 28  1  0  0  0  0
 14 15  2  0  0  0  0
 14 19  1  0  0  0  0
 15 16  1  0  0  0  0
 16 17  2  0  0  0  0
 17 18  1  0  0  0  0
 18 19  2  0  0  0  0
 20 21  1  0  0  0  0
 21 25  1  0  0  0  0
 22 26  2  0  0  0  0
 23 24  2  0  0  0  0
 24 25  1  0  0  0  0
 25 26  1  0  0  0  0
 27 26  1  6  0  0  0
 27 28  1  0  0  0  0
 28 24  1  6  0  0  0
M  END
>  <CHROM.1>
-179.29258463,-57.15620603,-76.25746555,-163.20074989,-105.50850152,42.85262223
25.52487274,12.58026946,0.92355736,0.53910552,-2.55545188

>  <Name>
ligand

>  <RI>
0

>  <Rbt.Current_Directory>
/home/itssahil/PROJECTS/Mol_Feturizer/New_Systems/rnas/1YLS

>  <Rbt.Executable>
rbdock ($Id: //depot/dev/client3/rdock/2013.1/src/exe/rbdock.cxx#4 $)

>  <Rbt.Library>
libRbt.so (2013.1, Build901 2013/11/27)

>  <Rbt.Parameter_File>
/export/apps/rDock/src/rDock_2013.1_src/data/scripts/dock_solv.prm

>  <Rbt.Receptor>
prm/blind_docking_80.prm

>  <SCORE>
-14.235

>  <SCORE.INTER>
-10.4462

>  <SCORE.INTER.CONST>
1

>  <SCORE.INTER.POLAR>
0

>  <SCORE.INTER.ROT>
5

>  <SCORE.INTER.SOLV>
12.3513

>  <SCORE.INTER.VDW>
-18.0146

>  <SCORE.INTER.norm>
-0.373078

>  <SCORE.INTRA>
-3.78882

>  <SCORE.INTRA.DIHEDRAL>
-7.40812

>  <SCORE.INTRA.DIHEDRAL.0>
12.0148

>  <SCORE.INTRA.POLAR>
0

>  <SCORE.INTRA.POLAR.0>
0

>  <SCORE.INTRA.REPUL>
0

>  <SCORE.INTRA.REPUL.0>
0

>  <SCORE.INTRA.SOLV>
-0.0014777

>  <SCORE.INTRA.SOLV.lig_0>
-10.5235

>  <SCORE.INTRA.VDW>
-0.0840217

>  <SCORE.INTRA.VDW.0>
-1.38455

>  <SCORE.INTRA.norm>
-0.135315

>  <SCORE.RESTR>
0

>  <SCORE.RESTR.CAVITY>
0

>  <SCORE.RESTR.norm>
0

>  <SCORE.SYSTEM>
0

>  <SCORE.SYSTEM.CONST>
0

>  <SCORE.SYSTEM.DIHEDRAL>
0

>  <SCORE.SYSTEM.SOLV>
0

>  <SCORE.SYSTEM.norm>
0

>  <SCORE.heavy>
28

>  <SCORE.norm>
-0.508393

>  <RMSD>
14.495

$$$$
ligand
 OpenBabel11021811413D
libRbt.so/2013.1/901 2013/11/27
 28 32  0  0  0  0  0  0  0  0999 V2000
   46.3184   22.0220   10.7823 C   0  0  0  0  0  0  0  0  0  0  0  0
   45.1759   22.9081   11.2378 C   0  0  0  0  0  0  0  0  0  0  0  0
   45.5156   24.3836   11.0882 C   0  0  0  0  0  0  0  0  0  0  0  0
   42.8292   29.6444   14.5627 O   0  0  0  0  0  0  0  0  0  0  0  0
   41.5404   30.0018   14.0604 C   0  0  0  0  0  0  0  0  0  0  0  0
   40.7811   25.2386   13.0367 C   0  0  0  0  0  0  0  0  0  0  0  0
   41.4568   24.8555   14.1881 C   0  0  0  0  0  0  0  0  0  0  0  0
   42.0140   25.8317   15.0181 C   0  0  0  0  0  0  0  0  0  0  0  0
   41.8946   27.1855   14.7018 C   0  0  0  0  0  0  0  0  0  0  0  0
   41.0186   28.9394   13.0843 C   0  0  1  0  0  0  0  0  0  0  0  0
   41.1971   27.5406   13.5711 C   0  0  0  0  0  0  0  0  0  0  0  0
   40.6541   26.5787   12.7572 C   0  0  0  0  0  0  0  0  0  0  0  0
   40.0087   27.0794   11.5586 C   0  0  1  0  0  0  0  0  0  0  0  0
   37.7367   28.0938   11.5505 C   0  0  0  0  0  0  0  0  0  0  0  0
   39.0466   28.0881   11.9661 C   0  0  0  0  0  0  0  0  0  0  0  0
   39.5499   29.0743   12.7714 C   0  0  0  0  0  0  0  0  0  0  0  0
   38.7306   30.1141   13.1858 C   0  0  0  0  0  0  0  0  0  0  0  0
   37.3918   30.1226   12.7886 C   0  0  0  0  0  0  0  0  0  0  0  0
   36.8982   29.1115   11.9747 C   0  0  0  0  0  0  0  0  0  0  0  0
   44.3261   25.2504   11.4803 C   0  0  0  0  0  0  0  0  0  0  0  0
   44.6162   26.7177   11.1874 C   0  0  0  0  0  0  0  0  0  0  0  0
   43.9699   29.0823   12.3992 O   0  0  0  0  0  0  0  0  0  0  0  0
   42.2049   25.9337    9.9385 O   0  0  0  0  0  0  0  0  0  0  0  0
   42.2888   26.9671   10.5810 C   0  0  0  0  0  0  0  0  0  0  0  0
   43.3347   27.4049   11.1665 N   0  0  0  0  0  0  0  0  0  0  0  0
   43.1269   28.4852   11.7811 C   0  0  0  0  0  0  0  0  0  0  0  0
   41.7087   28.9346   11.7111 C   0  0  1  0  0  0  0  0  0  0  0  0
   41.1084   27.8377   10.8280 C   0  0  2  0  0  0  0  0  0  0  0  0
  1  2  1  0  0  0  0
  2  3  1  0  0  0  0
  3 20  1  0  0  0  0
  4  5  1  0  0  0  0
  6  7  2  0  0  0  0
  6 12  1  0  0  0  0
  7  8  1  0  0  0  0
  8  9  2  0  0  0  0
  9 11  1  0  0  0  0
 10  5  1  1  0  0  0
 10 11  1  0  0  0  0
 10 16  1  0  0  0  0
 10 27  1  0  0  0  0
 11 12  2  0  0  0  0
 13 12  1  1  0  0  0
 13 15  1  0  0  0  0
 13 28  1  0  0  0  0
 14 15  2  0  0  0  0
 14 19  1  0  0  0  0
 15 16  1  0  0  0  0
 16 17  2  0  0  0  0
 17 18  1  0  0  0  0
 18 19  2  0  0  0  0
 20 21  1  0  0  0  0
 21 25  1  0  0  0  0
 22 26  2  0  0  0  0
 23 24  2  0  0  0  0
 24 25  1  0  0  0  0
 25 26  1  0  0  0  0
 27 26  1  1  0  0  0
 27 28  1  0  0  0  0
 28 24  1  1  0  0  0
M  END
>  <CHROM.1>
176.92096733,45.42294455,-173.89662368,161.84821367,-44.49890590,41.81508601
27.22071337,12.27841691,0.70884230,0.16705965,-2.65592225

>  <Name>
ligand

>  <RI>
0

>  <Rbt.Current_Directory>
/home/itssahil/PROJECTS/Mol_Feturizer/New_Systems/rnas/1YLS

>  <Rbt.Executable>
rbdock ($Id: //depot/dev/client3/rdock/2013.1/src/exe/rbdock.cxx#4 $)

>  <Rbt.Library>
libRbt.so (2013.1, Build901 2013/11/27)

>  <Rbt.Parameter_File>
/export/apps/rDock/src/rDock_2013.1_src/data/scripts/dock_solv.prm

>  <Rbt.Receptor>
prm/blind_docking_100.prm

>  <SCORE>
-13.9121

>  <SCORE.INTER>
-12.7037

>  <SCORE.INTER.CONST>
1

>  <SCORE.INTER.POLAR>
0

>  <SCORE.INTER.ROT>
5

>  <SCORE.INTER.SOLV>
9.62312

>  <SCORE.INTER.VDW>
-18.6102

>  <SCORE.INTER.norm>
-0.453705

>  <SCORE.INTRA>
-1.20838

>  <SCORE.INTRA.DIHEDRAL>
-7.7464

>  <SCORE.INTRA.DIHEDRAL.0>
12.0148

>  <SCORE.INTRA.POLAR>
0

>  <SCORE.INTRA.POLAR.0>
0

>  <SCORE.INTRA.REPUL>
0

>  <SCORE.INTRA.REPUL.0>
0

>  <SCORE.INTRA.SOLV>
0.661029

>  <SCORE.INTRA.SOLV.lig_0>
-10.5235

>  <SCORE.INTRA.VDW>
2.33431

>  <SCORE.INTRA.VDW.0>
-1.38455

>  <SCORE.INTRA.norm>
-0.0431563

>  <SCORE.RESTR>
0

>  <SCORE.RESTR.CAVITY>
0

>  <SCORE.RESTR.norm>
0

>  <SCORE.SYSTEM>
0

>  <SCORE.SYSTEM.CONST>
0

>  <SCORE.SYSTEM.DIHEDRAL>
0

>  <SCORE.SYSTEM.SOLV>
0

>  <SCORE.SYSTEM.norm>
0

>  <SCORE.heavy>
28

>  <SCORE.norm>
-0.496861

>  <RMSD>
14.498

$$$$
ligand
 OpenBabel11021811413D
libRbt.so/2013.1/901 2013/11/27
 28 32  0  0  0  0  0  0  0  0999 V2000
   44.6682   22.2258   11.6175 C   0  0  0  0  0  0  0  0  0  0  0  0
   45.6510   23.1356   12.3277 C   0  0  0  0  0  0  0  0  0  0  0  0
   45.8367   24.4504   11.5849 C   0  0  0  0  0  0  0  0  0  0  0  0
   41.3872   30.2591   14.9861 O   0  0  0  0  0  0  0  0  0  0  0  0
   41.8865   30.2409   13.6477 C   0  0  0  0  0  0  0  0  0  0  0  0
   41.1435   25.3779   13.3134 C   0  0  0  0  0  0  0  0  0  0  0  0
   41.9175   25.1546   14.4449 C   0  0  0  0  0  0  0  0  0  0  0  0
   42.5201   26.2358   15.0931 C   0  0  0  0  0  0  0  0  0  0  0  0
   42.3482   27.5357   14.6157 C   0  0  0  0  0  0  0  0  0  0  0  0
   41.3092   29.0555   12.8634 C   0  0  1  0  0  0  0  0  0  0  0  0
   41.5546   27.7338   13.5101 C   0  0  0  0  0  0  0  0  0  0  0  0
   40.9673   26.6689   12.8748 C   0  0  0  0  0  0  0  0  0  0  0  0
   40.2173   27.0030   11.6791 C   0  0  1  0  0  0  0  0  0  0  0  0
   37.9320   27.9860   11.7280 C   0  0  0  0  0  0  0  0  0  0  0  0
   39.2710   28.0470   12.0312 C   0  0  0  0  0  0  0  0  0  0  0  0
   39.8176   29.1344   12.6581 C   0  0  0  0  0  0  0  0  0  0  0  0
   39.0136   30.2114   13.0012 C   0  0  0  0  0  0  0  0  0  0  0  0
   37.6472   30.1554   12.7182 C   0  0  0  0  0  0  0  0  0  0  0  0
   37.1101   29.0421   12.0851 C   0  0  0  0  0  0  0  0  0  0  0  0
   44.6101   25.3381   11.7506 C   0  0  0  0  0  0  0  0  0  0  0  0
   44.7862   26.6402   10.9782 C   0  0  0  0  0  0  0  0  0  0  0  0
   44.1921   29.1361   11.9240 O   0  0  0  0  0  0  0  0  0  0  0  0
   42.2984   25.6771   10.0444 O   0  0  0  0  0  0  0  0  0  0  0  0
   42.4129   26.7862   10.5392 C   0  0  0  0  0  0  0  0  0  0  0  0
   43.4936   27.3065   10.9748 N   0  0  0  0  0  0  0  0  0  0  0  0
   43.3142   28.4556   11.4600 C   0  0  0  0  0  0  0  0  0  0  0  0
   41.8862   28.8785   11.4500 C   0  0  1  0  0  0  0  0  0  0  0  0
   41.2389   27.6702   10.7684 C   0  0  2  0  0  0  0  0  0  0  0  0
  1  2  1  0  0  0  0
  2  3  1  0  0  0  0
  3 20  1  0  0  0  0
  4  5  1  0  0  0  0
  6  7  2  0  0  0  0
  6 12  1  0  0  0  0
  7  8  1  0  0  0  0
  8  9  2  0  0  0  0
  9 11  1  0  0  0  0
 10  5  1  1  0  0  0
 10 11  1  0  0  0  0
 10 16  1  0  0  0  0
 10 27  1  0  0  0  0
 11 12  2  0  0  0  0
 13 12  1  1  0  0  0
 13 15  1  0  0  0  0
 13 28  1  0  0  0  0
 14 15  2  0  0  0  0
 14 19  1  0  0  0  0
 15 16  1  0  0  0  0
 16 17  2  0  0  0  0
 17 18  1  0  0  0  0
 18 19  2  0  0  0  0
 20 21  1  0  0  0  0
 21 25  1  0  0  0  0
 22 26  2  0  0  0  0
 23 24  2  0  0  0  0
 24 25  1  0  0  0  0
 25 26  1  0  0  0  0
 27 26  1  1  0  0  0
 27 28  1  0  0  0  0
 28 24  1  1  0  0  0
M  END
>  <CHROM.1>
73.20388706,-55.81752308,-178.66055379,169.35157144,-56.30564195,41.93101120
27.29783811,12.34721777,0.73415574,0.15371620,-2.75890566

>  <Name>
ligand

>  <RI>
0

>  <Rbt.Current_Directory>
/home/itssahil/PROJECTS/Mol_Feturizer/New_Systems/rnas/1YLS

>  <Rbt.Executable>
rbdock ($Id: //depot/dev/client3/rdock/2013.1/src/exe/rbdock.cxx#4 $)

>  <Rbt.Library>
libRbt.so (2013.1, Build901 2013/11/27)

>  <Rbt.Parameter_File>
/export/apps/rDock/src/rDock_2013.1_src/data/scripts/dock_solv.prm

>  <Rbt.Receptor>
prm/blind_docking_80.prm

>  <SCORE>
-13.6462

>  <SCORE.INTER>
-10.2511

>  <SCORE.INTER.CONST>
1

>  <SCORE.INTER.POLAR>
0

>  <SCORE.INTER.ROT>
5

>  <SCORE.INTER.SOLV>
9.26934

>  <SCORE.INTER.VDW>
-16.8572

>  <SCORE.INTER.norm>
-0.366112

>  <SCORE.INTRA>
-3.48717

>  <SCORE.INTRA.DIHEDRAL>
-8.42859

>  <SCORE.INTRA.DIHEDRAL.0>
12.0148

>  <SCORE.INTRA.POLAR>
0

>  <SCORE.INTRA.POLAR.0>
0

>  <SCORE.INTRA.REPUL>
0

>  <SCORE.INTRA.REPUL.0>
0

>  <SCORE.INTRA.SOLV>
0.0155151

>  <SCORE.INTRA.SOLV.lig_0>
-10.5235

>  <SCORE.INTRA.VDW>
0.719368

>  <SCORE.INTRA.VDW.0>
-1.38455

>  <SCORE.INTRA.norm>
-0.124542

>  <SCORE.RESTR>
0.0921401

>  <SCORE.RESTR.CAVITY>
0.0921401

>  <SCORE.RESTR.norm>
0.00329072

>  <SCORE.SYSTEM>
0

>  <SCORE.SYSTEM.CONST>
0

>  <SCORE.SYSTEM.DIHEDRAL>
0

>  <SCORE.SYSTEM.SOLV>
0

>  <SCORE.SYSTEM.norm>
0

>  <SCORE.heavy>
28

>  <SCORE.norm>
-0.487363

>  <RMSD>
14.500

$$$$
ligand
 OpenBabel11021811413D
libRbt.so/2013.1/901 2013/11/27
 28 32  0  0  0  0  0  0  0  0999 V2000
   46.7493   22.1370   11.8859 C   0  0  0  0  0  0  0  0  0  0  0  0
   45.5886   23.0704   12.1677 C   0  0  0  0  0  0  0  0  0  0  0  0
   45.8361   24.4610   11.6022 C   0  0  0  0  0  0  0  0  0  0  0  0
   41.3532   30.2587   14.9840 O   0  0  0  0  0  0  0  0  0  0  0  0
   41.8718   30.2318   13.6531 C   0  0  0  0  0  0  0  0  0  0  0  0
   41.1195   25.3716   13.2982 C   0  0  0  0  0  0  0  0  0  0  0  0
   41.8915   25.1422   14.4299 C   0  0  0  0  0  0  0  0  0  0  0  0
   42.4953   26.2196   15.0832 C   0  0  0  0  0  0  0  0  0  0  0  0
   42.3267   27.5217   14.6109 C   0  0  0  0  0  0  0  0  0  0  0  0
   41.2932   29.0506   12.8632 C   0  0  1  0  0  0  0  0  0  0  0  0
   41.5351   27.7259   13.5050 C   0  0  0  0  0  0  0  0  0  0  0  0
   40.9465   26.6647   12.8646 C   0  0  0  0  0  0  0  0  0  0  0  0
   40.1989   27.0051   11.6691 C   0  0  1  0  0  0  0  0  0  0  0  0
   37.9155   27.9925   11.7188 C   0  0  0  0  0  0  0  0  0  0  0  0
   39.2542   28.0496   12.0242 C   0  0  0  0  0  0  0  0  0  0  0  0
   39.8021   29.1334   12.6562 C   0  0  0  0  0  0  0  0  0  0  0  0
   38.9997   30.2106   13.0025 C   0  0  0  0  0  0  0  0  0  0  0  0
   37.6336   30.1585   12.7173 C   0  0  0  0  0  0  0  0  0  0  0  0
   37.0952   29.0489   12.0791 C   0  0  0  0  0  0  0  0  0  0  0  0
   44.5806   25.3164   11.7125 C   0  0  0  0  0  0  0  0  0  0  0  0
   44.7680   26.6359   10.9732 C   0  0  0  0  0  0  0  0  0  0  0  0
   44.1776   29.1293   11.9282 O   0  0  0  0  0  0  0  0  0  0  0  0
   42.2795   25.6816   10.0321 O   0  0  0  0  0  0  0  0  0  0  0  0
   42.3956   26.7885   10.5314 C   0  0  0  0  0  0  0  0  0  0  0  0
   43.4767   27.3048   10.9707 N   0  0  0  0  0  0  0  0  0  0  0  0
   43.2990   28.4524   11.4602 C   0  0  0  0  0  0  0  0  0  0  0  0
   41.8719   28.8781   11.4499 C   0  0  1  0  0  0  0  0  0  0  0  0
   41.2231   27.6739   10.7626 C   0  0  2  0  0  0  0  0  0  0  0  0
  1  2  1  0  0  0  0
  2  3  1  0  0  0  0
  3 20  1  0  0  0  0
  4  5  1  0  0  0  0
  6  7  2  0  0  0  0
  6 12  1  0  0  0  0
  7  8  1  0  0  0  0
  8  9  2  0  0  0  0
  9 11  1  0  0  0  0
 10  5  1  1  0  0  0
 10 11  1  0  0  0  0
 10 16  1  0  0  0  0
 10 27  1  0  0  0  0
 11 12  2  0  0  0  0
 13 12  1  1  0  0  0
 13 15  1  0  0  0  0
 13 28  1  0  0  0  0
 14 15  2  0  0  0  0
 14 19  1  0  0  0  0
 15 16  1  0  0  0  0
 16 17  2  0  0  0  0
 17 18  1  0  0  0  0
 18 19  2  0  0  0  0
 20 21  1  0  0  0  0
 21 25  1  0  0  0  0
 22 26  2  0  0  0  0
 23 24  2  0  0  0  0
 24 25  1  0  0  0  0
 25 26  1  0  0  0  0
 27 26  1  1  0  0  0
 27 28  1  0  0  0  0
 28 24  1  1  0  0  0
M  END
>  <CHROM.1>
171.54641280,-56.79820118,-172.07334192,172.36560682,-55.04050489,41.99723279
27.28914339,12.34716261,0.66282077,0.27684001,-2.60699159

>  <Name>
ligand

>  <RI>
0

>  <Rbt.Current_Directory>
/home/itssahil/PROJECTS/Mol_Feturizer/New_Systems/rnas/1YLS

>  <Rbt.Executable>
rbdock ($Id: //depot/dev/client3/rdock/2013.1/src/exe/rbdock.cxx#4 $)

>  <Rbt.Library>
libRbt.so (2013.1, Build901 2013/11/27)

>  <Rbt.Parameter_File>
/export/apps/rDock/src/rDock_2013.1_src/data/scripts/dock_solv.prm

>  <Rbt.Receptor>
prm/blind_docking_60.prm

>  <SCORE>
-14.4631

>  <SCORE.INTER>
-10.2636

>  <SCORE.INTER.CONST>
1

>  <SCORE.INTER.POLAR>
0

>  <SCORE.INTER.ROT>
5

>  <SCORE.INTER.SOLV>
8.58144

>  <SCORE.INTER.VDW>
-16.6362

>  <SCORE.INTER.norm>
-0.366558

>  <SCORE.INTRA>
-4.27713

>  <SCORE.INTRA.DIHEDRAL>
-8.82574

>  <SCORE.INTRA.DIHEDRAL.0>
12.0148

>  <SCORE.INTRA.POLAR>
0

>  <SCORE.INTRA.POLAR.0>
0

>  <SCORE.INTRA.REPUL>
0

>  <SCORE.INTRA.REPUL.0>
0

>  <SCORE.INTRA.SOLV>
0.00471166

>  <SCORE.INTRA.SOLV.lig_0>
-10.5235

>  <SCORE.INTRA.VDW>
0.133382

>  <SCORE.INTRA.VDW.0>
-1.38455

>  <SCORE.INTRA.norm>
-0.152755

>  <SCORE.RESTR>
0.0776158

>  <SCORE.RESTR.CAVITY>
0.0776158

>  <SCORE.RESTR.norm>
0.00277199

>  <SCORE.SYSTEM>
0

>  <SCORE.SYSTEM.CONST>
0

>  <SCORE.SYSTEM.DIHEDRAL>
0

>  <SCORE.SYSTEM.SOLV>
0

>  <SCORE.SYSTEM.norm>
0

>  <SCORE.heavy>
28

>  <SCORE.norm>
-0.516541

>  <RMSD>
14.503

$$$$
ligand
 OpenBabel11021811413D
libRbt.so/2013.1/901 2013/11/27
 28 32  0  0  0  0  0  0  0  0999 V2000
   46.5094   19.8510   11.1706 C   0  0  0  0  0  0  0  0  0  0  0  0
   46.1586   21.2269   11.7013 C   0  0  0  0  0  0  0  0  0  0  0  0
   44.7018   21.5765   11.4360 C   0  0  0  0  0  0  0  0  0  0  0  0
   39.5087   26.4607   10.8559 O   0  0  0  0  0  0  0  0  0  0  0  0
   39.9143   25.7822   12.0460 C   0  0  0  0  0  0  0  0  0  0  0  0
   44.6350   27.0484   11.3944 C   0  0  0  0  0  0  0  0  0  0  0  0
   44.6537   26.4407   10.1456 C   0  0  0  0  0  0  0  0  0  0  0  0
   43.5080   25.7935    9.6760 C   0  0  0  0  0  0  0  0  0  0  0  0
   42.3465   25.7556   10.4484 C   0  0  0  0  0  0  0  0  0  0  0  0
   41.1951   26.4011   12.6204 C   0  0  1  0  0  0  0  0  0  0  0  0
   42.3444   26.3885   11.6694 C   0  0  0  0  0  0  0  0  0  0  0  0
   43.4727   27.0202   12.1281 C   0  0  0  0  0  0  0  0  0  0  0  0
   43.3639   27.5839   13.4602 C   0  0  1  0  0  0  0  0  0  0  0  0
   42.1995   29.7282   13.9471 C   0  0  0  0  0  0  0  0  0  0  0  0
   42.1872   28.4349   13.4825 C   0  0  0  0  0  0  0  0  0  0  0  0
   41.0355   27.8397   13.0426 C   0  0  0  0  0  0  0  0  0  0  0  0
   39.8415   28.5455   13.0613 C   0  0  0  0  0  0  0  0  0  0  0  0
   39.8419   29.8676   13.5112 C   0  0  0  0  0  0  0  0  0  0  0  0
   41.0208   30.4558   13.9501 C   0  0  0  0  0  0  0  0  0  0  0  0
   44.3961   22.9932   11.9046 C   0  0  0  0  0  0  0  0  0  0  0  0
   44.2821   23.0393   13.4237 C   0  0  0  0  0  0  0  0  0  0  0  0
   41.5916   23.4402   13.1459 O   0  0  0  0  0  0  0  0  0  0  0  0
   45.2145   25.4996   14.4562 O   0  0  0  0  0  0  0  0  0  0  0  0
   44.0348   25.3130   14.2085 C   0  0  0  0  0  0  0  0  0  0  0  0
   43.5241   24.2357   13.7535 N   0  0  0  0  0  0  0  0  0  0  0  0
   42.2819   24.3331   13.5646 C   0  0  0  0  0  0  0  0  0  0  0  0
   41.7491   25.6909   13.8657 C   0  0  1  0  0  0  0  0  0  0  0  0
   43.0218   26.3934   14.3455 C   0  0  2  0  0  0  0  0  0  0  0  0
  1  2  1  0  0  0  0
  2  3  1  0  0  0  0
  3 20  1  0  0  0  0
  4  5  1  0  0  0  0
  6  7  2  0  0  0  0
  6 12  1  0  0  0  0
  7  8  1  0  0  0  0
  8  9  2  0  0  0  0
  9 11  1  0  0  0  0
 10  5  1  6  0  0  0
 10 11  1  0  0  0  0
 10 16  1  0  0  0  0
 10 27  1  0  0  0  0
 11 12  2  0  0  0  0
 13 12  1  6  0  0  0
 13 15  1  0  0  0  0
 13 28  1  0  0  0  0
 14 15  2  0  0  0  0
 14 19  1  0  0  0  0
 15 16  1  0  0  0  0
 16 17  2  0  0  0  0
 17 18  1  0  0  0  0
 18 19  2  0  0  0  0
 20 21  1  0  0  0  0
 21 25  1  0  0  0  0
 22 26  2  0  0  0  0
 23 24  2  0  0  0  0
 24 25  1  0  0  0  0
 25 26  1  0  0  0  0
 27 26  1  6  0  0  0
 27 28  1  0  0  0  0
 28 24  1  6  0  0  0
M  END
>  <CHROM.1>
-176.67622812,-58.14179837,-75.57074521,-159.20323873,-103.69257791,42.84554449
25.67195703,12.58600621,0.90027577,0.53852711,-2.57668849

>  <Name>
ligand

>  <RI>
0

>  <Rbt.Current_Directory>
/home/itssahil/PROJECTS/Mol_Feturizer/New_Systems/rnas/1YLS

>  <Rbt.Executable>
rbdock ($Id: //depot/dev/client3/rdock/2013.1/src/exe/rbdock.cxx#4 $)

>  <Rbt.Library>
libRbt.so (2013.1, Build901 2013/11/27)

>  <Rbt.Parameter_File>
/export/apps/rDock/src/rDock_2013.1_src/data/scripts/dock_solv.prm

>  <Rbt.Receptor>
prm/blind_docking_60.prm

>  <SCORE>
-14.3764

>  <SCORE.INTER>
-10.772

>  <SCORE.INTER.CONST>
1

>  <SCORE.INTER.POLAR>
0

>  <SCORE.INTER.ROT>
5

>  <SCORE.INTER.SOLV>
11.9638

>  <SCORE.INTER.VDW>
-18.1026

>  <SCORE.INTER.norm>
-0.384716

>  <SCORE.INTRA>
-3.60437

>  <SCORE.INTRA.DIHEDRAL>
-6.97184

>  <SCORE.INTRA.DIHEDRAL.0>
12.0148

>  <SCORE.INTRA.POLAR>
0

>  <SCORE.INTRA.POLAR.0>
0

>  <SCORE.INTRA.REPUL>
0

>  <SCORE.INTRA.REPUL.0>
0

>  <SCORE.INTRA.SOLV>
0.0021465

>  <SCORE.INTRA.SOLV.lig_0>
-10.5235

>  <SCORE.INTRA.VDW>
-0.119527

>  <SCORE.INTRA.VDW.0>
-1.38455

>  <SCORE.INTRA.norm>
-0.128728

>  <SCORE.RESTR>
0

>  <SCORE.RESTR.CAVITY>
0

>  <SCORE.RESTR.norm>
0

>  <SCORE.SYSTEM>
0

>  <SCORE.SYSTEM.CONST>
0

>  <SCORE.SYSTEM.DIHEDRAL>
0

>  <SCORE.SYSTEM.SOLV>
0

>  <SCORE.SYSTEM.norm>
0

>  <SCORE.heavy>
28

>  <SCORE.norm>
-0.513443

>  <RMSD>
14.511

$$$$
ligand
 OpenBabel11021811413D
libRbt.so/2013.1/901 2013/11/27
 28 32  0  0  0  0  0  0  0  0999 V2000
   46.5504   23.3643   11.1787 C   0  0  0  0  0  0  0  0  0  0  0  0
   45.1452   23.1231   11.6938 C   0  0  0  0  0  0  0  0  0  0  0  0
   44.2032   24.2531   11.3059 C   0  0  0  0  0  0  0  0  0  0  0  0
   41.4474   31.4005   13.3220 O   0  0  0  0  0  0  0  0  0  0  0  0
   41.6396   30.1141   13.9131 C   0  0  0  0  0  0  0  0  0  0  0  0
   40.8820   25.3053   13.1297 C   0  0  0  0  0  0  0  0  0  0  0  0
   41.5765   24.9796   14.2877 C   0  0  0  0  0  0  0  0  0  0  0  0
   42.1428   25.9959   15.0614 C   0  0  0  0  0  0  0  0  0  0  0  0
   42.0137   27.3327   14.6827 C   0  0  0  0  0  0  0  0  0  0  0  0
   41.1069   29.0048   12.9970 C   0  0  1  0  0  0  0  0  0  0  0  0
   41.2977   27.6314   13.5472 C   0  0  0  0  0  0  0  0  0  0  0  0
   40.7459   26.6301   12.7886 C   0  0  0  0  0  0  0  0  0  0  0  0
   40.0806   27.0711   11.5774 C   0  0  1  0  0  0  0  0  0  0  0  0
   37.8051   28.0775   11.5559 C   0  0  0  0  0  0  0  0  0  0  0  0
   39.1211   28.0954   11.9512 C   0  0  0  0  0  0  0  0  0  0  0  0
   39.6331   29.1204   12.7006 C   0  0  0  0  0  0  0  0  0  0  0  0
   38.8165   30.1764   13.0774 C   0  0  0  0  0  0  0  0  0  0  0  0
   37.4718   30.1621   12.7009 C   0  0  0  0  0  0  0  0  0  0  0  0
   36.9695   29.1118   11.9438 C   0  0  0  0  0  0  0  0  0  0  0  0
   44.5273   25.5160   12.0935 C   0  0  0  0  0  0  0  0  0  0  0  0
   44.6832   26.7053   11.1533 C   0  0  0  0  0  0  0  0  0  0  0  0
   44.0469   29.1232   12.2605 O   0  0  0  0  0  0  0  0  0  0  0  0
   42.2560   25.8556    9.9803 O   0  0  0  0  0  0  0  0  0  0  0  0
   42.3459   26.9188   10.5715 C   0  0  0  0  0  0  0  0  0  0  0  0
   43.3990   27.3870   11.1193 N   0  0  0  0  0  0  0  0  0  0  0  0
   43.1967   28.4949   11.6847 C   0  0  0  0  0  0  0  0  0  0  0  0
   41.7760   28.9363   11.6151 C   0  0  1  0  0  0  0  0  0  0  0  0
   41.1663   27.7968   10.7947 C   0  0  2  0  0  0  0  0  0  0  0  0
  1  2  1  0  0  0  0
  2  3  1  0  0  0  0
  3 20  1  0  0  0  0
  4  5  1  0  0  0  0
  6  7  2  0  0  0  0
  6 12  1  0  0  0  0
  7  8  1  0  0  0  0
  8  9  2  0  0  0  0
  9 11  1  0  0  0  0
 10  5  1  1  0  0  0
 10 11  1  0  0  0  0
 10 16  1  0  0  0  0
 10 27  1  0  0  0  0
 11 12  2  0  0  0  0
 13 12  1  1  0  0  0
 13 15  1  0  0  0  0
 13 28  1  0  0  0  0
 14 15  2  0  0  0  0
 14 19  1  0  0  0  0
 15 16  1  0  0  0  0
 16 17  2  0  0  0  0
 17 18  1  0  0  0  0
 18 19  2  0  0  0  0
 20 21  1  0  0  0  0
 21 25  1  0  0  0  0
 22 26  2  0  0  0  0
 23 24  2  0  0  0  0
 24 25  1  0  0  0  0
 25 26  1  0  0  0  0
 27 26  1  1  0  0  0
 27 28  1  0  0  0  0
 28 24  1  1  0  0  0
M  END
>  <CHROM.1>
-70.98257729,179.05315425,128.87991312,95.58793743,-69.96106392,41.78586442
27.39228562,12.26380563,-0.72322876,0.03674633,0.18056787

>  <Name>
ligand

>  <RI>
0

>  <Rbt.Current_Directory>
/home/itssahil/PROJECTS/Mol_Feturizer/New_Systems/rnas/1YLS

>  <Rbt.Executable>
rbdock ($Id: //depot/dev/client3/rdock/2013.1/src/exe/rbdock.cxx#4 $)

>  <Rbt.Library>
libRbt.so (2013.1, Build901 2013/11/27)

>  <Rbt.Parameter_File>
/export/apps/rDock/src/rDock_2013.1_src/data/scripts/dock_solv.prm

>  <Rbt.Receptor>
prm/blind_docking_60.prm

>  <SCORE>
-10.6863

>  <SCORE.INTER>
-11.3702

>  <SCORE.INTER.CONST>
1

>  <SCORE.INTER.POLAR>
0

>  <SCORE.INTER.ROT>
5

>  <SCORE.INTER.SOLV>
8.21111

>  <SCORE.INTER.VDW>
-17.2505

>  <SCORE.INTER.norm>
-0.40608

>  <SCORE.INTRA>
0.683964

>  <SCORE.INTRA.DIHEDRAL>
0.336418

>  <SCORE.INTRA.DIHEDRAL.0>
12.0148

>  <SCORE.INTRA.POLAR>
0

>  <SCORE.INTRA.POLAR.0>
0

>  <SCORE.INTRA.REPUL>
0

>  <SCORE.INTRA.REPUL.0>
0

>  <SCORE.INTRA.SOLV>
0.413941

>  <SCORE.INTRA.SOLV.lig_0>
-10.5235

>  <SCORE.INTRA.VDW>
0.308784

>  <SCORE.INTRA.VDW.0>
-1.38455

>  <SCORE.INTRA.norm>
0.0244273

>  <SCORE.RESTR>
0

>  <SCORE.RESTR.CAVITY>
0

>  <SCORE.RESTR.norm>
0

>  <SCORE.SYSTEM>
0

>  <SCORE.SYSTEM.CONST>
0

>  <SCORE.SYSTEM.DIHEDRAL>
0

>  <SCORE.SYSTEM.SOLV>
0

>  <SCORE.SYSTEM.norm>
0

>  <SCORE.heavy>
28

>  <SCORE.norm>
-0.381653

>  <RMSD>
14.512

$$$$
ligand
 OpenBabel11021811413D
libRbt.so/2013.1/901 2013/11/27
 28 32  0  0  0  0  0  0  0  0999 V2000
   45.5555   22.7057   10.9942 C   0  0  0  0  0  0  0  0  0  0  0  0
   46.2934   24.0260   11.0961 C   0  0  0  0  0  0  0  0  0  0  0  0
   45.8673   24.8140   12.3259 C   0  0  0  0  0  0  0  0  0  0  0  0
   41.5325   31.3934   13.2527 O   0  0  0  0  0  0  0  0  0  0  0  0
   41.6593   30.1197   13.8871 C   0  0  0  0  0  0  0  0  0  0  0  0
   40.8857   25.3048   13.1584 C   0  0  0  0  0  0  0  0  0  0  0  0
   41.5860   24.9895   14.3158 C   0  0  0  0  0  0  0  0  0  0  0  0
   42.1590   26.0125   15.0757 C   0  0  0  0  0  0  0  0  0  0  0  0
   42.0310   27.3455   14.6838 C   0  0  0  0  0  0  0  0  0  0  0  0
   41.1187   29.0021   12.9857 C   0  0  1  0  0  0  0  0  0  0  0  0
   41.3093   27.6341   13.5492 C   0  0  0  0  0  0  0  0  0  0  0  0
   40.7509   26.6263   12.8043 C   0  0  0  0  0  0  0  0  0  0  0  0
   40.0797   27.0562   11.5923 C   0  0  1  0  0  0  0  0  0  0  0  0
   37.8065   28.0679   11.5731 C   0  0  0  0  0  0  0  0  0  0  0  0
   39.1248   28.0867   11.9607 C   0  0  0  0  0  0  0  0  0  0  0  0
   39.6435   29.1182   12.6965 C   0  0  0  0  0  0  0  0  0  0  0  0
   38.8316   30.1802   13.0669 C   0  0  0  0  0  0  0  0  0  0  0  0
   37.4847   30.1653   12.6981 C   0  0  0  0  0  0  0  0  0  0  0  0
   36.9756   29.1083   11.9549 C   0  0  0  0  0  0  0  0  0  0  0  0
   44.5224   25.4893   12.0911 C   0  0  0  0  0  0  0  0  0  0  0  0
   44.6789   26.6747   11.1460 C   0  0  0  0  0  0  0  0  0  0  0  0
   44.0547   29.1056   12.2315 O   0  0  0  0  0  0  0  0  0  0  0  0
   42.2431   25.8187    9.9958 O   0  0  0  0  0  0  0  0  0  0  0  0
   42.3389   26.8878   10.5753 C   0  0  0  0  0  0  0  0  0  0  0  0
   43.3963   27.3592   11.1122 N   0  0  0  0  0  0  0  0  0  0  0  0
   43.1998   28.4734   11.6671 C   0  0  0  0  0  0  0  0  0  0  0  0
   41.7798   28.9176   11.6009 C   0  0  1  0  0  0  0  0  0  0  0  0
   41.1627   27.7710   10.7960 C   0  0  2  0  0  0  0  0  0  0  0  0
  1  2  1  0  0  0  0
  2  3  1  0  0  0  0
  3 20  1  0  0  0  0
  4  5  1  0  0  0  0
  6  7  2  0  0  0  0
  6 12  1  0  0  0  0
  7  8  1  0  0  0  0
  8  9  2  0  0  0  0
  9 11  1  0  0  0  0
 10  5  1  1  0  0  0
 10 11  1  0  0  0  0
 10 16  1  0  0  0  0
 10 27  1  0  0  0  0
 11 12  2  0  0  0  0
 13 12  1  1  0  0  0
 13 15  1  0  0  0  0
 13 28  1  0  0  0  0
 14 15  2  0  0  0  0
 14 19  1  0  0  0  0
 15 16  1  0  0  0  0
 16 17  2  0  0  0  0
 17 18  1  0  0  0  0
 18 19  2  0  0  0  0
 20 21  1  0  0  0  0
 21 25  1  0  0  0  0
 22 26  2  0  0  0  0
 23 24  2  0  0  0  0
 24 25  1  0  0  0  0
 25 26  1  0  0  0  0
 27 26  1  1  0  0  0
 27 28  1  0  0  0  0
 28 24  1  1  0  0  0
M  END
>  <CHROM.1>
-77.78786826,175.91934244,-73.40923124,-172.86258997,-69.52524292,41.86042742
27.41232084,12.27000646,0.68296487,-0.01118976,-2.92969897

>  <Name>
ligand

>  <RI>
0

>  <Rbt.Current_Directory>
/home/itssahil/PROJECTS/Mol_Feturizer/New_Systems/rnas/1YLS

>  <Rbt.Executable>
rbdock ($Id: //depot/dev/client3/rdock/2013.1/src/exe/rbdock.cxx#4 $)

>  <Rbt.Library>
libRbt.so (2013.1, Build901 2013/11/27)

>  <Rbt.Parameter_File>
/export/apps/rDock/src/rDock_2013.1_src/data/scripts/dock_solv.prm

>  <Rbt.Receptor>
prm/blind_docking_80.prm

>  <SCORE>
-13.4134

>  <SCORE.INTER>
-10.9269

>  <SCORE.INTER.CONST>
1

>  <SCORE.INTER.POLAR>
0

>  <SCORE.INTER.ROT>
5

>  <SCORE.INTER.SOLV>
8.25041

>  <SCORE.INTER.VDW>
-16.968

>  <SCORE.INTER.norm>
-0.390245

>  <SCORE.INTRA>
-2.98569

>  <SCORE.INTRA.DIHEDRAL>
-7.32126

>  <SCORE.INTRA.DIHEDRAL.0>
12.0148

>  <SCORE.INTRA.POLAR>
0

>  <SCORE.INTRA.POLAR.0>
0

>  <SCORE.INTRA.REPUL>
0

>  <SCORE.INTRA.REPUL.0>
0

>  <SCORE.INTRA.SOLV>
0.184326

>  <SCORE.INTRA.SOLV.lig_0>
-10.5235

>  <SCORE.INTRA.VDW>
0.58278

>  <SCORE.INTRA.VDW.0>
-1.38455

>  <SCORE.INTRA.norm>
-0.106632

>  <SCORE.RESTR>
0.49917

>  <SCORE.RESTR.CAVITY>
0.49917

>  <SCORE.RESTR.norm>
0.0178275

>  <SCORE.SYSTEM>
0

>  <SCORE.SYSTEM.CONST>
0

>  <SCORE.SYSTEM.DIHEDRAL>
0

>  <SCORE.SYSTEM.SOLV>
0

>  <SCORE.SYSTEM.norm>
0

>  <SCORE.heavy>
28

>  <SCORE.norm>
-0.479049

>  <RMSD>
14.514

$$$$
ligand
 OpenBabel11021811413D
libRbt.so/2013.1/901 2013/11/27
 28 32  0  0  0  0  0  0  0  0999 V2000
   46.5720   19.8730   11.2427 C   0  0  0  0  0  0  0  0  0  0  0  0
   46.1650   21.2433   11.7471 C   0  0  0  0  0  0  0  0  0  0  0  0
   44.7140   21.5563   11.4133 C   0  0  0  0  0  0  0  0  0  0  0  0
   39.4918   26.5185   10.7747 O   0  0  0  0  0  0  0  0  0  0  0  0
   39.8800   25.8059   11.9505 C   0  0  0  0  0  0  0  0  0  0  0  0
   44.6345   26.9904   11.3990 C   0  0  0  0  0  0  0  0  0  0  0  0
   44.6672   26.3884   10.1476 C   0  0  0  0  0  0  0  0  0  0  0  0
   43.5196   25.7641    9.6522 C   0  0  0  0  0  0  0  0  0  0  0  0
   42.3426   25.7434   10.4013 C   0  0  0  0  0  0  0  0  0  0  0  0
   41.1600   26.3990   12.5534 C   0  0  1  0  0  0  0  0  0  0  0  0
   42.3275   26.3704   11.6252 C   0  0  0  0  0  0  0  0  0  0  0  0
   43.4575   26.9796   12.1094 C   0  0  0  0  0  0  0  0  0  0  0  0
   43.3324   27.5387   13.4419 C   0  0  1  0  0  0  0  0  0  0  0  0
   42.1970   29.7012   13.9167 C   0  0  0  0  0  0  0  0  0  0  0  0
   42.1709   28.4106   13.4454 C   0  0  0  0  0  0  0  0  0  0  0  0
   41.0177   27.8382   12.9797 C   0  0  0  0  0  0  0  0  0  0  0  0
   39.8363   28.5652   12.9784 C   0  0  0  0  0  0  0  0  0  0  0  0
   39.8513   29.8849   13.4350 C   0  0  0  0  0  0  0  0  0  0  0  0
   41.0316   30.4498   13.9002 C   0  0  0  0  0  0  0  0  0  0  0  0
   44.3446   22.9563   11.8864 C   0  0  0  0  0  0  0  0  0  0  0  0
   44.1700   22.9786   13.4003 C   0  0  0  0  0  0  0  0  0  0  0  0
   41.4931   23.4290   13.0714 O   0  0  0  0  0  0  0  0  0  0  0  0
   45.1254   25.4169   14.4637 O   0  0  0  0  0  0  0  0  0  0  0  0
   43.9477   25.2526   14.1917 C   0  0  0  0  0  0  0  0  0  0  0  0
   43.4270   24.1868   13.7212 N   0  0  0  0  0  0  0  0  0  0  0  0
   42.1908   24.3074   13.5083 C   0  0  0  0  0  0  0  0  0  0  0  0
   41.6764   25.6730   13.8057 C   0  0  1  0  0  0  0  0  0  0  0  0
   42.9516   26.3503   14.3142 C   0  0  2  0  0  0  0  0  0  0  0  0
  1  2  1  0  0  0  0
  2  3  1  0  0  0  0
  3 20  1  0  0  0  0
  4  5  1  0  0  0  0
  6  7  2  0  0  0  0
  6 12  1  0  0  0  0
  7  8  1  0  0  0  0
  8  9  2  0  0  0  0
  9 11  1  0  0  0  0
 10  5  1  6  0  0  0
 10 11  1  0  0  0  0
 10 16  1  0  0  0  0
 10 27  1  0  0  0  0
 11 12  2  0  0  0  0
 13 12  1  6  0  0  0
 13 15  1  0  0  0  0
 13 28  1  0  0  0  0
 14 15  2  0  0  0  0
 14 19  1  0  0  0  0
 15 16  1  0  0  0  0
 16 17  2  0  0  0  0
 17 18  1  0  0  0  0
 18 19  2  0  0  0  0
 20 21  1  0  0  0  0
 21 25  1  0  0  0  0
 22 26  2  0  0  0  0
 23 24  2  0  0  0  0
 24 25  1  0  0  0  0
 25 26  1  0  0  0  0
 27 26  1  6  0  0  0
 27 28  1  0  0  0  0
 28 24  1  6  0  0  0
M  END
>  <CHROM.1>
-177.99116272,-59.58904368,-74.87344986,-162.39938687,-102.25702690,42.81433405
25.65216032,12.55310423,0.88815447,0.55465074,-2.57108014

>  <Name>
ligand

>  <RI>
0

>  <Rbt.Current_Directory>
/home/itssahil/PROJECTS/Mol_Feturizer/New_Systems/rnas/1YLS

>  <Rbt.Executable>
rbdock ($Id: //depot/dev/client3/rdock/2013.1/src/exe/rbdock.cxx#4 $)

>  <Rbt.Library>
libRbt.so (2013.1, Build901 2013/11/27)

>  <Rbt.Parameter_File>
/export/apps/rDock/src/rDock_2013.1_src/data/scripts/dock_solv.prm

>  <Rbt.Receptor>
prm/blind_docking_100.prm

>  <SCORE>
-14.1886

>  <SCORE.INTER>
-10.289

>  <SCORE.INTER.CONST>
1

>  <SCORE.INTER.POLAR>
0

>  <SCORE.INTER.ROT>
5

>  <SCORE.INTER.SOLV>
11.9066

>  <SCORE.INTER.VDW>
-17.7615

>  <SCORE.INTER.norm>
-0.367464

>  <SCORE.INTRA>
-3.90413

>  <SCORE.INTRA.DIHEDRAL>
-7.47824

>  <SCORE.INTRA.DIHEDRAL.0>
12.0148

>  <SCORE.INTRA.POLAR>
0

>  <SCORE.INTRA.POLAR.0>
0

>  <SCORE.INTRA.REPUL>
0

>  <SCORE.INTRA.REPUL.0>
0

>  <SCORE.INTRA.SOLV>
-0.00679976

>  <SCORE.INTRA.SOLV.lig_0>
-10.5235

>  <SCORE.INTRA.VDW>
-0.161616

>  <SCORE.INTRA.VDW.0>
-1.38455

>  <SCORE.INTRA.norm>
-0.139433

>  <SCORE.RESTR>
0.00456315

>  <SCORE.RESTR.CAVITY>
0.00456315

>  <SCORE.RESTR.norm>
0.00016297

>  <SCORE.SYSTEM>
0

>  <SCORE.SYSTEM.CONST>
0

>  <SCORE.SYSTEM.DIHEDRAL>
0

>  <SCORE.SYSTEM.SOLV>
0

>  <SCORE.SYSTEM.norm>
0

>  <SCORE.heavy>
28

>  <SCORE.norm>
-0.506734

>  <RMSD>
14.531

$$$$
ligand
 OpenBabel11021811413D
libRbt.so/2013.1/901 2013/11/27
 28 32  0  0  0  0  0  0  0  0999 V2000
   46.5440   21.4250   10.0582 C   0  0  0  0  0  0  0  0  0  0  0  0
   45.3789   21.6293   11.0061 C   0  0  0  0  0  0  0  0  0  0  0  0
   45.1021   23.1061   11.2456 C   0  0  0  0  0  0  0  0  0  0  0  0
   39.4698   26.5786   10.7144 O   0  0  0  0  0  0  0  0  0  0  0  0
   39.8720   25.8483   11.8745 C   0  0  0  0  0  0  0  0  0  0  0  0
   44.6430   27.0114   11.4303 C   0  0  0  0  0  0  0  0  0  0  0  0
   44.7128   26.3695   10.2005 C   0  0  0  0  0  0  0  0  0  0  0  0
   43.5798   25.7304    9.6906 C   0  0  0  0  0  0  0  0  0  0  0  0
   42.3805   25.7345   10.4038 C   0  0  0  0  0  0  0  0  0  0  0  0
   41.1341   26.4597   12.4968 C   0  0  1  0  0  0  0  0  0  0  0  0
   42.3292   26.4004   11.6060 C   0  0  0  0  0  0  0  0  0  0  0  0
   43.4450   27.0241   12.1045 C   0  0  0  0  0  0  0  0  0  0  0  0
   43.2803   27.6258   13.4140 C   0  0  1  0  0  0  0  0  0  0  0  0
   42.1345   29.8032   13.7845 C   0  0  0  0  0  0  0  0  0  0  0  0
   42.1206   28.4982   13.3542 C   0  0  0  0  0  0  0  0  0  0  0  0
   40.9812   27.9119   12.8722 C   0  0  0  0  0  0  0  0  0  0  0  0
   39.8016   28.6393   12.8116 C   0  0  0  0  0  0  0  0  0  0  0  0
   39.8049   29.9729   13.2259 C   0  0  0  0  0  0  0  0  0  0  0  0
   40.9714   30.5516   13.7084 C   0  0  0  0  0  0  0  0  0  0  0  0
   45.3234   23.4629   12.7098 C   0  0  0  0  0  0  0  0  0  0  0  0
   44.1113   23.0662   13.5442 C   0  0  0  0  0  0  0  0  0  0  0  0
   41.4463   23.5076   13.1196 O   0  0  0  0  0  0  0  0  0  0  0  0
   45.0379   25.5367   14.5574 O   0  0  0  0  0  0  0  0  0  0  0  0
   43.8687   25.3646   14.2551 C   0  0  0  0  0  0  0  0  0  0  0  0
   43.3608   24.2846   13.8034 N   0  0  0  0  0  0  0  0  0  0  0  0
   42.1319   24.3990   13.5492 C   0  0  0  0  0  0  0  0  0  0  0  0
   41.6110   25.7739   13.7868 C   0  0  1  0  0  0  0  0  0  0  0  0
   42.8712   26.4663   14.3120 C   0  0  2  0  0  0  0  0  0  0  0  0
  1  2  1  0  0  0  0
  2  3  1  0  0  0  0
  3 20  1  0  0  0  0
  4  5  1  0  0  0  0
  6  7  2  0  0  0  0
  6 12  1  0  0  0  0
  7  8  1  0  0  0  0
  8  9  2  0  0  0  0
  9 11  1  0  0  0  0
 10  5  1  6  0  0  0
 10 11  1  0  0  0  0
 10 16  1  0  0  0  0
 10 27  1  0  0  0  0
 11 12  2  0  0  0  0
 13 12  1  6  0  0  0
 13 15  1  0  0  0  0
 13 28  1  0  0  0  0
 14 15  2  0  0  0  0
 14 19  1  0  0  0  0
 15 16  1  0  0  0  0
 16 17  2  0  0  0  0
 17 18  1  0  0  0  0
 18 19  2  0  0  0  0
 20 21  1  0  0  0  0
 21 25  1  0  0  0  0
 22 26  2  0  0  0  0
 23 24  2  0  0  0  0
 24 25  1  0  0  0  0
 25 26  1  0  0  0  0
 27 26  1  6  0  0  0
 27 28  1  0  0  0  0
 28 24  1  6  0  0  0
M  END
>  <CHROM.1>
-116.71074216,-63.45698647,-80.47948998,-102.31590515,-49.94961942,42.80621838
25.86721222,12.48420783,0.72795923,0.66280428,-2.30590299

>  <Name>
ligand

>  <RI>
0

>  <Rbt.Current_Directory>
/home/itssahil/PROJECTS/Mol_Feturizer/New_Systems/rnas/1YLS

>  <Rbt.Executable>
rbdock ($Id: //depot/dev/client3/rdock/2013.1/src/exe/rbdock.cxx#4 $)

>  <Rbt.Library>
libRbt.so (2013.1, Build901 2013/11/27)

>  <Rbt.Parameter_File>
/export/apps/rDock/src/rDock_2013.1_src/data/scripts/dock_solv.prm

>  <Rbt.Receptor>
prm/blind_docking_100.prm

>  <SCORE>
-10.2122

>  <SCORE.INTER>
-11.8713

>  <SCORE.INTER.CONST>
1

>  <SCORE.INTER.POLAR>
0

>  <SCORE.INTER.ROT>
5

>  <SCORE.INTER.SOLV>
11.3602

>  <SCORE.INTER.VDW>
-18.6343

>  <SCORE.INTER.norm>
-0.423976

>  <SCORE.INTRA>
1.55128

>  <SCORE.INTRA.DIHEDRAL>
2.42278

>  <SCORE.INTRA.DIHEDRAL.0>
12.0148

>  <SCORE.INTRA.POLAR>
0

>  <SCORE.INTRA.POLAR.0>
0

>  <SCORE.INTRA.REPUL>
0

>  <SCORE.INTRA.REPUL.0>
0

>  <SCORE.INTRA.SOLV>
0.132061

>  <SCORE.INTRA.SOLV.lig_0>
-10.5235

>  <SCORE.INTRA.VDW>
0.273857

>  <SCORE.INTRA.VDW.0>
-1.38455

>  <SCORE.INTRA.norm>
0.0554028

>  <SCORE.RESTR>
0.107833

>  <SCORE.RESTR.CAVITY>
0.107833

>  <SCORE.RESTR.norm>
0.00385118

>  <SCORE.SYSTEM>
0

>  <SCORE.SYSTEM.CONST>
0

>  <SCORE.SYSTEM.DIHEDRAL>
0

>  <SCORE.SYSTEM.SOLV>
0

>  <SCORE.SYSTEM.norm>
0

>  <SCORE.heavy>
28

>  <SCORE.norm>
-0.364722

>  <RMSD>
14.547

$$$$
ligand
 OpenBabel11021811413D
libRbt.so/2013.1/901 2013/11/27
 28 32  0  0  0  0  0  0  0  0999 V2000
   46.6242   22.4823   10.6221 C   0  0  0  0  0  0  0  0  0  0  0  0
   45.5868   23.5869   10.6604 C   0  0  0  0  0  0  0  0  0  0  0  0
   45.7549   24.4730   11.8857 C   0  0  0  0  0  0  0  0  0  0  0  0
   41.3169   30.2534   14.9783 O   0  0  0  0  0  0  0  0  0  0  0  0
   41.8387   30.2290   13.6485 C   0  0  0  0  0  0  0  0  0  0  0  0
   41.0099   25.3818   13.2888 C   0  0  0  0  0  0  0  0  0  0  0  0
   41.7596   25.1412   14.4330 C   0  0  0  0  0  0  0  0  0  0  0  0
   42.3711   26.2094   15.0944 C   0  0  0  0  0  0  0  0  0  0  0  0
   42.2322   27.5134   14.6175 C   0  0  0  0  0  0  0  0  0  0  0  0
   41.2529   29.0565   12.8512 C   0  0  1  0  0  0  0  0  0  0  0  0
   41.4619   27.7289   13.4987 C   0  0  0  0  0  0  0  0  0  0  0  0
   40.8658   26.6768   12.8505 C   0  0  0  0  0  0  0  0  0  0  0  0
   40.1433   27.0278   11.6427 C   0  0  1  0  0  0  0  0  0  0  0  0
   37.8765   28.0538   11.6543 C   0  0  0  0  0  0  0  0  0  0  0  0
   39.2109   28.0887   11.9810 C   0  0  0  0  0  0  0  0  0  0  0  0
   39.7669   29.1642   12.6201 C   0  0  0  0  0  0  0  0  0  0  0  0
   38.9775   30.2555   12.9519 C   0  0  0  0  0  0  0  0  0  0  0  0
   37.6155   30.2260   12.6450 C   0  0  0  0  0  0  0  0  0  0  0  0
   37.0686   29.1245   11.9998 C   0  0  0  0  0  0  0  0  0  0  0  0
   44.5812   25.4348   12.0175 C   0  0  0  0  0  0  0  0  0  0  0  0
   44.7161   26.5800   11.0208 C   0  0  0  0  0  0  0  0  0  0  0  0
   44.1529   29.0846   11.9624 O   0  0  0  0  0  0  0  0  0  0  0  0
   42.2271   25.6663   10.0413 O   0  0  0  0  0  0  0  0  0  0  0  0
   42.3539   26.7720   10.5408 C   0  0  0  0  0  0  0  0  0  0  0  0
   43.4365   27.2706   10.9966 N   0  0  0  0  0  0  0  0  0  0  0  0
   43.2705   28.4219   11.4814 C   0  0  0  0  0  0  0  0  0  0  0  0
   41.8511   28.8718   11.4476 C   0  0  1  0  0  0  0  0  0  0  0  0
   41.1931   27.6775   10.7518 C   0  0  2  0  0  0  0  0  0  0  0  0
  1  2  1  0  0  0  0
  2  3  1  0  0  0  0
  3 20  1  0  0  0  0
  4  5  1  0  0  0  0
  6  7  2  0  0  0  0
  6 12  1  0  0  0  0
  7  8  1  0  0  0  0
  8  9  2  0  0  0  0
  9 11  1  0  0  0  0
 10  5  1  1  0  0  0
 10 11  1  0  0  0  0
 10 16  1  0  0  0  0
 10 27  1  0  0  0  0
 11 12  2  0  0  0  0
 13 12  1  1  0  0  0
 13 15  1  0  0  0  0
 13 28  1  0  0  0  0
 14 15  2  0  0  0  0
 14 19  1  0  0  0  0
 15 16  1  0  0  0  0
 16 17  2  0  0  0  0
 17 18  1  0  0  0  0
 18 19  2  0  0  0  0
 20 21  1  0  0  0  0
 21 25  1  0  0  0  0
 22 26  2  0  0  0  0
 23 24  2  0  0  0  0
 24 25  1  0  0  0  0
 25 26  1  0  0  0  0
 27 26  1  1  0  0  0
 27 28  1  0  0  0  0
 28 24  1  1  0  0  0
M  END
>  <CHROM.1>
-171.23670172,-55.79349550,-76.64612815,167.41293956,-67.68339261,41.94562351
27.33168652,12.25197498,0.64618822,0.31404650,-2.43272283

>  <Name>
ligand

>  <RI>
0

>  <Rbt.Current_Directory>
/home/itssahil/PROJECTS/Mol_Feturizer/New_Systems/rnas/1YLS

>  <Rbt.Executable>
rbdock ($Id: //depot/dev/client3/rdock/2013.1/src/exe/rbdock.cxx#4 $)

>  <Rbt.Library>
libRbt.so (2013.1, Build901 2013/11/27)

>  <Rbt.Parameter_File>
/export/apps/rDock/src/rDock_2013.1_src/data/scripts/dock_solv.prm

>  <Rbt.Receptor>
prm/blind_docking_60.prm

>  <SCORE>
-15.2495

>  <SCORE.INTER>
-11.493

>  <SCORE.INTER.CONST>
1

>  <SCORE.INTER.POLAR>
0

>  <SCORE.INTER.ROT>
5

>  <SCORE.INTER.SOLV>
9.32022

>  <SCORE.INTER.VDW>
-17.7021

>  <SCORE.INTER.norm>
-0.410465

>  <SCORE.INTRA>
-3.80932

>  <SCORE.INTRA.DIHEDRAL>
-7.46179

>  <SCORE.INTRA.DIHEDRAL.0>
12.0148

>  <SCORE.INTRA.POLAR>
0

>  <SCORE.INTRA.POLAR.0>
0

>  <SCORE.INTRA.REPUL>
0

>  <SCORE.INTRA.REPUL.0>
0

>  <SCORE.INTRA.SOLV>
0.0787286

>  <SCORE.INTRA.SOLV.lig_0>
-10.5235

>  <SCORE.INTRA.VDW>
-0.117787

>  <SCORE.INTRA.VDW.0>
-1.38455

>  <SCORE.INTRA.norm>
-0.136047

>  <SCORE.RESTR>
0.0528536

>  <SCORE.RESTR.CAVITY>
0.0528536

>  <SCORE.RESTR.norm>
0.00188763

>  <SCORE.SYSTEM>
0

>  <SCORE.SYSTEM.CONST>
0

>  <SCORE.SYSTEM.DIHEDRAL>
0

>  <SCORE.SYSTEM.SOLV>
0

>  <SCORE.SYSTEM.norm>
0

>  <SCORE.heavy>
28

>  <SCORE.norm>
-0.544624

>  <RMSD>
14.552

$$$$
ligand
 OpenBabel11021811413D
libRbt.so/2013.1/901 2013/11/27
 28 32  0  0  0  0  0  0  0  0999 V2000
   46.4383   22.3877   10.3727 C   0  0  0  0  0  0  0  0  0  0  0  0
   45.4905   23.5681   10.4511 C   0  0  0  0  0  0  0  0  0  0  0  0
   45.7283   24.3969   11.7046 C   0  0  0  0  0  0  0  0  0  0  0  0
   41.3732   30.1952   15.0275 O   0  0  0  0  0  0  0  0  0  0  0  0
   41.8661   30.1998   13.6866 C   0  0  0  0  0  0  0  0  0  0  0  0
   41.0503   25.3534   13.2870 C   0  0  0  0  0  0  0  0  0  0  0  0
   41.8094   25.1046   14.4233 C   0  0  0  0  0  0  0  0  0  0  0  0
   42.4222   26.1685   15.0903 C   0  0  0  0  0  0  0  0  0  0  0  0
   42.2755   27.4764   14.6268 C   0  0  0  0  0  0  0  0  0  0  0  0
   41.2782   29.0329   12.8825 C   0  0  1  0  0  0  0  0  0  0  0  0
   41.4963   27.7000   13.5158 C   0  0  0  0  0  0  0  0  0  0  0  0
   40.8988   26.6521   12.8622 C   0  0  0  0  0  0  0  0  0  0  0  0
   40.1662   27.0121   11.6631 C   0  0  1  0  0  0  0  0  0  0  0  0
   37.8962   28.0304   11.7012 C   0  0  0  0  0  0  0  0  0  0  0  0
   39.2329   28.0667   12.0183 C   0  0  0  0  0  0  0  0  0  0  0  0
   39.7902   29.1379   12.6635 C   0  0  0  0  0  0  0  0  0  0  0  0
   38.9997   30.2233   13.0115 C   0  0  0  0  0  0  0  0  0  0  0  0
   37.6355   30.1922   12.7144 C   0  0  0  0  0  0  0  0  0  0  0  0
   37.0874   29.0951   12.0628 C   0  0  0  0  0  0  0  0  0  0  0  0
   44.5851   25.3796   11.9230 C   0  0  0  0  0  0  0  0  0  0  0  0
   44.7357   26.5854   11.0031 C   0  0  0  0  0  0  0  0  0  0  0  0
   44.1713   29.0791   11.9726 O   0  0  0  0  0  0  0  0  0  0  0  0
   42.2425   25.6728   10.0334 O   0  0  0  0  0  0  0  0  0  0  0  0
   42.3694   26.7740   10.5424 C   0  0  0  0  0  0  0  0  0  0  0  0
   43.4537   27.2720   10.9949 N   0  0  0  0  0  0  0  0  0  0  0  0
   43.2876   28.4181   11.4919 C   0  0  0  0  0  0  0  0  0  0  0  0
   41.8665   28.8635   11.4729 C   0  0  1  0  0  0  0  0  0  0  0  0
   41.2072   27.6737   10.7706 C   0  0  2  0  0  0  0  0  0  0  0  0
  1  2  1  0  0  0  0
  2  3  1  0  0  0  0
  3 20  1  0  0  0  0
  4  5  1  0  0  0  0
  6  7  2  0  0  0  0
  6 12  1  0  0  0  0
  7  8  1  0  0  0  0
  8  9  2  0  0  0  0
  9 11  1  0  0  0  0
 10  5  1  1  0  0  0
 10 11  1  0  0  0  0
 10 16  1  0  0  0  0
 10 27  1  0  0  0  0
 11 12  2  0  0  0  0
 13 12  1  1  0  0  0
 13 15  1  0  0  0  0
 13 28  1  0  0  0  0
 14 15  2  0  0  0  0
 14 19  1  0  0  0  0
 15 16  1  0  0  0  0
 16 17  2  0  0  0  0
 17 18  1  0  0  0  0
 18 19  2  0  0  0  0
 20 21  1  0  0  0  0
 21 25  1  0  0  0  0
 22 26  2  0  0  0  0
 23 24  2  0  0  0  0
 24 25  1  0  0  0  0
 25 26  1  0  0  0  0
 27 26  1  1  0  0  0
 27 28  1  0  0  0  0
 28 24  1  1  0  0  0
M  END
>  <CHROM.1>
-167.44163554,-54.71570351,-78.54804126,164.49134690,-64.22228689,41.95598305
27.30495271,12.24107587,0.67423310,0.29655575,-2.43268277

>  <Name>
ligand

>  <RI>
0

>  <Rbt.Current_Directory>
/home/itssahil/PROJECTS/Mol_Feturizer/New_Systems/rnas/1YLS

>  <Rbt.Executable>
rbdock ($Id: //depot/dev/client3/rdock/2013.1/src/exe/rbdock.cxx#4 $)

>  <Rbt.Library>
libRbt.so (2013.1, Build901 2013/11/27)

>  <Rbt.Parameter_File>
/export/apps/rDock/src/rDock_2013.1_src/data/scripts/dock_solv.prm

>  <Rbt.Receptor>
prm/blind_docking_80.prm

>  <SCORE>
-14.6335

>  <SCORE.INTER>
-11.4995

>  <SCORE.INTER.CONST>
1

>  <SCORE.INTER.POLAR>
0

>  <SCORE.INTER.ROT>
5

>  <SCORE.INTER.SOLV>
9.53598

>  <SCORE.INTER.VDW>
-17.7783

>  <SCORE.INTER.norm>
-0.410695

>  <SCORE.INTRA>
-3.26781

>  <SCORE.INTRA.DIHEDRAL>
-6.60691

>  <SCORE.INTRA.DIHEDRAL.0>
12.0148

>  <SCORE.INTRA.POLAR>
0

>  <SCORE.INTRA.POLAR.0>
0

>  <SCORE.INTRA.REPUL>
0

>  <SCORE.INTRA.REPUL.0>
0

>  <SCORE.INTRA.SOLV>
0.104926

>  <SCORE.INTRA.SOLV.lig_0>
-10.5235

>  <SCORE.INTRA.VDW>
-0.0168219

>  <SCORE.INTRA.VDW.0>
-1.38455

>  <SCORE.INTRA.norm>
-0.116708

>  <SCORE.RESTR>
0.133782

>  <SCORE.RESTR.CAVITY>
0.133782

>  <SCORE.RESTR.norm>
0.00477793

>  <SCORE.SYSTEM>
0

>  <SCORE.SYSTEM.CONST>
0

>  <SCORE.SYSTEM.DIHEDRAL>
0

>  <SCORE.SYSTEM.SOLV>
0

>  <SCORE.SYSTEM.norm>
0

>  <SCORE.heavy>
28

>  <SCORE.norm>
-0.522625

>  <RMSD>
14.557

$$$$
ligand
 OpenBabel11021811413D
libRbt.so/2013.1/901 2013/11/27
 28 32  0  0  0  0  0  0  0  0999 V2000
   46.2217   22.4954   10.3939 C   0  0  0  0  0  0  0  0  0  0  0  0
   46.0801   23.8756   11.0045 C   0  0  0  0  0  0  0  0  0  0  0  0
   44.6415   24.1680   11.4041 C   0  0  0  0  0  0  0  0  0  0  0  0
   41.5513   31.3760   13.2782 O   0  0  0  0  0  0  0  0  0  0  0  0
   41.6818   30.0964   13.9001 C   0  0  0  0  0  0  0  0  0  0  0  0
   40.8885   25.2897   13.1394 C   0  0  0  0  0  0  0  0  0  0  0  0
   41.5866   24.9640   14.2951 C   0  0  0  0  0  0  0  0  0  0  0  0
   42.1635   25.9795   15.0621 C   0  0  0  0  0  0  0  0  0  0  0  0
   42.0413   27.3156   14.6788 C   0  0  0  0  0  0  0  0  0  0  0  0
   41.1372   28.9871   12.9910 C   0  0  1  0  0  0  0  0  0  0  0  0
   41.3217   27.6146   13.5456 C   0  0  0  0  0  0  0  0  0  0  0  0
   40.7595   26.6141   12.7938 C   0  0  0  0  0  0  0  0  0  0  0  0
   40.0910   27.0547   11.5842 C   0  0  1  0  0  0  0  0  0  0  0  0
   37.8221   28.0761   11.5701 C   0  0  0  0  0  0  0  0  0  0  0  0
   39.1402   28.0868   11.9587 C   0  0  0  0  0  0  0  0  0  0  0  0
   39.6627   29.1113   12.7015 C   0  0  0  0  0  0  0  0  0  0  0  0
   38.8550   30.1742   13.0783 C   0  0  0  0  0  0  0  0  0  0  0  0
   37.5083   30.1674   12.7085 C   0  0  0  0  0  0  0  0  0  0  0  0
   36.9953   29.1175   11.9581 C   0  0  0  0  0  0  0  0  0  0  0  0
   44.5467   25.5054   12.1269 C   0  0  0  0  0  0  0  0  0  0  0  0
   44.6889   26.6568   11.1385 C   0  0  0  0  0  0  0  0  0  0  0  0
   44.0742   29.0832   12.2394 O   0  0  0  0  0  0  0  0  0  0  0  0
   42.2503   25.8186    9.9811 O   0  0  0  0  0  0  0  0  0  0  0  0
   42.3501   26.8835   10.5676 C   0  0  0  0  0  0  0  0  0  0  0  0
   43.4091   27.3469   11.1083 N   0  0  0  0  0  0  0  0  0  0  0  0
   43.2170   28.4583   11.6704 C   0  0  0  0  0  0  0  0  0  0  0  0
   41.7989   28.9089   11.6061 C   0  0  1  0  0  0  0  0  0  0  0  0
   41.1775   27.7702   10.7933 C   0  0  2  0  0  0  0  0  0  0  0  0
  1  2  1  0  0  0  0
  2  3  1  0  0  0  0
  3 20  1  0  0  0  0
  4  5  1  0  0  0  0
  6  7  2  0  0  0  0
  6 12  1  0  0  0  0
  7  8  1  0  0  0  0
  8  9  2  0  0  0  0
  9 11  1  0  0  0  0
 10  5  1  1  0  0  0
 10 11  1  0  0  0  0
 10 16  1  0  0  0  0
 10 27  1  0  0  0  0
 11 12  2  0  0  0  0
 13 12  1  1  0  0  0
 13 15  1  0  0  0  0
 13 28  1  0  0  0  0
 14 15  2  0  0  0  0
 14 19  1  0  0  0  0
 15 16  1  0  0  0  0
 16 17  2  0  0  0  0
 17 18  1  0  0  0  0
 18 19  2  0  0  0  0
 20 21  1  0  0  0  0
 21 25  1  0  0  0  0
 22 26  2  0  0  0  0
 23 24  2  0  0  0  0
 24 25  1  0  0  0  0
 25 26  1  0  0  0  0
 27 26  1  1  0  0  0
 27 28  1  0  0  0  0
 28 24  1  1  0  0  0
M  END
>  <CHROM.1>
174.91386122,176.36997977,74.35193157,113.68132004,-72.18797710,41.84557807
27.36430796,12.20710144,0.72953807,-0.03358657,-2.89016252

>  <Name>
ligand

>  <RI>
0

>  <Rbt.Current_Directory>
/home/itssahil/PROJECTS/Mol_Feturizer/New_Systems/rnas/1YLS

>  <Rbt.Executable>
rbdock ($Id: //depot/dev/client3/rdock/2013.1/src/exe/rbdock.cxx#4 $)

>  <Rbt.Library>
libRbt.so (2013.1, Build901 2013/11/27)

>  <Rbt.Parameter_File>
/export/apps/rDock/src/rDock_2013.1_src/data/scripts/dock_solv.prm

>  <Rbt.Receptor>
prm/blind_docking_80.prm

>  <SCORE>
-13.7575

>  <SCORE.INTER>
-11.941

>  <SCORE.INTER.CONST>
1

>  <SCORE.INTER.POLAR>
0

>  <SCORE.INTER.ROT>
5

>  <SCORE.INTER.SOLV>
8.44679

>  <SCORE.INTER.VDW>
-17.7096

>  <SCORE.INTER.norm>
-0.426463

>  <SCORE.INTRA>
-1.81654

>  <SCORE.INTRA.DIHEDRAL>
-3.15626

>  <SCORE.INTRA.DIHEDRAL.0>
12.0148

>  <SCORE.INTRA.POLAR>
0

>  <SCORE.INTRA.POLAR.0>
0

>  <SCORE.INTRA.REPUL>
0

>  <SCORE.INTRA.REPUL.0>
0

>  <SCORE.INTRA.SOLV>
0.377665

>  <SCORE.INTRA.SOLV.lig_0>
-10.5235

>  <SCORE.INTRA.VDW>
-0.427247

>  <SCORE.INTRA.VDW.0>
-1.38455

>  <SCORE.INTRA.norm>
-0.0648766

>  <SCORE.RESTR>
0

>  <SCORE.RESTR.CAVITY>
0

>  <SCORE.RESTR.norm>
0

>  <SCORE.SYSTEM>
0

>  <SCORE.SYSTEM.CONST>
0

>  <SCORE.SYSTEM.DIHEDRAL>
0

>  <SCORE.SYSTEM.SOLV>
0

>  <SCORE.SYSTEM.norm>
0

>  <SCORE.heavy>
28

>  <SCORE.norm>
-0.491339

>  <RMSD>
14.560

$$$$
ligand
 OpenBabel11021811413D
libRbt.so/2013.1/901 2013/11/27
 28 32  0  0  0  0  0  0  0  0999 V2000
   46.3959   22.4952   10.3936 C   0  0  0  0  0  0  0  0  0  0  0  0
   45.4570   23.6822   10.4805 C   0  0  0  0  0  0  0  0  0  0  0  0
   45.6717   24.4754   11.7609 C   0  0  0  0  0  0  0  0  0  0  0  0
   41.5418   31.3845   13.2897 O   0  0  0  0  0  0  0  0  0  0  0  0
   41.7043   30.1027   13.8994 C   0  0  0  0  0  0  0  0  0  0  0  0
   40.9195   25.2938   13.1440 C   0  0  0  0  0  0  0  0  0  0  0  0
   41.6346   24.9695   14.2898 C   0  0  0  0  0  0  0  0  0  0  0  0
   42.2178   25.9865   15.0500 C   0  0  0  0  0  0  0  0  0  0  0  0
   42.0852   27.3225   14.6699 C   0  0  0  0  0  0  0  0  0  0  0  0
   41.1517   28.9923   12.9965 C   0  0  1  0  0  0  0  0  0  0  0  0
   41.3491   27.6199   13.5470 C   0  0  0  0  0  0  0  0  0  0  0  0
   40.7807   26.6180   12.8017 C   0  0  0  0  0  0  0  0  0  0  0  0
   40.0941   27.0574   11.6018 C   0  0  1  0  0  0  0  0  0  0  0  0
   37.8212   28.0699   11.6197 C   0  0  0  0  0  0  0  0  0  0  0  0
   39.1445   28.0853   11.9904 C   0  0  0  0  0  0  0  0  0  0  0  0
   39.6730   29.1110   12.7272 C   0  0  0  0  0  0  0  0  0  0  0  0
   38.8663   30.1703   13.1161 C   0  0  0  0  0  0  0  0  0  0  0  0
   37.5148   30.1586   12.7647 C   0  0  0  0  0  0  0  0  0  0  0  0
   36.9957   29.1075   12.0201 C   0  0  0  0  0  0  0  0  0  0  0  0
   44.5252   25.4528   11.9852 C   0  0  0  0  0  0  0  0  0  0  0  0
   44.6870   26.6780   11.0933 C   0  0  0  0  0  0  0  0  0  0  0  0
   44.0778   29.1007   12.2052 O   0  0  0  0  0  0  0  0  0  0  0  0
   42.2363   25.8315    9.9681 O   0  0  0  0  0  0  0  0  0  0  0  0
   42.3399   26.8962   10.5544 C   0  0  0  0  0  0  0  0  0  0  0  0
   43.4043   27.3630   11.0812 N   0  0  0  0  0  0  0  0  0  0  0  0
   43.2155   28.4731   11.6471 C   0  0  0  0  0  0  0  0  0  0  0  0
   41.7949   28.9182   11.6027 C   0  0  1  0  0  0  0  0  0  0  0  0
   41.1670   27.7779   10.7970 C   0  0  2  0  0  0  0  0  0  0  0  0
  1  2  1  0  0  0  0
  2  3  1  0  0  0  0
  3 20  1  0  0  0  0
  4  5  1  0  0  0  0
  6  7  2  0  0  0  0
  6 12  1  0  0  0  0
  7  8  1  0  0  0  0
  8  9  2  0  0  0  0
  9 11  1  0  0  0  0
 10  5  1  1  0  0  0
 10 11  1  0  0  0  0
 10 16  1  0  0  0  0
 10 27  1  0  0  0  0
 11 12  2  0  0  0  0
 13 12  1  1  0  0  0
 13 15  1  0  0  0  0
 13 28  1  0  0  0  0
 14 15  2  0  0  0  0
 14 19  1  0  0  0  0
 15 16  1  0  0  0  0
 16 17  2  0  0  0  0
 17 18  1  0  0  0  0
 18 19  2  0  0  0  0
 20 21  1  0  0  0  0
 21 25  1  0  0  0  0
 22 26  2  0  0  0  0
 23 24  2  0  0  0  0
 24 25  1  0  0  0  0
 25 26  1  0  0  0  0
 27 26  1  1  0  0  0
 27 28  1  0  0  0  0
 28 24  1  1  0  0  0
M  END
>  <CHROM.1>
-166.86362727,177.25700116,-78.04478090,164.40280229,-67.21305223,41.87536428
27.37185302,12.19874011,0.72406445,-0.02879492,-2.86688819

>  <Name>
ligand

>  <RI>
0

>  <Rbt.Current_Directory>
/home/itssahil/PROJECTS/Mol_Feturizer/New_Systems/rnas/1YLS

>  <Rbt.Executable>
rbdock ($Id: //depot/dev/client3/rdock/2013.1/src/exe/rbdock.cxx#4 $)

>  <Rbt.Library>
libRbt.so (2013.1, Build901 2013/11/27)

>  <Rbt.Parameter_File>
/export/apps/rDock/src/rDock_2013.1_src/data/scripts/dock_solv.prm

>  <Rbt.Receptor>
prm/blind_docking_100.prm

>  <SCORE>
-14.9756

>  <SCORE.INTER>
-11.8695

>  <SCORE.INTER.CONST>
1

>  <SCORE.INTER.POLAR>
0

>  <SCORE.INTER.ROT>
5

>  <SCORE.INTER.SOLV>
8.62823

>  <SCORE.INTER.VDW>
-17.7224

>  <SCORE.INTER.norm>
-0.423912

>  <SCORE.INTRA>
-3.27289

>  <SCORE.INTRA.DIHEDRAL>
-6.68185

>  <SCORE.INTRA.DIHEDRAL.0>
12.0148

>  <SCORE.INTRA.POLAR>
0

>  <SCORE.INTRA.POLAR.0>
0

>  <SCORE.INTRA.REPUL>
0

>  <SCORE.INTRA.REPUL.0>
0

>  <SCORE.INTRA.SOLV>
0.300718

>  <SCORE.INTRA.SOLV.lig_0>
-10.5235

>  <SCORE.INTRA.VDW>
-0.0823232

>  <SCORE.INTRA.VDW.0>
-1.38455

>  <SCORE.INTRA.norm>
-0.116889

>  <SCORE.RESTR>
0.166801

>  <SCORE.RESTR.CAVITY>
0.166801

>  <SCORE.RESTR.norm>
0.00595718

>  <SCORE.SYSTEM>
0

>  <SCORE.SYSTEM.CONST>
0

>  <SCORE.SYSTEM.DIHEDRAL>
0

>  <SCORE.SYSTEM.SOLV>
0

>  <SCORE.SYSTEM.norm>
0

>  <SCORE.heavy>
28

>  <SCORE.norm>
-0.534843

>  <RMSD>
14.571

$$$$
ligand
 OpenBabel11021811413D
libRbt.so/2013.1/901 2013/11/27
 28 32  0  0  0  0  0  0  0  0999 V2000
   46.3164   21.9673   10.7700 C   0  0  0  0  0  0  0  0  0  0  0  0
   45.2060   22.8783   11.2549 C   0  0  0  0  0  0  0  0  0  0  0  0
   45.5793   24.3459   11.1079 C   0  0  0  0  0  0  0  0  0  0  0  0
   41.5609   31.3640   13.3408 O   0  0  0  0  0  0  0  0  0  0  0  0
   41.6901   30.0761   13.9455 C   0  0  0  0  0  0  0  0  0  0  0  0
   40.9030   25.2799   13.1151 C   0  0  0  0  0  0  0  0  0  0  0  0
   41.6079   24.9379   14.2621 C   0  0  0  0  0  0  0  0  0  0  0  0
   42.1866   25.9428   15.0415 C   0  0  0  0  0  0  0  0  0  0  0  0
   42.0596   27.2844   14.6795 C   0  0  0  0  0  0  0  0  0  0  0  0
   41.1430   28.9797   13.0224 C   0  0  1  0  0  0  0  0  0  0  0  0
   41.3334   27.5992   13.5548 C   0  0  0  0  0  0  0  0  0  0  0  0
   40.7694   26.6091   12.7906 C   0  0  0  0  0  0  0  0  0  0  0  0
   40.0936   27.0669   11.5915 C   0  0  1  0  0  0  0  0  0  0  0  0
   37.8225   28.0833   11.6049 C   0  0  0  0  0  0  0  0  0  0  0  0
   39.1426   28.0910   11.9867 C   0  0  0  0  0  0  0  0  0  0  0  0
   39.6668   29.1051   12.7425 C   0  0  0  0  0  0  0  0  0  0  0  0
   38.8588   30.1603   13.1398 C   0  0  0  0  0  0  0  0  0  0  0  0
   37.5103   30.1562   12.7770 C   0  0  0  0  0  0  0  0  0  0  0  0
   36.9956   29.1168   12.0132 C   0  0  0  0  0  0  0  0  0  0  0  0
   44.4109   25.2390   11.5048 C   0  0  0  0  0  0  0  0  0  0  0  0
   44.6899   26.6859   11.1158 C   0  0  0  0  0  0  0  0  0  0  0  0
   44.0758   29.0937   12.2571 O   0  0  0  0  0  0  0  0  0  0  0  0
   42.2471   25.8603    9.9583 O   0  0  0  0  0  0  0  0  0  0  0  0
   42.3478   26.9163   10.5606 C   0  0  0  0  0  0  0  0  0  0  0  0
   43.4086   27.3736   11.1028 N   0  0  0  0  0  0  0  0  0  0  0  0
   43.2170   28.4758   11.6829 C   0  0  0  0  0  0  0  0  0  0  0  0
   41.7977   28.9242   11.6330 C   0  0  1  0  0  0  0  0  0  0  0  0
   41.1744   27.7967   10.8060 C   0  0  2  0  0  0  0  0  0  0  0  0
  1  2  1  0  0  0  0
  2  3  1  0  0  0  0
  3 20  1  0  0  0  0
  4  5  1  0  0  0  0
  6  7  2  0  0  0  0
  6 12  1  0  0  0  0
  7  8  1  0  0  0  0
  8  9  2  0  0  0  0
  9 11  1  0  0  0  0
 10  5  1  1  0  0  0
 10 11  1  0  0  0  0
 10 16  1  0  0  0  0
 10 27  1  0  0  0  0
 11 12  2  0  0  0  0
 13 12  1  1  0  0  0
 13 15  1  0  0  0  0
 13 28  1  0  0  0  0
 14 15  2  0  0  0  0
 14 19  1  0  0  0  0
 15 16  1  0  0  0  0
 16 17  2  0  0  0  0
 17 18  1  0  0  0  0
 18 19  2  0  0  0  0
 20 21  1  0  0  0  0
 21 25  1  0  0  0  0
 22 26  2  0  0  0  0
 23 24  2  0  0  0  0
 24 25  1  0  0  0  0
 25 26  1  0  0  0  0
 27 26  1  1  0  0  0
 27 28  1  0  0  0  0
 28 24  1  1  0  0  0
M  END
>  <CHROM.1>
175.83811381,176.02439740,-169.51728030,161.31322349,-45.94968585,41.85110912
27.30274141,12.21014756,0.76900623,-0.06648398,-2.93856951

>  <Name>
ligand

>  <RI>
0

>  <Rbt.Current_Directory>
/home/itssahil/PROJECTS/Mol_Feturizer/New_Systems/rnas/1YLS

>  <Rbt.Executable>
rbdock ($Id: //depot/dev/client3/rdock/2013.1/src/exe/rbdock.cxx#4 $)

>  <Rbt.Library>
libRbt.so (2013.1, Build901 2013/11/27)

>  <Rbt.Parameter_File>
/export/apps/rDock/src/rDock_2013.1_src/data/scripts/dock_solv.prm

>  <Rbt.Receptor>
prm/blind_docking_100.prm

>  <SCORE>
-15.5598

>  <SCORE.INTER>
-12.8667

>  <SCORE.INTER.CONST>
1

>  <SCORE.INTER.POLAR>
0

>  <SCORE.INTER.ROT>
5

>  <SCORE.INTER.SOLV>
8.23814

>  <SCORE.INTER.VDW>
-18.2572

>  <SCORE.INTER.norm>
-0.459525

>  <SCORE.INTRA>
-2.69308

>  <SCORE.INTRA.DIHEDRAL>
-7.94964

>  <SCORE.INTRA.DIHEDRAL.0>
12.0148

>  <SCORE.INTRA.POLAR>
0

>  <SCORE.INTRA.POLAR.0>
0

>  <SCORE.INTRA.REPUL>
0

>  <SCORE.INTRA.REPUL.0>
0

>  <SCORE.INTRA.SOLV>
0.268735

>  <SCORE.INTRA.SOLV.lig_0>
-10.5235

>  <SCORE.INTRA.VDW>
1.14737

>  <SCORE.INTRA.VDW.0>
-1.38455

>  <SCORE.INTRA.norm>
-0.0961813

>  <SCORE.RESTR>
0

>  <SCORE.RESTR.CAVITY>
0

>  <SCORE.RESTR.norm>
0

>  <SCORE.SYSTEM>
0

>  <SCORE.SYSTEM.CONST>
0

>  <SCORE.SYSTEM.DIHEDRAL>
0

>  <SCORE.SYSTEM.SOLV>
0

>  <SCORE.SYSTEM.norm>
0

>  <SCORE.heavy>
28

>  <SCORE.norm>
-0.555706

>  <RMSD>
14.571

$$$$
ligand
 OpenBabel11021811413D
libRbt.so/2013.1/901 2013/11/27
 28 32  0  0  0  0  0  0  0  0999 V2000
   46.3289   21.9805   10.7650 C   0  0  0  0  0  0  0  0  0  0  0  0
   45.2170   22.8870   11.2546 C   0  0  0  0  0  0  0  0  0  0  0  0
   45.5961   24.3556   11.1351 C   0  0  0  0  0  0  0  0  0  0  0  0
   41.5600   31.3594   13.3456 O   0  0  0  0  0  0  0  0  0  0  0  0
   41.6887   30.0707   13.9488 C   0  0  0  0  0  0  0  0  0  0  0  0
   40.9090   25.2751   13.1084 C   0  0  0  0  0  0  0  0  0  0  0  0
   41.6141   24.9318   14.2549 C   0  0  0  0  0  0  0  0  0  0  0  0
   42.1911   25.9360   15.0365 C   0  0  0  0  0  0  0  0  0  0  0  0
   42.0622   27.2781   14.6772 C   0  0  0  0  0  0  0  0  0  0  0  0
   41.1436   28.9753   13.0232 C   0  0  1  0  0  0  0  0  0  0  0  0
   41.3358   27.5941   13.5529 C   0  0  0  0  0  0  0  0  0  0  0  0
   40.7735   26.6047   12.7865 C   0  0  0  0  0  0  0  0  0  0  0  0
   40.0974   27.0639   11.5882 C   0  0  1  0  0  0  0  0  0  0  0  0
   37.8248   28.0769   11.6030 C   0  0  0  0  0  0  0  0  0  0  0  0
   39.1448   28.0858   11.9852 C   0  0  0  0  0  0  0  0  0  0  0  0
   39.6672   29.0991   12.7432 C   0  0  0  0  0  0  0  0  0  0  0  0
   38.8576   30.1523   13.1424 C   0  0  0  0  0  0  0  0  0  0  0  0
   37.5091   30.1469   12.7792 C   0  0  0  0  0  0  0  0  0  0  0  0
   36.9962   29.1083   12.0132 C   0  0  0  0  0  0  0  0  0  0  0  0
   44.4191   25.2459   11.5122 C   0  0  0  0  0  0  0  0  0  0  0  0
   44.6944   26.6908   11.1130 C   0  0  0  0  0  0  0  0  0  0  0  0
   44.0764   29.0954   12.2590 O   0  0  0  0  0  0  0  0  0  0  0  0
   42.2532   25.8639    9.9531 O   0  0  0  0  0  0  0  0  0  0  0  0
   42.3521   26.9188   10.5576 C   0  0  0  0  0  0  0  0  0  0  0  0
   43.4120   27.3765   11.1011 N   0  0  0  0  0  0  0  0  0  0  0  0
   43.2187   28.4773   11.6834 C   0  0  0  0  0  0  0  0  0  0  0  0
   41.7987   28.9237   11.6339 C   0  0  1  0  0  0  0  0  0  0  0  0
   41.1774   27.7970   10.8044 C   0  0  2  0  0  0  0  0  0  0  0  0
  1  2  1  0  0  0  0
  2  3  1  0  0  0  0
  3 20  1  0  0  0  0
  4  5  1  0  0  0  0
  6  7  2  0  0  0  0
  6 12  1  0  0  0  0
  7  8  1  0  0  0  0
  8  9  2  0  0  0  0
  9 11  1  0  0  0  0
 10  5  1  1  0  0  0
 10 11  1  0  0  0  0
 10 16  1  0  0  0  0
 10 27  1  0  0  0  0
 11 12  2  0  0  0  0
 13 12  1  1  0  0  0
 13 15  1  0  0  0  0
 13 28  1  0  0  0  0
 14 15  2  0  0  0  0
 14 19  1  0  0  0  0
 15 16  1  0  0  0  0
 16 17  2  0  0  0  0
 17 18  1  0  0  0  0
 18 19  2  0  0  0  0
 20 21  1  0  0  0  0
 21 25  1  0  0  0  0
 22 26  2  0  0  0  0
 23 24  2  0  0  0  0
 24 25  1  0  0  0  0
 25 26  1  0  0  0  0
 27 26  1  1  0  0  0
 27 28  1  0  0  0  0
 28 24  1  1  0  0  0
M  END
>  <CHROM.1>
174.83212783,175.91600810,-167.95123195,162.17368592,-46.48831561,41.85494865
27.30173495,12.21025735,0.76661882,-0.06554501,-2.93785638

>  <Name>
ligand

>  <RI>
0

>  <Rbt.Current_Directory>
/home/itssahil/PROJECTS/Mol_Feturizer/New_Systems/rnas/1YLS

>  <Rbt.Executable>
rbdock ($Id: //depot/dev/client3/rdock/2013.1/src/exe/rbdock.cxx#4 $)

>  <Rbt.Library>
libRbt.so (2013.1, Build901 2013/11/27)

>  <Rbt.Parameter_File>
/export/apps/rDock/src/rDock_2013.1_src/data/scripts/dock_solv.prm

>  <Rbt.Receptor>
prm/blind_docking_80.prm

>  <SCORE>
-15.5455

>  <SCORE.INTER>
-12.8242

>  <SCORE.INTER.CONST>
1

>  <SCORE.INTER.POLAR>
0

>  <SCORE.INTER.ROT>
5

>  <SCORE.INTER.SOLV>
8.24492

>  <SCORE.INTER.VDW>
-18.2311

>  <SCORE.INTER.norm>
-0.458006

>  <SCORE.INTRA>
-2.7213

>  <SCORE.INTRA.DIHEDRAL>
-7.86588

>  <SCORE.INTRA.DIHEDRAL.0>
12.0148

>  <SCORE.INTRA.POLAR>
0

>  <SCORE.INTRA.POLAR.0>
0

>  <SCORE.INTRA.REPUL>
0

>  <SCORE.INTRA.REPUL.0>
0

>  <SCORE.INTRA.SOLV>
0.266785

>  <SCORE.INTRA.SOLV.lig_0>
-10.5235

>  <SCORE.INTRA.VDW>
1.07825

>  <SCORE.INTRA.VDW.0>
-1.38455

>  <SCORE.INTRA.norm>
-0.0971893

>  <SCORE.RESTR>
0

>  <SCORE.RESTR.CAVITY>
0

>  <SCORE.RESTR.norm>
0

>  <SCORE.SYSTEM>
0

>  <SCORE.SYSTEM.CONST>
0

>  <SCORE.SYSTEM.DIHEDRAL>
0

>  <SCORE.SYSTEM.SOLV>
0

>  <SCORE.SYSTEM.norm>
0

>  <SCORE.heavy>
28

>  <SCORE.norm>
-0.555195

>  <RMSD>
14.571

$$$$
ligand
 OpenBabel11021811413D
libRbt.so/2013.1/901 2013/11/27
 28 32  0  0  0  0  0  0  0  0999 V2000
   46.3216   21.9737   10.7528 C   0  0  0  0  0  0  0  0  0  0  0  0
   45.2228   22.8812   11.2694 C   0  0  0  0  0  0  0  0  0  0  0  0
   45.5858   24.3500   11.1093 C   0  0  0  0  0  0  0  0  0  0  0  0
   41.5490   31.3650   13.3304 O   0  0  0  0  0  0  0  0  0  0  0  0
   41.6810   30.0788   13.9382 C   0  0  0  0  0  0  0  0  0  0  0  0
   40.9043   25.2789   13.1193 C   0  0  0  0  0  0  0  0  0  0  0  0
   41.6089   24.9413   14.2678 C   0  0  0  0  0  0  0  0  0  0  0  0
   42.1849   25.9494   15.0451 C   0  0  0  0  0  0  0  0  0  0  0  0
   42.0555   27.2898   14.6796 C   0  0  0  0  0  0  0  0  0  0  0  0
   41.1369   28.9789   13.0174 C   0  0  1  0  0  0  0  0  0  0  0  0
   41.3296   27.6002   13.5535 C   0  0  0  0  0  0  0  0  0  0  0  0
   40.7683   26.6071   12.7913 C   0  0  0  0  0  0  0  0  0  0  0  0
   40.0926   27.0604   11.5905 C   0  0  1  0  0  0  0  0  0  0  0  0
   37.8195   28.0722   11.5993 C   0  0  0  0  0  0  0  0  0  0  0  0
   39.1392   28.0835   11.9823 C   0  0  0  0  0  0  0  0  0  0  0  0
   39.6607   29.1006   12.7359 C   0  0  0  0  0  0  0  0  0  0  0  0
   38.8502   30.1552   13.1298 C   0  0  0  0  0  0  0  0  0  0  0  0
   37.5020   30.1474   12.7659 C   0  0  0  0  0  0  0  0  0  0  0  0
   36.9901   29.1051   12.0043 C   0  0  0  0  0  0  0  0  0  0  0  0
   44.4125   25.2385   11.5018 C   0  0  0  0  0  0  0  0  0  0  0  0
   44.6902   26.6876   11.1197 C   0  0  0  0  0  0  0  0  0  0  0  0
   44.0702   29.0970   12.2543 O   0  0  0  0  0  0  0  0  0  0  0  0
   42.2500   25.8540    9.9622 O   0  0  0  0  0  0  0  0  0  0  0  0
   42.3480   26.9117   10.5619 C   0  0  0  0  0  0  0  0  0  0  0  0
   43.4074   27.3726   11.1039 N   0  0  0  0  0  0  0  0  0  0  0  0
   43.2131   28.4759   11.6810 C   0  0  0  0  0  0  0  0  0  0  0  0
   41.7929   28.9212   11.6287 C   0  0  1  0  0  0  0  0  0  0  0  0
   41.1727   27.7905   10.8040 C   0  0  2  0  0  0  0  0  0  0  0  0
  1  2  1  0  0  0  0
  2  3  1  0  0  0  0
  3 20  1  0  0  0  0
  4  5  1  0  0  0  0
  6  7  2  0  0  0  0
  6 12  1  0  0  0  0
  7  8  1  0  0  0  0
  8  9  2  0  0  0  0
  9 11  1  0  0  0  0
 10  5  1  1  0  0  0
 10 11  1  0  0  0  0
 10 16  1  0  0  0  0
 10 27  1  0  0  0  0
 11 12  2  0  0  0  0
 13 12  1  1  0  0  0
 13 15  1  0  0  0  0
 13 28  1  0  0  0  0
 14 15  2  0  0  0  0
 14 19  1  0  0  0  0
 15 16  1  0  0  0  0
 16 17  2  0  0  0  0
 17 18  1  0  0  0  0
 18 19  2  0  0  0  0
 20 21  1  0  0  0  0
 21 25  1  0  0  0  0
 22 26  2  0  0  0  0
 23 24  2  0  0  0  0
 24 25  1  0  0  0  0
 25 26  1  0  0  0  0
 27 26  1  1  0  0  0
 27 28  1  0  0  0  0
 28 24  1  1  0  0  0
M  END
>  <CHROM.1>
174.20714930,176.05447234,-170.39873695,161.44390211,-45.52806195,41.84924912
27.30142283,12.20789748,0.76710490,-0.06609204,-2.93888523

>  <Name>
ligand

>  <RI>
0

>  <Rbt.Current_Directory>
/home/itssahil/PROJECTS/Mol_Feturizer/New_Systems/rnas/1YLS

>  <Rbt.Executable>
rbdock ($Id: //depot/dev/client3/rdock/2013.1/src/exe/rbdock.cxx#4 $)

>  <Rbt.Library>
libRbt.so (2013.1, Build901 2013/11/27)

>  <Rbt.Parameter_File>
/export/apps/rDock/src/rDock_2013.1_src/data/scripts/dock_solv.prm

>  <Rbt.Receptor>
prm/blind_docking_100.prm

>  <SCORE>
-15.5296

>  <SCORE.INTER>
-12.8818

>  <SCORE.INTER.CONST>
1

>  <SCORE.INTER.POLAR>
0

>  <SCORE.INTER.ROT>
5

>  <SCORE.INTER.SOLV>
8.23979

>  <SCORE.INTER.VDW>
-18.2678

>  <SCORE.INTER.norm>
-0.460064

>  <SCORE.INTRA>
-2.6478

>  <SCORE.INTRA.DIHEDRAL>
-7.9728

>  <SCORE.INTRA.DIHEDRAL.0>
12.0148

>  <SCORE.INTRA.POLAR>
0

>  <SCORE.INTRA.POLAR.0>
0

>  <SCORE.INTRA.REPUL>
0

>  <SCORE.INTRA.REPUL.0>
0

>  <SCORE.INTRA.SOLV>
0.268451

>  <SCORE.INTRA.SOLV.lig_0>
-10.5235

>  <SCORE.INTRA.VDW>
1.20437

>  <SCORE.INTRA.VDW.0>
-1.38455

>  <SCORE.INTRA.norm>
-0.0945643

>  <SCORE.RESTR>
0

>  <SCORE.RESTR.CAVITY>
0

>  <SCORE.RESTR.norm>
0

>  <SCORE.SYSTEM>
0

>  <SCORE.SYSTEM.CONST>
0

>  <SCORE.SYSTEM.DIHEDRAL>
0

>  <SCORE.SYSTEM.SOLV>
0

>  <SCORE.SYSTEM.norm>
0

>  <SCORE.heavy>
28

>  <SCORE.norm>
-0.554628

>  <RMSD>
14.572

$$$$
ligand
 OpenBabel11021811413D
libRbt.so/2013.1/901 2013/11/27
 28 32  0  0  0  0  0  0  0  0999 V2000
   46.3544   21.9896   10.7278 C   0  0  0  0  0  0  0  0  0  0  0  0
   45.2425   22.8917   11.2254 C   0  0  0  0  0  0  0  0  0  0  0  0
   45.5923   24.3622   11.0518 C   0  0  0  0  0  0  0  0  0  0  0  0
   41.5576   31.3636   13.3512 O   0  0  0  0  0  0  0  0  0  0  0  0
   41.6909   30.0755   13.9546 C   0  0  0  0  0  0  0  0  0  0  0  0
   40.9213   25.2776   13.1179 C   0  0  0  0  0  0  0  0  0  0  0  0
   41.6283   24.9366   14.2638 C   0  0  0  0  0  0  0  0  0  0  0  0
   42.2038   25.9426   15.0443 C   0  0  0  0  0  0  0  0  0  0  0  0
   42.0715   27.2842   14.6843 C   0  0  0  0  0  0  0  0  0  0  0  0
   41.1473   28.9783   13.0302 C   0  0  1  0  0  0  0  0  0  0  0  0
   41.3433   27.5978   13.5606 C   0  0  0  0  0  0  0  0  0  0  0  0
   40.7825   26.6067   12.7953 C   0  0  0  0  0  0  0  0  0  0  0  0
   40.1041   27.0636   11.5974 C   0  0  1  0  0  0  0  0  0  0  0  0
   37.8292   28.0715   11.6138 C   0  0  0  0  0  0  0  0  0  0  0  0
   39.1496   28.0836   11.9947 C   0  0  0  0  0  0  0  0  0  0  0  0
   39.6705   29.0986   12.7516 C   0  0  0  0  0  0  0  0  0  0  0  0
   38.8588   30.1501   13.1510 C   0  0  0  0  0  0  0  0  0  0  0  0
   37.5100   30.1414   12.7891 C   0  0  0  0  0  0  0  0  0  0  0  0
   36.9987   29.1012   12.0242 C   0  0  0  0  0  0  0  0  0  0  0  0
   44.4247   25.2448   11.4734 C   0  0  0  0  0  0  0  0  0  0  0  0
   44.7015   26.7008   11.1178 C   0  0  0  0  0  0  0  0  0  0  0  0
   44.0792   29.1046   12.2630 O   0  0  0  0  0  0  0  0  0  0  0  0
   42.2610   25.8676    9.9609 O   0  0  0  0  0  0  0  0  0  0  0  0
   42.3581   26.9230   10.5646 C   0  0  0  0  0  0  0  0  0  0  0  0
   43.4176   27.3836   11.1068 N   0  0  0  0  0  0  0  0  0  0  0  0
   43.2223   28.4842   11.6886 C   0  0  0  0  0  0  0  0  0  0  0  0
   41.8012   28.9273   11.6403 C   0  0  1  0  0  0  0  0  0  0  0  0
   41.1817   27.7987   10.8121 C   0  0  2  0  0  0  0  0  0  0  0  0
  1  2  1  0  0  0  0
  2  3  1  0  0  0  0
  3 20  1  0  0  0  0
  4  5  1  0  0  0  0
  6  7  2  0  0  0  0
  6 12  1  0  0  0  0
  7  8  1  0  0  0  0
  8  9  2  0  0  0  0
  9 11  1  0  0  0  0
 10  5  1  1  0  0  0
 10 11  1  0  0  0  0
 10 16  1  0  0  0  0
 10 27  1  0  0  0  0
 11 12  2  0  0  0  0
 13 12  1  1  0  0  0
 13 15  1  0  0  0  0
 13 28  1  0  0  0  0
 14 15  2  0  0  0  0
 14 19  1  0  0  0  0
 15 16  1  0  0  0  0
 16 17  2  0  0  0  0
 17 18  1  0  0  0  0
 18 19  2  0  0  0  0
 20 21  1  0  0  0  0
 21 25  1  0  0  0  0
 22 26  2  0  0  0  0
 23 24  2  0  0  0  0
 24 25  1  0  0  0  0
 25 26  1  0  0  0  0
 27 26  1  1  0  0  0
 27 28  1  0  0  0  0
 28 24  1  1  0  0  0
M  END
>  <CHROM.1>
176.28343156,175.96585446,-172.09797038,160.53351998,-44.66610922,41.86156892
27.30482408,12.20932558,0.76615221,-0.06936830,-2.93335414

>  <Name>
ligand

>  <RI>
0

>  <Rbt.Current_Directory>
/home/itssahil/PROJECTS/Mol_Feturizer/New_Systems/rnas/1YLS

>  <Rbt.Executable>
rbdock ($Id: //depot/dev/client3/rdock/2013.1/src/exe/rbdock.cxx#4 $)

>  <Rbt.Library>
libRbt.so (2013.1, Build901 2013/11/27)

>  <Rbt.Parameter_File>
/export/apps/rDock/src/rDock_2013.1_src/data/scripts/dock_solv.prm

>  <Rbt.Receptor>
prm/blind_docking_80.prm

>  <SCORE>
-15.5268

>  <SCORE.INTER>
-12.949

>  <SCORE.INTER.CONST>
1

>  <SCORE.INTER.POLAR>
0

>  <SCORE.INTER.ROT>
5

>  <SCORE.INTER.SOLV>
8.32041

>  <SCORE.INTER.VDW>
-18.3395

>  <SCORE.INTER.norm>
-0.462464

>  <SCORE.INTRA>
-2.57783

>  <SCORE.INTRA.DIHEDRAL>
-8.06921

>  <SCORE.INTRA.DIHEDRAL.0>
12.0148

>  <SCORE.INTRA.POLAR>
0

>  <SCORE.INTRA.POLAR.0>
0

>  <SCORE.INTRA.REPUL>
0

>  <SCORE.INTRA.REPUL.0>
0

>  <SCORE.INTRA.SOLV>
0.272547

>  <SCORE.INTRA.SOLV.lig_0>
-10.5235

>  <SCORE.INTRA.VDW>
1.3205

>  <SCORE.INTRA.VDW.0>
-1.38455

>  <SCORE.INTRA.norm>
-0.0920655

>  <SCORE.RESTR>
0

>  <SCORE.RESTR.CAVITY>
0

>  <SCORE.RESTR.norm>
0

>  <SCORE.SYSTEM>
0

>  <SCORE.SYSTEM.CONST>
0

>  <SCORE.SYSTEM.DIHEDRAL>
0

>  <SCORE.SYSTEM.SOLV>
0

>  <SCORE.SYSTEM.norm>
0

>  <SCORE.heavy>
28

>  <SCORE.norm>
-0.554529

>  <RMSD>
14.572

$$$$
ligand
 OpenBabel11021811413D
libRbt.so/2013.1/901 2013/11/27
 28 32  0  0  0  0  0  0  0  0999 V2000
   46.3359   21.9812   10.7128 C   0  0  0  0  0  0  0  0  0  0  0  0
   45.2312   22.8866   11.2204 C   0  0  0  0  0  0  0  0  0  0  0  0
   45.5880   24.3561   11.0530 C   0  0  0  0  0  0  0  0  0  0  0  0
   41.5429   31.3697   13.3422 O   0  0  0  0  0  0  0  0  0  0  0  0
   41.6942   30.0819   13.9420 C   0  0  0  0  0  0  0  0  0  0  0  0
   40.9230   25.2811   13.1234 C   0  0  0  0  0  0  0  0  0  0  0  0
   41.6310   24.9442   14.2699 C   0  0  0  0  0  0  0  0  0  0  0  0
   42.2074   25.9529   15.0462 C   0  0  0  0  0  0  0  0  0  0  0  0
   42.0750   27.2932   14.6814 C   0  0  0  0  0  0  0  0  0  0  0  0
   41.1495   28.9815   13.0222 C   0  0  1  0  0  0  0  0  0  0  0  0
   41.3457   27.6029   13.5573 C   0  0  0  0  0  0  0  0  0  0  0  0
   40.7840   26.6091   12.7962 C   0  0  0  0  0  0  0  0  0  0  0  0
   40.1045   27.0618   11.5973 C   0  0  1  0  0  0  0  0  0  0  0  0
   37.8298   28.0701   11.6123 C   0  0  0  0  0  0  0  0  0  0  0  0
   39.1505   28.0833   11.9919 C   0  0  0  0  0  0  0  0  0  0  0  0
   39.6724   29.1010   12.7445 C   0  0  0  0  0  0  0  0  0  0  0  0
   38.8613   30.1541   13.1409 C   0  0  0  0  0  0  0  0  0  0  0  0
   37.5121   30.1443   12.7804 C   0  0  0  0  0  0  0  0  0  0  0  0
   36.9999   29.1014   12.0198 C   0  0  0  0  0  0  0  0  0  0  0  0
   44.4250   25.2426   11.4792 C   0  0  0  0  0  0  0  0  0  0  0  0
   44.7014   26.6964   11.1145 C   0  0  0  0  0  0  0  0  0  0  0  0
   44.0806   29.1045   12.2516 O   0  0  0  0  0  0  0  0  0  0  0  0
   42.2596   25.8594    9.9630 O   0  0  0  0  0  0  0  0  0  0  0  0
   42.3575   26.9171   10.5628 C   0  0  0  0  0  0  0  0  0  0  0  0
   43.4175   27.3794   11.1022 N   0  0  0  0  0  0  0  0  0  0  0  0
   43.2230   28.4822   11.6803 C   0  0  0  0  0  0  0  0  0  0  0  0
   41.8020   28.9253   11.6318 C   0  0  1  0  0  0  0  0  0  0  0  0
   41.1814   27.7938   10.8083 C   0  0  2  0  0  0  0  0  0  0  0  0
  1  2  1  0  0  0  0
  2  3  1  0  0  0  0
  3 20  1  0  0  0  0
  4  5  1  0  0  0  0
  6  7  2  0  0  0  0
  6 12  1  0  0  0  0
  7  8  1  0  0  0  0
  8  9  2  0  0  0  0
  9 11  1  0  0  0  0
 10  5  1  1  0  0  0
 10 11  1  0  0  0  0
 10 16  1  0  0  0  0
 10 27  1  0  0  0  0
 11 12  2  0  0  0  0
 13 12  1  1  0  0  0
 13 15  1  0  0  0  0
 13 28  1  0  0  0  0
 14 15  2  0  0  0  0
 14 19  1  0  0  0  0
 15 16  1  0  0  0  0
 16 17  2  0  0  0  0
 17 18  1  0  0  0  0
 18 19  2  0  0  0  0
 20 21  1  0  0  0  0
 21 25  1  0  0  0  0
 22 26  2  0  0  0  0
 23 24  2  0  0  0  0
 24 25  1  0  0  0  0
 25 26  1  0  0  0  0
 27 26  1  1  0  0  0
 27 28  1  0  0  0  0
 28 24  1  1  0  0  0
M  END
>  <CHROM.1>
176.04460896,176.80268084,-171.41064520,160.20522408,-44.81239481,41.86061901
27.30482065,12.20530197,0.76785109,-0.06910328,-2.93337221

>  <Name>
ligand

>  <RI>
0

>  <Rbt.Current_Directory>
/home/itssahil/PROJECTS/Mol_Feturizer/New_Systems/rnas/1YLS

>  <Rbt.Executable>
rbdock ($Id: //depot/dev/client3/rdock/2013.1/src/exe/rbdock.cxx#4 $)

>  <Rbt.Library>
libRbt.so (2013.1, Build901 2013/11/27)

>  <Rbt.Parameter_File>
/export/apps/rDock/src/rDock_2013.1_src/data/scripts/dock_solv.prm

>  <Rbt.Receptor>
prm/blind_docking_60.prm

>  <SCORE>
-15.5017

>  <SCORE.INTER>
-12.9455

>  <SCORE.INTER.CONST>
1

>  <SCORE.INTER.POLAR>
0

>  <SCORE.INTER.ROT>
5

>  <SCORE.INTER.SOLV>
8.3001

>  <SCORE.INTER.VDW>
-18.3303

>  <SCORE.INTER.norm>
-0.462338

>  <SCORE.INTRA>
-2.55621

>  <SCORE.INTRA.DIHEDRAL>
-7.99107

>  <SCORE.INTRA.DIHEDRAL.0>
12.0148

>  <SCORE.INTRA.POLAR>
0

>  <SCORE.INTRA.POLAR.0>
0

>  <SCORE.INTRA.REPUL>
0

>  <SCORE.INTRA.REPUL.0>
0

>  <SCORE.INTRA.SOLV>
0.268658

>  <SCORE.INTRA.SOLV.lig_0>
-10.5235

>  <SCORE.INTRA.VDW>
1.305

>  <SCORE.INTRA.VDW.0>
-1.38455

>  <SCORE.INTRA.norm>
-0.0912932

>  <SCORE.RESTR>
0

>  <SCORE.RESTR.CAVITY>
0

>  <SCORE.RESTR.norm>
0

>  <SCORE.SYSTEM>
0

>  <SCORE.SYSTEM.CONST>
0

>  <SCORE.SYSTEM.DIHEDRAL>
0

>  <SCORE.SYSTEM.SOLV>
0

>  <SCORE.SYSTEM.norm>
0

>  <SCORE.heavy>
28

>  <SCORE.norm>
-0.553631

>  <RMSD>
14.576

$$$$
ligand
 OpenBabel11021811413D
libRbt.so/2013.1/901 2013/11/27
 28 32  0  0  0  0  0  0  0  0999 V2000
   46.3382   21.9776   10.7111 C   0  0  0  0  0  0  0  0  0  0  0  0
   45.2444   22.8794   11.2480 C   0  0  0  0  0  0  0  0  0  0  0  0
   45.5984   24.3500   11.0845 C   0  0  0  0  0  0  0  0  0  0  0  0
   41.5527   31.3744   13.3168 O   0  0  0  0  0  0  0  0  0  0  0  0
   41.7045   30.0895   13.9226 C   0  0  0  0  0  0  0  0  0  0  0  0
   40.9229   25.2856   13.1324 C   0  0  0  0  0  0  0  0  0  0  0  0
   41.6351   24.9537   14.2777 C   0  0  0  0  0  0  0  0  0  0  0  0
   42.2162   25.9655   15.0463 C   0  0  0  0  0  0  0  0  0  0  0  0
   42.0842   27.3041   14.6751 C   0  0  0  0  0  0  0  0  0  0  0  0
   41.1545   28.9851   13.0108 C   0  0  1  0  0  0  0  0  0  0  0  0
   41.3508   27.6090   13.5524 C   0  0  0  0  0  0  0  0  0  0  0  0
   40.7845   26.6121   12.7988 C   0  0  0  0  0  0  0  0  0  0  0  0
   40.1009   27.0595   11.6002 C   0  0  1  0  0  0  0  0  0  0  0  0
   37.8278   28.0713   11.6192 C   0  0  0  0  0  0  0  0  0  0  0  0
   39.1500   28.0845   11.9934 C   0  0  0  0  0  0  0  0  0  0  0  0
   39.6764   29.1053   12.7386 C   0  0  0  0  0  0  0  0  0  0  0  0
   38.8685   30.1617   13.1327 C   0  0  0  0  0  0  0  0  0  0  0  0
   37.5178   30.1521   12.7777 C   0  0  0  0  0  0  0  0  0  0  0  0
   37.0010   29.1060   12.0247 C   0  0  0  0  0  0  0  0  0  0  0  0
   44.4176   25.2321   11.4689 C   0  0  0  0  0  0  0  0  0  0  0  0
   44.6952   26.6847   11.1007 C   0  0  0  0  0  0  0  0  0  0  0  0
   44.0826   29.0996   12.2277 O   0  0  0  0  0  0  0  0  0  0  0  0
   42.2475   25.8454    9.9636 O   0  0  0  0  0  0  0  0  0  0  0  0
   42.3494   26.9060   10.5574 C   0  0  0  0  0  0  0  0  0  0  0  0
   43.4123   27.3695   11.0901 N   0  0  0  0  0  0  0  0  0  0  0  0
   43.2218   28.4756   11.6631 C   0  0  0  0  0  0  0  0  0  0  0  0
   41.8012   28.9206   11.6181 C   0  0  1  0  0  0  0  0  0  0  0  0
   41.1756   27.7858   10.8031 C   0  0  2  0  0  0  0  0  0  0  0  0
  1  2  1  0  0  0  0
  2  3  1  0  0  0  0
  3 20  1  0  0  0  0
  4  5  1  0  0  0  0
  6  7  2  0  0  0  0
  6 12  1  0  0  0  0
  7  8  1  0  0  0  0
  8  9  2  0  0  0  0
  9 11  1  0  0  0  0
 10  5  1  1  0  0  0
 10 11  1  0  0  0  0
 10 16  1  0  0  0  0
 10 27  1  0  0  0  0
 11 12  2  0  0  0  0
 13 12  1  1  0  0  0
 13 15  1  0  0  0  0
 13 28  1  0  0  0  0
 14 15  2  0  0  0  0
 14 19  1  0  0  0  0
 15 16  1  0  0  0  0
 16 17  2  0  0  0  0
 17 18  1  0  0  0  0
 18 19  2  0  0  0  0
 20 21  1  0  0  0  0
 21 25  1  0  0  0  0
 22 26  2  0  0  0  0
 23 24  2  0  0  0  0
 24 25  1  0  0  0  0
 25 26  1  0  0  0  0
 27 26  1  1  0  0  0
 27 28  1  0  0  0  0
 28 24  1  1  0  0  0
M  END
>  <CHROM.1>
172.94811227,176.80503469,-171.18074126,162.12428890,-44.60140204,41.86218257
27.30401514,12.20171144,0.76802422,-0.07215388,-2.93952907

>  <Name>
ligand

>  <RI>
0

>  <Rbt.Current_Directory>
/home/itssahil/PROJECTS/Mol_Feturizer/New_Systems/rnas/1YLS

>  <Rbt.Executable>
rbdock ($Id: //depot/dev/client3/rdock/2013.1/src/exe/rbdock.cxx#4 $)

>  <Rbt.Library>
libRbt.so (2013.1, Build901 2013/11/27)

>  <Rbt.Parameter_File>
/export/apps/rDock/src/rDock_2013.1_src/data/scripts/dock_solv.prm

>  <Rbt.Receptor>
prm/blind_docking_60.prm

>  <SCORE>
-15.4754

>  <SCORE.INTER>
-12.9133

>  <SCORE.INTER.CONST>
1

>  <SCORE.INTER.POLAR>
0

>  <SCORE.INTER.ROT>
5

>  <SCORE.INTER.SOLV>
8.23776

>  <SCORE.INTER.VDW>
-18.2882

>  <SCORE.INTER.norm>
-0.461191

>  <SCORE.INTRA>
-2.56206

>  <SCORE.INTRA.DIHEDRAL>
-8.06681

>  <SCORE.INTRA.DIHEDRAL.0>
12.0148

>  <SCORE.INTRA.POLAR>
0

>  <SCORE.INTRA.POLAR.0>
0

>  <SCORE.INTRA.REPUL>
0

>  <SCORE.INTRA.REPUL.0>
0

>  <SCORE.INTRA.SOLV>
0.263631

>  <SCORE.INTRA.SOLV.lig_0>
-10.5235

>  <SCORE.INTRA.VDW>
1.33953

>  <SCORE.INTRA.VDW.0>
-1.38455

>  <SCORE.INTRA.norm>
-0.0915022

>  <SCORE.RESTR>
0

>  <SCORE.RESTR.CAVITY>
0

>  <SCORE.RESTR.norm>
0

>  <SCORE.SYSTEM>
0

>  <SCORE.SYSTEM.CONST>
0

>  <SCORE.SYSTEM.DIHEDRAL>
0

>  <SCORE.SYSTEM.SOLV>
0

>  <SCORE.SYSTEM.norm>
0

>  <SCORE.heavy>
28

>  <SCORE.norm>
-0.552693

>  <RMSD>
14.580

$$$$
ligand
 OpenBabel11021811413D
libRbt.so/2013.1/901 2013/11/27
 28 32  0  0  0  0  0  0  0  0999 V2000
   46.2361   22.4391   10.4876 C   0  0  0  0  0  0  0  0  0  0  0  0
   46.0791   23.8502   11.0187 C   0  0  0  0  0  0  0  0  0  0  0  0
   44.6499   24.1282   11.4602 C   0  0  0  0  0  0  0  0  0  0  0  0
   41.6061   31.3848   13.1376 O   0  0  0  0  0  0  0  0  0  0  0  0
   41.7055   30.1272   13.8082 C   0  0  0  0  0  0  0  0  0  0  0  0
   40.9016   25.3026   13.1839 C   0  0  0  0  0  0  0  0  0  0  0  0
   41.6057   25.0076   14.3443 C   0  0  0  0  0  0  0  0  0  0  0  0
   42.1880   26.0429   15.0799 C   0  0  0  0  0  0  0  0  0  0  0  0
   42.0656   27.3682   14.6609 C   0  0  0  0  0  0  0  0  0  0  0  0
   41.1544   28.9942   12.9329 C   0  0  1  0  0  0  0  0  0  0  0  0
   41.3401   27.6371   13.5239 C   0  0  0  0  0  0  0  0  0  0  0  0
   40.7725   26.6172   12.8028 C   0  0  0  0  0  0  0  0  0  0  0  0
   40.0979   27.0255   11.5853 C   0  0  1  0  0  0  0  0  0  0  0  0
   37.8304   28.0495   11.5555 C   0  0  0  0  0  0  0  0  0  0  0  0
   39.1506   28.0689   11.9365 C   0  0  0  0  0  0  0  0  0  0  0  0
   39.6785   29.1126   12.6481 C   0  0  0  0  0  0  0  0  0  0  0  0
   38.8743   30.1866   13.0000 C   0  0  0  0  0  0  0  0  0  0  0  0
   37.5256   30.1716   12.6379 C   0  0  0  0  0  0  0  0  0  0  0  0
   37.0071   29.1023   11.9194 C   0  0  0  0  0  0  0  0  0  0  0  0
   44.5545   25.4850   12.1459 C   0  0  0  0  0  0  0  0  0  0  0  0
   44.6928   26.6088   11.1256 C   0  0  0  0  0  0  0  0  0  0  0  0
   44.0874   29.0653   12.1630 O   0  0  0  0  0  0  0  0  0  0  0  0
   42.2468   25.7428   10.0049 O   0  0  0  0  0  0  0  0  0  0  0  0
   42.3513   26.8232   10.5614 C   0  0  0  0  0  0  0  0  0  0  0  0
   43.4138   27.2996   11.0835 N   0  0  0  0  0  0  0  0  0  0  0  0
   43.2262   28.4263   11.6159 C   0  0  0  0  0  0  0  0  0  0  0  0
   41.8084   28.8770   11.5471 C   0  0  1  0  0  0  0  0  0  0  0  0
   41.1811   27.7174   10.7691 C   0  0  2  0  0  0  0  0  0  0  0  0
  1  2  1  0  0  0  0
  2  3  1  0  0  0  0
  3 20  1  0  0  0  0
  4  5  1  0  0  0  0
  6  7  2  0  0  0  0
  6 12  1  0  0  0  0
  7  8  1  0  0  0  0
  8  9  2  0  0  0  0
  9 11  1  0  0  0  0
 10  5  1  1  0  0  0
 10 11  1  0  0  0  0
 10 16  1  0  0  0  0
 10 27  1  0  0  0  0
 11 12  2  0  0  0  0
 13 12  1  1  0  0  0
 13 15  1  0  0  0  0
 13 28  1  0  0  0  0
 14 15  2  0  0  0  0
 14 19  1  0  0  0  0
 15 16  1  0  0  0  0
 16 17  2  0  0  0  0
 17 18  1  0  0  0  0
 18 19  2  0  0  0  0
 20 21  1  0  0  0  0
 21 25  1  0  0  0  0
 22 26  2  0  0  0  0
 23 24  2  0  0  0  0
 24 25  1  0  0  0  0
 25 26  1  0  0  0  0
 27 26  1  1  0  0  0
 27 28  1  0  0  0  0
 28 24  1  1  0  0  0
M  END
>  <CHROM.1>
173.01079680,174.81164080,72.20744201,113.93740924,-72.18363758,41.85883675
27.35082113,12.18771796,0.73038362,-0.04191683,-2.91937572

>  <Name>
ligand

>  <RI>
0

>  <Rbt.Current_Directory>
/home/itssahil/PROJECTS/Mol_Feturizer/New_Systems/rnas/1YLS

>  <Rbt.Executable>
rbdock ($Id: //depot/dev/client3/rdock/2013.1/src/exe/rbdock.cxx#4 $)

>  <Rbt.Library>
libRbt.so (2013.1, Build901 2013/11/27)

>  <Rbt.Parameter_File>
/export/apps/rDock/src/rDock_2013.1_src/data/scripts/dock_solv.prm

>  <Rbt.Receptor>
prm/blind_docking_80.prm

>  <SCORE>
-13.7052

>  <SCORE.INTER>
-11.9246

>  <SCORE.INTER.CONST>
1

>  <SCORE.INTER.POLAR>
0

>  <SCORE.INTER.ROT>
5

>  <SCORE.INTER.SOLV>
8.17537

>  <SCORE.INTER.VDW>
-17.6082

>  <SCORE.INTER.norm>
-0.42588

>  <SCORE.INTRA>
-1.78058

>  <SCORE.INTRA.DIHEDRAL>
-3.22916

>  <SCORE.INTRA.DIHEDRAL.0>
12.0148

>  <SCORE.INTRA.POLAR>
0

>  <SCORE.INTRA.POLAR.0>
0

>  <SCORE.INTRA.REPUL>
0

>  <SCORE.INTRA.REPUL.0>
0

>  <SCORE.INTRA.SOLV>
0.390464

>  <SCORE.INTRA.SOLV.lig_0>
-10.5235

>  <SCORE.INTRA.VDW>
-0.361228

>  <SCORE.INTRA.VDW.0>
-1.38455

>  <SCORE.INTRA.norm>
-0.0635921

>  <SCORE.RESTR>
0

>  <SCORE.RESTR.CAVITY>
0

>  <SCORE.RESTR.norm>
0

>  <SCORE.SYSTEM>
0

>  <SCORE.SYSTEM.CONST>
0

>  <SCORE.SYSTEM.DIHEDRAL>
0

>  <SCORE.SYSTEM.SOLV>
0

>  <SCORE.SYSTEM.norm>
0

>  <SCORE.heavy>
28

>  <SCORE.norm>
-0.489472

>  <RMSD>
14.584

$$$$
ligand
 OpenBabel11021811413D
libRbt.so/2013.1/901 2013/11/27
 28 32  0  0  0  0  0  0  0  0999 V2000
   48.0038   24.7182   13.6048 C   0  0  0  0  0  0  0  0  0  0  0  0
   47.0139   23.6634   13.1517 C   0  0  0  0  0  0  0  0  0  0  0  0
   46.4150   24.0014   11.7945 C   0  0  0  0  0  0  0  0  0  0  0  0
   42.3029   30.5556   14.0105 O   0  0  0  0  0  0  0  0  0  0  0  0
   42.7586   30.1057   12.7334 C   0  0  0  0  0  0  0  0  0  0  0  0
   42.0205   25.3241   13.6841 C   0  0  0  0  0  0  0  0  0  0  0  0
   42.9511   25.3576   14.7147 C   0  0  0  0  0  0  0  0  0  0  0  0
   43.6304   26.5465   14.9925 C   0  0  0  0  0  0  0  0  0  0  0  0
   43.3797   27.6988   14.2466 C   0  0  0  0  0  0  0  0  0  0  0  0
   42.0857   28.7825   12.3462 C   0  0  1  0  0  0  0  0  0  0  0  0
   42.4337   27.6475   13.2497 C   0  0  0  0  0  0  0  0  0  0  0  0
   41.7712   26.4771   12.9781 C   0  0  0  0  0  0  0  0  0  0  0  0
   40.8541   26.5352   11.8558 C   0  0  1  0  0  0  0  0  0  0  0  0
   38.5905   27.5595   11.9907 C   0  0  0  0  0  0  0  0  0  0  0  0
   39.9586   27.6569   12.0776 C   0  0  0  0  0  0  0  0  0  0  0  0
   40.5794   28.8482   12.3414 C   0  0  0  0  0  0  0  0  0  0  0  0
   39.8231   29.9961   12.5265 C   0  0  0  0  0  0  0  0  0  0  0  0
   38.4308   29.9090   12.4617 C   0  0  0  0  0  0  0  0  0  0  0  0
   37.8187   28.6910   12.1968 C   0  0  0  0  0  0  0  0  0  0  0  0
   45.3843   25.1153   11.9254 C   0  0  0  0  0  0  0  0  0  0  0  0
   45.2782   25.8991   10.6226 C   0  0  0  0  0  0  0  0  0  0  0  0
   44.8030   28.5630   11.0163 O   0  0  0  0  0  0  0  0  0  0  0  0
   42.6911   24.8048   10.3091 O   0  0  0  0  0  0  0  0  0  0  0  0
   42.8651   25.9966   10.5020 C   0  0  0  0  0  0  0  0  0  0  0  0
   43.9923   26.5781   10.6426 N   0  0  0  0  0  0  0  0  0  0  0  0
   43.8739   27.8140   10.8583 C   0  0  0  0  0  0  0  0  0  0  0  0
   42.4554   28.2585   10.9495 C   0  0  1  0  0  0  0  0  0  0  0  0
   41.7281   26.9394   10.6765 C   0  0  2  0  0  0  0  0  0  0  0  0
  1  2  1  0  0  0  0
  2  3  1  0  0  0  0
  3 20  1  0  0  0  0
  4  5  1  0  0  0  0
  6  7  2  0  0  0  0
  6 12  1  0  0  0  0
  7  8  1  0  0  0  0
  8  9  2  0  0  0  0
  9 11  1  0  0  0  0
 10  5  1  1  0  0  0
 10 11  1  0  0  0  0
 10 16  1  0  0  0  0
 10 27  1  0  0  0  0
 11 12  2  0  0  0  0
 13 12  1  1  0  0  0
 13 15  1  0  0  0  0
 13 28  1  0  0  0  0
 14 15  2  0  0  0  0
 14 19  1  0  0  0  0
 15 16  1  0  0  0  0
 16 17  2  0  0  0  0
 17 18  1  0  0  0  0
 18 19  2  0  0  0  0
 20 21  1  0  0  0  0
 21 25  1  0  0  0  0
 22 26  2  0  0  0  0
 23 24  2  0  0  0  0
 24 25  1  0  0  0  0
 25 26  1  0  0  0  0
 27 26  1  1  0  0  0
 27 28  1  0  0  0  0
 28 24  1  1  0  0  0
M  END
>  <CHROM.1>
-75.16864981,-64.32650173,152.95995777,159.44329108,-72.05223454,42.77836398
27.11104910,12.27026244,-0.45171630,-0.38740740,0.67321013

>  <Name>
ligand

>  <RI>
0

>  <Rbt.Current_Directory>
/home/itssahil/PROJECTS/Mol_Feturizer/New_Systems/rnas/1YLS

>  <Rbt.Executable>
rbdock ($Id: //depot/dev/client3/rdock/2013.1/src/exe/rbdock.cxx#4 $)

>  <Rbt.Library>
libRbt.so (2013.1, Build901 2013/11/27)

>  <Rbt.Parameter_File>
/export/apps/rDock/src/rDock_2013.1_src/data/scripts/dock_solv.prm

>  <Rbt.Receptor>
prm/blind_docking_60.prm

>  <SCORE>
-11.3718

>  <SCORE.INTER>
-9.01814

>  <SCORE.INTER.CONST>
1

>  <SCORE.INTER.POLAR>
0

>  <SCORE.INTER.ROT>
5

>  <SCORE.INTER.SOLV>
8.03722

>  <SCORE.INTER.VDW>
-15.6245

>  <SCORE.INTER.norm>
-0.322077

>  <SCORE.INTRA>
-2.36179

>  <SCORE.INTRA.DIHEDRAL>
-4.4901

>  <SCORE.INTRA.DIHEDRAL.0>
12.0148

>  <SCORE.INTRA.POLAR>
0

>  <SCORE.INTRA.POLAR.0>
0

>  <SCORE.INTRA.REPUL>
0

>  <SCORE.INTRA.REPUL.0>
0

>  <SCORE.INTRA.SOLV>
-0.0190814

>  <SCORE.INTRA.SOLV.lig_0>
-10.5235

>  <SCORE.INTRA.VDW>
-0.107195

>  <SCORE.INTRA.VDW.0>
-1.38455

>  <SCORE.INTRA.norm>
-0.0843496

>  <SCORE.RESTR>
0.0081445

>  <SCORE.RESTR.CAVITY>
0.0081445

>  <SCORE.RESTR.norm>
0.000290875

>  <SCORE.SYSTEM>
0

>  <SCORE.SYSTEM.CONST>
0

>  <SCORE.SYSTEM.DIHEDRAL>
0

>  <SCORE.SYSTEM.SOLV>
0

>  <SCORE.SYSTEM.norm>
0

>  <SCORE.heavy>
28

>  <SCORE.norm>
-0.406135

>  <RMSD>
14.706

$$$$
ligand
 OpenBabel11021811413D
libRbt.so/2013.1/901 2013/11/27
 28 32  0  0  0  0  0  0  0  0999 V2000
   46.4800   22.2605   10.5777 C   0  0  0  0  0  0  0  0  0  0  0  0
   45.9688   21.7128   11.8955 C   0  0  0  0  0  0  0  0  0  0  0  0
   44.4482   21.6868   11.9408 C   0  0  0  0  0  0  0  0  0  0  0  0
   39.5496   26.8425   10.3628 O   0  0  0  0  0  0  0  0  0  0  0  0
   39.8357   26.2548   11.6332 C   0  0  0  0  0  0  0  0  0  0  0  0
   44.6652   27.1690   11.2420 C   0  0  0  0  0  0  0  0  0  0  0  0
   44.7381   26.4273   10.0698 C   0  0  0  0  0  0  0  0  0  0  0  0
   43.5909   25.7991    9.5784 C   0  0  0  0  0  0  0  0  0  0  0  0
   42.3746   25.9131   10.2526 C   0  0  0  0  0  0  0  0  0  0  0  0
   41.1075   26.8588   12.2425 C   0  0  1  0  0  0  0  0  0  0  0  0
   42.3219   26.6757   11.3958 C   0  0  0  0  0  0  0  0  0  0  0  0
   43.4515   27.2884   11.8765 C   0  0  0  0  0  0  0  0  0  0  0  0
   43.2798   28.0007   13.1285 C   0  0  1  0  0  0  0  0  0  0  0  0
   42.2257   30.2488   13.2896 C   0  0  0  0  0  0  0  0  0  0  0  0
   42.1634   28.9151   12.9644 C   0  0  0  0  0  0  0  0  0  0  0  0
   41.0115   28.3420   12.4964 C   0  0  0  0  0  0  0  0  0  0  0  0
   39.8686   29.1128   12.3425 C   0  0  0  0  0  0  0  0  0  0  0  0
   39.9220   30.4741   12.6493 C   0  0  0  0  0  0  0  0  0  0  0  0
   41.1006   31.0386   13.1192 C   0  0  0  0  0  0  0  0  0  0  0  0
   43.8940   23.0882   12.1619 C   0  0  0  0  0  0  0  0  0  0  0  0
   43.8970   23.4346   13.6461 C   0  0  0  0  0  0  0  0  0  0  0  0
   41.2673   23.9560   13.1076 O   0  0  0  0  0  0  0  0  0  0  0  0
   44.9088   25.9363   14.4870 O   0  0  0  0  0  0  0  0  0  0  0  0
   43.7414   25.7914   14.1642 C   0  0  0  0  0  0  0  0  0  0  0  0
   43.1966   24.7015   13.7848 N   0  0  0  0  0  0  0  0  0  0  0  0
   41.9814   24.8485   13.4853 C   0  0  0  0  0  0  0  0  0  0  0  0
   41.5180   26.2595   13.5969 C   0  0  1  0  0  0  0  0  0  0  0  0
   42.7942   26.9365   14.1031 C   0  0  2  0  0  0  0  0  0  0  0  0
  1  2  1  0  0  0  0
  2  3  1  0  0  0  0
  3 20  1  0  0  0  0
  4  5  1  0  0  0  0
  6  7  2  0  0  0  0
  6 12  1  0  0  0  0
  7  8  1  0  0  0  0
  8  9  2  0  0  0  0
  9 11  1  0  0  0  0
 10  5  1  6  0  0  0
 10 11  1  0  0  0  0
 10 16  1  0  0  0  0
 10 27  1  0  0  0  0
 11 12  2  0  0  0  0
 13 12  1  6  0  0  0
 13 15  1  0  0  0  0
 13 28  1  0  0  0  0
 14 15  2  0  0  0  0
 14 19  1  0  0  0  0
 15 16  1  0  0  0  0
 16 17  2  0  0  0  0
 17 18  1  0  0  0  0
 18 19  2  0  0  0  0
 20 21  1  0  0  0  0
 21 25  1  0  0  0  0
 22 26  2  0  0  0  0
 23 24  2  0  0  0  0
 24 25  1  0  0  0  0
 25 26  1  0  0  0  0
 27 26  1  6  0  0  0
 27 28  1  0  0  0  0
 28 24  1  6  0  0  0
M  END
>  <CHROM.1>
-75.78652689,-59.48166672,-83.44731526,-172.64647562,-113.95890768,42.72190232
26.14240654,12.35412067,0.85770928,0.60539440,-2.59936663

>  <Name>
ligand

>  <RI>
0

>  <Rbt.Current_Directory>
/home/itssahil/PROJECTS/Mol_Feturizer/New_Systems/rnas/1YLS

>  <Rbt.Executable>
rbdock ($Id: //depot/dev/client3/rdock/2013.1/src/exe/rbdock.cxx#4 $)

>  <Rbt.Library>
libRbt.so (2013.1, Build901 2013/11/27)

>  <Rbt.Parameter_File>
/export/apps/rDock/src/rDock_2013.1_src/data/scripts/dock_solv.prm

>  <Rbt.Receptor>
prm/blind_docking_60.prm

>  <SCORE>
-13.3931

>  <SCORE.INTER>
-10.9093

>  <SCORE.INTER.CONST>
1

>  <SCORE.INTER.POLAR>
0

>  <SCORE.INTER.ROT>
5

>  <SCORE.INTER.SOLV>
11.3132

>  <SCORE.INTER.VDW>
-17.9773

>  <SCORE.INTER.norm>
-0.389619

>  <SCORE.INTRA>
-2.48375

>  <SCORE.INTRA.DIHEDRAL>
-6.34539

>  <SCORE.INTRA.DIHEDRAL.0>
12.0148

>  <SCORE.INTRA.POLAR>
0

>  <SCORE.INTRA.POLAR.0>
0

>  <SCORE.INTRA.REPUL>
0

>  <SCORE.INTRA.REPUL.0>
0

>  <SCORE.INTRA.SOLV>
-0.0187793

>  <SCORE.INTRA.SOLV.lig_0>
-10.5235

>  <SCORE.INTRA.VDW>
0.698332

>  <SCORE.INTRA.VDW.0>
-1.38455

>  <SCORE.INTRA.norm>
-0.0887054

>  <SCORE.RESTR>
0

>  <SCORE.RESTR.CAVITY>
0

>  <SCORE.RESTR.norm>
0

>  <SCORE.SYSTEM>
0

>  <SCORE.SYSTEM.CONST>
0

>  <SCORE.SYSTEM.DIHEDRAL>
0

>  <SCORE.SYSTEM.SOLV>
0

>  <SCORE.SYSTEM.norm>
0

>  <SCORE.heavy>
28

>  <SCORE.norm>
-0.478325

>  <RMSD>
14.734

$$$$
ligand
 OpenBabel11021811413D
libRbt.so/2013.1/901 2013/11/27
 28 32  0  0  0  0  0  0  0  0999 V2000
   47.7933   25.1349   13.5232 C   0  0  0  0  0  0  0  0  0  0  0  0
   47.7170   24.6973   12.0739 C   0  0  0  0  0  0  0  0  0  0  0  0
   46.4310   23.9380   11.7835 C   0  0  0  0  0  0  0  0  0  0  0  0
   42.2460   30.6632   13.8833 O   0  0  0  0  0  0  0  0  0  0  0  0
   42.7339   30.1566   12.6397 C   0  0  0  0  0  0  0  0  0  0  0  0
   41.9877   25.4108   13.7502 C   0  0  0  0  0  0  0  0  0  0  0  0
   42.9073   25.4813   14.7887 C   0  0  0  0  0  0  0  0  0  0  0  0
   43.5832   26.6798   15.0317 C   0  0  0  0  0  0  0  0  0  0  0  0
   43.3399   27.8049   14.2431 C   0  0  0  0  0  0  0  0  0  0  0  0
   42.0657   28.8200   12.2922 C   0  0  1  0  0  0  0  0  0  0  0  0
   42.4045   27.7178   13.2387 C   0  0  0  0  0  0  0  0  0  0  0  0
   41.7454   26.5381   13.0015 C   0  0  0  0  0  0  0  0  0  0  0  0
   40.8402   26.5560   11.8682 C   0  0  1  0  0  0  0  0  0  0  0  0
   38.5749   27.5826   11.9431 C   0  0  0  0  0  0  0  0  0  0  0  0
   39.9419   27.6841   12.0410 C   0  0  0  0  0  0  0  0  0  0  0  0
   40.5595   28.8844   12.2692 C   0  0  0  0  0  0  0  0  0  0  0  0
   39.8007   30.0376   12.4058 C   0  0  0  0  0  0  0  0  0  0  0  0
   38.4092   29.9472   12.3294 C   0  0  0  0  0  0  0  0  0  0  0  0
   37.8005   28.7201   12.1011 C   0  0  0  0  0  0  0  0  0  0  0  0
   45.2300   24.8726   11.8474 C   0  0  0  0  0  0  0  0  0  0  0  0
   45.2773   25.8802   10.7049 C   0  0  0  0  0  0  0  0  0  0  0  0
   44.7969   28.5560   10.9996 O   0  0  0  0  0  0  0  0  0  0  0  0
   42.6941   24.7736   10.4029 O   0  0  0  0  0  0  0  0  0  0  0  0
   42.8656   25.9717   10.5555 C   0  0  0  0  0  0  0  0  0  0  0  0
   43.9910   26.5585   10.6874 N   0  0  0  0  0  0  0  0  0  0  0  0
   43.8698   27.8012   10.8582 C   0  0  0  0  0  0  0  0  0  0  0  0
   42.4503   28.2476   10.9188 C   0  0  1  0  0  0  0  0  0  0  0  0
   41.7264   26.9192   10.6847 C   0  0  2  0  0  0  0  0  0  0  0  0
  1  2  1  0  0  0  0
  2  3  1  0  0  0  0
  3 20  1  0  0  0  0
  4  5  1  0  0  0  0
  6  7  2  0  0  0  0
  6 12  1  0  0  0  0
  7  8  1  0  0  0  0
  8  9  2  0  0  0  0
  9 11  1  0  0  0  0
 10  5  1  1  0  0  0
 10 11  1  0  0  0  0
 10 16  1  0  0  0  0
 10 27  1  0  0  0  0
 11 12  2  0  0  0  0
 13 12  1  1  0  0  0
 13 15  1  0  0  0  0
 13 28  1  0  0  0  0
 14 15  2  0  0  0  0
 14 19  1  0  0  0  0
 15 16  1  0  0  0  0
 16 17  2  0  0  0  0
 17 18  1  0  0  0  0
 18 19  2  0  0  0  0
 20 21  1  0  0  0  0
 21 25  1  0  0  0  0
 22 26  2  0  0  0  0
 23 24  2  0  0  0  0
 24 25  1  0  0  0  0
 25 26  1  0  0  0  0
 27 26  1  1  0  0  0
 27 28  1  0  0  0  0
 28 24  1  1  0  0  0
M  END
>  <CHROM.1>
69.29008168,-65.41296665,67.44319773,169.54126604,-57.96116528,42.77527150
27.18460238,12.21056343,-0.47569975,-0.29243803,0.58385862

>  <Name>
ligand

>  <RI>
0

>  <Rbt.Current_Directory>
/home/itssahil/PROJECTS/Mol_Feturizer/New_Systems/rnas/1YLS

>  <Rbt.Executable>
rbdock ($Id: //depot/dev/client3/rdock/2013.1/src/exe/rbdock.cxx#4 $)

>  <Rbt.Library>
libRbt.so (2013.1, Build901 2013/11/27)

>  <Rbt.Parameter_File>
/export/apps/rDock/src/rDock_2013.1_src/data/scripts/dock_solv.prm

>  <Rbt.Receptor>
prm/blind_docking_60.prm

>  <SCORE>
-12.7769

>  <SCORE.INTER>
-10.178

>  <SCORE.INTER.CONST>
1

>  <SCORE.INTER.POLAR>
0

>  <SCORE.INTER.ROT>
5

>  <SCORE.INTER.SOLV>
7.83256

>  <SCORE.INTER.VDW>
-16.3295

>  <SCORE.INTER.norm>
-0.363499

>  <SCORE.INTRA>
-2.59919

>  <SCORE.INTRA.DIHEDRAL>
-8.55221

>  <SCORE.INTRA.DIHEDRAL.0>
12.0148

>  <SCORE.INTRA.POLAR>
0

>  <SCORE.INTRA.POLAR.0>
0

>  <SCORE.INTRA.REPUL>
0

>  <SCORE.INTRA.REPUL.0>
0

>  <SCORE.INTRA.SOLV>
7.78465e-05

>  <SCORE.INTRA.SOLV.lig_0>
-10.5235

>  <SCORE.INTRA.VDW>
1.67688

>  <SCORE.INTRA.VDW.0>
-1.38455

>  <SCORE.INTRA.norm>
-0.0928281

>  <SCORE.RESTR>
0.000199893

>  <SCORE.RESTR.CAVITY>
0.000199893

>  <SCORE.RESTR.norm>
7.13905e-06

>  <SCORE.SYSTEM>
0

>  <SCORE.SYSTEM.CONST>
0

>  <SCORE.SYSTEM.DIHEDRAL>
0

>  <SCORE.SYSTEM.SOLV>
0

>  <SCORE.SYSTEM.norm>
0

>  <SCORE.heavy>
28

>  <SCORE.norm>
-0.456319

>  <RMSD>
14.744

$$$$
ligand
 OpenBabel11021811413D
libRbt.so/2013.1/901 2013/11/27
 28 32  0  0  0  0  0  0  0  0999 V2000
   46.4661   20.9446   12.3421 C   0  0  0  0  0  0  0  0  0  0  0  0
   45.6781   22.2286   12.5104 C   0  0  0  0  0  0  0  0  0  0  0  0
   44.1841   21.9971   12.3395 C   0  0  0  0  0  0  0  0  0  0  0  0
   38.5911   27.4029   12.1338 O   0  0  0  0  0  0  0  0  0  0  0  0
   39.7077   26.8652   11.4230 C   0  0  0  0  0  0  0  0  0  0  0  0
   44.6270   27.0832   11.1675 C   0  0  0  0  0  0  0  0  0  0  0  0
   44.6354   26.2235   10.0766 C   0  0  0  0  0  0  0  0  0  0  0  0
   43.4294   25.7071    9.5958 C   0  0  0  0  0  0  0  0  0  0  0  0
   42.2190   26.0500   10.1994 C   0  0  0  0  0  0  0  0  0  0  0  0
   41.0299   27.3530   12.0292 C   0  0  1  0  0  0  0  0  0  0  0  0
   42.2345   26.9248   11.2605 C   0  0  0  0  0  0  0  0  0  0  0  0
   43.4212   27.4271   11.7314 C   0  0  0  0  0  0  0  0  0  0  0  0
   43.3084   28.2791   12.8999 C   0  0  1  0  0  0  0  0  0  0  0  0
   42.5680   30.6523   12.7959 C   0  0  0  0  0  0  0  0  0  0  0  0
   42.3339   29.3127   12.5977 C   0  0  0  0  0  0  0  0  0  0  0  0
   41.1300   28.8537   12.1347 C   0  0  0  0  0  0  0  0  0  0  0  0
   40.1092   29.7504   11.8553 C   0  0  0  0  0  0  0  0  0  0  0  0
   40.3389   31.1165   12.0319 C   0  0  0  0  0  0  0  0  0  0  0  0
   41.5680   31.5635   12.4990 C   0  0  0  0  0  0  0  0  0  0  0  0
   43.4236   23.3138   12.4280 C   0  0  0  0  0  0  0  0  0  0  0  0
   43.2764   23.7477   13.8816 C   0  0  0  0  0  0  0  0  0  0  0  0
   40.7619   24.5576   13.1754 O   0  0  0  0  0  0  0  0  0  0  0  0
   44.5939   26.1645   14.5237 O   0  0  0  0  0  0  0  0  0  0  0  0
   43.4288   26.1445   14.1632 C   0  0  0  0  0  0  0  0  0  0  0  0
   42.7523   25.1042   13.8656 N   0  0  0  0  0  0  0  0  0  0  0  0
   41.5791   25.3806   13.4980 C   0  0  0  0  0  0  0  0  0  0  0  0
   41.3102   26.8448   13.4522 C   0  0  1  0  0  0  0  0  0  0  0  0
   42.6502   27.3935   13.9490 C   0  0  2  0  0  0  0  0  0  0  0  0
  1  2  1  0  0  0  0
  2  3  1  0  0  0  0
  3 20  1  0  0  0  0
  4  5  1  0  0  0  0
  6  7  2  0  0  0  0
  6 12  1  0  0  0  0
  7  8  1  0  0  0  0
  8  9  2  0  0  0  0
  9 11  1  0  0  0  0
 10  5  1  6  0  0  0
 10 11  1  0  0  0  0
 10 16  1  0  0  0  0
 10 27  1  0  0  0  0
 11 12  2  0  0  0  0
 13 12  1  6  0  0  0
 13 15  1  0  0  0  0
 13 28  1  0  0  0  0
 14 15  2  0  0  0  0
 14 19  1  0  0  0  0
 15 16  1  0  0  0  0
 16 17  2  0  0  0  0
 17 18  1  0  0  0  0
 18 19  2  0  0  0  0
 20 21  1  0  0  0  0
 21 25  1  0  0  0  0
 22 26  2  0  0  0  0
 23 24  2  0  0  0  0
 24 25  1  0  0  0  0
 25 26  1  0  0  0  0
 27 26  1  6  0  0  0
 27 28  1  0  0  0  0
 28 24  1  6  0  0  0
M  END
>  <CHROM.1>
-176.52557079,-174.91966931,-78.23084968,170.47176058,-107.64487427,42.55999656
26.43916701,12.42693380,-1.05864527,0.06953414,-0.09179688

>  <Name>
ligand

>  <RI>
0

>  <Rbt.Current_Directory>
/home/itssahil/PROJECTS/Mol_Feturizer/New_Systems/rnas/1YLS

>  <Rbt.Executable>
rbdock ($Id: //depot/dev/client3/rdock/2013.1/src/exe/rbdock.cxx#4 $)

>  <Rbt.Library>
libRbt.so (2013.1, Build901 2013/11/27)

>  <Rbt.Parameter_File>
/export/apps/rDock/src/rDock_2013.1_src/data/scripts/dock_solv.prm

>  <Rbt.Receptor>
prm/blind_docking_100.prm

>  <SCORE>
-11.7968

>  <SCORE.INTER>
-8.04596

>  <SCORE.INTER.CONST>
1

>  <SCORE.INTER.POLAR>
0

>  <SCORE.INTER.ROT>
5

>  <SCORE.INTER.SOLV>
10.9432

>  <SCORE.INTER.VDW>
-15.9451

>  <SCORE.INTER.norm>
-0.287356

>  <SCORE.INTRA>
-3.76229

>  <SCORE.INTRA.DIHEDRAL>
-7.723

>  <SCORE.INTRA.DIHEDRAL.0>
12.0148

>  <SCORE.INTRA.POLAR>
0

>  <SCORE.INTRA.POLAR.0>
0

>  <SCORE.INTRA.REPUL>
0

>  <SCORE.INTRA.REPUL.0>
0

>  <SCORE.INTRA.SOLV>
0.139972

>  <SCORE.INTRA.SOLV.lig_0>
-10.5235

>  <SCORE.INTRA.VDW>
0.0292245

>  <SCORE.INTRA.VDW.0>
-1.38455

>  <SCORE.INTRA.norm>
-0.134367

>  <SCORE.RESTR>
0.0114759

>  <SCORE.RESTR.CAVITY>
0.0114759

>  <SCORE.RESTR.norm>
0.000409855

>  <SCORE.SYSTEM>
0

>  <SCORE.SYSTEM.CONST>
0

>  <SCORE.SYSTEM.DIHEDRAL>
0

>  <SCORE.SYSTEM.SOLV>
0

>  <SCORE.SYSTEM.norm>
0

>  <SCORE.heavy>
28

>  <SCORE.norm>
-0.421313

>  <RMSD>
14.749

$$$$
ligand
 OpenBabel11021811413D
libRbt.so/2013.1/901 2013/11/27
 28 32  0  0  0  0  0  0  0  0999 V2000
   45.3663   21.7621   12.4154 C   0  0  0  0  0  0  0  0  0  0  0  0
   46.4001   22.7963   12.8148 C   0  0  0  0  0  0  0  0  0  0  0  0
   46.5125   23.9064   11.7804 C   0  0  0  0  0  0  0  0  0  0  0  0
   42.3047   30.5278   14.0065 O   0  0  0  0  0  0  0  0  0  0  0  0
   42.7925   30.0601   12.7478 C   0  0  0  0  0  0  0  0  0  0  0  0
   42.0298   25.2859   13.7159 C   0  0  0  0  0  0  0  0  0  0  0  0
   42.9441   25.3239   14.7609 C   0  0  0  0  0  0  0  0  0  0  0  0
   43.6213   26.5132   15.0421 C   0  0  0  0  0  0  0  0  0  0  0  0
   43.3847   27.6614   14.2853 C   0  0  0  0  0  0  0  0  0  0  0  0
   42.1231   28.7359   12.3581 C   0  0  1  0  0  0  0  0  0  0  0  0
   42.4545   27.6058   13.2739 C   0  0  0  0  0  0  0  0  0  0  0  0
   41.7939   26.4351   12.9991 C   0  0  0  0  0  0  0  0  0  0  0  0
   40.8948   26.4880   11.8621 C   0  0  1  0  0  0  0  0  0  0  0  0
   38.6315   27.5175   11.9551 C   0  0  0  0  0  0  0  0  0  0  0  0
   39.9981   27.6128   12.0629 C   0  0  0  0  0  0  0  0  0  0  0  0
   40.6172   28.8045   12.3292 C   0  0  0  0  0  0  0  0  0  0  0  0
   39.8604   29.9550   12.4953 C   0  0  0  0  0  0  0  0  0  0  0  0
   38.4691   29.8703   12.4091 C   0  0  0  0  0  0  0  0  0  0  0  0
   37.8587   28.6518   12.1420 C   0  0  0  0  0  0  0  0  0  0  0  0
   45.2911   24.8149   11.8336 C   0  0  0  0  0  0  0  0  0  0  0  0
   45.3364   25.8357   10.7027 C   0  0  0  0  0  0  0  0  0  0  0  0
   44.8605   28.5029   11.0726 O   0  0  0  0  0  0  0  0  0  0  0  0
   42.7523   24.7445   10.3552 O   0  0  0  0  0  0  0  0  0  0  0  0
   42.9257   25.9372   10.5435 C   0  0  0  0  0  0  0  0  0  0  0  0
   44.0518   26.5173   10.6983 N   0  0  0  0  0  0  0  0  0  0  0  0
   43.9325   27.7548   10.9045 C   0  0  0  0  0  0  0  0  0  0  0  0
   42.5136   28.2026   10.9707 C   0  0  1  0  0  0  0  0  0  0  0  0
   41.7880   26.8833   10.6943 C   0  0  2  0  0  0  0  0  0  0  0  0
  1  2  1  0  0  0  0
  2  3  1  0  0  0  0
  3 20  1  0  0  0  0
  4  5  1  0  0  0  0
  6  7  2  0  0  0  0
  6 12  1  0  0  0  0
  7  8  1  0  0  0  0
  8  9  2  0  0  0  0
  9 11  1  0  0  0  0
 10  5  1  1  0  0  0
 10 11  1  0  0  0  0
 10 16  1  0  0  0  0
 10 27  1  0  0  0  0
 11 12  2  0  0  0  0
 13 12  1  1  0  0  0
 13 15  1  0  0  0  0
 13 28  1  0  0  0  0
 14 15  2  0  0  0  0
 14 19  1  0  0  0  0
 15 16  1  0  0  0  0
 16 17  2  0  0  0  0
 17 18  1  0  0  0  0
 18 19  2  0  0  0  0
 20 21  1  0  0  0  0
 21 25  1  0  0  0  0
 22 26  2  0  0  0  0
 23 24  2  0  0  0  0
 24 25  1  0  0  0  0
 25 26  1  0  0  0  0
 27 26  1  1  0  0  0
 27 28  1  0  0  0  0
 28 24  1  1  0  0  0
M  END
>  <CHROM.1>
72.55720344,-65.09217803,-174.06581947,171.34821946,-59.09310789,42.67768054
26.90181006,12.21975827,0.77356987,0.01806546,-3.03269725

>  <Name>
ligand

>  <RI>
0

>  <Rbt.Current_Directory>
/home/itssahil/PROJECTS/Mol_Feturizer/New_Systems/rnas/1YLS

>  <Rbt.Executable>
rbdock ($Id: //depot/dev/client3/rdock/2013.1/src/exe/rbdock.cxx#4 $)

>  <Rbt.Library>
libRbt.so (2013.1, Build901 2013/11/27)

>  <Rbt.Parameter_File>
/export/apps/rDock/src/rDock_2013.1_src/data/scripts/dock_solv.prm

>  <Rbt.Receptor>
prm/blind_docking_60.prm

>  <SCORE>
-13.8415

>  <SCORE.INTER>
-10.1545

>  <SCORE.INTER.CONST>
1

>  <SCORE.INTER.POLAR>
0

>  <SCORE.INTER.ROT>
5

>  <SCORE.INTER.SOLV>
8.44244

>  <SCORE.INTER.VDW>
-16.5172

>  <SCORE.INTER.norm>
-0.362661

>  <SCORE.INTRA>
-3.68695

>  <SCORE.INTRA.DIHEDRAL>
-8.47634

>  <SCORE.INTRA.DIHEDRAL.0>
12.0148

>  <SCORE.INTRA.POLAR>
0

>  <SCORE.INTRA.POLAR.0>
0

>  <SCORE.INTRA.REPUL>
0

>  <SCORE.INTRA.REPUL.0>
0

>  <SCORE.INTRA.SOLV>
0.000821676

>  <SCORE.INTRA.SOLV.lig_0>
-10.5235

>  <SCORE.INTRA.VDW>
0.550808

>  <SCORE.INTRA.VDW.0>
-1.38455

>  <SCORE.INTRA.norm>
-0.131677

>  <SCORE.RESTR>
0

>  <SCORE.RESTR.CAVITY>
0

>  <SCORE.RESTR.norm>
0

>  <SCORE.SYSTEM>
0

>  <SCORE.SYSTEM.CONST>
0

>  <SCORE.SYSTEM.DIHEDRAL>
0

>  <SCORE.SYSTEM.SOLV>
0

>  <SCORE.SYSTEM.norm>
0

>  <SCORE.heavy>
28

>  <SCORE.norm>
-0.494338

>  <RMSD>
14.751

$$$$
ligand
 OpenBabel11021811413D
libRbt.so/2013.1/901 2013/11/27
 28 32  0  0  0  0  0  0  0  0999 V2000
   47.2914   22.8610   11.0608 C   0  0  0  0  0  0  0  0  0  0  0  0
   46.0637   22.0710   10.6527 C   0  0  0  0  0  0  0  0  0  0  0  0
   45.0818   21.9239   11.8055 C   0  0  0  0  0  0  0  0  0  0  0  0
   39.5616   26.9309   10.3368 O   0  0  0  0  0  0  0  0  0  0  0  0
   39.8330   26.2682   11.5730 C   0  0  0  0  0  0  0  0  0  0  0  0
   44.6925   27.0355   11.2426 C   0  0  0  0  0  0  0  0  0  0  0  0
   44.7485   26.3376   10.0430 C   0  0  0  0  0  0  0  0  0  0  0  0
   43.5843   25.7673    9.5217 C   0  0  0  0  0  0  0  0  0  0  0  0
   42.3681   25.8957   10.1934 C   0  0  0  0  0  0  0  0  0  0  0  0
   41.1201   26.8056   12.2120 C   0  0  1  0  0  0  0  0  0  0  0  0
   42.3333   26.6150   11.3651 C   0  0  0  0  0  0  0  0  0  0  0  0
   43.4793   27.1707   11.8751 C   0  0  0  0  0  0  0  0  0  0  0  0
   43.3232   27.8394   13.1527 C   0  0  1  0  0  0  0  0  0  0  0  0
   42.3430   30.1135   13.3955 C   0  0  0  0  0  0  0  0  0  0  0  0
   42.2388   28.7961   13.0184 C   0  0  0  0  0  0  0  0  0  0  0  0
   41.0716   28.2802   12.5226 C   0  0  0  0  0  0  0  0  0  0  0  0
   39.9558   29.0940   12.3929 C   0  0  0  0  0  0  0  0  0  0  0  0
   40.0522   30.4400   12.7524 C   0  0  0  0  0  0  0  0  0  0  0  0
   41.2458   30.9463   13.2500 C   0  0  0  0  0  0  0  0  0  0  0  0
   44.3975   23.2525   12.1003 C   0  0  0  0  0  0  0  0  0  0  0  0
   43.7858   23.2388   13.4962 C   0  0  0  0  0  0  0  0  0  0  0  0
   41.1783   23.8679   12.9646 O   0  0  0  0  0  0  0  0  0  0  0  0
   44.8742   25.6711   14.4387 O   0  0  0  0  0  0  0  0  0  0  0  0
   43.7047   25.5777   14.1044 C   0  0  0  0  0  0  0  0  0  0  0  0
   43.1268   24.5220   13.6802 N   0  0  0  0  0  0  0  0  0  0  0  0
   41.9190   24.7209   13.3803 C   0  0  0  0  0  0  0  0  0  0  0  0
   41.5018   26.1411   13.5442 C   0  0  1  0  0  0  0  0  0  0  0  0
   42.7964   26.7553   14.0828 C   0  0  2  0  0  0  0  0  0  0  0  0
  1  2  1  0  0  0  0
  2  3  1  0  0  0  0
  3 20  1  0  0  0  0
  4  5  1  0  0  0  0
  6  7  2  0  0  0  0
  6 12  1  0  0  0  0
  7  8  1  0  0  0  0
  8  9  2  0  0  0  0
  9 11  1  0  0  0  0
 10  5  1  6  0  0  0
 10 11  1  0  0  0  0
 10 16  1  0  0  0  0
 10 27  1  0  0  0  0
 11 12  2  0  0  0  0
 13 12  1  6  0  0  0
 13 15  1  0  0  0  0
 13 28  1  0  0  0  0
 14 15  2  0  0  0  0
 14 19  1  0  0  0  0
 15 16  1  0  0  0  0
 16 17  2  0  0  0  0
 17 18  1  0  0  0  0
 18 19  2  0  0  0  0
 20 21  1  0  0  0  0
 21 25  1  0  0  0  0
 22 26  2  0  0  0  0
 23 24  2  0  0  0  0
 24 25  1  0  0  0  0
 25 26  1  0  0  0  0
 27 26  1  6  0  0  0
 27 28  1  0  0  0  0
 28 24  1  6  0  0  0
M  END
>  <CHROM.1>
71.72505897,-60.54294492,-161.33373879,-178.50295634,-86.43484096,42.81092422
26.11150624,12.29887388,-0.87226639,-0.40051426,0.44753720

>  <Name>
ligand

>  <RI>
0

>  <Rbt.Current_Directory>
/home/itssahil/PROJECTS/Mol_Feturizer/New_Systems/rnas/1YLS

>  <Rbt.Executable>
rbdock ($Id: //depot/dev/client3/rdock/2013.1/src/exe/rbdock.cxx#4 $)

>  <Rbt.Library>
libRbt.so (2013.1, Build901 2013/11/27)

>  <Rbt.Parameter_File>
/export/apps/rDock/src/rDock_2013.1_src/data/scripts/dock_solv.prm

>  <Rbt.Receptor>
prm/blind_docking_80.prm

>  <SCORE>
-13.6891

>  <SCORE.INTER>
-9.68478

>  <SCORE.INTER.CONST>
1

>  <SCORE.INTER.POLAR>
0

>  <SCORE.INTER.ROT>
5

>  <SCORE.INTER.SOLV>
10.7218

>  <SCORE.INTER.VDW>
-16.9638

>  <SCORE.INTER.norm>
-0.345885

>  <SCORE.INTRA>
-4.02329

>  <SCORE.INTRA.DIHEDRAL>
-7.51015

>  <SCORE.INTRA.DIHEDRAL.0>
12.0148

>  <SCORE.INTRA.POLAR>
0

>  <SCORE.INTRA.POLAR.0>
0

>  <SCORE.INTRA.REPUL>
0

>  <SCORE.INTRA.REPUL.0>
0

>  <SCORE.INTRA.SOLV>
-0.0677246

>  <SCORE.INTRA.SOLV.lig_0>
-10.5235

>  <SCORE.INTRA.VDW>
-0.234359

>  <SCORE.INTRA.VDW.0>
-1.38455

>  <SCORE.INTRA.norm>
-0.143689

>  <SCORE.RESTR>
0.0189322

>  <SCORE.RESTR.CAVITY>
0.0189322

>  <SCORE.RESTR.norm>
0.00067615

>  <SCORE.SYSTEM>
0

>  <SCORE.SYSTEM.CONST>
0

>  <SCORE.SYSTEM.DIHEDRAL>
0

>  <SCORE.SYSTEM.SOLV>
0

>  <SCORE.SYSTEM.norm>
0

>  <SCORE.heavy>
28

>  <SCORE.norm>
-0.488898

>  <RMSD>
14.756

$$$$
ligand
 OpenBabel11021811413D
libRbt.so/2013.1/901 2013/11/27
 28 32  0  0  0  0  0  0  0  0999 V2000
   46.3539   22.7466   11.3546 C   0  0  0  0  0  0  0  0  0  0  0  0
   45.6791   22.1211   12.5593 C   0  0  0  0  0  0  0  0  0  0  0  0
   44.1807   21.9659   12.3462 C   0  0  0  0  0  0  0  0  0  0  0  0
   38.5972   27.3441   12.0423 O   0  0  0  0  0  0  0  0  0  0  0  0
   39.7328   26.8129   11.3571 C   0  0  0  0  0  0  0  0  0  0  0  0
   44.6513   27.1081   11.1755 C   0  0  0  0  0  0  0  0  0  0  0  0
   44.6897   26.2484   10.0852 C   0  0  0  0  0  0  0  0  0  0  0  0
   43.4993   25.7131    9.5865 C   0  0  0  0  0  0  0  0  0  0  0  0
   42.2747   26.0371   10.1717 C   0  0  0  0  0  0  0  0  0  0  0  0
   41.0379   27.3215   11.9829 C   0  0  1  0  0  0  0  0  0  0  0  0
   42.2605   26.9121   11.2326 C   0  0  0  0  0  0  0  0  0  0  0  0
   43.4320   27.4330   11.7211 C   0  0  0  0  0  0  0  0  0  0  0  0
   43.2883   28.2833   12.8874 C   0  0  1  0  0  0  0  0  0  0  0  0
   42.5123   30.6446   12.7714 C   0  0  0  0  0  0  0  0  0  0  0  0
   42.3023   29.3014   12.5703 C   0  0  0  0  0  0  0  0  0  0  0  0
   41.1129   28.8236   12.0894 C   0  0  0  0  0  0  0  0  0  0  0  0
   40.0824   29.7041   11.7943 C   0  0  0  0  0  0  0  0  0  0  0  0
   40.2880   31.0737   11.9739 C   0  0  0  0  0  0  0  0  0  0  0  0
   41.5027   31.5400   12.4592 C   0  0  0  0  0  0  0  0  0  0  0  0
   43.4854   23.3192   12.4192 C   0  0  0  0  0  0  0  0  0  0  0  0
   43.3127   23.7521   13.8702 C   0  0  0  0  0  0  0  0  0  0  0  0
   40.7967   24.5224   13.1261 O   0  0  0  0  0  0  0  0  0  0  0  0
   44.5823   26.1894   14.5312 O   0  0  0  0  0  0  0  0  0  0  0  0
   43.4232   26.1511   14.1532 C   0  0  0  0  0  0  0  0  0  0  0  0
   42.7676   25.1002   13.8459 N   0  0  0  0  0  0  0  0  0  0  0  0
   41.5959   25.3582   13.4606 C   0  0  0  0  0  0  0  0  0  0  0  0
   41.3047   26.8179   13.4102 C   0  0  1  0  0  0  0  0  0  0  0  0
   42.6284   27.3877   13.9268 C   0  0  2  0  0  0  0  0  0  0  0  0
  1  2  1  0  0  0  0
  2  3  1  0  0  0  0
  3 20  1  0  0  0  0
  4  5  1  0  0  0  0
  6  7  2  0  0  0  0
  6 12  1  0  0  0  0
  7  8  1  0  0  0  0
  8  9  2  0  0  0  0
  9 11  1  0  0  0  0
 10  5  1  6  0  0  0
 10 11  1  0  0  0  0
 10 16  1  0  0  0  0
 10 27  1  0  0  0  0
 11 12  2  0  0  0  0
 13 12  1  6  0  0  0
 13 15  1  0  0  0  0
 13 28  1  0  0  0  0
 14 15  2  0  0  0  0
 14 19  1  0  0  0  0
 15 16  1  0  0  0  0
 16 17  2  0  0  0  0
 17 18  1  0  0  0  0
 18 19  2  0  0  0  0
 20 21  1  0  0  0  0
 21 25  1  0  0  0  0
 22 26  2  0  0  0  0
 23 24  2  0  0  0  0
 24 25  1  0  0  0  0
 25 26  1  0  0  0  0
 27 26  1  6  0  0  0
 27 28  1  0  0  0  0
 28 24  1  6  0  0  0
M  END
>  <CHROM.1>
-72.92420892,-174.32126573,-78.55831835,174.47275488,-107.77239390,42.56061257
26.49631443,12.36256590,-1.02760844,0.16144670,-0.12832390

>  <Name>
ligand

>  <RI>
0

>  <Rbt.Current_Directory>
/home/itssahil/PROJECTS/Mol_Feturizer/New_Systems/rnas/1YLS

>  <Rbt.Executable>
rbdock ($Id: //depot/dev/client3/rdock/2013.1/src/exe/rbdock.cxx#4 $)

>  <Rbt.Library>
libRbt.so (2013.1, Build901 2013/11/27)

>  <Rbt.Parameter_File>
/export/apps/rDock/src/rDock_2013.1_src/data/scripts/dock_solv.prm

>  <Rbt.Receptor>
prm/blind_docking_100.prm

>  <SCORE>
-11.6069

>  <SCORE.INTER>
-8.65089

>  <SCORE.INTER.CONST>
1

>  <SCORE.INTER.POLAR>
0

>  <SCORE.INTER.ROT>
5

>  <SCORE.INTER.SOLV>
10.642

>  <SCORE.INTER.VDW>
-16.2479

>  <SCORE.INTER.norm>
-0.30896

>  <SCORE.INTRA>
-2.95596

>  <SCORE.INTRA.DIHEDRAL>
-7.25445

>  <SCORE.INTRA.DIHEDRAL.0>
12.0148

>  <SCORE.INTRA.POLAR>
0

>  <SCORE.INTRA.POLAR.0>
0

>  <SCORE.INTRA.REPUL>
0

>  <SCORE.INTRA.REPUL.0>
0

>  <SCORE.INTRA.SOLV>
0.118353

>  <SCORE.INTRA.SOLV.lig_0>
-10.5235

>  <SCORE.INTRA.VDW>
0.612086

>  <SCORE.INTRA.VDW.0>
-1.38455

>  <SCORE.INTRA.norm>
-0.10557

>  <SCORE.RESTR>
0

>  <SCORE.RESTR.CAVITY>
0

>  <SCORE.RESTR.norm>
0

>  <SCORE.SYSTEM>
0

>  <SCORE.SYSTEM.CONST>
0

>  <SCORE.SYSTEM.DIHEDRAL>
0

>  <SCORE.SYSTEM.SOLV>
0

>  <SCORE.SYSTEM.norm>
0

>  <SCORE.heavy>
28

>  <SCORE.norm>
-0.414531

>  <RMSD>
14.775

$$$$
ligand
 OpenBabel11021811413D
libRbt.so/2013.1/901 2013/11/27
 28 32  0  0  0  0  0  0  0  0999 V2000
   47.9935   23.9567   13.5925 C   0  0  0  0  0  0  0  0  0  0  0  0
   46.5786   24.4689   13.4089 C   0  0  0  0  0  0  0  0  0  0  0  0
   46.3872   25.1124   12.0436 C   0  0  0  0  0  0  0  0  0  0  0  0
   42.0552   31.4984   13.4271 O   0  0  0  0  0  0  0  0  0  0  0  0
   42.3515   30.8781   12.1747 C   0  0  0  0  0  0  0  0  0  0  0  0
   41.8703   26.3166   13.9838 C   0  0  0  0  0  0  0  0  0  0  0  0
   42.8839   26.5460   14.9053 C   0  0  0  0  0  0  0  0  0  0  0  0
   43.5413   27.7789   14.9152 C   0  0  0  0  0  0  0  0  0  0  0  0
   43.1862   28.7805   14.0108 C   0  0  0  0  0  0  0  0  0  0  0  0
   41.6960   29.4943   12.0796 C   0  0  1  0  0  0  0  0  0  0  0  0
   42.1608   28.5389   13.1268 C   0  0  0  0  0  0  0  0  0  0  0  0
   41.5200   27.3258   13.1184 C   0  0  0  0  0  0  0  0  0  0  0  0
   40.5087   27.1711   12.0902 C   0  0  1  0  0  0  0  0  0  0  0  0
   38.2295   28.1559   12.2543 C   0  0  0  0  0  0  0  0  0  0  0  0
   39.5956   28.2953   12.1992 C   0  0  0  0  0  0  0  0  0  0  0  0
   40.1935   29.5269   12.2002 C   0  0  0  0  0  0  0  0  0  0  0  0
   39.4149   30.6735   12.2560 C   0  0  0  0  0  0  0  0  0  0  0  0
   38.0262   30.5476   12.3333 C   0  0  0  0  0  0  0  0  0  0  0  0
   37.4379   29.2896   12.3349 C   0  0  0  0  0  0  0  0  0  0  0  0
   44.9903   25.7074   11.9220 C   0  0  0  0  0  0  0  0  0  0  0  0
   44.8308   26.4249   10.5869 C   0  0  0  0  0  0  0  0  0  0  0  0
   44.2954   29.1063   10.5655 O   0  0  0  0  0  0  0  0  0  0  0  0
   42.2674   25.2393   10.6988 O   0  0  0  0  0  0  0  0  0  0  0  0
   42.4143   26.4500   10.6706 C   0  0  0  0  0  0  0  0  0  0  0  0
   43.5278   27.0703   10.6081 N   0  0  0  0  0  0  0  0  0  0  0  0
   43.3838   28.3221   10.6213 C   0  0  0  0  0  0  0  0  0  0  0  0
   41.9632   28.7461   10.7640 C   0  0  1  0  0  0  0  0  0  0  0  0
   41.2632   27.3848   10.7852 C   0  0  2  0  0  0  0  0  0  0  0  0
  1  2  1  0  0  0  0
  2  3  1  0  0  0  0
  3 20  1  0  0  0  0
  4  5  1  0  0  0  0
  6  7  2  0  0  0  0
  6 12  1  0  0  0  0
  7  8  1  0  0  0  0
  8  9  2  0  0  0  0
  9 11  1  0  0  0  0
 10  5  1  1  0  0  0
 10 11  1  0  0  0  0
 10 16  1  0  0  0  0
 10 27  1  0  0  0  0
 11 12  2  0  0  0  0
 13 12  1  1  0  0  0
 13 15  1  0  0  0  0
 13 28  1  0  0  0  0
 14 15  2  0  0  0  0
 14 19  1  0  0  0  0
 15 16  1  0  0  0  0
 16 17  2  0  0  0  0
 17 18  1  0  0  0  0
 18 19  2  0  0  0  0
 20 21  1  0  0  0  0
 21 25  1  0  0  0  0
 22 26  2  0  0  0  0
 23 24  2  0  0  0  0
 24 25  1  0  0  0  0
 25 26  1  0  0  0  0
 27 26  1  1  0  0  0
 27 28  1  0  0  0  0
 28 24  1  1  0  0  0
M  END
>  <CHROM.1>
-175.91100478,-60.90513309,176.54916855,-174.52241420,-64.07007647,42.44418600
27.76871150,12.23723799,-0.51270242,-0.35047502,0.49987010

>  <Name>
ligand

>  <RI>
0

>  <Rbt.Current_Directory>
/home/itssahil/PROJECTS/Mol_Feturizer/New_Systems/rnas/1YLS

>  <Rbt.Executable>
rbdock ($Id: //depot/dev/client3/rdock/2013.1/src/exe/rbdock.cxx#4 $)

>  <Rbt.Library>
libRbt.so (2013.1, Build901 2013/11/27)

>  <Rbt.Parameter_File>
/export/apps/rDock/src/rDock_2013.1_src/data/scripts/dock_solv.prm

>  <Rbt.Receptor>
prm/blind_docking_60.prm

>  <SCORE>
-15.0614

>  <SCORE.INTER>
-9.98805

>  <SCORE.INTER.CONST>
1

>  <SCORE.INTER.POLAR>
0

>  <SCORE.INTER.ROT>
5

>  <SCORE.INTER.SOLV>
7.10972

>  <SCORE.INTER.VDW>
-15.9619

>  <SCORE.INTER.norm>
-0.356716

>  <SCORE.INTRA>
-5.13504

>  <SCORE.INTRA.DIHEDRAL>
-9.32699

>  <SCORE.INTRA.DIHEDRAL.0>
12.0148

>  <SCORE.INTRA.POLAR>
0

>  <SCORE.INTRA.POLAR.0>
0

>  <SCORE.INTRA.REPUL>
0

>  <SCORE.INTRA.REPUL.0>
0

>  <SCORE.INTRA.SOLV>
-0.0313499

>  <SCORE.INTRA.SOLV.lig_0>
-10.5235

>  <SCORE.INTRA.VDW>
-0.455865

>  <SCORE.INTRA.VDW.0>
-1.38455

>  <SCORE.INTRA.norm>
-0.183394

>  <SCORE.RESTR>
0.0616813

>  <SCORE.RESTR.CAVITY>
0.0616813

>  <SCORE.RESTR.norm>
0.0022029

>  <SCORE.SYSTEM>
0

>  <SCORE.SYSTEM.CONST>
0

>  <SCORE.SYSTEM.DIHEDRAL>
0

>  <SCORE.SYSTEM.SOLV>
0

>  <SCORE.SYSTEM.norm>
0

>  <SCORE.heavy>
28

>  <SCORE.norm>
-0.537907

>  <RMSD>
14.776

$$$$
ligand
 OpenBabel11021811413D
libRbt.so/2013.1/901 2013/11/27
 28 32  0  0  0  0  0  0  0  0999 V2000
   46.5386   20.8736   10.2165 C   0  0  0  0  0  0  0  0  0  0  0  0
   46.0230   22.2389   10.6265 C   0  0  0  0  0  0  0  0  0  0  0  0
   45.3387   22.1962   11.9847 C   0  0  0  0  0  0  0  0  0  0  0  0
   39.5353   26.7945   10.3547 O   0  0  0  0  0  0  0  0  0  0  0  0
   39.8399   26.1939   11.6148 C   0  0  0  0  0  0  0  0  0  0  0  0
   44.6448   27.2439   11.2636 C   0  0  0  0  0  0  0  0  0  0  0  0
   44.7464   26.5118   10.0877 C   0  0  0  0  0  0  0  0  0  0  0  0
   43.6206   25.8549    9.5843 C   0  0  0  0  0  0  0  0  0  0  0  0
   42.3969   25.9311   10.2504 C   0  0  0  0  0  0  0  0  0  0  0  0
   41.0901   26.8292   12.2368 C   0  0  1  0  0  0  0  0  0  0  0  0
   42.3151   26.6850   11.3977 C   0  0  0  0  0  0  0  0  0  0  0  0
   43.4238   27.3259   11.8902 C   0  0  0  0  0  0  0  0  0  0  0  0
   43.2237   28.0254   13.1450 C   0  0  1  0  0  0  0  0  0  0  0  0
   42.1064   30.2424   13.3118 C   0  0  0  0  0  0  0  0  0  0  0  0
   42.0835   28.9095   12.9783 C   0  0  0  0  0  0  0  0  0  0  0  0
   40.9512   28.3076   12.4987 C   0  0  0  0  0  0  0  0  0  0  0  0
   39.7885   29.0473   12.3412 C   0  0  0  0  0  0  0  0  0  0  0  0
   39.8019   30.4078   12.6563 C   0  0  0  0  0  0  0  0  0  0  0  0
   40.9611   31.0017   13.1380 C   0  0  0  0  0  0  0  0  0  0  0  0
   44.6732   23.5313   12.2924 C   0  0  0  0  0  0  0  0  0  0  0  0
   43.9637   23.4751   13.6401 C   0  0  0  0  0  0  0  0  0  0  0  0
   41.3244   23.9268   13.0858 O   0  0  0  0  0  0  0  0  0  0  0  0
   44.8997   25.9987   14.5030 O   0  0  0  0  0  0  0  0  0  0  0  0
   43.7391   25.8235   14.1710 C   0  0  0  0  0  0  0  0  0  0  0  0
   43.2275   24.7213   13.7812 N   0  0  0  0  0  0  0  0  0  0  0  0
   42.0108   24.8364   13.4739 C   0  0  0  0  0  0  0  0  0  0  0  0
   41.5076   26.2333   13.5905 C   0  0  1  0  0  0  0  0  0  0  0  0
   42.7610   26.9423   14.1098 C   0  0  2  0  0  0  0  0  0  0  0  0
  1  2  1  0  0  0  0
  2  3  1  0  0  0  0
  3 20  1  0  0  0  0
  4  5  1  0  0  0  0
  6  7  2  0  0  0  0
  6 12  1  0  0  0  0
  7  8  1  0  0  0  0
  8  9  2  0  0  0  0
  9 11  1  0  0  0  0
 10  5  1  6  0  0  0
 10 11  1  0  0  0  0
 10 16  1  0  0  0  0
 10 27  1  0  0  0  0
 11 12  2  0  0  0  0
 13 12  1  6  0  0  0
 13 15  1  0  0  0  0
 13 28  1  0  0  0  0
 14 15  2  0  0  0  0
 14 19  1  0  0  0  0
 15 16  1  0  0  0  0
 16 17  2  0  0  0  0
 17 18  1  0  0  0  0
 18 19  2  0  0  0  0
 20 21  1  0  0  0  0
 21 25  1  0  0  0  0
 22 26  2  0  0  0  0
 23 24  2  0  0  0  0
 24 25  1  0  0  0  0
 25 26  1  0  0  0  0
 27 26  1  6  0  0  0
 27 28  1  0  0  0  0
 28 24  1  6  0  0  0
M  END
>  <CHROM.1>
-172.64761335,-60.32103740,178.79349606,-173.30646135,-81.78573721,42.77296325
26.14339843,12.29996716,0.67611179,0.75320970,-2.27913543

>  <Name>
ligand

>  <RI>
0

>  <Rbt.Current_Directory>
/home/itssahil/PROJECTS/Mol_Feturizer/New_Systems/rnas/1YLS

>  <Rbt.Executable>
rbdock ($Id: //depot/dev/client3/rdock/2013.1/src/exe/rbdock.cxx#4 $)

>  <Rbt.Library>
libRbt.so (2013.1, Build901 2013/11/27)

>  <Rbt.Parameter_File>
/export/apps/rDock/src/rDock_2013.1_src/data/scripts/dock_solv.prm

>  <Rbt.Receptor>
prm/blind_docking_60.prm

>  <SCORE>
-17.1589

>  <SCORE.INTER>
-11.6846

>  <SCORE.INTER.CONST>
1

>  <SCORE.INTER.POLAR>
0

>  <SCORE.INTER.ROT>
5

>  <SCORE.INTER.SOLV>
10.478

>  <SCORE.INTER.VDW>
-18.2157

>  <SCORE.INTER.norm>
-0.417306

>  <SCORE.INTRA>
-5.47433

>  <SCORE.INTRA.DIHEDRAL>
-9.03853

>  <SCORE.INTRA.DIHEDRAL.0>
12.0148

>  <SCORE.INTRA.POLAR>
0

>  <SCORE.INTRA.POLAR.0>
0

>  <SCORE.INTRA.REPUL>
0

>  <SCORE.INTRA.REPUL.0>
0

>  <SCORE.INTRA.SOLV>
-0.0534318

>  <SCORE.INTRA.SOLV.lig_0>
-10.5235

>  <SCORE.INTRA.VDW>
-0.928345

>  <SCORE.INTRA.VDW.0>
-1.38455

>  <SCORE.INTRA.norm>
-0.195512

>  <SCORE.RESTR>
0

>  <SCORE.RESTR.CAVITY>
0

>  <SCORE.RESTR.norm>
0

>  <SCORE.SYSTEM>
0

>  <SCORE.SYSTEM.CONST>
0

>  <SCORE.SYSTEM.DIHEDRAL>
0

>  <SCORE.SYSTEM.SOLV>
0

>  <SCORE.SYSTEM.norm>
0

>  <SCORE.heavy>
28

>  <SCORE.norm>
-0.612818

>  <RMSD>
14.784

$$$$
ligand
 OpenBabel11021811413D
libRbt.so/2013.1/901 2013/11/27
 28 32  0  0  0  0  0  0  0  0999 V2000
   45.7356   29.8634    8.4795 C   0  0  0  0  0  0  0  0  0  0  0  0
   44.9572   28.6383    8.9165 C   0  0  0  0  0  0  0  0  0  0  0  0
   45.8715   27.4439    9.1449 C   0  0  0  0  0  0  0  0  0  0  0  0
   43.0182   29.7704   14.2772 O   0  0  0  0  0  0  0  0  0  0  0  0
   41.6990   30.0782   13.8231 C   0  0  0  0  0  0  0  0  0  0  0  0
   40.8654   25.2604   13.1855 C   0  0  0  0  0  0  0  0  0  0  0  0
   41.5602   24.9586   14.3498 C   0  0  0  0  0  0  0  0  0  0  0  0
   42.1452   25.9885   15.0908 C   0  0  0  0  0  0  0  0  0  0  0  0
   42.0346   27.3154   14.6732 C   0  0  0  0  0  0  0  0  0  0  0  0
   41.1455   28.9505   12.9424 C   0  0  1  0  0  0  0  0  0  0  0  0
   41.3181   27.5912   13.5322 C   0  0  0  0  0  0  0  0  0  0  0  0
   40.7478   26.5765   12.8059 C   0  0  0  0  0  0  0  0  0  0  0  0
   40.0837   26.9916   11.5850 C   0  0  1  0  0  0  0  0  0  0  0  0
   37.8235   28.0314   11.5429 C   0  0  0  0  0  0  0  0  0  0  0  0
   39.1415   28.0409   11.9321 C   0  0  0  0  0  0  0  0  0  0  0  0
   39.6722   29.0797   12.6488 C   0  0  0  0  0  0  0  0  0  0  0  0
   38.8734   30.1587   12.9975 C   0  0  0  0  0  0  0  0  0  0  0  0
   37.5269   30.1538   12.6271 C   0  0  0  0  0  0  0  0  0  0  0  0
   37.0054   29.0893   11.9035 C   0  0  0  0  0  0  0  0  0  0  0  0
   45.0864   26.2676    9.7107 C   0  0  0  0  0  0  0  0  0  0  0  0
   44.6783   26.5435   11.1530 C   0  0  0  0  0  0  0  0  0  0  0  0
   44.0835   29.0024   12.1908 O   0  0  0  0  0  0  0  0  0  0  0  0
   42.2333   25.6965   10.0157 O   0  0  0  0  0  0  0  0  0  0  0  0
   42.3418   26.7752   10.5747 C   0  0  0  0  0  0  0  0  0  0  0  0
   43.4044   27.2433   11.1041 N   0  0  0  0  0  0  0  0  0  0  0  0
   43.2214   28.3704   11.6373 C   0  0  0  0  0  0  0  0  0  0  0  0
   41.8072   28.8311   11.5605 C   0  0  1  0  0  0  0  0  0  0  0  0
   41.1766   27.6772   10.7767 C   0  0  2  0  0  0  0  0  0  0  0  0
  1  2  1  0  0  0  0
  2  3  1  0  0  0  0
  3 20  1  0  0  0  0
  4  5  1  0  0  0  0
  6  7  2  0  0  0  0
  6 12  1  0  0  0  0
  7  8  1  0  0  0  0
  8  9  2  0  0  0  0
  9 11  1  0  0  0  0
 10  5  1  1  0  0  0
 10 11  1  0  0  0  0
 10 16  1  0  0  0  0
 10 27  1  0  0  0  0
 11 12  2  0  0  0  0
 13 12  1  1  0  0  0
 13 15  1  0  0  0  0
 13 28  1  0  0  0  0
 14 15  2  0  0  0  0
 14 19  1  0  0  0  0
 15 16  1  0  0  0  0
 16 17  2  0  0  0  0
 17 18  1  0  0  0  0
 18 19  2  0  0  0  0
 20 21  1  0  0  0  0
 21 25  1  0  0  0  0
 22 26  2  0  0  0  0
 23 24  2  0  0  0  0
 24 25  1  0  0  0  0
 25 26  1  0  0  0  0
 27 26  1  1  0  0  0
 27 28  1  0  0  0  0
 28 24  1  1  0  0  0
M  END
>  <CHROM.1>
174.54185627,48.03564977,-71.09339391,87.82728227,59.49188694,41.91333957
27.89092064,11.89886802,0.21336118,0.45741308,-0.69584437

>  <Name>
ligand

>  <RI>
0

>  <Rbt.Current_Directory>
/home/itssahil/PROJECTS/Mol_Feturizer/New_Systems/rnas/1YLS

>  <Rbt.Executable>
rbdock ($Id: //depot/dev/client3/rdock/2013.1/src/exe/rbdock.cxx#4 $)

>  <Rbt.Library>
libRbt.so (2013.1, Build901 2013/11/27)

>  <Rbt.Parameter_File>
/export/apps/rDock/src/rDock_2013.1_src/data/scripts/dock_solv.prm

>  <Rbt.Receptor>
prm/blind_docking_80.prm

>  <SCORE>
-14.6796

>  <SCORE.INTER>
-14.0348

>  <SCORE.INTER.CONST>
1

>  <SCORE.INTER.POLAR>
0

>  <SCORE.INTER.ROT>
5

>  <SCORE.INTER.SOLV>
10.7889

>  <SCORE.INTER.VDW>
-19.8861

>  <SCORE.INTER.norm>
-0.501241

>  <SCORE.INTRA>
-0.920023

>  <SCORE.INTRA.DIHEDRAL>
-6.08947

>  <SCORE.INTRA.DIHEDRAL.0>
12.0148

>  <SCORE.INTRA.POLAR>
0

>  <SCORE.INTRA.POLAR.0>
0

>  <SCORE.INTRA.REPUL>
0

>  <SCORE.INTRA.REPUL.0>
0

>  <SCORE.INTRA.SOLV>
1.22668

>  <SCORE.INTRA.SOLV.lig_0>
-10.5235

>  <SCORE.INTRA.VDW>
1.51137

>  <SCORE.INTRA.VDW.0>
-1.38455

>  <SCORE.INTRA.norm>
-0.032858

>  <SCORE.RESTR>
0.275166

>  <SCORE.RESTR.CAVITY>
0.275166

>  <SCORE.RESTR.norm>
0.00982736

>  <SCORE.SYSTEM>
0

>  <SCORE.SYSTEM.CONST>
0

>  <SCORE.SYSTEM.DIHEDRAL>
0

>  <SCORE.SYSTEM.SOLV>
0

>  <SCORE.SYSTEM.norm>
0

>  <SCORE.heavy>
28

>  <SCORE.norm>
-0.524272

>  <RMSD>
14.789

$$$$
ligand
 OpenBabel11021811413D
libRbt.so/2013.1/901 2013/11/27
 28 32  0  0  0  0  0  0  0  0999 V2000
   46.8412   21.1987   11.7187 C   0  0  0  0  0  0  0  0  0  0  0  0
   45.8992   22.3220   12.1042 C   0  0  0  0  0  0  0  0  0  0  0  0
   46.1929   23.5942   11.3231 C   0  0  0  0  0  0  0  0  0  0  0  0
   42.3251   30.4179   14.1691 O   0  0  0  0  0  0  0  0  0  0  0  0
   42.8032   30.0090   12.8864 C   0  0  0  0  0  0  0  0  0  0  0  0
   41.9496   25.2100   13.6301 C   0  0  0  0  0  0  0  0  0  0  0  0
   42.8550   25.1845   14.6832 C   0  0  0  0  0  0  0  0  0  0  0  0
   43.5501   26.3477   15.0238 C   0  0  0  0  0  0  0  0  0  0  0  0
   43.3401   27.5330   14.3181 C   0  0  0  0  0  0  0  0  0  0  0  0
   42.1146   28.7157   12.4315 C   0  0  1  0  0  0  0  0  0  0  0  0
   42.4182   27.5397   13.2975 C   0  0  0  0  0  0  0  0  0  0  0  0
   41.7401   26.3944   12.9644 C   0  0  0  0  0  0  0  0  0  0  0  0
   40.8523   26.5147   11.8236 C   0  0  1  0  0  0  0  0  0  0  0  0
   38.6063   27.5787   11.9447 C   0  0  0  0  0  0  0  0  0  0  0  0
   39.9734   27.6448   12.0680 C   0  0  0  0  0  0  0  0  0  0  0  0
   40.6105   28.8122   12.3933 C   0  0  0  0  0  0  0  0  0  0  0  0
   39.8721   29.9671   12.6053 C   0  0  0  0  0  0  0  0  0  0  0  0
   38.4804   29.9109   12.5039 C   0  0  0  0  0  0  0  0  0  0  0  0
   37.8516   28.7167   12.1767 C   0  0  0  0  0  0  0  0  0  0  0  0
   45.1643   24.6706   11.6445 C   0  0  0  0  0  0  0  0  0  0  0  0
   45.2923   25.8374   10.6723 C   0  0  0  0  0  0  0  0  0  0  0  0
   44.8591   28.4931   11.1592 O   0  0  0  0  0  0  0  0  0  0  0  0
   42.6930   24.8089   10.2543 O   0  0  0  0  0  0  0  0  0  0  0  0
   42.8853   25.9885   10.4981 C   0  0  0  0  0  0  0  0  0  0  0  0
   44.0197   26.5411   10.6884 N   0  0  0  0  0  0  0  0  0  0  0  0
   43.9199   27.7698   10.9497 C   0  0  0  0  0  0  0  0  0  0  0  0
   42.5084   28.2392   11.0244 C   0  0  1  0  0  0  0  0  0  0  0  0
   41.7627   26.9467   10.6824 C   0  0  2  0  0  0  0  0  0  0  0  0
  1  2  1  0  0  0  0
  2  3  1  0  0  0  0
  3 20  1  0  0  0  0
  4  5  1  0  0  0  0
  6  7  2  0  0  0  0
  6 12  1  0  0  0  0
  7  8  1  0  0  0  0
  8  9  2  0  0  0  0
  9 11  1  0  0  0  0
 10  5  1  1  0  0  0
 10 11  1  0  0  0  0
 10 16  1  0  0  0  0
 10 27  1  0  0  0  0
 11 12  2  0  0  0  0
 13 12  1  1  0  0  0
 13 15  1  0  0  0  0
 13 28  1  0  0  0  0
 14 15  2  0  0  0  0
 14 19  1  0  0  0  0
 15 16  1  0  0  0  0
 16 17  2  0  0  0  0
 17 18  1  0  0  0  0
 18 19  2  0  0  0  0
 20 21  1  0  0  0  0
 21 25  1  0  0  0  0
 22 26  2  0  0  0  0
 23 24  2  0  0  0  0
 24 25  1  0  0  0  0
 25 26  1  0  0  0  0
 27 26  1  1  0  0  0
 27 28  1  0  0  0  0
 28 24  1  1  0  0  0
M  END
>  <CHROM.1>
175.38846355,-64.31447846,-168.97537247,158.43119471,-52.92392687,42.67942279
26.83263190,12.15650737,0.80201089,0.07741140,-2.89323577

>  <Name>
ligand

>  <RI>
0

>  <Rbt.Current_Directory>
/home/itssahil/PROJECTS/Mol_Feturizer/New_Systems/rnas/1YLS

>  <Rbt.Executable>
rbdock ($Id: //depot/dev/client3/rdock/2013.1/src/exe/rbdock.cxx#4 $)

>  <Rbt.Library>
libRbt.so (2013.1, Build901 2013/11/27)

>  <Rbt.Parameter_File>
/export/apps/rDock/src/rDock_2013.1_src/data/scripts/dock_solv.prm

>  <Rbt.Receptor>
prm/blind_docking_80.prm

>  <SCORE>
-13.7611

>  <SCORE.INTER>
-10.3502

>  <SCORE.INTER.CONST>
1

>  <SCORE.INTER.POLAR>
0

>  <SCORE.INTER.ROT>
5

>  <SCORE.INTER.SOLV>
8.41334

>  <SCORE.INTER.VDW>
-16.6379

>  <SCORE.INTER.norm>
-0.369652

>  <SCORE.INTRA>
-3.4108

>  <SCORE.INTRA.DIHEDRAL>
-7.45589

>  <SCORE.INTRA.DIHEDRAL.0>
12.0148

>  <SCORE.INTRA.POLAR>
0

>  <SCORE.INTRA.POLAR.0>
0

>  <SCORE.INTRA.REPUL>
0

>  <SCORE.INTRA.REPUL.0>
0

>  <SCORE.INTRA.SOLV>
0.0393483

>  <SCORE.INTRA.SOLV.lig_0>
-10.5235

>  <SCORE.INTRA.VDW>
0.297468

>  <SCORE.INTRA.VDW.0>
-1.38455

>  <SCORE.INTRA.norm>
-0.121814

>  <SCORE.RESTR>
0

>  <SCORE.RESTR.CAVITY>
0

>  <SCORE.RESTR.norm>
0

>  <SCORE.SYSTEM>
0

>  <SCORE.SYSTEM.CONST>
0

>  <SCORE.SYSTEM.DIHEDRAL>
0

>  <SCORE.SYSTEM.SOLV>
0

>  <SCORE.SYSTEM.norm>
0

>  <SCORE.heavy>
28

>  <SCORE.norm>
-0.491466

>  <RMSD>
14.801

$$$$
ligand
 OpenBabel11021811413D
libRbt.so/2013.1/901 2013/11/27
 28 32  0  0  0  0  0  0  0  0999 V2000
   44.7306   21.8501   12.8678 C   0  0  0  0  0  0  0  0  0  0  0  0
   44.8792   23.3458   13.0648 C   0  0  0  0  0  0  0  0  0  0  0  0
   44.7387   24.1018   11.7520 C   0  0  0  0  0  0  0  0  0  0  0  0
   42.0489   31.4500   13.4237 O   0  0  0  0  0  0  0  0  0  0  0  0
   42.3601   30.8260   12.1767 C   0  0  0  0  0  0  0  0  0  0  0  0
   41.8020   26.2734   13.9863 C   0  0  0  0  0  0  0  0  0  0  0  0
   42.7996   26.4958   14.9269 C   0  0  0  0  0  0  0  0  0  0  0  0
   43.4679   27.7226   14.9468 C   0  0  0  0  0  0  0  0  0  0  0  0
   43.1397   28.7252   14.0335 C   0  0  0  0  0  0  0  0  0  0  0  0
   41.6939   29.4480   12.0720 C   0  0  1  0  0  0  0  0  0  0  0  0
   42.1295   28.4909   13.1302 C   0  0  0  0  0  0  0  0  0  0  0  0
   41.4779   27.2837   13.1121 C   0  0  0  0  0  0  0  0  0  0  0  0
   40.4853   27.1357   12.0647 C   0  0  1  0  0  0  0  0  0  0  0  0
   38.2126   28.1417   12.1822 C   0  0  0  0  0  0  0  0  0  0  0  0
   39.5806   28.2684   12.1534 C   0  0  0  0  0  0  0  0  0  0  0  0
   40.1897   29.4945   12.1633 C   0  0  0  0  0  0  0  0  0  0  0  0
   39.4207   30.6484   12.2014 C   0  0  0  0  0  0  0  0  0  0  0  0
   38.0297   30.5353   12.2520 C   0  0  0  0  0  0  0  0  0  0  0  0
   37.4299   29.2828   12.2449 C   0  0  0  0  0  0  0  0  0  0  0  0
   44.9382   25.5962   11.9695 C   0  0  0  0  0  0  0  0  0  0  0  0
   44.8288   26.3465   10.6474 C   0  0  0  0  0  0  0  0  0  0  0  0
   44.3186   29.0326   10.6096 O   0  0  0  0  0  0  0  0  0  0  0  0
   42.2530   25.1847   10.7121 O   0  0  0  0  0  0  0  0  0  0  0  0
   42.4115   26.3938   10.6841 C   0  0  0  0  0  0  0  0  0  0  0  0
   43.5316   27.0038   10.6418 N   0  0  0  0  0  0  0  0  0  0  0  0
   43.3989   28.2570   10.6494 C   0  0  0  0  0  0  0  0  0  0  0  0
   41.9798   28.6942   10.7636 C   0  0  1  0  0  0  0  0  0  0  0  0
   41.2670   27.3394   10.7742 C   0  0  2  0  0  0  0  0  0  0  0  0
  1  2  1  0  0  0  0
  2  3  1  0  0  0  0
  3 20  1  0  0  0  0
  4  5  1  0  0  0  0
  6  7  2  0  0  0  0
  6 12  1  0  0  0  0
  7  8  1  0  0  0  0
  8  9  2  0  0  0  0
  9 11  1  0  0  0  0
 10  5  1  1  0  0  0
 10 11  1  0  0  0  0
 10 16  1  0  0  0  0
 10 27  1  0  0  0  0
 11 12  2  0  0  0  0
 13 12  1  1  0  0  0
 13 15  1  0  0  0  0
 13 28  1  0  0  0  0
 14 15  2  0  0  0  0
 14 19  1  0  0  0  0
 15 16  1  0  0  0  0
 16 17  2  0  0  0  0
 17 18  1  0  0  0  0
 18 19  2  0  0  0  0
 20 21  1  0  0  0  0
 21 25  1  0  0  0  0
 22 26  2  0  0  0  0
 23 24  2  0  0  0  0
 24 25  1  0  0  0  0
 25 26  1  0  0  0  0
 27 26  1  1  0  0  0
 27 28  1  0  0  0  0
 28 24  1  1  0  0  0
M  END
>  <CHROM.1>
-178.10349275,-60.70758243,178.68800679,104.50912610,-62.39670456,42.16840479
27.55733194,12.18082565,0.86775819,-0.12420022,3.06402358

>  <Name>
ligand

>  <RI>
0

>  <Rbt.Current_Directory>
/home/itssahil/PROJECTS/Mol_Feturizer/New_Systems/rnas/1YLS

>  <Rbt.Executable>
rbdock ($Id: //depot/dev/client3/rdock/2013.1/src/exe/rbdock.cxx#4 $)

>  <Rbt.Library>
libRbt.so (2013.1, Build901 2013/11/27)

>  <Rbt.Parameter_File>
/export/apps/rDock/src/rDock_2013.1_src/data/scripts/dock_solv.prm

>  <Rbt.Receptor>
prm/blind_docking_60.prm

>  <SCORE>
-14.0373

>  <SCORE.INTER>
-11.0885

>  <SCORE.INTER.CONST>
1

>  <SCORE.INTER.POLAR>
0

>  <SCORE.INTER.ROT>
5

>  <SCORE.INTER.SOLV>
7.78599

>  <SCORE.INTER.VDW>
-16.921

>  <SCORE.INTER.norm>
-0.396019

>  <SCORE.INTRA>
-2.94882

>  <SCORE.INTRA.DIHEDRAL>
-4.89262

>  <SCORE.INTRA.DIHEDRAL.0>
12.0148

>  <SCORE.INTRA.POLAR>
0

>  <SCORE.INTRA.POLAR.0>
0

>  <SCORE.INTRA.REPUL>
0

>  <SCORE.INTRA.REPUL.0>
0

>  <SCORE.INTRA.SOLV>
0.256406

>  <SCORE.INTRA.SOLV.lig_0>
-10.5235

>  <SCORE.INTRA.VDW>
-0.630715

>  <SCORE.INTRA.VDW.0>
-1.38455

>  <SCORE.INTRA.norm>
-0.105315

>  <SCORE.RESTR>
0

>  <SCORE.RESTR.CAVITY>
0

>  <SCORE.RESTR.norm>
0

>  <SCORE.SYSTEM>
0

>  <SCORE.SYSTEM.CONST>
0

>  <SCORE.SYSTEM.DIHEDRAL>
0

>  <SCORE.SYSTEM.SOLV>
0

>  <SCORE.SYSTEM.norm>
0

>  <SCORE.heavy>
28

>  <SCORE.norm>
-0.501334

>  <RMSD>
14.806

$$$$
ligand
 OpenBabel11021811413D
libRbt.so/2013.1/901 2013/11/27
 28 32  0  0  0  0  0  0  0  0999 V2000
   48.9954   23.0028   12.5907 C   0  0  0  0  0  0  0  0  0  0  0  0
   47.6635   23.6915   12.8136 C   0  0  0  0  0  0  0  0  0  0  0  0
   46.8321   23.7315   11.5400 C   0  0  0  0  0  0  0  0  0  0  0  0
   42.7162   29.8307   14.3276 O   0  0  0  0  0  0  0  0  0  0  0  0
   43.1331   29.5417   12.9920 C   0  0  0  0  0  0  0  0  0  0  0  0
   42.2553   24.7051   13.3777 C   0  0  0  0  0  0  0  0  0  0  0  0
   43.1852   24.5906   14.4030 C   0  0  0  0  0  0  0  0  0  0  0  0
   43.8984   25.7186   14.8167 C   0  0  0  0  0  0  0  0  0  0  0  0
   43.6822   26.9571   14.2115 C   0  0  0  0  0  0  0  0  0  0  0  0
   42.4225   28.2930   12.4540 C   0  0  1  0  0  0  0  0  0  0  0  0
   42.7363   27.0504   13.2175 C   0  0  0  0  0  0  0  0  0  0  0  0
   42.0404   25.9396   12.8122 C   0  0  0  0  0  0  0  0  0  0  0  0
   41.1267   26.1553   11.7065 C   0  0  1  0  0  0  0  0  0  0  0  0
   38.8937   27.2219   11.9654 C   0  0  0  0  0  0  0  0  0  0  0  0
   40.2639   27.2688   12.0601 C   0  0  0  0  0  0  0  0  0  0  0  0
   40.9188   28.4025   12.4603 C   0  0  0  0  0  0  0  0  0  0  0  0
   40.1959   29.5423   12.7802 C   0  0  0  0  0  0  0  0  0  0  0  0
   38.8017   29.5038   12.7088 C   0  0  0  0  0  0  0  0  0  0  0  0
   38.1548   28.3434   12.3044 C   0  0  0  0  0  0  0  0  0  0  0  0
   45.6879   24.7276   11.6774 C   0  0  0  0  0  0  0  0  0  0  0  0
   45.5319   25.5400   10.3974 C   0  0  0  0  0  0  0  0  0  0  0  0
   45.1338   28.1521   11.1015 O   0  0  0  0  0  0  0  0  0  0  0  0
   42.9144   24.5655    9.9637 O   0  0  0  0  0  0  0  0  0  0  0  0
   43.1228   25.7210   10.2945 C   0  0  0  0  0  0  0  0  0  0  0  0
   44.2663   26.2490   10.4996 N   0  0  0  0  0  0  0  0  0  0  0  0
   44.1835   27.4541   10.8589 C   0  0  0  0  0  0  0  0  0  0  0  0
   42.7784   27.9258   11.0047 C   0  0  1  0  0  0  0  0  0  0  0  0
   42.0135   26.6694   10.5807 C   0  0  2  0  0  0  0  0  0  0  0  0
  1  2  1  0  0  0  0
  2  3  1  0  0  0  0
  3 20  1  0  0  0  0
  4  5  1  0  0  0  0
  6  7  2  0  0  0  0
  6 12  1  0  0  0  0
  7  8  1  0  0  0  0
  8  9  2  0  0  0  0
  9 11  1  0  0  0  0
 10  5  1  1  0  0  0
 10 11  1  0  0  0  0
 10 16  1  0  0  0  0
 10 27  1  0  0  0  0
 11 12  2  0  0  0  0
 13 12  1  1  0  0  0
 13 15  1  0  0  0  0
 13 28  1  0  0  0  0
 14 15  2  0  0  0  0
 14 19  1  0  0  0  0
 15 16  1  0  0  0  0
 16 17  2  0  0  0  0
 17 18  1  0  0  0  0
 18 19  2  0  0  0  0
 20 21  1  0  0  0  0
 21 25  1  0  0  0  0
 22 26  2  0  0  0  0
 23 24  2  0  0  0  0
 24 25  1  0  0  0  0
 25 26  1  0  0  0  0
 27 26  1  1  0  0  0
 27 28  1  0  0  0  0
 28 24  1  1  0  0  0
M  END
>  <CHROM.1>
-165.03290340,-62.73764768,137.82537161,168.13765364,-78.43347751,43.12852228
26.62477326,12.17352924,-0.45001385,-0.38916434,0.79611571

>  <Name>
ligand

>  <RI>
0

>  <Rbt.Current_Directory>
/home/itssahil/PROJECTS/Mol_Feturizer/New_Systems/rnas/1YLS

>  <Rbt.Executable>
rbdock ($Id: //depot/dev/client3/rdock/2013.1/src/exe/rbdock.cxx#4 $)

>  <Rbt.Library>
libRbt.so (2013.1, Build901 2013/11/27)

>  <Rbt.Parameter_File>
/export/apps/rDock/src/rDock_2013.1_src/data/scripts/dock_solv.prm

>  <Rbt.Receptor>
prm/blind_docking_60.prm

>  <SCORE>
-10.7575

>  <SCORE.INTER>
-8.32211

>  <SCORE.INTER.CONST>
1

>  <SCORE.INTER.POLAR>
0

>  <SCORE.INTER.ROT>
5

>  <SCORE.INTER.SOLV>
9.41389

>  <SCORE.INTER.VDW>
-15.6194

>  <SCORE.INTER.norm>
-0.297218

>  <SCORE.INTRA>
-2.43537

>  <SCORE.INTRA.DIHEDRAL>
-3.14597

>  <SCORE.INTRA.DIHEDRAL.0>
12.0148

>  <SCORE.INTRA.POLAR>
0

>  <SCORE.INTRA.POLAR.0>
0

>  <SCORE.INTRA.REPUL>
0

>  <SCORE.INTRA.REPUL.0>
0

>  <SCORE.INTRA.SOLV>
-0.0345741

>  <SCORE.INTRA.SOLV.lig_0>
-10.5235

>  <SCORE.INTRA.VDW>
-0.845092

>  <SCORE.INTRA.VDW.0>
-1.38455

>  <SCORE.INTRA.norm>
-0.0869774

>  <SCORE.RESTR>
0

>  <SCORE.RESTR.CAVITY>
0

>  <SCORE.RESTR.norm>
0

>  <SCORE.SYSTEM>
0

>  <SCORE.SYSTEM.CONST>
0

>  <SCORE.SYSTEM.DIHEDRAL>
0

>  <SCORE.SYSTEM.SOLV>
0

>  <SCORE.SYSTEM.norm>
0

>  <SCORE.heavy>
28

>  <SCORE.norm>
-0.384195

>  <RMSD>
14.813

$$$$
ligand
 OpenBabel11021811413D
libRbt.so/2013.1/901 2013/11/27
 28 32  0  0  0  0  0  0  0  0999 V2000
   46.3923   21.2476   10.4441 C   0  0  0  0  0  0  0  0  0  0  0  0
   45.5808   22.2994   11.1741 C   0  0  0  0  0  0  0  0  0  0  0  0
   45.9701   23.7064   10.7457 C   0  0  0  0  0  0  0  0  0  0  0  0
   42.1003   30.4240   14.4043 O   0  0  0  0  0  0  0  0  0  0  0  0
   42.6454   30.0749   13.1307 C   0  0  0  0  0  0  0  0  0  0  0  0
   41.8331   25.2277   13.5281 C   0  0  0  0  0  0  0  0  0  0  0  0
   42.7231   25.1383   14.5908 C   0  0  0  0  0  0  0  0  0  0  0  0
   43.4004   26.2819   15.0215 C   0  0  0  0  0  0  0  0  0  0  0  0
   43.1880   27.5111   14.3962 C   0  0  0  0  0  0  0  0  0  0  0  0
   41.9777   28.8095   12.5770 C   0  0  1  0  0  0  0  0  0  0  0  0
   42.2812   27.5793   13.3644 C   0  0  0  0  0  0  0  0  0  0  0  0
   41.6206   26.4533   12.9426 C   0  0  0  0  0  0  0  0  0  0  0  0
   40.7484   26.6435   11.7992 C   0  0  1  0  0  0  0  0  0  0  0  0
   38.4894   27.6744   11.9587 C   0  0  0  0  0  0  0  0  0  0  0  0
   39.8538   27.7453   12.1074 C   0  0  0  0  0  0  0  0  0  0  0  0
   40.4733   28.8935   12.5223 C   0  0  0  0  0  0  0  0  0  0  0  0
   39.7193   30.0237   12.8021 C   0  0  0  0  0  0  0  0  0  0  0  0
   38.3300   29.9610   12.6755 C   0  0  0  0  0  0  0  0  0  0  0  0
   37.7191   28.7862   12.2570 C   0  0  0  0  0  0  0  0  0  0  0  0
   45.0057   24.7310   11.3289 C   0  0  0  0  0  0  0  0  0  0  0  0
   45.2120   26.0911   10.6727 C   0  0  0  0  0  0  0  0  0  0  0  0
   44.7428   28.7023   11.3350 O   0  0  0  0  0  0  0  0  0  0  0  0
   42.6305   25.0684   10.1446 O   0  0  0  0  0  0  0  0  0  0  0  0
   42.8063   26.2303   10.4722 C   0  0  0  0  0  0  0  0  0  0  0  0
   43.9317   26.7794   10.7176 N   0  0  0  0  0  0  0  0  0  0  0  0
   43.8147   27.9861   11.0615 C   0  0  0  0  0  0  0  0  0  0  0  0
   42.3973   28.4353   11.1467 C   0  0  1  0  0  0  0  0  0  0  0  0
   41.6708   27.1623   10.7047 C   0  0  2  0  0  0  0  0  0  0  0  0
  1  2  1  0  0  0  0
  2  3  1  0  0  0  0
  3 20  1  0  0  0  0
  4  5  1  0  0  0  0
  6  7  2  0  0  0  0
  6 12  1  0  0  0  0
  7  8  1  0  0  0  0
  8  9  2  0  0  0  0
  9 11  1  0  0  0  0
 10  5  1  1  0  0  0
 10 11  1  0  0  0  0
 10 16  1  0  0  0  0
 10 27  1  0  0  0  0
 11 12  2  0  0  0  0
 13 12  1  1  0  0  0
 13 15  1  0  0  0  0
 13 28  1  0  0  0  0
 14 15  2  0  0  0  0
 14 19  1  0  0  0  0
 15 16  1  0  0  0  0
 16 17  2  0  0  0  0
 17 18  1  0  0  0  0
 18 19  2  0  0  0  0
 20 21  1  0  0  0  0
 21 25  1  0  0  0  0
 22 26  2  0  0  0  0
 23 24  2  0  0  0  0
 24 25  1  0  0  0  0
 25 26  1  0  0  0  0
 27 26  1  1  0  0  0
 27 28  1  0  0  0  0
 28 24  1  1  0  0  0
M  END
>  <CHROM.1>
171.42835336,-66.97408922,-168.09018841,151.27088287,-42.11058483,42.52969713
26.93405545,12.08819070,0.83786172,0.07694208,-2.75253542

>  <Name>
ligand

>  <RI>
0

>  <Rbt.Current_Directory>
/home/itssahil/PROJECTS/Mol_Feturizer/New_Systems/rnas/1YLS

>  <Rbt.Executable>
rbdock ($Id: //depot/dev/client3/rdock/2013.1/src/exe/rbdock.cxx#4 $)

>  <Rbt.Library>
libRbt.so (2013.1, Build901 2013/11/27)

>  <Rbt.Parameter_File>
/export/apps/rDock/src/rDock_2013.1_src/data/scripts/dock_solv.prm

>  <Rbt.Receptor>
prm/blind_docking_100.prm

>  <SCORE>
-14.419

>  <SCORE.INTER>
-13.0202

>  <SCORE.INTER.CONST>
1

>  <SCORE.INTER.POLAR>
0

>  <SCORE.INTER.ROT>
5

>  <SCORE.INTER.SOLV>
9.08171

>  <SCORE.INTER.VDW>
-18.6407

>  <SCORE.INTER.norm>
-0.465008

>  <SCORE.INTRA>
-1.39874

>  <SCORE.INTRA.DIHEDRAL>
-6.16309

>  <SCORE.INTRA.DIHEDRAL.0>
12.0148

>  <SCORE.INTRA.POLAR>
0

>  <SCORE.INTRA.POLAR.0>
0

>  <SCORE.INTRA.REPUL>
0

>  <SCORE.INTRA.REPUL.0>
0

>  <SCORE.INTRA.SOLV>
0.0953982

>  <SCORE.INTRA.SOLV.lig_0>
-10.5235

>  <SCORE.INTRA.VDW>
1.63511

>  <SCORE.INTRA.VDW.0>
-1.38455

>  <SCORE.INTRA.norm>
-0.0499549

>  <SCORE.RESTR>
0

>  <SCORE.RESTR.CAVITY>
0

>  <SCORE.RESTR.norm>
0

>  <SCORE.SYSTEM>
0

>  <SCORE.SYSTEM.CONST>
0

>  <SCORE.SYSTEM.DIHEDRAL>
0

>  <SCORE.SYSTEM.SOLV>
0

>  <SCORE.SYSTEM.norm>
0

>  <SCORE.heavy>
28

>  <SCORE.norm>
-0.514963

>  <RMSD>
14.821

$$$$
ligand
 OpenBabel11021811413D
libRbt.so/2013.1/901 2013/11/27
 28 32  0  0  0  0  0  0  0  0999 V2000
   47.1272   21.4445   12.2883 C   0  0  0  0  0  0  0  0  0  0  0  0
   46.1195   22.5471   12.5467 C   0  0  0  0  0  0  0  0  0  0  0  0
   46.3062   23.7143   11.5888 C   0  0  0  0  0  0  0  0  0  0  0  0
   42.5074   31.0918   11.9781 O   0  0  0  0  0  0  0  0  0  0  0  0
   42.8044   30.0190   12.8736 C   0  0  0  0  0  0  0  0  0  0  0  0
   41.9331   25.2287   13.6518 C   0  0  0  0  0  0  0  0  0  0  0  0
   42.8344   25.2086   14.7085 C   0  0  0  0  0  0  0  0  0  0  0  0
   43.5319   26.3723   15.0425 C   0  0  0  0  0  0  0  0  0  0  0  0
   43.3282   27.5527   14.3267 C   0  0  0  0  0  0  0  0  0  0  0  0
   42.1135   28.7244   12.4263 C   0  0  1  0  0  0  0  0  0  0  0  0
   42.4102   27.5542   13.3027 C   0  0  0  0  0  0  0  0  0  0  0  0
   41.7297   26.4085   12.9761 C   0  0  0  0  0  0  0  0  0  0  0  0
   40.8465   26.5225   11.8311 C   0  0  1  0  0  0  0  0  0  0  0  0
   38.6034   27.5943   11.9354 C   0  0  0  0  0  0  0  0  0  0  0  0
   39.9702   27.6572   12.0633 C   0  0  0  0  0  0  0  0  0  0  0  0
   40.6098   28.8251   12.3818 C   0  0  0  0  0  0  0  0  0  0  0  0
   39.8742   29.9840   12.5819 C   0  0  0  0  0  0  0  0  0  0  0  0
   38.4827   29.9313   12.4758 C   0  0  0  0  0  0  0  0  0  0  0  0
   37.8514   28.7365   12.1556 C   0  0  0  0  0  0  0  0  0  0  0  0
   45.1975   24.7423   11.7731 C   0  0  0  0  0  0  0  0  0  0  0  0
   45.2886   25.8225   10.7017 C   0  0  0  0  0  0  0  0  0  0  0  0
   44.8619   28.4832   11.1661 O   0  0  0  0  0  0  0  0  0  0  0  0
   42.6877   24.7987   10.2821 O   0  0  0  0  0  0  0  0  0  0  0  0
   42.8827   25.9796   10.5174 C   0  0  0  0  0  0  0  0  0  0  0  0
   44.0182   26.5301   10.7075 N   0  0  0  0  0  0  0  0  0  0  0  0
   43.9212   27.7612   10.9587 C   0  0  0  0  0  0  0  0  0  0  0  0
   42.5110   28.2355   11.0245 C   0  0  1  0  0  0  0  0  0  0  0  0
   41.7625   26.9427   10.6899 C   0  0  2  0  0  0  0  0  0  0  0  0
  1  2  1  0  0  0  0
  2  3  1  0  0  0  0
  3 20  1  0  0  0  0
  4  5  1  0  0  0  0
  6  7  2  0  0  0  0
  6 12  1  0  0  0  0
  7  8  1  0  0  0  0
  8  9  2  0  0  0  0
  9 11  1  0  0  0  0
 10  5  1  1  0  0  0
 10 11  1  0  0  0  0
 10 16  1  0  0  0  0
 10 27  1  0  0  0  0
 11 12  2  0  0  0  0
 13 12  1  1  0  0  0
 13 15  1  0  0  0  0
 13 28  1  0  0  0  0
 14 15  2  0  0  0  0
 14 19  1  0  0  0  0
 15 16  1  0  0  0  0
 16 17  2  0  0  0  0
 17 18  1  0  0  0  0
 18 19  2  0  0  0  0
 20 21  1  0  0  0  0
 21 25  1  0  0  0  0
 22 26  2  0  0  0  0
 23 24  2  0  0  0  0
 24 25  1  0  0  0  0
 25 26  1  0  0  0  0
 27 26  1  1  0  0  0
 27 28  1  0  0  0  0
 28 24  1  1  0  0  0
M  END
>  <CHROM.1>
174.21959250,178.59998698,-173.08215578,164.35857017,-57.94544044,42.70981136
26.89335603,12.12018435,0.75129255,-0.24597194,2.94389271

>  <Name>
ligand

>  <RI>
0

>  <Rbt.Current_Directory>
/home/itssahil/PROJECTS/Mol_Feturizer/New_Systems/rnas/1YLS

>  <Rbt.Executable>
rbdock ($Id: //depot/dev/client3/rdock/2013.1/src/exe/rbdock.cxx#4 $)

>  <Rbt.Library>
libRbt.so (2013.1, Build901 2013/11/27)

>  <Rbt.Parameter_File>
/export/apps/rDock/src/rDock_2013.1_src/data/scripts/dock_solv.prm

>  <Rbt.Receptor>
prm/blind_docking_60.prm

>  <SCORE>
-14.0713

>  <SCORE.INTER>
-9.95923

>  <SCORE.INTER.CONST>
1

>  <SCORE.INTER.POLAR>
0

>  <SCORE.INTER.ROT>
5

>  <SCORE.INTER.SOLV>
7.25961

>  <SCORE.INTER.VDW>
-15.9927

>  <SCORE.INTER.norm>
-0.355687

>  <SCORE.INTRA>
-4.11203

>  <SCORE.INTRA.DIHEDRAL>
-8.40473

>  <SCORE.INTRA.DIHEDRAL.0>
12.0148

>  <SCORE.INTRA.POLAR>
0

>  <SCORE.INTRA.POLAR.0>
0

>  <SCORE.INTRA.REPUL>
0

>  <SCORE.INTRA.REPUL.0>
0

>  <SCORE.INTRA.SOLV>
0.209205

>  <SCORE.INTRA.SOLV.lig_0>
-10.5235

>  <SCORE.INTRA.VDW>
-0.0142682

>  <SCORE.INTRA.VDW.0>
-1.38455

>  <SCORE.INTRA.norm>
-0.146858

>  <SCORE.RESTR>
0

>  <SCORE.RESTR.CAVITY>
0

>  <SCORE.RESTR.norm>
0

>  <SCORE.SYSTEM>
0

>  <SCORE.SYSTEM.CONST>
0

>  <SCORE.SYSTEM.DIHEDRAL>
0

>  <SCORE.SYSTEM.SOLV>
0

>  <SCORE.SYSTEM.norm>
0

>  <SCORE.heavy>
28

>  <SCORE.norm>
-0.502545

>  <RMSD>
14.840

$$$$
ligand
 OpenBabel11021811413D
libRbt.so/2013.1/901 2013/11/27
 28 32  0  0  0  0  0  0  0  0999 V2000
   46.4087   21.0949   10.7141 C   0  0  0  0  0  0  0  0  0  0  0  0
   45.5671   22.1833   11.3504 C   0  0  0  0  0  0  0  0  0  0  0  0
   45.9801   23.5662   10.8692 C   0  0  0  0  0  0  0  0  0  0  0  0
   42.2375   30.4424   14.2466 O   0  0  0  0  0  0  0  0  0  0  0  0
   42.7186   30.0600   12.9569 C   0  0  0  0  0  0  0  0  0  0  0  0
   41.8847   25.2436   13.6048 C   0  0  0  0  0  0  0  0  0  0  0  0
   42.7903   25.2008   14.6571 C   0  0  0  0  0  0  0  0  0  0  0  0
   43.4807   26.3598   15.0208 C   0  0  0  0  0  0  0  0  0  0  0  0
   43.2658   27.5581   14.3389 C   0  0  0  0  0  0  0  0  0  0  0  0
   42.0353   28.7733   12.4763 C   0  0  1  0  0  0  0  0  0  0  0  0
   42.3438   27.5814   13.3188 C   0  0  0  0  0  0  0  0  0  0  0  0
   41.6703   26.4403   12.9629 C   0  0  0  0  0  0  0  0  0  0  0  0
   40.7818   26.5796   11.8248 C   0  0  1  0  0  0  0  0  0  0  0  0
   38.5315   27.6318   11.9672 C   0  0  0  0  0  0  0  0  0  0  0  0
   39.8983   27.7011   12.0917 C   0  0  0  0  0  0  0  0  0  0  0  0
   40.5307   28.8643   12.4402 C   0  0  0  0  0  0  0  0  0  0  0  0
   39.7877   30.0118   12.6752 C   0  0  0  0  0  0  0  0  0  0  0  0
   38.3962   29.9519   12.5728 C   0  0  0  0  0  0  0  0  0  0  0  0
   37.7722   28.7619   12.2218 C   0  0  0  0  0  0  0  0  0  0  0  0
   45.0251   24.6269   11.4012 C   0  0  0  0  0  0  0  0  0  0  0  0
   45.2244   25.9436   10.6599 C   0  0  0  0  0  0  0  0  0  0  0  0
   44.7804   28.5872   11.1997 O   0  0  0  0  0  0  0  0  0  0  0  0
   42.6293   24.9129   10.2217 O   0  0  0  0  0  0  0  0  0  0  0  0
   42.8167   26.0883   10.4889 C   0  0  0  0  0  0  0  0  0  0  0  0
   43.9489   26.6416   10.6901 N   0  0  0  0  0  0  0  0  0  0  0  0
   43.8441   27.8644   10.9758 C   0  0  0  0  0  0  0  0  0  0  0  0
   42.4308   28.3264   11.0600 C   0  0  1  0  0  0  0  0  0  0  0  0
   41.6903   27.0380   10.6923 C   0  0  2  0  0  0  0  0  0  0  0  0
  1  2  1  0  0  0  0
  2  3  1  0  0  0  0
  3 20  1  0  0  0  0
  4  5  1  0  0  0  0
  6  7  2  0  0  0  0
  6 12  1  0  0  0  0
  7  8  1  0  0  0  0
  8  9  2  0  0  0  0
  9 11  1  0  0  0  0
 10  5  1  1  0  0  0
 10 11  1  0  0  0  0
 10 16  1  0  0  0  0
 10 27  1  0  0  0  0
 11 12  2  0  0  0  0
 13 12  1  1  0  0  0
 13 15  1  0  0  0  0
 13 28  1  0  0  0  0
 14 15  2  0  0  0  0
 14 19  1  0  0  0  0
 15 16  1  0  0  0  0
 16 17  2  0  0  0  0
 17 18  1  0  0  0  0
 18 19  2  0  0  0  0
 20 21  1  0  0  0  0
 21 25  1  0  0  0  0
 22 26  2  0  0  0  0
 23 24  2  0  0  0  0
 24 25  1  0  0  0  0
 25 26  1  0  0  0  0
 27 26  1  1  0  0  0
 27 28  1  0  0  0  0
 28 24  1  1  0  0  0
M  END
>  <CHROM.1>
173.77373278,-64.41026984,-166.18565626,151.76964931,-42.83322775,42.57239150
26.87212243,12.07806963,0.84595969,0.07109544,-2.80070360

>  <Name>
ligand

>  <RI>
0

>  <Rbt.Current_Directory>
/home/itssahil/PROJECTS/Mol_Feturizer/New_Systems/rnas/1YLS

>  <Rbt.Executable>
rbdock ($Id: //depot/dev/client3/rdock/2013.1/src/exe/rbdock.cxx#4 $)

>  <Rbt.Library>
libRbt.so (2013.1, Build901 2013/11/27)

>  <Rbt.Parameter_File>
/export/apps/rDock/src/rDock_2013.1_src/data/scripts/dock_solv.prm

>  <Rbt.Receptor>
prm/blind_docking_80.prm

>  <SCORE>
-14.1923

>  <SCORE.INTER>
-12.5971

>  <SCORE.INTER.CONST>
1

>  <SCORE.INTER.POLAR>
0

>  <SCORE.INTER.ROT>
5

>  <SCORE.INTER.SOLV>
8.88873

>  <SCORE.INTER.VDW>
-18.2943

>  <SCORE.INTER.norm>
-0.449897

>  <SCORE.INTRA>
-1.59518

>  <SCORE.INTRA.DIHEDRAL>
-6.27063

>  <SCORE.INTRA.DIHEDRAL.0>
12.0148

>  <SCORE.INTRA.POLAR>
0

>  <SCORE.INTRA.POLAR.0>
0

>  <SCORE.INTRA.REPUL>
0

>  <SCORE.INTRA.REPUL.0>
0

>  <SCORE.INTRA.SOLV>
0.0942121

>  <SCORE.INTRA.SOLV.lig_0>
-10.5235

>  <SCORE.INTRA.VDW>
1.49303

>  <SCORE.INTRA.VDW.0>
-1.38455

>  <SCORE.INTRA.norm>
-0.0569706

>  <SCORE.RESTR>
0

>  <SCORE.RESTR.CAVITY>
0

>  <SCORE.RESTR.norm>
0

>  <SCORE.SYSTEM>
0

>  <SCORE.SYSTEM.CONST>
0

>  <SCORE.SYSTEM.DIHEDRAL>
0

>  <SCORE.SYSTEM.SOLV>
0

>  <SCORE.SYSTEM.norm>
0

>  <SCORE.heavy>
28

>  <SCORE.norm>
-0.506867

>  <RMSD>
14.842

$$$$
ligand
 OpenBabel11021811413D
libRbt.so/2013.1/901 2013/11/27
 28 32  0  0  0  0  0  0  0  0999 V2000
   46.5829   22.6430   11.0484 C   0  0  0  0  0  0  0  0  0  0  0  0
   45.2953   21.8474   11.1302 C   0  0  0  0  0  0  0  0  0  0  0  0
   44.5810   22.0696   12.4551 C   0  0  0  0  0  0  0  0  0  0  0  0
   38.6232   27.3334   11.8965 O   0  0  0  0  0  0  0  0  0  0  0  0
   39.7745   26.7565   11.2777 C   0  0  0  0  0  0  0  0  0  0  0  0
   44.6945   27.0730   11.2025 C   0  0  0  0  0  0  0  0  0  0  0  0
   44.7600   26.2155   10.1117 C   0  0  0  0  0  0  0  0  0  0  0  0
   43.5829   25.6761    9.5866 C   0  0  0  0  0  0  0  0  0  0  0  0
   42.3446   25.9937   10.1459 C   0  0  0  0  0  0  0  0  0  0  0  0
   41.0636   27.2695   11.9323 C   0  0  1  0  0  0  0  0  0  0  0  0
   42.3039   26.8667   11.2078 C   0  0  0  0  0  0  0  0  0  0  0  0
   43.4623   27.3917   11.7223 C   0  0  0  0  0  0  0  0  0  0  0  0
   43.2899   28.2392   12.8868 C   0  0  1  0  0  0  0  0  0  0  0  0
   42.5064   30.5974   12.7582 C   0  0  0  0  0  0  0  0  0  0  0  0
   42.3066   29.2537   12.5502 C   0  0  0  0  0  0  0  0  0  0  0  0
   41.1298   28.7717   12.0430 C   0  0  0  0  0  0  0  0  0  0  0  0
   40.1022   29.6483   11.7274 C   0  0  0  0  0  0  0  0  0  0  0  0
   40.2979   31.0184   11.9138 C   0  0  0  0  0  0  0  0  0  0  0  0
   41.4999   31.4890   12.4259 C   0  0  0  0  0  0  0  0  0  0  0  0
   43.9775   23.4670   12.5115 C   0  0  0  0  0  0  0  0  0  0  0  0
   43.3127   23.7064   13.8619 C   0  0  0  0  0  0  0  0  0  0  0  0
   40.8100   24.4672   13.0651 O   0  0  0  0  0  0  0  0  0  0  0  0
   44.5573   26.1478   14.5543 O   0  0  0  0  0  0  0  0  0  0  0  0
   43.4067   26.1052   14.1514 C   0  0  0  0  0  0  0  0  0  0  0  0
   42.7625   25.0521   13.8282 N   0  0  0  0  0  0  0  0  0  0  0  0
   41.5982   25.3058   13.4182 C   0  0  0  0  0  0  0  0  0  0  0  0
   41.3019   26.7644   13.3642 C   0  0  1  0  0  0  0  0  0  0  0  0
   42.6116   27.3389   13.9101 C   0  0  2  0  0  0  0  0  0  0  0  0
  1  2  1  0  0  0  0
  2  3  1  0  0  0  0
  3 20  1  0  0  0  0
  4  5  1  0  0  0  0
  6  7  2  0  0  0  0
  6 12  1  0  0  0  0
  7  8  1  0  0  0  0
  8  9  2  0  0  0  0
  9 11  1  0  0  0  0
 10  5  1  6  0  0  0
 10 11  1  0  0  0  0
 10 16  1  0  0  0  0
 10 27  1  0  0  0  0
 11 12  2  0  0  0  0
 13 12  1  6  0  0  0
 13 15  1  0  0  0  0
 13 28  1  0  0  0  0
 14 15  2  0  0  0  0
 14 19  1  0  0  0  0
 15 16  1  0  0  0  0
 16 17  2  0  0  0  0
 17 18  1  0  0  0  0
 18 19  2  0  0  0  0
 20 21  1  0  0  0  0
 21 25  1  0  0  0  0
 22 26  2  0  0  0  0
 23 24  2  0  0  0  0
 24 25  1  0  0  0  0
 25 26  1  0  0  0  0
 27 26  1  6  0  0  0
 27 28  1  0  0  0  0
 28 24  1  6  0  0  0
M  END
>  <CHROM.1>
71.70886477,-171.43417084,-177.66690934,-179.79239977,-87.78395552,42.60379971
26.45282796,12.27785159,-0.99879247,0.25828291,-0.14015907

>  <Name>
ligand

>  <RI>
0

>  <Rbt.Current_Directory>
/home/itssahil/PROJECTS/Mol_Feturizer/New_Systems/rnas/1YLS

>  <Rbt.Executable>
rbdock ($Id: //depot/dev/client3/rdock/2013.1/src/exe/rbdock.cxx#4 $)

>  <Rbt.Library>
libRbt.so (2013.1, Build901 2013/11/27)

>  <Rbt.Parameter_File>
/export/apps/rDock/src/rDock_2013.1_src/data/scripts/dock_solv.prm

>  <Rbt.Receptor>
prm/blind_docking_100.prm

>  <SCORE>
-13.9801

>  <SCORE.INTER>
-9.81083

>  <SCORE.INTER.CONST>
1

>  <SCORE.INTER.POLAR>
0

>  <SCORE.INTER.ROT>
5

>  <SCORE.INTER.SOLV>
10.4026

>  <SCORE.INTER.VDW>
-16.9414

>  <SCORE.INTER.norm>
-0.350387

>  <SCORE.INTRA>
-4.16937

>  <SCORE.INTRA.DIHEDRAL>
-8.55966

>  <SCORE.INTRA.DIHEDRAL.0>
12.0148

>  <SCORE.INTRA.POLAR>
0

>  <SCORE.INTRA.POLAR.0>
0

>  <SCORE.INTRA.REPUL>
0

>  <SCORE.INTRA.REPUL.0>
0

>  <SCORE.INTRA.SOLV>
0.0707354

>  <SCORE.INTRA.SOLV.lig_0>
-10.5235

>  <SCORE.INTRA.VDW>
0.0750962

>  <SCORE.INTRA.VDW.0>
-1.38455

>  <SCORE.INTRA.norm>
-0.148906

>  <SCORE.RESTR>
0.000148799

>  <SCORE.RESTR.CAVITY>
0.000148799

>  <SCORE.RESTR.norm>
5.31426e-06

>  <SCORE.SYSTEM>
0

>  <SCORE.SYSTEM.CONST>
0

>  <SCORE.SYSTEM.DIHEDRAL>
0

>  <SCORE.SYSTEM.SOLV>
0

>  <SCORE.SYSTEM.norm>
0

>  <SCORE.heavy>
28

>  <SCORE.norm>
-0.499288

>  <RMSD>
14.843

$$$$
ligand
 OpenBabel11021811413D
libRbt.so/2013.1/901 2013/11/27
 28 32  0  0  0  0  0  0  0  0999 V2000
   44.6784   22.2045   11.9380 C   0  0  0  0  0  0  0  0  0  0  0  0
   45.7685   23.1065   12.4820 C   0  0  0  0  0  0  0  0  0  0  0  0
   45.9699   24.3347   11.6069 C   0  0  0  0  0  0  0  0  0  0  0  0
   42.0849   31.4383   13.4433 O   0  0  0  0  0  0  0  0  0  0  0  0
   42.3756   30.8255   12.1859 C   0  0  0  0  0  0  0  0  0  0  0  0
   41.8111   26.2697   13.9853 C   0  0  0  0  0  0  0  0  0  0  0  0
   42.8108   26.4876   14.9246 C   0  0  0  0  0  0  0  0  0  0  0  0
   43.4818   27.7130   14.9463 C   0  0  0  0  0  0  0  0  0  0  0  0
   43.1541   28.7185   14.0361 C   0  0  0  0  0  0  0  0  0  0  0  0
   41.7063   29.4492   12.0790 C   0  0  1  0  0  0  0  0  0  0  0  0
   42.1417   28.4886   13.1340 C   0  0  0  0  0  0  0  0  0  0  0  0
   41.4875   27.2828   13.1141 C   0  0  0  0  0  0  0  0  0  0  0  0
   40.4928   27.1395   12.0682 C   0  0  1  0  0  0  0  0  0  0  0  0
   38.2224   28.1500   12.1923 C   0  0  0  0  0  0  0  0  0  0  0  0
   39.5907   28.2739   12.1613 C   0  0  0  0  0  0  0  0  0  0  0  0
   40.2023   29.4987   12.1731 C   0  0  0  0  0  0  0  0  0  0  0  0
   39.4359   30.6541   12.2154 C   0  0  0  0  0  0  0  0  0  0  0  0
   38.0447   30.5439   12.2682 C   0  0  0  0  0  0  0  0  0  0  0  0
   37.4423   29.2926   12.2592 C   0  0  0  0  0  0  0  0  0  0  0  0
   44.7871   25.2856   11.7364 C   0  0  0  0  0  0  0  0  0  0  0  0
   44.8320   26.3445   10.6411 C   0  0  0  0  0  0  0  0  0  0  0  0
   44.3275   29.0318   10.6108 O   0  0  0  0  0  0  0  0  0  0  0  0
   42.2538   25.1880   10.7076 O   0  0  0  0  0  0  0  0  0  0  0  0
   42.4149   26.3969   10.6823 C   0  0  0  0  0  0  0  0  0  0  0  0
   43.5362   27.0046   10.6395 N   0  0  0  0  0  0  0  0  0  0  0  0
   43.4062   28.2580   10.6504 C   0  0  0  0  0  0  0  0  0  0  0  0
   41.9882   28.6980   10.7682 C   0  0  1  0  0  0  0  0  0  0  0  0
   41.2726   27.3447   10.7768 C   0  0  2  0  0  0  0  0  0  0  0  0
  1  2  1  0  0  0  0
  2  3  1  0  0  0  0
  3 20  1  0  0  0  0
  4  5  1  0  0  0  0
  6  7  2  0  0  0  0
  6 12  1  0  0  0  0
  7  8  1  0  0  0  0
  8  9  2  0  0  0  0
  9 11  1  0  0  0  0
 10  5  1  1  0  0  0
 10 11  1  0  0  0  0
 10 16  1  0  0  0  0
 10 27  1  0  0  0  0
 11 12  2  0  0  0  0
 13 12  1  1  0  0  0
 13 15  1  0  0  0  0
 13 28  1  0  0  0  0
 14 15  2  0  0  0  0
 14 19  1  0  0  0  0
 15 16  1  0  0  0  0
 16 17  2  0  0  0  0
 17 18  1  0  0  0  0
 18 19  2  0  0  0  0
 20 21  1  0  0  0  0
 21 25  1  0  0  0  0
 22 26  2  0  0  0  0
 23 24  2  0  0  0  0
 24 25  1  0  0  0  0
 25 26  1  0  0  0  0
 27 26  1  1  0  0  0
 27 28  1  0  0  0  0
 28 24  1  1  0  0  0
M  END
>  <CHROM.1>
70.77817262,-59.81709621,-167.16749272,167.05180894,-46.26028551,42.25084240
27.56024196,12.10972167,0.82530888,-0.02637740,-3.05648759

>  <Name>
ligand

>  <RI>
0

>  <Rbt.Current_Directory>
/home/itssahil/PROJECTS/Mol_Feturizer/New_Systems/rnas/1YLS

>  <Rbt.Executable>
rbdock ($Id: //depot/dev/client3/rdock/2013.1/src/exe/rbdock.cxx#4 $)

>  <Rbt.Library>
libRbt.so (2013.1, Build901 2013/11/27)

>  <Rbt.Parameter_File>
/export/apps/rDock/src/rDock_2013.1_src/data/scripts/dock_solv.prm

>  <Rbt.Receptor>
prm/blind_docking_80.prm

>  <SCORE>
-13.7257

>  <SCORE.INTER>
-11.5886

>  <SCORE.INTER.CONST>
1

>  <SCORE.INTER.POLAR>
0

>  <SCORE.INTER.ROT>
5

>  <SCORE.INTER.SOLV>
7.28414

>  <SCORE.INTER.VDW>
-17.0871

>  <SCORE.INTER.norm>
-0.413879

>  <SCORE.INTRA>
-2.13978

>  <SCORE.INTRA.DIHEDRAL>
-7.97486

>  <SCORE.INTRA.DIHEDRAL.0>
12.0148

>  <SCORE.INTRA.POLAR>
0

>  <SCORE.INTRA.POLAR.0>
0

>  <SCORE.INTRA.REPUL>
0

>  <SCORE.INTRA.REPUL.0>
0

>  <SCORE.INTRA.SOLV>
0.0780455

>  <SCORE.INTRA.SOLV.lig_0>
-10.5235

>  <SCORE.INTRA.VDW>
1.80862

>  <SCORE.INTRA.VDW.0>
-1.38455

>  <SCORE.INTRA.norm>
-0.0764208

>  <SCORE.RESTR>
0.00268956

>  <SCORE.RESTR.CAVITY>
0.00268956

>  <SCORE.RESTR.norm>
9.60556e-05

>  <SCORE.SYSTEM>
0

>  <SCORE.SYSTEM.CONST>
0

>  <SCORE.SYSTEM.DIHEDRAL>
0

>  <SCORE.SYSTEM.SOLV>
0

>  <SCORE.SYSTEM.norm>
0

>  <SCORE.heavy>
28

>  <SCORE.norm>
-0.490204

>  <RMSD>
14.857

$$$$
ligand
 OpenBabel11021811413D
libRbt.so/2013.1/901 2013/11/27
 28 32  0  0  0  0  0  0  0  0999 V2000
   49.1001   23.9638   11.7743 C   0  0  0  0  0  0  0  0  0  0  0  0
   47.8975   24.8745   11.9233 C   0  0  0  0  0  0  0  0  0  0  0  0
   46.5918   24.0965   11.8533 C   0  0  0  0  0  0  0  0  0  0  0  0
   42.4766   31.1361   11.9485 O   0  0  0  0  0  0  0  0  0  0  0  0
   42.8238   30.0686   12.8323 C   0  0  0  0  0  0  0  0  0  0  0  0
   42.0371   25.2715   13.6575 C   0  0  0  0  0  0  0  0  0  0  0  0
   42.9561   25.2723   14.6991 C   0  0  0  0  0  0  0  0  0  0  0  0
   43.6415   26.4485   15.0134 C   0  0  0  0  0  0  0  0  0  0  0  0
   43.4085   27.6206   14.2931 C   0  0  0  0  0  0  0  0  0  0  0  0
   42.1449   28.7607   12.4054 C   0  0  1  0  0  0  0  0  0  0  0  0
   42.4736   27.6013   13.2847 C   0  0  0  0  0  0  0  0  0  0  0  0
   41.8050   26.4434   12.9773 C   0  0  0  0  0  0  0  0  0  0  0  0
   40.9013   26.5362   11.8465 C   0  0  1  0  0  0  0  0  0  0  0  0
   38.6444   27.5754   11.9809 C   0  0  0  0  0  0  0  0  0  0  0  0
   40.0121   27.6595   12.0855 C   0  0  0  0  0  0  0  0  0  0  0  0
   40.6393   28.8389   12.3853 C   0  0  0  0  0  0  0  0  0  0  0  0
   39.8900   29.9881   12.5898 C   0  0  0  0  0  0  0  0  0  0  0  0
   38.4979   29.9141   12.5073 C   0  0  0  0  0  0  0  0  0  0  0  0
   37.8792   28.7079   12.2059 C   0  0  0  0  0  0  0  0  0  0  0  0
   45.3997   25.0429   11.9104 C   0  0  0  0  0  0  0  0  0  0  0  0
   45.3339   25.8941   10.6478 C   0  0  0  0  0  0  0  0  0  0  0  0
   44.8753   28.5514   11.1011 O   0  0  0  0  0  0  0  0  0  0  0  0
   42.7420   24.8289   10.2787 O   0  0  0  0  0  0  0  0  0  0  0  0
   42.9232   26.0143   10.5026 C   0  0  0  0  0  0  0  0  0  0  0  0
   44.0533   26.5829   10.6699 N   0  0  0  0  0  0  0  0  0  0  0  0
   43.9422   27.8141   10.9144 C   0  0  0  0  0  0  0  0  0  0  0  0
   42.5263   28.2679   11.0005 C   0  0  1  0  0  0  0  0  0  0  0  0
   41.7918   26.9619   10.6872 C   0  0  2  0  0  0  0  0  0  0  0  0
  1  2  1  0  0  0  0
  2  3  1  0  0  0  0
  3 20  1  0  0  0  0
  4  5  1  0  0  0  0
  6  7  2  0  0  0  0
  6 12  1  0  0  0  0
  7  8  1  0  0  0  0
  8  9  2  0  0  0  0
  9 11  1  0  0  0  0
 10  5  1  1  0  0  0
 10 11  1  0  0  0  0
 10 16  1  0  0  0  0
 10 27  1  0  0  0  0
 11 12  2  0  0  0  0
 13 12  1  1  0  0  0
 13 15  1  0  0  0  0
 13 28  1  0  0  0  0
 14 15  2  0  0  0  0
 14 19  1  0  0  0  0
 15 16  1  0  0  0  0
 16 17  2  0  0  0  0
 17 18  1  0  0  0  0
 18 19  2  0  0  0  0
 20 21  1  0  0  0  0
 21 25  1  0  0  0  0
 22 26  2  0  0  0  0
 23 24  2  0  0  0  0
 24 25  1  0  0  0  0
 25 26  1  0  0  0  0
 27 26  1  1  0  0  0
 27 28  1  0  0  0  0
 28 24  1  1  0  0  0
M  END
>  <CHROM.1>
-176.15608250,179.65318354,67.63928994,169.88078925,-70.26388734,42.91330446
27.14067411,12.08077812,-0.53166161,0.15269380,-0.11095718

>  <Name>
ligand

>  <RI>
0

>  <Rbt.Current_Directory>
/home/itssahil/PROJECTS/Mol_Feturizer/New_Systems/rnas/1YLS

>  <Rbt.Executable>
rbdock ($Id: //depot/dev/client3/rdock/2013.1/src/exe/rbdock.cxx#4 $)

>  <Rbt.Library>
libRbt.so (2013.1, Build901 2013/11/27)

>  <Rbt.Parameter_File>
/export/apps/rDock/src/rDock_2013.1_src/data/scripts/dock_solv.prm

>  <Rbt.Receptor>
prm/blind_docking_60.prm

>  <SCORE>
-14.757

>  <SCORE.INTER>
-10.712

>  <SCORE.INTER.CONST>
1

>  <SCORE.INTER.POLAR>
0

>  <SCORE.INTER.ROT>
5

>  <SCORE.INTER.SOLV>
7.89079

>  <SCORE.INTER.VDW>
-16.7049

>  <SCORE.INTER.norm>
-0.382572

>  <SCORE.INTRA>
-4.04498

>  <SCORE.INTRA.DIHEDRAL>
-8.82289

>  <SCORE.INTRA.DIHEDRAL.0>
12.0148

>  <SCORE.INTRA.POLAR>
0

>  <SCORE.INTRA.POLAR.0>
0

>  <SCORE.INTRA.REPUL>
0

>  <SCORE.INTRA.REPUL.0>
0

>  <SCORE.INTRA.SOLV>
0.184716

>  <SCORE.INTRA.SOLV.lig_0>
-10.5235

>  <SCORE.INTRA.VDW>
0.274103

>  <SCORE.INTRA.VDW.0>
-1.38455

>  <SCORE.INTRA.norm>
-0.144464

>  <SCORE.RESTR>
0

>  <SCORE.RESTR.CAVITY>
0

>  <SCORE.RESTR.norm>
0

>  <SCORE.SYSTEM>
0

>  <SCORE.SYSTEM.CONST>
0

>  <SCORE.SYSTEM.DIHEDRAL>
0

>  <SCORE.SYSTEM.SOLV>
0

>  <SCORE.SYSTEM.norm>
0

>  <SCORE.heavy>
28

>  <SCORE.norm>
-0.527036

>  <RMSD>
14.862

$$$$
ligand
 OpenBabel11021811413D
libRbt.so/2013.1/901 2013/11/27
 28 32  0  0  0  0  0  0  0  0999 V2000
   44.7329   22.1609   11.9861 C   0  0  0  0  0  0  0  0  0  0  0  0
   45.8076   23.0961   12.5040 C   0  0  0  0  0  0  0  0  0  0  0  0
   45.9907   24.3006   11.5927 C   0  0  0  0  0  0  0  0  0  0  0  0
   42.1116   31.4502   13.4224 O   0  0  0  0  0  0  0  0  0  0  0  0
   42.4162   30.8230   12.1754 C   0  0  0  0  0  0  0  0  0  0  0  0
   41.8560   26.2770   14.0010 C   0  0  0  0  0  0  0  0  0  0  0  0
   42.8564   26.5009   14.9382 C   0  0  0  0  0  0  0  0  0  0  0  0
   43.5267   27.7268   14.9524 C   0  0  0  0  0  0  0  0  0  0  0  0
   43.1975   28.7269   14.0368 C   0  0  0  0  0  0  0  0  0  0  0  0
   41.7476   29.4457   12.0769 C   0  0  1  0  0  0  0  0  0  0  0  0
   42.1845   28.4913   13.1370 C   0  0  0  0  0  0  0  0  0  0  0  0
   41.5310   27.2850   13.1244 C   0  0  0  0  0  0  0  0  0  0  0  0
   40.5354   27.1353   12.0802 C   0  0  1  0  0  0  0  0  0  0  0  0
   38.2646   28.1451   12.2006 C   0  0  0  0  0  0  0  0  0  0  0  0
   39.6327   28.2697   12.1677 C   0  0  0  0  0  0  0  0  0  0  0  0
   40.2437   29.4949   12.1721 C   0  0  0  0  0  0  0  0  0  0  0  0
   39.4766   30.6500   12.2086 C   0  0  0  0  0  0  0  0  0  0  0  0
   38.0855   30.5392   12.2632 C   0  0  0  0  0  0  0  0  0  0  0  0
   37.4839   29.2876   12.2618 C   0  0  0  0  0  0  0  0  0  0  0  0
   44.8234   25.2679   11.7409 C   0  0  0  0  0  0  0  0  0  0  0  0
   44.8739   26.3348   10.6537 C   0  0  0  0  0  0  0  0  0  0  0  0
   44.3677   29.0216   10.6088 O   0  0  0  0  0  0  0  0  0  0  0  0
   42.2965   25.1772   10.7291 O   0  0  0  0  0  0  0  0  0  0  0  0
   42.4568   26.3860   10.6968 C   0  0  0  0  0  0  0  0  0  0  0  0
   43.5777   26.9941   10.6496 N   0  0  0  0  0  0  0  0  0  0  0  0
   43.4469   28.2475   10.6535 C   0  0  0  0  0  0  0  0  0  0  0  0
   42.0288   28.6873   10.7701 C   0  0  1  0  0  0  0  0  0  0  0  0
   41.3140   27.3337   10.7870 C   0  0  2  0  0  0  0  0  0  0  0  0
  1  2  1  0  0  0  0
  2  3  1  0  0  0  0
  3 20  1  0  0  0  0
  4  5  1  0  0  0  0
  6  7  2  0  0  0  0
  6 12  1  0  0  0  0
  7  8  1  0  0  0  0
  8  9  2  0  0  0  0
  9 11  1  0  0  0  0
 10  5  1  1  0  0  0
 10 11  1  0  0  0  0
 10 16  1  0  0  0  0
 10 27  1  0  0  0  0
 11 12  2  0  0  0  0
 13 12  1  1  0  0  0
 13 15  1  0  0  0  0
 13 28  1  0  0  0  0
 14 15  2  0  0  0  0
 14 19  1  0  0  0  0
 15 16  1  0  0  0  0
 16 17  2  0  0  0  0
 17 18  1  0  0  0  0
 18 19  2  0  0  0  0
 20 21  1  0  0  0  0
 21 25  1  0  0  0  0
 22 26  2  0  0  0  0
 23 24  2  0  0  0  0
 24 25  1  0  0  0  0
 25 26  1  0  0  0  0
 27 26  1  1  0  0  0
 27 28  1  0  0  0  0
 28 24  1  1  0  0  0
M  END
>  <CHROM.1>
73.41593085,-60.58518820,-169.55480529,165.81509825,-45.42342708,42.29161177
27.55377031,12.11569788,0.82796469,-0.03301694,-3.06628872

>  <Name>
ligand

>  <RI>
0

>  <Rbt.Current_Directory>
/home/itssahil/PROJECTS/Mol_Feturizer/New_Systems/rnas/1YLS

>  <Rbt.Executable>
rbdock ($Id: //depot/dev/client3/rdock/2013.1/src/exe/rbdock.cxx#4 $)

>  <Rbt.Library>
libRbt.so (2013.1, Build901 2013/11/27)

>  <Rbt.Parameter_File>
/export/apps/rDock/src/rDock_2013.1_src/data/scripts/dock_solv.prm

>  <Rbt.Receptor>
prm/blind_docking_80.prm

>  <SCORE>
-13.7072

>  <SCORE.INTER>
-11.6371

>  <SCORE.INTER.CONST>
1

>  <SCORE.INTER.POLAR>
0

>  <SCORE.INTER.ROT>
5

>  <SCORE.INTER.SOLV>
7.33855

>  <SCORE.INTER.VDW>
-17.1376

>  <SCORE.INTER.norm>
-0.41561

>  <SCORE.INTRA>
-2.07014

>  <SCORE.INTRA.DIHEDRAL>
-7.83589

>  <SCORE.INTRA.DIHEDRAL.0>
12.0148

>  <SCORE.INTRA.POLAR>
0

>  <SCORE.INTRA.POLAR.0>
0

>  <SCORE.INTRA.REPUL>
0

>  <SCORE.INTRA.REPUL.0>
0

>  <SCORE.INTRA.SOLV>
0.0777552

>  <SCORE.INTRA.SOLV.lig_0>
-10.5235

>  <SCORE.INTRA.VDW>
1.80893

>  <SCORE.INTRA.VDW.0>
-1.38455

>  <SCORE.INTRA.norm>
-0.0739336

>  <SCORE.RESTR>
0

>  <SCORE.RESTR.CAVITY>
0

>  <SCORE.RESTR.norm>
0

>  <SCORE.SYSTEM>
0

>  <SCORE.SYSTEM.CONST>
0

>  <SCORE.SYSTEM.DIHEDRAL>
0

>  <SCORE.SYSTEM.SOLV>
0

>  <SCORE.SYSTEM.norm>
0

>  <SCORE.heavy>
28

>  <SCORE.norm>
-0.489544

>  <RMSD>
14.862

$$$$
ligand
 OpenBabel11021811413D
libRbt.so/2013.1/901 2013/11/27
 28 32  0  0  0  0  0  0  0  0999 V2000
   45.3689   29.5885    7.6677 C   0  0  0  0  0  0  0  0  0  0  0  0
   44.7833   28.5889    8.6454 C   0  0  0  0  0  0  0  0  0  0  0  0
   45.8103   27.5489    9.0678 C   0  0  0  0  0  0  0  0  0  0  0  0
   41.5498   31.4197   13.1085 O   0  0  0  0  0  0  0  0  0  0  0  0
   41.7291   30.1683   13.7739 C   0  0  0  0  0  0  0  0  0  0  0  0
   40.9717   25.3244   13.2485 C   0  0  0  0  0  0  0  0  0  0  0  0
   41.6893   25.0591   14.4078 C   0  0  0  0  0  0  0  0  0  0  0  0
   42.2670   26.1143   15.1184 C   0  0  0  0  0  0  0  0  0  0  0  0
   42.1265   27.4300   14.6754 C   0  0  0  0  0  0  0  0  0  0  0  0
   41.1824   29.0130   12.9253 C   0  0  1  0  0  0  0  0  0  0  0  0
   41.3880   27.6695   13.5402 C   0  0  0  0  0  0  0  0  0  0  0  0
   40.8250   26.6300   12.8438 C   0  0  0  0  0  0  0  0  0  0  0  0
   40.1352   27.0079   11.6250 C   0  0  1  0  0  0  0  0  0  0  0  0
   37.8566   28.0070   11.5966 C   0  0  0  0  0  0  0  0  0  0  0  0
   39.1799   28.0477   11.9650 C   0  0  0  0  0  0  0  0  0  0  0  0
   39.7028   29.1103   12.6519 C   0  0  0  0  0  0  0  0  0  0  0  0
   38.8903   30.1822   12.9907 C   0  0  0  0  0  0  0  0  0  0  0  0
   37.5387   30.1460   12.6413 C   0  0  0  0  0  0  0  0  0  0  0  0
   37.0253   29.0578   11.9479 C   0  0  0  0  0  0  0  0  0  0  0  0
   45.1244   26.3387    9.6884 C   0  0  0  0  0  0  0  0  0  0  0  0
   44.7300   26.6313   11.1312 C   0  0  0  0  0  0  0  0  0  0  0  0
   44.1074   29.1005   12.1273 O   0  0  0  0  0  0  0  0  0  0  0  0
   42.2836   25.7181   10.0496 O   0  0  0  0  0  0  0  0  0  0  0  0
   42.3814   26.8100   10.5846 C   0  0  0  0  0  0  0  0  0  0  0  0
   43.4433   27.3076   11.0877 N   0  0  0  0  0  0  0  0  0  0  0  0
   43.2484   28.4421   11.6004 C   0  0  0  0  0  0  0  0  0  0  0  0
   41.8252   28.8764   11.5360 C   0  0  1  0  0  0  0  0  0  0  0  0
   41.2035   27.6956   10.7860 C   0  0  2  0  0  0  0  0  0  0  0  0
  1  2  1  0  0  0  0
  2  3  1  0  0  0  0
  3 20  1  0  0  0  0
  4  5  1  0  0  0  0
  6  7  2  0  0  0  0
  6 12  1  0  0  0  0
  7  8  1  0  0  0  0
  8  9  2  0  0  0  0
  9 11  1  0  0  0  0
 10  5  1  1  0  0  0
 10 11  1  0  0  0  0
 10 16  1  0  0  0  0
 10 27  1  0  0  0  0
 11 12  2  0  0  0  0
 13 12  1  1  0  0  0
 13 15  1  0  0  0  0
 13 28  1  0  0  0  0
 14 15  2  0  0  0  0
 14 19  1  0  0  0  0
 15 16  1  0  0  0  0
 16 17  2  0  0  0  0
 17 18  1  0  0  0  0
 18 19  2  0  0  0  0
 20 21  1  0  0  0  0
 21 25  1  0  0  0  0
 22 26  2  0  0  0  0
 23 24  2  0  0  0  0
 24 25  1  0  0  0  0
 25 26  1  0  0  0  0
 27 26  1  1  0  0  0
 27 28  1  0  0  0  0
 28 24  1  1  0  0  0
M  END
>  <CHROM.1>
-162.72770594,177.68856370,-79.07118931,84.58435621,59.76493096,41.86578549
27.99689248,11.80623732,0.14390376,0.54584265,-0.56787657

>  <Name>
ligand

>  <RI>
0

>  <Rbt.Current_Directory>
/home/itssahil/PROJECTS/Mol_Feturizer/New_Systems/rnas/1YLS

>  <Rbt.Executable>
rbdock ($Id: //depot/dev/client3/rdock/2013.1/src/exe/rbdock.cxx#4 $)

>  <Rbt.Library>
libRbt.so (2013.1, Build901 2013/11/27)

>  <Rbt.Parameter_File>
/export/apps/rDock/src/rDock_2013.1_src/data/scripts/dock_solv.prm

>  <Rbt.Receptor>
prm/blind_docking_100.prm

>  <SCORE>
-17.0513

>  <SCORE.INTER>
-15.127

>  <SCORE.INTER.CONST>
1

>  <SCORE.INTER.POLAR>
0

>  <SCORE.INTER.ROT>
5

>  <SCORE.INTER.SOLV>
9.89718

>  <SCORE.INTER.VDW>
-20.317

>  <SCORE.INTER.norm>
-0.540248

>  <SCORE.INTRA>
-1.93176

>  <SCORE.INTRA.DIHEDRAL>
-5.02776

>  <SCORE.INTRA.DIHEDRAL.0>
12.0148

>  <SCORE.INTRA.POLAR>
0

>  <SCORE.INTRA.POLAR.0>
0

>  <SCORE.INTRA.REPUL>
0

>  <SCORE.INTRA.REPUL.0>
0

>  <SCORE.INTRA.SOLV>
0.764246

>  <SCORE.INTRA.SOLV.lig_0>
-10.5235

>  <SCORE.INTRA.VDW>
0.2

>  <SCORE.INTRA.VDW.0>
-1.38455

>  <SCORE.INTRA.norm>
-0.0689913

>  <SCORE.RESTR>
0.00741165

>  <SCORE.RESTR.CAVITY>
0.00741165

>  <SCORE.RESTR.norm>
0.000264702

>  <SCORE.SYSTEM>
0

>  <SCORE.SYSTEM.CONST>
0

>  <SCORE.SYSTEM.DIHEDRAL>
0

>  <SCORE.SYSTEM.SOLV>
0

>  <SCORE.SYSTEM.norm>
0

>  <SCORE.heavy>
28

>  <SCORE.norm>
-0.608975

>  <RMSD>
14.867

$$$$
ligand
 OpenBabel11021811413D
libRbt.so/2013.1/901 2013/11/27
 28 32  0  0  0  0  0  0  0  0999 V2000
   45.1764   22.7364   13.1399 C   0  0  0  0  0  0  0  0  0  0  0  0
   46.1953   23.8548   13.2345 C   0  0  0  0  0  0  0  0  0  0  0  0
   46.1714   24.7423   11.9990 C   0  0  0  0  0  0  0  0  0  0  0  0
   41.8792   31.7221   11.0519 O   0  0  0  0  0  0  0  0  0  0  0  0
   42.3360   30.8845   12.1153 C   0  0  0  0  0  0  0  0  0  0  0  0
   41.8132   26.3702   14.0287 C   0  0  0  0  0  0  0  0  0  0  0  0
   42.8134   26.6196   14.9597 C   0  0  0  0  0  0  0  0  0  0  0  0
   43.4744   27.8505   14.9492 C   0  0  0  0  0  0  0  0  0  0  0  0
   43.1362   28.8304   14.0152 C   0  0  0  0  0  0  0  0  0  0  0  0
   41.6777   29.5005   12.0444 C   0  0  1  0  0  0  0  0  0  0  0  0
   42.1236   28.5700   13.1218 C   0  0  0  0  0  0  0  0  0  0  0  0
   41.4792   27.3587   13.1335 C   0  0  0  0  0  0  0  0  0  0  0  0
   40.4831   27.1814   12.0941 C   0  0  1  0  0  0  0  0  0  0  0  0
   38.2049   28.1762   12.1991 C   0  0  0  0  0  0  0  0  0  0  0  0
   39.5720   28.3105   12.1614 C   0  0  0  0  0  0  0  0  0  0  0  0
   40.1736   29.5401   12.1412 C   0  0  0  0  0  0  0  0  0  0  0  0
   39.3978   30.6899   12.1569 C   0  0  0  0  0  0  0  0  0  0  0  0
   38.0078   30.5697   12.2161 C   0  0  0  0  0  0  0  0  0  0  0  0
   37.4156   29.3138   12.2397 C   0  0  0  0  0  0  0  0  0  0  0  0
   44.9097   25.5954   11.9756 C   0  0  0  0  0  0  0  0  0  0  0  0
   44.8253   26.3866   10.6757 C   0  0  0  0  0  0  0  0  0  0  0  0
   44.2986   29.0682   10.5801 O   0  0  0  0  0  0  0  0  0  0  0  0
   42.2568   25.2112   10.7777 O   0  0  0  0  0  0  0  0  0  0  0  0
   42.4079   26.4204   10.7220 C   0  0  0  0  0  0  0  0  0  0  0  0
   43.5241   27.0359   10.6611 N   0  0  0  0  0  0  0  0  0  0  0  0
   43.3838   28.2881   10.6413 C   0  0  0  0  0  0  0  0  0  0  0  0
   41.9626   28.7193   10.7519 C   0  0  1  0  0  0  0  0  0  0  0  0
   41.2581   27.3609   10.7959 C   0  0  2  0  0  0  0  0  0  0  0  0
  1  2  1  0  0  0  0
  2  3  1  0  0  0  0
  3 20  1  0  0  0  0
  4  5  1  0  0  0  0
  6  7  2  0  0  0  0
  6 12  1  0  0  0  0
  7  8  1  0  0  0  0
  8  9  2  0  0  0  0
  9 11  1  0  0  0  0
 10  5  1  1  0  0  0
 10 11  1  0  0  0  0
 10 16  1  0  0  0  0
 10 27  1  0  0  0  0
 11 12  2  0  0  0  0
 13 12  1  1  0  0  0
 13 15  1  0  0  0  0
 13 28  1  0  0  0  0
 14 15  2  0  0  0  0
 14 19  1  0  0  0  0
 15 16  1  0  0  0  0
 16 17  2  0  0  0  0
 17 18  1  0  0  0  0
 18 19  2  0  0  0  0
 20 21  1  0  0  0  0
 21 25  1  0  0  0  0
 22 26  2  0  0  0  0
 23 24  2  0  0  0  0
 24 25  1  0  0  0  0
 25 26  1  0  0  0  0
 27 26  1  1  0  0  0
 27 28  1  0  0  0  0
 28 24  1  1  0  0  0
M  END
>  <CHROM.1>
71.60191298,179.40958788,-174.74742766,173.00028984,-58.93272125,42.27700342
27.69159924,12.10678296,0.70319444,-0.31071066,2.72145197

>  <Name>
ligand

>  <RI>
0

>  <Rbt.Current_Directory>
/home/itssahil/PROJECTS/Mol_Feturizer/New_Systems/rnas/1YLS

>  <Rbt.Executable>
rbdock ($Id: //depot/dev/client3/rdock/2013.1/src/exe/rbdock.cxx#4 $)

>  <Rbt.Library>
libRbt.so (2013.1, Build901 2013/11/27)

>  <Rbt.Parameter_File>
/export/apps/rDock/src/rDock_2013.1_src/data/scripts/dock_solv.prm

>  <Rbt.Receptor>
prm/blind_docking_60.prm

>  <SCORE>
-14.3432

>  <SCORE.INTER>
-10.7617

>  <SCORE.INTER.CONST>
1

>  <SCORE.INTER.POLAR>
0

>  <SCORE.INTER.ROT>
5

>  <SCORE.INTER.SOLV>
6.63367

>  <SCORE.INTER.VDW>
-16.319

>  <SCORE.INTER.norm>
-0.384347

>  <SCORE.INTRA>
-3.5866

>  <SCORE.INTRA.DIHEDRAL>
-8.764

>  <SCORE.INTRA.DIHEDRAL.0>
12.0148

>  <SCORE.INTRA.POLAR>
0

>  <SCORE.INTRA.POLAR.0>
0

>  <SCORE.INTRA.REPUL>
0

>  <SCORE.INTRA.REPUL.0>
0

>  <SCORE.INTRA.SOLV>
0.193357

>  <SCORE.INTRA.SOLV.lig_0>
-10.5235

>  <SCORE.INTRA.VDW>
0.698718

>  <SCORE.INTRA.VDW.0>
-1.38455

>  <SCORE.INTRA.norm>
-0.128093

>  <SCORE.RESTR>
0.00509885

>  <SCORE.RESTR.CAVITY>
0.00509885

>  <SCORE.RESTR.norm>
0.000182102

>  <SCORE.SYSTEM>
0

>  <SCORE.SYSTEM.CONST>
0

>  <SCORE.SYSTEM.DIHEDRAL>
0

>  <SCORE.SYSTEM.SOLV>
0

>  <SCORE.SYSTEM.norm>
0

>  <SCORE.heavy>
28

>  <SCORE.norm>
-0.512258

>  <RMSD>
14.869

$$$$
ligand
 OpenBabel11021811413D
libRbt.so/2013.1/901 2013/11/27
 28 32  0  0  0  0  0  0  0  0999 V2000
   38.4130   30.3571   12.3502 C   0  0  0  0  0  0  0  0  0  0  0  0
   39.6186   29.6691   11.7409 C   0  0  0  0  0  0  0  0  0  0  0  0
   40.7611   29.5501   12.7386 C   0  0  0  0  0  0  0  0  0  0  0  0
   43.8590   28.4309   10.6570 O   0  0  0  0  0  0  0  0  0  0  0  0
   44.5219   27.1658   10.6253 C   0  0  0  0  0  0  0  0  0  0  0  0
   40.3464   25.0511   12.1763 C   0  0  0  0  0  0  0  0  0  0  0  0
   39.5883   25.9054   11.3858 C   0  0  0  0  0  0  0  0  0  0  0  0
   40.2264   26.8828   10.6179 C   0  0  0  0  0  0  0  0  0  0  0  0
   41.6163   27.0052   10.6362 C   0  0  0  0  0  0  0  0  0  0  0  0
   43.8303   26.1610   11.5557 C   0  0  1  0  0  0  0  0  0  0  0  0
   42.3464   26.1296   11.4053 C   0  0  0  0  0  0  0  0  0  0  0  0
   41.7156   25.1733   12.1602 C   0  0  0  0  0  0  0  0  0  0  0  0
   42.5921   24.3621   12.9835 C   0  0  1  0  0  0  0  0  0  0  0  0
   43.9547   22.4817   12.0900 C   0  0  0  0  0  0  0  0  0  0  0  0
   43.6241   23.8152   12.1203 C   0  0  0  0  0  0  0  0  0  0  0  0
   44.2870   24.7380   11.3565 C   0  0  0  0  0  0  0  0  0  0  0  0
   45.3224   24.3335   10.5268 C   0  0  0  0  0  0  0  0  0  0  0  0
   45.6563   22.9787   10.4696 C   0  0  0  0  0  0  0  0  0  0  0  0
   44.9699   22.0567   11.2490 C   0  0  0  0  0  0  0  0  0  0  0  0
   40.3905   28.5970   13.8674 C   0  0  0  0  0  0  0  0  0  0  0  0
   41.5419   28.4708   14.8580 C   0  0  0  0  0  0  0  0  0  0  0  0
   43.6226   28.7590   13.1073 O   0  0  0  0  0  0  0  0  0  0  0  0
   41.5070   25.6956   15.3929 O   0  0  0  0  0  0  0  0  0  0  0  0
   42.3262   26.1940   14.6389 C   0  0  0  0  0  0  0  0  0  0  0  0
   42.4242   27.4329   14.3490 N   0  0  0  0  0  0  0  0  0  0  0  0
   43.3452   27.6628   13.5201 C   0  0  0  0  0  0  0  0  0  0  0  0
   44.0356   26.4277   13.0553 C   0  0  1  0  0  0  0  0  0  0  0  0
   43.3022   25.3670   13.8803 C   0  0  2  0  0  0  0  0  0  0  0  0
  1  2  1  0  0  0  0
  2  3  1  0  0  0  0
  3 20  1  0  0  0  0
  4  5  1  0  0  0  0
  6  7  2  0  0  0  0
  6 12  1  0  0  0  0
  7  8  1  0  0  0  0
  8  9  2  0  0  0  0
  9 11  1  0  0  0  0
 10  5  1  6  0  0  0
 10 11  1  0  0  0  0
 10 16  1  0  0  0  0
 10 27  1  0  0  0  0
 11 12  2  0  0  0  0
 13 12  1  6  0  0  0
 13 15  1  0  0  0  0
 13 28  1  0  0  0  0
 14 15  2  0  0  0  0
 14 19  1  0  0  0  0
 15 16  1  0  0  0  0
 16 17  2  0  0  0  0
 17 18  1  0  0  0  0
 18 19  2  0  0  0  0
 20 21  1  0  0  0  0
 21 25  1  0  0  0  0
 22 26  2  0  0  0  0
 23 24  2  0  0  0  0
 24 25  1  0  0  0  0
 25 26  1  0  0  0  0
 27 26  1  1  0  0  0
 27 28  1  0  0  0  0
 28 24  1  1  0  0  0
M  END
>  <CHROM.1>
67.18056507,46.95738007,179.49689613,-86.05207631,-90.41730235,42.44921656
26.45614778,12.39380814,-2.83522265,-0.87754481,2.21953250

>  <Name>
ligand

>  <RI>
0

>  <Rbt.Current_Directory>
/home/itssahil/PROJECTS/Mol_Feturizer/New_Systems/rnas/1YLS

>  <Rbt.Executable>
rbdock ($Id: //depot/dev/client3/rdock/2013.1/src/exe/rbdock.cxx#4 $)

>  <Rbt.Library>
libRbt.so (2013.1, Build901 2013/11/27)

>  <Rbt.Parameter_File>
/export/apps/rDock/src/rDock_2013.1_src/data/scripts/dock_solv.prm

>  <Rbt.Receptor>
prm/blind_docking_100.prm

>  <SCORE>
-4.31886

>  <SCORE.INTER>
-2.0056

>  <SCORE.INTER.CONST>
1

>  <SCORE.INTER.POLAR>
0

>  <SCORE.INTER.ROT>
5

>  <SCORE.INTER.SOLV>
11.4377

>  <SCORE.INTER.VDW>
-12.083

>  <SCORE.INTER.norm>
-0.0716286

>  <SCORE.INTRA>
-2.31326

>  <SCORE.INTRA.DIHEDRAL>
-6.50273

>  <SCORE.INTRA.DIHEDRAL.0>
12.0148

>  <SCORE.INTRA.POLAR>
0

>  <SCORE.INTRA.POLAR.0>
0

>  <SCORE.INTRA.REPUL>
0

>  <SCORE.INTRA.REPUL.0>
0

>  <SCORE.INTRA.SOLV>
0.907488

>  <SCORE.INTRA.SOLV.lig_0>
-10.5235

>  <SCORE.INTRA.VDW>
0.484359

>  <SCORE.INTRA.VDW.0>
-1.38455

>  <SCORE.INTRA.norm>
-0.0826165

>  <SCORE.RESTR>
0

>  <SCORE.RESTR.CAVITY>
0

>  <SCORE.RESTR.norm>
0

>  <SCORE.SYSTEM>
0

>  <SCORE.SYSTEM.CONST>
0

>  <SCORE.SYSTEM.DIHEDRAL>
0

>  <SCORE.SYSTEM.SOLV>
0

>  <SCORE.SYSTEM.norm>
0

>  <SCORE.heavy>
28

>  <SCORE.norm>
-0.154245

>  <RMSD>
14.874

$$$$
ligand
 OpenBabel11021811413D
libRbt.so/2013.1/901 2013/11/27
 28 32  0  0  0  0  0  0  0  0999 V2000
   46.5538   21.9508   12.0037 C   0  0  0  0  0  0  0  0  0  0  0  0
   45.6475   23.1054   12.3823 C   0  0  0  0  0  0  0  0  0  0  0  0
   45.8561   24.3054   11.4705 C   0  0  0  0  0  0  0  0  0  0  0  0
   42.1137   31.5164   13.4463 O   0  0  0  0  0  0  0  0  0  0  0  0
   42.3839   30.9021   12.1850 C   0  0  0  0  0  0  0  0  0  0  0  0
   41.8377   26.3506   14.0012 C   0  0  0  0  0  0  0  0  0  0  0  0
   42.8504   26.5691   14.9263 C   0  0  0  0  0  0  0  0  0  0  0  0
   43.5233   27.7936   14.9365 C   0  0  0  0  0  0  0  0  0  0  0  0
   43.1845   28.7977   14.0287 C   0  0  0  0  0  0  0  0  0  0  0  0
   41.7113   29.5265   12.0900 C   0  0  1  0  0  0  0  0  0  0  0  0
   42.1597   28.5674   13.1410 C   0  0  0  0  0  0  0  0  0  0  0  0
   41.5037   27.3624   13.1324 C   0  0  0  0  0  0  0  0  0  0  0  0
   40.4946   27.2184   12.1004 C   0  0  1  0  0  0  0  0  0  0  0  0
   38.2275   28.2323   12.2532 C   0  0  0  0  0  0  0  0  0  0  0  0
   39.5954   28.3543   12.2034 C   0  0  0  0  0  0  0  0  0  0  0  0
   40.2088   29.5782   12.2045 C   0  0  0  0  0  0  0  0  0  0  0  0
   39.4446   30.7348   12.2549 C   0  0  0  0  0  0  0  0  0  0  0  0
   38.0541   30.6266   12.3268 C   0  0  0  0  0  0  0  0  0  0  0  0
   37.4500   29.3761   12.3285 C   0  0  0  0  0  0  0  0  0  0  0  0
   44.7809   25.3567   11.7128 C   0  0  0  0  0  0  0  0  0  0  0  0
   44.8130   26.4146   10.6161 C   0  0  0  0  0  0  0  0  0  0  0  0
   44.3117   29.1026   10.5872 O   0  0  0  0  0  0  0  0  0  0  0  0
   42.2344   25.2618   10.7200 O   0  0  0  0  0  0  0  0  0  0  0  0
   42.3967   26.4704   10.6900 C   0  0  0  0  0  0  0  0  0  0  0  0
   43.5182   27.0765   10.6307 N   0  0  0  0  0  0  0  0  0  0  0  0
   43.3900   28.3301   10.6409 C   0  0  0  0  0  0  0  0  0  0  0  0
   41.9744   28.7723   10.7771 C   0  0  1  0  0  0  0  0  0  0  0  0
   41.2571   27.4200   10.7981 C   0  0  2  0  0  0  0  0  0  0  0  0
  1  2  1  0  0  0  0
  2  3  1  0  0  0  0
  3 20  1  0  0  0  0
  4  5  1  0  0  0  0
  6  7  2  0  0  0  0
  6 12  1  0  0  0  0
  7  8  1  0  0  0  0
  8  9  2  0  0  0  0
  9 11  1  0  0  0  0
 10  5  1  1  0  0  0
 10 11  1  0  0  0  0
 10 16  1  0  0  0  0
 10 27  1  0  0  0  0
 11 12  2  0  0  0  0
 13 12  1  1  0  0  0
 13 15  1  0  0  0  0
 13 28  1  0  0  0  0
 14 15  2  0  0  0  0
 14 19  1  0  0  0  0
 15 16  1  0  0  0  0
 16 17  2  0  0  0  0
 17 18  1  0  0  0  0
 18 19  2  0  0  0  0
 20 21  1  0  0  0  0
 21 25  1  0  0  0  0
 22 26  2  0  0  0  0
 23 24  2  0  0  0  0
 24 25  1  0  0  0  0
 25 26  1  0  0  0  0
 27 26  1  1  0  0  0
 27 28  1  0  0  0  0
 28 24  1  1  0  0  0
M  END
>  <CHROM.1>
170.33673821,-59.67584449,-168.22909027,160.05999080,-46.18572759,42.32227953
27.61670857,12.11402638,0.80456418,-0.02250608,-3.04948692

>  <Name>
ligand

>  <RI>
0

>  <Rbt.Current_Directory>
/home/itssahil/PROJECTS/Mol_Feturizer/New_Systems/rnas/1YLS

>  <Rbt.Executable>
rbdock ($Id: //depot/dev/client3/rdock/2013.1/src/exe/rbdock.cxx#4 $)

>  <Rbt.Library>
libRbt.so (2013.1, Build901 2013/11/27)

>  <Rbt.Parameter_File>
/export/apps/rDock/src/rDock_2013.1_src/data/scripts/dock_solv.prm

>  <Rbt.Receptor>
prm/blind_docking_80.prm

>  <SCORE>
-14.3925

>  <SCORE.INTER>
-11.7971

>  <SCORE.INTER.CONST>
1

>  <SCORE.INTER.POLAR>
0

>  <SCORE.INTER.ROT>
5

>  <SCORE.INTER.SOLV>
6.70588

>  <SCORE.INTER.VDW>
-17.0333

>  <SCORE.INTER.norm>
-0.421324

>  <SCORE.INTRA>
-2.63533

>  <SCORE.INTRA.DIHEDRAL>
-7.40569

>  <SCORE.INTRA.DIHEDRAL.0>
12.0148

>  <SCORE.INTRA.POLAR>
0

>  <SCORE.INTRA.POLAR.0>
0

>  <SCORE.INTRA.REPUL>
0

>  <SCORE.INTRA.REPUL.0>
0

>  <SCORE.INTRA.SOLV>
0.0560547

>  <SCORE.INTRA.SOLV.lig_0>
-10.5235

>  <SCORE.INTRA.VDW>
1.03949

>  <SCORE.INTRA.VDW.0>
-1.38455

>  <SCORE.INTRA.norm>
-0.0941189

>  <SCORE.RESTR>
0.0398615

>  <SCORE.RESTR.CAVITY>
0.0398615

>  <SCORE.RESTR.norm>
0.00142362

>  <SCORE.SYSTEM>
0

>  <SCORE.SYSTEM.CONST>
0

>  <SCORE.SYSTEM.DIHEDRAL>
0

>  <SCORE.SYSTEM.SOLV>
0

>  <SCORE.SYSTEM.norm>
0

>  <SCORE.heavy>
28

>  <SCORE.norm>
-0.514019

>  <RMSD>
14.876

$$$$
ligand
 OpenBabel11021811413D
libRbt.so/2013.1/901 2013/11/27
 28 32  0  0  0  0  0  0  0  0999 V2000
   45.3277   21.6263   11.2429 C   0  0  0  0  0  0  0  0  0  0  0  0
   46.1878   22.5319   12.1019 C   0  0  0  0  0  0  0  0  0  0  0  0
   46.4184   23.8818   11.4390 C   0  0  0  0  0  0  0  0  0  0  0  0
   42.5407   31.1771   12.1283 O   0  0  0  0  0  0  0  0  0  0  0  0
   42.8561   30.0733   12.9788 C   0  0  0  0  0  0  0  0  0  0  0  0
   41.9993   25.2581   13.6052 C   0  0  0  0  0  0  0  0  0  0  0  0
   42.9228   25.2010   14.6411 C   0  0  0  0  0  0  0  0  0  0  0  0
   43.6277   26.3524   15.0013 C   0  0  0  0  0  0  0  0  0  0  0  0
   43.4095   27.5573   14.3322 C   0  0  0  0  0  0  0  0  0  0  0  0
   42.1553   28.7951   12.5007 C   0  0  1  0  0  0  0  0  0  0  0  0
   42.4699   27.5948   13.3286 C   0  0  0  0  0  0  0  0  0  0  0  0
   41.7822   26.4611   12.9761 C   0  0  0  0  0  0  0  0  0  0  0  0
   40.8750   26.6153   11.8548 C   0  0  1  0  0  0  0  0  0  0  0  0
   38.6351   27.6821   12.0444 C   0  0  0  0  0  0  0  0  0  0  0  0
   40.0044   27.7409   12.1455 C   0  0  0  0  0  0  0  0  0  0  0  0
   40.6510   28.8969   12.4915 C   0  0  0  0  0  0  0  0  0  0  0  0
   39.9204   30.0478   12.7481 C   0  0  0  0  0  0  0  0  0  0  0  0
   38.5270   29.9984   12.6696 C   0  0  0  0  0  0  0  0  0  0  0  0
   37.8885   28.8155   12.3208 C   0  0  0  0  0  0  0  0  0  0  0  0
   45.1601   24.7371   11.5115 C   0  0  0  0  0  0  0  0  0  0  0  0
   45.2919   25.9571   10.6076 C   0  0  0  0  0  0  0  0  0  0  0  0
   44.8763   28.5995   11.1748 O   0  0  0  0  0  0  0  0  0  0  0  0
   42.6823   24.9480   10.2072 O   0  0  0  0  0  0  0  0  0  0  0  0
   42.8828   26.1199   10.4799 C   0  0  0  0  0  0  0  0  0  0  0  0
   44.0222   26.6637   10.6653 N   0  0  0  0  0  0  0  0  0  0  0  0
   43.9312   27.8851   10.9620 C   0  0  0  0  0  0  0  0  0  0  0  0
   42.5228   28.3563   11.0743 C   0  0  1  0  0  0  0  0  0  0  0  0
   41.7669   27.0760   10.7100 C   0  0  2  0  0  0  0  0  0  0  0  0
  1  2  1  0  0  0  0
  2  3  1  0  0  0  0
  3 20  1  0  0  0  0
  4  5  1  0  0  0  0
  6  7  2  0  0  0  0
  6 12  1  0  0  0  0
  7  8  1  0  0  0  0
  8  9  2  0  0  0  0
  9 11  1  0  0  0  0
 10  5  1  1  0  0  0
 10 11  1  0  0  0  0
 10 16  1  0  0  0  0
 10 27  1  0  0  0  0
 11 12  2  0  0  0  0
 13 12  1  1  0  0  0
 13 15  1  0  0  0  0
 13 28  1  0  0  0  0
 14 15  2  0  0  0  0
 14 19  1  0  0  0  0
 15 16  1  0  0  0  0
 16 17  2  0  0  0  0
 17 18  1  0  0  0  0
 18 19  2  0  0  0  0
 20 21  1  0  0  0  0
 21 25  1  0  0  0  0
 22 26  2  0  0  0  0
 23 24  2  0  0  0  0
 24 25  1  0  0  0  0
 25 26  1  0  0  0  0
 27 26  1  1  0  0  0
 27 28  1  0  0  0  0
 28 24  1  1  0  0  0
M  END
>  <CHROM.1>
74.23803596,178.60186750,-168.28828311,176.17406858,-50.97402198,42.67108369
26.97553090,12.07466464,0.80492745,-0.22363583,3.09526308

>  <Name>
ligand

>  <RI>
0

>  <Rbt.Current_Directory>
/home/itssahil/PROJECTS/Mol_Feturizer/New_Systems/rnas/1YLS

>  <Rbt.Executable>
rbdock ($Id: //depot/dev/client3/rdock/2013.1/src/exe/rbdock.cxx#4 $)

>  <Rbt.Library>
libRbt.so (2013.1, Build901 2013/11/27)

>  <Rbt.Parameter_File>
/export/apps/rDock/src/rDock_2013.1_src/data/scripts/dock_solv.prm

>  <Rbt.Receptor>
prm/blind_docking_80.prm

>  <SCORE>
-13.5414

>  <SCORE.INTER>
-10.7647

>  <SCORE.INTER.CONST>
1

>  <SCORE.INTER.POLAR>
0

>  <SCORE.INTER.ROT>
5

>  <SCORE.INTER.SOLV>
7.91612

>  <SCORE.INTER.VDW>
-16.7485

>  <SCORE.INTER.norm>
-0.384452

>  <SCORE.INTRA>
-2.77679

>  <SCORE.INTRA.DIHEDRAL>
-8.26006

>  <SCORE.INTRA.DIHEDRAL.0>
12.0148

>  <SCORE.INTRA.POLAR>
0

>  <SCORE.INTRA.POLAR.0>
0

>  <SCORE.INTRA.REPUL>
0

>  <SCORE.INTRA.REPUL.0>
0

>  <SCORE.INTRA.SOLV>
0.219817

>  <SCORE.INTRA.SOLV.lig_0>
-10.5235

>  <SCORE.INTRA.VDW>
1.24333

>  <SCORE.INTRA.VDW.0>
-1.38455

>  <SCORE.INTRA.norm>
-0.099171

>  <SCORE.RESTR>
0

>  <SCORE.RESTR.CAVITY>
0

>  <SCORE.RESTR.norm>
0

>  <SCORE.SYSTEM>
0

>  <SCORE.SYSTEM.CONST>
0

>  <SCORE.SYSTEM.DIHEDRAL>
0

>  <SCORE.SYSTEM.SOLV>
0

>  <SCORE.SYSTEM.norm>
0

>  <SCORE.heavy>
28

>  <SCORE.norm>
-0.483623

>  <RMSD>
14.877

$$$$
ligand
 OpenBabel11021811413D
libRbt.so/2013.1/901 2013/11/27
 28 32  0  0  0  0  0  0  0  0999 V2000
   45.4297   21.5798   11.4099 C   0  0  0  0  0  0  0  0  0  0  0  0
   46.2575   22.5186   12.2650 C   0  0  0  0  0  0  0  0  0  0  0  0
   46.4825   23.8556   11.5747 C   0  0  0  0  0  0  0  0  0  0  0  0
   42.4538   31.1306   11.9835 O   0  0  0  0  0  0  0  0  0  0  0  0
   42.8180   30.0534   12.8484 C   0  0  0  0  0  0  0  0  0  0  0  0
   42.0243   25.2534   13.6500 C   0  0  0  0  0  0  0  0  0  0  0  0
   42.9374   25.2495   14.6967 C   0  0  0  0  0  0  0  0  0  0  0  0
   43.6216   26.4241   15.0196 C   0  0  0  0  0  0  0  0  0  0  0  0
   43.3932   27.5992   14.3027 C   0  0  0  0  0  0  0  0  0  0  0  0
   42.1409   28.7476   12.4124 C   0  0  1  0  0  0  0  0  0  0  0  0
   42.4640   27.5845   13.2889 C   0  0  0  0  0  0  0  0  0  0  0  0
   41.7966   26.4281   12.9731 C   0  0  0  0  0  0  0  0  0  0  0  0
   40.8993   26.5259   11.8376 C   0  0  1  0  0  0  0  0  0  0  0  0
   38.6423   27.5657   11.9634 C   0  0  0  0  0  0  0  0  0  0  0  0
   40.0094   27.6487   12.0761 C   0  0  0  0  0  0  0  0  0  0  0  0
   40.6355   28.8266   12.3841 C   0  0  0  0  0  0  0  0  0  0  0  0
   39.8856   29.9754   12.5890 C   0  0  0  0  0  0  0  0  0  0  0  0
   38.4939   29.9023   12.4984 C   0  0  0  0  0  0  0  0  0  0  0  0
   37.8764   28.6977   12.1886 C   0  0  0  0  0  0  0  0  0  0  0  0
   45.2118   24.6949   11.6034 C   0  0  0  0  0  0  0  0  0  0  0  0
   45.3384   25.8863   10.6614 C   0  0  0  0  0  0  0  0  0  0  0  0
   44.8785   28.5420   11.1228 O   0  0  0  0  0  0  0  0  0  0  0  0
   42.7480   24.8240   10.2734 O   0  0  0  0  0  0  0  0  0  0  0  0
   42.9286   26.0084   10.5031 C   0  0  0  0  0  0  0  0  0  0  0  0
   44.0580   26.5757   10.6791 N   0  0  0  0  0  0  0  0  0  0  0  0
   43.9461   27.8060   10.9278 C   0  0  0  0  0  0  0  0  0  0  0  0
   42.5300   28.2602   11.0078 C   0  0  1  0  0  0  0  0  0  0  0  0
   41.7966   26.9558   10.6851 C   0  0  2  0  0  0  0  0  0  0  0  0
  1  2  1  0  0  0  0
  2  3  1  0  0  0  0
  3 20  1  0  0  0  0
  4  5  1  0  0  0  0
  6  7  2  0  0  0  0
  6 12  1  0  0  0  0
  7  8  1  0  0  0  0
  8  9  2  0  0  0  0
  9 11  1  0  0  0  0
 10  5  1  1  0  0  0
 10 11  1  0  0  0  0
 10 16  1  0  0  0  0
 10 27  1  0  0  0  0
 11 12  2  0  0  0  0
 13 12  1  1  0  0  0
 13 15  1  0  0  0  0
 13 28  1  0  0  0  0
 14 15  2  0  0  0  0
 14 19  1  0  0  0  0
 15 16  1  0  0  0  0
 16 17  2  0  0  0  0
 17 18  1  0  0  0  0
 18 19  2  0  0  0  0
 20 21  1  0  0  0  0
 21 25  1  0  0  0  0
 22 26  2  0  0  0  0
 23 24  2  0  0  0  0
 24 25  1  0  0  0  0
 25 26  1  0  0  0  0
 27 26  1  1  0  0  0
 27 28  1  0  0  0  0
 28 24  1  1  0  0  0
M  END
>  <CHROM.1>
74.41607363,-179.11900430,-167.64110342,176.12032608,-50.63470758,42.68505235
26.92024776,12.05916160,0.79308737,-0.20867984,3.06285819

>  <Name>
ligand

>  <RI>
0

>  <Rbt.Current_Directory>
/home/itssahil/PROJECTS/Mol_Feturizer/New_Systems/rnas/1YLS

>  <Rbt.Executable>
rbdock ($Id: //depot/dev/client3/rdock/2013.1/src/exe/rbdock.cxx#4 $)

>  <Rbt.Library>
libRbt.so (2013.1, Build901 2013/11/27)

>  <Rbt.Parameter_File>
/export/apps/rDock/src/rDock_2013.1_src/data/scripts/dock_solv.prm

>  <Rbt.Receptor>
prm/blind_docking_60.prm

>  <SCORE>
-13.5455

>  <SCORE.INTER>
-10.8618

>  <SCORE.INTER.CONST>
1

>  <SCORE.INTER.POLAR>
0

>  <SCORE.INTER.ROT>
5

>  <SCORE.INTER.SOLV>
7.58188

>  <SCORE.INTER.VDW>
-16.7018

>  <SCORE.INTER.norm>
-0.387921

>  <SCORE.INTRA>
-2.6837

>  <SCORE.INTRA.DIHEDRAL>
-8.17548

>  <SCORE.INTRA.DIHEDRAL.0>
12.0148

>  <SCORE.INTRA.POLAR>
0

>  <SCORE.INTRA.POLAR.0>
0

>  <SCORE.INTRA.REPUL>
0

>  <SCORE.INTRA.REPUL.0>
0

>  <SCORE.INTRA.SOLV>
0.207495

>  <SCORE.INTRA.SOLV.lig_0>
-10.5235

>  <SCORE.INTRA.VDW>
1.30029

>  <SCORE.INTRA.VDW.0>
-1.38455

>  <SCORE.INTRA.norm>
-0.0958466

>  <SCORE.RESTR>
0

>  <SCORE.RESTR.CAVITY>
0

>  <SCORE.RESTR.norm>
0

>  <SCORE.SYSTEM>
0

>  <SCORE.SYSTEM.CONST>
0

>  <SCORE.SYSTEM.DIHEDRAL>
0

>  <SCORE.SYSTEM.SOLV>
0

>  <SCORE.SYSTEM.norm>
0

>  <SCORE.heavy>
28

>  <SCORE.norm>
-0.483768

>  <RMSD>
14.882

$$$$
ligand
 OpenBabel11021811413D
libRbt.so/2013.1/901 2013/11/27
 28 32  0  0  0  0  0  0  0  0999 V2000
   46.8284   21.5826   10.1094 C   0  0  0  0  0  0  0  0  0  0  0  0
   45.9048   22.7726   10.2795 C   0  0  0  0  0  0  0  0  0  0  0  0
   46.2414   23.5702   11.5307 C   0  0  0  0  0  0  0  0  0  0  0  0
   42.3314   30.4572   14.0345 O   0  0  0  0  0  0  0  0  0  0  0  0
   42.8255   29.9859   12.7796 C   0  0  0  0  0  0  0  0  0  0  0  0
   41.9667   25.2175   13.6947 C   0  0  0  0  0  0  0  0  0  0  0  0
   42.8771   25.2270   14.7436 C   0  0  0  0  0  0  0  0  0  0  0  0
   43.5760   26.4000   15.0400 C   0  0  0  0  0  0  0  0  0  0  0  0
   43.3648   27.5603   14.2943 C   0  0  0  0  0  0  0  0  0  0  0  0
   42.1323   28.6789   12.3735 C   0  0  1  0  0  0  0  0  0  0  0  0
   42.4379   27.5332   13.2787 C   0  0  0  0  0  0  0  0  0  0  0  0
   41.7561   26.3784   12.9890 C   0  0  0  0  0  0  0  0  0  0  0  0
   40.8629   26.4605   11.8490 C   0  0  1  0  0  0  0  0  0  0  0  0
   38.6195   27.5326   11.9437 C   0  0  0  0  0  0  0  0  0  0  0  0
   39.9873   27.6003   12.0580 C   0  0  0  0  0  0  0  0  0  0  0  0
   40.6281   28.7770   12.3392 C   0  0  0  0  0  0  0  0  0  0  0  0
   39.8930   29.9401   12.5143 C   0  0  0  0  0  0  0  0  0  0  0  0
   38.5007   29.8832   12.4216 C   0  0  0  0  0  0  0  0  0  0  0  0
   37.8680   28.6796   12.1394 C   0  0  0  0  0  0  0  0  0  0  0  0
   45.1994   24.6547   11.7720 C   0  0  0  0  0  0  0  0  0  0  0  0
   45.2960   25.7345   10.7007 C   0  0  0  0  0  0  0  0  0  0  0  0
   44.8701   28.4064   11.0966 O   0  0  0  0  0  0  0  0  0  0  0  0
   42.6928   24.6972   10.3315 O   0  0  0  0  0  0  0  0  0  0  0  0
   42.8884   25.8843   10.5329 C   0  0  0  0  0  0  0  0  0  0  0  0
   44.0248   26.4408   10.6983 N   0  0  0  0  0  0  0  0  0  0  0  0
   43.9285   27.6782   10.9169 C   0  0  0  0  0  0  0  0  0  0  0  0
   42.5183   28.1527   10.9821 C   0  0  1  0  0  0  0  0  0  0  0  0
   41.7686   26.8506   10.6890 C   0  0  2  0  0  0  0  0  0  0  0  0
  1  2  1  0  0  0  0
  2  3  1  0  0  0  0
  3 20  1  0  0  0  0
  4  5  1  0  0  0  0
  6  7  2  0  0  0  0
  6 12  1  0  0  0  0
  7  8  1  0  0  0  0
  8  9  2  0  0  0  0
  9 11  1  0  0  0  0
 10  5  1  1  0  0  0
 10 11  1  0  0  0  0
 10 16  1  0  0  0  0
 10 27  1  0  0  0  0
 11 12  2  0  0  0  0
 13 12  1  1  0  0  0
 13 15  1  0  0  0  0
 13 28  1  0  0  0  0
 14 15  2  0  0  0  0
 14 19  1  0  0  0  0
 15 16  1  0  0  0  0
 16 17  2  0  0  0  0
 17 18  1  0  0  0  0
 18 19  2  0  0  0  0
 20 21  1  0  0  0  0
 21 25  1  0  0  0  0
 22 26  2  0  0  0  0
 23 24  2  0  0  0  0
 24 25  1  0  0  0  0
 25 26  1  0  0  0  0
 27 26  1  1  0  0  0
 27 28  1  0  0  0  0
 28 24  1  1  0  0  0
M  END
>  <CHROM.1>
-173.06556356,-65.70289818,-68.89067854,159.92273803,-56.19864271,42.69361273
26.82883956,12.01837449,0.78775497,0.18255230,-2.64482340

>  <Name>
ligand

>  <RI>
0

>  <Rbt.Current_Directory>
/home/itssahil/PROJECTS/Mol_Feturizer/New_Systems/rnas/1YLS

>  <Rbt.Executable>
rbdock ($Id: //depot/dev/client3/rdock/2013.1/src/exe/rbdock.cxx#4 $)

>  <Rbt.Library>
libRbt.so (2013.1, Build901 2013/11/27)

>  <Rbt.Parameter_File>
/export/apps/rDock/src/rDock_2013.1_src/data/scripts/dock_solv.prm

>  <Rbt.Receptor>
prm/blind_docking_100.prm

>  <SCORE>
-15.6524

>  <SCORE.INTER>
-12.6238

>  <SCORE.INTER.CONST>
1

>  <SCORE.INTER.POLAR>
0

>  <SCORE.INTER.ROT>
5

>  <SCORE.INTER.SOLV>
8.92909

>  <SCORE.INTER.VDW>
-18.3255

>  <SCORE.INTER.norm>
-0.450849

>  <SCORE.INTRA>
-3.03709

>  <SCORE.INTRA.DIHEDRAL>
-7.633

>  <SCORE.INTRA.DIHEDRAL.0>
12.0148

>  <SCORE.INTRA.POLAR>
0

>  <SCORE.INTRA.POLAR.0>
0

>  <SCORE.INTRA.REPUL>
0

>  <SCORE.INTRA.REPUL.0>
0

>  <SCORE.INTRA.SOLV>
0.145502

>  <SCORE.INTRA.SOLV.lig_0>
-10.5235

>  <SCORE.INTRA.VDW>
0.706655

>  <SCORE.INTRA.VDW.0>
-1.38455

>  <SCORE.INTRA.norm>
-0.108468

>  <SCORE.RESTR>
0.00847223

>  <SCORE.RESTR.CAVITY>
0.00847223

>  <SCORE.RESTR.norm>
0.00030258

>  <SCORE.SYSTEM>
0

>  <SCORE.SYSTEM.CONST>
0

>  <SCORE.SYSTEM.DIHEDRAL>
0

>  <SCORE.SYSTEM.SOLV>
0

>  <SCORE.SYSTEM.norm>
0

>  <SCORE.heavy>
28

>  <SCORE.norm>
-0.559014

>  <RMSD>
14.884

$$$$
ligand
 OpenBabel11021811413D
libRbt.so/2013.1/901 2013/11/27
 28 32  0  0  0  0  0  0  0  0999 V2000
   45.3934   21.5671   11.1938 C   0  0  0  0  0  0  0  0  0  0  0  0
   46.2108   22.4677   12.0986 C   0  0  0  0  0  0  0  0  0  0  0  0
   46.4534   23.8295   11.4649 C   0  0  0  0  0  0  0  0  0  0  0  0
   42.5388   31.1282   12.0697 O   0  0  0  0  0  0  0  0  0  0  0  0
   42.8368   30.0396   12.9457 C   0  0  0  0  0  0  0  0  0  0  0  0
   42.0123   25.2235   13.6075 C   0  0  0  0  0  0  0  0  0  0  0  0
   42.9204   25.1848   14.6578 C   0  0  0  0  0  0  0  0  0  0  0  0
   43.6098   26.3458   15.0169 C   0  0  0  0  0  0  0  0  0  0  0  0
   43.3913   27.5420   14.3325 C   0  0  0  0  0  0  0  0  0  0  0  0
   42.1544   28.7505   12.4699 C   0  0  1  0  0  0  0  0  0  0  0  0
   42.4669   27.5613   13.3146 C   0  0  0  0  0  0  0  0  0  0  0  0
   41.7944   26.4182   12.9631 C   0  0  0  0  0  0  0  0  0  0  0  0
   40.9030   26.5533   11.8268 C   0  0  1  0  0  0  0  0  0  0  0  0
   38.6514   27.6021   11.9718 C   0  0  0  0  0  0  0  0  0  0  0  0
   40.0184   27.6739   12.0930 C   0  0  0  0  0  0  0  0  0  0  0  0
   40.6496   28.8390   12.4370 C   0  0  0  0  0  0  0  0  0  0  0  0
   39.9053   29.9859   12.6709 C   0  0  0  0  0  0  0  0  0  0  0  0
   38.5137   29.9235   12.5719 C   0  0  0  0  0  0  0  0  0  0  0  0
   37.8908   28.7317   12.2255 C   0  0  0  0  0  0  0  0  0  0  0  0
   45.1935   24.6830   11.5286 C   0  0  0  0  0  0  0  0  0  0  0  0
   45.3439   25.9215   10.6531 C   0  0  0  0  0  0  0  0  0  0  0  0
   44.8969   28.5657   11.1873 O   0  0  0  0  0  0  0  0  0  0  0  0
   42.7494   24.8856   10.2235 O   0  0  0  0  0  0  0  0  0  0  0  0
   42.9356   26.0619   10.4874 C   0  0  0  0  0  0  0  0  0  0  0  0
   44.0674   26.6175   10.6845 N   0  0  0  0  0  0  0  0  0  0  0  0
   43.9612   27.8409   10.9674 C   0  0  0  0  0  0  0  0  0  0  0  0
   42.5473   28.3008   11.0538 C   0  0  1  0  0  0  0  0  0  0  0  0
   41.8081   27.0103   10.6910 C   0  0  2  0  0  0  0  0  0  0  0  0
  1  2  1  0  0  0  0
  2  3  1  0  0  0  0
  3 20  1  0  0  0  0
  4  5  1  0  0  0  0
  6  7  2  0  0  0  0
  6 12  1  0  0  0  0
  7  8  1  0  0  0  0
  8  9  2  0  0  0  0
  9 11  1  0  0  0  0
 10  5  1  1  0  0  0
 10 11  1  0  0  0  0
 10 16  1  0  0  0  0
 10 27  1  0  0  0  0
 11 12  2  0  0  0  0
 13 12  1  1  0  0  0
 13 15  1  0  0  0  0
 13 28  1  0  0  0  0
 14 15  2  0  0  0  0
 14 19  1  0  0  0  0
 15 16  1  0  0  0  0
 16 17  2  0  0  0  0
 17 18  1  0  0  0  0
 18 19  2  0  0  0  0
 20 21  1  0  0  0  0
 21 25  1  0  0  0  0
 22 26  2  0  0  0  0
 23 24  2  0  0  0  0
 24 25  1  0  0  0  0
 25 26  1  0  0  0  0
 27 26  1  1  0  0  0
 27 28  1  0  0  0  0
 28 24  1  1  0  0  0
M  END
>  <CHROM.1>
75.47336000,177.85310958,-168.46562341,175.44214371,-49.04106612,42.68957543
26.92565658,12.05659774,0.80344545,-0.20684719,3.09967901

>  <Name>
ligand

>  <RI>
0

>  <Rbt.Current_Directory>
/home/itssahil/PROJECTS/Mol_Feturizer/New_Systems/rnas/1YLS

>  <Rbt.Executable>
rbdock ($Id: //depot/dev/client3/rdock/2013.1/src/exe/rbdock.cxx#4 $)

>  <Rbt.Library>
libRbt.so (2013.1, Build901 2013/11/27)

>  <Rbt.Parameter_File>
/export/apps/rDock/src/rDock_2013.1_src/data/scripts/dock_solv.prm

>  <Rbt.Receptor>
prm/blind_docking_80.prm

>  <SCORE>
-13.4581

>  <SCORE.INTER>
-10.9147

>  <SCORE.INTER.CONST>
1

>  <SCORE.INTER.POLAR>
0

>  <SCORE.INTER.ROT>
5

>  <SCORE.INTER.SOLV>
7.75998

>  <SCORE.INTER.VDW>
-16.7965

>  <SCORE.INTER.norm>
-0.389812

>  <SCORE.INTRA>
-2.54339

>  <SCORE.INTRA.DIHEDRAL>
-8.12567

>  <SCORE.INTRA.DIHEDRAL.0>
12.0148

>  <SCORE.INTRA.POLAR>
0

>  <SCORE.INTRA.POLAR.0>
0

>  <SCORE.INTRA.REPUL>
0

>  <SCORE.INTRA.REPUL.0>
0

>  <SCORE.INTRA.SOLV>
0.23049

>  <SCORE.INTRA.SOLV.lig_0>
-10.5235

>  <SCORE.INTRA.VDW>
1.40419

>  <SCORE.INTRA.VDW.0>
-1.38455

>  <SCORE.INTRA.norm>
-0.0908355

>  <SCORE.RESTR>
0

>  <SCORE.RESTR.CAVITY>
0

>  <SCORE.RESTR.norm>
0

>  <SCORE.SYSTEM>
0

>  <SCORE.SYSTEM.CONST>
0

>  <SCORE.SYSTEM.DIHEDRAL>
0

>  <SCORE.SYSTEM.SOLV>
0

>  <SCORE.SYSTEM.norm>
0

>  <SCORE.heavy>
28

>  <SCORE.norm>
-0.480648

>  <RMSD>
14.887

$$$$
ligand
 OpenBabel11021811413D
libRbt.so/2013.1/901 2013/11/27
 28 32  0  0  0  0  0  0  0  0999 V2000
   46.7631   21.5105   10.1730 C   0  0  0  0  0  0  0  0  0  0  0  0
   45.8500   22.7103   10.3295 C   0  0  0  0  0  0  0  0  0  0  0  0
   46.2374   23.5578   11.5323 C   0  0  0  0  0  0  0  0  0  0  0  0
   42.3580   30.4403   14.0425 O   0  0  0  0  0  0  0  0  0  0  0  0
   42.8372   29.9810   12.7774 C   0  0  0  0  0  0  0  0  0  0  0  0
   41.9654   25.2139   13.6866 C   0  0  0  0  0  0  0  0  0  0  0  0
   42.8736   25.2203   14.7375 C   0  0  0  0  0  0  0  0  0  0  0  0
   43.5746   26.3915   15.0363 C   0  0  0  0  0  0  0  0  0  0  0  0
   43.3677   27.5529   14.2912 C   0  0  0  0  0  0  0  0  0  0  0  0
   42.1419   28.6760   12.3687 C   0  0  1  0  0  0  0  0  0  0  0  0
   42.4429   27.5288   13.2735 C   0  0  0  0  0  0  0  0  0  0  0  0
   41.7590   26.3759   12.9815 C   0  0  0  0  0  0  0  0  0  0  0  0
   40.8685   26.4610   11.8397 C   0  0  1  0  0  0  0  0  0  0  0  0
   38.6273   27.5382   11.9304 C   0  0  0  0  0  0  0  0  0  0  0  0
   39.9950   27.6026   12.0478 C   0  0  0  0  0  0  0  0  0  0  0  0
   40.6380   28.7776   12.3313 C   0  0  0  0  0  0  0  0  0  0  0  0
   39.9052   29.9423   12.5058 C   0  0  0  0  0  0  0  0  0  0  0  0
   38.5129   29.8887   12.4102 C   0  0  0  0  0  0  0  0  0  0  0  0
   37.8781   28.6868   12.1256 C   0  0  0  0  0  0  0  0  0  0  0  0
   45.2033   24.6495   11.7748 C   0  0  0  0  0  0  0  0  0  0  0  0
   45.3022   25.7257   10.7001 C   0  0  0  0  0  0  0  0  0  0  0  0
   44.8817   28.3982   11.0974 O   0  0  0  0  0  0  0  0  0  0  0  0
   42.6974   24.6947   10.3245 O   0  0  0  0  0  0  0  0  0  0  0  0
   42.8954   25.8812   10.5274 C   0  0  0  0  0  0  0  0  0  0  0  0
   44.0327   26.4350   10.6956 N   0  0  0  0  0  0  0  0  0  0  0  0
   43.9388   27.6723   10.9151 C   0  0  0  0  0  0  0  0  0  0  0  0
   42.5296   28.1501   10.9776 C   0  0  1  0  0  0  0  0  0  0  0  0
   41.7774   26.8500   10.6819 C   0  0  2  0  0  0  0  0  0  0  0  0
  1  2  1  0  0  0  0
  2  3  1  0  0  0  0
  3 20  1  0  0  0  0
  4  5  1  0  0  0  0
  6  7  2  0  0  0  0
  6 12  1  0  0  0  0
  7  8  1  0  0  0  0
  8  9  2  0  0  0  0
  9 11  1  0  0  0  0
 10  5  1  1  0  0  0
 10 11  1  0  0  0  0
 10 16  1  0  0  0  0
 10 27  1  0  0  0  0
 11 12  2  0  0  0  0
 13 12  1  1  0  0  0
 13 15  1  0  0  0  0
 13 28  1  0  0  0  0
 14 15  2  0  0  0  0
 14 19  1  0  0  0  0
 15 16  1  0  0  0  0
 16 17  2  0  0  0  0
 17 18  1  0  0  0  0
 18 19  2  0  0  0  0
 20 21  1  0  0  0  0
 21 25  1  0  0  0  0
 22 26  2  0  0  0  0
 23 24  2  0  0  0  0
 24 25  1  0  0  0  0
 25 26  1  0  0  0  0
 27 26  1  1  0  0  0
 27 28  1  0  0  0  0
 28 24  1  1  0  0  0
M  END
>  <CHROM.1>
-172.66170952,-64.70802225,-72.01283109,159.59963658,-56.46012260,42.69560057
26.82007092,12.01855867,0.79386716,0.18283106,-2.65515038

>  <Name>
ligand

>  <RI>
0

>  <Rbt.Current_Directory>
/home/itssahil/PROJECTS/Mol_Feturizer/New_Systems/rnas/1YLS

>  <Rbt.Executable>
rbdock ($Id: //depot/dev/client3/rdock/2013.1/src/exe/rbdock.cxx#4 $)

>  <Rbt.Library>
libRbt.so (2013.1, Build901 2013/11/27)

>  <Rbt.Parameter_File>
/export/apps/rDock/src/rDock_2013.1_src/data/scripts/dock_solv.prm

>  <Rbt.Receptor>
prm/blind_docking_100.prm

>  <SCORE>
-15.6501

>  <SCORE.INTER>
-12.6115

>  <SCORE.INTER.CONST>
1

>  <SCORE.INTER.POLAR>
0

>  <SCORE.INTER.ROT>
5

>  <SCORE.INTER.SOLV>
8.83749

>  <SCORE.INTER.VDW>
-18.2868

>  <SCORE.INTER.norm>
-0.45041

>  <SCORE.INTRA>
-3.05033

>  <SCORE.INTRA.DIHEDRAL>
-7.33734

>  <SCORE.INTRA.DIHEDRAL.0>
12.0148

>  <SCORE.INTRA.POLAR>
0

>  <SCORE.INTRA.POLAR.0>
0

>  <SCORE.INTRA.REPUL>
0

>  <SCORE.INTRA.REPUL.0>
0

>  <SCORE.INTRA.SOLV>
0.146702

>  <SCORE.INTRA.SOLV.lig_0>
-10.5235

>  <SCORE.INTRA.VDW>
0.544986

>  <SCORE.INTRA.VDW.0>
-1.38455

>  <SCORE.INTRA.norm>
-0.10894

>  <SCORE.RESTR>
0.0117016

>  <SCORE.RESTR.CAVITY>
0.0117016

>  <SCORE.RESTR.norm>
0.000417913

>  <SCORE.SYSTEM>
0

>  <SCORE.SYSTEM.CONST>
0

>  <SCORE.SYSTEM.DIHEDRAL>
0

>  <SCORE.SYSTEM.SOLV>
0

>  <SCORE.SYSTEM.norm>
0

>  <SCORE.heavy>
28

>  <SCORE.norm>
-0.558933

>  <RMSD>
14.889

$$$$
ligand
 OpenBabel11021811413D
libRbt.so/2013.1/901 2013/11/27
 28 32  0  0  0  0  0  0  0  0999 V2000
   45.8613   20.4935   10.9177 C   0  0  0  0  0  0  0  0  0  0  0  0
   45.4331   21.9333   11.1216 C   0  0  0  0  0  0  0  0  0  0  0  0
   44.5891   22.0957   12.3770 C   0  0  0  0  0  0  0  0  0  0  0  0
   38.6332   27.2883   11.9129 O   0  0  0  0  0  0  0  0  0  0  0  0
   39.7871   26.7562   11.2599 C   0  0  0  0  0  0  0  0  0  0  0  0
   44.7055   27.0960   11.1805 C   0  0  0  0  0  0  0  0  0  0  0  0
   44.7737   26.2436   10.0859 C   0  0  0  0  0  0  0  0  0  0  0  0
   43.5986   25.7010    9.5598 C   0  0  0  0  0  0  0  0  0  0  0  0
   42.3595   26.0104   10.1219 C   0  0  0  0  0  0  0  0  0  0  0  0
   41.0746   27.2724   11.9153 C   0  0  1  0  0  0  0  0  0  0  0  0
   42.3159   26.8786   11.1875 C   0  0  0  0  0  0  0  0  0  0  0  0
   43.4725   27.4068   11.7030 C   0  0  0  0  0  0  0  0  0  0  0  0
   43.2975   28.2484   12.8714 C   0  0  1  0  0  0  0  0  0  0  0  0
   42.5028   30.6034   12.7539 C   0  0  0  0  0  0  0  0  0  0  0  0
   42.3090   29.2597   12.5403 C   0  0  0  0  0  0  0  0  0  0  0  0
   41.1340   28.7744   12.0324 C   0  0  0  0  0  0  0  0  0  0  0  0
   40.1019   29.6476   11.7217 C   0  0  0  0  0  0  0  0  0  0  0  0
   40.2914   31.0178   11.9138 C   0  0  0  0  0  0  0  0  0  0  0  0
   41.4918   31.4918   12.4266 C   0  0  0  0  0  0  0  0  0  0  0  0
   44.1636   23.5476   12.5533 C   0  0  0  0  0  0  0  0  0  0  0  0
   43.3425   23.7116   13.8268 C   0  0  0  0  0  0  0  0  0  0  0  0
   40.8354   24.4641   13.0362 O   0  0  0  0  0  0  0  0  0  0  0  0
   44.5765   26.1557   14.5284 O   0  0  0  0  0  0  0  0  0  0  0  0
   43.4257   26.1095   14.1266 C   0  0  0  0  0  0  0  0  0  0  0  0
   42.7860   25.0548   13.7996 N   0  0  0  0  0  0  0  0  0  0  0  0
   41.6200   25.3049   13.3920 C   0  0  0  0  0  0  0  0  0  0  0  0
   41.3169   26.7623   13.3446 C   0  0  1  0  0  0  0  0  0  0  0  0
   42.6246   27.3405   13.8916 C   0  0  2  0  0  0  0  0  0  0  0  0
  1  2  1  0  0  0  0
  2  3  1  0  0  0  0
  3 20  1  0  0  0  0
  4  5  1  0  0  0  0
  6  7  2  0  0  0  0
  6 12  1  0  0  0  0
  7  8  1  0  0  0  0
  8  9  2  0  0  0  0
  9 11  1  0  0  0  0
 10  5  1  6  0  0  0
 10 11  1  0  0  0  0
 10 16  1  0  0  0  0
 10 27  1  0  0  0  0
 11 12  2  0  0  0  0
 13 12  1  6  0  0  0
 13 15  1  0  0  0  0
 13 28  1  0  0  0  0
 14 15  2  0  0  0  0
 14 19  1  0  0  0  0
 15 16  1  0  0  0  0
 16 17  2  0  0  0  0
 17 18  1  0  0  0  0
 18 19  2  0  0  0  0
 20 21  1  0  0  0  0
 21 25  1  0  0  0  0
 22 26  2  0  0  0  0
 23 24  2  0  0  0  0
 24 25  1  0  0  0  0
 25 26  1  0  0  0  0
 27 26  1  6  0  0  0
 27 28  1  0  0  0  0
 28 24  1  6  0  0  0
M  END
>  <CHROM.1>
-179.58313775,-173.48214889,-178.84389644,-170.30162109,-80.41182160,42.59691575
26.37548787,12.25632975,-1.06343076,0.16505929,-0.05218275

>  <Name>
ligand

>  <RI>
0

>  <Rbt.Current_Directory>
/home/itssahil/PROJECTS/Mol_Feturizer/New_Systems/rnas/1YLS

>  <Rbt.Executable>
rbdock ($Id: //depot/dev/client3/rdock/2013.1/src/exe/rbdock.cxx#4 $)

>  <Rbt.Library>
libRbt.so (2013.1, Build901 2013/11/27)

>  <Rbt.Parameter_File>
/export/apps/rDock/src/rDock_2013.1_src/data/scripts/dock_solv.prm

>  <Rbt.Receptor>
prm/blind_docking_100.prm

>  <SCORE>
-14.9852

>  <SCORE.INTER>
-9.91417

>  <SCORE.INTER.CONST>
1

>  <SCORE.INTER.POLAR>
0

>  <SCORE.INTER.ROT>
5

>  <SCORE.INTER.SOLV>
10.4553

>  <SCORE.INTER.VDW>
-17.0279

>  <SCORE.INTER.norm>
-0.354077

>  <SCORE.INTRA>
-5.07108

>  <SCORE.INTRA.DIHEDRAL>
-8.91366

>  <SCORE.INTRA.DIHEDRAL.0>
12.0148

>  <SCORE.INTRA.POLAR>
0

>  <SCORE.INTRA.POLAR.0>
0

>  <SCORE.INTRA.REPUL>
0

>  <SCORE.INTRA.REPUL.0>
0

>  <SCORE.INTRA.SOLV>
0.100713

>  <SCORE.INTRA.SOLV.lig_0>
-10.5235

>  <SCORE.INTRA.VDW>
-0.664603

>  <SCORE.INTRA.VDW.0>
-1.38455

>  <SCORE.INTRA.norm>
-0.18111

>  <SCORE.RESTR>
0

>  <SCORE.RESTR.CAVITY>
0

>  <SCORE.RESTR.norm>
0

>  <SCORE.SYSTEM>
0

>  <SCORE.SYSTEM.CONST>
0

>  <SCORE.SYSTEM.DIHEDRAL>
0

>  <SCORE.SYSTEM.SOLV>
0

>  <SCORE.SYSTEM.norm>
0

>  <SCORE.heavy>
28

>  <SCORE.norm>
-0.535187

>  <RMSD>
14.892

$$$$
ligand
 OpenBabel11021811413D
libRbt.so/2013.1/901 2013/11/27
 28 32  0  0  0  0  0  0  0  0999 V2000
   46.4102   21.2274   10.5681 C   0  0  0  0  0  0  0  0  0  0  0  0
   45.6036   22.3014   11.2709 C   0  0  0  0  0  0  0  0  0  0  0  0
   45.9652   23.6924   10.7715 C   0  0  0  0  0  0  0  0  0  0  0  0
   42.3537   31.2591   12.4139 O   0  0  0  0  0  0  0  0  0  0  0  0
   42.7441   30.0947   13.1439 C   0  0  0  0  0  0  0  0  0  0  0  0
   41.8500   25.2614   13.5333 C   0  0  0  0  0  0  0  0  0  0  0  0
   42.7508   25.1520   14.5849 C   0  0  0  0  0  0  0  0  0  0  0  0
   43.4536   26.2817   15.0117 C   0  0  0  0  0  0  0  0  0  0  0  0
   43.2558   27.5168   14.3934 C   0  0  0  0  0  0  0  0  0  0  0  0
   42.0473   28.8436   12.5936 C   0  0  1  0  0  0  0  0  0  0  0  0
   42.3381   27.6052   13.3728 C   0  0  0  0  0  0  0  0  0  0  0  0
   41.6525   26.4928   12.9548 C   0  0  0  0  0  0  0  0  0  0  0  0
   40.7703   26.7029   11.8227 C   0  0  1  0  0  0  0  0  0  0  0  0
   38.5322   27.7733   12.0130 C   0  0  0  0  0  0  0  0  0  0  0  0
   39.8992   27.8193   12.1457 C   0  0  0  0  0  0  0  0  0  0  0  0
   40.5441   28.9547   12.5573 C   0  0  0  0  0  0  0  0  0  0  0  0
   39.8139   30.0971   12.8502 C   0  0  0  0  0  0  0  0  0  0  0  0
   38.4222   30.0596   12.7401 C   0  0  0  0  0  0  0  0  0  0  0  0
   37.7854   28.8975   12.3246 C   0  0  0  0  0  0  0  0  0  0  0  0
   44.9953   24.7294   11.3229 C   0  0  0  0  0  0  0  0  0  0  0  0
   45.2095   26.0754   10.6408 C   0  0  0  0  0  0  0  0  0  0  0  0
   44.7951   28.6920   11.3182 O   0  0  0  0  0  0  0  0  0  0  0  0
   42.6040   25.1010   10.1399 O   0  0  0  0  0  0  0  0  0  0  0  0
   42.8045   26.2582   10.4696 C   0  0  0  0  0  0  0  0  0  0  0  0
   43.9424   26.7862   10.7035 N   0  0  0  0  0  0  0  0  0  0  0  0
   43.8511   27.9935   11.0532 C   0  0  0  0  0  0  0  0  0  0  0  0
   42.4431   28.4675   11.1570 C   0  0  1  0  0  0  0  0  0  0  0  0
   41.6887   27.2095   10.7191 C   0  0  2  0  0  0  0  0  0  0  0  0
  1  2  1  0  0  0  0
  2  3  1  0  0  0  0
  3 20  1  0  0  0  0
  4  5  1  0  0  0  0
  6  7  2  0  0  0  0
  6 12  1  0  0  0  0
  7  8  1  0  0  0  0
  8  9  2  0  0  0  0
  9 11  1  0  0  0  0
 10  5  1  1  0  0  0
 10 11  1  0  0  0  0
 10 16  1  0  0  0  0
 10 27  1  0  0  0  0
 11 12  2  0  0  0  0
 13 12  1  1  0  0  0
 13 15  1  0  0  0  0
 13 28  1  0  0  0  0
 14 15  2  0  0  0  0
 14 19  1  0  0  0  0
 15 16  1  0  0  0  0
 16 17  2  0  0  0  0
 17 18  1  0  0  0  0
 18 19  2  0  0  0  0
 20 21  1  0  0  0  0
 21 25  1  0  0  0  0
 22 26  2  0  0  0  0
 23 24  2  0  0  0  0
 24 25  1  0  0  0  0
 25 26  1  0  0  0  0
 27 26  1  1  0  0  0
 27 28  1  0  0  0  0
 28 24  1  1  0  0  0
M  END
>  <CHROM.1>
170.93388170,-175.96668695,-170.38732720,153.42092943,-43.38081332,42.57530493
26.99861132,12.02086417,0.83409691,-0.22736844,-3.08612554

>  <Name>
ligand

>  <RI>
0

>  <Rbt.Current_Directory>
/home/itssahil/PROJECTS/Mol_Feturizer/New_Systems/rnas/1YLS

>  <Rbt.Executable>
rbdock ($Id: //depot/dev/client3/rdock/2013.1/src/exe/rbdock.cxx#4 $)

>  <Rbt.Library>
libRbt.so (2013.1, Build901 2013/11/27)

>  <Rbt.Parameter_File>
/export/apps/rDock/src/rDock_2013.1_src/data/scripts/dock_solv.prm

>  <Rbt.Receptor>
prm/blind_docking_100.prm

>  <SCORE>
-14.1003

>  <SCORE.INTER>
-12.4786

>  <SCORE.INTER.CONST>
1

>  <SCORE.INTER.POLAR>
0

>  <SCORE.INTER.ROT>
5

>  <SCORE.INTER.SOLV>
8.19345

>  <SCORE.INTER.VDW>
-17.9836

>  <SCORE.INTER.norm>
-0.445665

>  <SCORE.INTRA>
-1.62164

>  <SCORE.INTRA.DIHEDRAL>
-6.68825

>  <SCORE.INTRA.DIHEDRAL.0>
12.0148

>  <SCORE.INTRA.POLAR>
0

>  <SCORE.INTRA.POLAR.0>
0

>  <SCORE.INTRA.REPUL>
0

>  <SCORE.INTRA.REPUL.0>
0

>  <SCORE.INTRA.SOLV>
0.251776

>  <SCORE.INTRA.SOLV.lig_0>
-10.5235

>  <SCORE.INTRA.VDW>
1.5966

>  <SCORE.INTRA.VDW.0>
-1.38455

>  <SCORE.INTRA.norm>
-0.0579157

>  <SCORE.RESTR>
0

>  <SCORE.RESTR.CAVITY>
0

>  <SCORE.RESTR.norm>
0

>  <SCORE.SYSTEM>
0

>  <SCORE.SYSTEM.CONST>
0

>  <SCORE.SYSTEM.DIHEDRAL>
0

>  <SCORE.SYSTEM.SOLV>
0

>  <SCORE.SYSTEM.norm>
0

>  <SCORE.heavy>
28

>  <SCORE.norm>
-0.503581

>  <RMSD>
14.897

$$$$
ligand
 OpenBabel11021811413D
libRbt.so/2013.1/901 2013/11/27
 28 32  0  0  0  0  0  0  0  0999 V2000
   46.9750   22.8094   11.2493 C   0  0  0  0  0  0  0  0  0  0  0  0
   45.6945   22.5259   12.0094 C   0  0  0  0  0  0  0  0  0  0  0  0
   44.5773   23.4747   11.6011 C   0  0  0  0  0  0  0  0  0  0  0  0
   39.6879   27.1188    9.8825 O   0  0  0  0  0  0  0  0  0  0  0  0
   39.7628   26.6833   11.2411 C   0  0  0  0  0  0  0  0  0  0  0  0
   44.6742   27.1189   11.2084 C   0  0  0  0  0  0  0  0  0  0  0  0
   44.7674   26.2890   10.0984 C   0  0  0  0  0  0  0  0  0  0  0  0
   43.6071   25.7341    9.5525 C   0  0  0  0  0  0  0  0  0  0  0  0
   42.3579   26.0089   10.1102 C   0  0  0  0  0  0  0  0  0  0  0  0
   41.0349   27.2114   11.9166 C   0  0  1  0  0  0  0  0  0  0  0  0
   42.2892   26.8555   11.1918 C   0  0  0  0  0  0  0  0  0  0  0  0
   43.4313   27.3958   11.7266 C   0  0  0  0  0  0  0  0  0  0  0  0
   43.2309   28.2114   12.9093 C   0  0  1  0  0  0  0  0  0  0  0  0
   42.3918   30.5525   12.8301 C   0  0  0  0  0  0  0  0  0  0  0  0
   42.2257   29.2098   12.5895 C   0  0  0  0  0  0  0  0  0  0  0  0
   41.0643   28.7118   12.0628 C   0  0  0  0  0  0  0  0  0  0  0  0
   40.0179   29.5708   11.7603 C   0  0  0  0  0  0  0  0  0  0  0  0
   40.1794   30.9404   11.9800 C   0  0  0  0  0  0  0  0  0  0  0  0
   41.3664   31.4275   12.5115 C   0  0  0  0  0  0  0  0  0  0  0  0
   43.2914   23.1416   12.3465 C   0  0  0  0  0  0  0  0  0  0  0  0
   43.3562   23.6588   13.7787 C   0  0  0  0  0  0  0  0  0  0  0  0
   40.8412   24.3781   12.9820 O   0  0  0  0  0  0  0  0  0  0  0  0
   44.5372   26.1123   14.5366 O   0  0  0  0  0  0  0  0  0  0  0  0
   43.3906   26.0517   14.1246 C   0  0  0  0  0  0  0  0  0  0  0  0
   42.7740   24.9914   13.7724 N   0  0  0  0  0  0  0  0  0  0  0  0
   41.6067   25.2268   13.3602 C   0  0  0  0  0  0  0  0  0  0  0  0
   41.2758   26.6787   13.3380 C   0  0  1  0  0  0  0  0  0  0  0  0
   42.5677   27.2713   13.9065 C   0  0  2  0  0  0  0  0  0  0  0  0
  1  2  1  0  0  0  0
  2  3  1  0  0  0  0
  3 20  1  0  0  0  0
  4  5  1  0  0  0  0
  6  7  2  0  0  0  0
  6 12  1  0  0  0  0
  7  8  1  0  0  0  0
  8  9  2  0  0  0  0
  9 11  1  0  0  0  0
 10  5  1  6  0  0  0
 10 11  1  0  0  0  0
 10 16  1  0  0  0  0
 10 27  1  0  0  0  0
 11 12  2  0  0  0  0
 13 12  1  6  0  0  0
 13 15  1  0  0  0  0
 13 28  1  0  0  0  0
 14 15  2  0  0  0  0
 14 19  1  0  0  0  0
 15 16  1  0  0  0  0
 16 17  2  0  0  0  0
 17 18  1  0  0  0  0
 18 19  2  0  0  0  0
 20 21  1  0  0  0  0
 21 25  1  0  0  0  0
 22 26  2  0  0  0  0
 23 24  2  0  0  0  0
 24 25  1  0  0  0  0
 25 26  1  0  0  0  0
 27 26  1  6  0  0  0
 27 28  1  0  0  0  0
 28 24  1  6  0  0  0
M  END
>  <CHROM.1>
178.24014581,-55.17583672,77.15332523,92.18018872,-120.27668525,42.63134947
26.48661581,12.18554500,-0.94091949,-0.36423978,0.23223096

>  <Name>
ligand

>  <RI>
0

>  <Rbt.Current_Directory>
/home/itssahil/PROJECTS/Mol_Feturizer/New_Systems/rnas/1YLS

>  <Rbt.Executable>
rbdock ($Id: //depot/dev/client3/rdock/2013.1/src/exe/rbdock.cxx#4 $)

>  <Rbt.Library>
libRbt.so (2013.1, Build901 2013/11/27)

>  <Rbt.Parameter_File>
/export/apps/rDock/src/rDock_2013.1_src/data/scripts/dock_solv.prm

>  <Rbt.Receptor>
prm/blind_docking_100.prm

>  <SCORE>
-13.0314

>  <SCORE.INTER>
-10.4491

>  <SCORE.INTER.CONST>
1

>  <SCORE.INTER.POLAR>
0

>  <SCORE.INTER.ROT>
5

>  <SCORE.INTER.SOLV>
10.4095

>  <SCORE.INTER.VDW>
-17.3692

>  <SCORE.INTER.norm>
-0.373183

>  <SCORE.INTRA>
-2.58222

>  <SCORE.INTRA.DIHEDRAL>
-5.28953

>  <SCORE.INTRA.DIHEDRAL.0>
12.0148

>  <SCORE.INTRA.POLAR>
0

>  <SCORE.INTRA.POLAR.0>
0

>  <SCORE.INTRA.REPUL>
0

>  <SCORE.INTRA.REPUL.0>
0

>  <SCORE.INTRA.SOLV>
0.184436

>  <SCORE.INTRA.SOLV.lig_0>
-10.5235

>  <SCORE.INTRA.VDW>
-0.0296753

>  <SCORE.INTRA.VDW.0>
-1.38455

>  <SCORE.INTRA.norm>
-0.0922222

>  <SCORE.RESTR>
0

>  <SCORE.RESTR.CAVITY>
0

>  <SCORE.RESTR.norm>
0

>  <SCORE.SYSTEM>
0

>  <SCORE.SYSTEM.CONST>
0

>  <SCORE.SYSTEM.DIHEDRAL>
0

>  <SCORE.SYSTEM.SOLV>
0

>  <SCORE.SYSTEM.norm>
0

>  <SCORE.heavy>
28

>  <SCORE.norm>
-0.465406

>  <RMSD>
14.898

$$$$
ligand
 OpenBabel11021811413D
libRbt.so/2013.1/901 2013/11/27
 28 32  0  0  0  0  0  0  0  0999 V2000
   46.4478   21.2758   10.4078 C   0  0  0  0  0  0  0  0  0  0  0  0
   45.5561   22.3048   11.0741 C   0  0  0  0  0  0  0  0  0  0  0  0
   45.9842   23.7242   10.7325 C   0  0  0  0  0  0  0  0  0  0  0  0
   42.3481   31.2675   12.4097 O   0  0  0  0  0  0  0  0  0  0  0  0
   42.7230   30.1072   13.1542 C   0  0  0  0  0  0  0  0  0  0  0  0
   41.8477   25.2697   13.5357 C   0  0  0  0  0  0  0  0  0  0  0  0
   42.7487   25.1622   14.5873 C   0  0  0  0  0  0  0  0  0  0  0  0
   43.4470   26.2939   15.0160 C   0  0  0  0  0  0  0  0  0  0  0  0
   43.2445   27.5293   14.3997 C   0  0  0  0  0  0  0  0  0  0  0  0
   42.0312   28.8542   12.6018 C   0  0  1  0  0  0  0  0  0  0  0  0
   42.3267   27.6157   13.3791 C   0  0  0  0  0  0  0  0  0  0  0  0
   41.6455   26.5013   12.9592 C   0  0  0  0  0  0  0  0  0  0  0  0
   40.7627   26.7098   11.8273 C   0  0  1  0  0  0  0  0  0  0  0  0
   38.5204   27.7712   12.0188 C   0  0  0  0  0  0  0  0  0  0  0  0
   39.8872   27.8223   12.1518 C   0  0  0  0  0  0  0  0  0  0  0  0
   40.5276   28.9595   12.5654 C   0  0  0  0  0  0  0  0  0  0  0  0
   39.7929   30.0986   12.8600 C   0  0  0  0  0  0  0  0  0  0  0  0
   38.4014   30.0559   12.7495 C   0  0  0  0  0  0  0  0  0  0  0  0
   37.7692   28.8920   12.3321 C   0  0  0  0  0  0  0  0  0  0  0  0
   44.9816   24.7329   11.2778 C   0  0  0  0  0  0  0  0  0  0  0  0
   45.2046   26.1015   10.6452 C   0  0  0  0  0  0  0  0  0  0  0  0
   44.7798   28.7153   11.3267 O   0  0  0  0  0  0  0  0  0  0  0  0
   42.6030   25.1177   10.1422 O   0  0  0  0  0  0  0  0  0  0  0  0
   42.7989   26.2752   10.4738 C   0  0  0  0  0  0  0  0  0  0  0  0
   43.9347   26.8073   10.7088 N   0  0  0  0  0  0  0  0  0  0  0  0
   43.8386   28.0136   11.0604 C   0  0  0  0  0  0  0  0  0  0  0  0
   42.4287   28.4820   11.1647 C   0  0  1  0  0  0  0  0  0  0  0  0
   41.6793   27.2217   10.7247 C   0  0  2  0  0  0  0  0  0  0  0  0
  1  2  1  0  0  0  0
  2  3  1  0  0  0  0
  3 20  1  0  0  0  0
  4  5  1  0  0  0  0
  6  7  2  0  0  0  0
  6 12  1  0  0  0  0
  7  8  1  0  0  0  0
  8  9  2  0  0  0  0
  9 11  1  0  0  0  0
 10  5  1  1  0  0  0
 10 11  1  0  0  0  0
 10 16  1  0  0  0  0
 10 27  1  0  0  0  0
 11 12  2  0  0  0  0
 13 12  1  1  0  0  0
 13 15  1  0  0  0  0
 13 28  1  0  0  0  0
 14 15  2  0  0  0  0
 14 19  1  0  0  0  0
 15 16  1  0  0  0  0
 16 17  2  0  0  0  0
 17 18  1  0  0  0  0
 18 19  2  0  0  0  0
 20 21  1  0  0  0  0
 21 25  1  0  0  0  0
 22 26  2  0  0  0  0
 23 24  2  0  0  0  0
 24 25  1  0  0  0  0
 25 26  1  0  0  0  0
 27 26  1  1  0  0  0
 27 28  1  0  0  0  0
 28 24  1  1  0  0  0
M  END
>  <CHROM.1>
173.41076193,-177.07980469,-165.50766898,154.68083830,-41.28445983,42.56618919
27.01120352,12.00824883,0.83384858,-0.22428817,-3.06470556

>  <Name>
ligand

>  <RI>
0

>  <Rbt.Current_Directory>
/home/itssahil/PROJECTS/Mol_Feturizer/New_Systems/rnas/1YLS

>  <Rbt.Executable>
rbdock ($Id: //depot/dev/client3/rdock/2013.1/src/exe/rbdock.cxx#4 $)

>  <Rbt.Library>
libRbt.so (2013.1, Build901 2013/11/27)

>  <Rbt.Parameter_File>
/export/apps/rDock/src/rDock_2013.1_src/data/scripts/dock_solv.prm

>  <Rbt.Receptor>
prm/blind_docking_100.prm

>  <SCORE>
-14.2069

>  <SCORE.INTER>
-12.936

>  <SCORE.INTER.CONST>
1

>  <SCORE.INTER.POLAR>
0

>  <SCORE.INTER.ROT>
5

>  <SCORE.INTER.SOLV>
8.21751

>  <SCORE.INTER.VDW>
-18.2965

>  <SCORE.INTER.norm>
-0.462001

>  <SCORE.INTRA>
-1.2718

>  <SCORE.INTRA.DIHEDRAL>
-6.60914

>  <SCORE.INTRA.DIHEDRAL.0>
12.0148

>  <SCORE.INTRA.POLAR>
0

>  <SCORE.INTRA.POLAR.0>
0

>  <SCORE.INTRA.REPUL>
0

>  <SCORE.INTRA.REPUL.0>
0

>  <SCORE.INTRA.SOLV>
0.264789

>  <SCORE.INTRA.SOLV.lig_0>
-10.5235

>  <SCORE.INTRA.VDW>
1.90037

>  <SCORE.INTRA.VDW.0>
-1.38455

>  <SCORE.INTRA.norm>
-0.0454215

>  <SCORE.RESTR>
0.000979937

>  <SCORE.RESTR.CAVITY>
0.000979937

>  <SCORE.RESTR.norm>
3.49977e-05

>  <SCORE.SYSTEM>
0

>  <SCORE.SYSTEM.CONST>
0

>  <SCORE.SYSTEM.DIHEDRAL>
0

>  <SCORE.SYSTEM.SOLV>
0

>  <SCORE.SYSTEM.norm>
0

>  <SCORE.heavy>
28

>  <SCORE.norm>
-0.507388

>  <RMSD>
14.903

$$$$
ligand
 OpenBabel11021811413D
libRbt.so/2013.1/901 2013/11/27
 28 32  0  0  0  0  0  0  0  0999 V2000
   46.8115   22.8185   11.2128 C   0  0  0  0  0  0  0  0  0  0  0  0
   45.5389   21.9965   11.1608 C   0  0  0  0  0  0  0  0  0  0  0  0
   44.7229   22.1434   12.4365 C   0  0  0  0  0  0  0  0  0  0  0  0
   39.5870   27.1336    9.9202 O   0  0  0  0  0  0  0  0  0  0  0  0
   39.7479   26.6161   11.2421 C   0  0  0  0  0  0  0  0  0  0  0  0
   44.6477   27.1663   11.2017 C   0  0  0  0  0  0  0  0  0  0  0  0
   44.7616   26.3134   10.1114 C   0  0  0  0  0  0  0  0  0  0  0  0
   43.6153   25.7188    9.5779 C   0  0  0  0  0  0  0  0  0  0  0  0
   42.3594   25.9769   10.1285 C   0  0  0  0  0  0  0  0  0  0  0  0
   41.0065   27.1896   11.9059 C   0  0  1  0  0  0  0  0  0  0  0  0
   42.2696   26.8466   11.1900 C   0  0  0  0  0  0  0  0  0  0  0  0
   43.3981   27.4259   11.7128 C   0  0  0  0  0  0  0  0  0  0  0  0
   43.1773   28.2638   12.8761 C   0  0  1  0  0  0  0  0  0  0  0  0
   42.2835   30.5820   12.7421 C   0  0  0  0  0  0  0  0  0  0  0  0
   42.1493   29.2305   12.5326 C   0  0  0  0  0  0  0  0  0  0  0  0
   41.0004   28.6932   12.0171 C   0  0  0  0  0  0  0  0  0  0  0  0
   39.9345   29.5200   11.6943 C   0  0  0  0  0  0  0  0  0  0  0  0
   40.0635   30.8979   11.8821 C   0  0  0  0  0  0  0  0  0  0  0  0
   41.2381   31.4249   12.4027 C   0  0  0  0  0  0  0  0  0  0  0  0
   44.0430   23.5056   12.4846 C   0  0  0  0  0  0  0  0  0  0  0  0
   43.4089   23.7368   13.8511 C   0  0  0  0  0  0  0  0  0  0  0  0
   40.8785   24.3780   13.0367 O   0  0  0  0  0  0  0  0  0  0  0  0
   44.5310   26.2344   14.5524 O   0  0  0  0  0  0  0  0  0  0  0  0
   43.3866   26.1373   14.1413 C   0  0  0  0  0  0  0  0  0  0  0  0
   42.7955   25.0548   13.8136 N   0  0  0  0  0  0  0  0  0  0  0  0
   41.6234   25.2530   13.3954 C   0  0  0  0  0  0  0  0  0  0  0  0
   41.2584   26.6958   13.3393 C   0  0  1  0  0  0  0  0  0  0  0  0
   42.5354   27.3317   13.8946 C   0  0  2  0  0  0  0  0  0  0  0  0
  1  2  1  0  0  0  0
  2  3  1  0  0  0  0
  3 20  1  0  0  0  0
  4  5  1  0  0  0  0
  6  7  2  0  0  0  0
  6 12  1  0  0  0  0
  7  8  1  0  0  0  0
  8  9  2  0  0  0  0
  9 11  1  0  0  0  0
 10  5  1  6  0  0  0
 10 11  1  0  0  0  0
 10 16  1  0  0  0  0
 10 27  1  0  0  0  0
 11 12  2  0  0  0  0
 13 12  1  6  0  0  0
 13 15  1  0  0  0  0
 13 28  1  0  0  0  0
 14 15  2  0  0  0  0
 14 19  1  0  0  0  0
 15 16  1  0  0  0  0
 16 17  2  0  0  0  0
 17 18  1  0  0  0  0
 18 19  2  0  0  0  0
 20 21  1  0  0  0  0
 21 25  1  0  0  0  0
 22 26  2  0  0  0  0
 23 24  2  0  0  0  0
 24 25  1  0  0  0  0
 25 26  1  0  0  0  0
 27 26  1  6  0  0  0
 27 28  1  0  0  0  0
 28 24  1  6  0  0  0
M  END
>  <CHROM.1>
73.89066607,-61.47282037,-171.15137756,179.56716837,-90.14121096,42.62671063
26.44544416,12.18367471,-0.75882526,-0.72672615,0.58855270

>  <Name>
ligand

>  <RI>
0

>  <Rbt.Current_Directory>
/home/itssahil/PROJECTS/Mol_Feturizer/New_Systems/rnas/1YLS

>  <Rbt.Executable>
rbdock ($Id: //depot/dev/client3/rdock/2013.1/src/exe/rbdock.cxx#4 $)

>  <Rbt.Library>
libRbt.so (2013.1, Build901 2013/11/27)

>  <Rbt.Parameter_File>
/export/apps/rDock/src/rDock_2013.1_src/data/scripts/dock_solv.prm

>  <Rbt.Receptor>
prm/blind_docking_100.prm

>  <SCORE>
-15.5184

>  <SCORE.INTER>
-11.0043

>  <SCORE.INTER.CONST>
1

>  <SCORE.INTER.POLAR>
0

>  <SCORE.INTER.ROT>
5

>  <SCORE.INTER.SOLV>
10.6041

>  <SCORE.INTER.VDW>
-17.8042

>  <SCORE.INTER.norm>
-0.393011

>  <SCORE.INTRA>
-4.5141

>  <SCORE.INTRA.DIHEDRAL>
-8.32568

>  <SCORE.INTRA.DIHEDRAL.0>
12.0148

>  <SCORE.INTRA.POLAR>
0

>  <SCORE.INTRA.POLAR.0>
0

>  <SCORE.INTRA.REPUL>
0

>  <SCORE.INTRA.REPUL.0>
0

>  <SCORE.INTRA.SOLV>
-0.0684184

>  <SCORE.INTRA.SOLV.lig_0>
-10.5235

>  <SCORE.INTRA.VDW>
-0.317054

>  <SCORE.INTRA.VDW.0>
-1.38455

>  <SCORE.INTRA.norm>
-0.161218

>  <SCORE.RESTR>
0

>  <SCORE.RESTR.CAVITY>
0

>  <SCORE.RESTR.norm>
0

>  <SCORE.SYSTEM>
0

>  <SCORE.SYSTEM.CONST>
0

>  <SCORE.SYSTEM.DIHEDRAL>
0

>  <SCORE.SYSTEM.SOLV>
0

>  <SCORE.SYSTEM.norm>
0

>  <SCORE.heavy>
28

>  <SCORE.norm>
-0.554229

>  <RMSD>
14.919

$$$$
ligand
 OpenBabel11021811413D
libRbt.so/2013.1/901 2013/11/27
 28 32  0  0  0  0  0  0  0  0999 V2000
   45.5456   23.6269   12.0093 C   0  0  0  0  0  0  0  0  0  0  0  0
   45.4922   24.3672   13.3311 C   0  0  0  0  0  0  0  0  0  0  0  0
   44.1224   24.2535   13.9834 C   0  0  0  0  0  0  0  0  0  0  0  0
   42.6794   31.1794   10.6733 O   0  0  0  0  0  0  0  0  0  0  0  0
   42.3396   29.8795   10.1874 C   0  0  0  0  0  0  0  0  0  0  0  0
   41.0542   28.2338   14.6541 C   0  0  0  0  0  0  0  0  0  0  0  0
   42.3282   28.4895   15.1447 C   0  0  0  0  0  0  0  0  0  0  0  0
   43.3070   29.0016   14.2892 C   0  0  0  0  0  0  0  0  0  0  0  0
   43.0146   29.2606   12.9496 C   0  0  0  0  0  0  0  0  0  0  0  0
   41.2874   29.2163   11.0855 C   0  0  1  0  0  0  0  0  0  0  0  0
   41.7383   29.0252   12.4946 C   0  0  0  0  0  0  0  0  0  0  0  0
   40.7810   28.5194   13.3373 C   0  0  0  0  0  0  0  0  0  0  0  0
   39.4982   28.2460   12.7179 C   0  0  1  0  0  0  0  0  0  0  0  0
   37.8274   30.0141   12.1948 C   0  0  0  0  0  0  0  0  0  0  0  0
   39.0729   29.4556   12.0357 C   0  0  0  0  0  0  0  0  0  0  0  0
   39.9954   29.9882   11.1756 C   0  0  0  0  0  0  0  0  0  0  0  0
   39.6802   31.1193   10.4371 C   0  0  0  0  0  0  0  0  0  0  0  0
   38.4258   31.7104   10.6034 C   0  0  0  0  0  0  0  0  0  0  0  0
   37.5045   31.1579   11.4834 C   0  0  0  0  0  0  0  0  0  0  0  0
   43.1772   25.3146   13.4349 C   0  0  0  0  0  0  0  0  0  0  0  0
   42.6363   24.8941   12.0735 C   0  0  0  0  0  0  0  0  0  0  0  0
   42.9973   26.8671   10.2150 O   0  0  0  0  0  0  0  0  0  0  0  0
   40.0104   25.3462   13.0166 O   0  0  0  0  0  0  0  0  0  0  0  0
   40.5143   26.0505   12.1575 C   0  0  0  0  0  0  0  0  0  0  0  0
   41.6836   25.9142   11.6651 N   0  0  0  0  0  0  0  0  0  0  0  0
   41.9542   26.8018   10.8124 C   0  0  0  0  0  0  0  0  0  0  0  0
   40.8660   27.8050   10.6468 C   0  0  1  0  0  0  0  0  0  0  0  0
   39.8187   27.2476   11.6141 C   0  0  2  0  0  0  0  0  0  0  0  0
  1  2  1  0  0  0  0
  2  3  1  0  0  0  0
  3 20  1  0  0  0  0
  4  5  1  0  0  0  0
  6  7  2  0  0  0  0
  6 12  1  0  0  0  0
  7  8  1  0  0  0  0
  8  9  2  0  0  0  0
  9 11  1  0  0  0  0
 10  5  1  6  0  0  0
 10 11  1  0  0  0  0
 10 16  1  0  0  0  0
 10 27  1  0  0  0  0
 11 12  2  0  0  0  0
 13 12  1  6  0  0  0
 13 15  1  0  0  0  0
 13 28  1  0  0  0  0
 14 15  2  0  0  0  0
 14 19  1  0  0  0  0
 15 16  1  0  0  0  0
 16 17  2  0  0  0  0
 17 18  1  0  0  0  0
 18 19  2  0  0  0  0
 20 21  1  0  0  0  0
 21 25  1  0  0  0  0
 22 26  2  0  0  0  0
 23 24  2  0  0  0  0
 24 25  1  0  0  0  0
 25 26  1  0  0  0  0
 27 26  1  1  0  0  0
 27 28  1  0  0  0  0
 28 24  1  1  0  0  0
M  END
>  <CHROM.1>
-84.59897468,-60.60914517,79.08335362,176.41980687,-74.30525354,41.50514217
27.84862422,12.13419681,-0.89110937,0.21866398,-0.43582628

>  <Name>
ligand

>  <RI>
0

>  <Rbt.Current_Directory>
/home/itssahil/PROJECTS/Mol_Feturizer/New_Systems/rnas/1YLS

>  <Rbt.Executable>
rbdock ($Id: //depot/dev/client3/rdock/2013.1/src/exe/rbdock.cxx#4 $)

>  <Rbt.Library>
libRbt.so (2013.1, Build901 2013/11/27)

>  <Rbt.Parameter_File>
/export/apps/rDock/src/rDock_2013.1_src/data/scripts/dock_solv.prm

>  <Rbt.Receptor>
prm/blind_docking_60.prm

>  <SCORE>
-14.0493

>  <SCORE.INTER>
-11.6724

>  <SCORE.INTER.CONST>
1

>  <SCORE.INTER.POLAR>
0

>  <SCORE.INTER.ROT>
5

>  <SCORE.INTER.SOLV>
8.42017

>  <SCORE.INTER.VDW>
-17.5217

>  <SCORE.INTER.norm>
-0.416872

>  <SCORE.INTRA>
-2.37683

>  <SCORE.INTRA.DIHEDRAL>
-5.81582

>  <SCORE.INTRA.DIHEDRAL.0>
12.0148

>  <SCORE.INTRA.POLAR>
0

>  <SCORE.INTRA.POLAR.0>
0

>  <SCORE.INTRA.REPUL>
0

>  <SCORE.INTRA.REPUL.0>
0

>  <SCORE.INTRA.SOLV>
-0.0110468

>  <SCORE.INTRA.SOLV.lig_0>
-10.5235

>  <SCORE.INTRA.VDW>
0.536601

>  <SCORE.INTRA.VDW.0>
-1.38455

>  <SCORE.INTRA.norm>
-0.0848869

>  <SCORE.RESTR>
0

>  <SCORE.RESTR.CAVITY>
0

>  <SCORE.RESTR.norm>
0

>  <SCORE.SYSTEM>
0

>  <SCORE.SYSTEM.CONST>
0

>  <SCORE.SYSTEM.DIHEDRAL>
0

>  <SCORE.SYSTEM.SOLV>
0

>  <SCORE.SYSTEM.norm>
0

>  <SCORE.heavy>
28

>  <SCORE.norm>
-0.501759

>  <RMSD>
14.924

$$$$
ligand
 OpenBabel11021811413D
libRbt.so/2013.1/901 2013/11/27
 28 32  0  0  0  0  0  0  0  0999 V2000
   46.5320   22.3404   10.4873 C   0  0  0  0  0  0  0  0  0  0  0  0
   45.5465   23.4879   10.5871 C   0  0  0  0  0  0  0  0  0  0  0  0
   45.9999   24.5313   11.5973 C   0  0  0  0  0  0  0  0  0  0  0  0
   42.0440   31.5025   13.6385 O   0  0  0  0  0  0  0  0  0  0  0  0
   42.3932   30.9281   12.3779 C   0  0  0  0  0  0  0  0  0  0  0  0
   41.8507   26.2839   13.9431 C   0  0  0  0  0  0  0  0  0  0  0  0
   42.8461   26.4601   14.8957 C   0  0  0  0  0  0  0  0  0  0  0  0
   43.5095   27.6868   14.9816 C   0  0  0  0  0  0  0  0  0  0  0  0
   43.1786   28.7350   14.1221 C   0  0  0  0  0  0  0  0  0  0  0  0
   41.7327   29.5550   12.1993 C   0  0  1  0  0  0  0  0  0  0  0  0
   42.1705   28.5449   13.2061 C   0  0  0  0  0  0  0  0  0  0  0  0
   41.5238   27.3378   13.1230 C   0  0  0  0  0  0  0  0  0  0  0  0
   40.5333   27.2416   12.0677 C   0  0  1  0  0  0  0  0  0  0  0  0
   38.2564   28.2310   12.2346 C   0  0  0  0  0  0  0  0  0  0  0  0
   39.6240   28.3645   12.2147 C   0  0  0  0  0  0  0  0  0  0  0  0
   40.2281   29.5907   12.2905 C   0  0  0  0  0  0  0  0  0  0  0  0
   39.4545   30.7379   12.3884 C   0  0  0  0  0  0  0  0  0  0  0  0
   38.0639   30.6169   12.4306 C   0  0  0  0  0  0  0  0  0  0  0  0
   37.4692   29.3642   12.3564 C   0  0  0  0  0  0  0  0  0  0  0  0
   44.9198   25.5858   11.8010 C   0  0  0  0  0  0  0  0  0  0  0  0
   44.8819   26.5454   10.6176 C   0  0  0  0  0  0  0  0  0  0  0  0
   44.3610   29.2278   10.7212 O   0  0  0  0  0  0  0  0  0  0  0  0
   42.3106   25.3718   10.6166 O   0  0  0  0  0  0  0  0  0  0  0  0
   42.4644   26.5813   10.6528 C   0  0  0  0  0  0  0  0  0  0  0  0
   43.5821   27.1971   10.6447 N   0  0  0  0  0  0  0  0  0  0  0  0
   43.4444   28.4475   10.7184 C   0  0  0  0  0  0  0  0  0  0  0  0
   42.0234   28.8726   10.8533 C   0  0  1  0  0  0  0  0  0  0  0  0
   41.3160   27.5164   10.7910 C   0  0  2  0  0  0  0  0  0  0  0  0
  1  2  1  0  0  0  0
  2  3  1  0  0  0  0
  3 20  1  0  0  0  0
  4  5  1  0  0  0  0
  6  7  2  0  0  0  0
  6 12  1  0  0  0  0
  7  8  1  0  0  0  0
  8  9  2  0  0  0  0
  9 11  1  0  0  0  0
 10  5  1  1  0  0  0
 10 11  1  0  0  0  0
 10 16  1  0  0  0  0
 10 27  1  0  0  0  0
 11 12  2  0  0  0  0
 13 12  1  1  0  0  0
 13 15  1  0  0  0  0
 13 28  1  0  0  0  0
 14 15  2  0  0  0  0
 14 19  1  0  0  0  0
 15 16  1  0  0  0  0
 16 17  2  0  0  0  0
 17 18  1  0  0  0  0
 18 19  2  0  0  0  0
 20 21  1  0  0  0  0
 21 25  1  0  0  0  0
 22 26  2  0  0  0  0
 23 24  2  0  0  0  0
 24 25  1  0  0  0  0
 25 26  1  0  0  0  0
 27 26  1  1  0  0  0
 27 28  1  0  0  0  0
 28 24  1  1  0  0  0
M  END
>  <CHROM.1>
-173.28115886,-62.51817613,-75.85056004,160.48502789,-55.08634868,42.35056272
27.68849351,12.02995245,0.79053726,0.08260293,-2.77918292

>  <Name>
ligand

>  <RI>
0

>  <Rbt.Current_Directory>
/home/itssahil/PROJECTS/Mol_Feturizer/New_Systems/rnas/1YLS

>  <Rbt.Executable>
rbdock ($Id: //depot/dev/client3/rdock/2013.1/src/exe/rbdock.cxx#4 $)

>  <Rbt.Library>
libRbt.so (2013.1, Build901 2013/11/27)

>  <Rbt.Parameter_File>
/export/apps/rDock/src/rDock_2013.1_src/data/scripts/dock_solv.prm

>  <Rbt.Receptor>
prm/blind_docking_100.prm

>  <SCORE>
-16.484

>  <SCORE.INTER>
-13.5029

>  <SCORE.INTER.CONST>
1

>  <SCORE.INTER.POLAR>
0

>  <SCORE.INTER.ROT>
5

>  <SCORE.INTER.SOLV>
7.82457

>  <SCORE.INTER.VDW>
-18.5434

>  <SCORE.INTER.norm>
-0.482246

>  <SCORE.INTRA>
-2.98566

>  <SCORE.INTRA.DIHEDRAL>
-7.13322

>  <SCORE.INTRA.DIHEDRAL.0>
12.0148

>  <SCORE.INTRA.POLAR>
0

>  <SCORE.INTRA.POLAR.0>
0

>  <SCORE.INTRA.REPUL>
0

>  <SCORE.INTRA.REPUL.0>
0

>  <SCORE.INTRA.SOLV>
0.141981

>  <SCORE.INTRA.SOLV.lig_0>
-10.5235

>  <SCORE.INTRA.VDW>
0.509953

>  <SCORE.INTRA.VDW.0>
-1.38455

>  <SCORE.INTRA.norm>
-0.106631

>  <SCORE.RESTR>
0.00456729

>  <SCORE.RESTR.CAVITY>
0.00456729

>  <SCORE.RESTR.norm>
0.000163117

>  <SCORE.SYSTEM>
0

>  <SCORE.SYSTEM.CONST>
0

>  <SCORE.SYSTEM.DIHEDRAL>
0

>  <SCORE.SYSTEM.SOLV>
0

>  <SCORE.SYSTEM.norm>
0

>  <SCORE.heavy>
28

>  <SCORE.norm>
-0.588713

>  <RMSD>
14.925

$$$$
ligand
 OpenBabel11021811413D
libRbt.so/2013.1/901 2013/11/27
 28 32  0  0  0  0  0  0  0  0999 V2000
   46.7999   22.9055   11.0186 C   0  0  0  0  0  0  0  0  0  0  0  0
   45.2893   22.9421   11.1392 C   0  0  0  0  0  0  0  0  0  0  0  0
   44.8460   23.5512   12.4610 C   0  0  0  0  0  0  0  0  0  0  0  0
   38.6054   27.5649   11.5664 O   0  0  0  0  0  0  0  0  0  0  0  0
   39.7665   26.9476   11.0081 C   0  0  0  0  0  0  0  0  0  0  0  0
   44.6906   26.9703   11.2652 C   0  0  0  0  0  0  0  0  0  0  0  0
   44.7754   26.0379   10.2392 C   0  0  0  0  0  0  0  0  0  0  0  0
   43.6049   25.5335    9.6668 C   0  0  0  0  0  0  0  0  0  0  0  0
   42.3541   25.9604   10.1145 C   0  0  0  0  0  0  0  0  0  0  0  0
   41.0383   27.4280   11.7191 C   0  0  1  0  0  0  0  0  0  0  0  0
   42.2968   26.9049   11.1125 C   0  0  0  0  0  0  0  0  0  0  0  0
   43.4486   27.3953   11.6739 C   0  0  0  0  0  0  0  0  0  0  0  0
   43.2516   28.3291   12.7663 C   0  0  1  0  0  0  0  0  0  0  0  0
   42.6288   30.7146   12.4309 C   0  0  0  0  0  0  0  0  0  0  0  0
   42.3592   29.3739   12.2958 C   0  0  0  0  0  0  0  0  0  0  0  0
   41.1914   28.9278   11.7376 C   0  0  0  0  0  0  0  0  0  0  0  0
   40.2448   29.8393   11.2936 C   0  0  0  0  0  0  0  0  0  0  0  0
   40.5134   31.2052   11.4052 C   0  0  0  0  0  0  0  0  0  0  0  0
   41.7053   31.6387   11.9709 C   0  0  0  0  0  0  0  0  0  0  0  0
   43.3428   23.3917   12.6480 C   0  0  0  0  0  0  0  0  0  0  0  0
   42.9227   23.8800   14.0293 C   0  0  0  0  0  0  0  0  0  0  0  0
   40.5325   24.7294   13.0082 O   0  0  0  0  0  0  0  0  0  0  0  0
   44.2691   26.2862   14.6510 O   0  0  0  0  0  0  0  0  0  0  0  0
   43.1480   26.2834   14.1703 C   0  0  0  0  0  0  0  0  0  0  0  0
   42.4620   25.2501   13.8701 N   0  0  0  0  0  0  0  0  0  0  0  0
   41.3463   25.5427   13.3623 C   0  0  0  0  0  0  0  0  0  0  0  0
   41.1469   27.0090   13.1937 C   0  0  1  0  0  0  0  0  0  0  0  0
   42.4503   27.5419   13.7941 C   0  0  2  0  0  0  0  0  0  0  0  0
  1  2  1  0  0  0  0
  2  3  1  0  0  0  0
  3 20  1  0  0  0  0
  4  5  1  0  0  0  0
  6  7  2  0  0  0  0
  6 12  1  0  0  0  0
  7  8  1  0  0  0  0
  8  9  2  0  0  0  0
  9 11  1  0  0  0  0
 10  5  1  6  0  0  0
 10 11  1  0  0  0  0
 10 16  1  0  0  0  0
 10 27  1  0  0  0  0
 11 12  2  0  0  0  0
 13 12  1  6  0  0  0
 13 15  1  0  0  0  0
 13 28  1  0  0  0  0
 14 15  2  0  0  0  0
 14 19  1  0  0  0  0
 15 16  1  0  0  0  0
 16 17  2  0  0  0  0
 17 18  1  0  0  0  0
 18 19  2  0  0  0  0
 20 21  1  0  0  0  0
 21 25  1  0  0  0  0
 22 26  2  0  0  0  0
 23 24  2  0  0  0  0
 24 25  1  0  0  0  0
 25 26  1  0  0  0  0
 27 26  1  6  0  0  0
 27 28  1  0  0  0  0
 28 24  1  6  0  0  0
M  END
>  <CHROM.1>
-171.69697110,-175.36695465,174.50813016,96.35169605,-101.71941679,42.54290592
26.66297108,12.17301189,-0.95483824,0.32118562,-0.25915990

>  <Name>
ligand

>  <RI>
0

>  <Rbt.Current_Directory>
/home/itssahil/PROJECTS/Mol_Feturizer/New_Systems/rnas/1YLS

>  <Rbt.Executable>
rbdock ($Id: //depot/dev/client3/rdock/2013.1/src/exe/rbdock.cxx#4 $)

>  <Rbt.Library>
libRbt.so (2013.1, Build901 2013/11/27)

>  <Rbt.Parameter_File>
/export/apps/rDock/src/rDock_2013.1_src/data/scripts/dock_solv.prm

>  <Rbt.Receptor>
prm/blind_docking_80.prm

>  <SCORE>
-15.2567

>  <SCORE.INTER>
-11.0847

>  <SCORE.INTER.CONST>
1

>  <SCORE.INTER.POLAR>
0

>  <SCORE.INTER.ROT>
5

>  <SCORE.INTER.SOLV>
9.63768

>  <SCORE.INTER.VDW>
-17.5357

>  <SCORE.INTER.norm>
-0.395882

>  <SCORE.INTRA>
-4.17317

>  <SCORE.INTRA.DIHEDRAL>
-5.30286

>  <SCORE.INTRA.DIHEDRAL.0>
12.0148

>  <SCORE.INTRA.POLAR>
0

>  <SCORE.INTRA.POLAR.0>
0

>  <SCORE.INTRA.REPUL>
0

>  <SCORE.INTRA.REPUL.0>
0

>  <SCORE.INTRA.SOLV>
0.28897

>  <SCORE.INTRA.SOLV.lig_0>
-10.5235

>  <SCORE.INTRA.VDW>
-1.66622

>  <SCORE.INTRA.VDW.0>
-1.38455

>  <SCORE.INTRA.norm>
-0.149042

>  <SCORE.RESTR>
0.00115512

>  <SCORE.RESTR.CAVITY>
0.00115512

>  <SCORE.RESTR.norm>
4.12543e-05

>  <SCORE.SYSTEM>
0

>  <SCORE.SYSTEM.CONST>
0

>  <SCORE.SYSTEM.DIHEDRAL>
0

>  <SCORE.SYSTEM.SOLV>
0

>  <SCORE.SYSTEM.norm>
0

>  <SCORE.heavy>
28

>  <SCORE.norm>
-0.544882

>  <RMSD>
14.930

$$$$
ligand
 OpenBabel11021811413D
libRbt.so/2013.1/901 2013/11/27
 28 32  0  0  0  0  0  0  0  0999 V2000
   47.1816   20.5182   12.4982 C   0  0  0  0  0  0  0  0  0  0  0  0
   46.1618   21.6357   12.5933 C   0  0  0  0  0  0  0  0  0  0  0  0
   46.3667   22.6771   11.5031 C   0  0  0  0  0  0  0  0  0  0  0  0
   43.0271   29.2992   14.3048 O   0  0  0  0  0  0  0  0  0  0  0  0
   43.4166   29.0629   12.9507 C   0  0  0  0  0  0  0  0  0  0  0  0
   41.9282   24.3686   13.1970 C   0  0  0  0  0  0  0  0  0  0  0  0
   42.7503   24.1372   14.2924 C   0  0  0  0  0  0  0  0  0  0  0  0
   43.5592   25.1678   14.7779 C   0  0  0  0  0  0  0  0  0  0  0  0
   43.5455   26.4258   14.1745 C   0  0  0  0  0  0  0  0  0  0  0  0
   42.6058   27.9127   12.3398 C   0  0  1  0  0  0  0  0  0  0  0  0
   42.7025   26.6381   13.1088 C   0  0  0  0  0  0  0  0  0  0  0  0
   41.9121   25.6224   12.6333 C   0  0  0  0  0  0  0  0  0  0  0  0
   41.1250   25.9527   11.4605 C   0  0  1  0  0  0  0  0  0  0  0  0
   39.0247   27.2836   11.5533 C   0  0  0  0  0  0  0  0  0  0  0  0
   40.3780   27.1620   11.7589 C   0  0  0  0  0  0  0  0  0  0  0  0
   41.1311   28.2054   12.2263 C   0  0  0  0  0  0  0  0  0  0  0  0
   40.5285   29.4239   12.5026 C   0  0  0  0  0  0  0  0  0  0  0  0
   39.1506   29.5566   12.3184 C   0  0  0  0  0  0  0  0  0  0  0  0
   38.4025   28.4858   11.8470 C   0  0  0  0  0  0  0  0  0  0  0  0
   45.3166   23.7756   11.6064 C   0  0  0  0  0  0  0  0  0  0  0  0
   45.5148   24.8079   10.5028 C   0  0  0  0  0  0  0  0  0  0  0  0
   45.3812   27.4463   11.2087 O   0  0  0  0  0  0  0  0  0  0  0  0
   42.8425   24.1628    9.8458 O   0  0  0  0  0  0  0  0  0  0  0  0
   43.1622   25.2828   10.2083 C   0  0  0  0  0  0  0  0  0  0  0  0
   44.3407   25.6661   10.5124 N   0  0  0  0  0  0  0  0  0  0  0  0
   44.3761   26.8708   10.8805 C   0  0  0  0  0  0  0  0  0  0  0  0
   43.0317   27.5104   10.9190 C   0  0  1  0  0  0  0  0  0  0  0  0
   42.1568   26.3588   10.4172 C   0  0  2  0  0  0  0  0  0  0  0  0
  1  2  1  0  0  0  0
  2  3  1  0  0  0  0
  3 20  1  0  0  0  0
  4  5  1  0  0  0  0
  6  7  2  0  0  0  0
  6 12  1  0  0  0  0
  7  8  1  0  0  0  0
  8  9  2  0  0  0  0
  9 11  1  0  0  0  0
 10  5  1  1  0  0  0
 10 11  1  0  0  0  0
 10 16  1  0  0  0  0
 10 27  1  0  0  0  0
 11 12  2  0  0  0  0
 13 12  1  1  0  0  0
 13 15  1  0  0  0  0
 13 28  1  0  0  0  0
 14 15  2  0  0  0  0
 14 19  1  0  0  0  0
 15 16  1  0  0  0  0
 16 17  2  0  0  0  0
 17 18  1  0  0  0  0
 18 19  2  0  0  0  0
 20 21  1  0  0  0  0
 21 25  1  0  0  0  0
 22 26  2  0  0  0  0
 23 24  2  0  0  0  0
 24 25  1  0  0  0  0
 25 26  1  0  0  0  0
 27 26  1  1  0  0  0
 27 28  1  0  0  0  0
 28 24  1  1  0  0  0
M  END
>  <CHROM.1>
179.05727091,-56.44890654,-179.32247329,169.35917046,-66.43075965,43.02604742
26.05739569,12.04579659,-0.71980126,-0.45784783,0.53931224

>  <Name>
ligand

>  <RI>
0

>  <Rbt.Current_Directory>
/home/itssahil/PROJECTS/Mol_Feturizer/New_Systems/rnas/1YLS

>  <Rbt.Executable>
rbdock ($Id: //depot/dev/client3/rdock/2013.1/src/exe/rbdock.cxx#4 $)

>  <Rbt.Library>
libRbt.so (2013.1, Build901 2013/11/27)

>  <Rbt.Parameter_File>
/export/apps/rDock/src/rDock_2013.1_src/data/scripts/dock_solv.prm

>  <Rbt.Receptor>
prm/blind_docking_80.prm

>  <SCORE>
-9.50408

>  <SCORE.INTER>
-4.96249

>  <SCORE.INTER.CONST>
1

>  <SCORE.INTER.POLAR>
0

>  <SCORE.INTER.ROT>
5

>  <SCORE.INTER.SOLV>
9.2991

>  <SCORE.INTER.VDW>
-13.3414

>  <SCORE.INTER.norm>
-0.177232

>  <SCORE.INTRA>
-5.08082

>  <SCORE.INTRA.DIHEDRAL>
-9.05513

>  <SCORE.INTRA.DIHEDRAL.0>
12.0148

>  <SCORE.INTRA.POLAR>
0

>  <SCORE.INTRA.POLAR.0>
0

>  <SCORE.INTRA.REPUL>
0

>  <SCORE.INTRA.REPUL.0>
0

>  <SCORE.INTRA.SOLV>
-0.0107085

>  <SCORE.INTRA.SOLV.lig_0>
-10.5235

>  <SCORE.INTRA.VDW>
-0.547904

>  <SCORE.INTRA.VDW.0>
-1.38455

>  <SCORE.INTRA.norm>
-0.181458

>  <SCORE.RESTR>
0.539225

>  <SCORE.RESTR.CAVITY>
0.539225

>  <SCORE.RESTR.norm>
0.019258

>  <SCORE.SYSTEM>
0

>  <SCORE.SYSTEM.CONST>
0

>  <SCORE.SYSTEM.DIHEDRAL>
0

>  <SCORE.SYSTEM.SOLV>
0

>  <SCORE.SYSTEM.norm>
0

>  <SCORE.heavy>
28

>  <SCORE.norm>
-0.339432

>  <RMSD>
14.936

$$$$
ligand
 OpenBabel11021811413D
libRbt.so/2013.1/901 2013/11/27
 28 32  0  0  0  0  0  0  0  0999 V2000
   46.2613   21.4866   10.3393 C   0  0  0  0  0  0  0  0  0  0  0  0
   46.4081   22.9216   10.8050 C   0  0  0  0  0  0  0  0  0  0  0  0
   45.1419   23.4246   11.4822 C   0  0  0  0  0  0  0  0  0  0  0  0
   42.4980   31.0842   11.7865 O   0  0  0  0  0  0  0  0  0  0  0  0
   42.8062   30.0623   12.7362 C   0  0  0  0  0  0  0  0  0  0  0  0
   42.0118   25.3013   13.7434 C   0  0  0  0  0  0  0  0  0  0  0  0
   42.9257   25.3421   14.7886 C   0  0  0  0  0  0  0  0  0  0  0  0
   43.6106   26.5292   15.0603 C   0  0  0  0  0  0  0  0  0  0  0  0
   43.3819   27.6726   14.2939 C   0  0  0  0  0  0  0  0  0  0  0  0
   42.1284   28.7393   12.3572 C   0  0  1  0  0  0  0  0  0  0  0  0
   42.4519   27.6147   13.2824 C   0  0  0  0  0  0  0  0  0  0  0  0
   41.7839   26.4461   13.0170 C   0  0  0  0  0  0  0  0  0  0  0  0
   40.8857   26.4954   11.8790 C   0  0  1  0  0  0  0  0  0  0  0  0
   38.6291   27.5404   11.9620 C   0  0  0  0  0  0  0  0  0  0  0  0
   39.9963   27.6276   12.0699 C   0  0  0  0  0  0  0  0  0  0  0  0
   40.6230   28.8175   12.3267 C   0  0  0  0  0  0  0  0  0  0  0  0
   39.8736   29.9742   12.4828 C   0  0  0  0  0  0  0  0  0  0  0  0
   38.4818   29.8978   12.3964 C   0  0  0  0  0  0  0  0  0  0  0  0
   37.8637   28.6812   12.1391 C   0  0  0  0  0  0  0  0  0  0  0  0
   45.3117   24.8700   11.9317 C   0  0  0  0  0  0  0  0  0  0  0  0
   45.3237   25.8046   10.7278 C   0  0  0  0  0  0  0  0  0  0  0  0
   44.8649   28.4778   11.0753 O   0  0  0  0  0  0  0  0  0  0  0  0
   42.7327   24.7275   10.3878 O   0  0  0  0  0  0  0  0  0  0  0  0
   42.9138   25.9205   10.5663 C   0  0  0  0  0  0  0  0  0  0  0  0
   44.0435   26.4945   10.7170 N   0  0  0  0  0  0  0  0  0  0  0  0
   43.9322   27.7344   10.9128 C   0  0  0  0  0  0  0  0  0  0  0  0
   42.5162   28.1920   10.9744 C   0  0  1  0  0  0  0  0  0  0  0  0
   41.7822   26.8752   10.7085 C   0  0  2  0  0  0  0  0  0  0  0  0
  1  2  1  0  0  0  0
  2  3  1  0  0  0  0
  3 20  1  0  0  0  0
  4  5  1  0  0  0  0
  6  7  2  0  0  0  0
  6 12  1  0  0  0  0
  7  8  1  0  0  0  0
  8  9  2  0  0  0  0
  9 11  1  0  0  0  0
 10  5  1  1  0  0  0
 10 11  1  0  0  0  0
 10 16  1  0  0  0  0
 10 27  1  0  0  0  0
 11 12  2  0  0  0  0
 13 12  1  1  0  0  0
 13 15  1  0  0  0  0
 13 28  1  0  0  0  0
 14 15  2  0  0  0  0
 14 19  1  0  0  0  0
 15 16  1  0  0  0  0
 16 17  2  0  0  0  0
 17 18  1  0  0  0  0
 18 19  2  0  0  0  0
 20 21  1  0  0  0  0
 21 25  1  0  0  0  0
 22 26  2  0  0  0  0
 23 24  2  0  0  0  0
 24 25  1  0  0  0  0
 25 26  1  0  0  0  0
 27 26  1  1  0  0  0
 27 28  1  0  0  0  0
 28 24  1  1  0  0  0
M  END
>  <CHROM.1>
-179.60518317,177.82643815,71.47317483,106.08870091,-63.33517957,42.66888710
26.90473761,11.96103336,0.80185868,-0.20938811,-3.11782807

>  <Name>
ligand

>  <RI>
0

>  <Rbt.Current_Directory>
/home/itssahil/PROJECTS/Mol_Feturizer/New_Systems/rnas/1YLS

>  <Rbt.Executable>
rbdock ($Id: //depot/dev/client3/rdock/2013.1/src/exe/rbdock.cxx#4 $)

>  <Rbt.Library>
libRbt.so (2013.1, Build901 2013/11/27)

>  <Rbt.Parameter_File>
/export/apps/rDock/src/rDock_2013.1_src/data/scripts/dock_solv.prm

>  <Rbt.Receptor>
prm/blind_docking_60.prm

>  <SCORE>
-14.9704

>  <SCORE.INTER>
-13.306

>  <SCORE.INTER.CONST>
1

>  <SCORE.INTER.POLAR>
0

>  <SCORE.INTER.ROT>
5

>  <SCORE.INTER.SOLV>
7.70095

>  <SCORE.INTER.VDW>
-18.371

>  <SCORE.INTER.norm>
-0.475215

>  <SCORE.INTRA>
-1.66441

>  <SCORE.INTRA.DIHEDRAL>
-4.20227

>  <SCORE.INTRA.DIHEDRAL.0>
12.0148

>  <SCORE.INTRA.POLAR>
0

>  <SCORE.INTRA.POLAR.0>
0

>  <SCORE.INTRA.REPUL>
0

>  <SCORE.INTRA.REPUL.0>
0

>  <SCORE.INTRA.SOLV>
0.456584

>  <SCORE.INTRA.SOLV.lig_0>
-10.5235

>  <SCORE.INTRA.VDW>
0.208431

>  <SCORE.INTRA.VDW.0>
-1.38455

>  <SCORE.INTRA.norm>
-0.0594433

>  <SCORE.RESTR>
0

>  <SCORE.RESTR.CAVITY>
0

>  <SCORE.RESTR.norm>
0

>  <SCORE.SYSTEM>
0

>  <SCORE.SYSTEM.CONST>
0

>  <SCORE.SYSTEM.DIHEDRAL>
0

>  <SCORE.SYSTEM.SOLV>
0

>  <SCORE.SYSTEM.norm>
0

>  <SCORE.heavy>
28

>  <SCORE.norm>
-0.534659

>  <RMSD>
14.937

$$$$
ligand
 OpenBabel11021811413D
libRbt.so/2013.1/901 2013/11/27
 28 32  0  0  0  0  0  0  0  0999 V2000
   46.6478   21.7205   10.4888 C   0  0  0  0  0  0  0  0  0  0  0  0
   45.6879   22.8693   10.7266 C   0  0  0  0  0  0  0  0  0  0  0  0
   46.2310   23.8515   11.7537 C   0  0  0  0  0  0  0  0  0  0  0  0
   42.4251   31.1847   11.7320 O   0  0  0  0  0  0  0  0  0  0  0  0
   42.7417   30.1736   12.6904 C   0  0  0  0  0  0  0  0  0  0  0  0
   41.9632   25.4221   13.7535 C   0  0  0  0  0  0  0  0  0  0  0  0
   42.8867   25.4747   14.7896 C   0  0  0  0  0  0  0  0  0  0  0  0
   43.5724   26.6655   15.0429 C   0  0  0  0  0  0  0  0  0  0  0  0
   43.3351   27.8007   14.2670 C   0  0  0  0  0  0  0  0  0  0  0  0
   42.0622   28.8458   12.3312 C   0  0  1  0  0  0  0  0  0  0  0  0
   42.3958   27.7312   13.2648 C   0  0  0  0  0  0  0  0  0  0  0  0
   41.7269   26.5591   13.0175 C   0  0  0  0  0  0  0  0  0  0  0  0
   40.8182   26.5957   11.8875 C   0  0  1  0  0  0  0  0  0  0  0  0
   38.5610   27.6385   11.9808 C   0  0  0  0  0  0  0  0  0  0  0  0
   39.9290   27.7286   12.0752 C   0  0  0  0  0  0  0  0  0  0  0  0
   40.5564   28.9218   12.3139 C   0  0  0  0  0  0  0  0  0  0  0  0
   39.8069   30.0791   12.4651 C   0  0  0  0  0  0  0  0  0  0  0  0
   38.4145   30.0001   12.3925 C   0  0  0  0  0  0  0  0  0  0  0  0
   37.7957   28.7801   12.1534 C   0  0  0  0  0  0  0  0  0  0  0  0
   45.2677   25.0159   11.9444 C   0  0  0  0  0  0  0  0  0  0  0  0
   45.2462   25.8988   10.7022 C   0  0  0  0  0  0  0  0  0  0  0  0
   44.7870   28.5748   11.0267 O   0  0  0  0  0  0  0  0  0  0  0  0
   42.6537   24.8149   10.3973 O   0  0  0  0  0  0  0  0  0  0  0  0
   42.8348   26.0099   10.5620 C   0  0  0  0  0  0  0  0  0  0  0  0
   43.9651   26.5869   10.6962 N   0  0  0  0  0  0  0  0  0  0  0  0
   43.8538   27.8286   10.8805 C   0  0  0  0  0  0  0  0  0  0  0  0
   42.4379   28.2850   10.9505 C   0  0  1  0  0  0  0  0  0  0  0  0
   41.7033   26.9646   10.7049 C   0  0  2  0  0  0  0  0  0  0  0  0
  1  2  1  0  0  0  0
  2  3  1  0  0  0  0
  3 20  1  0  0  0  0
  4  5  1  0  0  0  0
  6  7  2  0  0  0  0
  6 12  1  0  0  0  0
  7  8  1  0  0  0  0
  8  9  2  0  0  0  0
  9 11  1  0  0  0  0
 10  5  1  1  0  0  0
 10 11  1  0  0  0  0
 10 16  1  0  0  0  0
 10 27  1  0  0  0  0
 11 12  2  0  0  0  0
 13 12  1  1  0  0  0
 13 15  1  0  0  0  0
 13 28  1  0  0  0  0
 14 15  2  0  0  0  0
 14 19  1  0  0  0  0
 15 16  1  0  0  0  0
 16 17  2  0  0  0  0
 17 18  1  0  0  0  0
 18 19  2  0  0  0  0
 20 21  1  0  0  0  0
 21 25  1  0  0  0  0
 22 26  2  0  0  0  0
 23 24  2  0  0  0  0
 24 25  1  0  0  0  0
 25 26  1  0  0  0  0
 27 26  1  1  0  0  0
 27 28  1  0  0  0  0
 28 24  1  1  0  0  0
M  END
>  <CHROM.1>
178.34840478,177.72637066,-69.67988290,155.66463719,-65.42325559,42.64078418
27.02213278,11.96317963,0.77307865,-0.20469720,-3.13842543

>  <Name>
ligand

>  <RI>
0

>  <Rbt.Current_Directory>
/home/itssahil/PROJECTS/Mol_Feturizer/New_Systems/rnas/1YLS

>  <Rbt.Executable>
rbdock ($Id: //depot/dev/client3/rdock/2013.1/src/exe/rbdock.cxx#4 $)

>  <Rbt.Library>
libRbt.so (2013.1, Build901 2013/11/27)

>  <Rbt.Parameter_File>
/export/apps/rDock/src/rDock_2013.1_src/data/scripts/dock_solv.prm

>  <Rbt.Receptor>
prm/blind_docking_60.prm

>  <SCORE>
-16.0655

>  <SCORE.INTER>
-12.8236

>  <SCORE.INTER.CONST>
1

>  <SCORE.INTER.POLAR>
0

>  <SCORE.INTER.ROT>
5

>  <SCORE.INTER.SOLV>
7.58769

>  <SCORE.INTER.VDW>
-18.0116

>  <SCORE.INTER.norm>
-0.457987

>  <SCORE.INTRA>
-3.2419

>  <SCORE.INTRA.DIHEDRAL>
-7.18805

>  <SCORE.INTRA.DIHEDRAL.0>
12.0148

>  <SCORE.INTRA.POLAR>
0

>  <SCORE.INTRA.POLAR.0>
0

>  <SCORE.INTRA.REPUL>
0

>  <SCORE.INTRA.REPUL.0>
0

>  <SCORE.INTRA.SOLV>
0.365452

>  <SCORE.INTRA.SOLV.lig_0>
-10.5235

>  <SCORE.INTRA.VDW>
0.169397

>  <SCORE.INTRA.VDW.0>
-1.38455

>  <SCORE.INTRA.norm>
-0.115782

>  <SCORE.RESTR>
0

>  <SCORE.RESTR.CAVITY>
0

>  <SCORE.RESTR.norm>
0

>  <SCORE.SYSTEM>
0

>  <SCORE.SYSTEM.CONST>
0

>  <SCORE.SYSTEM.DIHEDRAL>
0

>  <SCORE.SYSTEM.SOLV>
0

>  <SCORE.SYSTEM.norm>
0

>  <SCORE.heavy>
28

>  <SCORE.norm>
-0.573769

>  <RMSD>
14.938

$$$$
ligand
 OpenBabel11021811413D
libRbt.so/2013.1/901 2013/11/27
 28 32  0  0  0  0  0  0  0  0999 V2000
   46.7076   21.7306   10.4547 C   0  0  0  0  0  0  0  0  0  0  0  0
   45.7578   22.8957   10.6499 C   0  0  0  0  0  0  0  0  0  0  0  0
   46.2426   23.8388   11.7410 C   0  0  0  0  0  0  0  0  0  0  0  0
   42.4255   31.1810   11.7069 O   0  0  0  0  0  0  0  0  0  0  0  0
   42.7411   30.1780   12.6742 C   0  0  0  0  0  0  0  0  0  0  0  0
   41.9734   25.4319   13.7687 C   0  0  0  0  0  0  0  0  0  0  0  0
   42.8974   25.4932   14.8039 C   0  0  0  0  0  0  0  0  0  0  0  0
   43.5807   26.6871   15.0490 C   0  0  0  0  0  0  0  0  0  0  0  0
   43.3405   27.8167   14.2659 C   0  0  0  0  0  0  0  0  0  0  0  0
   42.0643   28.8465   12.3240 C   0  0  1  0  0  0  0  0  0  0  0  0
   42.4008   27.7387   13.2647 C   0  0  0  0  0  0  0  0  0  0  0  0
   41.7344   26.5635   13.0255 C   0  0  0  0  0  0  0  0  0  0  0  0
   40.8249   26.5908   11.8958 C   0  0  1  0  0  0  0  0  0  0  0  0
   38.5656   27.6294   11.9835 C   0  0  0  0  0  0  0  0  0  0  0  0
   39.9334   27.7231   12.0765 C   0  0  0  0  0  0  0  0  0  0  0  0
   40.5584   28.9191   12.3071 C   0  0  0  0  0  0  0  0  0  0  0  0
   39.8065   30.0758   12.4512 C   0  0  0  0  0  0  0  0  0  0  0  0
   38.4142   29.9933   12.3799 C   0  0  0  0  0  0  0  0  0  0  0  0
   37.7979   28.7704   12.1491 C   0  0  0  0  0  0  0  0  0  0  0  0
   45.2591   24.9856   11.9350 C   0  0  0  0  0  0  0  0  0  0  0  0
   45.2538   25.8957   10.7125 C   0  0  0  0  0  0  0  0  0  0  0  0
   44.7890   28.5728   11.0198 O   0  0  0  0  0  0  0  0  0  0  0  0
   42.6634   24.8043   10.4161 O   0  0  0  0  0  0  0  0  0  0  0  0
   42.8420   26.0008   10.5729 C   0  0  0  0  0  0  0  0  0  0  0  0
   43.9711   26.5810   10.7028 N   0  0  0  0  0  0  0  0  0  0  0  0
   43.8573   27.8237   10.8790 C   0  0  0  0  0  0  0  0  0  0  0  0
   42.4405   28.2775   10.9468 C   0  0  1  0  0  0  0  0  0  0  0  0
   41.7085   26.9539   10.7103 C   0  0  2  0  0  0  0  0  0  0  0  0
  1  2  1  0  0  0  0
  2  3  1  0  0  0  0
  3 20  1  0  0  0  0
  4  5  1  0  0  0  0
  6  7  2  0  0  0  0
  6 12  1  0  0  0  0
  7  8  1  0  0  0  0
  8  9  2  0  0  0  0
  9 11  1  0  0  0  0
 10  5  1  1  0  0  0
 10 11  1  0  0  0  0
 10 16  1  0  0  0  0
 10 27  1  0  0  0  0
 11 12  2  0  0  0  0
 13 12  1  1  0  0  0
 13 15  1  0  0  0  0
 13 28  1  0  0  0  0
 14 15  2  0  0  0  0
 14 19  1  0  0  0  0
 15 16  1  0  0  0  0
 16 17  2  0  0  0  0
 17 18  1  0  0  0  0
 18 19  2  0  0  0  0
 20 21  1  0  0  0  0
 21 25  1  0  0  0  0
 22 26  2  0  0  0  0
 23 24  2  0  0  0  0
 24 25  1  0  0  0  0
 25 26  1  0  0  0  0
 27 26  1  1  0  0  0
 27 28  1  0  0  0  0
 28 24  1  1  0  0  0
M  END
>  <CHROM.1>
-178.96011788,177.52888341,-67.93485375,156.46568909,-63.55793565,42.64994892
27.02110917,11.95817099,0.76866964,-0.21010864,-3.14096831

>  <Name>
ligand

>  <RI>
0

>  <Rbt.Current_Directory>
/home/itssahil/PROJECTS/Mol_Feturizer/New_Systems/rnas/1YLS

>  <Rbt.Executable>
rbdock ($Id: //depot/dev/client3/rdock/2013.1/src/exe/rbdock.cxx#4 $)

>  <Rbt.Library>
libRbt.so (2013.1, Build901 2013/11/27)

>  <Rbt.Parameter_File>
/export/apps/rDock/src/rDock_2013.1_src/data/scripts/dock_solv.prm

>  <Rbt.Receptor>
prm/blind_docking_60.prm

>  <SCORE>
-16.0029

>  <SCORE.INTER>
-12.8003

>  <SCORE.INTER.CONST>
1

>  <SCORE.INTER.POLAR>
0

>  <SCORE.INTER.ROT>
5

>  <SCORE.INTER.SOLV>
7.65215

>  <SCORE.INTER.VDW>
-18.0176

>  <SCORE.INTER.norm>
-0.457153

>  <SCORE.INTRA>
-3.20261

>  <SCORE.INTRA.DIHEDRAL>
-7.44443

>  <SCORE.INTRA.DIHEDRAL.0>
12.0148

>  <SCORE.INTRA.POLAR>
0

>  <SCORE.INTRA.POLAR.0>
0

>  <SCORE.INTRA.REPUL>
0

>  <SCORE.INTRA.REPUL.0>
0

>  <SCORE.INTRA.SOLV>
0.365232

>  <SCORE.INTRA.SOLV.lig_0>
-10.5235

>  <SCORE.INTRA.VDW>
0.336993

>  <SCORE.INTRA.VDW.0>
-1.38455

>  <SCORE.INTRA.norm>
-0.114379

>  <SCORE.RESTR>
0

>  <SCORE.RESTR.CAVITY>
0

>  <SCORE.RESTR.norm>
0

>  <SCORE.SYSTEM>
0

>  <SCORE.SYSTEM.CONST>
0

>  <SCORE.SYSTEM.DIHEDRAL>
0

>  <SCORE.SYSTEM.SOLV>
0

>  <SCORE.SYSTEM.norm>
0

>  <SCORE.heavy>
28

>  <SCORE.norm>
-0.571532

>  <RMSD>
14.942

$$$$
ligand
 OpenBabel11021811413D
libRbt.so/2013.1/901 2013/11/27
 28 32  0  0  0  0  0  0  0  0999 V2000
   46.8427   22.8349   11.4442 C   0  0  0  0  0  0  0  0  0  0  0  0
   45.5980   21.9702   11.4164 C   0  0  0  0  0  0  0  0  0  0  0  0
   44.7459   22.1722   12.6605 C   0  0  0  0  0  0  0  0  0  0  0  0
   39.6511   27.0990    9.8203 O   0  0  0  0  0  0  0  0  0  0  0  0
   39.8058   26.5916   11.1469 C   0  0  0  0  0  0  0  0  0  0  0  0
   44.7057   27.1380   11.2205 C   0  0  0  0  0  0  0  0  0  0  0  0
   44.8485   26.2418   10.1690 C   0  0  0  0  0  0  0  0  0  0  0  0
   43.7166   25.6266    9.6282 C   0  0  0  0  0  0  0  0  0  0  0  0
   42.4462   25.9071   10.1328 C   0  0  0  0  0  0  0  0  0  0  0  0
   41.0464   27.1909   11.8217 C   0  0  1  0  0  0  0  0  0  0  0  0
   42.3283   26.8189   11.1557 C   0  0  0  0  0  0  0  0  0  0  0  0
   43.4428   27.4184   11.6858 C   0  0  0  0  0  0  0  0  0  0  0  0
   43.1910   28.3025   12.8079 C   0  0  1  0  0  0  0  0  0  0  0  0
   42.3047   30.6138   12.5560 C   0  0  0  0  0  0  0  0  0  0  0  0
   42.1743   29.2549   12.3974 C   0  0  0  0  0  0  0  0  0  0  0  0
   41.0394   28.6978   11.8722 C   0  0  0  0  0  0  0  0  0  0  0  0
   39.9841   29.5113   11.4869 C   0  0  0  0  0  0  0  0  0  0  0  0
   40.1098   30.8955   11.6226 C   0  0  0  0  0  0  0  0  0  0  0  0
   41.2703   31.4427   12.1541 C   0  0  0  0  0  0  0  0  0  0  0  0
   44.0924   23.5480   12.6456 C   0  0  0  0  0  0  0  0  0  0  0  0
   43.3887   23.8183   13.9702 C   0  0  0  0  0  0  0  0  0  0  0  0
   40.8829   24.4271   13.0607 O   0  0  0  0  0  0  0  0  0  0  0  0
   44.4946   26.3417   14.6014 O   0  0  0  0  0  0  0  0  0  0  0  0
   43.3620   26.2285   14.1630 C   0  0  0  0  0  0  0  0  0  0  0  0
   42.7786   25.1340   13.8627 N   0  0  0  0  0  0  0  0  0  0  0  0
   41.6188   25.3156   13.4045 C   0  0  0  0  0  0  0  0  0  0  0  0
   41.2577   26.7551   13.2803 C   0  0  1  0  0  0  0  0  0  0  0  0
   42.5198   27.4124   13.8448 C   0  0  2  0  0  0  0  0  0  0  0  0
  1  2  1  0  0  0  0
  2  3  1  0  0  0  0
  3 20  1  0  0  0  0
  4  5  1  0  0  0  0
  6  7  2  0  0  0  0
  6 12  1  0  0  0  0
  7  8  1  0  0  0  0
  8  9  2  0  0  0  0
  9 11  1  0  0  0  0
 10  5  1  6  0  0  0
 10 11  1  0  0  0  0
 10 16  1  0  0  0  0
 10 27  1  0  0  0  0
 11 12  2  0  0  0  0
 13 12  1  6  0  0  0
 13 15  1  0  0  0  0
 13 28  1  0  0  0  0
 14 15  2  0  0  0  0
 14 19  1  0  0  0  0
 15 16  1  0  0  0  0
 16 17  2  0  0  0  0
 17 18  1  0  0  0  0
 18 19  2  0  0  0  0
 20 21  1  0  0  0  0
 21 25  1  0  0  0  0
 22 26  2  0  0  0  0
 23 24  2  0  0  0  0
 24 25  1  0  0  0  0
 25 26  1  0  0  0  0
 27 26  1  6  0  0  0
 27 28  1  0  0  0  0
 28 24  1  6  0  0  0
M  END
>  <CHROM.1>
70.33005995,-63.91233895,-172.67785354,-179.11650215,-88.63725647,42.65677832
26.46228349,12.17482943,-0.74045241,-0.74656669,0.55754774

>  <Name>
ligand

>  <RI>
0

>  <Rbt.Current_Directory>
/home/itssahil/PROJECTS/Mol_Feturizer/New_Systems/rnas/1YLS

>  <Rbt.Executable>
rbdock ($Id: //depot/dev/client3/rdock/2013.1/src/exe/rbdock.cxx#4 $)

>  <Rbt.Library>
libRbt.so (2013.1, Build901 2013/11/27)

>  <Rbt.Parameter_File>
/export/apps/rDock/src/rDock_2013.1_src/data/scripts/dock_solv.prm

>  <Rbt.Receptor>
prm/blind_docking_80.prm

>  <SCORE>
-15.814

>  <SCORE.INTER>
-11.2402

>  <SCORE.INTER.CONST>
1

>  <SCORE.INTER.POLAR>
0

>  <SCORE.INTER.ROT>
5

>  <SCORE.INTER.SOLV>
10.3851

>  <SCORE.INTER.VDW>
-17.8885

>  <SCORE.INTER.norm>
-0.401436

>  <SCORE.INTRA>
-4.57378

>  <SCORE.INTRA.DIHEDRAL>
-8.72572

>  <SCORE.INTRA.DIHEDRAL.0>
12.0148

>  <SCORE.INTRA.POLAR>
0

>  <SCORE.INTRA.POLAR.0>
0

>  <SCORE.INTRA.REPUL>
0

>  <SCORE.INTRA.REPUL.0>
0

>  <SCORE.INTRA.SOLV>
-0.06966

>  <SCORE.INTRA.SOLV.lig_0>
-10.5235

>  <SCORE.INTRA.VDW>
-0.176089

>  <SCORE.INTRA.VDW.0>
-1.38455

>  <SCORE.INTRA.norm>
-0.163349

>  <SCORE.RESTR>
0

>  <SCORE.RESTR.CAVITY>
0

>  <SCORE.RESTR.norm>
0

>  <SCORE.SYSTEM>
0

>  <SCORE.SYSTEM.CONST>
0

>  <SCORE.SYSTEM.DIHEDRAL>
0

>  <SCORE.SYSTEM.SOLV>
0

>  <SCORE.SYSTEM.norm>
0

>  <SCORE.heavy>
28

>  <SCORE.norm>
-0.564785

>  <RMSD>
14.955

$$$$
ligand
 OpenBabel11021811413D
libRbt.so/2013.1/901 2013/11/27
 28 32  0  0  0  0  0  0  0  0999 V2000
   46.4289   20.3566   10.7833 C   0  0  0  0  0  0  0  0  0  0  0  0
   45.7304   21.5393   11.4244 C   0  0  0  0  0  0  0  0  0  0  0  0
   46.1471   22.8537   10.7814 C   0  0  0  0  0  0  0  0  0  0  0  0
   42.8396   29.7486   14.2315 O   0  0  0  0  0  0  0  0  0  0  0  0
   43.2303   29.4276   12.8953 C   0  0  0  0  0  0  0  0  0  0  0  0
   42.1612   24.6432   13.4236 C   0  0  0  0  0  0  0  0  0  0  0  0
   43.0714   24.5273   14.4664 C   0  0  0  0  0  0  0  0  0  0  0  0
   43.8217   25.6403   14.8543 C   0  0  0  0  0  0  0  0  0  0  0  0
   43.6619   26.8656   14.2060 C   0  0  0  0  0  0  0  0  0  0  0  0
   42.4798   28.1898   12.3870 C   0  0  1  0  0  0  0  0  0  0  0  0
   42.7345   26.9620   13.1951 C   0  0  0  0  0  0  0  0  0  0  0  0
   42.0021   25.8658   12.8153 C   0  0  0  0  0  0  0  0  0  0  0  0
   41.1133   26.0796   11.6892 C   0  0  1  0  0  0  0  0  0  0  0  0
   38.9196   27.2384   11.8790 C   0  0  0  0  0  0  0  0  0  0  0  0
   40.2890   27.2361   11.9932 C   0  0  0  0  0  0  0  0  0  0  0  0
   40.9814   28.3567   12.3666 C   0  0  0  0  0  0  0  0  0  0  0  0
   40.2985   29.5331   12.6382 C   0  0  0  0  0  0  0  0  0  0  0  0
   38.9051   29.5453   12.5466 C   0  0  0  0  0  0  0  0  0  0  0  0
   38.2197   28.3977   12.1700 C   0  0  0  0  0  0  0  0  0  0  0  0
   45.3020   24.0034   11.3145 C   0  0  0  0  0  0  0  0  0  0  0  0
   45.5096   25.2543   10.4688 C   0  0  0  0  0  0  0  0  0  0  0  0
   45.2025   27.9014   11.0818 O   0  0  0  0  0  0  0  0  0  0  0  0
   42.8629   24.3663   10.0265 O   0  0  0  0  0  0  0  0  0  0  0  0
   43.1109   25.5233   10.3229 C   0  0  0  0  0  0  0  0  0  0  0  0
   44.2709   26.0139   10.5285 N   0  0  0  0  0  0  0  0  0  0  0  0
   44.2296   27.2324   10.8472 C   0  0  0  0  0  0  0  0  0  0  0  0
   42.8418   27.7618   10.9560 C   0  0  1  0  0  0  0  0  0  0  0  0
   42.0350   26.5222   10.5611 C   0  0  2  0  0  0  0  0  0  0  0  0
  1  2  1  0  0  0  0
  2  3  1  0  0  0  0
  3 20  1  0  0  0  0
  4  5  1  0  0  0  0
  6  7  2  0  0  0  0
  6 12  1  0  0  0  0
  7  8  1  0  0  0  0
  8  9  2  0  0  0  0
  9 11  1  0  0  0  0
 10  5  1  1  0  0  0
 10 11  1  0  0  0  0
 10 16  1  0  0  0  0
 10 27  1  0  0  0  0
 11 12  2  0  0  0  0
 13 12  1  1  0  0  0
 13 15  1  0  0  0  0
 13 28  1  0  0  0  0
 14 15  2  0  0  0  0
 14 19  1  0  0  0  0
 15 16  1  0  0  0  0
 16 17  2  0  0  0  0
 17 18  1  0  0  0  0
 18 19  2  0  0  0  0
 20 21  1  0  0  0  0
 21 25  1  0  0  0  0
 22 26  2  0  0  0  0
 23 24  2  0  0  0  0
 24 25  1  0  0  0  0
 25 26  1  0  0  0  0
 27 26  1  1  0  0  0
 27 28  1  0  0  0  0
 28 24  1  1  0  0  0
M  END
>  <CHROM.1>
172.60074585,-60.73042787,-168.00290987,150.42784629,-49.29466171,42.92420052
26.27987626,11.97791659,0.88410932,0.07799065,-2.81670771

>  <Name>
ligand

>  <RI>
0

>  <Rbt.Current_Directory>
/home/itssahil/PROJECTS/Mol_Feturizer/New_Systems/rnas/1YLS

>  <Rbt.Executable>
rbdock ($Id: //depot/dev/client3/rdock/2013.1/src/exe/rbdock.cxx#4 $)

>  <Rbt.Library>
libRbt.so (2013.1, Build901 2013/11/27)

>  <Rbt.Parameter_File>
/export/apps/rDock/src/rDock_2013.1_src/data/scripts/dock_solv.prm

>  <Rbt.Receptor>
prm/blind_docking_100.prm

>  <SCORE>
-13.7427

>  <SCORE.INTER>
-11.3165

>  <SCORE.INTER.CONST>
1

>  <SCORE.INTER.POLAR>
0

>  <SCORE.INTER.ROT>
5

>  <SCORE.INTER.SOLV>
9.83884

>  <SCORE.INTER.VDW>
-17.7573

>  <SCORE.INTER.norm>
-0.40416

>  <SCORE.INTRA>
-2.42619

>  <SCORE.INTRA.DIHEDRAL>
-6.19249

>  <SCORE.INTRA.DIHEDRAL.0>
12.0148

>  <SCORE.INTRA.POLAR>
0

>  <SCORE.INTRA.POLAR.0>
0

>  <SCORE.INTRA.REPUL>
0

>  <SCORE.INTRA.REPUL.0>
0

>  <SCORE.INTRA.SOLV>
0.0798952

>  <SCORE.INTRA.SOLV.lig_0>
-10.5235

>  <SCORE.INTRA.VDW>
0.630111

>  <SCORE.INTRA.VDW.0>
-1.38455

>  <SCORE.INTRA.norm>
-0.0866496

>  <SCORE.RESTR>
0

>  <SCORE.RESTR.CAVITY>
0

>  <SCORE.RESTR.norm>
0

>  <SCORE.SYSTEM>
0

>  <SCORE.SYSTEM.CONST>
0

>  <SCORE.SYSTEM.DIHEDRAL>
0

>  <SCORE.SYSTEM.SOLV>
0

>  <SCORE.SYSTEM.norm>
0

>  <SCORE.heavy>
28

>  <SCORE.norm>
-0.490809

>  <RMSD>
14.970

$$$$
ligand
 OpenBabel11021811413D
libRbt.so/2013.1/901 2013/11/27
 28 32  0  0  0  0  0  0  0  0999 V2000
   46.3911   20.3975   10.7181 C   0  0  0  0  0  0  0  0  0  0  0  0
   45.7272   21.5844   11.3876 C   0  0  0  0  0  0  0  0  0  0  0  0
   46.1480   22.8985   10.7467 C   0  0  0  0  0  0  0  0  0  0  0  0
   42.8128   29.7652   14.2491 O   0  0  0  0  0  0  0  0  0  0  0  0
   43.2226   29.4469   12.9179 C   0  0  0  0  0  0  0  0  0  0  0  0
   42.1741   24.6530   13.3994 C   0  0  0  0  0  0  0  0  0  0  0  0
   43.0821   24.5316   14.4435 C   0  0  0  0  0  0  0  0  0  0  0  0
   43.8263   25.6445   14.8436 C   0  0  0  0  0  0  0  0  0  0  0  0
   43.6626   26.8749   14.2062 C   0  0  0  0  0  0  0  0  0  0  0  0
   42.4790   28.2105   12.3964 C   0  0  1  0  0  0  0  0  0  0  0  0
   42.7374   26.9764   13.1937 C   0  0  0  0  0  0  0  0  0  0  0  0
   42.0110   25.8804   12.8020 C   0  0  0  0  0  0  0  0  0  0  0  0
   41.1240   26.1005   11.6755 C   0  0  1  0  0  0  0  0  0  0  0  0
   38.9245   27.2475   11.8703 C   0  0  0  0  0  0  0  0  0  0  0  0
   40.2937   27.2505   11.9881 C   0  0  0  0  0  0  0  0  0  0  0  0
   40.9800   28.3706   12.3735 C   0  0  0  0  0  0  0  0  0  0  0  0
   40.2910   29.5414   12.6542 C   0  0  0  0  0  0  0  0  0  0  0  0
   38.8978   29.5481   12.5591 C   0  0  0  0  0  0  0  0  0  0  0  0
   38.2186   28.4009   12.1701 C   0  0  0  0  0  0  0  0  0  0  0  0
   45.3283   24.0546   11.3051 C   0  0  0  0  0  0  0  0  0  0  0  0
   45.5272   25.3066   10.4591 C   0  0  0  0  0  0  0  0  0  0  0  0
   45.2064   27.9465   11.0957 O   0  0  0  0  0  0  0  0  0  0  0  0
   42.8857   24.4107   10.0018 O   0  0  0  0  0  0  0  0  0  0  0  0
   43.1277   25.5660   10.3094 C   0  0  0  0  0  0  0  0  0  0  0  0
   44.2849   26.0600   10.5226 N   0  0  0  0  0  0  0  0  0  0  0  0
   44.2372   27.2753   10.8524 C   0  0  0  0  0  0  0  0  0  0  0  0
   42.8467   27.7974   10.9625 C   0  0  1  0  0  0  0  0  0  0  0  0
   42.0466   26.5578   10.5540 C   0  0  2  0  0  0  0  0  0  0  0  0
  1  2  1  0  0  0  0
  2  3  1  0  0  0  0
  3 20  1  0  0  0  0
  4  5  1  0  0  0  0
  6  7  2  0  0  0  0
  6 12  1  0  0  0  0
  7  8  1  0  0  0  0
  8  9  2  0  0  0  0
  9 11  1  0  0  0  0
 10  5  1  1  0  0  0
 10 11  1  0  0  0  0
 10 16  1  0  0  0  0
 10 27  1  0  0  0  0
 11 12  2  0  0  0  0
 13 12  1  1  0  0  0
 13 15  1  0  0  0  0
 13 28  1  0  0  0  0
 14 15  2  0  0  0  0
 14 19  1  0  0  0  0
 15 16  1  0  0  0  0
 16 17  2  0  0  0  0
 17 18  1  0  0  0  0
 18 19  2  0  0  0  0
 20 21  1  0  0  0  0
 21 25  1  0  0  0  0
 22 26  2  0  0  0  0
 23 24  2  0  0  0  0
 24 25  1  0  0  0  0
 25 26  1  0  0  0  0
 27 26  1  1  0  0  0
 27 28  1  0  0  0  0
 28 24  1  1  0  0  0
M  END
>  <CHROM.1>
172.24404257,-61.56802783,-167.58097310,148.86703971,-49.90173989,42.92731678
26.30640175,11.97057232,0.88331450,0.07299098,-2.81232004

>  <Name>
ligand

>  <RI>
0

>  <Rbt.Current_Directory>
/home/itssahil/PROJECTS/Mol_Feturizer/New_Systems/rnas/1YLS

>  <Rbt.Executable>
rbdock ($Id: //depot/dev/client3/rdock/2013.1/src/exe/rbdock.cxx#4 $)

>  <Rbt.Library>
libRbt.so (2013.1, Build901 2013/11/27)

>  <Rbt.Parameter_File>
/export/apps/rDock/src/rDock_2013.1_src/data/scripts/dock_solv.prm

>  <Rbt.Receptor>
prm/blind_docking_100.prm

>  <SCORE>
-13.8056

>  <SCORE.INTER>
-11.4571

>  <SCORE.INTER.CONST>
1

>  <SCORE.INTER.POLAR>
0

>  <SCORE.INTER.ROT>
5

>  <SCORE.INTER.SOLV>
9.88727

>  <SCORE.INTER.VDW>
-17.8671

>  <SCORE.INTER.norm>
-0.409181

>  <SCORE.INTRA>
-2.34857

>  <SCORE.INTRA.DIHEDRAL>
-5.89615

>  <SCORE.INTRA.DIHEDRAL.0>
12.0148

>  <SCORE.INTRA.POLAR>
0

>  <SCORE.INTRA.POLAR.0>
0

>  <SCORE.INTRA.REPUL>
0

>  <SCORE.INTRA.REPUL.0>
0

>  <SCORE.INTRA.SOLV>
0.0846963

>  <SCORE.INTRA.SOLV.lig_0>
-10.5235

>  <SCORE.INTRA.VDW>
0.557153

>  <SCORE.INTRA.VDW.0>
-1.38455

>  <SCORE.INTRA.norm>
-0.0838776

>  <SCORE.RESTR>
0

>  <SCORE.RESTR.CAVITY>
0

>  <SCORE.RESTR.norm>
0

>  <SCORE.SYSTEM>
0

>  <SCORE.SYSTEM.CONST>
0

>  <SCORE.SYSTEM.DIHEDRAL>
0

>  <SCORE.SYSTEM.SOLV>
0

>  <SCORE.SYSTEM.norm>
0

>  <SCORE.heavy>
28

>  <SCORE.norm>
-0.493058

>  <RMSD>
14.978

$$$$
ligand
 OpenBabel11021811413D
libRbt.so/2013.1/901 2013/11/27
 28 32  0  0  0  0  0  0  0  0999 V2000
   46.0493   20.5916   11.6695 C   0  0  0  0  0  0  0  0  0  0  0  0
   45.2648   21.8820   11.5380 C   0  0  0  0  0  0  0  0  0  0  0  0
   44.5449   22.2358   12.8308 C   0  0  0  0  0  0  0  0  0  0  0  0
   38.6430   27.4910   11.5693 O   0  0  0  0  0  0  0  0  0  0  0  0
   39.8134   26.8957   11.0062 C   0  0  0  0  0  0  0  0  0  0  0  0
   44.7375   27.0539   11.2069 C   0  0  0  0  0  0  0  0  0  0  0  0
   44.8362   26.1256   10.1783 C   0  0  0  0  0  0  0  0  0  0  0  0
   43.6735   25.5900    9.6185 C   0  0  0  0  0  0  0  0  0  0  0  0
   42.4167   25.9815   10.0813 C   0  0  0  0  0  0  0  0  0  0  0  0
   41.0795   27.4099   11.7034 C   0  0  1  0  0  0  0  0  0  0  0  0
   42.3449   26.9226   11.0815 C   0  0  0  0  0  0  0  0  0  0  0  0
   43.4891   27.4438   11.6305 C   0  0  0  0  0  0  0  0  0  0  0  0
   43.2791   28.3702   12.7268 C   0  0  1  0  0  0  0  0  0  0  0  0
   42.5869   30.7381   12.4029 C   0  0  0  0  0  0  0  0  0  0  0  0
   42.3528   29.3907   12.2684 C   0  0  0  0  0  0  0  0  0  0  0  0
   41.1914   28.9134   11.7229 C   0  0  0  0  0  0  0  0  0  0  0  0
   40.2149   29.7991   11.2914 C   0  0  0  0  0  0  0  0  0  0  0  0
   40.4471   31.1717   11.4024 C   0  0  0  0  0  0  0  0  0  0  0  0
   41.6330   31.6371   11.9551 C   0  0  0  0  0  0  0  0  0  0  0  0
   43.7971   23.5548   12.6849 C   0  0  0  0  0  0  0  0  0  0  0  0
   43.0875   23.9119   13.9856 C   0  0  0  0  0  0  0  0  0  0  0  0
   40.6632   24.6966   12.9935 O   0  0  0  0  0  0  0  0  0  0  0  0
   44.3741   26.3534   14.5961 O   0  0  0  0  0  0  0  0  0  0  0  0
   43.2480   26.3204   14.1282 C   0  0  0  0  0  0  0  0  0  0  0  0
   42.5874   25.2690   13.8341 N   0  0  0  0  0  0  0  0  0  0  0  0
   41.4583   25.5315   13.3397 C   0  0  0  0  0  0  0  0  0  0  0  0
   41.2166   26.9919   13.1760 C   0  0  1  0  0  0  0  0  0  0  0  0
   42.5117   27.5598   13.7623 C   0  0  2  0  0  0  0  0  0  0  0  0
  1  2  1  0  0  0  0
  2  3  1  0  0  0  0
  3 20  1  0  0  0  0
  4  5  1  0  0  0  0
  6  7  2  0  0  0  0
  6 12  1  0  0  0  0
  7  8  1  0  0  0  0
  8  9  2  0  0  0  0
  9 11  1  0  0  0  0
 10  5  1  6  0  0  0
 10 11  1  0  0  0  0
 10 16  1  0  0  0  0
 10 27  1  0  0  0  0
 11 12  2  0  0  0  0
 13 12  1  6  0  0  0
 13 15  1  0  0  0  0
 13 28  1  0  0  0  0
 14 15  2  0  0  0  0
 14 19  1  0  0  0  0
 15 16  1  0  0  0  0
 16 17  2  0  0  0  0
 17 18  1  0  0  0  0
 18 19  2  0  0  0  0
 20 21  1  0  0  0  0
 21 25  1  0  0  0  0
 22 26  2  0  0  0  0
 23 24  2  0  0  0  0
 24 25  1  0  0  0  0
 25 26  1  0  0  0  0
 27 26  1  6  0  0  0
 27 28  1  0  0  0  0
 28 24  1  6  0  0  0
M  END
>  <CHROM.1>
178.40055705,-174.73463021,-179.49770830,170.97411666,-88.87011428,42.55942757
26.49200948,12.20671362,-1.08370590,0.14560201,-0.14768713

>  <Name>
ligand

>  <RI>
0

>  <Rbt.Current_Directory>
/home/itssahil/PROJECTS/Mol_Feturizer/New_Systems/rnas/1YLS

>  <Rbt.Executable>
rbdock ($Id: //depot/dev/client3/rdock/2013.1/src/exe/rbdock.cxx#4 $)

>  <Rbt.Library>
libRbt.so (2013.1, Build901 2013/11/27)

>  <Rbt.Parameter_File>
/export/apps/rDock/src/rDock_2013.1_src/data/scripts/dock_solv.prm

>  <Rbt.Receptor>
prm/blind_docking_80.prm

>  <SCORE>
-15.8781

>  <SCORE.INTER>
-10.7085

>  <SCORE.INTER.CONST>
1

>  <SCORE.INTER.POLAR>
0

>  <SCORE.INTER.ROT>
5

>  <SCORE.INTER.SOLV>
10.2386

>  <SCORE.INTER.VDW>
-17.4852

>  <SCORE.INTER.norm>
-0.382447

>  <SCORE.INTRA>
-5.1696

>  <SCORE.INTRA.DIHEDRAL>
-8.9925

>  <SCORE.INTRA.DIHEDRAL.0>
12.0148

>  <SCORE.INTRA.POLAR>
0

>  <SCORE.INTRA.POLAR.0>
0

>  <SCORE.INTRA.REPUL>
0

>  <SCORE.INTRA.REPUL.0>
0

>  <SCORE.INTRA.SOLV>
0.107285

>  <SCORE.INTRA.SOLV.lig_0>
-10.5235

>  <SCORE.INTRA.VDW>
-0.726999

>  <SCORE.INTRA.VDW.0>
-1.38455

>  <SCORE.INTRA.norm>
-0.184629

>  <SCORE.RESTR>
0

>  <SCORE.RESTR.CAVITY>
0

>  <SCORE.RESTR.norm>
0

>  <SCORE.SYSTEM>
0

>  <SCORE.SYSTEM.CONST>
0

>  <SCORE.SYSTEM.DIHEDRAL>
0

>  <SCORE.SYSTEM.SOLV>
0

>  <SCORE.SYSTEM.norm>
0

>  <SCORE.heavy>
28

>  <SCORE.norm>
-0.567076

>  <RMSD>
14.980

$$$$
ligand
 OpenBabel11021811413D
libRbt.so/2013.1/901 2013/11/27
 28 32  0  0  0  0  0  0  0  0999 V2000
   46.0770   22.4960   10.9812 C   0  0  0  0  0  0  0  0  0  0  0  0
   44.8576   21.6911   11.3848 C   0  0  0  0  0  0  0  0  0  0  0  0
   44.3188   22.1285   12.7388 C   0  0  0  0  0  0  0  0  0  0  0  0
   38.6439   27.4909   11.5911 O   0  0  0  0  0  0  0  0  0  0  0  0
   39.8114   26.9113   11.0062 C   0  0  0  0  0  0  0  0  0  0  0  0
   44.7368   27.0416   11.1965 C   0  0  0  0  0  0  0  0  0  0  0  0
   44.8281   26.1121   10.1683 C   0  0  0  0  0  0  0  0  0  0  0  0
   43.6612   25.5827    9.6113 C   0  0  0  0  0  0  0  0  0  0  0  0
   42.4076   25.9817   10.0764 C   0  0  0  0  0  0  0  0  0  0  0  0
   41.0819   27.4188   11.7004 C   0  0  1  0  0  0  0  0  0  0  0  0
   42.3432   26.9239   11.0762 C   0  0  0  0  0  0  0  0  0  0  0  0
   43.4915   27.4389   11.6225 C   0  0  0  0  0  0  0  0  0  0  0  0
   43.2891   28.3672   12.7185 C   0  0  1  0  0  0  0  0  0  0  0  0
   42.6097   30.7388   12.3945 C   0  0  0  0  0  0  0  0  0  0  0  0
   42.3677   29.3926   12.2614 C   0  0  0  0  0  0  0  0  0  0  0  0
   41.2024   28.9216   11.7186 C   0  0  0  0  0  0  0  0  0  0  0  0
   40.2301   29.8125   11.2886 C   0  0  0  0  0  0  0  0  0  0  0  0
   40.4703   31.1839   11.3982 C   0  0  0  0  0  0  0  0  0  0  0  0
   41.6600   31.6429   11.9481 C   0  0  0  0  0  0  0  0  0  0  0  0
   43.6885   23.5119   12.6439 C   0  0  0  0  0  0  0  0  0  0  0  0
   43.0748   23.9109   13.9807 C   0  0  0  0  0  0  0  0  0  0  0  0
   40.6529   24.7086   12.9932 O   0  0  0  0  0  0  0  0  0  0  0  0
   44.3765   26.3454   14.5869 O   0  0  0  0  0  0  0  0  0  0  0  0
   43.2493   26.3185   14.1214 C   0  0  0  0  0  0  0  0  0  0  0  0
   42.5821   25.2707   13.8293 N   0  0  0  0  0  0  0  0  0  0  0  0
   41.4535   25.5393   13.3371 C   0  0  0  0  0  0  0  0  0  0  0  0
   41.2198   27.0009   13.1730 C   0  0  1  0  0  0  0  0  0  0  0  0
   42.5193   27.5618   13.7562 C   0  0  2  0  0  0  0  0  0  0  0  0
  1  2  1  0  0  0  0
  2  3  1  0  0  0  0
  3 20  1  0  0  0  0
  4  5  1  0  0  0  0
  6  7  2  0  0  0  0
  6 12  1  0  0  0  0
  7  8  1  0  0  0  0
  8  9  2  0  0  0  0
  9 11  1  0  0  0  0
 10  5  1  6  0  0  0
 10 11  1  0  0  0  0
 10 16  1  0  0  0  0
 10 27  1  0  0  0  0
 11 12  2  0  0  0  0
 13 12  1  6  0  0  0
 13 15  1  0  0  0  0
 13 28  1  0  0  0  0
 14 15  2  0  0  0  0
 14 19  1  0  0  0  0
 15 16  1  0  0  0  0
 16 17  2  0  0  0  0
 17 18  1  0  0  0  0
 18 19  2  0  0  0  0
 20 21  1  0  0  0  0
 21 25  1  0  0  0  0
 22 26  2  0  0  0  0
 23 24  2  0  0  0  0
 24 25  1  0  0  0  0
 25 26  1  0  0  0  0
 27 26  1  6  0  0  0
 27 28  1  0  0  0  0
 28 24  1  6  0  0  0
M  END
>  <CHROM.1>
70.11057044,-176.02784949,176.55055965,176.12116591,-92.97237440,42.53456695
26.55884735,12.16405772,-1.06840771,0.26892952,-0.19616740

>  <Name>
ligand

>  <RI>
0

>  <Rbt.Current_Directory>
/home/itssahil/PROJECTS/Mol_Feturizer/New_Systems/rnas/1YLS

>  <Rbt.Executable>
rbdock ($Id: //depot/dev/client3/rdock/2013.1/src/exe/rbdock.cxx#4 $)

>  <Rbt.Library>
libRbt.so (2013.1, Build901 2013/11/27)

>  <Rbt.Parameter_File>
/export/apps/rDock/src/rDock_2013.1_src/data/scripts/dock_solv.prm

>  <Rbt.Receptor>
prm/blind_docking_80.prm

>  <SCORE>
-15.5836

>  <SCORE.INTER>
-11.2248

>  <SCORE.INTER.CONST>
1

>  <SCORE.INTER.POLAR>
0

>  <SCORE.INTER.ROT>
5

>  <SCORE.INTER.SOLV>
10.2373

>  <SCORE.INTER.VDW>
-17.829

>  <SCORE.INTER.norm>
-0.400886

>  <SCORE.INTRA>
-4.36065

>  <SCORE.INTRA.DIHEDRAL>
-8.8327

>  <SCORE.INTRA.DIHEDRAL.0>
12.0148

>  <SCORE.INTRA.POLAR>
0

>  <SCORE.INTRA.POLAR.0>
0

>  <SCORE.INTRA.REPUL>
0

>  <SCORE.INTRA.REPUL.0>
0

>  <SCORE.INTRA.SOLV>
0.0944595

>  <SCORE.INTRA.SOLV.lig_0>
-10.5235

>  <SCORE.INTRA.VDW>
0.00847474

>  <SCORE.INTRA.VDW.0>
-1.38455

>  <SCORE.INTRA.norm>
-0.155737

>  <SCORE.RESTR>
0.00182348

>  <SCORE.RESTR.CAVITY>
0.00182348

>  <SCORE.RESTR.norm>
6.51243e-05

>  <SCORE.SYSTEM>
0

>  <SCORE.SYSTEM.CONST>
0

>  <SCORE.SYSTEM.DIHEDRAL>
0

>  <SCORE.SYSTEM.SOLV>
0

>  <SCORE.SYSTEM.norm>
0

>  <SCORE.heavy>
28

>  <SCORE.norm>
-0.556558

>  <RMSD>
14.985

$$$$
ligand
 OpenBabel11021811413D
libRbt.so/2013.1/901 2013/11/27
 28 32  0  0  0  0  0  0  0  0999 V2000
   38.5320   31.6638   11.2136 C   0  0  0  0  0  0  0  0  0  0  0  0
   37.4653   30.6894   11.6726 C   0  0  0  0  0  0  0  0  0  0  0  0
   37.8135   30.0679   13.0170 C   0  0  0  0  0  0  0  0  0  0  0  0
   43.3087   24.3250   14.7091 O   0  0  0  0  0  0  0  0  0  0  0  0
   42.2620   24.4207   13.7415 C   0  0  0  0  0  0  0  0  0  0  0  0
   42.7685   29.2655   12.9776 C   0  0  0  0  0  0  0  0  0  0  0  0
   42.4114   29.5375   14.2921 C   0  0  0  0  0  0  0  0  0  0  0  0
   42.0774   28.4850   15.1482 C   0  0  0  0  0  0  0  0  0  0  0  0
   42.1027   27.1655   14.6951 C   0  0  0  0  0  0  0  0  0  0  0  0
   42.5251   25.5711   12.7613 C   0  0  1  0  0  0  0  0  0  0  0  0
   42.4864   26.9199   13.3975 C   0  0  0  0  0  0  0  0  0  0  0  0
   42.8106   27.9566   12.5593 C   0  0  0  0  0  0  0  0  0  0  0  0
   43.1256   27.5710   11.1969 C   0  0  1  0  0  0  0  0  0  0  0  0
   45.3133   26.5964   10.5222 C   0  0  0  0  0  0  0  0  0  0  0  0
   44.1527   26.5460   11.2565 C   0  0  0  0  0  0  0  0  0  0  0  0
   43.8645   25.4864   12.0742 C   0  0  0  0  0  0  0  0  0  0  0  0
   44.7550   24.4276   12.1741 C   0  0  0  0  0  0  0  0  0  0  0  0
   45.9482   24.4741   11.4499 C   0  0  0  0  0  0  0  0  0  0  0  0
   46.2250   25.5591   10.6285 C   0  0  0  0  0  0  0  0  0  0  0  0
   38.9838   29.1034   12.8753 C   0  0  0  0  0  0  0  0  0  0  0  0
   38.5784   27.8919   12.0441 C   0  0  0  0  0  0  0  0  0  0  0  0
   39.4957   25.4421   12.8403 O   0  0  0  0  0  0  0  0  0  0  0  0
   40.5969   28.8178   10.2956 O   0  0  0  0  0  0  0  0  0  0  0  0
   40.6725   27.7317   10.8457 C   0  0  0  0  0  0  0  0  0  0  0  0
   39.8073   27.2290   11.6378 N   0  0  0  0  0  0  0  0  0  0  0  0
   40.1574   26.1031   12.0826 C   0  0  0  0  0  0  0  0  0  0  0  0
   41.5077   25.6835   11.6149 C   0  0  1  0  0  0  0  0  0  0  0  0
   41.8707   26.8615   10.7071 C   0  0  2  0  0  0  0  0  0  0  0  0
  1  2  1  0  0  0  0
  2  3  1  0  0  0  0
  3 20  1  0  0  0  0
  4  5  1  0  0  0  0
  6  7  2  0  0  0  0
  6 12  1  0  0  0  0
  7  8  1  0  0  0  0
  8  9  2  0  0  0  0
  9 11  1  0  0  0  0
 10  5  1  1  0  0  0
 10 11  1  0  0  0  0
 10 16  1  0  0  0  0
 10 27  1  0  0  0  0
 11 12  2  0  0  0  0
 13 12  1  1  0  0  0
 13 15  1  0  0  0  0
 13 28  1  0  0  0  0
 14 15  2  0  0  0  0
 14 19  1  0  0  0  0
 15 16  1  0  0  0  0
 16 17  2  0  0  0  0
 17 18  1  0  0  0  0
 18 19  2  0  0  0  0
 20 21  1  0  0  0  0
 21 25  1  0  0  0  0
 22 26  2  0  0  0  0
 23 24  2  0  0  0  0
 24 25  1  0  0  0  0
 25 26  1  0  0  0  0
 27 26  1  1  0  0  0
 27 28  1  0  0  0  0
 28 24  1  1  0  0  0
M  END
>  <CHROM.1>
-70.40176687,-65.66152093,-67.09219688,164.15811353,-66.11669597,41.70692129
27.23380995,12.29960244,-2.66983849,-0.47854675,2.38828747

>  <Name>
ligand

>  <RI>
0

>  <Rbt.Current_Directory>
/home/itssahil/PROJECTS/Mol_Feturizer/New_Systems/rnas/1YLS

>  <Rbt.Executable>
rbdock ($Id: //depot/dev/client3/rdock/2013.1/src/exe/rbdock.cxx#4 $)

>  <Rbt.Library>
libRbt.so (2013.1, Build901 2013/11/27)

>  <Rbt.Parameter_File>
/export/apps/rDock/src/rDock_2013.1_src/data/scripts/dock_solv.prm

>  <Rbt.Receptor>
prm/blind_docking_100.prm

>  <SCORE>
-16.9387

>  <SCORE.INTER>
-14.2146

>  <SCORE.INTER.CONST>
1

>  <SCORE.INTER.POLAR>
0

>  <SCORE.INTER.ROT>
5

>  <SCORE.INTER.SOLV>
12.5411

>  <SCORE.INTER.VDW>
-20.5901

>  <SCORE.INTER.norm>
-0.507665

>  <SCORE.INTRA>
-2.82848

>  <SCORE.INTRA.DIHEDRAL>
-7.90555

>  <SCORE.INTRA.DIHEDRAL.0>
12.0148

>  <SCORE.INTRA.POLAR>
0

>  <SCORE.INTRA.POLAR.0>
0

>  <SCORE.INTRA.REPUL>
0

>  <SCORE.INTRA.REPUL.0>
0

>  <SCORE.INTRA.SOLV>
0.204034

>  <SCORE.INTRA.SOLV.lig_0>
-10.5235

>  <SCORE.INTRA.VDW>
1.02228

>  <SCORE.INTRA.VDW.0>
-1.38455

>  <SCORE.INTRA.norm>
-0.101017

>  <SCORE.RESTR>
0.104368

>  <SCORE.RESTR.CAVITY>
0.104368

>  <SCORE.RESTR.norm>
0.00372742

>  <SCORE.SYSTEM>
0

>  <SCORE.SYSTEM.CONST>
0

>  <SCORE.SYSTEM.DIHEDRAL>
0

>  <SCORE.SYSTEM.SOLV>
0

>  <SCORE.SYSTEM.norm>
0

>  <SCORE.heavy>
28

>  <SCORE.norm>
-0.604955

>  <RMSD>
14.991

$$$$
ligand
 OpenBabel11021811413D
libRbt.so/2013.1/901 2013/11/27
 28 32  0  0  0  0  0  0  0  0999 V2000
   47.5050   23.9300   11.6706 C   0  0  0  0  0  0  0  0  0  0  0  0
   46.0427   23.5386   11.5905 C   0  0  0  0  0  0  0  0  0  0  0  0
   45.2609   24.0380   12.7964 C   0  0  0  0  0  0  0  0  0  0  0  0
   39.7401   27.1855    9.6197 O   0  0  0  0  0  0  0  0  0  0  0  0
   39.7878   26.7717   10.9864 C   0  0  0  0  0  0  0  0  0  0  0  0
   44.7075   27.0132   11.2120 C   0  0  0  0  0  0  0  0  0  0  0  0
   44.8272   26.0683   10.2010 C   0  0  0  0  0  0  0  0  0  0  0  0
   43.6766   25.5039    9.6444 C   0  0  0  0  0  0  0  0  0  0  0  0
   42.4109   25.8833   10.0929 C   0  0  0  0  0  0  0  0  0  0  0  0
   41.0413   27.3189   11.6813 C   0  0  1  0  0  0  0  0  0  0  0  0
   42.3180   26.8410   11.0755 C   0  0  0  0  0  0  0  0  0  0  0  0
   43.4504   27.3904   11.6215 C   0  0  0  0  0  0  0  0  0  0  0  0
   43.2190   28.3329   12.6996 C   0  0  1  0  0  0  0  0  0  0  0  0
   42.4908   30.6831   12.3289 C   0  0  0  0  0  0  0  0  0  0  0  0
   42.2792   29.3298   12.2176 C   0  0  0  0  0  0  0  0  0  0  0  0
   41.1289   28.8241   11.6742 C   0  0  0  0  0  0  0  0  0  0  0  0
   40.1409   29.6859   11.2212 C   0  0  0  0  0  0  0  0  0  0  0  0
   40.3503   31.0639   11.3086 C   0  0  0  0  0  0  0  0  0  0  0  0
   41.5253   31.5583   11.8595 C   0  0  0  0  0  0  0  0  0  0  0  0
   43.8252   23.5312   12.7524 C   0  0  0  0  0  0  0  0  0  0  0  0
   43.0917   23.8955   14.0378 C   0  0  0  0  0  0  0  0  0  0  0  0
   40.6610   24.6228   13.0179 O   0  0  0  0  0  0  0  0  0  0  0  0
   44.3352   26.3681   14.6112 O   0  0  0  0  0  0  0  0  0  0  0  0
   43.2126   26.3084   14.1377 C   0  0  0  0  0  0  0  0  0  0  0  0
   42.5707   25.2413   13.8589 N   0  0  0  0  0  0  0  0  0  0  0  0
   41.4405   25.4766   13.3534 C   0  0  0  0  0  0  0  0  0  0  0  0
   41.1763   26.9297   13.1619 C   0  0  1  0  0  0  0  0  0  0  0  0
   42.4586   27.5289   13.7452 C   0  0  2  0  0  0  0  0  0  0  0  0
  1  2  1  0  0  0  0
  2  3  1  0  0  0  0
  3 20  1  0  0  0  0
  4  5  1  0  0  0  0
  6  7  2  0  0  0  0
  6 12  1  0  0  0  0
  7  8  1  0  0  0  0
  8  9  2  0  0  0  0
  9 11  1  0  0  0  0
 10  5  1  6  0  0  0
 10 11  1  0  0  0  0
 10 16  1  0  0  0  0
 10 27  1  0  0  0  0
 11 12  2  0  0  0  0
 13 12  1  6  0  0  0
 13 15  1  0  0  0  0
 13 28  1  0  0  0  0
 14 15  2  0  0  0  0
 14 19  1  0  0  0  0
 15 16  1  0  0  0  0
 16 17  2  0  0  0  0
 17 18  1  0  0  0  0
 18 19  2  0  0  0  0
 20 21  1  0  0  0  0
 21 25  1  0  0  0  0
 22 26  2  0  0  0  0
 23 24  2  0  0  0  0
 24 25  1  0  0  0  0
 25 26  1  0  0  0  0
 27 26  1  6  0  0  0
 27 28  1  0  0  0  0
 28 24  1  6  0  0  0
M  END
>  <CHROM.1>
-175.12353721,-61.33485648,173.40705430,85.64379036,-88.38340316,42.69337060
26.69811291,12.11423802,-0.89868690,0.13404257,-0.28296883

>  <Name>
ligand

>  <RI>
0

>  <Rbt.Current_Directory>
/home/itssahil/PROJECTS/Mol_Feturizer/New_Systems/rnas/1YLS

>  <Rbt.Executable>
rbdock ($Id: //depot/dev/client3/rdock/2013.1/src/exe/rbdock.cxx#4 $)

>  <Rbt.Library>
libRbt.so (2013.1, Build901 2013/11/27)

>  <Rbt.Parameter_File>
/export/apps/rDock/src/rDock_2013.1_src/data/scripts/dock_solv.prm

>  <Rbt.Receptor>
prm/blind_docking_60.prm

>  <SCORE>
-16.2348

>  <SCORE.INTER>
-10.9156

>  <SCORE.INTER.CONST>
1

>  <SCORE.INTER.POLAR>
0

>  <SCORE.INTER.ROT>
5

>  <SCORE.INTER.SOLV>
9.73509

>  <SCORE.INTER.VDW>
-17.4554

>  <SCORE.INTER.norm>
-0.389843

>  <SCORE.INTRA>
-5.31918

>  <SCORE.INTRA.DIHEDRAL>
-7.00769

>  <SCORE.INTRA.DIHEDRAL.0>
12.0148

>  <SCORE.INTRA.POLAR>
0

>  <SCORE.INTRA.POLAR.0>
0

>  <SCORE.INTRA.REPUL>
0

>  <SCORE.INTRA.REPUL.0>
0

>  <SCORE.INTRA.SOLV>
0.201167

>  <SCORE.INTRA.SOLV.lig_0>
-10.5235

>  <SCORE.INTRA.VDW>
-1.91592

>  <SCORE.INTRA.VDW.0>
-1.38455

>  <SCORE.INTRA.norm>
-0.189971

>  <SCORE.RESTR>
0

>  <SCORE.RESTR.CAVITY>
0

>  <SCORE.RESTR.norm>
0

>  <SCORE.SYSTEM>
0

>  <SCORE.SYSTEM.CONST>
0

>  <SCORE.SYSTEM.DIHEDRAL>
0

>  <SCORE.SYSTEM.SOLV>
0

>  <SCORE.SYSTEM.norm>
0

>  <SCORE.heavy>
28

>  <SCORE.norm>
-0.579813

>  <RMSD>
14.997

$$$$
ligand
 OpenBabel11021811413D
libRbt.so/2013.1/901 2013/11/27
 28 32  0  0  0  0  0  0  0  0999 V2000
   37.4297   31.9084   11.3273 C   0  0  0  0  0  0  0  0  0  0  0  0
   38.4526   30.8231   11.5986 C   0  0  0  0  0  0  0  0  0  0  0  0
   38.1188   30.0394   12.8593 C   0  0  0  0  0  0  0  0  0  0  0  0
   41.4100   24.7122   14.6106 O   0  0  0  0  0  0  0  0  0  0  0  0
   42.5912   24.5002   13.8353 C   0  0  0  0  0  0  0  0  0  0  0  0
   42.8622   29.3459   12.9642 C   0  0  0  0  0  0  0  0  0  0  0  0
   42.4914   29.6292   14.2725 C   0  0  0  0  0  0  0  0  0  0  0  0
   42.2084   28.5809   15.1518 C   0  0  0  0  0  0  0  0  0  0  0  0
   42.2982   27.2544   14.7280 C   0  0  0  0  0  0  0  0  0  0  0  0
   42.7987   25.6401   12.8297 C   0  0  1  0  0  0  0  0  0  0  0  0
   42.6942   26.9992   13.4360 C   0  0  0  0  0  0  0  0  0  0  0  0
   42.9681   28.0316   12.5749 C   0  0  0  0  0  0  0  0  0  0  0  0
   43.3023   27.6318   11.2212 C   0  0  1  0  0  0  0  0  0  0  0  0
   45.5352   26.7499   10.5673 C   0  0  0  0  0  0  0  0  0  0  0  0
   44.3780   26.6594   11.3031 C   0  0  0  0  0  0  0  0  0  0  0  0
   44.1411   25.6054   12.1441 C   0  0  0  0  0  0  0  0  0  0  0  0
   45.0820   24.5937   12.2670 C   0  0  0  0  0  0  0  0  0  0  0  0
   46.2720   24.6820   11.5415 C   0  0  0  0  0  0  0  0  0  0  0  0
   46.4962   25.7607   10.6961 C   0  0  0  0  0  0  0  0  0  0  0  0
   39.0820   28.8729   13.0367 C   0  0  0  0  0  0  0  0  0  0  0  0
   38.7443   27.7499   12.0631 C   0  0  0  0  0  0  0  0  0  0  0  0
   39.7791   25.3658   12.9129 O   0  0  0  0  0  0  0  0  0  0  0  0
   40.7166   28.7340   10.2937 O   0  0  0  0  0  0  0  0  0  0  0  0
   40.8445   27.6652   10.8677 C   0  0  0  0  0  0  0  0  0  0  0  0
   40.0043   27.1388   11.6710 N   0  0  0  0  0  0  0  0  0  0  0  0
   40.4084   26.0413   12.1404 C   0  0  0  0  0  0  0  0  0  0  0  0
   41.7778   25.6775   11.6815 C   0  0  1  0  0  0  0  0  0  0  0  0
   42.0837   26.8514   10.7478 C   0  0  2  0  0  0  0  0  0  0  0  0
  1  2  1  0  0  0  0
  2  3  1  0  0  0  0
  3 20  1  0  0  0  0
  4  5  1  0  0  0  0
  6  7  2  0  0  0  0
  6 12  1  0  0  0  0
  7  8  1  0  0  0  0
  8  9  2  0  0  0  0
  9 11  1  0  0  0  0
 10  5  1  1  0  0  0
 10 11  1  0  0  0  0
 10 16  1  0  0  0  0
 10 27  1  0  0  0  0
 11 12  2  0  0  0  0
 13 12  1  1  0  0  0
 13 15  1  0  0  0  0
 13 28  1  0  0  0  0
 14 15  2  0  0  0  0
 14 19  1  0  0  0  0
 15 16  1  0  0  0  0
 16 17  2  0  0  0  0
 17 18  1  0  0  0  0
 18 19  2  0  0  0  0
 20 21  1  0  0  0  0
 21 25  1  0  0  0  0
 22 26  2  0  0  0  0
 23 24  2  0  0  0  0
 24 25  1  0  0  0  0
 25 26  1  0  0  0  0
 27 26  1  1  0  0  0
 27 28  1  0  0  0  0
 28 24  1  1  0  0  0
M  END
>  <CHROM.1>
174.55063791,49.38913353,-75.17327475,145.28281732,-74.40101905,41.80471636
27.29104985,12.33092582,-2.63944281,-0.39675087,2.54469163

>  <Name>
ligand

>  <RI>
0

>  <Rbt.Current_Directory>
/home/itssahil/PROJECTS/Mol_Feturizer/New_Systems/rnas/1YLS

>  <Rbt.Executable>
rbdock ($Id: //depot/dev/client3/rdock/2013.1/src/exe/rbdock.cxx#4 $)

>  <Rbt.Library>
libRbt.so (2013.1, Build901 2013/11/27)

>  <Rbt.Parameter_File>
/export/apps/rDock/src/rDock_2013.1_src/data/scripts/dock_solv.prm

>  <Rbt.Receptor>
prm/blind_docking_100.prm

>  <SCORE>
-15.3279

>  <SCORE.INTER>
-13.9916

>  <SCORE.INTER.CONST>
1

>  <SCORE.INTER.POLAR>
0

>  <SCORE.INTER.ROT>
5

>  <SCORE.INTER.SOLV>
12.154

>  <SCORE.INTER.VDW>
-20.3124

>  <SCORE.INTER.norm>
-0.499699

>  <SCORE.INTRA>
-1.44256

>  <SCORE.INTRA.DIHEDRAL>
-4.66238

>  <SCORE.INTRA.DIHEDRAL.0>
12.0148

>  <SCORE.INTRA.POLAR>
0

>  <SCORE.INTRA.POLAR.0>
0

>  <SCORE.INTRA.REPUL>
0

>  <SCORE.INTRA.REPUL.0>
0

>  <SCORE.INTRA.SOLV>
0.849223

>  <SCORE.INTRA.SOLV.lig_0>
-10.5235

>  <SCORE.INTRA.VDW>
0.464018

>  <SCORE.INTRA.VDW.0>
-1.38455

>  <SCORE.INTRA.norm>
-0.05152

>  <SCORE.RESTR>
0.106289

>  <SCORE.RESTR.CAVITY>
0.106289

>  <SCORE.RESTR.norm>
0.00379603

>  <SCORE.SYSTEM>
0

>  <SCORE.SYSTEM.CONST>
0

>  <SCORE.SYSTEM.DIHEDRAL>
0

>  <SCORE.SYSTEM.SOLV>
0

>  <SCORE.SYSTEM.norm>
0

>  <SCORE.heavy>
28

>  <SCORE.norm>
-0.547423

>  <RMSD>
14.999

$$$$
ligand
 OpenBabel11021811413D
libRbt.so/2013.1/901 2013/11/27
 28 32  0  0  0  0  0  0  0  0999 V2000
   46.2042   20.5721   10.8826 C   0  0  0  0  0  0  0  0  0  0  0  0
   45.5955   21.9536   11.0194 C   0  0  0  0  0  0  0  0  0  0  0  0
   44.8226   22.1002   12.3217 C   0  0  0  0  0  0  0  0  0  0  0  0
   39.6775   27.0740    9.8582 O   0  0  0  0  0  0  0  0  0  0  0  0
   39.8264   26.5446   11.1768 C   0  0  0  0  0  0  0  0  0  0  0  0
   44.7195   27.1528   11.1873 C   0  0  0  0  0  0  0  0  0  0  0  0
   44.8524   26.3212   10.0828 C   0  0  0  0  0  0  0  0  0  0  0  0
   43.7176   25.7230    9.5290 C   0  0  0  0  0  0  0  0  0  0  0  0
   42.4543   25.9563   10.0736 C   0  0  0  0  0  0  0  0  0  0  0  0
   41.0727   27.1206   11.8613 C   0  0  1  0  0  0  0  0  0  0  0  0
   42.3456   26.8055   11.1500 C   0  0  0  0  0  0  0  0  0  0  0  0
   43.4628   27.3884   11.6925 C   0  0  0  0  0  0  0  0  0  0  0  0
   43.2226   28.2024   12.8688 C   0  0  1  0  0  0  0  0  0  0  0  0
   42.3025   30.5121   12.7693 C   0  0  0  0  0  0  0  0  0  0  0  0
   42.1860   29.1631   12.5343 C   0  0  0  0  0  0  0  0  0  0  0  0
   41.0478   28.6218   11.9996 C   0  0  0  0  0  0  0  0  0  0  0  0
   39.9749   29.4419   11.6828 C   0  0  0  0  0  0  0  0  0  0  0  0
   40.0859   30.8174   11.8966 C   0  0  0  0  0  0  0  0  0  0  0  0
   41.2499   31.3487   12.4365 C   0  0  0  0  0  0  0  0  0  0  0  0
   44.1825   23.4793   12.4134 C   0  0  0  0  0  0  0  0  0  0  0  0
   43.4999   23.6615   13.7638 C   0  0  0  0  0  0  0  0  0  0  0  0
   40.9688   24.2877   12.9400 O   0  0  0  0  0  0  0  0  0  0  0  0
   44.5865   26.1589   14.5195 O   0  0  0  0  0  0  0  0  0  0  0  0
   43.4468   26.0559   14.0972 C   0  0  0  0  0  0  0  0  0  0  0  0
   42.8712   24.9727   13.7450 N   0  0  0  0  0  0  0  0  0  0  0  0
   41.7003   25.1647   13.3207 C   0  0  0  0  0  0  0  0  0  0  0  0
   41.3187   26.6040   13.2876 C   0  0  1  0  0  0  0  0  0  0  0  0
   42.5836   27.2446   13.8649 C   0  0  2  0  0  0  0  0  0  0  0  0
  1  2  1  0  0  0  0
  2  3  1  0  0  0  0
  3 20  1  0  0  0  0
  4  5  1  0  0  0  0
  6  7  2  0  0  0  0
  6 12  1  0  0  0  0
  7  8  1  0  0  0  0
  8  9  2  0  0  0  0
  9 11  1  0  0  0  0
 10  5  1  6  0  0  0
 10 11  1  0  0  0  0
 10 16  1  0  0  0  0
 10 27  1  0  0  0  0
 11 12  2  0  0  0  0
 13 12  1  6  0  0  0
 13 15  1  0  0  0  0
 13 28  1  0  0  0  0
 14 15  2  0  0  0  0
 14 19  1  0  0  0  0
 15 16  1  0  0  0  0
 16 17  2  0  0  0  0
 17 18  1  0  0  0  0
 18 19  2  0  0  0  0
 20 21  1  0  0  0  0
 21 25  1  0  0  0  0
 22 26  2  0  0  0  0
 23 24  2  0  0  0  0
 24 25  1  0  0  0  0
 25 26  1  0  0  0  0
 27 26  1  6  0  0  0
 27 28  1  0  0  0  0
 28 24  1  6  0  0  0
M  END
>  <CHROM.1>
-178.08795876,-60.89498317,-175.65062190,-177.64922892,-88.52519752,42.66717719
26.29616512,12.12704986,0.67986948,0.87668162,-2.36434859

>  <Name>
ligand

>  <RI>
0

>  <Rbt.Current_Directory>
/home/itssahil/PROJECTS/Mol_Feturizer/New_Systems/rnas/1YLS

>  <Rbt.Executable>
rbdock ($Id: //depot/dev/client3/rdock/2013.1/src/exe/rbdock.cxx#4 $)

>  <Rbt.Library>
libRbt.so (2013.1, Build901 2013/11/27)

>  <Rbt.Parameter_File>
/export/apps/rDock/src/rDock_2013.1_src/data/scripts/dock_solv.prm

>  <Rbt.Receptor>
prm/blind_docking_100.prm

>  <SCORE>
-17.0484

>  <SCORE.INTER>
-11.4267

>  <SCORE.INTER.CONST>
1

>  <SCORE.INTER.POLAR>
0

>  <SCORE.INTER.ROT>
5

>  <SCORE.INTER.SOLV>
10.6934

>  <SCORE.INTER.VDW>
-18.1156

>  <SCORE.INTER.norm>
-0.408097

>  <SCORE.INTRA>
-5.62169

>  <SCORE.INTRA.DIHEDRAL>
-9.30964

>  <SCORE.INTRA.DIHEDRAL.0>
12.0148

>  <SCORE.INTRA.POLAR>
0

>  <SCORE.INTRA.POLAR.0>
0

>  <SCORE.INTRA.REPUL>
0

>  <SCORE.INTRA.REPUL.0>
0

>  <SCORE.INTRA.SOLV>
-0.0543032

>  <SCORE.INTRA.SOLV.lig_0>
-10.5235

>  <SCORE.INTRA.VDW>
-0.93972

>  <SCORE.INTRA.VDW.0>
-1.38455

>  <SCORE.INTRA.norm>
-0.200775

>  <SCORE.RESTR>
0

>  <SCORE.RESTR.CAVITY>
0

>  <SCORE.RESTR.norm>
0

>  <SCORE.SYSTEM>
0

>  <SCORE.SYSTEM.CONST>
0

>  <SCORE.SYSTEM.DIHEDRAL>
0

>  <SCORE.SYSTEM.SOLV>
0

>  <SCORE.SYSTEM.norm>
0

>  <SCORE.heavy>
28

>  <SCORE.norm>
-0.608871

>  <RMSD>
15.001

$$$$
ligand
 OpenBabel11021811413D
libRbt.so/2013.1/901 2013/11/27
 28 32  0  0  0  0  0  0  0  0999 V2000
   46.9182   22.8038   11.6534 C   0  0  0  0  0  0  0  0  0  0  0  0
   45.6499   21.9741   11.6241 C   0  0  0  0  0  0  0  0  0  0  0  0
   44.7841   22.2282   12.8491 C   0  0  0  0  0  0  0  0  0  0  0  0
   39.6919   27.1451    9.7012 O   0  0  0  0  0  0  0  0  0  0  0  0
   39.8044   26.6687   11.0434 C   0  0  0  0  0  0  0  0  0  0  0  0
   44.7179   27.0555   11.1874 C   0  0  0  0  0  0  0  0  0  0  0  0
   44.8478   26.1315   10.1584 C   0  0  0  0  0  0  0  0  0  0  0  0
   43.7049   25.5418    9.6124 C   0  0  0  0  0  0  0  0  0  0  0  0
   42.4366   25.8752   10.0893 C   0  0  0  0  0  0  0  0  0  0  0  0
   41.0532   27.2421   11.7256 C   0  0  1  0  0  0  0  0  0  0  0  0
   42.3326   26.8132   11.0896 C   0  0  0  0  0  0  0  0  0  0  0  0
   43.4577   27.3876   11.6250 C   0  0  0  0  0  0  0  0  0  0  0  0
   43.2175   28.3046   12.7229 C   0  0  1  0  0  0  0  0  0  0  0  0
   42.4125   30.6375   12.4053 C   0  0  0  0  0  0  0  0  0  0  0  0
   42.2397   29.2805   12.2745 C   0  0  0  0  0  0  0  0  0  0  0  0
   41.0955   28.7491   11.7427 C   0  0  0  0  0  0  0  0  0  0  0  0
   40.0741   29.5880   11.3218 C   0  0  0  0  0  0  0  0  0  0  0  0
   40.2435   30.9700   11.4291 C   0  0  0  0  0  0  0  0  0  0  0  0
   41.4128   31.4907   11.9678 C   0  0  0  0  0  0  0  0  0  0  0  0
   44.1195   23.5960   12.7620 C   0  0  0  0  0  0  0  0  0  0  0  0
   43.2475   23.8439   13.9871 C   0  0  0  0  0  0  0  0  0  0  0  0
   40.7781   24.5139   13.0224 O   0  0  0  0  0  0  0  0  0  0  0  0
   44.4262   26.3432   14.5810 O   0  0  0  0  0  0  0  0  0  0  0  0
   43.2976   26.2574   14.1262 C   0  0  0  0  0  0  0  0  0  0  0  0
   42.6831   25.1761   13.8404 N   0  0  0  0  0  0  0  0  0  0  0  0
   41.5375   25.3853   13.3588 C   0  0  0  0  0  0  0  0  0  0  0  0
   41.2265   26.8327   13.1968 C   0  0  1  0  0  0  0  0  0  0  0  0
   42.5004   27.4608   13.7678 C   0  0  2  0  0  0  0  0  0  0  0  0
  1  2  1  0  0  0  0
  2  3  1  0  0  0  0
  3 20  1  0  0  0  0
  4  5  1  0  0  0  0
  6  7  2  0  0  0  0
  6 12  1  0  0  0  0
  7  8  1  0  0  0  0
  8  9  2  0  0  0  0
  9 11  1  0  0  0  0
 10  5  1  6  0  0  0
 10 11  1  0  0  0  0
 10 16  1  0  0  0  0
 10 27  1  0  0  0  0
 11 12  2  0  0  0  0
 13 12  1  6  0  0  0
 13 15  1  0  0  0  0
 13 28  1  0  0  0  0
 14 15  2  0  0  0  0
 14 19  1  0  0  0  0
 15 16  1  0  0  0  0
 16 17  2  0  0  0  0
 17 18  1  0  0  0  0
 18 19  2  0  0  0  0
 20 21  1  0  0  0  0
 21 25  1  0  0  0  0
 22 26  2  0  0  0  0
 23 24  2  0  0  0  0
 24 25  1  0  0  0  0
 25 26  1  0  0  0  0
 27 26  1  6  0  0  0
 27 28  1  0  0  0  0
 28 24  1  6  0  0  0
M  END
>  <CHROM.1>
72.93362613,-63.59861120,179.69921997,178.53607988,-81.09887958,42.66389629
26.48449123,12.13791956,-0.83826080,-0.64229946,0.36548388

>  <Name>
ligand

>  <RI>
0

>  <Rbt.Current_Directory>
/home/itssahil/PROJECTS/Mol_Feturizer/New_Systems/rnas/1YLS

>  <Rbt.Executable>
rbdock ($Id: //depot/dev/client3/rdock/2013.1/src/exe/rbdock.cxx#4 $)

>  <Rbt.Library>
libRbt.so (2013.1, Build901 2013/11/27)

>  <Rbt.Parameter_File>
/export/apps/rDock/src/rDock_2013.1_src/data/scripts/dock_solv.prm

>  <Rbt.Receptor>
prm/blind_docking_60.prm

>  <SCORE>
-15.8414

>  <SCORE.INTER>
-11.1902

>  <SCORE.INTER.CONST>
1

>  <SCORE.INTER.POLAR>
0

>  <SCORE.INTER.ROT>
5

>  <SCORE.INTER.SOLV>
10.195

>  <SCORE.INTER.VDW>
-17.7918

>  <SCORE.INTER.norm>
-0.399651

>  <SCORE.INTRA>
-4.65115

>  <SCORE.INTRA.DIHEDRAL>
-8.72465

>  <SCORE.INTRA.DIHEDRAL.0>
12.0148

>  <SCORE.INTRA.POLAR>
0

>  <SCORE.INTRA.POLAR.0>
0

>  <SCORE.INTRA.REPUL>
0

>  <SCORE.INTRA.REPUL.0>
0

>  <SCORE.INTRA.SOLV>
-0.065753

>  <SCORE.INTRA.SOLV.lig_0>
-10.5235

>  <SCORE.INTRA.VDW>
-0.255948

>  <SCORE.INTRA.VDW.0>
-1.38455

>  <SCORE.INTRA.norm>
-0.166112

>  <SCORE.RESTR>
0

>  <SCORE.RESTR.CAVITY>
0

>  <SCORE.RESTR.norm>
0

>  <SCORE.SYSTEM>
0

>  <SCORE.SYSTEM.CONST>
0

>  <SCORE.SYSTEM.DIHEDRAL>
0

>  <SCORE.SYSTEM.SOLV>
0

>  <SCORE.SYSTEM.norm>
0

>  <SCORE.heavy>
28

>  <SCORE.norm>
-0.565764

>  <RMSD>
15.005

$$$$
ligand
 OpenBabel11021811413D
libRbt.so/2013.1/901 2013/11/27
 28 32  0  0  0  0  0  0  0  0999 V2000
   46.5641   22.1179   10.4682 C   0  0  0  0  0  0  0  0  0  0  0  0
   45.5647   23.2446   10.6411 C   0  0  0  0  0  0  0  0  0  0  0  0
   46.0016   24.2216   11.7225 C   0  0  0  0  0  0  0  0  0  0  0  0
   42.0218   31.6064   11.1566 O   0  0  0  0  0  0  0  0  0  0  0  0
   42.4923   30.7352   12.1866 C   0  0  0  0  0  0  0  0  0  0  0  0
   41.9179   26.1945   14.0208 C   0  0  0  0  0  0  0  0  0  0  0  0
   42.9162   26.4185   14.9603 C   0  0  0  0  0  0  0  0  0  0  0  0
   43.5887   27.6431   14.9737 C   0  0  0  0  0  0  0  0  0  0  0  0
   43.2642   28.6418   14.0548 C   0  0  0  0  0  0  0  0  0  0  0  0
   41.8213   29.3590   12.0892 C   0  0  1  0  0  0  0  0  0  0  0  0
   42.2533   28.4062   13.1527 C   0  0  0  0  0  0  0  0  0  0  0  0
   41.5975   27.2011   13.1410 C   0  0  0  0  0  0  0  0  0  0  0  0
   40.6046   27.0509   12.0943 C   0  0  1  0  0  0  0  0  0  0  0  0
   38.3354   28.0654   12.2058 C   0  0  0  0  0  0  0  0  0  0  0  0
   39.7039   28.1873   12.1766 C   0  0  0  0  0  0  0  0  0  0  0  0
   40.3172   29.4113   12.1800 C   0  0  0  0  0  0  0  0  0  0  0  0
   39.5522   30.5680   12.2116 C   0  0  0  0  0  0  0  0  0  0  0  0
   38.1608   30.4600   12.2625 C   0  0  0  0  0  0  0  0  0  0  0  0
   37.5567   29.2096   12.2622 C   0  0  0  0  0  0  0  0  0  0  0  0
   44.9651   25.3235   11.9006 C   0  0  0  0  0  0  0  0  0  0  0  0
   44.9456   26.2388   10.6821 C   0  0  0  0  0  0  0  0  0  0  0  0
   44.4447   28.9265   10.6296 O   0  0  0  0  0  0  0  0  0  0  0  0
   42.3657   25.0864   10.7526 O   0  0  0  0  0  0  0  0  0  0  0  0
   42.5284   26.2948   10.7180 C   0  0  0  0  0  0  0  0  0  0  0  0
   43.6507   26.9006   10.6727 N   0  0  0  0  0  0  0  0  0  0  0  0
   43.5223   28.1542   10.6734 C   0  0  0  0  0  0  0  0  0  0  0  0
   42.1047   28.5971   10.7850 C   0  0  1  0  0  0  0  0  0  0  0  0
   41.3873   27.2449   10.8028 C   0  0  2  0  0  0  0  0  0  0  0  0
  1  2  1  0  0  0  0
  2  3  1  0  0  0  0
  3 20  1  0  0  0  0
  4  5  1  0  0  0  0
  6  7  2  0  0  0  0
  6 12  1  0  0  0  0
  7  8  1  0  0  0  0
  8  9  2  0  0  0  0
  9 11  1  0  0  0  0
 10  5  1  1  0  0  0
 10 11  1  0  0  0  0
 10 16  1  0  0  0  0
 10 27  1  0  0  0  0
 11 12  2  0  0  0  0
 13 12  1  1  0  0  0
 13 15  1  0  0  0  0
 13 28  1  0  0  0  0
 14 15  2  0  0  0  0
 14 19  1  0  0  0  0
 15 16  1  0  0  0  0
 16 17  2  0  0  0  0
 17 18  1  0  0  0  0
 18 19  2  0  0  0  0
 20 21  1  0  0  0  0
 21 25  1  0  0  0  0
 22 26  2  0  0  0  0
 23 24  2  0  0  0  0
 24 25  1  0  0  0  0
 25 26  1  0  0  0  0
 27 26  1  1  0  0  0
 27 28  1  0  0  0  0
 28 24  1  1  0  0  0
M  END
>  <CHROM.1>
-178.59447445,-179.05112178,-69.33463525,158.28004928,-53.72000063,42.41625716
27.49425389,11.90643250,0.75000056,-0.29950653,3.02678341

>  <Name>
ligand

>  <RI>
0

>  <Rbt.Current_Directory>
/home/itssahil/PROJECTS/Mol_Feturizer/New_Systems/rnas/1YLS

>  <Rbt.Executable>
rbdock ($Id: //depot/dev/client3/rdock/2013.1/src/exe/rbdock.cxx#4 $)

>  <Rbt.Library>
libRbt.so (2013.1, Build901 2013/11/27)

>  <Rbt.Parameter_File>
/export/apps/rDock/src/rDock_2013.1_src/data/scripts/dock_solv.prm

>  <Rbt.Receptor>
prm/blind_docking_80.prm

>  <SCORE>
-16.0788

>  <SCORE.INTER>
-13.386

>  <SCORE.INTER.CONST>
1

>  <SCORE.INTER.POLAR>
0

>  <SCORE.INTER.ROT>
5

>  <SCORE.INTER.SOLV>
6.88975

>  <SCORE.INTER.VDW>
-18.1539

>  <SCORE.INTER.norm>
-0.478071

>  <SCORE.INTRA>
-2.69775

>  <SCORE.INTRA.DIHEDRAL>
-7.68532

>  <SCORE.INTRA.DIHEDRAL.0>
12.0148

>  <SCORE.INTRA.POLAR>
0

>  <SCORE.INTRA.POLAR.0>
0

>  <SCORE.INTRA.REPUL>
0

>  <SCORE.INTRA.REPUL.0>
0

>  <SCORE.INTRA.SOLV>
0.348323

>  <SCORE.INTRA.SOLV.lig_0>
-10.5235

>  <SCORE.INTRA.VDW>
0.970748

>  <SCORE.INTRA.VDW.0>
-1.38455

>  <SCORE.INTRA.norm>
-0.0963482

>  <SCORE.RESTR>
0.00496098

>  <SCORE.RESTR.CAVITY>
0.00496098

>  <SCORE.RESTR.norm>
0.000177178

>  <SCORE.SYSTEM>
0

>  <SCORE.SYSTEM.CONST>
0

>  <SCORE.SYSTEM.DIHEDRAL>
0

>  <SCORE.SYSTEM.SOLV>
0

>  <SCORE.SYSTEM.norm>
0

>  <SCORE.heavy>
28

>  <SCORE.norm>
-0.574242

>  <RMSD>
15.006

$$$$
ligand
 OpenBabel11021811413D
libRbt.so/2013.1/901 2013/11/27
 28 32  0  0  0  0  0  0  0  0999 V2000
   46.6151   22.3266   10.6367 C   0  0  0  0  0  0  0  0  0  0  0  0
   45.5560   23.4014   10.7816 C   0  0  0  0  0  0  0  0  0  0  0  0
   45.9559   24.4487   11.8102 C   0  0  0  0  0  0  0  0  0  0  0  0
   41.9493   31.7329   11.0927 O   0  0  0  0  0  0  0  0  0  0  0  0
   42.3995   30.8801   12.1468 C   0  0  0  0  0  0  0  0  0  0  0  0
   41.8224   26.3579   14.0254 C   0  0  0  0  0  0  0  0  0  0  0  0
   42.8298   26.5858   14.9541 C   0  0  0  0  0  0  0  0  0  0  0  0
   43.5076   27.8076   14.9509 C   0  0  0  0  0  0  0  0  0  0  0  0
   43.1791   28.7997   14.0264 C   0  0  0  0  0  0  0  0  0  0  0  0
   41.7219   29.5060   12.0674 C   0  0  1  0  0  0  0  0  0  0  0  0
   42.1593   28.5606   13.1352 C   0  0  0  0  0  0  0  0  0  0  0  0
   41.4984   27.3583   13.1398 C   0  0  0  0  0  0  0  0  0  0  0  0
   40.4957   27.2032   12.1032 C   0  0  1  0  0  0  0  0  0  0  0  0
   38.2318   28.2283   12.2259 C   0  0  0  0  0  0  0  0  0  0  0  0
   39.6005   28.3441   12.1835 C   0  0  0  0  0  0  0  0  0  0  0  0
   40.2189   29.5655   12.1709 C   0  0  0  0  0  0  0  0  0  0  0  0
   39.4591   30.7256   12.1992 C   0  0  0  0  0  0  0  0  0  0  0  0
   38.0678   30.6241   12.2633 C   0  0  0  0  0  0  0  0  0  0  0  0
   37.4584   29.3763   12.2791 C   0  0  0  0  0  0  0  0  0  0  0  0
   44.8805   25.5207   11.9304 C   0  0  0  0  0  0  0  0  0  0  0  0
   44.8206   26.3605   10.6600 C   0  0  0  0  0  0  0  0  0  0  0  0
   44.3305   29.0497   10.5885 O   0  0  0  0  0  0  0  0  0  0  0  0
   42.2366   25.2197   10.7632 O   0  0  0  0  0  0  0  0  0  0  0  0
   42.4041   26.4271   10.7167 C   0  0  0  0  0  0  0  0  0  0  0  0
   43.5284   27.0277   10.6562 N   0  0  0  0  0  0  0  0  0  0  0  0
   43.4053   28.2818   10.6472 C   0  0  0  0  0  0  0  0  0  0  0  0
   41.9906   28.7316   10.7673 C   0  0  1  0  0  0  0  0  0  0  0  0
   41.2677   27.3827   10.8032 C   0  0  2  0  0  0  0  0  0  0  0  0
  1  2  1  0  0  0  0
  2  3  1  0  0  0  0
  3 20  1  0  0  0  0
  4  5  1  0  0  0  0
  6  7  2  0  0  0  0
  6 12  1  0  0  0  0
  7  8  1  0  0  0  0
  8  9  2  0  0  0  0
  9 11  1  0  0  0  0
 10  5  1  1  0  0  0
 10 11  1  0  0  0  0
 10 16  1  0  0  0  0
 10 27  1  0  0  0  0
 11 12  2  0  0  0  0
 13 12  1  1  0  0  0
 13 15  1  0  0  0  0
 13 28  1  0  0  0  0
 14 15  2  0  0  0  0
 14 19  1  0  0  0  0
 15 16  1  0  0  0  0
 16 17  2  0  0  0  0
 17 18  1  0  0  0  0
 18 19  2  0  0  0  0
 20 21  1  0  0  0  0
 21 25  1  0  0  0  0
 22 26  2  0  0  0  0
 23 24  2  0  0  0  0
 24 25  1  0  0  0  0
 25 26  1  0  0  0  0
 27 26  1  1  0  0  0
 27 28  1  0  0  0  0
 28 24  1  1  0  0  0
M  END
>  <CHROM.1>
179.64040598,179.44448136,-68.75469698,161.17089801,-57.07778968,42.32579233
27.64844821,11.91260196,0.73072513,-0.31678803,2.98165337

>  <Name>
ligand

>  <RI>
0

>  <Rbt.Current_Directory>
/home/itssahil/PROJECTS/Mol_Feturizer/New_Systems/rnas/1YLS

>  <Rbt.Executable>
rbdock ($Id: //depot/dev/client3/rdock/2013.1/src/exe/rbdock.cxx#4 $)

>  <Rbt.Library>
libRbt.so (2013.1, Build901 2013/11/27)

>  <Rbt.Parameter_File>
/export/apps/rDock/src/rDock_2013.1_src/data/scripts/dock_solv.prm

>  <Rbt.Receptor>
prm/blind_docking_60.prm

>  <SCORE>
-16.4228

>  <SCORE.INTER>
-13.2863

>  <SCORE.INTER.CONST>
1

>  <SCORE.INTER.POLAR>
0

>  <SCORE.INTER.ROT>
5

>  <SCORE.INTER.SOLV>
6.7135

>  <SCORE.INTER.VDW>
-18.0287

>  <SCORE.INTER.norm>
-0.47451

>  <SCORE.INTRA>
-3.13647

>  <SCORE.INTRA.DIHEDRAL>
-8.0755

>  <SCORE.INTRA.DIHEDRAL.0>
12.0148

>  <SCORE.INTRA.POLAR>
0

>  <SCORE.INTRA.POLAR.0>
0

>  <SCORE.INTRA.REPUL>
0

>  <SCORE.INTRA.REPUL.0>
0

>  <SCORE.INTRA.SOLV>
0.33274

>  <SCORE.INTRA.SOLV.lig_0>
-10.5235

>  <SCORE.INTRA.VDW>
0.73491

>  <SCORE.INTRA.VDW.0>
-1.38455

>  <SCORE.INTRA.norm>
-0.112017

>  <SCORE.RESTR>
0

>  <SCORE.RESTR.CAVITY>
0

>  <SCORE.RESTR.norm>
0

>  <SCORE.SYSTEM>
0

>  <SCORE.SYSTEM.CONST>
0

>  <SCORE.SYSTEM.DIHEDRAL>
0

>  <SCORE.SYSTEM.SOLV>
0

>  <SCORE.SYSTEM.norm>
0

>  <SCORE.heavy>
28

>  <SCORE.norm>
-0.586527

>  <RMSD>
15.010

$$$$
ligand
 OpenBabel11021811413D
libRbt.so/2013.1/901 2013/11/27
 28 32  0  0  0  0  0  0  0  0999 V2000
   46.0341   20.4879   10.9790 C   0  0  0  0  0  0  0  0  0  0  0  0
   45.4633   21.8873   11.0966 C   0  0  0  0  0  0  0  0  0  0  0  0
   44.6861   22.0697   12.3918 C   0  0  0  0  0  0  0  0  0  0  0  0
   39.6656   27.1276    9.7973 O   0  0  0  0  0  0  0  0  0  0  0  0
   39.7995   26.5864   11.1127 C   0  0  0  0  0  0  0  0  0  0  0  0
   44.7014   27.1119   11.2051 C   0  0  0  0  0  0  0  0  0  0  0  0
   44.8398   26.2651   10.1129 C   0  0  0  0  0  0  0  0  0  0  0  0
   43.7051   25.6796    9.5456 C   0  0  0  0  0  0  0  0  0  0  0  0
   42.4364   25.9407   10.0644 C   0  0  0  0  0  0  0  0  0  0  0  0
   41.0430   27.1494   11.8130 C   0  0  1  0  0  0  0  0  0  0  0  0
   42.3229   26.8044   11.1287 C   0  0  0  0  0  0  0  0  0  0  0  0
   43.4400   27.3747   11.6846 C   0  0  0  0  0  0  0  0  0  0  0  0
   43.1927   28.2066   12.8469 C   0  0  1  0  0  0  0  0  0  0  0  0
   42.3141   30.5301   12.7039 C   0  0  0  0  0  0  0  0  0  0  0  0
   42.1788   29.1806   12.4825 C   0  0  0  0  0  0  0  0  0  0  0  0
   41.0414   28.6523   11.9334 C   0  0  0  0  0  0  0  0  0  0  0  0
   39.9884   29.4866   11.5878 C   0  0  0  0  0  0  0  0  0  0  0  0
   40.1192   30.8625   11.7876 C   0  0  0  0  0  0  0  0  0  0  0  0
   41.2822   31.3804   12.3423 C   0  0  0  0  0  0  0  0  0  0  0  0
   44.1075   23.4761   12.4767 C   0  0  0  0  0  0  0  0  0  0  0  0
   43.3760   23.6726   13.7993 C   0  0  0  0  0  0  0  0  0  0  0  0
   40.8713   24.3317   12.9225 O   0  0  0  0  0  0  0  0  0  0  0  0
   44.4915   26.1601   14.5456 O   0  0  0  0  0  0  0  0  0  0  0  0
   43.3579   26.0713   14.1039 C   0  0  0  0  0  0  0  0  0  0  0  0
   42.7704   24.9940   13.7539 N   0  0  0  0  0  0  0  0  0  0  0  0
   41.6107   25.2007   13.3062 C   0  0  0  0  0  0  0  0  0  0  0  0
   41.2545   26.6456   13.2495 C   0  0  1  0  0  0  0  0  0  0  0  0
   42.5195   27.2716   13.8422 C   0  0  2  0  0  0  0  0  0  0  0  0
  1  2  1  0  0  0  0
  2  3  1  0  0  0  0
  3 20  1  0  0  0  0
  4  5  1  0  0  0  0
  6  7  2  0  0  0  0
  6 12  1  0  0  0  0
  7  8  1  0  0  0  0
  8  9  2  0  0  0  0
  9 11  1  0  0  0  0
 10  5  1  6  0  0  0
 10 11  1  0  0  0  0
 10 16  1  0  0  0  0
 10 27  1  0  0  0  0
 11 12  2  0  0  0  0
 13 12  1  6  0  0  0
 13 15  1  0  0  0  0
 13 28  1  0  0  0  0
 14 15  2  0  0  0  0
 14 19  1  0  0  0  0
 15 16  1  0  0  0  0
 16 17  2  0  0  0  0
 17 18  1  0  0  0  0
 18 19  2  0  0  0  0
 20 21  1  0  0  0  0
 21 25  1  0  0  0  0
 22 26  2  0  0  0  0
 23 24  2  0  0  0  0
 24 25  1  0  0  0  0
 25 26  1  0  0  0  0
 27 26  1  6  0  0  0
 27 28  1  0  0  0  0
 28 24  1  6  0  0  0
M  END
>  <CHROM.1>
-179.22319495,-62.30616419,-177.79111056,-175.66266187,-87.20928323,42.61506913
26.30179937,12.11631684,0.68373240,0.90153825,-2.37883860

>  <Name>
ligand

>  <RI>
0

>  <Rbt.Current_Directory>
/home/itssahil/PROJECTS/Mol_Feturizer/New_Systems/rnas/1YLS

>  <Rbt.Executable>
rbdock ($Id: //depot/dev/client3/rdock/2013.1/src/exe/rbdock.cxx#4 $)

>  <Rbt.Library>
libRbt.so (2013.1, Build901 2013/11/27)

>  <Rbt.Parameter_File>
/export/apps/rDock/src/rDock_2013.1_src/data/scripts/dock_solv.prm

>  <Rbt.Receptor>
prm/blind_docking_80.prm

>  <SCORE>
-17.1549

>  <SCORE.INTER>
-11.5266

>  <SCORE.INTER.CONST>
1

>  <SCORE.INTER.POLAR>
0

>  <SCORE.INTER.ROT>
5

>  <SCORE.INTER.SOLV>
10.9042

>  <SCORE.INTER.VDW>
-18.2525

>  <SCORE.INTER.norm>
-0.411664

>  <SCORE.INTRA>
-5.62827

>  <SCORE.INTRA.DIHEDRAL>
-9.32181

>  <SCORE.INTRA.DIHEDRAL.0>
12.0148

>  <SCORE.INTRA.POLAR>
0

>  <SCORE.INTRA.POLAR.0>
0

>  <SCORE.INTRA.REPUL>
0

>  <SCORE.INTRA.REPUL.0>
0

>  <SCORE.INTRA.SOLV>
-0.0533945

>  <SCORE.INTRA.SOLV.lig_0>
-10.5235

>  <SCORE.INTRA.VDW>
-0.940672

>  <SCORE.INTRA.VDW.0>
-1.38455

>  <SCORE.INTRA.norm>
-0.20101

>  <SCORE.RESTR>
0

>  <SCORE.RESTR.CAVITY>
0

>  <SCORE.RESTR.norm>
0

>  <SCORE.SYSTEM>
0

>  <SCORE.SYSTEM.CONST>
0

>  <SCORE.SYSTEM.DIHEDRAL>
0

>  <SCORE.SYSTEM.SOLV>
0

>  <SCORE.SYSTEM.norm>
0

>  <SCORE.heavy>
28

>  <SCORE.norm>
-0.612674

>  <RMSD>
15.010

$$$$
ligand
 OpenBabel11021811413D
libRbt.so/2013.1/901 2013/11/27
 28 32  0  0  0  0  0  0  0  0999 V2000
   46.6241   22.2364   10.5839 C   0  0  0  0  0  0  0  0  0  0  0  0
   45.5894   23.3356   10.7215 C   0  0  0  0  0  0  0  0  0  0  0  0
   45.9845   24.3488   11.7856 C   0  0  0  0  0  0  0  0  0  0  0  0
   41.9541   31.6832   11.1026 O   0  0  0  0  0  0  0  0  0  0  0  0
   42.4329   30.8224   12.1373 C   0  0  0  0  0  0  0  0  0  0  0  0
   41.8646   26.3043   14.0285 C   0  0  0  0  0  0  0  0  0  0  0  0
   42.8647   26.5402   14.9630 C   0  0  0  0  0  0  0  0  0  0  0  0
   43.5368   27.7652   14.9599 C   0  0  0  0  0  0  0  0  0  0  0  0
   43.2098   28.7524   14.0295 C   0  0  0  0  0  0  0  0  0  0  0  0
   41.7624   29.4448   12.0584 C   0  0  1  0  0  0  0  0  0  0  0  0
   42.1971   28.5053   13.1325 C   0  0  0  0  0  0  0  0  0  0  0  0
   41.5418   27.2999   13.1371 C   0  0  0  0  0  0  0  0  0  0  0  0
   40.5467   27.1364   12.0944 C   0  0  1  0  0  0  0  0  0  0  0  0
   38.2773   28.1513   12.1984 C   0  0  0  0  0  0  0  0  0  0  0  0
   39.6457   28.2733   12.1647 C   0  0  0  0  0  0  0  0  0  0  0  0
   40.2584   29.4976   12.1517 C   0  0  0  0  0  0  0  0  0  0  0  0
   39.4931   30.6542   12.1708 C   0  0  0  0  0  0  0  0  0  0  0  0
   38.1018   30.5464   12.2260 C   0  0  0  0  0  0  0  0  0  0  0  0
   37.4983   29.2958   12.2424 C   0  0  0  0  0  0  0  0  0  0  0  0
   44.9160   25.4253   11.9244 C   0  0  0  0  0  0  0  0  0  0  0  0
   44.8850   26.3088   10.6829 C   0  0  0  0  0  0  0  0  0  0  0  0
   44.3829   28.9955   10.5985 O   0  0  0  0  0  0  0  0  0  0  0  0
   42.3058   25.1563   10.7732 O   0  0  0  0  0  0  0  0  0  0  0  0
   42.4679   26.3643   10.7234 C   0  0  0  0  0  0  0  0  0  0  0  0
   43.5898   26.9699   10.6682 N   0  0  0  0  0  0  0  0  0  0  0  0
   43.4609   28.2234   10.6538 C   0  0  0  0  0  0  0  0  0  0  0  0
   42.0433   28.6670   10.7630 C   0  0  1  0  0  0  0  0  0  0  0  0
   41.3265   27.3149   10.7990 C   0  0  2  0  0  0  0  0  0  0  0  0
  1  2  1  0  0  0  0
  2  3  1  0  0  0  0
  3 20  1  0  0  0  0
  4  5  1  0  0  0  0
  6  7  2  0  0  0  0
  6 12  1  0  0  0  0
  7  8  1  0  0  0  0
  8  9  2  0  0  0  0
  9 11  1  0  0  0  0
 10  5  1  1  0  0  0
 10 11  1  0  0  0  0
 10 16  1  0  0  0  0
 10 27  1  0  0  0  0
 11 12  2  0  0  0  0
 13 12  1  1  0  0  0
 13 15  1  0  0  0  0
 13 28  1  0  0  0  0
 14 15  2  0  0  0  0
 14 19  1  0  0  0  0
 15 16  1  0  0  0  0
 16 17  2  0  0  0  0
 17 18  1  0  0  0  0
 18 19  2  0  0  0  0
 20 21  1  0  0  0  0
 21 25  1  0  0  0  0
 22 26  2  0  0  0  0
 23 24  2  0  0  0  0
 24 25  1  0  0  0  0
 25 26  1  0  0  0  0
 27 26  1  1  0  0  0
 27 28  1  0  0  0  0
 28 24  1  1  0  0  0
M  END
>  <CHROM.1>
-178.82126172,-178.70724128,-69.14266512,160.23403611,-54.59327600,42.36748756
27.58348853,11.90388375,0.73759008,-0.30653069,2.99724241

>  <Name>
ligand

>  <RI>
0

>  <Rbt.Current_Directory>
/home/itssahil/PROJECTS/Mol_Feturizer/New_Systems/rnas/1YLS

>  <Rbt.Executable>
rbdock ($Id: //depot/dev/client3/rdock/2013.1/src/exe/rbdock.cxx#4 $)

>  <Rbt.Library>
libRbt.so (2013.1, Build901 2013/11/27)

>  <Rbt.Parameter_File>
/export/apps/rDock/src/rDock_2013.1_src/data/scripts/dock_solv.prm

>  <Rbt.Receptor>
prm/blind_docking_60.prm

>  <SCORE>
-16.3034

>  <SCORE.INTER>
-13.4268

>  <SCORE.INTER.CONST>
1

>  <SCORE.INTER.POLAR>
0

>  <SCORE.INTER.ROT>
5

>  <SCORE.INTER.SOLV>
6.73737

>  <SCORE.INTER.VDW>
-18.1303

>  <SCORE.INTER.norm>
-0.479528

>  <SCORE.INTRA>
-2.87661

>  <SCORE.INTRA.DIHEDRAL>
-7.93929

>  <SCORE.INTRA.DIHEDRAL.0>
12.0148

>  <SCORE.INTRA.POLAR>
0

>  <SCORE.INTRA.POLAR.0>
0

>  <SCORE.INTRA.REPUL>
0

>  <SCORE.INTRA.REPUL.0>
0

>  <SCORE.INTRA.SOLV>
0.331765

>  <SCORE.INTRA.SOLV.lig_0>
-10.5235

>  <SCORE.INTRA.VDW>
0.927158

>  <SCORE.INTRA.VDW.0>
-1.38455

>  <SCORE.INTRA.norm>
-0.102736

>  <SCORE.RESTR>
0

>  <SCORE.RESTR.CAVITY>
0

>  <SCORE.RESTR.norm>
0

>  <SCORE.SYSTEM>
0

>  <SCORE.SYSTEM.CONST>
0

>  <SCORE.SYSTEM.DIHEDRAL>
0

>  <SCORE.SYSTEM.SOLV>
0

>  <SCORE.SYSTEM.norm>
0

>  <SCORE.heavy>
28

>  <SCORE.norm>
-0.582264

>  <RMSD>
15.014

$$$$
ligand
 OpenBabel11021811413D
libRbt.so/2013.1/901 2013/11/27
 28 32  0  0  0  0  0  0  0  0999 V2000
   46.6933   22.3429   10.6811 C   0  0  0  0  0  0  0  0  0  0  0  0
   45.6172   23.4045   10.7950 C   0  0  0  0  0  0  0  0  0  0  0  0
   45.9762   24.4591   11.8312 C   0  0  0  0  0  0  0  0  0  0  0  0
   41.9698   31.7533   11.1082 O   0  0  0  0  0  0  0  0  0  0  0  0
   42.4353   30.8889   12.1461 C   0  0  0  0  0  0  0  0  0  0  0  0
   41.8266   26.3732   14.0303 C   0  0  0  0  0  0  0  0  0  0  0  0
   42.8358   26.5951   14.9585 C   0  0  0  0  0  0  0  0  0  0  0  0
   43.5222   27.8120   14.9537 C   0  0  0  0  0  0  0  0  0  0  0  0
   43.2006   28.8053   14.0280 C   0  0  0  0  0  0  0  0  0  0  0  0
   41.7480   29.5195   12.0685 C   0  0  1  0  0  0  0  0  0  0  0  0
   42.1789   28.5723   13.1373 C   0  0  0  0  0  0  0  0  0  0  0  0
   41.5095   27.3747   13.1435 C   0  0  0  0  0  0  0  0  0  0  0  0
   40.5055   27.2256   12.1073 C   0  0  1  0  0  0  0  0  0  0  0  0
   38.2489   28.2669   12.2293 C   0  0  0  0  0  0  0  0  0  0  0  0
   39.6184   28.3729   12.1865 C   0  0  0  0  0  0  0  0  0  0  0  0
   40.2455   29.5898   12.1722 C   0  0  0  0  0  0  0  0  0  0  0  0
   39.4939   30.7554   12.1993 C   0  0  0  0  0  0  0  0  0  0  0  0
   38.1019   30.6638   12.2638 C   0  0  0  0  0  0  0  0  0  0  0  0
   37.4838   29.4203   12.2814 C   0  0  0  0  0  0  0  0  0  0  0  0
   44.8760   25.5076   11.9330 C   0  0  0  0  0  0  0  0  0  0  0  0
   44.8239   26.3504   10.6642 C   0  0  0  0  0  0  0  0  0  0  0  0
   44.3530   29.0429   10.5896 O   0  0  0  0  0  0  0  0  0  0  0  0
   42.2319   25.2281   10.7694 O   0  0  0  0  0  0  0  0  0  0  0  0
   42.4080   26.4342   10.7214 C   0  0  0  0  0  0  0  0  0  0  0  0
   43.5365   27.0267   10.6599 N   0  0  0  0  0  0  0  0  0  0  0  0
   43.4223   28.2817   10.6494 C   0  0  0  0  0  0  0  0  0  0  0  0
   42.0109   28.7417   10.7693 C   0  0  1  0  0  0  0  0  0  0  0  0
   41.2784   27.3980   10.8070 C   0  0  2  0  0  0  0  0  0  0  0  0
  1  2  1  0  0  0  0
  2  3  1  0  0  0  0
  3 20  1  0  0  0  0
  4  5  1  0  0  0  0
  6  7  2  0  0  0  0
  6 12  1  0  0  0  0
  7  8  1  0  0  0  0
  8  9  2  0  0  0  0
  9 11  1  0  0  0  0
 10  5  1  1  0  0  0
 10 11  1  0  0  0  0
 10 16  1  0  0  0  0
 10 27  1  0  0  0  0
 11 12  2  0  0  0  0
 13 12  1  1  0  0  0
 13 15  1  0  0  0  0
 13 28  1  0  0  0  0
 14 15  2  0  0  0  0
 14 19  1  0  0  0  0
 15 16  1  0  0  0  0
 16 17  2  0  0  0  0
 17 18  1  0  0  0  0
 18 19  2  0  0  0  0
 20 21  1  0  0  0  0
 21 25  1  0  0  0  0
 22 26  2  0  0  0  0
 23 24  2  0  0  0  0
 24 25  1  0  0  0  0
 25 26  1  0  0  0  0
 27 26  1  1  0  0  0
 27 28  1  0  0  0  0
 28 24  1  1  0  0  0
M  END
>  <CHROM.1>
-179.61804561,-179.31225441,-68.95009031,163.11687241,-56.86557936,42.34606227
27.66116648,11.91872033,0.72946752,-0.32121273,2.97302375

>  <Name>
ligand

>  <RI>
0

>  <Rbt.Current_Directory>
/home/itssahil/PROJECTS/Mol_Feturizer/New_Systems/rnas/1YLS

>  <Rbt.Executable>
rbdock ($Id: //depot/dev/client3/rdock/2013.1/src/exe/rbdock.cxx#4 $)

>  <Rbt.Library>
libRbt.so (2013.1, Build901 2013/11/27)

>  <Rbt.Parameter_File>
/export/apps/rDock/src/rDock_2013.1_src/data/scripts/dock_solv.prm

>  <Rbt.Receptor>
prm/blind_docking_60.prm

>  <SCORE>
-16.4294

>  <SCORE.INTER>
-13.2355

>  <SCORE.INTER.CONST>
1

>  <SCORE.INTER.POLAR>
0

>  <SCORE.INTER.ROT>
5

>  <SCORE.INTER.SOLV>
6.77385

>  <SCORE.INTER.VDW>
-18.015

>  <SCORE.INTER.norm>
-0.472697

>  <SCORE.INTRA>
-3.19393

>  <SCORE.INTRA.DIHEDRAL>
-8.28387

>  <SCORE.INTRA.DIHEDRAL.0>
12.0148

>  <SCORE.INTRA.POLAR>
0

>  <SCORE.INTRA.POLAR.0>
0

>  <SCORE.INTRA.REPUL>
0

>  <SCORE.INTRA.REPUL.0>
0

>  <SCORE.INTRA.SOLV>
0.312854

>  <SCORE.INTRA.SOLV.lig_0>
-10.5235

>  <SCORE.INTRA.VDW>
0.791574

>  <SCORE.INTRA.VDW.0>
-1.38455

>  <SCORE.INTRA.norm>
-0.114069

>  <SCORE.RESTR>
0

>  <SCORE.RESTR.CAVITY>
0

>  <SCORE.RESTR.norm>
0

>  <SCORE.SYSTEM>
0

>  <SCORE.SYSTEM.CONST>
0

>  <SCORE.SYSTEM.DIHEDRAL>
0

>  <SCORE.SYSTEM.SOLV>
0

>  <SCORE.SYSTEM.norm>
0

>  <SCORE.heavy>
28

>  <SCORE.norm>
-0.586766

>  <RMSD>
15.015

$$$$
ligand
 OpenBabel11021811413D
libRbt.so/2013.1/901 2013/11/27
 28 32  0  0  0  0  0  0  0  0999 V2000
   37.7319   30.3358   12.3364 C   0  0  0  0  0  0  0  0  0  0  0  0
   38.0952   31.2904   11.2163 C   0  0  0  0  0  0  0  0  0  0  0  0
   39.5419   31.7504   11.3176 C   0  0  0  0  0  0  0  0  0  0  0  0
   43.0856   24.7468    9.6163 O   0  0  0  0  0  0  0  0  0  0  0  0
   43.4957   26.0540   10.0216 C   0  0  0  0  0  0  0  0  0  0  0  0
   39.5746   27.2725   12.7515 C   0  0  0  0  0  0  0  0  0  0  0  0
   38.7787   27.3628   11.6167 C   0  0  0  0  0  0  0  0  0  0  0  0
   39.3424   27.1349   10.3587 C   0  0  0  0  0  0  0  0  0  0  0  0
   40.6949   26.8148   10.2339 C   0  0  0  0  0  0  0  0  0  0  0  0
   42.9173   26.4078   11.3978 C   0  0  1  0  0  0  0  0  0  0  0  0
   41.4555   26.7042   11.3743 C   0  0  0  0  0  0  0  0  0  0  0  0
   40.8986   26.9318   12.6073 C   0  0  0  0  0  0  0  0  0  0  0  0
   41.8225   26.8570   13.7231 C   0  0  1  0  0  0  0  0  0  0  0  0
   42.6223   24.7106   14.6950 C   0  0  0  0  0  0  0  0  0  0  0  0
   42.5122   25.5817   13.6378 C   0  0  0  0  0  0  0  0  0  0  0  0
   43.0926   25.3190   12.4260 C   0  0  0  0  0  0  0  0  0  0  0  0
   43.8152   24.1489   12.2444 C   0  0  0  0  0  0  0  0  0  0  0  0
   43.9185   23.2441   13.3031 C   0  0  0  0  0  0  0  0  0  0  0  0
   43.3198   23.5262   14.5240 C   0  0  0  0  0  0  0  0  0  0  0  0
   40.4931   30.6001   11.0143 C   0  0  0  0  0  0  0  0  0  0  0  0
   41.8987   30.9275   11.5043 C   0  0  0  0  0  0  0  0  0  0  0  0
   43.4938   29.1325   10.1963 O   0  0  0  0  0  0  0  0  0  0  0  0
   41.5860   29.7868   14.0714 O   0  0  0  0  0  0  0  0  0  0  0  0
   42.2552   29.2470   13.2060 C   0  0  0  0  0  0  0  0  0  0  0  0
   42.4608   29.6928   12.0281 N   0  0  0  0  0  0  0  0  0  0  0  0
   43.1686   28.9142   11.3346 C   0  0  0  0  0  0  0  0  0  0  0  0
   43.5288   27.6582   12.0493 C   0  0  1  0  0  0  0  0  0  0  0  0
   42.8758   27.9109   13.4106 C   0  0  2  0  0  0  0  0  0  0  0  0
  1  2  1  0  0  0  0
  2  3  1  0  0  0  0
  3 20  1  0  0  0  0
  4  5  1  0  0  0  0
  6  7  2  0  0  0  0
  6 12  1  0  0  0  0
  7  8  1  0  0  0  0
  8  9  2  0  0  0  0
  9 11  1  0  0  0  0
 10  5  1  6  0  0  0
 10 11  1  0  0  0  0
 10 16  1  0  0  0  0
 10 27  1  0  0  0  0
 11 12  2  0  0  0  0
 13 12  1  6  0  0  0
 13 15  1  0  0  0  0
 13 28  1  0  0  0  0
 14 15  2  0  0  0  0
 14 19  1  0  0  0  0
 15 16  1  0  0  0  0
 16 17  2  0  0  0  0
 17 18  1  0  0  0  0
 18 19  2  0  0  0  0
 20 21  1  0  0  0  0
 21 25  1  0  0  0  0
 22 26  2  0  0  0  0
 23 24  2  0  0  0  0
 24 25  1  0  0  0  0
 25 26  1  0  0  0  0
 27 26  1  6  0  0  0
 27 28  1  0  0  0  0
 28 24  1  6  0  0  0
M  END
>  <CHROM.1>
69.20759322,-73.20354910,-163.35538121,142.30557961,-83.36276754,41.71470669
27.62213378,12.03421538,2.24904630,0.60807947,-0.60047696

>  <Name>
ligand

>  <RI>
0

>  <Rbt.Current_Directory>
/home/itssahil/PROJECTS/Mol_Feturizer/New_Systems/rnas/1YLS

>  <Rbt.Executable>
rbdock ($Id: //depot/dev/client3/rdock/2013.1/src/exe/rbdock.cxx#4 $)

>  <Rbt.Library>
libRbt.so (2013.1, Build901 2013/11/27)

>  <Rbt.Parameter_File>
/export/apps/rDock/src/rDock_2013.1_src/data/scripts/dock_solv.prm

>  <Rbt.Receptor>
prm/blind_docking_80.prm

>  <SCORE>
-11.3433

>  <SCORE.INTER>
-9.3877

>  <SCORE.INTER.CONST>
1

>  <SCORE.INTER.POLAR>
0

>  <SCORE.INTER.ROT>
5

>  <SCORE.INTER.SOLV>
9.87342

>  <SCORE.INTER.VDW>
-16.4829

>  <SCORE.INTER.norm>
-0.335275

>  <SCORE.INTRA>
-2.1731

>  <SCORE.INTRA.DIHEDRAL>
-3.6227

>  <SCORE.INTRA.DIHEDRAL.0>
12.0148

>  <SCORE.INTRA.POLAR>
0

>  <SCORE.INTRA.POLAR.0>
0

>  <SCORE.INTRA.REPUL>
0

>  <SCORE.INTRA.REPUL.0>
0

>  <SCORE.INTRA.SOLV>
0.0336574

>  <SCORE.INTRA.SOLV.lig_0>
-10.5235

>  <SCORE.INTRA.VDW>
-0.378576

>  <SCORE.INTRA.VDW.0>
-1.38455

>  <SCORE.INTRA.norm>
-0.0776106

>  <SCORE.RESTR>
0.217547

>  <SCORE.RESTR.CAVITY>
0.217547

>  <SCORE.RESTR.norm>
0.00776955

>  <SCORE.SYSTEM>
0

>  <SCORE.SYSTEM.CONST>
0

>  <SCORE.SYSTEM.DIHEDRAL>
0

>  <SCORE.SYSTEM.SOLV>
0

>  <SCORE.SYSTEM.norm>
0

>  <SCORE.heavy>
28

>  <SCORE.norm>
-0.405116

>  <RMSD>
15.017

$$$$
ligand
 OpenBabel11021811413D
libRbt.so/2013.1/901 2013/11/27
 28 32  0  0  0  0  0  0  0  0999 V2000
   38.5060   31.6920   11.1365 C   0  0  0  0  0  0  0  0  0  0  0  0
   37.4503   30.7072   11.5988 C   0  0  0  0  0  0  0  0  0  0  0  0
   37.7927   30.1134   12.9571 C   0  0  0  0  0  0  0  0  0  0  0  0
   43.3130   24.3764   14.6885 O   0  0  0  0  0  0  0  0  0  0  0  0
   42.2681   24.4585   13.7176 C   0  0  0  0  0  0  0  0  0  0  0  0
   42.7479   29.3060   12.9538 C   0  0  0  0  0  0  0  0  0  0  0  0
   42.3964   29.5756   14.2702 C   0  0  0  0  0  0  0  0  0  0  0  0
   42.0719   28.5211   15.1275 C   0  0  0  0  0  0  0  0  0  0  0  0
   42.1011   27.2020   14.6736 C   0  0  0  0  0  0  0  0  0  0  0  0
   42.5207   25.6107   12.7367 C   0  0  1  0  0  0  0  0  0  0  0  0
   42.4790   26.9589   13.3738 C   0  0  0  0  0  0  0  0  0  0  0  0
   42.7940   27.9975   12.5345 C   0  0  0  0  0  0  0  0  0  0  0  0
   43.1035   27.6142   11.1702 C   0  0  1  0  0  0  0  0  0  0  0  0
   45.2922   26.6502   10.4835 C   0  0  0  0  0  0  0  0  0  0  0  0
   44.1358   26.5939   11.2239 C   0  0  0  0  0  0  0  0  0  0  0  0
   43.8568   25.5326   12.0425 C   0  0  0  0  0  0  0  0  0  0  0  0
   44.7528   24.4780   12.1371 C   0  0  0  0  0  0  0  0  0  0  0  0
   45.9420   24.5304   11.4067 C   0  0  0  0  0  0  0  0  0  0  0  0
   46.2094   25.6171   10.5844 C   0  0  0  0  0  0  0  0  0  0  0  0
   38.9640   29.1466   12.8402 C   0  0  0  0  0  0  0  0  0  0  0  0
   38.5594   27.9132   12.0415 C   0  0  0  0  0  0  0  0  0  0  0  0
   39.4924   25.4673   12.8316 O   0  0  0  0  0  0  0  0  0  0  0  0
   40.5643   28.8496   10.2830 O   0  0  0  0  0  0  0  0  0  0  0  0
   40.6479   27.7635   10.8321 C   0  0  0  0  0  0  0  0  0  0  0  0
   39.7893   27.2564   11.6284 N   0  0  0  0  0  0  0  0  0  0  0  0
   40.1470   26.1319   12.0707 C   0  0  0  0  0  0  0  0  0  0  0  0
   41.4967   25.7188   11.5957 C   0  0  1  0  0  0  0  0  0  0  0  0
   41.8494   26.8990   10.6867 C   0  0  2  0  0  0  0  0  0  0  0  0
  1  2  1  0  0  0  0
  2  3  1  0  0  0  0
  3 20  1  0  0  0  0
  4  5  1  0  0  0  0
  6  7  2  0  0  0  0
  6 12  1  0  0  0  0
  7  8  1  0  0  0  0
  8  9  2  0  0  0  0
  9 11  1  0  0  0  0
 10  5  1  1  0  0  0
 10 11  1  0  0  0  0
 10 16  1  0  0  0  0
 10 27  1  0  0  0  0
 11 12  2  0  0  0  0
 13 12  1  1  0  0  0
 13 15  1  0  0  0  0
 13 28  1  0  0  0  0
 14 15  2  0  0  0  0
 14 19  1  0  0  0  0
 15 16  1  0  0  0  0
 16 17  2  0  0  0  0
 17 18  1  0  0  0  0
 18 19  2  0  0  0  0
 20 21  1  0  0  0  0
 21 25  1  0  0  0  0
 22 26  2  0  0  0  0
 23 24  2  0  0  0  0
 24 25  1  0  0  0  0
 25 26  1  0  0  0  0
 27 26  1  1  0  0  0
 27 28  1  0  0  0  0
 28 24  1  1  0  0  0
M  END
>  <CHROM.1>
-71.46060151,-65.02694634,-67.54182661,162.99561312,-64.65597770,41.69346639
27.27231681,12.27083768,-2.67294900,-0.47771819,2.37972710

>  <Name>
ligand

>  <RI>
0

>  <Rbt.Current_Directory>
/home/itssahil/PROJECTS/Mol_Feturizer/New_Systems/rnas/1YLS

>  <Rbt.Executable>
rbdock ($Id: //depot/dev/client3/rdock/2013.1/src/exe/rbdock.cxx#4 $)

>  <Rbt.Library>
libRbt.so (2013.1, Build901 2013/11/27)

>  <Rbt.Parameter_File>
/export/apps/rDock/src/rDock_2013.1_src/data/scripts/dock_solv.prm

>  <Rbt.Receptor>
prm/blind_docking_100.prm

>  <SCORE>
-16.9251

>  <SCORE.INTER>
-14.2919

>  <SCORE.INTER.CONST>
1

>  <SCORE.INTER.POLAR>
0

>  <SCORE.INTER.ROT>
5

>  <SCORE.INTER.SOLV>
12.4701

>  <SCORE.INTER.VDW>
-20.618

>  <SCORE.INTER.norm>
-0.510425

>  <SCORE.INTRA>
-2.75021

>  <SCORE.INTRA.DIHEDRAL>
-7.69351

>  <SCORE.INTRA.DIHEDRAL.0>
12.0148

>  <SCORE.INTRA.POLAR>
0

>  <SCORE.INTRA.POLAR.0>
0

>  <SCORE.INTRA.REPUL>
0

>  <SCORE.INTRA.REPUL.0>
0

>  <SCORE.INTRA.SOLV>
0.215868

>  <SCORE.INTRA.SOLV.lig_0>
-10.5235

>  <SCORE.INTRA.VDW>
0.988613

>  <SCORE.INTRA.VDW.0>
-1.38455

>  <SCORE.INTRA.norm>
-0.0982217

>  <SCORE.RESTR>
0.11702

>  <SCORE.RESTR.CAVITY>
0.11702

>  <SCORE.RESTR.norm>
0.00417928

>  <SCORE.SYSTEM>
0

>  <SCORE.SYSTEM.CONST>
0

>  <SCORE.SYSTEM.DIHEDRAL>
0

>  <SCORE.SYSTEM.SOLV>
0

>  <SCORE.SYSTEM.norm>
0

>  <SCORE.heavy>
28

>  <SCORE.norm>
-0.604468

>  <RMSD>
15.021

$$$$
ligand
 OpenBabel11021811413D
libRbt.so/2013.1/901 2013/11/27
 28 32  0  0  0  0  0  0  0  0999 V2000
   46.1314   20.5028   10.8309 C   0  0  0  0  0  0  0  0  0  0  0  0
   45.5827   21.9061   10.9966 C   0  0  0  0  0  0  0  0  0  0  0  0
   44.8133   22.0579   12.3004 C   0  0  0  0  0  0  0  0  0  0  0  0
   39.6578   27.1058    9.8472 O   0  0  0  0  0  0  0  0  0  0  0  0
   39.8381   26.5206   11.1379 C   0  0  0  0  0  0  0  0  0  0  0  0
   44.7339   27.1062   11.1720 C   0  0  0  0  0  0  0  0  0  0  0  0
   44.8681   26.2750   10.0673 C   0  0  0  0  0  0  0  0  0  0  0  0
   43.7332   25.6825    9.5077 C   0  0  0  0  0  0  0  0  0  0  0  0
   42.4684   25.9212   10.0466 C   0  0  0  0  0  0  0  0  0  0  0  0
   41.0838   27.0903   11.8288 C   0  0  1  0  0  0  0  0  0  0  0  0
   42.3585   26.7699   11.1232 C   0  0  0  0  0  0  0  0  0  0  0  0
   43.4759   27.3471   11.6715 C   0  0  0  0  0  0  0  0  0  0  0  0
   43.2340   28.1611   12.8475 C   0  0  1  0  0  0  0  0  0  0  0  0
   42.3250   30.4751   12.7459 C   0  0  0  0  0  0  0  0  0  0  0  0
   42.2034   29.1269   12.5091 C   0  0  0  0  0  0  0  0  0  0  0  0
   41.0653   28.5914   11.9685 C   0  0  0  0  0  0  0  0  0  0  0  0
   39.9976   29.4167   11.6475 C   0  0  0  0  0  0  0  0  0  0  0  0
   40.1140   30.7916   11.8631 C   0  0  0  0  0  0  0  0  0  0  0  0
   41.2779   31.3169   12.4089 C   0  0  0  0  0  0  0  0  0  0  0  0
   44.2211   23.4567   12.4141 C   0  0  0  0  0  0  0  0  0  0  0  0
   43.4860   23.6181   13.7395 C   0  0  0  0  0  0  0  0  0  0  0  0
   40.9618   24.2568   12.9044 O   0  0  0  0  0  0  0  0  0  0  0  0
   44.5807   26.1097   14.5026 O   0  0  0  0  0  0  0  0  0  0  0  0
   43.4424   26.0124   14.0749 C   0  0  0  0  0  0  0  0  0  0  0  0
   42.8636   24.9323   13.7190 N   0  0  0  0  0  0  0  0  0  0  0  0
   41.6955   25.1301   13.2893 C   0  0  0  0  0  0  0  0  0  0  0  0
   41.3208   26.5711   13.2558 C   0  0  1  0  0  0  0  0  0  0  0  0
   42.5858   27.2053   13.8397 C   0  0  2  0  0  0  0  0  0  0  0  0
  1  2  1  0  0  0  0
  2  3  1  0  0  0  0
  3 20  1  0  0  0  0
  4  5  1  0  0  0  0
  6  7  2  0  0  0  0
  6 12  1  0  0  0  0
  7  8  1  0  0  0  0
  8  9  2  0  0  0  0
  9 11  1  0  0  0  0
 10  5  1  6  0  0  0
 10 11  1  0  0  0  0
 10 16  1  0  0  0  0
 10 27  1  0  0  0  0
 11 12  2  0  0  0  0
 13 12  1  6  0  0  0
 13 15  1  0  0  0  0
 13 28  1  0  0  0  0
 14 15  2  0  0  0  0
 14 19  1  0  0  0  0
 15 16  1  0  0  0  0
 16 17  2  0  0  0  0
 17 18  1  0  0  0  0
 18 19  2  0  0  0  0
 20 21  1  0  0  0  0
 21 25  1  0  0  0  0
 22 26  2  0  0  0  0
 23 24  2  0  0  0  0
 24 25  1  0  0  0  0
 25 26  1  0  0  0  0
 27 26  1  6  0  0  0
 27 28  1  0  0  0  0
 28 24  1  6  0  0  0
M  END
>  <CHROM.1>
-177.50289146,-64.01692121,-178.33677067,-175.45479272,-86.30171423,42.67092297
26.26104235,12.10153690,0.68421374,0.88079049,-2.36811557

>  <Name>
ligand

>  <RI>
0

>  <Rbt.Current_Directory>
/home/itssahil/PROJECTS/Mol_Feturizer/New_Systems/rnas/1YLS

>  <Rbt.Executable>
rbdock ($Id: //depot/dev/client3/rdock/2013.1/src/exe/rbdock.cxx#4 $)

>  <Rbt.Library>
libRbt.so (2013.1, Build901 2013/11/27)

>  <Rbt.Parameter_File>
/export/apps/rDock/src/rDock_2013.1_src/data/scripts/dock_solv.prm

>  <Rbt.Receptor>
prm/blind_docking_100.prm

>  <SCORE>
-17.136

>  <SCORE.INTER>
-11.5418

>  <SCORE.INTER.CONST>
1

>  <SCORE.INTER.POLAR>
0

>  <SCORE.INTER.ROT>
5

>  <SCORE.INTER.SOLV>
10.6927

>  <SCORE.INTER.VDW>
-18.1921

>  <SCORE.INTER.norm>
-0.412206

>  <SCORE.INTRA>
-5.59423

>  <SCORE.INTRA.DIHEDRAL>
-9.27094

>  <SCORE.INTRA.DIHEDRAL.0>
12.0148

>  <SCORE.INTRA.POLAR>
0

>  <SCORE.INTRA.POLAR.0>
0

>  <SCORE.INTRA.REPUL>
0

>  <SCORE.INTRA.REPUL.0>
0

>  <SCORE.INTRA.SOLV>
-0.054096

>  <SCORE.INTRA.SOLV.lig_0>
-10.5235

>  <SCORE.INTRA.VDW>
-0.931714

>  <SCORE.INTRA.VDW.0>
-1.38455

>  <SCORE.INTRA.norm>
-0.199794

>  <SCORE.RESTR>
0

>  <SCORE.RESTR.CAVITY>
0

>  <SCORE.RESTR.norm>
0

>  <SCORE.SYSTEM>
0

>  <SCORE.SYSTEM.CONST>
0

>  <SCORE.SYSTEM.DIHEDRAL>
0

>  <SCORE.SYSTEM.SOLV>
0

>  <SCORE.SYSTEM.norm>
0

>  <SCORE.heavy>
28

>  <SCORE.norm>
-0.612

>  <RMSD>
15.022

$$$$
ligand
 OpenBabel11021811413D
libRbt.so/2013.1/901 2013/11/27
 28 32  0  0  0  0  0  0  0  0999 V2000
   45.9553   20.4557   11.7967 C   0  0  0  0  0  0  0  0  0  0  0  0
   45.3485   21.8405   11.6878 C   0  0  0  0  0  0  0  0  0  0  0  0
   44.5363   22.1966   12.9240 C   0  0  0  0  0  0  0  0  0  0  0  0
   38.6840   27.4674   11.4785 O   0  0  0  0  0  0  0  0  0  0  0  0
   39.8578   26.8749   10.9196 C   0  0  0  0  0  0  0  0  0  0  0  0
   44.7802   26.9862   11.1836 C   0  0  0  0  0  0  0  0  0  0  0  0
   44.8828   26.0388   10.1732 C   0  0  0  0  0  0  0  0  0  0  0  0
   43.7221   25.5050    9.6074 C   0  0  0  0  0  0  0  0  0  0  0  0
   42.4634   25.9177   10.0462 C   0  0  0  0  0  0  0  0  0  0  0  0
   41.1199   27.3886   11.6245 C   0  0  1  0  0  0  0  0  0  0  0  0
   42.3882   26.8773   11.0285 C   0  0  0  0  0  0  0  0  0  0  0  0
   43.5305   27.3965   11.5835 C   0  0  0  0  0  0  0  0  0  0  0  0
   43.3156   28.3445   12.6601 C   0  0  1  0  0  0  0  0  0  0  0  0
   42.6527   30.7132   12.2848 C   0  0  0  0  0  0  0  0  0  0  0  0
   42.4063   29.3660   12.1712 C   0  0  0  0  0  0  0  0  0  0  0  0
   41.2473   28.8910   11.6187 C   0  0  0  0  0  0  0  0  0  0  0  0
   40.2859   29.7787   11.1584 C   0  0  0  0  0  0  0  0  0  0  0  0
   40.5309   31.1506   11.2481 C   0  0  0  0  0  0  0  0  0  0  0  0
   41.7143   31.6137   11.8083 C   0  0  0  0  0  0  0  0  0  0  0  0
   43.9170   23.5806   12.7788 C   0  0  0  0  0  0  0  0  0  0  0  0
   43.0607   23.9117   13.9954 C   0  0  0  0  0  0  0  0  0  0  0  0
   40.6581   24.7032   12.9570 O   0  0  0  0  0  0  0  0  0  0  0  0
   44.3646   26.3505   14.5795 O   0  0  0  0  0  0  0  0  0  0  0  0
   43.2445   26.3206   14.0973 C   0  0  0  0  0  0  0  0  0  0  0  0
   42.5768   25.2709   13.8130 N   0  0  0  0  0  0  0  0  0  0  0  0
   41.4572   25.5360   13.2989 C   0  0  0  0  0  0  0  0  0  0  0  0
   41.2331   26.9957   13.1060 C   0  0  1  0  0  0  0  0  0  0  0  0
   42.5261   27.5607   13.6995 C   0  0  2  0  0  0  0  0  0  0  0  0
  1  2  1  0  0  0  0
  2  3  1  0  0  0  0
  3 20  1  0  0  0  0
  4  5  1  0  0  0  0
  6  7  2  0  0  0  0
  6 12  1  0  0  0  0
  7  8  1  0  0  0  0
  8  9  2  0  0  0  0
  9 11  1  0  0  0  0
 10  5  1  6  0  0  0
 10 11  1  0  0  0  0
 10 16  1  0  0  0  0
 10 27  1  0  0  0  0
 11 12  2  0  0  0  0
 13 12  1  6  0  0  0
 13 15  1  0  0  0  0
 13 28  1  0  0  0  0
 14 15  2  0  0  0  0
 14 19  1  0  0  0  0
 15 16  1  0  0  0  0
 16 17  2  0  0  0  0
 17 18  1  0  0  0  0
 18 19  2  0  0  0  0
 20 21  1  0  0  0  0
 21 25  1  0  0  0  0
 22 26  2  0  0  0  0
 23 24  2  0  0  0  0
 24 25  1  0  0  0  0
 25 26  1  0  0  0  0
 27 26  1  6  0  0  0
 27 28  1  0  0  0  0
 28 24  1  6  0  0  0
M  END
>  <CHROM.1>
-178.96019391,-176.16879204,177.82821527,176.65947488,-82.58706835,42.59033276
26.46397893,12.17235553,-1.09415287,0.13042350,-0.16689374

>  <Name>
ligand

>  <RI>
0

>  <Rbt.Current_Directory>
/home/itssahil/PROJECTS/Mol_Feturizer/New_Systems/rnas/1YLS

>  <Rbt.Executable>
rbdock ($Id: //depot/dev/client3/rdock/2013.1/src/exe/rbdock.cxx#4 $)

>  <Rbt.Library>
libRbt.so (2013.1, Build901 2013/11/27)

>  <Rbt.Parameter_File>
/export/apps/rDock/src/rDock_2013.1_src/data/scripts/dock_solv.prm

>  <Rbt.Receptor>
prm/blind_docking_60.prm

>  <SCORE>
-15.9132

>  <SCORE.INTER>
-10.5787

>  <SCORE.INTER.CONST>
1

>  <SCORE.INTER.POLAR>
0

>  <SCORE.INTER.ROT>
5

>  <SCORE.INTER.SOLV>
10.1451

>  <SCORE.INTER.VDW>
-17.3675

>  <SCORE.INTER.norm>
-0.377809

>  <SCORE.INTRA>
-5.3345

>  <SCORE.INTRA.DIHEDRAL>
-9.29981

>  <SCORE.INTRA.DIHEDRAL.0>
12.0148

>  <SCORE.INTRA.POLAR>
0

>  <SCORE.INTRA.POLAR.0>
0

>  <SCORE.INTRA.REPUL>
0

>  <SCORE.INTRA.REPUL.0>
0

>  <SCORE.INTRA.SOLV>
0.11636

>  <SCORE.INTRA.SOLV.lig_0>
-10.5235

>  <SCORE.INTRA.VDW>
-0.74278

>  <SCORE.INTRA.VDW.0>
-1.38455

>  <SCORE.INTRA.norm>
-0.190518

>  <SCORE.RESTR>
0

>  <SCORE.RESTR.CAVITY>
0

>  <SCORE.RESTR.norm>
0

>  <SCORE.SYSTEM>
0

>  <SCORE.SYSTEM.CONST>
0

>  <SCORE.SYSTEM.DIHEDRAL>
0

>  <SCORE.SYSTEM.SOLV>
0

>  <SCORE.SYSTEM.norm>
0

>  <SCORE.heavy>
28

>  <SCORE.norm>
-0.568327

>  <RMSD>
15.028

$$$$
ligand
 OpenBabel11021811413D
libRbt.so/2013.1/901 2013/11/27
 28 32  0  0  0  0  0  0  0  0999 V2000
   27.0821   27.9696   31.5031 C   0  0  0  0  0  0  0  0  0  0  0  0
   27.5278   26.9117   32.4931 C   0  0  0  0  0  0  0  0  0  0  0  0
   27.2861   25.5071   31.9606 C   0  0  0  0  0  0  0  0  0  0  0  0
   28.2649   18.3642   35.2460 O   0  0  0  0  0  0  0  0  0  0  0  0
   29.2549   19.3805   35.0778 C   0  0  0  0  0  0  0  0  0  0  0  0
   26.0384   22.9717   36.1121 C   0  0  0  0  0  0  0  0  0  0  0  0
   25.2089   22.5644   35.0750 C   0  0  0  0  0  0  0  0  0  0  0  0
   25.5884   21.4868   34.2706 C   0  0  0  0  0  0  0  0  0  0  0  0
   26.7897   20.8159   34.5023 C   0  0  0  0  0  0  0  0  0  0  0  0
   28.9048   20.6280   35.8992 C   0  0  1  0  0  0  0  0  0  0  0  0
   27.5803   21.2204   35.5525 C   0  0  0  0  0  0  0  0  0  0  0  0
   27.2054   22.2810   36.3379 C   0  0  0  0  0  0  0  0  0  0  0  0
   28.1602   22.6548   37.3639 C   0  0  1  0  0  0  0  0  0  0  0  0
   28.4251   21.4129   39.5037 C   0  0  0  0  0  0  0  0  0  0  0  0
   28.4708   21.4613   38.1310 C   0  0  0  0  0  0  0  0  0  0  0  0
   28.8605   20.3810   37.3859 C   0  0  0  0  0  0  0  0  0  0  0  0
   29.2234   19.2002   38.0170 C   0  0  0  0  0  0  0  0  0  0  0  0
   29.1623   19.1291   39.4103 C   0  0  0  0  0  0  0  0  0  0  0  0
   28.7609   20.2343   40.1492 C   0  0  0  0  0  0  0  0  0  0  0  0
   27.6441   24.4655   33.0128 C   0  0  0  0  0  0  0  0  0  0  0  0
   29.1567   24.3661   33.1714 C   0  0  0  0  0  0  0  0  0  0  0  0
   30.0985   21.8068   33.3722 O   0  0  0  0  0  0  0  0  0  0  0  0
   28.7524   25.1351   35.8611 O   0  0  0  0  0  0  0  0  0  0  0  0
   29.1800   24.0314   35.5661 C   0  0  0  0  0  0  0  0  0  0  0  0
   29.4041   23.6037   34.3849 N   0  0  0  0  0  0  0  0  0  0  0  0
   29.8179   22.4134   34.3734 C   0  0  0  0  0  0  0  0  0  0  0  0
   29.8810   21.8030   35.7304 C   0  0  1  0  0  0  0  0  0  0  0  0
   29.4309   22.9849   36.5928 C   0  0  2  0  0  0  0  0  0  0  0  0
  1  2  1  0  0  0  0
  2  3  1  0  0  0  0
  3 20  1  0  0  0  0
  4  5  1  0  0  0  0
  6  7  2  0  0  0  0
  6 12  1  0  0  0  0
  7  8  1  0  0  0  0
  8  9  2  0  0  0  0
  9 11  1  0  0  0  0
 10  5  1  6  0  0  0
 10 11  1  0  0  0  0
 10 16  1  0  0  0  0
 10 27  1  0  0  0  0
 11 12  2  0  0  0  0
 13 12  1  6  0  0  0
 13 15  1  0  0  0  0
 13 28  1  0  0  0  0
 14 15  2  0  0  0  0
 14 19  1  0  0  0  0
 15 16  1  0  0  0  0
 16 17  2  0  0  0  0
 17 18  1  0  0  0  0
 18 19  2  0  0  0  0
 20 21  1  0  0  0  0
 21 25  1  0  0  0  0
 22 26  2  0  0  0  0
 23 24  2  0  0  0  0
 24 25  1  0  0  0  0
 25 26  1  0  0  0  0
 27 26  1  6  0  0  0
 27 28  1  0  0  0  0
 28 24  1  6  0  0  0
M  END
>  <CHROM.1>
-175.75239804,-58.36842575,-72.95282329,166.94948179,-70.42840123,28.28306649
22.41400827,35.45026905,-2.90880722,1.43474864,-2.53139368

>  <Name>
ligand

>  <RI>
0

>  <Rbt.Current_Directory>
/home/itssahil/PROJECTS/Mol_Feturizer/New_Systems/rnas/1YLS

>  <Rbt.Executable>
rbdock ($Id: //depot/dev/client3/rdock/2013.1/src/exe/rbdock.cxx#4 $)

>  <Rbt.Library>
libRbt.so (2013.1, Build901 2013/11/27)

>  <Rbt.Parameter_File>
/export/apps/rDock/src/rDock_2013.1_src/data/scripts/dock_solv.prm

>  <Rbt.Receptor>
prm/blind_docking_80.prm

>  <SCORE>
-18.6005

>  <SCORE.INTER>
-14.4517

>  <SCORE.INTER.CONST>
1

>  <SCORE.INTER.POLAR>
0

>  <SCORE.INTER.ROT>
5

>  <SCORE.INTER.SOLV>
7.17743

>  <SCORE.INTER.VDW>
-18.9603

>  <SCORE.INTER.norm>
-0.516133

>  <SCORE.INTRA>
-4.14876

>  <SCORE.INTRA.DIHEDRAL>
-8.11396

>  <SCORE.INTRA.DIHEDRAL.0>
12.0148

>  <SCORE.INTRA.POLAR>
0

>  <SCORE.INTRA.POLAR.0>
0

>  <SCORE.INTRA.REPUL>
0

>  <SCORE.INTRA.REPUL.0>
0

>  <SCORE.INTRA.SOLV>
0.0740129

>  <SCORE.INTRA.SOLV.lig_0>
-10.5235

>  <SCORE.INTRA.VDW>
-0.128786

>  <SCORE.INTRA.VDW.0>
-1.38455

>  <SCORE.INTRA.norm>
-0.14817

>  <SCORE.RESTR>
0

>  <SCORE.RESTR.CAVITY>
0

>  <SCORE.RESTR.norm>
0

>  <SCORE.SYSTEM>
0

>  <SCORE.SYSTEM.CONST>
0

>  <SCORE.SYSTEM.DIHEDRAL>
0

>  <SCORE.SYSTEM.SOLV>
0

>  <SCORE.SYSTEM.norm>
0

>  <SCORE.heavy>
28

>  <SCORE.norm>
-0.664302

>  <RMSD>
15.032

$$$$
ligand
 OpenBabel11021811413D
libRbt.so/2013.1/901 2013/11/27
 28 32  0  0  0  0  0  0  0  0999 V2000
   47.2400   22.4225   11.5030 C   0  0  0  0  0  0  0  0  0  0  0  0
   45.7256   22.4662   11.5532 C   0  0  0  0  0  0  0  0  0  0  0  0
   45.2264   23.3309   12.7012 C   0  0  0  0  0  0  0  0  0  0  0  0
   39.7160   27.1737    9.6559 O   0  0  0  0  0  0  0  0  0  0  0  0
   39.7859   26.7620   11.0222 C   0  0  0  0  0  0  0  0  0  0  0  0
   44.7065   27.0441   11.1645 C   0  0  0  0  0  0  0  0  0  0  0  0
   44.8168   26.1047   10.1473 C   0  0  0  0  0  0  0  0  0  0  0  0
   43.6615   25.5329    9.6080 C   0  0  0  0  0  0  0  0  0  0  0  0
   42.4006   25.8997   10.0799 C   0  0  0  0  0  0  0  0  0  0  0  0
   41.0466   27.3168   11.6980 C   0  0  1  0  0  0  0  0  0  0  0  0
   42.3166   26.8523   11.0682 C   0  0  0  0  0  0  0  0  0  0  0  0
   43.4536   27.4089   11.5971 C   0  0  0  0  0  0  0  0  0  0  0  0
   43.2329   28.3447   12.6832 C   0  0  1  0  0  0  0  0  0  0  0  0
   42.4788   30.6903   12.3357 C   0  0  0  0  0  0  0  0  0  0  0  0
   42.2767   29.3358   12.2219 C   0  0  0  0  0  0  0  0  0  0  0  0
   41.1214   28.8226   11.6961 C   0  0  0  0  0  0  0  0  0  0  0  0
   40.1186   29.6780   11.2640 C   0  0  0  0  0  0  0  0  0  0  0  0
   40.3179   31.0573   11.3540 C   0  0  0  0  0  0  0  0  0  0  0  0
   41.4980   31.5593   11.8868 C   0  0  0  0  0  0  0  0  0  0  0  0
   43.7109   23.4735   12.6458 C   0  0  0  0  0  0  0  0  0  0  0  0
   43.1658   23.9006   14.0035 C   0  0  0  0  0  0  0  0  0  0  0  0
   40.7120   24.6118   13.0289 O   0  0  0  0  0  0  0  0  0  0  0  0
   44.3983   26.3812   14.5666 O   0  0  0  0  0  0  0  0  0  0  0  0
   43.2682   26.3141   14.1122 C   0  0  0  0  0  0  0  0  0  0  0  0
   42.6306   25.2428   13.8396 N   0  0  0  0  0  0  0  0  0  0  0  0
   41.4899   25.4707   13.3547 C   0  0  0  0  0  0  0  0  0  0  0  0
   41.2103   26.9224   13.1743 C   0  0  1  0  0  0  0  0  0  0  0  0
   42.4974   27.5299   13.7382 C   0  0  2  0  0  0  0  0  0  0  0  0
  1  2  1  0  0  0  0
  2  3  1  0  0  0  0
  3 20  1  0  0  0  0
  4  5  1  0  0  0  0
  6  7  2  0  0  0  0
  6 12  1  0  0  0  0
  7  8  1  0  0  0  0
  8  9  2  0  0  0  0
  9 11  1  0  0  0  0
 10  5  1  6  0  0  0
 10 11  1  0  0  0  0
 10 16  1  0  0  0  0
 10 27  1  0  0  0  0
 11 12  2  0  0  0  0
 13 12  1  6  0  0  0
 13 15  1  0  0  0  0
 13 28  1  0  0  0  0
 14 15  2  0  0  0  0
 14 19  1  0  0  0  0
 15 16  1  0  0  0  0
 16 17  2  0  0  0  0
 17 18  1  0  0  0  0
 18 19  2  0  0  0  0
 20 21  1  0  0  0  0
 21 25  1  0  0  0  0
 22 26  2  0  0  0  0
 23 24  2  0  0  0  0
 24 25  1  0  0  0  0
 25 26  1  0  0  0  0
 27 26  1  6  0  0  0
 27 28  1  0  0  0  0
 28 24  1  6  0  0  0
M  END
>  <CHROM.1>
174.26403169,-60.93432574,160.31833185,113.34820207,-96.00455112,42.67578757
26.57011344,12.09589732,-0.94080622,-0.31302121,0.10127086

>  <Name>
ligand

>  <RI>
0

>  <Rbt.Current_Directory>
/home/itssahil/PROJECTS/Mol_Feturizer/New_Systems/rnas/1YLS

>  <Rbt.Executable>
rbdock ($Id: //depot/dev/client3/rdock/2013.1/src/exe/rbdock.cxx#4 $)

>  <Rbt.Library>
libRbt.so (2013.1, Build901 2013/11/27)

>  <Rbt.Parameter_File>
/export/apps/rDock/src/rDock_2013.1_src/data/scripts/dock_solv.prm

>  <Rbt.Receptor>
prm/blind_docking_60.prm

>  <SCORE>
-13.9463

>  <SCORE.INTER>
-11.2103

>  <SCORE.INTER.CONST>
1

>  <SCORE.INTER.POLAR>
0

>  <SCORE.INTER.ROT>
5

>  <SCORE.INTER.SOLV>
9.80212

>  <SCORE.INTER.VDW>
-17.6742

>  <SCORE.INTER.norm>
-0.400368

>  <SCORE.INTRA>
-2.73598

>  <SCORE.INTRA.DIHEDRAL>
-2.46189

>  <SCORE.INTRA.DIHEDRAL.0>
12.0148

>  <SCORE.INTRA.POLAR>
0

>  <SCORE.INTRA.POLAR.0>
0

>  <SCORE.INTRA.REPUL>
0

>  <SCORE.INTRA.REPUL.0>
0

>  <SCORE.INTRA.SOLV>
0.0837421

>  <SCORE.INTRA.SOLV.lig_0>
-10.5235

>  <SCORE.INTRA.VDW>
-1.5469

>  <SCORE.INTRA.VDW.0>
-1.38455

>  <SCORE.INTRA.norm>
-0.0977135

>  <SCORE.RESTR>
0

>  <SCORE.RESTR.CAVITY>
0

>  <SCORE.RESTR.norm>
0

>  <SCORE.SYSTEM>
0

>  <SCORE.SYSTEM.CONST>
0

>  <SCORE.SYSTEM.DIHEDRAL>
0

>  <SCORE.SYSTEM.SOLV>
0

>  <SCORE.SYSTEM.norm>
0

>  <SCORE.heavy>
28

>  <SCORE.norm>
-0.498081

>  <RMSD>
15.037

$$$$
ligand
 OpenBabel11021811413D
libRbt.so/2013.1/901 2013/11/27
 28 32  0  0  0  0  0  0  0  0999 V2000
   26.8645   27.3674   33.5423 C   0  0  0  0  0  0  0  0  0  0  0  0
   27.7706   26.8968   32.4218 C   0  0  0  0  0  0  0  0  0  0  0  0
   27.3908   25.5047   31.9396 C   0  0  0  0  0  0  0  0  0  0  0  0
   28.1553   18.3534   35.1572 O   0  0  0  0  0  0  0  0  0  0  0  0
   29.2072   19.3126   35.0359 C   0  0  0  0  0  0  0  0  0  0  0  0
   26.1045   22.9940   36.1002 C   0  0  0  0  0  0  0  0  0  0  0  0
   25.2541   22.6109   35.0709 C   0  0  0  0  0  0  0  0  0  0  0  0
   25.5950   21.5230   34.2631 C   0  0  0  0  0  0  0  0  0  0  0  0
   26.7788   20.8180   34.4836 C   0  0  0  0  0  0  0  0  0  0  0  0
   28.9006   20.5694   35.8605 C   0  0  1  0  0  0  0  0  0  0  0  0
   27.5904   21.1995   35.5262 C   0  0  0  0  0  0  0  0  0  0  0  0
   27.2533   22.2702   36.3151 C   0  0  0  0  0  0  0  0  0  0  0  0
   28.2281   22.6164   37.3320 C   0  0  1  0  0  0  0  0  0  0  0  0
   28.4774   21.3670   39.4693 C   0  0  0  0  0  0  0  0  0  0  0  0
   28.5116   21.4143   38.0963 C   0  0  0  0  0  0  0  0  0  0  0  0
   28.8632   20.3234   37.3476 C   0  0  0  0  0  0  0  0  0  0  0  0
   29.1982   19.1327   37.9753 C   0  0  0  0  0  0  0  0  0  0  0  0
   29.1481   19.0630   39.3692 C   0  0  0  0  0  0  0  0  0  0  0  0
   28.7854   20.1791   40.1117 C   0  0  0  0  0  0  0  0  0  0  0  0
   27.7239   24.4609   32.9978 C   0  0  0  0  0  0  0  0  0  0  0  0
   29.2336   24.2993   33.1303 C   0  0  0  0  0  0  0  0  0  0  0  0
   30.1038   21.7141   33.3224 O   0  0  0  0  0  0  0  0  0  0  0  0
   28.8767   25.0790   35.8235 O   0  0  0  0  0  0  0  0  0  0  0  0
   29.2698   23.9636   35.5247 C   0  0  0  0  0  0  0  0  0  0  0  0
   29.4705   23.5299   34.3414 N   0  0  0  0  0  0  0  0  0  0  0  0
   29.8500   22.3283   34.3261 C   0  0  0  0  0  0  0  0  0  0  0  0
   29.9084   21.7160   35.6825 C   0  0  1  0  0  0  0  0  0  0  0  0
   29.5003   22.9102   36.5490 C   0  0  2  0  0  0  0  0  0  0  0  0
  1  2  1  0  0  0  0
  2  3  1  0  0  0  0
  3 20  1  0  0  0  0
  4  5  1  0  0  0  0
  6  7  2  0  0  0  0
  6 12  1  0  0  0  0
  7  8  1  0  0  0  0
  8  9  2  0  0  0  0
  9 11  1  0  0  0  0
 10  5  1  6  0  0  0
 10 11  1  0  0  0  0
 10 16  1  0  0  0  0
 10 27  1  0  0  0  0
 11 12  2  0  0  0  0
 13 12  1  6  0  0  0
 13 15  1  0  0  0  0
 13 28  1  0  0  0  0
 14 15  2  0  0  0  0
 14 19  1  0  0  0  0
 15 16  1  0  0  0  0
 16 17  2  0  0  0  0
 17 18  1  0  0  0  0
 18 19  2  0  0  0  0
 20 21  1  0  0  0  0
 21 25  1  0  0  0  0
 22 26  2  0  0  0  0
 23 24  2  0  0  0  0
 24 25  1  0  0  0  0
 25 26  1  0  0  0  0
 27 26  1  6  0  0  0
 27 28  1  0  0  0  0
 28 24  1  6  0  0  0
M  END
>  <CHROM.1>
-69.82018726,-55.27436922,-69.92355734,167.48608642,-69.54752154,28.31279892
22.35080398,35.49828556,2.80284870,1.43284041,-1.91924172

>  <Name>
ligand

>  <RI>
0

>  <Rbt.Current_Directory>
/home/itssahil/PROJECTS/Mol_Feturizer/New_Systems/rnas/1YLS

>  <Rbt.Executable>
rbdock ($Id: //depot/dev/client3/rdock/2013.1/src/exe/rbdock.cxx#4 $)

>  <Rbt.Library>
libRbt.so (2013.1, Build901 2013/11/27)

>  <Rbt.Parameter_File>
/export/apps/rDock/src/rDock_2013.1_src/data/scripts/dock_solv.prm

>  <Rbt.Receptor>
prm/blind_docking_80.prm

>  <SCORE>
-18.1204

>  <SCORE.INTER>
-15.0224

>  <SCORE.INTER.CONST>
1

>  <SCORE.INTER.POLAR>
0

>  <SCORE.INTER.ROT>
5

>  <SCORE.INTER.SOLV>
6.85162

>  <SCORE.INTER.VDW>
-19.2321

>  <SCORE.INTER.norm>
-0.536513

>  <SCORE.INTRA>
-3.11342

>  <SCORE.INTRA.DIHEDRAL>
-8.04188

>  <SCORE.INTRA.DIHEDRAL.0>
12.0148

>  <SCORE.INTRA.POLAR>
0

>  <SCORE.INTRA.POLAR.0>
0

>  <SCORE.INTRA.REPUL>
0

>  <SCORE.INTRA.REPUL.0>
0

>  <SCORE.INTRA.SOLV>
0.158763

>  <SCORE.INTRA.SOLV.lig_0>
-10.5235

>  <SCORE.INTRA.VDW>
0.82814

>  <SCORE.INTRA.VDW.0>
-1.38455

>  <SCORE.INTRA.norm>
-0.111193

>  <SCORE.RESTR>
0.0153893

>  <SCORE.RESTR.CAVITY>
0.0153893

>  <SCORE.RESTR.norm>
0.000549619

>  <SCORE.SYSTEM>
0

>  <SCORE.SYSTEM.CONST>
0

>  <SCORE.SYSTEM.DIHEDRAL>
0

>  <SCORE.SYSTEM.SOLV>
0

>  <SCORE.SYSTEM.norm>
0

>  <SCORE.heavy>
28

>  <SCORE.norm>
-0.647157

>  <RMSD>
15.044

$$$$
ligand
 OpenBabel11021811413D
libRbt.so/2013.1/901 2013/11/27
 28 32  0  0  0  0  0  0  0  0999 V2000
   46.3131   20.3686   10.6455 C   0  0  0  0  0  0  0  0  0  0  0  0
   45.6704   21.5561   11.3346 C   0  0  0  0  0  0  0  0  0  0  0  0
   46.0891   22.8711   10.6942 C   0  0  0  0  0  0  0  0  0  0  0  0
   42.9459   30.6048   12.1407 O   0  0  0  0  0  0  0  0  0  0  0  0
   43.2436   29.4546   12.9341 C   0  0  0  0  0  0  0  0  0  0  0  0
   42.1721   24.6664   13.4217 C   0  0  0  0  0  0  0  0  0  0  0  0
   43.0807   24.5416   14.4649 C   0  0  0  0  0  0  0  0  0  0  0  0
   43.8307   25.6512   14.8630 C   0  0  0  0  0  0  0  0  0  0  0  0
   43.6723   26.8818   14.2245 C   0  0  0  0  0  0  0  0  0  0  0  0
   42.4934   28.2213   12.4146 C   0  0  1  0  0  0  0  0  0  0  0  0
   42.7466   26.9868   13.2130 C   0  0  0  0  0  0  0  0  0  0  0  0
   42.0144   25.8940   12.8231 C   0  0  0  0  0  0  0  0  0  0  0  0
   41.1273   26.1173   11.6974 C   0  0  1  0  0  0  0  0  0  0  0  0
   38.9337   27.2753   11.8933 C   0  0  0  0  0  0  0  0  0  0  0  0
   40.3030   27.2716   12.0097 C   0  0  0  0  0  0  0  0  0  0  0  0
   40.9952   28.3888   12.3932 C   0  0  0  0  0  0  0  0  0  0  0  0
   40.3123   29.5632   12.6734 C   0  0  0  0  0  0  0  0  0  0  0  0
   38.9190   29.5767   12.5797 C   0  0  0  0  0  0  0  0  0  0  0  0
   38.2338   28.4325   12.1927 C   0  0  0  0  0  0  0  0  0  0  0  0
   45.3090   24.0330   11.2955 C   0  0  0  0  0  0  0  0  0  0  0  0
   45.5252   25.3005   10.4771 C   0  0  0  0  0  0  0  0  0  0  0  0
   45.2181   27.9426   11.1113 O   0  0  0  0  0  0  0  0  0  0  0  0
   42.8789   24.4171   10.0235 O   0  0  0  0  0  0  0  0  0  0  0  0
   43.1269   25.5715   10.3297 C   0  0  0  0  0  0  0  0  0  0  0  0
   44.2867   26.0600   10.5411 N   0  0  0  0  0  0  0  0  0  0  0  0
   44.2453   27.2759   10.8697 C   0  0  0  0  0  0  0  0  0  0  0  0
   42.8575   27.8049   10.9807 C   0  0  1  0  0  0  0  0  0  0  0  0
   42.0509   26.5688   10.5744 C   0  0  2  0  0  0  0  0  0  0  0  0
  1  2  1  0  0  0  0
  2  3  1  0  0  0  0
  3 20  1  0  0  0  0
  4  5  1  0  0  0  0
  6  7  2  0  0  0  0
  6 12  1  0  0  0  0
  7  8  1  0  0  0  0
  8  9  2  0  0  0  0
  9 11  1  0  0  0  0
 10  5  1  1  0  0  0
 10 11  1  0  0  0  0
 10 16  1  0  0  0  0
 10 27  1  0  0  0  0
 11 12  2  0  0  0  0
 13 12  1  1  0  0  0
 13 15  1  0  0  0  0
 13 28  1  0  0  0  0
 14 15  2  0  0  0  0
 14 19  1  0  0  0  0
 15 16  1  0  0  0  0
 16 17  2  0  0  0  0
 17 18  1  0  0  0  0
 18 19  2  0  0  0  0
 20 21  1  0  0  0  0
 21 25  1  0  0  0  0
 22 26  2  0  0  0  0
 23 24  2  0  0  0  0
 24 25  1  0  0  0  0
 25 26  1  0  0  0  0
 27 26  1  1  0  0  0
 27 28  1  0  0  0  0
 28 24  1  1  0  0  0
M  END
>  <CHROM.1>
173.42065898,-179.19688844,-168.98100613,146.83792635,-48.48919166,42.93088068
26.34777845,11.88689523,0.88195070,-0.23995418,-3.11258346

>  <Name>
ligand

>  <RI>
0

>  <Rbt.Current_Directory>
/home/itssahil/PROJECTS/Mol_Feturizer/New_Systems/rnas/1YLS

>  <Rbt.Executable>
rbdock ($Id: //depot/dev/client3/rdock/2013.1/src/exe/rbdock.cxx#4 $)

>  <Rbt.Library>
libRbt.so (2013.1, Build901 2013/11/27)

>  <Rbt.Parameter_File>
/export/apps/rDock/src/rDock_2013.1_src/data/scripts/dock_solv.prm

>  <Rbt.Receptor>
prm/blind_docking_100.prm

>  <SCORE>
-13.3204

>  <SCORE.INTER>
-11.3894

>  <SCORE.INTER.CONST>
1

>  <SCORE.INTER.POLAR>
0

>  <SCORE.INTER.ROT>
5

>  <SCORE.INTER.SOLV>
8.95644

>  <SCORE.INTER.VDW>
-17.5117

>  <SCORE.INTER.norm>
-0.406764

>  <SCORE.INTRA>
-1.93263

>  <SCORE.INTRA.DIHEDRAL>
-5.81172

>  <SCORE.INTRA.DIHEDRAL.0>
12.0148

>  <SCORE.INTRA.POLAR>
0

>  <SCORE.INTRA.POLAR.0>
0

>  <SCORE.INTRA.REPUL>
0

>  <SCORE.INTRA.REPUL.0>
0

>  <SCORE.INTRA.SOLV>
0.283909

>  <SCORE.INTRA.SOLV.lig_0>
-10.5235

>  <SCORE.INTRA.VDW>
0.831272

>  <SCORE.INTRA.VDW.0>
-1.38455

>  <SCORE.INTRA.norm>
-0.0690226

>  <SCORE.RESTR>
0.00163263

>  <SCORE.RESTR.CAVITY>
0.00163263

>  <SCORE.RESTR.norm>
5.83083e-05

>  <SCORE.SYSTEM>
0

>  <SCORE.SYSTEM.CONST>
0

>  <SCORE.SYSTEM.DIHEDRAL>
0

>  <SCORE.SYSTEM.SOLV>
0

>  <SCORE.SYSTEM.norm>
0

>  <SCORE.heavy>
28

>  <SCORE.norm>
-0.475729

>  <RMSD>
15.048

$$$$
ligand
 OpenBabel11021811413D
libRbt.so/2013.1/901 2013/11/27
 28 32  0  0  0  0  0  0  0  0999 V2000
   45.8632   20.4441   11.6895 C   0  0  0  0  0  0  0  0  0  0  0  0
   45.3616   21.8742   11.6558 C   0  0  0  0  0  0  0  0  0  0  0  0
   44.4694   22.1846   12.8484 C   0  0  0  0  0  0  0  0  0  0  0  0
   38.6852   27.4867   11.4369 O   0  0  0  0  0  0  0  0  0  0  0  0
   39.8608   26.8760   10.9020 C   0  0  0  0  0  0  0  0  0  0  0  0
   44.7822   27.0158   11.1724 C   0  0  0  0  0  0  0  0  0  0  0  0
   44.8916   26.0694   10.1616 C   0  0  0  0  0  0  0  0  0  0  0  0
   43.7347   25.5292    9.5941 C   0  0  0  0  0  0  0  0  0  0  0  0
   42.4731   25.9344   10.0315 C   0  0  0  0  0  0  0  0  0  0  0  0
   41.1190   27.3967   11.6088 C   0  0  1  0  0  0  0  0  0  0  0  0
   42.3911   26.8930   11.0141 C   0  0  0  0  0  0  0  0  0  0  0  0
   43.5296   27.4186   11.5708 C   0  0  0  0  0  0  0  0  0  0  0  0
   43.3079   28.3648   12.6476 C   0  0  1  0  0  0  0  0  0  0  0  0
   42.6317   30.7298   12.2726 C   0  0  0  0  0  0  0  0  0  0  0  0
   42.3933   29.3813   12.1581 C   0  0  0  0  0  0  0  0  0  0  0  0
   41.2377   28.8998   11.6038 C   0  0  0  0  0  0  0  0  0  0  0  0
   40.2719   29.7821   11.1427 C   0  0  0  0  0  0  0  0  0  0  0  0
   40.5088   31.1554   11.2333 C   0  0  0  0  0  0  0  0  0  0  0  0
   41.6887   31.6251   11.7953 C   0  0  0  0  0  0  0  0  0  0  0  0
   44.0029   23.6340   12.8067 C   0  0  0  0  0  0  0  0  0  0  0  0
   43.0769   23.9299   13.9805 C   0  0  0  0  0  0  0  0  0  0  0  0
   40.6711   24.7080   12.9394 O   0  0  0  0  0  0  0  0  0  0  0  0
   44.3659   26.3759   14.5675 O   0  0  0  0  0  0  0  0  0  0  0  0
   43.2466   26.3398   14.0838 C   0  0  0  0  0  0  0  0  0  0  0  0
   42.5854   25.2864   13.7981 N   0  0  0  0  0  0  0  0  0  0  0  0
   41.4650   25.5453   13.2827 C   0  0  0  0  0  0  0  0  0  0  0  0
   41.2326   27.0037   13.0902 C   0  0  1  0  0  0  0  0  0  0  0  0
   42.5216   27.5759   13.6856 C   0  0  2  0  0  0  0  0  0  0  0  0
  1  2  1  0  0  0  0
  2  3  1  0  0  0  0
  3 20  1  0  0  0  0
  4  5  1  0  0  0  0
  6  7  2  0  0  0  0
  6 12  1  0  0  0  0
  7  8  1  0  0  0  0
  8  9  2  0  0  0  0
  9 11  1  0  0  0  0
 10  5  1  6  0  0  0
 10 11  1  0  0  0  0
 10 16  1  0  0  0  0
 10 27  1  0  0  0  0
 11 12  2  0  0  0  0
 13 12  1  6  0  0  0
 13 15  1  0  0  0  0
 13 28  1  0  0  0  0
 14 15  2  0  0  0  0
 14 19  1  0  0  0  0
 15 16  1  0  0  0  0
 16 17  2  0  0  0  0
 17 18  1  0  0  0  0
 18 19  2  0  0  0  0
 20 21  1  0  0  0  0
 21 25  1  0  0  0  0
 22 26  2  0  0  0  0
 23 24  2  0  0  0  0
 24 25  1  0  0  0  0
 25 26  1  0  0  0  0
 27 26  1  6  0  0  0
 27 28  1  0  0  0  0
 28 24  1  6  0  0  0
M  END
>  <CHROM.1>
178.80951256,-174.70821830,178.35002868,-174.94417577,-79.29363288,42.58706398
26.47914760,12.15169791,-1.09657211,0.11718847,-0.15499806

>  <Name>
ligand

>  <RI>
0

>  <Rbt.Current_Directory>
/home/itssahil/PROJECTS/Mol_Feturizer/New_Systems/rnas/1YLS

>  <Rbt.Executable>
rbdock ($Id: //depot/dev/client3/rdock/2013.1/src/exe/rbdock.cxx#4 $)

>  <Rbt.Library>
libRbt.so (2013.1, Build901 2013/11/27)

>  <Rbt.Parameter_File>
/export/apps/rDock/src/rDock_2013.1_src/data/scripts/dock_solv.prm

>  <Rbt.Receptor>
prm/blind_docking_60.prm

>  <SCORE>
-15.8786

>  <SCORE.INTER>
-10.6452

>  <SCORE.INTER.CONST>
1

>  <SCORE.INTER.POLAR>
0

>  <SCORE.INTER.ROT>
5

>  <SCORE.INTER.SOLV>
10.0872

>  <SCORE.INTER.VDW>
-17.3925

>  <SCORE.INTER.norm>
-0.380185

>  <SCORE.INTRA>
-5.23346

>  <SCORE.INTRA.DIHEDRAL>
-9.21372

>  <SCORE.INTRA.DIHEDRAL.0>
12.0148

>  <SCORE.INTRA.POLAR>
0

>  <SCORE.INTRA.POLAR.0>
0

>  <SCORE.INTRA.REPUL>
0

>  <SCORE.INTRA.REPUL.0>
0

>  <SCORE.INTRA.SOLV>
0.106933

>  <SCORE.INTRA.SOLV.lig_0>
-10.5235

>  <SCORE.INTRA.VDW>
-0.680072

>  <SCORE.INTRA.VDW.0>
-1.38455

>  <SCORE.INTRA.norm>
-0.186909

>  <SCORE.RESTR>
0

>  <SCORE.RESTR.CAVITY>
0

>  <SCORE.RESTR.norm>
0

>  <SCORE.SYSTEM>
0

>  <SCORE.SYSTEM.CONST>
0

>  <SCORE.SYSTEM.DIHEDRAL>
0

>  <SCORE.SYSTEM.SOLV>
0

>  <SCORE.SYSTEM.norm>
0

>  <SCORE.heavy>
28

>  <SCORE.norm>
-0.567094

>  <RMSD>
15.048

$$$$
ligand
 OpenBabel11021811413D
libRbt.so/2013.1/901 2013/11/27
 28 32  0  0  0  0  0  0  0  0999 V2000
   46.8229   21.7106    9.5573 C   0  0  0  0  0  0  0  0  0  0  0  0
   46.3149   20.5045   10.3223 C   0  0  0  0  0  0  0  0  0  0  0  0
   46.7344   20.5491   11.7841 C   0  0  0  0  0  0  0  0  0  0  0  0
   43.6504   24.9591    9.5761 O   0  0  0  0  0  0  0  0  0  0  0  0
   43.0589   25.9847   10.3757 C   0  0  0  0  0  0  0  0  0  0  0  0
   46.5580   25.2439   13.7698 C   0  0  0  0  0  0  0  0  0  0  0  0
   47.5158   25.0584   12.7811 C   0  0  0  0  0  0  0  0  0  0  0  0
   47.1402   25.1194   11.4367 C   0  0  0  0  0  0  0  0  0  0  0  0
   45.8142   25.3678   11.0801 C   0  0  0  0  0  0  0  0  0  0  0  0
   43.4343   25.8127   11.8533 C   0  0  1  0  0  0  0  0  0  0  0  0
   44.8900   25.5755   12.0771 C   0  0  0  0  0  0  0  0  0  0  0  0
   45.2624   25.5117   13.3960 C   0  0  0  0  0  0  0  0  0  0  0  0
   44.1814   25.6745   14.3494 C   0  0  1  0  0  0  0  0  0  0  0  0
   43.1952   27.8825   14.9351 C   0  0  0  0  0  0  0  0  0  0  0  0
   43.4819   26.9027   14.0152 C   0  0  0  0  0  0  0  0  0  0  0  0
   43.0823   27.0027   12.7096 C   0  0  0  0  0  0  0  0  0  0  0  0
   42.3671   28.1142   12.2885 C   0  0  0  0  0  0  0  0  0  0  0  0
   42.0860   29.1280   13.2069 C   0  0  0  0  0  0  0  0  0  0  0  0
   42.5030   29.0105   14.5264 C   0  0  0  0  0  0  0  0  0  0  0  0
   46.0214   21.6810   12.5125 C   0  0  0  0  0  0  0  0  0  0  0  0
   44.5327   21.3795   12.6384 C   0  0  0  0  0  0  0  0  0  0  0  0
   43.1078   22.9483   10.9106 O   0  0  0  0  0  0  0  0  0  0  0  0
   44.4329   22.8150   15.0712 O   0  0  0  0  0  0  0  0  0  0  0  0
   43.8872   23.2257   14.0604 C   0  0  0  0  0  0  0  0  0  0  0  0
   43.8698   22.6415   12.9260 N   0  0  0  0  0  0  0  0  0  0  0  0
   43.2548   23.3070   12.0502 C   0  0  0  0  0  0  0  0  0  0  0  0
   42.7626   24.6200   12.5520 C   0  0  1  0  0  0  0  0  0  0  0  0
   43.2115   24.5498   14.0139 C   0  0  2  0  0  0  0  0  0  0  0  0
  1  2  1  0  0  0  0
  2  3  1  0  0  0  0
  3 20  1  0  0  0  0
  4  5  1  0  0  0  0
  6  7  2  0  0  0  0
  6 12  1  0  0  0  0
  7  8  1  0  0  0  0
  8  9  2  0  0  0  0
  9 11  1  0  0  0  0
 10  5  1  6  0  0  0
 10 11  1  0  0  0  0
 10 16  1  0  0  0  0
 10 27  1  0  0  0  0
 11 12  2  0  0  0  0
 13 12  1  6  0  0  0
 13 15  1  0  0  0  0
 13 28  1  0  0  0  0
 14 15  2  0  0  0  0
 14 19  1  0  0  0  0
 15 16  1  0  0  0  0
 16 17  2  0  0  0  0
 17 18  1  0  0  0  0
 18 19  2  0  0  0  0
 20 21  1  0  0  0  0
 21 25  1  0  0  0  0
 22 26  2  0  0  0  0
 23 24  2  0  0  0  0
 24 25  1  0  0  0  0
 25 26  1  0  0  0  0
 27 26  1  6  0  0  0
 27 28  1  0  0  0  0
 28 24  1  6  0  0  0
M  END
>  <CHROM.1>
68.19787554,47.54826377,68.67119184,-161.72782742,-75.70071887,44.41167234
24.57796271,12.46493868,0.24032285,1.11986017,-1.50565471

>  <Name>
ligand

>  <RI>
0

>  <Rbt.Current_Directory>
/home/itssahil/PROJECTS/Mol_Feturizer/New_Systems/rnas/1YLS

>  <Rbt.Executable>
rbdock ($Id: //depot/dev/client3/rdock/2013.1/src/exe/rbdock.cxx#4 $)

>  <Rbt.Library>
libRbt.so (2013.1, Build901 2013/11/27)

>  <Rbt.Parameter_File>
/export/apps/rDock/src/rDock_2013.1_src/data/scripts/dock_solv.prm

>  <Rbt.Receptor>
prm/blind_docking_60.prm

>  <SCORE>
-12.4761

>  <SCORE.INTER>
-10.6765

>  <SCORE.INTER.CONST>
1

>  <SCORE.INTER.POLAR>
0

>  <SCORE.INTER.ROT>
5

>  <SCORE.INTER.SOLV>
12.5793

>  <SCORE.INTER.VDW>
-18.2441

>  <SCORE.INTER.norm>
-0.381305

>  <SCORE.INTRA>
-1.79954

>  <SCORE.INTRA.DIHEDRAL>
-7.2399

>  <SCORE.INTRA.DIHEDRAL.0>
12.0148

>  <SCORE.INTRA.POLAR>
0

>  <SCORE.INTRA.POLAR.0>
0

>  <SCORE.INTRA.REPUL>
0

>  <SCORE.INTRA.REPUL.0>
0

>  <SCORE.INTRA.SOLV>
0.728112

>  <SCORE.INTRA.SOLV.lig_0>
-10.5235

>  <SCORE.INTRA.VDW>
1.45635

>  <SCORE.INTRA.VDW.0>
-1.38455

>  <SCORE.INTRA.norm>
-0.0642694

>  <SCORE.RESTR>
0

>  <SCORE.RESTR.CAVITY>
0

>  <SCORE.RESTR.norm>
0

>  <SCORE.SYSTEM>
0

>  <SCORE.SYSTEM.CONST>
0

>  <SCORE.SYSTEM.DIHEDRAL>
0

>  <SCORE.SYSTEM.SOLV>
0

>  <SCORE.SYSTEM.norm>
0

>  <SCORE.heavy>
28

>  <SCORE.norm>
-0.445574

>  <RMSD>
15.059

$$$$
ligand
 OpenBabel11021811413D
libRbt.so/2013.1/901 2013/11/27
 28 32  0  0  0  0  0  0  0  0999 V2000
   38.4897   31.6449   11.2017 C   0  0  0  0  0  0  0  0  0  0  0  0
   37.4341   30.6665   11.6775 C   0  0  0  0  0  0  0  0  0  0  0  0
   37.8138   30.0340   13.0082 C   0  0  0  0  0  0  0  0  0  0  0  0
   42.3211   23.2389   13.0742 O   0  0  0  0  0  0  0  0  0  0  0  0
   42.3582   24.4978   13.7487 C   0  0  0  0  0  0  0  0  0  0  0  0
   42.7914   29.3426   12.9406 C   0  0  0  0  0  0  0  0  0  0  0  0
   42.4230   29.6214   14.2505 C   0  0  0  0  0  0  0  0  0  0  0  0
   42.1013   28.5720   15.1150 C   0  0  0  0  0  0  0  0  0  0  0  0
   42.1501   27.2487   14.6749 C   0  0  0  0  0  0  0  0  0  0  0  0
   42.6081   25.6429   12.7588 C   0  0  1  0  0  0  0  0  0  0  0  0
   42.5446   26.9969   13.3817 C   0  0  0  0  0  0  0  0  0  0  0  0
   42.8567   28.0306   12.5352 C   0  0  0  0  0  0  0  0  0  0  0  0
   43.1850   27.6371   11.1782 C   0  0  1  0  0  0  0  0  0  0  0  0
   45.3916   26.6911   10.5244 C   0  0  0  0  0  0  0  0  0  0  0  0
   44.2281   26.6292   11.2531 C   0  0  0  0  0  0  0  0  0  0  0  0
   43.9524   25.5731   12.0795 C   0  0  0  0  0  0  0  0  0  0  0  0
   44.8592   24.5297   12.1942 C   0  0  0  0  0  0  0  0  0  0  0  0
   46.0553   24.5883   11.4759 C   0  0  0  0  0  0  0  0  0  0  0  0
   46.3192   25.6696   10.6455 C   0  0  0  0  0  0  0  0  0  0  0  0
   39.0097   29.1060   12.8394 C   0  0  0  0  0  0  0  0  0  0  0  0
   38.6288   27.8932   11.9986 C   0  0  0  0  0  0  0  0  0  0  0  0
   39.5808   25.4661   12.8233 O   0  0  0  0  0  0  0  0  0  0  0  0
   40.6416   28.8345   10.2518 O   0  0  0  0  0  0  0  0  0  0  0  0
   40.7316   27.7551   10.8128 C   0  0  0  0  0  0  0  0  0  0  0  0
   39.8704   27.2462   11.6051 N   0  0  0  0  0  0  0  0  0  0  0  0
   40.2360   26.1304   12.0626 C   0  0  0  0  0  0  0  0  0  0  0  0
   41.5952   25.7279   11.6060 C   0  0  1  0  0  0  0  0  0  0  0  0
   41.9443   26.9029   10.6889 C   0  0  2  0  0  0  0  0  0  0  0  0
  1  2  1  0  0  0  0
  2  3  1  0  0  0  0
  3 20  1  0  0  0  0
  4  5  1  0  0  0  0
  6  7  2  0  0  0  0
  6 12  1  0  0  0  0
  7  8  1  0  0  0  0
  8  9  2  0  0  0  0
  9 11  1  0  0  0  0
 10  5  1  1  0  0  0
 10 11  1  0  0  0  0
 10 16  1  0  0  0  0
 10 27  1  0  0  0  0
 11 12  2  0  0  0  0
 13 12  1  1  0  0  0
 13 15  1  0  0  0  0
 13 28  1  0  0  0  0
 14 15  2  0  0  0  0
 14 19  1  0  0  0  0
 15 16  1  0  0  0  0
 16 17  2  0  0  0  0
 17 18  1  0  0  0  0
 18 19  2  0  0  0  0
 20 21  1  0  0  0  0
 21 25  1  0  0  0  0
 22 26  2  0  0  0  0
 23 24  2  0  0  0  0
 24 25  1  0  0  0  0
 25 26  1  0  0  0  0
 27 26  1  1  0  0  0
 27 28  1  0  0  0  0
 28 24  1  1  0  0  0
M  END
>  <CHROM.1>
-68.53352706,175.14502268,-67.37980450,166.00196710,-67.02646625,41.71545234
27.23357688,12.21395092,-2.51586852,-0.26043975,2.83215510

>  <Name>
ligand

>  <RI>
0

>  <Rbt.Current_Directory>
/home/itssahil/PROJECTS/Mol_Feturizer/New_Systems/rnas/1YLS

>  <Rbt.Executable>
rbdock ($Id: //depot/dev/client3/rdock/2013.1/src/exe/rbdock.cxx#4 $)

>  <Rbt.Library>
libRbt.so (2013.1, Build901 2013/11/27)

>  <Rbt.Parameter_File>
/export/apps/rDock/src/rDock_2013.1_src/data/scripts/dock_solv.prm

>  <Rbt.Receptor>
prm/blind_docking_60.prm

>  <SCORE>
-16.6401

>  <SCORE.INTER>
-13.8639

>  <SCORE.INTER.CONST>
1

>  <SCORE.INTER.POLAR>
0

>  <SCORE.INTER.ROT>
5

>  <SCORE.INTER.SOLV>
11.9931

>  <SCORE.INTER.VDW>
-20.1736

>  <SCORE.INTER.norm>
-0.495139

>  <SCORE.INTRA>
-2.77625

>  <SCORE.INTRA.DIHEDRAL>
-8.2358

>  <SCORE.INTRA.DIHEDRAL.0>
12.0148

>  <SCORE.INTRA.POLAR>
0

>  <SCORE.INTRA.POLAR.0>
0

>  <SCORE.INTRA.REPUL>
0

>  <SCORE.INTRA.REPUL.0>
0

>  <SCORE.INTRA.SOLV>
0.41049

>  <SCORE.INTRA.SOLV.lig_0>
-10.5235

>  <SCORE.INTRA.VDW>
1.1364

>  <SCORE.INTRA.VDW.0>
-1.38455

>  <SCORE.INTRA.norm>
-0.0991519

>  <SCORE.RESTR>
0

>  <SCORE.RESTR.CAVITY>
0

>  <SCORE.RESTR.norm>
0

>  <SCORE.SYSTEM>
0

>  <SCORE.SYSTEM.CONST>
0

>  <SCORE.SYSTEM.DIHEDRAL>
0

>  <SCORE.SYSTEM.SOLV>
0

>  <SCORE.SYSTEM.norm>
0

>  <SCORE.heavy>
28

>  <SCORE.norm>
-0.594291

>  <RMSD>
15.064

$$$$
ligand
 OpenBabel11021811413D
libRbt.so/2013.1/901 2013/11/27
 28 32  0  0  0  0  0  0  0  0999 V2000
   37.7416   30.3513   12.7257 C   0  0  0  0  0  0  0  0  0  0  0  0
   39.2178   30.2706   12.3904 C   0  0  0  0  0  0  0  0  0  0  0  0
   39.5447   31.0240   11.1096 C   0  0  0  0  0  0  0  0  0  0  0  0
   44.8006   25.6115    9.9005 O   0  0  0  0  0  0  0  0  0  0  0  0
   43.3954   25.8692    9.8855 C   0  0  0  0  0  0  0  0  0  0  0  0
   39.6609   27.3116   12.7638 C   0  0  0  0  0  0  0  0  0  0  0  0
   38.8114   27.3913   11.6678 C   0  0  0  0  0  0  0  0  0  0  0  0
   39.3023   27.1024   10.3920 C   0  0  0  0  0  0  0  0  0  0  0  0
   40.6354   26.7322   10.2108 C   0  0  0  0  0  0  0  0  0  0  0  0
   42.9001   26.2882   11.2757 C   0  0  1  0  0  0  0  0  0  0  0  0
   41.4494   26.6336   11.3150 C   0  0  0  0  0  0  0  0  0  0  0  0
   40.9640   26.9211   12.5656 C   0  0  0  0  0  0  0  0  0  0  0  0
   41.9408   26.8519   13.6357 C   0  0  1  0  0  0  0  0  0  0  0  0
   42.7191   24.7129   14.6408 C   0  0  0  0  0  0  0  0  0  0  0  0
   42.5834   25.5515   13.5607 C   0  0  0  0  0  0  0  0  0  0  0  0
   43.0922   25.2289   12.3313 C   0  0  0  0  0  0  0  0  0  0  0  0
   43.7661   24.0294   12.1549 C   0  0  0  0  0  0  0  0  0  0  0  0
   43.8940   23.1573   13.2381 C   0  0  0  0  0  0  0  0  0  0  0  0
   43.3679   23.5002   14.4768 C   0  0  0  0  0  0  0  0  0  0  0  0
   40.8035   30.4612   10.4625 C   0  0  0  0  0  0  0  0  0  0  0  0
   42.0359   30.8412   11.2748 C   0  0  0  0  0  0  0  0  0  0  0  0
   43.5027   28.9500    9.9523 O   0  0  0  0  0  0  0  0  0  0  0  0
   41.8180   29.7980   13.8927 O   0  0  0  0  0  0  0  0  0  0  0  0
   42.4241   29.2071   13.0143 C   0  0  0  0  0  0  0  0  0  0  0  0
   42.5835   29.6061   11.8127 N   0  0  0  0  0  0  0  0  0  0  0  0
   43.2292   28.7811   11.1123 C   0  0  0  0  0  0  0  0  0  0  0  0
   43.5845   27.5380   11.8516 C   0  0  1  0  0  0  0  0  0  0  0  0
   43.0106   27.8581   13.2343 C   0  0  2  0  0  0  0  0  0  0  0  0
  1  2  1  0  0  0  0
  2  3  1  0  0  0  0
  3 20  1  0  0  0  0
  4  5  1  0  0  0  0
  6  7  2  0  0  0  0
  6 12  1  0  0  0  0
  7  8  1  0  0  0  0
  8  9  2  0  0  0  0
  9 11  1  0  0  0  0
 10  5  1  6  0  0  0
 10 11  1  0  0  0  0
 10 16  1  0  0  0  0
 10 27  1  0  0  0  0
 11 12  2  0  0  0  0
 13 12  1  6  0  0  0
 13 15  1  0  0  0  0
 13 28  1  0  0  0  0
 14 15  2  0  0  0  0
 14 19  1  0  0  0  0
 15 16  1  0  0  0  0
 16 17  2  0  0  0  0
 17 18  1  0  0  0  0
 18 19  2  0  0  0  0
 20 21  1  0  0  0  0
 21 25  1  0  0  0  0
 22 26  2  0  0  0  0
 23 24  2  0  0  0  0
 24 25  1  0  0  0  0
 25 26  1  0  0  0  0
 27 26  1  6  0  0  0
 27 28  1  0  0  0  0
 28 24  1  6  0  0  0
M  END
>  <CHROM.1>
-155.01264639,177.32995066,-71.74502125,114.12887251,-101.60080603,41.88676072
27.53555299,11.98887843,2.27079118,0.56810197,-0.56951409

>  <Name>
ligand

>  <RI>
0

>  <Rbt.Current_Directory>
/home/itssahil/PROJECTS/Mol_Feturizer/New_Systems/rnas/1YLS

>  <Rbt.Executable>
rbdock ($Id: //depot/dev/client3/rdock/2013.1/src/exe/rbdock.cxx#4 $)

>  <Rbt.Library>
libRbt.so (2013.1, Build901 2013/11/27)

>  <Rbt.Parameter_File>
/export/apps/rDock/src/rDock_2013.1_src/data/scripts/dock_solv.prm

>  <Rbt.Receptor>
prm/blind_docking_100.prm

>  <SCORE>
-11.3611

>  <SCORE.INTER>
-10.8518

>  <SCORE.INTER.CONST>
1

>  <SCORE.INTER.POLAR>
0

>  <SCORE.INTER.ROT>
5

>  <SCORE.INTER.SOLV>
8.74025

>  <SCORE.INTER.VDW>
-17.0813

>  <SCORE.INTER.norm>
-0.387565

>  <SCORE.INTRA>
-1.16784

>  <SCORE.INTRA.DIHEDRAL>
-1.23601

>  <SCORE.INTRA.DIHEDRAL.0>
12.0148

>  <SCORE.INTRA.POLAR>
0

>  <SCORE.INTRA.POLAR.0>
0

>  <SCORE.INTRA.REPUL>
0

>  <SCORE.INTRA.REPUL.0>
0

>  <SCORE.INTRA.SOLV>
0.584709

>  <SCORE.INTRA.SOLV.lig_0>
-10.5235

>  <SCORE.INTRA.VDW>
-0.84219

>  <SCORE.INTRA.VDW.0>
-1.38455

>  <SCORE.INTRA.norm>
-0.0417086

>  <SCORE.RESTR>
0.658513

>  <SCORE.RESTR.CAVITY>
0.658513

>  <SCORE.RESTR.norm>
0.0235183

>  <SCORE.SYSTEM>
0

>  <SCORE.SYSTEM.CONST>
0

>  <SCORE.SYSTEM.DIHEDRAL>
0

>  <SCORE.SYSTEM.SOLV>
0

>  <SCORE.SYSTEM.norm>
0

>  <SCORE.heavy>
28

>  <SCORE.norm>
-0.405755

>  <RMSD>
15.065

$$$$
ligand
 OpenBabel11021811413D
libRbt.so/2013.1/901 2013/11/27
 28 32  0  0  0  0  0  0  0  0999 V2000
   37.6563   29.3777   12.0000 C   0  0  0  0  0  0  0  0  0  0  0  0
   38.7055   29.3102   13.0920 C   0  0  0  0  0  0  0  0  0  0  0  0
   40.1137   29.4102   12.5247 C   0  0  0  0  0  0  0  0  0  0  0  0
   45.3082   25.9783    9.2559 O   0  0  0  0  0  0  0  0  0  0  0  0
   43.8977   26.0645    9.4663 C   0  0  0  0  0  0  0  0  0  0  0  0
   40.4520   25.7512   12.9793 C   0  0  0  0  0  0  0  0  0  0  0  0
   39.4861   26.2491   12.1141 C   0  0  0  0  0  0  0  0  0  0  0  0
   39.8448   26.6070   10.8120 C   0  0  0  0  0  0  0  0  0  0  0  0
   41.1620   26.4656   10.3738 C   0  0  0  0  0  0  0  0  0  0  0  0
   43.5427   25.7703   10.9295 C   0  0  1  0  0  0  0  0  0  0  0  0
   42.0941   25.9443   11.2403 C   0  0  0  0  0  0  0  0  0  0  0  0
   41.7382   25.5970   12.5190 C   0  0  0  0  0  0  0  0  0  0  0  0
   42.8274   25.1302   13.3556 C   0  0  1  0  0  0  0  0  0  0  0  0
   43.7817   22.8372   13.2051 C   0  0  0  0  0  0  0  0  0  0  0  0
   43.5013   24.0593   12.6426 C   0  0  0  0  0  0  0  0  0  0  0  0
   43.8839   24.3676   11.3647 C   0  0  0  0  0  0  0  0  0  0  0  0
   44.5745   23.4346   10.6054 C   0  0  0  0  0  0  0  0  0  0  0  0
   44.8486   22.1808   11.1560 C   0  0  0  0  0  0  0  0  0  0  0  0
   44.4492   21.8848   12.4527 C   0  0  0  0  0  0  0  0  0  0  0  0
   41.1396   29.4954   13.6473 C   0  0  0  0  0  0  0  0  0  0  0  0
   42.5311   29.7490   13.0796 C   0  0  0  0  0  0  0  0  0  0  0  0
   43.9081   28.7813   10.9245 O   0  0  0  0  0  0  0  0  0  0  0  0
   42.6343   27.6231   14.9395 O   0  0  0  0  0  0  0  0  0  0  0  0
   43.1609   27.5424   13.8421 C   0  0  0  0  0  0  0  0  0  0  0  0
   43.1752   28.4519   12.9471 N   0  0  0  0  0  0  0  0  0  0  0  0
   43.7682   28.0859   11.8971 C   0  0  0  0  0  0  0  0  0  0  0  0
   44.2433   26.6756   11.9549 C   0  0  1  0  0  0  0  0  0  0  0  0
   43.8127   26.2907   13.3726 C   0  0  2  0  0  0  0  0  0  0  0  0
  1  2  1  0  0  0  0
  2  3  1  0  0  0  0
  3 20  1  0  0  0  0
  4  5  1  0  0  0  0
  6  7  2  0  0  0  0
  6 12  1  0  0  0  0
  7  8  1  0  0  0  0
  8  9  2  0  0  0  0
  9 11  1  0  0  0  0
 10  5  1  6  0  0  0
 10 11  1  0  0  0  0
 10 16  1  0  0  0  0
 10 27  1  0  0  0  0
 11 12  2  0  0  0  0
 13 12  1  6  0  0  0
 13 15  1  0  0  0  0
 13 28  1  0  0  0  0
 14 15  2  0  0  0  0
 14 19  1  0  0  0  0
 15 16  1  0  0  0  0
 16 17  2  0  0  0  0
 17 18  1  0  0  0  0
 18 19  2  0  0  0  0
 20 21  1  0  0  0  0
 21 25  1  0  0  0  0
 22 26  2  0  0  0  0
 23 24  2  0  0  0  0
 24 25  1  0  0  0  0
 25 26  1  0  0  0  0
 27 26  1  6  0  0  0
 27 28  1  0  0  0  0
 28 24  1  6  0  0  0
M  END
>  <CHROM.1>
173.73357332,175.64649779,-173.79058018,-95.10893952,-45.32228799,42.49465801
26.53077379,12.10121434,2.28283595,0.28020023,0.01934581

>  <Name>
ligand

>  <RI>
0

>  <Rbt.Current_Directory>
/home/itssahil/PROJECTS/Mol_Feturizer/New_Systems/rnas/1YLS

>  <Rbt.Executable>
rbdock ($Id: //depot/dev/client3/rdock/2013.1/src/exe/rbdock.cxx#4 $)

>  <Rbt.Library>
libRbt.so (2013.1, Build901 2013/11/27)

>  <Rbt.Parameter_File>
/export/apps/rDock/src/rDock_2013.1_src/data/scripts/dock_solv.prm

>  <Rbt.Receptor>
prm/blind_docking_100.prm

>  <SCORE>
-9.33568

>  <SCORE.INTER>
-6.58043

>  <SCORE.INTER.CONST>
1

>  <SCORE.INTER.POLAR>
0

>  <SCORE.INTER.ROT>
5

>  <SCORE.INTER.SOLV>
11.2414

>  <SCORE.INTER.VDW>
-15.0674

>  <SCORE.INTER.norm>
-0.235015

>  <SCORE.INTRA>
-2.75525

>  <SCORE.INTRA.DIHEDRAL>
-5.87307

>  <SCORE.INTRA.DIHEDRAL.0>
12.0148

>  <SCORE.INTRA.POLAR>
0

>  <SCORE.INTRA.POLAR.0>
0

>  <SCORE.INTRA.REPUL>
0

>  <SCORE.INTRA.REPUL.0>
0

>  <SCORE.INTRA.SOLV>
0.356058

>  <SCORE.INTRA.SOLV.lig_0>
-10.5235

>  <SCORE.INTRA.VDW>
0.00325483

>  <SCORE.INTRA.VDW.0>
-1.38455

>  <SCORE.INTRA.norm>
-0.0984018

>  <SCORE.RESTR>
0

>  <SCORE.RESTR.CAVITY>
0

>  <SCORE.RESTR.norm>
0

>  <SCORE.SYSTEM>
0

>  <SCORE.SYSTEM.CONST>
0

>  <SCORE.SYSTEM.DIHEDRAL>
0

>  <SCORE.SYSTEM.SOLV>
0

>  <SCORE.SYSTEM.norm>
0

>  <SCORE.heavy>
28

>  <SCORE.norm>
-0.333417

>  <RMSD>
15.070

$$$$
ligand
 OpenBabel11021811413D
libRbt.so/2013.1/901 2013/11/27
 28 32  0  0  0  0  0  0  0  0999 V2000
   26.2044   27.9393   32.0693 C   0  0  0  0  0  0  0  0  0  0  0  0
   26.3549   26.5835   32.7305 C   0  0  0  0  0  0  0  0  0  0  0  0
   27.7305   25.9849   32.4774 C   0  0  0  0  0  0  0  0  0  0  0  0
   27.7544   18.1808   34.6550 O   0  0  0  0  0  0  0  0  0  0  0  0
   28.8739   19.0639   34.5658 C   0  0  0  0  0  0  0  0  0  0  0  0
   26.1737   22.8918   36.1049 C   0  0  0  0  0  0  0  0  0  0  0  0
   25.2639   22.6995   35.0731 C   0  0  0  0  0  0  0  0  0  0  0  0
   25.4762   21.6740   34.1482 C   0  0  0  0  0  0  0  0  0  0  0  0
   26.5908   20.8412   34.2544 C   0  0  0  0  0  0  0  0  0  0  0  0
   28.7127   20.2518   35.5231 C   0  0  1  0  0  0  0  0  0  0  0  0
   27.4622   21.0341   35.3007 C   0  0  0  0  0  0  0  0  0  0  0  0
   27.2516   22.0443   36.2049 C   0  0  0  0  0  0  0  0  0  0  0  0
   28.2812   22.1895   37.2163 C   0  0  1  0  0  0  0  0  0  0  0  0
   28.4620   20.7072   39.2066 C   0  0  0  0  0  0  0  0  0  0  0  0
   28.4655   20.8933   37.8450 C   0  0  0  0  0  0  0  0  0  0  0  0
   28.6896   19.8575   36.9782 C   0  0  0  0  0  0  0  0  0  0  0  0
   28.9226   18.5818   37.4705 C   0  0  0  0  0  0  0  0  0  0  0  0
   28.9017   18.3731   38.8512 C   0  0  0  0  0  0  0  0  0  0  0  0
   28.6688   19.4354   39.7148 C   0  0  0  0  0  0  0  0  0  0  0  0
   27.8916   24.6720   33.2327 C   0  0  0  0  0  0  0  0  0  0  0  0
   29.3383   24.1964   33.1725 C   0  0  0  0  0  0  0  0  0  0  0  0
   29.9565   21.5347   33.0721 O   0  0  0  0  0  0  0  0  0  0  0  0
   29.1283   24.7229   35.9415 O   0  0  0  0  0  0  0  0  0  0  0  0
   29.4029   23.6123   35.5180 C   0  0  0  0  0  0  0  0  0  0  0  0
   29.5299   23.2867   34.2907 N   0  0  0  0  0  0  0  0  0  0  0  0
   29.7897   22.0627   34.1410 C   0  0  0  0  0  0  0  0  0  0  0  0
   29.8228   21.3102   35.4259 C   0  0  1  0  0  0  0  0  0  0  0  0
   29.5556   22.4413   36.4222 C   0  0  2  0  0  0  0  0  0  0  0  0
  1  2  1  0  0  0  0
  2  3  1  0  0  0  0
  3 20  1  0  0  0  0
  4  5  1  0  0  0  0
  6  7  2  0  0  0  0
  6 12  1  0  0  0  0
  7  8  1  0  0  0  0
  8  9  2  0  0  0  0
  9 11  1  0  0  0  0
 10  5  1  6  0  0  0
 10 11  1  0  0  0  0
 10 16  1  0  0  0  0
 10 27  1  0  0  0  0
 11 12  2  0  0  0  0
 13 12  1  6  0  0  0
 13 15  1  0  0  0  0
 13 28  1  0  0  0  0
 14 15  2  0  0  0  0
 14 19  1  0  0  0  0
 15 16  1  0  0  0  0
 16 17  2  0  0  0  0
 17 18  1  0  0  0  0
 18 19  2  0  0  0  0
 20 21  1  0  0  0  0
 21 25  1  0  0  0  0
 22 26  2  0  0  0  0
 23 24  2  0  0  0  0
 24 25  1  0  0  0  0
 25 26  1  0  0  0  0
 27 26  1  6  0  0  0
 27 28  1  0  0  0  0
 28 24  1  6  0  0  0
M  END
>  <CHROM.1>
175.95437532,-56.93583629,-170.36251084,158.29514910,-61.48476846,28.18817509
22.13157763,35.30057317,2.66594485,1.38840513,-1.69840968

>  <Name>
ligand

>  <RI>
0

>  <Rbt.Current_Directory>
/home/itssahil/PROJECTS/Mol_Feturizer/New_Systems/rnas/1YLS

>  <Rbt.Executable>
rbdock ($Id: //depot/dev/client3/rdock/2013.1/src/exe/rbdock.cxx#4 $)

>  <Rbt.Library>
libRbt.so (2013.1, Build901 2013/11/27)

>  <Rbt.Parameter_File>
/export/apps/rDock/src/rDock_2013.1_src/data/scripts/dock_solv.prm

>  <Rbt.Receptor>
prm/blind_docking_80.prm

>  <SCORE>
-18.4185

>  <SCORE.INTER>
-14.3518

>  <SCORE.INTER.CONST>
1

>  <SCORE.INTER.POLAR>
0

>  <SCORE.INTER.ROT>
5

>  <SCORE.INTER.SOLV>
7.31783

>  <SCORE.INTER.VDW>
-18.9405

>  <SCORE.INTER.norm>
-0.512563

>  <SCORE.INTRA>
-4.06677

>  <SCORE.INTRA.DIHEDRAL>
-7.48972

>  <SCORE.INTRA.DIHEDRAL.0>
12.0148

>  <SCORE.INTRA.POLAR>
0

>  <SCORE.INTRA.POLAR.0>
0

>  <SCORE.INTRA.REPUL>
0

>  <SCORE.INTRA.REPUL.0>
0

>  <SCORE.INTRA.SOLV>
0.0181451

>  <SCORE.INTRA.SOLV.lig_0>
-10.5235

>  <SCORE.INTRA.VDW>
-0.330982

>  <SCORE.INTRA.VDW.0>
-1.38455

>  <SCORE.INTRA.norm>
-0.145242

>  <SCORE.RESTR>
0

>  <SCORE.RESTR.CAVITY>
0

>  <SCORE.RESTR.norm>
0

>  <SCORE.SYSTEM>
0

>  <SCORE.SYSTEM.CONST>
0

>  <SCORE.SYSTEM.DIHEDRAL>
0

>  <SCORE.SYSTEM.SOLV>
0

>  <SCORE.SYSTEM.norm>
0

>  <SCORE.heavy>
28

>  <SCORE.norm>
-0.657805

>  <RMSD>
15.070

$$$$
ligand
 OpenBabel11021811413D
libRbt.so/2013.1/901 2013/11/27
 28 32  0  0  0  0  0  0  0  0999 V2000
   38.4671   31.6752   11.2191 C   0  0  0  0  0  0  0  0  0  0  0  0
   37.4418   30.6639   11.6924 C   0  0  0  0  0  0  0  0  0  0  0  0
   37.8480   30.0287   13.0139 C   0  0  0  0  0  0  0  0  0  0  0  0
   42.3386   23.2082   13.0927 O   0  0  0  0  0  0  0  0  0  0  0  0
   42.3645   24.4752   13.7524 C   0  0  0  0  0  0  0  0  0  0  0  0
   42.8282   29.3094   12.8993 C   0  0  0  0  0  0  0  0  0  0  0  0
   42.4718   29.6022   14.2094 C   0  0  0  0  0  0  0  0  0  0  0  0
   42.1487   28.5627   15.0853 C   0  0  0  0  0  0  0  0  0  0  0  0
   42.1842   27.2354   14.6563 C   0  0  0  0  0  0  0  0  0  0  0  0
   42.6156   25.6098   12.7508 C   0  0  1  0  0  0  0  0  0  0  0  0
   42.5670   26.9695   13.3624 C   0  0  0  0  0  0  0  0  0  0  0  0
   42.8805   27.9935   12.5047 C   0  0  0  0  0  0  0  0  0  0  0  0
   43.1955   27.5858   11.1488 C   0  0  1  0  0  0  0  0  0  0  0  0
   45.3899   26.6175   10.4866 C   0  0  0  0  0  0  0  0  0  0  0  0
   44.2315   26.5707   11.2246 C   0  0  0  0  0  0  0  0  0  0  0  0
   43.9541   25.5239   12.0621 C   0  0  0  0  0  0  0  0  0  0  0  0
   44.8538   24.4746   12.1790 C   0  0  0  0  0  0  0  0  0  0  0  0
   46.0450   24.5179   11.4513 C   0  0  0  0  0  0  0  0  0  0  0  0
   46.3107   25.5901   10.6096 C   0  0  0  0  0  0  0  0  0  0  0  0
   39.0444   29.1061   12.8203 C   0  0  0  0  0  0  0  0  0  0  0  0
   38.6477   27.8836   12.0011 C   0  0  0  0  0  0  0  0  0  0  0  0
   39.5876   25.4566   12.8396 O   0  0  0  0  0  0  0  0  0  0  0  0
   40.6543   28.7946   10.2311 O   0  0  0  0  0  0  0  0  0  0  0  0
   40.7404   27.7193   10.8007 C   0  0  0  0  0  0  0  0  0  0  0  0
   39.8813   27.2239   11.6039 N   0  0  0  0  0  0  0  0  0  0  0  0
   40.2420   26.1093   12.0683 C   0  0  0  0  0  0  0  0  0  0  0  0
   41.5947   25.6926   11.6050 C   0  0  1  0  0  0  0  0  0  0  0  0
   41.9456   26.8569   10.6751 C   0  0  2  0  0  0  0  0  0  0  0  0
  1  2  1  0  0  0  0
  2  3  1  0  0  0  0
  3 20  1  0  0  0  0
  4  5  1  0  0  0  0
  6  7  2  0  0  0  0
  6 12  1  0  0  0  0
  7  8  1  0  0  0  0
  8  9  2  0  0  0  0
  9 11  1  0  0  0  0
 10  5  1  1  0  0  0
 10 11  1  0  0  0  0
 10 16  1  0  0  0  0
 10 27  1  0  0  0  0
 11 12  2  0  0  0  0
 13 12  1  1  0  0  0
 13 15  1  0  0  0  0
 13 28  1  0  0  0  0
 14 15  2  0  0  0  0
 14 19  1  0  0  0  0
 15 16  1  0  0  0  0
 16 17  2  0  0  0  0
 17 18  1  0  0  0  0
 18 19  2  0  0  0  0
 20 21  1  0  0  0  0
 21 25  1  0  0  0  0
 22 26  2  0  0  0  0
 23 24  2  0  0  0  0
 24 25  1  0  0  0  0
 25 26  1  0  0  0  0
 27 26  1  1  0  0  0
 27 28  1  0  0  0  0
 28 24  1  1  0  0  0
M  END
>  <CHROM.1>
-70.04567722,176.26820458,-68.26180420,167.22156776,-66.64430362,41.72789690
27.20403838,12.20233064,-2.51067852,-0.26894090,2.82903988

>  <Name>
ligand

>  <RI>
0

>  <Rbt.Current_Directory>
/home/itssahil/PROJECTS/Mol_Feturizer/New_Systems/rnas/1YLS

>  <Rbt.Executable>
rbdock ($Id: //depot/dev/client3/rdock/2013.1/src/exe/rbdock.cxx#4 $)

>  <Rbt.Library>
libRbt.so (2013.1, Build901 2013/11/27)

>  <Rbt.Parameter_File>
/export/apps/rDock/src/rDock_2013.1_src/data/scripts/dock_solv.prm

>  <Rbt.Receptor>
prm/blind_docking_80.prm

>  <SCORE>
-16.6631

>  <SCORE.INTER>
-13.7964

>  <SCORE.INTER.CONST>
1

>  <SCORE.INTER.POLAR>
0

>  <SCORE.INTER.ROT>
5

>  <SCORE.INTER.SOLV>
12.0114

>  <SCORE.INTER.VDW>
-20.1347

>  <SCORE.INTER.norm>
-0.492728

>  <SCORE.INTRA>
-2.8667

>  <SCORE.INTRA.DIHEDRAL>
-8.21178

>  <SCORE.INTRA.DIHEDRAL.0>
12.0148

>  <SCORE.INTRA.POLAR>
0

>  <SCORE.INTRA.POLAR.0>
0

>  <SCORE.INTRA.REPUL>
0

>  <SCORE.INTRA.REPUL.0>
0

>  <SCORE.INTRA.SOLV>
0.38288

>  <SCORE.INTRA.SOLV.lig_0>
-10.5235

>  <SCORE.INTRA.VDW>
1.04775

>  <SCORE.INTRA.VDW.0>
-1.38455

>  <SCORE.INTRA.norm>
-0.102382

>  <SCORE.RESTR>
0

>  <SCORE.RESTR.CAVITY>
0

>  <SCORE.RESTR.norm>
0

>  <SCORE.SYSTEM>
0

>  <SCORE.SYSTEM.CONST>
0

>  <SCORE.SYSTEM.DIHEDRAL>
0

>  <SCORE.SYSTEM.SOLV>
0

>  <SCORE.SYSTEM.norm>
0

>  <SCORE.heavy>
28

>  <SCORE.norm>
-0.59511

>  <RMSD>
15.073

$$$$
ligand
 OpenBabel11021811413D
libRbt.so/2013.1/901 2013/11/27
 28 32  0  0  0  0  0  0  0  0999 V2000
   37.3644   32.0317   11.1916 C   0  0  0  0  0  0  0  0  0  0  0  0
   38.3718   30.9406   11.4956 C   0  0  0  0  0  0  0  0  0  0  0  0
   38.0277   30.2006   12.7797 C   0  0  0  0  0  0  0  0  0  0  0  0
   42.4319   23.2594   13.0745 O   0  0  0  0  0  0  0  0  0  0  0  0
   42.3653   24.5218   13.7401 C   0  0  0  0  0  0  0  0  0  0  0  0
   42.7431   29.3747   12.9531 C   0  0  0  0  0  0  0  0  0  0  0  0
   42.3758   29.6435   14.2654 C   0  0  0  0  0  0  0  0  0  0  0  0
   42.0683   28.5866   15.1260 C   0  0  0  0  0  0  0  0  0  0  0  0
   42.1302   27.2660   14.6796 C   0  0  0  0  0  0  0  0  0  0  0  0
   42.5996   25.6741   12.7547 C   0  0  1  0  0  0  0  0  0  0  0  0
   42.5233   27.0244   13.3841 C   0  0  0  0  0  0  0  0  0  0  0  0
   42.8214   28.0653   12.5414 C   0  0  0  0  0  0  0  0  0  0  0  0
   43.1497   27.6816   11.1816 C   0  0  1  0  0  0  0  0  0  0  0  0
   45.3643   26.7628   10.5165 C   0  0  0  0  0  0  0  0  0  0  0  0
   44.2039   26.6849   11.2486 C   0  0  0  0  0  0  0  0  0  0  0  0
   43.9424   25.6220   12.0709 C   0  0  0  0  0  0  0  0  0  0  0  0
   44.8609   24.5881   12.1780 C   0  0  0  0  0  0  0  0  0  0  0  0
   46.0540   24.6630   11.4562 C   0  0  0  0  0  0  0  0  0  0  0  0
   46.3034   25.7510   10.6300 C   0  0  0  0  0  0  0  0  0  0  0  0
   38.9569   29.0101   12.9783 C   0  0  0  0  0  0  0  0  0  0  0  0
   38.5936   27.8842   12.0174 C   0  0  0  0  0  0  0  0  0  0  0  0
   39.5746   25.4639   12.8279 O   0  0  0  0  0  0  0  0  0  0  0  0
   40.5905   28.8554   10.2687 O   0  0  0  0  0  0  0  0  0  0  0  0
   40.6940   27.7745   10.8244 C   0  0  0  0  0  0  0  0  0  0  0  0
   39.8409   27.2526   11.6171 N   0  0  0  0  0  0  0  0  0  0  0  0
   40.2201   26.1388   12.0683 C   0  0  0  0  0  0  0  0  0  0  0  0
   41.5822   25.7533   11.6056 C   0  0  1  0  0  0  0  0  0  0  0  0
   41.9155   26.9361   10.6927 C   0  0  2  0  0  0  0  0  0  0  0  0
  1  2  1  0  0  0  0
  2  3  1  0  0  0  0
  3 20  1  0  0  0  0
  4  5  1  0  0  0  0
  6  7  2  0  0  0  0
  6 12  1  0  0  0  0
  7  8  1  0  0  0  0
  8  9  2  0  0  0  0
  9 11  1  0  0  0  0
 10  5  1  1  0  0  0
 10 11  1  0  0  0  0
 10 16  1  0  0  0  0
 10 27  1  0  0  0  0
 11 12  2  0  0  0  0
 13 12  1  1  0  0  0
 13 15  1  0  0  0  0
 13 28  1  0  0  0  0
 14 15  2  0  0  0  0
 14 19  1  0  0  0  0
 15 16  1  0  0  0  0
 16 17  2  0  0  0  0
 17 18  1  0  0  0  0
 18 19  2  0  0  0  0
 20 21  1  0  0  0  0
 21 25  1  0  0  0  0
 22 26  2  0  0  0  0
 23 24  2  0  0  0  0
 24 25  1  0  0  0  0
 25 26  1  0  0  0  0
 27 26  1  1  0  0  0
 27 28  1  0  0  0  0
 28 24  1  1  0  0  0
M  END
>  <CHROM.1>
173.44002010,179.15853662,-73.97698587,143.99792460,-72.72414736,41.69746761
27.28844975,12.20492788,-2.49813864,-0.27166429,2.80528303

>  <Name>
ligand

>  <RI>
0

>  <Rbt.Current_Directory>
/home/itssahil/PROJECTS/Mol_Feturizer/New_Systems/rnas/1YLS

>  <Rbt.Executable>
rbdock ($Id: //depot/dev/client3/rdock/2013.1/src/exe/rbdock.cxx#4 $)

>  <Rbt.Library>
libRbt.so (2013.1, Build901 2013/11/27)

>  <Rbt.Parameter_File>
/export/apps/rDock/src/rDock_2013.1_src/data/scripts/dock_solv.prm

>  <Rbt.Receptor>
prm/blind_docking_100.prm

>  <SCORE>
-16.4084

>  <SCORE.INTER>
-13.7967

>  <SCORE.INTER.CONST>
1

>  <SCORE.INTER.POLAR>
0

>  <SCORE.INTER.ROT>
5

>  <SCORE.INTER.SOLV>
11.9581

>  <SCORE.INTER.VDW>
-20.1172

>  <SCORE.INTER.norm>
-0.492739

>  <SCORE.INTRA>
-2.74301

>  <SCORE.INTRA.DIHEDRAL>
-4.91037

>  <SCORE.INTRA.DIHEDRAL.0>
12.0148

>  <SCORE.INTRA.POLAR>
0

>  <SCORE.INTRA.POLAR.0>
0

>  <SCORE.INTRA.REPUL>
0

>  <SCORE.INTRA.REPUL.0>
0

>  <SCORE.INTRA.SOLV>
0.431997

>  <SCORE.INTRA.SOLV.lig_0>
-10.5235

>  <SCORE.INTRA.VDW>
-0.503828

>  <SCORE.INTRA.VDW.0>
-1.38455

>  <SCORE.INTRA.norm>
-0.0979648

>  <SCORE.RESTR>
0.131307

>  <SCORE.RESTR.CAVITY>
0.131307

>  <SCORE.RESTR.norm>
0.00468953

>  <SCORE.SYSTEM>
0

>  <SCORE.SYSTEM.CONST>
0

>  <SCORE.SYSTEM.DIHEDRAL>
0

>  <SCORE.SYSTEM.SOLV>
0

>  <SCORE.SYSTEM.norm>
0

>  <SCORE.heavy>
28

>  <SCORE.norm>
-0.586014

>  <RMSD>
15.084

$$$$
ligand
 OpenBabel11021811413D
libRbt.so/2013.1/901 2013/11/27
 28 32  0  0  0  0  0  0  0  0999 V2000
   37.2891   32.0454   11.2096 C   0  0  0  0  0  0  0  0  0  0  0  0
   38.3091   30.9580   11.4834 C   0  0  0  0  0  0  0  0  0  0  0  0
   37.9929   30.2013   12.7649 C   0  0  0  0  0  0  0  0  0  0  0  0
   42.3172   23.2451   13.0406 O   0  0  0  0  0  0  0  0  0  0  0  0
   42.3253   24.5044   13.7151 C   0  0  0  0  0  0  0  0  0  0  0  0
   42.7320   29.3537   12.9201 C   0  0  0  0  0  0  0  0  0  0  0  0
   42.3705   29.6266   14.2332 C   0  0  0  0  0  0  0  0  0  0  0  0
   42.0588   28.5730   15.0962 C   0  0  0  0  0  0  0  0  0  0  0  0
   42.1108   27.2514   14.6515 C   0  0  0  0  0  0  0  0  0  0  0  0
   42.5640   25.6538   12.7274 C   0  0  1  0  0  0  0  0  0  0  0  0
   42.4983   27.0055   13.3551 C   0  0  0  0  0  0  0  0  0  0  0  0
   42.8005   28.0433   12.5101 C   0  0  0  0  0  0  0  0  0  0  0  0
   43.1221   27.6556   11.1498 C   0  0  1  0  0  0  0  0  0  0  0  0
   45.3288   26.7216   10.4792 C   0  0  0  0  0  0  0  0  0  0  0  0
   44.1701   26.6522   11.2149 C   0  0  0  0  0  0  0  0  0  0  0  0
   43.9043   25.5921   12.0396 C   0  0  0  0  0  0  0  0  0  0  0  0
   44.8164   24.5525   12.1453 C   0  0  0  0  0  0  0  0  0  0  0  0
   46.0078   24.6187   11.4197 C   0  0  0  0  0  0  0  0  0  0  0  0
   46.2616   25.7039   10.5912 C   0  0  0  0  0  0  0  0  0  0  0  0
   38.9450   29.0256   12.9426 C   0  0  0  0  0  0  0  0  0  0  0  0
   38.5700   27.8888   11.9993 C   0  0  0  0  0  0  0  0  0  0  0  0
   39.5379   25.4633   12.8102 O   0  0  0  0  0  0  0  0  0  0  0  0
   40.5678   28.8447   10.2431 O   0  0  0  0  0  0  0  0  0  0  0  0
   40.6660   27.7638   10.8000 C   0  0  0  0  0  0  0  0  0  0  0  0
   39.8120   27.2486   11.5960 N   0  0  0  0  0  0  0  0  0  0  0  0
   40.1854   26.1329   12.0476 C   0  0  0  0  0  0  0  0  0  0  0  0
   41.5436   25.7380   11.5813 C   0  0  1  0  0  0  0  0  0  0  0  0
   41.8816   26.9175   10.6658 C   0  0  2  0  0  0  0  0  0  0  0  0
  1  2  1  0  0  0  0
  2  3  1  0  0  0  0
  3 20  1  0  0  0  0
  4  5  1  0  0  0  0
  6  7  2  0  0  0  0
  6 12  1  0  0  0  0
  7  8  1  0  0  0  0
  8  9  2  0  0  0  0
  9 11  1  0  0  0  0
 10  5  1  1  0  0  0
 10 11  1  0  0  0  0
 10 16  1  0  0  0  0
 10 27  1  0  0  0  0
 11 12  2  0  0  0  0
 13 12  1  1  0  0  0
 13 15  1  0  0  0  0
 13 28  1  0  0  0  0
 14 15  2  0  0  0  0
 14 19  1  0  0  0  0
 15 16  1  0  0  0  0
 16 17  2  0  0  0  0
 17 18  1  0  0  0  0
 18 19  2  0  0  0  0
 20 21  1  0  0  0  0
 21 25  1  0  0  0  0
 22 26  2  0  0  0  0
 23 24  2  0  0  0  0
 24 25  1  0  0  0  0
 25 26  1  0  0  0  0
 27 26  1  1  0  0  0
 27 28  1  0  0  0  0
 28 24  1  1  0  0  0
M  END
>  <CHROM.1>
174.16461953,176.34835048,-75.30736818,145.59990717,-71.97096066,41.66140691
27.27412234,12.17921307,-2.49401585,-0.27089788,2.81383377

>  <Name>
ligand

>  <RI>
0

>  <Rbt.Current_Directory>
/home/itssahil/PROJECTS/Mol_Feturizer/New_Systems/rnas/1YLS

>  <Rbt.Executable>
rbdock ($Id: //depot/dev/client3/rdock/2013.1/src/exe/rbdock.cxx#4 $)

>  <Rbt.Library>
libRbt.so (2013.1, Build901 2013/11/27)

>  <Rbt.Parameter_File>
/export/apps/rDock/src/rDock_2013.1_src/data/scripts/dock_solv.prm

>  <Rbt.Receptor>
prm/blind_docking_80.prm

>  <SCORE>
-16.5224

>  <SCORE.INTER>
-13.7358

>  <SCORE.INTER.CONST>
1

>  <SCORE.INTER.POLAR>
0

>  <SCORE.INTER.ROT>
5

>  <SCORE.INTER.SOLV>
12.0575

>  <SCORE.INTER.VDW>
-20.1097

>  <SCORE.INTER.norm>
-0.490564

>  <SCORE.INTRA>
-2.78663

>  <SCORE.INTRA.DIHEDRAL>
-4.99637

>  <SCORE.INTRA.DIHEDRAL.0>
12.0148

>  <SCORE.INTRA.POLAR>
0

>  <SCORE.INTRA.POLAR.0>
0

>  <SCORE.INTRA.REPUL>
0

>  <SCORE.INTRA.REPUL.0>
0

>  <SCORE.INTRA.SOLV>
0.432478

>  <SCORE.INTRA.SOLV.lig_0>
-10.5235

>  <SCORE.INTRA.VDW>
-0.504678

>  <SCORE.INTRA.VDW.0>
-1.38455

>  <SCORE.INTRA.norm>
-0.0995223

>  <SCORE.RESTR>
0

>  <SCORE.RESTR.CAVITY>
0

>  <SCORE.RESTR.norm>
0

>  <SCORE.SYSTEM>
0

>  <SCORE.SYSTEM.CONST>
0

>  <SCORE.SYSTEM.DIHEDRAL>
0

>  <SCORE.SYSTEM.SOLV>
0

>  <SCORE.SYSTEM.norm>
0

>  <SCORE.heavy>
28

>  <SCORE.norm>
-0.590086

>  <RMSD>
15.098

$$$$
ligand
 OpenBabel11021811413D
libRbt.so/2013.1/901 2013/11/27
 28 32  0  0  0  0  0  0  0  0999 V2000
   44.5776   24.4051   12.2600 C   0  0  0  0  0  0  0  0  0  0  0  0
   44.6216   23.9999   10.7999 C   0  0  0  0  0  0  0  0  0  0  0  0
   45.4833   24.9484    9.9797 C   0  0  0  0  0  0  0  0  0  0  0  0
   43.0840   31.4929   12.1225 O   0  0  0  0  0  0  0  0  0  0  0  0
   41.6685   31.4796   11.9295 C   0  0  0  0  0  0  0  0  0  0  0  0
   41.5092   27.0161   14.0188 C   0  0  0  0  0  0  0  0  0  0  0  0
   42.4731   27.3868   14.9477 C   0  0  0  0  0  0  0  0  0  0  0  0
   43.0267   28.6685   14.8934 C   0  0  0  0  0  0  0  0  0  0  0  0
   42.6176   29.5782   13.9177 C   0  0  0  0  0  0  0  0  0  0  0  0
   41.1316   30.0426   11.9087 C   0  0  1  0  0  0  0  0  0  0  0  0
   41.6419   29.1969   13.0266 C   0  0  0  0  0  0  0  0  0  0  0  0
   41.1032   27.9363   13.0815 C   0  0  0  0  0  0  0  0  0  0  0  0
   40.1387   27.6334   12.0414 C   0  0  1  0  0  0  0  0  0  0  0  0
   37.7827   28.4325   12.0860 C   0  0  0  0  0  0  0  0  0  0  0  0
   39.1338   28.6819   12.0550 C   0  0  0  0  0  0  0  0  0  0  0  0
   39.6285   29.9568   11.9905 C   0  0  0  0  0  0  0  0  0  0  0  0
   38.7573   31.0356   11.9530 C   0  0  0  0  0  0  0  0  0  0  0  0
   37.3819   30.7991   12.0046 C   0  0  0  0  0  0  0  0  0  0  0  0
   36.8989   29.4990   12.0737 C   0  0  0  0  0  0  0  0  0  0  0  0
   44.6772   26.1656    9.5453 C   0  0  0  0  0  0  0  0  0  0  0  0
   44.5498   27.1584   10.6946 C   0  0  0  0  0  0  0  0  0  0  0  0
   43.7975   29.7791   10.4863 O   0  0  0  0  0  0  0  0  0  0  0  0
   42.0900   25.7721   10.8212 O   0  0  0  0  0  0  0  0  0  0  0  0
   42.1380   26.9866   10.7181 C   0  0  0  0  0  0  0  0  0  0  0  0
   43.1983   27.6927   10.6423 N   0  0  0  0  0  0  0  0  0  0  0  0
   42.9519   28.9265   10.5708 C   0  0  0  0  0  0  0  0  0  0  0  0
   41.4978   29.2383   10.6513 C   0  0  1  0  0  0  0  0  0  0  0  0
   40.9113   27.8273   10.7439 C   0  0  2  0  0  0  0  0  0  0  0  0
  1  2  1  0  0  0  0
  2  3  1  0  0  0  0
  3 20  1  0  0  0  0
  4  5  1  0  0  0  0
  6  7  2  0  0  0  0
  6 12  1  0  0  0  0
  7  8  1  0  0  0  0
  8  9  2  0  0  0  0
  9 11  1  0  0  0  0
 10  5  1  1  0  0  0
 10 11  1  0  0  0  0
 10 16  1  0  0  0  0
 10 27  1  0  0  0  0
 11 12  2  0  0  0  0
 13 12  1  1  0  0  0
 13 15  1  0  0  0  0
 13 28  1  0  0  0  0
 14 15  2  0  0  0  0
 14 19  1  0  0  0  0
 15 16  1  0  0  0  0
 16 17  2  0  0  0  0
 17 18  1  0  0  0  0
 18 19  2  0  0  0  0
 20 21  1  0  0  0  0
 21 25  1  0  0  0  0
 22 26  2  0  0  0  0
 23 24  2  0  0  0  0
 24 25  1  0  0  0  0
 25 26  1  0  0  0  0
 27 26  1  1  0  0  0
 27 28  1  0  0  0  0
 28 24  1  1  0  0  0
M  END
>  <CHROM.1>
-84.43697974,47.48190381,78.75263911,-140.74247790,58.62465287,41.86439898
28.22294140,11.78861896,0.70461487,-0.17859863,-3.04822922

>  <Name>
ligand

>  <RI>
0

>  <Rbt.Current_Directory>
/home/itssahil/PROJECTS/Mol_Feturizer/New_Systems/rnas/1YLS

>  <Rbt.Executable>
rbdock ($Id: //depot/dev/client3/rdock/2013.1/src/exe/rbdock.cxx#4 $)

>  <Rbt.Library>
libRbt.so (2013.1, Build901 2013/11/27)

>  <Rbt.Parameter_File>
/export/apps/rDock/src/rDock_2013.1_src/data/scripts/dock_solv.prm

>  <Rbt.Receptor>
prm/blind_docking_80.prm

>  <SCORE>
-12.5755

>  <SCORE.INTER>
-15.0146

>  <SCORE.INTER.CONST>
1

>  <SCORE.INTER.POLAR>
0

>  <SCORE.INTER.ROT>
5

>  <SCORE.INTER.SOLV>
7.21861

>  <SCORE.INTER.VDW>
-19.3492

>  <SCORE.INTER.norm>
-0.536234

>  <SCORE.INTRA>
2.23405

>  <SCORE.INTRA.DIHEDRAL>
-1.52423

>  <SCORE.INTRA.DIHEDRAL.0>
12.0148

>  <SCORE.INTRA.POLAR>
0

>  <SCORE.INTRA.POLAR.0>
0

>  <SCORE.INTRA.REPUL>
0

>  <SCORE.INTRA.REPUL.0>
0

>  <SCORE.INTRA.SOLV>
1.11243

>  <SCORE.INTRA.SOLV.lig_0>
-10.5235

>  <SCORE.INTRA.VDW>
2.43995

>  <SCORE.INTRA.VDW.0>
-1.38455

>  <SCORE.INTRA.norm>
0.0797875

>  <SCORE.RESTR>
0.204992

>  <SCORE.RESTR.CAVITY>
0.204992

>  <SCORE.RESTR.norm>
0.00732113

>  <SCORE.SYSTEM>
0

>  <SCORE.SYSTEM.CONST>
0

>  <SCORE.SYSTEM.DIHEDRAL>
0

>  <SCORE.SYSTEM.SOLV>
0

>  <SCORE.SYSTEM.norm>
0

>  <SCORE.heavy>
28

>  <SCORE.norm>
-0.449125

>  <RMSD>
15.120

$$$$
ligand
 OpenBabel11021811413D
libRbt.so/2013.1/901 2013/11/27
 28 32  0  0  0  0  0  0  0  0999 V2000
   45.5543   21.5073   11.7441 C   0  0  0  0  0  0  0  0  0  0  0  0
   44.3414   22.4147   11.6871 C   0  0  0  0  0  0  0  0  0  0  0  0
   44.6390   23.7034   10.9352 C   0  0  0  0  0  0  0  0  0  0  0  0
   41.6997   30.5030    9.0739 O   0  0  0  0  0  0  0  0  0  0  0  0
   42.2086   30.2969   10.3929 C   0  0  0  0  0  0  0  0  0  0  0  0
   41.0691   28.2741   14.7428 C   0  0  0  0  0  0  0  0  0  0  0  0
   42.3082   28.6268   15.2620 C   0  0  0  0  0  0  0  0  0  0  0  0
   43.2356   29.2830   14.4486 C   0  0  0  0  0  0  0  0  0  0  0  0
   42.9264   29.5890   13.1228 C   0  0  0  0  0  0  0  0  0  0  0  0
   41.2232   29.4808   11.2393 C   0  0  1  0  0  0  0  0  0  0  0  0
   41.6828   29.2541   12.6403 C   0  0  0  0  0  0  0  0  0  0  0  0
   40.7763   28.6071   13.4415 C   0  0  0  0  0  0  0  0  0  0  0  0
   39.5310   28.2434   12.7927 C   0  0  1  0  0  0  0  0  0  0  0  0
   37.6942   29.8631   12.3524 C   0  0  0  0  0  0  0  0  0  0  0  0
   38.9904   29.4420   12.1759 C   0  0  0  0  0  0  0  0  0  0  0  0
   39.8597   30.1132   11.3585 C   0  0  0  0  0  0  0  0  0  0  0  0
   39.4368   31.2482   10.6824 C   0  0  0  0  0  0  0  0  0  0  0  0
   38.1285   31.7003   10.8678 C   0  0  0  0  0  0  0  0  0  0  0  0
   37.2622   31.0083   11.7039 C   0  0  0  0  0  0  0  0  0  0  0  0
   43.3631   24.5080   10.7236 C   0  0  0  0  0  0  0  0  0  0  0  0
   42.9933   25.2648   11.9937 C   0  0  0  0  0  0  0  0  0  0  0  0
   43.1652   27.3687   10.2556 O   0  0  0  0  0  0  0  0  0  0  0  0
   40.3299   25.3967   12.9307 O   0  0  0  0  0  0  0  0  0  0  0  0
   40.7655   26.1966   12.1193 C   0  0  0  0  0  0  0  0  0  0  0  0
   41.9455   26.2067   11.6334 N   0  0  0  0  0  0  0  0  0  0  0  0
   42.1306   27.1649   10.8361 C   0  0  0  0  0  0  0  0  0  0  0  0
   40.9481   28.0623   10.7156 C   0  0  1  0  0  0  0  0  0  0  0  0
   39.9564   27.3478   11.6373 C   0  0  2  0  0  0  0  0  0  0  0  0
  1  2  1  0  0  0  0
  2  3  1  0  0  0  0
  3 20  1  0  0  0  0
  4  5  1  0  0  0  0
  6  7  2  0  0  0  0
  6 12  1  0  0  0  0
  7  8  1  0  0  0  0
  8  9  2  0  0  0  0
  9 11  1  0  0  0  0
 10  5  1  6  0  0  0
 10 11  1  0  0  0  0
 10 16  1  0  0  0  0
 10 27  1  0  0  0  0
 11 12  2  0  0  0  0
 13 12  1  1  0  0  0
 13 15  1  0  0  0  0
 13 28  1  0  0  0  0
 14 15  2  0  0  0  0
 14 19  1  0  0  0  0
 15 16  1  0  0  0  0
 16 17  2  0  0  0  0
 17 18  1  0  0  0  0
 18 19  2  0  0  0  0
 20 21  1  0  0  0  0
 21 25  1  0  0  0  0
 22 26  2  0  0  0  0
 23 24  2  0  0  0  0
 24 25  1  0  0  0  0
 25 26  1  0  0  0  0
 27 26  1  1  0  0  0
 27 28  1  0  0  0  0
 28 24  1  1  0  0  0
M  END
>  <CHROM.1>
172.15256241,-178.78023179,79.35919871,168.52627536,118.26947746,41.46182110
27.74273475,11.84770670,-0.43873434,0.89651067,-1.02568033

>  <Name>
ligand

>  <RI>
0

>  <Rbt.Current_Directory>
/home/itssahil/PROJECTS/Mol_Feturizer/New_Systems/rnas/1YLS

>  <Rbt.Executable>
rbdock ($Id: //depot/dev/client3/rdock/2013.1/src/exe/rbdock.cxx#4 $)

>  <Rbt.Library>
libRbt.so (2013.1, Build901 2013/11/27)

>  <Rbt.Parameter_File>
/export/apps/rDock/src/rDock_2013.1_src/data/scripts/dock_solv.prm

>  <Rbt.Receptor>
prm/blind_docking_80.prm

>  <SCORE>
-14.6521

>  <SCORE.INTER>
-12.8009

>  <SCORE.INTER.CONST>
1

>  <SCORE.INTER.POLAR>
0

>  <SCORE.INTER.ROT>
5

>  <SCORE.INTER.SOLV>
8.51314

>  <SCORE.INTER.VDW>
-18.305

>  <SCORE.INTER.norm>
-0.457174

>  <SCORE.INTRA>
-2.55418

>  <SCORE.INTRA.DIHEDRAL>
-7.45445

>  <SCORE.INTRA.DIHEDRAL.0>
12.0148

>  <SCORE.INTRA.POLAR>
0

>  <SCORE.INTRA.POLAR.0>
0

>  <SCORE.INTRA.REPUL>
0

>  <SCORE.INTRA.REPUL.0>
0

>  <SCORE.INTRA.SOLV>
0.181738

>  <SCORE.INTRA.SOLV.lig_0>
-10.5235

>  <SCORE.INTRA.VDW>
1.08217

>  <SCORE.INTRA.VDW.0>
-1.38455

>  <SCORE.INTRA.norm>
-0.0912209

>  <SCORE.RESTR>
0.702961

>  <SCORE.RESTR.CAVITY>
0.702961

>  <SCORE.RESTR.norm>
0.0251058

>  <SCORE.SYSTEM>
0

>  <SCORE.SYSTEM.CONST>
0

>  <SCORE.SYSTEM.DIHEDRAL>
0

>  <SCORE.SYSTEM.SOLV>
0

>  <SCORE.SYSTEM.norm>
0

>  <SCORE.heavy>
28

>  <SCORE.norm>
-0.523289

>  <RMSD>
15.132

$$$$
ligand
 OpenBabel11021811413D
libRbt.so/2013.1/901 2013/11/27
 28 32  0  0  0  0  0  0  0  0999 V2000
   39.5238   31.4377   10.6743 C   0  0  0  0  0  0  0  0  0  0  0  0
   40.0945   31.0148   12.0135 C   0  0  0  0  0  0  0  0  0  0  0  0
   40.2024   29.5013   12.1252 C   0  0  0  0  0  0  0  0  0  0  0  0
   45.2973   26.3071    9.2530 O   0  0  0  0  0  0  0  0  0  0  0  0
   43.8933   26.2534    9.5121 C   0  0  0  0  0  0  0  0  0  0  0  0
   40.6173   25.3360   13.0811 C   0  0  0  0  0  0  0  0  0  0  0  0
   39.5798   25.8082   12.2874 C   0  0  0  0  0  0  0  0  0  0  0  0
   39.8579   26.3015   11.0101 C   0  0  0  0  0  0  0  0  0  0  0  0
   41.1662   26.3206   10.5253 C   0  0  0  0  0  0  0  0  0  0  0  0
   43.6188   25.8107   10.9551 C   0  0  1  0  0  0  0  0  0  0  0  0
   42.1722   25.8219   11.3193 C   0  0  0  0  0  0  0  0  0  0  0  0
   41.8952   25.3412   12.5742 C   0  0  0  0  0  0  0  0  0  0  0  0
   43.0515   24.9137   13.3386 C   0  0  1  0  0  0  0  0  0  0  0  0
   44.2062   22.7404   12.9717 C   0  0  0  0  0  0  0  0  0  0  0  0
   43.7952   23.9717   12.5206 C   0  0  0  0  0  0  0  0  0  0  0  0
   44.1024   24.4162   11.2627 C   0  0  0  0  0  0  0  0  0  0  0  0
   44.8485   23.6163   10.4096 C   0  0  0  0  0  0  0  0  0  0  0  0
   45.2558   22.3539   10.8464 C   0  0  0  0  0  0  0  0  0  0  0  0
   44.9313   21.9186   12.1246 C   0  0  0  0  0  0  0  0  0  0  0  0
   40.8486   29.1055   13.4465 C   0  0  0  0  0  0  0  0  0  0  0  0
   42.3230   29.4912   13.4555 C   0  0  0  0  0  0  0  0  0  0  0  0
   43.7059   28.8335   11.1900 O   0  0  0  0  0  0  0  0  0  0  0  0
   42.6866   27.2424   15.1287 O   0  0  0  0  0  0  0  0  0  0  0  0
   43.1792   27.2999   14.0142 C   0  0  0  0  0  0  0  0  0  0  0  0
   43.0783   28.2754   13.1978 N   0  0  0  0  0  0  0  0  0  0  0  0
   43.6649   28.0523   12.1050 C   0  0  0  0  0  0  0  0  0  0  0  0
   44.2692   26.6930   12.0323 C   0  0  1  0  0  0  0  0  0  0  0  0
   43.9261   26.1569   13.4246 C   0  0  2  0  0  0  0  0  0  0  0  0
  1  2  1  0  0  0  0
  2  3  1  0  0  0  0
  3 20  1  0  0  0  0
  4  5  1  0  0  0  0
  6  7  2  0  0  0  0
  6 12  1  0  0  0  0
  7  8  1  0  0  0  0
  8  9  2  0  0  0  0
  9 11  1  0  0  0  0
 10  5  1  6  0  0  0
 10 11  1  0  0  0  0
 10 16  1  0  0  0  0
 10 27  1  0  0  0  0
 11 12  2  0  0  0  0
 13 12  1  6  0  0  0
 13 15  1  0  0  0  0
 13 28  1  0  0  0  0
 14 15  2  0  0  0  0
 14 19  1  0  0  0  0
 15 16  1  0  0  0  0
 16 17  2  0  0  0  0
 17 18  1  0  0  0  0
 18 19  2  0  0  0  0
 20 21  1  0  0  0  0
 21 25  1  0  0  0  0
 22 26  2  0  0  0  0
 23 24  2  0  0  0  0
 24 25  1  0  0  0  0
 25 26  1  0  0  0  0
 27 26  1  1  0  0  0
 27 28  1  0  0  0  0
 28 24  1  1  0  0  0
M  END
>  <CHROM.1>
176.88539588,176.12436632,-69.58437861,-101.74103835,-69.39021750,42.69608733
26.59325911,12.02785845,-2.55672505,-0.89232360,2.38534518

>  <Name>
ligand

>  <RI>
0

>  <Rbt.Current_Directory>
/home/itssahil/PROJECTS/Mol_Feturizer/New_Systems/rnas/1YLS

>  <Rbt.Executable>
rbdock ($Id: //depot/dev/client3/rdock/2013.1/src/exe/rbdock.cxx#4 $)

>  <Rbt.Library>
libRbt.so (2013.1, Build901 2013/11/27)

>  <Rbt.Parameter_File>
/export/apps/rDock/src/rDock_2013.1_src/data/scripts/dock_solv.prm

>  <Rbt.Receptor>
prm/blind_docking_100.prm

>  <SCORE>
-5.1449

>  <SCORE.INTER>
-2.31367

>  <SCORE.INTER.CONST>
1

>  <SCORE.INTER.POLAR>
0

>  <SCORE.INTER.ROT>
5

>  <SCORE.INTER.SOLV>
10.5555

>  <SCORE.INTER.VDW>
-11.9943

>  <SCORE.INTER.norm>
-0.0826309

>  <SCORE.INTRA>
-2.83124

>  <SCORE.INTRA.DIHEDRAL>
-4.7056

>  <SCORE.INTRA.DIHEDRAL.0>
12.0148

>  <SCORE.INTRA.POLAR>
0

>  <SCORE.INTRA.POLAR.0>
0

>  <SCORE.INTRA.REPUL>
0

>  <SCORE.INTRA.REPUL.0>
0

>  <SCORE.INTRA.SOLV>
0.379013

>  <SCORE.INTRA.SOLV.lig_0>
-10.5235

>  <SCORE.INTRA.VDW>
-0.667945

>  <SCORE.INTRA.VDW.0>
-1.38455

>  <SCORE.INTRA.norm>
-0.101116

>  <SCORE.RESTR>
0

>  <SCORE.RESTR.CAVITY>
0

>  <SCORE.RESTR.norm>
0

>  <SCORE.SYSTEM>
0

>  <SCORE.SYSTEM.CONST>
0

>  <SCORE.SYSTEM.DIHEDRAL>
0

>  <SCORE.SYSTEM.SOLV>
0

>  <SCORE.SYSTEM.norm>
0

>  <SCORE.heavy>
28

>  <SCORE.norm>
-0.183747

>  <RMSD>
15.133

$$$$
ligand
 OpenBabel11021811413D
libRbt.so/2013.1/901 2013/11/27
 28 32  0  0  0  0  0  0  0  0999 V2000
   37.8843   31.2044   11.6487 C   0  0  0  0  0  0  0  0  0  0  0  0
   38.6749   30.1313   12.3707 C   0  0  0  0  0  0  0  0  0  0  0  0
   40.1307   30.5336   12.5536 C   0  0  0  0  0  0  0  0  0  0  0  0
   45.3456   25.9921    9.2389 O   0  0  0  0  0  0  0  0  0  0  0  0
   43.9416   26.1253    9.4673 C   0  0  0  0  0  0  0  0  0  0  0  0
   40.4904   25.6335   12.9544 C   0  0  0  0  0  0  0  0  0  0  0  0
   39.5118   26.1089   12.0910 C   0  0  0  0  0  0  0  0  0  0  0  0
   39.8643   26.4993   10.7965 C   0  0  0  0  0  0  0  0  0  0  0  0
   41.1881   26.4126   10.3642 C   0  0  0  0  0  0  0  0  0  0  0  0
   43.5896   25.7963   10.9238 C   0  0  1  0  0  0  0  0  0  0  0  0
   42.1339   25.9127   11.2285 C   0  0  0  0  0  0  0  0  0  0  0  0
   41.7840   25.5334   12.4997 C   0  0  0  0  0  0  0  0  0  0  0  0
   42.8848   25.0939   13.3358 C   0  0  1  0  0  0  0  0  0  0  0  0
   43.9231   22.8398   13.1569 C   0  0  0  0  0  0  0  0  0  0  0  0
   43.6013   24.0592   12.6110 C   0  0  0  0  0  0  0  0  0  0  0  0
   43.9794   24.4006   11.3402 C   0  0  0  0  0  0  0  0  0  0  0  0
   44.7078   23.5049   10.5713 C   0  0  0  0  0  0  0  0  0  0  0  0
   45.0245   22.2538   11.1048 C   0  0  0  0  0  0  0  0  0  0  0  0
   44.6291   21.9239   12.3945 C   0  0  0  0  0  0  0  0  0  0  0  0
   40.9300   29.3915   13.1674 C   0  0  0  0  0  0  0  0  0  0  0  0
   42.4215   29.7026   13.1269 C   0  0  0  0  0  0  0  0  0  0  0  0
   43.8447   28.8184   10.9659 O   0  0  0  0  0  0  0  0  0  0  0  0
   42.5921   27.5540   14.9554 O   0  0  0  0  0  0  0  0  0  0  0  0
   43.1272   27.5091   13.8601 C   0  0  0  0  0  0  0  0  0  0  0  0
   43.1132   28.4320   12.9789 N   0  0  0  0  0  0  0  0  0  0  0  0
   43.7250   28.1038   11.9271 C   0  0  0  0  0  0  0  0  0  0  0  0
   44.2510   26.7110   11.9668 C   0  0  1  0  0  0  0  0  0  0  0  0
   43.8270   26.2892   13.3761 C   0  0  2  0  0  0  0  0  0  0  0  0
  1  2  1  0  0  0  0
  2  3  1  0  0  0  0
  3 20  1  0  0  0  0
  4  5  1  0  0  0  0
  6  7  2  0  0  0  0
  6 12  1  0  0  0  0
  7  8  1  0  0  0  0
  8  9  2  0  0  0  0
  9 11  1  0  0  0  0
 10  5  1  6  0  0  0
 10 11  1  0  0  0  0
 10 16  1  0  0  0  0
 10 27  1  0  0  0  0
 11 12  2  0  0  0  0
 13 12  1  6  0  0  0
 13 15  1  0  0  0  0
 13 28  1  0  0  0  0
 14 15  2  0  0  0  0
 14 19  1  0  0  0  0
 15 16  1  0  0  0  0
 16 17  2  0  0  0  0
 17 18  1  0  0  0  0
 18 19  2  0  0  0  0
 20 21  1  0  0  0  0
 21 25  1  0  0  0  0
 22 26  2  0  0  0  0
 23 24  2  0  0  0  0
 24 25  1  0  0  0  0
 25 26  1  0  0  0  0
 27 26  1  6  0  0  0
 27 28  1  0  0  0  0
 28 24  1  6  0  0  0
M  END
>  <CHROM.1>
-174.92806377,-179.83460865,170.18904615,-148.23866309,-66.09216657,42.52291479
26.66575916,12.03644914,2.32168254,0.52398737,-0.28115258

>  <Name>
ligand

>  <RI>
0

>  <Rbt.Current_Directory>
/home/itssahil/PROJECTS/Mol_Feturizer/New_Systems/rnas/1YLS

>  <Rbt.Executable>
rbdock ($Id: //depot/dev/client3/rdock/2013.1/src/exe/rbdock.cxx#4 $)

>  <Rbt.Library>
libRbt.so (2013.1, Build901 2013/11/27)

>  <Rbt.Parameter_File>
/export/apps/rDock/src/rDock_2013.1_src/data/scripts/dock_solv.prm

>  <Rbt.Receptor>
prm/blind_docking_100.prm

>  <SCORE>
-8.12291

>  <SCORE.INTER>
-4.50804

>  <SCORE.INTER.CONST>
1

>  <SCORE.INTER.POLAR>
0

>  <SCORE.INTER.ROT>
5

>  <SCORE.INTER.SOLV>
11.6135

>  <SCORE.INTER.VDW>
-13.8099

>  <SCORE.INTER.norm>
-0.161001

>  <SCORE.INTRA>
-3.61488

>  <SCORE.INTRA.DIHEDRAL>
-6.02241

>  <SCORE.INTRA.DIHEDRAL.0>
12.0148

>  <SCORE.INTRA.POLAR>
0

>  <SCORE.INTRA.POLAR.0>
0

>  <SCORE.INTRA.REPUL>
0

>  <SCORE.INTRA.REPUL.0>
0

>  <SCORE.INTRA.SOLV>
0.171133

>  <SCORE.INTRA.SOLV.lig_0>
-10.5235

>  <SCORE.INTRA.VDW>
-0.689238

>  <SCORE.INTRA.VDW.0>
-1.38455

>  <SCORE.INTRA.norm>
-0.129103

>  <SCORE.RESTR>
0

>  <SCORE.RESTR.CAVITY>
0

>  <SCORE.RESTR.norm>
0

>  <SCORE.SYSTEM>
0

>  <SCORE.SYSTEM.CONST>
0

>  <SCORE.SYSTEM.DIHEDRAL>
0

>  <SCORE.SYSTEM.SOLV>
0

>  <SCORE.SYSTEM.norm>
0

>  <SCORE.heavy>
28

>  <SCORE.norm>
-0.290104

>  <RMSD>
15.155

$$$$
ligand
 OpenBabel11021811413D
libRbt.so/2013.1/901 2013/11/27
 28 32  0  0  0  0  0  0  0  0999 V2000
   46.6539   22.8438   11.1560 C   0  0  0  0  0  0  0  0  0  0  0  0
   45.1545   22.7308   11.3479 C   0  0  0  0  0  0  0  0  0  0  0  0
   44.6745   23.5659   12.5256 C   0  0  0  0  0  0  0  0  0  0  0  0
   38.7472   27.5234   11.1229 O   0  0  0  0  0  0  0  0  0  0  0  0
   39.9406   26.9391   10.5982 C   0  0  0  0  0  0  0  0  0  0  0  0
   44.8301   26.8193   11.2237 C   0  0  0  0  0  0  0  0  0  0  0  0
   44.9536   25.8101   10.2773 C   0  0  0  0  0  0  0  0  0  0  0  0
   43.8094   25.3028    9.6563 C   0  0  0  0  0  0  0  0  0  0  0  0
   42.5466   25.8030    9.9763 C   0  0  0  0  0  0  0  0  0  0  0  0
   41.1747   27.4295   11.3664 C   0  0  1  0  0  0  0  0  0  0  0  0
   42.4530   26.8212   10.8960 C   0  0  0  0  0  0  0  0  0  0  0  0
   43.5789   27.3143   11.5057 C   0  0  0  0  0  0  0  0  0  0  0  0
   43.3389   28.3335   12.5095 C   0  0  1  0  0  0  0  0  0  0  0  0
   42.8341   30.7062   11.9562 C   0  0  0  0  0  0  0  0  0  0  0  0
   42.5238   29.3687   11.8986 C   0  0  0  0  0  0  0  0  0  0  0  0
   41.3835   28.9206   11.2877 C   0  0  0  0  0  0  0  0  0  0  0  0
   40.5073   29.8268   10.7086 C   0  0  0  0  0  0  0  0  0  0  0  0
   40.8193   31.1876   10.7409 C   0  0  0  0  0  0  0  0  0  0  0  0
   41.9826   31.6230   11.3620 C   0  0  0  0  0  0  0  0  0  0  0  0
   43.1787   23.3776   12.7426 C   0  0  0  0  0  0  0  0  0  0  0  0
   42.7485   24.0050   14.0633 C   0  0  0  0  0  0  0  0  0  0  0  0
   40.4733   24.8534   12.8059 O   0  0  0  0  0  0  0  0  0  0  0  0
   44.1373   26.4056   14.6087 O   0  0  0  0  0  0  0  0  0  0  0  0
   43.0549   26.4036   14.0463 C   0  0  0  0  0  0  0  0  0  0  0  0
   42.3535   25.3737   13.7708 N   0  0  0  0  0  0  0  0  0  0  0  0
   41.2898   25.6639   13.1605 C   0  0  0  0  0  0  0  0  0  0  0  0
   41.1595   27.1191   12.8715 C   0  0  1  0  0  0  0  0  0  0  0  0
   42.4353   27.6525   13.5283 C   0  0  2  0  0  0  0  0  0  0  0  0
  1  2  1  0  0  0  0
  2  3  1  0  0  0  0
  3 20  1  0  0  0  0
  4  5  1  0  0  0  0
  6  7  2  0  0  0  0
  6 12  1  0  0  0  0
  7  8  1  0  0  0  0
  8  9  2  0  0  0  0
  9 11  1  0  0  0  0
 10  5  1  6  0  0  0
 10 11  1  0  0  0  0
 10 16  1  0  0  0  0
 10 27  1  0  0  0  0
 11 12  2  0  0  0  0
 13 12  1  6  0  0  0
 13 15  1  0  0  0  0
 13 28  1  0  0  0  0
 14 15  2  0  0  0  0
 14 19  1  0  0  0  0
 15 16  1  0  0  0  0
 16 17  2  0  0  0  0
 17 18  1  0  0  0  0
 18 19  2  0  0  0  0
 20 21  1  0  0  0  0
 21 25  1  0  0  0  0
 22 26  2  0  0  0  0
 23 24  2  0  0  0  0
 24 25  1  0  0  0  0
 25 26  1  0  0  0  0
 27 26  1  6  0  0  0
 27 28  1  0  0  0  0
 28 24  1  6  0  0  0
M  END
>  <CHROM.1>
-176.99596323,178.11306229,169.66126677,91.30251662,-104.68254051,42.59414793
26.65362292,11.97039804,-1.01799892,0.29737587,-0.31645360

>  <Name>
ligand

>  <RI>
0

>  <Rbt.Current_Directory>
/home/itssahil/PROJECTS/Mol_Feturizer/New_Systems/rnas/1YLS

>  <Rbt.Executable>
rbdock ($Id: //depot/dev/client3/rdock/2013.1/src/exe/rbdock.cxx#4 $)

>  <Rbt.Library>
libRbt.so (2013.1, Build901 2013/11/27)

>  <Rbt.Parameter_File>
/export/apps/rDock/src/rDock_2013.1_src/data/scripts/dock_solv.prm

>  <Rbt.Receptor>
prm/blind_docking_60.prm

>  <SCORE>
-16.55

>  <SCORE.INTER>
-11.995

>  <SCORE.INTER.CONST>
1

>  <SCORE.INTER.POLAR>
0

>  <SCORE.INTER.ROT>
5

>  <SCORE.INTER.SOLV>
9.33093

>  <SCORE.INTER.VDW>
-18.0403

>  <SCORE.INTER.norm>
-0.428392

>  <SCORE.INTRA>
-4.55498

>  <SCORE.INTRA.DIHEDRAL>
-6.06006

>  <SCORE.INTRA.DIHEDRAL.0>
12.0148

>  <SCORE.INTRA.POLAR>
0

>  <SCORE.INTRA.POLAR.0>
0

>  <SCORE.INTRA.REPUL>
0

>  <SCORE.INTRA.REPUL.0>
0

>  <SCORE.INTRA.SOLV>
0.339183

>  <SCORE.INTRA.SOLV.lig_0>
-10.5235

>  <SCORE.INTRA.VDW>
-1.69454

>  <SCORE.INTRA.VDW.0>
-1.38455

>  <SCORE.INTRA.norm>
-0.162678

>  <SCORE.RESTR>
0

>  <SCORE.RESTR.CAVITY>
0

>  <SCORE.RESTR.norm>
0

>  <SCORE.SYSTEM>
0

>  <SCORE.SYSTEM.CONST>
0

>  <SCORE.SYSTEM.DIHEDRAL>
0

>  <SCORE.SYSTEM.SOLV>
0

>  <SCORE.SYSTEM.norm>
0

>  <SCORE.heavy>
28

>  <SCORE.norm>
-0.59107

>  <RMSD>
15.163

$$$$
ligand
 OpenBabel11021811413D
libRbt.so/2013.1/901 2013/11/27
 28 32  0  0  0  0  0  0  0  0999 V2000
   37.2771   32.1947   11.0822 C   0  0  0  0  0  0  0  0  0  0  0  0
   38.3198   31.3746   11.8157 C   0  0  0  0  0  0  0  0  0  0  0  0
   37.8274   29.9630   12.0979 C   0  0  0  0  0  0  0  0  0  0  0  0
   42.7599   23.2035   13.1878 O   0  0  0  0  0  0  0  0  0  0  0  0
   42.6847   24.4849   13.8150 C   0  0  0  0  0  0  0  0  0  0  0  0
   42.8042   29.3182   12.8468 C   0  0  0  0  0  0  0  0  0  0  0  0
   42.4848   29.6176   14.1650 C   0  0  0  0  0  0  0  0  0  0  0  0
   42.2651   28.5799   15.0744 C   0  0  0  0  0  0  0  0  0  0  0  0
   42.3671   27.2481   14.6707 C   0  0  0  0  0  0  0  0  0  0  0  0
   42.8213   25.6101   12.7812 C   0  0  1  0  0  0  0  0  0  0  0  0
   42.7118   26.9776   13.3672 C   0  0  0  0  0  0  0  0  0  0  0  0
   42.9236   27.9996   12.4766 C   0  0  0  0  0  0  0  0  0  0  0  0
   43.2073   27.5820   11.1168 C   0  0  1  0  0  0  0  0  0  0  0  0
   45.4293   26.7384   10.3804 C   0  0  0  0  0  0  0  0  0  0  0  0
   44.3080   26.6358   11.1682 C   0  0  0  0  0  0  0  0  0  0  0  0
   44.1328   25.5927   12.0375 C   0  0  0  0  0  0  0  0  0  0  0  0
   45.1015   24.6049   12.1366 C   0  0  0  0  0  0  0  0  0  0  0  0
   46.2561   24.7063   11.3576 C   0  0  0  0  0  0  0  0  0  0  0  0
   46.4179   25.7738   10.4841 C   0  0  0  0  0  0  0  0  0  0  0  0
   38.9843   29.0649   12.5165 C   0  0  0  0  0  0  0  0  0  0  0  0
   38.6891   27.6133   12.1574 C   0  0  0  0  0  0  0  0  0  0  0  0
   39.8155   25.2695   13.0029 O   0  0  0  0  0  0  0  0  0  0  0  0
   40.5584   28.6081   10.2852 O   0  0  0  0  0  0  0  0  0  0  0  0
   40.7363   27.5535   10.8719 C   0  0  0  0  0  0  0  0  0  0  0  0
   39.9446   27.0234   11.7209 N   0  0  0  0  0  0  0  0  0  0  0  0
   40.3944   25.9443   12.1914 C   0  0  0  0  0  0  0  0  0  0  0  0
   41.7504   25.6029   11.6788 C   0  0  1  0  0  0  0  0  0  0  0  0
   41.9876   26.7657   10.7118 C   0  0  2  0  0  0  0  0  0  0  0  0
  1  2  1  0  0  0  0
  2  3  1  0  0  0  0
  3 20  1  0  0  0  0
  4  5  1  0  0  0  0
  6  7  2  0  0  0  0
  6 12  1  0  0  0  0
  7  8  1  0  0  0  0
  8  9  2  0  0  0  0
  9 11  1  0  0  0  0
 10  5  1  1  0  0  0
 10 11  1  0  0  0  0
 10 16  1  0  0  0  0
 10 27  1  0  0  0  0
 11 12  2  0  0  0  0
 13 12  1  1  0  0  0
 13 15  1  0  0  0  0
 13 28  1  0  0  0  0
 14 15  2  0  0  0  0
 14 19  1  0  0  0  0
 15 16  1  0  0  0  0
 16 17  2  0  0  0  0
 17 18  1  0  0  0  0
 18 19  2  0  0  0  0
 20 21  1  0  0  0  0
 21 25  1  0  0  0  0
 22 26  2  0  0  0  0
 23 24  2  0  0  0  0
 24 25  1  0  0  0  0
 25 26  1  0  0  0  0
 27 26  1  1  0  0  0
 27 28  1  0  0  0  0
 28 24  1  1  0  0  0
M  END
>  <CHROM.1>
166.10912770,178.33915556,-152.73853603,142.46252817,-48.42089219,41.81289236
27.22397369,12.17285339,-2.49630488,-0.25790613,2.79269275

>  <Name>
ligand

>  <RI>
0

>  <Rbt.Current_Directory>
/home/itssahil/PROJECTS/Mol_Feturizer/New_Systems/rnas/1YLS

>  <Rbt.Executable>
rbdock ($Id: //depot/dev/client3/rdock/2013.1/src/exe/rbdock.cxx#4 $)

>  <Rbt.Library>
libRbt.so (2013.1, Build901 2013/11/27)

>  <Rbt.Parameter_File>
/export/apps/rDock/src/rDock_2013.1_src/data/scripts/dock_solv.prm

>  <Rbt.Receptor>
prm/blind_docking_80.prm

>  <SCORE>
-14.0982

>  <SCORE.INTER>
-13.7512

>  <SCORE.INTER.CONST>
1

>  <SCORE.INTER.POLAR>
0

>  <SCORE.INTER.ROT>
5

>  <SCORE.INTER.SOLV>
11.7709

>  <SCORE.INTER.VDW>
-20.0244

>  <SCORE.INTER.norm>
-0.491113

>  <SCORE.INTRA>
-0.348514

>  <SCORE.INTRA.DIHEDRAL>
-2.48716

>  <SCORE.INTRA.DIHEDRAL.0>
12.0148

>  <SCORE.INTRA.POLAR>
0

>  <SCORE.INTRA.POLAR.0>
0

>  <SCORE.INTRA.REPUL>
0

>  <SCORE.INTRA.REPUL.0>
0

>  <SCORE.INTRA.SOLV>
0.349768

>  <SCORE.INTRA.SOLV.lig_0>
-10.5235

>  <SCORE.INTRA.VDW>
0.720182

>  <SCORE.INTRA.VDW.0>
-1.38455

>  <SCORE.INTRA.norm>
-0.0124469

>  <SCORE.RESTR>
0.00146903

>  <SCORE.RESTR.CAVITY>
0.00146903

>  <SCORE.RESTR.norm>
5.24655e-05

>  <SCORE.SYSTEM>
0

>  <SCORE.SYSTEM.CONST>
0

>  <SCORE.SYSTEM.DIHEDRAL>
0

>  <SCORE.SYSTEM.SOLV>
0

>  <SCORE.SYSTEM.norm>
0

>  <SCORE.heavy>
28

>  <SCORE.norm>
-0.503507

>  <RMSD>
15.164

$$$$
ligand
 OpenBabel11021811413D
libRbt.so/2013.1/901 2013/11/27
 28 32  0  0  0  0  0  0  0  0999 V2000
   37.6327   31.3155   11.7070 C   0  0  0  0  0  0  0  0  0  0  0  0
   38.9673   31.5528   11.0283 C   0  0  0  0  0  0  0  0  0  0  0  0
   39.8952   30.3567   11.1804 C   0  0  0  0  0  0  0  0  0  0  0  0
   44.6947   25.3788    9.8739 O   0  0  0  0  0  0  0  0  0  0  0  0
   43.2977   25.6779    9.8871 C   0  0  0  0  0  0  0  0  0  0  0  0
   39.7427   27.5583   12.7398 C   0  0  0  0  0  0  0  0  0  0  0  0
   38.8804   27.6454   11.6543 C   0  0  0  0  0  0  0  0  0  0  0  0
   39.3224   27.2516   10.3887 C   0  0  0  0  0  0  0  0  0  0  0  0
   40.6193   26.7695   10.2075 C   0  0  0  0  0  0  0  0  0  0  0  0
   42.8636   26.2077   11.2598 C   0  0  1  0  0  0  0  0  0  0  0  0
   41.4448   26.6667   11.3026 C   0  0  0  0  0  0  0  0  0  0  0  0
   41.0078   27.0574   12.5430 C   0  0  0  0  0  0  0  0  0  0  0  0
   41.9972   26.9693   13.6001 C   0  0  1  0  0  0  0  0  0  0  0  0
   42.6280   24.8328   14.7084 C   0  0  0  0  0  0  0  0  0  0  0  0
   42.5362   25.6207   13.5862 C   0  0  0  0  0  0  0  0  0  0  0  0
   42.9943   25.1944   12.3686 C   0  0  0  0  0  0  0  0  0  0  0  0
   43.5702   23.9383   12.2475 C   0  0  0  0  0  0  0  0  0  0  0  0
   43.6519   23.1178   13.3747 C   0  0  0  0  0  0  0  0  0  0  0  0
   43.1783   23.5662   14.6008 C   0  0  0  0  0  0  0  0  0  0  0  0
   41.0872   30.4793   10.2401 C   0  0  0  0  0  0  0  0  0  0  0  0
   42.3526   30.8077   11.0235 C   0  0  0  0  0  0  0  0  0  0  0  0
   43.6432   28.7402    9.7837 O   0  0  0  0  0  0  0  0  0  0  0  0
   42.1065   29.9256   13.6975 O   0  0  0  0  0  0  0  0  0  0  0  0
   42.6480   29.2433   12.8435 C   0  0  0  0  0  0  0  0  0  0  0  0
   42.8140   29.5640   11.6196 N   0  0  0  0  0  0  0  0  0  0  0  0
   43.3803   28.6551   10.9554 C   0  0  0  0  0  0  0  0  0  0  0  0
   43.6533   27.4292   11.7559 C   0  0  1  0  0  0  0  0  0  0  0  0
   43.1331   27.8663   13.1277 C   0  0  2  0  0  0  0  0  0  0  0  0
  1  2  1  0  0  0  0
  2  3  1  0  0  0  0
  3 20  1  0  0  0  0
  4  5  1  0  0  0  0
  6  7  2  0  0  0  0
  6 12  1  0  0  0  0
  7  8  1  0  0  0  0
  8  9  2  0  0  0  0
  9 11  1  0  0  0  0
 10  5  1  6  0  0  0
 10 11  1  0  0  0  0
 10 16  1  0  0  0  0
 10 27  1  0  0  0  0
 11 12  2  0  0  0  0
 13 12  1  6  0  0  0
 13 15  1  0  0  0  0
 13 28  1  0  0  0  0
 14 15  2  0  0  0  0
 14 19  1  0  0  0  0
 15 16  1  0  0  0  0
 16 17  2  0  0  0  0
 17 18  1  0  0  0  0
 18 19  2  0  0  0  0
 20 21  1  0  0  0  0
 21 25  1  0  0  0  0
 22 26  2  0  0  0  0
 23 24  2  0  0  0  0
 24 25  1  0  0  0  0
 25 26  1  0  0  0  0
 27 26  1  6  0  0  0
 27 28  1  0  0  0  0
 28 24  1  6  0  0  0
M  END
>  <CHROM.1>
167.11770930,174.27701145,107.60559233,78.74715860,-102.19450412,41.92622678
27.60142961,11.84869575,2.19252501,0.53169816,-0.57894374

>  <Name>
ligand

>  <RI>
0

>  <Rbt.Current_Directory>
/home/itssahil/PROJECTS/Mol_Feturizer/New_Systems/rnas/1YLS

>  <Rbt.Executable>
rbdock ($Id: //depot/dev/client3/rdock/2013.1/src/exe/rbdock.cxx#4 $)

>  <Rbt.Library>
libRbt.so (2013.1, Build901 2013/11/27)

>  <Rbt.Parameter_File>
/export/apps/rDock/src/rDock_2013.1_src/data/scripts/dock_solv.prm

>  <Rbt.Receptor>
prm/blind_docking_60.prm

>  <SCORE>
-11.3392

>  <SCORE.INTER>
-9.7792

>  <SCORE.INTER.CONST>
1

>  <SCORE.INTER.POLAR>
0

>  <SCORE.INTER.ROT>
5

>  <SCORE.INTER.SOLV>
9.34825

>  <SCORE.INTER.VDW>
-16.5689

>  <SCORE.INTER.norm>
-0.349257

>  <SCORE.INTRA>
-1.81112

>  <SCORE.INTRA.DIHEDRAL>
-1.98771

>  <SCORE.INTRA.DIHEDRAL.0>
12.0148

>  <SCORE.INTRA.POLAR>
0

>  <SCORE.INTRA.POLAR.0>
0

>  <SCORE.INTRA.REPUL>
0

>  <SCORE.INTRA.REPUL.0>
0

>  <SCORE.INTRA.SOLV>
0.448569

>  <SCORE.INTRA.SOLV.lig_0>
-10.5235

>  <SCORE.INTRA.VDW>
-1.04155

>  <SCORE.INTRA.VDW.0>
-1.38455

>  <SCORE.INTRA.norm>
-0.064683

>  <SCORE.RESTR>
0.251098

>  <SCORE.RESTR.CAVITY>
0.251098

>  <SCORE.RESTR.norm>
0.00896778

>  <SCORE.SYSTEM>
0

>  <SCORE.SYSTEM.CONST>
0

>  <SCORE.SYSTEM.DIHEDRAL>
0

>  <SCORE.SYSTEM.SOLV>
0

>  <SCORE.SYSTEM.norm>
0

>  <SCORE.heavy>
28

>  <SCORE.norm>
-0.404972

>  <RMSD>
15.172

$$$$
ligand
 OpenBabel11021811413D
libRbt.so/2013.1/901 2013/11/27
 28 32  0  0  0  0  0  0  0  0999 V2000
   38.0410   31.5661   11.4602 C   0  0  0  0  0  0  0  0  0  0  0  0
   38.7382   30.4059   12.1428 C   0  0  0  0  0  0  0  0  0  0  0  0
   40.2098   30.7023   12.3905 C   0  0  0  0  0  0  0  0  0  0  0  0
   45.3510   26.0393    9.2447 O   0  0  0  0  0  0  0  0  0  0  0  0
   43.9417   26.1257    9.4623 C   0  0  0  0  0  0  0  0  0  0  0  0
   40.4965   25.6662   12.9597 C   0  0  0  0  0  0  0  0  0  0  0  0
   39.5154   26.1284   12.0920 C   0  0  0  0  0  0  0  0  0  0  0  0
   39.8651   26.5042   10.7925 C   0  0  0  0  0  0  0  0  0  0  0  0
   41.1886   26.4161   10.3594 C   0  0  0  0  0  0  0  0  0  0  0  0
   43.5925   25.8132   10.9232 C   0  0  1  0  0  0  0  0  0  0  0  0
   42.1369   25.9292   11.2284 C   0  0  0  0  0  0  0  0  0  0  0  0
   41.7897   25.5642   12.5045 C   0  0  0  0  0  0  0  0  0  0  0  0
   42.8929   25.1379   13.3443 C   0  0  1  0  0  0  0  0  0  0  0  0
   43.9372   22.8846   13.1910 C   0  0  0  0  0  0  0  0  0  0  0  0
   43.6113   24.0965   12.6310 C   0  0  0  0  0  0  0  0  0  0  0  0
   43.9868   24.4237   11.3557 C   0  0  0  0  0  0  0  0  0  0  0  0
   44.7167   23.5209   10.5966 C   0  0  0  0  0  0  0  0  0  0  0  0
   45.0376   22.2771   11.1446 C   0  0  0  0  0  0  0  0  0  0  0  0
   44.6448   21.9616   12.4387 C   0  0  0  0  0  0  0  0  0  0  0  0
   40.9320   29.4563   12.8865 C   0  0  0  0  0  0  0  0  0  0  0  0
   42.4164   29.7424   13.0807 C   0  0  0  0  0  0  0  0  0  0  0  0
   43.8392   28.8363   10.9286 O   0  0  0  0  0  0  0  0  0  0  0  0
   42.5954   27.6164   14.9347 O   0  0  0  0  0  0  0  0  0  0  0  0
   43.1292   27.5598   13.8393 C   0  0  0  0  0  0  0  0  0  0  0  0
   43.1115   28.4720   12.9471 N   0  0  0  0  0  0  0  0  0  0  0  0
   43.7228   28.1329   11.8985 C   0  0  0  0  0  0  0  0  0  0  0  0
   44.2527   26.7422   11.9542 C   0  0  1  0  0  0  0  0  0  0  0  0
   43.8318   26.3362   13.3690 C   0  0  2  0  0  0  0  0  0  0  0  0
  1  2  1  0  0  0  0
  2  3  1  0  0  0  0
  3 20  1  0  0  0  0
  4  5  1  0  0  0  0
  6  7  2  0  0  0  0
  6 12  1  0  0  0  0
  7  8  1  0  0  0  0
  8  9  2  0  0  0  0
  9 11  1  0  0  0  0
 10  5  1  6  0  0  0
 10 11  1  0  0  0  0
 10 16  1  0  0  0  0
 10 27  1  0  0  0  0
 11 12  2  0  0  0  0
 13 12  1  6  0  0  0
 13 15  1  0  0  0  0
 13 28  1  0  0  0  0
 14 15  2  0  0  0  0
 14 19  1  0  0  0  0
 15 16  1  0  0  0  0
 16 17  2  0  0  0  0
 17 18  1  0  0  0  0
 18 19  2  0  0  0  0
 20 21  1  0  0  0  0
 21 25  1  0  0  0  0
 22 26  2  0  0  0  0
 23 24  2  0  0  0  0
 24 25  1  0  0  0  0
 25 26  1  0  0  0  0
 27 26  1  6  0  0  0
 27 28  1  0  0  0  0
 28 24  1  6  0  0  0
M  END
>  <CHROM.1>
-171.70992321,178.13617935,177.76261035,-154.58912740,-75.62077847,42.53828150
26.72570848,12.00143326,-2.33737640,-0.59343486,2.76249910

>  <Name>
ligand

>  <RI>
0

>  <Rbt.Current_Directory>
/home/itssahil/PROJECTS/Mol_Feturizer/New_Systems/rnas/1YLS

>  <Rbt.Executable>
rbdock ($Id: //depot/dev/client3/rdock/2013.1/src/exe/rbdock.cxx#4 $)

>  <Rbt.Library>
libRbt.so (2013.1, Build901 2013/11/27)

>  <Rbt.Parameter_File>
/export/apps/rDock/src/rDock_2013.1_src/data/scripts/dock_solv.prm

>  <Rbt.Receptor>
prm/blind_docking_60.prm

>  <SCORE>
-8.12277

>  <SCORE.INTER>
-3.79742

>  <SCORE.INTER.CONST>
1

>  <SCORE.INTER.POLAR>
0

>  <SCORE.INTER.ROT>
5

>  <SCORE.INTER.SOLV>
11.4217

>  <SCORE.INTER.VDW>
-13.2722

>  <SCORE.INTER.norm>
-0.135622

>  <SCORE.INTRA>
-4.32535

>  <SCORE.INTRA.DIHEDRAL>
-7.05313

>  <SCORE.INTRA.DIHEDRAL.0>
12.0148

>  <SCORE.INTRA.POLAR>
0

>  <SCORE.INTRA.POLAR.0>
0

>  <SCORE.INTRA.REPUL>
0

>  <SCORE.INTRA.REPUL.0>
0

>  <SCORE.INTRA.SOLV>
0.17323

>  <SCORE.INTRA.SOLV.lig_0>
-10.5235

>  <SCORE.INTRA.VDW>
-0.885403

>  <SCORE.INTRA.VDW.0>
-1.38455

>  <SCORE.INTRA.norm>
-0.154477

>  <SCORE.RESTR>
0

>  <SCORE.RESTR.CAVITY>
0

>  <SCORE.RESTR.norm>
0

>  <SCORE.SYSTEM>
0

>  <SCORE.SYSTEM.CONST>
0

>  <SCORE.SYSTEM.DIHEDRAL>
0

>  <SCORE.SYSTEM.SOLV>
0

>  <SCORE.SYSTEM.norm>
0

>  <SCORE.heavy>
28

>  <SCORE.norm>
-0.290099

>  <RMSD>
15.185

$$$$
ligand
 OpenBabel11021811413D
libRbt.so/2013.1/901 2013/11/27
 28 32  0  0  0  0  0  0  0  0999 V2000
   38.3612   30.9184   11.6541 C   0  0  0  0  0  0  0  0  0  0  0  0
   39.3928   31.9686   11.2925 C   0  0  0  0  0  0  0  0  0  0  0  0
   40.1209   31.6198   10.0030 C   0  0  0  0  0  0  0  0  0  0  0  0
   44.7572   25.3959    9.9042 O   0  0  0  0  0  0  0  0  0  0  0  0
   43.3636   25.7103    9.8909 C   0  0  0  0  0  0  0  0  0  0  0  0
   39.7244   27.4345   12.7361 C   0  0  0  0  0  0  0  0  0  0  0  0
   38.8670   27.5017   11.6454 C   0  0  0  0  0  0  0  0  0  0  0  0
   39.3314   27.1365   10.3793 C   0  0  0  0  0  0  0  0  0  0  0  0
   40.6458   26.7027   10.2027 C   0  0  0  0  0  0  0  0  0  0  0  0
   42.9015   26.2106   11.2656 C   0  0  1  0  0  0  0  0  0  0  0  0
   41.4670   26.6184   11.3026 C   0  0  0  0  0  0  0  0  0  0  0  0
   41.0078   26.9809   12.5436 C   0  0  0  0  0  0  0  0  0  0  0  0
   41.9925   26.9176   13.6068 C   0  0  1  0  0  0  0  0  0  0  0  0
   42.6916   24.7939   14.6988 C   0  0  0  0  0  0  0  0  0  0  0  0
   42.5793   25.5892   13.5838 C   0  0  0  0  0  0  0  0  0  0  0  0
   43.0606   25.1916   12.3654 C   0  0  0  0  0  0  0  0  0  0  0  0
   43.6819   23.9581   12.2363 C   0  0  0  0  0  0  0  0  0  0  0  0
   43.7850   23.1299   13.3559 C   0  0  0  0  0  0  0  0  0  0  0  0
   43.2874   23.5488   14.5829 C   0  0  0  0  0  0  0  0  0  0  0  0
   41.0292   30.4145   10.2087 C   0  0  0  0  0  0  0  0  0  0  0  0
   42.2284   30.7916   11.0703 C   0  0  0  0  0  0  0  0  0  0  0  0
   43.6004   28.7838    9.8198 O   0  0  0  0  0  0  0  0  0  0  0  0
   41.9958   29.8747   13.7338 O   0  0  0  0  0  0  0  0  0  0  0  0
   42.5670   29.2207   12.8771 C   0  0  0  0  0  0  0  0  0  0  0  0
   42.7298   29.5593   11.6576 N   0  0  0  0  0  0  0  0  0  0  0  0
   43.3327   28.6778   10.9887 C   0  0  0  0  0  0  0  0  0  0  0  0
   43.6438   27.4545   11.7792 C   0  0  1  0  0  0  0  0  0  0  0  0
   43.0989   27.8591   13.1514 C   0  0  2  0  0  0  0  0  0  0  0  0
  1  2  1  0  0  0  0
  2  3  1  0  0  0  0
  3 20  1  0  0  0  0
  4  5  1  0  0  0  0
  6  7  2  0  0  0  0
  6 12  1  0  0  0  0
  7  8  1  0  0  0  0
  8  9  2  0  0  0  0
  9 11  1  0  0  0  0
 10  5  1  6  0  0  0
 10 11  1  0  0  0  0
 10 16  1  0  0  0  0
 10 27  1  0  0  0  0
 11 12  2  0  0  0  0
 13 12  1  6  0  0  0
 13 15  1  0  0  0  0
 13 28  1  0  0  0  0
 14 15  2  0  0  0  0
 14 19  1  0  0  0  0
 15 16  1  0  0  0  0
 16 17  2  0  0  0  0
 17 18  1  0  0  0  0
 18 19  2  0  0  0  0
 20 21  1  0  0  0  0
 21 25  1  0  0  0  0
 22 26  2  0  0  0  0
 23 24  2  0  0  0  0
 24 25  1  0  0  0  0
 25 26  1  0  0  0  0
 27 26  1  6  0  0  0
 27 28  1  0  0  0  0
 28 24  1  6  0  0  0
M  END
>  <CHROM.1>
-69.49438302,177.26019222,-71.20664671,157.65929068,-105.43736983,41.98284259
27.62596439,11.81959332,2.15004714,0.61598870,-0.62305842

>  <Name>
ligand

>  <RI>
0

>  <Rbt.Current_Directory>
/home/itssahil/PROJECTS/Mol_Feturizer/New_Systems/rnas/1YLS

>  <Rbt.Executable>
rbdock ($Id: //depot/dev/client3/rdock/2013.1/src/exe/rbdock.cxx#4 $)

>  <Rbt.Library>
libRbt.so (2013.1, Build901 2013/11/27)

>  <Rbt.Parameter_File>
/export/apps/rDock/src/rDock_2013.1_src/data/scripts/dock_solv.prm

>  <Rbt.Receptor>
prm/blind_docking_60.prm

>  <SCORE>
-12.1488

>  <SCORE.INTER>
-9.52774

>  <SCORE.INTER.CONST>
1

>  <SCORE.INTER.POLAR>
0

>  <SCORE.INTER.ROT>
5

>  <SCORE.INTER.SOLV>
8.89789

>  <SCORE.INTER.VDW>
-16.2511

>  <SCORE.INTER.norm>
-0.340276

>  <SCORE.INTRA>
-2.9209

>  <SCORE.INTRA.DIHEDRAL>
-6.91431

>  <SCORE.INTRA.DIHEDRAL.0>
12.0148

>  <SCORE.INTRA.POLAR>
0

>  <SCORE.INTRA.POLAR.0>
0

>  <SCORE.INTRA.REPUL>
0

>  <SCORE.INTRA.REPUL.0>
0

>  <SCORE.INTRA.SOLV>
0.284134

>  <SCORE.INTRA.SOLV.lig_0>
-10.5235

>  <SCORE.INTRA.VDW>
0.394193

>  <SCORE.INTRA.VDW.0>
-1.38455

>  <SCORE.INTRA.norm>
-0.104318

>  <SCORE.RESTR>
0.299804

>  <SCORE.RESTR.CAVITY>
0.299804

>  <SCORE.RESTR.norm>
0.0107073

>  <SCORE.SYSTEM>
0

>  <SCORE.SYSTEM.CONST>
0

>  <SCORE.SYSTEM.DIHEDRAL>
0

>  <SCORE.SYSTEM.SOLV>
0

>  <SCORE.SYSTEM.norm>
0

>  <SCORE.heavy>
28

>  <SCORE.norm>
-0.433887

>  <RMSD>
15.197

$$$$
ligand
 OpenBabel11021811413D
libRbt.so/2013.1/901 2013/11/27
 28 32  0  0  0  0  0  0  0  0999 V2000
   46.4183   23.7974   13.5349 C   0  0  0  0  0  0  0  0  0  0  0  0
   45.6336   25.0193   13.1000 C   0  0  0  0  0  0  0  0  0  0  0  0
   44.1526   24.8781   13.4184 C   0  0  0  0  0  0  0  0  0  0  0  0
   42.1008   32.0420    9.7667 O   0  0  0  0  0  0  0  0  0  0  0  0
   42.3945   31.4623   11.0390 C   0  0  0  0  0  0  0  0  0  0  0  0
   40.6173   28.3000   14.3787 C   0  0  0  0  0  0  0  0  0  0  0  0
   41.6817   28.5610   15.2321 C   0  0  0  0  0  0  0  0  0  0  0  0
   42.6804   29.4544   14.8361 C   0  0  0  0  0  0  0  0  0  0  0  0
   42.6154   30.0875   13.5943 C   0  0  0  0  0  0  0  0  0  0  0  0
   41.3494   30.4034   11.4132 C   0  0  1  0  0  0  0  0  0  0  0  0
   41.5373   29.8338   12.7791 C   0  0  0  0  0  0  0  0  0  0  0  0
   40.5605   28.9534   13.1705 C   0  0  0  0  0  0  0  0  0  0  0  0
   39.5174   28.7162   12.1909 C   0  0  1  0  0  0  0  0  0  0  0  0
   37.6480   30.3039   11.7717 C   0  0  0  0  0  0  0  0  0  0  0  0
   38.9900   30.0083   11.7888 C   0  0  0  0  0  0  0  0  0  0  0  0
   39.9313   30.9144   11.3799 C   0  0  0  0  0  0  0  0  0  0  0  0
   39.5371   32.1668   10.9322 C   0  0  0  0  0  0  0  0  0  0  0  0
   38.1783   32.4893   10.9285 C   0  0  0  0  0  0  0  0  0  0  0  0
   37.2383   31.5583   11.3506 C   0  0  0  0  0  0  0  0  0  0  0  0
   43.3896   26.1231   12.9849 C   0  0  0  0  0  0  0  0  0  0  0  0
   43.3628   26.2296   11.4648 C   0  0  0  0  0  0  0  0  0  0  0  0
   43.6610   28.7266   10.3909 O   0  0  0  0  0  0  0  0  0  0  0  0
   40.5661   25.9779   11.7875 O   0  0  0  0  0  0  0  0  0  0  0  0
   41.0705   26.9853   11.3198 C   0  0  0  0  0  0  0  0  0  0  0  0
   42.3166   27.1816   11.1272 N   0  0  0  0  0  0  0  0  0  0  0  0
   42.5575   28.3256   10.6566 C   0  0  0  0  0  0  0  0  0  0  0  0
   41.3364   29.1644   10.5040 C   0  0  1  0  0  0  0  0  0  0  0  0
   40.2593   28.1828   10.9731 C   0  0  2  0  0  0  0  0  0  0  0  0
  1  2  1  0  0  0  0
  2  3  1  0  0  0  0
  3 20  1  0  0  0  0
  4  5  1  0  0  0  0
  6  7  2  0  0  0  0
  6 12  1  0  0  0  0
  7  8  1  0  0  0  0
  8  9  2  0  0  0  0
  9 11  1  0  0  0  0
 10  5  1  6  0  0  0
 10 11  1  0  0  0  0
 10 16  1  0  0  0  0
 10 27  1  0  0  0  0
 11 12  2  0  0  0  0
 13 12  1  1  0  0  0
 13 15  1  0  0  0  0
 13 28  1  0  0  0  0
 14 15  2  0  0  0  0
 14 19  1  0  0  0  0
 15 16  1  0  0  0  0
 16 17  2  0  0  0  0
 17 18  1  0  0  0  0
 18 19  2  0  0  0  0
 20 21  1  0  0  0  0
 21 25  1  0  0  0  0
 22 26  2  0  0  0  0
 23 24  2  0  0  0  0
 24 25  1  0  0  0  0
 25 26  1  0  0  0  0
 27 26  1  1  0  0  0
 27 28  1  0  0  0  0
 28 24  1  1  0  0  0
M  END
>  <CHROM.1>
179.42863050,-175.49103363,68.50291850,163.59734046,-66.97041202,41.59564860
28.67800682,12.02787396,-0.80719769,0.37084893,-0.61747681

>  <Name>
ligand

>  <RI>
0

>  <Rbt.Current_Directory>
/home/itssahil/PROJECTS/Mol_Feturizer/New_Systems/rnas/1YLS

>  <Rbt.Executable>
rbdock ($Id: //depot/dev/client3/rdock/2013.1/src/exe/rbdock.cxx#4 $)

>  <Rbt.Library>
libRbt.so (2013.1, Build901 2013/11/27)

>  <Rbt.Parameter_File>
/export/apps/rDock/src/rDock_2013.1_src/data/scripts/dock_solv.prm

>  <Rbt.Receptor>
prm/blind_docking_60.prm

>  <SCORE>
-10.1158

>  <SCORE.INTER>
-7.24349

>  <SCORE.INTER.CONST>
1

>  <SCORE.INTER.POLAR>
0

>  <SCORE.INTER.ROT>
5

>  <SCORE.INTER.SOLV>
6.12686

>  <SCORE.INTER.VDW>
-13.8046

>  <SCORE.INTER.norm>
-0.258696

>  <SCORE.INTRA>
-3.55239

>  <SCORE.INTRA.DIHEDRAL>
-8.18642

>  <SCORE.INTRA.DIHEDRAL.0>
12.0148

>  <SCORE.INTRA.POLAR>
0

>  <SCORE.INTRA.POLAR.0>
0

>  <SCORE.INTRA.REPUL>
0

>  <SCORE.INTRA.REPUL.0>
0

>  <SCORE.INTRA.SOLV>
0.170488

>  <SCORE.INTRA.SOLV.lig_0>
-10.5235

>  <SCORE.INTRA.VDW>
0.455571

>  <SCORE.INTRA.VDW.0>
-1.38455

>  <SCORE.INTRA.norm>
-0.126871

>  <SCORE.RESTR>
0.680084

>  <SCORE.RESTR.CAVITY>
0.680084

>  <SCORE.RESTR.norm>
0.0242887

>  <SCORE.SYSTEM>
0

>  <SCORE.SYSTEM.CONST>
0

>  <SCORE.SYSTEM.DIHEDRAL>
0

>  <SCORE.SYSTEM.SOLV>
0

>  <SCORE.SYSTEM.norm>
0

>  <SCORE.heavy>
28

>  <SCORE.norm>
-0.361279

>  <RMSD>
15.201

$$$$
ligand
 OpenBabel11021811413D
libRbt.so/2013.1/901 2013/11/27
 28 32  0  0  0  0  0  0  0  0999 V2000
   38.6462   31.8249   10.7646 C   0  0  0  0  0  0  0  0  0  0  0  0
   37.3422   31.3040   11.3357 C   0  0  0  0  0  0  0  0  0  0  0  0
   37.5795   30.2458   12.4028 C   0  0  0  0  0  0  0  0  0  0  0  0
   43.3912   23.7933   13.9388 O   0  0  0  0  0  0  0  0  0  0  0  0
   42.2591   24.0423   13.1038 C   0  0  0  0  0  0  0  0  0  0  0  0
   43.2189   28.8762   12.9468 C   0  0  0  0  0  0  0  0  0  0  0  0
   43.1708   28.9582   14.3326 C   0  0  0  0  0  0  0  0  0  0  0  0
   42.8832   27.8145   15.0818 C   0  0  0  0  0  0  0  0  0  0  0  0
   42.6477   26.5925   14.4507 C   0  0  0  0  0  0  0  0  0  0  0  0
   42.4654   25.3096   12.2641 C   0  0  1  0  0  0  0  0  0  0  0  0
   42.7285   26.5311   13.0792 C   0  0  0  0  0  0  0  0  0  0  0  0
   43.0081   27.6572   12.3471 C   0  0  0  0  0  0  0  0  0  0  0  0
   42.9911   27.4758   10.9081 C   0  0  1  0  0  0  0  0  0  0  0  0
   44.8555   26.4234    9.6401 C   0  0  0  0  0  0  0  0  0  0  0  0
   43.8692   26.3621   10.5952 C   0  0  0  0  0  0  0  0  0  0  0  0
   43.6175   25.2134   11.2963 C   0  0  0  0  0  0  0  0  0  0  0  0
   44.3667   24.0730   11.0473 C   0  0  0  0  0  0  0  0  0  0  0  0
   45.3862   24.1256   10.0944 C   0  0  0  0  0  0  0  0  0  0  0  0
   45.6294   25.3009    9.3957 C   0  0  0  0  0  0  0  0  0  0  0  0
   38.0033   28.9282   11.7669 C   0  0  0  0  0  0  0  0  0  0  0  0
   38.7858   28.0823   12.7644 C   0  0  0  0  0  0  0  0  0  0  0  0
   39.5225   25.4580   12.9834 O   0  0  0  0  0  0  0  0  0  0  0  0
   40.5142   29.0901   10.7679 O   0  0  0  0  0  0  0  0  0  0  0  0
   40.5587   27.9253   11.1275 C   0  0  0  0  0  0  0  0  0  0  0  0
   39.8130   27.3824   12.0093 N   0  0  0  0  0  0  0  0  0  0  0  0
   40.0979   26.1700   12.2017 C   0  0  0  0  0  0  0  0  0  0  0  0
   41.2616   25.7076   11.3955 C   0  0  1  0  0  0  0  0  0  0  0  0
   41.5831   26.9804   10.6080 C   0  0  2  0  0  0  0  0  0  0  0  0
  1  2  1  0  0  0  0
  2  3  1  0  0  0  0
  3 20  1  0  0  0  0
  4  5  1  0  0  0  0
  6  7  2  0  0  0  0
  6 12  1  0  0  0  0
  7  8  1  0  0  0  0
  8  9  2  0  0  0  0
  9 11  1  0  0  0  0
 10  5  1  1  0  0  0
 10 11  1  0  0  0  0
 10 16  1  0  0  0  0
 10 27  1  0  0  0  0
 11 12  2  0  0  0  0
 13 12  1  1  0  0  0
 13 15  1  0  0  0  0
 13 28  1  0  0  0  0
 14 15  2  0  0  0  0
 14 19  1  0  0  0  0
 15 16  1  0  0  0  0
 16 17  2  0  0  0  0
 17 18  1  0  0  0  0
 18 19  2  0  0  0  0
 20 21  1  0  0  0  0
 21 25  1  0  0  0  0
 22 26  2  0  0  0  0
 23 24  2  0  0  0  0
 24 25  1  0  0  0  0
 25 26  1  0  0  0  0
 27 26  1  1  0  0  0
 27 28  1  0  0  0  0
 28 24  1  1  0  0  0
M  END
>  <CHROM.1>
-74.71036770,-57.50078582,156.15213069,-144.30643997,45.50207308,41.65350310
27.10651623,11.96304725,-2.71698457,-0.60124847,2.28937939

>  <Name>
ligand

>  <RI>
0

>  <Rbt.Current_Directory>
/home/itssahil/PROJECTS/Mol_Feturizer/New_Systems/rnas/1YLS

>  <Rbt.Executable>
rbdock ($Id: //depot/dev/client3/rdock/2013.1/src/exe/rbdock.cxx#4 $)

>  <Rbt.Library>
libRbt.so (2013.1, Build901 2013/11/27)

>  <Rbt.Parameter_File>
/export/apps/rDock/src/rDock_2013.1_src/data/scripts/dock_solv.prm

>  <Rbt.Receptor>
prm/blind_docking_100.prm

>  <SCORE>
-6.40608

>  <SCORE.INTER>
-7.3132

>  <SCORE.INTER.CONST>
1

>  <SCORE.INTER.POLAR>
0

>  <SCORE.INTER.ROT>
5

>  <SCORE.INTER.SOLV>
12.3285

>  <SCORE.INTER.VDW>
-15.9183

>  <SCORE.INTER.norm>
-0.261186

>  <SCORE.INTRA>
0.90712

>  <SCORE.INTRA.DIHEDRAL>
-2.91468

>  <SCORE.INTRA.DIHEDRAL.0>
12.0148

>  <SCORE.INTRA.POLAR>
0

>  <SCORE.INTRA.POLAR.0>
0

>  <SCORE.INTRA.REPUL>
0

>  <SCORE.INTRA.REPUL.0>
0

>  <SCORE.INTRA.SOLV>
0.274068

>  <SCORE.INTRA.SOLV.lig_0>
-10.5235

>  <SCORE.INTRA.VDW>
2.22742

>  <SCORE.INTRA.VDW.0>
-1.38455

>  <SCORE.INTRA.norm>
0.0323972

>  <SCORE.RESTR>
0

>  <SCORE.RESTR.CAVITY>
0

>  <SCORE.RESTR.norm>
0

>  <SCORE.SYSTEM>
0

>  <SCORE.SYSTEM.CONST>
0

>  <SCORE.SYSTEM.DIHEDRAL>
0

>  <SCORE.SYSTEM.SOLV>
0

>  <SCORE.SYSTEM.norm>
0

>  <SCORE.heavy>
28

>  <SCORE.norm>
-0.228788

>  <RMSD>
15.285

$$$$
ligand
 OpenBabel11021811413D
libRbt.so/2013.1/901 2013/11/27
 28 32  0  0  0  0  0  0  0  0999 V2000
   24.4611   25.4104   32.5912 C   0  0  0  0  0  0  0  0  0  0  0  0
   25.5512   26.4578   32.4792 C   0  0  0  0  0  0  0  0  0  0  0  0
   26.9093   25.8280   32.2075 C   0  0  0  0  0  0  0  0  0  0  0  0
   28.4602   18.6022   35.6187 O   0  0  0  0  0  0  0  0  0  0  0  0
   29.3374   19.6798   35.2864 C   0  0  0  0  0  0  0  0  0  0  0  0
   26.0286   23.1425   36.4589 C   0  0  0  0  0  0  0  0  0  0  0  0
   25.1416   22.6554   35.5075 C   0  0  0  0  0  0  0  0  0  0  0  0
   25.5119   21.5684   34.7115 C   0  0  0  0  0  0  0  0  0  0  0  0
   26.7617   20.9675   34.8666 C   0  0  0  0  0  0  0  0  0  0  0  0
   28.9887   20.9385   36.0912 C   0  0  1  0  0  0  0  0  0  0  0  0
   27.6112   21.4504   35.8343 C   0  0  0  0  0  0  0  0  0  0  0  0
   27.2448   22.5200   36.6117 C   0  0  0  0  0  0  0  0  0  0  0  0
   28.2576   22.9796   37.5428 C   0  0  1  0  0  0  0  0  0  0  0  0
   28.7581   21.8344   39.6944 C   0  0  0  0  0  0  0  0  0  0  0  0
   28.6912   21.8330   38.3218 C   0  0  0  0  0  0  0  0  0  0  0  0
   29.0766   20.7460   37.5840 C   0  0  0  0  0  0  0  0  0  0  0  0
   29.5507   19.6096   38.2227 C   0  0  0  0  0  0  0  0  0  0  0  0
   29.6050   19.5883   39.6180 C   0  0  0  0  0  0  0  0  0  0  0  0
   29.2062   20.6993   40.3496 C   0  0  0  0  0  0  0  0  0  0  0  0
   27.3765   25.0200   33.4112 C   0  0  0  0  0  0  0  0  0  0  0  0
   28.8237   24.5785   33.2277 C   0  0  0  0  0  0  0  0  0  0  0  0
   29.9125   22.0789   33.4368 O   0  0  0  0  0  0  0  0  0  0  0  0
   28.5957   25.4277   35.9139 O   0  0  0  0  0  0  0  0  0  0  0  0
   29.0561   24.3363   35.6223 C   0  0  0  0  0  0  0  0  0  0  0  0
   29.2073   23.8760   34.4418 N   0  0  0  0  0  0  0  0  0  0  0  0
   29.6812   22.7083   34.4365 C   0  0  0  0  0  0  0  0  0  0  0  0
   29.8848   22.1535   35.8036 C   0  0  1  0  0  0  0  0  0  0  0  0
   29.4433   23.3433   36.6597 C   0  0  2  0  0  0  0  0  0  0  0  0
  1  2  1  0  0  0  0
  2  3  1  0  0  0  0
  3 20  1  0  0  0  0
  4  5  1  0  0  0  0
  6  7  2  0  0  0  0
  6 12  1  0  0  0  0
  7  8  1  0  0  0  0
  8  9  2  0  0  0  0
  9 11  1  0  0  0  0
 10  5  1  6  0  0  0
 10 11  1  0  0  0  0
 10 16  1  0  0  0  0
 10 27  1  0  0  0  0
 11 12  2  0  0  0  0
 13 12  1  6  0  0  0
 13 15  1  0  0  0  0
 13 28  1  0  0  0  0
 14 15  2  0  0  0  0
 14 19  1  0  0  0  0
 15 16  1  0  0  0  0
 16 17  2  0  0  0  0
 17 18  1  0  0  0  0
 18 19  2  0  0  0  0
 20 21  1  0  0  0  0
 21 25  1  0  0  0  0
 22 26  2  0  0  0  0
 23 24  2  0  0  0  0
 24 25  1  0  0  0  0
 25 26  1  0  0  0  0
 27 26  1  6  0  0  0
 27 28  1  0  0  0  0
 28 24  1  6  0  0  0
M  END
>  <CHROM.1>
-67.39400289,-61.26656653,-170.90108697,177.23783036,-51.32745563,28.11126466
22.57002893,35.68363305,-3.10215011,-1.22147982,0.80731291

>  <Name>
ligand

>  <RI>
0

>  <Rbt.Current_Directory>
/home/itssahil/PROJECTS/Mol_Feturizer/New_Systems/rnas/1YLS

>  <Rbt.Executable>
rbdock ($Id: //depot/dev/client3/rdock/2013.1/src/exe/rbdock.cxx#4 $)

>  <Rbt.Library>
libRbt.so (2013.1, Build901 2013/11/27)

>  <Rbt.Parameter_File>
/export/apps/rDock/src/rDock_2013.1_src/data/scripts/dock_solv.prm

>  <Rbt.Receptor>
prm/blind_docking_80.prm

>  <SCORE>
-16.3257

>  <SCORE.INTER>
-13.17

>  <SCORE.INTER.CONST>
1

>  <SCORE.INTER.POLAR>
0

>  <SCORE.INTER.ROT>
5

>  <SCORE.INTER.SOLV>
5.53685

>  <SCORE.INTER.VDW>
-17.5589

>  <SCORE.INTER.norm>
-0.470356

>  <SCORE.INTRA>
-3.15578

>  <SCORE.INTRA.DIHEDRAL>
-9.08584

>  <SCORE.INTRA.DIHEDRAL.0>
12.0148

>  <SCORE.INTRA.POLAR>
0

>  <SCORE.INTRA.POLAR.0>
0

>  <SCORE.INTRA.REPUL>
0

>  <SCORE.INTRA.REPUL.0>
0

>  <SCORE.INTRA.SOLV>
-0.0143482

>  <SCORE.INTRA.SOLV.lig_0>
-10.5235

>  <SCORE.INTRA.VDW>
1.39431

>  <SCORE.INTRA.VDW.0>
-1.38455

>  <SCORE.INTRA.norm>
-0.112706

>  <SCORE.RESTR>
0

>  <SCORE.RESTR.CAVITY>
0

>  <SCORE.RESTR.norm>
0

>  <SCORE.SYSTEM>
0

>  <SCORE.SYSTEM.CONST>
0

>  <SCORE.SYSTEM.DIHEDRAL>
0

>  <SCORE.SYSTEM.SOLV>
0

>  <SCORE.SYSTEM.norm>
0

>  <SCORE.heavy>
28

>  <SCORE.norm>
-0.583062

>  <RMSD>
15.335

$$$$
ligand
 OpenBabel11021811413D
libRbt.so/2013.1/901 2013/11/27
 28 32  0  0  0  0  0  0  0  0999 V2000
   37.2375   32.3573   11.0131 C   0  0  0  0  0  0  0  0  0  0  0  0
   38.4594   31.5255   11.3492 C   0  0  0  0  0  0  0  0  0  0  0  0
   38.0774   30.2006   11.9923 C   0  0  0  0  0  0  0  0  0  0  0  0
   43.1048   24.1492   14.5974 O   0  0  0  0  0  0  0  0  0  0  0  0
   43.1863   25.5690   14.4611 C   0  0  0  0  0  0  0  0  0  0  0  0
   42.9588   29.1888   11.1208 C   0  0  0  0  0  0  0  0  0  0  0  0
   42.9712   30.1508   12.1227 C   0  0  0  0  0  0  0  0  0  0  0  0
   43.0068   29.7523   13.4614 C   0  0  0  0  0  0  0  0  0  0  0  0
   43.0332   28.3986   13.7991 C   0  0  0  0  0  0  0  0  0  0  0  0
   43.0375   25.9883   12.9929 C   0  0  1  0  0  0  0  0  0  0  0  0
   43.0484   27.4659   12.7886 C   0  0  0  0  0  0  0  0  0  0  0  0
   43.0102   27.8615   11.4754 C   0  0  0  0  0  0  0  0  0  0  0  0
   42.9553   26.7815   10.5086 C   0  0  1  0  0  0  0  0  0  0  0  0
   44.9415   25.4378    9.8449 C   0  0  0  0  0  0  0  0  0  0  0  0
   44.0539   25.8766   10.7978 C   0  0  0  0  0  0  0  0  0  0  0  0
   44.1226   25.4481   12.0963 C   0  0  0  0  0  0  0  0  0  0  0  0
   45.1062   24.5467   12.4759 C   0  0  0  0  0  0  0  0  0  0  0  0
   46.0282   24.1076   11.5234 C   0  0  0  0  0  0  0  0  0  0  0  0
   45.9450   24.5563   10.2118 C   0  0  0  0  0  0  0  0  0  0  0  0
   39.2828   29.2723   12.0651 C   0  0  0  0  0  0  0  0  0  0  0  0
   38.8387   27.8441   12.3584 C   0  0  0  0  0  0  0  0  0  0  0  0
   40.1893   26.1472   14.0238 O   0  0  0  0  0  0  0  0  0  0  0  0
   40.1618   27.5313    9.8804 O   0  0  0  0  0  0  0  0  0  0  0  0
   40.5023   26.9096   10.8731 C   0  0  0  0  0  0  0  0  0  0  0  0
   39.9582   26.9777   12.0254 N   0  0  0  0  0  0  0  0  0  0  0  0
   40.5336   26.2456   12.8745 C   0  0  0  0  0  0  0  0  0  0  0  0
   41.7263   25.5414   12.3271 C   0  0  1  0  0  0  0  0  0  0  0  0
   41.6908   26.0154   10.8720 C   0  0  2  0  0  0  0  0  0  0  0  0
  1  2  1  0  0  0  0
  2  3  1  0  0  0  0
  3 20  1  0  0  0  0
  4  5  1  0  0  0  0
  6  7  2  0  0  0  0
  6 12  1  0  0  0  0
  7  8  1  0  0  0  0
  8  9  2  0  0  0  0
  9 11  1  0  0  0  0
 10  5  1  1  0  0  0
 10 11  1  0  0  0  0
 10 16  1  0  0  0  0
 10 27  1  0  0  0  0
 11 12  2  0  0  0  0
 13 12  1  1  0  0  0
 13 15  1  0  0  0  0
 13 28  1  0  0  0  0
 14 15  2  0  0  0  0
 14 19  1  0  0  0  0
 15 16  1  0  0  0  0
 16 17  2  0  0  0  0
 17 18  1  0  0  0  0
 18 19  2  0  0  0  0
 20 21  1  0  0  0  0
 21 25  1  0  0  0  0
 22 26  2  0  0  0  0
 23 24  2  0  0  0  0
 24 25  1  0  0  0  0
 25 26  1  0  0  0  0
 27 26  1  1  0  0  0
 27 28  1  0  0  0  0
 28 24  1  1  0  0  0
M  END
>  <CHROM.1>
168.68215237,177.24212499,-165.09414196,163.56351534,-58.47857285,41.89429745
27.24569235,12.02295608,-2.57088481,-0.49908536,2.42774074

>  <Name>
ligand

>  <RI>
0

>  <Rbt.Current_Directory>
/home/itssahil/PROJECTS/Mol_Feturizer/New_Systems/rnas/1YLS

>  <Rbt.Executable>
rbdock ($Id: //depot/dev/client3/rdock/2013.1/src/exe/rbdock.cxx#4 $)

>  <Rbt.Library>
libRbt.so (2013.1, Build901 2013/11/27)

>  <Rbt.Parameter_File>
/export/apps/rDock/src/rDock_2013.1_src/data/scripts/dock_solv.prm

>  <Rbt.Receptor>
prm/blind_docking_80.prm

>  <SCORE>
8.25088

>  <SCORE.INTER>
11.8207

>  <SCORE.INTER.CONST>
1

>  <SCORE.INTER.POLAR>
0

>  <SCORE.INTER.ROT>
5

>  <SCORE.INTER.SOLV>
12.5179

>  <SCORE.INTER.VDW>
-3.22552

>  <SCORE.INTER.norm>
0.422166

>  <SCORE.INTRA>
-3.57598

>  <SCORE.INTRA.DIHEDRAL>
-7.23045

>  <SCORE.INTRA.DIHEDRAL.0>
12.0148

>  <SCORE.INTRA.POLAR>
0

>  <SCORE.INTRA.POLAR.0>
0

>  <SCORE.INTRA.REPUL>
0

>  <SCORE.INTRA.REPUL.0>
0

>  <SCORE.INTRA.SOLV>
0.219254

>  <SCORE.INTRA.SOLV.lig_0>
-10.5235

>  <SCORE.INTRA.VDW>
-0.0703882

>  <SCORE.INTRA.VDW.0>
-1.38455

>  <SCORE.INTRA.norm>
-0.127714

>  <SCORE.RESTR>
0.00620553

>  <SCORE.RESTR.CAVITY>
0.00620553

>  <SCORE.RESTR.norm>
0.000221626

>  <SCORE.SYSTEM>
0

>  <SCORE.SYSTEM.CONST>
0

>  <SCORE.SYSTEM.DIHEDRAL>
0

>  <SCORE.SYSTEM.SOLV>
0

>  <SCORE.SYSTEM.norm>
0

>  <SCORE.heavy>
28

>  <SCORE.norm>
0.294674

>  <RMSD>
15.342

$$$$
ligand
 OpenBabel11021811413D
libRbt.so/2013.1/901 2013/11/27
 28 32  0  0  0  0  0  0  0  0999 V2000
   38.0427   33.3317    9.7678 C   0  0  0  0  0  0  0  0  0  0  0  0
   38.2084   31.9236   10.3043 C   0  0  0  0  0  0  0  0  0  0  0  0
   37.2478   31.6426   11.4501 C   0  0  0  0  0  0  0  0  0  0  0  0
   41.8141   24.4784   13.6729 O   0  0  0  0  0  0  0  0  0  0  0  0
   40.8351   25.1203   12.8539 C   0  0  0  0  0  0  0  0  0  0  0  0
   43.0966   29.4925   13.1400 C   0  0  0  0  0  0  0  0  0  0  0  0
   42.9857   29.4896   14.5245 C   0  0  0  0  0  0  0  0  0  0  0  0
   42.3478   28.4233   15.1634 C   0  0  0  0  0  0  0  0  0  0  0  0
   41.8252   27.3619   14.4234 C   0  0  0  0  0  0  0  0  0  0  0  0
   41.4349   26.3339   12.1320 C   0  0  1  0  0  0  0  0  0  0  0  0
   41.9722   27.3744   13.0561 C   0  0  0  0  0  0  0  0  0  0  0  0
   42.5966   28.4250   12.4326 C   0  0  0  0  0  0  0  0  0  0  0  0
   42.6210   28.3545   10.9840 C   0  0  1  0  0  0  0  0  0  0  0  0
   44.1996   26.9125    9.7112 C   0  0  0  0  0  0  0  0  0  0  0  0
   43.1765   27.0639   10.6161 C   0  0  0  0  0  0  0  0  0  0  0  0
   42.5746   25.9862   11.2082 C   0  0  0  0  0  0  0  0  0  0  0  0
   42.9950   24.7016   10.8964 C   0  0  0  0  0  0  0  0  0  0  0  0
   44.0475   24.5324    9.9942 C   0  0  0  0  0  0  0  0  0  0  0  0
   44.6483   25.6379    9.4066 C   0  0  0  0  0  0  0  0  0  0  0  0
   37.3609   30.1923   11.9016 C   0  0  0  0  0  0  0  0  0  0  0  0
   38.6370   29.9831   12.7083 C   0  0  0  0  0  0  0  0  0  0  0  0
   38.6073   27.2490   12.7384 O   0  0  0  0  0  0  0  0  0  0  0  0
   40.6982   30.6021   10.8760 O   0  0  0  0  0  0  0  0  0  0  0  0
   40.3976   29.4495   11.1390 C   0  0  0  0  0  0  0  0  0  0  0  0
   39.4772   29.0776   11.9408 N   0  0  0  0  0  0  0  0  0  0  0  0
   39.4045   27.8236   12.0432 C   0  0  0  0  0  0  0  0  0  0  0  0
   40.4444   27.1108   11.2503 C   0  0  1  0  0  0  0  0  0  0  0  0
   41.1528   28.2939   10.5855 C   0  0  2  0  0  0  0  0  0  0  0  0
  1  2  1  0  0  0  0
  2  3  1  0  0  0  0
  3 20  1  0  0  0  0
  4  5  1  0  0  0  0
  6  7  2  0  0  0  0
  6 12  1  0  0  0  0
  7  8  1  0  0  0  0
  8  9  2  0  0  0  0
  9 11  1  0  0  0  0
 10  5  1  1  0  0  0
 10 11  1  0  0  0  0
 10 16  1  0  0  0  0
 10 27  1  0  0  0  0
 11 12  2  0  0  0  0
 13 12  1  1  0  0  0
 13 15  1  0  0  0  0
 13 28  1  0  0  0  0
 14 15  2  0  0  0  0
 14 19  1  0  0  0  0
 15 16  1  0  0  0  0
 16 17  2  0  0  0  0
 17 18  1  0  0  0  0
 18 19  2  0  0  0  0
 20 21  1  0  0  0  0
 21 25  1  0  0  0  0
 22 26  2  0  0  0  0
 23 24  2  0  0  0  0
 24 25  1  0  0  0  0
 25 26  1  0  0  0  0
 27 26  1  1  0  0  0
 27 28  1  0  0  0  0
 28 24  1  1  0  0  0
M  END
>  <CHROM.1>
175.76256063,-59.68714283,74.93670986,-114.93210884,94.87691972,41.03920867
28.15741119,11.81571083,-2.63531122,-0.72945161,2.19458723

>  <Name>
ligand

>  <RI>
0

>  <Rbt.Current_Directory>
/home/itssahil/PROJECTS/Mol_Feturizer/New_Systems/rnas/1YLS

>  <Rbt.Executable>
rbdock ($Id: //depot/dev/client3/rdock/2013.1/src/exe/rbdock.cxx#4 $)

>  <Rbt.Library>
libRbt.so (2013.1, Build901 2013/11/27)

>  <Rbt.Parameter_File>
/export/apps/rDock/src/rDock_2013.1_src/data/scripts/dock_solv.prm

>  <Rbt.Receptor>
prm/blind_docking_100.prm

>  <SCORE>
-13.7274

>  <SCORE.INTER>
-13.6581

>  <SCORE.INTER.CONST>
1

>  <SCORE.INTER.POLAR>
0

>  <SCORE.INTER.ROT>
5

>  <SCORE.INTER.SOLV>
10.6647

>  <SCORE.INTER.VDW>
-19.5936

>  <SCORE.INTER.norm>
-0.487789

>  <SCORE.INTRA>
-1.3311

>  <SCORE.INTRA.DIHEDRAL>
-3.40967

>  <SCORE.INTRA.DIHEDRAL.0>
12.0148

>  <SCORE.INTRA.POLAR>
0

>  <SCORE.INTRA.POLAR.0>
0

>  <SCORE.INTRA.REPUL>
0

>  <SCORE.INTRA.REPUL.0>
0

>  <SCORE.INTRA.SOLV>
0.458473

>  <SCORE.INTRA.SOLV.lig_0>
-10.5235

>  <SCORE.INTRA.VDW>
0.144497

>  <SCORE.INTRA.VDW.0>
-1.38455

>  <SCORE.INTRA.norm>
-0.0475393

>  <SCORE.RESTR>
1.26174

>  <SCORE.RESTR.CAVITY>
1.26174

>  <SCORE.RESTR.norm>
0.0450623

>  <SCORE.SYSTEM>
0

>  <SCORE.SYSTEM.CONST>
0

>  <SCORE.SYSTEM.DIHEDRAL>
0

>  <SCORE.SYSTEM.SOLV>
0

>  <SCORE.SYSTEM.norm>
0

>  <SCORE.heavy>
28

>  <SCORE.norm>
-0.490266

>  <RMSD>
15.359

$$$$
ligand
 OpenBabel11021811413D
libRbt.so/2013.1/901 2013/11/27
 28 32  0  0  0  0  0  0  0  0999 V2000
   24.4133   26.1999   34.2579 C   0  0  0  0  0  0  0  0  0  0  0  0
   25.2076   25.1755   33.4719 C   0  0  0  0  0  0  0  0  0  0  0  0
   26.6992   25.2882   33.7495 C   0  0  0  0  0  0  0  0  0  0  0  0
   28.4512   18.4633   35.5484 O   0  0  0  0  0  0  0  0  0  0  0  0
   29.3450   19.5344   35.2402 C   0  0  0  0  0  0  0  0  0  0  0  0
   26.0293   23.0372   36.2644 C   0  0  0  0  0  0  0  0  0  0  0  0
   25.1778   22.5578   35.2773 C   0  0  0  0  0  0  0  0  0  0  0  0
   25.5691   21.4647   34.4999 C   0  0  0  0  0  0  0  0  0  0  0  0
   26.8043   20.8501   34.7090 C   0  0  0  0  0  0  0  0  0  0  0  0
   28.9769   20.7990   36.0270 C   0  0  1  0  0  0  0  0  0  0  0  0
   27.6175   21.3258   35.7109 C   0  0  0  0  0  0  0  0  0  0  0  0
   27.2308   22.4014   36.4698 C   0  0  0  0  0  0  0  0  0  0  0  0
   28.2084   22.8519   37.4421 C   0  0  1  0  0  0  0  0  0  0  0  0
   28.6042   21.7065   39.6153 C   0  0  0  0  0  0  0  0  0  0  0  0
   28.5955   21.7024   38.2411 C   0  0  0  0  0  0  0  0  0  0  0  0
   28.9993   20.6093   37.5225 C   0  0  0  0  0  0  0  0  0  0  0  0
   29.4329   19.4692   38.1831 C   0  0  0  0  0  0  0  0  0  0  0  0
   29.4279   19.4508   39.5794 C   0  0  0  0  0  0  0  0  0  0  0  0
   29.0111   20.5680   40.2912 C   0  0  0  0  0  0  0  0  0  0  0  0
   27.4763   24.2672   32.9287 C   0  0  0  0  0  0  0  0  0  0  0  0
   28.9749   24.4334   33.1516 C   0  0  0  0  0  0  0  0  0  0  0  0
   30.0252   21.9222   33.4117 O   0  0  0  0  0  0  0  0  0  0  0  0
   28.6431   25.2918   35.8240 O   0  0  0  0  0  0  0  0  0  0  0  0
   29.1029   24.1946   35.5544 C   0  0  0  0  0  0  0  0  0  0  0  0
   29.2987   23.7296   34.3823 N   0  0  0  0  0  0  0  0  0  0  0  0
   29.7590   22.5566   34.3995 C   0  0  0  0  0  0  0  0  0  0  0  0
   29.8983   22.0030   35.7751 C   0  0  1  0  0  0  0  0  0  0  0  0
   29.4344   23.1999   36.6093 C   0  0  2  0  0  0  0  0  0  0  0  0
  1  2  1  0  0  0  0
  2  3  1  0  0  0  0
  3 20  1  0  0  0  0
  4  5  1  0  0  0  0
  6  7  2  0  0  0  0
  6 12  1  0  0  0  0
  7  8  1  0  0  0  0
  8  9  2  0  0  0  0
  9 11  1  0  0  0  0
 10  5  1  6  0  0  0
 10 11  1  0  0  0  0
 10 16  1  0  0  0  0
 10 27  1  0  0  0  0
 11 12  2  0  0  0  0
 13 12  1  6  0  0  0
 13 15  1  0  0  0  0
 13 28  1  0  0  0  0
 14 15  2  0  0  0  0
 14 19  1  0  0  0  0
 15 16  1  0  0  0  0
 16 17  2  0  0  0  0
 17 18  1  0  0  0  0
 18 19  2  0  0  0  0
 20 21  1  0  0  0  0
 21 25  1  0  0  0  0
 22 26  2  0  0  0  0
 23 24  2  0  0  0  0
 24 25  1  0  0  0  0
 25 26  1  0  0  0  0
 27 26  1  6  0  0  0
 27 28  1  0  0  0  0
 28 24  1  6  0  0  0
M  END
>  <CHROM.1>
-178.92031455,-61.90784857,176.91506436,82.34839461,-79.68979640,28.08767511
22.39086939,35.75716145,2.13002609,0.79122660,-1.14324928

>  <Name>
ligand

>  <RI>
0

>  <Rbt.Current_Directory>
/home/itssahil/PROJECTS/Mol_Feturizer/New_Systems/rnas/1YLS

>  <Rbt.Executable>
rbdock ($Id: //depot/dev/client3/rdock/2013.1/src/exe/rbdock.cxx#4 $)

>  <Rbt.Library>
libRbt.so (2013.1, Build901 2013/11/27)

>  <Rbt.Parameter_File>
/export/apps/rDock/src/rDock_2013.1_src/data/scripts/dock_solv.prm

>  <Rbt.Receptor>
prm/blind_docking_80.prm

>  <SCORE>
-19.2505

>  <SCORE.INTER>
-14.0414

>  <SCORE.INTER.CONST>
1

>  <SCORE.INTER.POLAR>
0

>  <SCORE.INTER.ROT>
5

>  <SCORE.INTER.SOLV>
5.64541

>  <SCORE.INTER.VDW>
-18.1761

>  <SCORE.INTER.norm>
-0.501479

>  <SCORE.INTRA>
-5.20907

>  <SCORE.INTRA.DIHEDRAL>
-7.71076

>  <SCORE.INTRA.DIHEDRAL.0>
12.0148

>  <SCORE.INTRA.POLAR>
0

>  <SCORE.INTRA.POLAR.0>
0

>  <SCORE.INTRA.REPUL>
0

>  <SCORE.INTRA.REPUL.0>
0

>  <SCORE.INTRA.SOLV>
0.281151

>  <SCORE.INTRA.SOLV.lig_0>
-10.5235

>  <SCORE.INTRA.VDW>
-1.49427

>  <SCORE.INTRA.VDW.0>
-1.38455

>  <SCORE.INTRA.norm>
-0.186038

>  <SCORE.RESTR>
0

>  <SCORE.RESTR.CAVITY>
0

>  <SCORE.RESTR.norm>
0

>  <SCORE.SYSTEM>
0

>  <SCORE.SYSTEM.CONST>
0

>  <SCORE.SYSTEM.DIHEDRAL>
0

>  <SCORE.SYSTEM.SOLV>
0

>  <SCORE.SYSTEM.norm>
0

>  <SCORE.heavy>
28

>  <SCORE.norm>
-0.687518

>  <RMSD>
15.424

$$$$
ligand
 OpenBabel11021811413D
libRbt.so/2013.1/901 2013/11/27
 28 32  0  0  0  0  0  0  0  0999 V2000
   24.2181   25.4384   32.8383 C   0  0  0  0  0  0  0  0  0  0  0  0
   25.4627   25.9607   32.1483 C   0  0  0  0  0  0  0  0  0  0  0  0
   26.3580   26.7278   33.1100 C   0  0  0  0  0  0  0  0  0  0  0  0
   29.1517   19.0707   34.5974 O   0  0  0  0  0  0  0  0  0  0  0  0
   27.9801   19.8822   34.6968 C   0  0  0  0  0  0  0  0  0  0  0  0
   26.0886   23.7033   37.1734 C   0  0  0  0  0  0  0  0  0  0  0  0
   24.8884   23.5913   36.4833 C   0  0  0  0  0  0  0  0  0  0  0  0
   24.7472   22.6089   35.4998 C   0  0  0  0  0  0  0  0  0  0  0  0
   25.7989   21.7394   35.2082 C   0  0  0  0  0  0  0  0  0  0  0  0
   28.1873   21.0234   35.7009 C   0  0  1  0  0  0  0  0  0  0  0  0
   26.9674   21.8525   35.9245 C   0  0  0  0  0  0  0  0  0  0  0  0
   27.1029   22.8205   36.8873 C   0  0  0  0  0  0  0  0  0  0  0  0
   28.4078   22.8832   37.5176 C   0  0  1  0  0  0  0  0  0  0  0  0
   29.1513   21.2957   39.2835 C   0  0  0  0  0  0  0  0  0  0  0  0
   28.7263   21.5515   38.0019 C   0  0  0  0  0  0  0  0  0  0  0  0
   28.6145   20.5556   37.0691 C   0  0  0  0  0  0  0  0  0  0  0  0
   28.9362   19.2500   37.4094 C   0  0  0  0  0  0  0  0  0  0  0  0
   29.3498   18.9711   38.7138 C   0  0  0  0  0  0  0  0  0  0  0  0
   29.4535   19.9939   39.6475 C   0  0  0  0  0  0  0  0  0  0  0  0
   27.0278   25.7771   34.0936 C   0  0  0  0  0  0  0  0  0  0  0  0
   28.2005   25.0638   33.4311 C   0  0  0  0  0  0  0  0  0  0  0  0
   28.6351   22.3938   33.0323 O   0  0  0  0  0  0  0  0  0  0  0  0
   28.9130   25.4529   36.1385 O   0  0  0  0  0  0  0  0  0  0  0  0
   28.9877   24.3581   35.6058 C   0  0  0  0  0  0  0  0  0  0  0  0
   28.6999   24.0925   34.3913 N   0  0  0  0  0  0  0  0  0  0  0  0
   28.8434   22.8707   34.1177 C   0  0  0  0  0  0  0  0  0  0  0  0
   29.2533   22.0525   35.2927 C   0  0  1  0  0  0  0  0  0  0  0  0
   29.3701   23.1381   36.3657 C   0  0  2  0  0  0  0  0  0  0  0  0
  1  2  1  0  0  0  0
  2  3  1  0  0  0  0
  3 20  1  0  0  0  0
  4  5  1  0  0  0  0
  6  7  2  0  0  0  0
  6 12  1  0  0  0  0
  7  8  1  0  0  0  0
  8  9  2  0  0  0  0
  9 11  1  0  0  0  0
 10  5  1  6  0  0  0
 10 11  1  0  0  0  0
 10 16  1  0  0  0  0
 10 27  1  0  0  0  0
 11 12  2  0  0  0  0
 13 12  1  6  0  0  0
 13 15  1  0  0  0  0
 13 28  1  0  0  0  0
 14 15  2  0  0  0  0
 14 19  1  0  0  0  0
 15 16  1  0  0  0  0
 16 17  2  0  0  0  0
 17 18  1  0  0  0  0
 18 19  2  0  0  0  0
 20 21  1  0  0  0  0
 21 25  1  0  0  0  0
 22 26  2  0  0  0  0
 23 24  2  0  0  0  0
 24 25  1  0  0  0  0
 25 26  1  0  0  0  0
 27 26  1  6  0  0  0
 27 28  1  0  0  0  0
 28 24  1  6  0  0  0
M  END
>  <CHROM.1>
71.36232893,-175.90676121,78.07641296,-174.79191501,-50.46544109,27.77060785
22.72324417,35.60362760,-2.63749363,-1.12968157,1.44864894

>  <Name>
ligand

>  <RI>
0

>  <Rbt.Current_Directory>
/home/itssahil/PROJECTS/Mol_Feturizer/New_Systems/rnas/1YLS

>  <Rbt.Executable>
rbdock ($Id: //depot/dev/client3/rdock/2013.1/src/exe/rbdock.cxx#4 $)

>  <Rbt.Library>
libRbt.so (2013.1, Build901 2013/11/27)

>  <Rbt.Parameter_File>
/export/apps/rDock/src/rDock_2013.1_src/data/scripts/dock_solv.prm

>  <Rbt.Receptor>
prm/blind_docking_80.prm

>  <SCORE>
-12.7944

>  <SCORE.INTER>
-10.7183

>  <SCORE.INTER.CONST>
1

>  <SCORE.INTER.POLAR>
0

>  <SCORE.INTER.ROT>
5

>  <SCORE.INTER.SOLV>
5.57061

>  <SCORE.INTER.VDW>
-15.9357

>  <SCORE.INTER.norm>
-0.382797

>  <SCORE.INTRA>
-2.07604

>  <SCORE.INTRA.DIHEDRAL>
-7.71611

>  <SCORE.INTRA.DIHEDRAL.0>
12.0148

>  <SCORE.INTRA.POLAR>
0

>  <SCORE.INTRA.POLAR.0>
0

>  <SCORE.INTRA.REPUL>
0

>  <SCORE.INTRA.REPUL.0>
0

>  <SCORE.INTRA.SOLV>
0.162481

>  <SCORE.INTRA.SOLV.lig_0>
-10.5235

>  <SCORE.INTRA.VDW>
1.70078

>  <SCORE.INTRA.VDW.0>
-1.38455

>  <SCORE.INTRA.norm>
-0.0741442

>  <SCORE.RESTR>
0

>  <SCORE.RESTR.CAVITY>
0

>  <SCORE.RESTR.norm>
0

>  <SCORE.SYSTEM>
0

>  <SCORE.SYSTEM.CONST>
0

>  <SCORE.SYSTEM.DIHEDRAL>
0

>  <SCORE.SYSTEM.SOLV>
0

>  <SCORE.SYSTEM.norm>
0

>  <SCORE.heavy>
28

>  <SCORE.norm>
-0.456941

>  <RMSD>
15.515

$$$$
ligand
 OpenBabel11021811413D
libRbt.so/2013.1/901 2013/11/27
 28 32  0  0  0  0  0  0  0  0999 V2000
   23.5815   27.7660   32.6114 C   0  0  0  0  0  0  0  0  0  0  0  0
   24.3413   26.8420   33.5424 C   0  0  0  0  0  0  0  0  0  0  0  0
   25.7441   26.5555   33.0276 C   0  0  0  0  0  0  0  0  0  0  0  0
   27.9974   19.1568   35.1302 O   0  0  0  0  0  0  0  0  0  0  0  0
   28.7705   20.2909   34.7338 C   0  0  0  0  0  0  0  0  0  0  0  0
   25.9013   23.5361   37.0895 C   0  0  0  0  0  0  0  0  0  0  0  0
   24.8091   23.1770   36.3102 C   0  0  0  0  0  0  0  0  0  0  0  0
   24.9616   22.2118   35.3115 C   0  0  0  0  0  0  0  0  0  0  0  0
   26.1989   21.6047   35.0934 C   0  0  0  0  0  0  0  0  0  0  0  0
   28.6452   21.4252   35.7592 C   0  0  1  0  0  0  0  0  0  0  0  0
   27.2583   21.9571   35.8965 C   0  0  0  0  0  0  0  0  0  0  0  0
   27.1049   22.9076   36.8739 C   0  0  0  0  0  0  0  0  0  0  0  0
   28.3142   23.2432   37.6012 C   0  0  1  0  0  0  0  0  0  0  0  0
   29.2647   21.8184   39.4061 C   0  0  0  0  0  0  0  0  0  0  0  0
   28.8863   22.0042   38.0981 C   0  0  0  0  0  0  0  0  0  0  0  0
   29.0668   21.0311   37.1521 C   0  0  0  0  0  0  0  0  0  0  0  0
   29.6465   19.8216   37.5059 C   0  0  0  0  0  0  0  0  0  0  0  0
   30.0173   19.6102   38.8356 C   0  0  0  0  0  0  0  0  0  0  0  0
   29.8229   20.6078   39.7820 C   0  0  0  0  0  0  0  0  0  0  0  0
   26.4596   25.5686   33.9409 C   0  0  0  0  0  0  0  0  0  0  0  0
   27.9190   25.4211   33.5271 C   0  0  0  0  0  0  0  0  0  0  0  0
   28.9661   22.9245   33.1421 O   0  0  0  0  0  0  0  0  0  0  0  0
   28.3308   25.8934   36.2832 O   0  0  0  0  0  0  0  0  0  0  0  0
   28.6859   24.8556   35.7495 C   0  0  0  0  0  0  0  0  0  0  0  0
   28.5525   24.5620   34.5148 N   0  0  0  0  0  0  0  0  0  0  0  0
   28.9843   23.4096   34.2437 C   0  0  0  0  0  0  0  0  0  0  0  0
   29.4812   22.6747   35.4401 C   0  0  1  0  0  0  0  0  0  0  0  0
   29.2755   23.7330   36.5269 C   0  0  2  0  0  0  0  0  0  0  0  0
  1  2  1  0  0  0  0
  2  3  1  0  0  0  0
  3 20  1  0  0  0  0
  4  5  1  0  0  0  0
  6  7  2  0  0  0  0
  6 12  1  0  0  0  0
  7  8  1  0  0  0  0
  8  9  2  0  0  0  0
  9 11  1  0  0  0  0
 10  5  1  6  0  0  0
 10 11  1  0  0  0  0
 10 16  1  0  0  0  0
 10 27  1  0  0  0  0
 11 12  2  0  0  0  0
 13 12  1  6  0  0  0
 13 15  1  0  0  0  0
 13 28  1  0  0  0  0
 14 15  2  0  0  0  0
 14 19  1  0  0  0  0
 15 16  1  0  0  0  0
 16 17  2  0  0  0  0
 17 18  1  0  0  0  0
 18 19  2  0  0  0  0
 20 21  1  0  0  0  0
 21 25  1  0  0  0  0
 22 26  2  0  0  0  0
 23 24  2  0  0  0  0
 24 25  1  0  0  0  0
 25 26  1  0  0  0  0
 27 26  1  6  0  0  0
 27 28  1  0  0  0  0
 28 24  1  6  0  0  0
M  END
>  <CHROM.1>
-177.02052012,-62.96893438,-172.73199627,175.01355612,-63.71126046,27.72199271
23.11170943,35.70930088,2.71595266,-1.02819576,0.45562866

>  <Name>
ligand

>  <RI>
0

>  <Rbt.Current_Directory>
/home/itssahil/PROJECTS/Mol_Feturizer/New_Systems/rnas/1YLS

>  <Rbt.Executable>
rbdock ($Id: //depot/dev/client3/rdock/2013.1/src/exe/rbdock.cxx#4 $)

>  <Rbt.Library>
libRbt.so (2013.1, Build901 2013/11/27)

>  <Rbt.Parameter_File>
/export/apps/rDock/src/rDock_2013.1_src/data/scripts/dock_solv.prm

>  <Rbt.Receptor>
prm/blind_docking_80.prm

>  <SCORE>
-17.904

>  <SCORE.INTER>
-12.8578

>  <SCORE.INTER.CONST>
1

>  <SCORE.INTER.POLAR>
0

>  <SCORE.INTER.ROT>
5

>  <SCORE.INTER.SOLV>
5.84127

>  <SCORE.INTER.VDW>
-17.4523

>  <SCORE.INTER.norm>
-0.459207

>  <SCORE.INTRA>
-5.04622

>  <SCORE.INTRA.DIHEDRAL>
-9.19435

>  <SCORE.INTRA.DIHEDRAL.0>
12.0148

>  <SCORE.INTRA.POLAR>
0

>  <SCORE.INTRA.POLAR.0>
0

>  <SCORE.INTRA.REPUL>
0

>  <SCORE.INTRA.REPUL.0>
0

>  <SCORE.INTRA.SOLV>
-0.0199299

>  <SCORE.INTRA.SOLV.lig_0>
-10.5235

>  <SCORE.INTRA.VDW>
-0.439078

>  <SCORE.INTRA.VDW.0>
-1.38455

>  <SCORE.INTRA.norm>
-0.180222

>  <SCORE.RESTR>
0

>  <SCORE.RESTR.CAVITY>
0

>  <SCORE.RESTR.norm>
0

>  <SCORE.SYSTEM>
0

>  <SCORE.SYSTEM.CONST>
0

>  <SCORE.SYSTEM.DIHEDRAL>
0

>  <SCORE.SYSTEM.SOLV>
0

>  <SCORE.SYSTEM.norm>
0

>  <SCORE.heavy>
28

>  <SCORE.norm>
-0.639429

>  <RMSD>
15.595

$$$$
ligand
 OpenBabel11021811413D
libRbt.so/2013.1/901 2013/11/27
 28 32  0  0  0  0  0  0  0  0999 V2000
   23.7099   25.7246   32.6302 C   0  0  0  0  0  0  0  0  0  0  0  0
   24.8205   26.7461   32.4857 C   0  0  0  0  0  0  0  0  0  0  0  0
   25.2494   27.3039   33.8347 C   0  0  0  0  0  0  0  0  0  0  0  0
   27.8824   21.5181   33.1565 O   0  0  0  0  0  0  0  0  0  0  0  0
   28.5422   20.9578   34.2930 C   0  0  0  0  0  0  0  0  0  0  0  0
   25.6669   23.6159   37.2896 C   0  0  0  0  0  0  0  0  0  0  0  0
   24.5563   23.3591   36.4959 C   0  0  0  0  0  0  0  0  0  0  0  0
   24.6995   22.5943   35.3355 C   0  0  0  0  0  0  0  0  0  0  0  0
   25.9460   22.0847   34.9699 C   0  0  0  0  0  0  0  0  0  0  0  0
   28.4217   21.8851   35.5092 C   0  0  1  0  0  0  0  0  0  0  0  0
   27.0250   22.3294   35.7868 C   0  0  0  0  0  0  0  0  0  0  0  0
   26.8805   23.0835   36.9239 C   0  0  0  0  0  0  0  0  0  0  0  0
   28.1067   23.3310   37.6581 C   0  0  1  0  0  0  0  0  0  0  0  0
   29.1749   21.6453   39.1443 C   0  0  0  0  0  0  0  0  0  0  0  0
   28.7382   22.0465   37.9046 C   0  0  0  0  0  0  0  0  0  0  0  0
   28.9118   21.2657   36.7935 C   0  0  0  0  0  0  0  0  0  0  0  0
   29.5442   20.0361   36.9043 C   0  0  0  0  0  0  0  0  0  0  0  0
   29.9750   19.6055   38.1610 C   0  0  0  0  0  0  0  0  0  0  0  0
   29.7868   20.4098   39.2774 C   0  0  0  0  0  0  0  0  0  0  0  0
   26.0589   26.2719   34.6091 C   0  0  0  0  0  0  0  0  0  0  0  0
   27.4770   26.1836   34.0576 C   0  0  0  0  0  0  0  0  0  0  0  0
   28.5880   23.8387   33.1949 O   0  0  0  0  0  0  0  0  0  0  0  0
   27.9842   26.1724   36.8382 O   0  0  0  0  0  0  0  0  0  0  0  0
   28.3509   25.2612   36.1149 C   0  0  0  0  0  0  0  0  0  0  0  0
   28.1774   25.1876   34.8528 N   0  0  0  0  0  0  0  0  0  0  0  0
   28.6350   24.1198   34.3645 C   0  0  0  0  0  0  0  0  0  0  0  0
   29.2032   23.2033   35.3917 C   0  0  1  0  0  0  0  0  0  0  0  0
   29.0074   24.0418   36.6574 C   0  0  2  0  0  0  0  0  0  0  0  0
  1  2  1  0  0  0  0
  2  3  1  0  0  0  0
  3 20  1  0  0  0  0
  4  5  1  0  0  0  0
  6  7  2  0  0  0  0
  6 12  1  0  0  0  0
  7  8  1  0  0  0  0
  8  9  2  0  0  0  0
  9 11  1  0  0  0  0
 10  5  1  6  0  0  0
 10 11  1  0  0  0  0
 10 16  1  0  0  0  0
 10 27  1  0  0  0  0
 11 12  2  0  0  0  0
 13 12  1  6  0  0  0
 13 15  1  0  0  0  0
 13 28  1  0  0  0  0
 14 15  2  0  0  0  0
 14 19  1  0  0  0  0
 15 16  1  0  0  0  0
 16 17  2  0  0  0  0
 17 18  1  0  0  0  0
 18 19  2  0  0  0  0
 20 21  1  0  0  0  0
 21 25  1  0  0  0  0
 22 26  2  0  0  0  0
 23 24  2  0  0  0  0
 24 25  1  0  0  0  0
 25 26  1  0  0  0  0
 27 26  1  6  0  0  0
 27 28  1  0  0  0  0
 28 24  1  6  0  0  0
M  END
>  <CHROM.1>
73.59271483,50.47375559,76.61735409,179.71923171,-59.59917838,27.51146077
23.45685646,35.61787091,2.98346309,-1.04362756,0.72633904

>  <Name>
ligand

>  <RI>
0

>  <Rbt.Current_Directory>
/home/itssahil/PROJECTS/Mol_Feturizer/New_Systems/rnas/1YLS

>  <Rbt.Executable>
rbdock ($Id: //depot/dev/client3/rdock/2013.1/src/exe/rbdock.cxx#4 $)

>  <Rbt.Library>
libRbt.so (2013.1, Build901 2013/11/27)

>  <Rbt.Parameter_File>
/export/apps/rDock/src/rDock_2013.1_src/data/scripts/dock_solv.prm

>  <Rbt.Receptor>
prm/blind_docking_80.prm

>  <SCORE>
-12.5559

>  <SCORE.INTER>
-11.1609

>  <SCORE.INTER.CONST>
1

>  <SCORE.INTER.POLAR>
0

>  <SCORE.INTER.ROT>
5

>  <SCORE.INTER.SOLV>
4.72094

>  <SCORE.INTER.VDW>
-15.9476

>  <SCORE.INTER.norm>
-0.398603

>  <SCORE.INTRA>
-1.39502

>  <SCORE.INTRA.DIHEDRAL>
-7.50356

>  <SCORE.INTRA.DIHEDRAL.0>
12.0148

>  <SCORE.INTRA.POLAR>
0

>  <SCORE.INTRA.POLAR.0>
0

>  <SCORE.INTRA.REPUL>
0

>  <SCORE.INTRA.REPUL.0>
0

>  <SCORE.INTRA.SOLV>
0.628313

>  <SCORE.INTRA.SOLV.lig_0>
-10.5235

>  <SCORE.INTRA.VDW>
2.0426

>  <SCORE.INTRA.VDW.0>
-1.38455

>  <SCORE.INTRA.norm>
-0.0498223

>  <SCORE.RESTR>
0

>  <SCORE.RESTR.CAVITY>
0

>  <SCORE.RESTR.norm>
0

>  <SCORE.SYSTEM>
0

>  <SCORE.SYSTEM.CONST>
0

>  <SCORE.SYSTEM.DIHEDRAL>
0

>  <SCORE.SYSTEM.SOLV>
0

>  <SCORE.SYSTEM.norm>
0

>  <SCORE.heavy>
28

>  <SCORE.norm>
-0.448425

>  <RMSD>
15.636

$$$$
ligand
 OpenBabel11021811413D
libRbt.so/2013.1/901 2013/11/27
 28 32  0  0  0  0  0  0  0  0999 V2000
   42.8805   29.9394   12.6136 C   0  0  0  0  0  0  0  0  0  0  0  0
   41.7498   29.0973   13.1707 C   0  0  0  0  0  0  0  0  0  0  0  0
   42.2307   28.1756   14.2815 C   0  0  0  0  0  0  0  0  0  0  0  0
   48.5207   23.3152   12.3344 O   0  0  0  0  0  0  0  0  0  0  0  0
   47.5835   24.1855   11.6976 C   0  0  0  0  0  0  0  0  0  0  0  0
   42.7824   24.6889   10.6936 C   0  0  0  0  0  0  0  0  0  0  0  0
   43.0032   25.9404   10.1330 C   0  0  0  0  0  0  0  0  0  0  0  0
   44.2958   26.4706   10.1163 C   0  0  0  0  0  0  0  0  0  0  0  0
   45.3648   25.7531   10.6544 C   0  0  0  0  0  0  0  0  0  0  0  0
   46.1557   23.6382   11.8212 C   0  0  1  0  0  0  0  0  0  0  0  0
   45.1251   24.5045   11.1787 C   0  0  0  0  0  0  0  0  0  0  0  0
   43.8538   23.9889   11.1958 C   0  0  0  0  0  0  0  0  0  0  0  0
   43.7222   22.6972   11.8424 C   0  0  1  0  0  0  0  0  0  0  0  0
   44.3694   20.5529   10.7588 C   0  0  0  0  0  0  0  0  0  0  0  0
   44.6907   21.8011   11.2354 C   0  0  0  0  0  0  0  0  0  0  0  0
   45.9757   22.2728   11.2076 C   0  0  0  0  0  0  0  0  0  0  0  0
   46.9914   21.4824   10.6901 C   0  0  0  0  0  0  0  0  0  0  0  0
   46.6770   20.2197   10.1830 C   0  0  0  0  0  0  0  0  0  0  0  0
   45.3671   19.7599   10.2164 C   0  0  0  0  0  0  0  0  0  0  0  0
   42.9900   26.9887   13.7029 C   0  0  0  0  0  0  0  0  0  0  0  0
   43.7696   26.2698   14.7975 C   0  0  0  0  0  0  0  0  0  0  0  0
   46.3332   25.5706   14.1524 O   0  0  0  0  0  0  0  0  0  0  0  0
   42.2592   23.9963   14.0635 O   0  0  0  0  0  0  0  0  0  0  0  0
   43.4696   24.0375   13.9177 C   0  0  0  0  0  0  0  0  0  0  0  0
   44.2310   25.0127   14.2302 N   0  0  0  0  0  0  0  0  0  0  0  0
   45.4382   24.7934   13.9426 C   0  0  0  0  0  0  0  0  0  0  0  0
   45.6494   23.4845   13.2642 C   0  0  1  0  0  0  0  0  0  0  0  0
   44.2208   22.9343   13.2613 C   0  0  2  0  0  0  0  0  0  0  0  0
  1  2  1  0  0  0  0
  2  3  1  0  0  0  0
  3 20  1  0  0  0  0
  4  5  1  0  0  0  0
  6  7  2  0  0  0  0
  6 12  1  0  0  0  0
  7  8  1  0  0  0  0
  8  9  2  0  0  0  0
  9 11  1  0  0  0  0
 10  5  1  6  0  0  0
 10 11  1  0  0  0  0
 10 16  1  0  0  0  0
 10 27  1  0  0  0  0
 11 12  2  0  0  0  0
 13 12  1  6  0  0  0
 13 15  1  0  0  0  0
 13 28  1  0  0  0  0
 14 15  2  0  0  0  0
 14 19  1  0  0  0  0
 15 16  1  0  0  0  0
 16 17  2  0  0  0  0
 17 18  1  0  0  0  0
 18 19  2  0  0  0  0
 20 21  1  0  0  0  0
 21 25  1  0  0  0  0
 22 26  2  0  0  0  0
 23 24  2  0  0  0  0
 24 25  1  0  0  0  0
 25 26  1  0  0  0  0
 27 26  1  6  0  0  0
 27 28  1  0  0  0  0
 28 24  1  6  0  0  0
M  END
>  <CHROM.1>
-76.12072435,179.82929407,165.44093017,168.46242754,-68.81698444,44.62308799
24.45093917,12.29096788,-2.06367287,0.36093097,-2.60009834

>  <Name>
ligand

>  <RI>
0

>  <Rbt.Current_Directory>
/home/itssahil/PROJECTS/Mol_Feturizer/New_Systems/rnas/1YLS

>  <Rbt.Executable>
rbdock ($Id: //depot/dev/client3/rdock/2013.1/src/exe/rbdock.cxx#4 $)

>  <Rbt.Library>
libRbt.so (2013.1, Build901 2013/11/27)

>  <Rbt.Parameter_File>
/export/apps/rDock/src/rDock_2013.1_src/data/scripts/dock_solv.prm

>  <Rbt.Receptor>
prm/blind_docking_60.prm

>  <SCORE>
-17.9598

>  <SCORE.INTER>
-14.5128

>  <SCORE.INTER.CONST>
1

>  <SCORE.INTER.POLAR>
0

>  <SCORE.INTER.ROT>
5

>  <SCORE.INTER.SOLV>
9.93798

>  <SCORE.INTER.VDW>
-19.9212

>  <SCORE.INTER.norm>
-0.518316

>  <SCORE.INTRA>
-3.44697

>  <SCORE.INTRA.DIHEDRAL>
-7.15394

>  <SCORE.INTRA.DIHEDRAL.0>
12.0148

>  <SCORE.INTRA.POLAR>
0

>  <SCORE.INTRA.POLAR.0>
0

>  <SCORE.INTRA.REPUL>
0

>  <SCORE.INTRA.REPUL.0>
0

>  <SCORE.INTRA.SOLV>
0.163655

>  <SCORE.INTRA.SOLV.lig_0>
-10.5235

>  <SCORE.INTRA.VDW>
0.0481755

>  <SCORE.INTRA.VDW.0>
-1.38455

>  <SCORE.INTRA.norm>
-0.123106

>  <SCORE.RESTR>
0

>  <SCORE.RESTR.CAVITY>
0

>  <SCORE.RESTR.norm>
0

>  <SCORE.SYSTEM>
0

>  <SCORE.SYSTEM.CONST>
0

>  <SCORE.SYSTEM.DIHEDRAL>
0

>  <SCORE.SYSTEM.SOLV>
0

>  <SCORE.SYSTEM.norm>
0

>  <SCORE.heavy>
28

>  <SCORE.norm>
-0.641422

>  <RMSD>
15.658

$$$$
ligand
 OpenBabel11021811413D
libRbt.so/2013.1/901 2013/11/27
 28 32  0  0  0  0  0  0  0  0999 V2000
   24.1626   28.7244   32.2626 C   0  0  0  0  0  0  0  0  0  0  0  0
   25.2411   28.1687   33.1714 C   0  0  0  0  0  0  0  0  0  0  0  0
   25.0825   26.6700   33.3799 C   0  0  0  0  0  0  0  0  0  0  0  0
   30.0355   20.7699   34.2473 O   0  0  0  0  0  0  0  0  0  0  0  0
   28.6500   21.0510   34.4537 C   0  0  0  0  0  0  0  0  0  0  0  0
   25.5786   23.6479   37.3059 C   0  0  0  0  0  0  0  0  0  0  0  0
   24.5085   23.3489   36.4723 C   0  0  0  0  0  0  0  0  0  0  0  0
   24.7208   22.5775   35.3269 C   0  0  0  0  0  0  0  0  0  0  0  0
   25.9958   22.1034   35.0160 C   0  0  0  0  0  0  0  0  0  0  0  0
   28.4533   21.9862   35.6539 C   0  0  1  0  0  0  0  0  0  0  0  0
   27.0337   22.3895   35.8717 C   0  0  0  0  0  0  0  0  0  0  0  0
   26.8215   23.1499   36.9938 C   0  0  0  0  0  0  0  0  0  0  0  0
   28.0096   23.4426   37.7727 C   0  0  1  0  0  0  0  0  0  0  0  0
   29.0696   21.8058   39.3180 C   0  0  0  0  0  0  0  0  0  0  0  0
   28.6701   22.1809   38.0578 C   0  0  0  0  0  0  0  0  0  0  0  0
   28.9111   21.3949   36.9631 C   0  0  0  0  0  0  0  0  0  0  0  0
   29.5761   20.1868   37.1122 C   0  0  0  0  0  0  0  0  0  0  0  0
   29.9701   19.7822   38.3894 C   0  0  0  0  0  0  0  0  0  0  0  0
   29.7134   20.5912   39.4886 C   0  0  0  0  0  0  0  0  0  0  0  0
   25.9666   26.1909   34.5241 C   0  0  0  0  0  0  0  0  0  0  0  0
   27.4351   26.2387   34.1189 C   0  0  0  0  0  0  0  0  0  0  0  0
   28.6506   23.9210   33.3263 O   0  0  0  0  0  0  0  0  0  0  0  0
   27.8324   26.2706   36.9172 O   0  0  0  0  0  0  0  0  0  0  0  0
   28.2551   25.3642   36.2189 C   0  0  0  0  0  0  0  0  0  0  0  0
   28.1338   25.2728   34.9518 N   0  0  0  0  0  0  0  0  0  0  0  0
   28.6428   24.2149   34.4937 C   0  0  0  0  0  0  0  0  0  0  0  0
   29.1980   23.3267   35.5524 C   0  0  1  0  0  0  0  0  0  0  0  0
   28.9269   24.1712   36.8001 C   0  0  2  0  0  0  0  0  0  0  0  0
  1  2  1  0  0  0  0
  2  3  1  0  0  0  0
  3 20  1  0  0  0  0
  4  5  1  0  0  0  0
  6  7  2  0  0  0  0
  6 12  1  0  0  0  0
  7  8  1  0  0  0  0
  8  9  2  0  0  0  0
  9 11  1  0  0  0  0
 10  5  1  6  0  0  0
 10 11  1  0  0  0  0
 10 16  1  0  0  0  0
 10 27  1  0  0  0  0
 11 12  2  0  0  0  0
 13 12  1  6  0  0  0
 13 15  1  0  0  0  0
 13 28  1  0  0  0  0
 14 15  2  0  0  0  0
 14 19  1  0  0  0  0
 15 16  1  0  0  0  0
 16 17  2  0  0  0  0
 17 18  1  0  0  0  0
 18 19  2  0  0  0  0
 20 21  1  0  0  0  0
 21 25  1  0  0  0  0
 22 26  2  0  0  0  0
 23 24  2  0  0  0  0
 24 25  1  0  0  0  0
 25 26  1  0  0  0  0
 27 26  1  6  0  0  0
 27 28  1  0  0  0  0
 28 24  1  6  0  0  0
M  END
>  <CHROM.1>
-167.30156416,176.33091481,-70.62398552,-155.60403138,-64.90762528,27.60785009
23.64944620,35.74827659,-2.33178711,-0.84136555,1.95637369

>  <Name>
ligand

>  <RI>
0

>  <Rbt.Current_Directory>
/home/itssahil/PROJECTS/Mol_Feturizer/New_Systems/rnas/1YLS

>  <Rbt.Executable>
rbdock ($Id: //depot/dev/client3/rdock/2013.1/src/exe/rbdock.cxx#4 $)

>  <Rbt.Library>
libRbt.so (2013.1, Build901 2013/11/27)

>  <Rbt.Parameter_File>
/export/apps/rDock/src/rDock_2013.1_src/data/scripts/dock_solv.prm

>  <Rbt.Receptor>
prm/blind_docking_80.prm

>  <SCORE>
-14.5404

>  <SCORE.INTER>
-11.651

>  <SCORE.INTER.CONST>
1

>  <SCORE.INTER.POLAR>
0

>  <SCORE.INTER.ROT>
5

>  <SCORE.INTER.SOLV>
7.24996

>  <SCORE.INTER.VDW>
-17.1173

>  <SCORE.INTER.norm>
-0.416106

>  <SCORE.INTRA>
-2.88944

>  <SCORE.INTRA.DIHEDRAL>
-6.44473

>  <SCORE.INTRA.DIHEDRAL.0>
12.0148

>  <SCORE.INTRA.POLAR>
0

>  <SCORE.INTRA.POLAR.0>
0

>  <SCORE.INTRA.REPUL>
0

>  <SCORE.INTRA.REPUL.0>
0

>  <SCORE.INTRA.SOLV>
0.195219

>  <SCORE.INTRA.SOLV.lig_0>
-10.5235

>  <SCORE.INTRA.VDW>
0.235316

>  <SCORE.INTRA.VDW.0>
-1.38455

>  <SCORE.INTRA.norm>
-0.103194

>  <SCORE.RESTR>
0

>  <SCORE.RESTR.CAVITY>
0

>  <SCORE.RESTR.norm>
0

>  <SCORE.SYSTEM>
0

>  <SCORE.SYSTEM.CONST>
0

>  <SCORE.SYSTEM.DIHEDRAL>
0

>  <SCORE.SYSTEM.SOLV>
0

>  <SCORE.SYSTEM.norm>
0

>  <SCORE.heavy>
28

>  <SCORE.norm>
-0.5193

>  <RMSD>
15.673

$$$$
ligand
 OpenBabel11021811413D
libRbt.so/2013.1/901 2013/11/27
 28 32  0  0  0  0  0  0  0  0999 V2000
   23.0634   27.2786   31.8370 C   0  0  0  0  0  0  0  0  0  0  0  0
   23.8088   26.3937   32.8163 C   0  0  0  0  0  0  0  0  0  0  0  0
   25.2251   26.8936   33.0593 C   0  0  0  0  0  0  0  0  0  0  0  0
   29.9078   20.8694   33.9497 O   0  0  0  0  0  0  0  0  0  0  0  0
   28.5318   21.1757   34.1824 C   0  0  0  0  0  0  0  0  0  0  0  0
   25.5489   23.6804   37.2058 C   0  0  0  0  0  0  0  0  0  0  0  0
   24.4637   23.4498   36.3701 C   0  0  0  0  0  0  0  0  0  0  0  0
   24.6467   22.7368   35.1825 C   0  0  0  0  0  0  0  0  0  0  0  0
   25.9076   22.2528   34.8317 C   0  0  0  0  0  0  0  0  0  0  0  0
   28.3685   22.0488   35.4332 C   0  0  1  0  0  0  0  0  0  0  0  0
   26.9606   22.4702   35.6892 C   0  0  0  0  0  0  0  0  0  0  0  0
   26.7771   23.1735   36.8528 C   0  0  0  0  0  0  0  0  0  0  0  0
   27.9796   23.3983   37.6322 C   0  0  1  0  0  0  0  0  0  0  0  0
   29.0197   21.6583   39.0749 C   0  0  0  0  0  0  0  0  0  0  0  0
   28.6151   22.1092   37.8415 C   0  0  0  0  0  0  0  0  0  0  0  0
   28.8271   21.3783   36.7034 C   0  0  0  0  0  0  0  0  0  0  0  0
   29.4669   20.1499   36.7796 C   0  0  0  0  0  0  0  0  0  0  0  0
   29.8655   19.6688   38.0286 C   0  0  0  0  0  0  0  0  0  0  0  0
   29.6384   20.4228   39.1725 C   0  0  0  0  0  0  0  0  0  0  0  0
   26.0112   25.8927   33.8961 C   0  0  0  0  0  0  0  0  0  0  0  0
   27.4279   26.3987   34.1405 C   0  0  0  0  0  0  0  0  0  0  0  0
   28.5836   24.1016   33.2106 O   0  0  0  0  0  0  0  0  0  0  0  0
   27.8556   26.2714   36.9316 O   0  0  0  0  0  0  0  0  0  0  0  0
   28.2508   25.3950   36.1808 C   0  0  0  0  0  0  0  0  0  0  0  0
   28.1140   25.3746   34.9122 N   0  0  0  0  0  0  0  0  0  0  0  0
   28.5947   24.3323   34.3920 C   0  0  0  0  0  0  0  0  0  0  0  0
   29.1415   23.3767   35.3950 C   0  0  1  0  0  0  0  0  0  0  0  0
   28.9023   24.1584   36.6893 C   0  0  2  0  0  0  0  0  0  0  0  0
  1  2  1  0  0  0  0
  2  3  1  0  0  0  0
  3 20  1  0  0  0  0
  4  5  1  0  0  0  0
  6  7  2  0  0  0  0
  6 12  1  0  0  0  0
  7  8  1  0  0  0  0
  8  9  2  0  0  0  0
  9 11  1  0  0  0  0
 10  5  1  6  0  0  0
 10 11  1  0  0  0  0
 10 16  1  0  0  0  0
 10 27  1  0  0  0  0
 11 12  2  0  0  0  0
 13 12  1  6  0  0  0
 13 15  1  0  0  0  0
 13 28  1  0  0  0  0
 14 15  2  0  0  0  0
 14 19  1  0  0  0  0
 15 16  1  0  0  0  0
 16 17  2  0  0  0  0
 17 18  1  0  0  0  0
 18 19  2  0  0  0  0
 20 21  1  0  0  0  0
 21 25  1  0  0  0  0
 22 26  2  0  0  0  0
 23 24  2  0  0  0  0
 24 25  1  0  0  0  0
 25 26  1  0  0  0  0
 27 26  1  6  0  0  0
 27 28  1  0  0  0  0
 28 24  1  6  0  0  0
M  END
>  <CHROM.1>
-172.47330647,176.69713996,-179.84693226,-178.58899013,-97.29135385,27.46630613
23.55276433,35.54138849,-2.41189796,-0.75683561,1.83883370

>  <Name>
ligand

>  <RI>
0

>  <Rbt.Current_Directory>
/home/itssahil/PROJECTS/Mol_Feturizer/New_Systems/rnas/1YLS

>  <Rbt.Executable>
rbdock ($Id: //depot/dev/client3/rdock/2013.1/src/exe/rbdock.cxx#4 $)

>  <Rbt.Library>
libRbt.so (2013.1, Build901 2013/11/27)

>  <Rbt.Parameter_File>
/export/apps/rDock/src/rDock_2013.1_src/data/scripts/dock_solv.prm

>  <Rbt.Receptor>
prm/blind_docking_80.prm

>  <SCORE>
-16.6341

>  <SCORE.INTER>
-11.3778

>  <SCORE.INTER.CONST>
1

>  <SCORE.INTER.POLAR>
0

>  <SCORE.INTER.ROT>
5

>  <SCORE.INTER.SOLV>
5.6257

>  <SCORE.INTER.VDW>
-16.3938

>  <SCORE.INTER.norm>
-0.406351

>  <SCORE.INTRA>
-5.25625

>  <SCORE.INTRA.DIHEDRAL>
-9.17767

>  <SCORE.INTRA.DIHEDRAL.0>
12.0148

>  <SCORE.INTRA.POLAR>
0

>  <SCORE.INTRA.POLAR.0>
0

>  <SCORE.INTRA.REPUL>
0

>  <SCORE.INTRA.REPUL.0>
0

>  <SCORE.INTRA.SOLV>
0.164217

>  <SCORE.INTRA.SOLV.lig_0>
-10.5235

>  <SCORE.INTRA.VDW>
-0.749526

>  <SCORE.INTRA.VDW.0>
-1.38455

>  <SCORE.INTRA.norm>
-0.187723

>  <SCORE.RESTR>
0

>  <SCORE.RESTR.CAVITY>
0

>  <SCORE.RESTR.norm>
0

>  <SCORE.SYSTEM>
0

>  <SCORE.SYSTEM.CONST>
0

>  <SCORE.SYSTEM.DIHEDRAL>
0

>  <SCORE.SYSTEM.SOLV>
0

>  <SCORE.SYSTEM.norm>
0

>  <SCORE.heavy>
28

>  <SCORE.norm>
-0.594074

>  <RMSD>
15.674

$$$$
ligand
 OpenBabel11021811413D
libRbt.so/2013.1/901 2013/11/27
 28 32  0  0  0  0  0  0  0  0999 V2000
   23.4719   27.9234   32.6980 C   0  0  0  0  0  0  0  0  0  0  0  0
   24.2168   26.9711   33.6123 C   0  0  0  0  0  0  0  0  0  0  0  0
   25.6410   26.7316   33.1337 C   0  0  0  0  0  0  0  0  0  0  0  0
   27.9817   19.3413   35.0701 O   0  0  0  0  0  0  0  0  0  0  0  0
   28.7488   20.4964   34.7260 C   0  0  0  0  0  0  0  0  0  0  0  0
   25.7894   23.6211   37.1325 C   0  0  0  0  0  0  0  0  0  0  0  0
   24.7160   23.2695   36.3242 C   0  0  0  0  0  0  0  0  0  0  0  0
   24.9004   22.3384   35.2988 C   0  0  0  0  0  0  0  0  0  0  0  0
   26.1507   21.7579   35.0828 C   0  0  0  0  0  0  0  0  0  0  0  0
   28.5884   21.5960   35.7837 C   0  0  1  0  0  0  0  0  0  0  0  0
   27.1910   22.1016   35.9141 C   0  0  0  0  0  0  0  0  0  0  0  0
   27.0064   23.0186   36.9178 C   0  0  0  0  0  0  0  0  0  0  0  0
   28.1981   23.3502   37.6753 C   0  0  1  0  0  0  0  0  0  0  0  0
   29.1419   21.8848   39.4510 C   0  0  0  0  0  0  0  0  0  0  0  0
   28.7820   22.1054   38.1432 C   0  0  0  0  0  0  0  0  0  0  0  0
   28.9935   21.1653   37.1707 C   0  0  0  0  0  0  0  0  0  0  0  0
   29.5869   19.9546   37.4966 C   0  0  0  0  0  0  0  0  0  0  0  0
   29.9393   19.7076   38.8252 C   0  0  0  0  0  0  0  0  0  0  0  0
   29.7134   20.6719   39.7986 C   0  0  0  0  0  0  0  0  0  0  0  0
   26.3775   25.7987   34.0863 C   0  0  0  0  0  0  0  0  0  0  0  0
   27.8343   25.6478   33.6645 C   0  0  0  0  0  0  0  0  0  0  0  0
   28.9277   23.1812   33.2201 O   0  0  0  0  0  0  0  0  0  0  0  0
   28.1933   26.0402   36.4405 O   0  0  0  0  0  0  0  0  0  0  0  0
   28.5738   25.0253   35.8809 C   0  0  0  0  0  0  0  0  0  0  0  0
   28.4654   24.7684   34.6357 N   0  0  0  0  0  0  0  0  0  0  0  0
   28.9201   23.6318   34.3364 C   0  0  0  0  0  0  0  0  0  0  0  0
   29.4092   22.8678   35.5176 C   0  0  1  0  0  0  0  0  0  0  0  0
   29.1687   23.8883   36.6330 C   0  0  2  0  0  0  0  0  0  0  0  0
  1  2  1  0  0  0  0
  2  3  1  0  0  0  0
  3 20  1  0  0  0  0
  4  5  1  0  0  0  0
  6  7  2  0  0  0  0
  6 12  1  0  0  0  0
  7  8  1  0  0  0  0
  8  9  2  0  0  0  0
  9 11  1  0  0  0  0
 10  5  1  6  0  0  0
 10 11  1  0  0  0  0
 10 16  1  0  0  0  0
 10 27  1  0  0  0  0
 11 12  2  0  0  0  0
 13 12  1  6  0  0  0
 13 15  1  0  0  0  0
 13 28  1  0  0  0  0
 14 15  2  0  0  0  0
 14 19  1  0  0  0  0
 15 16  1  0  0  0  0
 16 17  2  0  0  0  0
 17 18  1  0  0  0  0
 18 19  2  0  0  0  0
 20 21  1  0  0  0  0
 21 25  1  0  0  0  0
 22 26  2  0  0  0  0
 23 24  2  0  0  0  0
 24 25  1  0  0  0  0
 25 26  1  0  0  0  0
 27 26  1  6  0  0  0
 27 28  1  0  0  0  0
 28 24  1  6  0  0  0
M  END
>  <CHROM.1>
178.65625746,-62.63402817,-175.57900115,178.91367455,-61.76170250,27.63805291
23.26632504,35.76627024,2.70963285,-1.02201333,0.46073587

>  <Name>
ligand

>  <RI>
0

>  <Rbt.Current_Directory>
/home/itssahil/PROJECTS/Mol_Feturizer/New_Systems/rnas/1YLS

>  <Rbt.Executable>
rbdock ($Id: //depot/dev/client3/rdock/2013.1/src/exe/rbdock.cxx#4 $)

>  <Rbt.Library>
libRbt.so (2013.1, Build901 2013/11/27)

>  <Rbt.Parameter_File>
/export/apps/rDock/src/rDock_2013.1_src/data/scripts/dock_solv.prm

>  <Rbt.Receptor>
prm/blind_docking_80.prm

>  <SCORE>
-17.8994

>  <SCORE.INTER>
-12.8096

>  <SCORE.INTER.CONST>
1

>  <SCORE.INTER.POLAR>
0

>  <SCORE.INTER.ROT>
5

>  <SCORE.INTER.SOLV>
5.97068

>  <SCORE.INTER.VDW>
-17.4633

>  <SCORE.INTER.norm>
-0.457486

>  <SCORE.INTRA>
-5.08983

>  <SCORE.INTRA.DIHEDRAL>
-9.47417

>  <SCORE.INTRA.DIHEDRAL.0>
12.0148

>  <SCORE.INTRA.POLAR>
0

>  <SCORE.INTRA.POLAR.0>
0

>  <SCORE.INTRA.REPUL>
0

>  <SCORE.INTRA.REPUL.0>
0

>  <SCORE.INTRA.SOLV>
-0.0210482

>  <SCORE.INTRA.SOLV.lig_0>
-10.5235

>  <SCORE.INTRA.VDW>
-0.342216

>  <SCORE.INTRA.VDW.0>
-1.38455

>  <SCORE.INTRA.norm>
-0.181779

>  <SCORE.RESTR>
0

>  <SCORE.RESTR.CAVITY>
0

>  <SCORE.RESTR.norm>
0

>  <SCORE.SYSTEM>
0

>  <SCORE.SYSTEM.CONST>
0

>  <SCORE.SYSTEM.DIHEDRAL>
0

>  <SCORE.SYSTEM.SOLV>
0

>  <SCORE.SYSTEM.norm>
0

>  <SCORE.heavy>
28

>  <SCORE.norm>
-0.639266

>  <RMSD>
15.679

$$$$
ligand
 OpenBabel11021811413D
libRbt.so/2013.1/901 2013/11/27
 28 32  0  0  0  0  0  0  0  0999 V2000
   38.8283   28.1961   12.0987 C   0  0  0  0  0  0  0  0  0  0  0  0
   40.0857   27.3601   12.2324 C   0  0  0  0  0  0  0  0  0  0  0  0
   41.3114   28.2255   12.4844 C   0  0  0  0  0  0  0  0  0  0  0  0
   47.7570   23.4940   13.7852 O   0  0  0  0  0  0  0  0  0  0  0  0
   47.2282   24.2580   12.7000 C   0  0  0  0  0  0  0  0  0  0  0  0
   43.2245   24.7479    9.8640 C   0  0  0  0  0  0  0  0  0  0  0  0
   43.6992   25.9498    9.3546 C   0  0  0  0  0  0  0  0  0  0  0  0
   44.9172   26.4597    9.8115 C   0  0  0  0  0  0  0  0  0  0  0  0
   45.6604   25.7711   10.7710 C   0  0  0  0  0  0  0  0  0  0  0  0
   45.8433   23.7410   12.2893 C   0  0  1  0  0  0  0  0  0  0  0  0
   45.1826   24.5695   11.2394 C   0  0  0  0  0  0  0  0  0  0  0  0
   43.9846   24.0740   10.7903 C   0  0  0  0  0  0  0  0  0  0  0  0
   43.5567   22.8374   11.4162 C   0  0  1  0  0  0  0  0  0  0  0  0
   44.4837   20.6080   10.8150 C   0  0  0  0  0  0  0  0  0  0  0  0
   44.6463   21.8846   11.2971 C   0  0  0  0  0  0  0  0  0  0  0  0
   45.8592   22.3353   11.7445 C   0  0  0  0  0  0  0  0  0  0  0  0
   46.9618   21.4940   11.7192 C   0  0  0  0  0  0  0  0  0  0  0  0
   46.8169   20.2006   11.2128 C   0  0  0  0  0  0  0  0  0  0  0  0
   45.5794   19.7624   10.7598 C   0  0  0  0  0  0  0  0  0  0  0  0
   42.5646   27.3654   12.5827 C   0  0  0  0  0  0  0  0  0  0  0  0
   42.5994   26.6244   13.9141 C   0  0  0  0  0  0  0  0  0  0  0  0
   45.1796   25.8435   14.3725 O   0  0  0  0  0  0  0  0  0  0  0  0
   41.4000   24.3221   12.7964 O   0  0  0  0  0  0  0  0  0  0  0  0
   42.5720   24.3357   13.1343 C   0  0  0  0  0  0  0  0  0  0  0  0
   43.1918   25.3216   13.6562 N   0  0  0  0  0  0  0  0  0  0  0  0
   44.4051   25.0647   13.8796 C   0  0  0  0  0  0  0  0  0  0  0  0
   44.8085   23.7050   13.4250 C   0  0  1  0  0  0  0  0  0  0  0  0
   43.4722   23.1756   12.8983 C   0  0  2  0  0  0  0  0  0  0  0  0
  1  2  1  0  0  0  0
  2  3  1  0  0  0  0
  3 20  1  0  0  0  0
  4  5  1  0  0  0  0
  6  7  2  0  0  0  0
  6 12  1  0  0  0  0
  7  8  1  0  0  0  0
  8  9  2  0  0  0  0
  9 11  1  0  0  0  0
 10  5  1  1  0  0  0
 10 11  1  0  0  0  0
 10 16  1  0  0  0  0
 10 27  1  0  0  0  0
 11 12  2  0  0  0  0
 13 12  1  6  0  0  0
 13 15  1  0  0  0  0
 13 28  1  0  0  0  0
 14 15  2  0  0  0  0
 14 19  1  0  0  0  0
 15 16  1  0  0  0  0
 16 17  2  0  0  0  0
 17 18  1  0  0  0  0
 18 19  2  0  0  0  0
 20 21  1  0  0  0  0
 21 25  1  0  0  0  0
 22 26  2  0  0  0  0
 23 24  2  0  0  0  0
 24 25  1  0  0  0  0
 25 26  1  0  0  0  0
 27 26  1  6  0  0  0
 27 28  1  0  0  0  0
 28 24  1  6  0  0  0
M  END
>  <CHROM.1>
-178.69230670,174.96925172,-74.34332575,144.31253367,-78.50933405,44.06894433
24.44859060,12.12432556,2.42766866,-0.45015666,0.59318674

>  <Name>
ligand

>  <RI>
0

>  <Rbt.Current_Directory>
/home/itssahil/PROJECTS/Mol_Feturizer/New_Systems/rnas/1YLS

>  <Rbt.Executable>
rbdock ($Id: //depot/dev/client3/rdock/2013.1/src/exe/rbdock.cxx#4 $)

>  <Rbt.Library>
libRbt.so (2013.1, Build901 2013/11/27)

>  <Rbt.Parameter_File>
/export/apps/rDock/src/rDock_2013.1_src/data/scripts/dock_solv.prm

>  <Rbt.Receptor>
prm/blind_docking_60.prm

>  <SCORE>
-17.3987

>  <SCORE.INTER>
-14.8077

>  <SCORE.INTER.CONST>
1

>  <SCORE.INTER.POLAR>
0

>  <SCORE.INTER.ROT>
5

>  <SCORE.INTER.SOLV>
8.08882

>  <SCORE.INTER.VDW>
-19.5014

>  <SCORE.INTER.norm>
-0.528845

>  <SCORE.INTRA>
-2.95046

>  <SCORE.INTRA.DIHEDRAL>
-4.98311

>  <SCORE.INTRA.DIHEDRAL.0>
12.0148

>  <SCORE.INTRA.POLAR>
0

>  <SCORE.INTRA.POLAR.0>
0

>  <SCORE.INTRA.REPUL>
0

>  <SCORE.INTRA.REPUL.0>
0

>  <SCORE.INTRA.SOLV>
0.432992

>  <SCORE.INTRA.SOLV.lig_0>
-10.5235

>  <SCORE.INTRA.VDW>
-0.675398

>  <SCORE.INTRA.VDW.0>
-1.38455

>  <SCORE.INTRA.norm>
-0.105374

>  <SCORE.RESTR>
0.359411

>  <SCORE.RESTR.CAVITY>
0.359411

>  <SCORE.RESTR.norm>
0.0128361

>  <SCORE.SYSTEM>
0

>  <SCORE.SYSTEM.CONST>
0

>  <SCORE.SYSTEM.DIHEDRAL>
0

>  <SCORE.SYSTEM.SOLV>
0

>  <SCORE.SYSTEM.norm>
0

>  <SCORE.heavy>
28

>  <SCORE.norm>
-0.621382

>  <RMSD>
15.701

$$$$
ligand
 OpenBabel11021811413D
libRbt.so/2013.1/901 2013/11/27
 28 32  0  0  0  0  0  0  0  0999 V2000
   23.6431   27.9509   32.4584 C   0  0  0  0  0  0  0  0  0  0  0  0
   24.3016   26.9596   33.3974 C   0  0  0  0  0  0  0  0  0  0  0  0
   25.7332   26.6571   32.9806 C   0  0  0  0  0  0  0  0  0  0  0  0
   30.1564   20.0728   35.2278 O   0  0  0  0  0  0  0  0  0  0  0  0
   28.7842   20.4700   35.2084 C   0  0  0  0  0  0  0  0  0  0  0  0
   25.6406   23.7455   37.1324 C   0  0  0  0  0  0  0  0  0  0  0  0
   24.6216   23.2953   36.3028 C   0  0  0  0  0  0  0  0  0  0  0  0
   24.8799   22.2748   35.3840 C   0  0  0  0  0  0  0  0  0  0  0  0
   26.1499   21.7035   35.2955 C   0  0  0  0  0  0  0  0  0  0  0  0
   28.5452   21.6617   36.1444 C   0  0  1  0  0  0  0  0  0  0  0  0
   27.1346   22.1472   36.1468 C   0  0  0  0  0  0  0  0  0  0  0  0
   26.8775   23.1516   37.0454 C   0  0  0  0  0  0  0  0  0  0  0  0
   28.0179   23.5796   37.8331 C   0  0  1  0  0  0  0  0  0  0  0  0
   28.8807   22.3109   39.7920 C   0  0  0  0  0  0  0  0  0  0  0  0
   28.5936   22.3979   38.4509 C   0  0  0  0  0  0  0  0  0  0  0  0
   28.8762   21.3741   37.5870 C   0  0  0  0  0  0  0  0  0  0  0  0
   29.4691   20.2131   38.0609 C   0  0  0  0  0  0  0  0  0  0  0  0
   29.7479   20.1016   39.4248 C   0  0  0  0  0  0  0  0  0  0  0  0
   29.4505   21.1493   40.2865 C   0  0  0  0  0  0  0  0  0  0  0  0
   26.3811   25.6821   33.9552 C   0  0  0  0  0  0  0  0  0  0  0  0
   27.8500   25.4757   33.6053 C   0  0  0  0  0  0  0  0  0  0  0  0
   29.0068   23.0021   33.4629 O   0  0  0  0  0  0  0  0  0  0  0  0
   28.0413   26.1387   36.3462 O   0  0  0  0  0  0  0  0  0  0  0  0
   28.4699   25.0835   35.9094 C   0  0  0  0  0  0  0  0  0  0  0  0
   28.4379   24.7067   34.6906 N   0  0  0  0  0  0  0  0  0  0  0  0
   28.9274   23.5569   34.5283 C   0  0  0  0  0  0  0  0  0  0  0  0
   29.3594   22.9198   35.8033 C   0  0  1  0  0  0  0  0  0  0  0  0
   29.0384   24.0366   36.7998 C   0  0  2  0  0  0  0  0  0  0  0  0
  1  2  1  0  0  0  0
  2  3  1  0  0  0  0
  3 20  1  0  0  0  0
  4  5  1  0  0  0  0
  6  7  2  0  0  0  0
  6 12  1  0  0  0  0
  7  8  1  0  0  0  0
  8  9  2  0  0  0  0
  9 11  1  0  0  0  0
 10  5  1  6  0  0  0
 10 11  1  0  0  0  0
 10 16  1  0  0  0  0
 10 27  1  0  0  0  0
 11 12  2  0  0  0  0
 13 12  1  6  0  0  0
 13 15  1  0  0  0  0
 13 28  1  0  0  0  0
 14 15  2  0  0  0  0
 14 19  1  0  0  0  0
 15 16  1  0  0  0  0
 16 17  2  0  0  0  0
 17 18  1  0  0  0  0
 18 19  2  0  0  0  0
 20 21  1  0  0  0  0
 21 25  1  0  0  0  0
 22 26  2  0  0  0  0
 23 24  2  0  0  0  0
 24 25  1  0  0  0  0
 25 26  1  0  0  0  0
 27 26  1  6  0  0  0
 27 28  1  0  0  0  0
 28 24  1  6  0  0  0
M  END
>  <CHROM.1>
178.83057368,178.66500405,-175.06408723,171.39266118,-59.56888526,27.67520982
23.36937639,35.91967463,2.28437165,0.74794050,-1.23085151

>  <Name>
ligand

>  <RI>
0

>  <Rbt.Current_Directory>
/home/itssahil/PROJECTS/Mol_Feturizer/New_Systems/rnas/1YLS

>  <Rbt.Executable>
rbdock ($Id: //depot/dev/client3/rdock/2013.1/src/exe/rbdock.cxx#4 $)

>  <Rbt.Library>
libRbt.so (2013.1, Build901 2013/11/27)

>  <Rbt.Parameter_File>
/export/apps/rDock/src/rDock_2013.1_src/data/scripts/dock_solv.prm

>  <Rbt.Receptor>
prm/blind_docking_80.prm

>  <SCORE>
-18.1922

>  <SCORE.INTER>
-13.5731

>  <SCORE.INTER.CONST>
1

>  <SCORE.INTER.POLAR>
0

>  <SCORE.INTER.ROT>
5

>  <SCORE.INTER.SOLV>
6.6275

>  <SCORE.INTER.VDW>
-18.1912

>  <SCORE.INTER.norm>
-0.484752

>  <SCORE.INTRA>
-4.61913

>  <SCORE.INTRA.DIHEDRAL>
-9.21873

>  <SCORE.INTRA.DIHEDRAL.0>
12.0148

>  <SCORE.INTRA.POLAR>
0

>  <SCORE.INTRA.POLAR.0>
0

>  <SCORE.INTRA.REPUL>
0

>  <SCORE.INTRA.REPUL.0>
0

>  <SCORE.INTRA.SOLV>
0.194149

>  <SCORE.INTRA.SOLV.lig_0>
-10.5235

>  <SCORE.INTRA.VDW>
-0.106838

>  <SCORE.INTRA.VDW.0>
-1.38455

>  <SCORE.INTRA.norm>
-0.164969

>  <SCORE.RESTR>
0

>  <SCORE.RESTR.CAVITY>
0

>  <SCORE.RESTR.norm>
0

>  <SCORE.SYSTEM>
0

>  <SCORE.SYSTEM.CONST>
0

>  <SCORE.SYSTEM.DIHEDRAL>
0

>  <SCORE.SYSTEM.SOLV>
0

>  <SCORE.SYSTEM.norm>
0

>  <SCORE.heavy>
28

>  <SCORE.norm>
-0.649721

>  <RMSD>
15.769

$$$$
ligand
 OpenBabel11021811413D
libRbt.so/2013.1/901 2013/11/27
 28 32  0  0  0  0  0  0  0  0999 V2000
   41.9853   31.7728   12.9400 C   0  0  0  0  0  0  0  0  0  0  0  0
   42.9832   30.6804   12.6103 C   0  0  0  0  0  0  0  0  0  0  0  0
   42.3347   29.3041   12.6256 C   0  0  0  0  0  0  0  0  0  0  0  0
   42.7846   23.2118   13.8724 O   0  0  0  0  0  0  0  0  0  0  0  0
   42.5432   23.2438   12.4647 C   0  0  0  0  0  0  0  0  0  0  0  0
   46.9815   25.3917   12.4868 C   0  0  0  0  0  0  0  0  0  0  0  0
   46.7840   25.8482   13.7836 C   0  0  0  0  0  0  0  0  0  0  0  0
   45.5780   25.5761   14.4347 C   0  0  0  0  0  0  0  0  0  0  0  0
   44.5740   24.8482   13.7952 C   0  0  0  0  0  0  0  0  0  0  0  0
   43.8160   23.6272   11.6988 C   0  0  1  0  0  0  0  0  0  0  0  0
   44.8044   24.3833   12.5215 C   0  0  0  0  0  0  0  0  0  0  0  0
   45.9888   24.6554   11.8847 C   0  0  0  0  0  0  0  0  0  0  0  0
   46.0783   24.1737   10.5194 C   0  0  1  0  0  0  0  0  0  0  0  0
   46.5326   21.7983    9.9342 C   0  0  0  0  0  0  0  0  0  0  0  0
   45.7510   22.7587   10.5304 C   0  0  0  0  0  0  0  0  0  0  0  0
   44.5701   22.4438   11.1473 C   0  0  0  0  0  0  0  0  0  0  0  0
   44.1360   21.1268   11.1788 C   0  0  0  0  0  0  0  0  0  0  0  0
   44.9295   20.1367   10.5954 C   0  0  0  0  0  0  0  0  0  0  0  0
   46.1263   20.4748    9.9775 C   0  0  0  0  0  0  0  0  0  0  0  0
   43.3769   28.2173   12.3957 C   0  0  0  0  0  0  0  0  0  0  0  0
   43.8140   28.1983   10.9357 C   0  0  0  0  0  0  0  0  0  0  0  0
   42.1095   26.1223   11.4478 O   0  0  0  0  0  0  0  0  0  0  0  0
   45.9567   26.9712    9.5603 O   0  0  0  0  0  0  0  0  0  0  0  0
   44.9923   26.3324    9.9473 C   0  0  0  0  0  0  0  0  0  0  0  0
   43.9781   26.8022   10.5630 N   0  0  0  0  0  0  0  0  0  0  0  0
   43.1431   25.9092   10.8685 C   0  0  0  0  0  0  0  0  0  0  0  0
   43.5843   24.5397   10.4840 C   0  0  1  0  0  0  0  0  0  0  0  0
   44.9192   24.8538    9.8038 C   0  0  2  0  0  0  0  0  0  0  0  0
  1  2  1  0  0  0  0
  2  3  1  0  0  0  0
  3 20  1  0  0  0  0
  4  5  1  0  0  0  0
  6  7  2  0  0  0  0
  6 12  1  0  0  0  0
  7  8  1  0  0  0  0
  8  9  2  0  0  0  0
  9 11  1  0  0  0  0
 10  5  1  1  0  0  0
 10 11  1  0  0  0  0
 10 16  1  0  0  0  0
 10 27  1  0  0  0  0
 11 12  2  0  0  0  0
 13 12  1  1  0  0  0
 13 15  1  0  0  0  0
 13 28  1  0  0  0  0
 14 15  2  0  0  0  0
 14 19  1  0  0  0  0
 15 16  1  0  0  0  0
 16 17  2  0  0  0  0
 17 18  1  0  0  0  0
 18 19  2  0  0  0  0
 20 21  1  0  0  0  0
 21 25  1  0  0  0  0
 22 26  2  0  0  0  0
 23 24  2  0  0  0  0
 24 25  1  0  0  0  0
 25 26  1  0  0  0  0
 27 26  1  1  0  0  0
 27 28  1  0  0  0  0
 28 24  1  1  0  0  0
M  END
>  <CHROM.1>
-175.73501919,-23.04203489,-73.85787382,-141.26988694,-132.27459606,44.38187382
25.26807940,11.61879016,1.98429709,0.80452866,-0.12750882

>  <Name>
ligand

>  <RI>
0

>  <Rbt.Current_Directory>
/home/itssahil/PROJECTS/Mol_Feturizer/New_Systems/rnas/1YLS

>  <Rbt.Executable>
rbdock ($Id: //depot/dev/client3/rdock/2013.1/src/exe/rbdock.cxx#4 $)

>  <Rbt.Library>
libRbt.so (2013.1, Build901 2013/11/27)

>  <Rbt.Parameter_File>
/export/apps/rDock/src/rDock_2013.1_src/data/scripts/dock_solv.prm

>  <Rbt.Receptor>
prm/blind_docking_60.prm

>  <SCORE>
-0.973519

>  <SCORE.INTER>
-5.68911

>  <SCORE.INTER.CONST>
1

>  <SCORE.INTER.POLAR>
0

>  <SCORE.INTER.ROT>
5

>  <SCORE.INTER.SOLV>
10.2817

>  <SCORE.INTER.VDW>
-14.1533

>  <SCORE.INTER.norm>
-0.203183

>  <SCORE.INTRA>
4.56893

>  <SCORE.INTRA.DIHEDRAL>
-1.42205

>  <SCORE.INTRA.DIHEDRAL.0>
12.0148

>  <SCORE.INTRA.POLAR>
0

>  <SCORE.INTRA.POLAR.0>
0

>  <SCORE.INTRA.REPUL>
0

>  <SCORE.INTRA.REPUL.0>
0

>  <SCORE.INTRA.SOLV>
0.242784

>  <SCORE.INTRA.SOLV.lig_0>
-10.5235

>  <SCORE.INTRA.VDW>
5.15856

>  <SCORE.INTRA.VDW.0>
-1.38455

>  <SCORE.INTRA.norm>
0.163176

>  <SCORE.RESTR>
0.146666

>  <SCORE.RESTR.CAVITY>
0.146666

>  <SCORE.RESTR.norm>
0.00523808

>  <SCORE.SYSTEM>
0

>  <SCORE.SYSTEM.CONST>
0

>  <SCORE.SYSTEM.DIHEDRAL>
0

>  <SCORE.SYSTEM.SOLV>
0

>  <SCORE.SYSTEM.norm>
0

>  <SCORE.heavy>
28

>  <SCORE.norm>
-0.0347685

>  <RMSD>
15.812

$$$$
ligand
 OpenBabel11021811413D
libRbt.so/2013.1/901 2013/11/27
 28 32  0  0  0  0  0  0  0  0999 V2000
   39.8769   29.5271   12.8240 C   0  0  0  0  0  0  0  0  0  0  0  0
   40.8782   28.4742   12.3917 C   0  0  0  0  0  0  0  0  0  0  0  0
   41.7009   27.9659   13.5663 C   0  0  0  0  0  0  0  0  0  0  0  0
   48.3279   23.6739   11.1315 O   0  0  0  0  0  0  0  0  0  0  0  0
   47.5735   23.7017   12.3444 C   0  0  0  0  0  0  0  0  0  0  0  0
   43.2623   24.5934   10.1238 C   0  0  0  0  0  0  0  0  0  0  0  0
   43.7340   25.8049    9.6348 C   0  0  0  0  0  0  0  0  0  0  0  0
   45.0297   26.2198    9.9528 C   0  0  0  0  0  0  0  0  0  0  0  0
   45.8530   25.4271   10.7534 C   0  0  0  0  0  0  0  0  0  0  0  0
   46.1184   23.2845   12.0945 C   0  0  1  0  0  0  0  0  0  0  0  0
   45.3728   24.2192   11.2024 C   0  0  0  0  0  0  0  0  0  0  0  0
   44.0988   23.8170   10.8903 C   0  0  0  0  0  0  0  0  0  0  0  0
   43.6869   22.5601   11.4858 C   0  0  1  0  0  0  0  0  0  0  0  0
   44.3937   20.3383   10.6167 C   0  0  0  0  0  0  0  0  0  0  0  0
   44.6935   21.5666   11.1553 C   0  0  0  0  0  0  0  0  0  0  0  0
   45.9794   21.9235   11.4608 C   0  0  0  0  0  0  0  0  0  0  0  0
   47.0178   21.0336   11.2286 C   0  0  0  0  0  0  0  0  0  0  0  0
   46.7314   19.7895   10.6625 C   0  0  0  0  0  0  0  0  0  0  0  0
   45.4211   19.4466   10.3558 C   0  0  0  0  0  0  0  0  0  0  0  0
   42.6178   26.8313   13.1280 C   0  0  0  0  0  0  0  0  0  0  0  0
   43.2943   26.1955   14.3367 C   0  0  0  0  0  0  0  0  0  0  0  0
   45.8626   25.2580   14.3836 O   0  0  0  0  0  0  0  0  0  0  0  0
   41.8241   24.0427   13.2444 O   0  0  0  0  0  0  0  0  0  0  0  0
   43.0296   23.9743   13.4183 C   0  0  0  0  0  0  0  0  0  0  0  0
   43.7700   24.8878   13.9142 N   0  0  0  0  0  0  0  0  0  0  0  0
   44.9852   24.5563   13.9513 C   0  0  0  0  0  0  0  0  0  0  0  0
   45.2443   23.2156   13.3567 C   0  0  1  0  0  0  0  0  0  0  0  0
   43.8210   22.7921   12.9845 C   0  0  2  0  0  0  0  0  0  0  0  0
  1  2  1  0  0  0  0
  2  3  1  0  0  0  0
  3 20  1  0  0  0  0
  4  5  1  0  0  0  0
  6  7  2  0  0  0  0
  6 12  1  0  0  0  0
  7  8  1  0  0  0  0
  8  9  2  0  0  0  0
  9 11  1  0  0  0  0
 10  5  1  1  0  0  0
 10 11  1  0  0  0  0
 10 16  1  0  0  0  0
 10 27  1  0  0  0  0
 11 12  2  0  0  0  0
 13 12  1  6  0  0  0
 13 15  1  0  0  0  0
 13 28  1  0  0  0  0
 14 15  2  0  0  0  0
 14 19  1  0  0  0  0
 15 16  1  0  0  0  0
 16 17  2  0  0  0  0
 17 18  1  0  0  0  0
 18 19  2  0  0  0  0
 20 21  1  0  0  0  0
 21 25  1  0  0  0  0
 22 26  2  0  0  0  0
 23 24  2  0  0  0  0
 24 25  1  0  0  0  0
 25 26  1  0  0  0  0
 27 26  1  6  0  0  0
 27 28  1  0  0  0  0
 28 24  1  6  0  0  0
M  END
>  <CHROM.1>
175.38512732,-64.01340303,-172.08179406,161.22773377,-56.82818605,44.38875669
24.22636648,12.10346199,2.19156092,-0.10108426,0.36542177

>  <Name>
ligand

>  <RI>
0

>  <Rbt.Current_Directory>
/home/itssahil/PROJECTS/Mol_Feturizer/New_Systems/rnas/1YLS

>  <Rbt.Executable>
rbdock ($Id: //depot/dev/client3/rdock/2013.1/src/exe/rbdock.cxx#4 $)

>  <Rbt.Library>
libRbt.so (2013.1, Build901 2013/11/27)

>  <Rbt.Parameter_File>
/export/apps/rDock/src/rDock_2013.1_src/data/scripts/dock_solv.prm

>  <Rbt.Receptor>
prm/blind_docking_60.prm

>  <SCORE>
-18.8107

>  <SCORE.INTER>
-14.7832

>  <SCORE.INTER.CONST>
1

>  <SCORE.INTER.POLAR>
0

>  <SCORE.INTER.ROT>
5

>  <SCORE.INTER.SOLV>
9.42486

>  <SCORE.INTER.VDW>
-19.9304

>  <SCORE.INTER.norm>
-0.527972

>  <SCORE.INTRA>
-4.02751

>  <SCORE.INTRA.DIHEDRAL>
-8.01327

>  <SCORE.INTRA.DIHEDRAL.0>
12.0148

>  <SCORE.INTRA.POLAR>
0

>  <SCORE.INTRA.POLAR.0>
0

>  <SCORE.INTRA.REPUL>
0

>  <SCORE.INTRA.REPUL.0>
0

>  <SCORE.INTRA.SOLV>
0.0151187

>  <SCORE.INTRA.SOLV.lig_0>
-10.5235

>  <SCORE.INTRA.VDW>
-0.0284283

>  <SCORE.INTRA.VDW.0>
-1.38455

>  <SCORE.INTRA.norm>
-0.143839

>  <SCORE.RESTR>
0

>  <SCORE.RESTR.CAVITY>
0

>  <SCORE.RESTR.norm>
0

>  <SCORE.SYSTEM>
0

>  <SCORE.SYSTEM.CONST>
0

>  <SCORE.SYSTEM.DIHEDRAL>
0

>  <SCORE.SYSTEM.SOLV>
0

>  <SCORE.SYSTEM.norm>
0

>  <SCORE.heavy>
28

>  <SCORE.norm>
-0.671811

>  <RMSD>
15.823

$$$$
ligand
 OpenBabel11021811413D
libRbt.so/2013.1/901 2013/11/27
 28 32  0  0  0  0  0  0  0  0999 V2000
   41.5745   30.3397   14.3763 C   0  0  0  0  0  0  0  0  0  0  0  0
   41.8381   28.8503   14.2754 C   0  0  0  0  0  0  0  0  0  0  0  0
   42.8819   28.5354   13.2141 C   0  0  0  0  0  0  0  0  0  0  0  0
   48.4581   22.9301   12.5395 O   0  0  0  0  0  0  0  0  0  0  0  0
   47.6535   23.8453   11.7939 C   0  0  0  0  0  0  0  0  0  0  0  0
   43.0598   24.5458   10.1445 C   0  0  0  0  0  0  0  0  0  0  0  0
   43.4316   25.7370    9.5345 C   0  0  0  0  0  0  0  0  0  0  0  0
   44.7484   26.1897    9.6501 C   0  0  0  0  0  0  0  0  0  0  0  0
   45.6917   25.4546   10.3690 C   0  0  0  0  0  0  0  0  0  0  0  0
   46.1882   23.3914   11.7677 C   0  0  1  0  0  0  0  0  0  0  0  0
   45.3060   24.2646   10.9404 C   0  0  0  0  0  0  0  0  0  0  0  0
   44.0112   23.8253   10.8270 C   0  0  0  0  0  0  0  0  0  0  0  0
   43.7143   22.5954   11.5364 C   0  0  1  0  0  0  0  0  0  0  0  0
   44.3484   20.3423   10.6920 C   0  0  0  0  0  0  0  0  0  0  0  0
   44.6896   21.6024   11.1215 C   0  0  0  0  0  0  0  0  0  0  0  0
   45.9964   21.9963   11.2289 C   0  0  0  0  0  0  0  0  0  0  0  0
   47.0142   21.1126   10.9016 C   0  0  0  0  0  0  0  0  0  0  0  0
   46.6829   19.8355   10.4439 C   0  0  0  0  0  0  0  0  0  0  0  0
   45.3515   19.4551   10.3379 C   0  0  0  0  0  0  0  0  0  0  0  0
   42.9981   27.0310   13.0056 C   0  0  0  0  0  0  0  0  0  0  0  0
   43.6280   26.3708   14.2264 C   0  0  0  0  0  0  0  0  0  0  0  0
   46.2002   25.4798   13.9674 O   0  0  0  0  0  0  0  0  0  0  0  0
   42.0740   24.1388   13.4568 O   0  0  0  0  0  0  0  0  0  0  0  0
   43.2932   24.0997   13.4667 C   0  0  0  0  0  0  0  0  0  0  0  0
   44.0725   25.0505   13.8093 N   0  0  0  0  0  0  0  0  0  0  0  0
   45.2889   24.7416   13.6959 C   0  0  0  0  0  0  0  0  0  0  0  0
   45.4962   23.3755   13.1399 C   0  0  1  0  0  0  0  0  0  0  0  0
   44.0459   22.9093   12.9888 C   0  0  2  0  0  0  0  0  0  0  0  0
  1  2  1  0  0  0  0
  2  3  1  0  0  0  0
  3 20  1  0  0  0  0
  4  5  1  0  0  0  0
  6  7  2  0  0  0  0
  6 12  1  0  0  0  0
  7  8  1  0  0  0  0
  8  9  2  0  0  0  0
  9 11  1  0  0  0  0
 10  5  1  1  0  0  0
 10 11  1  0  0  0  0
 10 16  1  0  0  0  0
 10 27  1  0  0  0  0
 11 12  2  0  0  0  0
 13 12  1  6  0  0  0
 13 15  1  0  0  0  0
 13 28  1  0  0  0  0
 14 15  2  0  0  0  0
 14 19  1  0  0  0  0
 15 16  1  0  0  0  0
 16 17  2  0  0  0  0
 17 18  1  0  0  0  0
 18 19  2  0  0  0  0
 20 21  1  0  0  0  0
 21 25  1  0  0  0  0
 22 26  2  0  0  0  0
 23 24  2  0  0  0  0
 24 25  1  0  0  0  0
 25 26  1  0  0  0  0
 27 26  1  6  0  0  0
 27 28  1  0  0  0  0
 28 24  1  6  0  0  0
M  END
>  <CHROM.1>
-172.68170950,-176.79659637,-69.38730768,-163.10010921,-66.93071834,44.61130011
24.33414713,12.16062274,-2.05464273,0.34728098,-2.59293498

>  <Name>
ligand

>  <RI>
0

>  <Rbt.Current_Directory>
/home/itssahil/PROJECTS/Mol_Feturizer/New_Systems/rnas/1YLS

>  <Rbt.Executable>
rbdock ($Id: //depot/dev/client3/rdock/2013.1/src/exe/rbdock.cxx#4 $)

>  <Rbt.Library>
libRbt.so (2013.1, Build901 2013/11/27)

>  <Rbt.Parameter_File>
/export/apps/rDock/src/rDock_2013.1_src/data/scripts/dock_solv.prm

>  <Rbt.Receptor>
prm/blind_docking_60.prm

>  <SCORE>
-19.3532

>  <SCORE.INTER>
-15.824

>  <SCORE.INTER.CONST>
1

>  <SCORE.INTER.POLAR>
0

>  <SCORE.INTER.ROT>
5

>  <SCORE.INTER.SOLV>
9.67874

>  <SCORE.INTER.VDW>
-20.7089

>  <SCORE.INTER.norm>
-0.565143

>  <SCORE.INTRA>
-3.53539

>  <SCORE.INTRA.DIHEDRAL>
-7.88718

>  <SCORE.INTRA.DIHEDRAL.0>
12.0148

>  <SCORE.INTRA.POLAR>
0

>  <SCORE.INTRA.POLAR.0>
0

>  <SCORE.INTRA.REPUL>
0

>  <SCORE.INTRA.REPUL.0>
0

>  <SCORE.INTRA.SOLV>
0.14519

>  <SCORE.INTRA.SOLV.lig_0>
-10.5235

>  <SCORE.INTRA.VDW>
0.335606

>  <SCORE.INTRA.VDW.0>
-1.38455

>  <SCORE.INTRA.norm>
-0.126264

>  <SCORE.RESTR>
0.00616214

>  <SCORE.RESTR.CAVITY>
0.00616214

>  <SCORE.RESTR.norm>
0.000220077

>  <SCORE.SYSTEM>
0

>  <SCORE.SYSTEM.CONST>
0

>  <SCORE.SYSTEM.DIHEDRAL>
0

>  <SCORE.SYSTEM.SOLV>
0

>  <SCORE.SYSTEM.norm>
0

>  <SCORE.heavy>
28

>  <SCORE.norm>
-0.691186

>  <RMSD>
15.830

$$$$
ligand
 OpenBabel11021811413D
libRbt.so/2013.1/901 2013/11/27
 28 32  0  0  0  0  0  0  0  0999 V2000
   39.6558   27.1321   10.7895 C   0  0  0  0  0  0  0  0  0  0  0  0
   40.6302   27.4918   11.8936 C   0  0  0  0  0  0  0  0  0  0  0  0
   42.0373   27.0042   11.5816 C   0  0  0  0  0  0  0  0  0  0  0  0
   48.2094   24.0023   11.6520 O   0  0  0  0  0  0  0  0  0  0  0  0
   47.2975   24.0149   12.7517 C   0  0  0  0  0  0  0  0  0  0  0  0
   43.3663   24.7298    9.8625 C   0  0  0  0  0  0  0  0  0  0  0  0
   43.9005   25.9193    9.3840 C   0  0  0  0  0  0  0  0  0  0  0  0
   45.1315   26.3676    9.8700 C   0  0  0  0  0  0  0  0  0  0  0  0
   45.8284   25.6298   10.8276 C   0  0  0  0  0  0  0  0  0  0  0  0
   45.8988   23.5659   12.3093 C   0  0  1  0  0  0  0  0  0  0  0  0
   45.2918   24.4415   11.2651 C   0  0  0  0  0  0  0  0  0  0  0  0
   44.0814   24.0066   10.7876 C   0  0  0  0  0  0  0  0  0  0  0  0
   43.5905   22.7781   11.3827 C   0  0  1  0  0  0  0  0  0  0  0  0
   44.4311   20.5224   10.7533 C   0  0  0  0  0  0  0  0  0  0  0  0
   44.6402   21.7816   11.2625 C   0  0  0  0  0  0  0  0  0  0  0  0
   45.8636   22.1711   11.7377 C   0  0  0  0  0  0  0  0  0  0  0  0
   46.9294   21.2837   11.7137 C   0  0  0  0  0  0  0  0  0  0  0  0
   46.7377   20.0074   11.1802 C   0  0  0  0  0  0  0  0  0  0  0  0
   45.4903   19.6315   10.6993 C   0  0  0  0  0  0  0  0  0  0  0  0
   43.0010   27.4000   12.6928 C   0  0  0  0  0  0  0  0  0  0  0  0
   42.7547   26.5559   13.9377 C   0  0  0  0  0  0  0  0  0  0  0  0
   45.2911   25.6559   14.4218 O   0  0  0  0  0  0  0  0  0  0  0  0
   41.4766   24.3285   12.7569 O   0  0  0  0  0  0  0  0  0  0  0  0
   42.6423   24.2854   13.1136 C   0  0  0  0  0  0  0  0  0  0  0  0
   43.2950   25.2337   13.6641 N   0  0  0  0  0  0  0  0  0  0  0  0
   44.4923   24.9206   13.9018 C   0  0  0  0  0  0  0  0  0  0  0  0
   44.8446   23.5534   13.4275 C   0  0  1  0  0  0  0  0  0  0  0  0
   43.4959   23.0920   12.8695 C   0  0  2  0  0  0  0  0  0  0  0  0
  1  2  1  0  0  0  0
  2  3  1  0  0  0  0
  3 20  1  0  0  0  0
  4  5  1  0  0  0  0
  6  7  2  0  0  0  0
  6 12  1  0  0  0  0
  7  8  1  0  0  0  0
  8  9  2  0  0  0  0
  9 11  1  0  0  0  0
 10  5  1  1  0  0  0
 10 11  1  0  0  0  0
 10 16  1  0  0  0  0
 10 27  1  0  0  0  0
 11 12  2  0  0  0  0
 13 12  1  6  0  0  0
 13 15  1  0  0  0  0
 13 28  1  0  0  0  0
 14 15  2  0  0  0  0
 14 19  1  0  0  0  0
 15 16  1  0  0  0  0
 16 17  2  0  0  0  0
 17 18  1  0  0  0  0
 18 19  2  0  0  0  0
 20 21  1  0  0  0  0
 21 25  1  0  0  0  0
 22 26  2  0  0  0  0
 23 24  2  0  0  0  0
 24 25  1  0  0  0  0
 25 26  1  0  0  0  0
 27 26  1  6  0  0  0
 27 28  1  0  0  0  0
 28 24  1  6  0  0  0
M  END
>  <CHROM.1>
178.96261799,-60.81571211,72.57687376,74.48520411,-88.36926244,44.24123607
24.29623608,11.93516054,2.34648931,-0.30946873,0.39970806

>  <Name>
ligand

>  <RI>
0

>  <Rbt.Current_Directory>
/home/itssahil/PROJECTS/Mol_Feturizer/New_Systems/rnas/1YLS

>  <Rbt.Executable>
rbdock ($Id: //depot/dev/client3/rdock/2013.1/src/exe/rbdock.cxx#4 $)

>  <Rbt.Library>
libRbt.so (2013.1, Build901 2013/11/27)

>  <Rbt.Parameter_File>
/export/apps/rDock/src/rDock_2013.1_src/data/scripts/dock_solv.prm

>  <Rbt.Receptor>
prm/blind_docking_60.prm

>  <SCORE>
-21.394

>  <SCORE.INTER>
-16.7835

>  <SCORE.INTER.CONST>
1

>  <SCORE.INTER.POLAR>
0

>  <SCORE.INTER.ROT>
5

>  <SCORE.INTER.SOLV>
7.9344

>  <SCORE.INTER.VDW>
-20.7672

>  <SCORE.INTER.norm>
-0.599412

>  <SCORE.INTRA>
-4.61048

>  <SCORE.INTRA.DIHEDRAL>
-8.02412

>  <SCORE.INTRA.DIHEDRAL.0>
12.0148

>  <SCORE.INTRA.POLAR>
0

>  <SCORE.INTRA.POLAR.0>
0

>  <SCORE.INTRA.REPUL>
0

>  <SCORE.INTRA.REPUL.0>
0

>  <SCORE.INTRA.SOLV>
0.485504

>  <SCORE.INTRA.SOLV.lig_0>
-10.5235

>  <SCORE.INTRA.VDW>
-0.84117

>  <SCORE.INTRA.VDW.0>
-1.38455

>  <SCORE.INTRA.norm>
-0.16466

>  <SCORE.RESTR>
0

>  <SCORE.RESTR.CAVITY>
0

>  <SCORE.RESTR.norm>
0

>  <SCORE.SYSTEM>
0

>  <SCORE.SYSTEM.CONST>
0

>  <SCORE.SYSTEM.DIHEDRAL>
0

>  <SCORE.SYSTEM.SOLV>
0

>  <SCORE.SYSTEM.norm>
0

>  <SCORE.heavy>
28

>  <SCORE.norm>
-0.764072

>  <RMSD>
15.840

$$$$
ligand
 OpenBabel11021811413D
libRbt.so/2013.1/901 2013/11/27
 28 32  0  0  0  0  0  0  0  0999 V2000
   37.0008   33.0564   10.9441 C   0  0  0  0  0  0  0  0  0  0  0  0
   37.1044   31.5442   10.9649 C   0  0  0  0  0  0  0  0  0  0  0  0
   37.9338   31.0543   12.1425 C   0  0  0  0  0  0  0  0  0  0  0  0
   43.3343   24.4581   12.0046 O   0  0  0  0  0  0  0  0  0  0  0  0
   42.2068   25.1369   11.4486 C   0  0  0  0  0  0  0  0  0  0  0  0
   43.3231   29.3819   13.6950 C   0  0  0  0  0  0  0  0  0  0  0  0
   43.2463   28.7738   14.9415 C   0  0  0  0  0  0  0  0  0  0  0  0
   42.9057   27.4216   15.0296 C   0  0  0  0  0  0  0  0  0  0  0  0
   42.6458   26.6780   13.8778 C   0  0  0  0  0  0  0  0  0  0  0  0
   42.4722   26.6442   11.3423 C   0  0  1  0  0  0  0  0  0  0  0  0
   42.7555   27.2958   12.6540 C   0  0  0  0  0  0  0  0  0  0  0  0
   43.0872   28.6246   12.5722 C   0  0  0  0  0  0  0  0  0  0  0  0
   43.0970   29.1749   11.2301 C   0  0  1  0  0  0  0  0  0  0  0  0
   44.9552   28.8106    9.6159 C   0  0  0  0  0  0  0  0  0  0  0  0
   43.9462   28.3259   10.4131 C   0  0  0  0  0  0  0  0  0  0  0  0
   43.6423   26.9917   10.4572 C   0  0  0  0  0  0  0  0  0  0  0  0
   44.3603   26.0930    9.6821 C   0  0  0  0  0  0  0  0  0  0  0  0
   45.4022   26.5677    8.8825 C   0  0  0  0  0  0  0  0  0  0  0  0
   45.6983   27.9242    8.8538 C   0  0  0  0  0  0  0  0  0  0  0  0
   37.6905   29.5712   12.3901 C   0  0  0  0  0  0  0  0  0  0  0  0
   38.8723   28.9529   13.1276 C   0  0  0  0  0  0  0  0  0  0  0  0
   39.5200   26.5338   12.0296 O   0  0  0  0  0  0  0  0  0  0  0  0
   40.6764   30.7443   11.8927 O   0  0  0  0  0  0  0  0  0  0  0  0
   40.6758   29.5525   11.6326 C   0  0  0  0  0  0  0  0  0  0  0  0
   39.8934   28.6755   12.1300 N   0  0  0  0  0  0  0  0  0  0  0  0
   40.1352   27.5152   11.7019 C   0  0  0  0  0  0  0  0  0  0  0  0
   41.3016   27.4642   10.7772 C   0  0  1  0  0  0  0  0  0  0  0  0
   41.6811   28.9461   10.7194 C   0  0  2  0  0  0  0  0  0  0  0  0
  1  2  1  0  0  0  0
  2  3  1  0  0  0  0
  3 20  1  0  0  0  0
  4  5  1  0  0  0  0
  6  7  2  0  0  0  0
  6 12  1  0  0  0  0
  7  8  1  0  0  0  0
  8  9  2  0  0  0  0
  9 11  1  0  0  0  0
 10  5  1  1  0  0  0
 10 11  1  0  0  0  0
 10 16  1  0  0  0  0
 10 27  1  0  0  0  0
 11 12  2  0  0  0  0
 13 12  1  1  0  0  0
 13 15  1  0  0  0  0
 13 28  1  0  0  0  0
 14 15  2  0  0  0  0
 14 19  1  0  0  0  0
 15 16  1  0  0  0  0
 16 17  2  0  0  0  0
 17 18  1  0  0  0  0
 18 19  2  0  0  0  0
 20 21  1  0  0  0  0
 21 25  1  0  0  0  0
 22 26  2  0  0  0  0
 23 24  2  0  0  0  0
 24 25  1  0  0  0  0
 25 26  1  0  0  0  0
 27 26  1  1  0  0  0
 27 28  1  0  0  0  0
 28 24  1  1  0  0  0
M  END
>  <CHROM.1>
163.18008073,-59.99974496,156.60369546,-81.05997825,78.56878475,41.62052869
28.31897844,11.69258402,-2.85160132,-0.54575851,2.31741440

>  <Name>
ligand

>  <RI>
0

>  <Rbt.Current_Directory>
/home/itssahil/PROJECTS/Mol_Feturizer/New_Systems/rnas/1YLS

>  <Rbt.Executable>
rbdock ($Id: //depot/dev/client3/rdock/2013.1/src/exe/rbdock.cxx#4 $)

>  <Rbt.Library>
libRbt.so (2013.1, Build901 2013/11/27)

>  <Rbt.Parameter_File>
/export/apps/rDock/src/rDock_2013.1_src/data/scripts/dock_solv.prm

>  <Rbt.Receptor>
prm/blind_docking_100.prm

>  <SCORE>
-15.1903

>  <SCORE.INTER>
-13.2418

>  <SCORE.INTER.CONST>
1

>  <SCORE.INTER.POLAR>
0

>  <SCORE.INTER.ROT>
5

>  <SCORE.INTER.SOLV>
10.0159

>  <SCORE.INTER.VDW>
-19.0999

>  <SCORE.INTER.norm>
-0.472923

>  <SCORE.INTRA>
-1.97788

>  <SCORE.INTRA.DIHEDRAL>
-5.11048

>  <SCORE.INTRA.DIHEDRAL.0>
12.0148

>  <SCORE.INTRA.POLAR>
0

>  <SCORE.INTRA.POLAR.0>
0

>  <SCORE.INTRA.REPUL>
0

>  <SCORE.INTRA.REPUL.0>
0

>  <SCORE.INTRA.SOLV>
0.395079

>  <SCORE.INTRA.SOLV.lig_0>
-10.5235

>  <SCORE.INTRA.VDW>
0.379828

>  <SCORE.INTRA.VDW.0>
-1.38455

>  <SCORE.INTRA.norm>
-0.0706384

>  <SCORE.RESTR>
0.0294165

>  <SCORE.RESTR.CAVITY>
0.0294165

>  <SCORE.RESTR.norm>
0.00105059

>  <SCORE.SYSTEM>
0

>  <SCORE.SYSTEM.CONST>
0

>  <SCORE.SYSTEM.DIHEDRAL>
0

>  <SCORE.SYSTEM.SOLV>
0

>  <SCORE.SYSTEM.norm>
0

>  <SCORE.heavy>
28

>  <SCORE.norm>
-0.542511

>  <RMSD>
15.855

$$$$
ligand
 OpenBabel11021811413D
libRbt.so/2013.1/901 2013/11/27
 28 32  0  0  0  0  0  0  0  0999 V2000
   37.0111   33.0777   10.9513 C   0  0  0  0  0  0  0  0  0  0  0  0
   37.0946   31.5644   10.9825 C   0  0  0  0  0  0  0  0  0  0  0  0
   37.9545   31.0731   12.1375 C   0  0  0  0  0  0  0  0  0  0  0  0
   43.3386   24.5097   11.9037 O   0  0  0  0  0  0  0  0  0  0  0  0
   42.2029   25.2012   11.3809 C   0  0  0  0  0  0  0  0  0  0  0  0
   43.3096   29.3943   13.7272 C   0  0  0  0  0  0  0  0  0  0  0  0
   43.2338   28.7568   14.9589 C   0  0  0  0  0  0  0  0  0  0  0  0
   42.8960   27.4022   15.0150 C   0  0  0  0  0  0  0  0  0  0  0  0
   42.6380   26.6855   13.8459 C   0  0  0  0  0  0  0  0  0  0  0  0
   42.4652   26.7111   11.3103 C   0  0  1  0  0  0  0  0  0  0  0  0
   42.7468   27.3322   12.6370 C   0  0  0  0  0  0  0  0  0  0  0  0
   43.0757   28.6632   12.5867 C   0  0  0  0  0  0  0  0  0  0  0  0
   43.0847   29.2451   11.2580 C   0  0  1  0  0  0  0  0  0  0  0  0
   44.9441   28.9228    9.6363 C   0  0  0  0  0  0  0  0  0  0  0  0
   43.9359   28.4173   10.4215 C   0  0  0  0  0  0  0  0  0  0  0  0
   43.6348   27.0818   10.4339 C   0  0  0  0  0  0  0  0  0  0  0  0
   44.3549   26.2031    9.6381 C   0  0  0  0  0  0  0  0  0  0  0  0
   45.3961   26.6988    8.8503 C   0  0  0  0  0  0  0  0  0  0  0  0
   45.6893   28.0562    8.8537 C   0  0  0  0  0  0  0  0  0  0  0  0
   37.6773   29.6033   12.4253 C   0  0  0  0  0  0  0  0  0  0  0  0
   38.8599   28.9695   13.1483 C   0  0  0  0  0  0  0  0  0  0  0  0
   39.5130   26.5783   11.9938 O   0  0  0  0  0  0  0  0  0  0  0  0
   40.6606   30.7933   11.9566 O   0  0  0  0  0  0  0  0  0  0  0  0
   40.6626   29.6079   11.6685 C   0  0  0  0  0  0  0  0  0  0  0  0
   39.8819   28.7179   12.1448 N   0  0  0  0  0  0  0  0  0  0  0  0
   40.1263   27.5685   11.6895 C   0  0  0  0  0  0  0  0  0  0  0  0
   41.2930   27.5417   10.7643 C   0  0  1  0  0  0  0  0  0  0  0  0
   41.6694   29.0254   10.7416 C   0  0  2  0  0  0  0  0  0  0  0  0
  1  2  1  0  0  0  0
  2  3  1  0  0  0  0
  3 20  1  0  0  0  0
  4  5  1  0  0  0  0
  6  7  2  0  0  0  0
  6 12  1  0  0  0  0
  7  8  1  0  0  0  0
  8  9  2  0  0  0  0
  9 11  1  0  0  0  0
 10  5  1  1  0  0  0
 10 11  1  0  0  0  0
 10 16  1  0  0  0  0
 10 27  1  0  0  0  0
 11 12  2  0  0  0  0
 13 12  1  1  0  0  0
 13 15  1  0  0  0  0
 13 28  1  0  0  0  0
 14 15  2  0  0  0  0
 14 19  1  0  0  0  0
 15 16  1  0  0  0  0
 16 17  2  0  0  0  0
 17 18  1  0  0  0  0
 18 19  2  0  0  0  0
 20 21  1  0  0  0  0
 21 25  1  0  0  0  0
 22 26  2  0  0  0  0
 23 24  2  0  0  0  0
 24 25  1  0  0  0  0
 25 26  1  0  0  0  0
 27 26  1  1  0  0  0
 27 28  1  0  0  0  0
 28 24  1  1  0  0  0
M  END
>  <CHROM.1>
161.97906306,-60.80855704,157.44588226,-77.58912246,78.53470395,41.61316147
28.37123262,11.68902699,-2.85636945,-0.54219253,2.32514942

>  <Name>
ligand

>  <RI>
0

>  <Rbt.Current_Directory>
/home/itssahil/PROJECTS/Mol_Feturizer/New_Systems/rnas/1YLS

>  <Rbt.Executable>
rbdock ($Id: //depot/dev/client3/rdock/2013.1/src/exe/rbdock.cxx#4 $)

>  <Rbt.Library>
libRbt.so (2013.1, Build901 2013/11/27)

>  <Rbt.Parameter_File>
/export/apps/rDock/src/rDock_2013.1_src/data/scripts/dock_solv.prm

>  <Rbt.Receptor>
prm/blind_docking_100.prm

>  <SCORE>
-15.2018

>  <SCORE.INTER>
-13.3534

>  <SCORE.INTER.CONST>
1

>  <SCORE.INTER.POLAR>
0

>  <SCORE.INTER.ROT>
5

>  <SCORE.INTER.SOLV>
9.95653

>  <SCORE.INTER.VDW>
-19.1545

>  <SCORE.INTER.norm>
-0.476908

>  <SCORE.INTRA>
-1.89098

>  <SCORE.INTRA.DIHEDRAL>
-5.50985

>  <SCORE.INTRA.DIHEDRAL.0>
12.0148

>  <SCORE.INTRA.POLAR>
0

>  <SCORE.INTRA.POLAR.0>
0

>  <SCORE.INTRA.REPUL>
0

>  <SCORE.INTRA.REPUL.0>
0

>  <SCORE.INTRA.SOLV>
0.409524

>  <SCORE.INTRA.SOLV.lig_0>
-10.5235

>  <SCORE.INTRA.VDW>
0.65918

>  <SCORE.INTRA.VDW.0>
-1.38455

>  <SCORE.INTRA.norm>
-0.0675351

>  <SCORE.RESTR>
0.0426547

>  <SCORE.RESTR.CAVITY>
0.0426547

>  <SCORE.RESTR.norm>
0.00152338

>  <SCORE.SYSTEM>
0

>  <SCORE.SYSTEM.CONST>
0

>  <SCORE.SYSTEM.DIHEDRAL>
0

>  <SCORE.SYSTEM.SOLV>
0

>  <SCORE.SYSTEM.norm>
0

>  <SCORE.heavy>
28

>  <SCORE.norm>
-0.54292

>  <RMSD>
15.872

$$$$
ligand
 OpenBabel11021811413D
libRbt.so/2013.1/901 2013/11/27
 28 32  0  0  0  0  0  0  0  0999 V2000
   39.7485   27.0780   10.8350 C   0  0  0  0  0  0  0  0  0  0  0  0
   41.1473   27.4297   11.3015 C   0  0  0  0  0  0  0  0  0  0  0  0
   41.4966   26.7301   12.6067 C   0  0  0  0  0  0  0  0  0  0  0  0
   47.6088   25.2135   12.4573 O   0  0  0  0  0  0  0  0  0  0  0  0
   47.5453   23.8225   12.1376 C   0  0  0  0  0  0  0  0  0  0  0  0
   43.1120   24.5545   10.1074 C   0  0  0  0  0  0  0  0  0  0  0  0
   43.5294   25.7639    9.5665 C   0  0  0  0  0  0  0  0  0  0  0  0
   44.8281   26.2174    9.8112 C   0  0  0  0  0  0  0  0  0  0  0  0
   45.7082   25.4653   10.5901 C   0  0  0  0  0  0  0  0  0  0  0  0
   46.0908   23.3646   11.9688 C   0  0  1  0  0  0  0  0  0  0  0  0
   45.2803   24.2582   11.0913 C   0  0  0  0  0  0  0  0  0  0  0  0
   44.0032   23.8180   10.8512 C   0  0  0  0  0  0  0  0  0  0  0  0
   43.6518   22.5674   11.4965 C   0  0  1  0  0  0  0  0  0  0  0  0
   44.3714   20.3414   10.6488 C   0  0  0  0  0  0  0  0  0  0  0  0
   44.6658   21.5899   11.1421 C   0  0  0  0  0  0  0  0  0  0  0  0
   45.9556   21.9849   11.3761 C   0  0  0  0  0  0  0  0  0  0  0  0
   47.0036   21.1142   11.1158 C   0  0  0  0  0  0  0  0  0  0  0  0
   46.7215   19.8496   10.5947 C   0  0  0  0  0  0  0  0  0  0  0  0
   45.4070   19.4680   10.3603 C   0  0  0  0  0  0  0  0  0  0  0  0
   42.9385   27.0210   13.0022 C   0  0  0  0  0  0  0  0  0  0  0  0
   43.3055   26.2643   14.2733 C   0  0  0  0  0  0  0  0  0  0  0  0
   45.8957   25.3895   14.2187 O   0  0  0  0  0  0  0  0  0  0  0  0
   41.8389   24.0500   13.3064 O   0  0  0  0  0  0  0  0  0  0  0  0
   43.0526   24.0147   13.4234 C   0  0  0  0  0  0  0  0  0  0  0  0
   43.7928   24.9579   13.8603 N   0  0  0  0  0  0  0  0  0  0  0  0
   45.0164   24.6563   13.8467 C   0  0  0  0  0  0  0  0  0  0  0  0
   45.2800   23.3074   13.2732 C   0  0  1  0  0  0  0  0  0  0  0  0
   43.8516   22.8409   12.9809 C   0  0  2  0  0  0  0  0  0  0  0  0
  1  2  1  0  0  0  0
  2  3  1  0  0  0  0
  3 20  1  0  0  0  0
  4  5  1  0  0  0  0
  6  7  2  0  0  0  0
  6 12  1  0  0  0  0
  7  8  1  0  0  0  0
  8  9  2  0  0  0  0
  9 11  1  0  0  0  0
 10  5  1  1  0  0  0
 10 11  1  0  0  0  0
 10 16  1  0  0  0  0
 10 27  1  0  0  0  0
 11 12  2  0  0  0  0
 13 12  1  6  0  0  0
 13 15  1  0  0  0  0
 13 28  1  0  0  0  0
 14 15  2  0  0  0  0
 14 19  1  0  0  0  0
 15 16  1  0  0  0  0
 16 17  2  0  0  0  0
 17 18  1  0  0  0  0
 18 19  2  0  0  0  0
 20 21  1  0  0  0  0
 21 25  1  0  0  0  0
 22 26  2  0  0  0  0
 23 24  2  0  0  0  0
 24 25  1  0  0  0  0
 25 26  1  0  0  0  0
 27 26  1  6  0  0  0
 27 28  1  0  0  0  0
 28 24  1  6  0  0  0
M  END
>  <CHROM.1>
176.00105516,48.15931994,-177.23926681,88.12019733,-73.59930220,44.33829202
24.14960621,11.94384552,2.32093411,-0.40025019,0.52801220

>  <Name>
ligand

>  <RI>
0

>  <Rbt.Current_Directory>
/home/itssahil/PROJECTS/Mol_Feturizer/New_Systems/rnas/1YLS

>  <Rbt.Executable>
rbdock ($Id: //depot/dev/client3/rdock/2013.1/src/exe/rbdock.cxx#4 $)

>  <Rbt.Library>
libRbt.so (2013.1, Build901 2013/11/27)

>  <Rbt.Parameter_File>
/export/apps/rDock/src/rDock_2013.1_src/data/scripts/dock_solv.prm

>  <Rbt.Receptor>
prm/blind_docking_60.prm

>  <SCORE>
-19.9208

>  <SCORE.INTER>
-17.0106

>  <SCORE.INTER.CONST>
1

>  <SCORE.INTER.POLAR>
0

>  <SCORE.INTER.ROT>
5

>  <SCORE.INTER.SOLV>
8.27074

>  <SCORE.INTER.VDW>
-21.0307

>  <SCORE.INTER.norm>
-0.607523

>  <SCORE.INTRA>
-2.91019

>  <SCORE.INTRA.DIHEDRAL>
-6.46922

>  <SCORE.INTRA.DIHEDRAL.0>
12.0148

>  <SCORE.INTRA.POLAR>
0

>  <SCORE.INTRA.POLAR.0>
0

>  <SCORE.INTRA.REPUL>
0

>  <SCORE.INTRA.REPUL.0>
0

>  <SCORE.INTRA.SOLV>
0.942812

>  <SCORE.INTRA.SOLV.lig_0>
-10.5235

>  <SCORE.INTRA.VDW>
-0.146984

>  <SCORE.INTRA.VDW.0>
-1.38455

>  <SCORE.INTRA.norm>
-0.103935

>  <SCORE.RESTR>
0

>  <SCORE.RESTR.CAVITY>
0

>  <SCORE.RESTR.norm>
0

>  <SCORE.SYSTEM>
0

>  <SCORE.SYSTEM.CONST>
0

>  <SCORE.SYSTEM.DIHEDRAL>
0

>  <SCORE.SYSTEM.SOLV>
0

>  <SCORE.SYSTEM.norm>
0

>  <SCORE.heavy>
28

>  <SCORE.norm>
-0.711458

>  <RMSD>
15.875

$$$$
ligand
 OpenBabel11021811413D
libRbt.so/2013.1/901 2013/11/27
 28 32  0  0  0  0  0  0  0  0999 V2000
   40.3895   29.6451   13.4214 C   0  0  0  0  0  0  0  0  0  0  0  0
   40.9973   28.2565   13.4107 C   0  0  0  0  0  0  0  0  0  0  0  0
   41.5698   27.8836   14.7702 C   0  0  0  0  0  0  0  0  0  0  0  0
   48.3898   22.9968   12.6318 O   0  0  0  0  0  0  0  0  0  0  0  0
   47.6583   23.9196   11.8229 C   0  0  0  0  0  0  0  0  0  0  0  0
   43.2122   24.6676    9.8265 C   0  0  0  0  0  0  0  0  0  0  0  0
   43.6623   25.8160    9.1879 C   0  0  0  0  0  0  0  0  0  0  0  0
   44.9819   26.2363    9.3731 C   0  0  0  0  0  0  0  0  0  0  0  0
   45.8502   25.5113   10.1901 C   0  0  0  0  0  0  0  0  0  0  0  0
   46.1845   23.5068   11.7166 C   0  0  1  0  0  0  0  0  0  0  0  0
   45.3889   24.3626   10.7892 C   0  0  0  0  0  0  0  0  0  0  0  0
   44.0915   23.9551   10.6072 C   0  0  0  0  0  0  0  0  0  0  0  0
   43.7080   22.7709   11.3518 C   0  0  1  0  0  0  0  0  0  0  0  0
   44.3263   20.4616   10.6618 C   0  0  0  0  0  0  0  0  0  0  0  0
   44.6773   21.7312   11.0535 C   0  0  0  0  0  0  0  0  0  0  0  0
   45.9856   22.0927   11.2327 C   0  0  0  0  0  0  0  0  0  0  0  0
   46.9948   21.1653   11.0194 C   0  0  0  0  0  0  0  0  0  0  0  0
   46.6549   19.8770   10.6011 C   0  0  0  0  0  0  0  0  0  0  0  0
   45.3224   19.5298   10.4209 C   0  0  0  0  0  0  0  0  0  0  0  0
   42.3004   26.5491   14.6970 C   0  0  0  0  0  0  0  0  0  0  0  0
   43.5588   26.6762   13.8466 C   0  0  0  0  0  0  0  0  0  0  0  0
   46.1130   25.7007   13.8098 O   0  0  0  0  0  0  0  0  0  0  0  0
   41.9907   24.4538   13.0779 O   0  0  0  0  0  0  0  0  0  0  0  0
   43.2045   24.3806   13.1744 C   0  0  0  0  0  0  0  0  0  0  0  0
   43.9884   25.3247   13.5247 N   0  0  0  0  0  0  0  0  0  0  0  0
   45.1994   24.9761   13.5110 C   0  0  0  0  0  0  0  0  0  0  0  0
   45.4005   23.5788   13.0365 C   0  0  1  0  0  0  0  0  0  0  0  0
   43.9498   23.1470   12.8072 C   0  0  2  0  0  0  0  0  0  0  0  0
  1  2  1  0  0  0  0
  2  3  1  0  0  0  0
  3 20  1  0  0  0  0
  4  5  1  0  0  0  0
  6  7  2  0  0  0  0
  6 12  1  0  0  0  0
  7  8  1  0  0  0  0
  8  9  2  0  0  0  0
  9 11  1  0  0  0  0
 10  5  1  1  0  0  0
 10 11  1  0  0  0  0
 10 16  1  0  0  0  0
 10 27  1  0  0  0  0
 11 12  2  0  0  0  0
 13 12  1  6  0  0  0
 13 15  1  0  0  0  0
 13 28  1  0  0  0  0
 14 15  2  0  0  0  0
 14 19  1  0  0  0  0
 15 16  1  0  0  0  0
 16 17  2  0  0  0  0
 17 18  1  0  0  0  0
 18 19  2  0  0  0  0
 20 21  1  0  0  0  0
 21 25  1  0  0  0  0
 22 26  2  0  0  0  0
 23 24  2  0  0  0  0
 24 25  1  0  0  0  0
 25 26  1  0  0  0  0
 27 26  1  6  0  0  0
 27 28  1  0  0  0  0
 28 24  1  6  0  0  0
M  END
>  <CHROM.1>
-174.12464415,-174.99572177,67.78581418,-164.79372290,42.63315253,44.45120350
24.36767632,12.09470900,2.22191525,-0.41735836,0.70767275

>  <Name>
ligand

>  <RI>
0

>  <Rbt.Current_Directory>
/home/itssahil/PROJECTS/Mol_Feturizer/New_Systems/rnas/1YLS

>  <Rbt.Executable>
rbdock ($Id: //depot/dev/client3/rdock/2013.1/src/exe/rbdock.cxx#4 $)

>  <Rbt.Library>
libRbt.so (2013.1, Build901 2013/11/27)

>  <Rbt.Parameter_File>
/export/apps/rDock/src/rDock_2013.1_src/data/scripts/dock_solv.prm

>  <Rbt.Receptor>
prm/blind_docking_60.prm

>  <SCORE>
-14.2342

>  <SCORE.INTER>
-13.4751

>  <SCORE.INTER.CONST>
1

>  <SCORE.INTER.POLAR>
0

>  <SCORE.INTER.ROT>
5

>  <SCORE.INTER.SOLV>
8.7881

>  <SCORE.INTER.VDW>
-18.8461

>  <SCORE.INTER.norm>
-0.481254

>  <SCORE.INTRA>
-0.793609

>  <SCORE.INTRA.DIHEDRAL>
-8.12415

>  <SCORE.INTRA.DIHEDRAL.0>
12.0148

>  <SCORE.INTRA.POLAR>
0

>  <SCORE.INTRA.POLAR.0>
0

>  <SCORE.INTRA.REPUL>
0

>  <SCORE.INTRA.REPUL.0>
0

>  <SCORE.INTRA.SOLV>
0.297591

>  <SCORE.INTRA.SOLV.lig_0>
-10.5235

>  <SCORE.INTRA.VDW>
3.11967

>  <SCORE.INTRA.VDW.0>
-1.38455

>  <SCORE.INTRA.norm>
-0.0283432

>  <SCORE.RESTR>
0.0344966

>  <SCORE.RESTR.CAVITY>
0.0344966

>  <SCORE.RESTR.norm>
0.00123202

>  <SCORE.SYSTEM>
0

>  <SCORE.SYSTEM.CONST>
0

>  <SCORE.SYSTEM.DIHEDRAL>
0

>  <SCORE.SYSTEM.SOLV>
0

>  <SCORE.SYSTEM.norm>
0

>  <SCORE.heavy>
28

>  <SCORE.norm>
-0.508365

>  <RMSD>
15.904

$$$$
