@<TRIPOS>MOLECULE
1YLS_rdock.pdb
 1104 1213 0 0 0
SMALL
GASTEIGER

@<TRIPOS>ATOM
      1  P         28.0360   23.1830   20.6300 P.3   101  G101        0.0000
      2  C5'       27.3190   20.6900   19.9320 C.3   101  G101        0.0000
      3  O5'       28.2380   21.7930   19.8230 O.3   101  G101        0.0000
      4  C4'       28.0420   19.3980   20.2830 C.3   101  G101        0.0000
      5  O4'       28.9310   19.0030   19.2110 O.3   101  G101        0.0000
      6  C3'       28.9240   19.4900   21.5090 C.3   101  G101        0.0000
      7  O3'       28.1960   19.1500   22.6580 O.3   101  G101        0.0000
      8  C2'       30.0210   18.4850   21.2240 C.3   101  G101        0.0000
      9  O2'       29.6650   17.1720   21.5750 O.3   101  G101        0.0000
     10  C1'       30.1910   18.6400   19.7280 C.3   101  G101        0.0000
     11  N1        35.0980   19.8360   19.7800 N.ar  101  G101        0.0000
     12  C2        34.4420   18.6970   20.1640 C.ar  101  G101        0.0000
     13  N2        35.1980   17.7270   20.6420 N.pl3 101  G101        0.0000
     14  N3        33.1370   18.5080   20.1050 N.ar  101  G101        0.0000
     15  C4        32.5100   19.5720   19.6040 C.ar  101  G101        0.0000
     16  C5        33.0500   20.7500   19.1790 C.ar  101  G101        0.0000
     17  C6        34.4550   20.9330   19.2540 C.ar  101  G101        0.0000
     18  O6        35.1200   21.9130   18.9480 O.2   101  G101        0.0000
     19  N7        32.0540   21.5940   18.7350 N.ar  101  G101        0.0000
     20  C8        30.9560   20.9120   18.8840 C.ar  101  G101        0.0000
     21  N9        31.1700   19.6670   19.4100 N.ar  101  G101        0.0000
     22  OP1       28.7570   23.1110   21.9630 O.3   101  G101        0.0000
     23  OP2       28.4040   24.2480   19.6740 O.co2 101  G101       -1.0000
     24  OP3       26.5730   23.3410   20.8660 O.3   101  G101        0.0000
     25  P         28.7280   19.6130   24.0880 P.3   102  G102        0.0000
     26  C5'       29.9950   17.5020   24.8320 C.3   102  G102        0.0000
     27  O5'       30.0610   18.7680   24.2930 O.3   102  G102        0.0000
     28  C4'       31.3850   16.9670   25.0070 C.3   102  G102        0.0000
     29  O4'       32.1700   17.2020   23.8250 O.3   102  G102        0.0000
     30  C3'       32.1400   17.6260   26.1200 C.3   102  G102        0.0000
     31  O3'       31.8690   16.9290   27.2970 O.3   102  G102        0.0000
     32  C2'       33.5820   17.4730   25.6910 C.3   102  G102        0.0000
     33  O2'       34.1460   16.2570   26.1140 O.3   102  G102        0.0000
     34  C1'       33.4900   17.5400   24.1800 C.3   102  G102        0.0000
     35  N1        37.0680   20.8660   22.9190 N.ar  102  G102        0.0000
     36  C2        37.1990   19.5890   23.3860 C.ar  102  G102        0.0000
     37  N2        38.4460   19.1530   23.5320 N.pl3 102  G102        0.0000
     38  N3        36.1830   18.7940   23.6890 N.ar  102  G102        0.0000
     39  C4        35.0030   19.4040   23.4690 C.ar  102  G102        0.0000
     40  C5        34.7720   20.6690   23.0070 C.ar  102  G102        0.0000
     41  C6        35.8580   21.4900   22.6990 C.ar  102  G102        0.0000
     42  O6        35.8340   22.6310   22.2870 O.2   102  G102        0.0000
     43  N7        33.4210   20.9300   22.9270 N.ar  102  G102        0.0000
     44  C8        32.8660   19.8360   23.3360 C.ar  102  G102        0.0000
     45  N9        33.7720   18.8640   23.6780 N.ar  102  G102        0.0000
     46  OP1       27.7370   19.1260   25.0650 O.3   102  G102       -0.5000
     47  OP2       29.1040   21.0770   24.0090 O.co2 102  G102       -0.5000
     48  P         30.9540   17.5680   28.4280 P.3   103  A103        0.0000
     49  C5'       33.0430   16.6350   29.7110 C.3   103  A103        0.0000
     50  O5'       31.9450   17.5460   29.6900 O.3   103  A103        0.0000
     51  C4'       34.2210   17.1730   30.4950 C.3   103  A103        0.0000
     52  O4'       35.0480   17.9520   29.6150 O.3   103  A103        0.0000
     53  C3'       33.9250   18.1340   31.6460 C.3   103  A103        0.0000
     54  O3'       33.5510   17.4540   32.8490 O.3   103  A103        0.0000
     55  C2'       35.2630   18.8360   31.7740 C.3   103  A103        0.0000
     56  O2'       36.2640   18.0430   32.3730 O.3   103  A103        0.0000
     57  C1'       35.5340   19.0960   30.3070 C.3   103  A103        0.0000
     58  N1        35.7060   24.2150   30.1950 N.ar  103  A103        0.0000
     59  C2        36.5400   23.3090   30.6890 C.ar  103  A103        0.0000
     60  N3        36.4250   21.9870   30.6700 N.ar  103  A103        0.0000
     61  C4        35.2910   21.5990   30.0540 C.ar  103  A103        0.0000
     62  C5        34.3390   22.4130   29.4990 C.ar  103  A103        0.0000
     63  C6        34.5780   23.8060   29.5880 C.ar  103  A103        0.0000
     64  N6        33.7620   24.7390   29.0960 N.pl3 103  A103        0.0000
     65  N7        33.3060   21.6490   28.9620 N.ar  103  A103        0.0000
     66  C8        33.6570   20.4090   29.1990 C.ar  103  A103        0.0000
     67  N9        34.8520   20.3080   29.8520 N.ar  103  A103        0.0000
     68  OP1       29.8000   16.6730   28.6280 O.3   103  A103       -0.5000
     69  OP2       30.6940   18.9840   28.0970 O.co2 103  A103       -0.5000
     70  P         32.5800   18.1590   33.9030 P.3   104  G104        0.0000
     71  C5'       34.6300   19.0900   35.2210 C.3   104  G104        0.0000
     72  O5'       33.4760   19.3640   34.4540 O.3   104  G104        0.0000
     73  C4'       35.3390   20.3680   35.6010 C.3   104  G104        0.0000
     74  O4'       35.7450   21.0530   34.3950 O.3   104  G104        0.0000
     75  C3'       34.5070   21.4120   36.3210 C.3   104  G104        0.0000
     76  O3'       34.4050   21.1650   37.7050 O.3   104  G104        0.0000
     77  C2'       35.3240   22.6490   36.0370 C.3   104  G104        0.0000
     78  O2'       36.5250   22.6920   36.7940 O.3   104  G104        0.0000
     79  C1'       35.5890   22.4500   34.5600 C.3   104  G104        0.0000
     80  N1        33.2770   26.5340   32.6930 N.ar  104  G104        0.0000
     81  C2        34.3860   26.4370   33.4990 C.ar  104  G104        0.0000
     82  N2        34.9650   27.5690   33.8640 N.pl3 104  G104        0.0000
     83  N3        34.9040   25.3020   33.9180 N.ar  104  G104        0.0000
     84  C4        34.2060   24.2320   33.4660 C.ar  104  G104        0.0000
     85  C5        33.0860   24.2150   32.6570 C.ar  104  G104        0.0000
     86  C6        32.5560   25.4340   32.2120 C.ar  104  G104        0.0000
     87  O6        31.5760   25.5920   31.4920 O.2   104  G104        0.0000
     88  N7        32.6710   22.9120   32.4040 N.ar  104  G104        0.0000
     89  C8        33.5340   22.1750   33.0660 C.ar  104  G104        0.0000
     90  N9        34.4950   22.9200   33.7320 N.ar  104  G104        0.0000
     91  OP1       32.3640   17.1730   34.9630 O.3   104  G104       -0.5000
     92  OP2       31.4060   18.7510   33.2200 O.co2 104  G104       -0.5000
     93  P         33.1790   21.7970   38.5310 P.3   105  C105        0.0000
     94  C5'       34.5680   23.8470   39.4130 C.3   105  C105        0.0000
     95  O5'       33.4760   23.3780   38.6130 O.3   105  C105        0.0000
     96  C4'       34.8300   25.3540   39.3120 C.3   105  C105        0.0000
     97  O4'       35.1170   25.7850   37.9470 O.3   105  C105        0.0000
     98  C3'       33.6940   26.2620   39.7430 C.3   105  C105        0.0000
     99  O3'       33.5900   26.3390   41.1300 O.3   105  C105        0.0000
    100  C2'       34.1510   27.5780   39.1470 C.3   105  C105        0.0000
    101  O2'       35.1930   28.1930   39.9130 O.3   105  C105        0.0000
    102  C1'       34.5860   27.0850   37.7620 C.3   105  C105        0.0000
    103  N1        33.4420   26.9940   36.8390 N.ar  105  C105        0.0000
    104  C2        32.9740   28.1330   36.2180 C.ar  105  C105        0.0000
    105  O2        33.5480   29.2020   36.4340 O.2   105  C105        0.0000
    106  N3        31.9180   28.0360   35.3770 N.ar  105  C105        0.0000
    107  C4        31.3390   26.8620   35.1740 C.ar  105  C105        0.0000
    108  N4        30.2980   26.7930   34.3550 N.pl3 105  C105        0.0000
    109  C5        31.8030   25.6970   35.8050 C.ar  105  C105        0.0000
    110  C6        32.8330   25.8100   36.6310 C.ar  105  C105        0.0000
    111  OP1       33.2930   21.2090   39.8750 O.3   105  C105       -0.5000
    112  OP2       31.9360   21.6550   37.7330 O.co2 105  C105       -0.5000
    113  CA'       32.4020   33.4320   43.7570 C.3   106  UMS106      0.0000
    114 SE2'       31.9940   33.4270   41.9100 Se    106  UMS106      0.0000
    115  P         32.1560   26.4590   41.7800 P.3   106  UMS106      0.0000
    116  C5'       32.7670   28.8320   42.4290 C.3   106  UMS106      0.0000
    117  O5'       31.8980   28.0040   41.7530 O.3   106  UMS106      0.0000
    118  C4'       32.5010   30.2520   42.0320 C.3   106  UMS106      0.0000
    119  O4'       32.6560   30.3870   40.5960 O.3   106  UMS106      0.0000
    120  C3'       31.0920   30.7420   42.3010 C.3   106  UMS106      0.0000
    121  O3'       30.9390   31.1160   43.6530 O.3   106  UMS106      0.0000
    122  C2'       31.0240   31.9160   41.3440 C.3   106  UMS106      0.0000
    123  C1'       31.7240   31.3410   40.1120 C.3   106  UMS106      0.0000
    124  N1        30.8410   30.7030   39.0830 N.ar  106  UMS106      0.0000
    125  C2        30.0780   31.5060   38.2730 C.ar  106  UMS106      0.0000
    126  O2        30.0590   32.7100   38.3500 O.2   106  UMS106      0.0000
    127  N3        29.3350   30.8580   37.3440 N.ar  106  UMS106      0.0000
    128  C4        29.2790   29.5030   37.1460 C.ar  106  UMS106      0.0000
    129  O4        28.5600   29.0580   36.2620 O.2   106  UMS106      0.0000
    130  C5        30.1040   28.7170   38.0200 C.ar  106  UMS106      0.0000
    131  C6        30.8440   29.3360   38.9300 C.ar  106  UMS106      0.0000
    132  OP1       32.3020   26.0100   43.1850 O.co2 106  UMS106     -0.5000
    133  OP2       31.1420   25.8600   40.8910 O.3   106  UMS106     -0.5000
    134  P         29.6260   30.7450   44.4670 P.3   107  C107        0.0000
    135  C5'       28.9710   33.2790   44.3700 C.3   107  C107        0.0000
    136  O5'       28.6180   31.9270   44.1300 O.3   107  C107        0.0000
    137  C4'       28.0650   34.1650   43.5680 C.3   107  C107        0.0000
    138  O4'       28.3840   34.0170   42.1740 O.3   107  C107        0.0000
    139  C3'       26.6140   33.7570   43.6240 C.3   107  C107        0.0000
    140  O3'       25.9800   34.1770   44.8100 O.3   107  C107        0.0000
    141  C2'       26.0640   34.4140   42.3700 C.3   107  C107        0.0000
    142  O2'       25.7790   35.7810   42.5220 O.3   107  C107        0.0000
    143  C1'       27.2090   34.1690   41.4040 C.3   107  C107        0.0000
    144  N1        26.9940   32.9680   40.5810 N.ar  107  C107        0.0000
    145  C2        26.3370   33.1050   39.3620 C.ar  107  C107        0.0000
    146  O2        25.9640   34.2090   39.0070 O.2   107  C107        0.0000
    147  N3        26.1260   32.0300   38.5910 N.ar  107  C107        0.0000
    148  C4        26.5340   30.8450   38.9970 C.ar  107  C107        0.0000
    149  N4        26.2940   29.8220   38.1920 N.pl3 107  C107        0.0000
    150  C5        27.2050   30.6600   40.2430 C.ar  107  C107        0.0000
    151  C6        27.4090   31.7450   41.0040 C.ar  107  C107        0.0000
    152  OP1       29.9980   30.8250   45.8870 O.3   107  C107       -0.5000
    153  OP2       29.0570   29.4990   43.9120 O.co2 107  C107       -0.5000
    154  P         24.4920   33.6870   45.0810 P.3   108  G108        0.0000
    155  C5'       22.2240   34.7430   44.4850 C.3   108  G108        0.0000
    156  O5'       23.6050   34.8160   44.3970 O.3   108  G108        0.0000
    157  C4'       21.6320   35.1900   43.1840 C.3   108  G108        0.0000
    158  O4'       22.5870   35.0130   42.1130 O.3   108  G108        0.0000
    159  C3'       20.4470   34.3940   42.7140 C.3   108  G108        0.0000
    160  O3'       19.3000   34.7470   43.4300 O.3   108  G108        0.0000
    161  C2'       20.4010   34.8100   41.2560 C.3   108  G108        0.0000
    162  O2'       19.9070   36.1220   41.0610 O.3   108  G108        0.0000
    163  C1'       21.8820   34.6850   40.9180 C.3   108  G108        0.0000
    164  N1        21.1140   30.7640   37.7330 N.ar  108  G108        0.0000
    165  C2        20.4890   31.9850   37.7400 C.ar  108  G108        0.0000
    166  N2        19.5660   32.1830   36.7910 N.pl3 108  G108        0.0000
    167  N3        20.7590   32.9520   38.6160 N.ar  108  G108        0.0000
    168  C4        21.7260   32.5810   39.4950 C.ar  108  G108        0.0000
    169  C5        22.3980   31.3840   39.5580 C.ar  108  G108        0.0000
    170  C6        22.1000   30.3740   38.6320 C.ar  108  G108        0.0000
    171  O6        22.5970   29.2520   38.5700 O.2   108  G108        0.0000
    172  N7        23.3110   31.3790   40.5930 N.ar  108  G108        0.0000
    173  C8        23.1840   32.5490   41.1440 C.ar  108  G108        0.0000
    174  N9        22.2510   33.3380   40.5240 N.ar  108  G108        0.0000
    175  OP1       24.2540   33.7290   46.5280 O.3   108  G108       -0.5000
    176  OP2       24.2820   32.4310   44.3590 O.co2 108  G108       -0.5000
    177  P         18.8520   33.9180   44.7030 P.3   109  C109        0.0000
    178  C5'       16.5960   34.7220   43.6520 C.3   109  C109        0.0000
    179  O5'       17.2890   33.7880   44.4460 O.3   109  C109        0.0000
    180  C4'       16.1120   34.0690   42.3750 C.3   109  C109        0.0000
    181  O4'       17.2110   33.7210   41.5290 O.3   109  C109        0.0000
    182  C3'       15.4310   32.7410   42.5350 C.3   109  C109        0.0000
    183  O3'       14.1550   32.8960   43.0560 O.3   109  C109        0.0000
    184  C2'       15.4260   32.2170   41.1090 C.3   109  C109        0.0000
    185  O2'       14.3270   32.6480   40.3240 O.3   109  C109        0.0000
    186  C1'       16.7650   32.7440   40.6060 C.3   109  C109        0.0000
    187  N1        17.7150   31.6820   40.5950 N.ar  109  C109        0.0000
    188  C2        17.6890   30.7350   39.5760 C.ar  109  C109        0.0000
    189  O2        16.8740   30.8460   38.6650 O.2   109  C109        0.0000
    190  N3        18.5630   29.7160   39.6260 N.ar  109  C109        0.0000
    191  C4        19.4270   29.6310   40.6450 C.ar  109  C109        0.0000
    192  N4        20.2950   28.6220   40.6670 N.pl3 109  C109        0.0000
    193  C5        19.4520   30.5800   41.6920 C.ar  109  C109        0.0000
    194  C6        18.5760   31.5760   41.6390 C.ar  109  C109        0.0000
    195  OP1       19.0940   34.7210   45.9220 O.3   109  C109       -0.5000
    196  OP2       19.4540   32.5870   44.6040 O.co2 109  C109       -0.5000
    197  CA'       10.2080   25.7480   39.3920 C.3   110  CSL110      0.0000
    198 SE2'       11.4880   27.0740   39.0110 Se    110  CSL110      0.0000
    199  P         13.5670   31.7450   43.9680 P.3   110  CSL110      0.0000
    200  O1P       12.2820   32.2190   44.5430 O.co2 110  CSL110     -0.5000
    201  O2P       14.6410   31.2710   44.8600 O.3   110  CSL110     -0.5000
    202  C5'       12.3210   30.8630   41.8550 C.3   110  CSL110      0.0000
    203  O5'       13.2880   30.6420   42.8630 O.3   110  CSL110      0.0000
    204  C4'       12.3140   29.6850   40.9090 C.3   110  CSL110      0.0000
    205  O4'       13.6170   29.5660   40.2930 O.3   110  CSL110      0.0000
    206  C3'       12.1390   28.3120   41.5470 C.3   110  CSL110      0.0000
    207  O3'       10.7790   28.0170   41.9230 O.3   110  CSL110      0.0000
    208  C2'       12.6680   27.3960   40.4420 C.3   110  CSL110      0.0000
    209  C1'       13.8800   28.1950   39.9840 C.3   110  CSL110      0.0000
    210  N1        15.1000   27.7140   40.6660 N.ar  110  CSL110      0.0000
    211  C2        15.6790   26.5260   40.2300 C.ar  110  CSL110      0.0000
    212  O2        15.1780   25.9210   39.2800 O.2   110  CSL110      0.0000
    213  N3        16.7710   26.0700   40.8600 N.ar  110  CSL110      0.0000
    214  C4        17.2770   26.7400   41.8820 C.ar  110  CSL110      0.0000
    215  N4        18.3610   26.2420   42.4690 N.pl3 110  CSL110      0.0000
    216  C5        16.6990   27.9460   42.3540 C.ar  110  CSL110      0.0000
    217  C6        15.6140   28.3890   41.7320 C.ar  110  CSL110      0.0000
    218  P         10.4450   26.8340   42.9590 P.3   111  C111        0.0000
    219  C5'       10.2520   24.3170   42.4900 C.3   111  C111        0.0000
    220  O5'       10.8190   25.5320   42.1410 O.3   111  C111        0.0000
    221  C4'       10.8930   23.2070   41.7110 C.3   111  C111        0.0000
    222  O4'       12.1030   23.7040   41.1150 O.3   111  C111        0.0000
    223  C3'       11.3630   22.0290   42.5290 C.3   111  C111        0.0000
    224  O3'       10.3070   21.1380   42.8190 O.3   111  C111        0.0000
    225  C2'       12.3840   21.4450   41.5790 C.3   111  C111        0.0000
    226  O2'       11.7980   20.7770   40.4800 O.3   111  C111        0.0000
    227  C1'       13.0930   22.7070   41.1350 C.3   111  C111        0.0000
    228  N1        14.1700   23.1340   42.0220 N.ar  111  C111        0.0000
    229  C2        15.3400   22.4170   42.0270 C.ar  111  C111        0.0000
    230  O2        15.4320   21.4540   41.2910 O.2   111  C111        0.0000
    231  N3        16.3500   22.7920   42.8210 N.ar  111  C111        0.0000
    232  C4        16.2150   23.8420   43.6010 C.ar  111  C111        0.0000
    233  N4        17.2390   24.1710   44.3750 N.pl3 111  C111        0.0000
    234  C5        15.0190   24.5990   43.6260 C.ar  111  C111        0.0000
    235  C6        14.0260   24.2130   42.8250 C.ar  111  C111        0.0000
    236  OP1        8.9850   26.8490   43.1730 O.2   111  C111       -0.5000
    237  OP2       11.3770   26.9250   44.0990 O.co2 111  C111       -0.5000
    238  C5'       26.7610   18.7560   42.3100 C.3   201  G201        0.0000
    239  O5'       26.9120   20.1300   42.2160 O.3   201  G201        0.0000
    240  C4'       25.5000   18.3340   41.6090 C.3   201  G201        0.0000
    241  O4'       24.4040   18.3750   42.5570 O.3   201  G201        0.0000
    242  C3'       25.0670   19.2390   40.4690 C.3   201  G201        0.0000
    243  O3'       25.6480   18.8550   39.2500 O.3   201  G201        0.0000
    244  C2'       23.5740   19.0070   40.4680 C.3   201  G201        0.0000
    245  O2'       23.2200   17.8190   39.7950 O.3   201  G201        0.0000
    246  C1'       23.2460   18.8920   41.9370 C.3   201  G201        0.0000
    247  N1        19.3650   21.9590   42.9480 N.ar  201  G201        0.0000
    248  C2        19.4110   20.7910   42.2510 C.ar  201  G201        0.0000
    249  N2        18.2590   20.3700   41.7490 N.pl3 201  G201        0.0000
    250  N3        20.4990   20.0810   42.0480 N.ar  201  G201        0.0000
    251  C4        21.5800   20.6460   42.6100 C.ar  201  G201        0.0000
    252  C5        21.6550   21.8040   43.3310 C.ar  201  G201        0.0000
    253  C6        20.4710   22.5450   43.5430 C.ar  201  G201        0.0000
    254  O6        20.3360   23.6010   44.1550 O.2   201  G201        0.0000
    255  N7        22.9590   22.0380   43.7540 N.ar  201  G201        0.0000
    256  C8        23.6260   21.0230   43.2820 C.ar  201  G201        0.0000
    257  N9        22.8490   20.1450   42.5700 N.ar  201  G201        0.0000
    258  P         25.2280   19.5980   37.9000 P.3   202  G202        0.0000
    259  C5'       23.1980   18.2340   36.9250 C.3   202  G202        0.0000
    260  O5'       23.6640   19.3030   37.7190 O.3   202  G202        0.0000
    261  C4'       21.7070   18.3620   36.6460 C.3   202  G202        0.0000
    262  O4'       20.9260   18.5270   37.8570 O.3   202  G202        0.0000
    263  C3'       21.3320   19.5670   35.8260 C.3   202  G202        0.0000
    264  O3'       21.5320   19.2990   34.4890 O.3   202  G202        0.0000
    265  C2'       19.8640   19.7450   36.1770 C.3   202  G202        0.0000
    266  O2'       19.0130   18.8040   35.5540 O.3   202  G202        0.0000
    267  C1'       19.9370   19.5310   37.6620 C.3   202  G202        0.0000
    268  N1        18.4670   23.7920   39.9670 N.ar  202  G202        0.0000
    269  C2        17.7160   22.8850   39.2800 C.ar  202  G202        0.0000
    270  N2        16.4100   23.1510   39.2010 N.pl3 202  G202        0.0000
    271  N3        18.2060   21.8000   38.7020 N.ar  202  G202        0.0000
    272  C4        19.5350   21.7040   38.8790 C.ar  202  G202        0.0000
    273  C5        20.3700   22.5580   39.5430 C.ar  202  G202        0.0000
    274  C6        19.8370   23.7110   40.1560 C.ar  202  G202        0.0000
    275  O6        20.4320   24.5970   40.7920 O.2   202  G202        0.0000
    276  N7        21.6680   22.1080   39.4930 N.ar  202  G202        0.0000
    277  C8        21.6050   21.0270   38.7980 C.ar  202  G202        0.0000
    278  N9        20.3370   20.7100   38.4090 N.ar  202  G202        0.0000
    279  OP1       25.9520   18.9440   36.7870 O.2   202  G202       -0.5000
    280  OP2       25.4110   21.0460   38.1530 O.co2 202  G202       -0.5000
    281  P         21.7320   20.4970   33.4810 P.3   203  G203        0.0000
    282  C5'       19.1790   20.8350   33.0870 C.3   203  G203        0.0000
    283  O5'       20.3820   21.3070   33.6500 O.3   203  G203        0.0000
    284  C4'       18.1950   21.9660   33.0820 C.3   203  G203        0.0000
    285  O4'       17.7140   22.2040   34.4290 O.3   203  G203        0.0000
    286  C3'       18.7890   23.2940   32.6490 C.3   203  G203        0.0000
    287  O3'       18.9090   23.3450   31.2080 O.3   203  G203        0.0000
    288  C2'       17.7820   24.2550   33.2640 C.3   203  G203        0.0000
    289  O2'       16.5920   24.3950   32.5100 O.3   203  G203        0.0000
    290  C1'       17.5640   23.5940   34.6270 C.3   203  G203        0.0000
    291  N1        18.6670   27.1730   38.0410 N.ar  203  G203        0.0000
    292  C2        17.5470   27.0330   37.2450 C.ar  203  G203        0.0000
    293  N2        16.5910   27.9670   37.3720 N.pl3 203  G203        0.0000
    294  N3        17.3750   26.0380   36.3830 N.ar  203  G203        0.0000
    295  C4        18.4270   25.1820   36.3850 C.ar  203  G203        0.0000
    296  C5        19.5830   25.2390   37.1350 C.ar  203  G203        0.0000
    297  C6        19.7520   26.3000   38.0520 C.ar  203  G203        0.0000
    298  O6        20.7080   26.5190   38.8000 O.2   203  G203        0.0000
    299  N7        20.4190   24.1790   36.8320 N.ar  203  G203        0.0000
    300  C8        19.7630   23.5120   35.9220 C.ar  203  G203        0.0000
    301  N9        18.5370   24.0580   35.6120 N.ar  203  G203        0.0000
    302  OP1       21.7700   19.8880   32.1310 O.2   203  G203       -0.5000
    303  OP2       22.8290   21.3530   33.9840 O.co2 203  G203       -0.5000
    304  CA'       15.7150   30.7640   29.9690 C.3   204  CSL204      0.0000
    305 SE2'       16.1180   30.4250   31.7830 Se    204  CSL204      0.0000
    306  P         19.6170   24.5570   30.3980 P.3   204  CSL204      0.0000
    307  O1P       20.2270   23.9720   29.1890 O.co2 204  CSL204     -0.5000
    308  O2P       20.4820   25.3570   31.2900 O.3   204  CSL204     -0.5000
    309  C5'       18.4220   26.7530   29.6040 C.3   204  CSL204      0.0000
    310  O5'       18.3190   25.4140   29.9950 O.3   204  CSL204      0.0000
    311  C4'       17.6820   27.7010   30.5520 C.3   204  CSL204      0.0000
    312  O4'       17.5710   27.2000   31.9200 O.3   204  CSL204      0.0000
    313  C3'       18.4090   29.0140   30.7310 C.3   204  CSL204      0.0000
    314  O3'       18.2680   29.8460   29.6030 O.3   204  CSL204      0.0000
    315  C2'       17.7820   29.5720   32.0030 C.3   204  CSL204      0.0000
    316  C1'       17.6620   28.3010   32.8380 C.3   204  CSL204      0.0000
    317  N1        18.8300   28.1440   33.7560 N.ar  204  CSL204      0.0000
    318  C2        19.0270   29.0530   34.7940 C.ar  204  CSL204      0.0000
    319  O2        18.2340   29.9780   34.9420 O.2   204  CSL204      0.0000
    320  N3        20.0850   28.8950   35.6080 N.ar  204  CSL204      0.0000
    321  C4        20.9230   27.8900   35.4110 C.ar  204  CSL204      0.0000
    322  N4        21.9440   27.7550   36.2350 N.pl3 204  CSL204      0.0000
    323  C5        20.7540   26.9630   34.3660 C.ar  204  CSL204      0.0000
    324  C6        19.7110   27.1320   33.5650 C.ar  204  CSL204      0.0000
    325  P         19.4550   30.8490   29.3160 P.3   205  G205        0.0000
    326  C5'       18.5110   32.8610   30.7470 C.3   205  G205        0.0000
    327  O5'       19.4440   31.8050   30.6000 O.3   205  G205        0.0000
    328  C4'       19.0750   33.9200   31.6550 C.3   205  G205        0.0000
    329  O4'       19.0580   33.4620   33.0330 O.3   205  G205        0.0000
    330  C3'       20.5310   34.2490   31.4000 C.3   205  G205        0.0000
    331  O3'       20.6840   35.1460   30.3060 O.3   205  G205        0.0000
    332  C2'       20.8960   34.8550   32.7430 C.3   205  G205        0.0000
    333  O2'       20.3630   36.1580   32.9270 O.3   205  G205        0.0000
    334  C1'       20.2670   33.8320   33.6730 C.3   205  G205        0.0000
    335  N1        23.9910   31.8080   36.4430 N.ar  205  G205        0.0000
    336  C2        23.4060   33.0400   36.5190 C.ar  205  G205        0.0000
    337  N2        23.8620   33.8460   37.4750 N.pl3 205  G205        0.0000
    338  N3        22.4300   33.4540   35.7280 N.ar  205  G205        0.0000
    339  C4        22.0850   32.5210   34.8290 C.ar  205  G205        0.0000
    340  C5        22.6080   31.2670   34.6620 C.ar  205  G205        0.0000
    341  C6        23.6390   30.8390   35.5220 C.ar  205  G205        0.0000
    342  O6        24.2250   29.7600   35.5320 O.2   205  G205        0.0000
    343  N7        21.9840   30.6090   33.6240 N.ar  205  G205        0.0000
    344  C8        21.1050   31.4670   33.1930 C.ar  205  G205        0.0000
    345  N9        21.1070   32.6520   33.8920 N.ar  205  G205        0.0000
    346  OP1       19.0890   31.6070   28.0940 O.2   205  G205       -0.5000
    347  OP2       20.7230   30.0880   29.3940 O.co2 205  G205       -0.5000
    348  P         22.0520   35.2570   29.4700 P.3   206  A206        0.0000
    349  C5'       22.9900   37.1230   30.9920 C.3   206  A206        0.0000
    350  O5'       23.1250   35.7940   30.5330 O.3   206  A206        0.0000
    351  C4'       23.8130   37.3720   32.2290 C.3   206  A206        0.0000
    352  O4'       23.4530   36.4590   33.2890 O.3   206  A206        0.0000
    353  C3'       25.2860   37.1480   32.0290 C.3   206  A206        0.0000
    354  O3'       25.8670   38.2680   31.4210 O.3   206  A206        0.0000
    355  C2'       25.7680   36.9410   33.4510 C.3   206  A206        0.0000
    356  O2'       25.9970   38.1540   34.1350 O.3   206  A206        0.0000
    357  C1'       24.6190   36.0910   34.0130 C.3   206  A206        0.0000
    358  N1        27.6060   32.2750   35.5870 N.ar  206  A206        0.0000
    359  C2        27.4810   33.5370   35.9740 C.ar  206  A206        0.0000
    360  N3        26.6620   34.4730   35.5050 N.ar  206  A206        0.0000
    361  C4        25.8980   33.9920   34.5230 C.ar  206  A206        0.0000
    362  C5        25.9170   32.7220   34.0100 C.ar  206  A206        0.0000
    363  C6        26.8280   31.8320   34.5940 C.ar  206  A206        0.0000
    364  N6        26.9540   30.5760   34.2170 N.pl3 206  A206        0.0000
    365  N7        24.9910   32.5840   33.0010 N.ar  206  A206        0.0000
    366  C8        24.4440   33.7700   32.9250 C.ar  206  A206        0.0000
    367  N9        24.9370   34.6660   33.8380 N.ar  206  A206        0.0000
    368  OP1       21.7720   36.3180   28.4760 O.2   206  A206       -0.5000
    369  OP2       22.4770   33.9100   29.0200 O.co2 206  A206       -0.5000
    370  P         26.7130   38.1550   30.0710 P.3   207  G207        0.0000
    371  C5'       28.7760   38.3300   31.5000 C.3   207  G207        0.0000
    372  O5'       28.1030   37.5740   30.5890 O.3   207  G207        0.0000
    373  C4'       29.7200   37.4900   32.2800 C.3   207  G207        0.0000
    374  O4'       29.0360   36.3520   32.8160 O.3   207  G207        0.0000
    375  C3'       30.8180   36.7880   31.5260 C.3   207  G207        0.0000
    376  O3'       31.7940   37.6710   30.9950 O.3   207  G207        0.0000
    377  C2'       31.3460   35.9360   32.6520 C.3   207  G207        0.0000
    378  O2'       32.1520   36.7120   33.5090 O.3   207  G207        0.0000
    379  C1'       30.0370   35.4650   33.3070 C.3   207  G207        0.0000
    380  N1        30.8090   30.5210   34.2570 N.ar  207  G207        0.0000
    381  C2        31.4180   31.6150   34.8130 C.ar  207  G207        0.0000
    382  N2        32.3540   31.3710   35.7310 N.pl3 207  G207        0.0000
    383  N3        31.1290   32.8690   34.4900 N.ar  207  G207        0.0000
    384  C4        30.1720   32.9410   33.5450 C.ar  207  G207        0.0000
    385  C5        29.5160   31.9100   32.9350 C.ar  207  G207        0.0000
    386  C6        29.8290   30.5940   33.2850 C.ar  207  G207        0.0000
    387  O6        29.3500   29.5710   32.8220 O.2   207  G207        0.0000
    388  N7        28.6050   32.3740   32.0220 N.ar  207  G207        0.0000
    389  C8        28.7230   33.6670   32.0930 C.ar  207  G207        0.0000
    390  N9        29.6660   34.0870   32.9930 N.ar  207  G207        0.0000
    391  OP1       26.8710   39.5510   29.6310 O.3   207  G207       -0.5000
    392  OP2       26.0760   37.1690   29.1540 O.co2 207  G207       -0.5000
    393  P         31.8090   37.9710   29.4150 P.3   208  G208        0.0000
    394  C5'       30.4460   40.0970   28.7150 C.3   208  G208        0.0000
    395  O5'       31.5850   39.5460   29.3710 O.3   208  G208        0.0000
    396  C4'       30.6250   41.5810   28.5900 C.3   208  G208        0.0000
    397  O4'       31.0980   42.0780   29.8580 O.3   208  G208        0.0000
    398  C3'       31.6880   41.9820   27.5850 C.3   208  G208        0.0000
    399  O3'       31.0910   42.1700   26.3000 O.3   208  G208        0.0000
    400  C2'       32.2470   43.2500   28.1810 C.3   208  G208        0.0000
    401  O2'       31.4570   44.3760   27.8830 O.3   208  G208        0.0000
    402  C1'       32.1820   42.9620   29.6600 C.3   208  G208        0.0000
    403  N1        37.2020   43.2100   30.2890 N.ar  208  G208        0.0000
    404  C2        36.3880   44.0270   29.5790 C.ar  208  G208        0.0000
    405  N2        37.0020   45.0340   28.9680 N.pl3 208  G208        0.0000
    406  N3        35.0740   43.8860   29.4670 N.ar  208  G208        0.0000
    407  C4        34.6400   42.8180   30.1480 C.ar  208  G208        0.0000
    408  C5        35.3740   41.9470   30.8880 C.ar  208  G208        0.0000
    409  C6        36.7630   42.1170   30.9810 C.ar  208  G208        0.0000
    410  O6        37.5700   41.4160   31.5750 O.2   208  G208        0.0000
    411  N7        34.5750   40.9700   31.4240 N.ar  208  G208        0.0000
    412  C8        33.3910   41.2610   31.0110 C.ar  208  G208        0.0000
    413  N9        33.3610   42.3600   30.2200 N.ar  208  G208        0.0000
    414  OP1       30.6390   37.3250   28.7570 O.2   208  G208       -0.5000
    415  OP2       33.1730   37.6810   28.9480 O.co2 208  G208       -0.5000
    416  CA'       37.3280   47.1990   24.4410 C.3   209  CSL209      0.0000
    417 SE2'       36.6380   45.8570   23.2730 Se    209  CSL209      0.0000
    418  P         31.6520   41.3680   25.0490 P.3   209  CSL209      0.0000
    419  O1P       30.6840   41.4050   23.9290 O.co2 209  CSL209     -0.5000
    420  O2P       32.1950   40.0780   25.5250 O.3   209  CSL209     -0.5000
    421  C5'       32.6230   43.6260   24.4130 C.3   209  CSL209      0.0000
    422  O5'       32.8530   42.2920   24.6870 O.3   209  CSL209      0.0000
    423  C4'       33.9430   44.3020   24.2910 C.3   209  CSL209      0.0000
    424  O4'       34.5020   44.4630   25.5910 O.3   209  CSL209      0.0000
    425  C3'       34.9910   43.5030   23.5660 C.3   209  CSL209      0.0000
    426  O3'       34.7450   43.6080   22.1780 O.3   209  CSL209      0.0000
    427  C2'       36.2640   44.1870   24.0670 C.3   209  CSL209      0.0000
    428  C1'       35.9020   44.3680   25.5170 C.3   209  CSL209      0.0000
    429  N1        36.3010   43.3080   26.3010 N.ar  209  CSL209      0.0000
    430  C2        37.6310   43.2270   26.6820 C.ar  209  CSL209      0.0000
    431  O2        38.4160   44.0900   26.3100 O.2   209  CSL209      0.0000
    432  N3        38.0050   42.2040   27.4620 N.ar  209  CSL209      0.0000
    433  C4        37.0950   41.3000   27.8310 C.ar  209  CSL209      0.0000
    434  N4        37.4810   40.2950   28.6050 N.pl3 209  CSL209      0.0000
    435  C5        35.7380   41.3810   27.4330 C.ar  209  CSL209      0.0000
    436  C6        35.3920   42.3900   26.6710 C.ar  209  CSL209      0.0000
    437  P         35.1320   42.4460   21.1600 P.3   210  C210        0.0000
    438  C5'       37.3850   43.5430   20.4780 C.3   210  C210        0.0000
    439  O5'       36.7300   42.5280   21.2010 O.3   210  C210        0.0000
    440  C4'       38.8620   43.4400   20.6920 C.3   210  C210        0.0000
    441  O4'       39.1240   43.5130   22.1010 O.3   210  C210        0.0000
    442  C3'       39.4780   42.1200   20.2970 C.3   210  C210        0.0000
    443  O3'       39.6460   42.0000   18.8960 O.3   210  C210        0.0000
    444  C2'       40.7790   42.1840   21.0800 C.3   210  C210        0.0000
    445  O2'       41.7720   42.9900   20.5090 O.3   210  C210        0.0000
    446  C1'       40.2940   42.7750   22.3980 C.3   210  C210        0.0000
    447  N1        39.9980   41.7120   23.3600 N.ar  210  C210        0.0000
    448  C2        41.0670   41.0060   23.9340 C.ar  210  C210        0.0000
    449  O2        42.2100   41.3240   23.6520 O.2   210  C210        0.0000
    450  N3        40.8180   40.0100   24.7970 N.ar  210  C210        0.0000
    451  C4        39.5560   39.7000   25.0620 C.ar  210  C210        0.0000
    452  N4        39.3400   38.7140   25.9030 N.pl3 210  C210        0.0000
    453  C5        38.4530   40.3780   24.4780 C.ar  210  C210        0.0000
    454  C6        38.7110   41.3720   23.6330 C.ar  210  C210        0.0000
    455  OP1       34.5940   42.8570   19.8430 O.2   210  C210       -0.5000
    456  OP2       34.7690   41.1290   21.7230 O.co2 210  C210       -0.5000
    457  P         39.6930   40.5470   18.2090 P.3   211  G211        0.0000
    458  C5'       42.2970   40.3850   18.3980 C.3   211  G211        0.0000
    459  O5'       41.0470   39.9020   18.7650 O.3   211  G211        0.0000
    460  C4'       43.3650   39.5560   19.0650 C.3   211  G211        0.0000
    461  O4'       43.2220   39.7040   20.4810 O.3   211  G211        0.0000
    462  C3'       43.2990   38.0530   18.8620 C.3   211  G211        0.0000
    463  O3'       43.8730   37.6510   17.6420 O.3   211  G211        0.0000
    464  C2'       44.1170   37.5890   20.0540 C.3   211  G211        0.0000
    465  O2'       45.5190   37.7570   19.9180 O.3   211  G211        0.0000
    466  C1'       43.5850   38.5040   21.1290 C.3   211  G211        0.0000
    467  N1        42.3050   35.1580   24.6140 N.ar  211  G211        0.0000
    468  C2        43.5150   35.4780   24.0520 C.ar  211  G211        0.0000
    469  N2        44.5670   34.7990   24.4900 N.pl3 211  G211        0.0000
    470  N3        43.7020   36.3800   23.1300 N.ar  211  G211        0.0000
    471  C4        42.5580   36.9670   22.8060 C.ar  211  G211        0.0000
    472  C5        41.2910   36.7460   23.2960 C.ar  211  G211        0.0000
    473  C6        41.1160   35.7760   24.3000 C.ar  211  G211        0.0000
    474  O6        40.0870   35.4210   24.8760 O.2   211  G211        0.0000
    475  N7        40.3810   37.5810   22.6770 N.ar  211  G211        0.0000
    476  C8        41.1150   38.2850   21.8450 C.ar  211  G211        0.0000
    477  N9        42.4510   37.9490   21.8790 N.ar  211  G211        0.0000
    478  OP1       39.7400   40.7240   16.7210 O.2   211  G211       -0.5000
    479  OP2       38.6220   39.7150   18.7820 O.co2 211  G211       -0.5000
    480  P         43.3380   36.4110   16.7780 P.3   212  U212        0.0000
    481  C5'       45.6310   35.2350   17.4310 C.3   212  U212        0.0000
    482  O5'       44.2160   35.2100   17.3280 O.3   212  U212        0.0000
    483  C4'       46.0530   34.0920   18.3240 C.3   212  U212        0.0000
    484  O4'       45.5850   34.4070   19.6500 O.3   212  U212        0.0000
    485  C3'       45.3790   32.7620   18.0380 C.3   212  U212        0.0000
    486  O3'       46.0020   32.0250   17.0010 O.3   212  U212        0.0000
    487  C2'       45.4800   32.0630   19.3870 C.3   212  U212        0.0000
    488  O2'       46.7400   31.4460   19.6250 O.3   212  U212        0.0000
    489  C1'       45.2300   33.2160   20.3480 C.3   212  U212        0.0000
    490  N1        43.8070   33.2540   20.8510 N.ar  212  U212        0.0000
    491  C2        43.4570   32.4780   21.9320 C.ar  212  U212        0.0000
    492  O2        44.2170   31.7650   22.5110 O.2   212  U212        0.0000
    493  N3        42.1760   32.5380   22.3240 N.ar  212  U212        0.0000
    494  C4        41.2080   33.2970   21.7600 C.ar  212  U212        0.0000
    495  O4        40.0750   33.2530   22.2140 O.2   212  U212        0.0000
    496  C5        41.6300   34.0850   20.6400 C.ar  212  U212        0.0000
    497  C6        42.8860   34.0290   20.2350 C.ar  212  U212        0.0000
    498  OP1       43.6970   36.6810   15.3650 O.2   212  U212       -0.5000
    499  OP2       41.9110   36.0920   17.0870 O.co2 212  U212       -0.5000
    500  P         45.1040   31.0180   16.1450 P.3   213  G213        0.0000
    501  C5'       45.3710   29.0730   17.7280 C.3   213  G213        0.0000
    502  O5'       44.5140   30.0430   17.2250 O.3   213  G213        0.0000
    503  C4'       44.5950   28.1330   18.5970 C.3   213  G213        0.0000
    504  O4'       43.5810   28.8800   19.3080 O.3   213  G213        0.0000
    505  C3'       43.8540   27.0400   17.8630 C.3   213  G213        0.0000
    506  O3'       43.8830   25.8510   18.6010 O.3   213  G213        0.0000
    507  C2'       42.4470   27.5750   17.7440 C.3   213  G213        0.0000
    508  O2'       41.5110   26.5250   17.7200 O.3   213  G213        0.0000
    509  C1'       42.3070   28.4120   18.9970 C.3   213  G213        0.0000
    510  N1        38.4200   31.0610   20.9510 N.ar  213  G213        0.0000
    511  C2        38.9990   29.9000   21.3770 C.ar  213  G213        0.0000
    512  N2        38.4890   29.3540   22.4750 N.pl3 213  G213        0.0000
    513  N3        40.0170   29.3010   20.7860 N.ar  213  G213        0.0000
    514  C4        40.4320   29.9600   19.6900 C.ar  213  G213        0.0000
    515  C5        39.9300   31.1260   19.1760 C.ar  213  G213        0.0000
    516  C6        38.8300   31.7530   19.8270 C.ar  213  G213        0.0000
    517  O6        38.2470   32.8030   19.5270 O.2   213  G213        0.0000
    518  N7        40.6400   31.4880   18.0350 N.ar  213  G213        0.0000
    519  C8        41.5440   30.5430   17.8900 C.ar  213  G213        0.0000
    520  N9        41.4610   29.5770   18.8520 N.ar  213  G213        0.0000
    521  OP1       45.9770   30.2200   15.2790 O.3   213  G213        0.0000
    522  OP2       43.9970   31.7750   15.5660 O.co2 213  G213       -1.0000
    523  P         43.8440   24.4690   17.8360 P.3   214  C214        0.0000
    524  C5'       45.1460   23.3440   19.8550 C.3   214  C214        0.0000
    525  O5'       43.9990   23.3820   18.9910 O.3   214  C214        0.0000
    526  C4'       44.9410   22.2750   20.9200 C.3   214  C214        0.0000
    527  O4'       44.1970   22.8830   21.9900 O.3   214  C214        0.0000
    528  C3'       44.1210   21.0490   20.4880 C.3   214  C214        0.0000
    529  O3'       44.9530   19.9530   20.0520 O.3   214  C214        0.0000
    530  C2'       43.3970   20.6790   21.7490 C.3   214  C214        0.0000
    531  O2'       44.1610   19.8170   22.5630 O.3   214  C214        0.0000
    532  C1'       43.1620   22.0330   22.4030 C.3   214  C214        0.0000
    533  N1        41.8670   22.5780   22.0170 N.ar  214  C214        0.0000
    534  C2        40.7410   21.9740   22.5490 C.ar  214  C214        0.0000
    535  O2        40.8850   21.0380   23.3470 O.2   214  C214        0.0000
    536  N3        39.5320   22.4260   22.2070 N.ar  214  C214        0.0000
    537  C4        39.4290   23.4310   21.3820 C.ar  214  C214        0.0000
    538  N4        38.2080   23.8380   21.0840 N.pl3 214  C214        0.0000
    539  C5        40.5640   24.0610   20.8180 C.ar  214  C214        0.0000
    540  C6        41.7590   23.6000   21.1530 C.ar  214  C214        0.0000
    541  OP1       45.0280   24.4410   16.9430 O.2   214  C214       -0.5000
    542  OP2       42.4720   24.2980   17.2960 O.co2 214  C214       -0.5000
    543  P         44.5700   19.1060   18.7440 P.3   215  C215        0.0000
    544  C5'       43.7790   17.1110   20.2110 C.3   215  C215        0.0000
    545  O5'       43.4370   18.1380   19.2980 O.3   215  C215        0.0000
    546  C4'       42.5180   16.4730   20.7290 C.3   215  C215        0.0000
    547  O4'       41.8010   17.4500   21.4950 O.3   215  C215        0.0000
    548  C3'       41.5220   16.0260   19.6680 C.3   215  C215        0.0000
    549  O3'       41.8080   14.7590   19.2130 O.3   215  C215        0.0000
    550  C2'       40.2260   16.0250   20.4260 C.3   215  C215        0.0000
    551  O2'       40.0000   14.8370   21.1600 O.3   215  C215        0.0000
    552  C1'       40.4130   17.2630   21.2960 C.3   215  C215        0.0000
    553  N1        39.8450   18.4640   20.6430 N.ar  215  C215        0.0000
    554  C2        38.4640   18.5410   20.4860 C.ar  215  C215        0.0000
    555  O2        37.7770   17.6300   20.9060 O.2   215  C215        0.0000
    556  N3        37.9040   19.5840   19.8820 N.ar  215  C215        0.0000
    557  C4        38.6780   20.5410   19.4490 C.ar  215  C215        0.0000
    558  N4        38.0790   21.5740   18.8610 N.pl3 215  C215        0.0000
    559  C5        40.0980   20.4980   19.5880 C.ar  215  C215        0.0000
    560  C6        40.6420   19.4350   20.1650 C.ar  215  C215        0.0000
    561  OP1       45.7180   18.2620   18.4060 O.3   215  C215       -0.5000
    562  OP2       43.9840   20.0160   17.7260 O.co2 215  C215       -0.5000
    563  P         41.5350   14.3600   17.6950 P.3   216  G216        0.0000
    564  C5'       39.1830   13.4810   18.3610 C.3   216  G216        0.0000
    565  O5'       39.9620   14.2880   17.5390 O.3   216  G216        0.0000
    566  C4'       37.7460   13.8850   18.1870 C.3   216  G216        0.0000
    567  O4'       37.5290   15.1620   18.8250 O.3   216  G216        0.0000
    568  C3'       37.3510   14.1240   16.7650 C.3   216  G216        0.0000
    569  O3'       36.9750   12.9600   16.1510 O.3   216  G216        0.0000
    570  C2'       36.1830   15.0500   16.9360 C.3   216  G216        0.0000
    571  O2'       35.0180   14.3610   17.3330 O.3   216  G216        0.0000
    572  C1'       36.7270   15.9750   18.0050 C.3   216  G216        0.0000
    573  N1        36.3710   20.4800   15.7400 N.ar  216  G216        0.0000
    574  C2        35.3920   19.6410   16.2060 C.ar  216  G216        0.0000
    575  N2        34.1300   20.0590   16.0570 N.pl3 216  G216        0.0000
    576  N3        35.6290   18.4830   16.7890 N.ar  216  G216        0.0000
    577  C4        36.9550   18.2100   16.8690 C.ar  216  G216        0.0000
    578  C5        38.0160   18.9620   16.4310 C.ar  216  G216        0.0000
    579  C6        37.7430   20.2020   15.8060 C.ar  216  G216        0.0000
    580  O6        38.5530   21.0180   15.3480 O.2   216  G216        0.0000
    581  N7        39.2190   18.3230   16.6810 N.ar  216  G216        0.0000
    582  C8        38.8700   17.2150   17.2650 C.ar  216  G216        0.0000
    583  N9        37.5010   17.0830   17.4230 N.ar  216  G216        0.0000
    584  OP1       42.0980   13.0010   17.5420 O.3   216  G216       -0.5000
    585  OP2       41.9610   15.4630   16.8120 O.co2 216  G216       -0.5000
    586  P         37.0740   12.8970   14.5580 P.3   217  G217        0.0000
    587  C5'       34.6600   13.6760   14.0870 C.3   217  G217        0.0000
    588  O5'       36.0200   13.9800   14.0330 O.3   217  G217        0.0000
    589  C4'       33.8640   14.8390   13.5800 C.3   217  G217        0.0000
    590  O4'       34.2500   16.0370   14.2680 O.3   217  G217        0.0000
    591  C3'       34.1040   15.1810   12.1390 C.3   217  G217        0.0000
    592  O3'       33.3420   14.3680   11.3300 O.3   217  G217        0.0000
    593  C2'       33.6490   16.6090   12.0840 C.3   217  G217        0.0000
    594  O2'       32.2530   16.6990   12.1030 O.3   217  G217        0.0000
    595  C1'       34.2500   17.1350   13.3500 C.3   217  G217        0.0000
    596  N1        37.3660   20.6900   11.4390 N.ar  217  G217        0.0000
    597  C2        36.0030   20.5720   11.3040 C.ar  217  G217        0.0000
    598  N2        35.3990   21.5240   10.5780 N.pl3 217  G217        0.0000
    599  N3        35.2770   19.5920   11.8430 N.ar  217  G217        0.0000
    600  C4        36.0430   18.7370   12.5350 C.ar  217  G217        0.0000
    601  C5        37.4080   18.7760   12.7180 C.ar  217  G217        0.0000
    602  C6        38.1530   19.8040   12.1480 C.ar  217  G217        0.0000
    603  O6        39.3640   19.9600   12.2170 O.2   217  G217        0.0000
    604  N7        37.8450   17.7160   13.4780 N.ar  217  G217        0.0000
    605  C8        36.7540   17.0640   13.7510 C.ar  217  G217        0.0000
    606  N9        35.6170   17.6220   13.2010 N.ar  217  G217        0.0000
    607  OP1       36.5870   11.5680   14.1170 O.2   217  G217       -0.5000
    608  OP2       38.4540   13.3380   14.2390 O.co2 217  G217       -0.5000
    609  P         34.0390   13.6000   10.1320 P.3   218  C218        0.0000
    610  C5'       32.8450   15.4800    8.6970 C.3   218  C218        0.0000
    611  O5'       33.9860   14.6440    8.9100 O.3   218  C218        0.0000
    612  C4'       33.2210   16.8210    8.0590 C.3   218  C218        0.0000
    613  O4'       33.8050   17.7040    9.0360 O.3   218  C218        0.0000
    614  C3'       34.2800   16.8240    6.9470 C.3   218  C218        0.0000
    615  O3'       33.7610   16.4170    5.6850 O.3   218  C218        0.0000
    616  C2'       34.6410   18.2860    6.9190 C.3   218  C218        0.0000
    617  O2'       33.6580   19.0560    6.2650 O.3   218  C218        0.0000
    618  C1'       34.7290   18.5740    8.4020 C.3   218  C218        0.0000
    619  N1        36.0680   18.3040    8.8770 N.ar  218  C218        0.0000
    620  C2        37.0940   19.1880    8.5610 C.ar  218  C218        0.0000
    621  O2        36.8410   20.2060    7.9210 O.2   218  C218        0.0000
    622  N3        38.3380   18.9320    8.9810 N.ar  218  C218        0.0000
    623  C4        38.5800   17.8370    9.6630 C.ar  218  C218        0.0000
    624  N4        39.8300   17.6180   10.0550 N.pl3 218  C218        0.0000
    625  C5        37.5470   16.9130    9.9890 C.ar  218  C218        0.0000
    626  C6        36.3180   17.1830    9.5740 C.ar  218  C218        0.0000
    627  OP1       33.1620   12.4690    9.7910 O.2   218  C218       -0.5000
    628  OP2       35.4470   13.3450   10.5370 O.co2 218  C218       -0.5000
    629  CA'       36.1280   19.0640   -0.5060 C.3   219  UMS219      0.0000
    630 SE2'       37.3810   19.7280    0.7400 Se    219  UMS219      0.0000
    631  P         34.4360   15.2360    4.8590 P.3   219  UMS219      0.0000
    632  C5'       34.6980   17.0300    3.1490 C.3   219  UMS219      0.0000
    633  O5'       35.3170   16.0210    3.8390 O.3   219  UMS219      0.0000
    634  C4'       35.7350   17.9590    2.6300 C.3   219  UMS219      0.0000
    635  O4'       36.2640   18.8060    3.6750 O.3   219  UMS219      0.0000
    636  C3'       36.9560   17.2670    2.0770 C.3   219  UMS219      0.0000
    637  O3'       36.6610   16.6880    0.8010 O.3   219  UMS219      0.0000
    638  C2'       37.8750   18.4570    2.0330 C.3   219  UMS219      0.0000
    639  C1'       37.6230   19.0590    3.4010 C.3   219  UMS219      0.0000
    640  N1        38.4500   18.4850    4.4540 N.ar  219  UMS219      0.0000
    641  C2        39.8030   18.7010    4.4300 C.ar  219  UMS219      0.0000
    642  O2        40.3600   19.3300    3.5800 O.2   219  UMS219      0.0000
    643  N3        40.5010   18.1410    5.4290 N.ar  219  UMS219      0.0000
    644  C4        39.9780   17.4050    6.4520 C.ar  219  UMS219      0.0000
    645  O4        40.7340   16.9590    7.2940 O.2   219  UMS219      0.0000
    646  C5        38.5530   17.2190    6.4310 C.ar  219  UMS219      0.0000
    647  C6        37.8540   17.7520    5.4490 C.ar  219  UMS219      0.0000
    648  OP1       33.3430   14.5970    4.0960 O.co2 219  UMS219     -0.5000
    649  OP2       35.3450   14.4490    5.7270 O.3   219  UMS219     -0.5000
    650  P         37.6430   15.6340    0.1160 P.3   220  C220        0.0000
    651  C5'       39.6870   16.4100   -1.1110 C.3   220  C220        0.0000
    652  O5'       39.0030   16.4220    0.0480 O.3   220  C220        0.0000
    653  C4'       40.9520   17.1180   -0.8640 C.3   220  C220        0.0000
    654  O4'       40.8720   17.7320    0.4260 O.3   220  C220        0.0000
    655  C3'       42.1510   16.2300   -0.7550 C.3   220  C220        0.0000
    656  O3'       42.5770   15.8120   -2.0070 O.3   220  C220        0.0000
    657  C2'       43.1070   17.1660   -0.0700 C.3   220  C220        0.0000
    658  O2'       43.6520   18.1530   -0.9070 O.3   220  C220        0.0000
    659  C1'       42.1710   17.7490    0.9800 C.3   220  C220        0.0000
    660  N1        42.2020   16.9380    2.1640 N.ar  220  C220        0.0000
    661  C2        43.4110   16.8210    2.8590 C.ar  220  C220        0.0000
    662  O2        44.3840   17.4410    2.4580 O.2   220  C220        0.0000
    663  N3        43.4860   16.0440    3.9540 N.ar  220  C220        0.0000
    664  C4        42.4060   15.4060    4.3510 C.ar  220  C220        0.0000
    665  N4        42.5150   14.6480    5.4300 N.pl3 220  C220        0.0000
    666  C5        41.1580   15.4980    3.6550 C.ar  220  C220        0.0000
    667  C6        41.1010   16.2610    2.5640 C.ar  220  C220        0.0000
    668  OP1       37.1220   15.4360   -1.2470 O.2   220  C220       -0.5000
    669  OP2       37.8630   14.4770    1.0330 O.co2 220  C220       -0.5000
    670  P         42.5650   14.2650   -2.3440 P.3   221  U221        0.0000
    671  C5'       45.1370   14.2120   -2.2550 C.3   221  U221        0.0000
    672  O5'       43.9260   13.8060   -1.6560 O.3   221  U221        0.0000
    673  C4'       46.1660   14.5440   -1.2120 C.3   221  U221        0.0000
    674  O4'       45.5120   15.0190   -0.0370 O.3   221  U221        0.0000
    675  C3'       46.9500   13.3770   -0.7090 C.3   221  U221        0.0000
    676  O3'       47.9590   13.0260   -1.6140 O.3   221  U221        0.0000
    677  C2'       47.4750   13.8890    0.6120 C.3   221  U221        0.0000
    678  O2'       48.6330   14.6810    0.4970 O.3   221  U221        0.0000
    679  C1'       46.2760   14.6890    1.1000 C.3   221  U221        0.0000
    680  N1        45.4240   13.9390    1.9970 N.ar  221  U221        0.0000
    681  C2        45.9560   13.4790    3.1630 C.ar  221  U221        0.0000
    682  O2        47.1120   13.6770    3.4800 O.2   221  U221        0.0000
    683  N3        45.0880   12.7700    3.9490 N.ar  221  U221        0.0000
    684  C4        43.7590   12.4790    3.6740 C.ar  221  U221        0.0000
    685  O4        43.0850   11.8300    4.4810 O.2   221  U221        0.0000
    686  C5        43.2770   13.0040    2.4270 C.ar  221  U221        0.0000
    687  C6        44.1110   13.7000    1.6530 C.ar  221  U221        0.0000
    688  OP1       42.6840   14.0990   -3.8110 O.2   221  U221       -0.5000
    689  OP2       41.4320   13.6420   -1.6340 O.co2 221  U221       -0.5000
    690  CA'       54.5490   12.9280   -0.1030 C.3   222  UMS222      0.0000
    691 SE2'       52.7280   13.2040    0.2880 Se    222  UMS222      0.0000
    692  P         47.8450   11.6190   -2.3430 P.3   222  UMS222      0.0000
    693  C5'       49.8680    9.9680   -2.4180 C.3   222  UMS222      0.0000
    694  O5'       49.0470   10.8340   -1.6600 O.3   222  UMS222      0.0000
    695  C4'       51.3030   10.4040   -2.2960 C.3   222  UMS222      0.0000
    696  O4'       51.5240   11.5900   -3.1340 O.3   222  UMS222      0.0000
    697  C3'       51.6820   10.8090   -0.8660 C.3   222  UMS222      0.0000
    698  O3'       52.9710   10.3430   -0.5000 O.3   222  UMS222      0.0000
    699  C2'       51.6590   12.3150   -0.9740 C.3   222  UMS222      0.0000
    700  C1'       52.2580   12.5010   -2.3470 C.3   222  UMS222      0.0000
    701  N1        52.1820   13.9500   -2.7720 N.ar  222  UMS222      0.0000
    702  C2        53.3570   14.6590   -3.0130 C.ar  222  UMS222      0.0000
    703  O2        54.4710   14.1680   -2.9670 O.2   222  UMS222      0.0000
    704  N3        53.1790   15.9770   -3.3420 N.ar  222  UMS222      0.0000
    705  C4        51.9780   16.6580   -3.4280 C.ar  222  UMS222      0.0000
    706  O4        51.9780   17.8430   -3.7320 O.2   222  UMS222      0.0000
    707  C5        50.8020   15.8710   -3.1380 C.ar  222  UMS222      0.0000
    708  C6        50.9470   14.5770   -2.8150 C.ar  222  UMS222      0.0000
    709  OP1       48.0780   11.8270   -3.7910 O.co2 222  UMS222     -0.5000
    710  OP2       46.5860   10.9720   -1.9210 O.3   222  UMS222     -0.5000
    711  P         53.1630    9.2060    0.6040 P.3   223  C223        0.0000
    712  C5'       53.1490    9.2560    3.1550 C.3   223  C223        0.0000
    713  O5'       52.6880    9.8600    1.9720 O.3   223  C223        0.0000
    714  C4'       52.2890    9.6430    4.3220 C.3   223  C223        0.0000
    715  O4'       51.1130   10.3200    3.8300 O.3   223  C223        0.0000
    716  C3'       51.7610    8.4820    5.1630 C.3   223  C223        0.0000
    717  O3'       51.6310    8.8480    6.5210 O.3   223  C223        0.0000
    718  C2'       50.4100    8.2430    4.5450 C.3   223  C223        0.0000
    719  O2'       49.5320    7.5340    5.3830 O.3   223  C223        0.0000
    720  C1'       49.9850    9.6790    4.3690 C.3   223  C223        0.0000
    721  N1        48.8650    9.8320    3.4680 N.ar  223  C223        0.0000
    722  C2        47.5760    9.8940    3.9960 C.ar  223  C223        0.0000
    723  O2        47.4140    9.8240    5.2140 O.2   223  C223        0.0000
    724  N3        46.5370   10.0280    3.1540 N.ar  223  C223        0.0000
    725  C4        46.7520   10.1020    1.8430 C.ar  223  C223        0.0000
    726  N4        45.6840   10.2260    1.0480 N.pl3 223  C223        0.0000
    727  C5        48.0650   10.0380    1.2810 C.ar  223  C223        0.0000
    728  C6        49.0870    9.9000    2.1250 C.ar  223  C223        0.0000
    729  OP1       54.6150    8.9260    0.7020 O.3   223  C223       -0.5000
    730  OP2       52.2120    8.1160    0.2880 O.co2 223  C223       -0.5000
    731  P         52.8940    8.8130    7.4930 P.3   224  G224        0.0000
    732  C5'       53.0860   11.4020    7.1530 C.3   224  G224        0.0000
    733  O5'       53.6970   10.1240    7.0550 O.3   224  G224        0.0000
    734  C4'       54.1230   12.4490    7.4860 C.3   224  G224        0.0000
    735  O4'       54.7480   12.9200    6.2690 O.3   224  G224        0.0000
    736  C3'       53.5630   13.6600    8.2200 C.3   224  G224        0.0000
    737  O3'       53.8850   13.5030    9.6170 O.3   224  G224        0.0000
    738  C2'       54.2100   14.8810    7.5360 C.3   224  G224        0.0000
    739  O2'       55.2270   15.5010    8.3230 O.3   224  G224        0.0000
    740  C1'       54.7550   14.3290    6.2080 C.3   224  G224        0.0000
    741  N1        50.1640   14.5360    3.9160 N.ar  224  G224        0.0000
    742  C2        50.4820   14.1430    5.1950 C.ar  224  G224        0.0000
    743  N2        49.4630   13.7500    5.9510 N.pl3 224  G224        0.0000
    744  N3        51.7090   14.1330    5.7070 N.ar  224  G224        0.0000
    745  C4        52.6340   14.5520    4.8090 C.ar  224  G224        0.0000
    746  C5        52.4260   14.9550    3.5040 C.ar  224  G224        0.0000
    747  C6        51.1050   14.9580    2.9760 C.ar  224  G224        0.0000
    748  O6        50.7340   15.2900    1.8400 O.2   224  G224        0.0000
    749  N7        53.6230   15.3000    2.9040 N.ar  224  G224        0.0000
    750  C8        54.5160   15.1100    3.8300 C.ar  224  G224        0.0000
    751  N9        53.9940   14.6710    5.0170 N.ar  224  G224        0.0000
    752  OP1       53.7080    7.6120    7.1640 O.2   224  G224       -0.5000
    753  OP2       52.3960    9.0270    8.8720 O.co2 224  G224       -0.5000
    754  P         53.4700   14.5660   10.7330 P.3   225  G225        0.0000
    755  C5'       51.6840   16.4920   10.4060 C.3   225  G225        0.0000
    756  O5'       52.0250   15.0930   10.2680 O.3   225  G225        0.0000
    757  C4'       52.0120   17.2460    9.1250 C.3   225  G225        0.0000
    758  O4'       51.8560   16.3360    7.9900 O.3   225  G225        0.0000
    759  C3'       51.1260   18.4500    8.7960 C.3   225  G225        0.0000
    760  O3'       51.6090   19.6740    9.3840 O.3   225  G225        0.0000
    761  C2'       51.2350   18.4300    7.2790 C.3   225  G225        0.0000
    762  O2'       52.5060   18.8830    6.8320 O.3   225  G225        0.0000
    763  C1'       51.0200   16.9340    7.0300 C.3   225  G225        0.0000
    764  N1        46.1830   16.5990    5.2800 N.ar  225  G225        0.0000
    765  C2        47.2810   17.1860    4.6990 C.ar  225  G225        0.0000
    766  N2        47.0790   17.7690    3.5150 N.pl3 225  G225        0.0000
    767  N3        48.5020   17.2130    5.2370 N.ar  225  G225        0.0000
    768  C4        48.5390   16.5840    6.4340 C.ar  225  G225        0.0000
    769  C5        47.5040   15.9600    7.0840 C.ar  225  G225        0.0000
    770  C6        46.2320   15.9360    6.4940 C.ar  225  G225        0.0000
    771  O6        45.2240   15.4250    6.9410 O.2   225  G225        0.0000
    772  N7        47.9190   15.4250    8.2800 N.ar  225  G225        0.0000
    773  C8        49.1830   15.7250    8.3480 C.ar  225  G225        0.0000
    774  N9        49.6410   16.4380    7.2550 N.ar  225  G225        0.0000
    775  OP1       54.4780   15.6510   10.6650 O.2   225  G225       -0.5000
    776  OP2       53.2710   13.8410   12.0070 O.co2 225  G225       -0.5000
    777  P         50.6460   20.9690    9.5670 P.3   226  A226        0.0000
    778  C5'       50.6480   22.0150    7.1480 C.3   226  A226        0.0000
    779  O5'       50.0050   21.1860    8.1060 O.3   226  A226        0.0000
    780  C4'       49.7550   22.1920    5.9490 C.3   226  A226        0.0000
    781  O4'       49.2970   20.9000    5.4950 O.3   226  A226        0.0000
    782  C3'       48.4580   22.9320    6.2120 C.3   226  A226        0.0000
    783  O3'       48.6360   24.3020    6.2180 O.3   226  A226        0.0000
    784  C2'       47.6070   22.4860    5.0460 C.3   226  A226        0.0000
    785  O2'       47.9610   23.0920    3.8050 O.3   226  A226        0.0000
    786  C1'       47.9330   21.0050    5.0800 C.3   226  A226        0.0000
    787  N1        43.1360   19.3830    6.0760 N.ar  226  A226        0.0000
    788  C2        43.6400   20.1650    5.1230 C.ar  226  A226        0.0000
    789  N3        44.9020   20.5620    4.9390 N.ar  226  A226        0.0000
    790  C4        45.7140   20.0550    5.8650 C.ar  226  A226        0.0000
    791  C5        45.3500   19.2390    6.9030 C.ar  226  A226        0.0000
    792  C6        43.9800   18.8950    7.0000 C.ar  226  A226        0.0000
    793  N6        43.4870   18.1200    7.9590 N.pl3 226  A226        0.0000
    794  N7        46.4570   18.9120    7.6670 N.ar  226  A226        0.0000
    795  C8        47.4490   19.5280    7.0810 C.ar  226  A226        0.0000
    796  N9        47.0720   20.2380    5.9820 N.ar  226  A226        0.0000
    797  OP1       51.5130   22.1380    9.8570 O.2   226  A226       -0.5000
    798  OP2       49.5640   20.6120   10.5310 O.co2 226  A226       -0.5000
    799  P         47.9450   25.1580    7.3680 P.3   227  G227        0.0000
    800  C5'       46.0620   26.0820    5.7900 C.3   227  G227        0.0000
    801  O5'       46.4200   25.2590    6.8760 O.3   227  G227        0.0000
    802  C4'       44.6890   25.7020    5.2990 C.3   227  G227        0.0000
    803  O4'       44.6030   24.2600    5.2380 O.3   227  G227        0.0000
    804  C3'       43.5290   26.0820    6.1970 C.3   227  G227        0.0000
    805  O3'       43.1830   27.4960    6.1120 O.3   227  G227        0.0000
    806  C2'       42.4570   25.1340    5.6520 C.3   227  G227        0.0000
    807  O2'       41.8580   25.5800    4.4600 O.3   227  G227        0.0000
    808  C1'       43.2650   23.8630    5.4370 C.3   227  G227        0.0000
    809  N1        40.3600   20.5490    7.9180 N.ar  227  G227        0.0000
    810  C2        40.1200   21.2290    6.7530 C.ar  227  G227        0.0000
    811  N2        38.9480   21.0020    6.1660 N.pl3 227  G227        0.0000
    812  N3        40.9700   22.0800    6.1980 N.ar  227  G227        0.0000
    813  C4        42.1110   22.2020    6.9190 C.ar  227  G227        0.0000
    814  C5        42.4540   21.5690    8.0960 C.ar  227  G227        0.0000
    815  C6        41.5220   20.6610    8.6670 C.ar  227  G227        0.0000
    816  O6        41.6300   20.0060    9.6950 O.2   227  G227        0.0000
    817  N7        43.7260   21.9630    8.5160 N.ar  227  G227        0.0000
    818  C8        44.1170   22.8050    7.5960 C.ar  227  G227        0.0000
    819  N9        43.1850   22.9890    6.5910 N.ar  227  G227        0.0000
    820  OP1       48.5800   26.5080    7.3580 O.2   227  G227       -0.5000
    821  OP2       47.9520   24.3390    8.6010 O.co2 227  G227       -0.5000
    822  P         41.8390   28.0570    6.8050 P.3   228  C228        0.0000
    823  C5'       39.7890   27.5690    5.2920 C.3   228  C228        0.0000
    824  O5'       40.7630   27.1000    6.1430 O.3   228  C228        0.0000
    825  C4'       38.5390   26.8450    5.6600 C.3   228  C228        0.0000
    826  O4'       38.8250   25.4570    5.9210 O.3   228  C228        0.0000
    827  C3'       37.9550   27.2770    6.9700 C.3   228  C228        0.0000
    828  O3'       37.3490   28.5570    6.8460 O.3   228  C228        0.0000
    829  C2'       36.9870   26.1280    7.2310 C.3   228  C228        0.0000
    830  O2'       35.7880   26.1970    6.4800 O.3   228  C228        0.0000
    831  C1'       37.8380   24.9520    6.8030 C.3   228  C228        0.0000
    832  N1        38.5030   24.3280    7.9090 N.ar  228  C228        0.0000
    833  C2        37.7980   23.4530    8.7470 C.ar  228  C228        0.0000
    834  O2        36.6150   23.2270    8.5330 O.2   228  C228        0.0000
    835  N3        38.4300   22.8840    9.7720 N.ar  228  C228        0.0000
    836  C4        39.7040   23.1530    9.9720 C.ar  228  C228        0.0000
    837  N4        40.3080   22.5710   10.9930 N.pl3 228  C228        0.0000
    838  C5        40.4400   24.0300    9.1310 C.ar  228  C228        0.0000
    839  C6        39.8050   24.6060    8.1170 C.ar  228  C228        0.0000
    840  OP1       41.5640   29.4390    6.3760 O.2   228  C228       -0.5000
    841  OP2       41.9270   27.7670    8.2530 O.co2 228  C228       -0.5000
    842  P         37.0140   29.3890    8.1610 P.3   229  A229        0.0000
    843  C5'       34.5320   28.6330    8.1530 C.3   229  A229        0.0000
    844  O5'       35.8050   28.5680    8.7510 O.3   229  A229        0.0000
    845  C4'       33.5920   27.8060    8.9870 C.3   229  A229        0.0000
    846  O4'       34.0800   26.4450    9.0710 O.3   229  A229        0.0000
    847  C3'       33.5400   28.2390   10.4290 C.3   229  A229        0.0000
    848  O3'       32.6830   29.3710   10.5850 O.3   229  A229        0.0000
    849  C2'       33.0510   26.9770   11.1240 C.3   229  A229        0.0000
    850  O2'       31.6330   26.7940   11.0640 O.3   229  A229        0.0000
    851  C1'       33.8000   25.9100   10.3450 C.3   229  A229        0.0000
    852  N1        35.7790   22.9140   13.9490 N.ar  229  A229        0.0000
    853  C2        34.5270   23.1550   13.5500 C.ar  229  A229        0.0000
    854  N3        34.0890   23.9640   12.5820 N.ar  229  A229        0.0000
    855  C4        35.1110   24.5990   12.0030 C.ar  229  A229        0.0000
    856  C5        36.4540   24.4670   12.3060 C.ar  229  A229        0.0000
    857  C6        36.7870   23.5670   13.3400 C.ar  229  A229        0.0000
    858  N6        38.0320   23.3300   13.7490 N.pl3 229  A229        0.0000
    859  N7        37.2090   25.2610   11.4780 N.ar  229  A229        0.0000
    860  C8        36.3080   25.8650   10.7070 C.ar  229  A229        0.0000
    861  N9        35.0280   25.4940   10.9790 N.ar  229  A229        0.0000
    862  OP1       36.5120   30.7120    7.7560 O.2   229  A229       -0.5000
    863  OP2       38.1600   29.2770    9.0940 O.co2 229  A229       -0.5000
    864  P         33.0890   30.5090   11.6330 P.3   230  A230        0.0000
    865  C5'       31.5980   29.2420   13.3170 C.3   230  A230        0.0000
    866  O5'       32.8350   29.8250   13.0620 O.3   230  A230        0.0000
    867  C4'       31.7160   28.2800   14.4540 C.3   230  A230        0.0000
    868  O4'       32.4900   27.1360   14.0690 O.3   230  A230        0.0000
    869  C3'       32.4510   28.7980   15.6610 C.3   230  A230        0.0000
    870  O3'       31.6380   29.6850   16.3700 O.3   230  A230        0.0000
    871  C2'       32.7170   27.4840   16.3830 C.3   230  A230        0.0000
    872  O2'       31.5650   26.9510   17.0010 O.3   230  A230        0.0000
    873  C1'       33.1860   26.6420   15.2030 C.3   230  A230        0.0000
    874  N1        37.8670   24.7830   16.2500 N.ar  230  A230        0.0000
    875  C2        36.6410   24.3660   16.5960 C.ar  230  A230        0.0000
    876  N3        35.4410   24.9040   16.2720 N.ar  230  A230        0.0000
    877  C4        35.5980   25.9950   15.5040 C.ar  230  A230        0.0000
    878  C5        36.7850   26.5280   15.0730 C.ar  230  A230        0.0000
    879  C6        37.9640   25.8800   15.4700 C.ar  230  A230        0.0000
    880  N6        39.1720   26.2910   15.1260 N.pl3 230  A230        0.0000
    881  N7        36.5620   27.6360   14.3250 N.ar  230  A230        0.0000
    882  C8        35.2590   27.7540   14.2990 C.ar  230  A230        0.0000
    883  N9        34.6190   26.7820   14.9910 N.ar  230  A230        0.0000
    884  OP1       32.1190   31.6010   11.3880 O.2   230  A230       -0.5000
    885  OP2       34.5640   30.7360   11.6030 O.co2 230  A230       -0.5000
    886  P         32.2650   30.6150   17.4760 P.3   231  U231        0.0000
    887  C5'       32.8590   29.5480   19.7020 C.3   231  U231        0.0000
    888  O5'       33.1340   29.6430   18.3590 O.3   231  U231        0.0000
    889  C4'       33.7240   28.4850   20.2930 C.3   231  U231        0.0000
    890  O4'       34.2360   27.6780   19.2050 O.3   231  U231        0.0000
    891  C3'       34.9700   28.9570   21.0360 C.3   231  U231        0.0000
    892  O3'       34.6960   29.3530   22.3780 O.3   231  U231        0.0000
    893  C2'       35.8280   27.6930   20.9780 C.3   231  U231        0.0000
    894  O2'       35.4930   26.7020   21.9310 O.3   231  U231        0.0000
    895  C1'       35.5400   27.2260   19.5450 C.3   231  U231        0.0000
    896  N1        36.5080   27.8080   18.6420 N.ar  231  U231        0.0000
    897  C2        37.7860   27.3080   18.6570 C.ar  231  U231        0.0000
    898  O2        38.1360   26.3780   19.3320 O.2   231  U231        0.0000
    899  N3        38.6420   27.9270   17.8420 N.ar  231  U231        0.0000
    900  C4        38.3560   28.9750   17.0140 C.ar  231  U231        0.0000
    901  O4        39.2470   29.4260   16.3040 O.2   231  U231        0.0000
    902  C5        36.9950   29.4570   17.0600 C.ar  231  U231        0.0000
    903  C6        36.1410   28.8810   17.8770 C.ar  231  U231        0.0000
    904  OP1       31.1360   31.0920   18.2850 O.3   231  U231       -0.5000
    905  OP2       33.1870   31.5630   16.8270 O.co2 231  U231       -0.5000
    906  P         34.8290   30.8530   22.8700 P.3   232  A232        0.0000
    907  C5'       35.3830   29.8580   25.0830 C.3   232  A232        0.0000
    908  O5'       35.7480   30.7000   24.1150 O.3   232  A232        0.0000
    909  C4'       36.1960   30.1910   26.2810 C.3   232  A232        0.0000
    910  O4'       37.5400   29.9050   25.9690 O.3   232  A232        0.0000
    911  C3'       36.1730   31.6560   26.6280 C.3   232  A232        0.0000
    912  O3'       35.2450   31.8790   27.6510 O.3   232  A232        0.0000
    913  C2'       37.5960   31.9770   27.0390 C.3   232  A232        0.0000
    914  O2'       37.6700   32.4450   28.3780 O.3   232  A232        0.0000
    915  C1'       38.3120   30.6340   26.8380 C.3   232  A232        0.0000
    916  N1        43.0520   28.8870   26.8910 N.ar  232  A232        0.0000
    917  C2        41.9870   28.6370   27.6650 C.ar  232  A232        0.0000
    918  N3        40.7640   29.1420   27.5940 N.ar  232  A232        0.0000
    919  C4        40.6900   29.9910   26.5890 C.ar  232  A232        0.0000
    920  C5        41.6790   30.3490   25.7180 C.ar  232  A232        0.0000
    921  C6        42.9160   29.7490   25.8760 C.ar  232  A232        0.0000
    922  N6        43.9570   30.0070   25.0940 N.pl3 232  A232        0.0000
    923  N7        41.2210   31.2550   24.8080 N.ar  232  A232        0.0000
    924  C8        39.9700   31.4070   25.1360 C.ar  232  A232        0.0000
    925  N9        39.6080   30.6870   26.2180 N.ar  232  A232        0.0000
    926  OP1       33.4550   31.3010   23.2380 O.3   232  A232       -0.5000
    927  OP2       35.6490   31.6220   21.9130 O.co2 232  A232       -0.5000
    928  P         34.2780   33.1380   27.5620 P.3   233  C233        0.0000
    929  C5'       34.4890   34.6010   29.7150 C.3   233  C233        0.0000
    930  O5'       34.1010   33.3810   29.1340 O.3   233  C233        0.0000
    931  C4'       34.8200   34.4440   31.1680 C.3   233  C233        0.0000
    932  O4'       33.6860   33.9270   31.8630 O.3   233  C233        0.0000
    933  C3'       35.9470   33.5030   31.4230 C.3   233  C233        0.0000
    934  O3'       37.0000   34.2070   31.9460 O.3   233  C233        0.0000
    935  C2'       35.4620   32.4970   32.4330 C.3   233  C233        0.0000
    936  O2'       36.1180   32.5980   33.6720 O.3   233  C233        0.0000
    937  C1'       33.9860   32.7700   32.5670 C.3   233  C233        0.0000
    938  N1        33.2420   31.6950   32.0370 N.ar  233  C233        0.0000
    939  C2        33.5140   30.4390   32.5220 C.ar  233  C233        0.0000
    940  O2        34.3780   30.3120   33.4010 O.2   233  C233        0.0000
    941  N3        32.8340   29.3930   32.0390 N.ar  233  C233        0.0000
    942  C4        31.9240   29.5830   31.0990 C.ar  233  C233        0.0000
    943  N4        31.2430   28.5210   30.6550 N.pl3 233  C233        0.0000
    944  C5        31.6430   30.8740   30.5900 C.ar  233  C233        0.0000
    945  C6        32.3220   31.8940   31.0870 C.ar  233  C233        0.0000
    946  OP1       33.0350   32.7690   26.8380 O.2   233  C233        0.0000
    947  OP2       35.0650   34.2760   27.0640 O.co2 233  C233       -1.0000
    948  P         38.3180   34.3520   31.0990 P.3   234  U234        0.0000
    949  C5'       39.3100   32.6380   32.7720 C.3   234  U234        0.0000
    950  O5'       39.0440   32.9820   31.4120 O.3   234  U234        0.0000
    951  C4'       39.4860   31.1330   32.9710 C.3   234  U234        0.0000
    952  O4'       38.2850   30.4170   32.5750 O.3   234  U234        0.0000
    953  C3'       40.5780   30.5090   32.1460 C.3   234  U234        0.0000
    954  O3'       41.3550   29.7640   32.9580 O.3   234  U234        0.0000
    955  C2'       39.8480   29.6830   31.0730 C.3   234  U234        0.0000
    956  O2'       40.6560   28.5990   30.6180 O.3   234  U234        0.0000
    957  C1'       38.6390   29.2540   31.8710 C.3   234  U234        0.0000
    958  N1        37.4310   28.8010   31.1700 N.ar  234  U234        0.0000
    959  C2        37.0100   27.4760   31.2810 C.ar  234  U234        0.0000
    960  O2        37.6230   26.5980   31.8530 O.2   234  U234        0.0000
    961  N3        35.8240   27.1710   30.6530 N.ar  234  U234        0.0000
    962  C4        35.0190   28.0340   29.9570 C.ar  234  U234        0.0000
    963  O4        33.9960   27.6040   29.4560 O.2   234  U234        0.0000
    964  C5        35.4940   29.4010   29.9040 C.ar  234  U234        0.0000
    965  C6        36.6590   29.7200   30.5160 C.ar  234  U234        0.0000
    966  OP1       39.0510   35.4600   31.6990 O.3   234  U234        0.0000
    967  OP2       37.8620   34.4190   29.6790 O.co2 234  U234       -1.0000
    968  P         42.7590   30.3950   33.3000 P.3   235  C235        0.0000
    969  C5'       44.8460   29.8270   31.8930 C.3   235  C235        0.0000
    970  O5'       43.5200   30.3650   31.9280 O.3   235  C235        0.0000
    971  C4'       45.4450   30.1920   30.5580 C.3   235  C235        0.0000
    972  O4'       44.4460   30.0550   29.4780 O.3   235  C235        0.0000
    973  C3'       45.8310   31.6370   30.4470 C.3   235  C235        0.0000
    974  O3'       46.9850   31.9230   31.2120 O.3   235  C235        0.0000
    975  C2'       45.9840   31.7910   28.9510 C.3   235  C235        0.0000
    976  O2'       47.2230   31.3050   28.5000 O.3   235  C235        0.0000
    977  C1'       44.7910   30.9510   28.4560 C.3   235  C235        0.0000
    978  N1        43.6230   31.7390   28.1860 N.ar  235  C235        0.0000
    979  C2        43.6800   32.6360   27.1360 C.ar  235  C235        0.0000
    980  O2        44.7100   32.7080   26.5060 O.2   235  C235        0.0000
    981  N3        42.6210   33.3920   26.8400 N.ar  235  C235        0.0000
    982  C4        41.5160   33.2830   27.5650 C.ar  235  C235        0.0000
    983  N4        40.5110   34.0660   27.2360 N.pl3 235  C235        0.0000
    984  C5        41.3990   32.3760   28.6570 C.ar  235  C235        0.0000
    985  C6        42.4800   31.6240   28.9460 C.ar  235  C235        0.0000
    986  OP1       43.4910   29.5140   34.2430 O.3   235  C235       -0.5000
    987  OP2       42.5750   31.8230   33.5730 O.co2 235  C235       -0.5000
    988  P         46.9090   33.2530   32.0890 P.3   236  G236        0.0000
    989  C5'       48.3970   34.1730   30.1830 C.3   236  G236        0.0000
    990  O5'       47.3120   34.3890   31.0660 O.3   236  G236        0.0000
    991  C4'       48.5630   35.3110   29.1890 C.3   236  G236        0.0000
    992  O4'       47.7380   35.0560   28.0280 O.3   236  G236        0.0000
    993  C3'       48.1130   36.6990   29.6230 C.3   236  G236        0.0000
    994  O3'       49.0590   37.3470   30.4730 O.3   236  G236        0.0000
    995  C2'       48.0280   37.3530   28.2730 C.3   236  G236        0.0000
    996  O2'       49.3160   37.5770   27.7300 O.3   236  G236        0.0000
    997  C1'       47.2860   36.2870   27.5120 C.3   236  G236        0.0000
    998  N1        42.9610   38.3550   25.8670 N.ar  236  G236        0.0000
    999  C2        44.2640   38.6000   25.4700 C.ar  236  G236        0.0000
   1000  N2        44.4080   39.5150   24.5050 N.pl3 236  G236        0.0000
   1001  N3        45.3460   37.9940   25.9820 N.ar  236  G236        0.0000
   1002  C4        44.9970   37.1060   26.9400 C.ar  236  G236        0.0000
   1003  C5        43.7430   36.7980   27.4030 C.ar  236  G236        0.0000
   1004  C6        42.6220   37.4490   26.8500 C.ar  236  G236        0.0000
   1005  O6        41.4480   37.2960   27.1210 O.2   236  G236        0.0000
   1006  N7        43.8100   35.8450   28.3830 N.ar  236  G236        0.0000
   1007  C8        45.0780   35.5950   28.5060 C.ar  236  G236        0.0000
   1008  N9        45.8540   36.3370   27.6620 N.ar  236  G236        0.0000
   1009  OP1       47.9490   33.2130   33.1350 O.3   236  G236       -0.5000
   1010  OP2       45.4720   33.4790   32.4080 O.co2 236  G236       -0.5000
   1011  P         48.6020   38.6870   31.2150 P.3   237  G237        0.0000
   1012  C5'       48.7050   40.5980   29.4280 C.3   237  G237        0.0000
   1013  O5'       47.9440   39.5840   30.0490 O.3   237  G237        0.0000
   1014  C4'       47.8370   41.4170   28.5250 C.3   237  G237        0.0000
   1015  O4'       46.8660   40.5480   27.9270 O.3   237  G237        0.0000
   1016  C3'       46.9570   42.4490   29.1980 C.3   237  G237        0.0000
   1017  O3'       47.6450   43.6220   29.6890 O.3   237  G237        0.0000
   1018  C2'       45.9800   42.7430   28.0740 C.3   237  G237        0.0000
   1019  O2'       46.4470   43.6010   27.0620 O.3   237  G237        0.0000
   1020  C1'       45.7470   41.3330   27.5560 C.3   237  G237        0.0000
   1021  N1        40.7870   41.7170   27.5870 N.ar  237  G237        0.0000
   1022  C2        41.7420   42.4190   26.8990 C.ar  237  G237        0.0000
   1023  N2        41.3320   43.3770   26.0740 N.pl3 237  G237        0.0000
   1024  N3        43.0110   42.2050   27.0010 N.ar  237  G237        0.0000
   1025  C4        43.2830   41.2220   27.8450 C.ar  237  G237        0.0000
   1026  C5        42.4440   40.4600   28.5740 C.ar  237  G237        0.0000
   1027  C6        41.0680   40.6870   28.4740 C.ar  237  G237        0.0000
   1028  O6        40.1620   40.0860   29.0480 O.2   237  G237        0.0000
   1029  N7        43.1410   39.5450   29.3270 N.ar  237  G237        0.0000
   1030  C8        44.3790   39.7800   29.0350 C.ar  237  G237        0.0000
   1031  N9        44.5260   40.7830   28.1220 N.ar  237  G237        0.0000
   1032  OP1       49.7930   39.3700   31.7540 O.2   237  G237       -0.5000
   1033  OP2       47.5030   38.3060   32.1260 O.co2 237  G237       -0.5000
   1034  P         47.0280   44.3940   30.9670 P.3   238  C238        0.0000
   1035  C5'       46.0050   45.8550   29.0020 C.3   238  C238        0.0000
   1036  O5'       45.9410   45.3720   30.3350 O.3   238  C238        0.0000
   1037  C4'       44.6410   46.3700   28.5840 C.3   238  C238        0.0000
   1038  O4'       43.7310   45.2910   28.2530 O.3   238  C238        0.0000
   1039  C3'       43.8920   47.0950   29.6810 C.3   238  C238        0.0000
   1040  O3'       44.3630   48.3990   29.8480 O.3   238  C238        0.0000
   1041  C2'       42.4690   47.0630   29.1680 C.3   238  C238        0.0000
   1042  O2'       42.1870   48.0610   28.2290 O.3   238  C238        0.0000
   1043  C1'       42.4060   45.7020   28.5420 C.3   238  C238        0.0000
   1044  N1        41.8200   44.7840   29.4600 N.ar  238  C238        0.0000
   1045  C2        40.4480   44.5770   29.4060 C.ar  238  C238        0.0000
   1046  O2        39.7680   45.1680   28.5660 O.2   238  C238        0.0000
   1047  N3        39.9100   43.7130   30.2450 N.ar  238  C238        0.0000
   1048  C4        40.6760   43.0970   31.1180 C.ar  238  C238        0.0000
   1049  N4        40.0750   42.2580   31.9360 N.pl3 238  C238        0.0000
   1050  C5        42.0740   43.3170   31.2270 C.ar  238  C238        0.0000
   1051  C6        42.6020   44.1690   30.3830 C.ar  238  C238        0.0000
   1052  OP1       48.0940   45.1840   31.6040 O.2   238  C238       -0.5000
   1053  OP2       46.2880   43.4160   31.7930 O.co2 238  C238       -0.5000
   1054 MG         40.9160   36.5170   31.4080 Mg    240  MG240       0.0000
   1055 MG         36.2290   35.6300   25.7170 Mg    241  MG241       0.0000
   1056 MG         42.4000   18.9760   14.6360 Mg    242  MG242       0.0000
   1057 MG         24.1550   25.4430   40.2630 Mg    243  MG243       0.0000
   1058 MG         37.9070   33.6290   15.1110 Mg    244  MG244       0.0000
   1059 MG         24.8990   31.1920   29.5470 Mg    245  MG245       0.0000
   1060 MG         47.1190   29.8000   13.6670 Mg    246  MG246       0.0000
   1061  O         21.2590   34.0140   48.9700 O.3   249  HOH249      0.0000
   1062  O         25.7840   24.0660   39.9760 O.3   361  HOH361      0.0000
   1063  O         25.2600   26.9540   39.2190 O.3   366  HOH366      0.0000
   1064  O         36.3110   30.6400   35.2360 O.3   248  HOH248      0.0000
   1065  O         43.3330   18.7560   25.1100 O.3   251  HOH251      0.0000
   1066  O         41.4340   35.0080   29.9550 O.3   345  HOH345      0.0000
   1067  O         40.4410   38.0590   32.8010 O.3   346  HOH346      0.0000
   1068  O         41.6640   35.3080   33.0290 O.3   347  HOH347      0.0000
   1069  O         39.9670   37.7370   29.8980 O.3   348  HOH348      0.0000
   1070  O         42.8740   37.3500   31.1480 O.3   349  HOH349      0.0000
   1071  O         38.0850   35.1850   26.7080 O.3   350  HOH350      0.0000
   1072  O         34.4150   36.1110   24.6760 O.3   351  HOH351      0.0000
   1073  O         35.9960   37.3120   27.0200 O.3   352  HOH352      0.0000
   1074  O         36.5390   33.9890   24.3720 O.3   353  HOH353      0.0000
   1075  O         37.2280   36.8810   24.2950 O.3   354  HOH354      0.0000
   1076  O         44.3670   19.3440   15.4140 O.3   355  HOH355      0.0000
   1077  O         40.4310   18.6040   13.8870 O.3   356  HOH356      0.0000
   1078  O         42.0770   21.0950   14.5100 O.3   357  HOH357      0.0000
   1079  O         42.7090   16.8470   14.7770 O.3   358  HOH358      0.0000
   1080  O         41.6120   18.9860   16.6300 O.3   359  HOH359      0.0000
   1081  O         43.1770   18.9680   12.6240 O.3   360  HOH360      0.0000
   1082  O         22.5450   26.8400   40.5280 O.3   362  HOH362      0.0000
   1083  O         25.0140   26.0770   42.1250 O.3   363  HOH363      0.0000
   1084  O         23.2900   24.8070   38.3970 O.3   364  HOH364      0.0000
   1085  O         23.0460   23.9290   41.3260 O.3   365  HOH365      0.0000
   1086  O         38.9510   31.7580   15.3000 O.3   367  HOH367      0.0000
   1087  O         36.8460   35.4940   14.9250 O.3   368  HOH368      0.0000
   1088  O         39.5210   34.6170   16.1560 O.3   369  HOH369      0.0000
   1089  O         36.3160   32.6250   14.0570 O.3   370  HOH370      0.0000
   1090  O         36.8860   33.2910   16.9780 O.3   371  HOH371      0.0000
   1091  O         38.8990   33.9730   13.2260 O.3   372  HOH372      0.0000
   1092  O         24.9260   29.0590   29.2940 O.3   373  HOH373      0.0000
   1093  O         24.8660   33.3380   29.8210 O.3   374  HOH374      0.0000
   1094  O         26.8250   31.3510   28.5810 O.3   375  HOH375      0.0000
   1095  O         22.9740   31.0310   30.5000 O.3   376  HOH376      0.0000
   1096  O         26.0720   31.0590   31.2960 O.3   377  HOH377      0.0000
   1097  O         23.9200   31.4420   27.6410 O.3   378  HOH378      0.0000
   1098  O         45.8650   28.0910   13.4060 O.3   381  HOH381      0.0000
   1099  O         45.9510   30.8610   12.3280 O.3   382  HOH382      0.0000
   1100  O         46.5970   30.4550   37.0520 O.3   384  HOH384      0.0000
   1101  O         49.5650   29.8050   37.0600 O.3   385  HOH385      0.0000
   1102  O         46.1750   28.5200   34.7490 O.3   386  HOH386      0.0000
   1103  O         47.5580   27.5620   37.3140 O.3   387  HOH387      0.0000
   1104  O         48.1960   30.7610   34.5130 O.3   388  HOH388      0.0000
@<TRIPOS>BOND
     1    99   115    1
     2   113   114    1
     3   114   122    1
     4   115   117    1
     5   115   132    2
     6   115   133    1
     7   116   118    1
     8   116   117    1
     9   118   119    1
    10   118   120    1
    11   119   123    1
    12   120   121    1
    13   120   122    1
    14   121   134    1
    15   122   123    1
    16   123   124    1
    17   124   125   ar
    18   124   131   ar
    19   125   126    2
    20   125   127   ar
    21   127   128   ar
    22   128   129    2
    23   128   130   ar
    24   130   131   ar
    25   183   199    1
    26   197   198    1
    27   198   208    1
    28   199   200    2
    29   199   201    1
    30   199   203    1
    31   202   204    1
    32   202   203    1
    33   204   205    1
    34   204   206    1
    35   205   209    1
    36   206   207    1
    37   206   208    1
    38   207   218    1
    39   208   209    1
    40   209   210    1
    41   210   211   ar
    42   210   217   ar
    43   211   212    2
    44   211   213   ar
    45   213   214   ar
    46   214   215    1
    47   214   216   ar
    48   216   217   ar
    49   287   306    1
    50   304   305    1
    51   305   315    1
    52   306   307    2
    53   306   308    1
    54   306   310    1
    55   309   311    1
    56   309   310    1
    57   311   312    1
    58   311   313    1
    59   312   316    1
    60   313   314    1
    61   313   315    1
    62   314   325    1
    63   315   316    1
    64   316   317    1
    65   317   318   ar
    66   317   324   ar
    67   318   319    2
    68   318   320   ar
    69   320   321   ar
    70   321   322    1
    71   321   323   ar
    72   323   324   ar
    73   399   418    1
    74   416   417    1
    75   417   427    1
    76   418   419    2
    77   418   420    1
    78   418   422    1
    79   421   423    1
    80   421   422    1
    81   423   424    1
    82   423   425    1
    83   424   428    1
    84   425   426    1
    85   425   427    1
    86   426   437    1
    87   427   428    1
    88   428   429    1
    89   429   430   ar
    90   429   436   ar
    91   430   431    2
    92   430   432   ar
    93   432   433   ar
    94   433   434    1
    95   433   435   ar
    96   435   436   ar
    97   521  1060    1
    98   615   631    1
    99   629   630    1
   100   630   638    1
   101   631   633    1
   102   631   648    2
   103   631   649    1
   104   632   634    1
   105   632   633    1
   106   634   635    1
   107   634   636    1
   108   635   639    1
   109   636   637    1
   110   636   638    1
   111   637   650    1
   112   638   639    1
   113   639   640    1
   114   640   641   ar
   115   640   647   ar
   116   641   642    2
   117   641   643   ar
   118   643   644   ar
   119   644   645    2
   120   644   646   ar
   121   646   647   ar
   122   676   692    1
   123   690   691    1
   124   691   699    1
   125   692   694    1
   126   692   709    2
   127   692   710    1
   128   693   695    1
   129   693   694    1
   130   695   696    1
   131   695   697    1
   132   696   700    1
   133   697   698    1
   134   697   699    1
   135   698   711    1
   136   699   700    1
   137   700   701    1
   138   701   702   ar
   139   701   708   ar
   140   702   703    2
   141   702   704   ar
   142   704   705   ar
   143   705   706    2
   144   705   707   ar
   145   707   708   ar
   146   947  1055    1
   147   966  1054    1
   148  1054  1066    1
   149  1054  1067    1
   150  1054  1068    1
   151  1054  1069    1
   152  1054  1070    1
   153  1055  1071    1
   154  1055  1072    1
   155  1055  1073    1
   156  1055  1074    1
   157  1055  1075    1
   158  1056  1076    1
   159  1056  1077    1
   160  1056  1078    1
   161  1056  1079    1
   162  1056  1080    1
   163  1056  1081    1
   164  1057  1062    1
   165  1057  1063    1
   166  1057  1082    1
   167  1057  1083    1
   168  1057  1084    1
   169  1057  1085    1
   170  1058  1086    1
   171  1058  1087    1
   172  1058  1088    1
   173  1058  1089    1
   174  1058  1090    1
   175  1058  1091    1
   176  1059  1092    1
   177  1059  1093    1
   178  1059  1094    1
   179  1059  1095    1
   180  1059  1096    1
   181  1059  1097    1
   182  1060  1098    1
   183  1060  1099    1
   184   688   670    2
   185   670   656    1
   186   670   672    1
   187   670   689    1
   188   671   672    1
   189   671   673    1
   190   656   655    1
   191   676   675    1
   192   668   650    2
   193   673   675    1
   194   673   674    1
   195   651   653    1
   196   651   652    1
   197   658   657    1
   198   653   655    1
   199   653   654    1
   200   655   657    1
   201   675   677    1
   202   657   659    1
   203   674   679    1
   204   652   650    1
   205   650   669    1
   206   730   711    2
   207   654   659    1
   208   678   677    1
   209   711   729    1
   210   711   713    1
   211   677   679    1
   212   659   660    1
   213   726   725    1
   214   679   680    1
   215   727   725   ar
   216   727   728   ar
   217   687   680   ar
   218   687   686   ar
   219   748   747    2
   220   725   724   ar
   221   713   712    1
   222   680   681   ar
   223   728   721   ar
   224   660   667   ar
   225   660   661   ar
   226   686   684   ar
   227   662   661    2
   228   667   666   ar
   229   661   663   ar
   230   749   746   ar
   231   749   750   ar
   232   747   746   ar
   233   747   741   ar
   234   724   722   ar
   235   712   714    1
   236   681   682    2
   237   681   683   ar
   238   721   722   ar
   239   721   720    1
   240   746   745   ar
   241   766   765    1
   242   666   664   ar
   243   684   683   ar
   244   684   685    2
   245   785   784    1
   246   750   751   ar
   247   715   714    1
   248   715   720    1
   249   741   742   ar
   250   663   664   ar
   251   722   723    2
   252   714   716    1
   253   664   665    1
   254   720   718    1
   255   807   806    1
   256   718   716    1
   257   718   719    1
   258   765   767   ar
   259   765   764   ar
   260   745   751   ar
   261   745   744   ar
   262   789   788   ar
   263   789   790   ar
   264   751   740    1
   265   784   786    1
   266   784   782    1
   267   786   781    1
   268   786   796    1
   269   788   787   ar
   270   716   717    1
   271   742   744   ar
   272   742   743    1
   273   767   768   ar
   274   803   802    1
   275   803   808    1
   276   764   770   ar
   277   823   825    1
   278   823   824    1
   279   802   800    1
   280   802   804    1
   281   808   806    1
   282   808   819    1
   283   781   780    1
   284   806   804    1
   285   825   826    1
   286   825   827    1
   287   615   614    1
   288   800   801    1
   289   790   796   ar
   290   790   791   ar
   291   826   831    1
   292   780   782    1
   293   780   778    1
   294   796   795   ar
   295   787   792   ar
   296   805   804    1
   297   805   822    1
   298   824   822    1
   299   811   810    1
   300   812   810   ar
   301   812   813   ar
   302   740   735    1
   303   740   738    1
   304   782   783    1
   305   783   799    1
   306   617   616    1
   307   735   734    1
   308   840   822    2
   309   768   769   ar
   310   768   774   ar
   311   830   829    1
   312   770   771    2
   313   770   769   ar
   314   717   731    1
   315   819   813   ar
   316   819   818   ar
   317   810   809   ar
   318   831   829    1
   319   831   832    1
   320   822   841    1
   321   762   761    1
   322   828   827    1
   323   828   842    1
   324   801   799    1
   325   791   792   ar
   326   791   794   ar
   327   616   614    1
   328   616   618    1
   329   813   814   ar
   330   614   612    1
   331   827   829    1
   332   792   793    1
   333   763   774    1
   334   763   761    1
   335   763   758    1
   336   733   732    1
   337   733   731    1
   338   795   794   ar
   339   769   772   ar
   340   778   779    1
   341   732   734    1
   342   752   731    2
   343   774   773   ar
   344   761   759    1
   345   820   799    2
   346   799   821    1
   347   734   736    1
   348   731   753    1
   349   738   736    1
   350   738   739    1
   351   818   817   ar
   352   862   842    2
   353   832   839   ar
   354   832   833   ar
   355   809   815   ar
   356   621   620    2
   357   758   757    1
   358   612   610    1
   359   612   613    1
   360   814   817   ar
   361   814   815   ar
   362   779   777    1
   363   839   838   ar
   364   843   844    1
   365   843   845    1
   366   842   844    1
   367   842   863    1
   368   736   737    1
   369   772   773   ar
   370   618   619    1
   371   618   613    1
   372   834   833    2
   373   620   619   ar
   374   620   622   ar
   375   815   816    2
   376   610   611    1
   377   833   835   ar
   378   759   757    1
   379   759   760    1
   380   619   626   ar
   381   611   609    1
   382   622   623   ar
   383   845   846    1
   384   845   847    1
   385   846   851    1
   386   757   755    1
   387   838   836   ar
   388   760   777    1
   389   777   797    2
   390   777   798    1
   391   626   625   ar
   392   737   754    1
   393   623   625   ar
   394   623   624    1
   395   835   836   ar
   396   627   609    2
   397   836   837    1
   398   609   628    1
   399   609   592    1
   400   756   755    1
   401   756   754    1
   402   851   861    1
   403   851   849    1
   404   847   848    1
   405   847   849    1
   406   598   597    1
   407   848   864    1
   408   775   754    2
   409   860   861   ar
   410   860   859   ar
   411   754   776    1
   412   861   855   ar
   413   850   849    1
   414   597   596   ar
   415   597   599   ar
   416   592   591    1
   417   884   864    2
   418   596   602   ar
   419   859   856   ar
   420   885   864    1
   421   864   866    1
   422   599   600   ar
   423   855   856   ar
   424   855   854   ar
   425   593   594    1
   426   593   591    1
   427   593   595    1
   428   591   589    1
   429   602   603    2
   430   602   601   ar
   431   856   857   ar
   432   600   601   ar
   433   600   606   ar
   434   854   853   ar
   435   601   604   ar
   436   866   865    1
   437   606   595    1
   438   606   605   ar
   439   865   867    1
   440   857   858    1
   441   857   852   ar
   442   595   590    1
   443   604   605   ar
   444   853   852   ar
   445   589   587    1
   446   589   590    1
   447   588   587    1
   448   588   586    1
   449   868   867    1
   450   868   873    1
   451   607   586    2
   452   608   586    1
   453   882   881   ar
   454   882   883   ar
   455   881   878   ar
   456   867   869    1
   457   586   569    1
   458   883   873    1
   459   883   877   ar
   460   878   879   ar
   461   878   877   ar
   462   880   879    1
   463   873   871    1
   464   521   500    1
   465   580   579    2
   466   498   480    2
   467   879   874   ar
   468   877   876   ar
   469   522   500    2
   470   869   870    1
   471   869   871    1
   472   573   579   ar
   473   573   574   ar
   474   579   578   ar
   475   575   574    1
   476   500   486    1
   477   500   502    1
   478   569   568    1
   479   574   576   ar
   480   874   875   ar
   481   876   875   ar
   482   901   900    2
   483   870   886    1
   484   871   872    1
   485   578   581   ar
   486   578   577   ar
   487   581   582   ar
   488   478   457    2
   489   568   570    1
   490   568   566    1
   491   480   499    1
   492   480   482    1
   493   480   463    1
   494   576   577   ar
   495   585   563    2
   496   905   886    2
   497   577   583   ar
   498   570   571    1
   499   570   572    1
   500   541   523    2
   501   486   485    1
   502   900   902   ar
   503   900   899   ar
   504   902   903   ar
   505   502   501    1
   506   582   583   ar
   507   542   523    1
   508   482   481    1
   509   583   572    1
   510   481   483    1
   511   886   904    1
   512   886   888    1
   513   565   563    1
   514   565   564    1
   515   584   563    1
   516   463   462    1
   517   563   549    1
   518   508   507    1
   519   562   543    2
   520   501   503    1
   521   507   505    1
   522   507   509    1
   523   523   506    1
   524   523   525    1
   525   899   897   ar
   526   505   503    1
   527   505   506    1
   528   903   896   ar
   529   519   518   ar
   530   519   520   ar
   531   572   567    1
   532   518   515   ar
   533   485   483    1
   534   485   487    1
   535   566   564    1
   536   566   567    1
   537   457   459    1
   538   457   479    1
   539   457   443    1
   540   483   484    1
   541   888   887    1
   542   458   459    1
   543   458   460    1
   544   561   543    1
   545   503   504    1
   546   896   897   ar
   547   896   895    1
   548   897   898    2
   549    19    20   ar
   550    19    16   ar
   551   543   545    1
   552   543   529    1
   553   520   509    1
   554   520   514   ar
   555   558   557    1
   556   462   460    1
   557   462   464    1
   558    20    21   ar
   559   443   442    1
   560    18    17    2
   561   525   524    1
   562   509   504    1
   563   460   461    1
   564   515   514   ar
   565   515   516   ar
   566    16    17   ar
   567    16    15   ar
   568   890   895    1
   569   890   889    1
   570     5    10    1
   571     5     4    1
   572   549   548    1
   573    17    11   ar
   574   545   544    1
   575   487   488    1
   576   487   489    1
   577    21    15   ar
   578    21    10    1
   579   557   559   ar
   580   557   556   ar
   581   517   516    2
   582   895   893    1
   583   559   560   ar
   584    15    14   ar
   585   484   489    1
   586   548   550    1
   587   548   546    1
   588    23     1    2
   589   514   513   ar
   590   887   889    1
   591    10     8    1
   592    11    12   ar
   593     3     2    1
   594     3     1    1
   595   516   510   ar
   596   455   437    2
   597   524   526    1
   598   556   554   ar
   599   465   464    1
   600     2     4    1
   601   529   528    1
   602   464   466    1
   603    14    12   ar
   604    12    13    1
   605   560   553   ar
   606   544   546    1
   607   497   496   ar
   608   497   490   ar
   609     4     6    1
   610   889   891    1
   611   442   440    1
   612   442   444    1
   613   489   490    1
   614   550   551    1
   615   550   552    1
   616   438   440    1
   617   438   439    1
   618   461   466    1
   619   554   553   ar
   620   554   555    2
   621   528   526    1
   622   528   530    1
   623   445   444    1
   624     1    24    1
   625     1    22    1
   626   496   494   ar
   627   553   552    1
   628   440   441    1
   629   546   547    1
   630   513   511   ar
   631   539   540   ar
   632   539   537   ar
   633   490   491   ar
   634   526   527    1
   635   510   511   ar
   636   893   891    1
   637   893   894    1
   638   891   892    1
   639   444   446    1
   640   538   537    1
   641   466   477    1
   642   540   533   ar
   643   437   439    1
   644   437   456    1
   645     8     6    1
   646     8     9    1
   647   552   547    1
   648   511   512    1
   649   537   536   ar
   650     6     7    1
   651   530   532    1
   652   530   531    1
   653   494   495    2
   654   494   493   ar
   655   476   477   ar
   656   476   475   ar
   657   477   471   ar
   658   927   906    2
   659   491   493   ar
   660   491   492    2
   661   527   532    1
   662   533   532    1
   663   533   534   ar
   664   441   446    1
   665   536   534   ar
   666    42    41    2
   667   892   906    1
   668   446   447    1
   669   534   535    2
   670     7    25    1
   671   475   472   ar
   672    41    35   ar
   673    41    40   ar
   674   471   470   ar
   675   471   472   ar
   676   906   926    1
   677   906   908    1
   678    35    36   ar
   679    43    40   ar
   680    43    44   ar
   681    40    39   ar
   682   470   468   ar
   683   472   473   ar
   684    44    45   ar
   685   447   454   ar
   686   447   448   ar
   687    36    37    1
   688    36    38   ar
   689    39    45   ar
   690    39    38   ar
   691   454   453   ar
   692   449   448    2
   693    45    34    1
   694    29    34    1
   695    29    28    1
   696   448   450   ar
   697    47    25    2
   698   468   469    1
   699   468   467   ar
   700    25    27    1
   701    25    46    1
   702   908   907    1
   703    34    32    1
   704    27    26    1
   705   473   467   ar
   706   473   474    2
   707   453   451   ar
   708  1000   999    1
   709   450   451   ar
   710   923   924   ar
   711   923   920   ar
   712    26    28    1
   713    28    30    1
   714   451   452    1
   715   907   909    1
   716   922   921    1
   717   924   925   ar
   718   999   998   ar
   719   999  1001   ar
   720    32    33    1
   721    32    30    1
   722   920   921   ar
   723   920   919   ar
   724   998  1004   ar
   725   921   916   ar
   726   910   909    1
   727   910   915    1
   728  1001  1002   ar
   729  1023  1022    1
   730    30    31    1
   731   925   919   ar
   732   925   915    1
   733   909   911    1
   734   399   398    1
   735   980   979    2
   736   919   918   ar
   737   911   913    1
   738   911   912    1
   739   915   913    1
   740   946   928    2
   741   981   979   ar
   742   981   982   ar
   743  1004  1005    2
   744  1004  1003   ar
   745   916   917   ar
   746  1022  1024   ar
   747  1022  1021   ar
   748  1002  1003   ar
   749  1002  1008   ar
   750  1024  1025   ar
   751   913   914    1
   752  1019  1018    1
   753   947   928    1
   754   979   978   ar
   755   983   982    1
   756    31    48    1
   757  1003  1006   ar
   758   997  1008    1
   759   997   992    1
   760   997   995    1
   761  1020  1015    1
   762  1020  1018    1
   763  1020  1031    1
   764   928   912    1
   765   928   930    1
   766   982   984   ar
   767   398   400    1
   768   398   396    1
   769  1021  1027   ar
   770   918   917   ar
   771  1008  1007   ar
   772   996   995    1
   773  1025  1031   ar
   774  1025  1026   ar
   775   401   400    1
   776  1015  1014    1
   777   992   991    1
   778  1018  1016    1
   779   346   325    2
   780    69    48    2
   781  1031  1030   ar
   782   400   402    1
   783   978   977    1
   784   978   985   ar
   785  1042  1041    1
   786  1038  1043    1
   787  1038  1037    1
   788   995   993    1
   789  1006  1007   ar
   790    48    68    1
   791    48    50    1
   792   977   975    1
   793   977   972    1
   794  1027  1026   ar
   795  1027  1028    2
   796   368   348    2
   797   976   975    1
   798  1014  1016    1
   799  1014  1012    1
   800  1043  1041    1
   801  1043  1044    1
   802  1046  1045    2
   803  1026  1029   ar
   804  1037  1035    1
   805  1037  1039    1
   806   396   394    1
   807   396   397    1
   808   984   985   ar
   809   394   395    1
   810   414   393    2
   811   415   393    1
   812   975   973    1
   813    65    66   ar
   814    65    62   ar
   815   405   404    1
   816  1035  1036    1
   817   369   348    1
   818  1030  1029   ar
   819    64    63    1
   820   930   929    1
   821   392   370    2
   822  1041  1039    1
   823   991   993    1
   824   991   989    1
   825  1016  1017    1
   826    66    67   ar
   827   325   347    1
   828   325   327    1
   829   395   393    1
   830  1045  1044   ar
   831  1045  1047   ar
   832   393   376    1
   833  1012  1013    1
   834   963   962    2
   835  1044  1051   ar
   836   406   404   ar
   837   406   407   ar
   838   348   331    1
   839   348   350    1
   840   972   971    1
   841    62    63   ar
   842    62    61   ar
   843   404   403   ar
   844    63    58   ar
   845    52    57    1
   846    52    51    1
   847   993   994    1
   848   391   370    1
   849   402   397    1
   850   402   413    1
   851   967   948    2
   852  1039  1040    1
   853  1017  1034    1
   854    50    49    1
   855    49    51    1
   856   929   931    1
   857    67    61   ar
   858    67    57    1
   859   964   962   ar
   860   964   965   ar
   861   962   961   ar
   862  1013  1011    1
   863    61    60   ar
   864   370   372    1
   865   370   354    1
   866   407   413   ar
   867   407   408   ar
   868   989   990    1
   869    58    59   ar
   870   413   412   ar
   871  1047  1048   ar
   872   403   409   ar
   873   331   330    1
   874    57    55    1
   875  1036  1034    1
   876  1051  1050   ar
   877   973   971    1
   878   973   974    1
   879   994  1011    1
   880    51    53    1
   881   965   958   ar
   882   350   349    1
   883   971   969    1
   884   372   371    1
   885   944   945   ar
   886   944   942   ar
   887   327   326    1
   888   956   955    1
   889   961   959   ar
   890   943   942    1
   891    60    59   ar
   892   326   328    1
   893   408   409   ar
   894   408   411   ar
   895  1034  1052    2
   896  1034  1053    1
   897   409   410    2
   898   349   351    1
   899   376   375    1
   900   412   411   ar
   901   990   988    1
   902   955   957    1
   903   955   953    1
   904   945   938   ar
   905   942   941   ar
   906   948   950    1
   907   948   966    1
   908   948   934    1
   909  1048  1050   ar
   910  1048  1049    1
   911   931   933    1
   912   931   932    1
   913   958   959   ar
   914   958   957    1
   915   287   286    1
   916   974   988    1
   917  1011  1032    2
   918  1011  1033    1
   919   959   960    2
   920   330   328    1
   921   330   332    1
   922   950   949    1
   923   354   353    1
   924   933   934    1
   925   933   935    1
   926    87    86    2
   927   371   373    1
   928   375   373    1
   929   375   377    1
   930    53    55    1
   931    53    54    1
   932   328   329    1
   933    55    56    1
   934   932   937    1
   935   957   952    1
   936   969   970    1
   937   970   968    1
   938   388   389   ar
   939   388   385   ar
   940   353   351    1
   941   353   355    1
   942   938   939   ar
   943   938   937    1
   944   941   939   ar
   945   988  1010    2
   946   988  1009    1
   947   389   390   ar
   948   302   281    2
   949   953   954    1
   950   953   951    1
   951    86    85   ar
   952    86    80   ar
   953   351   352    1
   954   373   374    1
   955    88    85   ar
   956    88    89   ar
   957   935   937    1
   958   935   936    1
   959   289   288    1
   960   939   940    2
   961   952   951    1
   962   286   284    1
   963   286   288    1
   964   377   379    1
   965   377   378    1
   966    85    84   ar
   967    80    81   ar
   968   332   333    1
   969   332   334    1
   970   949   951    1
   971   374   379    1
   972   387   386    2
   973    54    70    1
   974   366   365   ar
   975   366   367   ar
   976   385   386   ar
   977   385   384   ar
   978   954   968    1
   979   390   379    1
   980   390   384   ar
   981   365   362   ar
   982   329   334    1
   983    89    90   ar
   984   284   282    1
   985   284   285    1
   986   282   283    1
   987   344   343   ar
   988   344   345   ar
   989    92    70    2
   990   288   290    1
   991   386   380   ar
   992   352   357    1
   993   968   987    2
   994   968   986    1
   995   355   357    1
   996   355   356    1
   997    84    90   ar
   998    84    83   ar
   999   281   283    1
  1000   281   303    1
  1001   281   264    1
  1002    81    82    1
  1003    81    83   ar
  1004   384   383   ar
  1005   343   340   ar
  1006   334   345    1
  1007    90    79    1
  1008   367   357    1
  1009   367   361   ar
  1010   345   339   ar
  1011    70    72    1
  1012    70    91    1
  1013   362   361   ar
  1014   362   363   ar
  1015   364   363    1
  1016   380   381   ar
  1017   108   107    1
  1018    74    79    1
  1019    74    73    1
  1020   285   290    1
  1021    72    71    1
  1022   264   263    1
  1023   383   381   ar
  1024   361   360   ar
  1025    79    77    1
  1026   363   358   ar
  1027   290   301    1
  1028   340   339   ar
  1029   340   341   ar
  1030   381   382    1
  1031   339   338   ar
  1032   107   106   ar
  1033   107   109   ar
  1034    71    73    1
  1035   106   104   ar
  1036   360   359   ar
  1037   341   342    2
  1038   341   335   ar
  1039   266   265    1
  1040   358   359   ar
  1041    73    75    1
  1042   301   300   ar
  1043   301   295   ar
  1044   338   336   ar
  1045   109   110   ar
  1046   263   265    1
  1047   263   261    1
  1048   300   299   ar
  1049    77    75    1
  1050    77    78    1
  1051   265   267    1
  1052   104   105    2
  1053   104   103   ar
  1054    75    76    1
  1055   294   295   ar
  1056   294   292   ar
  1057   295   296   ar
  1058   335   336   ar
  1059   336   337    1
  1060   110   103   ar
  1061   261   259    1
  1062   261   262    1
  1063   279   258    2
  1064   166   165    1
  1065   299   296   ar
  1066   103   102    1
  1067   259   260    1
  1068   296   297   ar
  1069   292   293    1
  1070   292   291   ar
  1071   267   262    1
  1072   267   278    1
  1073    76    93    1
  1074   260   258    1
  1075   164   165   ar
  1076   164   170   ar
  1077   112    93    2
  1078   165   167   ar
  1079   102    97    1
  1080   102   100    1
  1081   258   280    1
  1082   258   243    1
  1083    97    96    1
  1084   291   297   ar
  1085   297   298    2
  1086   149   148    1
  1087   278   277   ar
  1088   278   272   ar
  1089    93    95    1
  1090    93   111    1
  1091   171   170    2
  1092   147   148   ar
  1093   147   145   ar
  1094    95    94    1
  1095   167   168   ar
  1096   170   169   ar
  1097   189   188    2
  1098   271   272   ar
  1099   271   269   ar
  1100   277   276   ar
  1101   272   273   ar
  1102   148   150   ar
  1103   146   145    2
  1104   100    98    1
  1105   100   101    1
  1106   270   269    1
  1107   243   242    1
  1108   269   268   ar
  1109    96    94    1
  1110    96    98    1
  1111   145   144   ar
  1112   276   273   ar
  1113   168   169   ar
  1114   168   174   ar
  1115   273   274   ar
  1116   169   172   ar
  1117   188   190   ar
  1118   188   187   ar
  1119   190   191   ar
  1120    98    99    1
  1121   245   244    1
  1122   268   274   ar
  1123   274   275    2
  1124   150   151   ar
  1125   185   184    1
  1126   244   242    1
  1127   244   246    1
  1128   242   240    1
  1129   226   225    1
  1130   174   163    1
  1131   174   173   ar
  1132   144   151   ar
  1133   144   143    1
  1134   172   173   ar
  1135   187   186    1
  1136   187   194   ar
  1137   186   184    1
  1138   186   181    1
  1139   191   192    1
  1140   191   193   ar
  1141   163   161    1
  1142   163   158    1
  1143   162   161    1
  1144   184   182    1
  1145   222   227    1
  1146   222   221    1
  1147   227   225    1
  1148   227   228    1
  1149   161   159    1
  1150   230   229    2
  1151   143   138    1
  1152   143   141    1
  1153   181   180    1
  1154   225   223    1
  1155   240   238    1
  1156   240   241    1
  1157   194   193   ar
  1158   221   219    1
  1159   221   223    1
  1160   249   248    1
  1161   246   241    1
  1162   246   257    1
  1163   228   229   ar
  1164   228   235   ar
  1165   229   231   ar
  1166   250   248   ar
  1167   250   251   ar
  1168   158   157    1
  1169   220   219    1
  1170   220   218    1
  1171   138   137    1
  1172   239   238    1
  1173   248   247   ar
  1174   141   142    1
  1175   141   139    1
  1176   180   182    1
  1177   180   178    1
  1178   223   224    1
  1179   182   183    1
  1180   257   251   ar
  1181   257   256   ar
  1182   251   252   ar
  1183   159   157    1
  1184   159   160    1
  1185   231   232   ar
  1186   235   234   ar
  1187   247   253   ar
  1188   218   236    2
  1189   218   237    1
  1190   157   155    1
  1191   256   255   ar
  1192   252   253   ar
  1193   252   255   ar
  1194   160   177    1
  1195   253   254    2
  1196   137   139    1
  1197   137   135    1
  1198   232   234   ar
  1199   232   233    1
  1200   139   140    1
  1201   178   179    1
  1202   153   134    2
  1203   136   135    1
  1204   136   134    1
  1205   176   154    2
  1206   156   155    1
  1207   156   154    1
  1208   179   177    1
  1209   134   152    1
  1210   196   177    2
  1211   177   195    1
  1212   140   154    1
  1213   154   175    1
