2fcz_lig
 OpenBabel11021811433D
libRbt.so/2013.1/901 2013/11/27
 31 33  0  0  0  0  0  0  0  0999 V2000
    8.7834   15.9777   35.2372 C   0  0  0  0  0  0  0  0  0  0  0  0
   13.7150   22.8190   36.1540 N   0  0  0  0  0  0  0  0  0  0  0  0
    7.8389   17.0367   35.0586 O   0  0  0  0  0  0  0  0  0  0  0  0
    9.8983   16.4364   36.1834 C   0  0  1  0  0  0  0  0  0  0  0  0
   10.6703   23.1811   32.3401 N   0  0  0  0  0  0  0  0  0  0  0  0
   10.5347   17.6418   35.7128 O   0  0  0  0  0  0  0  0  0  0  0  0
   10.1557   18.7485   36.5551 C   0  0  1  0  0  0  0  0  0  0  0  0
    6.2428   23.4473   32.4976 N   0  0  0  0  0  0  0  0  0  0  0  0
    9.7976   19.9199   35.8023 O   0  0  0  0  0  0  0  0  0  0  0  0
   10.8822   20.4965   35.0551 C   0  0  2  0  0  0  0  0  0  0  0  0
    9.5633   17.8626   32.4281 N   0  0  0  0  0  0  0  0  0  0  0  0
   12.3878   20.4470   36.9484 O   0  0  0  0  0  0  0  0  0  0  0  0
   11.7647   21.3191   36.0022 C   0  0  1  0  0  0  0  0  0  0  0  0
    9.7012   20.5930   32.8965 O   0  0  0  0  0  0  0  0  0  0  0  0
   12.8519   22.0702   35.2302 C   0  0  1  0  0  0  0  0  0  0  0  0
    7.3659   20.7736   33.1905 O   0  0  0  0  0  0  0  0  0  0  0  0
   12.2141   23.0359   34.2290 C   0  0  0  0  0  0  0  0  0  0  0  0
    6.5730   20.4559   29.6075 O   0  0  0  0  0  0  0  0  0  0  0  0
   11.3608   22.2417   33.2381 C   0  0  1  0  0  0  0  0  0  0  0  0
    7.7786   17.9143   30.1904 O   0  0  0  0  0  0  0  0  0  0  0  0
   10.3132   21.3694   33.9383 C   0  0  2  0  0  0  0  0  0  0  0  0
    8.7098   18.9406   38.5519 O   0  0  0  0  0  0  0  0  0  0  0  0
    8.5094   19.9065   33.3061 C   0  0  1  0  0  0  0  0  0  0  0  0
   10.3350   16.6806   38.5765 O   0  0  0  0  0  0  0  0  0  0  0  0
    7.0945   21.2272   31.8531 C   0  0  2  0  0  0  0  0  0  0  0  0
    5.8811   22.1596   31.8874 C   0  0  0  0  0  0  0  0  0  0  0  0
    6.8134   20.0214   30.9494 C   0  0  2  0  0  0  0  0  0  0  0  0
    8.0253   19.0874   30.9724 C   0  0  1  0  0  0  0  0  0  0  0  0
    8.3382   18.6741   32.4123 C   0  0  1  0  0  0  0  0  0  0  0  0
    8.9383   18.2371   37.3270 C   0  0  2  0  0  0  0  0  0  0  0  0
    9.3328   16.7801   37.5613 C   0  0  1  0  0  0  0  0  0  0  0  0
  3  1  1  0  0  0  0
  4  1  1  6  0  0  0
  4  6  1  0  0  0  0
  4 31  1  0  0  0  0
  6  7  1  0  0  0  0
  7  9  1  6  0  0  0
  7 30  1  0  0  0  0
 10  9  1  1  0  0  0
 10 13  1  0  0  0  0
 10 21  1  0  0  0  0
 13 12  1  1  0  0  0
 13 15  1  0  0  0  0
 15  2  1  1  0  0  0
 15 17  1  0  0  0  0
 16 25  1  0  0  0  0
 17 19  1  0  0  0  0
 19  5  1  6  0  0  0
 19 21  1  0  0  0  0
 21 14  1  6  0  0  0
 23 14  1  6  0  0  0
 23 16  1  0  0  0  0
 23 29  1  0  0  0  0
 25 26  1  1  0  0  0
 25 27  1  0  0  0  0
 26  8  1  0  0  0  0
 27 18  1  6  0  0  0
 27 28  1  0  0  0  0
 28 20  1  6  0  0  0
 28 29  1  0  0  0  0
 29 11  1  6  0  0  0
 30 22  1  1  0  0  0
 30 31  1  0  0  0  0
 31 24  1  1  0  0  0
M  END
>  <CHROM.1>
-55.75149721,-65.24308306,-78.98272688,67.25755783,85.29626441,72.44784918
9.41134574,19.82115748,34.27030144,0.86376166,0.76523884,2.45434771

>  <Name>
2fcz_lig

>  <RI>
3.41297e+07

>  <Rbt.Current_Directory>
/home/itssahil/PROJECTS/Mol_Feturizer/New_Systems/rnas/2fcz

>  <Rbt.Executable>
rbdock ($Id: //depot/dev/client3/rdock/2013.1/src/exe/rbdock.cxx#4 $)

>  <Rbt.Library>
libRbt.so (2013.1, Build901 2013/11/27)

>  <Rbt.Parameter_File>
/export/apps/rDock/src/rDock_2013.1_src/data/scripts/dock_solv.prm

>  <Rbt.Receptor>
prm/pocket_docking_2.prm

>  <SCORE>
-20.5899

>  <SCORE.INTER>
-18.6134

>  <SCORE.INTER.CONST>
1

>  <SCORE.INTER.POLAR>
-1.83095

>  <SCORE.INTER.ROT>
6

>  <SCORE.INTER.SOLV>
18.2536

>  <SCORE.INTER.VDW>
-19.9903

>  <SCORE.INTER.norm>
-0.600432

>  <SCORE.INTRA>
-1.97649

>  <SCORE.INTRA.DIHEDRAL>
-5.33962

>  <SCORE.INTRA.DIHEDRAL.0>
10.8409

>  <SCORE.INTRA.POLAR>
0

>  <SCORE.INTRA.POLAR.0>
0

>  <SCORE.INTRA.REPUL>
0

>  <SCORE.INTRA.REPUL.0>
0

>  <SCORE.INTRA.SOLV>
-0.338255

>  <SCORE.INTRA.SOLV.lig_0>
-80.8302

>  <SCORE.INTRA.VDW>
0.86245

>  <SCORE.INTRA.VDW.0>
-4.23953

>  <SCORE.INTRA.norm>
-0.0637576

>  <SCORE.RESTR>
0

>  <SCORE.RESTR.CAVITY>
0

>  <SCORE.RESTR.norm>
0

>  <SCORE.SYSTEM>
0

>  <SCORE.SYSTEM.CONST>
0

>  <SCORE.SYSTEM.DIHEDRAL>
0

>  <SCORE.SYSTEM.SOLV>
0

>  <SCORE.SYSTEM.norm>
0

>  <SCORE.heavy>
31

>  <SCORE.norm>
-0.66419

>  <RMSD>
0.681

$$$$
2fcz_lig
 OpenBabel11021811433D
libRbt.so/2013.1/901 2013/11/27
 31 33  0  0  0  0  0  0  0  0999 V2000
    8.3254   16.0390   35.1834 C   0  0  0  0  0  0  0  0  0  0  0  0
   13.6957   22.5984   36.2802 N   0  0  0  0  0  0  0  0  0  0  0  0
    8.8240   15.5924   33.9195 O   0  0  0  0  0  0  0  0  0  0  0  0
    9.4986   16.3865   36.1060 C   0  0  1  0  0  0  0  0  0  0  0  0
   10.7602   23.1425   32.4028 N   0  0  0  0  0  0  0  0  0  0  0  0
   10.2170   17.5472   35.6409 O   0  0  0  0  0  0  0  0  0  0  0  0
    9.9511   18.6621   36.5150 C   0  0  1  0  0  0  0  0  0  0  0  0
    6.1800   23.3989   32.5164 N   0  0  0  0  0  0  0  0  0  0  0  0
    9.6683   19.8744   35.7955 O   0  0  0  0  0  0  0  0  0  0  0  0
   10.7937   20.4143   35.0822 C   0  0  2  0  0  0  0  0  0  0  0  0
    9.5578   17.8617   32.4164 N   0  0  0  0  0  0  0  0  0  0  0  0
   12.2507   20.2746   37.0087 O   0  0  0  0  0  0  0  0  0  0  0  0
   11.6876   21.1854   36.0613 C   0  0  1  0  0  0  0  0  0  0  0  0
    9.6694   20.5908   32.8985 O   0  0  0  0  0  0  0  0  0  0  0  0
   12.8237   21.8999   35.3258 C   0  0  1  0  0  0  0  0  0  0  0  0
    7.3288   20.7536   33.1594 O   0  0  0  0  0  0  0  0  0  0  0  0
   12.2513   22.9056   34.3245 C   0  0  0  0  0  0  0  0  0  0  0  0
    6.5901   20.4459   29.5639 O   0  0  0  0  0  0  0  0  0  0  0  0
   11.3888   22.1623   33.3025 C   0  0  1  0  0  0  0  0  0  0  0  0
    7.8054   17.9104   30.1534 O   0  0  0  0  0  0  0  0  0  0  0  0
   10.2889   21.3260   33.9655 C   0  0  2  0  0  0  0  0  0  0  0  0
    8.5795   18.9259   38.5556 O   0  0  0  0  0  0  0  0  0  0  0  0
    8.4768   19.8941   33.2878 C   0  0  1  0  0  0  0  0  0  0  0  0
   10.0177   16.5434   38.4900 O   0  0  0  0  0  0  0  0  0  0  0  0
    7.0735   21.2111   31.8202 C   0  0  2  0  0  0  0  0  0  0  0  0
    5.8531   22.1347   31.8409 C   0  0  0  0  0  0  0  0  0  0  0  0
    6.8142   20.0073   30.9074 C   0  0  2  0  0  0  0  0  0  0  0  0
    8.0323   19.0819   30.9439 C   0  0  1  0  0  0  0  0  0  0  0  0
    8.3273   18.6644   32.3864 C   0  0  1  0  0  0  0  0  0  0  0  0
    8.7177   18.2331   37.3113 C   0  0  2  0  0  0  0  0  0  0  0  0
    8.9998   16.7445   37.5060 C   0  0  1  0  0  0  0  0  0  0  0  0
  3  1  1  0  0  0  0
  4  1  1  6  0  0  0
  4  6  1  0  0  0  0
  4 31  1  0  0  0  0
  6  7  1  0  0  0  0
  7  9  1  6  0  0  0
  7 30  1  0  0  0  0
 10  9  1  1  0  0  0
 10 13  1  0  0  0  0
 10 21  1  0  0  0  0
 13 12  1  1  0  0  0
 13 15  1  0  0  0  0
 15  2  1  1  0  0  0
 15 17  1  0  0  0  0
 16 25  1  0  0  0  0
 17 19  1  0  0  0  0
 19  5  1  6  0  0  0
 19 21  1  0  0  0  0
 21 14  1  6  0  0  0
 23 14  1  6  0  0  0
 23 16  1  0  0  0  0
 23 29  1  0  0  0  0
 25 26  1  1  0  0  0
 25 27  1  0  0  0  0
 26  8  1  0  0  0  0
 27 18  1  6  0  0  0
 27 28  1  0  0  0  0
 28 20  1  6  0  0  0
 28 29  1  0  0  0  0
 29 11  1  6  0  0  0
 30 22  1  1  0  0  0
 30 31  1  0  0  0  0
 31 24  1  1  0  0  0
M  END
>  <CHROM.1>
67.72954442,-68.15873873,-80.29558451,64.23003137,87.54230539,69.87896561
9.35299102,19.71574480,34.22548644,0.85565084,0.80660793,2.48329660

>  <Name>
2fcz_lig

>  <RI>
3.41297e+07

>  <Rbt.Current_Directory>
/home/itssahil/PROJECTS/Mol_Feturizer/New_Systems/rnas/2fcz

>  <Rbt.Executable>
rbdock ($Id: //depot/dev/client3/rdock/2013.1/src/exe/rbdock.cxx#4 $)

>  <Rbt.Library>
libRbt.so (2013.1, Build901 2013/11/27)

>  <Rbt.Parameter_File>
/export/apps/rDock/src/rDock_2013.1_src/data/scripts/dock_solv.prm

>  <Rbt.Receptor>
prm/pocket_docking_2.prm

>  <SCORE>
-20.6066

>  <SCORE.INTER>
-18.6112

>  <SCORE.INTER.CONST>
1

>  <SCORE.INTER.POLAR>
-1.77433

>  <SCORE.INTER.ROT>
6

>  <SCORE.INTER.SOLV>
18.2387

>  <SCORE.INTER.VDW>
-20.1726

>  <SCORE.INTER.norm>
-0.600363

>  <SCORE.INTRA>
-1.99537

>  <SCORE.INTRA.DIHEDRAL>
-4.7383

>  <SCORE.INTRA.DIHEDRAL.0>
10.8409

>  <SCORE.INTRA.POLAR>
0

>  <SCORE.INTRA.POLAR.0>
0

>  <SCORE.INTRA.REPUL>
0

>  <SCORE.INTRA.REPUL.0>
0

>  <SCORE.INTRA.SOLV>
-0.824001

>  <SCORE.INTRA.SOLV.lig_0>
-80.8302

>  <SCORE.INTRA.VDW>
0.785779

>  <SCORE.INTRA.VDW.0>
-4.23953

>  <SCORE.INTRA.norm>
-0.0643668

>  <SCORE.RESTR>
0

>  <SCORE.RESTR.CAVITY>
0

>  <SCORE.RESTR.norm>
0

>  <SCORE.SYSTEM>
0

>  <SCORE.SYSTEM.CONST>
0

>  <SCORE.SYSTEM.DIHEDRAL>
0

>  <SCORE.SYSTEM.SOLV>
0

>  <SCORE.SYSTEM.norm>
0

>  <SCORE.heavy>
31

>  <SCORE.norm>
-0.66473

>  <RMSD>
0.714

$$$$
2fcz_lig
 OpenBabel11021811433D
libRbt.so/2013.1/901 2013/11/27
 31 33  0  0  0  0  0  0  0  0999 V2000
    8.5730   16.1742   34.9677 C   0  0  0  0  0  0  0  0  0  0  0  0
   13.7518   22.8492   36.1053 N   0  0  0  0  0  0  0  0  0  0  0  0
    7.9627   14.9437   35.3661 O   0  0  0  0  0  0  0  0  0  0  0  0
    9.7128   16.5196   35.9321 C   0  0  1  0  0  0  0  0  0  0  0  0
   10.7332   23.2298   32.2724 N   0  0  0  0  0  0  0  0  0  0  0  0
   10.4060   17.7188   35.5307 O   0  0  0  0  0  0  0  0  0  0  0  0
   10.0852   18.7896   36.4408 C   0  0  1  0  0  0  0  0  0  0  0  0
    6.2013   23.4534   32.4388 N   0  0  0  0  0  0  0  0  0  0  0  0
    9.7824   20.0206   35.7624 O   0  0  0  0  0  0  0  0  0  0  0  0
   10.8812   20.5692   35.0151 C   0  0  2  0  0  0  0  0  0  0  0  0
    9.6219   17.9286   32.4125 N   0  0  0  0  0  0  0  0  0  0  0  0
   12.3764   20.5106   36.9164 O   0  0  0  0  0  0  0  0  0  0  0  0
   11.7743   21.3846   35.9584 C   0  0  1  0  0  0  0  0  0  0  0  0
    9.7129   20.6661   32.8496 O   0  0  0  0  0  0  0  0  0  0  0  0
   12.8793   22.1075   35.1845 C   0  0  1  0  0  0  0  0  0  0  0  0
    7.3766   20.8076   33.1566 O   0  0  0  0  0  0  0  0  0  0  0  0
   12.2647   23.0748   34.1706 C   0  0  0  0  0  0  0  0  0  0  0  0
    6.5673   20.4352   29.5825 O   0  0  0  0  0  0  0  0  0  0  0  0
   11.4015   22.2868   33.1832 C   0  0  1  0  0  0  0  0  0  0  0  0
    7.8227   17.9226   30.1860 O   0  0  0  0  0  0  0  0  0  0  0  0
   10.3343   21.4414   33.8868 C   0  0  2  0  0  0  0  0  0  0  0  0
    8.6582   18.9310   38.4554 O   0  0  0  0  0  0  0  0  0  0  0  0
    8.5365   19.9627   33.2745 C   0  0  1  0  0  0  0  0  0  0  0  0
   10.1702   16.5968   38.3326 O   0  0  0  0  0  0  0  0  0  0  0  0
    7.0887   21.2411   31.8160 C   0  0  2  0  0  0  0  0  0  0  0  0
    5.8587   22.1517   31.8477 C   0  0  0  0  0  0  0  0  0  0  0  0
    6.8240   20.0203   30.9276 C   0  0  2  0  0  0  0  0  0  0  0  0
    8.0528   19.1088   30.9532 C   0  0  1  0  0  0  0  0  0  0  0  0
    8.3822   18.7174   32.3956 C   0  0  1  0  0  0  0  0  0  0  0  0
    8.8471   18.2926   37.1888 C   0  0  2  0  0  0  0  0  0  0  0  0
    9.1702   16.8066   37.3321 C   0  0  1  0  0  0  0  0  0  0  0  0
  3  1  1  0  0  0  0
  4  1  1  6  0  0  0
  4  6  1  0  0  0  0
  4 31  1  0  0  0  0
  6  7  1  0  0  0  0
  7  9  1  6  0  0  0
  7 30  1  0  0  0  0
 10  9  1  1  0  0  0
 10 13  1  0  0  0  0
 10 21  1  0  0  0  0
 13 12  1  1  0  0  0
 13 15  1  0  0  0  0
 15  2  1  1  0  0  0
 15 17  1  0  0  0  0
 16 25  1  0  0  0  0
 17 19  1  0  0  0  0
 19  5  1  6  0  0  0
 19 21  1  0  0  0  0
 21 14  1  6  0  0  0
 23 14  1  6  0  0  0
 23 16  1  0  0  0  0
 23 29  1  0  0  0  0
 25 26  1  1  0  0  0
 25 27  1  0  0  0  0
 26  8  1  0  0  0  0
 27 18  1  6  0  0  0
 27 28  1  0  0  0  0
 28 20  1  6  0  0  0
 28 29  1  0  0  0  0
 29 11  1  6  0  0  0
 30 22  1  1  0  0  0
 30 31  1  0  0  0  0
 31 24  1  1  0  0  0
M  END
>  <CHROM.1>
176.97344343,-63.68529114,-83.82748216,64.86537969,86.62328947,72.55606684
9.39333728,19.78468201,34.20571895,0.92198937,0.77715975,2.47839003

>  <Name>
2fcz_lig

>  <RI>
3.41297e+07

>  <Rbt.Current_Directory>
/home/itssahil/PROJECTS/Mol_Feturizer/New_Systems/rnas/2fcz

>  <Rbt.Executable>
rbdock ($Id: //depot/dev/client3/rdock/2013.1/src/exe/rbdock.cxx#4 $)

>  <Rbt.Library>
libRbt.so (2013.1, Build901 2013/11/27)

>  <Rbt.Parameter_File>
/export/apps/rDock/src/rDock_2013.1_src/data/scripts/dock_solv.prm

>  <Rbt.Receptor>
prm/pocket_docking_2.prm

>  <SCORE>
-21.2047

>  <SCORE.INTER>
-18.9793

>  <SCORE.INTER.CONST>
1

>  <SCORE.INTER.POLAR>
-1.80813

>  <SCORE.INTER.ROT>
6

>  <SCORE.INTER.SOLV>
17.9319

>  <SCORE.INTER.VDW>
-20.203

>  <SCORE.INTER.norm>
-0.612234

>  <SCORE.INTRA>
-2.22541

>  <SCORE.INTRA.DIHEDRAL>
-4.5105

>  <SCORE.INTRA.DIHEDRAL.0>
10.8409

>  <SCORE.INTRA.POLAR>
0

>  <SCORE.INTRA.POLAR.0>
0

>  <SCORE.INTRA.REPUL>
0

>  <SCORE.INTRA.REPUL.0>
0

>  <SCORE.INTRA.SOLV>
-1.5338

>  <SCORE.INTRA.SOLV.lig_0>
-80.8302

>  <SCORE.INTRA.VDW>
0.796745

>  <SCORE.INTRA.VDW.0>
-4.23953

>  <SCORE.INTRA.norm>
-0.0717873

>  <SCORE.RESTR>
0

>  <SCORE.RESTR.CAVITY>
0

>  <SCORE.RESTR.norm>
0

>  <SCORE.SYSTEM>
0

>  <SCORE.SYSTEM.CONST>
0

>  <SCORE.SYSTEM.DIHEDRAL>
0

>  <SCORE.SYSTEM.SOLV>
0

>  <SCORE.SYSTEM.norm>
0

>  <SCORE.heavy>
31

>  <SCORE.norm>
-0.684021

>  <RMSD>
0.720

$$$$
2fcz_lig
 OpenBabel11021811433D
libRbt.so/2013.1/901 2013/11/27
 31 33  0  0  0  0  0  0  0  0999 V2000
    8.1424   16.0421   35.2314 C   0  0  0  0  0  0  0  0  0  0  0  0
   13.6530   22.5049   36.3585 N   0  0  0  0  0  0  0  0  0  0  0  0
    8.6047   15.6358   33.9404 O   0  0  0  0  0  0  0  0  0  0  0  0
    9.3414   16.3655   36.1294 C   0  0  1  0  0  0  0  0  0  0  0  0
   10.7600   23.1551   32.4656 N   0  0  0  0  0  0  0  0  0  0  0  0
   10.0798   17.5047   35.6431 O   0  0  0  0  0  0  0  0  0  0  0  0
    9.8587   18.6313   36.5147 C   0  0  1  0  0  0  0  0  0  0  0  0
    6.1933   23.4750   32.4734 N   0  0  0  0  0  0  0  0  0  0  0  0
    9.5928   19.8460   35.7928 O   0  0  0  0  0  0  0  0  0  0  0  0
   10.7319   20.3820   35.0985 C   0  0  2  0  0  0  0  0  0  0  0  0
    9.4817   17.8851   32.4173 N   0  0  0  0  0  0  0  0  0  0  0  0
   12.1696   20.1896   37.0349 O   0  0  0  0  0  0  0  0  0  0  0  0
   11.6277   21.1239   36.0983 C   0  0  1  0  0  0  0  0  0  0  0  0
    9.6296   20.6109   32.9085 O   0  0  0  0  0  0  0  0  0  0  0  0
   12.7800   21.8348   35.3848 C   0  0  1  0  0  0  0  0  0  0  0  0
    7.2875   20.8123   33.1250 O   0  0  0  0  0  0  0  0  0  0  0  0
   12.2305   22.8651   34.3958 C   0  0  0  0  0  0  0  0  0  0  0  0
    6.6128   20.5253   29.5153 O   0  0  0  0  0  0  0  0  0  0  0  0
   11.3669   22.1512   33.3540 C   0  0  1  0  0  0  0  0  0  0  0  0
    7.7740   17.9684   30.1213 O   0  0  0  0  0  0  0  0  0  0  0  0
   10.2497   21.3194   33.9931 C   0  0  2  0  0  0  0  0  0  0  0  0
    8.5334   18.9421   38.5792 O   0  0  0  0  0  0  0  0  0  0  0  0
    8.4182   19.9334   33.2731 C   0  0  1  0  0  0  0  0  0  0  0  0
    9.9097   16.5236   38.5020 O   0  0  0  0  0  0  0  0  0  0  0  0
    7.0656   21.2771   31.7823 C   0  0  2  0  0  0  0  0  0  0  0  0
    5.8606   22.2210   31.7821 C   0  0  0  0  0  0  0  0  0  0  0  0
    6.8038   20.0799   30.8616 C   0  0  2  0  0  0  0  0  0  0  0  0
    8.0052   19.1341   30.9190 C   0  0  1  0  0  0  0  0  0  0  0  0
    8.2656   18.7085   32.3658 C   0  0  1  0  0  0  0  0  0  0  0  0
    8.6303   18.2384   37.3370 C   0  0  2  0  0  0  0  0  0  0  0  0
    8.8786   16.7444   37.5361 C   0  0  1  0  0  0  0  0  0  0  0  0
  3  1  1  0  0  0  0
  4  1  1  6  0  0  0
  4  6  1  0  0  0  0
  4 31  1  0  0  0  0
  6  7  1  0  0  0  0
  7  9  1  6  0  0  0
  7 30  1  0  0  0  0
 10  9  1  1  0  0  0
 10 13  1  0  0  0  0
 10 21  1  0  0  0  0
 13 12  1  1  0  0  0
 13 15  1  0  0  0  0
 15  2  1  1  0  0  0
 15 17  1  0  0  0  0
 16 25  1  0  0  0  0
 17 19  1  0  0  0  0
 19  5  1  6  0  0  0
 19 21  1  0  0  0  0
 21 14  1  6  0  0  0
 23 14  1  6  0  0  0
 23 16  1  0  0  0  0
 23 29  1  0  0  0  0
 25 26  1  1  0  0  0
 25 27  1  0  0  0  0
 26  8  1  0  0  0  0
 27 18  1  6  0  0  0
 27 28  1  0  0  0  0
 28 20  1  6  0  0  0
 28 29  1  0  0  0  0
 29 11  1  6  0  0  0
 30 22  1  1  0  0  0
 30 31  1  0  0  0  0
 31 24  1  1  0  0  0
M  END
>  <CHROM.1>
65.01076986,-70.53745193,-79.18559032,64.70750559,88.28453668,69.57183157
9.29073989,19.72303485,34.23347041,0.89268392,0.80536815,2.46569550

>  <Name>
2fcz_lig

>  <RI>
3.41297e+07

>  <Rbt.Current_Directory>
/home/itssahil/PROJECTS/Mol_Feturizer/New_Systems/rnas/2fcz

>  <Rbt.Executable>
rbdock ($Id: //depot/dev/client3/rdock/2013.1/src/exe/rbdock.cxx#4 $)

>  <Rbt.Library>
libRbt.so (2013.1, Build901 2013/11/27)

>  <Rbt.Parameter_File>
/export/apps/rDock/src/rDock_2013.1_src/data/scripts/dock_solv.prm

>  <Rbt.Receptor>
prm/pocket_docking_2.prm

>  <SCORE>
-20.6846

>  <SCORE.INTER>
-18.6985

>  <SCORE.INTER.CONST>
1

>  <SCORE.INTER.POLAR>
-1.74882

>  <SCORE.INTER.ROT>
6

>  <SCORE.INTER.SOLV>
18.2174

>  <SCORE.INTER.VDW>
-20.3087

>  <SCORE.INTER.norm>
-0.603179

>  <SCORE.INTRA>
-1.98609

>  <SCORE.INTRA.DIHEDRAL>
-4.69596

>  <SCORE.INTRA.DIHEDRAL.0>
10.8409

>  <SCORE.INTRA.POLAR>
0

>  <SCORE.INTRA.POLAR.0>
0

>  <SCORE.INTRA.REPUL>
0

>  <SCORE.INTRA.REPUL.0>
0

>  <SCORE.INTRA.SOLV>
-0.84632

>  <SCORE.INTRA.SOLV.lig_0>
-80.8302

>  <SCORE.INTRA.VDW>
0.785044

>  <SCORE.INTRA.VDW.0>
-4.23953

>  <SCORE.INTRA.norm>
-0.0640676

>  <SCORE.RESTR>
0

>  <SCORE.RESTR.CAVITY>
0

>  <SCORE.RESTR.norm>
0

>  <SCORE.SYSTEM>
0

>  <SCORE.SYSTEM.CONST>
0

>  <SCORE.SYSTEM.DIHEDRAL>
0

>  <SCORE.SYSTEM.SOLV>
0

>  <SCORE.SYSTEM.norm>
0

>  <SCORE.heavy>
31

>  <SCORE.norm>
-0.667246

>  <RMSD>
0.736

$$$$
2fcz_lig
 OpenBabel11021811433D
libRbt.so/2013.1/901 2013/11/27
 31 33  0  0  0  0  0  0  0  0999 V2000
    8.5555   16.2386   34.8725 C   0  0  0  0  0  0  0  0  0  0  0  0
   13.7487   22.8789   36.0980 N   0  0  0  0  0  0  0  0  0  0  0  0
    7.9368   15.0041   35.2450 O   0  0  0  0  0  0  0  0  0  0  0  0
    9.6940   16.5586   35.8472 C   0  0  1  0  0  0  0  0  0  0  0  0
   10.7004   23.3004   32.2931 N   0  0  0  0  0  0  0  0  0  0  0  0
   10.3900   17.7659   35.4761 O   0  0  0  0  0  0  0  0  0  0  0  0
   10.0694   18.8150   36.4111 C   0  0  1  0  0  0  0  0  0  0  0  0
    6.1270   23.4745   32.5460 N   0  0  0  0  0  0  0  0  0  0  0  0
    9.7700   20.0625   35.7621 O   0  0  0  0  0  0  0  0  0  0  0  0
   10.8641   20.6152   35.0109 C   0  0  2  0  0  0  0  0  0  0  0  0
    9.6075   17.9991   32.3994 N   0  0  0  0  0  0  0  0  0  0  0  0
   12.3743   20.5363   36.8995 O   0  0  0  0  0  0  0  0  0  0  0  0
   11.7667   21.4202   35.9541 C   0  0  1  0  0  0  0  0  0  0  0  0
    9.6787   20.7340   32.8558 O   0  0  0  0  0  0  0  0  0  0  0  0
   12.8671   22.1473   35.1778 C   0  0  1  0  0  0  0  0  0  0  0  0
    7.3445   20.8523   33.1881 O   0  0  0  0  0  0  0  0  0  0  0  0
   12.2466   23.1251   34.1774 C   0  0  0  0  0  0  0  0  0  0  0  0
    6.5013   20.4988   29.6199 O   0  0  0  0  0  0  0  0  0  0  0  0
   11.3737   22.3478   33.1901 C   0  0  1  0  0  0  0  0  0  0  0  0
    7.7852   17.9932   30.1917 O   0  0  0  0  0  0  0  0  0  0  0  0
   10.3102   21.4986   33.8947 C   0  0  2  0  0  0  0  0  0  0  0  0
    8.6388   18.9102   38.4259 O   0  0  0  0  0  0  0  0  0  0  0  0
    8.5130   20.0170   33.2876 C   0  0  1  0  0  0  0  0  0  0  0  0
   10.1470   16.5771   38.2496 O   0  0  0  0  0  0  0  0  0  0  0  0
    7.0387   21.2930   31.8538 C   0  0  2  0  0  0  0  0  0  0  0  0
    5.8011   22.1922   31.9051 C   0  0  0  0  0  0  0  0  0  0  0  0
    6.7757   20.0764   30.9592 C   0  0  2  0  0  0  0  0  0  0  0  0
    8.0127   19.1758   30.9653 C   0  0  1  0  0  0  0  0  0  0  0  0
    8.3607   18.7768   32.4012 C   0  0  1  0  0  0  0  0  0  0  0  0
    8.8290   18.3023   37.1446 C   0  0  2  0  0  0  0  0  0  0  0  0
    9.1492   16.8127   37.2527 C   0  0  1  0  0  0  0  0  0  0  0  0
  3  1  1  0  0  0  0
  4  1  1  6  0  0  0
  4  6  1  0  0  0  0
  4 31  1  0  0  0  0
  6  7  1  0  0  0  0
  7  9  1  6  0  0  0
  7 30  1  0  0  0  0
 10  9  1  1  0  0  0
 10 13  1  0  0  0  0
 10 21  1  0  0  0  0
 13 12  1  1  0  0  0
 13 15  1  0  0  0  0
 15  2  1  1  0  0  0
 15 17  1  0  0  0  0
 16 25  1  0  0  0  0
 17 19  1  0  0  0  0
 19  5  1  6  0  0  0
 19 21  1  0  0  0  0
 21 14  1  6  0  0  0
 23 14  1  6  0  0  0
 23 16  1  0  0  0  0
 23 29  1  0  0  0  0
 25 26  1  1  0  0  0
 25 27  1  0  0  0  0
 26  8  1  0  0  0  0
 27 18  1  6  0  0  0
 27 28  1  0  0  0  0
 28 20  1  6  0  0  0
 28 29  1  0  0  0  0
 29 11  1  6  0  0  0
 30 22  1  1  0  0  0
 30 31  1  0  0  0  0
 31 24  1  1  0  0  0
M  END
>  <CHROM.1>
177.33527555,-62.64298679,-84.68897698,64.16937268,87.10017290,70.52792345
9.36641743,19.82757086,34.19590300,0.89712881,0.76970624,2.49480080

>  <Name>
2fcz_lig

>  <RI>
3.41297e+07

>  <Rbt.Current_Directory>
/home/itssahil/PROJECTS/Mol_Feturizer/New_Systems/rnas/2fcz

>  <Rbt.Executable>
rbdock ($Id: //depot/dev/client3/rdock/2013.1/src/exe/rbdock.cxx#4 $)

>  <Rbt.Library>
libRbt.so (2013.1, Build901 2013/11/27)

>  <Rbt.Parameter_File>
/export/apps/rDock/src/rDock_2013.1_src/data/scripts/dock_solv.prm

>  <Rbt.Receptor>
prm/pocket_docking_2.prm

>  <SCORE>
-21.2023

>  <SCORE.INTER>
-19.0013

>  <SCORE.INTER.CONST>
1

>  <SCORE.INTER.POLAR>
-1.79773

>  <SCORE.INTER.ROT>
6

>  <SCORE.INTER.SOLV>
18.7347

>  <SCORE.INTER.VDW>
-20.52

>  <SCORE.INTER.norm>
-0.612944

>  <SCORE.INTRA>
-2.20162

>  <SCORE.INTRA.DIHEDRAL>
-4.49538

>  <SCORE.INTRA.DIHEDRAL.0>
10.8409

>  <SCORE.INTRA.POLAR>
0

>  <SCORE.INTRA.POLAR.0>
0

>  <SCORE.INTRA.REPUL>
0

>  <SCORE.INTRA.REPUL.0>
0

>  <SCORE.INTRA.SOLV>
-1.43168

>  <SCORE.INTRA.SOLV.lig_0>
-80.8302

>  <SCORE.INTRA.VDW>
0.761912

>  <SCORE.INTRA.VDW.0>
-4.23953

>  <SCORE.INTRA.norm>
-0.07102

>  <SCORE.RESTR>
0.000613225

>  <SCORE.RESTR.CAVITY>
0.000613225

>  <SCORE.RESTR.norm>
1.97814e-05

>  <SCORE.SYSTEM>
0

>  <SCORE.SYSTEM.CONST>
0

>  <SCORE.SYSTEM.DIHEDRAL>
0

>  <SCORE.SYSTEM.SOLV>
0

>  <SCORE.SYSTEM.norm>
0

>  <SCORE.heavy>
31

>  <SCORE.norm>
-0.683944

>  <RMSD>
0.737

$$$$
2fcz_lig
 OpenBabel11021811433D
libRbt.so/2013.1/901 2013/11/27
 31 33  0  0  0  0  0  0  0  0999 V2000
    8.5020   16.2594   34.8537 C   0  0  0  0  0  0  0  0  0  0  0  0
   13.7607   22.8902   36.0435 N   0  0  0  0  0  0  0  0  0  0  0  0
    7.8048   15.0815   35.2684 O   0  0  0  0  0  0  0  0  0  0  0  0
    9.6370   16.5595   35.8387 C   0  0  1  0  0  0  0  0  0  0  0  0
   10.7966   23.1507   32.1585 N   0  0  0  0  0  0  0  0  0  0  0  0
   10.3625   17.7498   35.4695 O   0  0  0  0  0  0  0  0  0  0  0  0
   10.0549   18.8099   36.3965 C   0  0  1  0  0  0  0  0  0  0  0  0
    6.2492   23.4182   32.4651 N   0  0  0  0  0  0  0  0  0  0  0  0
    9.7890   20.0605   35.7389 O   0  0  0  0  0  0  0  0  0  0  0  0
   10.8995   20.5818   34.9893 C   0  0  2  0  0  0  0  0  0  0  0  0
    9.6652   17.8795   32.3255 N   0  0  0  0  0  0  0  0  0  0  0  0
   12.3680   20.5827   36.9121 O   0  0  0  0  0  0  0  0  0  0  0  0
   11.7817   21.4259   35.9175 C   0  0  1  0  0  0  0  0  0  0  0  0
    9.7616   20.6096   32.8057 O   0  0  0  0  0  0  0  0  0  0  0  0
   12.8992   22.1204   35.1356 C   0  0  1  0  0  0  0  0  0  0  0  0
    7.4329   20.7409   33.1702 O   0  0  0  0  0  0  0  0  0  0  0  0
   12.3012   23.0551   34.0819 C   0  0  0  0  0  0  0  0  0  0  0  0
    6.5398   20.4259   29.6106 O   0  0  0  0  0  0  0  0  0  0  0  0
   11.4497   22.2368   33.1091 C   0  0  1  0  0  0  0  0  0  0  0  0
    7.8137   17.9064   30.1424 O   0  0  0  0  0  0  0  0  0  0  0  0
   10.3706   21.4174   33.8253 C   0  0  2  0  0  0  0  0  0  0  0  0
    8.6061   18.9451   38.3959 O   0  0  0  0  0  0  0  0  0  0  0  0
    8.5968   19.8968   33.2466 C   0  0  1  0  0  0  0  0  0  0  0  0
   10.0656   16.5794   38.2456 O   0  0  0  0  0  0  0  0  0  0  0  0
    7.1125   21.1959   31.8442 C   0  0  2  0  0  0  0  0  0  0  0  0
    5.8820   22.1031   31.9201 C   0  0  0  0  0  0  0  0  0  0  0  0
    6.8291   19.9894   30.9422 C   0  0  2  0  0  0  0  0  0  0  0  0
    8.0598   19.0802   30.9236 C   0  0  1  0  0  0  0  0  0  0  0  0
    8.4240   18.6658   32.3510 C   0  0  1  0  0  0  0  0  0  0  0  0
    8.7963   18.3273   37.1194 C   0  0  2  0  0  0  0  0  0  0  0  0
    9.0834   16.8317   37.2373 C   0  0  1  0  0  0  0  0  0  0  0  0
  3  1  1  0  0  0  0
  4  1  1  6  0  0  0
  4  6  1  0  0  0  0
  4 31  1  0  0  0  0
  6  7  1  0  0  0  0
  7  9  1  6  0  0  0
  7 30  1  0  0  0  0
 10  9  1  1  0  0  0
 10 13  1  0  0  0  0
 10 21  1  0  0  0  0
 13 12  1  1  0  0  0
 13 15  1  0  0  0  0
 15  2  1  1  0  0  0
 15 17  1  0  0  0  0
 16 25  1  0  0  0  0
 17 19  1  0  0  0  0
 19  5  1  6  0  0  0
 19 21  1  0  0  0  0
 21 14  1  6  0  0  0
 23 14  1  6  0  0  0
 23 16  1  0  0  0  0
 23 29  1  0  0  0  0
 25 26  1  1  0  0  0
 25 27  1  0  0  0  0
 26  8  1  0  0  0  0
 27 18  1  6  0  0  0
 27 28  1  0  0  0  0
 28 20  1  6  0  0  0
 28 29  1  0  0  0  0
 29 11  1  6  0  0  0
 30 22  1  1  0  0  0
 30 31  1  0  0  0  0
 31 24  1  1  0  0  0
M  END
>  <CHROM.1>
-179.39499266,-62.24877640,-87.37945731,63.37441337,83.92362187,75.25121435
9.38830842,19.78276633,34.16217981,0.90389688,0.77229366,2.45123538

>  <Name>
2fcz_lig

>  <RI>
2.29611e+07

>  <Rbt.Current_Directory>
/home/itssahil/PROJECTS/Mol_Feturizer/New_Systems/rnas/2fcz

>  <Rbt.Executable>
rbdock ($Id: //depot/dev/client3/rdock/2013.1/src/exe/rbdock.cxx#4 $)

>  <Rbt.Library>
libRbt.so (2013.1, Build901 2013/11/27)

>  <Rbt.Parameter_File>
/export/apps/rDock/src/rDock_2013.1_src/data/scripts/dock_solv.prm

>  <Rbt.Receptor>
prm/pocket_docking_3.prm

>  <SCORE>
-21.2859

>  <SCORE.INTER>
-19.128

>  <SCORE.INTER.CONST>
1

>  <SCORE.INTER.POLAR>
-1.77932

>  <SCORE.INTER.ROT>
6

>  <SCORE.INTER.SOLV>
17.9733

>  <SCORE.INTER.VDW>
-20.412

>  <SCORE.INTER.norm>
-0.617034

>  <SCORE.INTRA>
-2.15789

>  <SCORE.INTRA.DIHEDRAL>
-4.23478

>  <SCORE.INTRA.DIHEDRAL.0>
10.8409

>  <SCORE.INTRA.POLAR>
0

>  <SCORE.INTRA.POLAR.0>
0

>  <SCORE.INTRA.REPUL>
0

>  <SCORE.INTRA.REPUL.0>
0

>  <SCORE.INTRA.SOLV>
-1.59733

>  <SCORE.INTRA.SOLV.lig_0>
-80.8302

>  <SCORE.INTRA.VDW>
0.758159

>  <SCORE.INTRA.VDW.0>
-4.23953

>  <SCORE.INTRA.norm>
-0.0696095

>  <SCORE.RESTR>
0

>  <SCORE.RESTR.CAVITY>
0

>  <SCORE.RESTR.norm>
0

>  <SCORE.SYSTEM>
0

>  <SCORE.SYSTEM.CONST>
0

>  <SCORE.SYSTEM.DIHEDRAL>
0

>  <SCORE.SYSTEM.SOLV>
0

>  <SCORE.SYSTEM.norm>
0

>  <SCORE.heavy>
31

>  <SCORE.norm>
-0.686643

>  <RMSD>
0.740

$$$$
2fcz_lig
 OpenBabel11021811433D
libRbt.so/2013.1/901 2013/11/27
 31 33  0  0  0  0  0  0  0  0999 V2000
    8.4467   16.3321   34.8034 C   0  0  0  0  0  0  0  0  0  0  0  0
   13.7877   22.8478   36.0750 N   0  0  0  0  0  0  0  0  0  0  0  0
    7.7623   15.1400   35.1982 O   0  0  0  0  0  0  0  0  0  0  0  0
    9.5949   16.6136   35.7785 C   0  0  1  0  0  0  0  0  0  0  0  0
   10.7351   23.3537   32.2838 N   0  0  0  0  0  0  0  0  0  0  0  0
   10.3173   17.8093   35.4207 O   0  0  0  0  0  0  0  0  0  0  0  0
   10.0234   18.8534   36.3699 C   0  0  1  0  0  0  0  0  0  0  0  0
    6.1110   23.5458   32.4792 N   0  0  0  0  0  0  0  0  0  0  0  0
    9.7508   20.1156   35.7377 O   0  0  0  0  0  0  0  0  0  0  0  0
   10.8533   20.6501   34.9856 C   0  0  2  0  0  0  0  0  0  0  0  0
    9.5989   18.0672   32.3996 N   0  0  0  0  0  0  0  0  0  0  0  0
   12.3683   20.5294   36.8682 O   0  0  0  0  0  0  0  0  0  0  0  0
   11.7756   21.4309   35.9301 C   0  0  1  0  0  0  0  0  0  0  0  0
    9.6629   20.8056   32.8356 O   0  0  0  0  0  0  0  0  0  0  0  0
   12.8880   22.1398   35.1539 C   0  0  1  0  0  0  0  0  0  0  0  0
    7.3287   20.9199   33.1687 O   0  0  0  0  0  0  0  0  0  0  0  0
   12.2841   23.1358   34.1614 C   0  0  0  0  0  0  0  0  0  0  0  0
    6.4839   20.5376   29.6039 O   0  0  0  0  0  0  0  0  0  0  0  0
   11.3919   22.3823   33.1729 C   0  0  1  0  0  0  0  0  0  0  0  0
    7.7752   18.0400   30.1933 O   0  0  0  0  0  0  0  0  0  0  0  0
   10.3137   21.5511   33.8766 C   0  0  2  0  0  0  0  0  0  0  0  0
    8.6009   18.9556   38.3901 O   0  0  0  0  0  0  0  0  0  0  0  0
    8.4996   20.0886   33.2736 C   0  0  1  0  0  0  0  0  0  0  0  0
   10.0549   16.5910   38.1796 O   0  0  0  0  0  0  0  0  0  0  0  0
    7.0207   21.3498   31.8314 C   0  0  2  0  0  0  0  0  0  0  0  0
    5.7807   22.2460   31.8769 C   0  0  0  0  0  0  0  0  0  0  0  0
    6.7604   20.1259   30.9461 C   0  0  2  0  0  0  0  0  0  0  0  0
    8.0000   19.2288   30.9579 C   0  0  1  0  0  0  0  0  0  0  0  0
    8.3500   18.8415   32.3965 C   0  0  1  0  0  0  0  0  0  0  0  0
    8.7736   18.3599   37.1006 C   0  0  2  0  0  0  0  0  0  0  0  0
    9.0600   16.8620   37.1888 C   0  0  1  0  0  0  0  0  0  0  0  0
  3  1  1  0  0  0  0
  4  1  1  6  0  0  0
  4  6  1  0  0  0  0
  4 31  1  0  0  0  0
  6  7  1  0  0  0  0
  7  9  1  6  0  0  0
  7 30  1  0  0  0  0
 10  9  1  1  0  0  0
 10 13  1  0  0  0  0
 10 21  1  0  0  0  0
 13 12  1  1  0  0  0
 13 15  1  0  0  0  0
 15  2  1  1  0  0  0
 15 17  1  0  0  0  0
 16 25  1  0  0  0  0
 17 19  1  0  0  0  0
 19  5  1  6  0  0  0
 19 21  1  0  0  0  0
 21 14  1  6  0  0  0
 23 14  1  6  0  0  0
 23 16  1  0  0  0  0
 23 29  1  0  0  0  0
 25 26  1  1  0  0  0
 25 27  1  0  0  0  0
 26  8  1  0  0  0  0
 27 18  1  6  0  0  0
 27 28  1  0  0  0  0
 28 20  1  6  0  0  0
 28 29  1  0  0  0  0
 29 11  1  6  0  0  0
 30 22  1  1  0  0  0
 30 31  1  0  0  0  0
 31 24  1  1  0  0  0
M  END
>  <CHROM.1>
179.97943404,-62.39729925,-85.15041965,62.98698436,88.67830500,71.86261422
9.33885519,19.87462745,34.16613925,0.89526154,0.75547617,2.48030071

>  <Name>
2fcz_lig

>  <RI>
3.41297e+07

>  <Rbt.Current_Directory>
/home/itssahil/PROJECTS/Mol_Feturizer/New_Systems/rnas/2fcz

>  <Rbt.Executable>
rbdock ($Id: //depot/dev/client3/rdock/2013.1/src/exe/rbdock.cxx#4 $)

>  <Rbt.Library>
libRbt.so (2013.1, Build901 2013/11/27)

>  <Rbt.Parameter_File>
/export/apps/rDock/src/rDock_2013.1_src/data/scripts/dock_solv.prm

>  <Rbt.Receptor>
prm/pocket_docking_2.prm

>  <SCORE>
-21.1226

>  <SCORE.INTER>
-19.2339

>  <SCORE.INTER.CONST>
1

>  <SCORE.INTER.POLAR>
-1.77363

>  <SCORE.INTER.ROT>
6

>  <SCORE.INTER.SOLV>
18.4842

>  <SCORE.INTER.VDW>
-20.672

>  <SCORE.INTER.norm>
-0.62045

>  <SCORE.INTRA>
-1.88912

>  <SCORE.INTRA.DIHEDRAL>
-4.08431

>  <SCORE.INTRA.DIHEDRAL.0>
10.8409

>  <SCORE.INTRA.POLAR>
0

>  <SCORE.INTRA.POLAR.0>
0

>  <SCORE.INTRA.REPUL>
0

>  <SCORE.INTRA.REPUL.0>
0

>  <SCORE.INTRA.SOLV>
-1.30729

>  <SCORE.INTRA.SOLV.lig_0>
-80.8302

>  <SCORE.INTRA.VDW>
0.806676

>  <SCORE.INTRA.VDW.0>
-4.23953

>  <SCORE.INTRA.norm>
-0.0609395

>  <SCORE.RESTR>
0.000429063

>  <SCORE.RESTR.CAVITY>
0.000429063

>  <SCORE.RESTR.norm>
1.38407e-05

>  <SCORE.SYSTEM>
0

>  <SCORE.SYSTEM.CONST>
0

>  <SCORE.SYSTEM.DIHEDRAL>
0

>  <SCORE.SYSTEM.SOLV>
0

>  <SCORE.SYSTEM.norm>
0

>  <SCORE.heavy>
31

>  <SCORE.norm>
-0.681375

>  <RMSD>
0.751

$$$$
2fcz_lig
 OpenBabel11021811433D
libRbt.so/2013.1/901 2013/11/27
 31 33  0  0  0  0  0  0  0  0999 V2000
    8.4905   16.2401   34.8625 C   0  0  0  0  0  0  0  0  0  0  0  0
   13.7189   22.8819   36.0907 N   0  0  0  0  0  0  0  0  0  0  0  0
    7.8388   15.0336   35.2688 O   0  0  0  0  0  0  0  0  0  0  0  0
    9.6405   16.5537   35.8257 C   0  0  1  0  0  0  0  0  0  0  0  0
   10.7111   23.2821   32.2514 N   0  0  0  0  0  0  0  0  0  0  0  0
   10.3448   17.7523   35.4428 O   0  0  0  0  0  0  0  0  0  0  0  0
   10.0425   18.8089   36.3755 C   0  0  1  0  0  0  0  0  0  0  0  0
    6.1745   23.5299   32.5698 N   0  0  0  0  0  0  0  0  0  0  0  0
    9.7495   20.0562   35.7231 O   0  0  0  0  0  0  0  0  0  0  0  0
   10.8506   20.6081   34.9815 C   0  0  2  0  0  0  0  0  0  0  0  0
    9.5890   17.9999   32.2594 N   0  0  0  0  0  0  0  0  0  0  0  0
   12.3405   20.5398   36.8867 O   0  0  0  0  0  0  0  0  0  0  0  0
   11.7414   21.4186   35.9312 C   0  0  1  0  0  0  0  0  0  0  0  0
    9.6884   20.7159   32.8133 O   0  0  0  0  0  0  0  0  0  0  0  0
   12.8487   22.1448   35.1639 C   0  0  1  0  0  0  0  0  0  0  0  0
    7.3606   20.8387   33.1866 O   0  0  0  0  0  0  0  0  0  0  0  0
   12.2372   23.1173   34.1530 C   0  0  0  0  0  0  0  0  0  0  0  0
    6.4592   20.6210   29.6217 O   0  0  0  0  0  0  0  0  0  0  0  0
   11.3765   22.3344   33.1594 C   0  0  1  0  0  0  0  0  0  0  0  0
    7.7326   18.0872   30.0820 O   0  0  0  0  0  0  0  0  0  0  0  0
   10.3071   21.4859   33.8559 C   0  0  2  0  0  0  0  0  0  0  0  0
    8.6306   18.9276   38.4021 O   0  0  0  0  0  0  0  0  0  0  0  0
    8.5241   19.9920   33.2373 C   0  0  1  0  0  0  0  0  0  0  0  0
   10.1146   16.5791   38.2240 O   0  0  0  0  0  0  0  0  0  0  0  0
    7.0375   21.3297   31.8741 C   0  0  2  0  0  0  0  0  0  0  0  0
    5.8078   22.2353   31.9774 C   0  0  0  0  0  0  0  0  0  0  0  0
    6.7512   20.1483   30.9403 C   0  0  2  0  0  0  0  0  0  0  0  0
    7.9812   19.2392   30.8942 C   0  0  1  0  0  0  0  0  0  0  0  0
    8.3484   18.7860   32.3091 C   0  0  1  0  0  0  0  0  0  0  0  0
    8.8036   18.3118   37.1221 C   0  0  2  0  0  0  0  0  0  0  0  0
    9.1105   16.8196   37.2346 C   0  0  1  0  0  0  0  0  0  0  0  0
  3  1  1  0  0  0  0
  4  1  1  6  0  0  0
  4  6  1  0  0  0  0
  4 31  1  0  0  0  0
  6  7  1  0  0  0  0
  7  9  1  6  0  0  0
  7 30  1  0  0  0  0
 10  9  1  1  0  0  0
 10 13  1  0  0  0  0
 10 21  1  0  0  0  0
 13 12  1  1  0  0  0
 13 15  1  0  0  0  0
 15  2  1  1  0  0  0
 15 17  1  0  0  0  0
 16 25  1  0  0  0  0
 17 19  1  0  0  0  0
 19  5  1  6  0  0  0
 19 21  1  0  0  0  0
 21 14  1  6  0  0  0
 23 14  1  6  0  0  0
 23 16  1  0  0  0  0
 23 29  1  0  0  0  0
 25 26  1  1  0  0  0
 25 27  1  0  0  0  0
 26  8  1  0  0  0  0
 27 18  1  6  0  0  0
 27 28  1  0  0  0  0
 28 20  1  6  0  0  0
 28 29  1  0  0  0  0
 29 11  1  6  0  0  0
 30 22  1  1  0  0  0
 30 31  1  0  0  0  0
 31 24  1  1  0  0  0
M  END
>  <CHROM.1>
178.98523079,-63.81680816,-84.94899866,63.81912288,84.44566809,74.67479704
9.34571590,19.84160090,34.16913823,0.91854599,0.76831245,2.48598766

>  <Name>
2fcz_lig

>  <RI>
2.29611e+07

>  <Rbt.Current_Directory>
/home/itssahil/PROJECTS/Mol_Feturizer/New_Systems/rnas/2fcz

>  <Rbt.Executable>
rbdock ($Id: //depot/dev/client3/rdock/2013.1/src/exe/rbdock.cxx#4 $)

>  <Rbt.Library>
libRbt.so (2013.1, Build901 2013/11/27)

>  <Rbt.Parameter_File>
/export/apps/rDock/src/rDock_2013.1_src/data/scripts/dock_solv.prm

>  <Rbt.Receptor>
prm/pocket_docking_3.prm

>  <SCORE>
-21.2723

>  <SCORE.INTER>
-18.9347

>  <SCORE.INTER.CONST>
1

>  <SCORE.INTER.POLAR>
-1.79619

>  <SCORE.INTER.ROT>
6

>  <SCORE.INTER.SOLV>
18.9135

>  <SCORE.INTER.VDW>
-20.5404

>  <SCORE.INTER.norm>
-0.610798

>  <SCORE.INTRA>
-2.33758

>  <SCORE.INTRA.DIHEDRAL>
-4.58241

>  <SCORE.INTRA.DIHEDRAL.0>
10.8409

>  <SCORE.INTRA.POLAR>
0

>  <SCORE.INTRA.POLAR.0>
0

>  <SCORE.INTRA.REPUL>
0

>  <SCORE.INTRA.REPUL.0>
0

>  <SCORE.INTRA.SOLV>
-1.74962

>  <SCORE.INTRA.SOLV.lig_0>
-80.8302

>  <SCORE.INTRA.VDW>
0.828436

>  <SCORE.INTRA.VDW.0>
-4.23953

>  <SCORE.INTRA.norm>
-0.0754057

>  <SCORE.RESTR>
0

>  <SCORE.RESTR.CAVITY>
0

>  <SCORE.RESTR.norm>
0

>  <SCORE.SYSTEM>
0

>  <SCORE.SYSTEM.CONST>
0

>  <SCORE.SYSTEM.DIHEDRAL>
0

>  <SCORE.SYSTEM.SOLV>
0

>  <SCORE.SYSTEM.norm>
0

>  <SCORE.heavy>
31

>  <SCORE.norm>
-0.686204

>  <RMSD>
0.759

$$$$
2fcz_lig
 OpenBabel11021811433D
libRbt.so/2013.1/901 2013/11/27
 31 33  0  0  0  0  0  0  0  0999 V2000
    8.8482   16.0905   35.1049 C   0  0  0  0  0  0  0  0  0  0  0  0
   13.8004   22.9087   36.1270 N   0  0  0  0  0  0  0  0  0  0  0  0
    7.8779   17.1354   34.9950 O   0  0  0  0  0  0  0  0  0  0  0  0
    9.9451   16.5080   36.0903 C   0  0  1  0  0  0  0  0  0  0  0  0
   10.7901   23.1687   32.2776 N   0  0  0  0  0  0  0  0  0  0  0  0
   10.6029   17.7216   35.6731 O   0  0  0  0  0  0  0  0  0  0  0  0
   10.2145   18.8045   36.5416 C   0  0  1  0  0  0  0  0  0  0  0  0
    5.7363   23.3188   31.4637 N   0  0  0  0  0  0  0  0  0  0  0  0
    9.8843   20.0027   35.8187 O   0  0  0  0  0  0  0  0  0  0  0  0
   10.9759   20.5585   35.0660 C   0  0  2  0  0  0  0  0  0  0  0  0
    9.5018   17.9837   32.0199 N   0  0  0  0  0  0  0  0  0  0  0  0
   12.4646   20.5595   36.9733 O   0  0  0  0  0  0  0  0  0  0  0  0
   11.8504   21.4060   35.9983 C   0  0  1  0  0  0  0  0  0  0  0  0
    9.8143   20.5971   32.8951 O   0  0  0  0  0  0  0  0  0  0  0  0
   12.9451   22.1355   35.2161 C   0  0  1  0  0  0  0  0  0  0  0  0
    7.5358   20.7915   33.4811 O   0  0  0  0  0  0  0  0  0  0  0  0
   12.3168   23.0741   34.1835 C   0  0  0  0  0  0  0  0  0  0  0  0
    6.3423   21.0811   30.0084 O   0  0  0  0  0  0  0  0  0  0  0  0
   11.4719   22.2537   33.2068 C   0  0  1  0  0  0  0  0  0  0  0  0
    7.4874   18.4465   30.0393 O   0  0  0  0  0  0  0  0  0  0  0  0
   10.4175   21.4011   33.9210 C   0  0  2  0  0  0  0  0  0  0  0  0
    8.7249   18.9470   38.5102 O   0  0  0  0  0  0  0  0  0  0  0  0
    8.6445   19.8861   33.3255 C   0  0  1  0  0  0  0  0  0  0  0  0
   10.3289   16.6718   38.4993 O   0  0  0  0  0  0  0  0  0  0  0  0
    7.1408   21.4633   32.2725 C   0  0  2  0  0  0  0  0  0  0  0  0
    5.9821   22.4107   32.5934 C   0  0  0  0  0  0  0  0  0  0  0  0
    6.7080   20.4283   31.2280 C   0  0  2  0  0  0  0  0  0  0  0  0
    7.8712   19.4701   30.9633 C   0  0  1  0  0  0  0  0  0  0  0  0
    8.3206   18.8202   32.2739 C   0  0  1  0  0  0  0  0  0  0  0  0
    8.9752   18.2806   37.2689 C   0  0  2  0  0  0  0  0  0  0  0  0
    9.3512   16.8132   37.4654 C   0  0  1  0  0  0  0  0  0  0  0  0
  3  1  1  0  0  0  0
  4  1  1  6  0  0  0
  4  6  1  0  0  0  0
  4 31  1  0  0  0  0
  6  7  1  0  0  0  0
  7  9  1  6  0  0  0
  7 30  1  0  0  0  0
 10  9  1  1  0  0  0
 10 13  1  0  0  0  0
 10 21  1  0  0  0  0
 13 12  1  1  0  0  0
 13 15  1  0  0  0  0
 15  2  1  1  0  0  0
 15 17  1  0  0  0  0
 16 25  1  0  0  0  0
 17 19  1  0  0  0  0
 19  5  1  6  0  0  0
 19 21  1  0  0  0  0
 21 14  1  6  0  0  0
 23 14  1  6  0  0  0
 23 16  1  0  0  0  0
 23 29  1  0  0  0  0
 25 26  1  1  0  0  0
 25 27  1  0  0  0  0
 26  8  1  0  0  0  0
 27 18  1  6  0  0  0
 27 28  1  0  0  0  0
 28 20  1  6  0  0  0
 28 29  1  0  0  0  0
 29 11  1  6  0  0  0
 30 22  1  1  0  0  0
 30 31  1  0  0  0  0
 31 24  1  1  0  0  0
M  END
>  <CHROM.1>
-58.91096886,-62.55161602,-82.59293184,65.22664191,73.23289459,168.03497004
9.42619883,19.94023571,34.25892760,0.86452037,0.70650322,2.46058644

>  <Name>
2fcz_lig

>  <RI>
2.29611e+07

>  <Rbt.Current_Directory>
/home/itssahil/PROJECTS/Mol_Feturizer/New_Systems/rnas/2fcz

>  <Rbt.Executable>
rbdock ($Id: //depot/dev/client3/rdock/2013.1/src/exe/rbdock.cxx#4 $)

>  <Rbt.Library>
libRbt.so (2013.1, Build901 2013/11/27)

>  <Rbt.Parameter_File>
/export/apps/rDock/src/rDock_2013.1_src/data/scripts/dock_solv.prm

>  <Rbt.Receptor>
prm/pocket_docking_3.prm

>  <SCORE>
-21.3635

>  <SCORE.INTER>
-18.8038

>  <SCORE.INTER.CONST>
1

>  <SCORE.INTER.POLAR>
-1.82147

>  <SCORE.INTER.ROT>
6

>  <SCORE.INTER.SOLV>
17.0859

>  <SCORE.INTER.VDW>
-19.7596

>  <SCORE.INTER.norm>
-0.606573

>  <SCORE.INTRA>
-2.55973

>  <SCORE.INTRA.DIHEDRAL>
-6.95299

>  <SCORE.INTRA.DIHEDRAL.0>
10.8409

>  <SCORE.INTRA.POLAR>
0

>  <SCORE.INTRA.POLAR.0>
0

>  <SCORE.INTRA.REPUL>
0

>  <SCORE.INTRA.REPUL.0>
0

>  <SCORE.INTRA.SOLV>
-0.381155

>  <SCORE.INTRA.SOLV.lig_0>
-80.8302

>  <SCORE.INTRA.VDW>
1.10734

>  <SCORE.INTRA.VDW.0>
-4.23953

>  <SCORE.INTRA.norm>
-0.0825719

>  <SCORE.RESTR>
0

>  <SCORE.RESTR.CAVITY>
0

>  <SCORE.RESTR.norm>
0

>  <SCORE.SYSTEM>
0

>  <SCORE.SYSTEM.CONST>
0

>  <SCORE.SYSTEM.DIHEDRAL>
0

>  <SCORE.SYSTEM.SOLV>
0

>  <SCORE.SYSTEM.norm>
0

>  <SCORE.heavy>
31

>  <SCORE.norm>
-0.689145

>  <RMSD>
0.779

$$$$
2fcz_lig
 OpenBabel11021811433D
libRbt.so/2013.1/901 2013/11/27
 31 33  0  0  0  0  0  0  0  0999 V2000
    8.8288   15.9985   35.2049 C   0  0  0  0  0  0  0  0  0  0  0  0
   14.1584   22.4394   36.1375 N   0  0  0  0  0  0  0  0  0  0  0  0
    7.9855   17.1204   34.9298 O   0  0  0  0  0  0  0  0  0  0  0  0
    9.8946   16.3952   36.2321 C   0  0  1  0  0  0  0  0  0  0  0  0
   11.1722   22.9183   32.2904 N   0  0  0  0  0  0  0  0  0  0  0  0
   10.6259   17.5665   35.8163 O   0  0  0  0  0  0  0  0  0  0  0  0
   10.2455   18.6895   36.6360 C   0  0  1  0  0  0  0  0  0  0  0  0
    5.4230   22.7128   32.6081 N   0  0  0  0  0  0  0  0  0  0  0  0
   10.0049   19.8801   35.8667 O   0  0  0  0  0  0  0  0  0  0  0  0
   11.1386   20.3313   35.1063 C   0  0  2  0  0  0  0  0  0  0  0  0
    9.0940   17.9387   32.1520 N   0  0  0  0  0  0  0  0  0  0  0  0
   12.6266   20.2238   37.0111 O   0  0  0  0  0  0  0  0  0  0  0  0
   12.0855   21.1098   36.0281 C   0  0  1  0  0  0  0  0  0  0  0  0
    9.9792   20.4474   32.9369 O   0  0  0  0  0  0  0  0  0  0  0  0
   13.2372   21.7336   35.2363 C   0  0  1  0  0  0  0  0  0  0  0  0
    7.7819   21.2368   33.2855 O   0  0  0  0  0  0  0  0  0  0  0  0
   12.6899   22.7120   34.1947 C   0  0  0  0  0  0  0  0  0  0  0  0
    6.9982   21.5760   29.7024 O   0  0  0  0  0  0  0  0  0  0  0  0
   11.7747   21.9576   33.2282 C   0  0  1  0  0  0  0  0  0  0  0  0
    7.4363   18.7488   29.9633 O   0  0  0  0  0  0  0  0  0  0  0  0
   10.6523   21.2070   33.9532 C   0  0  2  0  0  0  0  0  0  0  0  0
    8.6707   18.9527   38.5243 O   0  0  0  0  0  0  0  0  0  0  0  0
    8.6360   20.0776   33.2807 C   0  0  1  0  0  0  0  0  0  0  0  0
   10.1689   16.6100   38.6520 O   0  0  0  0  0  0  0  0  0  0  0  0
    7.6726   21.9018   32.0152 C   0  0  2  0  0  0  0  0  0  0  0  0
    6.7669   23.1251   32.1776 C   0  0  0  0  0  0  0  0  0  0  0  0
    7.0831   20.9372   30.9800 C   0  0  2  0  0  0  0  0  0  0  0  0
    7.9858   19.7062   30.8743 C   0  0  1  0  0  0  0  0  0  0  0  0
    8.1444   19.0558   32.2505 C   0  0  1  0  0  0  0  0  0  0  0  0
    8.9501   18.2412   37.3147 C   0  0  2  0  0  0  0  0  0  0  0  0
    9.2495   16.7649   37.5677 C   0  0  1  0  0  0  0  0  0  0  0  0
  3  1  1  0  0  0  0
  4  1  1  6  0  0  0
  4  6  1  0  0  0  0
  4 31  1  0  0  0  0
  6  7  1  0  0  0  0
  7  9  1  6  0  0  0
  7 30  1  0  0  0  0
 10  9  1  1  0  0  0
 10 13  1  0  0  0  0
 10 21  1  0  0  0  0
 13 12  1  1  0  0  0
 13 15  1  0  0  0  0
 15  2  1  1  0  0  0
 15 17  1  0  0  0  0
 16 25  1  0  0  0  0
 17 19  1  0  0  0  0
 19  5  1  6  0  0  0
 19 21  1  0  0  0  0
 21 14  1  6  0  0  0
 23 14  1  6  0  0  0
 23 16  1  0  0  0  0
 23 29  1  0  0  0  0
 25 26  1  1  0  0  0
 25 27  1  0  0  0  0
 26  8  1  0  0  0  0
 27 18  1  6  0  0  0
 27 28  1  0  0  0  0
 28 20  1  6  0  0  0
 28 29  1  0  0  0  0
 29 11  1  6  0  0  0
 30 22  1  1  0  0  0
 30 31  1  0  0  0  0
 31 24  1  1  0  0  0
M  END
>  <CHROM.1>
-53.72004383,-59.85153425,-80.67781230,77.38358439,70.10611893,-61.00503368
9.56390525,19.91619824,34.27914573,0.99507953,0.64432344,2.39348517

>  <Name>
2fcz_lig

>  <RI>
3.41297e+07

>  <Rbt.Current_Directory>
/home/itssahil/PROJECTS/Mol_Feturizer/New_Systems/rnas/2fcz

>  <Rbt.Executable>
rbdock ($Id: //depot/dev/client3/rdock/2013.1/src/exe/rbdock.cxx#4 $)

>  <Rbt.Library>
libRbt.so (2013.1, Build901 2013/11/27)

>  <Rbt.Parameter_File>
/export/apps/rDock/src/rDock_2013.1_src/data/scripts/dock_solv.prm

>  <Rbt.Receptor>
prm/pocket_docking_2.prm

>  <SCORE>
-16.2305

>  <SCORE.INTER>
-13.8409

>  <SCORE.INTER.CONST>
1

>  <SCORE.INTER.POLAR>
-1.80305

>  <SCORE.INTER.ROT>
6

>  <SCORE.INTER.SOLV>
17.4825

>  <SCORE.INTER.VDW>
-16.6446

>  <SCORE.INTER.norm>
-0.446482

>  <SCORE.INTRA>
-2.38972

>  <SCORE.INTRA.DIHEDRAL>
-6.77303

>  <SCORE.INTRA.DIHEDRAL.0>
10.8409

>  <SCORE.INTRA.POLAR>
0

>  <SCORE.INTRA.POLAR.0>
0

>  <SCORE.INTRA.REPUL>
0

>  <SCORE.INTRA.REPUL.0>
0

>  <SCORE.INTRA.SOLV>
0.700324

>  <SCORE.INTRA.SOLV.lig_0>
-80.8302

>  <SCORE.INTRA.VDW>
0.646629

>  <SCORE.INTRA.VDW.0>
-4.23953

>  <SCORE.INTRA.norm>
-0.0770878

>  <SCORE.RESTR>
0.00011119

>  <SCORE.RESTR.CAVITY>
0.00011119

>  <SCORE.RESTR.norm>
3.58676e-06

>  <SCORE.SYSTEM>
0

>  <SCORE.SYSTEM.CONST>
0

>  <SCORE.SYSTEM.DIHEDRAL>
0

>  <SCORE.SYSTEM.SOLV>
0

>  <SCORE.SYSTEM.norm>
0

>  <SCORE.heavy>
31

>  <SCORE.norm>
-0.523566

>  <RMSD>
0.782

$$$$
2fcz_lig
 OpenBabel11021811433D
libRbt.so/2013.1/901 2013/11/27
 31 33  0  0  0  0  0  0  0  0999 V2000
    8.5195   16.3165   34.9050 C   0  0  0  0  0  0  0  0  0  0  0  0
   13.8009   22.9538   36.0374 N   0  0  0  0  0  0  0  0  0  0  0  0
    7.8678   15.0947   35.2626 O   0  0  0  0  0  0  0  0  0  0  0  0
    9.6559   16.6021   35.8927 C   0  0  1  0  0  0  0  0  0  0  0  0
   10.8406   23.0943   32.1433 N   0  0  0  0  0  0  0  0  0  0  0  0
   10.3928   17.7873   35.5295 O   0  0  0  0  0  0  0  0  0  0  0  0
   10.0935   18.8463   36.4605 C   0  0  1  0  0  0  0  0  0  0  0  0
    5.8324   22.9984   30.8442 N   0  0  0  0  0  0  0  0  0  0  0  0
    9.8399   20.1020   35.8078 O   0  0  0  0  0  0  0  0  0  0  0  0
   10.9495   20.6062   35.0451 C   0  0  2  0  0  0  0  0  0  0  0  0
    9.6234   17.8509   32.3401 N   0  0  0  0  0  0  0  0  0  0  0  0
   12.4156   20.6664   36.9688 O   0  0  0  0  0  0  0  0  0  0  0  0
   11.8274   21.4793   35.9503 C   0  0  1  0  0  0  0  0  0  0  0  0
    9.8141   20.5686   32.8603 O   0  0  0  0  0  0  0  0  0  0  0  0
   12.9433   22.1557   35.1505 C   0  0  1  0  0  0  0  0  0  0  0  0
    7.4976   20.7666   33.2692 O   0  0  0  0  0  0  0  0  0  0  0  0
   12.3432   23.0582   34.0703 C   0  0  0  0  0  0  0  0  0  0  0  0
    6.5320   20.5363   29.7221 O   0  0  0  0  0  0  0  0  0  0  0  0
   11.4959   22.2099   33.1199 C   0  0  1  0  0  0  0  0  0  0  0  0
    7.7352   17.9702   30.1918 O   0  0  0  0  0  0  0  0  0  0  0  0
   10.4189   21.4069   33.8575 C   0  0  2  0  0  0  0  0  0  0  0  0
    8.6432   18.9864   38.4585 O   0  0  0  0  0  0  0  0  0  0  0  0
    8.6355   19.8855   33.3113 C   0  0  1  0  0  0  0  0  0  0  0  0
   10.0813   16.6082   38.3003 O   0  0  0  0  0  0  0  0  0  0  0  0
    7.1681   21.2524   31.9564 C   0  0  2  0  0  0  0  0  0  0  0  0
    5.9683   22.1962   32.0687 C   0  0  0  0  0  0  0  0  0  0  0  0
    6.8309   20.0698   31.0413 C   0  0  2  0  0  0  0  0  0  0  0  0
    8.0319   19.1232   30.9863 C   0  0  1  0  0  0  0  0  0  0  0  0
    8.4082   18.6750   32.4003 C   0  0  1  0  0  0  0  0  0  0  0  0
    8.8296   18.3722   37.1796 C   0  0  2  0  0  0  0  0  0  0  0  0
    9.1029   16.8735   37.2918 C   0  0  1  0  0  0  0  0  0  0  0  0
  3  1  1  0  0  0  0
  4  1  1  6  0  0  0
  4  6  1  0  0  0  0
  4 31  1  0  0  0  0
  6  7  1  0  0  0  0
  7  9  1  6  0  0  0
  7 30  1  0  0  0  0
 10  9  1  1  0  0  0
 10 13  1  0  0  0  0
 10 21  1  0  0  0  0
 13 12  1  1  0  0  0
 13 15  1  0  0  0  0
 15  2  1  1  0  0  0
 15 17  1  0  0  0  0
 16 25  1  0  0  0  0
 17 19  1  0  0  0  0
 19  5  1  6  0  0  0
 19 21  1  0  0  0  0
 21 14  1  6  0  0  0
 23 14  1  6  0  0  0
 23 16  1  0  0  0  0
 23 29  1  0  0  0  0
 25 26  1  1  0  0  0
 25 27  1  0  0  0  0
 26  8  1  0  0  0  0
 27 18  1  6  0  0  0
 27 28  1  0  0  0  0
 28 20  1  6  0  0  0
 28 29  1  0  0  0  0
 29 11  1  6  0  0  0
 30 22  1  1  0  0  0
 30 31  1  0  0  0  0
 31 24  1  1  0  0  0
M  END
>  <CHROM.1>
176.75456777,-61.34464123,-89.55700993,64.59401147,80.22805150,164.15746728
9.40279513,19.80073343,34.16131988,0.88861698,0.75341120,2.43326462

>  <Name>
2fcz_lig

>  <RI>
3.41297e+07

>  <Rbt.Current_Directory>
/home/itssahil/PROJECTS/Mol_Feturizer/New_Systems/rnas/2fcz

>  <Rbt.Executable>
rbdock ($Id: //depot/dev/client3/rdock/2013.1/src/exe/rbdock.cxx#4 $)

>  <Rbt.Library>
libRbt.so (2013.1, Build901 2013/11/27)

>  <Rbt.Parameter_File>
/export/apps/rDock/src/rDock_2013.1_src/data/scripts/dock_solv.prm

>  <Rbt.Receptor>
prm/pocket_docking_2.prm

>  <SCORE>
-21.0617

>  <SCORE.INTER>
-19.3265

>  <SCORE.INTER.CONST>
1

>  <SCORE.INTER.POLAR>
-1.75639

>  <SCORE.INTER.ROT>
6

>  <SCORE.INTER.SOLV>
15.6268

>  <SCORE.INTER.VDW>
-19.8386

>  <SCORE.INTER.norm>
-0.623436

>  <SCORE.INTRA>
-1.79509

>  <SCORE.INTRA.DIHEDRAL>
-4.33779

>  <SCORE.INTRA.DIHEDRAL.0>
10.8409

>  <SCORE.INTRA.POLAR>
0

>  <SCORE.INTRA.POLAR.0>
0

>  <SCORE.INTRA.REPUL>
0

>  <SCORE.INTRA.REPUL.0>
0

>  <SCORE.INTRA.SOLV>
-0.706692

>  <SCORE.INTRA.SOLV.lig_0>
-80.8302

>  <SCORE.INTRA.VDW>
0.727154

>  <SCORE.INTRA.VDW.0>
-4.23953

>  <SCORE.INTRA.norm>
-0.057906

>  <SCORE.RESTR>
0.0598943

>  <SCORE.RESTR.CAVITY>
0.0598943

>  <SCORE.RESTR.norm>
0.00193208

>  <SCORE.SYSTEM>
0

>  <SCORE.SYSTEM.CONST>
0

>  <SCORE.SYSTEM.DIHEDRAL>
0

>  <SCORE.SYSTEM.SOLV>
0

>  <SCORE.SYSTEM.norm>
0

>  <SCORE.heavy>
31

>  <SCORE.norm>
-0.67941

>  <RMSD>
0.792

$$$$
2fcz_lig
 OpenBabel11021811433D
libRbt.so/2013.1/901 2013/11/27
 31 33  0  0  0  0  0  0  0  0999 V2000
    9.0964   15.7560   35.4181 C   0  0  0  0  0  0  0  0  0  0  0  0
   14.1147   22.4681   36.1913 N   0  0  0  0  0  0  0  0  0  0  0  0
    8.1895   16.8112   35.0869 O   0  0  0  0  0  0  0  0  0  0  0  0
   10.1068   16.2530   36.4576 C   0  0  1  0  0  0  0  0  0  0  0  0
   11.2680   22.6098   32.2134 N   0  0  0  0  0  0  0  0  0  0  0  0
   10.8046   17.4301   36.0026 O   0  0  0  0  0  0  0  0  0  0  0  0
   10.3490   18.5787   36.7449 C   0  0  1  0  0  0  0  0  0  0  0  0
    5.6796   21.8943   33.5342 N   0  0  0  0  0  0  0  0  0  0  0  0
   10.0887   19.7145   35.9025 O   0  0  0  0  0  0  0  0  0  0  0  0
   11.2317   20.1755   35.1623 C   0  0  2  0  0  0  0  0  0  0  0  0
    9.6447   17.5136   32.1662 N   0  0  0  0  0  0  0  0  0  0  0  0
   12.6451   20.2349   37.1251 O   0  0  0  0  0  0  0  0  0  0  0  0
   12.1066   21.0430   36.0757 C   0  0  1  0  0  0  0  0  0  0  0  0
   10.1566   20.1253   32.9475 O   0  0  0  0  0  0  0  0  0  0  0  0
   13.2615   21.6753   35.2954 C   0  0  1  0  0  0  0  0  0  0  0  0
    7.8819   20.5497   33.4147 O   0  0  0  0  0  0  0  0  0  0  0  0
   12.7152   22.5721   34.1823 C   0  0  0  0  0  0  0  0  0  0  0  0
    6.8745   20.7880   29.8798 O   0  0  0  0  0  0  0  0  0  0  0  0
   11.8727   21.7277   33.2242 C   0  0  1  0  0  0  0  0  0  0  0  0
    7.7707   18.0654   30.0737 O   0  0  0  0  0  0  0  0  0  0  0  0
   10.7552   20.9667   33.9458 C   0  0  2  0  0  0  0  0  0  0  0  0
    8.6965   18.8767   38.5602 O   0  0  0  0  0  0  0  0  0  0  0  0
    8.9086   19.5424   33.3500 C   0  0  1  0  0  0  0  0  0  0  0  0
   10.2831   16.6103   38.8698 O   0  0  0  0  0  0  0  0  0  0  0  0
    7.6039   21.1989   32.1620 C   0  0  2  0  0  0  0  0  0  0  0  0
    6.5240   22.2600   32.3877 C   0  0  0  0  0  0  0  0  0  0  0  0
    7.1246   20.1607   31.1413 C   0  0  2  0  0  0  0  0  0  0  0  0
    8.2056   19.0910   30.9723 C   0  0  1  0  0  0  0  0  0  0  0  0
    8.5351   18.4634   32.3285 C   0  0  1  0  0  0  0  0  0  0  0  0
    9.0489   18.1131   37.4025 C   0  0  2  0  0  0  0  0  0  0  0  0
    9.3986   16.6668   37.7476 C   0  0  1  0  0  0  0  0  0  0  0  0
  3  1  1  0  0  0  0
  4  1  1  6  0  0  0
  4  6  1  0  0  0  0
  4 31  1  0  0  0  0
  6  7  1  0  0  0  0
  7  9  1  6  0  0  0
  7 30  1  0  0  0  0
 10  9  1  1  0  0  0
 10 13  1  0  0  0  0
 10 21  1  0  0  0  0
 13 12  1  1  0  0  0
 13 15  1  0  0  0  0
 15  2  1  1  0  0  0
 15 17  1  0  0  0  0
 16 25  1  0  0  0  0
 17 19  1  0  0  0  0
 19  5  1  6  0  0  0
 19 21  1  0  0  0  0
 21 14  1  6  0  0  0
 23 14  1  6  0  0  0
 23 16  1  0  0  0  0
 23 29  1  0  0  0  0
 25 26  1  1  0  0  0
 25 27  1  0  0  0  0
 26  8  1  0  0  0  0
 27 18  1  6  0  0  0
 27 28  1  0  0  0  0
 28 20  1  6  0  0  0
 28 29  1  0  0  0  0
 29 11  1  6  0  0  0
 30 22  1  1  0  0  0
 30 31  1  0  0  0  0
 31 24  1  1  0  0  0
M  END
>  <CHROM.1>
-55.74042121,-60.12151075,-80.62136519,68.00691823,70.55020449,-26.85856122
9.68527990,19.58169625,34.40270844,0.92860016,0.68290035,2.33014668

>  <Name>
2fcz_lig

>  <RI>
0

>  <Rbt.Current_Directory>
/home/itssahil/PROJECTS/Mol_Feturizer/New_Systems/rnas/2fcz

>  <Rbt.Executable>
rbdock ($Id: //depot/dev/client3/rdock/2013.1/src/exe/rbdock.cxx#4 $)

>  <Rbt.Library>
libRbt.so (2013.1, Build901 2013/11/27)

>  <Rbt.Parameter_File>
/export/apps/rDock/src/rDock_2013.1_src/data/scripts/dock_solv.prm

>  <Rbt.Receptor>
prm/pocket_docking_5.prm

>  <SCORE>
-17.1304

>  <SCORE.INTER>
-15.6969

>  <SCORE.INTER.CONST>
1

>  <SCORE.INTER.POLAR>
-2.12988

>  <SCORE.INTER.ROT>
6

>  <SCORE.INTER.SOLV>
21.116

>  <SCORE.INTER.VDW>
-18.0037

>  <SCORE.INTER.norm>
-0.506352

>  <SCORE.INTRA>
-1.43345

>  <SCORE.INTRA.DIHEDRAL>
-4.8073

>  <SCORE.INTRA.DIHEDRAL.0>
10.8409

>  <SCORE.INTRA.POLAR>
0

>  <SCORE.INTRA.POLAR.0>
0

>  <SCORE.INTRA.REPUL>
0

>  <SCORE.INTRA.REPUL.0>
0

>  <SCORE.INTRA.SOLV>
-0.507414

>  <SCORE.INTRA.SOLV.lig_0>
-80.8302

>  <SCORE.INTRA.VDW>
1.22391

>  <SCORE.INTRA.VDW.0>
-4.23953

>  <SCORE.INTRA.norm>
-0.0462403

>  <SCORE.RESTR>
0

>  <SCORE.RESTR.CAVITY>
0

>  <SCORE.RESTR.norm>
0

>  <SCORE.SYSTEM>
0

>  <SCORE.SYSTEM.CONST>
0

>  <SCORE.SYSTEM.DIHEDRAL>
0

>  <SCORE.SYSTEM.SOLV>
0

>  <SCORE.SYSTEM.norm>
0

>  <SCORE.heavy>
31

>  <SCORE.norm>
-0.552592

>  <RMSD>
0.792

$$$$
2fcz_lig
 OpenBabel11021811433D
libRbt.so/2013.1/901 2013/11/27
 31 33  0  0  0  0  0  0  0  0999 V2000
    8.6442   15.9618   35.2552 C   0  0  0  0  0  0  0  0  0  0  0  0
   14.0190   22.4440   36.2004 N   0  0  0  0  0  0  0  0  0  0  0  0
    7.8293   17.1040   34.9781 O   0  0  0  0  0  0  0  0  0  0  0  0
    9.7497   16.3458   36.2446 C   0  0  1  0  0  0  0  0  0  0  0  0
   11.0887   22.8933   32.3070 N   0  0  0  0  0  0  0  0  0  0  0  0
   10.4870   17.5018   35.7980 O   0  0  0  0  0  0  0  0  0  0  0  0
   10.1528   18.6359   36.6226 C   0  0  1  0  0  0  0  0  0  0  0  0
    5.3977   22.7019   32.6267 N   0  0  0  0  0  0  0  0  0  0  0  0
    9.9078   19.8261   35.8540 O   0  0  0  0  0  0  0  0  0  0  0  0
   11.0470   20.2963   35.1136 C   0  0  2  0  0  0  0  0  0  0  0  0
    9.0388   17.9182   32.0663 N   0  0  0  0  0  0  0  0  0  0  0  0
   12.5054   20.2034   37.0418 O   0  0  0  0  0  0  0  0  0  0  0  0
   11.9675   21.0850   36.0531 C   0  0  1  0  0  0  0  0  0  0  0  0
    9.9212   20.4032   32.9261 O   0  0  0  0  0  0  0  0  0  0  0  0
   13.1227   21.7281   35.2821 C   0  0  1  0  0  0  0  0  0  0  0  0
    7.7216   21.1948   33.2550 O   0  0  0  0  0  0  0  0  0  0  0  0
   12.5782   22.7022   34.2350 C   0  0  0  0  0  0  0  0  0  0  0  0
    7.0025   21.6227   29.6679 O   0  0  0  0  0  0  0  0  0  0  0  0
   11.6897   21.9381   33.2514 C   0  0  1  0  0  0  0  0  0  0  0  0
    7.4233   18.7879   29.8690 O   0  0  0  0  0  0  0  0  0  0  0  0
   10.5667   21.1689   33.9556 C   0  0  2  0  0  0  0  0  0  0  0  0
    8.6452   18.9372   38.5593 O   0  0  0  0  0  0  0  0  0  0  0  0
    8.5705   20.0319   33.2375 C   0  0  1  0  0  0  0  0  0  0  0  0
   10.1064   16.5696   38.6530 O   0  0  0  0  0  0  0  0  0  0  0  0
    7.6375   21.8903   31.9991 C   0  0  2  0  0  0  0  0  0  0  0  0
    6.7346   23.1138   32.1748 C   0  0  0  0  0  0  0  0  0  0  0  0
    7.0621   20.9534   30.9312 C   0  0  2  0  0  0  0  0  0  0  0  0
    7.9610   19.7208   30.8120 C   0  0  1  0  0  0  0  0  0  0  0  0
    8.0925   19.0372   32.1749 C   0  0  1  0  0  0  0  0  0  0  0  0
    8.8728   18.2141   37.3458 C   0  0  2  0  0  0  0  0  0  0  0  0
    9.1549   16.7342   37.5982 C   0  0  1  0  0  0  0  0  0  0  0  0
  3  1  1  0  0  0  0
  4  1  1  6  0  0  0
  4  6  1  0  0  0  0
  4 31  1  0  0  0  0
  6  7  1  0  0  0  0
  7  9  1  6  0  0  0
  7 30  1  0  0  0  0
 10  9  1  1  0  0  0
 10 13  1  0  0  0  0
 10 21  1  0  0  0  0
 13 12  1  1  0  0  0
 13 15  1  0  0  0  0
 15  2  1  1  0  0  0
 15 17  1  0  0  0  0
 16 25  1  0  0  0  0
 17 19  1  0  0  0  0
 19  5  1  6  0  0  0
 19 21  1  0  0  0  0
 21 14  1  6  0  0  0
 23 14  1  6  0  0  0
 23 16  1  0  0  0  0
 23 29  1  0  0  0  0
 25 26  1  1  0  0  0
 25 27  1  0  0  0  0
 26  8  1  0  0  0  0
 27 18  1  6  0  0  0
 27 28  1  0  0  0  0
 28 20  1  6  0  0  0
 28 29  1  0  0  0  0
 29 11  1  6  0  0  0
 30 22  1  1  0  0  0
 30 31  1  0  0  0  0
 31 24  1  1  0  0  0
M  END
>  <CHROM.1>
-52.46471104,-63.21099378,-80.71497116,78.36505206,68.38335277,-58.62035574
9.48473233,19.89530190,34.27679235,1.01908726,0.66052529,2.38730442

>  <Name>
2fcz_lig

>  <RI>
3.41297e+07

>  <Rbt.Current_Directory>
/home/itssahil/PROJECTS/Mol_Feturizer/New_Systems/rnas/2fcz

>  <Rbt.Executable>
rbdock ($Id: //depot/dev/client3/rdock/2013.1/src/exe/rbdock.cxx#4 $)

>  <Rbt.Library>
libRbt.so (2013.1, Build901 2013/11/27)

>  <Rbt.Parameter_File>
/export/apps/rDock/src/rDock_2013.1_src/data/scripts/dock_solv.prm

>  <Rbt.Receptor>
prm/pocket_docking_2.prm

>  <SCORE>
-16.2673

>  <SCORE.INTER>
-13.835

>  <SCORE.INTER.CONST>
1

>  <SCORE.INTER.POLAR>
-1.78686

>  <SCORE.INTER.ROT>
6

>  <SCORE.INTER.SOLV>
18.2733

>  <SCORE.INTER.VDW>
-16.9582

>  <SCORE.INTER.norm>
-0.44629

>  <SCORE.INTRA>
-2.43468

>  <SCORE.INTRA.DIHEDRAL>
-6.65684

>  <SCORE.INTRA.DIHEDRAL.0>
10.8409

>  <SCORE.INTRA.POLAR>
0

>  <SCORE.INTRA.POLAR.0>
0

>  <SCORE.INTRA.REPUL>
0

>  <SCORE.INTRA.REPUL.0>
0

>  <SCORE.INTRA.SOLV>
0.430533

>  <SCORE.INTRA.SOLV.lig_0>
-80.8302

>  <SCORE.INTRA.VDW>
0.678474

>  <SCORE.INTRA.VDW.0>
-4.23953

>  <SCORE.INTRA.norm>
-0.078538

>  <SCORE.RESTR>
0.00233904

>  <SCORE.RESTR.CAVITY>
0.00233904

>  <SCORE.RESTR.norm>
7.54529e-05

>  <SCORE.SYSTEM>
0

>  <SCORE.SYSTEM.CONST>
0

>  <SCORE.SYSTEM.DIHEDRAL>
0

>  <SCORE.SYSTEM.SOLV>
0

>  <SCORE.SYSTEM.norm>
0

>  <SCORE.heavy>
31

>  <SCORE.norm>
-0.524752

>  <RMSD>
0.809

$$$$
2fcz_lig
 OpenBabel11021811433D
libRbt.so/2013.1/901 2013/11/27
 31 33  0  0  0  0  0  0  0  0999 V2000
    8.7349   15.8581   35.3425 C   0  0  0  0  0  0  0  0  0  0  0  0
   14.0672   22.3269   36.2061 N   0  0  0  0  0  0  0  0  0  0  0  0
    7.9199   16.9851   35.0091 O   0  0  0  0  0  0  0  0  0  0  0  0
    9.8196   16.2836   36.3379 C   0  0  1  0  0  0  0  0  0  0  0  0
   11.1124   22.8427   32.3395 N   0  0  0  0  0  0  0  0  0  0  0  0
   10.5440   17.4413   35.8745 O   0  0  0  0  0  0  0  0  0  0  0  0
   10.1794   18.5885   36.6675 C   0  0  1  0  0  0  0  0  0  0  0  0
    5.4186   22.7125   32.5927 N   0  0  0  0  0  0  0  0  0  0  0  0
    9.9258   19.7561   35.8678 O   0  0  0  0  0  0  0  0  0  0  0  0
   11.0642   20.2209   35.1229 C   0  0  2  0  0  0  0  0  0  0  0  0
    9.0077   17.8805   32.1029 N   0  0  0  0  0  0  0  0  0  0  0  0
   12.5362   20.0951   37.0390 O   0  0  0  0  0  0  0  0  0  0  0  0
   12.0003   20.9912   36.0624 C   0  0  1  0  0  0  0  0  0  0  0  0
    9.9231   20.3596   32.9452 O   0  0  0  0  0  0  0  0  0  0  0  0
   13.1563   21.6290   35.2883 C   0  0  1  0  0  0  0  0  0  0  0  0
    7.7343   21.1823   33.2692 O   0  0  0  0  0  0  0  0  0  0  0  0
   12.6143   22.6183   34.2543 C   0  0  0  0  0  0  0  0  0  0  0  0
    7.0195   21.5949   29.6794 O   0  0  0  0  0  0  0  0  0  0  0  0
   11.7103   21.8726   33.2706 C   0  0  1  0  0  0  0  0  0  0  0  0
    7.4030   18.7563   29.9000 O   0  0  0  0  0  0  0  0  0  0  0  0
   10.5846   21.1090   33.9765 C   0  0  2  0  0  0  0  0  0  0  0  0
    8.6395   18.9093   38.5755 O   0  0  0  0  0  0  0  0  0  0  0  0
    8.5677   20.0083   33.2595 C   0  0  1  0  0  0  0  0  0  0  0  0
   10.1381   16.5695   38.7451 O   0  0  0  0  0  0  0  0  0  0  0  0
    7.6589   21.8702   32.0086 C   0  0  2  0  0  0  0  0  0  0  0  0
    6.7722   23.1066   32.1760 C   0  0  0  0  0  0  0  0  0  0  0  0
    7.0708   20.9336   30.9473 C   0  0  2  0  0  0  0  0  0  0  0  0
    7.9533   19.6885   30.8364 C   0  0  1  0  0  0  0  0  0  0  0  0
    8.0763   19.0126   32.2039 C   0  0  1  0  0  0  0  0  0  0  0  0
    8.8963   18.1620   37.3825 C   0  0  2  0  0  0  0  0  0  0  0  0
    9.1992   16.6934   37.6736 C   0  0  1  0  0  0  0  0  0  0  0  0
  3  1  1  0  0  0  0
  4  1  1  6  0  0  0
  4  6  1  0  0  0  0
  4 31  1  0  0  0  0
  6  7  1  0  0  0  0
  7  9  1  6  0  0  0
  7 30  1  0  0  0  0
 10  9  1  1  0  0  0
 10 13  1  0  0  0  0
 10 21  1  0  0  0  0
 13 12  1  1  0  0  0
 13 15  1  0  0  0  0
 15  2  1  1  0  0  0
 15 17  1  0  0  0  0
 16 25  1  0  0  0  0
 17 19  1  0  0  0  0
 19  5  1  6  0  0  0
 19 21  1  0  0  0  0
 21 14  1  6  0  0  0
 23 14  1  6  0  0  0
 23 16  1  0  0  0  0
 23 29  1  0  0  0  0
 25 26  1  1  0  0  0
 25 27  1  0  0  0  0
 26  8  1  0  0  0  0
 27 18  1  6  0  0  0
 27 28  1  0  0  0  0
 28 20  1  6  0  0  0
 28 29  1  0  0  0  0
 29 11  1  6  0  0  0
 30 22  1  1  0  0  0
 30 31  1  0  0  0  0
 31 24  1  1  0  0  0
M  END
>  <CHROM.1>
-51.44758293,-62.66830610,-78.25157438,78.79679561,69.14285324,-60.29698482
9.50898731,19.84349437,34.30482525,1.02488257,0.65246336,2.38941980

>  <Name>
2fcz_lig

>  <RI>
3.41297e+07

>  <Rbt.Current_Directory>
/home/itssahil/PROJECTS/Mol_Feturizer/New_Systems/rnas/2fcz

>  <Rbt.Executable>
rbdock ($Id: //depot/dev/client3/rdock/2013.1/src/exe/rbdock.cxx#4 $)

>  <Rbt.Library>
libRbt.so (2013.1, Build901 2013/11/27)

>  <Rbt.Parameter_File>
/export/apps/rDock/src/rDock_2013.1_src/data/scripts/dock_solv.prm

>  <Rbt.Receptor>
prm/pocket_docking_2.prm

>  <SCORE>
-16.2178

>  <SCORE.INTER>
-13.7291

>  <SCORE.INTER.CONST>
1

>  <SCORE.INTER.POLAR>
-1.80292

>  <SCORE.INTER.ROT>
6

>  <SCORE.INTER.SOLV>
17.7279

>  <SCORE.INTER.VDW>
-16.6523

>  <SCORE.INTER.norm>
-0.442874

>  <SCORE.INTRA>
-2.48871

>  <SCORE.INTRA.DIHEDRAL>
-6.88608

>  <SCORE.INTRA.DIHEDRAL.0>
10.8409

>  <SCORE.INTRA.POLAR>
0

>  <SCORE.INTRA.POLAR.0>
0

>  <SCORE.INTRA.REPUL>
0

>  <SCORE.INTRA.REPUL.0>
0

>  <SCORE.INTRA.SOLV>
0.366915

>  <SCORE.INTRA.SOLV.lig_0>
-80.8302

>  <SCORE.INTRA.VDW>
0.770875

>  <SCORE.INTRA.VDW.0>
-4.23953

>  <SCORE.INTRA.norm>
-0.080281

>  <SCORE.RESTR>
0

>  <SCORE.RESTR.CAVITY>
0

>  <SCORE.RESTR.norm>
0

>  <SCORE.SYSTEM>
0

>  <SCORE.SYSTEM.CONST>
0

>  <SCORE.SYSTEM.DIHEDRAL>
0

>  <SCORE.SYSTEM.SOLV>
0

>  <SCORE.SYSTEM.norm>
0

>  <SCORE.heavy>
31

>  <SCORE.norm>
-0.523155

>  <RMSD>
0.811

$$$$
2fcz_lig
 OpenBabel11021811433D
libRbt.so/2013.1/901 2013/11/27
 31 33  0  0  0  0  0  0  0  0999 V2000
    8.6941   16.0452   35.1443 C   0  0  0  0  0  0  0  0  0  0  0  0
   13.7675   22.7726   36.2005 N   0  0  0  0  0  0  0  0  0  0  0  0
    7.7583   17.1191   35.0153 O   0  0  0  0  0  0  0  0  0  0  0  0
    9.8179   16.4539   36.1027 C   0  0  1  0  0  0  0  0  0  0  0  0
   10.7433   23.2258   32.3800 N   0  0  0  0  0  0  0  0  0  0  0  0
   10.4835   17.6551   35.6626 O   0  0  0  0  0  0  0  0  0  0  0  0
   10.1294   18.7494   36.5314 C   0  0  1  0  0  0  0  0  0  0  0  0
    5.8028   23.5676   31.4114 N   0  0  0  0  0  0  0  0  0  0  0  0
    9.8006   19.9471   35.8071 O   0  0  0  0  0  0  0  0  0  0  0  0
   10.8978   20.5116   35.0693 C   0  0  2  0  0  0  0  0  0  0  0  0
    9.3094   18.0649   31.9933 N   0  0  0  0  0  0  0  0  0  0  0  0
   12.3956   20.4170   36.9671 O   0  0  0  0  0  0  0  0  0  0  0  0
   11.7914   21.3091   36.0274 C   0  0  1  0  0  0  0  0  0  0  0  0
    9.7265   20.6500   32.9077 O   0  0  0  0  0  0  0  0  0  0  0  0
   12.8946   22.0483   35.2664 C   0  0  1  0  0  0  0  0  0  0  0  0
    7.4471   20.9472   33.4452 O   0  0  0  0  0  0  0  0  0  0  0  0
   12.2775   23.0348   34.2726 C   0  0  0  0  0  0  0  0  0  0  0  0
    6.3484   21.3334   29.9507 O   0  0  0  0  0  0  0  0  0  0  0  0
   11.4138   22.2656   33.2711 C   0  0  1  0  0  0  0  0  0  0  0  0
    7.3652   18.6467   29.9742 O   0  0  0  0  0  0  0  0  0  0  0  0
   10.3484   21.4053   33.9592 C   0  0  2  0  0  0  0  0  0  0  0  0
    8.6850   18.9268   38.5306 O   0  0  0  0  0  0  0  0  0  0  0  0
    8.5144   19.9913   33.3031 C   0  0  1  0  0  0  0  0  0  0  0  0
   10.2561   16.6289   38.5016 O   0  0  0  0  0  0  0  0  0  0  0  0
    7.1123   21.6509   32.2366 C   0  0  2  0  0  0  0  0  0  0  0  0
    5.9933   22.6492   32.5434 C   0  0  0  0  0  0  0  0  0  0  0  0
    6.6545   20.6499   31.1699 C   0  0  2  0  0  0  0  0  0  0  0  0
    7.7763   19.6399   30.9192 C   0  0  1  0  0  0  0  0  0  0  0  0
    8.1640   18.9543   32.2313 C   0  0  1  0  0  0  0  0  0  0  0  0
    8.8989   18.2483   37.2891 C   0  0  2  0  0  0  0  0  0  0  0  0
    9.2583   16.7771   37.4881 C   0  0  1  0  0  0  0  0  0  0  0  0
  3  1  1  0  0  0  0
  4  1  1  6  0  0  0
  4  6  1  0  0  0  0
  4 31  1  0  0  0  0
  6  7  1  0  0  0  0
  7  9  1  6  0  0  0
  7 30  1  0  0  0  0
 10  9  1  1  0  0  0
 10 13  1  0  0  0  0
 10 21  1  0  0  0  0
 13 12  1  1  0  0  0
 13 15  1  0  0  0  0
 15  2  1  1  0  0  0
 15 17  1  0  0  0  0
 16 25  1  0  0  0  0
 17 19  1  0  0  0  0
 19  5  1  6  0  0  0
 19 21  1  0  0  0  0
 21 14  1  6  0  0  0
 23 14  1  6  0  0  0
 23 16  1  0  0  0  0
 23 29  1  0  0  0  0
 25 26  1  1  0  0  0
 25 27  1  0  0  0  0
 26  8  1  0  0  0  0
 27 18  1  6  0  0  0
 27 28  1  0  0  0  0
 28 20  1  6  0  0  0
 28 29  1  0  0  0  0
 29 11  1  6  0  0  0
 30 22  1  1  0  0  0
 30 31  1  0  0  0  0
 31 24  1  1  0  0  0
M  END
>  <CHROM.1>
-57.11568459,-64.89843562,-79.99009312,67.82294817,73.61668555,168.91880864
9.35061078,19.97722736,34.26054571,0.91344255,0.70005820,2.47228571

>  <Name>
2fcz_lig

>  <RI>
1.32928e+07

>  <Rbt.Current_Directory>
/home/itssahil/PROJECTS/Mol_Feturizer/New_Systems/rnas/2fcz

>  <Rbt.Executable>
rbdock ($Id: //depot/dev/client3/rdock/2013.1/src/exe/rbdock.cxx#4 $)

>  <Rbt.Library>
libRbt.so (2013.1, Build901 2013/11/27)

>  <Rbt.Parameter_File>
/export/apps/rDock/src/rDock_2013.1_src/data/scripts/dock_solv.prm

>  <Rbt.Receptor>
prm/pocket_docking_7.prm

>  <SCORE>
-21.4453

>  <SCORE.INTER>
-18.7776

>  <SCORE.INTER.CONST>
1

>  <SCORE.INTER.POLAR>
-1.82438

>  <SCORE.INTER.ROT>
6

>  <SCORE.INTER.SOLV>
16.438

>  <SCORE.INTER.VDW>
-19.5165

>  <SCORE.INTER.norm>
-0.60573

>  <SCORE.INTRA>
-2.66767

>  <SCORE.INTRA.DIHEDRAL>
-7.14276

>  <SCORE.INTRA.DIHEDRAL.0>
10.8409

>  <SCORE.INTRA.POLAR>
0

>  <SCORE.INTRA.POLAR.0>
0

>  <SCORE.INTRA.REPUL>
0

>  <SCORE.INTRA.REPUL.0>
0

>  <SCORE.INTRA.SOLV>
-0.496853

>  <SCORE.INTRA.SOLV.lig_0>
-80.8302

>  <SCORE.INTRA.VDW>
1.15214

>  <SCORE.INTRA.VDW.0>
-4.23953

>  <SCORE.INTRA.norm>
-0.0860537

>  <SCORE.RESTR>
0

>  <SCORE.RESTR.CAVITY>
0

>  <SCORE.RESTR.norm>
0

>  <SCORE.SYSTEM>
0

>  <SCORE.SYSTEM.CONST>
0

>  <SCORE.SYSTEM.DIHEDRAL>
0

>  <SCORE.SYSTEM.SOLV>
0

>  <SCORE.SYSTEM.norm>
0

>  <SCORE.heavy>
31

>  <SCORE.norm>
-0.691783

>  <RMSD>
0.817

$$$$
2fcz_lig
 OpenBabel11021811433D
libRbt.so/2013.1/901 2013/11/27
 31 33  0  0  0  0  0  0  0  0999 V2000
    8.6979   15.9406   35.2560 C   0  0  0  0  0  0  0  0  0  0  0  0
   14.2114   22.2178   36.1648 N   0  0  0  0  0  0  0  0  0  0  0  0
    7.8909   17.0826   34.9557 O   0  0  0  0  0  0  0  0  0  0  0  0
    9.7696   16.3231   36.2825 C   0  0  1  0  0  0  0  0  0  0  0  0
   11.2635   22.8017   32.3026 N   0  0  0  0  0  0  0  0  0  0  0  0
   10.5345   17.4678   35.8534 O   0  0  0  0  0  0  0  0  0  0  0  0
   10.1813   18.6126   36.6548 C   0  0  1  0  0  0  0  0  0  0  0  0
    5.4773   22.7574   32.6036 N   0  0  0  0  0  0  0  0  0  0  0  0
    9.9769   19.7980   35.8671 O   0  0  0  0  0  0  0  0  0  0  0  0
   11.1290   20.2126   35.1137 C   0  0  2  0  0  0  0  0  0  0  0  0
    9.0330   17.8968   32.1225 N   0  0  0  0  0  0  0  0  0  0  0  0
   12.6023   20.0527   37.0261 O   0  0  0  0  0  0  0  0  0  0  0  0
   12.0962   20.9578   36.0419 C   0  0  1  0  0  0  0  0  0  0  0  0
    9.9858   20.3706   32.9383 O   0  0  0  0  0  0  0  0  0  0  0  0
   13.2721   21.5444   35.2574 C   0  0  1  0  0  0  0  0  0  0  0  0
    7.8109   21.2131   33.3026 O   0  0  0  0  0  0  0  0  0  0  0  0
   12.7632   22.5421   34.2147 C   0  0  0  0  0  0  0  0  0  0  0  0
    7.0291   21.6204   29.7262 O   0  0  0  0  0  0  0  0  0  0  0  0
   11.8287   21.8200   33.2419 C   0  0  1  0  0  0  0  0  0  0  0  0
    7.3927   18.7793   29.9487 O   0  0  0  0  0  0  0  0  0  0  0  0
   10.6782   21.1058   33.9595 C   0  0  2  0  0  0  0  0  0  0  0  0
    8.6058   18.9464   38.5313 O   0  0  0  0  0  0  0  0  0  0  0  0
    8.6339   20.0319   33.2804 C   0  0  1  0  0  0  0  0  0  0  0  0
   10.0387   16.5657   38.7003 O   0  0  0  0  0  0  0  0  0  0  0  0
    7.7166   21.8976   32.0414 C   0  0  2  0  0  0  0  0  0  0  0  0
    6.8439   23.1421   32.2221 C   0  0  0  0  0  0  0  0  0  0  0  0
    7.0997   20.9627   30.9950 C   0  0  2  0  0  0  0  0  0  0  0  0
    7.9692   19.7097   30.8709 C   0  0  1  0  0  0  0  0  0  0  0  0
    8.1134   19.0372   32.2380 C   0  0  1  0  0  0  0  0  0  0  0  0
    8.8711   18.2099   37.3335 C   0  0  2  0  0  0  0  0  0  0  0  0
    9.1288   16.7298   37.6094 C   0  0  1  0  0  0  0  0  0  0  0  0
  3  1  1  0  0  0  0
  4  1  1  6  0  0  0
  4  6  1  0  0  0  0
  4 31  1  0  0  0  0
  6  7  1  0  0  0  0
  7  9  1  6  0  0  0
  7 30  1  0  0  0  0
 10  9  1  1  0  0  0
 10 13  1  0  0  0  0
 10 21  1  0  0  0  0
 13 12  1  1  0  0  0
 13 15  1  0  0  0  0
 15  2  1  1  0  0  0
 15 17  1  0  0  0  0
 16 25  1  0  0  0  0
 17 19  1  0  0  0  0
 19  5  1  6  0  0  0
 19 21  1  0  0  0  0
 21 14  1  6  0  0  0
 23 14  1  6  0  0  0
 23 16  1  0  0  0  0
 23 29  1  0  0  0  0
 25 26  1  1  0  0  0
 25 27  1  0  0  0  0
 26  8  1  0  0  0  0
 27 18  1  6  0  0  0
 27 28  1  0  0  0  0
 28 20  1  6  0  0  0
 28 29  1  0  0  0  0
 29 11  1  6  0  0  0
 30 22  1  1  0  0  0
 30 31  1  0  0  0  0
 31 24  1  1  0  0  0
M  END
>  <CHROM.1>
-53.44836026,-60.29489632,-79.59032215,76.71958769,69.74090817,-63.02399041
9.54623787,19.85369107,34.29527603,1.02800319,0.62107626,2.37160405

>  <Name>
2fcz_lig

>  <RI>
3.41297e+07

>  <Rbt.Current_Directory>
/home/itssahil/PROJECTS/Mol_Feturizer/New_Systems/rnas/2fcz

>  <Rbt.Executable>
rbdock ($Id: //depot/dev/client3/rdock/2013.1/src/exe/rbdock.cxx#4 $)

>  <Rbt.Library>
libRbt.so (2013.1, Build901 2013/11/27)

>  <Rbt.Parameter_File>
/export/apps/rDock/src/rDock_2013.1_src/data/scripts/dock_solv.prm

>  <Rbt.Receptor>
prm/pocket_docking_2.prm

>  <SCORE>
-16.1886

>  <SCORE.INTER>
-13.6932

>  <SCORE.INTER.CONST>
1

>  <SCORE.INTER.POLAR>
-1.78303

>  <SCORE.INTER.ROT>
6

>  <SCORE.INTER.SOLV>
16.9137

>  <SCORE.INTER.VDW>
-16.4233

>  <SCORE.INTER.norm>
-0.441716

>  <SCORE.INTRA>
-2.49541

>  <SCORE.INTRA.DIHEDRAL>
-7.03828

>  <SCORE.INTRA.DIHEDRAL.0>
10.8409

>  <SCORE.INTRA.POLAR>
0

>  <SCORE.INTRA.POLAR.0>
0

>  <SCORE.INTRA.REPUL>
0

>  <SCORE.INTRA.REPUL.0>
0

>  <SCORE.INTRA.SOLV>
0.511027

>  <SCORE.INTRA.SOLV.lig_0>
-80.8302

>  <SCORE.INTRA.VDW>
0.768214

>  <SCORE.INTRA.VDW.0>
-4.23953

>  <SCORE.INTRA.norm>
-0.0804971

>  <SCORE.RESTR>
0

>  <SCORE.RESTR.CAVITY>
0

>  <SCORE.RESTR.norm>
0

>  <SCORE.SYSTEM>
0

>  <SCORE.SYSTEM.CONST>
0

>  <SCORE.SYSTEM.DIHEDRAL>
0

>  <SCORE.SYSTEM.SOLV>
0

>  <SCORE.SYSTEM.norm>
0

>  <SCORE.heavy>
31

>  <SCORE.norm>
-0.522214

>  <RMSD>
0.818

$$$$
2fcz_lig
 OpenBabel11021811433D
libRbt.so/2013.1/901 2013/11/27
 31 33  0  0  0  0  0  0  0  0999 V2000
    8.5673   16.0704   35.1393 C   0  0  0  0  0  0  0  0  0  0  0  0
   14.1043   22.3927   36.1655 N   0  0  0  0  0  0  0  0  0  0  0  0
    7.7914   17.2399   34.8640 O   0  0  0  0  0  0  0  0  0  0  0  0
    9.6617   16.4066   36.1580 C   0  0  1  0  0  0  0  0  0  0  0  0
   11.2024   22.8777   32.2551 N   0  0  0  0  0  0  0  0  0  0  0  0
   10.4393   17.5495   35.7474 O   0  0  0  0  0  0  0  0  0  0  0  0
   10.1188   18.6779   36.5852 C   0  0  1  0  0  0  0  0  0  0  0  0
    5.4387   22.7168   32.8029 N   0  0  0  0  0  0  0  0  0  0  0  0
    9.9223   19.8875   35.8333 O   0  0  0  0  0  0  0  0  0  0  0  0
   11.0770   20.3166   35.0920 C   0  0  2  0  0  0  0  0  0  0  0  0
    9.0688   17.9590   32.0085 N   0  0  0  0  0  0  0  0  0  0  0  0
   12.5250   20.2058   37.0271 O   0  0  0  0  0  0  0  0  0  0  0  0
   12.0159   21.0903   36.0259 C   0  0  1  0  0  0  0  0  0  0  0  0
    9.9629   20.4290   32.8989 O   0  0  0  0  0  0  0  0  0  0  0  0
   13.1916   21.6914   35.2520 C   0  0  1  0  0  0  0  0  0  0  0  0
    7.7693   21.2037   33.2997 O   0  0  0  0  0  0  0  0  0  0  0  0
   12.6787   22.6679   34.1913 C   0  0  0  0  0  0  0  0  0  0  0  0
    6.9584   21.7048   29.7417 O   0  0  0  0  0  0  0  0  0  0  0  0
   11.7727   21.9173   33.2131 C   0  0  1  0  0  0  0  0  0  0  0  0
    7.3951   18.8683   29.8715 O   0  0  0  0  0  0  0  0  0  0  0  0
   10.6259   21.1885   33.9219 C   0  0  2  0  0  0  0  0  0  0  0  0
    8.5795   18.9867   38.4957 O   0  0  0  0  0  0  0  0  0  0  0  0
    8.6219   20.0453   33.2360 C   0  0  1  0  0  0  0  0  0  0  0  0
    9.9737   16.5786   38.5768 O   0  0  0  0  0  0  0  0  0  0  0  0
    7.6509   21.9255   32.0615 C   0  0  2  0  0  0  0  0  0  0  0  0
    6.7480   23.1409   32.2859 C   0  0  0  0  0  0  0  0  0  0  0  0
    7.0524   21.0090   30.9885 C   0  0  2  0  0  0  0  0  0  0  0  0
    7.9528   19.7832   30.8205 C   0  0  1  0  0  0  0  0  0  0  0  0
    8.1212   19.0713   32.1647 C   0  0  1  0  0  0  0  0  0  0  0  0
    8.8129   18.2788   37.2743 C   0  0  2  0  0  0  0  0  0  0  0  0
    9.0494   16.7876   37.5058 C   0  0  1  0  0  0  0  0  0  0  0  0
  3  1  1  0  0  0  0
  4  1  1  6  0  0  0
  4  6  1  0  0  0  0
  4 31  1  0  0  0  0
  6  7  1  0  0  0  0
  7  9  1  6  0  0  0
  7 30  1  0  0  0  0
 10  9  1  1  0  0  0
 10 13  1  0  0  0  0
 10 21  1  0  0  0  0
 13 12  1  1  0  0  0
 13 15  1  0  0  0  0
 15  2  1  1  0  0  0
 15 17  1  0  0  0  0
 16 25  1  0  0  0  0
 17 19  1  0  0  0  0
 19  5  1  6  0  0  0
 19 21  1  0  0  0  0
 21 14  1  6  0  0  0
 23 14  1  6  0  0  0
 23 16  1  0  0  0  0
 23 29  1  0  0  0  0
 25 26  1  1  0  0  0
 25 27  1  0  0  0  0
 26  8  1  0  0  0  0
 27 18  1  6  0  0  0
 27 28  1  0  0  0  0
 28 20  1  6  0  0  0
 28 29  1  0  0  0  0
 29 11  1  6  0  0  0
 30 22  1  1  0  0  0
 30 31  1  0  0  0  0
 31 24  1  1  0  0  0
M  END
>  <CHROM.1>
-52.34536968,-61.38870802,-82.48863606,75.56368608,67.71282703,-56.82768209
9.48833267,19.92854519,34.25778077,1.01842703,0.63445496,2.37081373

>  <Name>
2fcz_lig

>  <RI>
3.41297e+07

>  <Rbt.Current_Directory>
/home/itssahil/PROJECTS/Mol_Feturizer/New_Systems/rnas/2fcz

>  <Rbt.Executable>
rbdock ($Id: //depot/dev/client3/rdock/2013.1/src/exe/rbdock.cxx#4 $)

>  <Rbt.Library>
libRbt.so (2013.1, Build901 2013/11/27)

>  <Rbt.Parameter_File>
/export/apps/rDock/src/rDock_2013.1_src/data/scripts/dock_solv.prm

>  <Rbt.Receptor>
prm/pocket_docking_2.prm

>  <SCORE>
-16.2286

>  <SCORE.INTER>
-13.5839

>  <SCORE.INTER.CONST>
1

>  <SCORE.INTER.POLAR>
-1.76171

>  <SCORE.INTER.ROT>
6

>  <SCORE.INTER.SOLV>
18.4874

>  <SCORE.INTER.VDW>
-16.946

>  <SCORE.INTER.norm>
-0.438189

>  <SCORE.INTRA>
-2.64712

>  <SCORE.INTRA.DIHEDRAL>
-6.81294

>  <SCORE.INTRA.DIHEDRAL.0>
10.8409

>  <SCORE.INTRA.POLAR>
0

>  <SCORE.INTRA.POLAR.0>
0

>  <SCORE.INTRA.REPUL>
0

>  <SCORE.INTRA.REPUL.0>
0

>  <SCORE.INTRA.SOLV>
0.398381

>  <SCORE.INTRA.SOLV.lig_0>
-80.8302

>  <SCORE.INTRA.VDW>
0.560158

>  <SCORE.INTRA.VDW.0>
-4.23953

>  <SCORE.INTRA.norm>
-0.085391

>  <SCORE.RESTR>
0.00241372

>  <SCORE.RESTR.CAVITY>
0.00241372

>  <SCORE.RESTR.norm>
7.7862e-05

>  <SCORE.SYSTEM>
0

>  <SCORE.SYSTEM.CONST>
0

>  <SCORE.SYSTEM.DIHEDRAL>
0

>  <SCORE.SYSTEM.SOLV>
0

>  <SCORE.SYSTEM.norm>
0

>  <SCORE.heavy>
31

>  <SCORE.norm>
-0.523502

>  <RMSD>
0.837

$$$$
2fcz_lig
 OpenBabel11021811433D
libRbt.so/2013.1/901 2013/11/27
 31 33  0  0  0  0  0  0  0  0999 V2000
    8.6293   16.2023   34.8544 C   0  0  0  0  0  0  0  0  0  0  0  0
   13.7766   22.8549   36.1042 N   0  0  0  0  0  0  0  0  0  0  0  0
    7.9952   14.9767   35.2303 O   0  0  0  0  0  0  0  0  0  0  0  0
    9.7477   16.5297   35.8496 C   0  0  1  0  0  0  0  0  0  0  0  0
   10.7445   23.2530   32.2838 N   0  0  0  0  0  0  0  0  0  0  0  0
   10.4421   17.7418   35.4916 O   0  0  0  0  0  0  0  0  0  0  0  0
   10.0973   18.7883   36.4209 C   0  0  1  0  0  0  0  0  0  0  0  0
    5.7439   23.5658   31.4287 N   0  0  0  0  0  0  0  0  0  0  0  0
    9.8012   20.0340   35.7669 O   0  0  0  0  0  0  0  0  0  0  0  0
   10.8982   20.5833   35.0174 C   0  0  2  0  0  0  0  0  0  0  0  0
    9.3165   18.0992   31.9504 N   0  0  0  0  0  0  0  0  0  0  0  0
   12.4003   20.5160   36.9129 O   0  0  0  0  0  0  0  0  0  0  0  0
   11.7962   21.3941   35.9599 C   0  0  1  0  0  0  0  0  0  0  0  0
    9.7220   20.6891   32.8565 O   0  0  0  0  0  0  0  0  0  0  0  0
   12.8995   22.1176   35.1843 C   0  0  1  0  0  0  0  0  0  0  0  0
    7.4494   20.9624   33.4336 O   0  0  0  0  0  0  0  0  0  0  0  0
   12.2827   23.0893   34.1758 C   0  0  0  0  0  0  0  0  0  0  0  0
    6.2859   21.3350   29.9586 O   0  0  0  0  0  0  0  0  0  0  0  0
   11.4146   22.3059   33.1891 C   0  0  1  0  0  0  0  0  0  0  0  0
    7.3313   18.6592   29.9654 O   0  0  0  0  0  0  0  0  0  0  0  0
   10.3485   21.4600   33.8939 C   0  0  2  0  0  0  0  0  0  0  0  0
    8.6298   18.8730   38.4094 O   0  0  0  0  0  0  0  0  0  0  0  0
    8.5241   20.0179   33.2732 C   0  0  1  0  0  0  0  0  0  0  0  0
   10.1569   16.5503   38.2599 O   0  0  0  0  0  0  0  0  0  0  0  0
    7.0861   21.6619   32.2307 C   0  0  2  0  0  0  0  0  0  0  0  0
    5.9621   22.6485   32.5566 C   0  0  0  0  0  0  0  0  0  0  0  0
    6.6204   20.6555   31.1726 C   0  0  2  0  0  0  0  0  0  0  0  0
    7.7483   19.6573   30.9027 C   0  0  1  0  0  0  0  0  0  0  0  0
    8.1661   18.9765   32.2081 C   0  0  1  0  0  0  0  0  0  0  0  0
    8.8473   18.2668   37.1316 C   0  0  2  0  0  0  0  0  0  0  0  0
    9.1758   16.7794   37.2451 C   0  0  1  0  0  0  0  0  0  0  0  0
  3  1  1  0  0  0  0
  4  1  1  6  0  0  0
  4  6  1  0  0  0  0
  4 31  1  0  0  0  0
  6  7  1  0  0  0  0
  7  9  1  6  0  0  0
  7 30  1  0  0  0  0
 10  9  1  1  0  0  0
 10 13  1  0  0  0  0
 10 21  1  0  0  0  0
 13 12  1  1  0  0  0
 13 15  1  0  0  0  0
 15  2  1  1  0  0  0
 15 17  1  0  0  0  0
 16 25  1  0  0  0  0
 17 19  1  0  0  0  0
 19  5  1  6  0  0  0
 19 21  1  0  0  0  0
 21 14  1  6  0  0  0
 23 14  1  6  0  0  0
 23 16  1  0  0  0  0
 23 29  1  0  0  0  0
 25 26  1  1  0  0  0
 25 27  1  0  0  0  0
 26  8  1  0  0  0  0
 27 18  1  6  0  0  0
 27 28  1  0  0  0  0
 28 20  1  6  0  0  0
 28 29  1  0  0  0  0
 29 11  1  6  0  0  0
 30 22  1  1  0  0  0
 30 31  1  0  0  0  0
 31 24  1  1  0  0  0
M  END
>  <CHROM.1>
178.46008207,-61.65108567,-84.86766475,66.59775024,73.15545657,168.81274548
9.33557574,19.93413486,34.18932481,0.95150249,0.71728921,2.52298056

>  <Name>
2fcz_lig

>  <RI>
1.32928e+07

>  <Rbt.Current_Directory>
/home/itssahil/PROJECTS/Mol_Feturizer/New_Systems/rnas/2fcz

>  <Rbt.Executable>
rbdock ($Id: //depot/dev/client3/rdock/2013.1/src/exe/rbdock.cxx#4 $)

>  <Rbt.Library>
libRbt.so (2013.1, Build901 2013/11/27)

>  <Rbt.Parameter_File>
/export/apps/rDock/src/rDock_2013.1_src/data/scripts/dock_solv.prm

>  <Rbt.Receptor>
prm/pocket_docking_7.prm

>  <SCORE>
-21.8809

>  <SCORE.INTER>
-18.8762

>  <SCORE.INTER.CONST>
1

>  <SCORE.INTER.POLAR>
-1.80499

>  <SCORE.INTER.ROT>
6

>  <SCORE.INTER.SOLV>
16.4954

>  <SCORE.INTER.VDW>
-19.666

>  <SCORE.INTER.norm>
-0.608909

>  <SCORE.INTRA>
-3.00477

>  <SCORE.INTRA.DIHEDRAL>
-6.55791

>  <SCORE.INTRA.DIHEDRAL.0>
10.8409

>  <SCORE.INTRA.POLAR>
0

>  <SCORE.INTRA.POLAR.0>
0

>  <SCORE.INTRA.REPUL>
0

>  <SCORE.INTRA.REPUL.0>
0

>  <SCORE.INTRA.SOLV>
-1.60275

>  <SCORE.INTRA.SOLV.lig_0>
-80.8302

>  <SCORE.INTRA.VDW>
1.07556

>  <SCORE.INTRA.VDW.0>
-4.23953

>  <SCORE.INTRA.norm>
-0.096928

>  <SCORE.RESTR>
0

>  <SCORE.RESTR.CAVITY>
0

>  <SCORE.RESTR.norm>
0

>  <SCORE.SYSTEM>
0

>  <SCORE.SYSTEM.CONST>
0

>  <SCORE.SYSTEM.DIHEDRAL>
0

>  <SCORE.SYSTEM.SOLV>
0

>  <SCORE.SYSTEM.norm>
0

>  <SCORE.heavy>
31

>  <SCORE.norm>
-0.705837

>  <RMSD>
0.872

$$$$
2fcz_lig
 OpenBabel11021811433D
libRbt.so/2013.1/901 2013/11/27
 31 33  0  0  0  0  0  0  0  0999 V2000
    8.4069   16.1323   34.9709 C   0  0  0  0  0  0  0  0  0  0  0  0
   13.6832   22.7573   36.2345 N   0  0  0  0  0  0  0  0  0  0  0  0
    7.7477   14.9376   35.3994 O   0  0  0  0  0  0  0  0  0  0  0  0
    9.5652   16.4508   35.9223 C   0  0  1  0  0  0  0  0  0  0  0  0
   10.7664   23.1991   32.3302 N   0  0  0  0  0  0  0  0  0  0  0  0
   10.2813   17.6339   35.5133 O   0  0  0  0  0  0  0  0  0  0  0  0
    9.9957   18.7113   36.4273 C   0  0  1  0  0  0  0  0  0  0  0  0
    5.8182   23.5792   31.3500 N   0  0  0  0  0  0  0  0  0  0  0  0
    9.7136   19.9493   35.7527 O   0  0  0  0  0  0  0  0  0  0  0  0
   10.8334   20.5030   35.0412 C   0  0  2  0  0  0  0  0  0  0  0  0
    9.3090   18.0632   31.8875 N   0  0  0  0  0  0  0  0  0  0  0  0
   12.2786   20.4141   36.9796 O   0  0  0  0  0  0  0  0  0  0  0  0
   11.7048   21.3027   36.0177 C   0  0  1  0  0  0  0  0  0  0  0  0
    9.7220   20.6324   32.8477 O   0  0  0  0  0  0  0  0  0  0  0  0
   12.8322   22.0309   35.2820 C   0  0  1  0  0  0  0  0  0  0  0  0
    7.4373   20.9270   33.3636 O   0  0  0  0  0  0  0  0  0  0  0  0
   12.2475   23.0136   34.2651 C   0  0  0  0  0  0  0  0  0  0  0  0
    6.3798   21.3716   29.8634 O   0  0  0  0  0  0  0  0  0  0  0  0
   11.4073   22.2418   33.2457 C   0  0  1  0  0  0  0  0  0  0  0  0
    7.3896   18.6821   29.8558 O   0  0  0  0  0  0  0  0  0  0  0  0
   10.3191   21.3918   33.9105 C   0  0  2  0  0  0  0  0  0  0  0  0
    8.5954   18.8845   38.4581 O   0  0  0  0  0  0  0  0  0  0  0  0
    8.5038   19.9707   33.2186 C   0  0  1  0  0  0  0  0  0  0  0  0
   10.0517   16.5162   38.3174 O   0  0  0  0  0  0  0  0  0  0  0  0
    7.1182   21.6508   32.1626 C   0  0  2  0  0  0  0  0  0  0  0  0
    5.9982   22.6471   32.4724 C   0  0  0  0  0  0  0  0  0  0  0  0
    6.6702   20.6680   31.0750 C   0  0  2  0  0  0  0  0  0  0  0  0
    7.7923   19.6591   30.8211 C   0  0  1  0  0  0  0  0  0  0  0  0
    8.1632   18.9517   32.1265 C   0  0  1  0  0  0  0  0  0  0  0  0
    8.7550   18.2426   37.1892 C   0  0  2  0  0  0  0  0  0  0  0  0
    9.0454   16.7495   37.3285 C   0  0  1  0  0  0  0  0  0  0  0  0
  3  1  1  0  0  0  0
  4  1  1  6  0  0  0
  4  6  1  0  0  0  0
  4 31  1  0  0  0  0
  6  7  1  0  0  0  0
  7  9  1  6  0  0  0
  7 30  1  0  0  0  0
 10  9  1  1  0  0  0
 10 13  1  0  0  0  0
 10 21  1  0  0  0  0
 13 12  1  1  0  0  0
 13 15  1  0  0  0  0
 15  2  1  1  0  0  0
 15 17  1  0  0  0  0
 16 25  1  0  0  0  0
 17 19  1  0  0  0  0
 19  5  1  6  0  0  0
 19 21  1  0  0  0  0
 21 14  1  6  0  0  0
 23 14  1  6  0  0  0
 23 16  1  0  0  0  0
 23 29  1  0  0  0  0
 25 26  1  1  0  0  0
 25 27  1  0  0  0  0
 26  8  1  0  0  0  0
 27 18  1  6  0  0  0
 27 28  1  0  0  0  0
 28 20  1  6  0  0  0
 28 29  1  0  0  0  0
 29 11  1  6  0  0  0
 30 22  1  1  0  0  0
 30 31  1  0  0  0  0
 31 24  1  1  0  0  0
M  END
>  <CHROM.1>
178.70650869,-66.28056490,-83.58608526,67.17943751,72.39765431,169.22630479
9.28630126,19.89000796,34.19934293,1.00631174,0.73289290,2.49030901

>  <Name>
2fcz_lig

>  <RI>
2.29611e+07

>  <Rbt.Current_Directory>
/home/itssahil/PROJECTS/Mol_Feturizer/New_Systems/rnas/2fcz

>  <Rbt.Executable>
rbdock ($Id: //depot/dev/client3/rdock/2013.1/src/exe/rbdock.cxx#4 $)

>  <Rbt.Library>
libRbt.so (2013.1, Build901 2013/11/27)

>  <Rbt.Parameter_File>
/export/apps/rDock/src/rDock_2013.1_src/data/scripts/dock_solv.prm

>  <Rbt.Receptor>
prm/pocket_docking_3.prm

>  <SCORE>
-21.7941

>  <SCORE.INTER>
-18.6965

>  <SCORE.INTER.CONST>
1

>  <SCORE.INTER.POLAR>
-1.78313

>  <SCORE.INTER.ROT>
6

>  <SCORE.INTER.SOLV>
16.4128

>  <SCORE.INTER.VDW>
-19.5915

>  <SCORE.INTER.norm>
-0.603113

>  <SCORE.INTRA>
-3.09757

>  <SCORE.INTRA.DIHEDRAL>
-6.69539

>  <SCORE.INTRA.DIHEDRAL.0>
10.8409

>  <SCORE.INTRA.POLAR>
0

>  <SCORE.INTRA.POLAR.0>
0

>  <SCORE.INTRA.REPUL>
0

>  <SCORE.INTRA.REPUL.0>
0

>  <SCORE.INTRA.SOLV>
-1.84055

>  <SCORE.INTRA.SOLV.lig_0>
-80.8302

>  <SCORE.INTRA.VDW>
1.1704

>  <SCORE.INTRA.VDW.0>
-4.23953

>  <SCORE.INTRA.norm>
-0.0999217

>  <SCORE.RESTR>
0

>  <SCORE.RESTR.CAVITY>
0

>  <SCORE.RESTR.norm>
0

>  <SCORE.SYSTEM>
0

>  <SCORE.SYSTEM.CONST>
0

>  <SCORE.SYSTEM.DIHEDRAL>
0

>  <SCORE.SYSTEM.SOLV>
0

>  <SCORE.SYSTEM.norm>
0

>  <SCORE.heavy>
31

>  <SCORE.norm>
-0.703035

>  <RMSD>
0.879

$$$$
2fcz_lig
 OpenBabel11021811433D
libRbt.so/2013.1/901 2013/11/27
 31 33  0  0  0  0  0  0  0  0999 V2000
    8.4601   16.1635   34.9125 C   0  0  0  0  0  0  0  0  0  0  0  0
   13.7461   22.7468   36.1895 N   0  0  0  0  0  0  0  0  0  0  0  0
    7.8368   14.9311   35.2842 O   0  0  0  0  0  0  0  0  0  0  0  0
    9.6073   16.4728   35.8804 C   0  0  1  0  0  0  0  0  0  0  0  0
   10.7764   23.2226   32.3292 N   0  0  0  0  0  0  0  0  0  0  0  0
   10.3237   17.6635   35.4949 O   0  0  0  0  0  0  0  0  0  0  0  0
   10.0250   18.7276   36.4202 C   0  0  1  0  0  0  0  0  0  0  0  0
    5.8130   23.6523   31.4302 N   0  0  0  0  0  0  0  0  0  0  0  0
    9.7460   19.9737   35.7594 O   0  0  0  0  0  0  0  0  0  0  0  0
   10.8601   20.5196   35.0329 C   0  0  2  0  0  0  0  0  0  0  0  0
    9.2607   18.1047   31.8882 N   0  0  0  0  0  0  0  0  0  0  0  0
   12.3326   20.4137   36.9497 O   0  0  0  0  0  0  0  0  0  0  0  0
   11.7524   21.3095   35.9983 C   0  0  1  0  0  0  0  0  0  0  0  0
    9.7179   20.6636   32.8561 O   0  0  0  0  0  0  0  0  0  0  0  0
   12.8750   22.0299   35.2479 C   0  0  1  0  0  0  0  0  0  0  0  0
    7.4451   20.9809   33.4098 O   0  0  0  0  0  0  0  0  0  0  0  0
   12.2840   23.0200   34.2419 C   0  0  0  0  0  0  0  0  0  0  0  0
    6.3377   21.4575   29.9293 O   0  0  0  0  0  0  0  0  0  0  0  0
   11.4225   22.2577   33.2331 C   0  0  1  0  0  0  0  0  0  0  0  0
    7.3167   18.7569   29.8907 O   0  0  0  0  0  0  0  0  0  0  0  0
   10.3369   21.4154   33.9118 C   0  0  2  0  0  0  0  0  0  0  0  0
    8.6028   18.8691   38.4382 O   0  0  0  0  0  0  0  0  0  0  0  0
    8.4983   20.0135   33.2426 C   0  0  1  0  0  0  0  0  0  0  0  0
   10.0682   16.5074   38.2812 O   0  0  0  0  0  0  0  0  0  0  0  0
    7.1153   21.7150   32.2181 C   0  0  2  0  0  0  0  0  0  0  0  0
    6.0117   22.7221   32.5511 C   0  0  0  0  0  0  0  0  0  0  0  0
    6.6391   20.7437   31.1322 C   0  0  2  0  0  0  0  0  0  0  0  0
    7.7456   19.7238   30.8549 C   0  0  1  0  0  0  0  0  0  0  0  0
    8.1290   19.0047   32.1503 C   0  0  1  0  0  0  0  0  0  0  0  0
    8.7779   18.2448   37.1626 C   0  0  2  0  0  0  0  0  0  0  0  0
    9.0717   16.7508   37.2849 C   0  0  1  0  0  0  0  0  0  0  0  0
  3  1  1  0  0  0  0
  4  1  1  6  0  0  0
  4  6  1  0  0  0  0
  4 31  1  0  0  0  0
  6  7  1  0  0  0  0
  7  9  1  6  0  0  0
  7 30  1  0  0  0  0
 10  9  1  1  0  0  0
 10 13  1  0  0  0  0
 10 21  1  0  0  0  0
 13 12  1  1  0  0  0
 13 15  1  0  0  0  0
 15  2  1  1  0  0  0
 15 17  1  0  0  0  0
 16 25  1  0  0  0  0
 17 19  1  0  0  0  0
 19  5  1  6  0  0  0
 19 21  1  0  0  0  0
 21 14  1  6  0  0  0
 23 14  1  6  0  0  0
 23 16  1  0  0  0  0
 23 29  1  0  0  0  0
 25 26  1  1  0  0  0
 25 27  1  0  0  0  0
 26  8  1  0  0  0  0
 27 18  1  6  0  0  0
 27 28  1  0  0  0  0
 28 20  1  6  0  0  0
 28 29  1  0  0  0  0
 29 11  1  6  0  0  0
 30 22  1  1  0  0  0
 30 31  1  0  0  0  0
 31 24  1  1  0  0  0
M  END
>  <CHROM.1>
176.23448161,-64.45099469,-83.94818182,67.29321924,72.11468787,169.92638579
9.29940194,19.91935057,34.19832723,0.99604663,0.71934500,2.50830973

>  <Name>
2fcz_lig

>  <RI>
2.76032e+07

>  <Rbt.Current_Directory>
/home/itssahil/PROJECTS/Mol_Feturizer/New_Systems/rnas/2fcz

>  <Rbt.Executable>
rbdock ($Id: //depot/dev/client3/rdock/2013.1/src/exe/rbdock.cxx#4 $)

>  <Rbt.Library>
libRbt.so (2013.1, Build901 2013/11/27)

>  <Rbt.Parameter_File>
/export/apps/rDock/src/rDock_2013.1_src/data/scripts/dock_solv.prm

>  <Rbt.Receptor>
prm/pocket_docking_8.prm

>  <SCORE>
-21.8414

>  <SCORE.INTER>
-18.7022

>  <SCORE.INTER.CONST>
1

>  <SCORE.INTER.POLAR>
-1.78113

>  <SCORE.INTER.ROT>
6

>  <SCORE.INTER.SOLV>
16.2034

>  <SCORE.INTER.VDW>
-19.5322

>  <SCORE.INTER.norm>
-0.603297

>  <SCORE.INTRA>
-3.13916

>  <SCORE.INTRA.DIHEDRAL>
-6.75652

>  <SCORE.INTRA.DIHEDRAL.0>
10.8409

>  <SCORE.INTRA.POLAR>
0

>  <SCORE.INTRA.POLAR.0>
0

>  <SCORE.INTRA.REPUL>
0

>  <SCORE.INTRA.REPUL.0>
0

>  <SCORE.INTRA.SOLV>
-1.7827

>  <SCORE.INTRA.SOLV.lig_0>
-80.8302

>  <SCORE.INTRA.VDW>
1.13045

>  <SCORE.INTRA.VDW.0>
-4.23953

>  <SCORE.INTRA.norm>
-0.101263

>  <SCORE.RESTR>
0

>  <SCORE.RESTR.CAVITY>
0

>  <SCORE.RESTR.norm>
0

>  <SCORE.SYSTEM>
0

>  <SCORE.SYSTEM.CONST>
0

>  <SCORE.SYSTEM.DIHEDRAL>
0

>  <SCORE.SYSTEM.SOLV>
0

>  <SCORE.SYSTEM.norm>
0

>  <SCORE.heavy>
31

>  <SCORE.norm>
-0.70456

>  <RMSD>
0.887

$$$$
2fcz_lig
 OpenBabel11021811433D
libRbt.so/2013.1/901 2013/11/27
 31 33  0  0  0  0  0  0  0  0999 V2000
    8.2814   16.1280   35.0568 C   0  0  0  0  0  0  0  0  0  0  0  0
   13.9604   22.4056   36.2171 N   0  0  0  0  0  0  0  0  0  0  0  0
    7.5214   14.9960   35.4887 O   0  0  0  0  0  0  0  0  0  0  0  0
    9.4128   16.3995   36.0542 C   0  0  1  0  0  0  0  0  0  0  0  0
   11.1611   22.8431   32.2272 N   0  0  0  0  0  0  0  0  0  0  0  0
   10.2247   17.5197   35.6474 O   0  0  0  0  0  0  0  0  0  0  0  0
    9.9696   18.6416   36.5158 C   0  0  1  0  0  0  0  0  0  0  0  0
    5.4018   22.7104   32.6185 N   0  0  0  0  0  0  0  0  0  0  0  0
    9.8028   19.8737   35.7939 O   0  0  0  0  0  0  0  0  0  0  0  0
   10.9744   20.3036   35.0802 C   0  0  2  0  0  0  0  0  0  0  0  0
    9.0315   17.9355   31.9245 N   0  0  0  0  0  0  0  0  0  0  0  0
   12.3709   20.2165   37.0540 O   0  0  0  0  0  0  0  0  0  0  0  0
   11.8838   21.0901   36.0325 C   0  0  1  0  0  0  0  0  0  0  0  0
    9.9186   20.3923   32.8573 O   0  0  0  0  0  0  0  0  0  0  0  0
   13.0763   21.6919   35.2854 C   0  0  1  0  0  0  0  0  0  0  0  0
    7.7205   21.1797   33.2053 O   0  0  0  0  0  0  0  0  0  0  0  0
   12.5864   22.6570   34.2036 C   0  0  0  0  0  0  0  0  0  0  0  0
    7.0086   21.7131   29.6309 O   0  0  0  0  0  0  0  0  0  0  0  0
   11.7110   21.8935   33.2077 C   0  0  1  0  0  0  0  0  0  0  0  0
    7.4220   18.8726   29.7505 O   0  0  0  0  0  0  0  0  0  0  0  0
   10.5498   21.1637   33.8915 C   0  0  2  0  0  0  0  0  0  0  0  0
    8.4908   18.9694   38.4705 O   0  0  0  0  0  0  0  0  0  0  0  0
    8.5664   20.0156   33.1556 C   0  0  1  0  0  0  0  0  0  0  0  0
    9.7903   16.5076   38.4673 O   0  0  0  0  0  0  0  0  0  0  0  0
    7.6403   21.9115   31.9700 C   0  0  2  0  0  0  0  0  0  0  0  0
    6.7401   23.1316   32.1795 C   0  0  0  0  0  0  0  0  0  0  0  0
    7.0644   21.0073   30.8744 C   0  0  2  0  0  0  0  0  0  0  0  0
    7.9604   19.7764   30.7211 C   0  0  1  0  0  0  0  0  0  0  0  0
    8.0878   19.0533   32.0638 C   0  0  1  0  0  0  0  0  0  0  0  0
    8.6661   18.2792   37.2294 C   0  0  2  0  0  0  0  0  0  0  0  0
    8.8491   16.7753   37.4245 C   0  0  1  0  0  0  0  0  0  0  0  0
  3  1  1  0  0  0  0
  4  1  1  6  0  0  0
  4  6  1  0  0  0  0
  4 31  1  0  0  0  0
  6  7  1  0  0  0  0
  7  9  1  6  0  0  0
  7 30  1  0  0  0  0
 10  9  1  1  0  0  0
 10 13  1  0  0  0  0
 10 21  1  0  0  0  0
 13 12  1  1  0  0  0
 13 15  1  0  0  0  0
 15  2  1  1  0  0  0
 15 17  1  0  0  0  0
 16 25  1  0  0  0  0
 17 19  1  0  0  0  0
 19  5  1  6  0  0  0
 19 21  1  0  0  0  0
 21 14  1  6  0  0  0
 23 14  1  6  0  0  0
 23 16  1  0  0  0  0
 23 29  1  0  0  0  0
 25 26  1  1  0  0  0
 25 27  1  0  0  0  0
 26  8  1  0  0  0  0
 27 18  1  6  0  0  0
 27 28  1  0  0  0  0
 28 20  1  6  0  0  0
 28 29  1  0  0  0  0
 29 11  1  6  0  0  0
 30 22  1  1  0  0  0
 30 31  1  0  0  0  0
 31 24  1  1  0  0  0
M  END
>  <CHROM.1>
178.91593900,-64.00051950,-84.93561873,76.19580339,66.46171607,-58.55726389
9.39095349,19.83489774,34.22126343,1.12568965,0.68110140,2.38537967

>  <Name>
2fcz_lig

>  <RI>
3.41297e+07

>  <Rbt.Current_Directory>
/home/itssahil/PROJECTS/Mol_Feturizer/New_Systems/rnas/2fcz

>  <Rbt.Executable>
rbdock ($Id: //depot/dev/client3/rdock/2013.1/src/exe/rbdock.cxx#4 $)

>  <Rbt.Library>
libRbt.so (2013.1, Build901 2013/11/27)

>  <Rbt.Parameter_File>
/export/apps/rDock/src/rDock_2013.1_src/data/scripts/dock_solv.prm

>  <Rbt.Receptor>
prm/pocket_docking_2.prm

>  <SCORE>
-16.9443

>  <SCORE.INTER>
-13.9062

>  <SCORE.INTER.CONST>
1

>  <SCORE.INTER.POLAR>
-1.72233

>  <SCORE.INTER.ROT>
6

>  <SCORE.INTER.SOLV>
18.6686

>  <SCORE.INTER.VDW>
-17.3526

>  <SCORE.INTER.norm>
-0.448587

>  <SCORE.INTRA>
-3.03809

>  <SCORE.INTRA.DIHEDRAL>
-6.54836

>  <SCORE.INTRA.DIHEDRAL.0>
10.8409

>  <SCORE.INTRA.POLAR>
0

>  <SCORE.INTRA.POLAR.0>
0

>  <SCORE.INTRA.REPUL>
0

>  <SCORE.INTRA.REPUL.0>
0

>  <SCORE.INTRA.SOLV>
-1.13039

>  <SCORE.INTRA.SOLV.lig_0>
-80.8302

>  <SCORE.INTRA.VDW>
0.801281

>  <SCORE.INTRA.VDW.0>
-4.23953

>  <SCORE.INTRA.norm>
-0.098003

>  <SCORE.RESTR>
0

>  <SCORE.RESTR.CAVITY>
0

>  <SCORE.RESTR.norm>
0

>  <SCORE.SYSTEM>
0

>  <SCORE.SYSTEM.CONST>
0

>  <SCORE.SYSTEM.DIHEDRAL>
0

>  <SCORE.SYSTEM.SOLV>
0

>  <SCORE.SYSTEM.norm>
0

>  <SCORE.heavy>
31

>  <SCORE.norm>
-0.54659

>  <RMSD>
0.902

$$$$
2fcz_lig
 OpenBabel11021811433D
libRbt.so/2013.1/901 2013/11/27
 31 33  0  0  0  0  0  0  0  0999 V2000
    8.7546   16.0707   34.9904 C   0  0  0  0  0  0  0  0  0  0  0  0
   13.6811   22.8868   36.0777 N   0  0  0  0  0  0  0  0  0  0  0  0
    7.8240   17.1458   34.8368 O   0  0  0  0  0  0  0  0  0  0  0  0
    9.8665   16.4867   35.9594 C   0  0  1  0  0  0  0  0  0  0  0  0
   10.5978   23.2827   32.2982 N   0  0  0  0  0  0  0  0  0  0  0  0
   10.5039   17.7121   35.5452 O   0  0  0  0  0  0  0  0  0  0  0  0
   10.1220   18.7798   36.4352 C   0  0  1  0  0  0  0  0  0  0  0  0
    5.8628   23.8275   31.4233 N   0  0  0  0  0  0  0  0  0  0  0  0
    9.7658   19.9837   35.7346 O   0  0  0  0  0  0  0  0  0  0  0  0
   10.8418   20.5703   34.9828 C   0  0  2  0  0  0  0  0  0  0  0  0
    9.0961   18.1460   31.8667 N   0  0  0  0  0  0  0  0  0  0  0  0
   12.3663   20.5040   36.8603 O   0  0  0  0  0  0  0  0  0  0  0  0
   11.7321   21.3847   35.9295 C   0  0  1  0  0  0  0  0  0  0  0  0
    9.6392   20.6870   32.8371 O   0  0  0  0  0  0  0  0  0  0  0  0
   12.8102   22.1460   35.1547 C   0  0  1  0  0  0  0  0  0  0  0  0
    7.3780   21.0810   33.3890 O   0  0  0  0  0  0  0  0  0  0  0  0
   12.1606   23.1208   34.1701 C   0  0  0  0  0  0  0  0  0  0  0  0
    6.2908   21.5979   29.9078 O   0  0  0  0  0  0  0  0  0  0  0  0
   11.2990   22.3354   33.1794 C   0  0  1  0  0  0  0  0  0  0  0  0
    7.1774   18.8655   29.8679 O   0  0  0  0  0  0  0  0  0  0  0  0
   10.2600   21.4537   33.8809 C   0  0  2  0  0  0  0  0  0  0  0  0
    8.6702   18.8819   38.4343 O   0  0  0  0  0  0  0  0  0  0  0  0
    8.3978   20.0785   33.2219 C   0  0  1  0  0  0  0  0  0  0  0  0
   10.2961   16.6234   38.3624 O   0  0  0  0  0  0  0  0  0  0  0  0
    7.0745   21.8270   32.1975 C   0  0  2  0  0  0  0  0  0  0  0  0
    6.0055   22.8707   32.5304 C   0  0  0  0  0  0  0  0  0  0  0  0
    6.5666   20.8732   31.1104 C   0  0  2  0  0  0  0  0  0  0  0  0
    7.6380   19.8165   30.8333 C   0  0  1  0  0  0  0  0  0  0  0  0
    7.9954   19.0838   32.1285 C   0  0  1  0  0  0  0  0  0  0  0  0
    8.9025   18.2341   37.1798 C   0  0  2  0  0  0  0  0  0  0  0  0
    9.2968   16.7682   37.3497 C   0  0  1  0  0  0  0  0  0  0  0  0
  3  1  1  0  0  0  0
  4  1  1  6  0  0  0
  4  6  1  0  0  0  0
  4 31  1  0  0  0  0
  6  7  1  0  0  0  0
  7  9  1  6  0  0  0
  7 30  1  0  0  0  0
 10  9  1  1  0  0  0
 10 13  1  0  0  0  0
 10 21  1  0  0  0  0
 13 12  1  1  0  0  0
 13 15  1  0  0  0  0
 15  2  1  1  0  0  0
 15 17  1  0  0  0  0
 16 25  1  0  0  0  0
 17 19  1  0  0  0  0
 19  5  1  6  0  0  0
 19 21  1  0  0  0  0
 21 14  1  6  0  0  0
 23 14  1  6  0  0  0
 23 16  1  0  0  0  0
 23 29  1  0  0  0  0
 25 26  1  1  0  0  0
 25 27  1  0  0  0  0
 26  8  1  0  0  0  0
 27 18  1  6  0  0  0
 27 28  1  0  0  0  0
 28 20  1  6  0  0  0
 28 29  1  0  0  0  0
 29 11  1  6  0  0  0
 30 22  1  1  0  0  0
 30 31  1  0  0  0  0
 31 24  1  1  0  0  0
M  END
>  <CHROM.1>
-54.65337705,-63.36773010,-80.98374341,71.85033776,70.13412553,168.55495152
9.29837963,20.06856441,34.16687140,0.91928867,0.70453390,2.51511317

>  <Name>
2fcz_lig

>  <RI>
3.41297e+07

>  <Rbt.Current_Directory>
/home/itssahil/PROJECTS/Mol_Feturizer/New_Systems/rnas/2fcz

>  <Rbt.Executable>
rbdock ($Id: //depot/dev/client3/rdock/2013.1/src/exe/rbdock.cxx#4 $)

>  <Rbt.Library>
libRbt.so (2013.1, Build901 2013/11/27)

>  <Rbt.Parameter_File>
/export/apps/rDock/src/rDock_2013.1_src/data/scripts/dock_solv.prm

>  <Rbt.Receptor>
prm/pocket_docking_2.prm

>  <SCORE>
-21.0436

>  <SCORE.INTER>
-18.2911

>  <SCORE.INTER.CONST>
1

>  <SCORE.INTER.POLAR>
-1.8291

>  <SCORE.INTER.ROT>
6

>  <SCORE.INTER.SOLV>
16.1886

>  <SCORE.INTER.VDW>
-19.0933

>  <SCORE.INTER.norm>
-0.590035

>  <SCORE.INTRA>
-2.75255

>  <SCORE.INTRA.DIHEDRAL>
-6.95286

>  <SCORE.INTRA.DIHEDRAL.0>
10.8409

>  <SCORE.INTRA.POLAR>
0

>  <SCORE.INTRA.POLAR.0>
0

>  <SCORE.INTRA.REPUL>
0

>  <SCORE.INTRA.REPUL.0>
0

>  <SCORE.INTRA.SOLV>
-0.349499

>  <SCORE.INTRA.SOLV.lig_0>
-80.8302

>  <SCORE.INTRA.VDW>
0.898631

>  <SCORE.INTRA.VDW.0>
-4.23953

>  <SCORE.INTRA.norm>
-0.0887919

>  <SCORE.RESTR>
0

>  <SCORE.RESTR.CAVITY>
0

>  <SCORE.RESTR.norm>
0

>  <SCORE.SYSTEM>
0

>  <SCORE.SYSTEM.CONST>
0

>  <SCORE.SYSTEM.DIHEDRAL>
0

>  <SCORE.SYSTEM.SOLV>
0

>  <SCORE.SYSTEM.norm>
0

>  <SCORE.heavy>
31

>  <SCORE.norm>
-0.678827

>  <RMSD>
0.923

$$$$
2fcz_lig
 OpenBabel11021811433D
libRbt.so/2013.1/901 2013/11/27
 31 33  0  0  0  0  0  0  0  0999 V2000
    8.0428   16.0545   35.2231 C   0  0  0  0  0  0  0  0  0  0  0  0
   13.6469   22.4501   36.3578 N   0  0  0  0  0  0  0  0  0  0  0  0
    8.4819   15.6600   33.9204 O   0  0  0  0  0  0  0  0  0  0  0  0
    9.2580   16.3597   36.1055 C   0  0  1  0  0  0  0  0  0  0  0  0
   10.7731   23.1591   32.4609 N   0  0  0  0  0  0  0  0  0  0  0  0
   10.0093   17.4854   35.6076 O   0  0  0  0  0  0  0  0  0  0  0  0
    9.8178   18.6174   36.4792 C   0  0  1  0  0  0  0  0  0  0  0  0
    5.8969   23.8179   31.4449 N   0  0  0  0  0  0  0  0  0  0  0  0
    9.5634   19.8347   35.7577 O   0  0  0  0  0  0  0  0  0  0  0  0
   10.7098   20.3654   35.0714 C   0  0  2  0  0  0  0  0  0  0  0  0
    9.0872   18.1076   31.8364 N   0  0  0  0  0  0  0  0  0  0  0  0
   12.1392   20.1437   37.0108 O   0  0  0  0  0  0  0  0  0  0  0  0
   11.6093   21.0907   36.0800 C   0  0  1  0  0  0  0  0  0  0  0  0
    9.6169   20.6224   32.8798 O   0  0  0  0  0  0  0  0  0  0  0  0
   12.7708   21.7962   35.3759 C   0  0  1  0  0  0  0  0  0  0  0  0
    7.3441   21.0156   33.3821 O   0  0  0  0  0  0  0  0  0  0  0  0
   12.2343   22.8396   34.3935 C   0  0  0  0  0  0  0  0  0  0  0  0
    6.3501   21.6192   29.8870 O   0  0  0  0  0  0  0  0  0  0  0  0
   11.3674   22.1424   33.3432 C   0  0  1  0  0  0  0  0  0  0  0  0
    7.2244   18.8838   29.8060 O   0  0  0  0  0  0  0  0  0  0  0  0
   10.2402   21.3161   33.9720 C   0  0  2  0  0  0  0  0  0  0  0  0
    8.5234   18.9547   38.5590 O   0  0  0  0  0  0  0  0  0  0  0  0
    8.3631   20.0118   33.2180 C   0  0  1  0  0  0  0  0  0  0  0  0
    9.8581   16.5134   38.4706 O   0  0  0  0  0  0  0  0  0  0  0  0
    7.0753   21.7907   32.2010 C   0  0  2  0  0  0  0  0  0  0  0  0
    6.0029   22.8322   32.5305 C   0  0  0  0  0  0  0  0  0  0  0  0
    6.5912   20.8653   31.0790 C   0  0  2  0  0  0  0  0  0  0  0  0
    7.6644   19.8096   30.8051 C   0  0  1  0  0  0  0  0  0  0  0  0
    7.9845   19.0450   32.0915 C   0  0  1  0  0  0  0  0  0  0  0  0
    8.5932   18.2469   37.3174 C   0  0  2  0  0  0  0  0  0  0  0  0
    8.8189   16.7494   37.5169 C   0  0  1  0  0  0  0  0  0  0  0  0
  3  1  1  0  0  0  0
  4  1  1  6  0  0  0
  4  6  1  0  0  0  0
  4 31  1  0  0  0  0
  6  7  1  0  0  0  0
  7  9  1  6  0  0  0
  7 30  1  0  0  0  0
 10  9  1  1  0  0  0
 10 13  1  0  0  0  0
 10 21  1  0  0  0  0
 13 12  1  1  0  0  0
 13 15  1  0  0  0  0
 15  2  1  1  0  0  0
 15 17  1  0  0  0  0
 16 25  1  0  0  0  0
 17 19  1  0  0  0  0
 19  5  1  6  0  0  0
 19 21  1  0  0  0  0
 21 14  1  6  0  0  0
 23 14  1  6  0  0  0
 23 16  1  0  0  0  0
 23 29  1  0  0  0  0
 25 26  1  1  0  0  0
 25 27  1  0  0  0  0
 26  8  1  0  0  0  0
 27 18  1  6  0  0  0
 27 28  1  0  0  0  0
 28 20  1  6  0  0  0
 28 29  1  0  0  0  0
 29 11  1  6  0  0  0
 30 22  1  1  0  0  0
 30 31  1  0  0  0  0
 31 24  1  1  0  0  0
M  END
>  <CHROM.1>
64.01979122,-71.79080679,-78.73007868,67.76273518,72.50049874,168.35665840
9.19683283,19.90491971,34.21015830,0.97643213,0.74206997,2.49935571

>  <Name>
2fcz_lig

>  <RI>
3.41297e+07

>  <Rbt.Current_Directory>
/home/itssahil/PROJECTS/Mol_Feturizer/New_Systems/rnas/2fcz

>  <Rbt.Executable>
rbdock ($Id: //depot/dev/client3/rdock/2013.1/src/exe/rbdock.cxx#4 $)

>  <Rbt.Library>
libRbt.so (2013.1, Build901 2013/11/27)

>  <Rbt.Parameter_File>
/export/apps/rDock/src/rDock_2013.1_src/data/scripts/dock_solv.prm

>  <Rbt.Receptor>
prm/pocket_docking_2.prm

>  <SCORE>
-21.4965

>  <SCORE.INTER>
-18.4448

>  <SCORE.INTER.CONST>
1

>  <SCORE.INTER.POLAR>
-1.74266

>  <SCORE.INTER.ROT>
6

>  <SCORE.INTER.SOLV>
16.1163

>  <SCORE.INTER.VDW>
-19.4598

>  <SCORE.INTER.norm>
-0.594995

>  <SCORE.INTRA>
-3.05166

>  <SCORE.INTRA.DIHEDRAL>
-6.87059

>  <SCORE.INTRA.DIHEDRAL.0>
10.8409

>  <SCORE.INTRA.POLAR>
0

>  <SCORE.INTRA.POLAR.0>
0

>  <SCORE.INTRA.REPUL>
0

>  <SCORE.INTRA.REPUL.0>
0

>  <SCORE.INTRA.SOLV>
-1.50774

>  <SCORE.INTRA.SOLV.lig_0>
-80.8302

>  <SCORE.INTRA.VDW>
1.13751

>  <SCORE.INTRA.VDW.0>
-4.23953

>  <SCORE.INTRA.norm>
-0.0984405

>  <SCORE.RESTR>
0

>  <SCORE.RESTR.CAVITY>
0

>  <SCORE.RESTR.norm>
0

>  <SCORE.SYSTEM>
0

>  <SCORE.SYSTEM.CONST>
0

>  <SCORE.SYSTEM.DIHEDRAL>
0

>  <SCORE.SYSTEM.SOLV>
0

>  <SCORE.SYSTEM.norm>
0

>  <SCORE.heavy>
31

>  <SCORE.norm>
-0.693436

>  <RMSD>
0.934

$$$$
2fcz_lig
 OpenBabel11021811433D
libRbt.so/2013.1/901 2013/11/27
 31 33  0  0  0  0  0  0  0  0999 V2000
    7.6773   16.0485   35.7284 C   0  0  0  0  0  0  0  0  0  0  0  0
   13.7625   22.1862   36.9290 N   0  0  0  0  0  0  0  0  0  0  0  0
    8.1189   15.5366   34.4680 O   0  0  0  0  0  0  0  0  0  0  0  0
    8.8778   16.2126   36.6666 C   0  0  1  0  0  0  0  0  0  0  0  0
   11.4470   22.2417   32.6182 N   0  0  0  0  0  0  0  0  0  0  0  0
    9.7985   17.2124   36.1845 O   0  0  0  0  0  0  0  0  0  0  0  0
    9.7199   18.3843   37.0201 C   0  0  1  0  0  0  0  0  0  0  0  0
    5.5656   22.0061   32.5969 N   0  0  0  0  0  0  0  0  0  0  0  0
    9.6688   19.6037   36.2600 O   0  0  0  0  0  0  0  0  0  0  0  0
   10.9175   19.9729   35.6506 C   0  0  2  0  0  0  0  0  0  0  0  0
    9.3887   17.3343   32.4224 N   0  0  0  0  0  0  0  0  0  0  0  0
   12.0753   20.0742   37.7726 O   0  0  0  0  0  0  0  0  0  0  0  0
   11.7144   20.8481   36.6259 C   0  0  1  0  0  0  0  0  0  0  0  0
   10.1270   19.8522   33.3216 O   0  0  0  0  0  0  0  0  0  0  0  0
   12.9887   21.3854   35.9702 C   0  0  1  0  0  0  0  0  0  0  0  0
    7.8860   20.5796   33.4682 O   0  0  0  0  0  0  0  0  0  0  0  0
   12.6326   22.2449   34.7552 C   0  0  0  0  0  0  0  0  0  0  0  0
    7.4393   20.9549   29.8312 O   0  0  0  0  0  0  0  0  0  0  0  0
   11.8746   21.3888   33.7386 C   0  0  1  0  0  0  0  0  0  0  0  0
    7.9264   18.1360   30.0957 O   0  0  0  0  0  0  0  0  0  0  0  0
   10.6381   20.7183   34.3470 C   0  0  2  0  0  0  0  0  0  0  0  0
    8.3827   18.9520   39.0212 O   0  0  0  0  0  0  0  0  0  0  0  0
    8.7674   19.4429   33.5301 C   0  0  1  0  0  0  0  0  0  0  0  0
    9.3763   16.3518   39.0561 O   0  0  0  0  0  0  0  0  0  0  0  0
    7.8806   21.2615   32.2021 C   0  0  2  0  0  0  0  0  0  0  0  0
    6.9309   22.4586   32.2929 C   0  0  0  0  0  0  0  0  0  0  0  0
    7.4189   20.2985   31.1025 C   0  0  2  0  0  0  0  0  0  0  0  0
    8.3604   19.0927   31.0677 C   0  0  1  0  0  0  0  0  0  0  0  0
    8.4042   18.4251   32.4441 C   0  0  1  0  0  0  0  0  0  0  0  0
    8.4167   18.2059   37.8007 C   0  0  2  0  0  0  0  0  0  0  0  0
    8.4270   16.6980   38.0443 C   0  0  1  0  0  0  0  0  0  0  0  0
  3  1  1  0  0  0  0
  4  1  1  6  0  0  0
  4  6  1  0  0  0  0
  4 31  1  0  0  0  0
  6  7  1  0  0  0  0
  7  9  1  6  0  0  0
  7 30  1  0  0  0  0
 10  9  1  1  0  0  0
 10 13  1  0  0  0  0
 10 21  1  0  0  0  0
 13 12  1  1  0  0  0
 13 15  1  0  0  0  0
 15  2  1  1  0  0  0
 15 17  1  0  0  0  0
 16 25  1  0  0  0  0
 17 19  1  0  0  0  0
 19  5  1  6  0  0  0
 19 21  1  0  0  0  0
 21 14  1  6  0  0  0
 23 14  1  6  0  0  0
 23 16  1  0  0  0  0
 23 29  1  0  0  0  0
 25 26  1  1  0  0  0
 25 27  1  0  0  0  0
 26  8  1  0  0  0  0
 27 18  1  6  0  0  0
 27 28  1  0  0  0  0
 28 20  1  6  0  0  0
 28 29  1  0  0  0  0
 29 11  1  6  0  0  0
 30 22  1  1  0  0  0
 30 31  1  0  0  0  0
 31 24  1  1  0  0  0
M  END
>  <CHROM.1>
65.14482131,-73.24357525,-89.62766961,73.22891233,64.49893962,-60.58794941
9.41766264,19.45409034,34.62540415,1.11460199,0.75805423,2.21911712

>  <Name>
2fcz_lig

>  <RI>
3.41297e+07

>  <Rbt.Current_Directory>
/home/itssahil/PROJECTS/Mol_Feturizer/New_Systems/rnas/2fcz

>  <Rbt.Executable>
rbdock ($Id: //depot/dev/client3/rdock/2013.1/src/exe/rbdock.cxx#4 $)

>  <Rbt.Library>
libRbt.so (2013.1, Build901 2013/11/27)

>  <Rbt.Parameter_File>
/export/apps/rDock/src/rDock_2013.1_src/data/scripts/dock_solv.prm

>  <Rbt.Receptor>
prm/pocket_docking_2.prm

>  <SCORE>
-17.6058

>  <SCORE.INTER>
-15.1131

>  <SCORE.INTER.CONST>
1

>  <SCORE.INTER.POLAR>
-1.74755

>  <SCORE.INTER.ROT>
6

>  <SCORE.INTER.SOLV>
21.0514

>  <SCORE.INTER.VDW>
-18.8674

>  <SCORE.INTER.norm>
-0.487519

>  <SCORE.INTRA>
-2.50999

>  <SCORE.INTRA.DIHEDRAL>
-5.33316

>  <SCORE.INTRA.DIHEDRAL.0>
10.8409

>  <SCORE.INTRA.POLAR>
0

>  <SCORE.INTRA.POLAR.0>
0

>  <SCORE.INTRA.REPUL>
0

>  <SCORE.INTRA.REPUL.0>
0

>  <SCORE.INTRA.SOLV>
-0.266197

>  <SCORE.INTRA.SOLV.lig_0>
-80.8302

>  <SCORE.INTRA.VDW>
0.289684

>  <SCORE.INTRA.VDW.0>
-4.23953

>  <SCORE.INTRA.norm>
-0.0809676

>  <SCORE.RESTR>
0.0172988

>  <SCORE.RESTR.CAVITY>
0.0172988

>  <SCORE.RESTR.norm>
0.000558026

>  <SCORE.SYSTEM>
0

>  <SCORE.SYSTEM.CONST>
0

>  <SCORE.SYSTEM.DIHEDRAL>
0

>  <SCORE.SYSTEM.SOLV>
0

>  <SCORE.SYSTEM.norm>
0

>  <SCORE.heavy>
31

>  <SCORE.norm>
-0.567928

>  <RMSD>
0.943

$$$$
2fcz_lig
 OpenBabel11021811433D
libRbt.so/2013.1/901 2013/11/27
 31 33  0  0  0  0  0  0  0  0999 V2000
    7.5703   16.1150   35.7188 C   0  0  0  0  0  0  0  0  0  0  0  0
   13.7752   22.1564   36.9290 N   0  0  0  0  0  0  0  0  0  0  0  0
    7.9612   15.5044   34.4860 O   0  0  0  0  0  0  0  0  0  0  0  0
    8.7881   16.2396   36.6407 C   0  0  1  0  0  0  0  0  0  0  0  0
   11.4697   22.2254   32.6131 N   0  0  0  0  0  0  0  0  0  0  0  0
    9.7261   17.2214   36.1552 O   0  0  0  0  0  0  0  0  0  0  0  0
    9.6888   18.3860   37.0038 C   0  0  1  0  0  0  0  0  0  0  0  0
    5.5544   22.0178   32.5835 N   0  0  0  0  0  0  0  0  0  0  0  0
    9.6568   19.6143   36.2572 O   0  0  0  0  0  0  0  0  0  0  0  0
   10.9105   19.9692   35.6497 C   0  0  2  0  0  0  0  0  0  0  0  0
    9.3736   17.3404   32.4101 N   0  0  0  0  0  0  0  0  0  0  0  0
   12.0647   20.0637   37.7740 O   0  0  0  0  0  0  0  0  0  0  0  0
   11.7143   20.8385   36.6247 C   0  0  1  0  0  0  0  0  0  0  0  0
   10.1238   19.8511   33.3192 O   0  0  0  0  0  0  0  0  0  0  0  0
   12.9953   21.3613   35.9705 C   0  0  1  0  0  0  0  0  0  0  0  0
    7.8856   20.5835   33.4833 O   0  0  0  0  0  0  0  0  0  0  0  0
   12.6506   22.2215   34.7527 C   0  0  0  0  0  0  0  0  0  0  0  0
    7.4183   20.9806   29.8512 O   0  0  0  0  0  0  0  0  0  0  0  0
   11.8861   21.3708   33.7364 C   0  0  1  0  0  0  0  0  0  0  0  0
    7.8996   18.1590   30.0967 O   0  0  0  0  0  0  0  0  0  0  0  0
   10.6415   20.7144   34.3437 C   0  0  2  0  0  0  0  0  0  0  0  0
    8.3955   18.9651   39.0304 O   0  0  0  0  0  0  0  0  0  0  0  0
    8.7645   19.4442   33.5334 C   0  0  1  0  0  0  0  0  0  0  0  0
    9.3248   16.3410   39.0237 O   0  0  0  0  0  0  0  0  0  0  0  0
    7.8745   21.2726   32.2211 C   0  0  2  0  0  0  0  0  0  0  0  0
    6.9285   22.4716   32.3245 C   0  0  0  0  0  0  0  0  0  0  0  0
    7.4038   20.3171   31.1189 C   0  0  2  0  0  0  0  0  0  0  0  0
    8.3419   19.1091   31.0716 C   0  0  1  0  0  0  0  0  0  0  0  0
    8.3922   18.4335   32.4439 C   0  0  1  0  0  0  0  0  0  0  0  0
    8.3931   18.2314   37.8019 C   0  0  2  0  0  0  0  0  0  0  0  0
    8.3696   16.7212   38.0298 C   0  0  1  0  0  0  0  0  0  0  0  0
  3  1  1  0  0  0  0
  4  1  1  6  0  0  0
  4  6  1  0  0  0  0
  4 31  1  0  0  0  0
  6  7  1  0  0  0  0
  7  9  1  6  0  0  0
  7 30  1  0  0  0  0
 10  9  1  1  0  0  0
 10 13  1  0  0  0  0
 10 21  1  0  0  0  0
 13 12  1  1  0  0  0
 13 15  1  0  0  0  0
 15  2  1  1  0  0  0
 15 17  1  0  0  0  0
 16 25  1  0  0  0  0
 17 19  1  0  0  0  0
 19  5  1  6  0  0  0
 19 21  1  0  0  0  0
 21 14  1  6  0  0  0
 23 14  1  6  0  0  0
 23 16  1  0  0  0  0
 23 29  1  0  0  0  0
 25 26  1  1  0  0  0
 25 27  1  0  0  0  0
 26  8  1  0  0  0  0
 27 18  1  6  0  0  0
 27 28  1  0  0  0  0
 28 20  1  6  0  0  0
 28 29  1  0  0  0  0
 29 11  1  6  0  0  0
 30 22  1  1  0  0  0
 30 31  1  0  0  0  0
 31 24  1  1  0  0  0
M  END
>  <CHROM.1>
69.84743718,-74.12464401,-90.50003690,72.56855590,64.26282915,-62.72749165
9.39543216,19.45827422,34.62435695,1.11746719,0.74701499,2.21014949

>  <Name>
2fcz_lig

>  <RI>
3.41297e+07

>  <Rbt.Current_Directory>
/home/itssahil/PROJECTS/Mol_Feturizer/New_Systems/rnas/2fcz

>  <Rbt.Executable>
rbdock ($Id: //depot/dev/client3/rdock/2013.1/src/exe/rbdock.cxx#4 $)

>  <Rbt.Library>
libRbt.so (2013.1, Build901 2013/11/27)

>  <Rbt.Parameter_File>
/export/apps/rDock/src/rDock_2013.1_src/data/scripts/dock_solv.prm

>  <Rbt.Receptor>
prm/pocket_docking_2.prm

>  <SCORE>
-17.5549

>  <SCORE.INTER>
-15.2615

>  <SCORE.INTER.CONST>
1

>  <SCORE.INTER.POLAR>
-1.7432

>  <SCORE.INTER.ROT>
6

>  <SCORE.INTER.SOLV>
21.1619

>  <SCORE.INTER.VDW>
-19.0176

>  <SCORE.INTER.norm>
-0.492306

>  <SCORE.INTRA>
-2.30485

>  <SCORE.INTRA.DIHEDRAL>
-4.87236

>  <SCORE.INTRA.DIHEDRAL.0>
10.8409

>  <SCORE.INTRA.POLAR>
0

>  <SCORE.INTRA.POLAR.0>
0

>  <SCORE.INTRA.REPUL>
0

>  <SCORE.INTRA.REPUL.0>
0

>  <SCORE.INTRA.SOLV>
-0.370769

>  <SCORE.INTRA.SOLV.lig_0>
-80.8302

>  <SCORE.INTRA.VDW>
0.316708

>  <SCORE.INTRA.VDW.0>
-4.23953

>  <SCORE.INTRA.norm>
-0.0743501

>  <SCORE.RESTR>
0.0114022

>  <SCORE.RESTR.CAVITY>
0.0114022

>  <SCORE.RESTR.norm>
0.000367813

>  <SCORE.SYSTEM>
0

>  <SCORE.SYSTEM.CONST>
0

>  <SCORE.SYSTEM.DIHEDRAL>
0

>  <SCORE.SYSTEM.SOLV>
0

>  <SCORE.SYSTEM.norm>
0

>  <SCORE.heavy>
31

>  <SCORE.norm>
-0.566288

>  <RMSD>
0.956

$$$$
2fcz_lig
 OpenBabel11021811433D
libRbt.so/2013.1/901 2013/11/27
 31 33  0  0  0  0  0  0  0  0999 V2000
    8.3140   16.1622   34.8730 C   0  0  0  0  0  0  0  0  0  0  0  0
   13.6704   22.6962   36.1953 N   0  0  0  0  0  0  0  0  0  0  0  0
    7.6725   14.9448   35.2628 O   0  0  0  0  0  0  0  0  0  0  0  0
    9.4827   16.4545   35.8203 C   0  0  1  0  0  0  0  0  0  0  0  0
   10.6943   23.2705   32.3534 N   0  0  0  0  0  0  0  0  0  0  0  0
   10.2036   17.6402   35.4276 O   0  0  0  0  0  0  0  0  0  0  0  0
    9.9334   18.7020   36.3643 C   0  0  1  0  0  0  0  0  0  0  0  0
    5.8378   23.8462   31.4298 N   0  0  0  0  0  0  0  0  0  0  0  0
    9.6544   19.9545   35.7158 O   0  0  0  0  0  0  0  0  0  0  0  0
   10.7696   20.5098   34.9984 C   0  0  2  0  0  0  0  0  0  0  0  0
    9.1003   18.1782   31.8143 N   0  0  0  0  0  0  0  0  0  0  0  0
   12.2460   20.3551   36.9089 O   0  0  0  0  0  0  0  0  0  0  0  0
   11.6685   21.2741   35.9784 C   0  0  1  0  0  0  0  0  0  0  0  0
    9.6231   20.7065   32.8280 O   0  0  0  0  0  0  0  0  0  0  0  0
   12.7933   22.0043   35.2407 C   0  0  1  0  0  0  0  0  0  0  0  0
    7.3557   21.0811   33.3679 O   0  0  0  0  0  0  0  0  0  0  0  0
   12.2053   23.0189   34.2576 C   0  0  0  0  0  0  0  0  0  0  0  0
    6.2935   21.6464   29.8865 O   0  0  0  0  0  0  0  0  0  0  0  0
   11.3373   22.2830   33.2348 C   0  0  1  0  0  0  0  0  0  0  0  0
    7.1938   18.9193   29.8116 O   0  0  0  0  0  0  0  0  0  0  0  0
   10.2487   21.4322   33.8980 C   0  0  2  0  0  0  0  0  0  0  0  0
    8.5519   18.8461   38.4101 O   0  0  0  0  0  0  0  0  0  0  0  0
    8.3818   20.0862   33.1935 C   0  0  1  0  0  0  0  0  0  0  0  0
    9.9901   16.4709   38.2119 O   0  0  0  0  0  0  0  0  0  0  0  0
    7.0581   21.8439   32.1857 C   0  0  2  0  0  0  0  0  0  0  0  0
    5.9813   22.8772   32.5261 C   0  0  0  0  0  0  0  0  0  0  0  0
    6.5634   20.9047   31.0800 C   0  0  2  0  0  0  0  0  0  0  0  0
    7.6421   19.8575   30.7952 C   0  0  1  0  0  0  0  0  0  0  0  0
    7.9929   19.1065   32.0817 C   0  0  1  0  0  0  0  0  0  0  0  0
    8.6961   18.2274   37.1280 C   0  0  2  0  0  0  0  0  0  0  0  0
    8.9771   16.7299   37.2363 C   0  0  1  0  0  0  0  0  0  0  0  0
  3  1  1  0  0  0  0
  4  1  1  6  0  0  0
  4  6  1  0  0  0  0
  4 31  1  0  0  0  0
  6  7  1  0  0  0  0
  7  9  1  6  0  0  0
  7 30  1  0  0  0  0
 10  9  1  1  0  0  0
 10 13  1  0  0  0  0
 10 21  1  0  0  0  0
 13 12  1  1  0  0  0
 13 15  1  0  0  0  0
 15  2  1  1  0  0  0
 15 17  1  0  0  0  0
 16 25  1  0  0  0  0
 17 19  1  0  0  0  0
 19  5  1  6  0  0  0
 19 21  1  0  0  0  0
 21 14  1  6  0  0  0
 23 14  1  6  0  0  0
 23 16  1  0  0  0  0
 23 29  1  0  0  0  0
 25 26  1  1  0  0  0
 25 27  1  0  0  0  0
 26  8  1  0  0  0  0
 27 18  1  6  0  0  0
 27 28  1  0  0  0  0
 28 20  1  6  0  0  0
 28 29  1  0  0  0  0
 29 11  1  6  0  0  0
 30 22  1  1  0  0  0
 30 31  1  0  0  0  0
 31 24  1  1  0  0  0
M  END
>  <CHROM.1>
177.14130027,-65.91711346,-83.14635704,68.95670756,71.60841510,168.85005565
9.20891313,19.95966791,34.16274957,1.02532590,0.71576378,2.51827274

>  <Name>
2fcz_lig

>  <RI>
3.41297e+07

>  <Rbt.Current_Directory>
/home/itssahil/PROJECTS/Mol_Feturizer/New_Systems/rnas/2fcz

>  <Rbt.Executable>
rbdock ($Id: //depot/dev/client3/rdock/2013.1/src/exe/rbdock.cxx#4 $)

>  <Rbt.Library>
libRbt.so (2013.1, Build901 2013/11/27)

>  <Rbt.Parameter_File>
/export/apps/rDock/src/rDock_2013.1_src/data/scripts/dock_solv.prm

>  <Rbt.Receptor>
prm/pocket_docking_2.prm

>  <SCORE>
-21.7886

>  <SCORE.INTER>
-18.6339

>  <SCORE.INTER.CONST>
1

>  <SCORE.INTER.POLAR>
-1.77611

>  <SCORE.INTER.ROT>
6

>  <SCORE.INTER.SOLV>
16.2821

>  <SCORE.INTER.VDW>
-19.5296

>  <SCORE.INTER.norm>
-0.601092

>  <SCORE.INTRA>
-3.15498

>  <SCORE.INTRA.DIHEDRAL>
-6.69679

>  <SCORE.INTRA.DIHEDRAL.0>
10.8409

>  <SCORE.INTRA.POLAR>
0

>  <SCORE.INTRA.POLAR.0>
0

>  <SCORE.INTRA.REPUL>
0

>  <SCORE.INTRA.REPUL.0>
0

>  <SCORE.INTRA.SOLV>
-1.85163

>  <SCORE.INTRA.SOLV.lig_0>
-80.8302

>  <SCORE.INTRA.VDW>
1.11923

>  <SCORE.INTRA.VDW.0>
-4.23953

>  <SCORE.INTRA.norm>
-0.101774

>  <SCORE.RESTR>
0.000270417

>  <SCORE.RESTR.CAVITY>
0.000270417

>  <SCORE.RESTR.norm>
8.72312e-06

>  <SCORE.SYSTEM>
0

>  <SCORE.SYSTEM.CONST>
0

>  <SCORE.SYSTEM.DIHEDRAL>
0

>  <SCORE.SYSTEM.SOLV>
0

>  <SCORE.SYSTEM.norm>
0

>  <SCORE.heavy>
31

>  <SCORE.norm>
-0.702857

>  <RMSD>
0.972

$$$$
2fcz_lig
 OpenBabel11021811433D
libRbt.so/2013.1/901 2013/11/27
 31 33  0  0  0  0  0  0  0  0999 V2000
    7.9537   15.7978   35.9135 C   0  0  0  0  0  0  0  0  0  0  0  0
   13.6895   22.2342   36.9029 N   0  0  0  0  0  0  0  0  0  0  0  0
    7.2350   17.0053   35.6469 O   0  0  0  0  0  0  0  0  0  0  0  0
    9.1222   16.0924   36.8601 C   0  0  1  0  0  0  0  0  0  0  0  0
   11.3106   22.2017   32.6266 N   0  0  0  0  0  0  0  0  0  0  0  0
    9.9792   17.1303   36.3424 O   0  0  0  0  0  0  0  0  0  0  0  0
    9.8032   18.3331   37.1170 C   0  0  1  0  0  0  0  0  0  0  0  0
    6.9757   22.9938   32.7860 N   0  0  0  0  0  0  0  0  0  0  0  0
    9.6807   19.5071   36.2962 O   0  0  0  0  0  0  0  0  0  0  0  0
   10.9065   19.9196   35.6682 C   0  0  2  0  0  0  0  0  0  0  0  0
    9.7252   17.0850   32.7468 N   0  0  0  0  0  0  0  0  0  0  0  0
   12.0909   20.0648   37.7730 O   0  0  0  0  0  0  0  0  0  0  0  0
   11.6860   20.8238   36.6310 C   0  0  1  0  0  0  0  0  0  0  0  0
   10.0868   19.7678   33.3512 O   0  0  0  0  0  0  0  0  0  0  0  0
   12.9306   21.4052   35.9563 C   0  0  1  0  0  0  0  0  0  0  0  0
    7.7647   20.1579   33.5201 O   0  0  0  0  0  0  0  0  0  0  0  0
   12.5265   22.2499   34.7459 C   0  0  0  0  0  0  0  0  0  0  0  0
    7.1662   20.0673   29.8867 O   0  0  0  0  0  0  0  0  0  0  0  0
   11.7846   21.3661   33.7412 C   0  0  1  0  0  0  0  0  0  0  0  0
    8.0931   17.4002   30.4162 O   0  0  0  0  0  0  0  0  0  0  0  0
   10.5817   20.6529   34.3683 C   0  0  2  0  0  0  0  0  0  0  0  0
    8.3929   18.9015   39.0671 O   0  0  0  0  0  0  0  0  0  0  0  0
    8.8137   19.1816   33.6593 C   0  0  1  0  0  0  0  0  0  0  0  0
    9.5657   16.3832   39.2468 O   0  0  0  0  0  0  0  0  0  0  0  0
    7.6187   20.6908   32.1924 C   0  0  2  0  0  0  0  0  0  0  0  0
    6.4972   21.7324   32.2018 C   0  0  0  0  0  0  0  0  0  0  0  0
    7.2829   19.5562   31.2180 C   0  0  2  0  0  0  0  0  0  0  0  0
    8.3992   18.5107   31.2656 C   0  0  1  0  0  0  0  0  0  0  0  0
    8.5839   18.0095   32.6998 C   0  0  1  0  0  0  0  0  0  0  0  0
    8.5016   18.1010   37.8860 C   0  0  2  0  0  0  0  0  0  0  0  0
    8.6131   16.6113   38.2048 C   0  0  1  0  0  0  0  0  0  0  0  0
  3  1  1  0  0  0  0
  4  1  1  6  0  0  0
  4  6  1  0  0  0  0
  4 31  1  0  0  0  0
  6  7  1  0  0  0  0
  7  9  1  6  0  0  0
  7 30  1  0  0  0  0
 10  9  1  1  0  0  0
 10 13  1  0  0  0  0
 10 21  1  0  0  0  0
 13 12  1  1  0  0  0
 13 15  1  0  0  0  0
 15  2  1  1  0  0  0
 15 17  1  0  0  0  0
 16 25  1  0  0  0  0
 17 19  1  0  0  0  0
 19  5  1  6  0  0  0
 19 21  1  0  0  0  0
 21 14  1  6  0  0  0
 23 14  1  6  0  0  0
 23 16  1  0  0  0  0
 23 29  1  0  0  0  0
 25 26  1  1  0  0  0
 25 27  1  0  0  0  0
 26  8  1  0  0  0  0
 27 18  1  6  0  0  0
 27 28  1  0  0  0  0
 28 20  1  6  0  0  0
 28 29  1  0  0  0  0
 29 11  1  6  0  0  0
 30 22  1  1  0  0  0
 30 31  1  0  0  0  0
 31 24  1  1  0  0  0
M  END
>  <CHROM.1>
-55.14683562,-72.16582969,-86.32811881,65.96685834,73.76015096,77.40682047
9.43768970,19.32425447,34.75615416,1.09713562,0.77994447,2.18220765

>  <Name>
2fcz_lig

>  <RI>
3.41297e+07

>  <Rbt.Current_Directory>
/home/itssahil/PROJECTS/Mol_Feturizer/New_Systems/rnas/2fcz

>  <Rbt.Executable>
rbdock ($Id: //depot/dev/client3/rdock/2013.1/src/exe/rbdock.cxx#4 $)

>  <Rbt.Library>
libRbt.so (2013.1, Build901 2013/11/27)

>  <Rbt.Parameter_File>
/export/apps/rDock/src/rDock_2013.1_src/data/scripts/dock_solv.prm

>  <Rbt.Receptor>
prm/pocket_docking_2.prm

>  <SCORE>
-19.9667

>  <SCORE.INTER>
-17.3716

>  <SCORE.INTER.CONST>
1

>  <SCORE.INTER.POLAR>
-1.74287

>  <SCORE.INTER.ROT>
6

>  <SCORE.INTER.SOLV>
18.3078

>  <SCORE.INTER.VDW>
-19.4741

>  <SCORE.INTER.norm>
-0.560375

>  <SCORE.INTRA>
-2.60219

>  <SCORE.INTRA.DIHEDRAL>
-4.91077

>  <SCORE.INTRA.DIHEDRAL.0>
10.8409

>  <SCORE.INTRA.POLAR>
0

>  <SCORE.INTRA.POLAR.0>
0

>  <SCORE.INTRA.REPUL>
0

>  <SCORE.INTRA.REPUL.0>
0

>  <SCORE.INTRA.SOLV>
-1.51446

>  <SCORE.INTRA.SOLV.lig_0>
-80.8302

>  <SCORE.INTRA.VDW>
0.610423

>  <SCORE.INTRA.VDW.0>
-4.23953

>  <SCORE.INTRA.norm>
-0.0839416

>  <SCORE.RESTR>
0.00709293

>  <SCORE.RESTR.CAVITY>
0.00709293

>  <SCORE.RESTR.norm>
0.000228804

>  <SCORE.SYSTEM>
0

>  <SCORE.SYSTEM.CONST>
0

>  <SCORE.SYSTEM.DIHEDRAL>
0

>  <SCORE.SYSTEM.SOLV>
0

>  <SCORE.SYSTEM.norm>
0

>  <SCORE.heavy>
31

>  <SCORE.norm>
-0.644088

>  <RMSD>
0.980

$$$$
2fcz_lig
 OpenBabel11021811433D
libRbt.so/2013.1/901 2013/11/27
 31 33  0  0  0  0  0  0  0  0999 V2000
    7.5441   16.0511   35.8049 C   0  0  0  0  0  0  0  0  0  0  0  0
   13.7462   22.1293   36.9333 N   0  0  0  0  0  0  0  0  0  0  0  0
    7.9353   15.4840   34.5516 O   0  0  0  0  0  0  0  0  0  0  0  0
    8.7701   16.1850   36.7146 C   0  0  1  0  0  0  0  0  0  0  0  0
   11.4777   22.1100   32.5973 N   0  0  0  0  0  0  0  0  0  0  0  0
    9.7082   17.1548   36.2056 O   0  0  0  0  0  0  0  0  0  0  0  0
    9.6830   18.3330   37.0357 C   0  0  1  0  0  0  0  0  0  0  0  0
    5.6690   22.0518   32.5442 N   0  0  0  0  0  0  0  0  0  0  0  0
    9.6501   19.5492   36.2697 O   0  0  0  0  0  0  0  0  0  0  0  0
   10.9067   19.9021   35.6669 C   0  0  2  0  0  0  0  0  0  0  0  0
    9.3373   17.2567   32.3919 N   0  0  0  0  0  0  0  0  0  0  0  0
   12.0419   20.0401   37.7991 O   0  0  0  0  0  0  0  0  0  0  0  0
   11.6964   20.7930   36.6338 C   0  0  1  0  0  0  0  0  0  0  0  0
   10.1410   19.7393   33.3322 O   0  0  0  0  0  0  0  0  0  0  0  0
   12.9797   21.3131   35.9818 C   0  0  1  0  0  0  0  0  0  0  0  0
    7.9229   20.5397   33.4434 O   0  0  0  0  0  0  0  0  0  0  0  0
   12.6400   22.1501   34.7466 C   0  0  0  0  0  0  0  0  0  0  0  0
    7.5604   20.9664   29.8027 O   0  0  0  0  0  0  0  0  0  0  0  0
   11.8898   21.2774   33.7385 C   0  0  1  0  0  0  0  0  0  0  0  0
    7.9484   18.1303   30.0461 O   0  0  0  0  0  0  0  0  0  0  0  0
   10.6443   20.6232   34.3462 C   0  0  2  0  0  0  0  0  0  0  0  0
    8.4092   18.9503   39.0633 O   0  0  0  0  0  0  0  0  0  0  0  0
    8.7648   19.3736   33.5100 C   0  0  1  0  0  0  0  0  0  0  0  0
    9.3270   16.3223   39.0912 O   0  0  0  0  0  0  0  0  0  0  0  0
    7.9650   21.2341   32.1848 C   0  0  2  0  0  0  0  0  0  0  0  0
    7.0541   22.4613   32.2702 C   0  0  0  0  0  0  0  0  0  0  0  0
    7.4934   20.2983   31.0662 C   0  0  2  0  0  0  0  0  0  0  0  0
    8.3947   19.0621   31.0366 C   0  0  1  0  0  0  0  0  0  0  0  0
    8.3894   18.3795   32.4063 C   0  0  1  0  0  0  0  0  0  0  0  0
    8.3934   18.1971   37.8468 C   0  0  2  0  0  0  0  0  0  0  0  0
    8.3652   16.6908   38.0992 C   0  0  1  0  0  0  0  0  0  0  0  0
  3  1  1  0  0  0  0
  4  1  1  6  0  0  0
  4  6  1  0  0  0  0
  4 31  1  0  0  0  0
  6  7  1  0  0  0  0
  7  9  1  6  0  0  0
  7 30  1  0  0  0  0
 10  9  1  1  0  0  0
 10 13  1  0  0  0  0
 10 21  1  0  0  0  0
 13 12  1  1  0  0  0
 13 15  1  0  0  0  0
 15  2  1  1  0  0  0
 15 17  1  0  0  0  0
 16 25  1  0  0  0  0
 17 19  1  0  0  0  0
 19  5  1  6  0  0  0
 19 21  1  0  0  0  0
 21 14  1  6  0  0  0
 23 14  1  6  0  0  0
 23 16  1  0  0  0  0
 23 29  1  0  0  0  0
 25 26  1  1  0  0  0
 25 27  1  0  0  0  0
 26  8  1  0  0  0  0
 27 18  1  6  0  0  0
 27 28  1  0  0  0  0
 28 20  1  6  0  0  0
 28 29  1  0  0  0  0
 29 11  1  6  0  0  0
 30 22  1  1  0  0  0
 30 31  1  0  0  0  0
 31 24  1  1  0  0  0
M  END
>  <CHROM.1>
66.79825442,-75.23787741,-90.58852724,75.14412648,62.00343975,-60.53322030
9.41199219,19.41064273,34.62991584,1.16205160,0.75738952,2.19218893

>  <Name>
2fcz_lig

>  <RI>
3.41297e+07

>  <Rbt.Current_Directory>
/home/itssahil/PROJECTS/Mol_Feturizer/New_Systems/rnas/2fcz

>  <Rbt.Executable>
rbdock ($Id: //depot/dev/client3/rdock/2013.1/src/exe/rbdock.cxx#4 $)

>  <Rbt.Library>
libRbt.so (2013.1, Build901 2013/11/27)

>  <Rbt.Parameter_File>
/export/apps/rDock/src/rDock_2013.1_src/data/scripts/dock_solv.prm

>  <Rbt.Receptor>
prm/pocket_docking_2.prm

>  <SCORE>
-17.5572

>  <SCORE.INTER>
-15.3834

>  <SCORE.INTER.CONST>
1

>  <SCORE.INTER.POLAR>
-1.79792

>  <SCORE.INTER.ROT>
6

>  <SCORE.INTER.SOLV>
20.7049

>  <SCORE.INTER.VDW>
-18.7642

>  <SCORE.INTER.norm>
-0.49624

>  <SCORE.INTRA>
-2.18854

>  <SCORE.INTRA.DIHEDRAL>
-4.67098

>  <SCORE.INTRA.DIHEDRAL.0>
10.8409

>  <SCORE.INTRA.POLAR>
0

>  <SCORE.INTRA.POLAR.0>
0

>  <SCORE.INTRA.REPUL>
0

>  <SCORE.INTRA.REPUL.0>
0

>  <SCORE.INTRA.SOLV>
-0.389249

>  <SCORE.INTRA.SOLV.lig_0>
-80.8302

>  <SCORE.INTRA.VDW>
0.341573

>  <SCORE.INTRA.VDW.0>
-4.23953

>  <SCORE.INTRA.norm>
-0.0705981

>  <SCORE.RESTR>
0.0147565

>  <SCORE.RESTR.CAVITY>
0.0147565

>  <SCORE.RESTR.norm>
0.000476015

>  <SCORE.SYSTEM>
0

>  <SCORE.SYSTEM.CONST>
0

>  <SCORE.SYSTEM.DIHEDRAL>
0

>  <SCORE.SYSTEM.SOLV>
0

>  <SCORE.SYSTEM.norm>
0

>  <SCORE.heavy>
31

>  <SCORE.norm>
-0.566362

>  <RMSD>
0.991

$$$$
2fcz_lig
 OpenBabel11021811433D
libRbt.so/2013.1/901 2013/11/27
 31 33  0  0  0  0  0  0  0  0999 V2000
    7.9706   15.7965   35.2236 C   0  0  0  0  0  0  0  0  0  0  0  0
   13.5030   22.2314   36.5928 N   0  0  0  0  0  0  0  0  0  0  0  0
    8.4124   15.3644   33.9339 O   0  0  0  0  0  0  0  0  0  0  0  0
    9.1841   16.1143   36.1038 C   0  0  1  0  0  0  0  0  0  0  0  0
   10.8055   23.0471   32.5921 N   0  0  0  0  0  0  0  0  0  0  0  0
    9.9380   17.2310   35.5896 O   0  0  0  0  0  0  0  0  0  0  0  0
    9.7460   18.3770   36.4425 C   0  0  1  0  0  0  0  0  0  0  0  0
    5.9001   23.6827   31.6016 N   0  0  0  0  0  0  0  0  0  0  0  0
    9.4948   19.5830   35.7010 O   0  0  0  0  0  0  0  0  0  0  0  0
   10.6637   20.1556   35.0906 C   0  0  2  0  0  0  0  0  0  0  0  0
    9.2352   18.0400   31.6160 N   0  0  0  0  0  0  0  0  0  0  0  0
   12.0033   19.8807   37.0866 O   0  0  0  0  0  0  0  0  0  0  0  0
   11.5028   20.8548   36.1674 C   0  0  1  0  0  0  0  0  0  0  0  0
    9.6717   20.4802   32.8603 O   0  0  0  0  0  0  0  0  0  0  0  0
   12.6848   21.6029   35.5465 C   0  0  1  0  0  0  0  0  0  0  0  0
    7.3790   20.7714   33.3416 O   0  0  0  0  0  0  0  0  0  0  0  0
   12.1787   22.6752   34.5791 C   0  0  0  0  0  0  0  0  0  0  0  0
    6.4369   21.6157   29.8822 O   0  0  0  0  0  0  0  0  0  0  0  0
   11.3737   22.0061   33.4633 C   0  0  1  0  0  0  0  0  0  0  0  0
    7.3911   18.9196   29.6110 O   0  0  0  0  0  0  0  0  0  0  0  0
   10.2314   21.1407   34.0063 C   0  0  2  0  0  0  0  0  0  0  0  0
    8.4474   18.7493   38.5137 O   0  0  0  0  0  0  0  0  0  0  0  0
    8.4296   19.8113   33.1233 C   0  0  1  0  0  0  0  0  0  0  0  0
    9.7791   16.3052   38.4675 O   0  0  0  0  0  0  0  0  0  0  0  0
    7.1112   21.6277   32.2178 C   0  0  2  0  0  0  0  0  0  0  0  0
    6.0030   22.6110   32.6026 C   0  0  0  0  0  0  0  0  0  0  0  0
    6.6761   20.7789   31.0179 C   0  0  2  0  0  0  0  0  0  0  0  0
    7.7845   19.7770   30.6873 C   0  0  1  0  0  0  0  0  0  0  0  0
    8.1012   18.9244   31.9181 C   0  0  1  0  0  0  0  0  0  0  0  0
    8.5191   18.0216   37.2838 C   0  0  2  0  0  0  0  0  0  0  0  0
    8.7424   16.5272   37.5078 C   0  0  1  0  0  0  0  0  0  0  0  0
  3  1  1  0  0  0  0
  4  1  1  6  0  0  0
  4  6  1  0  0  0  0
  4 31  1  0  0  0  0
  6  7  1  0  0  0  0
  7  9  1  6  0  0  0
  7 30  1  0  0  0  0
 10  9  1  1  0  0  0
 10 13  1  0  0  0  0
 10 21  1  0  0  0  0
 13 12  1  1  0  0  0
 13 15  1  0  0  0  0
 15  2  1  1  0  0  0
 15 17  1  0  0  0  0
 16 25  1  0  0  0  0
 17 19  1  0  0  0  0
 19  5  1  6  0  0  0
 19 21  1  0  0  0  0
 21 14  1  6  0  0  0
 23 14  1  6  0  0  0
 23 16  1  0  0  0  0
 23 29  1  0  0  0  0
 25 26  1  1  0  0  0
 25 27  1  0  0  0  0
 26  8  1  0  0  0  0
 27 18  1  6  0  0  0
 27 28  1  0  0  0  0
 28 20  1  6  0  0  0
 28 29  1  0  0  0  0
 29 11  1  6  0  0  0
 30 22  1  1  0  0  0
 30 31  1  0  0  0  0
 31 24  1  1  0  0  0
M  END
>  <CHROM.1>
64.74878178,-76.17541768,-75.86822568,66.30084926,70.60271013,167.72237869
9.18496405,19.72735657,34.21498622,1.00992057,0.77405472,2.50291166

>  <Name>
2fcz_lig

>  <RI>
2.29611e+07

>  <Rbt.Current_Directory>
/home/itssahil/PROJECTS/Mol_Feturizer/New_Systems/rnas/2fcz

>  <Rbt.Executable>
rbdock ($Id: //depot/dev/client3/rdock/2013.1/src/exe/rbdock.cxx#4 $)

>  <Rbt.Library>
libRbt.so (2013.1, Build901 2013/11/27)

>  <Rbt.Parameter_File>
/export/apps/rDock/src/rDock_2013.1_src/data/scripts/dock_solv.prm

>  <Rbt.Receptor>
prm/pocket_docking_3.prm

>  <SCORE>
-21.6629

>  <SCORE.INTER>
-18.5533

>  <SCORE.INTER.CONST>
1

>  <SCORE.INTER.POLAR>
-1.75743

>  <SCORE.INTER.ROT>
6

>  <SCORE.INTER.SOLV>
16.7832

>  <SCORE.INTER.VDW>
-19.7051

>  <SCORE.INTER.norm>
-0.598493

>  <SCORE.INTRA>
-3.10965

>  <SCORE.INTRA.DIHEDRAL>
-6.97699

>  <SCORE.INTRA.DIHEDRAL.0>
10.8409

>  <SCORE.INTRA.POLAR>
0

>  <SCORE.INTRA.POLAR.0>
0

>  <SCORE.INTRA.REPUL>
0

>  <SCORE.INTRA.REPUL.0>
0

>  <SCORE.INTRA.SOLV>
-2.17144

>  <SCORE.INTRA.SOLV.lig_0>
-80.8302

>  <SCORE.INTRA.VDW>
1.46456

>  <SCORE.INTRA.VDW.0>
-4.23953

>  <SCORE.INTRA.norm>
-0.100311

>  <SCORE.RESTR>
0

>  <SCORE.RESTR.CAVITY>
0

>  <SCORE.RESTR.norm>
0

>  <SCORE.SYSTEM>
0

>  <SCORE.SYSTEM.CONST>
0

>  <SCORE.SYSTEM.DIHEDRAL>
0

>  <SCORE.SYSTEM.SOLV>
0

>  <SCORE.SYSTEM.norm>
0

>  <SCORE.heavy>
31

>  <SCORE.norm>
-0.698804

>  <RMSD>
0.994

$$$$
2fcz_lig
 OpenBabel11021811433D
libRbt.so/2013.1/901 2013/11/27
 31 33  0  0  0  0  0  0  0  0999 V2000
    8.5860   16.2907   37.2588 C   0  0  0  0  0  0  0  0  0  0  0  0
   14.0631   23.0148   35.9265 N   0  0  0  0  0  0  0  0  0  0  0  0
    8.0035   17.5897   37.3948 O   0  0  0  0  0  0  0  0  0  0  0  0
   10.1081   16.4192   37.1354 C   0  0  1  0  0  0  0  0  0  0  0  0
   10.6630   22.9820   32.4072 N   0  0  0  0  0  0  0  0  0  0  0  0
   10.4829   17.3056   36.0614 O   0  0  0  0  0  0  0  0  0  0  0  0
   11.0029   18.5338   36.6081 C   0  0  1  0  0  0  0  0  0  0  0  0
    5.9550   22.8789   31.3072 N   0  0  0  0  0  0  0  0  0  0  0  0
   10.4740   19.6992   35.9528 O   0  0  0  0  0  0  0  0  0  0  0  0
   11.4159   20.3793   35.1058 C   0  0  2  0  0  0  0  0  0  0  0  0
    9.7099   17.6384   32.4060 N   0  0  0  0  0  0  0  0  0  0  0  0
   13.0836   20.5244   36.8526 O   0  0  0  0  0  0  0  0  0  0  0  0
   12.2846   21.3082   35.9631 C   0  0  1  0  0  0  0  0  0  0  0  0
   10.0401   20.3124   33.0646 O   0  0  0  0  0  0  0  0  0  0  0  0
   13.2075   22.1617   35.0902 C   0  0  1  0  0  0  0  0  0  0  0  0
    7.7548   20.5803   33.5918 O   0  0  0  0  0  0  0  0  0  0  0  0
   12.3786   23.0361   34.1468 C   0  0  0  0  0  0  0  0  0  0  0  0
    6.6231   20.5904   30.0865 O   0  0  0  0  0  0  0  0  0  0  0  0
   11.5317   22.1380   33.2429 C   0  0  1  0  0  0  0  0  0  0  0  0
    7.7348   17.9554   30.3583 O   0  0  0  0  0  0  0  0  0  0  0  0
   10.6548   21.1672   34.0414 C   0  0  2  0  0  0  0  0  0  0  0  0
   11.3619   19.3427   38.9172 O   0  0  0  0  0  0  0  0  0  0  0  0
    8.8545   19.6530   33.5323 C   0  0  1  0  0  0  0  0  0  0  0  0
   12.0823   16.6784   38.5541 O   0  0  0  0  0  0  0  0  0  0  0  0
    7.3883   21.1526   32.3244 C   0  0  2  0  0  0  0  0  0  0  0  0
    6.2363   22.1362   32.5443 C   0  0  0  0  0  0  0  0  0  0  0  0
    6.9602   20.0383   31.3628 C   0  0  2  0  0  0  0  0  0  0  0  0
    8.1158   19.0486   31.1999 C   0  0  1  0  0  0  0  0  0  0  0  0
    8.5351   18.5061   32.5681 C   0  0  1  0  0  0  0  0  0  0  0  0
   10.5571   18.5156   38.0711 C   0  0  2  0  0  0  0  0  0  0  0  0
   10.7050   17.0318   38.4024 C   0  0  1  0  0  0  0  0  0  0  0  0
  3  1  1  0  0  0  0
  4  1  1  1  0  0  0
  4  6  1  0  0  0  0
  4 31  1  0  0  0  0
  6  7  1  0  0  0  0
  7  9  1  6  0  0  0
  7 30  1  0  0  0  0
 10  9  1  1  0  0  0
 10 13  1  0  0  0  0
 10 21  1  0  0  0  0
 13 12  1  1  0  0  0
 13 15  1  0  0  0  0
 15  2  1  1  0  0  0
 15 17  1  0  0  0  0
 16 25  1  0  0  0  0
 17 19  1  0  0  0  0
 19  5  1  1  0  0  0
 19 21  1  0  0  0  0
 21 14  1  6  0  0  0
 23 14  1  6  0  0  0
 23 16  1  0  0  0  0
 23 29  1  0  0  0  0
 25 26  1  1  0  0  0
 25 27  1  0  0  0  0
 26  8  1  0  0  0  0
 27 18  1  6  0  0  0
 27 28  1  0  0  0  0
 28 20  1  6  0  0  0
 28 29  1  0  0  0  0
 29 11  1  6  0  0  0
 30 22  1  1  0  0  0
 30 31  1  0  0  0  0
 31 24  1  6  0  0  0
M  END
>  <CHROM.1>
-54.68888682,-107.84006592,-82.84970923,75.85299054,74.71224937,172.23098439
9.87663955,19.79480804,34.58567127,0.84990989,0.67804859,2.41782867

>  <Name>
2fcz_lig

>  <RI>
3.41297e+07

>  <Rbt.Current_Directory>
/home/itssahil/PROJECTS/Mol_Feturizer/New_Systems/rnas/2fcz

>  <Rbt.Executable>
rbdock ($Id: //depot/dev/client3/rdock/2013.1/src/exe/rbdock.cxx#4 $)

>  <Rbt.Library>
libRbt.so (2013.1, Build901 2013/11/27)

>  <Rbt.Parameter_File>
/export/apps/rDock/src/rDock_2013.1_src/data/scripts/dock_solv.prm

>  <Rbt.Receptor>
prm/pocket_docking_2.prm

>  <SCORE>
-16.5448

>  <SCORE.INTER>
-18.0245

>  <SCORE.INTER.CONST>
1

>  <SCORE.INTER.POLAR>
-1.93404

>  <SCORE.INTER.ROT>
6

>  <SCORE.INTER.SOLV>
14.4577

>  <SCORE.INTER.VDW>
-17.9888

>  <SCORE.INTER.norm>
-0.581436

>  <SCORE.INTRA>
0.803231

>  <SCORE.INTRA.DIHEDRAL>
0.466477

>  <SCORE.INTRA.DIHEDRAL.0>
10.8409

>  <SCORE.INTRA.POLAR>
0

>  <SCORE.INTRA.POLAR.0>
0

>  <SCORE.INTRA.REPUL>
0

>  <SCORE.INTRA.REPUL.0>
0

>  <SCORE.INTRA.SOLV>
-0.892637

>  <SCORE.INTRA.SOLV.lig_0>
-80.8302

>  <SCORE.INTRA.VDW>
1.01631

>  <SCORE.INTRA.VDW.0>
-4.23953

>  <SCORE.INTRA.norm>
0.0259107

>  <SCORE.RESTR>
0.676487

>  <SCORE.RESTR.CAVITY>
0.676487

>  <SCORE.RESTR.norm>
0.0218222

>  <SCORE.SYSTEM>
0

>  <SCORE.SYSTEM.CONST>
0

>  <SCORE.SYSTEM.DIHEDRAL>
0

>  <SCORE.SYSTEM.SOLV>
0

>  <SCORE.SYSTEM.norm>
0

>  <SCORE.heavy>
31

>  <SCORE.norm>
-0.533703

>  <RMSD>
1.004

$$$$
2fcz_lig
 OpenBabel11021811433D
libRbt.so/2013.1/901 2013/11/27
 31 33  0  0  0  0  0  0  0  0999 V2000
    7.5384   15.9632   35.8768 C   0  0  0  0  0  0  0  0  0  0  0  0
   13.6288   22.1792   36.9590 N   0  0  0  0  0  0  0  0  0  0  0  0
    7.9200   15.4497   34.5977 O   0  0  0  0  0  0  0  0  0  0  0  0
    8.7812   16.1230   36.7591 C   0  0  1  0  0  0  0  0  0  0  0  0
   11.3900   22.1151   32.6080 N   0  0  0  0  0  0  0  0  0  0  0  0
    9.6957   17.0991   36.2201 O   0  0  0  0  0  0  0  0  0  0  0  0
    9.6723   18.2860   37.0376 C   0  0  1  0  0  0  0  0  0  0  0  0
    6.6345   22.8325   31.2700 N   0  0  0  0  0  0  0  0  0  0  0  0
    9.6075   19.4932   36.2593 O   0  0  0  0  0  0  0  0  0  0  0  0
   10.8582   19.8816   35.6661 C   0  0  2  0  0  0  0  0  0  0  0  0
    9.6168   17.1192   32.4589 N   0  0  0  0  0  0  0  0  0  0  0  0
   11.9753   20.0421   37.8062 O   0  0  0  0  0  0  0  0  0  0  0  0
   11.6175   20.7898   36.6413 C   0  0  1  0  0  0  0  0  0  0  0  0
   10.1123   19.7069   33.3258 O   0  0  0  0  0  0  0  0  0  0  0  0
   12.8907   21.3462   35.9996 C   0  0  1  0  0  0  0  0  0  0  0  0
    7.8135   20.1844   33.5708 O   0  0  0  0  0  0  0  0  0  0  0  0
   12.5368   22.1784   34.7651 C   0  0  0  0  0  0  0  0  0  0  0  0
    7.1701   20.4922   29.9570 O   0  0  0  0  0  0  0  0  0  0  0  0
   11.8168   21.2896   33.7491 C   0  0  1  0  0  0  0  0  0  0  0  0
    7.9752   17.7451   30.1988 O   0  0  0  0  0  0  0  0  0  0  0  0
   10.5852   20.6002   34.3462 C   0  0  2  0  0  0  0  0  0  0  0  0
    8.4329   18.9094   39.0847 O   0  0  0  0  0  0  0  0  0  0  0  0
    8.8164   19.1517   33.5935 C   0  0  1  0  0  0  0  0  0  0  0  0
    9.3856   16.2940   39.1219 O   0  0  0  0  0  0  0  0  0  0  0  0
    7.6779   20.8560   32.3064 C   0  0  2  0  0  0  0  0  0  0  0  0
    6.6073   21.9419   32.4393 C   0  0  0  0  0  0  0  0  0  0  0  0
    7.2775   19.8432   31.2278 C   0  0  2  0  0  0  0  0  0  0  0  0
    8.3433   18.7480   31.1513 C   0  0  1  0  0  0  0  0  0  0  0  0
    8.5203   18.0954   32.5241 C   0  0  1  0  0  0  0  0  0  0  0  0
    8.4017   18.1425   37.8770 C   0  0  2  0  0  0  0  0  0  0  0  0
    8.3986   16.6389   38.1462 C   0  0  1  0  0  0  0  0  0  0  0  0
  3  1  1  0  0  0  0
  4  1  1  6  0  0  0
  4  6  1  0  0  0  0
  4 31  1  0  0  0  0
  6  7  1  0  0  0  0
  7  9  1  6  0  0  0
  7 30  1  0  0  0  0
 10  9  1  1  0  0  0
 10 13  1  0  0  0  0
 10 21  1  0  0  0  0
 13 12  1  1  0  0  0
 13 15  1  0  0  0  0
 15  2  1  1  0  0  0
 15 17  1  0  0  0  0
 16 25  1  0  0  0  0
 17 19  1  0  0  0  0
 19  5  1  6  0  0  0
 19 21  1  0  0  0  0
 21 14  1  6  0  0  0
 23 14  1  6  0  0  0
 23 16  1  0  0  0  0
 23 29  1  0  0  0  0
 25 26  1  1  0  0  0
 25 27  1  0  0  0  0
 26  8  1  0  0  0  0
 27 18  1  6  0  0  0
 27 28  1  0  0  0  0
 28 20  1  6  0  0  0
 28 29  1  0  0  0  0
 29 11  1  6  0  0  0
 30 22  1  1  0  0  0
 30 31  1  0  0  0  0
 31 24  1  1  0  0  0
M  END
>  <CHROM.1>
63.92215960,-77.37158814,-89.71560138,66.58660366,66.11733615,168.09359731
9.38711163,19.30605187,34.64287042,1.11961800,0.79840488,2.20950221

>  <Name>
2fcz_lig

>  <RI>
3.41297e+07

>  <Rbt.Current_Directory>
/home/itssahil/PROJECTS/Mol_Feturizer/New_Systems/rnas/2fcz

>  <Rbt.Executable>
rbdock ($Id: //depot/dev/client3/rdock/2013.1/src/exe/rbdock.cxx#4 $)

>  <Rbt.Library>
libRbt.so (2013.1, Build901 2013/11/27)

>  <Rbt.Parameter_File>
/export/apps/rDock/src/rDock_2013.1_src/data/scripts/dock_solv.prm

>  <Rbt.Receptor>
prm/pocket_docking_2.prm

>  <SCORE>
-21.7623

>  <SCORE.INTER>
-19.2883

>  <SCORE.INTER.CONST>
1

>  <SCORE.INTER.POLAR>
-1.86881

>  <SCORE.INTER.ROT>
6

>  <SCORE.INTER.SOLV>
14.8318

>  <SCORE.INTER.VDW>
-19.1734

>  <SCORE.INTER.norm>
-0.622202

>  <SCORE.INTRA>
-2.49982

>  <SCORE.INTRA.DIHEDRAL>
-4.83433

>  <SCORE.INTRA.DIHEDRAL.0>
10.8409

>  <SCORE.INTRA.POLAR>
0

>  <SCORE.INTRA.POLAR.0>
0

>  <SCORE.INTRA.REPUL>
0

>  <SCORE.INTRA.REPUL.0>
0

>  <SCORE.INTRA.SOLV>
-1.21662

>  <SCORE.INTRA.SOLV.lig_0>
-80.8302

>  <SCORE.INTRA.VDW>
0.525653

>  <SCORE.INTRA.VDW.0>
-4.23953

>  <SCORE.INTRA.norm>
-0.0806395

>  <SCORE.RESTR>
0.0258282

>  <SCORE.RESTR.CAVITY>
0.0258282

>  <SCORE.RESTR.norm>
0.000833167

>  <SCORE.SYSTEM>
0

>  <SCORE.SYSTEM.CONST>
0

>  <SCORE.SYSTEM.DIHEDRAL>
0

>  <SCORE.SYSTEM.SOLV>
0

>  <SCORE.SYSTEM.norm>
0

>  <SCORE.heavy>
31

>  <SCORE.norm>
-0.702008

>  <RMSD>
1.004

$$$$
2fcz_lig
 OpenBabel11021811433D
libRbt.so/2013.1/901 2013/11/27
 31 33  0  0  0  0  0  0  0  0999 V2000
    8.5540   16.5279   37.0207 C   0  0  0  0  0  0  0  0  0  0  0  0
   14.1538   23.0716   35.4558 N   0  0  0  0  0  0  0  0  0  0  0  0
    7.8943   16.1641   35.8050 O   0  0  0  0  0  0  0  0  0  0  0  0
   10.0647   16.6179   36.7797 C   0  0  1  0  0  0  0  0  0  0  0  0
   10.4707   23.3588   32.2466 N   0  0  0  0  0  0  0  0  0  0  0  0
   10.3793   17.5176   35.6976 O   0  0  0  0  0  0  0  0  0  0  0  0
   10.9758   18.7187   36.2260 C   0  0  1  0  0  0  0  0  0  0  0  0
    5.9777   23.8069   31.4297 N   0  0  0  0  0  0  0  0  0  0  0  0
   10.4308   19.9124   35.6383 O   0  0  0  0  0  0  0  0  0  0  0  0
   11.3281   20.5942   34.7456 C   0  0  2  0  0  0  0  0  0  0  0  0
    9.1206   18.0985   32.0895 N   0  0  0  0  0  0  0  0  0  0  0  0
   13.1424   20.5810   36.3462 O   0  0  0  0  0  0  0  0  0  0  0  0
   12.3080   21.4415   35.5667 C   0  0  1  0  0  0  0  0  0  0  0  0
    9.7832   20.6880   32.8303 O   0  0  0  0  0  0  0  0  0  0  0  0
   13.1923   22.2984   34.6579 C   0  0  1  0  0  0  0  0  0  0  0  0
    7.5732   21.1819   33.4973 O   0  0  0  0  0  0  0  0  0  0  0  0
   12.3278   23.2532   33.8316 C   0  0  0  0  0  0  0  0  0  0  0  0
    6.2671   21.4725   30.0655 O   0  0  0  0  0  0  0  0  0  0  0  0
   11.3670   22.4381   32.9637 C   0  0  1  0  0  0  0  0  0  0  0  0
    7.0887   18.7217   30.1718 O   0  0  0  0  0  0  0  0  0  0  0  0
   10.5170   21.4660   33.7890 C   0  0  2  0  0  0  0  0  0  0  0  0
   11.5384   19.4656   38.5152 O   0  0  0  0  0  0  0  0  0  0  0  0
    8.5573   20.1428   33.3394 C   0  0  1  0  0  0  0  0  0  0  0  0
   12.1510   16.7916   38.0425 O   0  0  0  0  0  0  0  0  0  0  0  0
    7.2072   21.8468   32.2759 C   0  0  2  0  0  0  0  0  0  0  0  0
    6.1861   22.9405   32.5990 C   0  0  0  0  0  0  0  0  0  0  0  0
    6.6068   20.8304   31.2983 C   0  0  2  0  0  0  0  0  0  0  0  0
    7.6337   19.7278   31.0316 C   0  0  1  0  0  0  0  0  0  0  0  0
    8.0608   19.0821   32.3517 C   0  0  1  0  0  0  0  0  0  0  0  0
   10.6461   18.6798   37.7191 C   0  0  2  0  0  0  0  0  0  0  0  0
   10.7768   17.1855   38.0075 C   0  0  1  0  0  0  0  0  0  0  0  0
  3  1  1  0  0  0  0
  4  1  1  1  0  0  0
  4  6  1  0  0  0  0
  4 31  1  0  0  0  0
  6  7  1  0  0  0  0
  7  9  1  6  0  0  0
  7 30  1  0  0  0  0
 10  9  1  1  0  0  0
 10 13  1  0  0  0  0
 10 21  1  0  0  0  0
 13 12  1  6  0  0  0
 13 15  1  0  0  0  0
 15  2  1  1  0  0  0
 15 17  1  0  0  0  0
 16 25  1  0  0  0  0
 17 19  1  0  0  0  0
 19  5  1  1  0  0  0
 19 21  1  0  0  0  0
 21 14  1  6  0  0  0
 23 14  1  6  0  0  0
 23 16  1  0  0  0  0
 23 29  1  0  0  0  0
 25 26  1  1  0  0  0
 25 27  1  0  0  0  0
 26  8  1  0  0  0  0
 27 18  1  6  0  0  0
 27 28  1  0  0  0  0
 28 20  1  6  0  0  0
 28 29  1  0  0  0  0
 29 11  1  6  0  0  0
 30 22  1  1  0  0  0
 30 31  1  0  0  0  0
 31 24  1  6  0  0  0
M  END
>  <CHROM.1>
54.93574433,-108.54409307,-80.82113082,80.50252717,72.59165803,169.29274958
9.73906062,20.11084076,34.27488478,0.83912616,0.61654849,2.53036887

>  <Name>
2fcz_lig

>  <RI>
3.41297e+07

>  <Rbt.Current_Directory>
/home/itssahil/PROJECTS/Mol_Feturizer/New_Systems/rnas/2fcz

>  <Rbt.Executable>
rbdock ($Id: //depot/dev/client3/rdock/2013.1/src/exe/rbdock.cxx#4 $)

>  <Rbt.Library>
libRbt.so (2013.1, Build901 2013/11/27)

>  <Rbt.Parameter_File>
/export/apps/rDock/src/rDock_2013.1_src/data/scripts/dock_solv.prm

>  <Rbt.Receptor>
prm/pocket_docking_2.prm

>  <SCORE>
-16.1093

>  <SCORE.INTER>
-16.9841

>  <SCORE.INTER.CONST>
1

>  <SCORE.INTER.POLAR>
-1.95888

>  <SCORE.INTER.ROT>
6

>  <SCORE.INTER.SOLV>
13.5707

>  <SCORE.INTER.VDW>
-16.9167

>  <SCORE.INTER.norm>
-0.547875

>  <SCORE.INTRA>
0.391987

>  <SCORE.INTRA.DIHEDRAL>
0.802792

>  <SCORE.INTRA.DIHEDRAL.0>
10.8409

>  <SCORE.INTRA.POLAR>
0

>  <SCORE.INTRA.POLAR.0>
0

>  <SCORE.INTRA.REPUL>
0

>  <SCORE.INTRA.REPUL.0>
0

>  <SCORE.INTRA.SOLV>
-1.46817

>  <SCORE.INTRA.SOLV.lig_0>
-80.8302

>  <SCORE.INTRA.VDW>
0.724674

>  <SCORE.INTRA.VDW.0>
-4.23953

>  <SCORE.INTRA.norm>
0.0126447

>  <SCORE.RESTR>
0.482865

>  <SCORE.RESTR.CAVITY>
0.482865

>  <SCORE.RESTR.norm>
0.0155763

>  <SCORE.SYSTEM>
0

>  <SCORE.SYSTEM.CONST>
0

>  <SCORE.SYSTEM.DIHEDRAL>
0

>  <SCORE.SYSTEM.SOLV>
0

>  <SCORE.SYSTEM.norm>
0

>  <SCORE.heavy>
31

>  <SCORE.norm>
-0.519654

>  <RMSD>
1.014

$$$$
2fcz_lig
 OpenBabel11021811433D
libRbt.so/2013.1/901 2013/11/27
 31 33  0  0  0  0  0  0  0  0999 V2000
    7.8885   15.8210   35.1886 C   0  0  0  0  0  0  0  0  0  0  0  0
   13.4537   22.2432   36.5496 N   0  0  0  0  0  0  0  0  0  0  0  0
    8.3305   15.4006   33.8950 O   0  0  0  0  0  0  0  0  0  0  0  0
    9.1022   16.1190   36.0756 C   0  0  1  0  0  0  0  0  0  0  0  0
   10.7408   22.9946   32.5468 N   0  0  0  0  0  0  0  0  0  0  0  0
    9.8635   17.2385   35.5791 O   0  0  0  0  0  0  0  0  0  0  0  0
    9.6765   18.3732   36.4481 C   0  0  1  0  0  0  0  0  0  0  0  0
    5.8775   23.6995   31.5625 N   0  0  0  0  0  0  0  0  0  0  0  0
    9.4338   19.5912   35.7236 O   0  0  0  0  0  0  0  0  0  0  0  0
   10.6017   20.1492   35.0978 C   0  0  2  0  0  0  0  0  0  0  0  0
    9.0955   17.9976   31.6454 N   0  0  0  0  0  0  0  0  0  0  0  0
   11.9493   19.9063   37.0924 O   0  0  0  0  0  0  0  0  0  0  0  0
   11.4476   20.8651   36.1580 C   0  0  1  0  0  0  0  0  0  0  0  0
    9.6006   20.4363   32.8664 O   0  0  0  0  0  0  0  0  0  0  0  0
   12.6290   21.5984   35.5185 C   0  0  1  0  0  0  0  0  0  0  0  0
    7.3178   20.7933   33.3507 O   0  0  0  0  0  0  0  0  0  0  0  0
   12.1218   22.6545   34.5341 C   0  0  0  0  0  0  0  0  0  0  0  0
    6.3893   21.6314   29.8862 O   0  0  0  0  0  0  0  0  0  0  0  0
   11.3098   21.9678   33.4341 C   0  0  1  0  0  0  0  0  0  0  0  0
    7.2701   18.9083   29.6370 O   0  0  0  0  0  0  0  0  0  0  0  0
   10.1674   21.1158   33.9977 C   0  0  2  0  0  0  0  0  0  0  0  0
    8.3759   18.7231   38.5219 O   0  0  0  0  0  0  0  0  0  0  0  0
    8.3417   19.8035   33.1386 C   0  0  1  0  0  0  0  0  0  0  0  0
    9.6935   16.2722   38.4430 O   0  0  0  0  0  0  0  0  0  0  0  0
    7.0700   21.6464   32.2198 C   0  0  2  0  0  0  0  0  0  0  0  0
    5.9897   22.6625   32.5985 C   0  0  0  0  0  0  0  0  0  0  0  0
    6.6091   20.7987   31.0288 C   0  0  2  0  0  0  0  0  0  0  0  0
    7.6893   19.7646   30.7046 C   0  0  1  0  0  0  0  0  0  0  0  0
    7.9864   18.9149   31.9422 C   0  0  1  0  0  0  0  0  0  0  0  0
    8.4459   18.0128   37.2818 C   0  0  2  0  0  0  0  0  0  0  0  0
    8.6600   16.5140   37.4846 C   0  0  1  0  0  0  0  0  0  0  0  0
  3  1  1  0  0  0  0
  4  1  1  6  0  0  0
  4  6  1  0  0  0  0
  4 31  1  0  0  0  0
  6  7  1  0  0  0  0
  7  9  1  6  0  0  0
  7 30  1  0  0  0  0
 10  9  1  1  0  0  0
 10 13  1  0  0  0  0
 10 21  1  0  0  0  0
 13 12  1  1  0  0  0
 13 15  1  0  0  0  0
 15  2  1  1  0  0  0
 15 17  1  0  0  0  0
 16 25  1  0  0  0  0
 17 19  1  0  0  0  0
 19  5  1  6  0  0  0
 19 21  1  0  0  0  0
 21 14  1  6  0  0  0
 23 14  1  6  0  0  0
 23 16  1  0  0  0  0
 23 29  1  0  0  0  0
 25 26  1  1  0  0  0
 25 27  1  0  0  0  0
 26  8  1  0  0  0  0
 27 18  1  6  0  0  0
 27 28  1  0  0  0  0
 28 20  1  6  0  0  0
 28 29  1  0  0  0  0
 29 11  1  6  0  0  0
 30 22  1  1  0  0  0
 30 31  1  0  0  0  0
 31 24  1  1  0  0  0
M  END
>  <CHROM.1>
64.94237155,-74.80353520,-77.87259937,67.73213581,69.36383641,169.87542773
9.11484653,19.72477413,34.20809842,1.01481101,0.77003438,2.50050425

>  <Name>
2fcz_lig

>  <RI>
3.41297e+07

>  <Rbt.Current_Directory>
/home/itssahil/PROJECTS/Mol_Feturizer/New_Systems/rnas/2fcz

>  <Rbt.Executable>
rbdock ($Id: //depot/dev/client3/rdock/2013.1/src/exe/rbdock.cxx#4 $)

>  <Rbt.Library>
libRbt.so (2013.1, Build901 2013/11/27)

>  <Rbt.Parameter_File>
/export/apps/rDock/src/rDock_2013.1_src/data/scripts/dock_solv.prm

>  <Rbt.Receptor>
prm/pocket_docking_2.prm

>  <SCORE>
-21.6213

>  <SCORE.INTER>
-18.4553

>  <SCORE.INTER.CONST>
1

>  <SCORE.INTER.POLAR>
-1.73529

>  <SCORE.INTER.ROT>
6

>  <SCORE.INTER.SOLV>
16.8033

>  <SCORE.INTER.VDW>
-19.7203

>  <SCORE.INTER.norm>
-0.595333

>  <SCORE.INTRA>
-3.17099

>  <SCORE.INTRA.DIHEDRAL>
-7.04955

>  <SCORE.INTRA.DIHEDRAL.0>
10.8409

>  <SCORE.INTRA.POLAR>
0

>  <SCORE.INTRA.POLAR.0>
0

>  <SCORE.INTRA.REPUL>
0

>  <SCORE.INTRA.REPUL.0>
0

>  <SCORE.INTRA.SOLV>
-1.91726

>  <SCORE.INTRA.SOLV.lig_0>
-80.8302

>  <SCORE.INTRA.VDW>
1.31242

>  <SCORE.INTRA.VDW.0>
-4.23953

>  <SCORE.INTRA.norm>
-0.10229

>  <SCORE.RESTR>
0.00500909

>  <SCORE.RESTR.CAVITY>
0.00500909

>  <SCORE.RESTR.norm>
0.000161584

>  <SCORE.SYSTEM>
0

>  <SCORE.SYSTEM.CONST>
0

>  <SCORE.SYSTEM.DIHEDRAL>
0

>  <SCORE.SYSTEM.SOLV>
0

>  <SCORE.SYSTEM.norm>
0

>  <SCORE.heavy>
31

>  <SCORE.norm>
-0.697462

>  <RMSD>
1.042

$$$$
2fcz_lig
 OpenBabel11021811433D
libRbt.so/2013.1/901 2013/11/27
 31 33  0  0  0  0  0  0  0  0999 V2000
    7.8678   15.7556   35.2953 C   0  0  0  0  0  0  0  0  0  0  0  0
   13.4503   22.1659   36.5729 N   0  0  0  0  0  0  0  0  0  0  0  0
    8.2900   15.2941   34.0092 O   0  0  0  0  0  0  0  0  0  0  0  0
    9.0948   16.0755   36.1560 C   0  0  1  0  0  0  0  0  0  0  0  0
   10.7309   22.9940   32.5897 N   0  0  0  0  0  0  0  0  0  0  0  0
    9.8494   17.1807   35.6187 O   0  0  0  0  0  0  0  0  0  0  0  0
    9.6762   18.3381   36.4603 C   0  0  1  0  0  0  0  0  0  0  0  0
    5.8357   23.6824   31.5662 N   0  0  0  0  0  0  0  0  0  0  0  0
    9.4235   19.5369   35.7078 O   0  0  0  0  0  0  0  0  0  0  0  0
   10.5912   20.1037   35.0897 C   0  0  2  0  0  0  0  0  0  0  0  0
    9.0861   18.0049   31.6212 N   0  0  0  0  0  0  0  0  0  0  0  0
   11.9424   19.8226   37.0769 O   0  0  0  0  0  0  0  0  0  0  0  0
   11.4407   20.7989   36.1608 C   0  0  1  0  0  0  0  0  0  0  0  0
    9.5863   20.4326   32.8658 O   0  0  0  0  0  0  0  0  0  0  0  0
   12.6223   21.5412   35.5321 C   0  0  1  0  0  0  0  0  0  0  0  0
    7.3023   20.7828   33.3488 O   0  0  0  0  0  0  0  0  0  0  0  0
   12.1152   22.6157   34.5678 C   0  0  0  0  0  0  0  0  0  0  0  0
    6.3798   21.6521   29.8903 O   0  0  0  0  0  0  0  0  0  0  0  0
   11.2997   21.9504   33.4573 C   0  0  1  0  0  0  0  0  0  0  0  0
    7.2639   18.9323   29.6177 O   0  0  0  0  0  0  0  0  0  0  0  0
   10.1567   21.0906   34.0079 C   0  0  2  0  0  0  0  0  0  0  0  0
    8.4072   18.7439   38.5435 O   0  0  0  0  0  0  0  0  0  0  0  0
    8.3275   19.7961   33.1296 C   0  0  1  0  0  0  0  0  0  0  0  0
    9.7216   16.2902   38.5093 O   0  0  0  0  0  0  0  0  0  0  0  0
    7.0558   21.6461   32.2254 C   0  0  2  0  0  0  0  0  0  0  0  0
    5.9737   22.6576   32.6112 C   0  0  0  0  0  0  0  0  0  0  0  0
    6.5981   20.8091   31.0256 C   0  0  2  0  0  0  0  0  0  0  0  0
    7.6800   19.7790   30.6940 C   0  0  1  0  0  0  0  0  0  0  0  0
    7.9755   18.9182   31.9243 C   0  0  1  0  0  0  0  0  0  0  0  0
    8.4580   18.0011   37.3215 C   0  0  2  0  0  0  0  0  0  0  0  0
    8.6741   16.5079   37.5605 C   0  0  1  0  0  0  0  0  0  0  0  0
  3  1  1  0  0  0  0
  4  1  1  6  0  0  0
  4  6  1  0  0  0  0
  4 31  1  0  0  0  0
  6  7  1  0  0  0  0
  7  9  1  6  0  0  0
  7 30  1  0  0  0  0
 10  9  1  1  0  0  0
 10 13  1  0  0  0  0
 10 21  1  0  0  0  0
 13 12  1  1  0  0  0
 13 15  1  0  0  0  0
 15  2  1  1  0  0  0
 15 17  1  0  0  0  0
 16 25  1  0  0  0  0
 17 19  1  0  0  0  0
 19  5  1  6  0  0  0
 19 21  1  0  0  0  0
 21 14  1  6  0  0  0
 23 14  1  6  0  0  0
 23 16  1  0  0  0  0
 23 29  1  0  0  0  0
 25 26  1  1  0  0  0
 25 27  1  0  0  0  0
 26  8  1  0  0  0  0
 27 18  1  6  0  0  0
 27 28  1  0  0  0  0
 28 20  1  6  0  0  0
 28 29  1  0  0  0  0
 29 11  1  6  0  0  0
 30 22  1  1  0  0  0
 30 31  1  0  0  0  0
 31 24  1  1  0  0  0
M  END
>  <CHROM.1>
65.24995383,-76.93016687,-75.20686430,67.65854534,69.96068039,171.50111542
9.10677628,19.70155492,34.22779510,1.02341563,0.76600373,2.49939602

>  <Name>
2fcz_lig

>  <RI>
3.41297e+07

>  <Rbt.Current_Directory>
/home/itssahil/PROJECTS/Mol_Feturizer/New_Systems/rnas/2fcz

>  <Rbt.Executable>
rbdock ($Id: //depot/dev/client3/rdock/2013.1/src/exe/rbdock.cxx#4 $)

>  <Rbt.Library>
libRbt.so (2013.1, Build901 2013/11/27)

>  <Rbt.Parameter_File>
/export/apps/rDock/src/rDock_2013.1_src/data/scripts/dock_solv.prm

>  <Rbt.Receptor>
prm/pocket_docking_2.prm

>  <SCORE>
-21.5929

>  <SCORE.INTER>
-18.4922

>  <SCORE.INTER.CONST>
1

>  <SCORE.INTER.POLAR>
-1.74377

>  <SCORE.INTER.ROT>
6

>  <SCORE.INTER.SOLV>
16.9211

>  <SCORE.INTER.VDW>
-19.756

>  <SCORE.INTER.norm>
-0.596524

>  <SCORE.INTRA>
-3.10065

>  <SCORE.INTRA.DIHEDRAL>
-7.18484

>  <SCORE.INTRA.DIHEDRAL.0>
10.8409

>  <SCORE.INTRA.POLAR>
0

>  <SCORE.INTRA.POLAR.0>
0

>  <SCORE.INTRA.REPUL>
0

>  <SCORE.INTRA.REPUL.0>
0

>  <SCORE.INTRA.SOLV>
-2.15015

>  <SCORE.INTRA.SOLV.lig_0>
-80.8302

>  <SCORE.INTRA.VDW>
1.56684

>  <SCORE.INTRA.VDW.0>
-4.23953

>  <SCORE.INTRA.norm>
-0.100021

>  <SCORE.RESTR>
0

>  <SCORE.RESTR.CAVITY>
0

>  <SCORE.RESTR.norm>
0

>  <SCORE.SYSTEM>
0

>  <SCORE.SYSTEM.CONST>
0

>  <SCORE.SYSTEM.DIHEDRAL>
0

>  <SCORE.SYSTEM.SOLV>
0

>  <SCORE.SYSTEM.norm>
0

>  <SCORE.heavy>
31

>  <SCORE.norm>
-0.696545

>  <RMSD>
1.057

$$$$
2fcz_lig
 OpenBabel11021811433D
libRbt.so/2013.1/901 2013/11/27
 31 33  0  0  0  0  0  0  0  0999 V2000
    7.9299   15.8198   35.7034 C   0  0  0  0  0  0  0  0  0  0  0  0
   13.6601   22.1460   36.9738 N   0  0  0  0  0  0  0  0  0  0  0  0
    7.3132   17.0355   35.2706 O   0  0  0  0  0  0  0  0  0  0  0  0
    8.9920   16.1302   36.7636 C   0  0  1  0  0  0  0  0  0  0  0  0
   11.4964   22.0990   32.5848 N   0  0  0  0  0  0  0  0  0  0  0  0
    9.8951   17.1660   36.3263 O   0  0  0  0  0  0  0  0  0  0  0  0
    9.6350   18.3766   37.0642 C   0  0  1  0  0  0  0  0  0  0  0  0
    6.6765   22.8559   31.4171 N   0  0  0  0  0  0  0  0  0  0  0  0
    9.5953   19.5409   36.2215 O   0  0  0  0  0  0  0  0  0  0  0  0
   10.8641   19.8986   35.6478 C   0  0  2  0  0  0  0  0  0  0  0  0
    9.7312   17.1188   32.4422 N   0  0  0  0  0  0  0  0  0  0  0  0
   11.9470   20.0503   37.8060 O   0  0  0  0  0  0  0  0  0  0  0  0
   11.6254   20.7973   36.6301 C   0  0  1  0  0  0  0  0  0  0  0  0
   10.1554   19.7235   33.2960 O   0  0  0  0  0  0  0  0  0  0  0  0
   12.9211   21.3221   36.0071 C   0  0  1  0  0  0  0  0  0  0  0  0
    7.8468   20.1241   33.5828 O   0  0  0  0  0  0  0  0  0  0  0  0
   12.6066   22.1531   34.7612 C   0  0  0  0  0  0  0  0  0  0  0  0
    7.1266   20.4024   29.9812 O   0  0  0  0  0  0  0  0  0  0  0  0
   11.8856   21.2726   33.7385 C   0  0  1  0  0  0  0  0  0  0  0  0
    8.0279   17.6844   30.2121 O   0  0  0  0  0  0  0  0  0  0  0  0
   10.6294   20.6136   34.3186 C   0  0  2  0  0  0  0  0  0  0  0  0
    8.0265   18.9606   38.8493 O   0  0  0  0  0  0  0  0  0  0  0  0
    8.8841   19.1256   33.5885 C   0  0  1  0  0  0  0  0  0  0  0  0
    9.1822   16.4498   39.1800 O   0  0  0  0  0  0  0  0  0  0  0  0
    7.6654   20.7880   32.3202 C   0  0  2  0  0  0  0  0  0  0  0  0
    6.5615   21.8376   32.4713 C   0  0  0  0  0  0  0  0  0  0  0  0
    7.2793   19.7601   31.2507 C   0  0  2  0  0  0  0  0  0  0  0  0
    8.3797   18.7011   31.1561 C   0  0  1  0  0  0  0  0  0  0  0  0
    8.6039   18.0577   32.5264 C   0  0  1  0  0  0  0  0  0  0  0  0
    8.2608   18.1474   37.6955 C   0  0  2  0  0  0  0  0  0  0  0  0
    8.3433   16.6619   38.0415 C   0  0  1  0  0  0  0  0  0  0  0  0
  3  1  1  0  0  0  0
  4  1  1  6  0  0  0
  4  6  1  0  0  0  0
  4 31  1  0  0  0  0
  6  7  1  0  0  0  0
  7  9  1  6  0  0  0
  7 30  1  0  0  0  0
 10  9  1  1  0  0  0
 10 13  1  0  0  0  0
 10 21  1  0  0  0  0
 13 12  1  1  0  0  0
 13 15  1  0  0  0  0
 15  2  1  1  0  0  0
 15 17  1  0  0  0  0
 16 25  1  0  0  0  0
 17 19  1  0  0  0  0
 19  5  1  6  0  0  0
 19 21  1  0  0  0  0
 21 14  1  6  0  0  0
 23 14  1  6  0  0  0
 23 16  1  0  0  0  0
 23 29  1  0  0  0  0
 25 26  1  1  0  0  0
 25 27  1  0  0  0  0
 26  8  1  0  0  0  0
 27 18  1  6  0  0  0
 27 28  1  0  0  0  0
 28 20  1  6  0  0  0
 28 29  1  0  0  0  0
 29 11  1  6  0  0  0
 30 22  1  1  0  0  0
 30 31  1  0  0  0  0
 31 24  1  1  0  0  0
M  END
>  <CHROM.1>
-50.51536900,-68.17557491,-86.69995429,62.49688965,67.30561351,158.79925231
9.38358547,19.35494944,34.65514707,1.13459774,0.74243332,2.15257254

>  <Name>
2fcz_lig

>  <RI>
2.29611e+07

>  <Rbt.Current_Directory>
/home/itssahil/PROJECTS/Mol_Feturizer/New_Systems/rnas/2fcz

>  <Rbt.Executable>
rbdock ($Id: //depot/dev/client3/rdock/2013.1/src/exe/rbdock.cxx#4 $)

>  <Rbt.Library>
libRbt.so (2013.1, Build901 2013/11/27)

>  <Rbt.Parameter_File>
/export/apps/rDock/src/rDock_2013.1_src/data/scripts/dock_solv.prm

>  <Rbt.Receptor>
prm/pocket_docking_3.prm

>  <SCORE>
-21.4349

>  <SCORE.INTER>
-18.915

>  <SCORE.INTER.CONST>
1

>  <SCORE.INTER.POLAR>
-1.75733

>  <SCORE.INTER.ROT>
6

>  <SCORE.INTER.SOLV>
15.3166

>  <SCORE.INTER.VDW>
-19.4578

>  <SCORE.INTER.norm>
-0.610162

>  <SCORE.INTRA>
-2.51989

>  <SCORE.INTRA.DIHEDRAL>
-5.31029

>  <SCORE.INTRA.DIHEDRAL.0>
10.8409

>  <SCORE.INTRA.POLAR>
0

>  <SCORE.INTRA.POLAR.0>
0

>  <SCORE.INTRA.REPUL>
0

>  <SCORE.INTRA.REPUL.0>
0

>  <SCORE.INTRA.SOLV>
-1.05048

>  <SCORE.INTRA.SOLV.lig_0>
-80.8302

>  <SCORE.INTRA.VDW>
0.660495

>  <SCORE.INTRA.VDW.0>
-4.23953

>  <SCORE.INTRA.norm>
-0.0812868

>  <SCORE.RESTR>
0

>  <SCORE.RESTR.CAVITY>
0

>  <SCORE.RESTR.norm>
0

>  <SCORE.SYSTEM>
0

>  <SCORE.SYSTEM.CONST>
0

>  <SCORE.SYSTEM.DIHEDRAL>
0

>  <SCORE.SYSTEM.SOLV>
0

>  <SCORE.SYSTEM.norm>
0

>  <SCORE.heavy>
31

>  <SCORE.norm>
-0.691448

>  <RMSD>
1.065

$$$$
2fcz_lig
 OpenBabel11021811433D
libRbt.so/2013.1/901 2013/11/27
 31 33  0  0  0  0  0  0  0  0999 V2000
    8.0375   15.8593   35.8303 C   0  0  0  0  0  0  0  0  0  0  0  0
   13.6273   22.1489   36.9826 N   0  0  0  0  0  0  0  0  0  0  0  0
    7.3185   16.9928   35.3366 O   0  0  0  0  0  0  0  0  0  0  0  0
    8.9900   16.3001   36.9470 C   0  0  1  0  0  0  0  0  0  0  0  0
   11.4734   22.2132   32.5890 N   0  0  0  0  0  0  0  0  0  0  0  0
    9.8778   17.3482   36.5077 O   0  0  0  0  0  0  0  0  0  0  0  0
    9.4999   18.5930   37.1283 C   0  0  1  0  0  0  0  0  0  0  0  0
    6.9144   23.0864   32.7432 N   0  0  0  0  0  0  0  0  0  0  0  0
    9.4778   19.6904   36.1996 O   0  0  0  0  0  0  0  0  0  0  0  0
   10.7594   20.0095   35.6316 C   0  0  2  0  0  0  0  0  0  0  0  0
    9.7073   17.1980   32.6533 N   0  0  0  0  0  0  0  0  0  0  0  0
   11.8419   20.1058   37.7932 O   0  0  0  0  0  0  0  0  0  0  0  0
   11.5487   20.8733   36.6231 C   0  0  1  0  0  0  0  0  0  0  0  0
   10.0506   19.8788   33.2769 O   0  0  0  0  0  0  0  0  0  0  0  0
   12.8629   21.3590   36.0074 C   0  0  1  0  0  0  0  0  0  0  0  0
    7.7262   20.2499   33.4565 O   0  0  0  0  0  0  0  0  0  0  0  0
   12.5798   22.2108   34.7680 C   0  0  0  0  0  0  0  0  0  0  0  0
    7.1161   20.1823   29.8246 O   0  0  0  0  0  0  0  0  0  0  0  0
   11.8315   21.3643   33.7363 C   0  0  1  0  0  0  0  0  0  0  0  0
    8.0650   17.5184   30.3307 O   0  0  0  0  0  0  0  0  0  0  0  0
   10.5523   20.7435   34.3081 C   0  0  2  0  0  0  0  0  0  0  0  0
    7.7199   19.2175   38.7273 O   0  0  0  0  0  0  0  0  0  0  0  0
    8.7831   19.2806   33.5848 C   0  0  1  0  0  0  0  0  0  0  0  0
    8.9589   16.8010   39.3398 O   0  0  0  0  0  0  0  0  0  0  0  0
    7.5718   20.7917   32.1334 C   0  0  2  0  0  0  0  0  0  0  0  0
    6.4424   21.8247   32.1545 C   0  0  0  0  0  0  0  0  0  0  0  0
    7.2412   19.6620   31.1516 C   0  0  2  0  0  0  0  0  0  0  0  0
    8.3655   18.6247   31.1876 C   0  0  1  0  0  0  0  0  0  0  0  0
    8.5589   18.1142   32.6172 C   0  0  1  0  0  0  0  0  0  0  0  0
    8.0891   18.3374   37.6612 C   0  0  2  0  0  0  0  0  0  0  0  0
    8.2108   16.8868   38.1241 C   0  0  1  0  0  0  0  0  0  0  0  0
  3  1  1  0  0  0  0
  4  1  1  6  0  0  0
  4  6  1  0  0  0  0
  4 31  1  0  0  0  0
  6  7  1  0  0  0  0
  7  9  1  6  0  0  0
  7 30  1  0  0  0  0
 10  9  1  1  0  0  0
 10 13  1  0  0  0  0
 10 21  1  0  0  0  0
 13 12  1  1  0  0  0
 13 15  1  0  0  0  0
 15  2  1  1  0  0  0
 15 17  1  0  0  0  0
 16 25  1  0  0  0  0
 17 19  1  0  0  0  0
 19  5  1  6  0  0  0
 19 21  1  0  0  0  0
 21 14  1  6  0  0  0
 23 14  1  6  0  0  0
 23 16  1  0  0  0  0
 23 29  1  0  0  0  0
 25 26  1  1  0  0  0
 25 27  1  0  0  0  0
 26  8  1  0  0  0  0
 27 18  1  6  0  0  0
 27 28  1  0  0  0  0
 28 20  1  6  0  0  0
 28 29  1  0  0  0  0
 29 11  1  6  0  0  0
 30 22  1  1  0  0  0
 30 31  1  0  0  0  0
 31 24  1  1  0  0  0
M  END
>  <CHROM.1>
-55.48359306,-63.88234547,-81.27791221,60.16757791,74.68522244,77.56861978
9.31975108,19.44006805,34.70382007,1.14283536,0.75412783,2.10643610

>  <Name>
2fcz_lig

>  <RI>
2.26996e+07

>  <Rbt.Current_Directory>
/home/itssahil/PROJECTS/Mol_Feturizer/New_Systems/rnas/2fcz

>  <Rbt.Executable>
rbdock ($Id: //depot/dev/client3/rdock/2013.1/src/exe/rbdock.cxx#4 $)

>  <Rbt.Library>
libRbt.so (2013.1, Build901 2013/11/27)

>  <Rbt.Parameter_File>
/export/apps/rDock/src/rDock_2013.1_src/data/scripts/dock_solv.prm

>  <Rbt.Receptor>
prm/pocket_docking_4.prm

>  <SCORE>
-20.6384

>  <SCORE.INTER>
-17.6529

>  <SCORE.INTER.CONST>
1

>  <SCORE.INTER.POLAR>
-1.63766

>  <SCORE.INTER.ROT>
6

>  <SCORE.INTER.SOLV>
19.233

>  <SCORE.INTER.VDW>
-20.3207

>  <SCORE.INTER.norm>
-0.569447

>  <SCORE.INTRA>
-2.98559

>  <SCORE.INTRA.DIHEDRAL>
-6.47653

>  <SCORE.INTRA.DIHEDRAL.0>
10.8409

>  <SCORE.INTRA.POLAR>
0

>  <SCORE.INTRA.POLAR.0>
0

>  <SCORE.INTRA.REPUL>
0

>  <SCORE.INTRA.REPUL.0>
0

>  <SCORE.INTRA.SOLV>
-1.81011

>  <SCORE.INTRA.SOLV.lig_0>
-80.8302

>  <SCORE.INTRA.VDW>
1.15774

>  <SCORE.INTRA.VDW.0>
-4.23953

>  <SCORE.INTRA.norm>
-0.0963092

>  <SCORE.RESTR>
0

>  <SCORE.RESTR.CAVITY>
0

>  <SCORE.RESTR.norm>
0

>  <SCORE.SYSTEM>
0

>  <SCORE.SYSTEM.CONST>
0

>  <SCORE.SYSTEM.DIHEDRAL>
0

>  <SCORE.SYSTEM.SOLV>
0

>  <SCORE.SYSTEM.norm>
0

>  <SCORE.heavy>
31

>  <SCORE.norm>
-0.665756

>  <RMSD>
1.072

$$$$
2fcz_lig
 OpenBabel11021811433D
libRbt.so/2013.1/901 2013/11/27
 31 33  0  0  0  0  0  0  0  0999 V2000
    7.6055   16.0743   35.6353 C   0  0  0  0  0  0  0  0  0  0  0  0
   13.6189   22.0906   37.0159 N   0  0  0  0  0  0  0  0  0  0  0  0
    8.2482   15.5181   34.4850 O   0  0  0  0  0  0  0  0  0  0  0  0
    8.6463   16.3407   36.7281 C   0  0  1  0  0  0  0  0  0  0  0  0
   11.5495   22.1408   32.5817 N   0  0  0  0  0  0  0  0  0  0  0  0
    9.6119   17.3290   36.3153 O   0  0  0  0  0  0  0  0  0  0  0  0
    9.3865   18.5557   37.0379 C   0  0  1  0  0  0  0  0  0  0  0  0
    7.0182   23.1437   32.6980 N   0  0  0  0  0  0  0  0  0  0  0  0
    9.4302   19.7148   36.1882 O   0  0  0  0  0  0  0  0  0  0  0  0
   10.7291   19.9970   35.6402 C   0  0  2  0  0  0  0  0  0  0  0  0
    9.6591   17.1798   32.6361 N   0  0  0  0  0  0  0  0  0  0  0  0
   11.7729   20.0997   37.8205 O   0  0  0  0  0  0  0  0  0  0  0  0
   11.5190   20.8569   36.6346 C   0  0  1  0  0  0  0  0  0  0  0  0
   10.0617   19.8488   33.2745 O   0  0  0  0  0  0  0  0  0  0  0  0
   12.8552   21.3043   36.0373 C   0  0  1  0  0  0  0  0  0  0  0  0
    7.7454   20.2755   33.4349 O   0  0  0  0  0  0  0  0  0  0  0  0
   12.6147   22.1445   34.7812 C   0  0  0  0  0  0  0  0  0  0  0  0
    7.1669   20.2381   29.7973 O   0  0  0  0  0  0  0  0  0  0  0  0
   11.8669   21.3004   33.7472 C   0  0  1  0  0  0  0  0  0  0  0  0
    8.0462   17.5497   30.3002 O   0  0  0  0  0  0  0  0  0  0  0  0
   10.5634   20.7166   34.3031 C   0  0  2  0  0  0  0  0  0  0  0  0
    7.7507   19.2283   38.7661 O   0  0  0  0  0  0  0  0  0  0  0  0
    8.7772   19.2803   33.5684 C   0  0  1  0  0  0  0  0  0  0  0  0
    8.7730   16.6673   39.1478 O   0  0  0  0  0  0  0  0  0  0  0  0
    7.6162   20.8265   32.1128 C   0  0  2  0  0  0  0  0  0  0  0  0
    6.5121   21.8866   32.1283 C   0  0  0  0  0  0  0  0  0  0  0  0
    7.2672   19.7093   31.1231 C   0  0  2  0  0  0  0  0  0  0  0  0
    8.3657   18.6449   31.1646 C   0  0  1  0  0  0  0  0  0  0  0  0
    8.5336   18.1237   32.5936 C   0  0  1  0  0  0  0  0  0  0  0  0
    7.9831   18.3969   37.6249 C   0  0  2  0  0  0  0  0  0  0  0  0
    7.9827   16.9115   37.9813 C   0  0  1  0  0  0  0  0  0  0  0  0
  3  1  1  0  0  0  0
  4  1  1  6  0  0  0
  4  6  1  0  0  0  0
  4 31  1  0  0  0  0
  6  7  1  0  0  0  0
  7  9  1  6  0  0  0
  7 30  1  0  0  0  0
 10  9  1  1  0  0  0
 10 13  1  0  0  0  0
 10 21  1  0  0  0  0
 13 12  1  1  0  0  0
 13 15  1  0  0  0  0
 15  2  1  1  0  0  0
 15 17  1  0  0  0  0
 16 25  1  0  0  0  0
 17 19  1  0  0  0  0
 19  5  1  6  0  0  0
 19 21  1  0  0  0  0
 21 14  1  6  0  0  0
 23 14  1  6  0  0  0
 23 16  1  0  0  0  0
 23 29  1  0  0  0  0
 25 26  1  1  0  0  0
 25 27  1  0  0  0  0
 26  8  1  0  0  0  0
 27 18  1  6  0  0  0
 27 28  1  0  0  0  0
 28 20  1  6  0  0  0
 28 29  1  0  0  0  0
 29 11  1  6  0  0  0
 30 22  1  1  0  0  0
 30 31  1  0  0  0  0
 31 24  1  1  0  0  0
M  END
>  <CHROM.1>
63.61780170,-67.38927553,-86.64050833,59.98513479,73.57741859,78.88672498
9.30690730,19.38950837,34.63403091,1.12816214,0.80342527,2.12129586

>  <Name>
2fcz_lig

>  <RI>
2.29611e+07

>  <Rbt.Current_Directory>
/home/itssahil/PROJECTS/Mol_Feturizer/New_Systems/rnas/2fcz

>  <Rbt.Executable>
rbdock ($Id: //depot/dev/client3/rdock/2013.1/src/exe/rbdock.cxx#4 $)

>  <Rbt.Library>
libRbt.so (2013.1, Build901 2013/11/27)

>  <Rbt.Parameter_File>
/export/apps/rDock/src/rDock_2013.1_src/data/scripts/dock_solv.prm

>  <Rbt.Receptor>
prm/pocket_docking_3.prm

>  <SCORE>
-21.3695

>  <SCORE.INTER>
-18.5

>  <SCORE.INTER.CONST>
1

>  <SCORE.INTER.POLAR>
-1.63688

>  <SCORE.INTER.ROT>
6

>  <SCORE.INTER.SOLV>
18.9023

>  <SCORE.INTER.VDW>
-20.7778

>  <SCORE.INTER.norm>
-0.596773

>  <SCORE.INTRA>
-2.86949

>  <SCORE.INTRA.DIHEDRAL>
-5.35128

>  <SCORE.INTRA.DIHEDRAL.0>
10.8409

>  <SCORE.INTRA.POLAR>
0

>  <SCORE.INTRA.POLAR.0>
0

>  <SCORE.INTRA.REPUL>
0

>  <SCORE.INTRA.REPUL.0>
0

>  <SCORE.INTRA.SOLV>
-1.89579

>  <SCORE.INTRA.SOLV.lig_0>
-80.8302

>  <SCORE.INTRA.VDW>
0.754043

>  <SCORE.INTRA.VDW.0>
-4.23953

>  <SCORE.INTRA.norm>
-0.0925643

>  <SCORE.RESTR>
0

>  <SCORE.RESTR.CAVITY>
0

>  <SCORE.RESTR.norm>
0

>  <SCORE.SYSTEM>
0

>  <SCORE.SYSTEM.CONST>
0

>  <SCORE.SYSTEM.DIHEDRAL>
0

>  <SCORE.SYSTEM.SOLV>
0

>  <SCORE.SYSTEM.norm>
0

>  <SCORE.heavy>
31

>  <SCORE.norm>
-0.689337

>  <RMSD>
1.080

$$$$
2fcz_lig
 OpenBabel11021811433D
libRbt.so/2013.1/901 2013/11/27
 31 33  0  0  0  0  0  0  0  0999 V2000
    7.9823   16.0279   35.3550 C   0  0  0  0  0  0  0  0  0  0  0  0
   13.6979   22.1090   36.9978 N   0  0  0  0  0  0  0  0  0  0  0  0
    7.1764   14.8814   35.6407 O   0  0  0  0  0  0  0  0  0  0  0  0
    8.8984   16.3233   36.5475 C   0  0  1  0  0  0  0  0  0  0  0  0
   11.5657   22.2509   32.5954 N   0  0  0  0  0  0  0  0  0  0  0  0
    9.8265   17.3878   36.2560 O   0  0  0  0  0  0  0  0  0  0  0  0
    9.4517   18.5700   36.9906 C   0  0  1  0  0  0  0  0  0  0  0  0
    6.9040   23.0949   32.7365 N   0  0  0  0  0  0  0  0  0  0  0  0
    9.4919   19.7592   36.1836 O   0  0  0  0  0  0  0  0  0  0  0  0
   10.7835   20.0493   35.6227 C   0  0  2  0  0  0  0  0  0  0  0  0
    9.7520   17.2531   32.7019 N   0  0  0  0  0  0  0  0  0  0  0  0
   11.8586   20.1069   37.7895 O   0  0  0  0  0  0  0  0  0  0  0  0
   11.5897   20.8877   36.6224 C   0  0  1  0  0  0  0  0  0  0  0  0
   10.0821   19.9490   33.2644 O   0  0  0  0  0  0  0  0  0  0  0  0
   12.9184   21.3438   36.0149 C   0  0  1  0  0  0  0  0  0  0  0  0
    7.7554   20.3162   33.4197 O   0  0  0  0  0  0  0  0  0  0  0  0
   12.6621   22.2090   34.7791 C   0  0  0  0  0  0  0  0  0  0  0  0
    7.1700   20.1610   29.7864 O   0  0  0  0  0  0  0  0  0  0  0  0
   11.8975   21.3870   33.7396 C   0  0  1  0  0  0  0  0  0  0  0  0
    8.1243   17.5130   30.3615 O   0  0  0  0  0  0  0  0  0  0  0  0
   10.6007   20.7953   34.3025 C   0  0  2  0  0  0  0  0  0  0  0  0
    7.6229   19.0697   38.5782 O   0  0  0  0  0  0  0  0  0  0  0  0
    8.8145   19.3538   33.5779 C   0  0  1  0  0  0  0  0  0  0  0  0
    8.7816   16.5702   38.9771 O   0  0  0  0  0  0  0  0  0  0  0  0
    7.6080   20.8262   32.0832 C   0  0  2  0  0  0  0  0  0  0  0  0
    6.4751   21.8554   32.0724 C   0  0  0  0  0  0  0  0  0  0  0  0
    7.2878   19.6725   31.1261 C   0  0  2  0  0  0  0  0  0  0  0  0
    8.4154   18.6403   31.1940 C   0  0  1  0  0  0  0  0  0  0  0  0
    8.6008   18.1642   32.6365 C   0  0  1  0  0  0  0  0  0  0  0  0
    8.0152   18.2972   37.4394 C   0  0  2  0  0  0  0  0  0  0  0  0
    8.0855   16.8033   37.7499 C   0  0  1  0  0  0  0  0  0  0  0  0
  3  1  1  0  0  0  0
  4  1  1  6  0  0  0
  4  6  1  0  0  0  0
  4 31  1  0  0  0  0
  6  7  1  0  0  0  0
  7  9  1  6  0  0  0
  7 30  1  0  0  0  0
 10  9  1  1  0  0  0
 10 13  1  0  0  0  0
 10 21  1  0  0  0  0
 13 12  1  1  0  0  0
 13 15  1  0  0  0  0
 15  2  1  1  0  0  0
 15 17  1  0  0  0  0
 16 25  1  0  0  0  0
 17 19  1  0  0  0  0
 19  5  1  6  0  0  0
 19 21  1  0  0  0  0
 21 14  1  6  0  0  0
 23 14  1  6  0  0  0
 23 16  1  0  0  0  0
 23 29  1  0  0  0  0
 25 26  1  1  0  0  0
 25 27  1  0  0  0  0
 26  8  1  0  0  0  0
 27 18  1  6  0  0  0
 27 28  1  0  0  0  0
 28 20  1  6  0  0  0
 28 29  1  0  0  0  0
 29 11  1  6  0  0  0
 30 22  1  1  0  0  0
 30 31  1  0  0  0  0
 31 24  1  1  0  0  0
M  END
>  <CHROM.1>
174.13971628,-59.64865638,-87.74174896,58.65968062,77.17306152,72.81941409
9.32138590,19.37094101,34.63364738,1.16861965,0.78340413,2.15417955

>  <Name>
2fcz_lig

>  <RI>
2.76032e+07

>  <Rbt.Current_Directory>
/home/itssahil/PROJECTS/Mol_Feturizer/New_Systems/rnas/2fcz

>  <Rbt.Executable>
rbdock ($Id: //depot/dev/client3/rdock/2013.1/src/exe/rbdock.cxx#4 $)

>  <Rbt.Library>
libRbt.so (2013.1, Build901 2013/11/27)

>  <Rbt.Parameter_File>
/export/apps/rDock/src/rDock_2013.1_src/data/scripts/dock_solv.prm

>  <Rbt.Receptor>
prm/pocket_docking_8.prm

>  <SCORE>
-21.3113

>  <SCORE.INTER>
-18.3716

>  <SCORE.INTER.CONST>
1

>  <SCORE.INTER.POLAR>
-1.64131

>  <SCORE.INTER.ROT>
6

>  <SCORE.INTER.SOLV>
19.0364

>  <SCORE.INTER.VDW>
-20.7222

>  <SCORE.INTER.norm>
-0.592632

>  <SCORE.INTRA>
-2.93971

>  <SCORE.INTRA.DIHEDRAL>
-5.45974

>  <SCORE.INTRA.DIHEDRAL.0>
10.8409

>  <SCORE.INTRA.POLAR>
0

>  <SCORE.INTRA.POLAR.0>
0

>  <SCORE.INTRA.REPUL>
0

>  <SCORE.INTRA.REPUL.0>
0

>  <SCORE.INTRA.SOLV>
-2.53769

>  <SCORE.INTRA.SOLV.lig_0>
-80.8302

>  <SCORE.INTRA.VDW>
1.059

>  <SCORE.INTRA.VDW.0>
-4.23953

>  <SCORE.INTRA.norm>
-0.0948295

>  <SCORE.RESTR>
0

>  <SCORE.RESTR.CAVITY>
0

>  <SCORE.RESTR.norm>
0

>  <SCORE.SYSTEM>
0

>  <SCORE.SYSTEM.CONST>
0

>  <SCORE.SYSTEM.DIHEDRAL>
0

>  <SCORE.SYSTEM.SOLV>
0

>  <SCORE.SYSTEM.norm>
0

>  <SCORE.heavy>
31

>  <SCORE.norm>
-0.687461

>  <RMSD>
1.081

$$$$
2fcz_lig
 OpenBabel11021811433D
libRbt.so/2013.1/901 2013/11/27
 31 33  0  0  0  0  0  0  0  0999 V2000
    7.7815   15.7421   35.3151 C   0  0  0  0  0  0  0  0  0  0  0  0
   13.3958   22.1144   36.6683 N   0  0  0  0  0  0  0  0  0  0  0  0
    8.1904   15.2910   34.0209 O   0  0  0  0  0  0  0  0  0  0  0  0
    9.0174   16.0504   36.1672 C   0  0  1  0  0  0  0  0  0  0  0  0
   10.7083   23.0236   32.6810 N   0  0  0  0  0  0  0  0  0  0  0  0
    9.7771   17.1502   35.6262 O   0  0  0  0  0  0  0  0  0  0  0  0
    9.6197   18.3076   36.4709 C   0  0  1  0  0  0  0  0  0  0  0  0
    5.8117   23.6954   31.5643 N   0  0  0  0  0  0  0  0  0  0  0  0
    9.3714   19.5097   35.7222 O   0  0  0  0  0  0  0  0  0  0  0  0
   10.5448   20.0862   35.1240 C   0  0  2  0  0  0  0  0  0  0  0  0
    9.0913   18.0329   31.6393 N   0  0  0  0  0  0  0  0  0  0  0  0
   11.8802   19.7646   37.1157 O   0  0  0  0  0  0  0  0  0  0  0  0
   11.3872   20.7592   36.2147 C   0  0  1  0  0  0  0  0  0  0  0  0
    9.5574   20.4595   32.8992 O   0  0  0  0  0  0  0  0  0  0  0  0
   12.5747   21.5113   35.6094 C   0  0  1  0  0  0  0  0  0  0  0  0
    7.2644   20.7925   33.3513 O   0  0  0  0  0  0  0  0  0  0  0  0
   12.0768   22.6050   34.6620 C   0  0  0  0  0  0  0  0  0  0  0  0
    6.3848   21.6679   29.8832 O   0  0  0  0  0  0  0  0  0  0  0  0
   11.2687   21.9625   33.5328 C   0  0  1  0  0  0  0  0  0  0  0  0
    7.2912   18.9551   29.6136 O   0  0  0  0  0  0  0  0  0  0  0  0
   10.1201   21.0944   34.0581 C   0  0  2  0  0  0  0  0  0  0  0  0
    8.3693   18.7203   38.5640 O   0  0  0  0  0  0  0  0  0  0  0  0
    8.2994   19.8134   33.1430 C   0  0  1  0  0  0  0  0  0  0  0  0
    9.6632   16.2560   38.5163 O   0  0  0  0  0  0  0  0  0  0  0  0
    7.0280   21.6581   32.2275 C   0  0  2  0  0  0  0  0  0  0  0  0
    5.9336   22.6608   32.6017 C   0  0  0  0  0  0  0  0  0  0  0  0
    6.5929   20.8223   31.0186 C   0  0  2  0  0  0  0  0  0  0  0  0
    7.6863   19.8008   30.6986 C   0  0  1  0  0  0  0  0  0  0  0  0
    7.9704   18.9376   31.9299 C   0  0  1  0  0  0  0  0  0  0  0  0
    8.4050   17.9792   37.3405 C   0  0  2  0  0  0  0  0  0  0  0  0
    8.6106   16.4839   37.5755 C   0  0  1  0  0  0  0  0  0  0  0  0
  3  1  1  0  0  0  0
  4  1  1  6  0  0  0
  4  6  1  0  0  0  0
  4 31  1  0  0  0  0
  6  7  1  0  0  0  0
  7  9  1  6  0  0  0
  7 30  1  0  0  0  0
 10  9  1  1  0  0  0
 10 13  1  0  0  0  0
 10 21  1  0  0  0  0
 13 12  1  1  0  0  0
 13 15  1  0  0  0  0
 15  2  1  1  0  0  0
 15 17  1  0  0  0  0
 16 25  1  0  0  0  0
 17 19  1  0  0  0  0
 19  5  1  6  0  0  0
 19 21  1  0  0  0  0
 21 14  1  6  0  0  0
 23 14  1  6  0  0  0
 23 16  1  0  0  0  0
 23 29  1  0  0  0  0
 25 26  1  1  0  0  0
 25 27  1  0  0  0  0
 26  8  1  0  0  0  0
 27 18  1  6  0  0  0
 27 28  1  0  0  0  0
 28 20  1  6  0  0  0
 28 29  1  0  0  0  0
 29 11  1  6  0  0  0
 30 22  1  1  0  0  0
 30 31  1  0  0  0  0
 31 24  1  1  0  0  0
M  END
>  <CHROM.1>
64.71878121,-78.39432312,-74.28625025,67.30904803,71.13847345,170.98523849
9.06778862,19.69517237,34.25290488,1.03196962,0.77142371,2.49860509

>  <Name>
2fcz_lig

>  <RI>
3.41297e+07

>  <Rbt.Current_Directory>
/home/itssahil/PROJECTS/Mol_Feturizer/New_Systems/rnas/2fcz

>  <Rbt.Executable>
rbdock ($Id: //depot/dev/client3/rdock/2013.1/src/exe/rbdock.cxx#4 $)

>  <Rbt.Library>
libRbt.so (2013.1, Build901 2013/11/27)

>  <Rbt.Parameter_File>
/export/apps/rDock/src/rDock_2013.1_src/data/scripts/dock_solv.prm

>  <Rbt.Receptor>
prm/pocket_docking_2.prm

>  <SCORE>
-21.5788

>  <SCORE.INTER>
-18.6106

>  <SCORE.INTER.CONST>
1

>  <SCORE.INTER.POLAR>
-1.73327

>  <SCORE.INTER.ROT>
6

>  <SCORE.INTER.SOLV>
17.4629

>  <SCORE.INTER.VDW>
-20.0505

>  <SCORE.INTER.norm>
-0.600342

>  <SCORE.INTRA>
-2.96825

>  <SCORE.INTRA.DIHEDRAL>
-6.98482

>  <SCORE.INTRA.DIHEDRAL.0>
10.8409

>  <SCORE.INTRA.POLAR>
0

>  <SCORE.INTRA.POLAR.0>
0

>  <SCORE.INTRA.REPUL>
0

>  <SCORE.INTRA.REPUL.0>
0

>  <SCORE.INTRA.SOLV>
-2.19969

>  <SCORE.INTRA.SOLV.lig_0>
-80.8302

>  <SCORE.INTRA.VDW>
1.62401

>  <SCORE.INTRA.VDW.0>
-4.23953

>  <SCORE.INTRA.norm>
-0.09575

>  <SCORE.RESTR>
0

>  <SCORE.RESTR.CAVITY>
0

>  <SCORE.RESTR.norm>
0

>  <SCORE.SYSTEM>
0

>  <SCORE.SYSTEM.CONST>
0

>  <SCORE.SYSTEM.DIHEDRAL>
0

>  <SCORE.SYSTEM.SOLV>
0

>  <SCORE.SYSTEM.norm>
0

>  <SCORE.heavy>
31

>  <SCORE.norm>
-0.696092

>  <RMSD>
1.085

$$$$
2fcz_lig
 OpenBabel11021811433D
libRbt.so/2013.1/901 2013/11/27
 31 33  0  0  0  0  0  0  0  0999 V2000
    8.5939   16.4015   37.2762 C   0  0  0  0  0  0  0  0  0  0  0  0
   13.7615   23.2487   35.8001 N   0  0  0  0  0  0  0  0  0  0  0  0
    8.4027   15.5149   38.3820 O   0  0  0  0  0  0  0  0  0  0  0  0
   10.0892   16.5159   36.9606 C   0  0  1  0  0  0  0  0  0  0  0  0
   10.3007   23.2593   32.3404 N   0  0  0  0  0  0  0  0  0  0  0  0
   10.3317   17.3850   35.8357 O   0  0  0  0  0  0  0  0  0  0  0  0
   10.9244   18.6160   36.2954 C   0  0  1  0  0  0  0  0  0  0  0  0
    6.3292   23.3678   32.4844 N   0  0  0  0  0  0  0  0  0  0  0  0
   10.3249   19.7769   35.6954 O   0  0  0  0  0  0  0  0  0  0  0  0
   11.2194   20.5458   34.8735 C   0  0  2  0  0  0  0  0  0  0  0  0
    9.6851   17.7988   32.3947 N   0  0  0  0  0  0  0  0  0  0  0  0
   12.9116   20.6682   36.5984 O   0  0  0  0  0  0  0  0  0  0  0  0
   12.0618   21.4636   35.7681 C   0  0  1  0  0  0  0  0  0  0  0  0
    9.8099   20.5313   32.8544 O   0  0  0  0  0  0  0  0  0  0  0  0
   12.9293   22.4060   34.9305 C   0  0  1  0  0  0  0  0  0  0  0  0
    7.4789   20.6944   33.1899 O   0  0  0  0  0  0  0  0  0  0  0  0
   12.0446   23.2934   34.0521 C   0  0  0  0  0  0  0  0  0  0  0  0
    6.6243   20.3617   29.6224 O   0  0  0  0  0  0  0  0  0  0  0  0
   11.2217   22.4100   33.1123 C   0  0  1  0  0  0  0  0  0  0  0  0
    7.8602   17.8310   30.1894 O   0  0  0  0  0  0  0  0  0  0  0  0
   10.4041   21.3569   33.8683 C   0  0  2  0  0  0  0  0  0  0  0  0
   11.5764   19.4521   38.5294 O   0  0  0  0  0  0  0  0  0  0  0  0
    8.6311   19.8365   33.2869 C   0  0  1  0  0  0  0  0  0  0  0  0
   12.2279   16.7774   38.1161 O   0  0  0  0  0  0  0  0  0  0  0  0
    7.1800   21.1425   31.8565 C   0  0  2  0  0  0  0  0  0  0  0  0
    5.9601   22.0656   31.9105 C   0  0  0  0  0  0  0  0  0  0  0  0
    6.8922   19.9324   30.9608 C   0  0  2  0  0  0  0  0  0  0  0  0
    8.1116   19.0080   30.9642 C   0  0  1  0  0  0  0  0  0  0  0  0
    8.4536   18.6006   32.3991 C   0  0  1  0  0  0  0  0  0  0  0  0
   10.6662   18.6206   37.8029 C   0  0  2  0  0  0  0  0  0  0  0  0
   10.8448   17.1401   38.1338 C   0  0  1  0  0  0  0  0  0  0  0  0
  3  1  1  0  0  0  0
  4  1  1  1  0  0  0
  4  6  1  0  0  0  0
  4 31  1  0  0  0  0
  6  7  1  0  0  0  0
  7  9  1  6  0  0  0
  7 30  1  0  0  0  0
 10  9  1  1  0  0  0
 10 13  1  0  0  0  0
 10 21  1  0  0  0  0
 13 12  1  1  0  0  0
 13 15  1  0  0  0  0
 15  2  1  1  0  0  0
 15 17  1  0  0  0  0
 16 25  1  0  0  0  0
 17 19  1  0  0  0  0
 19  5  1  1  0  0  0
 19 21  1  0  0  0  0
 21 14  1  6  0  0  0
 23 14  1  6  0  0  0
 23 16  1  0  0  0  0
 23 29  1  0  0  0  0
 25 26  1  1  0  0  0
 25 27  1  0  0  0  0
 26  8  1  0  0  0  0
 27 18  1  6  0  0  0
 27 28  1  0  0  0  0
 28 20  1  6  0  0  0
 28 29  1  0  0  0  0
 29 11  1  6  0  0  0
 30 22  1  1  0  0  0
 30 31  1  0  0  0  0
 31 24  1  6  0  0  0
M  END
>  <CHROM.1>
179.06650860,-116.24034730,-81.70753807,78.32152724,82.94812295,73.66930852
9.79407370,19.82916713,34.42623872,0.88890449,0.73708944,2.48634602

>  <Name>
2fcz_lig

>  <RI>
3.41297e+07

>  <Rbt.Current_Directory>
/home/itssahil/PROJECTS/Mol_Feturizer/New_Systems/rnas/2fcz

>  <Rbt.Executable>
rbdock ($Id: //depot/dev/client3/rdock/2013.1/src/exe/rbdock.cxx#4 $)

>  <Rbt.Library>
libRbt.so (2013.1, Build901 2013/11/27)

>  <Rbt.Parameter_File>
/export/apps/rDock/src/rDock_2013.1_src/data/scripts/dock_solv.prm

>  <Rbt.Receptor>
prm/pocket_docking_2.prm

>  <SCORE>
-15.8721

>  <SCORE.INTER>
-17.9903

>  <SCORE.INTER.CONST>
1

>  <SCORE.INTER.POLAR>
-1.97897

>  <SCORE.INTER.ROT>
6

>  <SCORE.INTER.SOLV>
16.8656

>  <SCORE.INTER.VDW>
-18.6188

>  <SCORE.INTER.norm>
-0.580331

>  <SCORE.INTRA>
1.49535

>  <SCORE.INTRA.DIHEDRAL>
2.8622

>  <SCORE.INTRA.DIHEDRAL.0>
10.8409

>  <SCORE.INTRA.POLAR>
0

>  <SCORE.INTRA.POLAR.0>
0

>  <SCORE.INTRA.REPUL>
0

>  <SCORE.INTRA.REPUL.0>
0

>  <SCORE.INTRA.SOLV>
-1.43823

>  <SCORE.INTRA.SOLV.lig_0>
-80.8302

>  <SCORE.INTRA.VDW>
0.78336

>  <SCORE.INTRA.VDW.0>
-4.23953

>  <SCORE.INTRA.norm>
0.048237

>  <SCORE.RESTR>
0.62287

>  <SCORE.RESTR.CAVITY>
0.62287

>  <SCORE.RESTR.norm>
0.0200926

>  <SCORE.SYSTEM>
0

>  <SCORE.SYSTEM.CONST>
0

>  <SCORE.SYSTEM.DIHEDRAL>
0

>  <SCORE.SYSTEM.SOLV>
0

>  <SCORE.SYSTEM.norm>
0

>  <SCORE.heavy>
31

>  <SCORE.norm>
-0.512002

>  <RMSD>
1.103

$$$$
2fcz_lig
 OpenBabel11021811433D
libRbt.so/2013.1/901 2013/11/27
 31 33  0  0  0  0  0  0  0  0999 V2000
    7.8944   16.1555   35.2550 C   0  0  0  0  0  0  0  0  0  0  0  0
   13.7005   22.1034   36.9842 N   0  0  0  0  0  0  0  0  0  0  0  0
    7.1023   14.9861   35.4800 O   0  0  0  0  0  0  0  0  0  0  0  0
    8.8045   16.4012   36.4633 C   0  0  1  0  0  0  0  0  0  0  0  0
   11.5018   22.3248   32.6181 N   0  0  0  0  0  0  0  0  0  0  0  0
    9.7464   17.4643   36.2138 O   0  0  0  0  0  0  0  0  0  0  0  0
    9.3790   18.6258   36.9843 C   0  0  1  0  0  0  0  0  0  0  0  0
    6.4596   23.2203   31.4491 N   0  0  0  0  0  0  0  0  0  0  0  0
    9.4384   19.8404   36.2172 O   0  0  0  0  0  0  0  0  0  0  0  0
   10.7262   20.1112   35.6383 C   0  0  2  0  0  0  0  0  0  0  0  0
    9.4546   17.4640   32.4260 N   0  0  0  0  0  0  0  0  0  0  0  0
   11.8364   20.1291   37.7879 O   0  0  0  0  0  0  0  0  0  0  0  0
   11.5639   20.9253   36.6321 C   0  0  1  0  0  0  0  0  0  0  0  0
    9.9857   20.0453   33.2907 O   0  0  0  0  0  0  0  0  0  0  0  0
   12.8912   21.3618   36.0074 C   0  0  1  0  0  0  0  0  0  0  0  0
    7.6997   20.5175   33.6427 O   0  0  0  0  0  0  0  0  0  0  0  0
   12.6317   22.2428   34.7834 C   0  0  0  0  0  0  0  0  0  0  0  0
    6.8940   20.8534   30.0642 O   0  0  0  0  0  0  0  0  0  0  0  0
   11.8353   21.4447   33.7492 C   0  0  1  0  0  0  0  0  0  0  0  0
    7.7122   18.1056   30.2472 O   0  0  0  0  0  0  0  0  0  0  0  0
   10.5366   20.8724   34.3277 C   0  0  2  0  0  0  0  0  0  0  0  0
    7.5436   19.0935   38.5741 O   0  0  0  0  0  0  0  0  0  0  0  0
    8.7038   19.4861   33.6119 C   0  0  1  0  0  0  0  0  0  0  0  0
    8.6717   16.5693   38.8988 O   0  0  0  0  0  0  0  0  0  0  0  0
    7.5067   21.1990   32.3912 C   0  0  2  0  0  0  0  0  0  0  0  0
    6.4420   22.2822   32.5809 C   0  0  0  0  0  0  0  0  0  0  0  0
    7.0592   20.1944   31.3235 C   0  0  2  0  0  0  0  0  0  0  0  0
    8.1217   19.1014   31.1902 C   0  0  1  0  0  0  0  0  0  0  0  0
    8.3610   18.4380   32.5484 C   0  0  1  0  0  0  0  0  0  0  0  0
    7.9361   18.3546   37.4133 C   0  0  2  0  0  0  0  0  0  0  0  0
    7.9877   16.8505   37.6748 C   0  0  1  0  0  0  0  0  0  0  0  0
  3  1  1  0  0  0  0
  4  1  1  6  0  0  0
  4  6  1  0  0  0  0
  4 31  1  0  0  0  0
  6  7  1  0  0  0  0
  7  9  1  6  0  0  0
  7 30  1  0  0  0  0
 10  9  1  1  0  0  0
 10 13  1  0  0  0  0
 10 21  1  0  0  0  0
 13 12  1  1  0  0  0
 13 15  1  0  0  0  0
 15  2  1  1  0  0  0
 15 17  1  0  0  0  0
 16 25  1  0  0  0  0
 17 19  1  0  0  0  0
 19  5  1  6  0  0  0
 19 21  1  0  0  0  0
 21 14  1  6  0  0  0
 23 14  1  6  0  0  0
 23 16  1  0  0  0  0
 23 29  1  0  0  0  0
 25 26  1  1  0  0  0
 25 27  1  0  0  0  0
 26  8  1  0  0  0  0
 27 18  1  6  0  0  0
 27 28  1  0  0  0  0
 28 20  1  6  0  0  0
 28 29  1  0  0  0  0
 29 11  1  6  0  0  0
 30 22  1  1  0  0  0
 30 31  1  0  0  0  0
 31 24  1  1  0  0  0
M  END
>  <CHROM.1>
172.41716196,-57.66547340,-89.35796373,59.47045799,69.37397655,165.36446616
9.19932992,19.53781056,34.61227319,1.16540025,0.72496154,2.22106913

>  <Name>
2fcz_lig

>  <RI>
2.29611e+07

>  <Rbt.Current_Directory>
/home/itssahil/PROJECTS/Mol_Feturizer/New_Systems/rnas/2fcz

>  <Rbt.Executable>
rbdock ($Id: //depot/dev/client3/rdock/2013.1/src/exe/rbdock.cxx#4 $)

>  <Rbt.Library>
libRbt.so (2013.1, Build901 2013/11/27)

>  <Rbt.Parameter_File>
/export/apps/rDock/src/rDock_2013.1_src/data/scripts/dock_solv.prm

>  <Rbt.Receptor>
prm/pocket_docking_3.prm

>  <SCORE>
-22.2505

>  <SCORE.INTER>
-19.4658

>  <SCORE.INTER.CONST>
1

>  <SCORE.INTER.POLAR>
-1.62904

>  <SCORE.INTER.ROT>
6

>  <SCORE.INTER.SOLV>
16.3304

>  <SCORE.INTER.VDW>
-20.5905

>  <SCORE.INTER.norm>
-0.627929

>  <SCORE.INTRA>
-2.78472

>  <SCORE.INTRA.DIHEDRAL>
-5.82575

>  <SCORE.INTRA.DIHEDRAL.0>
10.8409

>  <SCORE.INTRA.POLAR>
0

>  <SCORE.INTRA.POLAR.0>
0

>  <SCORE.INTRA.REPUL>
0

>  <SCORE.INTRA.REPUL.0>
0

>  <SCORE.INTRA.SOLV>
-1.91277

>  <SCORE.INTRA.SOLV.lig_0>
-80.8302

>  <SCORE.INTRA.VDW>
1.08454

>  <SCORE.INTRA.VDW.0>
-4.23953

>  <SCORE.INTRA.norm>
-0.0898298

>  <SCORE.RESTR>
0

>  <SCORE.RESTR.CAVITY>
0

>  <SCORE.RESTR.norm>
0

>  <SCORE.SYSTEM>
0

>  <SCORE.SYSTEM.CONST>
0

>  <SCORE.SYSTEM.DIHEDRAL>
0

>  <SCORE.SYSTEM.SOLV>
0

>  <SCORE.SYSTEM.norm>
0

>  <SCORE.heavy>
31

>  <SCORE.norm>
-0.717759

>  <RMSD>
1.109

$$$$
2fcz_lig
 OpenBabel11021811433D
libRbt.so/2013.1/901 2013/11/27
 31 33  0  0  0  0  0  0  0  0999 V2000
    7.5153   17.3337   36.9502 C   0  0  0  0  0  0  0  0  0  0  0  0
   14.0530   23.0825   35.5408 N   0  0  0  0  0  0  0  0  0  0  0  0
    7.3906   18.7434   37.1568 O   0  0  0  0  0  0  0  0  0  0  0  0
    8.9006   17.0181   36.3758 C   0  0  1  0  0  0  0  0  0  0  0  0
   10.6114   23.5412   32.0922 N   0  0  0  0  0  0  0  0  0  0  0  0
    9.2845   17.9655   35.3586 O   0  0  0  0  0  0  0  0  0  0  0  0
   10.3266   18.8227   35.8656 C   0  0  1  0  0  0  0  0  0  0  0  0
    6.1268   23.6692   32.3358 N   0  0  0  0  0  0  0  0  0  0  0  0
   10.1009   20.2092   35.5593 O   0  0  0  0  0  0  0  0  0  0  0  0
   11.1010   20.7971   34.7102 C   0  0  2  0  0  0  0  0  0  0  0  0
    9.6111   18.1880   32.4127 N   0  0  0  0  0  0  0  0  0  0  0  0
   12.8046   20.6997   36.4254 O   0  0  0  0  0  0  0  0  0  0  0  0
   12.0875   21.5949   35.5719 C   0  0  1  0  0  0  0  0  0  0  0  0
    9.6914   20.9459   32.6965 O   0  0  0  0  0  0  0  0  0  0  0  0
   13.0888   22.3579   34.7015 C   0  0  1  0  0  0  0  0  0  0  0  0
    7.3726   21.0822   33.1175 O   0  0  0  0  0  0  0  0  0  0  0  0
   12.3517   23.3480   33.7970 C   0  0  0  0  0  0  0  0  0  0  0  0
    6.3837   20.5086   29.6160 O   0  0  0  0  0  0  0  0  0  0  0  0
   11.3897   22.5794   32.8890 C   0  0  1  0  0  0  0  0  0  0  0  0
    7.6990   18.0443   30.2871 O   0  0  0  0  0  0  0  0  0  0  0  0
   10.4191   21.6967   33.6812 C   0  0  2  0  0  0  0  0  0  0  0  0
   11.5160   18.9460   38.0301 O   0  0  0  0  0  0  0  0  0  0  0  0
    8.5472   20.2558   33.2197 C   0  0  1  0  0  0  0  0  0  0  0  0
   11.1257   16.3410   37.1294 O   0  0  0  0  0  0  0  0  0  0  0  0
    7.0103   21.4395   31.7725 C   0  0  2  0  0  0  0  0  0  0  0  0
    5.7727   22.3390   31.8196 C   0  0  0  0  0  0  0  0  0  0  0  0
    6.7148   20.1698   30.9662 C   0  0  2  0  0  0  0  0  0  0  0  0
    7.9542   19.2725   30.9763 C   0  0  1  0  0  0  0  0  0  0  0  0
    8.3626   18.9632   32.4184 C   0  0  1  0  0  0  0  0  0  0  0  0
   10.2852   18.6138   37.3802 C   0  0  2  0  0  0  0  0  0  0  0  0
    9.9734   17.1206   37.4600 C   0  0  1  0  0  0  0  0  0  0  0  0
  3  1  1  0  0  0  0
  4  1  1  1  0  0  0
  4  6  1  0  0  0  0
  4 31  1  0  0  0  0
  6  7  1  0  0  0  0
  7  9  1  1  0  0  0
  7 30  1  0  0  0  0
 10  9  1  1  0  0  0
 10 13  1  0  0  0  0
 10 21  1  0  0  0  0
 13 12  1  1  0  0  0
 13 15  1  0  0  0  0
 15  2  1  1  0  0  0
 15 17  1  0  0  0  0
 16 25  1  0  0  0  0
 17 19  1  0  0  0  0
 19  5  1  1  0  0  0
 19 21  1  0  0  0  0
 21 14  1  6  0  0  0
 23 14  1  6  0  0  0
 23 16  1  0  0  0  0
 23 29  1  0  0  0  0
 25 26  1  1  0  0  0
 25 27  1  0  0  0  0
 26  8  1  0  0  0  0
 27 18  1  6  0  0  0
 27 28  1  0  0  0  0
 28 20  1  6  0  0  0
 28 29  1  0  0  0  0
 29 11  1  6  0  0  0
 30 22  1  6  0  0  0
 30 31  1  0  0  0  0
 31 24  1  6  0  0  0
M  END
>  <CHROM.1>
-42.36164301,-116.86161924,-99.76291574,67.24761236,91.37804399,71.90050837
9.51949486,20.15003945,34.15709904,0.83172569,0.62085402,2.40117365

>  <Name>
2fcz_lig

>  <RI>
3.41297e+07

>  <Rbt.Current_Directory>
/home/itssahil/PROJECTS/Mol_Feturizer/New_Systems/rnas/2fcz

>  <Rbt.Executable>
rbdock ($Id: //depot/dev/client3/rdock/2013.1/src/exe/rbdock.cxx#4 $)

>  <Rbt.Library>
libRbt.so (2013.1, Build901 2013/11/27)

>  <Rbt.Parameter_File>
/export/apps/rDock/src/rDock_2013.1_src/data/scripts/dock_solv.prm

>  <Rbt.Receptor>
prm/pocket_docking_2.prm

>  <SCORE>
-13.0539

>  <SCORE.INTER>
-17.5755

>  <SCORE.INTER.CONST>
1

>  <SCORE.INTER.POLAR>
-1.67649

>  <SCORE.INTER.ROT>
6

>  <SCORE.INTER.SOLV>
16.846

>  <SCORE.INTER.VDW>
-19.344

>  <SCORE.INTER.norm>
-0.566951

>  <SCORE.INTRA>
3.65502

>  <SCORE.INTRA.DIHEDRAL>
7.35706

>  <SCORE.INTRA.DIHEDRAL.0>
10.8409

>  <SCORE.INTRA.POLAR>
0

>  <SCORE.INTRA.POLAR.0>
0

>  <SCORE.INTRA.REPUL>
0

>  <SCORE.INTRA.REPUL.0>
0

>  <SCORE.INTRA.SOLV>
-0.745725

>  <SCORE.INTRA.SOLV.lig_0>
-80.8302

>  <SCORE.INTRA.VDW>
0.349358

>  <SCORE.INTRA.VDW.0>
-4.23953

>  <SCORE.INTRA.norm>
0.117904

>  <SCORE.RESTR>
0.866572

>  <SCORE.RESTR.CAVITY>
0.866572

>  <SCORE.RESTR.norm>
0.0279539

>  <SCORE.SYSTEM>
0

>  <SCORE.SYSTEM.CONST>
0

>  <SCORE.SYSTEM.DIHEDRAL>
0

>  <SCORE.SYSTEM.SOLV>
0

>  <SCORE.SYSTEM.norm>
0

>  <SCORE.heavy>
31

>  <SCORE.norm>
-0.421093

>  <RMSD>
1.110

$$$$
2fcz_lig
 OpenBabel11021811433D
libRbt.so/2013.1/901 2013/11/27
 31 33  0  0  0  0  0  0  0  0999 V2000
   10.9906   15.9241   35.6099 C   0  0  0  0  0  0  0  0  0  0  0  0
   13.7304   23.5927   35.8007 N   0  0  0  0  0  0  0  0  0  0  0  0
    9.7834   16.5731   35.2013 O   0  0  0  0  0  0  0  0  0  0  0  0
   11.7248   16.7987   36.6320 C   0  0  1  0  0  0  0  0  0  0  0  0
   10.4335   23.0848   32.2202 N   0  0  0  0  0  0  0  0  0  0  0  0
   11.9467   18.1325   36.1306 O   0  0  0  0  0  0  0  0  0  0  0  0
   11.0840   19.0578   36.8215 C   0  0  1  0  0  0  0  0  0  0  0  0
    5.9204   22.9347   31.3216 N   0  0  0  0  0  0  0  0  0  0  0  0
   10.4388   19.9838   35.9307 O   0  0  0  0  0  0  0  0  0  0  0  0
   11.3396   20.6989   35.0680 C   0  0  2  0  0  0  0  0  0  0  0  0
    9.7833   17.7332   32.3142 N   0  0  0  0  0  0  0  0  0  0  0  0
   12.9452   21.0774   36.8379 O   0  0  0  0  0  0  0  0  0  0  0  0
   12.1042   21.7423   35.8920 C   0  0  1  0  0  0  0  0  0  0  0  0
   10.0255   20.4084   33.0058 O   0  0  0  0  0  0  0  0  0  0  0  0
   12.9719   22.6269   34.9938 C   0  0  1  0  0  0  0  0  0  0  0  0
    7.7335   20.5932   33.5402 O   0  0  0  0  0  0  0  0  0  0  0  0
   12.0947   23.3766   33.9887 C   0  0  0  0  0  0  0  0  0  0  0  0
    6.5949   20.6093   30.0372 O   0  0  0  0  0  0  0  0  0  0  0  0
   11.3504   22.3632   33.1169 C   0  0  1  0  0  0  0  0  0  0  0  0
    7.7945   18.0097   30.2739 O   0  0  0  0  0  0  0  0  0  0  0  0
   10.5404   21.3622   33.9480 C   0  0  2  0  0  0  0  0  0  0  0  0
    9.4028   18.7909   38.6152 O   0  0  0  0  0  0  0  0  0  0  0  0
    8.8635   19.7039   33.4672 C   0  0  1  0  0  0  0  0  0  0  0  0
   11.7085   17.2866   39.0276 O   0  0  0  0  0  0  0  0  0  0  0  0
    7.3456   21.1687   32.2807 C   0  0  2  0  0  0  0  0  0  0  0  0
    6.1618   22.1104   32.5148 C   0  0  0  0  0  0  0  0  0  0  0  0
    6.9529   20.0528   31.3058 C   0  0  2  0  0  0  0  0  0  0  0  0
    8.1405   19.1044   31.1285 C   0  0  1  0  0  0  0  0  0  0  0  0
    8.5805   18.5592   32.4891 C   0  0  1  0  0  0  0  0  0  0  0  0
   10.0355   18.1691   37.4924 C   0  0  2  0  0  0  0  0  0  0  0  0
   10.8883   16.9692   37.9001 C   0  0  1  0  0  0  0  0  0  0  0  0
  3  1  1  0  0  0  0
  4  1  1  6  0  0  0
  4  6  1  0  0  0  0
  4 31  1  0  0  0  0
  6  7  1  0  0  0  0
  7  9  1  6  0  0  0
  7 30  1  0  0  0  0
 10  9  1  1  0  0  0
 10 13  1  0  0  0  0
 10 21  1  0  0  0  0
 13 12  1  1  0  0  0
 13 15  1  0  0  0  0
 15  2  1  1  0  0  0
 15 17  1  0  0  0  0
 16 25  1  0  0  0  0
 17 19  1  0  0  0  0
 19  5  1  6  0  0  0
 19 21  1  0  0  0  0
 21 14  1  6  0  0  0
 23 14  1  6  0  0  0
 23 16  1  0  0  0  0
 23 29  1  0  0  0  0
 25 26  1  1  0  0  0
 25 27  1  0  0  0  0
 26  8  1  0  0  0  0
 27 18  1  6  0  0  0
 27 28  1  0  0  0  0
 28 20  1  6  0  0  0
 28 29  1  0  0  0  0
 29 11  1  6  0  0  0
 30 22  1  1  0  0  0
 30 31  1  0  0  0  0
 31 24  1  1  0  0  0
M  END
>  <CHROM.1>
-54.08261130,-53.40899423,-72.88989906,77.75003422,69.26021316,167.78374512
9.96955007,19.92050247,34.37116198,0.67819333,0.78139686,2.64773928

>  <Name>
2fcz_lig

>  <RI>
2.26996e+07

>  <Rbt.Current_Directory>
/home/itssahil/PROJECTS/Mol_Feturizer/New_Systems/rnas/2fcz

>  <Rbt.Executable>
rbdock ($Id: //depot/dev/client3/rdock/2013.1/src/exe/rbdock.cxx#4 $)

>  <Rbt.Library>
libRbt.so (2013.1, Build901 2013/11/27)

>  <Rbt.Parameter_File>
/export/apps/rDock/src/rDock_2013.1_src/data/scripts/dock_solv.prm

>  <Rbt.Receptor>
prm/pocket_docking_4.prm

>  <SCORE>
-21.0349

>  <SCORE.INTER>
-18.7054

>  <SCORE.INTER.CONST>
1

>  <SCORE.INTER.POLAR>
-1.83095

>  <SCORE.INTER.ROT>
6

>  <SCORE.INTER.SOLV>
15.4702

>  <SCORE.INTER.VDW>
-19.1238

>  <SCORE.INTER.norm>
-0.603399

>  <SCORE.INTRA>
-2.32949

>  <SCORE.INTRA.DIHEDRAL>
-7.20496

>  <SCORE.INTRA.DIHEDRAL.0>
10.8409

>  <SCORE.INTRA.POLAR>
0

>  <SCORE.INTRA.POLAR.0>
0

>  <SCORE.INTRA.REPUL>
0

>  <SCORE.INTRA.REPUL.0>
0

>  <SCORE.INTRA.SOLV>
-0.244733

>  <SCORE.INTRA.SOLV.lig_0>
-80.8302

>  <SCORE.INTRA.VDW>
1.39536

>  <SCORE.INTRA.VDW.0>
-4.23953

>  <SCORE.INTRA.norm>
-0.0751448

>  <SCORE.RESTR>
0

>  <SCORE.RESTR.CAVITY>
0

>  <SCORE.RESTR.norm>
0

>  <SCORE.SYSTEM>
0

>  <SCORE.SYSTEM.CONST>
0

>  <SCORE.SYSTEM.DIHEDRAL>
0

>  <SCORE.SYSTEM.SOLV>
0

>  <SCORE.SYSTEM.norm>
0

>  <SCORE.heavy>
31

>  <SCORE.norm>
-0.678544

>  <RMSD>
1.118

$$$$
2fcz_lig
 OpenBabel11021811433D
libRbt.so/2013.1/901 2013/11/27
 31 33  0  0  0  0  0  0  0  0999 V2000
    7.5713   16.1241   35.5919 C   0  0  0  0  0  0  0  0  0  0  0  0
   13.6209   22.0473   37.0383 N   0  0  0  0  0  0  0  0  0  0  0  0
    8.2470   15.4897   34.5026 O   0  0  0  0  0  0  0  0  0  0  0  0
    8.5669   16.4028   36.7231 C   0  0  1  0  0  0  0  0  0  0  0  0
   11.6275   22.0991   32.5694 N   0  0  0  0  0  0  0  0  0  0  0  0
    9.5540   17.3803   36.3359 O   0  0  0  0  0  0  0  0  0  0  0  0
    9.3049   18.6191   37.0295 C   0  0  1  0  0  0  0  0  0  0  0  0
    6.9973   23.1341   32.7578 N   0  0  0  0  0  0  0  0  0  0  0  0
    9.3899   19.7646   36.1648 O   0  0  0  0  0  0  0  0  0  0  0  0
   10.7042   20.0094   35.6360 C   0  0  2  0  0  0  0  0  0  0  0  0
    9.6840   17.1882   32.5910 N   0  0  0  0  0  0  0  0  0  0  0  0
   11.7138   20.1106   37.8324 O   0  0  0  0  0  0  0  0  0  0  0  0
   11.4982   20.8607   36.6345 C   0  0  1  0  0  0  0  0  0  0  0  0
   10.0729   19.8515   33.2610 O   0  0  0  0  0  0  0  0  0  0  0  0
   12.8547   21.2691   36.0552 C   0  0  1  0  0  0  0  0  0  0  0  0
    7.7559   20.2545   33.4653 O   0  0  0  0  0  0  0  0  0  0  0  0
   12.6556   22.1011   34.7864 C   0  0  0  0  0  0  0  0  0  0  0  0
    7.1178   20.2633   29.8375 O   0  0  0  0  0  0  0  0  0  0  0  0
   11.9048   21.2641   33.7489 C   0  0  1  0  0  0  0  0  0  0  0  0
    8.0296   17.5764   30.2873 O   0  0  0  0  0  0  0  0  0  0  0  0
   10.5785   20.7181   34.2888 C   0  0  2  0  0  0  0  0  0  0  0  0
    7.6018   19.3256   38.6774 O   0  0  0  0  0  0  0  0  0  0  0  0
    8.7987   19.2670   33.5676 C   0  0  1  0  0  0  0  0  0  0  0  0
    8.5942   16.7663   39.1406 O   0  0  0  0  0  0  0  0  0  0  0  0
    7.5999   20.8229   32.1536 C   0  0  2  0  0  0  0  0  0  0  0  0
    6.4867   21.8724   32.2023 C   0  0  0  0  0  0  0  0  0  0  0  0
    7.2448   19.7167   31.1538 C   0  0  2  0  0  0  0  0  0  0  0  0
    8.3534   18.6620   31.1620 C   0  0  1  0  0  0  0  0  0  0  0  0
    8.5495   18.1222   32.5805 C   0  0  1  0  0  0  0  0  0  0  0  0
    7.8774   18.4756   37.5598 C   0  0  2  0  0  0  0  0  0  0  0  0
    7.8545   16.9960   37.9385 C   0  0  1  0  0  0  0  0  0  0  0  0
  3  1  1  0  0  0  0
  4  1  1  6  0  0  0
  4  6  1  0  0  0  0
  4 31  1  0  0  0  0
  6  7  1  0  0  0  0
  7  9  1  6  0  0  0
  7 30  1  0  0  0  0
 10  9  1  1  0  0  0
 10 13  1  0  0  0  0
 10 21  1  0  0  0  0
 13 12  1  1  0  0  0
 13 15  1  0  0  0  0
 15  2  1  1  0  0  0
 15 17  1  0  0  0  0
 16 25  1  0  0  0  0
 17 19  1  0  0  0  0
 19  5  1  6  0  0  0
 19 21  1  0  0  0  0
 21 14  1  6  0  0  0
 23 14  1  6  0  0  0
 23 16  1  0  0  0  0
 23 29  1  0  0  0  0
 25 26  1  1  0  0  0
 25 27  1  0  0  0  0
 26  8  1  0  0  0  0
 27 18  1  6  0  0  0
 27 28  1  0  0  0  0
 28 20  1  6  0  0  0
 28 29  1  0  0  0  0
 29 11  1  6  0  0  0
 30 22  1  1  0  0  0
 30 31  1  0  0  0  0
 31 24  1  1  0  0  0
M  END
>  <CHROM.1>
66.32725534,-65.64966345,-86.42880823,57.16481216,73.08149369,79.96781538
9.27783178,19.40503763,34.63311734,1.12870599,0.78675278,2.09146480

>  <Name>
2fcz_lig

>  <RI>
2.29611e+07

>  <Rbt.Current_Directory>
/home/itssahil/PROJECTS/Mol_Feturizer/New_Systems/rnas/2fcz

>  <Rbt.Executable>
rbdock ($Id: //depot/dev/client3/rdock/2013.1/src/exe/rbdock.cxx#4 $)

>  <Rbt.Library>
libRbt.so (2013.1, Build901 2013/11/27)

>  <Rbt.Parameter_File>
/export/apps/rDock/src/rDock_2013.1_src/data/scripts/dock_solv.prm

>  <Rbt.Receptor>
prm/pocket_docking_3.prm

>  <SCORE>
-21.2622

>  <SCORE.INTER>
-18.5061

>  <SCORE.INTER.CONST>
1

>  <SCORE.INTER.POLAR>
-1.62264

>  <SCORE.INTER.ROT>
6

>  <SCORE.INTER.SOLV>
19.5066

>  <SCORE.INTER.VDW>
-21.0308

>  <SCORE.INTER.norm>
-0.596971

>  <SCORE.INTRA>
-2.75608

>  <SCORE.INTRA.DIHEDRAL>
-5.29461

>  <SCORE.INTRA.DIHEDRAL.0>
10.8409

>  <SCORE.INTRA.POLAR>
0

>  <SCORE.INTRA.POLAR.0>
0

>  <SCORE.INTRA.REPUL>
0

>  <SCORE.INTRA.REPUL.0>
0

>  <SCORE.INTRA.SOLV>
-2.08461

>  <SCORE.INTRA.SOLV.lig_0>
-80.8302

>  <SCORE.INTRA.VDW>
0.933531

>  <SCORE.INTRA.VDW.0>
-4.23953

>  <SCORE.INTRA.norm>
-0.0889058

>  <SCORE.RESTR>
0

>  <SCORE.RESTR.CAVITY>
0

>  <SCORE.RESTR.norm>
0

>  <SCORE.SYSTEM>
0

>  <SCORE.SYSTEM.CONST>
0

>  <SCORE.SYSTEM.DIHEDRAL>
0

>  <SCORE.SYSTEM.SOLV>
0

>  <SCORE.SYSTEM.norm>
0

>  <SCORE.heavy>
31

>  <SCORE.norm>
-0.685877

>  <RMSD>
1.134

$$$$
2fcz_lig
 OpenBabel11021811433D
libRbt.so/2013.1/901 2013/11/27
 31 33  0  0  0  0  0  0  0  0999 V2000
    7.5733   16.0391   35.6331 C   0  0  0  0  0  0  0  0  0  0  0  0
   13.6548   22.0374   37.0100 N   0  0  0  0  0  0  0  0  0  0  0  0
    8.1814   15.4396   34.4858 O   0  0  0  0  0  0  0  0  0  0  0  0
    8.6334   16.2731   36.7146 C   0  0  1  0  0  0  0  0  0  0  0  0
   11.6138   21.9999   32.5625 N   0  0  0  0  0  0  0  0  0  0  0  0
    9.6128   17.2468   36.2994 O   0  0  0  0  0  0  0  0  0  0  0  0
    9.4213   18.4697   37.0379 C   0  0  1  0  0  0  0  0  0  0  0  0
    6.6018   22.8058   31.2430 N   0  0  0  0  0  0  0  0  0  0  0  0
    9.4767   19.6368   36.2001 O   0  0  0  0  0  0  0  0  0  0  0  0
   10.7784   19.9118   35.6553 C   0  0  2  0  0  0  0  0  0  0  0  0
    9.6253   17.1214   32.4517 N   0  0  0  0  0  0  0  0  0  0  0  0
   11.8080   20.0577   37.8399 O   0  0  0  0  0  0  0  0  0  0  0  0
   11.5601   20.7919   36.6384 C   0  0  1  0  0  0  0  0  0  0  0  0
   10.1266   19.7178   33.2886 O   0  0  0  0  0  0  0  0  0  0  0  0
   12.8992   21.2312   36.0414 C   0  0  1  0  0  0  0  0  0  0  0  0
    7.8301   20.1926   33.5601 O   0  0  0  0  0  0  0  0  0  0  0  0
   12.6648   22.0472   34.7683 C   0  0  0  0  0  0  0  0  0  0  0  0
    7.1376   20.4664   29.9527 O   0  0  0  0  0  0  0  0  0  0  0  0
   11.9255   21.1821   33.7455 C   0  0  1  0  0  0  0  0  0  0  0  0
    7.9521   17.7233   30.2083 O   0  0  0  0  0  0  0  0  0  0  0  0
   10.6198   20.6059   34.3039 C   0  0  2  0  0  0  0  0  0  0  0  0
    7.8221   19.1553   38.7950 O   0  0  0  0  0  0  0  0  0  0  0  0
    8.8356   19.1622   33.5786 C   0  0  1  0  0  0  0  0  0  0  0  0
    8.7985   16.5708   39.1357 O   0  0  0  0  0  0  0  0  0  0  0  0
    7.6762   20.8524   32.2916 C   0  0  2  0  0  0  0  0  0  0  0  0
    6.6050   21.9372   32.4291 C   0  0  0  0  0  0  0  0  0  0  0  0
    7.2635   19.8291   31.2276 C   0  0  2  0  0  0  0  0  0  0  0  0
    8.3307   18.7355   31.1467 C   0  0  1  0  0  0  0  0  0  0  0  0
    8.5276   18.0957   32.5229 C   0  0  1  0  0  0  0  0  0  0  0  0
    8.0229   18.3321   37.6420 C   0  0  2  0  0  0  0  0  0  0  0  0
    7.9978   16.8432   37.9826 C   0  0  1  0  0  0  0  0  0  0  0  0
  3  1  1  0  0  0  0
  4  1  1  6  0  0  0
  4  6  1  0  0  0  0
  4 31  1  0  0  0  0
  6  7  1  0  0  0  0
  7  9  1  6  0  0  0
  7 30  1  0  0  0  0
 10  9  1  1  0  0  0
 10 13  1  0  0  0  0
 10 21  1  0  0  0  0
 13 12  1  1  0  0  0
 13 15  1  0  0  0  0
 15  2  1  1  0  0  0
 15 17  1  0  0  0  0
 16 25  1  0  0  0  0
 17 19  1  0  0  0  0
 19  5  1  6  0  0  0
 19 21  1  0  0  0  0
 21 14  1  6  0  0  0
 23 14  1  6  0  0  0
 23 16  1  0  0  0  0
 23 29  1  0  0  0  0
 25 26  1  1  0  0  0
 25 27  1  0  0  0  0
 26  8  1  0  0  0  0
 27 18  1  6  0  0  0
 27 28  1  0  0  0  0
 28 20  1  6  0  0  0
 28 29  1  0  0  0  0
 29 11  1  6  0  0  0
 30 22  1  1  0  0  0
 30 31  1  0  0  0  0
 31 24  1  1  0  0  0
M  END
>  <CHROM.1>
65.63715399,-68.34697598,-88.47071130,60.56968533,66.99351505,168.88970577
9.31617481,19.33941939,34.60561693,1.13954227,0.76701644,2.13543745

>  <Name>
2fcz_lig

>  <RI>
2.29611e+07

>  <Rbt.Current_Directory>
/home/itssahil/PROJECTS/Mol_Feturizer/New_Systems/rnas/2fcz

>  <Rbt.Executable>
rbdock ($Id: //depot/dev/client3/rdock/2013.1/src/exe/rbdock.cxx#4 $)

>  <Rbt.Library>
libRbt.so (2013.1, Build901 2013/11/27)

>  <Rbt.Parameter_File>
/export/apps/rDock/src/rDock_2013.1_src/data/scripts/dock_solv.prm

>  <Rbt.Receptor>
prm/pocket_docking_3.prm

>  <SCORE>
-22.0821

>  <SCORE.INTER>
-19.2294

>  <SCORE.INTER.CONST>
1

>  <SCORE.INTER.POLAR>
-1.66781

>  <SCORE.INTER.ROT>
6

>  <SCORE.INTER.SOLV>
15.4041

>  <SCORE.INTER.VDW>
-19.9949

>  <SCORE.INTER.norm>
-0.620302

>  <SCORE.INTRA>
-2.85276

>  <SCORE.INTRA.DIHEDRAL>
-6.25553

>  <SCORE.INTRA.DIHEDRAL.0>
10.8409

>  <SCORE.INTRA.POLAR>
0

>  <SCORE.INTRA.POLAR.0>
0

>  <SCORE.INTRA.REPUL>
0

>  <SCORE.INTRA.REPUL.0>
0

>  <SCORE.INTRA.SOLV>
-1.17322

>  <SCORE.INTRA.SOLV.lig_0>
-80.8302

>  <SCORE.INTRA.VDW>
0.861613

>  <SCORE.INTRA.VDW.0>
-4.23953

>  <SCORE.INTRA.norm>
-0.0920246

>  <SCORE.RESTR>
0

>  <SCORE.RESTR.CAVITY>
0

>  <SCORE.RESTR.norm>
0

>  <SCORE.SYSTEM>
0

>  <SCORE.SYSTEM.CONST>
0

>  <SCORE.SYSTEM.DIHEDRAL>
0

>  <SCORE.SYSTEM.SOLV>
0

>  <SCORE.SYSTEM.norm>
0

>  <SCORE.heavy>
31

>  <SCORE.norm>
-0.712327

>  <RMSD>
1.137

$$$$
2fcz_lig
 OpenBabel11021811433D
libRbt.so/2013.1/901 2013/11/27
 31 33  0  0  0  0  0  0  0  0999 V2000
    7.9923   16.0677   35.3544 C   0  0  0  0  0  0  0  0  0  0  0  0
   13.7424   22.0619   37.0239 N   0  0  0  0  0  0  0  0  0  0  0  0
    7.1434   14.9495   35.6272 O   0  0  0  0  0  0  0  0  0  0  0  0
    8.8690   16.3590   36.5771 C   0  0  1  0  0  0  0  0  0  0  0  0
   11.6170   22.1933   32.6180 N   0  0  0  0  0  0  0  0  0  0  0  0
    9.8104   17.4201   36.3175 O   0  0  0  0  0  0  0  0  0  0  0  0
    9.4158   18.6033   37.0399 C   0  0  1  0  0  0  0  0  0  0  0  0
    5.5415   22.1612   32.7729 N   0  0  0  0  0  0  0  0  0  0  0  0
    9.4875   19.7928   36.2355 O   0  0  0  0  0  0  0  0  0  0  0  0
   10.7854   20.0479   35.6723 C   0  0  2  0  0  0  0  0  0  0  0  0
    9.2962   17.4500   32.3609 N   0  0  0  0  0  0  0  0  0  0  0  0
   11.8598   20.1100   37.8393 O   0  0  0  0  0  0  0  0  0  0  0  0
   11.6087   20.8815   36.6620 C   0  0  1  0  0  0  0  0  0  0  0  0
   10.0838   19.9326   33.3147 O   0  0  0  0  0  0  0  0  0  0  0  0
   12.9473   21.3011   36.0501 C   0  0  1  0  0  0  0  0  0  0  0  0
    7.8554   20.6819   33.5284 O   0  0  0  0  0  0  0  0  0  0  0  0
   12.7106   22.1558   34.8031 C   0  0  0  0  0  0  0  0  0  0  0  0
    7.3388   21.1651   29.9135 O   0  0  0  0  0  0  0  0  0  0  0  0
   11.9293   21.3372   33.7734 C   0  0  1  0  0  0  0  0  0  0  0  0
    7.7964   18.3343   30.0886 O   0  0  0  0  0  0  0  0  0  0  0  0
   10.6196   20.7808   34.3425 C   0  0  2  0  0  0  0  0  0  0  0  0
    7.5367   19.1092   38.5657 O   0  0  0  0  0  0  0  0  0  0  0  0
    8.7239   19.5336   33.5400 C   0  0  1  0  0  0  0  0  0  0  0  0
    8.6719   16.6050   39.0015 O   0  0  0  0  0  0  0  0  0  0  0  0
    7.8325   21.3993   32.2823 C   0  0  2  0  0  0  0  0  0  0  0  0
    6.8997   22.6044   32.4265 C   0  0  0  0  0  0  0  0  0  0  0  0
    7.3365   20.4733   31.1661 C   0  0  2  0  0  0  0  0  0  0  0  0
    8.2620   19.2580   31.0778 C   0  0  1  0  0  0  0  0  0  0  0  0
    8.3259   18.5513   32.4337 C   0  0  1  0  0  0  0  0  0  0  0  0
    7.9639   18.3358   37.4402 C   0  0  2  0  0  0  0  0  0  0  0  0
    8.0182   16.8414   37.7518 C   0  0  1  0  0  0  0  0  0  0  0  0
  3  1  1  0  0  0  0
  4  1  1  6  0  0  0
  4  6  1  0  0  0  0
  4 31  1  0  0  0  0
  6  7  1  0  0  0  0
  7  9  1  6  0  0  0
  7 30  1  0  0  0  0
 10  9  1  1  0  0  0
 10 13  1  0  0  0  0
 10 21  1  0  0  0  0
 13 12  1  1  0  0  0
 13 15  1  0  0  0  0
 15  2  1  1  0  0  0
 15 17  1  0  0  0  0
 16 25  1  0  0  0  0
 17 19  1  0  0  0  0
 19  5  1  6  0  0  0
 19 21  1  0  0  0  0
 21 14  1  6  0  0  0
 23 14  1  6  0  0  0
 23 16  1  0  0  0  0
 23 29  1  0  0  0  0
 25 26  1  1  0  0  0
 25 27  1  0  0  0  0
 26  8  1  0  0  0  0
 27 18  1  6  0  0  0
 27 28  1  0  0  0  0
 28 20  1  6  0  0  0
 28 29  1  0  0  0  0
 29 11  1  6  0  0  0
 30 22  1  1  0  0  0
 30 31  1  0  0  0  0
 31 24  1  1  0  0  0
M  END
>  <CHROM.1>
175.91519267,-57.17130137,-88.69972357,67.66354144,63.55532473,-59.44500664
9.26115398,19.53087010,34.64867794,1.22983111,0.70166969,2.18087686

>  <Name>
2fcz_lig

>  <RI>
2.26996e+07

>  <Rbt.Current_Directory>
/home/itssahil/PROJECTS/Mol_Feturizer/New_Systems/rnas/2fcz

>  <Rbt.Executable>
rbdock ($Id: //depot/dev/client3/rdock/2013.1/src/exe/rbdock.cxx#4 $)

>  <Rbt.Library>
libRbt.so (2013.1, Build901 2013/11/27)

>  <Rbt.Parameter_File>
/export/apps/rDock/src/rDock_2013.1_src/data/scripts/dock_solv.prm

>  <Rbt.Receptor>
prm/pocket_docking_4.prm

>  <SCORE>
-18.886

>  <SCORE.INTER>
-15.5223

>  <SCORE.INTER.CONST>
1

>  <SCORE.INTER.POLAR>
-1.65317

>  <SCORE.INTER.ROT>
6

>  <SCORE.INTER.SOLV>
22.5594

>  <SCORE.INTER.VDW>
-19.9575

>  <SCORE.INTER.norm>
-0.500721

>  <SCORE.INTRA>
-3.36361

>  <SCORE.INTRA.DIHEDRAL>
-6.89962

>  <SCORE.INTRA.DIHEDRAL.0>
10.8409

>  <SCORE.INTRA.POLAR>
0

>  <SCORE.INTRA.POLAR.0>
0

>  <SCORE.INTRA.REPUL>
0

>  <SCORE.INTRA.REPUL.0>
0

>  <SCORE.INTRA.SOLV>
-1.47411

>  <SCORE.INTRA.SOLV.lig_0>
-80.8302

>  <SCORE.INTRA.VDW>
0.823256

>  <SCORE.INTRA.VDW.0>
-4.23953

>  <SCORE.INTRA.norm>
-0.108503

>  <SCORE.RESTR>
0

>  <SCORE.RESTR.CAVITY>
0

>  <SCORE.RESTR.norm>
0

>  <SCORE.SYSTEM>
0

>  <SCORE.SYSTEM.CONST>
0

>  <SCORE.SYSTEM.DIHEDRAL>
0

>  <SCORE.SYSTEM.SOLV>
0

>  <SCORE.SYSTEM.norm>
0

>  <SCORE.heavy>
31

>  <SCORE.norm>
-0.609224

>  <RMSD>
1.156

$$$$
2fcz_lig
 OpenBabel11021811433D
libRbt.so/2013.1/901 2013/11/27
 31 33  0  0  0  0  0  0  0  0999 V2000
    7.6803   16.2550   35.2435 C   0  0  0  0  0  0  0  0  0  0  0  0
   13.8309   21.9973   37.0981 N   0  0  0  0  0  0  0  0  0  0  0  0
    8.2675   15.4074   34.2525 O   0  0  0  0  0  0  0  0  0  0  0  0
    8.6318   16.3868   36.4376 C   0  0  1  0  0  0  0  0  0  0  0  0
   11.8616   21.9636   32.6184 N   0  0  0  0  0  0  0  0  0  0  0  0
    9.6607   17.3674   36.1938 O   0  0  0  0  0  0  0  0  0  0  0  0
    9.4142   18.5368   36.9997 C   0  0  1  0  0  0  0  0  0  0  0  0
    6.3972   22.4303   31.3194 N   0  0  0  0  0  0  0  0  0  0  0  0
    9.5680   19.7607   36.2611 O   0  0  0  0  0  0  0  0  0  0  0  0
   10.8888   19.9703   35.7334 C   0  0  2  0  0  0  0  0  0  0  0  0
    9.9509   17.0978   32.6495 N   0  0  0  0  0  0  0  0  0  0  0  0
   11.8884   20.1130   37.9321 O   0  0  0  0  0  0  0  0  0  0  0  0
   11.6913   20.8347   36.7137 C   0  0  1  0  0  0  0  0  0  0  0  0
   10.2673   19.7602   33.3599 O   0  0  0  0  0  0  0  0  0  0  0  0
   13.0572   21.2059   36.1315 C   0  0  1  0  0  0  0  0  0  0  0  0
    7.9512   20.0593   33.7052 O   0  0  0  0  0  0  0  0  0  0  0  0
   12.8782   22.0073   34.8403 C   0  0  0  0  0  0  0  0  0  0  0  0
    7.1048   20.1190   30.1208 O   0  0  0  0  0  0  0  0  0  0  0  0
   12.1193   21.1555   33.8209 C   0  0  1  0  0  0  0  0  0  0  0  0
    8.1515   17.4644   30.4535 O   0  0  0  0  0  0  0  0  0  0  0  0
   10.7815   20.6453   34.3674 C   0  0  2  0  0  0  0  0  0  0  0  0
    7.6591   19.1254   38.6393 O   0  0  0  0  0  0  0  0  0  0  0  0
    9.0382   19.1153   33.7244 C   0  0  1  0  0  0  0  0  0  0  0  0
    8.5614   16.5028   38.8787 O   0  0  0  0  0  0  0  0  0  0  0  0
    7.6963   20.6487   32.4185 C   0  0  2  0  0  0  0  0  0  0  0  0
    6.5452   21.6483   32.5555 C   0  0  0  0  0  0  0  0  0  0  0  0
    7.3301   19.5501   31.4142 C   0  0  2  0  0  0  0  0  0  0  0  0
    8.4801   18.5438   31.3342 C   0  0  1  0  0  0  0  0  0  0  0  0
    8.7800   17.9824   32.7259 C   0  0  1  0  0  0  0  0  0  0  0  0
    7.9612   18.3847   37.4529 C   0  0  2  0  0  0  0  0  0  0  0  0
    7.8822   16.8758   37.6768 C   0  0  1  0  0  0  0  0  0  0  0  0
  3  1  1  0  0  0  0
  4  1  1  6  0  0  0
  4  6  1  0  0  0  0
  4 31  1  0  0  0  0
  6  7  1  0  0  0  0
  7  9  1  6  0  0  0
  7 30  1  0  0  0  0
 10  9  1  1  0  0  0
 10 13  1  0  0  0  0
 10 21  1  0  0  0  0
 13 12  1  1  0  0  0
 13 15  1  0  0  0  0
 15  2  1  1  0  0  0
 15 17  1  0  0  0  0
 16 25  1  0  0  0  0
 17 19  1  0  0  0  0
 19  5  1  6  0  0  0
 19 21  1  0  0  0  0
 21 14  1  6  0  0  0
 23 14  1  6  0  0  0
 23 16  1  0  0  0  0
 23 29  1  0  0  0  0
 25 26  1  1  0  0  0
 25 27  1  0  0  0  0
 26  8  1  0  0  0  0
 27 18  1  6  0  0  0
 27 28  1  0  0  0  0
 28 20  1  6  0  0  0
 28 29  1  0  0  0  0
 29 11  1  6  0  0  0
 30 22  1  1  0  0  0
 30 31  1  0  0  0  0
 31 24  1  1  0  0  0
M  END
>  <CHROM.1>
81.36764819,-61.43327299,-94.82915529,52.07441715,71.93330277,170.80155290
9.39119046,19.28735671,34.62643821,2.20205484,-0.74028725,-1.04755650

>  <Name>
2fcz_lig

>  <RI>
2.29611e+07

>  <Rbt.Current_Directory>
/home/itssahil/PROJECTS/Mol_Feturizer/New_Systems/rnas/2fcz

>  <Rbt.Executable>
rbdock ($Id: //depot/dev/client3/rdock/2013.1/src/exe/rbdock.cxx#4 $)

>  <Rbt.Library>
libRbt.so (2013.1, Build901 2013/11/27)

>  <Rbt.Parameter_File>
/export/apps/rDock/src/rDock_2013.1_src/data/scripts/dock_solv.prm

>  <Rbt.Receptor>
prm/pocket_docking_3.prm

>  <SCORE>
-19.8388

>  <SCORE.INTER>
-19.1424

>  <SCORE.INTER.CONST>
1

>  <SCORE.INTER.POLAR>
-1.67917

>  <SCORE.INTER.ROT>
6

>  <SCORE.INTER.SOLV>
16.4402

>  <SCORE.INTER.VDW>
-20.2444

>  <SCORE.INTER.norm>
-0.617497

>  <SCORE.INTRA>
-0.696381

>  <SCORE.INTRA.DIHEDRAL>
-3.41314

>  <SCORE.INTRA.DIHEDRAL.0>
10.8409

>  <SCORE.INTRA.POLAR>
0

>  <SCORE.INTRA.POLAR.0>
0

>  <SCORE.INTRA.REPUL>
0

>  <SCORE.INTRA.REPUL.0>
0

>  <SCORE.INTRA.SOLV>
-0.369158

>  <SCORE.INTRA.SOLV.lig_0>
-80.8302

>  <SCORE.INTRA.VDW>
1.19477

>  <SCORE.INTRA.VDW.0>
-4.23953

>  <SCORE.INTRA.norm>
-0.0224639

>  <SCORE.RESTR>
0

>  <SCORE.RESTR.CAVITY>
0

>  <SCORE.RESTR.norm>
0

>  <SCORE.SYSTEM>
0

>  <SCORE.SYSTEM.CONST>
0

>  <SCORE.SYSTEM.DIHEDRAL>
0

>  <SCORE.SYSTEM.SOLV>
0

>  <SCORE.SYSTEM.norm>
0

>  <SCORE.heavy>
31

>  <SCORE.norm>
-0.639961

>  <RMSD>
1.200

$$$$
2fcz_lig
 OpenBabel11021811433D
libRbt.so/2013.1/901 2013/11/27
 31 33  0  0  0  0  0  0  0  0999 V2000
    7.5757   16.1115   35.5198 C   0  0  0  0  0  0  0  0  0  0  0  0
   13.7204   21.9146   37.0032 N   0  0  0  0  0  0  0  0  0  0  0  0
    8.2748   15.5096   34.4269 O   0  0  0  0  0  0  0  0  0  0  0  0
    8.5455   16.3510   36.6820 C   0  0  1  0  0  0  0  0  0  0  0  0
   11.6956   21.8965   32.5482 N   0  0  0  0  0  0  0  0  0  0  0  0
    9.5559   17.3221   36.3418 O   0  0  0  0  0  0  0  0  0  0  0  0
    9.3064   18.5490   37.0561 C   0  0  1  0  0  0  0  0  0  0  0  0
    5.6509   22.1052   32.8655 N   0  0  0  0  0  0  0  0  0  0  0  0
    9.4300   19.7116   36.2193 O   0  0  0  0  0  0  0  0  0  0  0  0
   10.7458   19.9109   35.6752 C   0  0  2  0  0  0  0  0  0  0  0  0
    9.2246   17.2728   32.2998 N   0  0  0  0  0  0  0  0  0  0  0  0
   11.7737   20.0456   37.8613 O   0  0  0  0  0  0  0  0  0  0  0  0
   11.5672   20.7689   36.6454 C   0  0  1  0  0  0  0  0  0  0  0  0
   10.0933   19.7057   33.3096 O   0  0  0  0  0  0  0  0  0  0  0  0
   12.9286   21.1293   36.0463 C   0  0  1  0  0  0  0  0  0  0  0  0
    7.8912   20.5274   33.5303 O   0  0  0  0  0  0  0  0  0  0  0  0
   12.7400   21.9322   34.7574 C   0  0  0  0  0  0  0  0  0  0  0  0
    7.4090   21.1048   29.9245 O   0  0  0  0  0  0  0  0  0  0  0  0
   11.9618   21.0864   33.7475 C   0  0  1  0  0  0  0  0  0  0  0  0
    7.7673   18.2568   30.0409 O   0  0  0  0  0  0  0  0  0  0  0  0
   10.6269   20.5867   34.3106 C   0  0  2  0  0  0  0  0  0  0  0  0
    7.5714   19.2445   38.6750 O   0  0  0  0  0  0  0  0  0  0  0  0
    8.7193   19.3496   33.5208 C   0  0  1  0  0  0  0  0  0  0  0  0
    8.5152   16.6615   39.1069 O   0  0  0  0  0  0  0  0  0  0  0  0
    7.8991   21.2714   32.2997 C   0  0  2  0  0  0  0  0  0  0  0  0
    7.0080   22.5049   32.4658 C   0  0  0  0  0  0  0  0  0  0  0  0
    7.3766   20.3871   31.1619 C   0  0  2  0  0  0  0  0  0  0  0  0
    8.2599   19.1425   31.0515 C   0  0  1  0  0  0  0  0  0  0  0  0
    8.2928   18.4054   32.3922 C   0  0  1  0  0  0  0  0  0  0  0  0
    7.8638   18.4150   37.5463 C   0  0  2  0  0  0  0  0  0  0  0  0
    7.8102   16.9280   37.8916 C   0  0  1  0  0  0  0  0  0  0  0  0
  3  1  1  0  0  0  0
  4  1  1  6  0  0  0
  4  6  1  0  0  0  0
  4 31  1  0  0  0  0
  6  7  1  0  0  0  0
  7  9  1  6  0  0  0
  7 30  1  0  0  0  0
 10  9  1  1  0  0  0
 10 13  1  0  0  0  0
 10 21  1  0  0  0  0
 13 12  1  1  0  0  0
 13 15  1  0  0  0  0
 15  2  1  1  0  0  0
 15 17  1  0  0  0  0
 16 25  1  0  0  0  0
 17 19  1  0  0  0  0
 19  5  1  6  0  0  0
 19 21  1  0  0  0  0
 21 14  1  6  0  0  0
 23 14  1  6  0  0  0
 23 16  1  0  0  0  0
 23 29  1  0  0  0  0
 25 26  1  1  0  0  0
 25 27  1  0  0  0  0
 26  8  1  0  0  0  0
 27 18  1  6  0  0  0
 27 28  1  0  0  0  0
 28 20  1  6  0  0  0
 28 29  1  0  0  0  0
 29 11  1  6  0  0  0
 30 22  1  1  0  0  0
 30 31  1  0  0  0  0
 31 24  1  1  0  0  0
M  END
>  <CHROM.1>
65.45275924,-62.67799084,-89.68800344,67.69599040,59.56633988,-56.50965453
9.25891882,19.45797914,34.62213837,1.19884638,0.70024120,2.11401560

>  <Name>
2fcz_lig

>  <RI>
2.26996e+07

>  <Rbt.Current_Directory>
/home/itssahil/PROJECTS/Mol_Feturizer/New_Systems/rnas/2fcz

>  <Rbt.Executable>
rbdock ($Id: //depot/dev/client3/rdock/2013.1/src/exe/rbdock.cxx#4 $)

>  <Rbt.Library>
libRbt.so (2013.1, Build901 2013/11/27)

>  <Rbt.Parameter_File>
/export/apps/rDock/src/rDock_2013.1_src/data/scripts/dock_solv.prm

>  <Rbt.Receptor>
prm/pocket_docking_4.prm

>  <SCORE>
-19.09

>  <SCORE.INTER>
-15.9097

>  <SCORE.INTER.CONST>
1

>  <SCORE.INTER.POLAR>
-1.66844

>  <SCORE.INTER.ROT>
6

>  <SCORE.INTER.SOLV>
22.4652

>  <SCORE.INTER.VDW>
-20.1334

>  <SCORE.INTER.norm>
-0.513216

>  <SCORE.INTRA>
-3.18028

>  <SCORE.INTRA.DIHEDRAL>
-6.67983

>  <SCORE.INTRA.DIHEDRAL.0>
10.8409

>  <SCORE.INTRA.POLAR>
0

>  <SCORE.INTRA.POLAR.0>
0

>  <SCORE.INTRA.REPUL>
0

>  <SCORE.INTRA.REPUL.0>
0

>  <SCORE.INTRA.SOLV>
-0.707626

>  <SCORE.INTRA.SOLV.lig_0>
-80.8302

>  <SCORE.INTRA.VDW>
0.513444

>  <SCORE.INTRA.VDW.0>
-4.23953

>  <SCORE.INTRA.norm>
-0.10259

>  <SCORE.RESTR>
0

>  <SCORE.RESTR.CAVITY>
0

>  <SCORE.RESTR.norm>
0

>  <SCORE.SYSTEM>
0

>  <SCORE.SYSTEM.CONST>
0

>  <SCORE.SYSTEM.DIHEDRAL>
0

>  <SCORE.SYSTEM.SOLV>
0

>  <SCORE.SYSTEM.norm>
0

>  <SCORE.heavy>
31

>  <SCORE.norm>
-0.615805

>  <RMSD>
1.222

$$$$
2fcz_lig
 OpenBabel11021811433D
libRbt.so/2013.1/901 2013/11/27
 31 33  0  0  0  0  0  0  0  0999 V2000
    8.0779   15.7417   35.7561 C   0  0  0  0  0  0  0  0  0  0  0  0
   13.6498   22.0454   37.0566 N   0  0  0  0  0  0  0  0  0  0  0  0
    7.2828   14.6144   36.1338 O   0  0  0  0  0  0  0  0  0  0  0  0
    8.9850   16.1461   36.9231 C   0  0  1  0  0  0  0  0  0  0  0  0
   11.6009   21.9015   32.6149 N   0  0  0  0  0  0  0  0  0  0  0  0
    9.8944   17.2015   36.5506 O   0  0  0  0  0  0  0  0  0  0  0  0
    9.4960   18.4304   37.1902 C   0  0  1  0  0  0  0  0  0  0  0  0
    6.5372   22.2598   33.3181 N   0  0  0  0  0  0  0  0  0  0  0  0
    9.5167   19.5535   36.2928 O   0  0  0  0  0  0  0  0  0  0  0  0
   10.8119   19.8450   35.7408 C   0  0  2  0  0  0  0  0  0  0  0  0
    9.8606   16.8896   32.8859 N   0  0  0  0  0  0  0  0  0  0  0  0
   11.8428   20.0435   37.9206 O   0  0  0  0  0  0  0  0  0  0  0  0
   11.5786   20.7547   36.7087 C   0  0  1  0  0  0  0  0  0  0  0  0
   10.1590   19.6027   33.3788 O   0  0  0  0  0  0  0  0  0  0  0  0
   12.9077   21.2103   36.1020 C   0  0  1  0  0  0  0  0  0  0  0  0
    7.8273   19.9512   33.4992 O   0  0  0  0  0  0  0  0  0  0  0  0
   12.6553   22.0023   34.8173 C   0  0  0  0  0  0  0  0  0  0  0  0
    7.2834   19.6926   29.8653 O   0  0  0  0  0  0  0  0  0  0  0  0
   11.9306   21.1079   33.8094 C   0  0  1  0  0  0  0  0  0  0  0  0
    8.2563   17.0705   30.5220 O   0  0  0  0  0  0  0  0  0  0  0  0
   10.6373   20.5153   34.3795 C   0  0  2  0  0  0  0  0  0  0  0  0
    7.6539   19.0187   38.7314 O   0  0  0  0  0  0  0  0  0  0  0  0
    8.8937   19.0038   33.6946 C   0  0  1  0  0  0  0  0  0  0  0  0
    8.8569   16.5797   39.3259 O   0  0  0  0  0  0  0  0  0  0  0  0
    7.6898   20.4236   32.1479 C   0  0  2  0  0  0  0  0  0  0  0  0
    6.5474   21.4411   32.0971 C   0  0  0  0  0  0  0  0  0  0  0  0
    7.3911   19.2415   31.2190 C   0  0  2  0  0  0  0  0  0  0  0  0
    8.5276   18.2225   31.3268 C   0  0  1  0  0  0  0  0  0  0  0  0
    8.7016   17.7872   32.7836 C   0  0  1  0  0  0  0  0  0  0  0  0
    8.0634   18.1671   37.6569 C   0  0  2  0  0  0  0  0  0  0  0  0
    8.1602   16.7034   38.0832 C   0  0  1  0  0  0  0  0  0  0  0  0
  3  1  1  0  0  0  0
  4  1  1  6  0  0  0
  4  6  1  0  0  0  0
  4 31  1  0  0  0  0
  6  7  1  0  0  0  0
  7  9  1  6  0  0  0
  7 30  1  0  0  0  0
 10  9  1  1  0  0  0
 10 13  1  0  0  0  0
 10 21  1  0  0  0  0
 13 12  1  1  0  0  0
 13 15  1  0  0  0  0
 15  2  1  1  0  0  0
 15 17  1  0  0  0  0
 16 25  1  0  0  0  0
 17 19  1  0  0  0  0
 19  5  1  6  0  0  0
 19 21  1  0  0  0  0
 21 14  1  6  0  0  0
 23 14  1  6  0  0  0
 23 16  1  0  0  0  0
 23 29  1  0  0  0  0
 25 26  1  1  0  0  0
 25 27  1  0  0  0  0
 26  8  1  0  0  0  0
 27 18  1  6  0  0  0
 27 28  1  0  0  0  0
 28 20  1  6  0  0  0
 28 29  1  0  0  0  0
 29 11  1  6  0  0  0
 30 22  1  1  0  0  0
 30 31  1  0  0  0  0
 31 24  1  1  0  0  0
M  END
>  <CHROM.1>
174.70397910,-61.24855692,-86.11794377,59.22300378,75.24609801,37.07671225
9.36660986,19.09898669,34.80923480,1.18181799,0.79535944,2.07858640

>  <Name>
2fcz_lig

>  <RI>
1.32928e+07

>  <Rbt.Current_Directory>
/home/itssahil/PROJECTS/Mol_Feturizer/New_Systems/rnas/2fcz

>  <Rbt.Executable>
rbdock ($Id: //depot/dev/client3/rdock/2013.1/src/exe/rbdock.cxx#4 $)

>  <Rbt.Library>
libRbt.so (2013.1, Build901 2013/11/27)

>  <Rbt.Parameter_File>
/export/apps/rDock/src/rDock_2013.1_src/data/scripts/dock_solv.prm

>  <Rbt.Receptor>
prm/pocket_docking_7.prm

>  <SCORE>
-18.4233

>  <SCORE.INTER>
-16.0305

>  <SCORE.INTER.CONST>
1

>  <SCORE.INTER.POLAR>
-1.80645

>  <SCORE.INTER.ROT>
6

>  <SCORE.INTER.SOLV>
21.9926

>  <SCORE.INTER.VDW>
-19.5964

>  <SCORE.INTER.norm>
-0.517112

>  <SCORE.INTRA>
-2.39285

>  <SCORE.INTRA.DIHEDRAL>
-4.94129

>  <SCORE.INTRA.DIHEDRAL.0>
10.8409

>  <SCORE.INTRA.POLAR>
0

>  <SCORE.INTRA.POLAR.0>
0

>  <SCORE.INTRA.REPUL>
0

>  <SCORE.INTRA.REPUL.0>
0

>  <SCORE.INTRA.SOLV>
-2.51879

>  <SCORE.INTRA.SOLV.lig_0>
-80.8302

>  <SCORE.INTRA.VDW>
1.33719

>  <SCORE.INTRA.VDW.0>
-4.23953

>  <SCORE.INTRA.norm>
-0.0771887

>  <SCORE.RESTR>
0

>  <SCORE.RESTR.CAVITY>
0

>  <SCORE.RESTR.norm>
0

>  <SCORE.SYSTEM>
0

>  <SCORE.SYSTEM.CONST>
0

>  <SCORE.SYSTEM.DIHEDRAL>
0

>  <SCORE.SYSTEM.SOLV>
0

>  <SCORE.SYSTEM.norm>
0

>  <SCORE.heavy>
31

>  <SCORE.norm>
-0.594301

>  <RMSD>
1.299

$$$$
2fcz_lig
 OpenBabel11021811433D
libRbt.so/2013.1/901 2013/11/27
 31 33  0  0  0  0  0  0  0  0999 V2000
   10.4209   15.8550   36.5689 C   0  0  0  0  0  0  0  0  0  0  0  0
   13.7633   23.8905   35.6442 N   0  0  0  0  0  0  0  0  0  0  0  0
    9.3458   16.7972   36.6125 O   0  0  0  0  0  0  0  0  0  0  0  0
   11.7430   16.5680   36.8728 C   0  0  1  0  0  0  0  0  0  0  0  0
   10.2806   22.9021   32.3517 N   0  0  0  0  0  0  0  0  0  0  0  0
   11.9474   17.7036   36.0076 O   0  0  0  0  0  0  0  0  0  0  0  0
   11.7845   18.9210   36.7621 C   0  0  1  0  0  0  0  0  0  0  0  0
    6.1976   22.6866   31.3491 N   0  0  0  0  0  0  0  0  0  0  0  0
   10.9826   19.8957   36.0736 O   0  0  0  0  0  0  0  0  0  0  0  0
   11.7118   20.7034   35.1340 C   0  0  2  0  0  0  0  0  0  0  0  0
   10.0294   17.5191   32.5684 N   0  0  0  0  0  0  0  0  0  0  0  0
   13.3932   21.3154   36.7625 O   0  0  0  0  0  0  0  0  0  0  0  0
   12.4003   21.8505   35.8839 C   0  0  1  0  0  0  0  0  0  0  0  0
   10.2836   20.2104   33.1895 O   0  0  0  0  0  0  0  0  0  0  0  0
   13.0722   22.8215   34.9102 C   0  0  1  0  0  0  0  0  0  0  0  0
    7.9847   20.4292   33.6794 O   0  0  0  0  0  0  0  0  0  0  0  0
   12.0280   23.4351   33.9749 C   0  0  0  0  0  0  0  0  0  0  0  0
    6.9053   20.3571   30.1584 O   0  0  0  0  0  0  0  0  0  0  0  0
   11.3517   22.3195   33.1755 C   0  0  1  0  0  0  0  0  0  0  0  0
    8.0777   17.7551   30.4876 O   0  0  0  0  0  0  0  0  0  0  0  0
   10.7464   21.2392   34.0785 C   0  0  2  0  0  0  0  0  0  0  0  0
   11.2641   19.3878   39.1340 O   0  0  0  0  0  0  0  0  0  0  0  0
    9.1078   19.5288   33.6504 C   0  0  1  0  0  0  0  0  0  0  0  0
   13.0733   17.3005   38.7888 O   0  0  0  0  0  0  0  0  0  0  0  0
    7.6230   20.9725   32.3979 C   0  0  2  0  0  0  0  0  0  0  0  0
    6.4439   21.9304   32.5856 C   0  0  0  0  0  0  0  0  0  0  0  0
    7.2370   19.8333   31.4479 C   0  0  2  0  0  0  0  0  0  0  0  0
    8.4190   18.8703   31.3173 C   0  0  1  0  0  0  0  0  0  0  0  0
    8.8312   18.3597   32.6998 C   0  0  1  0  0  0  0  0  0  0  0  0
   11.0762   18.4800   38.0440 C   0  0  2  0  0  0  0  0  0  0  0  0
   11.7424   17.1286   38.2949 C   0  0  1  0  0  0  0  0  0  0  0  0
  3  1  1  0  0  0  0
  4  1  1  6  0  0  0
  4  6  1  0  0  0  0
  4 31  1  0  0  0  0
  6  7  1  0  0  0  0
  7  9  1  6  0  0  0
  7 30  1  0  0  0  0
 10  9  1  1  0  0  0
 10 13  1  0  0  0  0
 10 21  1  0  0  0  0
 13 12  1  1  0  0  0
 13 15  1  0  0  0  0
 15  2  1  1  0  0  0
 15 17  1  0  0  0  0
 16 25  1  0  0  0  0
 17 19  1  0  0  0  0
 19  5  1  1  0  0  0
 19 21  1  0  0  0  0
 21 14  1  6  0  0  0
 23 14  1  6  0  0  0
 23 16  1  0  0  0  0
 23 29  1  0  0  0  0
 25 26  1  1  0  0  0
 25 27  1  0  0  0  0
 26  8  1  0  0  0  0
 27 18  1  6  0  0  0
 27 28  1  0  0  0  0
 28 20  1  6  0  0  0
 28 29  1  0  0  0  0
 29 11  1  6  0  0  0
 30 22  1  1  0  0  0
 30 31  1  0  0  0  0
 31 24  1  6  0  0  0
M  END
>  <CHROM.1>
-53.69916377,-84.33060481,-82.50220853,88.31803295,65.86398609,169.92503149
10.29411449,19.86893339,34.55808307,0.63302992,0.78736319,2.65988270

>  <Name>
2fcz_lig

>  <RI>
2.29611e+07

>  <Rbt.Current_Directory>
/home/itssahil/PROJECTS/Mol_Feturizer/New_Systems/rnas/2fcz

>  <Rbt.Executable>
rbdock ($Id: //depot/dev/client3/rdock/2013.1/src/exe/rbdock.cxx#4 $)

>  <Rbt.Library>
libRbt.so (2013.1, Build901 2013/11/27)

>  <Rbt.Parameter_File>
/export/apps/rDock/src/rDock_2013.1_src/data/scripts/dock_solv.prm

>  <Rbt.Receptor>
prm/pocket_docking_3.prm

>  <SCORE>
-19.6608

>  <SCORE.INTER>
-19.3441

>  <SCORE.INTER.CONST>
1

>  <SCORE.INTER.POLAR>
-1.8662

>  <SCORE.INTER.ROT>
6

>  <SCORE.INTER.SOLV>
14.5296

>  <SCORE.INTER.VDW>
-19.1186

>  <SCORE.INTER.norm>
-0.624002

>  <SCORE.INTRA>
-0.316759

>  <SCORE.INTRA.DIHEDRAL>
-2.06878

>  <SCORE.INTRA.DIHEDRAL.0>
10.8409

>  <SCORE.INTRA.POLAR>
0

>  <SCORE.INTRA.POLAR.0>
0

>  <SCORE.INTRA.REPUL>
0

>  <SCORE.INTRA.REPUL.0>
0

>  <SCORE.INTRA.SOLV>
-0.0520703

>  <SCORE.INTRA.SOLV.lig_0>
-80.8302

>  <SCORE.INTRA.VDW>
0.743668

>  <SCORE.INTRA.VDW.0>
-4.23953

>  <SCORE.INTRA.norm>
-0.010218

>  <SCORE.RESTR>
0

>  <SCORE.RESTR.CAVITY>
0

>  <SCORE.RESTR.norm>
0

>  <SCORE.SYSTEM>
0

>  <SCORE.SYSTEM.CONST>
0

>  <SCORE.SYSTEM.DIHEDRAL>
0

>  <SCORE.SYSTEM.SOLV>
0

>  <SCORE.SYSTEM.norm>
0

>  <SCORE.heavy>
31

>  <SCORE.norm>
-0.63422

>  <RMSD>
1.320

$$$$
2fcz_lig
 OpenBabel11021811433D
libRbt.so/2013.1/901 2013/11/27
 31 33  0  0  0  0  0  0  0  0999 V2000
    9.8452   15.5619   37.7576 C   0  0  0  0  0  0  0  0  0  0  0  0
   14.6751   22.6739   36.4521 N   0  0  0  0  0  0  0  0  0  0  0  0
    9.6655   14.8213   36.5474 O   0  0  0  0  0  0  0  0  0  0  0  0
   11.3057   16.0112   37.8743 C   0  0  1  0  0  0  0  0  0  0  0  0
   11.1580   22.5844   33.0508 N   0  0  0  0  0  0  0  0  0  0  0  0
   11.6672   16.9280   36.8214 O   0  0  0  0  0  0  0  0  0  0  0  0
   11.8198   18.2536   37.3666 C   0  0  1  0  0  0  0  0  0  0  0  0
    6.9398   22.4973   31.3277 N   0  0  0  0  0  0  0  0  0  0  0  0
   11.1813   19.2599   36.5623 O   0  0  0  0  0  0  0  0  0  0  0  0
   12.0744   19.9749   35.6917 C   0  0  2  0  0  0  0  0  0  0  0  0
   10.2073   17.1760   33.3254 N   0  0  0  0  0  0  0  0  0  0  0  0
   13.7967   20.1475   37.3821 O   0  0  0  0  0  0  0  0  0  0  0  0
   12.9463   20.9183   36.5295 C   0  0  1  0  0  0  0  0  0  0  0  0
   10.6315   19.8916   33.6980 O   0  0  0  0  0  0  0  0  0  0  0  0
   13.8150   21.8064   35.6356 C   0  0  1  0  0  0  0  0  0  0  0  0
    8.3285   20.3262   33.9815 O   0  0  0  0  0  0  0  0  0  0  0  0
   12.9304   22.6675   34.7313 C   0  0  0  0  0  0  0  0  0  0  0  0
    7.4995   19.9679   30.4105 O   0  0  0  0  0  0  0  0  0  0  0  0
   12.0777   21.7559   33.8465 C   0  0  1  0  0  0  0  0  0  0  0  0
    8.4334   17.3359   31.0843 O   0  0  0  0  0  0  0  0  0  0  0  0
   11.2558   20.7528   34.6631 C   0  0  2  0  0  0  0  0  0  0  0  0
   11.6019   19.1830   39.6478 O   0  0  0  0  0  0  0  0  0  0  0  0
    9.3752   19.3486   34.1294 C   0  0  1  0  0  0  0  0  0  0  0  0
   12.9102   16.7269   39.5745 O   0  0  0  0  0  0  0  0  0  0  0  0
    8.1035   20.7585   32.6285 C   0  0  2  0  0  0  0  0  0  0  0  0
    6.9945   21.8136   32.6281 C   0  0  0  0  0  0  0  0  0  0  0  0
    7.6958   19.5579   31.7673 C   0  0  2  0  0  0  0  0  0  0  0  0
    8.8032   18.5034   31.8250 C   0  0  1  0  0  0  0  0  0  0  0  0
    9.0740   18.1103   33.2791 C   0  0  1  0  0  0  0  0  0  0  0  0
   11.1433   18.1797   38.7365 C   0  0  2  0  0  0  0  0  0  0  0  0
   11.5364   16.7718   39.1800 C   0  0  1  0  0  0  0  0  0  0  0  0
  3  1  1  0  0  0  0
  4  1  1  6  0  0  0
  4  6  1  0  0  0  0
  4 31  1  0  0  0  0
  6  7  1  0  0  0  0
  7  9  1  6  0  0  0
  7 30  1  0  0  0  0
 10  9  1  1  0  0  0
 10 13  1  0  0  0  0
 10 21  1  0  0  0  0
 13 12  1  1  0  0  0
 13 15  1  0  0  0  0
 15  2  1  1  0  0  0
 15 17  1  0  0  0  0
 16 25  1  0  0  0  0
 17 19  1  0  0  0  0
 19  5  1  1  0  0  0
 19 21  1  0  0  0  0
 21 14  1  6  0  0  0
 23 14  1  6  0  0  0
 23 16  1  0  0  0  0
 23 29  1  0  0  0  0
 25 26  1  1  0  0  0
 25 27  1  0  0  0  0
 26  8  1  0  0  0  0
 27 18  1  6  0  0  0
 27 28  1  0  0  0  0
 28 20  1  6  0  0  0
 28 29  1  0  0  0  0
 29 11  1  6  0  0  0
 30 22  1  1  0  0  0
 30 31  1  0  0  0  0
 31 24  1  6  0  0  0
M  END
>  <CHROM.1>
64.17060886,-99.29169265,-72.24929148,84.56310958,79.00480317,167.27858503
10.62110357,19.32344523,35.11851251,0.80156205,0.76753167,2.52593498

>  <Name>
2fcz_lig

>  <RI>
2.29611e+07

>  <Rbt.Current_Directory>
/home/itssahil/PROJECTS/Mol_Feturizer/New_Systems/rnas/2fcz

>  <Rbt.Executable>
rbdock ($Id: //depot/dev/client3/rdock/2013.1/src/exe/rbdock.cxx#4 $)

>  <Rbt.Library>
libRbt.so (2013.1, Build901 2013/11/27)

>  <Rbt.Parameter_File>
/export/apps/rDock/src/rDock_2013.1_src/data/scripts/dock_solv.prm

>  <Rbt.Receptor>
prm/pocket_docking_3.prm

>  <SCORE>
-19.0765

>  <SCORE.INTER>
-19.6719

>  <SCORE.INTER.CONST>
1

>  <SCORE.INTER.POLAR>
-2.43212

>  <SCORE.INTER.ROT>
6

>  <SCORE.INTER.SOLV>
9.78865

>  <SCORE.INTER.VDW>
-15.8704

>  <SCORE.INTER.norm>
-0.634579

>  <SCORE.INTRA>
0.595468

>  <SCORE.INTRA.DIHEDRAL>
0.0336383

>  <SCORE.INTRA.DIHEDRAL.0>
10.8409

>  <SCORE.INTRA.POLAR>
0

>  <SCORE.INTRA.POLAR.0>
0

>  <SCORE.INTRA.REPUL>
0

>  <SCORE.INTRA.REPUL.0>
0

>  <SCORE.INTRA.SOLV>
-1.00975

>  <SCORE.INTRA.SOLV.lig_0>
-80.8302

>  <SCORE.INTRA.VDW>
1.08352

>  <SCORE.INTRA.VDW.0>
-4.23953

>  <SCORE.INTRA.norm>
0.0192086

>  <SCORE.RESTR>
0

>  <SCORE.RESTR.CAVITY>
0

>  <SCORE.RESTR.norm>
0

>  <SCORE.SYSTEM>
0

>  <SCORE.SYSTEM.CONST>
0

>  <SCORE.SYSTEM.DIHEDRAL>
0

>  <SCORE.SYSTEM.SOLV>
0

>  <SCORE.SYSTEM.norm>
0

>  <SCORE.heavy>
31

>  <SCORE.norm>
-0.61537

>  <RMSD>
1.489

$$$$
2fcz_lig
 OpenBabel11021811433D
libRbt.so/2013.1/901 2013/11/27
 31 33  0  0  0  0  0  0  0  0999 V2000
    7.1645   15.6556   35.9095 C   0  0  0  0  0  0  0  0  0  0  0  0
   14.2113   20.0800   37.1491 N   0  0  0  0  0  0  0  0  0  0  0  0
    7.5875   14.9466   34.7417 O   0  0  0  0  0  0  0  0  0  0  0  0
    8.3394   15.7895   36.8844 C   0  0  1  0  0  0  0  0  0  0  0  0
   12.0547   21.8389   33.1239 N   0  0  0  0  0  0  0  0  0  0  0  0
    9.3945   16.6070   36.3386 O   0  0  0  0  0  0  0  0  0  0  0  0
    9.4297   17.8730   37.0270 C   0  0  1  0  0  0  0  0  0  0  0  0
    7.1180   23.1586   32.7910 N   0  0  0  0  0  0  0  0  0  0  0  0
    9.5592   18.9881   36.1287 O   0  0  0  0  0  0  0  0  0  0  0  0
   10.8679   19.1331   35.5515 C   0  0  2  0  0  0  0  0  0  0  0  0
    9.6410   17.1587   32.6619 N   0  0  0  0  0  0  0  0  0  0  0  0
   11.9833   18.3816   37.5627 O   0  0  0  0  0  0  0  0  0  0  0  0
   11.8704   19.4831   36.6582 C   0  0  1  0  0  0  0  0  0  0  0  0
   10.1013   19.8153   33.3130 O   0  0  0  0  0  0  0  0  0  0  0  0
   13.2520   19.7885   36.0749 C   0  0  1  0  0  0  0  0  0  0  0  0
    7.7945   20.2968   33.4534 O   0  0  0  0  0  0  0  0  0  0  0  0
   13.1687   20.9849   35.1244 C   0  0  0  0  0  0  0  0  0  0  0  0
    7.2491   20.2846   29.8106 O   0  0  0  0  0  0  0  0  0  0  0  0
   12.2094   20.6520   33.9799 C   0  0  1  0  0  0  0  0  0  0  0  0
    8.0593   17.5744   30.3125 O   0  0  0  0  0  0  0  0  0  0  0  0
   10.8266   20.2241   34.4833 C   0  0  2  0  0  0  0  0  0  0  0  0
    8.0976   18.8344   38.8752 O   0  0  0  0  0  0  0  0  0  0  0  0
    8.8009   19.2767   33.5931 C   0  0  1  0  0  0  0  0  0  0  0  0
    8.7595   16.1586   39.2644 O   0  0  0  0  0  0  0  0  0  0  0  0
    7.6908   20.8548   32.1321 C   0  0  2  0  0  0  0  0  0  0  0  0
    6.6122   21.9409   32.1409 C   0  0  0  0  0  0  0  0  0  0  0  0
    7.3244   19.7494   31.1355 C   0  0  2  0  0  0  0  0  0  0  0  0
    8.3968   18.6588   31.1835 C   0  0  1  0  0  0  0  0  0  0  0  0
    8.5389   18.1294   32.6123 C   0  0  1  0  0  0  0  0  0  0  0  0
    8.0856   17.9466   37.7531 C   0  0  2  0  0  0  0  0  0  0  0  0
    7.8997   16.4890   38.1705 C   0  0  1  0  0  0  0  0  0  0  0  0
  3  1  1  0  0  0  0
  4  1  1  6  0  0  0
  4  6  1  0  0  0  0
  4 31  1  0  0  0  0
  6  7  1  0  0  0  0
  7  9  1  6  0  0  0
  7 30  1  0  0  0  0
 10  9  1  1  0  0  0
 10 13  1  0  0  0  0
 10 21  1  0  0  0  0
 13 12  1  1  0  0  0
 13 15  1  0  0  0  0
 15  2  1  1  0  0  0
 15 17  1  0  0  0  0
 16 25  1  0  0  0  0
 17 19  1  0  0  0  0
 19  5  1  6  0  0  0
 19 21  1  0  0  0  0
 21 14  1  6  0  0  0
 23 14  1  6  0  0  0
 23 16  1  0  0  0  0
 23 29  1  0  0  0  0
 25 26  1  1  0  0  0
 25 27  1  0  0  0  0
 26  8  1  0  0  0  0
 27 18  1  6  0  0  0
 27 28  1  0  0  0  0
 28 20  1  6  0  0  0
 28 29  1  0  0  0  0
 29 11  1  6  0  0  0
 30 22  1  1  0  0  0
 30 31  1  0  0  0  0
 31 24  1  1  0  0  0
M  END
>  <CHROM.1>
65.08463014,-73.48551429,-66.02561726,50.81880925,95.96702339,75.56838429
9.39301075,18.89627043,34.71706662,1.23256635,0.59378917,2.17782992

>  <Name>
2fcz_lig

>  <RI>
2.29611e+07

>  <Rbt.Current_Directory>
/home/itssahil/PROJECTS/Mol_Feturizer/New_Systems/rnas/2fcz

>  <Rbt.Executable>
rbdock ($Id: //depot/dev/client3/rdock/2013.1/src/exe/rbdock.cxx#4 $)

>  <Rbt.Library>
libRbt.so (2013.1, Build901 2013/11/27)

>  <Rbt.Parameter_File>
/export/apps/rDock/src/rDock_2013.1_src/data/scripts/dock_solv.prm

>  <Rbt.Receptor>
prm/pocket_docking_3.prm

>  <SCORE>
-18.5298

>  <SCORE.INTER>
-18.3461

>  <SCORE.INTER.CONST>
1

>  <SCORE.INTER.POLAR>
-2.14782

>  <SCORE.INTER.ROT>
6

>  <SCORE.INTER.SOLV>
15.2436

>  <SCORE.INTER.VDW>
-17.7525

>  <SCORE.INTER.norm>
-0.591809

>  <SCORE.INTRA>
-0.1837

>  <SCORE.INTRA.DIHEDRAL>
-3.63315

>  <SCORE.INTRA.DIHEDRAL.0>
10.8409

>  <SCORE.INTRA.POLAR>
0

>  <SCORE.INTRA.POLAR.0>
0

>  <SCORE.INTRA.REPUL>
0

>  <SCORE.INTRA.REPUL.0>
0

>  <SCORE.INTRA.SOLV>
-2.63073

>  <SCORE.INTRA.SOLV.lig_0>
-80.8302

>  <SCORE.INTRA.VDW>
2.94824

>  <SCORE.INTRA.VDW.0>
-4.23953

>  <SCORE.INTRA.norm>
-0.00592581

>  <SCORE.RESTR>
0

>  <SCORE.RESTR.CAVITY>
0

>  <SCORE.RESTR.norm>
0

>  <SCORE.SYSTEM>
0

>  <SCORE.SYSTEM.CONST>
0

>  <SCORE.SYSTEM.DIHEDRAL>
0

>  <SCORE.SYSTEM.SOLV>
0

>  <SCORE.SYSTEM.norm>
0

>  <SCORE.heavy>
31

>  <SCORE.norm>
-0.597734

>  <RMSD>
1.496

$$$$
2fcz_lig
 OpenBabel11021811433D
libRbt.so/2013.1/901 2013/11/27
 31 33  0  0  0  0  0  0  0  0999 V2000
   11.1483   15.2470   37.0920 C   0  0  0  0  0  0  0  0  0  0  0  0
   14.7760   22.2509   36.4257 N   0  0  0  0  0  0  0  0  0  0  0  0
   10.0200   15.8503   36.4528 O   0  0  0  0  0  0  0  0  0  0  0  0
   11.8336   16.2722   38.0019 C   0  0  1  0  0  0  0  0  0  0  0  0
   11.5483   22.2371   32.7475 N   0  0  0  0  0  0  0  0  0  0  0  0
   12.2084   17.4615   37.2777 O   0  0  0  0  0  0  0  0  0  0  0  0
   11.3498   18.5530   37.6640 C   0  0  1  0  0  0  0  0  0  0  0  0
    6.1028   21.7496   33.3082 N   0  0  0  0  0  0  0  0  0  0  0  0
   10.8757   19.3098   36.5372 O   0  0  0  0  0  0  0  0  0  0  0  0
   11.9172   19.8199   35.6876 C   0  0  2  0  0  0  0  0  0  0  0  0
    9.9070   17.0610   33.1853 N   0  0  0  0  0  0  0  0  0  0  0  0
   13.5125   19.9564   37.5016 O   0  0  0  0  0  0  0  0  0  0  0  0
   12.8358   20.7325   36.5097 C   0  0  1  0  0  0  0  0  0  0  0  0
   10.6331   19.7072   33.5895 O   0  0  0  0  0  0  0  0  0  0  0  0
   13.8772   21.4140   35.6189 C   0  0  1  0  0  0  0  0  0  0  0  0
    8.3900   20.4031   33.8277 O   0  0  0  0  0  0  0  0  0  0  0  0
   13.1823   22.2781   34.5643 C   0  0  0  0  0  0  0  0  0  0  0  0
    7.6041   20.1638   30.2371 O   0  0  0  0  0  0  0  0  0  0  0  0
   12.2905   21.3899   33.6945 C   0  0  1  0  0  0  0  0  0  0  0  0
    8.2132   17.4377   30.9085 O   0  0  0  0  0  0  0  0  0  0  0  0
   11.2866   20.5812   34.5233 C   0  0  2  0  0  0  0  0  0  0  0  0
    9.4714   18.7480   39.2604 O   0  0  0  0  0  0  0  0  0  0  0  0
    9.3134   19.3104   33.9896 C   0  0  1  0  0  0  0  0  0  0  0  0
   11.5988   17.2401   40.2348 O   0  0  0  0  0  0  0  0  0  0  0  0
    8.2461   20.8664   32.4740 C   0  0  2  0  0  0  0  0  0  0  0  0
    7.2665   22.0425   32.4588 C   0  0  0  0  0  0  0  0  0  0  0  0
    7.7218   19.7260   31.5942 C   0  0  2  0  0  0  0  0  0  0  0  0
    8.6987   18.5504   31.6667 C   0  0  1  0  0  0  0  0  0  0  0  0
    8.8902   18.1201   33.1228 C   0  0  1  0  0  0  0  0  0  0  0  0
   10.1711   17.8770   38.3664 C   0  0  2  0  0  0  0  0  0  0  0  0
   10.8819   16.7425   39.1019 C   0  0  1  0  0  0  0  0  0  0  0  0
  3  1  1  0  0  0  0
  4  1  1  6  0  0  0
  4  6  1  0  0  0  0
  4 31  1  0  0  0  0
  6  7  1  0  0  0  0
  7  9  1  6  0  0  0
  7 30  1  0  0  0  0
 10  9  1  1  0  0  0
 10 13  1  0  0  0  0
 10 21  1  0  0  0  0
 13 12  1  1  0  0  0
 13 15  1  0  0  0  0
 15  2  1  1  0  0  0
 15 17  1  0  0  0  0
 16 25  1  0  0  0  0
 17 19  1  0  0  0  0
 19  5  1  6  0  0  0
 19 21  1  0  0  0  0
 21 14  1  6  0  0  0
 23 14  1  6  0  0  0
 23 16  1  0  0  0  0
 23 29  1  0  0  0  0
 25 26  1  1  0  0  0
 25 27  1  0  0  0  0
 26  8  1  0  0  0  0
 27 18  1  6  0  0  0
 27 28  1  0  0  0  0
 28 20  1  6  0  0  0
 28 29  1  0  0  0  0
 29 11  1  6  0  0  0
 30 22  1  1  0  0  0
 30 31  1  0  0  0  0
 31 24  1  1  0  0  0
M  END
>  <CHROM.1>
-55.83260839,-55.25263778,-59.33156544,81.51430448,73.85117555,-43.83858636
10.49228620,19.29564923,35.10529366,0.89416314,0.69366231,2.37564439

>  <Name>
2fcz_lig

>  <RI>
2.29611e+07

>  <Rbt.Current_Directory>
/home/itssahil/PROJECTS/Mol_Feturizer/New_Systems/rnas/2fcz

>  <Rbt.Executable>
rbdock ($Id: //depot/dev/client3/rdock/2013.1/src/exe/rbdock.cxx#4 $)

>  <Rbt.Library>
libRbt.so (2013.1, Build901 2013/11/27)

>  <Rbt.Parameter_File>
/export/apps/rDock/src/rDock_2013.1_src/data/scripts/dock_solv.prm

>  <Rbt.Receptor>
prm/pocket_docking_3.prm

>  <SCORE>
-16.4728

>  <SCORE.INTER>
-15.9715

>  <SCORE.INTER.CONST>
1

>  <SCORE.INTER.POLAR>
-2.40978

>  <SCORE.INTER.ROT>
6

>  <SCORE.INTER.SOLV>
16.1869

>  <SCORE.INTER.VDW>
-15.6107

>  <SCORE.INTER.norm>
-0.51521

>  <SCORE.INTRA>
-0.501318

>  <SCORE.INTRA.DIHEDRAL>
-6.70198

>  <SCORE.INTRA.DIHEDRAL.0>
10.8409

>  <SCORE.INTRA.POLAR>
0

>  <SCORE.INTRA.POLAR.0>
0

>  <SCORE.INTRA.REPUL>
0

>  <SCORE.INTRA.REPUL.0>
0

>  <SCORE.INTRA.SOLV>
-0.279197

>  <SCORE.INTRA.SOLV.lig_0>
-80.8302

>  <SCORE.INTRA.VDW>
2.98927

>  <SCORE.INTRA.VDW.0>
-4.23953

>  <SCORE.INTRA.norm>
-0.0161716

>  <SCORE.RESTR>
0

>  <SCORE.RESTR.CAVITY>
0

>  <SCORE.RESTR.norm>
0

>  <SCORE.SYSTEM>
0

>  <SCORE.SYSTEM.CONST>
0

>  <SCORE.SYSTEM.DIHEDRAL>
0

>  <SCORE.SYSTEM.SOLV>
0

>  <SCORE.SYSTEM.norm>
0

>  <SCORE.heavy>
31

>  <SCORE.norm>
-0.531381

>  <RMSD>
1.512

$$$$
2fcz_lig
 OpenBabel11021811433D
libRbt.so/2013.1/901 2013/11/27
 31 33  0  0  0  0  0  0  0  0999 V2000
   10.0106   15.5723   37.5600 C   0  0  0  0  0  0  0  0  0  0  0  0
   14.8959   22.6573   36.2874 N   0  0  0  0  0  0  0  0  0  0  0  0
    9.1312   16.6996   37.5215 O   0  0  0  0  0  0  0  0  0  0  0  0
   11.4509   16.0500   37.7739 C   0  0  1  0  0  0  0  0  0  0  0  0
   11.3307   22.5350   32.9376 N   0  0  0  0  0  0  0  0  0  0  0  0
   11.8481   17.0106   36.7743 O   0  0  0  0  0  0  0  0  0  0  0  0
   11.9377   18.3196   37.3711 C   0  0  1  0  0  0  0  0  0  0  0  0
    6.1486   21.7588   33.2759 N   0  0  0  0  0  0  0  0  0  0  0  0
   11.3206   19.3385   36.5660 O   0  0  0  0  0  0  0  0  0  0  0  0
   12.2189   19.9993   35.6586 C   0  0  2  0  0  0  0  0  0  0  0  0
   10.1008   17.1961   33.4311 N   0  0  0  0  0  0  0  0  0  0  0  0
   13.9684   20.1887   37.3191 O   0  0  0  0  0  0  0  0  0  0  0  0
   13.1255   20.9497   36.4505 C   0  0  1  0  0  0  0  0  0  0  0  0
   10.7468   19.8812   33.6882 O   0  0  0  0  0  0  0  0  0  0  0  0
   14.0033   21.7832   35.5139 C   0  0  1  0  0  0  0  0  0  0  0  0
    8.4834   20.5219   33.8866 O   0  0  0  0  0  0  0  0  0  0  0  0
   13.1278   22.6334   34.5907 C   0  0  0  0  0  0  0  0  0  0  0  0
    7.7124   20.0605   30.3144 O   0  0  0  0  0  0  0  0  0  0  0  0
   12.2407   21.7126   33.7505 C   0  0  1  0  0  0  0  0  0  0  0  0
    8.4011   17.3953   31.1362 O   0  0  0  0  0  0  0  0  0  0  0  0
   11.4056   20.7602   34.6134 C   0  0  2  0  0  0  0  0  0  0  0  0
   11.5705   19.1642   39.6661 O   0  0  0  0  0  0  0  0  0  0  0  0
    9.4387   19.4678   34.1091 C   0  0  1  0  0  0  0  0  0  0  0  0
   12.9403   16.7421   39.5850 O   0  0  0  0  0  0  0  0  0  0  0  0
    8.3286   20.9049   32.5091 C   0  0  2  0  0  0  0  0  0  0  0  0
    7.3144   22.0485   32.4284 C   0  0  0  0  0  0  0  0  0  0  0  0
    7.8404   19.7023   31.6938 C   0  0  2  0  0  0  0  0  0  0  0  0
    8.8517   18.5623   31.8317 C   0  0  1  0  0  0  0  0  0  0  0  0
    9.0530   18.2193   33.3095 C   0  0  1  0  0  0  0  0  0  0  0  0
   11.1880   18.1830   38.6973 C   0  0  2  0  0  0  0  0  0  0  0  0
   11.5900   16.7698   39.1152 C   0  0  1  0  0  0  0  0  0  0  0  0
  3  1  1  0  0  0  0
  4  1  1  6  0  0  0
  4  6  1  0  0  0  0
  4 31  1  0  0  0  0
  6  7  1  0  0  0  0
  7  9  1  6  0  0  0
  7 30  1  0  0  0  0
 10  9  1  1  0  0  0
 10 13  1  0  0  0  0
 10 21  1  0  0  0  0
 13 12  1  1  0  0  0
 13 15  1  0  0  0  0
 15  2  1  1  0  0  0
 15 17  1  0  0  0  0
 16 25  1  0  0  0  0
 17 19  1  0  0  0  0
 19  5  1  1  0  0  0
 19 21  1  0  0  0  0
 21 14  1  6  0  0  0
 23 14  1  6  0  0  0
 23 16  1  0  0  0  0
 23 29  1  0  0  0  0
 25 26  1  1  0  0  0
 25 27  1  0  0  0  0
 26  8  1  0  0  0  0
 27 18  1  6  0  0  0
 27 28  1  0  0  0  0
 28 20  1  6  0  0  0
 28 29  1  0  0  0  0
 29 11  1  6  0  0  0
 30 22  1  1  0  0  0
 30 31  1  0  0  0  0
 31 24  1  6  0  0  0
M  END
>  <CHROM.1>
-55.26788246,-92.49678417,-73.91693240,89.11920476,77.49843489,-44.72544216
10.69029564,19.41305657,35.16270099,0.82668508,0.68788472,2.42857323

>  <Name>
2fcz_lig

>  <RI>
2.29611e+07

>  <Rbt.Current_Directory>
/home/itssahil/PROJECTS/Mol_Feturizer/New_Systems/rnas/2fcz

>  <Rbt.Executable>
rbdock ($Id: //depot/dev/client3/rdock/2013.1/src/exe/rbdock.cxx#4 $)

>  <Rbt.Library>
libRbt.so (2013.1, Build901 2013/11/27)

>  <Rbt.Parameter_File>
/export/apps/rDock/src/rDock_2013.1_src/data/scripts/dock_solv.prm

>  <Rbt.Receptor>
prm/pocket_docking_3.prm

>  <SCORE>
-17.8205

>  <SCORE.INTER>
-18.904

>  <SCORE.INTER.CONST>
1

>  <SCORE.INTER.POLAR>
-2.87722

>  <SCORE.INTER.ROT>
6

>  <SCORE.INTER.SOLV>
16.0465

>  <SCORE.INTER.VDW>
-15.9608

>  <SCORE.INTER.norm>
-0.609807

>  <SCORE.INTRA>
1.08353

>  <SCORE.INTRA.DIHEDRAL>
-0.112362

>  <SCORE.INTRA.DIHEDRAL.0>
10.8409

>  <SCORE.INTRA.POLAR>
0

>  <SCORE.INTRA.POLAR.0>
0

>  <SCORE.INTRA.REPUL>
0

>  <SCORE.INTRA.REPUL.0>
0

>  <SCORE.INTRA.SOLV>
0.104499

>  <SCORE.INTRA.SOLV.lig_0>
-80.8302

>  <SCORE.INTRA.VDW>
1.08746

>  <SCORE.INTRA.VDW.0>
-4.23953

>  <SCORE.INTRA.norm>
0.0349526

>  <SCORE.RESTR>
0

>  <SCORE.RESTR.CAVITY>
0

>  <SCORE.RESTR.norm>
0

>  <SCORE.SYSTEM>
0

>  <SCORE.SYSTEM.CONST>
0

>  <SCORE.SYSTEM.DIHEDRAL>
0

>  <SCORE.SYSTEM.SOLV>
0

>  <SCORE.SYSTEM.norm>
0

>  <SCORE.heavy>
31

>  <SCORE.norm>
-0.574854

>  <RMSD>
1.550

$$$$
2fcz_lig
 OpenBabel11021811433D
libRbt.so/2013.1/901 2013/11/27
 31 33  0  0  0  0  0  0  0  0999 V2000
    8.3979   17.6879   38.6431 C   0  0  0  0  0  0  0  0  0  0  0  0
   13.5281   23.5344   35.7932 N   0  0  0  0  0  0  0  0  0  0  0  0
    9.0016   18.9461   38.9561 O   0  0  0  0  0  0  0  0  0  0  0  0
    8.8335   17.2418   37.2432 C   0  0  1  0  0  0  0  0  0  0  0  0
   10.5701   23.0555   31.9243 N   0  0  0  0  0  0  0  0  0  0  0  0
    8.6278   18.2807   36.2645 O   0  0  0  0  0  0  0  0  0  0  0  0
    9.9011   18.8208   35.8586 C   0  0  1  0  0  0  0  0  0  0  0  0
    6.3610   23.3458   32.5474 N   0  0  0  0  0  0  0  0  0  0  0  0
    9.9034   20.2578   35.8116 O   0  0  0  0  0  0  0  0  0  0  0  0
   10.9510   20.8210   35.0040 C   0  0  2  0  0  0  0  0  0  0  0  0
    9.6613   17.7588   32.4105 N   0  0  0  0  0  0  0  0  0  0  0  0
   12.4017   21.1865   36.9055 O   0  0  0  0  0  0  0  0  0  0  0  0
   11.7279   21.8507   35.8336 C   0  0  1  0  0  0  0  0  0  0  0  0
    9.8265   20.4943   32.8378 O   0  0  0  0  0  0  0  0  0  0  0  0
   12.7630   22.5825   34.9760 C   0  0  1  0  0  0  0  0  0  0  0  0
    7.5025   20.6907   33.2026 O   0  0  0  0  0  0  0  0  0  0  0  0
   12.0676   23.3297   33.8360 C   0  0  0  0  0  0  0  0  0  0  0  0
    6.5957   20.3295   29.6508 O   0  0  0  0  0  0  0  0  0  0  0  0
   11.3183   22.3244   32.9592 C   0  0  1  0  0  0  0  0  0  0  0  0
    7.8073   17.7898   30.2296 O   0  0  0  0  0  0  0  0  0  0  0  0
   10.3358   21.4667   33.7640 C   0  0  2  0  0  0  0  0  0  0  0  0
   12.2371   18.3085   36.4877 O   0  0  0  0  0  0  0  0  0  0  0  0
    8.6451   19.8194   33.2937 C   0  0  1  0  0  0  0  0  0  0  0  0
   10.6600   16.0397   36.1493 O   0  0  0  0  0  0  0  0  0  0  0  0
    7.1912   21.1278   31.8684 C   0  0  2  0  0  0  0  0  0  0  0  0
    5.9838   22.0668   31.9283 C   0  0  0  0  0  0  0  0  0  0  0  0
    6.8763   19.9116   30.9902 C   0  0  2  0  0  0  0  0  0  0  0  0
    8.0839   18.9719   30.9876 C   0  0  1  0  0  0  0  0  0  0  0  0
    8.4401   18.5761   32.4224 C   0  0  1  0  0  0  0  0  0  0  0  0
   10.8772   18.3365   36.9320 C   0  0  2  0  0  0  0  0  0  0  0  0
   10.3313   16.9377   37.2126 C   0  0  1  0  0  0  0  0  0  0  0  0
  3  1  1  0  0  0  0
  4  1  1  1  0  0  0
  4  6  1  0  0  0  0
  4 31  1  0  0  0  0
  6  7  1  0  0  0  0
  7  9  1  1  0  0  0
  7 30  1  0  0  0  0
 10  9  1  1  0  0  0
 10 13  1  0  0  0  0
 10 21  1  0  0  0  0
 13 12  1  1  0  0  0
 13 15  1  0  0  0  0
 15  2  1  1  0  0  0
 15 17  1  0  0  0  0
 16 25  1  0  0  0  0
 17 19  1  0  0  0  0
 19  5  1  6  0  0  0
 19 21  1  0  0  0  0
 21 14  1  6  0  0  0
 23 14  1  6  0  0  0
 23 16  1  0  0  0  0
 23 29  1  0  0  0  0
 25 26  1  1  0  0  0
 25 27  1  0  0  0  0
 26  8  1  0  0  0  0
 27 18  1  6  0  0  0
 27 28  1  0  0  0  0
 28 20  1  6  0  0  0
 28 29  1  0  0  0  0
 29 11  1  6  0  0  0
 30 22  1  6  0  0  0
 30 31  1  0  0  0  0
 31 24  1  6  0  0  0
M  END
>  <CHROM.1>
-51.11951432,-159.95737482,-127.08260906,70.70561571,74.51223164,70.71384739
9.58312040,20.02827357,34.30583980,0.85993797,0.76811655,2.39742933

>  <Name>
2fcz_lig

>  <RI>
3.41297e+07

>  <Rbt.Current_Directory>
/home/itssahil/PROJECTS/Mol_Feturizer/New_Systems/rnas/2fcz

>  <Rbt.Executable>
rbdock ($Id: //depot/dev/client3/rdock/2013.1/src/exe/rbdock.cxx#4 $)

>  <Rbt.Library>
libRbt.so (2013.1, Build901 2013/11/27)

>  <Rbt.Parameter_File>
/export/apps/rDock/src/rDock_2013.1_src/data/scripts/dock_solv.prm

>  <Rbt.Receptor>
prm/pocket_docking_2.prm

>  <SCORE>
-17.6304

>  <SCORE.INTER>
-17.8508

>  <SCORE.INTER.CONST>
1

>  <SCORE.INTER.POLAR>
-1.82833

>  <SCORE.INTER.ROT>
6

>  <SCORE.INTER.SOLV>
18.3159

>  <SCORE.INTER.VDW>
-19.5114

>  <SCORE.INTER.norm>
-0.575832

>  <SCORE.INTRA>
-0.0628274

>  <SCORE.INTRA.DIHEDRAL>
0.251049

>  <SCORE.INTRA.DIHEDRAL.0>
10.8409

>  <SCORE.INTRA.POLAR>
0

>  <SCORE.INTRA.POLAR.0>
0

>  <SCORE.INTRA.REPUL>
0

>  <SCORE.INTRA.REPUL.0>
0

>  <SCORE.INTRA.SOLV>
-1.55845

>  <SCORE.INTRA.SOLV.lig_0>
-80.8302

>  <SCORE.INTRA.VDW>
0.590871

>  <SCORE.INTRA.VDW.0>
-4.23953

>  <SCORE.INTRA.norm>
-0.00202669

>  <SCORE.RESTR>
0.283215

>  <SCORE.RESTR.CAVITY>
0.283215

>  <SCORE.RESTR.norm>
0.00913598

>  <SCORE.SYSTEM>
0

>  <SCORE.SYSTEM.CONST>
0

>  <SCORE.SYSTEM.DIHEDRAL>
0

>  <SCORE.SYSTEM.SOLV>
0

>  <SCORE.SYSTEM.norm>
0

>  <SCORE.heavy>
31

>  <SCORE.norm>
-0.568723

>  <RMSD>
1.582

$$$$
2fcz_lig
 OpenBabel11021811433D
libRbt.so/2013.1/901 2013/11/27
 31 33  0  0  0  0  0  0  0  0999 V2000
    9.8832   15.4515   37.8902 C   0  0  0  0  0  0  0  0  0  0  0  0
   14.6217   22.5847   36.4927 N   0  0  0  0  0  0  0  0  0  0  0  0
    9.0258   16.5870   37.7461 O   0  0  0  0  0  0  0  0  0  0  0  0
   11.3416   15.9148   37.9734 C   0  0  1  0  0  0  0  0  0  0  0  0
   11.1054   22.4797   33.0908 N   0  0  0  0  0  0  0  0  0  0  0  0
   11.6813   16.8038   36.8900 O   0  0  0  0  0  0  0  0  0  0  0  0
   11.8309   18.1455   37.3951 C   0  0  1  0  0  0  0  0  0  0  0  0
    6.9178   22.3638   31.3032 N   0  0  0  0  0  0  0  0  0  0  0  0
   11.1735   19.1237   36.5716 O   0  0  0  0  0  0  0  0  0  0  0  0
   12.0569   19.8585   35.7075 C   0  0  2  0  0  0  0  0  0  0  0  0
   10.1893   17.0616   33.3221 N   0  0  0  0  0  0  0  0  0  0  0  0
   13.7771   20.0384   37.3994 O   0  0  0  0  0  0  0  0  0  0  0  0
   12.9163   20.8056   36.5540 C   0  0  1  0  0  0  0  0  0  0  0  0
   10.6149   19.7744   33.7132 O   0  0  0  0  0  0  0  0  0  0  0  0
   13.7729   21.7134   35.6682 C   0  0  1  0  0  0  0  0  0  0  0  0
    8.3100   20.2120   33.9761 O   0  0  0  0  0  0  0  0  0  0  0  0
   12.8769   22.5709   34.7719 C   0  0  0  0  0  0  0  0  0  0  0  0
    7.5160   19.8739   30.3952 O   0  0  0  0  0  0  0  0  0  0  0  0
   12.0363   21.6563   33.8788 C   0  0  1  0  0  0  0  0  0  0  0  0
    8.4381   17.2367   31.0644 O   0  0  0  0  0  0  0  0  0  0  0  0
   11.2279   20.6348   34.6862 C   0  0  2  0  0  0  0  0  0  0  0  0
   11.6374   19.1380   39.6518 O   0  0  0  0  0  0  0  0  0  0  0  0
    9.3533   19.2316   34.1292 C   0  0  1  0  0  0  0  0  0  0  0  0
   12.9638   16.6906   39.6299 O   0  0  0  0  0  0  0  0  0  0  0  0
    8.0993   20.6518   32.6233 C   0  0  2  0  0  0  0  0  0  0  0  0
    6.9924   21.7090   32.6173 C   0  0  0  0  0  0  0  0  0  0  0  0
    7.6980   19.4565   31.7517 C   0  0  2  0  0  0  0  0  0  0  0  0
    8.8027   18.3996   31.8149 C   0  0  1  0  0  0  0  0  0  0  0  0
    9.0582   17.9983   33.2695 C   0  0  1  0  0  0  0  0  0  0  0  0
   11.1741   18.1057   38.7759 C   0  0  2  0  0  0  0  0  0  0  0  0
   11.5844   16.7140   39.2537 C   0  0  1  0  0  0  0  0  0  0  0  0
  3  1  1  0  0  0  0
  4  1  1  6  0  0  0
  4  6  1  0  0  0  0
  4 31  1  0  0  0  0
  6  7  1  0  0  0  0
  7  9  1  6  0  0  0
  7 30  1  0  0  0  0
 10  9  1  1  0  0  0
 10 13  1  0  0  0  0
 10 21  1  0  0  0  0
 13 12  1  1  0  0  0
 13 15  1  0  0  0  0
 15  2  1  1  0  0  0
 15 17  1  0  0  0  0
 16 25  1  0  0  0  0
 17 19  1  0  0  0  0
 19  5  1  1  0  0  0
 19 21  1  0  0  0  0
 21 14  1  6  0  0  0
 23 14  1  6  0  0  0
 23 16  1  0  0  0  0
 23 29  1  0  0  0  0
 25 26  1  1  0  0  0
 25 27  1  0  0  0  0
 26  8  1  0  0  0  0
 27 18  1  6  0  0  0
 27 28  1  0  0  0  0
 28 20  1  6  0  0  0
 28 29  1  0  0  0  0
 29 11  1  6  0  0  0
 30 22  1  1  0  0  0
 30 31  1  0  0  0  0
 31 24  1  6  0  0  0
M  END
>  <CHROM.1>
-51.21479416,-101.70687775,-70.51791957,85.71946354,78.69522997,169.44930299
10.59272737,19.28992165,35.18331866,0.83109735,0.74179037,2.45575482

>  <Name>
2fcz_lig

>  <RI>
0

>  <Rbt.Current_Directory>
/home/itssahil/PROJECTS/Mol_Feturizer/New_Systems/rnas/2fcz

>  <Rbt.Executable>
rbdock ($Id: //depot/dev/client3/rdock/2013.1/src/exe/rbdock.cxx#4 $)

>  <Rbt.Library>
libRbt.so (2013.1, Build901 2013/11/27)

>  <Rbt.Parameter_File>
/export/apps/rDock/src/rDock_2013.1_src/data/scripts/dock_solv.prm

>  <Rbt.Receptor>
prm/pocket_docking_5.prm

>  <SCORE>
-18.5337

>  <SCORE.INTER>
-19.8911

>  <SCORE.INTER.CONST>
1

>  <SCORE.INTER.POLAR>
-2.52518

>  <SCORE.INTER.ROT>
6

>  <SCORE.INTER.SOLV>
9.95652

>  <SCORE.INTER.VDW>
-15.7623

>  <SCORE.INTER.norm>
-0.641647

>  <SCORE.INTRA>
1.35732

>  <SCORE.INTRA.DIHEDRAL>
0.433064

>  <SCORE.INTRA.DIHEDRAL.0>
10.8409

>  <SCORE.INTRA.POLAR>
0

>  <SCORE.INTRA.POLAR.0>
0

>  <SCORE.INTRA.REPUL>
0

>  <SCORE.INTRA.REPUL.0>
0

>  <SCORE.INTRA.SOLV>
-0.433796

>  <SCORE.INTRA.SOLV.lig_0>
-80.8302

>  <SCORE.INTRA.VDW>
1.35768

>  <SCORE.INTRA.VDW.0>
-4.23953

>  <SCORE.INTRA.norm>
0.0437844

>  <SCORE.RESTR>
0

>  <SCORE.RESTR.CAVITY>
0

>  <SCORE.RESTR.norm>
0

>  <SCORE.SYSTEM>
0

>  <SCORE.SYSTEM.CONST>
0

>  <SCORE.SYSTEM.DIHEDRAL>
0

>  <SCORE.SYSTEM.SOLV>
0

>  <SCORE.SYSTEM.norm>
0

>  <SCORE.heavy>
31

>  <SCORE.norm>
-0.597862

>  <RMSD>
1.590

$$$$
2fcz_lig
 OpenBabel11021811433D
libRbt.so/2013.1/901 2013/11/27
 31 33  0  0  0  0  0  0  0  0999 V2000
   10.0321   15.4920   37.7215 C   0  0  0  0  0  0  0  0  0  0  0  0
   14.7059   22.6980   36.4440 N   0  0  0  0  0  0  0  0  0  0  0  0
    9.1424   16.6077   37.6254 O   0  0  0  0  0  0  0  0  0  0  0  0
   11.4730   15.9933   37.8654 C   0  0  1  0  0  0  0  0  0  0  0  0
   11.1534   22.5871   33.0803 N   0  0  0  0  0  0  0  0  0  0  0  0
   11.8180   16.9305   36.8250 O   0  0  0  0  0  0  0  0  0  0  0  0
   11.9129   18.2567   37.3817 C   0  0  1  0  0  0  0  0  0  0  0  0
    7.3362   22.7914   32.8937 N   0  0  0  0  0  0  0  0  0  0  0  0
   11.2513   19.2449   36.5737 O   0  0  0  0  0  0  0  0  0  0  0  0
   12.1270   19.9743   35.6973 C   0  0  2  0  0  0  0  0  0  0  0  0
   10.4116   17.1257   33.6008 N   0  0  0  0  0  0  0  0  0  0  0  0
   13.8655   20.1573   37.3700 O   0  0  0  0  0  0  0  0  0  0  0  0
   12.9975   20.9230   36.5307 C   0  0  1  0  0  0  0  0  0  0  0  0
   10.6636   19.8854   33.7188 O   0  0  0  0  0  0  0  0  0  0  0  0
   13.8466   21.8253   35.6322 C   0  0  1  0  0  0  0  0  0  0  0  0
    8.3314   20.2026   33.9003 O   0  0  0  0  0  0  0  0  0  0  0  0
   12.9428   22.6811   34.7421 C   0  0  0  0  0  0  0  0  0  0  0  0
    7.6368   19.4552   30.3610 O   0  0  0  0  0  0  0  0  0  0  0  0
   12.0908   21.7648   33.8617 C   0  0  1  0  0  0  0  0  0  0  0  0
    8.7021   16.9618   31.3105 O   0  0  0  0  0  0  0  0  0  0  0  0
   11.2888   20.7483   34.6817 C   0  0  2  0  0  0  0  0  0  0  0  0
   11.6239   19.1606   39.6652 O   0  0  0  0  0  0  0  0  0  0  0  0
    9.4285   19.3097   34.1688 C   0  0  1  0  0  0  0  0  0  0  0  0
   13.0222   16.7545   39.5970 O   0  0  0  0  0  0  0  0  0  0  0  0
    8.1237   20.4893   32.5065 C   0  0  2  0  0  0  0  0  0  0  0  0
    6.9552   21.4694   32.3754 C   0  0  0  0  0  0  0  0  0  0  0  0
    7.8144   19.1893   31.7557 C   0  0  2  0  0  0  0  0  0  0  0  0
    8.9794   18.2152   31.9436 C   0  0  1  0  0  0  0  0  0  0  0  0
    9.2273   17.9799   33.4353 C   0  0  1  0  0  0  0  0  0  0  0  0
   11.2173   18.1480   38.7396 C   0  0  2  0  0  0  0  0  0  0  0  0
   11.6543   16.7522   39.1800 C   0  0  1  0  0  0  0  0  0  0  0  0
  3  1  1  0  0  0  0
  4  1  1  6  0  0  0
  4  6  1  0  0  0  0
  4 31  1  0  0  0  0
  6  7  1  0  0  0  0
  7  9  1  6  0  0  0
  7 30  1  0  0  0  0
 10  9  1  1  0  0  0
 10 13  1  0  0  0  0
 10 21  1  0  0  0  0
 13 12  1  1  0  0  0
 13 15  1  0  0  0  0
 15  2  1  1  0  0  0
 15 17  1  0  0  0  0
 16 25  1  0  0  0  0
 17 19  1  0  0  0  0
 19  5  1  1  0  0  0
 19 21  1  0  0  0  0
 21 14  1  6  0  0  0
 23 14  1  6  0  0  0
 23 16  1  0  0  0  0
 23 29  1  0  0  0  0
 25 26  1  1  0  0  0
 25 27  1  0  0  0  0
 26  8  1  0  0  0  0
 27 18  1  6  0  0  0
 27 28  1  0  0  0  0
 28 20  1  6  0  0  0
 28 29  1  0  0  0  0
 29 11  1  6  0  0  0
 30 22  1  1  0  0  0
 30 31  1  0  0  0  0
 31 24  1  6  0  0  0
M  END
>  <CHROM.1>
-52.65641126,-97.73826485,-71.28050397,83.64299273,86.17337391,69.47257996
10.69270600,19.31381207,35.22057363,0.78452993,0.76484074,2.48780397

>  <Name>
2fcz_lig

>  <RI>
0

>  <Rbt.Current_Directory>
/home/itssahil/PROJECTS/Mol_Feturizer/New_Systems/rnas/2fcz

>  <Rbt.Executable>
rbdock ($Id: //depot/dev/client3/rdock/2013.1/src/exe/rbdock.cxx#4 $)

>  <Rbt.Library>
libRbt.so (2013.1, Build901 2013/11/27)

>  <Rbt.Parameter_File>
/export/apps/rDock/src/rDock_2013.1_src/data/scripts/dock_solv.prm

>  <Rbt.Receptor>
prm/pocket_docking_5.prm

>  <SCORE>
-17.7973

>  <SCORE.INTER>
-19.0228

>  <SCORE.INTER.CONST>
1

>  <SCORE.INTER.POLAR>
-2.49313

>  <SCORE.INTER.ROT>
6

>  <SCORE.INTER.SOLV>
13.5607

>  <SCORE.INTER.VDW>
-16.4917

>  <SCORE.INTER.norm>
-0.613639

>  <SCORE.INTRA>
1.22548

>  <SCORE.INTRA.DIHEDRAL>
0.63364

>  <SCORE.INTRA.DIHEDRAL.0>
10.8409

>  <SCORE.INTRA.POLAR>
0

>  <SCORE.INTRA.POLAR.0>
0

>  <SCORE.INTRA.REPUL>
0

>  <SCORE.INTRA.REPUL.0>
0

>  <SCORE.INTRA.SOLV>
-0.266982

>  <SCORE.INTRA.SOLV.lig_0>
-80.8302

>  <SCORE.INTRA.VDW>
1.04215

>  <SCORE.INTRA.VDW.0>
-4.23953

>  <SCORE.INTRA.norm>
0.0395317

>  <SCORE.RESTR>
0

>  <SCORE.RESTR.CAVITY>
0

>  <SCORE.RESTR.norm>
0

>  <SCORE.SYSTEM>
0

>  <SCORE.SYSTEM.CONST>
0

>  <SCORE.SYSTEM.DIHEDRAL>
0

>  <SCORE.SYSTEM.SOLV>
0

>  <SCORE.SYSTEM.norm>
0

>  <SCORE.heavy>
31

>  <SCORE.norm>
-0.574107

>  <RMSD>
1.596

$$$$
2fcz_lig
 OpenBabel11021811433D
libRbt.so/2013.1/901 2013/11/27
 31 33  0  0  0  0  0  0  0  0999 V2000
   10.8981   15.1979   37.0928 C   0  0  0  0  0  0  0  0  0  0  0  0
   14.8644   22.0606   36.5138 N   0  0  0  0  0  0  0  0  0  0  0  0
   11.7904   14.7395   36.0735 O   0  0  0  0  0  0  0  0  0  0  0  0
   11.6307   16.1774   38.0161 C   0  0  1  0  0  0  0  0  0  0  0  0
   11.7031   22.1555   32.7796 N   0  0  0  0  0  0  0  0  0  0  0  0
   12.0756   17.3499   37.3041 O   0  0  0  0  0  0  0  0  0  0  0  0
   11.2745   18.4836   37.6924 C   0  0  1  0  0  0  0  0  0  0  0  0
    6.1654   21.7950   33.2220 N   0  0  0  0  0  0  0  0  0  0  0  0
   10.8514   19.2735   36.5680 O   0  0  0  0  0  0  0  0  0  0  0  0
   11.9266   19.7390   35.7349 C   0  0  2  0  0  0  0  0  0  0  0  0
    9.8843   17.0396   33.2092 N   0  0  0  0  0  0  0  0  0  0  0  0
   13.4941   19.8217   37.5761 O   0  0  0  0  0  0  0  0  0  0  0  0
   12.8655   20.6190   36.5695 C   0  0  1  0  0  0  0  0  0  0  0  0
   10.6758   19.6668   33.6150 O   0  0  0  0  0  0  0  0  0  0  0  0
   13.9479   21.2557   35.6945 C   0  0  1  0  0  0  0  0  0  0  0  0
    8.4496   20.4216   33.8317 O   0  0  0  0  0  0  0  0  0  0  0  0
   13.3056   22.1413   34.6246 C   0  0  0  0  0  0  0  0  0  0  0  0
    7.6899   20.1954   30.2346 O   0  0  0  0  0  0  0  0  0  0  0  0
   12.3952   21.2844   33.7427 C   0  0  1  0  0  0  0  0  0  0  0  0
    8.2214   17.4557   30.9165 O   0  0  0  0  0  0  0  0  0  0  0  0
   11.3463   20.5190   34.5568 C   0  0  2  0  0  0  0  0  0  0  0  0
    9.3966   18.7688   39.2758 O   0  0  0  0  0  0  0  0  0  0  0  0
    9.3426   19.3054   34.0039 C   0  0  1  0  0  0  0  0  0  0  0  0
   11.4309   17.1400   40.2546 O   0  0  0  0  0  0  0  0  0  0  0  0
    8.3301   20.8857   32.4759 C   0  0  2  0  0  0  0  0  0  0  0  0
    7.3818   22.0870   32.4497 C   0  0  0  0  0  0  0  0  0  0  0  0
    7.7840   19.7575   31.5935 C   0  0  2  0  0  0  0  0  0  0  0  0
    8.7290   18.5569   31.6770 C   0  0  1  0  0  0  0  0  0  0  0  0
    8.8962   18.1249   33.1355 C   0  0  1  0  0  0  0  0  0  0  0  0
   10.0551   17.8676   38.3804 C   0  0  2  0  0  0  0  0  0  0  0  0
   10.6972   16.6906   39.1124 C   0  0  1  0  0  0  0  0  0  0  0  0
  3  1  1  0  0  0  0
  4  1  1  6  0  0  0
  4  6  1  0  0  0  0
  4 31  1  0  0  0  0
  6  7  1  0  0  0  0
  7  9  1  6  0  0  0
  7 30  1  0  0  0  0
 10  9  1  1  0  0  0
 10 13  1  0  0  0  0
 10 21  1  0  0  0  0
 13 12  1  1  0  0  0
 13 15  1  0  0  0  0
 15  2  1  1  0  0  0
 15 17  1  0  0  0  0
 16 25  1  0  0  0  0
 17 19  1  0  0  0  0
 19  5  1  6  0  0  0
 19 21  1  0  0  0  0
 21 14  1  6  0  0  0
 23 14  1  6  0  0  0
 23 16  1  0  0  0  0
 23 29  1  0  0  0  0
 25 26  1  1  0  0  0
 25 27  1  0  0  0  0
 26  8  1  0  0  0  0
 27 18  1  6  0  0  0
 27 28  1  0  0  0  0
 28 20  1  6  0  0  0
 28 29  1  0  0  0  0
 29 11  1  6  0  0  0
 30 22  1  1  0  0  0
 30 31  1  0  0  0  0
 31 24  1  1  0  0  0
M  END
>  <CHROM.1>
62.21431501,-55.60064520,-60.39941281,80.55176916,74.19533569,-47.29728037
10.55442475,19.21038581,35.11328282,0.89744207,0.71589361,2.42658626

>  <Name>
2fcz_lig

>  <RI>
2.26996e+07

>  <Rbt.Current_Directory>
/home/itssahil/PROJECTS/Mol_Feturizer/New_Systems/rnas/2fcz

>  <Rbt.Executable>
rbdock ($Id: //depot/dev/client3/rdock/2013.1/src/exe/rbdock.cxx#4 $)

>  <Rbt.Library>
libRbt.so (2013.1, Build901 2013/11/27)

>  <Rbt.Parameter_File>
/export/apps/rDock/src/rDock_2013.1_src/data/scripts/dock_solv.prm

>  <Rbt.Receptor>
prm/pocket_docking_4.prm

>  <SCORE>
-16.9231

>  <SCORE.INTER>
-15.3895

>  <SCORE.INTER.CONST>
1

>  <SCORE.INTER.POLAR>
-2.38853

>  <SCORE.INTER.ROT>
6

>  <SCORE.INTER.SOLV>
15.7427

>  <SCORE.INTER.VDW>
-15.1454

>  <SCORE.INTER.norm>
-0.496434

>  <SCORE.INTRA>
-1.58221

>  <SCORE.INTRA.DIHEDRAL>
-7.20739

>  <SCORE.INTRA.DIHEDRAL.0>
10.8409

>  <SCORE.INTRA.POLAR>
0

>  <SCORE.INTRA.POLAR.0>
0

>  <SCORE.INTRA.REPUL>
0

>  <SCORE.INTRA.REPUL.0>
0

>  <SCORE.INTRA.SOLV>
-1.43656

>  <SCORE.INTRA.SOLV.lig_0>
-80.8302

>  <SCORE.INTRA.VDW>
2.73977

>  <SCORE.INTRA.VDW.0>
-4.23953

>  <SCORE.INTRA.norm>
-0.0510391

>  <SCORE.RESTR>
0.0485688

>  <SCORE.RESTR.CAVITY>
0.0485688

>  <SCORE.RESTR.norm>
0.00156674

>  <SCORE.SYSTEM>
0

>  <SCORE.SYSTEM.CONST>
0

>  <SCORE.SYSTEM.DIHEDRAL>
0

>  <SCORE.SYSTEM.SOLV>
0

>  <SCORE.SYSTEM.norm>
0

>  <SCORE.heavy>
31

>  <SCORE.norm>
-0.545907

>  <RMSD>
1.616

$$$$
2fcz_lig
 OpenBabel11021811433D
libRbt.so/2013.1/901 2013/11/27
 31 33  0  0  0  0  0  0  0  0999 V2000
    8.2070   16.7534   38.9266 C   0  0  0  0  0  0  0  0  0  0  0  0
   13.7136   22.3716   36.8694 N   0  0  0  0  0  0  0  0  0  0  0  0
    6.9708   17.4524   39.0960 O   0  0  0  0  0  0  0  0  0  0  0  0
    8.4351   16.4636   37.4392 C   0  0  1  0  0  0  0  0  0  0  0  0
   11.2077   22.3428   32.6662 N   0  0  0  0  0  0  0  0  0  0  0  0
    8.2996   17.6543   36.6371 O   0  0  0  0  0  0  0  0  0  0  0  0
    9.5966   18.0671   36.1626 C   0  0  1  0  0  0  0  0  0  0  0  0
    6.9496   22.9883   32.7877 N   0  0  0  0  0  0  0  0  0  0  0  0
    9.8146   19.4809   36.3066 O   0  0  0  0  0  0  0  0  0  0  0  0
   11.0006   19.9654   35.6542 C   0  0  2  0  0  0  0  0  0  0  0  0
    9.7939   17.1421   32.7893 N   0  0  0  0  0  0  0  0  0  0  0  0
   12.2417   20.1092   37.7261 O   0  0  0  0  0  0  0  0  0  0  0  0
   11.7681   20.8787   36.6181 C   0  0  1  0  0  0  0  0  0  0  0  0
   10.1174   19.8372   33.3592 O   0  0  0  0  0  0  0  0  0  0  0  0
   12.9639   21.5340   35.9231 C   0  0  1  0  0  0  0  0  0  0  0  0
    7.7889   20.2039   33.4886 O   0  0  0  0  0  0  0  0  0  0  0  0
   12.4850   22.3908   34.7491 C   0  0  0  0  0  0  0  0  0  0  0  0
    7.2448   20.0537   29.8486 O   0  0  0  0  0  0  0  0  0  0  0  0
   11.7529   21.5007   33.7428 C   0  0  1  0  0  0  0  0  0  0  0  0
    8.1928   17.4050   30.4309 O   0  0  0  0  0  0  0  0  0  0  0  0
   10.6032   20.7170   34.3852 C   0  0  2  0  0  0  0  0  0  0  0  0
   11.8753   17.1491   36.4451 O   0  0  0  0  0  0  0  0  0  0  0  0
    8.8464   19.2415   33.6574 C   0  0  1  0  0  0  0  0  0  0  0  0
    9.9442   15.1957   35.9927 O   0  0  0  0  0  0  0  0  0  0  0  0
    7.6567   20.7157   32.1512 C   0  0  2  0  0  0  0  0  0  0  0  0
    6.5239   21.7449   32.1289 C   0  0  0  0  0  0  0  0  0  0  0  0
    7.3475   19.5634   31.1890 C   0  0  2  0  0  0  0  0  0  0  0  0
    8.4743   18.5312   31.2682 C   0  0  1  0  0  0  0  0  0  0  0  0
    8.6434   18.0531   32.7121 C   0  0  1  0  0  0  0  0  0  0  0  0
   10.5838   17.2988   37.0427 C   0  0  2  0  0  0  0  0  0  0  0  0
    9.8589   15.9631   37.1963 C   0  0  1  0  0  0  0  0  0  0  0  0
  3  1  1  0  0  0  0
  4  1  1  1  0  0  0
  4  6  1  0  0  0  0
  4 31  1  0  0  0  0
  6  7  1  0  0  0  0
  7  9  1  1  0  0  0
  7 30  1  0  0  0  0
 10  9  1  1  0  0  0
 10 13  1  0  0  0  0
 10 21  1  0  0  0  0
 13 12  1  1  0  0  0
 13 15  1  0  0  0  0
 15  2  1  1  0  0  0
 15 17  1  0  0  0  0
 16 25  1  0  0  0  0
 17 19  1  0  0  0  0
 19  5  1  6  0  0  0
 19 21  1  0  0  0  0
 21 14  1  6  0  0  0
 23 14  1  6  0  0  0
 23 16  1  0  0  0  0
 23 29  1  0  0  0  0
 25 26  1  1  0  0  0
 25 27  1  0  0  0  0
 26  8  1  0  0  0  0
 27 18  1  6  0  0  0
 27 28  1  0  0  0  0
 28 20  1  6  0  0  0
 28 29  1  0  0  0  0
 29 11  1  6  0  0  0
 30 22  1  6  0  0  0
 30 31  1  0  0  0  0
 31 24  1  6  0  0  0
M  END
>  <CHROM.1>
51.64040638,-170.54088100,-133.19936284,69.17016506,75.22196925,73.38144104
9.61844505,19.28059505,34.70224312,1.11794166,0.75484587,2.28443134

>  <Name>
2fcz_lig

>  <RI>
2.29611e+07

>  <Rbt.Current_Directory>
/home/itssahil/PROJECTS/Mol_Feturizer/New_Systems/rnas/2fcz

>  <Rbt.Executable>
rbdock ($Id: //depot/dev/client3/rdock/2013.1/src/exe/rbdock.cxx#4 $)

>  <Rbt.Library>
libRbt.so (2013.1, Build901 2013/11/27)

>  <Rbt.Parameter_File>
/export/apps/rDock/src/rDock_2013.1_src/data/scripts/dock_solv.prm

>  <Rbt.Receptor>
prm/pocket_docking_3.prm

>  <SCORE>
-14.5382

>  <SCORE.INTER>
-13.9408

>  <SCORE.INTER.CONST>
1

>  <SCORE.INTER.POLAR>
-1.48008

>  <SCORE.INTER.ROT>
6

>  <SCORE.INTER.SOLV>
16.283

>  <SCORE.INTER.VDW>
-17.3879

>  <SCORE.INTER.norm>
-0.449702

>  <SCORE.INTRA>
-0.619284

>  <SCORE.INTRA.DIHEDRAL>
-1.55627

>  <SCORE.INTRA.DIHEDRAL.0>
10.8409

>  <SCORE.INTRA.POLAR>
0

>  <SCORE.INTRA.POLAR.0>
0

>  <SCORE.INTRA.REPUL>
0

>  <SCORE.INTRA.REPUL.0>
0

>  <SCORE.INTRA.SOLV>
-1.79992

>  <SCORE.INTRA.SOLV.lig_0>
-80.8302

>  <SCORE.INTRA.VDW>
1.05881

>  <SCORE.INTRA.VDW.0>
-4.23953

>  <SCORE.INTRA.norm>
-0.0199769

>  <SCORE.RESTR>
0.0218853

>  <SCORE.RESTR.CAVITY>
0.0218853

>  <SCORE.RESTR.norm>
0.000705977

>  <SCORE.SYSTEM>
0

>  <SCORE.SYSTEM.CONST>
0

>  <SCORE.SYSTEM.DIHEDRAL>
0

>  <SCORE.SYSTEM.SOLV>
0

>  <SCORE.SYSTEM.norm>
0

>  <SCORE.heavy>
31

>  <SCORE.norm>
-0.468973

>  <RMSD>
1.623

$$$$
2fcz_lig
 OpenBabel11021811433D
libRbt.so/2013.1/901 2013/11/27
 31 33  0  0  0  0  0  0  0  0999 V2000
    8.4290   17.7347   38.9817 C   0  0  0  0  0  0  0  0  0  0  0  0
   13.4551   23.6623   35.6839 N   0  0  0  0  0  0  0  0  0  0  0  0
    8.8625   19.0634   39.2854 O   0  0  0  0  0  0  0  0  0  0  0  0
    9.2658   17.1711   37.8282 C   0  0  1  0  0  0  0  0  0  0  0  0
   10.6098   22.4484   31.8921 N   0  0  0  0  0  0  0  0  0  0  0  0
    9.1464   17.9782   36.6390 O   0  0  0  0  0  0  0  0  0  0  0  0
   10.3768   18.6954   36.4166 C   0  0  1  0  0  0  0  0  0  0  0  0
    6.2847   22.5491   30.9126 N   0  0  0  0  0  0  0  0  0  0  0  0
   10.1597   20.0768   36.0821 O   0  0  0  0  0  0  0  0  0  0  0  0
   11.1598   20.6392   35.2159 C   0  0  2  0  0  0  0  0  0  0  0  0
    9.7560   17.2492   32.5879 N   0  0  0  0  0  0  0  0  0  0  0  0
   12.5428   21.3641   37.0640 O   0  0  0  0  0  0  0  0  0  0  0  0
   11.8235   21.8295   35.9194 C   0  0  1  0  0  0  0  0  0  0  0  0
   10.1015   19.9530   33.1010 O   0  0  0  0  0  0  0  0  0  0  0  0
   12.7957   22.5516   34.9835 C   0  0  1  0  0  0  0  0  0  0  0  0
    7.7905   20.2990   33.4359 O   0  0  0  0  0  0  0  0  0  0  0  0
   12.0479   23.0888   33.7613 C   0  0  0  0  0  0  0  0  0  0  0  0
    6.9230   20.1061   29.8612 O   0  0  0  0  0  0  0  0  0  0  0  0
   11.4101   21.9198   33.0081 C   0  0  1  0  0  0  0  0  0  0  0  0
    7.9468   17.4727   30.3807 O   0  0  0  0  0  0  0  0  0  0  0  0
   10.5029   21.0722   33.9067 C   0  0  2  0  0  0  0  0  0  0  0  0
   12.5331   18.7763   37.6244 O   0  0  0  0  0  0  0  0  0  0  0  0
    8.8687   19.3484   33.5179 C   0  0  1  0  0  0  0  0  0  0  0  0
   11.4760   16.2092   37.4192 O   0  0  0  0  0  0  0  0  0  0  0  0
    7.5333   20.7957   32.1110 C   0  0  2  0  0  0  0  0  0  0  0  0
    6.3925   21.8139   32.1811 C   0  0  0  0  0  0  0  0  0  0  0  0
    7.1508   19.6306   31.1914 C   0  0  2  0  0  0  0  0  0  0  0  0
    8.2908   18.6100   31.1787 C   0  0  1  0  0  0  0  0  0  0  0  0
    8.5939   18.1484   32.6059 C   0  0  1  0  0  0  0  0  0  0  0  0
   11.1192   18.5963   37.7502 C   0  0  2  0  0  0  0  0  0  0  0  0
   10.7526   17.1779   38.1830 C   0  0  1  0  0  0  0  0  0  0  0  0
  3  1  1  0  0  0  0
  4  1  1  1  0  0  0
  4  6  1  0  0  0  0
  4 31  1  0  0  0  0
  6  7  1  0  0  0  0
  7  9  1  1  0  0  0
  7 30  1  0  0  0  0
 10  9  1  1  0  0  0
 10 13  1  0  0  0  0
 10 21  1  0  0  0  0
 13 12  1  1  0  0  0
 13 15  1  0  0  0  0
 15  2  1  1  0  0  0
 15 17  1  0  0  0  0
 16 25  1  0  0  0  0
 17 19  1  0  0  0  0
 19  5  1  6  0  0  0
 19 21  1  0  0  0  0
 21 14  1  6  0  0  0
 23 14  1  6  0  0  0
 23 16  1  0  0  0  0
 23 29  1  0  0  0  0
 25 26  1  1  0  0  0
 25 27  1  0  0  0  0
 26  8  1  0  0  0  0
 27 18  1  6  0  0  0
 27 28  1  0  0  0  0
 28 20  1  6  0  0  0
 28 29  1  0  0  0  0
 29 11  1  6  0  0  0
 30 22  1  6  0  0  0
 30 31  1  0  0  0  0
 31 24  1  6  0  0  0
M  END
>  <CHROM.1>
-59.51515248,-149.26579233,-120.62285114,79.56375058,61.06244914,168.17875269
9.80163070,19.84306820,34.56339652,0.91323278,0.78523370,2.29900093

>  <Name>
2fcz_lig

>  <RI>
3.41297e+07

>  <Rbt.Current_Directory>
/home/itssahil/PROJECTS/Mol_Feturizer/New_Systems/rnas/2fcz

>  <Rbt.Executable>
rbdock ($Id: //depot/dev/client3/rdock/2013.1/src/exe/rbdock.cxx#4 $)

>  <Rbt.Library>
libRbt.so (2013.1, Build901 2013/11/27)

>  <Rbt.Parameter_File>
/export/apps/rDock/src/rDock_2013.1_src/data/scripts/dock_solv.prm

>  <Rbt.Receptor>
prm/pocket_docking_2.prm

>  <SCORE>
-16.7086

>  <SCORE.INTER>
-18.546

>  <SCORE.INTER.CONST>
1

>  <SCORE.INTER.POLAR>
-1.72655

>  <SCORE.INTER.ROT>
6

>  <SCORE.INTER.SOLV>
14.1909

>  <SCORE.INTER.VDW>
-18.9392

>  <SCORE.INTER.norm>
-0.598259

>  <SCORE.INTRA>
1.59469

>  <SCORE.INTRA.DIHEDRAL>
2.36666

>  <SCORE.INTRA.DIHEDRAL.0>
10.8409

>  <SCORE.INTRA.POLAR>
0

>  <SCORE.INTRA.POLAR.0>
0

>  <SCORE.INTRA.REPUL>
0

>  <SCORE.INTRA.REPUL.0>
0

>  <SCORE.INTRA.SOLV>
-0.635069

>  <SCORE.INTRA.SOLV.lig_0>
-80.8302

>  <SCORE.INTRA.VDW>
0.728891

>  <SCORE.INTRA.VDW.0>
-4.23953

>  <SCORE.INTRA.norm>
0.0514416

>  <SCORE.RESTR>
0.242736

>  <SCORE.RESTR.CAVITY>
0.242736

>  <SCORE.RESTR.norm>
0.0078302

>  <SCORE.SYSTEM>
0

>  <SCORE.SYSTEM.CONST>
0

>  <SCORE.SYSTEM.DIHEDRAL>
0

>  <SCORE.SYSTEM.SOLV>
0

>  <SCORE.SYSTEM.norm>
0

>  <SCORE.heavy>
31

>  <SCORE.norm>
-0.538988

>  <RMSD>
1.628

$$$$
2fcz_lig
 OpenBabel11021811433D
libRbt.so/2013.1/901 2013/11/27
 31 33  0  0  0  0  0  0  0  0999 V2000
    8.0681   15.1261   36.2833 C   0  0  0  0  0  0  0  0  0  0  0  0
   14.5319   20.1629   37.0936 N   0  0  0  0  0  0  0  0  0  0  0  0
    7.2720   14.0667   36.8214 O   0  0  0  0  0  0  0  0  0  0  0  0
    9.1227   15.5507   37.3109 C   0  0  1  0  0  0  0  0  0  0  0  0
   12.2135   21.5676   33.0194 N   0  0  0  0  0  0  0  0  0  0  0  0
   10.0885   16.4569   36.7404 O   0  0  0  0  0  0  0  0  0  0  0  0
    9.8777   17.7819   37.2675 C   0  0  1  0  0  0  0  0  0  0  0  0
    5.9893   21.9083   33.2838 N   0  0  0  0  0  0  0  0  0  0  0  0
    9.9176   18.7957   36.2488 O   0  0  0  0  0  0  0  0  0  0  0  0
   11.2060   18.9652   35.6339 C   0  0  2  0  0  0  0  0  0  0  0  0
    9.4319   17.0133   32.4904 N   0  0  0  0  0  0  0  0  0  0  0  0
   12.3962   18.3920   37.6609 O   0  0  0  0  0  0  0  0  0  0  0  0
   12.2127   19.4290   36.6939 C   0  0  1  0  0  0  0  0  0  0  0  0
   10.3628   19.4713   33.3763 O   0  0  0  0  0  0  0  0  0  0  0  0
   13.5662   19.7614   36.0614 C   0  0  1  0  0  0  0  0  0  0  0  0
    8.1790   20.3117   33.6881 O   0  0  0  0  0  0  0  0  0  0  0  0
   13.4069   20.8916   35.0421 C   0  0  0  0  0  0  0  0  0  0  0  0
    7.5074   20.7801   30.0968 O   0  0  0  0  0  0  0  0  0  0  0  0
   12.4418   20.4444   33.9423 C   0  0  1  0  0  0  0  0  0  0  0  0
    7.8600   17.9351   30.2827 O   0  0  0  0  0  0  0  0  0  0  0  0
   11.0913   19.9849   34.5025 C   0  0  2  0  0  0  0  0  0  0  0  0
    8.2654   18.7239   38.8885 O   0  0  0  0  0  0  0  0  0  0  0  0
    9.0007   19.1295   33.6713 C   0  0  1  0  0  0  0  0  0  0  0  0
    9.2789   16.2454   39.6498 O   0  0  0  0  0  0  0  0  0  0  0  0
    8.1242   21.0174   32.4362 C   0  0  2  0  0  0  0  0  0  0  0  0
    7.2482   22.2604   32.6110 C   0  0  0  0  0  0  0  0  0  0  0  0
    7.5383   20.1013   31.3560 C   0  0  2  0  0  0  0  0  0  0  0  0
    8.4094   18.8489   31.2376 C   0  0  1  0  0  0  0  0  0  0  0  0
    8.5108   18.1533   32.5970 C   0  0  1  0  0  0  0  0  0  0  0  0
    8.4803   17.7250   37.8868 C   0  0  2  0  0  0  0  0  0  0  0  0
    8.4764   16.3124   38.4680 C   0  0  1  0  0  0  0  0  0  0  0  0
  3  1  1  0  0  0  0
  4  1  1  6  0  0  0
  4  6  1  0  0  0  0
  4 31  1  0  0  0  0
  6  7  1  0  0  0  0
  7  9  1  6  0  0  0
  7 30  1  0  0  0  0
 10  9  1  1  0  0  0
 10 13  1  0  0  0  0
 10 21  1  0  0  0  0
 13 12  1  1  0  0  0
 13 15  1  0  0  0  0
 15  2  1  1  0  0  0
 15 17  1  0  0  0  0
 16 25  1  0  0  0  0
 17 19  1  0  0  0  0
 19  5  1  6  0  0  0
 19 21  1  0  0  0  0
 21 14  1  6  0  0  0
 23 14  1  6  0  0  0
 23 16  1  0  0  0  0
 23 29  1  0  0  0  0
 25 26  1  1  0  0  0
 25 27  1  0  0  0  0
 26  8  1  0  0  0  0
 27 18  1  6  0  0  0
 27 28  1  0  0  0  0
 28 20  1  6  0  0  0
 28 29  1  0  0  0  0
 29 11  1  6  0  0  0
 30 22  1  1  0  0  0
 30 31  1  0  0  0  0
 31 24  1  1  0  0  0
M  END
>  <CHROM.1>
170.40598175,-66.35949458,-62.83727566,62.22131312,79.60039862,-47.94252158
9.64848959,18.78556043,34.93315065,1.29427784,0.51298085,2.20253629

>  <Name>
2fcz_lig

>  <RI>
1.32928e+07

>  <Rbt.Current_Directory>
/home/itssahil/PROJECTS/Mol_Feturizer/New_Systems/rnas/2fcz

>  <Rbt.Executable>
rbdock ($Id: //depot/dev/client3/rdock/2013.1/src/exe/rbdock.cxx#4 $)

>  <Rbt.Library>
libRbt.so (2013.1, Build901 2013/11/27)

>  <Rbt.Parameter_File>
/export/apps/rDock/src/rDock_2013.1_src/data/scripts/dock_solv.prm

>  <Rbt.Receptor>
prm/pocket_docking_7.prm

>  <SCORE>
-16.7918

>  <SCORE.INTER>
-14.623

>  <SCORE.INTER.CONST>
1

>  <SCORE.INTER.POLAR>
-2.44683

>  <SCORE.INTER.ROT>
6

>  <SCORE.INTER.SOLV>
18.4993

>  <SCORE.INTER.VDW>
-15.359

>  <SCORE.INTER.norm>
-0.471711

>  <SCORE.INTRA>
-2.16877

>  <SCORE.INTRA.DIHEDRAL>
-7.86935

>  <SCORE.INTRA.DIHEDRAL.0>
10.8409

>  <SCORE.INTRA.POLAR>
0

>  <SCORE.INTRA.POLAR.0>
0

>  <SCORE.INTRA.REPUL>
0

>  <SCORE.INTRA.REPUL.0>
0

>  <SCORE.INTRA.SOLV>
-2.48529

>  <SCORE.INTRA.SOLV.lig_0>
-80.8302

>  <SCORE.INTRA.VDW>
3.00855

>  <SCORE.INTRA.VDW.0>
-4.23953

>  <SCORE.INTRA.norm>
-0.0699604

>  <SCORE.RESTR>
0

>  <SCORE.RESTR.CAVITY>
0

>  <SCORE.RESTR.norm>
0

>  <SCORE.SYSTEM>
0

>  <SCORE.SYSTEM.CONST>
0

>  <SCORE.SYSTEM.DIHEDRAL>
0

>  <SCORE.SYSTEM.SOLV>
0

>  <SCORE.SYSTEM.norm>
0

>  <SCORE.heavy>
31

>  <SCORE.norm>
-0.541671

>  <RMSD>
1.653

$$$$
2fcz_lig
 OpenBabel11021811433D
libRbt.so/2013.1/901 2013/11/27
 31 33  0  0  0  0  0  0  0  0999 V2000
    6.4315   17.7933   38.4223 C   0  0  0  0  0  0  0  0  0  0  0  0
   13.8668   22.0074   37.2397 N   0  0  0  0  0  0  0  0  0  0  0  0
    5.3396   18.1428   37.5673 O   0  0  0  0  0  0  0  0  0  0  0  0
    7.4772   17.0053   37.6260 C   0  0  1  0  0  0  0  0  0  0  0  0
   11.8396   21.5678   32.8076 N   0  0  0  0  0  0  0  0  0  0  0  0
    8.0456   17.7969   36.5630 O   0  0  0  0  0  0  0  0  0  0  0  0
    9.4043   18.1459   36.8943 C   0  0  1  0  0  0  0  0  0  0  0  0
    6.1288   21.7983   33.2758 N   0  0  0  0  0  0  0  0  0  0  0  0
    9.6996   19.5289   36.6347 O   0  0  0  0  0  0  0  0  0  0  0  0
   11.0020   19.7593   36.0712 C   0  0  2  0  0  0  0  0  0  0  0  0
    9.5467   16.8159   32.9579 N   0  0  0  0  0  0  0  0  0  0  0  0
   12.0244   20.1023   38.2371 O   0  0  0  0  0  0  0  0  0  0  0  0
   11.7776   20.7261   36.9745 C   0  0  1  0  0  0  0  0  0  0  0  0
   10.3581   19.3536   33.7293 O   0  0  0  0  0  0  0  0  0  0  0  0
   13.1169   21.1156   36.3445 C   0  0  1  0  0  0  0  0  0  0  0  0
    8.1456   20.1766   33.7494 O   0  0  0  0  0  0  0  0  0  0  0  0
   12.8837   21.8146   35.0033 C   0  0  0  0  0  0  0  0  0  0  0  0
    7.8392   20.3429   30.0825 O   0  0  0  0  0  0  0  0  0  0  0  0
   12.1505   20.8594   34.0594 C   0  0  1  0  0  0  0  0  0  0  0  0
    8.1992   17.5288   30.5349 O   0  0  0  0  0  0  0  0  0  0  0  0
   10.8451   20.3301   34.6631 C   0  0  2  0  0  0  0  0  0  0  0  0
   10.8565   17.6498   38.8333 O   0  0  0  0  0  0  0  0  0  0  0  0
    8.9764   19.0120   33.9123 C   0  0  1  0  0  0  0  0  0  0  0  0
    9.3415   15.4684   37.9995 O   0  0  0  0  0  0  0  0  0  0  0  0
    8.2118   20.7784   32.4450 C   0  0  2  0  0  0  0  0  0  0  0  0
    7.3103   22.0153   32.4284 C   0  0  0  0  0  0  0  0  0  0  0  0
    7.7482   19.7680   31.3897 C   0  0  2  0  0  0  0  0  0  0  0  0
    8.6392   18.5261   31.4625 C   0  0  1  0  0  0  0  0  0  0  0  0
    8.6083   17.9440   32.8774 C   0  0  1  0  0  0  0  0  0  0  0  0
    9.5120   17.8663   38.3942 C   0  0  2  0  0  0  0  0  0  0  0  0
    8.6532   16.6092   38.5187 C   0  0  1  0  0  0  0  0  0  0  0  0
  3  1  1  0  0  0  0
  4  1  1  1  0  0  0
  4  6  1  0  0  0  0
  4 31  1  0  0  0  0
  6  7  1  0  0  0  0
  7  9  1  1  0  0  0
  7 30  1  0  0  0  0
 10  9  1  1  0  0  0
 10 13  1  0  0  0  0
 10 21  1  0  0  0  0
 13 12  1  1  0  0  0
 13 15  1  0  0  0  0
 15  2  1  1  0  0  0
 15 17  1  0  0  0  0
 16 25  1  0  0  0  0
 17 19  1  0  0  0  0
 19  5  1  6  0  0  0
 19 21  1  0  0  0  0
 21 14  1  6  0  0  0
 23 14  1  6  0  0  0
 23 16  1  0  0  0  0
 23 29  1  0  0  0  0
 25 26  1  1  0  0  0
 25 27  1  0  0  0  0
 26  8  1  0  0  0  0
 27 18  1  6  0  0  0
 27 28  1  0  0  0  0
 28 20  1  6  0  0  0
 28 29  1  0  0  0  0
 29 11  1  6  0  0  0
 30 22  1  6  0  0  0
 30 31  1  0  0  0  0
 31 24  1  6  0  0  0
M  END
>  <CHROM.1>
62.94061640,-139.98802885,-122.99808029,71.96766815,60.48651949,-34.33842461
9.45303581,19.27439973,35.09999935,1.29595519,0.54782134,1.97962472

>  <Name>
2fcz_lig

>  <RI>
0

>  <Rbt.Current_Directory>
/home/itssahil/PROJECTS/Mol_Feturizer/New_Systems/rnas/2fcz

>  <Rbt.Executable>
rbdock ($Id: //depot/dev/client3/rdock/2013.1/src/exe/rbdock.cxx#4 $)

>  <Rbt.Library>
libRbt.so (2013.1, Build901 2013/11/27)

>  <Rbt.Parameter_File>
/export/apps/rDock/src/rDock_2013.1_src/data/scripts/dock_solv.prm

>  <Rbt.Receptor>
prm/pocket_docking_5.prm

>  <SCORE>
-15.1212

>  <SCORE.INTER>
-17.1956

>  <SCORE.INTER.CONST>
1

>  <SCORE.INTER.POLAR>
-2.45131

>  <SCORE.INTER.ROT>
6

>  <SCORE.INTER.SOLV>
23.1331

>  <SCORE.INTER.VDW>
-18.6037

>  <SCORE.INTER.norm>
-0.554695

>  <SCORE.INTRA>
2.07432

>  <SCORE.INTRA.DIHEDRAL>
4.5182

>  <SCORE.INTRA.DIHEDRAL.0>
10.8409

>  <SCORE.INTRA.POLAR>
0

>  <SCORE.INTRA.POLAR.0>
0

>  <SCORE.INTRA.REPUL>
0

>  <SCORE.INTRA.REPUL.0>
0

>  <SCORE.INTRA.SOLV>
-1.64937

>  <SCORE.INTRA.SOLV.lig_0>
-80.8302

>  <SCORE.INTRA.VDW>
0.639901

>  <SCORE.INTRA.VDW.0>
-4.23953

>  <SCORE.INTRA.norm>
0.0669134

>  <SCORE.RESTR>
0

>  <SCORE.RESTR.CAVITY>
0

>  <SCORE.RESTR.norm>
0

>  <SCORE.SYSTEM>
0

>  <SCORE.SYSTEM.CONST>
0

>  <SCORE.SYSTEM.DIHEDRAL>
0

>  <SCORE.SYSTEM.SOLV>
0

>  <SCORE.SYSTEM.norm>
0

>  <SCORE.heavy>
31

>  <SCORE.norm>
-0.487782

>  <RMSD>
1.668

$$$$
2fcz_lig
 OpenBabel11021811433D
libRbt.so/2013.1/901 2013/11/27
 31 33  0  0  0  0  0  0  0  0999 V2000
    7.4275   17.7605   39.0913 C   0  0  0  0  0  0  0  0  0  0  0  0
   13.7168   22.1065   36.9895 N   0  0  0  0  0  0  0  0  0  0  0  0
    8.3389   18.8211   39.3910 O   0  0  0  0  0  0  0  0  0  0  0  0
    7.7285   17.2016   37.6964 C   0  0  1  0  0  0  0  0  0  0  0  0
   11.5400   22.3477   32.6134 N   0  0  0  0  0  0  0  0  0  0  0  0
    7.7564   18.2432   36.6994 O   0  0  0  0  0  0  0  0  0  0  0  0
    9.1147   18.4655   36.2712 C   0  0  1  0  0  0  0  0  0  0  0  0
    6.9148   23.2219   32.4161 N   0  0  0  0  0  0  0  0  0  0  0  0
    9.4500   19.8616   36.1959 O   0  0  0  0  0  0  0  0  0  0  0  0
   10.7416   20.1291   35.6240 C   0  0  2  0  0  0  0  0  0  0  0  0
    9.6438   17.3484   32.9001 N   0  0  0  0  0  0  0  0  0  0  0  0
   11.8414   20.1371   37.7790 O   0  0  0  0  0  0  0  0  0  0  0  0
   11.5775   20.9374   36.6240 C   0  0  1  0  0  0  0  0  0  0  0  0
   10.0122   20.0722   33.2727 O   0  0  0  0  0  0  0  0  0  0  0  0
   12.9094   21.3705   36.0068 C   0  0  1  0  0  0  0  0  0  0  0  0
    7.6899   20.4942   33.3124 O   0  0  0  0  0  0  0  0  0  0  0  0
   12.6591   22.2557   34.7840 C   0  0  0  0  0  0  0  0  0  0  0  0
    7.2331   20.0778   29.6812 O   0  0  0  0  0  0  0  0  0  0  0  0
   11.8647   21.4633   33.7438 C   0  0  1  0  0  0  0  0  0  0  0  0
    8.1080   17.4628   30.4870 O   0  0  0  0  0  0  0  0  0  0  0  0
   10.5611   20.8944   34.3145 C   0  0  2  0  0  0  0  0  0  0  0  0
   11.2762   17.4349   36.8885 O   0  0  0  0  0  0  0  0  0  0  0  0
    8.7214   19.5264   33.5815 C   0  0  1  0  0  0  0  0  0  0  0  0
    9.2107   15.5895   36.6095 O   0  0  0  0  0  0  0  0  0  0  0  0
    7.6022   20.9051   31.9371 C   0  0  2  0  0  0  0  0  0  0  0  0
    6.4931   21.9521   31.8070 C   0  0  0  0  0  0  0  0  0  0  0  0
    7.2917   19.6892   31.0570 C   0  0  2  0  0  0  0  0  0  0  0  0
    8.3933   18.6436   31.2439 C   0  0  1  0  0  0  0  0  0  0  0  0
    8.5159   18.2737   32.7238 C   0  0  1  0  0  0  0  0  0  0  0  0
    9.9661   17.7858   37.3448 C   0  0  2  0  0  0  0  0  0  0  0  0
    9.1141   16.5572   37.6579 C   0  0  1  0  0  0  0  0  0  0  0  0
  3  1  1  0  0  0  0
  4  1  1  1  0  0  0
  4  6  1  0  0  0  0
  4 31  1  0  0  0  0
  6  7  1  0  0  0  0
  7  9  1  1  0  0  0
  7 30  1  0  0  0  0
 10  9  1  1  0  0  0
 10 13  1  0  0  0  0
 10 21  1  0  0  0  0
 13 12  1  1  0  0  0
 13 15  1  0  0  0  0
 15  2  1  1  0  0  0
 15 17  1  0  0  0  0
 16 25  1  0  0  0  0
 17 19  1  0  0  0  0
 19  5  1  6  0  0  0
 19 21  1  0  0  0  0
 21 14  1  6  0  0  0
 23 14  1  6  0  0  0
 23 16  1  0  0  0  0
 23 29  1  0  0  0  0
 25 26  1  1  0  0  0
 25 27  1  0  0  0  0
 26  8  1  0  0  0  0
 27 18  1  6  0  0  0
 27 28  1  0  0  0  0
 28 20  1  6  0  0  0
 28 29  1  0  0  0  0
 29 11  1  6  0  0  0
 30 22  1  6  0  0  0
 30 31  1  0  0  0  0
 31 24  1  6  0  0  0
M  END
>  <CHROM.1>
-52.94776979,-173.06847376,-123.06483205,59.98981538,82.16870333,71.72264977
9.44442027,19.55242350,34.74824107,1.15675502,0.71202822,2.12035490

>  <Name>
2fcz_lig

>  <RI>
2.26996e+07

>  <Rbt.Current_Directory>
/home/itssahil/PROJECTS/Mol_Feturizer/New_Systems/rnas/2fcz

>  <Rbt.Executable>
rbdock ($Id: //depot/dev/client3/rdock/2013.1/src/exe/rbdock.cxx#4 $)

>  <Rbt.Library>
libRbt.so (2013.1, Build901 2013/11/27)

>  <Rbt.Parameter_File>
/export/apps/rDock/src/rDock_2013.1_src/data/scripts/dock_solv.prm

>  <Rbt.Receptor>
prm/pocket_docking_4.prm

>  <SCORE>
-20.1197

>  <SCORE.INTER>
-20.6795

>  <SCORE.INTER.CONST>
1

>  <SCORE.INTER.POLAR>
-2.25315

>  <SCORE.INTER.ROT>
6

>  <SCORE.INTER.SOLV>
16.8517

>  <SCORE.INTER.VDW>
-19.4931

>  <SCORE.INTER.norm>
-0.66708

>  <SCORE.INTRA>
0.559804

>  <SCORE.INTRA.DIHEDRAL>
-0.490308

>  <SCORE.INTRA.DIHEDRAL.0>
10.8409

>  <SCORE.INTRA.POLAR>
0

>  <SCORE.INTRA.POLAR.0>
0

>  <SCORE.INTRA.REPUL>
0

>  <SCORE.INTRA.REPUL.0>
0

>  <SCORE.INTRA.SOLV>
-1.87735

>  <SCORE.INTRA.SOLV.lig_0>
-80.8302

>  <SCORE.INTRA.VDW>
1.74363

>  <SCORE.INTRA.VDW.0>
-4.23953

>  <SCORE.INTRA.norm>
0.0180582

>  <SCORE.RESTR>
0

>  <SCORE.RESTR.CAVITY>
0

>  <SCORE.RESTR.norm>
0

>  <SCORE.SYSTEM>
0

>  <SCORE.SYSTEM.CONST>
0

>  <SCORE.SYSTEM.DIHEDRAL>
0

>  <SCORE.SYSTEM.SOLV>
0

>  <SCORE.SYSTEM.norm>
0

>  <SCORE.heavy>
31

>  <SCORE.norm>
-0.649022

>  <RMSD>
1.689

$$$$
2fcz_lig
 OpenBabel11021811433D
libRbt.so/2013.1/901 2013/11/27
 31 33  0  0  0  0  0  0  0  0999 V2000
    9.8919   15.5548   37.7217 C   0  0  0  0  0  0  0  0  0  0  0  0
   14.6924   22.6810   36.4677 N   0  0  0  0  0  0  0  0  0  0  0  0
    9.6146   14.5630   38.7141 O   0  0  0  0  0  0  0  0  0  0  0  0
   11.3449   16.0236   37.8543 C   0  0  1  0  0  0  0  0  0  0  0  0
   11.1465   22.6496   33.0954 N   0  0  0  0  0  0  0  0  0  0  0  0
   11.7028   16.9522   36.8107 O   0  0  0  0  0  0  0  0  0  0  0  0
   11.8319   18.2762   37.3658 C   0  0  1  0  0  0  0  0  0  0  0  0
    7.1323   22.6404   32.8310 N   0  0  0  0  0  0  0  0  0  0  0  0
   11.1866   19.2787   36.5623 O   0  0  0  0  0  0  0  0  0  0  0  0
   12.0750   20.0020   35.6936 C   0  0  2  0  0  0  0  0  0  0  0  0
   10.4968   17.1794   33.6974 N   0  0  0  0  0  0  0  0  0  0  0  0
   13.8122   20.1458   37.3716 O   0  0  0  0  0  0  0  0  0  0  0  0
   12.9576   20.9309   36.5365 C   0  0  1  0  0  0  0  0  0  0  0  0
   10.6151   19.9505   33.7113 O   0  0  0  0  0  0  0  0  0  0  0  0
   13.8221   21.8276   35.6471 C   0  0  1  0  0  0  0  0  0  0  0  0
    8.2695   20.1613   33.8738 O   0  0  0  0  0  0  0  0  0  0  0  0
   12.9333   22.7038   34.7617 C   0  0  0  0  0  0  0  0  0  0  0  0
    7.6284   19.2480   30.3635 O   0  0  0  0  0  0  0  0  0  0  0  0
   12.0697   21.8072   33.8722 C   0  0  1  0  0  0  0  0  0  0  0  0
    8.8081   16.8467   31.4100 O   0  0  0  0  0  0  0  0  0  0  0  0
   11.2509   20.7964   34.6824 C   0  0  2  0  0  0  0  0  0  0  0  0
   11.5809   19.1875   39.6508 O   0  0  0  0  0  0  0  0  0  0  0  0
    9.4071   19.3333   34.1792 C   0  0  1  0  0  0  0  0  0  0  0  0
   12.9241   16.7504   39.5734 O   0  0  0  0  0  0  0  0  0  0  0  0
    8.0548   20.3848   32.4695 C   0  0  2  0  0  0  0  0  0  0  0  0
    6.8411   21.3016   32.2980 C   0  0  0  0  0  0  0  0  0  0  0  0
    7.8120   19.0439   31.7677 C   0  0  2  0  0  0  0  0  0  0  0  0
    9.0217   18.1350   31.9959 C   0  0  1  0  0  0  0  0  0  0  0  0
    9.2736   17.9685   33.4962 C   0  0  1  0  0  0  0  0  0  0  0  0
   11.1445   18.1839   38.7290 C   0  0  2  0  0  0  0  0  0  0  0  0
   11.5533   16.7788   39.1669 C   0  0  1  0  0  0  0  0  0  0  0  0
  3  1  1  0  0  0  0
  4  1  1  6  0  0  0
  4  6  1  0  0  0  0
  4 31  1  0  0  0  0
  6  7  1  0  0  0  0
  7  9  1  6  0  0  0
  7 30  1  0  0  0  0
 10  9  1  1  0  0  0
 10 13  1  0  0  0  0
 10 21  1  0  0  0  0
 13 12  1  1  0  0  0
 13 15  1  0  0  0  0
 15  2  1  1  0  0  0
 15 17  1  0  0  0  0
 16 25  1  0  0  0  0
 17 19  1  0  0  0  0
 19  5  1  1  0  0  0
 19 21  1  0  0  0  0
 21 14  1  6  0  0  0
 23 14  1  6  0  0  0
 23 16  1  0  0  0  0
 23 29  1  0  0  0  0
 25 26  1  1  0  0  0
 25 27  1  0  0  0  0
 26  8  1  0  0  0  0
 27 18  1  6  0  0  0
 27 28  1  0  0  0  0
 28 20  1  1  0  0  0
 28 29  1  0  0  0  0
 29 11  1  6  0  0  0
 30 22  1  1  0  0  0
 30 31  1  0  0  0  0
 31 24  1  6  0  0  0
M  END
>  <CHROM.1>
175.67374286,-98.64785368,-71.16416030,80.50423676,90.87536652,66.52899519
10.66634032,19.22455875,35.26306314,0.85615821,0.77174222,2.48376961

>  <Name>
2fcz_lig

>  <RI>
2.29611e+07

>  <Rbt.Current_Directory>
/home/itssahil/PROJECTS/Mol_Feturizer/New_Systems/rnas/2fcz

>  <Rbt.Executable>
rbdock ($Id: //depot/dev/client3/rdock/2013.1/src/exe/rbdock.cxx#4 $)

>  <Rbt.Library>
libRbt.so (2013.1, Build901 2013/11/27)

>  <Rbt.Parameter_File>
/export/apps/rDock/src/rDock_2013.1_src/data/scripts/dock_solv.prm

>  <Rbt.Receptor>
prm/pocket_docking_3.prm

>  <SCORE>
-18.2462

>  <SCORE.INTER>
-19.3113

>  <SCORE.INTER.CONST>
1

>  <SCORE.INTER.POLAR>
-2.46627

>  <SCORE.INTER.ROT>
6

>  <SCORE.INTER.SOLV>
13.8139

>  <SCORE.INTER.VDW>
-16.8579

>  <SCORE.INTER.norm>
-0.622944

>  <SCORE.INTRA>
1.06507

>  <SCORE.INTRA.DIHEDRAL>
0.826095

>  <SCORE.INTRA.DIHEDRAL.0>
10.8409

>  <SCORE.INTRA.POLAR>
0

>  <SCORE.INTRA.POLAR.0>
0

>  <SCORE.INTRA.REPUL>
0

>  <SCORE.INTRA.REPUL.0>
0

>  <SCORE.INTRA.SOLV>
-0.986972

>  <SCORE.INTRA.SOLV.lig_0>
-80.8302

>  <SCORE.INTRA.VDW>
1.14551

>  <SCORE.INTRA.VDW.0>
-4.23953

>  <SCORE.INTRA.norm>
0.0343572

>  <SCORE.RESTR>
0

>  <SCORE.RESTR.CAVITY>
0

>  <SCORE.RESTR.norm>
0

>  <SCORE.SYSTEM>
0

>  <SCORE.SYSTEM.CONST>
0

>  <SCORE.SYSTEM.DIHEDRAL>
0

>  <SCORE.SYSTEM.SOLV>
0

>  <SCORE.SYSTEM.norm>
0

>  <SCORE.heavy>
31

>  <SCORE.norm>
-0.588587

>  <RMSD>
1.691

$$$$
2fcz_lig
 OpenBabel11021811433D
libRbt.so/2013.1/901 2013/11/27
 31 33  0  0  0  0  0  0  0  0999 V2000
   10.0763   15.4676   37.7416 C   0  0  0  0  0  0  0  0  0  0  0  0
   14.6800   22.7139   36.4225 N   0  0  0  0  0  0  0  0  0  0  0  0
    9.7993   14.5195   38.7760 O   0  0  0  0  0  0  0  0  0  0  0  0
   11.5110   15.9857   37.8889 C   0  0  1  0  0  0  0  0  0  0  0  0
   11.1223   22.5405   33.0668 N   0  0  0  0  0  0  0  0  0  0  0  0
   11.8481   16.9252   36.8480 O   0  0  0  0  0  0  0  0  0  0  0  0
   11.9262   18.2532   37.4029 C   0  0  1  0  0  0  0  0  0  0  0  0
    6.9897   22.4438   31.2971 N   0  0  0  0  0  0  0  0  0  0  0  0
   11.2555   19.2325   36.5915 O   0  0  0  0  0  0  0  0  0  0  0  0
   12.1233   19.9611   35.7066 C   0  0  2  0  0  0  0  0  0  0  0  0
   10.1998   17.1277   33.3814 N   0  0  0  0  0  0  0  0  0  0  0  0
   13.8633   20.1749   37.3741 O   0  0  0  0  0  0  0  0  0  0  0  0
   12.9871   20.9251   36.5293 C   0  0  1  0  0  0  0  0  0  0  0  0
   10.6571   19.8408   33.7318 O   0  0  0  0  0  0  0  0  0  0  0  0
   13.8267   21.8261   35.6206 C   0  0  1  0  0  0  0  0  0  0  0  0
    8.3581   20.3083   33.9943 O   0  0  0  0  0  0  0  0  0  0  0  0
   12.9140   22.6657   34.7242 C   0  0  0  0  0  0  0  0  0  0  0  0
    7.5503   19.9274   30.4208 O   0  0  0  0  0  0  0  0  0  0  0  0
   12.0682   21.7337   33.8541 C   0  0  1  0  0  0  0  0  0  0  0  0
    8.4444   17.2898   31.1259 O   0  0  0  0  0  0  0  0  0  0  0  0
   11.2766   20.7182   34.6853 C   0  0  2  0  0  0  0  0  0  0  0  0
   11.6202   19.1572   39.6841 O   0  0  0  0  0  0  0  0  0  0  0  0
    9.3906   19.3184   34.1590 C   0  0  1  0  0  0  0  0  0  0  0  0
   13.0464   16.7673   39.6236 O   0  0  0  0  0  0  0  0  0  0  0  0
    8.1486   20.7308   32.6358 C   0  0  2  0  0  0  0  0  0  0  0  0
    7.0537   21.8004   32.6174 C   0  0  0  0  0  0  0  0  0  0  0  0
    7.7314   19.5276   31.7827 C   0  0  2  0  0  0  0  0  0  0  0  0
    8.8242   18.4593   31.8585 C   0  0  1  0  0  0  0  0  0  0  0  0
    9.0793   18.0763   33.3180 C   0  0  1  0  0  0  0  0  0  0  0  0
   11.2280   18.1386   38.7589 C   0  0  2  0  0  0  0  0  0  0  0  0
   11.6798   16.7486   39.2027 C   0  0  1  0  0  0  0  0  0  0  0  0
  3  1  1  0  0  0  0
  4  1  1  6  0  0  0
  4  6  1  0  0  0  0
  4 31  1  0  0  0  0
  6  7  1  0  0  0  0
  7  9  1  6  0  0  0
  7 30  1  0  0  0  0
 10  9  1  1  0  0  0
 10 13  1  0  0  0  0
 10 21  1  0  0  0  0
 13 12  1  1  0  0  0
 13 15  1  0  0  0  0
 15  2  1  1  0  0  0
 15 17  1  0  0  0  0
 16 25  1  0  0  0  0
 17 19  1  0  0  0  0
 19  5  1  1  0  0  0
 19 21  1  0  0  0  0
 21 14  1  6  0  0  0
 23 14  1  6  0  0  0
 23 16  1  0  0  0  0
 23 29  1  0  0  0  0
 25 26  1  1  0  0  0
 25 27  1  0  0  0  0
 26  8  1  0  0  0  0
 27 18  1  6  0  0  0
 27 28  1  0  0  0  0
 28 20  1  6  0  0  0
 28 29  1  0  0  0  0
 29 11  1  6  0  0  0
 30 22  1  1  0  0  0
 30 31  1  0  0  0  0
 31 24  1  6  0  0  0
M  END
>  <CHROM.1>
178.72595380,-97.13131580,-71.56730544,86.99007650,78.13979618,169.02568505
10.67952183,19.29152364,35.21459680,0.88186767,0.75040977,2.48902436

>  <Name>
2fcz_lig

>  <RI>
2.26996e+07

>  <Rbt.Current_Directory>
/home/itssahil/PROJECTS/Mol_Feturizer/New_Systems/rnas/2fcz

>  <Rbt.Executable>
rbdock ($Id: //depot/dev/client3/rdock/2013.1/src/exe/rbdock.cxx#4 $)

>  <Rbt.Library>
libRbt.so (2013.1, Build901 2013/11/27)

>  <Rbt.Parameter_File>
/export/apps/rDock/src/rDock_2013.1_src/data/scripts/dock_solv.prm

>  <Rbt.Receptor>
prm/pocket_docking_4.prm

>  <SCORE>
-19.0497

>  <SCORE.INTER>
-19.6868

>  <SCORE.INTER.CONST>
1

>  <SCORE.INTER.POLAR>
-2.44967

>  <SCORE.INTER.ROT>
6

>  <SCORE.INTER.SOLV>
9.59406

>  <SCORE.INTER.VDW>
-15.757

>  <SCORE.INTER.norm>
-0.635059

>  <SCORE.INTRA>
0.637092

>  <SCORE.INTRA.DIHEDRAL>
-0.303908

>  <SCORE.INTRA.DIHEDRAL.0>
10.8409

>  <SCORE.INTRA.POLAR>
0

>  <SCORE.INTRA.POLAR.0>
0

>  <SCORE.INTRA.REPUL>
0

>  <SCORE.INTRA.REPUL.0>
0

>  <SCORE.INTRA.SOLV>
-1.05104

>  <SCORE.INTRA.SOLV.lig_0>
-80.8302

>  <SCORE.INTRA.VDW>
1.31457

>  <SCORE.INTRA.VDW.0>
-4.23953

>  <SCORE.INTRA.norm>
0.0205514

>  <SCORE.RESTR>
0

>  <SCORE.RESTR.CAVITY>
0

>  <SCORE.RESTR.norm>
0

>  <SCORE.SYSTEM>
0

>  <SCORE.SYSTEM.CONST>
0

>  <SCORE.SYSTEM.DIHEDRAL>
0

>  <SCORE.SYSTEM.SOLV>
0

>  <SCORE.SYSTEM.norm>
0

>  <SCORE.heavy>
31

>  <SCORE.norm>
-0.614507

>  <RMSD>
1.713

$$$$
2fcz_lig
 OpenBabel11021811433D
libRbt.so/2013.1/901 2013/11/27
 31 33  0  0  0  0  0  0  0  0999 V2000
   11.6735   15.8970   36.4540 C   0  0  0  0  0  0  0  0  0  0  0  0
   13.6316   24.1661   35.1612 N   0  0  0  0  0  0  0  0  0  0  0  0
   10.3938   16.5312   36.5297 O   0  0  0  0  0  0  0  0  0  0  0  0
   12.7701   16.9059   36.8120 C   0  0  1  0  0  0  0  0  0  0  0  0
    9.9405   22.7947   32.2557 N   0  0  0  0  0  0  0  0  0  0  0  0
   12.7405   18.0564   35.9430 O   0  0  0  0  0  0  0  0  0  0  0  0
   12.2541   19.2004   36.6726 C   0  0  1  0  0  0  0  0  0  0  0  0
    6.7977   22.9653   32.7320 N   0  0  0  0  0  0  0  0  0  0  0  0
   11.2781   19.9543   35.9335 O   0  0  0  0  0  0  0  0  0  0  0  0
   11.8342   20.7995   34.9121 C   0  0  2  0  0  0  0  0  0  0  0  0
   10.1027   17.3817   32.8407 N   0  0  0  0  0  0  0  0  0  0  0  0
   13.6080   21.5968   36.3514 O   0  0  0  0  0  0  0  0  0  0  0  0
   12.4883   22.0208   35.5701 C   0  0  1  0  0  0  0  0  0  0  0  0
   10.2691   20.1352   33.1308 O   0  0  0  0  0  0  0  0  0  0  0  0
   12.9696   23.0228   34.5180 C   0  0  1  0  0  0  0  0  0  0  0  0
    7.9478   20.3484   33.5032 O   0  0  0  0  0  0  0  0  0  0  0  0
   11.7863   23.5190   33.6843 C   0  0  0  0  0  0  0  0  0  0  0  0
    7.0143   19.8115   29.9806 O   0  0  0  0  0  0  0  0  0  0  0  0
   11.1366   22.3289   32.9753 C   0  0  1  0  0  0  0  0  0  0  0  0
    8.2322   17.3040   30.6751 O   0  0  0  0  0  0  0  0  0  0  0  0
   10.7240   21.2222   33.9519 C   0  0  2  0  0  0  0  0  0  0  0  0
   11.5189   19.5319   39.0103 O   0  0  0  0  0  0  0  0  0  0  0  0
    9.0917   19.4831   33.6286 C   0  0  1  0  0  0  0  0  0  0  0  0
   13.7893   17.9375   38.7804 O   0  0  0  0  0  0  0  0  0  0  0  0
    7.6260   20.7189   32.1514 C   0  0  2  0  0  0  0  0  0  0  0  0
    6.4184   21.6592   32.1740 C   0  0  0  0  0  0  0  0  0  0  0  0
    7.3053   19.4606   31.3369 C   0  0  2  0  0  0  0  0  0  0  0  0
    8.5136   18.5223   31.3716 C   0  0  1  0  0  0  0  0  0  0  0  0
    8.8810   18.1982   32.8214 C   0  0  1  0  0  0  0  0  0  0  0  0
   11.6081   18.6043   37.9244 C   0  0  2  0  0  0  0  0  0  0  0  0
   12.5643   17.4517   38.2250 C   0  0  1  0  0  0  0  0  0  0  0  0
  3  1  1  0  0  0  0
  4  1  1  6  0  0  0
  4  6  1  0  0  0  0
  4 31  1  0  0  0  0
  6  7  1  0  0  0  0
  7  9  1  6  0  0  0
  7 30  1  0  0  0  0
 10  9  1  1  0  0  0
 10 13  1  0  0  0  0
 10 21  1  0  0  0  0
 13 12  1  6  0  0  0
 13 15  1  0  0  0  0
 15  2  1  1  0  0  0
 15 17  1  0  0  0  0
 16 25  1  0  0  0  0
 17 19  1  0  0  0  0
 19  5  1  1  0  0  0
 19 21  1  0  0  0  0
 21 14  1  6  0  0  0
 23 14  1  6  0  0  0
 23 16  1  0  0  0  0
 23 29  1  0  0  0  0
 25 26  1  1  0  0  0
 25 27  1  0  0  0  0
 26  8  1  0  0  0  0
 27 18  1  6  0  0  0
 27 28  1  0  0  0  0
 28 20  1  6  0  0  0
 28 29  1  0  0  0  0
 29 11  1  6  0  0  0
 30 22  1  1  0  0  0
 30 31  1  0  0  0  0
 31 24  1  6  0  0  0
M  END
>  <CHROM.1>
-57.95151737,-77.52215774,-74.68566924,96.68370619,69.88235620,70.44576673
10.54666443,19.88630061,34.47477883,0.46121993,0.79277981,2.80390756

>  <Name>
2fcz_lig

>  <RI>
0

>  <Rbt.Current_Directory>
/home/itssahil/PROJECTS/Mol_Feturizer/New_Systems/rnas/2fcz

>  <Rbt.Executable>
rbdock ($Id: //depot/dev/client3/rdock/2013.1/src/exe/rbdock.cxx#4 $)

>  <Rbt.Library>
libRbt.so (2013.1, Build901 2013/11/27)

>  <Rbt.Parameter_File>
/export/apps/rDock/src/rDock_2013.1_src/data/scripts/dock_solv.prm

>  <Rbt.Receptor>
prm/pocket_docking_6.prm

>  <SCORE>
-20.528

>  <SCORE.INTER>
-20.5628

>  <SCORE.INTER.CONST>
1

>  <SCORE.INTER.POLAR>
-2.31287

>  <SCORE.INTER.ROT>
6

>  <SCORE.INTER.SOLV>
16.1324

>  <SCORE.INTER.VDW>
-18.9764

>  <SCORE.INTER.norm>
-0.663315

>  <SCORE.INTRA>
0.0347691

>  <SCORE.INTRA.DIHEDRAL>
-2.67404

>  <SCORE.INTRA.DIHEDRAL.0>
10.8409

>  <SCORE.INTRA.POLAR>
0

>  <SCORE.INTRA.POLAR.0>
0

>  <SCORE.INTRA.REPUL>
0

>  <SCORE.INTRA.REPUL.0>
0

>  <SCORE.INTRA.SOLV>
0.970223

>  <SCORE.INTRA.SOLV.lig_0>
-80.8302

>  <SCORE.INTRA.VDW>
0.886677

>  <SCORE.INTRA.VDW.0>
-4.23953

>  <SCORE.INTRA.norm>
0.00112158

>  <SCORE.RESTR>
0

>  <SCORE.RESTR.CAVITY>
0

>  <SCORE.RESTR.norm>
0

>  <SCORE.SYSTEM>
0

>  <SCORE.SYSTEM.CONST>
0

>  <SCORE.SYSTEM.DIHEDRAL>
0

>  <SCORE.SYSTEM.SOLV>
0

>  <SCORE.SYSTEM.norm>
0

>  <SCORE.heavy>
31

>  <SCORE.norm>
-0.662194

>  <RMSD>
1.752

$$$$
2fcz_lig
 OpenBabel11021811433D
libRbt.so/2013.1/901 2013/11/27
 31 33  0  0  0  0  0  0  0  0999 V2000
    9.7180   17.7573   39.1429 C   0  0  0  0  0  0  0  0  0  0  0  0
   13.5641   23.9313   35.5424 N   0  0  0  0  0  0  0  0  0  0  0  0
    8.4217   18.2290   39.5206 O   0  0  0  0  0  0  0  0  0  0  0  0
    9.6996   17.3224   37.6735 C   0  0  1  0  0  0  0  0  0  0  0  0
   10.5405   22.8245   31.8573 N   0  0  0  0  0  0  0  0  0  0  0  0
    9.1998   18.3673   36.8144 O   0  0  0  0  0  0  0  0  0  0  0  0
   10.2844   18.9147   36.0387 C   0  0  1  0  0  0  0  0  0  0  0  0
    6.1097   22.9914   31.2956 N   0  0  0  0  0  0  0  0  0  0  0  0
   10.2701   20.3520   36.0043 O   0  0  0  0  0  0  0  0  0  0  0  0
   11.2325   20.9311   35.1069 C   0  0  2  0  0  0  0  0  0  0  0  0
    9.7097   17.6222   32.4124 N   0  0  0  0  0  0  0  0  0  0  0  0
   12.7031   21.6038   36.9065 O   0  0  0  0  0  0  0  0  0  0  0  0
   11.9346   22.1007   35.8080 C   0  0  1  0  0  0  0  0  0  0  0  0
   10.0741   20.3022   33.0269 O   0  0  0  0  0  0  0  0  0  0  0  0
   12.8668   22.8412   34.8462 C   0  0  1  0  0  0  0  0  0  0  0  0
    7.7947   20.6051   33.5608 O   0  0  0  0  0  0  0  0  0  0  0  0
   12.0666   23.4119   33.6734 C   0  0  0  0  0  0  0  0  0  0  0  0
    6.6457   20.5729   30.0612 O   0  0  0  0  0  0  0  0  0  0  0  0
   11.3882   22.2648   32.9220 C   0  0  1  0  0  0  0  0  0  0  0  0
    7.7282   17.9297   30.3694 O   0  0  0  0  0  0  0  0  0  0  0  0
   10.5186   21.3993   33.8403 C   0  0  2  0  0  0  0  0  0  0  0  0
   12.7010   18.4065   35.9101 O   0  0  0  0  0  0  0  0  0  0  0  0
    8.8833   19.6642   33.5107 C   0  0  1  0  0  0  0  0  0  0  0  0
   11.0995   16.1344   36.0590 O   0  0  0  0  0  0  0  0  0  0  0  0
    7.4286   21.1614   32.2862 C   0  0  2  0  0  0  0  0  0  0  0  0
    6.2891   22.1618   32.4960 C   0  0  0  0  0  0  0  0  0  0  0  0
    6.9828   20.0372   31.3445 C   0  0  2  0  0  0  0  0  0  0  0  0
    8.1260   19.0316   31.1917 C   0  0  1  0  0  0  0  0  0  0  0  0
    8.5458   18.5060   32.5663 C   0  0  1  0  0  0  0  0  0  0  0  0
   11.5453   18.4265   36.7536 C   0  0  2  0  0  0  0  0  0  0  0  0
   11.1148   17.0239   37.1787 C   0  0  1  0  0  0  0  0  0  0  0  0
  3  1  1  0  0  0  0
  4  1  1  1  0  0  0
  4  6  1  0  0  0  0
  4 31  1  0  0  0  0
  6  7  1  0  0  0  0
  7  9  1  1  0  0  0
  7 30  1  0  0  0  0
 10  9  1  1  0  0  0
 10 13  1  0  0  0  0
 10 21  1  0  0  0  0
 13 12  1  1  0  0  0
 13 15  1  0  0  0  0
 15  2  1  1  0  0  0
 15 17  1  0  0  0  0
 16 25  1  0  0  0  0
 17 19  1  0  0  0  0
 19  5  1  6  0  0  0
 19 21  1  0  0  0  0
 21 14  1  6  0  0  0
 23 14  1  6  0  0  0
 23 16  1  0  0  0  0
 23 29  1  0  0  0  0
 25 26  1  1  0  0  0
 25 27  1  0  0  0  0
 26  8  1  0  0  0  0
 27 18  1  6  0  0  0
 27 28  1  0  0  0  0
 28 20  1  6  0  0  0
 28 29  1  0  0  0  0
 29 11  1  6  0  0  0
 30 22  1  6  0  0  0
 30 31  1  0  0  0  0
 31 24  1  6  0  0  0
M  END
>  <CHROM.1>
53.54714864,-172.60037699,-135.28055289,77.56068022,60.16513033,165.95259528
9.83036872,20.05701764,34.39884307,0.87980722,0.73761636,2.41321966

>  <Name>
2fcz_lig

>  <RI>
3.41297e+07

>  <Rbt.Current_Directory>
/home/itssahil/PROJECTS/Mol_Feturizer/New_Systems/rnas/2fcz

>  <Rbt.Executable>
rbdock ($Id: //depot/dev/client3/rdock/2013.1/src/exe/rbdock.cxx#4 $)

>  <Rbt.Library>
libRbt.so (2013.1, Build901 2013/11/27)

>  <Rbt.Parameter_File>
/export/apps/rDock/src/rDock_2013.1_src/data/scripts/dock_solv.prm

>  <Rbt.Receptor>
prm/pocket_docking_2.prm

>  <SCORE>
-15.4598

>  <SCORE.INTER>
-14.9349

>  <SCORE.INTER.CONST>
1

>  <SCORE.INTER.POLAR>
-0.959166

>  <SCORE.INTER.ROT>
6

>  <SCORE.INTER.SOLV>
14.6085

>  <SCORE.INTER.VDW>
-19.2289

>  <SCORE.INTER.norm>
-0.48177

>  <SCORE.INTRA>
-1.01989

>  <SCORE.INTRA.DIHEDRAL>
-2.11296

>  <SCORE.INTRA.DIHEDRAL.0>
10.8409

>  <SCORE.INTRA.POLAR>
0

>  <SCORE.INTRA.POLAR.0>
0

>  <SCORE.INTRA.REPUL>
0

>  <SCORE.INTRA.REPUL.0>
0

>  <SCORE.INTRA.SOLV>
-1.41237

>  <SCORE.INTRA.SOLV.lig_0>
-80.8302

>  <SCORE.INTRA.VDW>
0.742772

>  <SCORE.INTRA.VDW.0>
-4.23953

>  <SCORE.INTRA.norm>
-0.0328998

>  <SCORE.RESTR>
0.494962

>  <SCORE.RESTR.CAVITY>
0.494962

>  <SCORE.RESTR.norm>
0.0159665

>  <SCORE.SYSTEM>
0

>  <SCORE.SYSTEM.CONST>
0

>  <SCORE.SYSTEM.DIHEDRAL>
0

>  <SCORE.SYSTEM.SOLV>
0

>  <SCORE.SYSTEM.norm>
0

>  <SCORE.heavy>
31

>  <SCORE.norm>
-0.498703

>  <RMSD>
1.785

$$$$
2fcz_lig
 OpenBabel11021811433D
libRbt.so/2013.1/901 2013/11/27
 31 33  0  0  0  0  0  0  0  0999 V2000
   11.7875   15.8118   36.3235 C   0  0  0  0  0  0  0  0  0  0  0  0
   13.7423   24.0630   35.1485 N   0  0  0  0  0  0  0  0  0  0  0  0
   10.4964   16.4234   36.3919 O   0  0  0  0  0  0  0  0  0  0  0  0
   12.8654   16.8447   36.6694 C   0  0  1  0  0  0  0  0  0  0  0  0
    9.9813   22.9177   32.2347 N   0  0  0  0  0  0  0  0  0  0  0  0
   12.8241   17.9775   35.7780 O   0  0  0  0  0  0  0  0  0  0  0  0
   12.3144   19.1275   36.4818 C   0  0  1  0  0  0  0  0  0  0  0  0
    6.0969   22.6439   31.2701 N   0  0  0  0  0  0  0  0  0  0  0  0
   11.3321   19.8514   35.7214 O   0  0  0  0  0  0  0  0  0  0  0  0
   11.8852   20.7447   34.7400 C   0  0  2  0  0  0  0  0  0  0  0  0
   10.0242   17.5165   32.3311 N   0  0  0  0  0  0  0  0  0  0  0  0
   13.6956   21.4306   36.1912 O   0  0  0  0  0  0  0  0  0  0  0  0
   12.5703   21.9160   35.4548 C   0  0  1  0  0  0  0  0  0  0  0  0
   10.2800   20.2077   32.9515 O   0  0  0  0  0  0  0  0  0  0  0  0
   13.0508   22.9687   34.4532 C   0  0  1  0  0  0  0  0  0  0  0  0
    7.9996   20.4063   33.5284 O   0  0  0  0  0  0  0  0  0  0  0  0
   11.8622   23.5302   33.6697 C   0  0  0  0  0  0  0  0  0  0  0  0
    6.7887   20.3366   30.0504 O   0  0  0  0  0  0  0  0  0  0  0  0
   11.1812   22.3929   32.9058 C   0  0  1  0  0  0  0  0  0  0  0  0
    7.9935   17.7432   30.3262 O   0  0  0  0  0  0  0  0  0  0  0  0
   10.7665   21.2389   33.8250 C   0  0  2  0  0  0  0  0  0  0  0  0
   11.5573   19.4926   38.8074 O   0  0  0  0  0  0  0  0  0  0  0  0
    9.1280   19.5152   33.4540 C   0  0  1  0  0  0  0  0  0  0  0  0
   13.8540   17.9303   38.6243 O   0  0  0  0  0  0  0  0  0  0  0  0
    7.5855   20.9507   32.2634 C   0  0  2  0  0  0  0  0  0  0  0  0
    6.4067   21.8984   32.4987 C   0  0  0  0  0  0  0  0  0  0  0  0
    7.1730   19.8114   31.3247 C   0  0  2  0  0  0  0  0  0  0  0  0
    8.3569   18.8585   31.1463 C   0  0  1  0  0  0  0  0  0  0  0  0
    8.8251   18.3468   32.5105 C   0  0  1  0  0  0  0  0  0  0  0  0
   11.6689   18.5457   37.7405 C   0  0  2  0  0  0  0  0  0  0  0  0
   12.6409   17.4144   38.0701 C   0  0  1  0  0  0  0  0  0  0  0  0
  3  1  1  0  0  0  0
  4  1  1  6  0  0  0
  4  6  1  0  0  0  0
  4 31  1  0  0  0  0
  6  7  1  0  0  0  0
  7  9  1  6  0  0  0
  7 30  1  0  0  0  0
 10  9  1  1  0  0  0
 10 13  1  0  0  0  0
 10 21  1  0  0  0  0
 13 12  1  6  0  0  0
 13 15  1  0  0  0  0
 15  2  1  1  0  0  0
 15 17  1  0  0  0  0
 16 25  1  0  0  0  0
 17 19  1  0  0  0  0
 19  5  1  1  0  0  0
 19 21  1  0  0  0  0
 21 14  1  6  0  0  0
 23 14  1  6  0  0  0
 23 16  1  0  0  0  0
 23 29  1  0  0  0  0
 25 26  1  1  0  0  0
 25 27  1  0  0  0  0
 26  8  1  0  0  0  0
 27 18  1  6  0  0  0
 27 28  1  0  0  0  0
 28 20  1  6  0  0  0
 28 29  1  0  0  0  0
 29 11  1  6  0  0  0
 30 22  1  1  0  0  0
 30 31  1  0  0  0  0
 31 24  1  6  0  0  0
M  END
>  <CHROM.1>
-58.56059160,-80.98838932,-69.46234762,94.60917015,65.76627557,170.65130407
10.54068464,19.92956052,34.30924429,0.49182337,0.75457455,2.79974660

>  <Name>
2fcz_lig

>  <RI>
2.26996e+07

>  <Rbt.Current_Directory>
/home/itssahil/PROJECTS/Mol_Feturizer/New_Systems/rnas/2fcz

>  <Rbt.Executable>
rbdock ($Id: //depot/dev/client3/rdock/2013.1/src/exe/rbdock.cxx#4 $)

>  <Rbt.Library>
libRbt.so (2013.1, Build901 2013/11/27)

>  <Rbt.Parameter_File>
/export/apps/rDock/src/rDock_2013.1_src/data/scripts/dock_solv.prm

>  <Rbt.Receptor>
prm/pocket_docking_4.prm

>  <SCORE>
-21.1745

>  <SCORE.INTER>
-21.2276

>  <SCORE.INTER.CONST>
1

>  <SCORE.INTER.POLAR>
-2.42134

>  <SCORE.INTER.ROT>
6

>  <SCORE.INTER.SOLV>
14.479

>  <SCORE.INTER.VDW>
-18.5069

>  <SCORE.INTER.norm>
-0.68476

>  <SCORE.INTRA>
0.0531174

>  <SCORE.INTRA.DIHEDRAL>
-3.46686

>  <SCORE.INTRA.DIHEDRAL.0>
10.8409

>  <SCORE.INTRA.POLAR>
0

>  <SCORE.INTRA.POLAR.0>
0

>  <SCORE.INTRA.REPUL>
0

>  <SCORE.INTRA.REPUL.0>
0

>  <SCORE.INTRA.SOLV>
0.0940016

>  <SCORE.INTRA.SOLV.lig_0>
-80.8302

>  <SCORE.INTRA.VDW>
1.73954

>  <SCORE.INTRA.VDW.0>
-4.23953

>  <SCORE.INTRA.norm>
0.00171347

>  <SCORE.RESTR>
0

>  <SCORE.RESTR.CAVITY>
0

>  <SCORE.RESTR.norm>
0

>  <SCORE.SYSTEM>
0

>  <SCORE.SYSTEM.CONST>
0

>  <SCORE.SYSTEM.DIHEDRAL>
0

>  <SCORE.SYSTEM.SOLV>
0

>  <SCORE.SYSTEM.norm>
0

>  <SCORE.heavy>
31

>  <SCORE.norm>
-0.683047

>  <RMSD>
1.786

$$$$
2fcz_lig
 OpenBabel11021811433D
libRbt.so/2013.1/901 2013/11/27
 31 33  0  0  0  0  0  0  0  0999 V2000
    8.6137   16.7056   38.9391 C   0  0  0  0  0  0  0  0  0  0  0  0
   13.6173   22.2327   36.9167 N   0  0  0  0  0  0  0  0  0  0  0  0
    9.0893   15.4194   39.3449 O   0  0  0  0  0  0  0  0  0  0  0  0
    8.2365   16.6702   37.4542 C   0  0  1  0  0  0  0  0  0  0  0  0
   11.1703   22.4459   32.6842 N   0  0  0  0  0  0  0  0  0  0  0  0
    7.9568   17.9895   36.9434 O   0  0  0  0  0  0  0  0  0  0  0  0
    9.0243   18.4048   36.0684 C   0  0  1  0  0  0  0  0  0  0  0  0
    6.5327   23.4300   31.3697 N   0  0  0  0  0  0  0  0  0  0  0  0
    9.4482   19.7564   36.3152 O   0  0  0  0  0  0  0  0  0  0  0  0
   10.6852   20.1138   35.6757 C   0  0  2  0  0  0  0  0  0  0  0  0
    9.1325   17.5237   32.5077 N   0  0  0  0  0  0  0  0  0  0  0  0
   11.9106   20.1370   37.7618 O   0  0  0  0  0  0  0  0  0  0  0  0
   11.5315   20.9469   36.6463 C   0  0  1  0  0  0  0  0  0  0  0  0
    9.8200   20.0685   33.3707 O   0  0  0  0  0  0  0  0  0  0  0  0
   12.7963   21.4730   35.9638 C   0  0  1  0  0  0  0  0  0  0  0  0
    7.5639   20.7042   33.6515 O   0  0  0  0  0  0  0  0  0  0  0  0
   12.4217   22.3701   34.7820 C   0  0  0  0  0  0  0  0  0  0  0  0
    6.8887   21.0649   30.0485 O   0  0  0  0  0  0  0  0  0  0  0  0
   11.6135   21.5563   33.7694 C   0  0  1  0  0  0  0  0  0  0  0  0
    7.5042   18.2679   30.2740 O   0  0  0  0  0  0  0  0  0  0  0  0
   10.3820   20.8974   34.4002 C   0  0  2  0  0  0  0  0  0  0  0  0
   11.1171   17.3231   35.3166 O   0  0  0  0  0  0  0  0  0  0  0  0
    8.4928   19.6041   33.6574 C   0  0  1  0  0  0  0  0  0  0  0  0
    8.9367   15.5934   35.3739 O   0  0  0  0  0  0  0  0  0  0  0  0
    7.4563   21.3867   32.3903 C   0  0  2  0  0  0  0  0  0  0  0  0
    6.4660   22.5441   32.5411 C   0  0  0  0  0  0  0  0  0  0  0  0
    6.9700   20.4069   31.3165 C   0  0  2  0  0  0  0  0  0  0  0  0
    7.9557   19.2404   31.2221 C   0  0  1  0  0  0  0  0  0  0  0  0
    8.1077   18.5736   32.5912 C   0  0  1  0  0  0  0  0  0  0  0  0
   10.1679   17.4384   36.3811 C   0  0  2  0  0  0  0  0  0  0  0  0
    9.3972   16.1401   36.6124 C   0  0  1  0  0  0  0  0  0  0  0  0
  3  1  1  0  0  0  0
  4  1  1  1  0  0  0
  4  6  1  0  0  0  0
  4 31  1  0  0  0  0
  6  7  1  0  0  0  0
  7  9  1  1  0  0  0
  7 30  1  0  0  0  0
 10  9  1  1  0  0  0
 10 13  1  0  0  0  0
 10 21  1  0  0  0  0
 13 12  1  1  0  0  0
 13 15  1  0  0  0  0
 15  2  1  1  0  0  0
 15 17  1  0  0  0  0
 16 25  1  0  0  0  0
 17 19  1  0  0  0  0
 19  5  1  6  0  0  0
 19 21  1  0  0  0  0
 21 14  1  6  0  0  0
 23 14  1  6  0  0  0
 23 16  1  0  0  0  0
 23 29  1  0  0  0  0
 25 26  1  1  0  0  0
 25 27  1  0  0  0  0
 26  8  1  0  0  0  0
 27 18  1  6  0  0  0
 27 28  1  0  0  0  0
 28 20  1  6  0  0  0
 28 29  1  0  0  0  0
 29 11  1  6  0  0  0
 30 22  1  6  0  0  0
 30 31  1  0  0  0  0
 31 24  1  6  0  0  0
M  END
>  <CHROM.1>
-170.67510475,167.25650128,-138.70651384,68.97109522,67.56863502,168.36873224
9.36768400,19.52255444,34.60166457,1.13313716,0.73395420,2.40732169

>  <Name>
2fcz_lig

>  <RI>
3.41297e+07

>  <Rbt.Current_Directory>
/home/itssahil/PROJECTS/Mol_Feturizer/New_Systems/rnas/2fcz

>  <Rbt.Executable>
rbdock ($Id: //depot/dev/client3/rdock/2013.1/src/exe/rbdock.cxx#4 $)

>  <Rbt.Library>
libRbt.so (2013.1, Build901 2013/11/27)

>  <Rbt.Parameter_File>
/export/apps/rDock/src/rDock_2013.1_src/data/scripts/dock_solv.prm

>  <Rbt.Receptor>
prm/pocket_docking_2.prm

>  <SCORE>
-13.6842

>  <SCORE.INTER>
-15.6744

>  <SCORE.INTER.CONST>
1

>  <SCORE.INTER.POLAR>
-1.58161

>  <SCORE.INTER.ROT>
6

>  <SCORE.INTER.SOLV>
14.4293

>  <SCORE.INTER.VDW>
-17.5873

>  <SCORE.INTER.norm>
-0.505625

>  <SCORE.INTRA>
1.68011

>  <SCORE.INTRA.DIHEDRAL>
-2.88169

>  <SCORE.INTRA.DIHEDRAL.0>
10.8409

>  <SCORE.INTRA.POLAR>
0

>  <SCORE.INTRA.POLAR.0>
0

>  <SCORE.INTRA.REPUL>
0

>  <SCORE.INTRA.REPUL.0>
0

>  <SCORE.INTRA.SOLV>
0.081266

>  <SCORE.INTRA.SOLV.lig_0>
-80.8302

>  <SCORE.INTRA.VDW>
3.08032

>  <SCORE.INTRA.VDW.0>
-4.23953

>  <SCORE.INTRA.norm>
0.0541971

>  <SCORE.RESTR>
0.310038

>  <SCORE.RESTR.CAVITY>
0.310038

>  <SCORE.RESTR.norm>
0.0100012

>  <SCORE.SYSTEM>
0

>  <SCORE.SYSTEM.CONST>
0

>  <SCORE.SYSTEM.DIHEDRAL>
0

>  <SCORE.SYSTEM.SOLV>
0

>  <SCORE.SYSTEM.norm>
0

>  <SCORE.heavy>
31

>  <SCORE.norm>
-0.441426

>  <RMSD>
1.793

$$$$
2fcz_lig
 OpenBabel11021811433D
libRbt.so/2013.1/901 2013/11/27
 31 33  0  0  0  0  0  0  0  0999 V2000
    9.4226   17.6375   38.8663 C   0  0  0  0  0  0  0  0  0  0  0  0
   13.9061   23.1099   35.8369 N   0  0  0  0  0  0  0  0  0  0  0  0
    8.4738   18.4346   39.5804 O   0  0  0  0  0  0  0  0  0  0  0  0
    8.9325   17.4160   37.4313 C   0  0  1  0  0  0  0  0  0  0  0  0
   10.9632   22.9763   31.9293 N   0  0  0  0  0  0  0  0  0  0  0  0
    8.5169   18.6509   36.8132 O   0  0  0  0  0  0  0  0  0  0  0  0
    9.4781   19.0367   35.8108 C   0  0  1  0  0  0  0  0  0  0  0  0
    6.9061   24.0167   32.6073 N   0  0  0  0  0  0  0  0  0  0  0  0
    9.8195   20.4317   35.8790 O   0  0  0  0  0  0  0  0  0  0  0  0
   10.9525   20.8027   35.0755 C   0  0  2  0  0  0  0  0  0  0  0  0
    9.1975   17.9282   32.4214 N   0  0  0  0  0  0  0  0  0  0  0  0
   12.4160   20.9973   36.9923 O   0  0  0  0  0  0  0  0  0  0  0  0
   11.8675   21.7250   35.8906 C   0  0  1  0  0  0  0  0  0  0  0  0
    9.8211   20.5884   32.8989 O   0  0  0  0  0  0  0  0  0  0  0  0
   13.0147   22.2630   35.0323 C   0  0  1  0  0  0  0  0  0  0  0  0
    7.5655   21.1624   33.2937 O   0  0  0  0  0  0  0  0  0  0  0  0
   12.4587   23.0739   33.8598 C   0  0  0  0  0  0  0  0  0  0  0  0
    6.5828   21.0313   29.7462 O   0  0  0  0  0  0  0  0  0  0  0  0
   11.5754   22.1701   32.9973 C   0  0  1  0  0  0  0  0  0  0  0  0
    7.3575   18.3135   30.2626 O   0  0  0  0  0  0  0  0  0  0  0  0
   10.4614   21.4981   33.8073 C   0  0  2  0  0  0  0  0  0  0  0  0
   11.5786   18.0173   34.9961 O   0  0  0  0  0  0  0  0  0  0  0  0
    8.5471   20.1108   33.3553 C   0  0  1  0  0  0  0  0  0  0  0  0
    9.5429   16.1665   35.4204 O   0  0  0  0  0  0  0  0  0  0  0  0
    7.3211   21.6729   31.9717 C   0  0  2  0  0  0  0  0  0  0  0  0
    6.2881   22.7988   32.0632 C   0  0  0  0  0  0  0  0  0  0  0  0
    6.8003   20.5448   31.0741 C   0  0  2  0  0  0  0  0  0  0  0  0
    7.8338   19.4169   31.0399 C   0  0  1  0  0  0  0  0  0  0  0  0
    8.1302   18.9376   32.4627 C   0  0  1  0  0  0  0  0  0  0  0  0
   10.7109   18.1862   36.1213 C   0  0  2  0  0  0  0  0  0  0  0  0
   10.0587   16.8736   36.5513 C   0  0  1  0  0  0  0  0  0  0  0  0
  3  1  1  0  0  0  0
  4  1  1  1  0  0  0
  4  6  1  0  0  0  0
  4 31  1  0  0  0  0
  6  7  1  0  0  0  0
  7  9  1  1  0  0  0
  7 30  1  0  0  0  0
 10  9  1  1  0  0  0
 10 13  1  0  0  0  0
 10 21  1  0  0  0  0
 13 12  1  1  0  0  0
 13 15  1  0  0  0  0
 15  2  1  1  0  0  0
 15 17  1  0  0  0  0
 16 25  1  0  0  0  0
 17 19  1  0  0  0  0
 19  5  1  6  0  0  0
 19 21  1  0  0  0  0
 21 14  1  6  0  0  0
 23 14  1  6  0  0  0
 23 16  1  0  0  0  0
 23 29  1  0  0  0  0
 25 26  1  1  0  0  0
 25 27  1  0  0  0  0
 26  8  1  0  0  0  0
 27 18  1  6  0  0  0
 27 28  1  0  0  0  0
 28 20  1  6  0  0  0
 28 29  1  0  0  0  0
 29 11  1  6  0  0  0
 30 22  1  6  0  0  0
 30 31  1  0  0  0  0
 31 24  1  6  0  0  0
M  END
>  <CHROM.1>
48.60976668,168.70104104,-135.61779552,70.35464748,71.42828969,75.04524155
9.54256143,20.16111431,34.27813060,0.99959203,0.70049332,2.35307072

>  <Name>
2fcz_lig

>  <RI>
3.41297e+07

>  <Rbt.Current_Directory>
/home/itssahil/PROJECTS/Mol_Feturizer/New_Systems/rnas/2fcz

>  <Rbt.Executable>
rbdock ($Id: //depot/dev/client3/rdock/2013.1/src/exe/rbdock.cxx#4 $)

>  <Rbt.Library>
libRbt.so (2013.1, Build901 2013/11/27)

>  <Rbt.Parameter_File>
/export/apps/rDock/src/rDock_2013.1_src/data/scripts/dock_solv.prm

>  <Rbt.Receptor>
prm/pocket_docking_2.prm

>  <SCORE>
-12.434

>  <SCORE.INTER>
-13.0503

>  <SCORE.INTER.CONST>
1

>  <SCORE.INTER.POLAR>
-0.959166

>  <SCORE.INTER.ROT>
6

>  <SCORE.INTER.SOLV>
16.8988

>  <SCORE.INTER.VDW>
-18.7359

>  <SCORE.INTER.norm>
-0.420978

>  <SCORE.INTRA>
0.612141

>  <SCORE.INTRA.DIHEDRAL>
-1.68336

>  <SCORE.INTRA.DIHEDRAL.0>
10.8409

>  <SCORE.INTRA.POLAR>
0

>  <SCORE.INTRA.POLAR.0>
0

>  <SCORE.INTRA.REPUL>
0

>  <SCORE.INTRA.REPUL.0>
0

>  <SCORE.INTRA.SOLV>
-0.798334

>  <SCORE.INTRA.SOLV.lig_0>
-80.8302

>  <SCORE.INTRA.VDW>
1.85299

>  <SCORE.INTRA.VDW.0>
-4.23953

>  <SCORE.INTRA.norm>
0.0197465

>  <SCORE.RESTR>
0.00417087

>  <SCORE.RESTR.CAVITY>
0.00417087

>  <SCORE.RESTR.norm>
0.000134544

>  <SCORE.SYSTEM>
0

>  <SCORE.SYSTEM.CONST>
0

>  <SCORE.SYSTEM.DIHEDRAL>
0

>  <SCORE.SYSTEM.SOLV>
0

>  <SCORE.SYSTEM.norm>
0

>  <SCORE.heavy>
31

>  <SCORE.norm>
-0.401097

>  <RMSD>
1.796

$$$$
2fcz_lig
 OpenBabel11021811433D
libRbt.so/2013.1/901 2013/11/27
 31 33  0  0  0  0  0  0  0  0999 V2000
    7.4157   17.9960   39.1733 C   0  0  0  0  0  0  0  0  0  0  0  0
   13.7594   21.9864   36.9869 N   0  0  0  0  0  0  0  0  0  0  0  0
    8.4376   18.9687   39.4082 O   0  0  0  0  0  0  0  0  0  0  0  0
    7.4234   17.5875   37.6963 C   0  0  1  0  0  0  0  0  0  0  0  0
   11.6051   22.3863   32.6113 N   0  0  0  0  0  0  0  0  0  0  0  0
    7.4617   18.7363   36.8255 O   0  0  0  0  0  0  0  0  0  0  0  0
    8.7610   18.8318   36.2088 C   0  0  1  0  0  0  0  0  0  0  0  0
    7.2687   23.8548   32.4858 N   0  0  0  0  0  0  0  0  0  0  0  0
    9.2870   20.1698   36.2303 O   0  0  0  0  0  0  0  0  0  0  0  0
   10.5972   20.2989   35.6528 C   0  0  2  0  0  0  0  0  0  0  0  0
    9.0628   17.6547   32.9228 N   0  0  0  0  0  0  0  0  0  0  0  0
   11.6986   20.2254   37.8058 O   0  0  0  0  0  0  0  0  0  0  0  0
   11.5128   21.0327   36.6405 C   0  0  1  0  0  0  0  0  0  0  0  0
    9.8590   20.2841   33.3036 O   0  0  0  0  0  0  0  0  0  0  0  0
   12.8796   21.3220   36.0155 C   0  0  1  0  0  0  0  0  0  0  0  0
    7.6358   21.0778   33.2832 O   0  0  0  0  0  0  0  0  0  0  0  0
   12.7156   22.2115   34.7811 C   0  0  0  0  0  0  0  0  0  0  0  0
    7.2099   20.7243   29.6415 O   0  0  0  0  0  0  0  0  0  0  0  0
   11.8429   21.4889   33.7530 C   0  0  1  0  0  0  0  0  0  0  0  0
    7.6276   18.0057   30.4709 O   0  0  0  0  0  0  0  0  0  0  0  0
   10.4905   21.0611   34.3333 C   0  0  2  0  0  0  0  0  0  0  0  0
   10.8104   17.4555   36.3529 O   0  0  0  0  0  0  0  0  0  0  0  0
    8.4893   19.9567   33.5792 C   0  0  1  0  0  0  0  0  0  0  0  0
    8.4735   15.9488   36.2165 O   0  0  0  0  0  0  0  0  0  0  0  0
    7.6510   21.4911   31.9059 C   0  0  2  0  0  0  0  0  0  0  0  0
    6.7304   22.7036   31.7468 C   0  0  0  0  0  0  0  0  0  0  0  0
    7.1696   20.3376   31.0186 C   0  0  2  0  0  0  0  0  0  0  0  0
    8.0816   19.1280   31.2343 C   0  0  1  0  0  0  0  0  0  0  0  0
    8.1049   18.7500   32.7171 C   0  0  1  0  0  0  0  0  0  0  0  0
    9.6481   17.9133   37.0507 C   0  0  2  0  0  0  0  0  0  0  0  0
    8.6765   16.7772   37.3644 C   0  0  1  0  0  0  0  0  0  0  0  0
  3  1  1  0  0  0  0
  4  1  1  1  0  0  0
  4  6  1  0  0  0  0
  4 31  1  0  0  0  0
  6  7  1  0  0  0  0
  7  9  1  1  0  0  0
  7 30  1  0  0  0  0
 10  9  1  1  0  0  0
 10 13  1  0  0  0  0
 10 21  1  0  0  0  0
 13 12  1  1  0  0  0
 13 15  1  0  0  0  0
 15  2  1  1  0  0  0
 15 17  1  0  0  0  0
 16 25  1  0  0  0  0
 17 19  1  0  0  0  0
 19  5  1  6  0  0  0
 19 21  1  0  0  0  0
 21 14  1  6  0  0  0
 23 14  1  6  0  0  0
 23 16  1  0  0  0  0
 23 29  1  0  0  0  0
 25 26  1  1  0  0  0
 25 27  1  0  0  0  0
 26  8  1  0  0  0  0
 27 18  1  6  0  0  0
 27 28  1  0  0  0  0
 28 20  1  6  0  0  0
 28 29  1  0  0  0  0
 29 11  1  6  0  0  0
 30 22  1  6  0  0  0
 30 31  1  0  0  0  0
 31 24  1  6  0  0  0
M  END
>  <CHROM.1>
-47.98117918,178.55445467,-128.69010486,64.25752477,79.61293725,65.79011212
9.27983717,19.85555790,34.70395774,1.21320743,0.66379494,2.12250522

>  <Name>
2fcz_lig

>  <RI>
2.29611e+07

>  <Rbt.Current_Directory>
/home/itssahil/PROJECTS/Mol_Feturizer/New_Systems/rnas/2fcz

>  <Rbt.Executable>
rbdock ($Id: //depot/dev/client3/rdock/2013.1/src/exe/rbdock.cxx#4 $)

>  <Rbt.Library>
libRbt.so (2013.1, Build901 2013/11/27)

>  <Rbt.Parameter_File>
/export/apps/rDock/src/rDock_2013.1_src/data/scripts/dock_solv.prm

>  <Rbt.Receptor>
prm/pocket_docking_3.prm

>  <SCORE>
-21.2434

>  <SCORE.INTER>
-21.6329

>  <SCORE.INTER.CONST>
1

>  <SCORE.INTER.POLAR>
-2.71677

>  <SCORE.INTER.ROT>
6

>  <SCORE.INTER.SOLV>
18.6176

>  <SCORE.INTER.VDW>
-19.1719

>  <SCORE.INTER.norm>
-0.697834

>  <SCORE.INTRA>
0.389456

>  <SCORE.INTRA.DIHEDRAL>
-1.402

>  <SCORE.INTRA.DIHEDRAL.0>
10.8409

>  <SCORE.INTRA.POLAR>
0

>  <SCORE.INTRA.POLAR.0>
0

>  <SCORE.INTRA.REPUL>
0

>  <SCORE.INTRA.REPUL.0>
0

>  <SCORE.INTRA.SOLV>
-1.01408

>  <SCORE.INTRA.SOLV.lig_0>
-80.8302

>  <SCORE.INTRA.VDW>
1.59749

>  <SCORE.INTRA.VDW.0>
-4.23953

>  <SCORE.INTRA.norm>
0.0125631

>  <SCORE.RESTR>
0

>  <SCORE.RESTR.CAVITY>
0

>  <SCORE.RESTR.norm>
0

>  <SCORE.SYSTEM>
0

>  <SCORE.SYSTEM.CONST>
0

>  <SCORE.SYSTEM.DIHEDRAL>
0

>  <SCORE.SYSTEM.SOLV>
0

>  <SCORE.SYSTEM.norm>
0

>  <SCORE.heavy>
31

>  <SCORE.norm>
-0.685271

>  <RMSD>
1.819

$$$$
2fcz_lig
 OpenBabel11021811433D
libRbt.so/2013.1/901 2013/11/27
 31 33  0  0  0  0  0  0  0  0999 V2000
   11.9197   15.4399   37.1302 C   0  0  0  0  0  0  0  0  0  0  0  0
   14.5125   22.8115   36.3408 N   0  0  0  0  0  0  0  0  0  0  0  0
   12.8518   15.1434   36.0868 O   0  0  0  0  0  0  0  0  0  0  0  0
   12.4693   16.5713   38.0056 C   0  0  1  0  0  0  0  0  0  0  0  0
   11.1169   22.5042   32.8304 N   0  0  0  0  0  0  0  0  0  0  0  0
   12.6360   17.7922   37.2564 O   0  0  0  0  0  0  0  0  0  0  0  0
   11.6340   18.7467   37.6594 C   0  0  1  0  0  0  0  0  0  0  0  0
    7.1859   22.7254   32.8954 N   0  0  0  0  0  0  0  0  0  0  0  0
   11.0151   19.4051   36.5410 O   0  0  0  0  0  0  0  0  0  0  0  0
   11.9386   20.0660   35.6594 C   0  0  2  0  0  0  0  0  0  0  0  0
   10.3486   17.0948   33.4816 N   0  0  0  0  0  0  0  0  0  0  0  0
   13.6006   20.3465   37.3951 O   0  0  0  0  0  0  0  0  0  0  0  0
   12.7811   21.0612   36.4668 C   0  0  1  0  0  0  0  0  0  0  0  0
   10.5666   19.8561   33.6253 O   0  0  0  0  0  0  0  0  0  0  0  0
   13.6810   21.8933   35.5503 C   0  0  1  0  0  0  0  0  0  0  0  0
    8.2341   20.1404   33.8523 O   0  0  0  0  0  0  0  0  0  0  0  0
   12.8292   22.6949   34.5636 C   0  0  0  0  0  0  0  0  0  0  0  0
    7.4851   19.4219   30.3181 O   0  0  0  0  0  0  0  0  0  0  0  0
   12.0077   21.7285   33.7080 C   0  0  1  0  0  0  0  0  0  0  0  0
    8.6001   16.9329   31.2208 O   0  0  0  0  0  0  0  0  0  0  0  0
   11.1571   20.7768   34.5562 C   0  0  2  0  0  0  0  0  0  0  0  0
    9.7989   18.6799   39.3155 O   0  0  0  0  0  0  0  0  0  0  0  0
    9.3476   19.2594   34.0912 C   0  0  1  0  0  0  0  0  0  0  0  0
   12.1605   17.5275   40.2344 O   0  0  0  0  0  0  0  0  0  0  0  0
    7.9974   20.4393   32.4657 C   0  0  2  0  0  0  0  0  0  0  0  0
    6.8140   21.4051   32.3665 C   0  0  0  0  0  0  0  0  0  0  0  0
    7.6915   19.1434   31.7064 C   0  0  2  0  0  0  0  0  0  0  0  0
    8.8724   18.1829   31.8625 C   0  0  1  0  0  0  0  0  0  0  0  0
    9.1504   17.9349   33.3469 C   0  0  1  0  0  0  0  0  0  0  0  0
   10.5945   17.9111   38.4081 C   0  0  2  0  0  0  0  0  0  0  0  0
   11.4923   16.9092   39.1316 C   0  0  1  0  0  0  0  0  0  0  0  0
  3  1  1  0  0  0  0
  4  1  1  6  0  0  0
  4  6  1  0  0  0  0
  4 31  1  0  0  0  0
  6  7  1  0  0  0  0
  7  9  1  6  0  0  0
  7 30  1  0  0  0  0
 10  9  1  1  0  0  0
 10 13  1  0  0  0  0
 10 21  1  0  0  0  0
 13 12  1  1  0  0  0
 13 15  1  0  0  0  0
 15  2  1  1  0  0  0
 15 17  1  0  0  0  0
 16 25  1  0  0  0  0
 17 19  1  0  0  0  0
 19  5  1  6  0  0  0
 19 21  1  0  0  0  0
 21 14  1  6  0  0  0
 23 14  1  6  0  0  0
 23 16  1  0  0  0  0
 23 29  1  0  0  0  0
 25 26  1  1  0  0  0
 25 27  1  0  0  0  0
 26  8  1  0  0  0  0
 27 18  1  6  0  0  0
 27 28  1  0  0  0  0
 28 20  1  6  0  0  0
 28 29  1  0  0  0  0
 29 11  1  6  0  0  0
 30 22  1  1  0  0  0
 30 31  1  0  0  0  0
 31 24  1  1  0  0  0
M  END
>  <CHROM.1>
62.57496964,-55.88871002,-55.82301008,79.95358229,82.75186635,69.32848756
10.72260819,19.33545064,35.11825625,0.65369361,0.82842823,2.65214482

>  <Name>
2fcz_lig

>  <RI>
2.76032e+07

>  <Rbt.Current_Directory>
/home/itssahil/PROJECTS/Mol_Feturizer/New_Systems/rnas/2fcz

>  <Rbt.Executable>
rbdock ($Id: //depot/dev/client3/rdock/2013.1/src/exe/rbdock.cxx#4 $)

>  <Rbt.Library>
libRbt.so (2013.1, Build901 2013/11/27)

>  <Rbt.Parameter_File>
/export/apps/rDock/src/rDock_2013.1_src/data/scripts/dock_solv.prm

>  <Rbt.Receptor>
prm/pocket_docking_8.prm

>  <SCORE>
-17.2488

>  <SCORE.INTER>
-16.4267

>  <SCORE.INTER.CONST>
1

>  <SCORE.INTER.POLAR>
-1.81985

>  <SCORE.INTER.ROT>
6

>  <SCORE.INTER.SOLV>
13.801

>  <SCORE.INTER.VDW>
-17.0853

>  <SCORE.INTER.norm>
-0.529895

>  <SCORE.INTRA>
-0.822085

>  <SCORE.INTRA.DIHEDRAL>
-6.16236

>  <SCORE.INTRA.DIHEDRAL.0>
10.8409

>  <SCORE.INTRA.POLAR>
0

>  <SCORE.INTRA.POLAR.0>
0

>  <SCORE.INTRA.REPUL>
0

>  <SCORE.INTRA.REPUL.0>
0

>  <SCORE.INTRA.SOLV>
-1.95516

>  <SCORE.INTRA.SOLV.lig_0>
-80.8302

>  <SCORE.INTRA.VDW>
3.23667

>  <SCORE.INTRA.VDW.0>
-4.23953

>  <SCORE.INTRA.norm>
-0.0265189

>  <SCORE.RESTR>
0

>  <SCORE.RESTR.CAVITY>
0

>  <SCORE.RESTR.norm>
0

>  <SCORE.SYSTEM>
0

>  <SCORE.SYSTEM.CONST>
0

>  <SCORE.SYSTEM.DIHEDRAL>
0

>  <SCORE.SYSTEM.SOLV>
0

>  <SCORE.SYSTEM.norm>
0

>  <SCORE.heavy>
31

>  <SCORE.norm>
-0.556414

>  <RMSD>
1.823

$$$$
2fcz_lig
 OpenBabel11021811433D
libRbt.so/2013.1/901 2013/11/27
 31 33  0  0  0  0  0  0  0  0999 V2000
   11.8691   15.4772   37.3074 C   0  0  0  0  0  0  0  0  0  0  0  0
   14.7476   22.6382   36.3183 N   0  0  0  0  0  0  0  0  0  0  0  0
   12.8046   15.1852   36.2657 O   0  0  0  0  0  0  0  0  0  0  0  0
   12.4045   16.6219   38.1743 C   0  0  1  0  0  0  0  0  0  0  0  0
   11.3995   22.3853   32.7583 N   0  0  0  0  0  0  0  0  0  0  0  0
   12.6234   17.8191   37.4007 O   0  0  0  0  0  0  0  0  0  0  0  0
   11.6240   18.8016   37.7381 C   0  0  1  0  0  0  0  0  0  0  0  0
    6.1155   21.6927   33.3321 N   0  0  0  0  0  0  0  0  0  0  0  0
   11.0623   19.4404   36.5790 O   0  0  0  0  0  0  0  0  0  0  0  0
   12.0360   20.0151   35.6909 C   0  0  2  0  0  0  0  0  0  0  0  0
   10.0626   17.1189   33.3377 N   0  0  0  0  0  0  0  0  0  0  0  0
   13.6818   20.2694   37.4461 O   0  0  0  0  0  0  0  0  0  0  0  0
   12.9192   20.9924   36.4766 C   0  0  1  0  0  0  0  0  0  0  0  0
   10.6887   19.8040   33.6406 O   0  0  0  0  0  0  0  0  0  0  0  0
   13.8795   21.7379   35.5469 C   0  0  1  0  0  0  0  0  0  0  0  0
    8.4208   20.4239   33.8531 O   0  0  0  0  0  0  0  0  0  0  0  0
   13.0905   22.5470   34.5152 C   0  0  0  0  0  0  0  0  0  0  0  0
    7.6480   20.0189   30.2745 O   0  0  0  0  0  0  0  0  0  0  0  0
   12.2307   21.5956   33.6807 C   0  0  1  0  0  0  0  0  0  0  0  0
    8.3581   17.3451   31.0489 O   0  0  0  0  0  0  0  0  0  0  0  0
   11.3141   20.7254   34.5476 C   0  0  2  0  0  0  0  0  0  0  0  0
    9.7238   18.8113   39.3204 O   0  0  0  0  0  0  0  0  0  0  0  0
    9.3843   19.3735   34.0560 C   0  0  1  0  0  0  0  0  0  0  0  0
   12.0253   17.6429   40.3631 O   0  0  0  0  0  0  0  0  0  0  0  0
    8.2611   20.8297   32.4828 C   0  0  2  0  0  0  0  0  0  0  0  0
    7.2381   21.9668   32.4233 C   0  0  0  0  0  0  0  0  0  0  0  0
    7.7807   19.6377   31.6473 C   0  0  2  0  0  0  0  0  0  0  0  0
    8.8008   18.5032   31.7640 C   0  0  1  0  0  0  0  0  0  0  0  0
    9.0069   18.1361   33.2353 C   0  0  1  0  0  0  0  0  0  0  0  0
   10.5404   18.0046   38.4661 C   0  0  2  0  0  0  0  0  0  0  0  0
   11.3900   17.0070   39.2510 C   0  0  1  0  0  0  0  0  0  0  0  0
  3  1  1  0  0  0  0
  4  1  1  6  0  0  0
  4  6  1  0  0  0  0
  4 31  1  0  0  0  0
  6  7  1  0  0  0  0
  7  9  1  6  0  0  0
  7 30  1  0  0  0  0
 10  9  1  1  0  0  0
 10 13  1  0  0  0  0
 10 21  1  0  0  0  0
 13 12  1  1  0  0  0
 13 15  1  0  0  0  0
 15  2  1  1  0  0  0
 15 17  1  0  0  0  0
 16 25  1  0  0  0  0
 17 19  1  0  0  0  0
 19  5  1  6  0  0  0
 19 21  1  0  0  0  0
 21 14  1  6  0  0  0
 23 14  1  6  0  0  0
 23 16  1  0  0  0  0
 23 29  1  0  0  0  0
 25 26  1  1  0  0  0
 25 27  1  0  0  0  0
 26  8  1  0  0  0  0
 27 18  1  6  0  0  0
 27 28  1  0  0  0  0
 28 20  1  6  0  0  0
 28 29  1  0  0  0  0
 29 11  1  6  0  0  0
 30 22  1  1  0  0  0
 30 31  1  0  0  0  0
 31 24  1  1  0  0  0
M  END
>  <CHROM.1>
59.45883871,-53.54558387,-55.33705262,84.51813781,74.49743409,-41.16926367
10.74173927,19.40361021,35.14718288,0.75693371,0.74956079,2.51770390

>  <Name>
2fcz_lig

>  <RI>
0

>  <Rbt.Current_Directory>
/home/itssahil/PROJECTS/Mol_Feturizer/New_Systems/rnas/2fcz

>  <Rbt.Executable>
rbdock ($Id: //depot/dev/client3/rdock/2013.1/src/exe/rbdock.cxx#4 $)

>  <Rbt.Library>
libRbt.so (2013.1, Build901 2013/11/27)

>  <Rbt.Parameter_File>
/export/apps/rDock/src/rDock_2013.1_src/data/scripts/dock_solv.prm

>  <Rbt.Receptor>
prm/pocket_docking_5.prm

>  <SCORE>
-17.5258

>  <SCORE.INTER>
-17.5312

>  <SCORE.INTER.CONST>
1

>  <SCORE.INTER.POLAR>
-2.39365

>  <SCORE.INTER.ROT>
6

>  <SCORE.INTER.SOLV>
16.6348

>  <SCORE.INTER.VDW>
-16.8536

>  <SCORE.INTER.norm>
-0.565522

>  <SCORE.INTRA>
0.00532788

>  <SCORE.INTRA.DIHEDRAL>
-5.67867

>  <SCORE.INTRA.DIHEDRAL.0>
10.8409

>  <SCORE.INTRA.POLAR>
0

>  <SCORE.INTRA.POLAR.0>
0

>  <SCORE.INTRA.REPUL>
0

>  <SCORE.INTRA.REPUL.0>
0

>  <SCORE.INTRA.SOLV>
-1.45377

>  <SCORE.INTRA.SOLV.lig_0>
-80.8302

>  <SCORE.INTRA.VDW>
3.57155

>  <SCORE.INTRA.VDW.0>
-4.23953

>  <SCORE.INTRA.norm>
0.000171867

>  <SCORE.RESTR>
0

>  <SCORE.RESTR.CAVITY>
0

>  <SCORE.RESTR.norm>
0

>  <SCORE.SYSTEM>
0

>  <SCORE.SYSTEM.CONST>
0

>  <SCORE.SYSTEM.DIHEDRAL>
0

>  <SCORE.SYSTEM.SOLV>
0

>  <SCORE.SYSTEM.norm>
0

>  <SCORE.heavy>
31

>  <SCORE.norm>
-0.56535

>  <RMSD>
1.840

$$$$
2fcz_lig
 OpenBabel11021811433D
libRbt.so/2013.1/901 2013/11/27
 31 33  0  0  0  0  0  0  0  0999 V2000
    7.4238   17.9748   39.1830 C   0  0  0  0  0  0  0  0  0  0  0  0
   13.7728   21.9598   36.9795 N   0  0  0  0  0  0  0  0  0  0  0  0
    8.4506   18.9416   39.4205 O   0  0  0  0  0  0  0  0  0  0  0  0
    7.4297   17.5699   37.7050 C   0  0  1  0  0  0  0  0  0  0  0  0
   11.5854   22.3970   32.6238 N   0  0  0  0  0  0  0  0  0  0  0  0
    7.4672   18.7209   36.8370 O   0  0  0  0  0  0  0  0  0  0  0  0
    8.7658   18.8176   36.2190 C   0  0  1  0  0  0  0  0  0  0  0  0
    6.5121   23.5538   31.1781 N   0  0  0  0  0  0  0  0  0  0  0  0
    9.2921   20.1554   36.2431 O   0  0  0  0  0  0  0  0  0  0  0  0
   10.5980   20.2873   35.6565 C   0  0  2  0  0  0  0  0  0  0  0  0
    9.1061   17.7156   32.5960 N   0  0  0  0  0  0  0  0  0  0  0  0
   11.7157   20.1953   37.8004 O   0  0  0  0  0  0  0  0  0  0  0  0
   11.5222   21.0120   36.6429 C   0  0  1  0  0  0  0  0  0  0  0  0
    9.8417   20.2920   33.3131 O   0  0  0  0  0  0  0  0  0  0  0  0
   12.8845   21.3043   36.0097 C   0  0  1  0  0  0  0  0  0  0  0  0
    7.5996   20.9714   33.6028 O   0  0  0  0  0  0  0  0  0  0  0  0
   12.7124   22.2037   34.7837 C   0  0  0  0  0  0  0  0  0  0  0  0
    6.8591   21.1552   29.9992 O   0  0  0  0  0  0  0  0  0  0  0  0
   11.8307   21.4904   33.7566 C   0  0  1  0  0  0  0  0  0  0  0  0
    7.4442   18.3654   30.3576 O   0  0  0  0  0  0  0  0  0  0  0  0
   10.4823   21.0599   34.3440 C   0  0  2  0  0  0  0  0  0  0  0  0
   10.8150   17.4405   36.3572 O   0  0  0  0  0  0  0  0  0  0  0  0
    8.5147   19.8608   33.6482 C   0  0  1  0  0  0  0  0  0  0  0  0
    8.4777   15.9347   36.2200 O   0  0  0  0  0  0  0  0  0  0  0  0
    7.4760   21.5894   32.3102 C   0  0  2  0  0  0  0  0  0  0  0  0
    6.5032   22.7662   32.4194 C   0  0  0  0  0  0  0  0  0  0  0  0
    6.9568   20.5623   31.2978 C   0  0  2  0  0  0  0  0  0  0  0  0
    7.9260   19.3793   31.2455 C   0  0  1  0  0  0  0  0  0  0  0  0
    8.0962   18.7820   32.6442 C   0  0  1  0  0  0  0  0  0  0  0  0
    9.6537   17.8969   37.0576 C   0  0  2  0  0  0  0  0  0  0  0  0
    8.6822   16.7602   37.3696 C   0  0  1  0  0  0  0  0  0  0  0  0
  3  1  1  0  0  0  0
  4  1  1  1  0  0  0
  4  6  1  0  0  0  0
  4 31  1  0  0  0  0
  6  7  1  0  0  0  0
  7  9  1  1  0  0  0
  7 30  1  0  0  0  0
 10  9  1  1  0  0  0
 10 13  1  0  0  0  0
 10 21  1  0  0  0  0
 13 12  1  1  0  0  0
 13 15  1  0  0  0  0
 15  2  1  1  0  0  0
 15 17  1  0  0  0  0
 16 25  1  0  0  0  0
 17 19  1  0  0  0  0
 19  5  1  6  0  0  0
 19 21  1  0  0  0  0
 21 14  1  6  0  0  0
 23 14  1  6  0  0  0
 23 16  1  0  0  0  0
 23 29  1  0  0  0  0
 25 26  1  1  0  0  0
 25 27  1  0  0  0  0
 26  8  1  0  0  0  0
 27 18  1  6  0  0  0
 27 28  1  0  0  0  0
 28 20  1  6  0  0  0
 28 29  1  0  0  0  0
 29 11  1  6  0  0  0
 30 22  1  6  0  0  0
 30 31  1  0  0  0  0
 31 24  1  6  0  0  0
M  END
>  <CHROM.1>
-48.27575178,178.93597189,-128.50375942,58.89859714,73.19782526,171.00409333
9.21523570,19.88110500,34.71797622,1.16529266,0.59500977,2.15343094

>  <Name>
2fcz_lig

>  <RI>
2.29611e+07

>  <Rbt.Current_Directory>
/home/itssahil/PROJECTS/Mol_Feturizer/New_Systems/rnas/2fcz

>  <Rbt.Executable>
rbdock ($Id: //depot/dev/client3/rdock/2013.1/src/exe/rbdock.cxx#4 $)

>  <Rbt.Library>
libRbt.so (2013.1, Build901 2013/11/27)

>  <Rbt.Parameter_File>
/export/apps/rDock/src/rDock_2013.1_src/data/scripts/dock_solv.prm

>  <Rbt.Receptor>
prm/pocket_docking_3.prm

>  <SCORE>
-22.548

>  <SCORE.INTER>
-23.687

>  <SCORE.INTER.CONST>
1

>  <SCORE.INTER.POLAR>
-2.7072

>  <SCORE.INTER.ROT>
6

>  <SCORE.INTER.SOLV>
15.6155

>  <SCORE.INTER.VDW>
-19.5725

>  <SCORE.INTER.norm>
-0.764097

>  <SCORE.INTRA>
1.13897

>  <SCORE.INTRA.DIHEDRAL>
-2.23947

>  <SCORE.INTRA.DIHEDRAL.0>
10.8409

>  <SCORE.INTRA.POLAR>
0

>  <SCORE.INTRA.POLAR.0>
0

>  <SCORE.INTRA.REPUL>
0

>  <SCORE.INTRA.REPUL.0>
0

>  <SCORE.INTRA.SOLV>
-0.923624

>  <SCORE.INTRA.SOLV.lig_0>
-80.8302

>  <SCORE.INTRA.VDW>
2.72052

>  <SCORE.INTRA.VDW.0>
-4.23953

>  <SCORE.INTRA.norm>
0.0367411

>  <SCORE.RESTR>
0

>  <SCORE.RESTR.CAVITY>
0

>  <SCORE.RESTR.norm>
0

>  <SCORE.SYSTEM>
0

>  <SCORE.SYSTEM.CONST>
0

>  <SCORE.SYSTEM.DIHEDRAL>
0

>  <SCORE.SYSTEM.SOLV>
0

>  <SCORE.SYSTEM.norm>
0

>  <SCORE.heavy>
31

>  <SCORE.norm>
-0.727356

>  <RMSD>
1.855

$$$$
2fcz_lig
 OpenBabel11021811433D
libRbt.so/2013.1/901 2013/11/27
 31 33  0  0  0  0  0  0  0  0999 V2000
   11.9499   15.9088   36.2162 C   0  0  0  0  0  0  0  0  0  0  0  0
   13.6281   24.1935   35.1830 N   0  0  0  0  0  0  0  0  0  0  0  0
   12.2568   15.5164   34.8756 O   0  0  0  0  0  0  0  0  0  0  0  0
   12.9579   16.9624   36.6879 C   0  0  1  0  0  0  0  0  0  0  0  0
    9.9218   22.8410   32.2880 N   0  0  0  0  0  0  0  0  0  0  0  0
   12.8917   18.1598   35.8870 O   0  0  0  0  0  0  0  0  0  0  0  0
   12.2954   19.2230   36.6563 C   0  0  1  0  0  0  0  0  0  0  0  0
    6.7935   22.9981   32.6894 N   0  0  0  0  0  0  0  0  0  0  0  0
   11.3067   19.9564   35.9135 O   0  0  0  0  0  0  0  0  0  0  0  0
   11.8492   20.8197   34.8999 C   0  0  2  0  0  0  0  0  0  0  0  0
   10.1286   17.4187   32.8126 N   0  0  0  0  0  0  0  0  0  0  0  0
   13.6298   21.6072   36.3363 O   0  0  0  0  0  0  0  0  0  0  0  0
   12.5012   22.0354   35.5702 C   0  0  1  0  0  0  0  0  0  0  0  0
   10.2737   20.1713   33.1220 O   0  0  0  0  0  0  0  0  0  0  0  0
   12.9678   23.0554   34.5289 C   0  0  1  0  0  0  0  0  0  0  0  0
    7.9519   20.3631   33.5032 O   0  0  0  0  0  0  0  0  0  0  0  0
   11.7747   23.5561   33.7119 C   0  0  0  0  0  0  0  0  0  0  0  0
    7.0115   19.8440   29.9798 O   0  0  0  0  0  0  0  0  0  0  0  0
   11.1265   22.3724   32.9912 C   0  0  1  0  0  0  0  0  0  0  0  0
    8.2519   17.3415   30.6524 O   0  0  0  0  0  0  0  0  0  0  0  0
   10.7287   21.2492   33.9550 C   0  0  2  0  0  0  0  0  0  0  0  0
   11.4305   19.3620   38.9687 O   0  0  0  0  0  0  0  0  0  0  0  0
    9.1032   19.5062   33.6188 C   0  0  1  0  0  0  0  0  0  0  0  0
   13.8115   17.9346   38.7624 O   0  0  0  0  0  0  0  0  0  0  0  0
    7.6229   20.7406   32.1551 C   0  0  2  0  0  0  0  0  0  0  0  0
    6.4078   21.6709   32.1883 C   0  0  0  0  0  0  0  0  0  0  0  0
    7.3097   19.4857   31.3326 C   0  0  2  0  0  0  0  0  0  0  0  0
    8.5257   18.5570   31.3568 C   0  0  1  0  0  0  0  0  0  0  0  0
    8.9003   18.2254   32.8030 C   0  0  1  0  0  0  0  0  0  0  0  0
   11.6330   18.5107   37.8367 C   0  0  2  0  0  0  0  0  0  0  0  0
   12.6496   17.4058   38.1179 C   0  0  1  0  0  0  0  0  0  0  0  0
  3  1  1  0  0  0  0
  4  1  1  6  0  0  0
  4  6  1  0  0  0  0
  4 31  1  0  0  0  0
  6  7  1  0  0  0  0
  7  9  1  6  0  0  0
  7 30  1  0  0  0  0
 10  9  1  1  0  0  0
 10 13  1  0  0  0  0
 10 21  1  0  0  0  0
 13 12  1  6  0  0  0
 13 15  1  0  0  0  0
 15  2  1  1  0  0  0
 15 17  1  0  0  0  0
 16 25  1  0  0  0  0
 17 19  1  0  0  0  0
 19  5  1  1  0  0  0
 19 21  1  0  0  0  0
 21 14  1  6  0  0  0
 23 14  1  6  0  0  0
 23 16  1  0  0  0  0
 23 29  1  0  0  0  0
 25 26  1  1  0  0  0
 25 27  1  0  0  0  0
 26  8  1  0  0  0  0
 27 18  1  6  0  0  0
 27 28  1  0  0  0  0
 28 20  1  6  0  0  0
 28 29  1  0  0  0  0
 29 11  1  6  0  0  0
 30 22  1  1  0  0  0
 30 31  1  0  0  0  0
 31 24  1  6  0  0  0
M  END
>  <CHROM.1>
62.27496857,-72.87783833,-73.21520053,96.77465719,70.35070927,73.37000699
10.64022642,19.86443381,34.39058502,0.37105535,0.79822048,2.95802855

>  <Name>
2fcz_lig

>  <RI>
0

>  <Rbt.Current_Directory>
/home/itssahil/PROJECTS/Mol_Feturizer/New_Systems/rnas/2fcz

>  <Rbt.Executable>
rbdock ($Id: //depot/dev/client3/rdock/2013.1/src/exe/rbdock.cxx#4 $)

>  <Rbt.Library>
libRbt.so (2013.1, Build901 2013/11/27)

>  <Rbt.Parameter_File>
/export/apps/rDock/src/rDock_2013.1_src/data/scripts/dock_solv.prm

>  <Rbt.Receptor>
prm/pocket_docking_5.prm

>  <SCORE>
-21.081

>  <SCORE.INTER>
-20.4783

>  <SCORE.INTER.CONST>
1

>  <SCORE.INTER.POLAR>
-2.32933

>  <SCORE.INTER.ROT>
6

>  <SCORE.INTER.SOLV>
16.037

>  <SCORE.INTER.VDW>
-18.8334

>  <SCORE.INTER.norm>
-0.660591

>  <SCORE.INTRA>
-0.602635

>  <SCORE.INTRA.DIHEDRAL>
-3.17266

>  <SCORE.INTRA.DIHEDRAL.0>
10.8409

>  <SCORE.INTRA.POLAR>
0

>  <SCORE.INTRA.POLAR.0>
0

>  <SCORE.INTRA.REPUL>
0

>  <SCORE.INTRA.REPUL.0>
0

>  <SCORE.INTRA.SOLV>
0.417882

>  <SCORE.INTRA.SOLV.lig_0>
-80.8302

>  <SCORE.INTRA.VDW>
0.774752

>  <SCORE.INTRA.VDW.0>
-4.23953

>  <SCORE.INTRA.norm>
-0.0194398

>  <SCORE.RESTR>
0

>  <SCORE.RESTR.CAVITY>
0

>  <SCORE.RESTR.norm>
0

>  <SCORE.SYSTEM>
0

>  <SCORE.SYSTEM.CONST>
0

>  <SCORE.SYSTEM.DIHEDRAL>
0

>  <SCORE.SYSTEM.SOLV>
0

>  <SCORE.SYSTEM.norm>
0

>  <SCORE.heavy>
31

>  <SCORE.norm>
-0.680031

>  <RMSD>
1.861

$$$$
2fcz_lig
 OpenBabel11021811433D
libRbt.so/2013.1/901 2013/11/27
 31 33  0  0  0  0  0  0  0  0999 V2000
    7.2559   18.0005   39.1182 C   0  0  0  0  0  0  0  0  0  0  0  0
   13.7562   21.9657   37.0223 N   0  0  0  0  0  0  0  0  0  0  0  0
    8.3060   18.9265   39.4104 O   0  0  0  0  0  0  0  0  0  0  0  0
    7.3266   17.5905   37.6433 C   0  0  1  0  0  0  0  0  0  0  0  0
   11.6104   22.3542   32.6415 N   0  0  0  0  0  0  0  0  0  0  0  0
    7.4173   18.7381   36.7747 O   0  0  0  0  0  0  0  0  0  0  0  0
    8.7444   18.8187   36.2179 C   0  0  1  0  0  0  0  0  0  0  0  0
    6.7016   23.6906   31.2053 N   0  0  0  0  0  0  0  0  0  0  0  0
    9.2836   20.1507   36.2629 O   0  0  0  0  0  0  0  0  0  0  0  0
   10.5951   20.2770   35.6874 C   0  0  2  0  0  0  0  0  0  0  0  0
    9.0299   17.7278   32.5548 N   0  0  0  0  0  0  0  0  0  0  0  0
   11.6923   20.2090   37.8427 O   0  0  0  0  0  0  0  0  0  0  0  0
   11.5094   21.0129   36.6746 C   0  0  1  0  0  0  0  0  0  0  0  0
    9.8612   20.2558   33.3369 O   0  0  0  0  0  0  0  0  0  0  0  0
   12.8776   21.2991   36.0513 C   0  0  1  0  0  0  0  0  0  0  0  0
    7.6451   21.0249   33.6013 O   0  0  0  0  0  0  0  0  0  0  0  0
   12.7168   22.1850   34.8140 C   0  0  0  0  0  0  0  0  0  0  0  0
    6.9791   21.3109   29.9899 O   0  0  0  0  0  0  0  0  0  0  0  0
   11.8453   21.4601   33.7864 C   0  0  1  0  0  0  0  0  0  0  0  0
    7.4383   18.4921   30.3015 O   0  0  0  0  0  0  0  0  0  0  0  0
   10.4915   21.0352   34.3655 C   0  0  2  0  0  0  0  0  0  0  0  0
   10.7696   17.4198   36.4559 O   0  0  0  0  0  0  0  0  0  0  0  0
    8.5111   19.8754   33.6400 C   0  0  1  0  0  0  0  0  0  0  0  0
    8.4248   15.9390   36.2137 O   0  0  0  0  0  0  0  0  0  0  0  0
    7.5715   21.6729   32.3196 C   0  0  2  0  0  0  0  0  0  0  0  0
    6.6479   22.8880   32.4358 C   0  0  0  0  0  0  0  0  0  0  0  0
    7.0277   20.6890   31.2776 C   0  0  2  0  0  0  0  0  0  0  0  0
    7.9465   19.4668   31.2181 C   0  0  1  0  0  0  0  0  0  0  0  0
    8.0655   18.8354   32.6071 C   0  0  1  0  0  0  0  0  0  0  0  0
    9.5819   17.8911   37.0998 C   0  0  2  0  0  0  0  0  0  0  0  0
    8.5843   16.7661   37.3693 C   0  0  1  0  0  0  0  0  0  0  0  0
  3  1  1  0  0  0  0
  4  1  1  1  0  0  0
  4  6  1  0  0  0  0
  4 31  1  0  0  0  0
  6  7  1  0  0  0  0
  7  9  1  1  0  0  0
  7 30  1  0  0  0  0
 10  9  1  1  0  0  0
 10 13  1  0  0  0  0
 10 21  1  0  0  0  0
 13 12  1  1  0  0  0
 13 15  1  0  0  0  0
 15  2  1  1  0  0  0
 15 17  1  0  0  0  0
 16 25  1  0  0  0  0
 17 19  1  0  0  0  0
 19  5  1  6  0  0  0
 19 21  1  0  0  0  0
 21 14  1  6  0  0  0
 23 14  1  6  0  0  0
 23 16  1  0  0  0  0
 23 29  1  0  0  0  0
 25 26  1  1  0  0  0
 25 27  1  0  0  0  0
 26  8  1  0  0  0  0
 27 18  1  6  0  0  0
 27 28  1  0  0  0  0
 28 20  1  6  0  0  0
 28 29  1  0  0  0  0
 29 11  1  6  0  0  0
 30 22  1  6  0  0  0
 30 31  1  0  0  0  0
 31 24  1  6  0  0  0
M  END
>  <CHROM.1>
-49.99302807,-178.62006361,-129.98655564,61.39989335,70.11675422,171.63022943
9.20907366,19.90887208,34.72180371,1.20630333,0.59463696,2.14823680

>  <Name>
2fcz_lig

>  <RI>
0

>  <Rbt.Current_Directory>
/home/itssahil/PROJECTS/Mol_Feturizer/New_Systems/rnas/2fcz

>  <Rbt.Executable>
rbdock ($Id: //depot/dev/client3/rdock/2013.1/src/exe/rbdock.cxx#4 $)

>  <Rbt.Library>
libRbt.so (2013.1, Build901 2013/11/27)

>  <Rbt.Parameter_File>
/export/apps/rDock/src/rDock_2013.1_src/data/scripts/dock_solv.prm

>  <Rbt.Receptor>
prm/pocket_docking_5.prm

>  <SCORE>
-22.4557

>  <SCORE.INTER>
-22.9596

>  <SCORE.INTER.CONST>
1

>  <SCORE.INTER.POLAR>
-2.68524

>  <SCORE.INTER.ROT>
6

>  <SCORE.INTER.SOLV>
15.6643

>  <SCORE.INTER.VDW>
-19.177

>  <SCORE.INTER.norm>
-0.740632

>  <SCORE.INTRA>
0.503943

>  <SCORE.INTRA.DIHEDRAL>
-2.86045

>  <SCORE.INTRA.DIHEDRAL.0>
10.8409

>  <SCORE.INTRA.POLAR>
0

>  <SCORE.INTRA.POLAR.0>
0

>  <SCORE.INTRA.REPUL>
0

>  <SCORE.INTRA.REPUL.0>
0

>  <SCORE.INTRA.SOLV>
-1.09344

>  <SCORE.INTRA.SOLV.lig_0>
-80.8302

>  <SCORE.INTRA.VDW>
2.48089

>  <SCORE.INTRA.VDW.0>
-4.23953

>  <SCORE.INTRA.norm>
0.0162562

>  <SCORE.RESTR>
0

>  <SCORE.RESTR.CAVITY>
0

>  <SCORE.RESTR.norm>
0

>  <SCORE.SYSTEM>
0

>  <SCORE.SYSTEM.CONST>
0

>  <SCORE.SYSTEM.DIHEDRAL>
0

>  <SCORE.SYSTEM.SOLV>
0

>  <SCORE.SYSTEM.norm>
0

>  <SCORE.heavy>
31

>  <SCORE.norm>
-0.724376

>  <RMSD>
1.863

$$$$
2fcz_lig
 OpenBabel11021811433D
libRbt.so/2013.1/901 2013/11/27
 31 33  0  0  0  0  0  0  0  0999 V2000
    6.7521   18.5828   39.1039 C   0  0  0  0  0  0  0  0  0  0  0  0
   13.9022   21.8106   37.1041 N   0  0  0  0  0  0  0  0  0  0  0  0
    6.1787   19.8476   38.7620 O   0  0  0  0  0  0  0  0  0  0  0  0
    7.1586   17.8396   37.8268 C   0  0  1  0  0  0  0  0  0  0  0  0
   11.8597   22.0362   32.6629 N   0  0  0  0  0  0  0  0  0  0  0  0
    7.4506   18.7521   36.7490 O   0  0  0  0  0  0  0  0  0  0  0  0
    8.8704   18.7682   36.5010 C   0  0  1  0  0  0  0  0  0  0  0  0
    6.7659   23.2951   31.1683 N   0  0  0  0  0  0  0  0  0  0  0  0
    9.3895   20.0994   36.3412 O   0  0  0  0  0  0  0  0  0  0  0  0
   10.7157   20.1542   35.7890 C   0  0  2  0  0  0  0  0  0  0  0  0
    9.2406   17.4577   32.7646 N   0  0  0  0  0  0  0  0  0  0  0  0
   11.7661   20.1648   37.9685 O   0  0  0  0  0  0  0  0  0  0  0  0
   11.6332   20.9118   36.7567 C   0  0  1  0  0  0  0  0  0  0  0  0
   10.0295   20.0329   33.4272 O   0  0  0  0  0  0  0  0  0  0  0  0
   13.0224   21.1220   36.1497 C   0  0  1  0  0  0  0  0  0  0  0  0
    7.8013   20.7708   33.6787 O   0  0  0  0  0  0  0  0  0  0  0  0
   12.9156   21.9464   34.8650 C   0  0  0  0  0  0  0  0  0  0  0  0
    7.0986   20.8849   30.0648 O   0  0  0  0  0  0  0  0  0  0  0  0
   12.0422   21.1963   33.8574 C   0  0  1  0  0  0  0  0  0  0  0  0
    7.6150   18.0918   30.4952 O   0  0  0  0  0  0  0  0  0  0  0  0
   10.6637   20.8450   34.4277 C   0  0  2  0  0  0  0  0  0  0  0  0
   10.7818   17.5738   37.5184 O   0  0  0  0  0  0  0  0  0  0  0  0
    8.6898   19.6407   33.7596 C   0  0  1  0  0  0  0  0  0  0  0  0
    8.5506   15.9567   37.1237 O   0  0  0  0  0  0  0  0  0  0  0  0
    7.7041   21.3602   32.3706 C   0  0  2  0  0  0  0  0  0  0  0  0
    6.7581   22.5615   32.4423 C   0  0  0  0  0  0  0  0  0  0  0  0
    7.1704   20.3213   31.3780 C   0  0  2  0  0  0  0  0  0  0  0  0
    8.1121   19.1153   31.3634 C   0  0  1  0  0  0  0  0  0  0  0  0
    8.2554   18.5480   32.7775 C   0  0  1  0  0  0  0  0  0  0  0  0
    9.4795   18.1211   37.7459 C   0  0  2  0  0  0  0  0  0  0  0  0
    8.4429   17.0410   38.0497 C   0  0  1  0  0  0  0  0  0  0  0  0
  3  1  1  0  0  0  0
  4  1  1  1  0  0  0
  4  6  1  0  0  0  0
  4 31  1  0  0  0  0
  6  7  1  0  0  0  0
  7  9  1  1  0  0  0
  7 30  1  0  0  0  0
 10  9  1  1  0  0  0
 10 13  1  0  0  0  0
 10 21  1  0  0  0  0
 13 12  1  1  0  0  0
 13 15  1  0  0  0  0
 15  2  1  1  0  0  0
 15 17  1  0  0  0  0
 16 25  1  0  0  0  0
 17 19  1  0  0  0  0
 19  5  1  6  0  0  0
 19 21  1  0  0  0  0
 21 14  1  6  0  0  0
 23 14  1  6  0  0  0
 23 16  1  0  0  0  0
 23 29  1  0  0  0  0
 25 26  1  1  0  0  0
 25 27  1  0  0  0  0
 26  8  1  0  0  0  0
 27 18  1  6  0  0  0
 27 28  1  0  0  0  0
 28 20  1  6  0  0  0
 28 29  1  0  0  0  0
 29 11  1  6  0  0  0
 30 22  1  6  0  0  0
 30 31  1  0  0  0  0
 31 24  1  6  0  0  0
M  END
>  <CHROM.1>
26.76934154,-166.16462391,-122.94288406,57.65164748,71.37917969,172.72439143
9.22009614,19.81217775,34.88503145,1.27212446,0.46291668,1.99841920

>  <Name>
2fcz_lig

>  <RI>
0

>  <Rbt.Current_Directory>
/home/itssahil/PROJECTS/Mol_Feturizer/New_Systems/rnas/2fcz

>  <Rbt.Executable>
rbdock ($Id: //depot/dev/client3/rdock/2013.1/src/exe/rbdock.cxx#4 $)

>  <Rbt.Library>
libRbt.so (2013.1, Build901 2013/11/27)

>  <Rbt.Parameter_File>
/export/apps/rDock/src/rDock_2013.1_src/data/scripts/dock_solv.prm

>  <Rbt.Receptor>
prm/pocket_docking_5.prm

>  <SCORE>
-24.1971

>  <SCORE.INTER>
-26.2749

>  <SCORE.INTER.CONST>
1

>  <SCORE.INTER.POLAR>
-3.12194

>  <SCORE.INTER.ROT>
6

>  <SCORE.INTER.SOLV>
16.5198

>  <SCORE.INTER.VDW>
-20.2167

>  <SCORE.INTER.norm>
-0.847577

>  <SCORE.INTRA>
2.07779

>  <SCORE.INTRA.DIHEDRAL>
1.23107

>  <SCORE.INTRA.DIHEDRAL.0>
10.8409

>  <SCORE.INTRA.POLAR>
0

>  <SCORE.INTRA.POLAR.0>
0

>  <SCORE.INTRA.REPUL>
0.00879612

>  <SCORE.INTRA.REPUL.0>
0

>  <SCORE.INTRA.SOLV>
-1.79951

>  <SCORE.INTRA.SOLV.lig_0>
-80.8302

>  <SCORE.INTRA.VDW>
2.31802

>  <SCORE.INTRA.VDW.0>
-4.23953

>  <SCORE.INTRA.norm>
0.0670254

>  <SCORE.RESTR>
0

>  <SCORE.RESTR.CAVITY>
0

>  <SCORE.RESTR.norm>
0

>  <SCORE.SYSTEM>
0

>  <SCORE.SYSTEM.CONST>
0

>  <SCORE.SYSTEM.DIHEDRAL>
0

>  <SCORE.SYSTEM.SOLV>
0

>  <SCORE.SYSTEM.norm>
0

>  <SCORE.heavy>
31

>  <SCORE.norm>
-0.780552

>  <RMSD>
1.863

$$$$
2fcz_lig
 OpenBabel11021811433D
libRbt.so/2013.1/901 2013/11/27
 31 33  0  0  0  0  0  0  0  0999 V2000
    7.4185   17.9421   39.1993 C   0  0  0  0  0  0  0  0  0  0  0  0
   13.8267   21.9630   37.0303 N   0  0  0  0  0  0  0  0  0  0  0  0
    8.4342   18.9157   39.4562 O   0  0  0  0  0  0  0  0  0  0  0  0
    7.4145   17.5831   37.7095 C   0  0  1  0  0  0  0  0  0  0  0  0
   11.6266   22.3653   32.6777 N   0  0  0  0  0  0  0  0  0  0  0  0
    7.4789   18.7592   36.8774 O   0  0  0  0  0  0  0  0  0  0  0  0
    8.7793   18.8443   36.2614 C   0  0  1  0  0  0  0  0  0  0  0  0
    6.8180   23.7726   31.2004 N   0  0  0  0  0  0  0  0  0  0  0  0
    9.3370   20.1679   36.3264 O   0  0  0  0  0  0  0  0  0  0  0  0
   10.6414   20.2892   35.7343 C   0  0  2  0  0  0  0  0  0  0  0  0
    8.9689   17.7669   32.6291 N   0  0  0  0  0  0  0  0  0  0  0  0
   11.7659   20.2143   37.8753 O   0  0  0  0  0  0  0  0  0  0  0  0
   11.5715   21.0202   36.7105 C   0  0  1  0  0  0  0  0  0  0  0  0
    9.8775   20.2736   33.3934 O   0  0  0  0  0  0  0  0  0  0  0  0
   12.9328   21.3012   36.0700 C   0  0  1  0  0  0  0  0  0  0  0  0
    7.6860   21.1166   33.6378 O   0  0  0  0  0  0  0  0  0  0  0  0
   12.7599   22.1891   34.8357 C   0  0  0  0  0  0  0  0  0  0  0  0
    7.0500   21.3909   30.0201 O   0  0  0  0  0  0  0  0  0  0  0  0
   11.8723   21.4690   33.8186 C   0  0  1  0  0  0  0  0  0  0  0  0
    7.4156   18.5617   30.3597 O   0  0  0  0  0  0  0  0  0  0  0  0
   10.5242   21.0493   34.4146 C   0  0  2  0  0  0  0  0  0  0  0  0
   10.7955   17.4157   36.3551 O   0  0  0  0  0  0  0  0  0  0  0  0
    8.5141   19.9400   33.6919 C   0  0  1  0  0  0  0  0  0  0  0  0
    8.4233   15.9703   36.1736 O   0  0  0  0  0  0  0  0  0  0  0  0
    7.6407   21.7548   32.3499 C   0  0  2  0  0  0  0  0  0  0  0  0
    6.7564   23.0002   32.4498 C   0  0  0  0  0  0  0  0  0  0  0  0
    7.0711   20.7796   31.3136 C   0  0  2  0  0  0  0  0  0  0  0  0
    7.9501   19.5278   31.2705 C   0  0  1  0  0  0  0  0  0  0  0  0
    8.0407   18.9056   32.6657 C   0  0  1  0  0  0  0  0  0  0  0  0
    9.6454   17.8774   37.0703 C   0  0  2  0  0  0  0  0  0  0  0  0
    8.6474   16.7548   37.3480 C   0  0  1  0  0  0  0  0  0  0  0  0
  3  1  1  0  0  0  0
  4  1  1  1  0  0  0
  4  6  1  0  0  0  0
  4 31  1  0  0  0  0
  6  7  1  0  0  0  0
  7  9  1  1  0  0  0
  7 30  1  0  0  0  0
 10  9  1  1  0  0  0
 10 13  1  0  0  0  0
 10 21  1  0  0  0  0
 13 12  1  1  0  0  0
 13 15  1  0  0  0  0
 15  2  1  1  0  0  0
 15 17  1  0  0  0  0
 16 25  1  0  0  0  0
 17 19  1  0  0  0  0
 19  5  1  6  0  0  0
 19 21  1  0  0  0  0
 21 14  1  6  0  0  0
 23 14  1  6  0  0  0
 23 16  1  0  0  0  0
 23 29  1  0  0  0  0
 25 26  1  1  0  0  0
 25 27  1  0  0  0  0
 26  8  1  0  0  0  0
 27 18  1  6  0  0  0
 27 28  1  0  0  0  0
 28 20  1  6  0  0  0
 28 29  1  0  0  0  0
 29 11  1  6  0  0  0
 30 22  1  6  0  0  0
 30 31  1  0  0  0  0
 31 24  1  6  0  0  0
M  END
>  <CHROM.1>
-46.04507696,179.36281159,-131.25438235,63.54545757,69.71936203,172.98216003
9.25659015,19.93842645,34.75341458,1.20719602,0.59801778,2.16389066

>  <Name>
2fcz_lig

>  <RI>
2.29611e+07

>  <Rbt.Current_Directory>
/home/itssahil/PROJECTS/Mol_Feturizer/New_Systems/rnas/2fcz

>  <Rbt.Executable>
rbdock ($Id: //depot/dev/client3/rdock/2013.1/src/exe/rbdock.cxx#4 $)

>  <Rbt.Library>
libRbt.so (2013.1, Build901 2013/11/27)

>  <Rbt.Parameter_File>
/export/apps/rDock/src/rDock_2013.1_src/data/scripts/dock_solv.prm

>  <Rbt.Receptor>
prm/pocket_docking_3.prm

>  <SCORE>
-22.311

>  <SCORE.INTER>
-22.8335

>  <SCORE.INTER.CONST>
1

>  <SCORE.INTER.POLAR>
-2.79178

>  <SCORE.INTER.ROT>
6

>  <SCORE.INTER.SOLV>
15.6568

>  <SCORE.INTER.VDW>
-18.7353

>  <SCORE.INTER.norm>
-0.736564

>  <SCORE.INTRA>
0.522475

>  <SCORE.INTRA.DIHEDRAL>
-2.73236

>  <SCORE.INTRA.DIHEDRAL.0>
10.8409

>  <SCORE.INTRA.POLAR>
0

>  <SCORE.INTRA.POLAR.0>
0

>  <SCORE.INTRA.REPUL>
0

>  <SCORE.INTRA.REPUL.0>
0

>  <SCORE.INTRA.SOLV>
-0.7962

>  <SCORE.INTRA.SOLV.lig_0>
-80.8302

>  <SCORE.INTRA.VDW>
2.28676

>  <SCORE.INTRA.VDW.0>
-4.23953

>  <SCORE.INTRA.norm>
0.016854

>  <SCORE.RESTR>
0

>  <SCORE.RESTR.CAVITY>
0

>  <SCORE.RESTR.norm>
0

>  <SCORE.SYSTEM>
0

>  <SCORE.SYSTEM.CONST>
0

>  <SCORE.SYSTEM.DIHEDRAL>
0

>  <SCORE.SYSTEM.SOLV>
0

>  <SCORE.SYSTEM.norm>
0

>  <SCORE.heavy>
31

>  <SCORE.norm>
-0.71971

>  <RMSD>
1.872

$$$$
2fcz_lig
 OpenBabel11021811433D
libRbt.so/2013.1/901 2013/11/27
 31 33  0  0  0  0  0  0  0  0999 V2000
    7.3650   18.5615   39.4974 C   0  0  0  0  0  0  0  0  0  0  0  0
   13.8087   21.8939   37.0226 N   0  0  0  0  0  0  0  0  0  0  0  0
    7.4021   17.5920   40.5482 O   0  0  0  0  0  0  0  0  0  0  0  0
    7.4765   17.8558   38.1417 C   0  0  1  0  0  0  0  0  0  0  0  0
   11.7188   22.2469   32.6118 N   0  0  0  0  0  0  0  0  0  0  0  0
    7.5109   18.7986   37.0510 O   0  0  0  0  0  0  0  0  0  0  0  0
    8.8376   18.8385   36.4888 C   0  0  1  0  0  0  0  0  0  0  0  0
    7.1762   23.7301   32.7021 N   0  0  0  0  0  0  0  0  0  0  0  0
    9.2983   20.1797   36.2521 O   0  0  0  0  0  0  0  0  0  0  0  0
   10.6185   20.2601   35.6884 C   0  0  2  0  0  0  0  0  0  0  0  0
    9.2159   17.5645   32.8627 N   0  0  0  0  0  0  0  0  0  0  0  0
   11.6913   20.2085   37.8564 O   0  0  0  0  0  0  0  0  0  0  0  0
   11.5415   20.9925   36.6702 C   0  0  1  0  0  0  0  0  0  0  0  0
    9.9085   20.2091   33.3311 O   0  0  0  0  0  0  0  0  0  0  0  0
   12.9230   21.2303   36.0560 C   0  0  1  0  0  0  0  0  0  0  0  0
    7.6530   20.8921   33.4691 O   0  0  0  0  0  0  0  0  0  0  0  0
   12.7980   22.0942   34.7991 C   0  0  0  0  0  0  0  0  0  0  0  0
    7.0415   20.6905   29.8424 O   0  0  0  0  0  0  0  0  0  0  0  0
   11.9186   21.3709   33.7773 C   0  0  1  0  0  0  0  0  0  0  0  0
    7.6314   17.9597   30.5116 O   0  0  0  0  0  0  0  0  0  0  0  0
   10.5483   20.9932   34.3502 C   0  0  2  0  0  0  0  0  0  0  0  0
   10.9373   17.6428   37.0144 O   0  0  0  0  0  0  0  0  0  0  0  0
    8.5731   19.8018   33.6628 C   0  0  1  0  0  0  0  0  0  0  0  0
    8.6851   16.0085   37.0907 O   0  0  0  0  0  0  0  0  0  0  0  0
    7.5719   21.3703   32.1153 C   0  0  2  0  0  0  0  0  0  0  0  0
    6.5883   22.5421   32.0663 C   0  0  0  0  0  0  0  0  0  0  0  0
    7.0962   20.2377   31.1986 C   0  0  2  0  0  0  0  0  0  0  0  0
    8.0744   19.0657   31.3047 C   0  0  1  0  0  0  0  0  0  0  0  0
    8.1980   18.6197   32.7634 C   0  0  1  0  0  0  0  0  0  0  0  0
    9.7169   18.1680   37.5455 C   0  0  2  0  0  0  0  0  0  0  0  0
    8.7830   17.0678   38.0463 C   0  0  1  0  0  0  0  0  0  0  0  0
  3  1  1  0  0  0  0
  4  1  1  1  0  0  0
  4  6  1  0  0  0  0
  4 31  1  0  0  0  0
  6  7  1  0  0  0  0
  7  9  1  1  0  0  0
  7 30  1  0  0  0  0
 10  9  1  1  0  0  0
 10 13  1  0  0  0  0
 10 21  1  0  0  0  0
 13 12  1  1  0  0  0
 13 15  1  0  0  0  0
 15  2  1  1  0  0  0
 15 17  1  0  0  0  0
 16 25  1  0  0  0  0
 17 19  1  0  0  0  0
 19  5  1  6  0  0  0
 19 21  1  0  0  0  0
 21 14  1  6  0  0  0
 23 14  1  6  0  0  0
 23 16  1  0  0  0  0
 23 29  1  0  0  0  0
 25 26  1  1  0  0  0
 25 27  1  0  0  0  0
 26  8  1  0  0  0  0
 27 18  1  6  0  0  0
 27 28  1  0  0  0  0
 28 20  1  6  0  0  0
 28 29  1  0  0  0  0
 29 11  1  6  0  0  0
 30 22  1  6  0  0  0
 30 31  1  0  0  0  0
 31 24  1  6  0  0  0
M  END
>  <CHROM.1>
-177.11392079,-179.87808111,-117.53080265,57.83100717,78.23943465,72.12738675
9.27271246,19.79598582,34.93375013,1.34136750,0.56643725,2.03375763

>  <Name>
2fcz_lig

>  <RI>
2.26996e+07

>  <Rbt.Current_Directory>
/home/itssahil/PROJECTS/Mol_Feturizer/New_Systems/rnas/2fcz

>  <Rbt.Executable>
rbdock ($Id: //depot/dev/client3/rdock/2013.1/src/exe/rbdock.cxx#4 $)

>  <Rbt.Library>
libRbt.so (2013.1, Build901 2013/11/27)

>  <Rbt.Parameter_File>
/export/apps/rDock/src/rDock_2013.1_src/data/scripts/dock_solv.prm

>  <Rbt.Receptor>
prm/pocket_docking_4.prm

>  <SCORE>
-20.3033

>  <SCORE.INTER>
-20.3657

>  <SCORE.INTER.CONST>
1

>  <SCORE.INTER.POLAR>
-2.21992

>  <SCORE.INTER.ROT>
6

>  <SCORE.INTER.SOLV>
18.9207

>  <SCORE.INTER.VDW>
-20.0843

>  <SCORE.INTER.norm>
-0.656959

>  <SCORE.INTRA>
0.062457

>  <SCORE.INTRA.DIHEDRAL>
-1.4434

>  <SCORE.INTRA.DIHEDRAL.0>
10.8409

>  <SCORE.INTRA.POLAR>
0

>  <SCORE.INTRA.POLAR.0>
0

>  <SCORE.INTRA.REPUL>
0

>  <SCORE.INTRA.REPUL.0>
0

>  <SCORE.INTRA.SOLV>
-2.95388

>  <SCORE.INTRA.SOLV.lig_0>
-80.8302

>  <SCORE.INTRA.VDW>
2.2611

>  <SCORE.INTRA.VDW.0>
-4.23953

>  <SCORE.INTRA.norm>
0.00201474

>  <SCORE.RESTR>
0

>  <SCORE.RESTR.CAVITY>
0

>  <SCORE.RESTR.norm>
0

>  <SCORE.SYSTEM>
0

>  <SCORE.SYSTEM.CONST>
0

>  <SCORE.SYSTEM.DIHEDRAL>
0

>  <SCORE.SYSTEM.SOLV>
0

>  <SCORE.SYSTEM.norm>
0

>  <SCORE.heavy>
31

>  <SCORE.norm>
-0.654945

>  <RMSD>
1.873

$$$$
2fcz_lig
 OpenBabel11021811433D
libRbt.so/2013.1/901 2013/11/27
 31 33  0  0  0  0  0  0  0  0999 V2000
    7.4170   17.9608   39.2399 C   0  0  0  0  0  0  0  0  0  0  0  0
   13.7382   21.9688   37.0299 N   0  0  0  0  0  0  0  0  0  0  0  0
    8.4456   18.9274   39.4704 O   0  0  0  0  0  0  0  0  0  0  0  0
    7.4031   17.5668   37.7590 C   0  0  1  0  0  0  0  0  0  0  0  0
   11.5723   22.3502   32.6583 N   0  0  0  0  0  0  0  0  0  0  0  0
    7.4365   18.7240   36.8991 O   0  0  0  0  0  0  0  0  0  0  0  0
    8.7282   18.8184   36.2663 C   0  0  1  0  0  0  0  0  0  0  0  0
    6.5562   23.5799   31.2633 N   0  0  0  0  0  0  0  0  0  0  0  0
    9.2619   20.1531   36.2940 O   0  0  0  0  0  0  0  0  0  0  0  0
   10.5707   20.2782   35.7123 C   0  0  2  0  0  0  0  0  0  0  0  0
    9.0683   17.6881   32.6305 N   0  0  0  0  0  0  0  0  0  0  0  0
   11.6778   20.2138   37.8627 O   0  0  0  0  0  0  0  0  0  0  0  0
   11.4897   21.0158   36.6941 C   0  0  1  0  0  0  0  0  0  0  0  0
    9.8261   20.2531   33.3653 O   0  0  0  0  0  0  0  0  0  0  0  0
   12.8550   21.3007   36.0641 C   0  0  1  0  0  0  0  0  0  0  0  0
    7.5898   20.9506   33.6572 O   0  0  0  0  0  0  0  0  0  0  0  0
   12.6886   22.1845   34.8260 C   0  0  0  0  0  0  0  0  0  0  0  0
    6.8549   21.1646   30.0542 O   0  0  0  0  0  0  0  0  0  0  0  0
   11.8124   21.4580   33.8036 C   0  0  1  0  0  0  0  0  0  0  0  0
    7.4147   18.3675   30.3948 O   0  0  0  0  0  0  0  0  0  0  0  0
   10.4612   21.0342   34.3896 C   0  0  2  0  0  0  0  0  0  0  0  0
   10.7714   17.4293   36.3699 O   0  0  0  0  0  0  0  0  0  0  0  0
    8.4949   19.8316   33.6963 C   0  0  1  0  0  0  0  0  0  0  0  0
    8.4244   15.9371   36.2496 O   0  0  0  0  0  0  0  0  0  0  0  0
    7.4731   21.5782   32.3686 C   0  0  2  0  0  0  0  0  0  0  0  0
    6.5108   22.7628   32.4846 C   0  0  0  0  0  0  0  0  0  0  0  0
    6.9459   20.5624   31.3490 C   0  0  2  0  0  0  0  0  0  0  0  0
    7.9045   19.3712   31.2898 C   0  0  1  0  0  0  0  0  0  0  0  0
    8.0679   18.7632   32.6847 C   0  0  1  0  0  0  0  0  0  0  0  0
    9.6210   17.8867   37.0875 C   0  0  2  0  0  0  0  0  0  0  0  0
    8.6471   16.7529   37.4028 C   0  0  1  0  0  0  0  0  0  0  0  0
  3  1  1  0  0  0  0
  4  1  1  1  0  0  0
  4  6  1  0  0  0  0
  4 31  1  0  0  0  0
  6  7  1  0  0  0  0
  7  9  1  1  0  0  0
  7 30  1  0  0  0  0
 10  9  1  1  0  0  0
 10 13  1  0  0  0  0
 10 21  1  0  0  0  0
 13 12  1  1  0  0  0
 13 15  1  0  0  0  0
 15  2  1  1  0  0  0
 15 17  1  0  0  0  0
 16 25  1  0  0  0  0
 17 19  1  0  0  0  0
 19  5  1  6  0  0  0
 19 21  1  0  0  0  0
 21 14  1  6  0  0  0
 23 14  1  6  0  0  0
 23 16  1  0  0  0  0
 23 29  1  0  0  0  0
 25 26  1  1  0  0  0
 25 27  1  0  0  0  0
 26  8  1  0  0  0  0
 27 18  1  6  0  0  0
 27 28  1  0  0  0  0
 28 20  1  6  0  0  0
 28 29  1  0  0  0  0
 29 11  1  6  0  0  0
 30 22  1  6  0  0  0
 30 31  1  0  0  0  0
 31 24  1  6  0  0  0
M  END
>  <CHROM.1>
-47.86328089,177.97600591,-129.37168059,59.21545089,71.86130677,169.40735838
9.19358637,19.87224937,34.76620295,1.17108952,0.60007826,2.15059038

>  <Name>
2fcz_lig

>  <RI>
2.29611e+07

>  <Rbt.Current_Directory>
/home/itssahil/PROJECTS/Mol_Feturizer/New_Systems/rnas/2fcz

>  <Rbt.Executable>
rbdock ($Id: //depot/dev/client3/rdock/2013.1/src/exe/rbdock.cxx#4 $)

>  <Rbt.Library>
libRbt.so (2013.1, Build901 2013/11/27)

>  <Rbt.Parameter_File>
/export/apps/rDock/src/rDock_2013.1_src/data/scripts/dock_solv.prm

>  <Rbt.Receptor>
prm/pocket_docking_3.prm

>  <SCORE>
-22.5513

>  <SCORE.INTER>
-23.7198

>  <SCORE.INTER.CONST>
1

>  <SCORE.INTER.POLAR>
-2.75616

>  <SCORE.INTER.ROT>
6

>  <SCORE.INTER.SOLV>
16.0684

>  <SCORE.INTER.VDW>
-19.5821

>  <SCORE.INTER.norm>
-0.765154

>  <SCORE.INTRA>
1.16841

>  <SCORE.INTRA.DIHEDRAL>
-2.31339

>  <SCORE.INTRA.DIHEDRAL.0>
10.8409

>  <SCORE.INTRA.POLAR>
0

>  <SCORE.INTRA.POLAR.0>
0

>  <SCORE.INTRA.REPUL>
0

>  <SCORE.INTRA.REPUL.0>
0

>  <SCORE.INTRA.SOLV>
-0.950472

>  <SCORE.INTRA.SOLV.lig_0>
-80.8302

>  <SCORE.INTRA.VDW>
2.80034

>  <SCORE.INTRA.VDW.0>
-4.23953

>  <SCORE.INTRA.norm>
0.0376907

>  <SCORE.RESTR>
0

>  <SCORE.RESTR.CAVITY>
0

>  <SCORE.RESTR.norm>
0

>  <SCORE.SYSTEM>
0

>  <SCORE.SYSTEM.CONST>
0

>  <SCORE.SYSTEM.DIHEDRAL>
0

>  <SCORE.SYSTEM.SOLV>
0

>  <SCORE.SYSTEM.norm>
0

>  <SCORE.heavy>
31

>  <SCORE.norm>
-0.727463

>  <RMSD>
1.877

$$$$
2fcz_lig
 OpenBabel11021811433D
libRbt.so/2013.1/901 2013/11/27
 31 33  0  0  0  0  0  0  0  0999 V2000
   11.8562   15.3556   37.3968 C   0  0  0  0  0  0  0  0  0  0  0  0
   14.7695   22.4713   36.3191 N   0  0  0  0  0  0  0  0  0  0  0  0
   11.6650   14.1970   38.2132 O   0  0  0  0  0  0  0  0  0  0  0  0
   12.3919   16.5071   38.2546 C   0  0  1  0  0  0  0  0  0  0  0  0
   11.4057   22.2057   32.7748 N   0  0  0  0  0  0  0  0  0  0  0  0
   12.6128   17.6975   37.4712 O   0  0  0  0  0  0  0  0  0  0  0  0
   11.6140   18.6837   37.7992 C   0  0  1  0  0  0  0  0  0  0  0  0
    6.1961   21.8615   33.2292 N   0  0  0  0  0  0  0  0  0  0  0  0
   11.0542   19.3133   36.6341 O   0  0  0  0  0  0  0  0  0  0  0  0
   12.0301   19.8671   35.7353 C   0  0  2  0  0  0  0  0  0  0  0  0
    9.8257   17.0385   33.2547 N   0  0  0  0  0  0  0  0  0  0  0  0
   13.6848   20.1277   37.4810 O   0  0  0  0  0  0  0  0  0  0  0  0
   12.9257   20.8456   36.5051 C   0  0  1  0  0  0  0  0  0  0  0  0
   10.6731   19.6430   33.6927 O   0  0  0  0  0  0  0  0  0  0  0  0
   13.8897   21.5697   35.5625 C   0  0  1  0  0  0  0  0  0  0  0  0
    8.4627   20.4471   33.8927 O   0  0  0  0  0  0  0  0  0  0  0  0
   13.1048   22.3733   34.5233 C   0  0  0  0  0  0  0  0  0  0  0  0
    7.7367   20.2703   30.2859 O   0  0  0  0  0  0  0  0  0  0  0  0
   12.2326   21.4198   33.7043 C   0  0  1  0  0  0  0  0  0  0  0  0
    8.1976   17.5132   30.9485 O   0  0  0  0  0  0  0  0  0  0  0  0
   11.3108   20.5698   34.5855 C   0  0  2  0  0  0  0  0  0  0  0  0
    9.7121   18.7087   39.3793 O   0  0  0  0  0  0  0  0  0  0  0  0
    9.3278   19.3091   34.0642 C   0  0  1  0  0  0  0  0  0  0  0  0
   12.0113   17.5469   40.4344 O   0  0  0  0  0  0  0  0  0  0  0  0
    8.3685   20.9258   32.5400 C   0  0  2  0  0  0  0  0  0  0  0  0
    7.4484   22.1489   32.5147 C   0  0  0  0  0  0  0  0  0  0  0  0
    7.8061   19.8184   31.6417 C   0  0  2  0  0  0  0  0  0  0  0  0
    8.7223   18.5956   31.7242 C   0  0  1  0  0  0  0  0  0  0  0  0
    8.8637   18.1469   33.1805 C   0  0  1  0  0  0  0  0  0  0  0  0
   10.5288   17.8940   38.5327 C   0  0  2  0  0  0  0  0  0  0  0  0
   11.3766   16.9022   39.3269 C   0  0  1  0  0  0  0  0  0  0  0  0
  3  1  1  0  0  0  0
  4  1  1  6  0  0  0
  4  6  1  0  0  0  0
  4 31  1  0  0  0  0
  6  7  1  0  0  0  0
  7  9  1  6  0  0  0
  7 30  1  0  0  0  0
 10  9  1  1  0  0  0
 10 13  1  0  0  0  0
 10 21  1  0  0  0  0
 13 12  1  1  0  0  0
 13 15  1  0  0  0  0
 15  2  1  1  0  0  0
 15 17  1  0  0  0  0
 16 25  1  0  0  0  0
 17 19  1  0  0  0  0
 19  5  1  6  0  0  0
 19 21  1  0  0  0  0
 21 14  1  6  0  0  0
 23 14  1  6  0  0  0
 23 16  1  0  0  0  0
 23 29  1  0  0  0  0
 25 26  1  1  0  0  0
 25 27  1  0  0  0  0
 26  8  1  0  0  0  0
 27 18  1  6  0  0  0
 27 28  1  0  0  0  0
 28 20  1  6  0  0  0
 28 29  1  0  0  0  0
 29 11  1  6  0  0  0
 30 22  1  1  0  0  0
 30 31  1  0  0  0  0
 31 24  1  1  0  0  0
M  END
>  <CHROM.1>
179.47868815,-52.91909849,-55.34458057,89.01051939,68.74939559,-49.38263373
10.69441101,19.31732280,35.24105077,0.87781345,0.72822397,2.47102544

>  <Name>
2fcz_lig

>  <RI>
2.26996e+07

>  <Rbt.Current_Directory>
/home/itssahil/PROJECTS/Mol_Feturizer/New_Systems/rnas/2fcz

>  <Rbt.Executable>
rbdock ($Id: //depot/dev/client3/rdock/2013.1/src/exe/rbdock.cxx#4 $)

>  <Rbt.Library>
libRbt.so (2013.1, Build901 2013/11/27)

>  <Rbt.Parameter_File>
/export/apps/rDock/src/rDock_2013.1_src/data/scripts/dock_solv.prm

>  <Rbt.Receptor>
prm/pocket_docking_4.prm

>  <SCORE>
-17.2222

>  <SCORE.INTER>
-17.2731

>  <SCORE.INTER.CONST>
1

>  <SCORE.INTER.POLAR>
-2.41557

>  <SCORE.INTER.ROT>
6

>  <SCORE.INTER.SOLV>
15.5414

>  <SCORE.INTER.VDW>
-16.2439

>  <SCORE.INTER.norm>
-0.557196

>  <SCORE.INTRA>
0.0115293

>  <SCORE.INTRA.DIHEDRAL>
-6.22363

>  <SCORE.INTRA.DIHEDRAL.0>
10.8409

>  <SCORE.INTRA.POLAR>
0

>  <SCORE.INTRA.POLAR.0>
0

>  <SCORE.INTRA.REPUL>
0

>  <SCORE.INTRA.REPUL.0>
0

>  <SCORE.INTRA.SOLV>
-1.0686

>  <SCORE.INTRA.SOLV.lig_0>
-80.8302

>  <SCORE.INTRA.VDW>
3.65765

>  <SCORE.INTRA.VDW.0>
-4.23953

>  <SCORE.INTRA.norm>
0.000371913

>  <SCORE.RESTR>
0.0393154

>  <SCORE.RESTR.CAVITY>
0.0393154

>  <SCORE.RESTR.norm>
0.00126824

>  <SCORE.SYSTEM>
0

>  <SCORE.SYSTEM.CONST>
0

>  <SCORE.SYSTEM.DIHEDRAL>
0

>  <SCORE.SYSTEM.SOLV>
0

>  <SCORE.SYSTEM.norm>
0

>  <SCORE.heavy>
31

>  <SCORE.norm>
-0.555555

>  <RMSD>
1.898

$$$$
2fcz_lig
 OpenBabel11021811433D
libRbt.so/2013.1/901 2013/11/27
 31 33  0  0  0  0  0  0  0  0999 V2000
   12.0582   15.9383   36.1526 C   0  0  0  0  0  0  0  0  0  0  0  0
   13.6042   24.1974   35.0055 N   0  0  0  0  0  0  0  0  0  0  0  0
   12.3970   15.5277   34.8252 O   0  0  0  0  0  0  0  0  0  0  0  0
   13.0403   17.0159   36.6246 C   0  0  1  0  0  0  0  0  0  0  0  0
    9.8302   22.7902   32.2263 N   0  0  0  0  0  0  0  0  0  0  0  0
   12.9413   18.2136   35.8275 O   0  0  0  0  0  0  0  0  0  0  0  0
   12.3202   19.2589   36.6017 C   0  0  1  0  0  0  0  0  0  0  0  0
    6.8032   23.0321   32.6476 N   0  0  0  0  0  0  0  0  0  0  0  0
   11.3109   19.9690   35.8638 O   0  0  0  0  0  0  0  0  0  0  0  0
   11.8263   20.8162   34.8229 C   0  0  2  0  0  0  0  0  0  0  0  0
    9.9760   17.3821   32.8539 N   0  0  0  0  0  0  0  0  0  0  0  0
   13.6402   21.6307   36.2012 O   0  0  0  0  0  0  0  0  0  0  0  0
   12.4920   22.0441   35.4564 C   0  0  1  0  0  0  0  0  0  0  0  0
   10.2085   20.1354   33.0957 O   0  0  0  0  0  0  0  0  0  0  0  0
   12.9304   23.0474   34.3870 C   0  0  1  0  0  0  0  0  0  0  0  0
    7.8902   20.4129   33.4439 O   0  0  0  0  0  0  0  0  0  0  0  0
   11.7163   23.5323   33.5917 C   0  0  0  0  0  0  0  0  0  0  0  0
    6.9728   19.8350   29.9236 O   0  0  0  0  0  0  0  0  0  0  0  0
   11.0530   22.3356   32.9071 C   0  0  1  0  0  0  0  0  0  0  0  0
    8.1221   17.3112   30.6739 O   0  0  0  0  0  0  0  0  0  0  0  0
   10.6817   21.2279   33.8990 C   0  0  2  0  0  0  0  0  0  0  0  0
   11.4586   19.3690   38.9169 O   0  0  0  0  0  0  0  0  0  0  0  0
    9.0112   19.5220   33.5949 C   0  0  1  0  0  0  0  0  0  0  0  0
   13.8747   18.0035   38.6997 O   0  0  0  0  0  0  0  0  0  0  0  0
    7.5890   20.7665   32.0829 C   0  0  2  0  0  0  0  0  0  0  0  0
    6.4051   21.7367   32.0779 C   0  0  0  0  0  0  0  0  0  0  0  0
    7.2438   19.5018   31.2885 C   0  0  2  0  0  0  0  0  0  0  0  0
    8.4280   18.5347   31.3507 C   0  0  1  0  0  0  0  0  0  0  0  0
    8.7752   18.2281   32.8093 C   0  0  1  0  0  0  0  0  0  0  0  0
   11.6796   18.5264   37.7817 C   0  0  2  0  0  0  0  0  0  0  0  0
   12.7248   17.4471   38.0569 C   0  0  1  0  0  0  0  0  0  0  0  0
  3  1  1  0  0  0  0
  4  1  1  6  0  0  0
  4  6  1  0  0  0  0
  4 31  1  0  0  0  0
  6  7  1  0  0  0  0
  7  9  1  6  0  0  0
  7 30  1  0  0  0  0
 10  9  1  1  0  0  0
 10 13  1  0  0  0  0
 10 21  1  0  0  0  0
 13 12  1  6  0  0  0
 13 15  1  0  0  0  0
 15  2  1  1  0  0  0
 15 17  1  0  0  0  0
 16 25  1  0  0  0  0
 17 19  1  0  0  0  0
 19  5  1  1  0  0  0
 19 21  1  0  0  0  0
 21 14  1  6  0  0  0
 23 14  1  6  0  0  0
 23 16  1  0  0  0  0
 23 29  1  0  0  0  0
 25 26  1  1  0  0  0
 25 27  1  0  0  0  0
 26  8  1  0  0  0  0
 27 18  1  6  0  0  0
 27 28  1  0  0  0  0
 28 20  1  6  0  0  0
 28 29  1  0  0  0  0
 29 11  1  6  0  0  0
 30 22  1  1  0  0  0
 30 31  1  0  0  0  0
 31 24  1  6  0  0  0
M  END
>  <CHROM.1>
64.08044833,-70.98079700,-72.69211185,99.90840394,69.72891021,68.98640970
10.62242738,19.87431739,34.32932983,0.36987822,0.78352213,2.95822598

>  <Name>
2fcz_lig

>  <RI>
1.32928e+07

>  <Rbt.Current_Directory>
/home/itssahil/PROJECTS/Mol_Feturizer/New_Systems/rnas/2fcz

>  <Rbt.Executable>
rbdock ($Id: //depot/dev/client3/rdock/2013.1/src/exe/rbdock.cxx#4 $)

>  <Rbt.Library>
libRbt.so (2013.1, Build901 2013/11/27)

>  <Rbt.Parameter_File>
/export/apps/rDock/src/rDock_2013.1_src/data/scripts/dock_solv.prm

>  <Rbt.Receptor>
prm/pocket_docking_7.prm

>  <SCORE>
-20.991

>  <SCORE.INTER>
-20.5481

>  <SCORE.INTER.CONST>
1

>  <SCORE.INTER.POLAR>
-2.39735

>  <SCORE.INTER.ROT>
6

>  <SCORE.INTER.SOLV>
15.3507

>  <SCORE.INTER.VDW>
-18.4245

>  <SCORE.INTER.norm>
-0.662844

>  <SCORE.INTRA>
-0.442877

>  <SCORE.INTRA.DIHEDRAL>
-3.26585

>  <SCORE.INTRA.DIHEDRAL.0>
10.8409

>  <SCORE.INTRA.POLAR>
0

>  <SCORE.INTRA.POLAR.0>
0

>  <SCORE.INTRA.REPUL>
0

>  <SCORE.INTRA.REPUL.0>
0

>  <SCORE.INTRA.SOLV>
0.6835

>  <SCORE.INTRA.SOLV.lig_0>
-80.8302

>  <SCORE.INTRA.VDW>
0.848297

>  <SCORE.INTRA.VDW.0>
-4.23953

>  <SCORE.INTRA.norm>
-0.0142863

>  <SCORE.RESTR>
0

>  <SCORE.RESTR.CAVITY>
0

>  <SCORE.RESTR.norm>
0

>  <SCORE.SYSTEM>
0

>  <SCORE.SYSTEM.CONST>
0

>  <SCORE.SYSTEM.DIHEDRAL>
0

>  <SCORE.SYSTEM.SOLV>
0

>  <SCORE.SYSTEM.norm>
0

>  <SCORE.heavy>
31

>  <SCORE.norm>
-0.67713

>  <RMSD>
1.915

$$$$
2fcz_lig
 OpenBabel11021811433D
libRbt.so/2013.1/901 2013/11/27
 31 33  0  0  0  0  0  0  0  0999 V2000
    9.7285   18.0637   39.7750 C   0  0  0  0  0  0  0  0  0  0  0  0
   13.7448   23.9885   35.5787 N   0  0  0  0  0  0  0  0  0  0  0  0
    8.3104   17.9551   39.6244 O   0  0  0  0  0  0  0  0  0  0  0  0
   10.4247   17.4361   38.5626 C   0  0  1  0  0  0  0  0  0  0  0  0
   10.7406   22.3334   32.0883 N   0  0  0  0  0  0  0  0  0  0  0  0
   10.0575   18.0980   37.3352 O   0  0  0  0  0  0  0  0  0  0  0  0
   11.1743   18.8693   36.8497 C   0  0  1  0  0  0  0  0  0  0  0  0
    6.5557   22.1644   31.1606 N   0  0  0  0  0  0  0  0  0  0  0  0
   10.7922   20.1876   36.4215 O   0  0  0  0  0  0  0  0  0  0  0  0
   11.6772   20.7736   35.4518 C   0  0  2  0  0  0  0  0  0  0  0  0
   10.2591   17.1421   33.1301 N   0  0  0  0  0  0  0  0  0  0  0  0
   13.1267   21.7126   37.1462 O   0  0  0  0  0  0  0  0  0  0  0  0
   12.2904   22.0516   36.0373 C   0  0  1  0  0  0  0  0  0  0  0  0
   10.5279   19.8824   33.4646 O   0  0  0  0  0  0  0  0  0  0  0  0
   13.1295   22.7901   34.9918 C   0  0  1  0  0  0  0  0  0  0  0  0
    8.2124   20.1794   33.8153 O   0  0  0  0  0  0  0  0  0  0  0  0
   12.2534   23.1939   33.8040 C   0  0  0  0  0  0  0  0  0  0  0  0
    7.2989   19.7322   30.2751 O   0  0  0  0  0  0  0  0  0  0  0  0
   11.6605   21.9360   33.1659 C   0  0  1  0  0  0  0  0  0  0  0  0
    8.4116   17.1694   30.9437 O   0  0  0  0  0  0  0  0  0  0  0  0
   10.8936   21.0754   34.1759 C   0  0  2  0  0  0  0  0  0  0  0  0
   13.4746   19.2297   37.6826 O   0  0  0  0  0  0  0  0  0  0  0  0
    9.3207   19.2689   33.9396 C   0  0  1  0  0  0  0  0  0  0  0  0
   12.6205   16.5891   37.9003 O   0  0  0  0  0  0  0  0  0  0  0  0
    7.9204   20.5824   32.4661 C   0  0  2  0  0  0  0  0  0  0  0  0
    6.7497   21.5682   32.4903 C   0  0  0  0  0  0  0  0  0  0  0  0
    7.5609   19.3499   31.6288 C   0  0  2  0  0  0  0  0  0  0  0  0
    8.7317   18.3653   31.6619 C   0  0  1  0  0  0  0  0  0  0  0  0
    9.0700   18.0053   33.1104 C   0  0  1  0  0  0  0  0  0  0  0  0
   12.1167   18.9679   38.0503 C   0  0  2  0  0  0  0  0  0  0  0  0
   11.9422   17.5837   38.6722 C   0  0  1  0  0  0  0  0  0  0  0  0
  3  1  1  0  0  0  0
  4  1  1  1  0  0  0
  4  6  1  0  0  0  0
  4 31  1  0  0  0  0
  6  7  1  0  0  0  0
  7  9  1  1  0  0  0
  7 30  1  0  0  0  0
 10  9  1  1  0  0  0
 10 13  1  0  0  0  0
 10 21  1  0  0  0  0
 13 12  1  1  0  0  0
 13 15  1  0  0  0  0
 15  2  1  1  0  0  0
 15 17  1  0  0  0  0
 16 25  1  0  0  0  0
 17 19  1  0  0  0  0
 19  5  1  6  0  0  0
 19 21  1  0  0  0  0
 21 14  1  6  0  0  0
 23 14  1  6  0  0  0
 23 16  1  0  0  0  0
 23 29  1  0  0  0  0
 25 26  1  1  0  0  0
 25 27  1  0  0  0  0
 26  8  1  0  0  0  0
 27 18  1  6  0  0  0
 27 28  1  0  0  0  0
 28 20  1  6  0  0  0
 28 29  1  0  0  0  0
 29 11  1  6  0  0  0
 30 22  1  6  0  0  0
 30 31  1  0  0  0  0
 31 24  1  6  0  0  0
M  END
>  <CHROM.1>
60.46074945,-155.22973672,-118.37137770,84.32718413,60.04182789,171.15985580
10.33780469,19.84537613,34.90919138,0.85989855,0.76019096,2.29675735

>  <Name>
2fcz_lig

>  <RI>
2.29611e+07

>  <Rbt.Current_Directory>
/home/itssahil/PROJECTS/Mol_Feturizer/New_Systems/rnas/2fcz

>  <Rbt.Executable>
rbdock ($Id: //depot/dev/client3/rdock/2013.1/src/exe/rbdock.cxx#4 $)

>  <Rbt.Library>
libRbt.so (2013.1, Build901 2013/11/27)

>  <Rbt.Parameter_File>
/export/apps/rDock/src/rDock_2013.1_src/data/scripts/dock_solv.prm

>  <Rbt.Receptor>
prm/pocket_docking_3.prm

>  <SCORE>
-18.8733

>  <SCORE.INTER>
-20.0493

>  <SCORE.INTER.CONST>
1

>  <SCORE.INTER.POLAR>
-1.74984

>  <SCORE.INTER.ROT>
6

>  <SCORE.INTER.SOLV>
12.4369

>  <SCORE.INTER.VDW>
-19.279

>  <SCORE.INTER.norm>
-0.646751

>  <SCORE.INTRA>
1.17602

>  <SCORE.INTRA.DIHEDRAL>
1.84502

>  <SCORE.INTRA.DIHEDRAL.0>
10.8409

>  <SCORE.INTRA.POLAR>
0

>  <SCORE.INTRA.POLAR.0>
0

>  <SCORE.INTRA.REPUL>
0

>  <SCORE.INTRA.REPUL.0>
0

>  <SCORE.INTRA.SOLV>
-0.830071

>  <SCORE.INTRA.SOLV.lig_0>
-80.8302

>  <SCORE.INTRA.VDW>
0.668547

>  <SCORE.INTRA.VDW.0>
-4.23953

>  <SCORE.INTRA.norm>
0.0379363

>  <SCORE.RESTR>
0

>  <SCORE.RESTR.CAVITY>
0

>  <SCORE.RESTR.norm>
0

>  <SCORE.SYSTEM>
0

>  <SCORE.SYSTEM.CONST>
0

>  <SCORE.SYSTEM.DIHEDRAL>
0

>  <SCORE.SYSTEM.SOLV>
0

>  <SCORE.SYSTEM.norm>
0

>  <SCORE.heavy>
31

>  <SCORE.norm>
-0.608815

>  <RMSD>
1.946

$$$$
2fcz_lig
 OpenBabel11021811433D
libRbt.so/2013.1/901 2013/11/27
 31 33  0  0  0  0  0  0  0  0999 V2000
    6.7003   18.6766   39.2595 C   0  0  0  0  0  0  0  0  0  0  0  0
   13.8878   21.7250   37.1906 N   0  0  0  0  0  0  0  0  0  0  0  0
    5.4505   19.3416   39.0561 O   0  0  0  0  0  0  0  0  0  0  0  0
    7.0783   17.8937   37.9975 C   0  0  1  0  0  0  0  0  0  0  0  0
   11.9055   21.7884   32.7169 N   0  0  0  0  0  0  0  0  0  0  0  0
    7.3854   18.7730   36.8965 O   0  0  0  0  0  0  0  0  0  0  0  0
    8.8034   18.7468   36.6386 C   0  0  1  0  0  0  0  0  0  0  0  0
    5.7090   22.4394   32.7802 N   0  0  0  0  0  0  0  0  0  0  0  0
    9.3550   20.0602   36.4440 O   0  0  0  0  0  0  0  0  0  0  0  0
   10.6889   20.0673   35.9077 C   0  0  2  0  0  0  0  0  0  0  0  0
    9.0029   17.3781   32.8292 N   0  0  0  0  0  0  0  0  0  0  0  0
   11.7118   20.1566   38.0984 O   0  0  0  0  0  0  0  0  0  0  0  0
   11.6076   20.8512   36.8531 C   0  0  1  0  0  0  0  0  0  0  0  0
   10.0303   19.8531   33.5446 O   0  0  0  0  0  0  0  0  0  0  0  0
   13.0078   21.0100   36.2559 C   0  0  1  0  0  0  0  0  0  0  0  0
    7.8847   20.8271   33.6882 O   0  0  0  0  0  0  0  0  0  0  0  0
   12.9319   21.7783   34.9347 C   0  0  0  0  0  0  0  0  0  0  0  0
    7.3813   21.0164   30.0442 O   0  0  0  0  0  0  0  0  0  0  0  0
   12.0579   20.9994   33.9497 C   0  0  1  0  0  0  0  0  0  0  0  0
    7.5715   18.1839   30.4847 O   0  0  0  0  0  0  0  0  0  0  0  0
   10.6663   20.6978   34.5166 C   0  0  2  0  0  0  0  0  0  0  0  0
   10.6912   17.5278   37.6708 O   0  0  0  0  0  0  0  0  0  0  0  0
    8.6410   19.6077   33.8072 C   0  0  1  0  0  0  0  0  0  0  0  0
    8.4165   15.9597   37.3294 O   0  0  0  0  0  0  0  0  0  0  0  0
    7.9175   21.4236   32.3801 C   0  0  2  0  0  0  0  0  0  0  0  0
    7.1041   22.7199   32.4108 C   0  0  0  0  0  0  0  0  0  0  0  0
    7.3258   20.4483   31.3563 C   0  0  2  0  0  0  0  0  0  0  0  0
    8.1317   19.1478   31.3823 C   0  0  1  0  0  0  0  0  0  0  0  0
    8.1416   18.5683   32.7987 C   0  0  1  0  0  0  0  0  0  0  0  0
    9.4049   18.1135   37.8943 C   0  0  2  0  0  0  0  0  0  0  0  0
    8.3434   17.0678   38.2303 C   0  0  1  0  0  0  0  0  0  0  0  0
  3  1  1  0  0  0  0
  4  1  1  1  0  0  0
  4  6  1  0  0  0  0
  4 31  1  0  0  0  0
  6  7  1  0  0  0  0
  7  9  1  1  0  0  0
  7 30  1  0  0  0  0
 10  9  1  1  0  0  0
 10 13  1  0  0  0  0
 10 21  1  0  0  0  0
 13 12  1  1  0  0  0
 13 15  1  0  0  0  0
 15  2  1  1  0  0  0
 15 17  1  0  0  0  0
 16 25  1  0  0  0  0
 17 19  1  0  0  0  0
 19  5  1  6  0  0  0
 19 21  1  0  0  0  0
 21 14  1  6  0  0  0
 23 14  1  6  0  0  0
 23 16  1  0  0  0  0
 23 29  1  0  0  0  0
 25 26  1  1  0  0  0
 25 27  1  0  0  0  0
 26  8  1  0  0  0  0
 27 18  1  6  0  0  0
 27 28  1  0  0  0  0
 28 20  1  6  0  0  0
 28 29  1  0  0  0  0
 29 11  1  6  0  0  0
 30 22  1  6  0  0  0
 30 31  1  0  0  0  0
 31 24  1  6  0  0  0
M  END
>  <CHROM.1>
67.83655540,-167.39282726,-123.74387399,63.50775646,65.83226401,-60.22515579
9.15707545,19.74711546,35.02591933,1.34155093,0.38795567,1.94227162

>  <Name>
2fcz_lig

>  <RI>
0

>  <Rbt.Current_Directory>
/home/itssahil/PROJECTS/Mol_Feturizer/New_Systems/rnas/2fcz

>  <Rbt.Executable>
rbdock ($Id: //depot/dev/client3/rdock/2013.1/src/exe/rbdock.cxx#4 $)

>  <Rbt.Library>
libRbt.so (2013.1, Build901 2013/11/27)

>  <Rbt.Parameter_File>
/export/apps/rDock/src/rDock_2013.1_src/data/scripts/dock_solv.prm

>  <Rbt.Receptor>
prm/pocket_docking_5.prm

>  <SCORE>
-21.0739

>  <SCORE.INTER>
-20.4569

>  <SCORE.INTER.CONST>
1

>  <SCORE.INTER.POLAR>
-2.61779

>  <SCORE.INTER.ROT>
6

>  <SCORE.INTER.SOLV>
23.3017

>  <SCORE.INTER.VDW>
-20.2792

>  <SCORE.INTER.norm>
-0.659902

>  <SCORE.INTRA>
-0.616924

>  <SCORE.INTRA.DIHEDRAL>
-2.37667

>  <SCORE.INTRA.DIHEDRAL.0>
10.8409

>  <SCORE.INTRA.POLAR>
0

>  <SCORE.INTRA.POLAR.0>
0

>  <SCORE.INTRA.REPUL>
0

>  <SCORE.INTRA.REPUL.0>
0

>  <SCORE.INTRA.SOLV>
-1.70862

>  <SCORE.INTRA.SOLV.lig_0>
-80.8302

>  <SCORE.INTRA.VDW>
1.42572

>  <SCORE.INTRA.VDW.0>
-4.23953

>  <SCORE.INTRA.norm>
-0.0199008

>  <SCORE.RESTR>
0

>  <SCORE.RESTR.CAVITY>
0

>  <SCORE.RESTR.norm>
0

>  <SCORE.SYSTEM>
0

>  <SCORE.SYSTEM.CONST>
0

>  <SCORE.SYSTEM.DIHEDRAL>
0

>  <SCORE.SYSTEM.SOLV>
0

>  <SCORE.SYSTEM.norm>
0

>  <SCORE.heavy>
31

>  <SCORE.norm>
-0.679802

>  <RMSD>
1.963

$$$$
2fcz_lig
 OpenBabel11021811433D
libRbt.so/2013.1/901 2013/11/27
 31 33  0  0  0  0  0  0  0  0999 V2000
   10.5015   17.8834   39.2819 C   0  0  0  0  0  0  0  0  0  0  0  0
   13.6113   23.8236   35.4325 N   0  0  0  0  0  0  0  0  0  0  0  0
   11.2877   16.7345   39.6100 O   0  0  0  0  0  0  0  0  0  0  0  0
    9.6816   17.6023   38.0180 C   0  0  1  0  0  0  0  0  0  0  0  0
   10.7036   22.3541   31.7811 N   0  0  0  0  0  0  0  0  0  0  0  0
    9.0733   18.8025   37.4993 O   0  0  0  0  0  0  0  0  0  0  0  0
    9.7391   19.1942   36.2823 C   0  0  1  0  0  0  0  0  0  0  0  0
    6.6197   23.3094   31.1610 N   0  0  0  0  0  0  0  0  0  0  0  0
   10.0265   20.6022   36.2371 O   0  0  0  0  0  0  0  0  0  0  0  0
   11.0764   20.9619   35.3231 C   0  0  2  0  0  0  0  0  0  0  0  0
    9.1818   17.4940   32.7365 N   0  0  0  0  0  0  0  0  0  0  0  0
   12.5008   21.8101   37.0853 O   0  0  0  0  0  0  0  0  0  0  0  0
   11.8313   22.1769   35.8765 C   0  0  1  0  0  0  0  0  0  0  0  0
    9.9808   20.0902   33.2974 O   0  0  0  0  0  0  0  0  0  0  0  0
   12.8672   22.6873   34.8720 C   0  0  1  0  0  0  0  0  0  0  0  0
    7.7622   20.8157   33.6504 O   0  0  0  0  0  0  0  0  0  0  0  0
   12.1758   23.1171   33.5763 C   0  0  0  0  0  0  0  0  0  0  0  0
    6.8679   20.8402   30.0773 O   0  0  0  0  0  0  0  0  0  0  0  0
   11.4488   21.9144   32.9714 C   0  0  1  0  0  0  0  0  0  0  0  0
    7.4324   18.0621   30.5430 O   0  0  0  0  0  0  0  0  0  0  0  0
   10.4676   21.2698   33.9565 C   0  0  2  0  0  0  0  0  0  0  0  0
   11.6145   18.2298   34.9909 O   0  0  0  0  0  0  0  0  0  0  0  0
    8.6642   19.6950   33.7095 C   0  0  1  0  0  0  0  0  0  0  0  0
    9.8286   16.3182   35.9427 O   0  0  0  0  0  0  0  0  0  0  0  0
    7.5903   21.3738   32.3362 C   0  0  2  0  0  0  0  0  0  0  0  0
    6.6383   22.5687   32.4308 C   0  0  0  0  0  0  0  0  0  0  0  0
    7.0145   20.3079   31.3973 C   0  0  2  0  0  0  0  0  0  0  0  0
    7.9653   19.1095   31.3600 C   0  0  1  0  0  0  0  0  0  0  0  0
    8.1886   18.5764   32.7770 C   0  0  1  0  0  0  0  0  0  0  0  0
   11.0458   18.3992   36.2930 C   0  0  2  0  0  0  0  0  0  0  0  0
   10.5773   17.0765   36.8964 C   0  0  1  0  0  0  0  0  0  0  0  0
  3  1  1  0  0  0  0
  4  1  1  1  0  0  0
  4  6  1  0  0  0  0
  4 31  1  0  0  0  0
  6  7  1  0  0  0  0
  7  9  1  1  0  0  0
  7 30  1  0  0  0  0
 10  9  1  1  0  0  0
 10 13  1  0  0  0  0
 10 21  1  0  0  0  0
 13 12  1  1  0  0  0
 13 15  1  0  0  0  0
 15  2  1  1  0  0  0
 15 17  1  0  0  0  0
 16 25  1  0  0  0  0
 17 19  1  0  0  0  0
 19  5  1  6  0  0  0
 19 21  1  0  0  0  0
 21 14  1  6  0  0  0
 23 14  1  6  0  0  0
 23 16  1  0  0  0  0
 23 29  1  0  0  0  0
 25 26  1  1  0  0  0
 25 27  1  0  0  0  0
 26  8  1  0  0  0  0
 27 18  1  6  0  0  0
 27 28  1  0  0  0  0
 28 20  1  6  0  0  0
 28 29  1  0  0  0  0
 29 11  1  6  0  0  0
 30 22  1  6  0  0  0
 30 31  1  0  0  0  0
 31 24  1  6  0  0  0
M  END
>  <CHROM.1>
-168.87875710,158.68009039,-147.70693698,83.14725834,50.11605152,170.08852774
9.79573437,20.06638177,34.45325757,0.90720584,0.77849953,2.45809688

>  <Name>
2fcz_lig

>  <RI>
3.41297e+07

>  <Rbt.Current_Directory>
/home/itssahil/PROJECTS/Mol_Feturizer/New_Systems/rnas/2fcz

>  <Rbt.Executable>
rbdock ($Id: //depot/dev/client3/rdock/2013.1/src/exe/rbdock.cxx#4 $)

>  <Rbt.Library>
libRbt.so (2013.1, Build901 2013/11/27)

>  <Rbt.Parameter_File>
/export/apps/rDock/src/rDock_2013.1_src/data/scripts/dock_solv.prm

>  <Rbt.Receptor>
prm/pocket_docking_2.prm

>  <SCORE>
-15.2164

>  <SCORE.INTER>
-18.3508

>  <SCORE.INTER.CONST>
1

>  <SCORE.INTER.POLAR>
-1.79748

>  <SCORE.INTER.ROT>
6

>  <SCORE.INTER.SOLV>
12.5632

>  <SCORE.INTER.VDW>
-18.03

>  <SCORE.INTER.norm>
-0.59196

>  <SCORE.INTRA>
2.89508

>  <SCORE.INTRA.DIHEDRAL>
-1.12619

>  <SCORE.INTRA.DIHEDRAL.0>
10.8409

>  <SCORE.INTRA.POLAR>
0

>  <SCORE.INTRA.POLAR.0>
0

>  <SCORE.INTRA.REPUL>
0

>  <SCORE.INTRA.REPUL.0>
0

>  <SCORE.INTRA.SOLV>
1.40903

>  <SCORE.INTRA.SOLV.lig_0>
-80.8302

>  <SCORE.INTRA.VDW>
2.75366

>  <SCORE.INTRA.VDW.0>
-4.23953

>  <SCORE.INTRA.norm>
0.0933897

>  <SCORE.RESTR>
0.239277

>  <SCORE.RESTR.CAVITY>
0.239277

>  <SCORE.RESTR.norm>
0.0077186

>  <SCORE.SYSTEM>
0

>  <SCORE.SYSTEM.CONST>
0

>  <SCORE.SYSTEM.DIHEDRAL>
0

>  <SCORE.SYSTEM.SOLV>
0

>  <SCORE.SYSTEM.norm>
0

>  <SCORE.heavy>
31

>  <SCORE.norm>
-0.490852

>  <RMSD>
1.965

$$$$
2fcz_lig
 OpenBabel11021811433D
libRbt.so/2013.1/901 2013/11/27
 31 33  0  0  0  0  0  0  0  0999 V2000
    6.4525   18.4746   38.9760 C   0  0  0  0  0  0  0  0  0  0  0  0
   14.0190   21.6683   37.2378 N   0  0  0  0  0  0  0  0  0  0  0  0
    6.0276   19.8117   38.6986 O   0  0  0  0  0  0  0  0  0  0  0  0
    6.9144   17.8016   37.6789 C   0  0  1  0  0  0  0  0  0  0  0  0
   12.0030   21.4546   32.7840 N   0  0  0  0  0  0  0  0  0  0  0  0
    7.4022   18.7648   36.7229 O   0  0  0  0  0  0  0  0  0  0  0  0
    8.8349   18.6518   36.6117 C   0  0  1  0  0  0  0  0  0  0  0  0
    6.4008   22.6988   32.3544 N   0  0  0  0  0  0  0  0  0  0  0  0
    9.4938   19.9297   36.6261 O   0  0  0  0  0  0  0  0  0  0  0  0
   10.8235   19.9150   36.0797 C   0  0  2  0  0  0  0  0  0  0  0  0
    8.8399   17.2171   33.0306 N   0  0  0  0  0  0  0  0  0  0  0  0
   11.8621   20.1401   38.2533 O   0  0  0  0  0  0  0  0  0  0  0  0
   11.7432   20.7597   36.9702 C   0  0  1  0  0  0  0  0  0  0  0  0
   10.1490   19.5577   33.7385 O   0  0  0  0  0  0  0  0  0  0  0  0
   13.1376   20.8933   36.3538 C   0  0  1  0  0  0  0  0  0  0  0  0
    8.1774   20.8445   33.5662 O   0  0  0  0  0  0  0  0  0  0  0  0
   13.0459   21.5822   34.9904 C   0  0  0  0  0  0  0  0  0  0  0  0
    8.1280   20.8515   29.8831 O   0  0  0  0  0  0  0  0  0  0  0  0
   12.1706   20.7405   34.0596 C   0  0  1  0  0  0  0  0  0  0  0  0
    7.8269   18.0595   30.4892 O   0  0  0  0  0  0  0  0  0  0  0  0
   10.7857   20.4625   34.6543 C   0  0  2  0  0  0  0  0  0  0  0  0
   10.5074   17.1823   37.6880 O   0  0  0  0  0  0  0  0  0  0  0  0
    8.7177   19.5384   33.8403 C   0  0  1  0  0  0  0  0  0  0  0  0
    8.1828   15.8476   36.9369 O   0  0  0  0  0  0  0  0  0  0  0  0
    8.4509   21.3371   32.2431 C   0  0  2  0  0  0  0  0  0  0  0  0
    7.8493   22.7379   32.1065 C   0  0  0  0  0  0  0  0  0  0  0  0
    7.8362   20.3906   31.2059 C   0  0  2  0  0  0  0  0  0  0  0  0
    8.4232   18.9906   31.3980 C   0  0  1  0  0  0  0  0  0  0  0  0
    8.1819   18.5161   32.8328 C   0  0  1  0  0  0  0  0  0  0  0  0
    9.2475   17.8428   37.8425 C   0  0  2  0  0  0  0  0  0  0  0  0
    8.0858   16.8564   37.9458 C   0  0  1  0  0  0  0  0  0  0  0  0
  3  1  1  0  0  0  0
  4  1  1  1  0  0  0
  4  6  1  0  0  0  0
  4 31  1  0  0  0  0
  6  7  1  0  0  0  0
  7  9  1  1  0  0  0
  7 30  1  0  0  0  0
 10  9  1  1  0  0  0
 10 13  1  0  0  0  0
 10 21  1  0  0  0  0
 13 12  1  1  0  0  0
 13 15  1  0  0  0  0
 15  2  1  1  0  0  0
 15 17  1  0  0  0  0
 16 25  1  0  0  0  0
 17 19  1  0  0  0  0
 19  5  1  6  0  0  0
 19 21  1  0  0  0  0
 21 14  1  6  0  0  0
 23 14  1  6  0  0  0
 23 16  1  0  0  0  0
 23 29  1  0  0  0  0
 25 26  1  1  0  0  0
 25 27  1  0  0  0  0
 26  8  1  0  0  0  0
 27 18  1  6  0  0  0
 27 28  1  0  0  0  0
 28 20  1  6  0  0  0
 28 29  1  0  0  0  0
 29 11  1  6  0  0  0
 30 22  1  6  0  0  0
 30 31  1  0  0  0  0
 31 24  1  6  0  0  0
M  END
>  <CHROM.1>
27.43554940,-160.10991418,-137.52233143,76.28282033,60.25439562,-58.55058180
9.31436308,19.64238129,34.97426910,1.41332719,0.45933735,1.93765610

>  <Name>
2fcz_lig

>  <RI>
0

>  <Rbt.Current_Directory>
/home/itssahil/PROJECTS/Mol_Feturizer/New_Systems/rnas/2fcz

>  <Rbt.Executable>
rbdock ($Id: //depot/dev/client3/rdock/2013.1/src/exe/rbdock.cxx#4 $)

>  <Rbt.Library>
libRbt.so (2013.1, Build901 2013/11/27)

>  <Rbt.Parameter_File>
/export/apps/rDock/src/rDock_2013.1_src/data/scripts/dock_solv.prm

>  <Rbt.Receptor>
prm/pocket_docking_6.prm

>  <SCORE>
-22.1937

>  <SCORE.INTER>
-23.2098

>  <SCORE.INTER.CONST>
1

>  <SCORE.INTER.POLAR>
-3.36885

>  <SCORE.INTER.ROT>
6

>  <SCORE.INTER.SOLV>
20.025

>  <SCORE.INTER.VDW>
-18.5187

>  <SCORE.INTER.norm>
-0.748703

>  <SCORE.INTRA>
1.01607

>  <SCORE.INTRA.DIHEDRAL>
1.01707

>  <SCORE.INTRA.DIHEDRAL.0>
10.8409

>  <SCORE.INTRA.POLAR>
0

>  <SCORE.INTRA.POLAR.0>
0

>  <SCORE.INTRA.REPUL>
0

>  <SCORE.INTRA.REPUL.0>
0

>  <SCORE.INTRA.SOLV>
-0.769091

>  <SCORE.INTRA.SOLV.lig_0>
-80.8302

>  <SCORE.INTRA.VDW>
0.892083

>  <SCORE.INTRA.VDW.0>
-4.23953

>  <SCORE.INTRA.norm>
0.0327765

>  <SCORE.RESTR>
0

>  <SCORE.RESTR.CAVITY>
0

>  <SCORE.RESTR.norm>
0

>  <SCORE.SYSTEM>
0

>  <SCORE.SYSTEM.CONST>
0

>  <SCORE.SYSTEM.DIHEDRAL>
0

>  <SCORE.SYSTEM.SOLV>
0

>  <SCORE.SYSTEM.norm>
0

>  <SCORE.heavy>
31

>  <SCORE.norm>
-0.715927

>  <RMSD>
1.991

$$$$
2fcz_lig
 OpenBabel11021811433D
libRbt.so/2013.1/901 2013/11/27
 31 33  0  0  0  0  0  0  0  0999 V2000
    6.6600   18.6322   39.2619 C   0  0  0  0  0  0  0  0  0  0  0  0
   13.8801   21.7240   37.2095 N   0  0  0  0  0  0  0  0  0  0  0  0
    5.4067   19.3012   39.0978 O   0  0  0  0  0  0  0  0  0  0  0  0
    7.0170   17.8839   37.9731 C   0  0  1  0  0  0  0  0  0  0  0  0
   11.9155   21.6625   32.7280 N   0  0  0  0  0  0  0  0  0  0  0  0
    7.3463   18.7925   36.9028 O   0  0  0  0  0  0  0  0  0  0  0  0
    8.7630   18.7385   36.6422 C   0  0  1  0  0  0  0  0  0  0  0  0
    7.2804   23.3778   31.2177 N   0  0  0  0  0  0  0  0  0  0  0  0
    9.3485   20.0431   36.4925 O   0  0  0  0  0  0  0  0  0  0  0  0
   10.6845   20.0337   35.9614 C   0  0  2  0  0  0  0  0  0  0  0  0
    8.9871   17.2895   32.8778 N   0  0  0  0  0  0  0  0  0  0  0  0
   11.6989   20.1841   38.1528 O   0  0  0  0  0  0  0  0  0  0  0  0
   11.6003   20.8432   36.8879 C   0  0  1  0  0  0  0  0  0  0  0  0
   10.0350   19.7532   33.6027 O   0  0  0  0  0  0  0  0  0  0  0  0
   13.0030   20.9836   36.2920 C   0  0  1  0  0  0  0  0  0  0  0  0
    7.8974   20.7435   33.7532 O   0  0  0  0  0  0  0  0  0  0  0  0
   12.9332   21.7142   34.9493 C   0  0  0  0  0  0  0  0  0  0  0  0
    7.3913   20.9528   30.1107 O   0  0  0  0  0  0  0  0  0  0  0  0
   12.0622   20.9086   33.9832 C   0  0  1  0  0  0  0  0  0  0  0  0
    7.5595   18.1169   30.5386 O   0  0  0  0  0  0  0  0  0  0  0  0
   10.6681   20.6245   34.5529 C   0  0  2  0  0  0  0  0  0  0  0  0
   10.6189   17.4358   37.6289 O   0  0  0  0  0  0  0  0  0  0  0  0
    8.6441   19.5177   33.8660 C   0  0  1  0  0  0  0  0  0  0  0  0
    8.3041   15.9401   37.2365 O   0  0  0  0  0  0  0  0  0  0  0  0
    7.9334   21.3455   32.4477 C   0  0  2  0  0  0  0  0  0  0  0  0
    7.1303   22.6480   32.4851 C   0  0  0  0  0  0  0  0  0  0  0  0
    7.3327   20.3794   31.4204 C   0  0  2  0  0  0  0  0  0  0  0  0
    8.1283   19.0725   31.4397 C   0  0  1  0  0  0  0  0  0  0  0  0
    8.1353   18.4867   32.8535 C   0  0  1  0  0  0  0  0  0  0  0  0
    9.3484   18.0466   37.8743 C   0  0  2  0  0  0  0  0  0  0  0  0
    8.2602   17.0178   38.1755 C   0  0  1  0  0  0  0  0  0  0  0  0
  3  1  1  0  0  0  0
  4  1  1  1  0  0  0
  4  6  1  0  0  0  0
  4 31  1  0  0  0  0
  6  7  1  0  0  0  0
  7  9  1  1  0  0  0
  7 30  1  0  0  0  0
 10  9  1  1  0  0  0
 10 13  1  0  0  0  0
 10 21  1  0  0  0  0
 13 12  1  1  0  0  0
 13 15  1  0  0  0  0
 15  2  1  1  0  0  0
 15 17  1  0  0  0  0
 16 25  1  0  0  0  0
 17 19  1  0  0  0  0
 19  5  1  6  0  0  0
 19 21  1  0  0  0  0
 21 14  1  6  0  0  0
 23 14  1  6  0  0  0
 23 16  1  0  0  0  0
 23 29  1  0  0  0  0
 25 26  1  1  0  0  0
 25 27  1  0  0  0  0
 26  8  1  0  0  0  0
 27 18  1  6  0  0  0
 27 28  1  0  0  0  0
 28 20  1  6  0  0  0
 28 29  1  0  0  0  0
 29 11  1  6  0  0  0
 30 22  1  6  0  0  0
 30 31  1  0  0  0  0
 31 24  1  6  0  0  0
M  END
>  <CHROM.1>
69.67290269,-167.70383971,-127.49990092,63.56391618,63.87036996,172.99748461
9.18940135,19.72602223,35.00293930,1.41386749,0.44084416,1.95781330

>  <Name>
2fcz_lig

>  <RI>
0

>  <Rbt.Current_Directory>
/home/itssahil/PROJECTS/Mol_Feturizer/New_Systems/rnas/2fcz

>  <Rbt.Executable>
rbdock ($Id: //depot/dev/client3/rdock/2013.1/src/exe/rbdock.cxx#4 $)

>  <Rbt.Library>
libRbt.so (2013.1, Build901 2013/11/27)

>  <Rbt.Parameter_File>
/export/apps/rDock/src/rDock_2013.1_src/data/scripts/dock_solv.prm

>  <Rbt.Receptor>
prm/pocket_docking_5.prm

>  <SCORE>
-22.6856

>  <SCORE.INTER>
-22.2515

>  <SCORE.INTER.CONST>
1

>  <SCORE.INTER.POLAR>
-2.7025

>  <SCORE.INTER.ROT>
6

>  <SCORE.INTER.SOLV>
17.0007

>  <SCORE.INTER.VDW>
-19.0929

>  <SCORE.INTER.norm>
-0.717789

>  <SCORE.INTRA>
-0.43415

>  <SCORE.INTRA.DIHEDRAL>
-2.4186

>  <SCORE.INTRA.DIHEDRAL.0>
10.8409

>  <SCORE.INTRA.POLAR>
0

>  <SCORE.INTRA.POLAR.0>
0

>  <SCORE.INTRA.REPUL>
0.00422075

>  <SCORE.INTRA.REPUL.0>
0

>  <SCORE.INTRA.SOLV>
-2.08956

>  <SCORE.INTRA.SOLV.lig_0>
-80.8302

>  <SCORE.INTRA.VDW>
1.79883

>  <SCORE.INTRA.VDW.0>
-4.23953

>  <SCORE.INTRA.norm>
-0.0140048

>  <SCORE.RESTR>
0

>  <SCORE.RESTR.CAVITY>
0

>  <SCORE.RESTR.norm>
0

>  <SCORE.SYSTEM>
0

>  <SCORE.SYSTEM.CONST>
0

>  <SCORE.SYSTEM.DIHEDRAL>
0

>  <SCORE.SYSTEM.SOLV>
0

>  <SCORE.SYSTEM.norm>
0

>  <SCORE.heavy>
31

>  <SCORE.norm>
-0.731794

>  <RMSD>
1.993

$$$$
2fcz_lig
 OpenBabel11021811433D
libRbt.so/2013.1/901 2013/11/27
 31 33  0  0  0  0  0  0  0  0999 V2000
    7.9591   15.8508   37.5824 C   0  0  0  0  0  0  0  0  0  0  0  0
   13.1767   21.8802   36.9109 N   0  0  0  0  0  0  0  0  0  0  0  0
    8.9749   16.6930   38.1338 O   0  0  0  0  0  0  0  0  0  0  0  0
    7.8581   16.0875   36.0716 C   0  0  1  0  0  0  0  0  0  0  0  0
   10.6815   22.8624   32.8175 N   0  0  0  0  0  0  0  0  0  0  0  0
    7.6451   17.4800   35.7632 O   0  0  0  0  0  0  0  0  0  0  0  0
    8.8435   18.0357   35.1863 C   0  0  1  0  0  0  0  0  0  0  0  0
    6.0631   23.8197   31.5938 N   0  0  0  0  0  0  0  0  0  0  0  0
    9.1842   19.3162   35.7443 O   0  0  0  0  0  0  0  0  0  0  0  0
   10.3874   19.8928   35.2088 C   0  0  2  0  0  0  0  0  0  0  0  0
    8.9773   17.9475   31.5814 N   0  0  0  0  0  0  0  0  0  0  0  0
   11.6276   19.5348   37.2551 O   0  0  0  0  0  0  0  0  0  0  0  0
   11.1828   20.5450   36.3465 C   0  0  1  0  0  0  0  0  0  0  0  0
    9.5059   20.3034   32.9465 O   0  0  0  0  0  0  0  0  0  0  0  0
   12.4016   21.2973   35.8070 C   0  0  1  0  0  0  0  0  0  0  0  0
    7.2138   20.7447   33.2988 O   0  0  0  0  0  0  0  0  0  0  0  0
   11.9546   22.4073   34.8532 C   0  0  0  0  0  0  0  0  0  0  0  0
    6.5555   21.7780   29.8251 O   0  0  0  0  0  0  0  0  0  0  0  0
   11.1955   21.7859   33.6791 C   0  0  1  0  0  0  0  0  0  0  0  0
    7.3313   19.0305   29.5048 O   0  0  0  0  0  0  0  0  0  0  0  0
   10.0186   20.9185   34.1388 C   0  0  2  0  0  0  0  0  0  0  0  0
   11.0623   17.0863   34.6474 O   0  0  0  0  0  0  0  0  0  0  0  0
    8.2053   19.7186   33.1066 C   0  0  1  0  0  0  0  0  0  0  0  0
    8.9484   15.3966   33.9953 O   0  0  0  0  0  0  0  0  0  0  0  0
    7.0793   21.6577   32.1959 C   0  0  2  0  0  0  0  0  0  0  0  0
    6.0215   22.7053   32.5517 C   0  0  0  0  0  0  0  0  0  0  0  0
    6.6621   20.8861   30.9389 C   0  0  2  0  0  0  0  0  0  0  0  0
    7.7154   19.8181   30.6365 C   0  0  1  0  0  0  0  0  0  0  0  0
    7.8920   18.9014   31.8492 C   0  0  1  0  0  0  0  0  0  0  0  0
    9.9336   17.0173   35.5241 C   0  0  2  0  0  0  0  0  0  0  0  0
    9.1640   15.7063   35.3746 C   0  0  1  0  0  0  0  0  0  0  0  0
  3  1  1  0  0  0  0
  4  1  1  1  0  0  0
  4  6  1  0  0  0  0
  4 31  1  0  0  0  0
  6  7  1  0  0  0  0
  7  9  1  1  0  0  0
  7 30  1  0  0  0  0
 10  9  1  1  0  0  0
 10 13  1  0  0  0  0
 10 21  1  0  0  0  0
 13 12  1  1  0  0  0
 13 15  1  0  0  0  0
 15  2  1  1  0  0  0
 15 17  1  0  0  0  0
 16 25  1  0  0  0  0
 17 19  1  0  0  0  0
 19  5  1  6  0  0  0
 19 21  1  0  0  0  0
 21 14  1  6  0  0  0
 23 14  1  6  0  0  0
 23 16  1  0  0  0  0
 23 29  1  0  0  0  0
 25 26  1  1  0  0  0
 25 27  1  0  0  0  0
 26  8  1  0  0  0  0
 27 18  1  6  0  0  0
 27 28  1  0  0  0  0
 28 20  1  6  0  0  0
 28 29  1  0  0  0  0
 29 11  1  6  0  0  0
 30 22  1  6  0  0  0
 30 31  1  0  0  0  0
 31 24  1  6  0  0  0
M  END
>  <CHROM.1>
-54.71788802,179.02897013,-139.47674043,70.14769887,68.67605058,167.44405808
9.06246127,19.55004551,34.03904124,1.00556872,0.77232857,2.61984068

>  <Name>
2fcz_lig

>  <RI>
3.41297e+07

>  <Rbt.Current_Directory>
/home/itssahil/PROJECTS/Mol_Feturizer/New_Systems/rnas/2fcz

>  <Rbt.Executable>
rbdock ($Id: //depot/dev/client3/rdock/2013.1/src/exe/rbdock.cxx#4 $)

>  <Rbt.Library>
libRbt.so (2013.1, Build901 2013/11/27)

>  <Rbt.Parameter_File>
/export/apps/rDock/src/rDock_2013.1_src/data/scripts/dock_solv.prm

>  <Rbt.Receptor>
prm/pocket_docking_2.prm

>  <SCORE>
-13.3382

>  <SCORE.INTER>
-14.0386

>  <SCORE.INTER.CONST>
1

>  <SCORE.INTER.POLAR>
-0.959166

>  <SCORE.INTER.ROT>
6

>  <SCORE.INTER.SOLV>
16.5537

>  <SCORE.INTER.VDW>
-19.2797

>  <SCORE.INTER.norm>
-0.452857

>  <SCORE.INTRA>
0.632486

>  <SCORE.INTRA.DIHEDRAL>
-3.70256

>  <SCORE.INTRA.DIHEDRAL.0>
10.8409

>  <SCORE.INTRA.POLAR>
0

>  <SCORE.INTRA.POLAR.0>
0

>  <SCORE.INTRA.REPUL>
0

>  <SCORE.INTRA.REPUL.0>
0

>  <SCORE.INTRA.SOLV>
0.278828

>  <SCORE.INTRA.SOLV.lig_0>
-80.8302

>  <SCORE.INTRA.VDW>
2.34435

>  <SCORE.INTRA.VDW.0>
-4.23953

>  <SCORE.INTRA.norm>
0.0204028

>  <SCORE.RESTR>
0.0679021

>  <SCORE.RESTR.CAVITY>
0.0679021

>  <SCORE.RESTR.norm>
0.00219039

>  <SCORE.SYSTEM>
0

>  <SCORE.SYSTEM.CONST>
0

>  <SCORE.SYSTEM.DIHEDRAL>
0

>  <SCORE.SYSTEM.SOLV>
0

>  <SCORE.SYSTEM.norm>
0

>  <SCORE.heavy>
31

>  <SCORE.norm>
-0.430263

>  <RMSD>
2.019

$$$$
2fcz_lig
 OpenBabel11021811433D
libRbt.so/2013.1/901 2013/11/27
 31 33  0  0  0  0  0  0  0  0999 V2000
   11.6815   16.8038   39.1249 C   0  0  0  0  0  0  0  0  0  0  0  0
   13.9082   22.6616   36.2527 N   0  0  0  0  0  0  0  0  0  0  0  0
   10.9985   16.0110   40.0998 O   0  0  0  0  0  0  0  0  0  0  0  0
   10.9338   18.1258   38.9208 C   0  0  1  0  0  0  0  0  0  0  0  0
    9.8381   22.8300   33.5410 N   0  0  0  0  0  0  0  0  0  0  0  0
   11.4950   18.8940   37.8370 O   0  0  0  0  0  0  0  0  0  0  0  0
   10.5913   18.8767   36.7142 C   0  0  1  0  0  0  0  0  0  0  0  0
    5.4315   22.1298   32.3977 N   0  0  0  0  0  0  0  0  0  0  0  0
   11.2625   18.6295   35.4670 O   0  0  0  0  0  0  0  0  0  0  0  0
   11.7912   19.8085   34.8367 C   0  0  2  0  0  0  0  0  0  0  0  0
    9.2797   17.4770   32.3909 N   0  0  0  0  0  0  0  0  0  0  0  0
   13.7642   19.8336   36.2370 O   0  0  0  0  0  0  0  0  0  0  0  0
   12.6171   20.5988   35.8593 C   0  0  1  0  0  0  0  0  0  0  0  0
   10.0037   20.0419   33.1592 O   0  0  0  0  0  0  0  0  0  0  0  0
   13.0832   21.9354   35.2774 C   0  0  1  0  0  0  0  0  0  0  0  0
    7.7581   20.7593   33.2823 O   0  0  0  0  0  0  0  0  0  0  0  0
   11.8745   22.7910   34.8915 C   0  0  0  0  0  0  0  0  0  0  0  0
    7.2889   20.9494   29.6338 O   0  0  0  0  0  0  0  0  0  0  0  0
   11.0509   22.0506   33.8358 C   0  0  1  0  0  0  0  0  0  0  0  0
    7.7988   18.1509   30.0356 O   0  0  0  0  0  0  0  0  0  0  0  0
   10.6359   20.6492   34.2969 C   0  0  2  0  0  0  0  0  0  0  0  0
    8.3769   17.8426   36.3372 O   0  0  0  0  0  0  0  0  0  0  0  0
    8.6485   19.6336   33.3956 C   0  0  1  0  0  0  0  0  0  0  0  0
    8.6472   18.9889   38.8595 O   0  0  0  0  0  0  0  0  0  0  0  0
    7.7407   21.3772   31.9839 C   0  0  2  0  0  0  0  0  0  0  0  0
    6.7825   22.5703   32.0205 C   0  0  0  0  0  0  0  0  0  0  0  0
    7.2804   20.3572   30.9364 C   0  0  2  0  0  0  0  0  0  0  0  0
    8.2307   19.1581   30.9562 C   0  0  1  0  0  0  0  0  0  0  0  0
    8.2871   18.5603   32.3639 C   0  0  1  0  0  0  0  0  0  0  0  0
    9.6288   17.7281   37.0206 C   0  0  2  0  0  0  0  0  0  0  0  0
    9.4771   17.8708   38.5339 C   0  0  1  0  0  0  0  0  0  0  0  0
  3  1  1  0  0  0  0
  4  1  1  6  0  0  0
  4  6  1  0  0  0  0
  4 31  1  0  0  0  0
  6  7  1  0  0  0  0
  7  9  1  6  0  0  0
  7 30  1  0  0  0  0
 10  9  1  1  0  0  0
 10 13  1  0  0  0  0
 10 21  1  0  0  0  0
 13 12  1  6  0  0  0
 13 15  1  0  0  0  0
 15  2  1  1  0  0  0
 15 17  1  0  0  0  0
 16 25  1  0  0  0  0
 17 19  1  0  0  0  0
 19  5  1  1  0  0  0
 19 21  1  0  0  0  0
 21 14  1  6  0  0  0
 23 14  1  6  0  0  0
 23 16  1  0  0  0  0
 23 29  1  0  0  0  0
 25 26  1  1  0  0  0
 25 27  1  0  0  0  0
 26  8  1  0  0  0  0
 27 18  1  6  0  0  0
 27 28  1  0  0  0  0
 28 20  1  6  0  0  0
 28 29  1  0  0  0  0
 29 11  1  6  0  0  0
 30 22  1  6  0  0  0
 30 31  1  0  0  0  0
 31 24  1  6  0  0  0
M  END
>  <CHROM.1>
-173.32520578,-86.10614230,50.26284017,114.11025548,80.77215722,-58.73461246
9.86693179,19.77479911,34.74532441,0.95369682,0.64028777,2.29318155

>  <Name>
2fcz_lig

>  <RI>
3.41297e+07

>  <Rbt.Current_Directory>
/home/itssahil/PROJECTS/Mol_Feturizer/New_Systems/rnas/2fcz

>  <Rbt.Executable>
rbdock ($Id: //depot/dev/client3/rdock/2013.1/src/exe/rbdock.cxx#4 $)

>  <Rbt.Library>
libRbt.so (2013.1, Build901 2013/11/27)

>  <Rbt.Parameter_File>
/export/apps/rDock/src/rDock_2013.1_src/data/scripts/dock_solv.prm

>  <Rbt.Receptor>
prm/pocket_docking_2.prm

>  <SCORE>
-8.27846

>  <SCORE.INTER>
-12.3439

>  <SCORE.INTER.CONST>
1

>  <SCORE.INTER.POLAR>
-1.57897

>  <SCORE.INTER.ROT>
6

>  <SCORE.INTER.SOLV>
19.4624

>  <SCORE.INTER.VDW>
-17.0535

>  <SCORE.INTER.norm>
-0.398189

>  <SCORE.INTRA>
3.0245

>  <SCORE.INTRA.DIHEDRAL>
1.58456

>  <SCORE.INTRA.DIHEDRAL.0>
10.8409

>  <SCORE.INTRA.POLAR>
0

>  <SCORE.INTRA.POLAR.0>
0

>  <SCORE.INTRA.REPUL>
0

>  <SCORE.INTRA.REPUL.0>
0

>  <SCORE.INTRA.SOLV>
0.955798

>  <SCORE.INTRA.SOLV.lig_0>
-80.8302

>  <SCORE.INTRA.VDW>
1.75432

>  <SCORE.INTRA.VDW.0>
-4.23953

>  <SCORE.INTRA.norm>
0.0975644

>  <SCORE.RESTR>
1.04091

>  <SCORE.RESTR.CAVITY>
1.04091

>  <SCORE.RESTR.norm>
0.0335779

>  <SCORE.SYSTEM>
0

>  <SCORE.SYSTEM.CONST>
0

>  <SCORE.SYSTEM.DIHEDRAL>
0

>  <SCORE.SYSTEM.SOLV>
0

>  <SCORE.SYSTEM.norm>
0

>  <SCORE.heavy>
31

>  <SCORE.norm>
-0.267047

>  <RMSD>
2.054

$$$$
2fcz_lig
 OpenBabel11021811433D
libRbt.so/2013.1/901 2013/11/27
 31 33  0  0  0  0  0  0  0  0999 V2000
    9.8636   15.4031   38.2554 C   0  0  0  0  0  0  0  0  0  0  0  0
   14.6460   22.3581   36.2344 N   0  0  0  0  0  0  0  0  0  0  0  0
    9.0300   16.5249   37.9519 O   0  0  0  0  0  0  0  0  0  0  0  0
   11.3242   15.8574   38.3493 C   0  0  1  0  0  0  0  0  0  0  0  0
   11.5156   21.6431   32.5416 N   0  0  0  0  0  0  0  0  0  0  0  0
   11.7418   16.5589   37.1605 O   0  0  0  0  0  0  0  0  0  0  0  0
   11.8902   17.9622   37.4550 C   0  0  1  0  0  0  0  0  0  0  0  0
    7.3211   21.5175   33.1910 N   0  0  0  0  0  0  0  0  0  0  0  0
   11.2997   18.8041   36.4502 O   0  0  0  0  0  0  0  0  0  0  0  0
   12.2507   19.4481   35.5854 C   0  0  2  0  0  0  0  0  0  0  0  0
   10.9490   16.2649   33.3100 N   0  0  0  0  0  0  0  0  0  0  0  0
   13.7759   19.9289   37.4010 O   0  0  0  0  0  0  0  0  0  0  0  0
   12.9905   20.5368   36.3726 C   0  0  1  0  0  0  0  0  0  0  0  0
   11.0318   19.0317   33.4867 O   0  0  0  0  0  0  0  0  0  0  0  0
   13.9127   21.3479   35.4593 C   0  0  1  0  0  0  0  0  0  0  0  0
    8.6874   19.1994   33.7064 O   0  0  0  0  0  0  0  0  0  0  0  0
   13.0952   22.0367   34.3643 C   0  0  0  0  0  0  0  0  0  0  0  0
    7.9880   18.4870   30.1609 O   0  0  0  0  0  0  0  0  0  0  0  0
   12.3783   20.9744   33.5285 C   0  0  1  0  0  0  0  0  0  0  0  0
    9.2194   16.0447   31.0397 O   0  0  0  0  0  0  0  0  0  0  0  0
   11.5153   20.0421   34.3856 C   0  0  2  0  0  0  0  0  0  0  0  0
   11.5913   19.3030   39.5111 O   0  0  0  0  0  0  0  0  0  0  0  0
    9.8414   18.3708   33.9401 C   0  0  1  0  0  0  0  0  0  0  0  0
   12.8669   16.8687   39.9539 O   0  0  0  0  0  0  0  0  0  0  0  0
    8.4418   19.5028   32.3224 C   0  0  2  0  0  0  0  0  0  0  0  0
    7.2131   20.4110   32.2291 C   0  0  0  0  0  0  0  0  0  0  0  0
    8.2023   18.2025   31.5467 C   0  0  2  0  0  0  0  0  0  0  0  0
    9.4279   17.2989   31.6971 C   0  0  1  0  0  0  0  0  0  0  0  0
    9.7119   17.0472   33.1796 C   0  0  1  0  0  0  0  0  0  0  0  0
   11.1567   18.1498   38.7840 C   0  0  2  0  0  0  0  0  0  0  0  0
   11.5113   16.8473   39.4989 C   0  0  1  0  0  0  0  0  0  0  0  0
  3  1  1  0  0  0  0
  4  1  1  6  0  0  0
  4  6  1  0  0  0  0
  4 31  1  0  0  0  0
  6  7  1  0  0  0  0
  7  9  1  6  0  0  0
  7 30  1  0  0  0  0
 10  9  1  1  0  0  0
 10 13  1  0  0  0  0
 10 21  1  0  0  0  0
 13 12  1  1  0  0  0
 13 15  1  0  0  0  0
 15  2  1  1  0  0  0
 15 17  1  0  0  0  0
 16 25  1  0  0  0  0
 17 19  1  0  0  0  0
 19  5  1  6  0  0  0
 19 21  1  0  0  0  0
 21 14  1  6  0  0  0
 23 14  1  6  0  0  0
 23 16  1  0  0  0  0
 23 29  1  0  0  0  0
 25 26  1  1  0  0  0
 25 27  1  0  0  0  0
 26  8  1  0  0  0  0
 27 18  1  6  0  0  0
 27 28  1  0  0  0  0
 28 20  1  6  0  0  0
 28 29  1  0  0  0  0
 29 11  1  6  0  0  0
 30 22  1  1  0  0  0
 30 31  1  0  0  0  0
 31 24  1  6  0  0  0
M  END
>  <CHROM.1>
-54.19465054,-105.37470970,-71.30588904,77.56769537,78.23099942,47.91870130
10.83950218,18.74459720,35.15504561,0.85055139,0.81914086,2.26676479

>  <Name>
2fcz_lig

>  <RI>
0

>  <Rbt.Current_Directory>
/home/itssahil/PROJECTS/Mol_Feturizer/New_Systems/rnas/2fcz

>  <Rbt.Executable>
rbdock ($Id: //depot/dev/client3/rdock/2013.1/src/exe/rbdock.cxx#4 $)

>  <Rbt.Library>
libRbt.so (2013.1, Build901 2013/11/27)

>  <Rbt.Parameter_File>
/export/apps/rDock/src/rDock_2013.1_src/data/scripts/dock_solv.prm

>  <Rbt.Receptor>
prm/pocket_docking_5.prm

>  <SCORE>
-18.6727

>  <SCORE.INTER>
-19.0755

>  <SCORE.INTER.CONST>
1

>  <SCORE.INTER.POLAR>
-2.64674

>  <SCORE.INTER.ROT>
6

>  <SCORE.INTER.SOLV>
14.0722

>  <SCORE.INTER.VDW>
-16.1853

>  <SCORE.INTER.norm>
-0.615339

>  <SCORE.INTRA>
0.402823

>  <SCORE.INTRA.DIHEDRAL>
-0.434218

>  <SCORE.INTRA.DIHEDRAL.0>
10.8409

>  <SCORE.INTRA.POLAR>
0

>  <SCORE.INTRA.POLAR.0>
0

>  <SCORE.INTRA.REPUL>
0

>  <SCORE.INTRA.REPUL.0>
0

>  <SCORE.INTRA.SOLV>
-1.66193

>  <SCORE.INTRA.SOLV.lig_0>
-80.8302

>  <SCORE.INTRA.VDW>
1.4509

>  <SCORE.INTRA.VDW.0>
-4.23953

>  <SCORE.INTRA.norm>
0.0129943

>  <SCORE.RESTR>
0

>  <SCORE.RESTR.CAVITY>
0

>  <SCORE.RESTR.norm>
0

>  <SCORE.SYSTEM>
0

>  <SCORE.SYSTEM.CONST>
0

>  <SCORE.SYSTEM.DIHEDRAL>
0

>  <SCORE.SYSTEM.SOLV>
0

>  <SCORE.SYSTEM.norm>
0

>  <SCORE.heavy>
31

>  <SCORE.norm>
-0.602344

>  <RMSD>
2.069

$$$$
2fcz_lig
 OpenBabel11021811433D
libRbt.so/2013.1/901 2013/11/27
 31 33  0  0  0  0  0  0  0  0999 V2000
   10.8906   16.1380   38.4743 C   0  0  0  0  0  0  0  0  0  0  0  0
   13.7358   21.7208   36.2253 N   0  0  0  0  0  0  0  0  0  0  0  0
   12.3197   16.1865   38.5037 O   0  0  0  0  0  0  0  0  0  0  0  0
   10.3277   17.5629   38.4395 C   0  0  1  0  0  0  0  0  0  0  0  0
    9.9794   22.8049   33.2822 N   0  0  0  0  0  0  0  0  0  0  0  0
   10.9047   18.3382   37.3692 O   0  0  0  0  0  0  0  0  0  0  0  0
    9.9204   18.5431   36.3363 C   0  0  1  0  0  0  0  0  0  0  0  0
    5.9543   23.5557   31.9787 N   0  0  0  0  0  0  0  0  0  0  0  0
   10.4462   18.3156   35.0176 O   0  0  0  0  0  0  0  0  0  0  0  0
   11.2313   19.4026   34.4989 C   0  0  2  0  0  0  0  0  0  0  0  0
    9.0340   17.8457   31.1786 N   0  0  0  0  0  0  0  0  0  0  0  0
   13.0659   18.9773   36.0178 O   0  0  0  0  0  0  0  0  0  0  0  0
   12.1133   19.9664   35.6198 C   0  0  1  0  0  0  0  0  0  0  0  0
    9.6471   20.0602   32.7320 O   0  0  0  0  0  0  0  0  0  0  0  0
   12.8631   21.2173   35.1557 C   0  0  1  0  0  0  0  0  0  0  0  0
    7.3885   20.4111   33.3222 O   0  0  0  0  0  0  0  0  0  0  0  0
   11.8678   22.3072   34.7514 C   0  0  0  0  0  0  0  0  0  0  0  0
    6.4168   21.7808   30.0438 O   0  0  0  0  0  0  0  0  0  0  0  0
   10.9997   21.7936   33.6009 C   0  0  1  0  0  0  0  0  0  0  0  0
    7.1990   19.0989   29.3738 O   0  0  0  0  0  0  0  0  0  0  0  0
   10.2967   20.4757   33.9437 C   0  0  2  0  0  0  0  0  0  0  0  0
    7.5568   17.8598   36.0884 O   0  0  0  0  0  0  0  0  0  0  0  0
    8.3734   19.4328   32.9403 C   0  0  1  0  0  0  0  0  0  0  0  0
    8.1922   18.7339   38.6539 O   0  0  0  0  0  0  0  0  0  0  0  0
    7.1463   21.4293   32.3360 C   0  0  2  0  0  0  0  0  0  0  0  0
    6.1093   22.4107   32.8878 C   0  0  0  0  0  0  0  0  0  0  0  0
    6.6319   20.7818   31.0454 C   0  0  2  0  0  0  0  0  0  0  0  0
    7.6693   19.7745   30.5447 C   0  0  1  0  0  0  0  0  0  0  0  0
    7.9632   18.7423   31.6357 C   0  0  1  0  0  0  0  0  0  0  0  0
    8.8300   17.5153   36.6432 C   0  0  2  0  0  0  0  0  0  0  0  0
    8.8230   17.5451   38.1704 C   0  0  1  0  0  0  0  0  0  0  0  0
  3  1  1  0  0  0  0
  4  1  1  6  0  0  0
  4  6  1  0  0  0  0
  4 31  1  0  0  0  0
  6  7  1  0  0  0  0
  7  9  1  6  0  0  0
  7 30  1  0  0  0  0
 10  9  1  1  0  0  0
 10 13  1  0  0  0  0
 10 21  1  0  0  0  0
 13 12  1  6  0  0  0
 13 15  1  0  0  0  0
 15  2  1  1  0  0  0
 15 17  1  0  0  0  0
 16 25  1  0  0  0  0
 17 19  1  0  0  0  0
 19  5  1  1  0  0  0
 19 21  1  0  0  0  0
 21 14  1  6  0  0  0
 23 14  1  6  0  0  0
 23 16  1  0  0  0  0
 23 29  1  0  0  0  0
 25 26  1  1  0  0  0
 25 27  1  0  0  0  0
 26  8  1  0  0  0  0
 27 18  1  6  0  0  0
 27 28  1  0  0  0  0
 28 20  1  6  0  0  0
 28 29  1  0  0  0  0
 29 11  1  6  0  0  0
 30 22  1  6  0  0  0
 30 31  1  0  0  0  0
 31 24  1  6  0  0  0
M  END
>  <CHROM.1>
52.97242939,-78.68259488,40.67706557,91.96955942,72.87708028,173.14180570
9.47199830,19.67183875,34.42888900,0.97545798,0.49662316,2.32585556

>  <Name>
2fcz_lig

>  <RI>
3.41297e+07

>  <Rbt.Current_Directory>
/home/itssahil/PROJECTS/Mol_Feturizer/New_Systems/rnas/2fcz

>  <Rbt.Executable>
rbdock ($Id: //depot/dev/client3/rdock/2013.1/src/exe/rbdock.cxx#4 $)

>  <Rbt.Library>
libRbt.so (2013.1, Build901 2013/11/27)

>  <Rbt.Parameter_File>
/export/apps/rDock/src/rDock_2013.1_src/data/scripts/dock_solv.prm

>  <Rbt.Receptor>
prm/pocket_docking_2.prm

>  <SCORE>
-11.1916

>  <SCORE.INTER>
-13.3456

>  <SCORE.INTER.CONST>
1

>  <SCORE.INTER.POLAR>
-1.5513

>  <SCORE.INTER.ROT>
6

>  <SCORE.INTER.SOLV>
16.3012

>  <SCORE.INTER.VDW>
-16.7598

>  <SCORE.INTER.norm>
-0.430504

>  <SCORE.INTRA>
1.64586

>  <SCORE.INTRA.DIHEDRAL>
-2.41641

>  <SCORE.INTRA.DIHEDRAL.0>
10.8409

>  <SCORE.INTRA.POLAR>
0

>  <SCORE.INTRA.POLAR.0>
0

>  <SCORE.INTRA.REPUL>
0

>  <SCORE.INTRA.REPUL.0>
0

>  <SCORE.INTRA.SOLV>
-0.474323

>  <SCORE.INTRA.SOLV.lig_0>
-80.8302

>  <SCORE.INTRA.VDW>
3.09123

>  <SCORE.INTRA.VDW.0>
-4.23953

>  <SCORE.INTRA.norm>
0.0530923

>  <SCORE.RESTR>
0.508149

>  <SCORE.RESTR.CAVITY>
0.508149

>  <SCORE.RESTR.norm>
0.0163919

>  <SCORE.SYSTEM>
0

>  <SCORE.SYSTEM.CONST>
0

>  <SCORE.SYSTEM.DIHEDRAL>
0

>  <SCORE.SYSTEM.SOLV>
0

>  <SCORE.SYSTEM.norm>
0

>  <SCORE.heavy>
31

>  <SCORE.norm>
-0.36102

>  <RMSD>
2.081

$$$$
2fcz_lig
 OpenBabel11021811433D
libRbt.so/2013.1/901 2013/11/27
 31 33  0  0  0  0  0  0  0  0999 V2000
   10.8605   18.4918   39.7539 C   0  0  0  0  0  0  0  0  0  0  0  0
   13.8567   23.9727   35.4688 N   0  0  0  0  0  0  0  0  0  0  0  0
   11.4972   17.5247   40.5934 O   0  0  0  0  0  0  0  0  0  0  0  0
   10.4318   17.8302   38.4397 C   0  0  1  0  0  0  0  0  0  0  0  0
   10.8950   22.5574   31.8394 N   0  0  0  0  0  0  0  0  0  0  0  0
    9.6945   18.7414   37.5997 O   0  0  0  0  0  0  0  0  0  0  0  0
   10.5066   19.1229   36.4716 C   0  0  1  0  0  0  0  0  0  0  0  0
    6.9779   23.0774   32.5510 N   0  0  0  0  0  0  0  0  0  0  0  0
   10.4634   20.5363   36.2111 O   0  0  0  0  0  0  0  0  0  0  0  0
   11.4613   20.9971   35.2844 C   0  0  2  0  0  0  0  0  0  0  0  0
   10.0667   17.4216   33.2048 N   0  0  0  0  0  0  0  0  0  0  0  0
   12.9050   21.8198   37.0429 O   0  0  0  0  0  0  0  0  0  0  0  0
   12.1757   22.2170   35.8791 C   0  0  1  0  0  0  0  0  0  0  0  0
   10.3374   20.1817   33.2507 O   0  0  0  0  0  0  0  0  0  0  0  0
   13.1490   22.8322   34.8709 C   0  0  1  0  0  0  0  0  0  0  0  0
    8.0172   20.5166   33.5283 O   0  0  0  0  0  0  0  0  0  0  0  0
   12.3917   23.2959   33.6246 C   0  0  0  0  0  0  0  0  0  0  0  0
    7.1622   19.6963   30.0406 O   0  0  0  0  0  0  0  0  0  0  0  0
   11.7027   22.0924   32.9782 C   0  0  1  0  0  0  0  0  0  0  0  0
    8.2564   17.2180   30.9967 O   0  0  0  0  0  0  0  0  0  0  0  0
   10.7898   21.3470   33.9578 C   0  0  2  0  0  0  0  0  0  0  0  0
   12.7942   18.5218   35.7500 O   0  0  0  0  0  0  0  0  0  0  0  0
    9.1207   19.6233   33.7676 C   0  0  1  0  0  0  0  0  0  0  0  0
   11.3321   16.3559   36.7095 O   0  0  0  0  0  0  0  0  0  0  0  0
    7.7491   20.7741   32.1391 C   0  0  2  0  0  0  0  0  0  0  0  0
    6.5808   21.7579   32.0384 C   0  0  0  0  0  0  0  0  0  0  0  0
    7.4003   19.4598   31.4316 C   0  0  2  0  0  0  0  0  0  0  0  0
    8.5677   18.4832   31.5891 C   0  0  1  0  0  0  0  0  0  0  0  0
    8.8805   18.2790   33.0732 C   0  0  1  0  0  0  0  0  0  0  0  0
   11.9252   18.7132   36.8706 C   0  0  2  0  0  0  0  0  0  0  0  0
   11.6523   17.4107   37.6205 C   0  0  1  0  0  0  0  0  0  0  0  0
  3  1  1  0  0  0  0
  4  1  1  1  0  0  0
  4  6  1  0  0  0  0
  4 31  1  0  0  0  0
  6  7  1  0  0  0  0
  7  9  1  1  0  0  0
  7 30  1  0  0  0  0
 10  9  1  1  0  0  0
 10 13  1  0  0  0  0
 10 21  1  0  0  0  0
 13 12  1  1  0  0  0
 13 15  1  0  0  0  0
 15  2  1  1  0  0  0
 15 17  1  0  0  0  0
 16 25  1  0  0  0  0
 17 19  1  0  0  0  0
 19  5  1  6  0  0  0
 19 21  1  0  0  0  0
 21 14  1  6  0  0  0
 23 14  1  6  0  0  0
 23 16  1  0  0  0  0
 23 29  1  0  0  0  0
 25 26  1  1  0  0  0
 25 27  1  0  0  0  0
 26  8  1  0  0  0  0
 27 18  1  6  0  0  0
 27 28  1  0  0  0  0
 28 20  1  1  0  0  0
 28 29  1  0  0  0  0
 29 11  1  6  0  0  0
 30 22  1  6  0  0  0
 30 31  1  0  0  0  0
 31 24  1  6  0  0  0
M  END
>  <CHROM.1>
175.64451438,167.73105860,-130.80117694,77.47305051,67.96173792,67.62570109
10.30415822,19.98942515,34.68891441,0.78387644,0.82631841,2.43769616

>  <Name>
2fcz_lig

>  <RI>
2.29611e+07

>  <Rbt.Current_Directory>
/home/itssahil/PROJECTS/Mol_Feturizer/New_Systems/rnas/2fcz

>  <Rbt.Executable>
rbdock ($Id: //depot/dev/client3/rdock/2013.1/src/exe/rbdock.cxx#4 $)

>  <Rbt.Library>
libRbt.so (2013.1, Build901 2013/11/27)

>  <Rbt.Parameter_File>
/export/apps/rDock/src/rDock_2013.1_src/data/scripts/dock_solv.prm

>  <Rbt.Receptor>
prm/pocket_docking_3.prm

>  <SCORE>
-19.7135

>  <SCORE.INTER>
-19.6492

>  <SCORE.INTER.CONST>
1

>  <SCORE.INTER.POLAR>
-1.81931

>  <SCORE.INTER.ROT>
6

>  <SCORE.INTER.SOLV>
14.6456

>  <SCORE.INTER.VDW>
-19.517

>  <SCORE.INTER.norm>
-0.633846

>  <SCORE.INTRA>
-0.0642469

>  <SCORE.INTRA.DIHEDRAL>
-1.39857

>  <SCORE.INTRA.DIHEDRAL.0>
10.8409

>  <SCORE.INTRA.POLAR>
0

>  <SCORE.INTRA.POLAR.0>
0

>  <SCORE.INTRA.REPUL>
0

>  <SCORE.INTRA.REPUL.0>
0

>  <SCORE.INTRA.SOLV>
-1.0248

>  <SCORE.INTRA.SOLV.lig_0>
-80.8302

>  <SCORE.INTRA.VDW>
1.14744

>  <SCORE.INTRA.VDW.0>
-4.23953

>  <SCORE.INTRA.norm>
-0.00207248

>  <SCORE.RESTR>
0

>  <SCORE.RESTR.CAVITY>
0

>  <SCORE.RESTR.norm>
0

>  <SCORE.SYSTEM>
0

>  <SCORE.SYSTEM.CONST>
0

>  <SCORE.SYSTEM.DIHEDRAL>
0

>  <SCORE.SYSTEM.SOLV>
0

>  <SCORE.SYSTEM.norm>
0

>  <SCORE.heavy>
31

>  <SCORE.norm>
-0.635919

>  <RMSD>
2.132

$$$$
2fcz_lig
 OpenBabel11021811433D
libRbt.so/2013.1/901 2013/11/27
 31 33  0  0  0  0  0  0  0  0999 V2000
    9.8162   15.3218   38.1618 C   0  0  0  0  0  0  0  0  0  0  0  0
   14.7591   22.1805   36.2368 N   0  0  0  0  0  0  0  0  0  0  0  0
    9.4171   14.6608   39.3657 O   0  0  0  0  0  0  0  0  0  0  0  0
   11.2780   15.7665   38.2790 C   0  0  1  0  0  0  0  0  0  0  0  0
   11.5532   21.6542   32.5772 N   0  0  0  0  0  0  0  0  0  0  0  0
   11.7118   16.4865   37.1072 O   0  0  0  0  0  0  0  0  0  0  0  0
   11.8644   17.8835   37.4277 C   0  0  1  0  0  0  0  0  0  0  0  0
    7.3292   21.6230   33.3131 N   0  0  0  0  0  0  0  0  0  0  0  0
   11.2889   18.7461   36.4316 O   0  0  0  0  0  0  0  0  0  0  0  0
   12.2505   19.3727   35.5658 C   0  0  2  0  0  0  0  0  0  0  0  0
   10.7982   16.2847   33.2603 N   0  0  0  0  0  0  0  0  0  0  0  0
   13.8175   19.7612   37.3679 O   0  0  0  0  0  0  0  0  0  0  0  0
   13.0404   20.4178   36.3634 C   0  0  1  0  0  0  0  0  0  0  0  0
   10.9879   19.0433   33.4775 O   0  0  0  0  0  0  0  0  0  0  0  0
   13.9786   21.2134   35.4528 C   0  0  1  0  0  0  0  0  0  0  0  0
    8.6537   19.2965   33.7225 O   0  0  0  0  0  0  0  0  0  0  0  0
   13.1715   21.9534   34.3839 C   0  0  0  0  0  0  0  0  0  0  0  0
    7.8953   18.6656   30.1736 O   0  0  0  0  0  0  0  0  0  0  0  0
   12.4048   20.9349   33.5379 C   0  0  1  0  0  0  0  0  0  0  0  0
    9.0408   16.1652   31.0038 O   0  0  0  0  0  0  0  0  0  0  0  0
   11.5205   20.0171   34.3891 C   0  0  2  0  0  0  0  0  0  0  0  0
   11.5505   19.1899   39.5037 O   0  0  0  0  0  0  0  0  0  0  0  0
    9.7774   18.4212   33.9325 C   0  0  1  0  0  0  0  0  0  0  0  0
   12.8087   16.7413   39.9173 O   0  0  0  0  0  0  0  0  0  0  0  0
    8.4072   19.6301   32.3456 C   0  0  2  0  0  0  0  0  0  0  0  0
    7.2132   20.5856   32.2779 C   0  0  0  0  0  0  0  0  0  0  0  0
    8.1113   18.3520   31.5529 C   0  0  2  0  0  0  0  0  0  0  0  0
    9.3029   17.4003   31.6778 C   0  0  1  0  0  0  0  0  0  0  0  0
    9.5907   17.1153   33.1536 C   0  0  1  0  0  0  0  0  0  0  0  0
   11.1178   18.0518   38.7520 C   0  0  2  0  0  0  0  0  0  0  0  0
   11.4580   16.7352   39.4477 C   0  0  1  0  0  0  0  0  0  0  0  0
  3  1  1  0  0  0  0
  4  1  1  6  0  0  0
  4  6  1  0  0  0  0
  4 31  1  0  0  0  0
  6  7  1  0  0  0  0
  7  9  1  6  0  0  0
  7 30  1  0  0  0  0
 10  9  1  1  0  0  0
 10 13  1  0  0  0  0
 10 21  1  0  0  0  0
 13 12  1  1  0  0  0
 13 15  1  0  0  0  0
 15  2  1  1  0  0  0
 15 17  1  0  0  0  0
 16 25  1  0  0  0  0
 17 19  1  0  0  0  0
 19  5  1  6  0  0  0
 19 21  1  0  0  0  0
 21 14  1  6  0  0  0
 23 14  1  6  0  0  0
 23 16  1  0  0  0  0
 23 29  1  0  0  0  0
 25 26  1  1  0  0  0
 25 27  1  0  0  0  0
 26  8  1  0  0  0  0
 27 18  1  6  0  0  0
 27 28  1  0  0  0  0
 28 20  1  6  0  0  0
 28 29  1  0  0  0  0
 29 11  1  6  0  0  0
 30 22  1  1  0  0  0
 30 31  1  0  0  0  0
 31 24  1  6  0  0  0
M  END
>  <CHROM.1>
-177.71033503,-103.82764179,-70.14237754,77.83761553,78.45187846,44.28720433
10.82511823,18.66294876,35.19642525,0.94963464,0.79214553,2.28002097

>  <Name>
2fcz_lig

>  <RI>
0

>  <Rbt.Current_Directory>
/home/itssahil/PROJECTS/Mol_Feturizer/New_Systems/rnas/2fcz

>  <Rbt.Executable>
rbdock ($Id: //depot/dev/client3/rdock/2013.1/src/exe/rbdock.cxx#4 $)

>  <Rbt.Library>
libRbt.so (2013.1, Build901 2013/11/27)

>  <Rbt.Parameter_File>
/export/apps/rDock/src/rDock_2013.1_src/data/scripts/dock_solv.prm

>  <Rbt.Receptor>
prm/pocket_docking_5.prm

>  <SCORE>
-19.1632

>  <SCORE.INTER>
-19.3537

>  <SCORE.INTER.CONST>
1

>  <SCORE.INTER.POLAR>
-2.73125

>  <SCORE.INTER.ROT>
6

>  <SCORE.INTER.SOLV>
13.8365

>  <SCORE.INTER.VDW>
-16.0104

>  <SCORE.INTER.norm>
-0.624312

>  <SCORE.INTRA>
0.190441

>  <SCORE.INTRA.DIHEDRAL>
-0.454561

>  <SCORE.INTRA.DIHEDRAL.0>
10.8409

>  <SCORE.INTRA.POLAR>
0

>  <SCORE.INTRA.POLAR.0>
0

>  <SCORE.INTRA.REPUL>
0

>  <SCORE.INTRA.REPUL.0>
0

>  <SCORE.INTRA.SOLV>
-2.29736

>  <SCORE.INTRA.SOLV.lig_0>
-80.8302

>  <SCORE.INTRA.VDW>
1.5664

>  <SCORE.INTRA.VDW.0>
-4.23953

>  <SCORE.INTRA.norm>
0.00614326

>  <SCORE.RESTR>
0

>  <SCORE.RESTR.CAVITY>
0

>  <SCORE.RESTR.norm>
0

>  <SCORE.SYSTEM>
0

>  <SCORE.SYSTEM.CONST>
0

>  <SCORE.SYSTEM.DIHEDRAL>
0

>  <SCORE.SYSTEM.SOLV>
0

>  <SCORE.SYSTEM.norm>
0

>  <SCORE.heavy>
31

>  <SCORE.norm>
-0.618169

>  <RMSD>
2.136

$$$$
2fcz_lig
 OpenBabel11021811433D
libRbt.so/2013.1/901 2013/11/27
 31 33  0  0  0  0  0  0  0  0999 V2000
   10.7547   18.3684   39.7663 C   0  0  0  0  0  0  0  0  0  0  0  0
   14.3290   23.7903   35.3413 N   0  0  0  0  0  0  0  0  0  0  0  0
   11.6821   19.4409   39.5792 O   0  0  0  0  0  0  0  0  0  0  0  0
   10.3545   17.7903   38.4046 C   0  0  1  0  0  0  0  0  0  0  0  0
   11.2540   22.3508   31.8173 N   0  0  0  0  0  0  0  0  0  0  0  0
    9.7684   18.7938   37.5508 O   0  0  0  0  0  0  0  0  0  0  0  0
   10.6889   19.1248   36.4921 C   0  0  1  0  0  0  0  0  0  0  0  0
    5.9849   21.7937   33.3200 N   0  0  0  0  0  0  0  0  0  0  0  0
   10.8012   20.5422   36.2791 O   0  0  0  0  0  0  0  0  0  0  0  0
   11.8040   20.9180   35.3198 C   0  0  2  0  0  0  0  0  0  0  0  0
   10.0770   17.3477   33.2051 N   0  0  0  0  0  0  0  0  0  0  0  0
   13.3086   21.7518   37.0212 O   0  0  0  0  0  0  0  0  0  0  0  0
   12.5797   22.1298   35.8507 C   0  0  1  0  0  0  0  0  0  0  0  0
   10.6151   20.0654   33.3390 O   0  0  0  0  0  0  0  0  0  0  0  0
   13.5634   22.6572   34.8036 C   0  0  1  0  0  0  0  0  0  0  0  0
    8.3457   20.6111   33.6920 O   0  0  0  0  0  0  0  0  0  0  0  0
   12.8082   23.0993   33.5483 C   0  0  0  0  0  0  0  0  0  0  0  0
    7.3312   20.0067   30.2029 O   0  0  0  0  0  0  0  0  0  0  0  0
   12.0579   21.9005   32.9646 C   0  0  1  0  0  0  0  0  0  0  0  0
    8.2027   17.4010   31.0421 O   0  0  0  0  0  0  0  0  0  0  0  0
   11.1284   21.2393   33.9881 C   0  0  2  0  0  0  0  0  0  0  0  0
   12.9511   18.3201   35.9005 O   0  0  0  0  0  0  0  0  0  0  0  0
    9.3628   19.6077   33.8696 C   0  0  1  0  0  0  0  0  0  0  0  0
   11.2233   16.2838   36.6861 O   0  0  0  0  0  0  0  0  0  0  0  0
    8.0704   20.9445   32.3205 C   0  0  2  0  0  0  0  0  0  0  0  0
    7.0009   22.0391   32.2862 C   0  0  0  0  0  0  0  0  0  0  0  0
    7.5788   19.6970   31.5778 C   0  0  2  0  0  0  0  0  0  0  0  0
    8.6494   18.6076   31.6691 C   0  0  1  0  0  0  0  0  0  0  0  0
    8.9767   18.3193   33.1360 C   0  0  1  0  0  0  0  0  0  0  0  0
   12.0304   18.5650   36.9681 C   0  0  2  0  0  0  0  0  0  0  0  0
   11.5816   17.2752   37.6524 C   0  0  1  0  0  0  0  0  0  0  0  0
  3  1  1  0  0  0  0
  4  1  1  1  0  0  0
  4  6  1  0  0  0  0
  4 31  1  0  0  0  0
  6  7  1  0  0  0  0
  7  9  1  1  0  0  0
  7 30  1  0  0  0  0
 10  9  1  1  0  0  0
 10 13  1  0  0  0  0
 10 21  1  0  0  0  0
 13 12  1  1  0  0  0
 13 15  1  0  0  0  0
 15  2  1  1  0  0  0
 15 17  1  0  0  0  0
 16 25  1  0  0  0  0
 17 19  1  0  0  0  0
 19  5  1  6  0  0  0
 19 21  1  0  0  0  0
 21 14  1  6  0  0  0
 23 14  1  6  0  0  0
 23 16  1  0  0  0  0
 23 29  1  0  0  0  0
 25 26  1  1  0  0  0
 25 27  1  0  0  0  0
 26  8  1  0  0  0  0
 27 18  1  6  0  0  0
 27 28  1  0  0  0  0
 28 20  1  1  0  0  0
 28 29  1  0  0  0  0
 29 11  1  6  0  0  0
 30 22  1  6  0  0  0
 30 31  1  0  0  0  0
 31 24  1  6  0  0  0
M  END
>  <CHROM.1>
-58.29192076,174.34252591,-137.24500173,79.25648368,61.96548844,-39.14865133
10.47307410,19.99709086,34.71789027,0.72969069,0.73410565,2.33582571

>  <Name>
2fcz_lig

>  <RI>
2.29611e+07

>  <Rbt.Current_Directory>
/home/itssahil/PROJECTS/Mol_Feturizer/New_Systems/rnas/2fcz

>  <Rbt.Executable>
rbdock ($Id: //depot/dev/client3/rdock/2013.1/src/exe/rbdock.cxx#4 $)

>  <Rbt.Library>
libRbt.so (2013.1, Build901 2013/11/27)

>  <Rbt.Parameter_File>
/export/apps/rDock/src/rDock_2013.1_src/data/scripts/dock_solv.prm

>  <Rbt.Receptor>
prm/pocket_docking_3.prm

>  <SCORE>
-22.7866

>  <SCORE.INTER>
-23.4245

>  <SCORE.INTER.CONST>
1

>  <SCORE.INTER.POLAR>
-3.26348

>  <SCORE.INTER.ROT>
6

>  <SCORE.INTER.SOLV>
18.9799

>  <SCORE.INTER.VDW>
-18.6647

>  <SCORE.INTER.norm>
-0.755628

>  <SCORE.INTRA>
0.637904

>  <SCORE.INTRA.DIHEDRAL>
-1.61475

>  <SCORE.INTRA.DIHEDRAL.0>
10.8409

>  <SCORE.INTRA.POLAR>
0

>  <SCORE.INTRA.POLAR.0>
0

>  <SCORE.INTRA.REPUL>
0

>  <SCORE.INTRA.REPUL.0>
0

>  <SCORE.INTRA.SOLV>
0.245827

>  <SCORE.INTRA.SOLV.lig_0>
-80.8302

>  <SCORE.INTRA.VDW>
1.32237

>  <SCORE.INTRA.VDW.0>
-4.23953

>  <SCORE.INTRA.norm>
0.0205775

>  <SCORE.RESTR>
0

>  <SCORE.RESTR.CAVITY>
0

>  <SCORE.RESTR.norm>
0

>  <SCORE.SYSTEM>
0

>  <SCORE.SYSTEM.CONST>
0

>  <SCORE.SYSTEM.DIHEDRAL>
0

>  <SCORE.SYSTEM.SOLV>
0

>  <SCORE.SYSTEM.norm>
0

>  <SCORE.heavy>
31

>  <SCORE.norm>
-0.73505

>  <RMSD>
2.154

$$$$
2fcz_lig
 OpenBabel11021811433D
libRbt.so/2013.1/901 2013/11/27
 31 33  0  0  0  0  0  0  0  0999 V2000
   10.9271   18.5860   39.8595 C   0  0  0  0  0  0  0  0  0  0  0  0
   13.8882   23.9672   35.4506 N   0  0  0  0  0  0  0  0  0  0  0  0
   11.5756   17.6725   40.7486 O   0  0  0  0  0  0  0  0  0  0  0  0
   10.5627   17.8655   38.5569 C   0  0  1  0  0  0  0  0  0  0  0  0
   10.8975   22.5118   31.8610 N   0  0  0  0  0  0  0  0  0  0  0  0
    9.8099   18.7170   37.6693 O   0  0  0  0  0  0  0  0  0  0  0  0
   10.6351   19.0981   36.5505 C   0  0  1  0  0  0  0  0  0  0  0  0
    7.0238   23.0206   32.5134 N   0  0  0  0  0  0  0  0  0  0  0  0
   10.5385   20.4994   36.2434 O   0  0  0  0  0  0  0  0  0  0  0  0
   11.5205   20.9674   35.3034 C   0  0  2  0  0  0  0  0  0  0  0  0
   10.1196   17.3735   33.2685 N   0  0  0  0  0  0  0  0  0  0  0  0
   12.9769   21.8096   37.0421 O   0  0  0  0  0  0  0  0  0  0  0  0
   12.2298   22.1960   35.8860 C   0  0  1  0  0  0  0  0  0  0  0  0
   10.3806   20.1348   33.2857 O   0  0  0  0  0  0  0  0  0  0  0  0
   13.1848   22.8179   34.8644 C   0  0  1  0  0  0  0  0  0  0  0  0
    8.0586   20.4645   33.5552 O   0  0  0  0  0  0  0  0  0  0  0  0
   12.4081   23.2703   33.6260 C   0  0  0  0  0  0  0  0  0  0  0  0
    7.2135   19.6044   30.0747 O   0  0  0  0  0  0  0  0  0  0  0  0
   11.7234   22.0582   32.9913 C   0  0  1  0  0  0  0  0  0  0  0  0
    8.3144   17.1402   31.0590 O   0  0  0  0  0  0  0  0  0  0  0  0
   10.8298   21.3067   33.9840 C   0  0  2  0  0  0  0  0  0  0  0  0
   12.9649   18.5751   35.9075 O   0  0  0  0  0  0  0  0  0  0  0  0
    9.1648   19.5777   33.8060 C   0  0  1  0  0  0  0  0  0  0  0  0
   11.5715   16.3786   36.8990 O   0  0  0  0  0  0  0  0  0  0  0  0
    7.7925   20.7063   32.1628 C   0  0  2  0  0  0  0  0  0  0  0  0
    6.6210   21.6850   32.0495 C   0  0  0  0  0  0  0  0  0  0  0  0
    7.4496   19.3835   31.4685 C   0  0  2  0  0  0  0  0  0  0  0  0
    8.6201   18.4127   31.6387 C   0  0  1  0  0  0  0  0  0  0  0  0
    8.9307   18.2252   33.1254 C   0  0  1  0  0  0  0  0  0  0  0  0
   12.0587   18.7634   36.9987 C   0  0  2  0  0  0  0  0  0  0  0  0
   11.8217   17.4743   37.7832 C   0  0  1  0  0  0  0  0  0  0  0  0
  3  1  1  0  0  0  0
  4  1  1  1  0  0  0
  4  6  1  0  0  0  0
  4 31  1  0  0  0  0
  6  7  1  0  0  0  0
  7  9  1  1  0  0  0
  7 30  1  0  0  0  0
 10  9  1  1  0  0  0
 10 13  1  0  0  0  0
 10 21  1  0  0  0  0
 13 12  1  1  0  0  0
 13 15  1  0  0  0  0
 15  2  1  1  0  0  0
 15 17  1  0  0  0  0
 16 25  1  0  0  0  0
 17 19  1  0  0  0  0
 19  5  1  6  0  0  0
 19 21  1  0  0  0  0
 21 14  1  6  0  0  0
 23 14  1  6  0  0  0
 23 16  1  0  0  0  0
 23 29  1  0  0  0  0
 25 26  1  1  0  0  0
 25 27  1  0  0  0  0
 26  8  1  0  0  0  0
 27 18  1  6  0  0  0
 27 28  1  0  0  0  0
 28 20  1  1  0  0  0
 28 29  1  0  0  0  0
 29 11  1  6  0  0  0
 30 22  1  6  0  0  0
 30 31  1  0  0  0  0
 31 24  1  6  0  0  0
M  END
>  <CHROM.1>
175.34598947,169.14169981,-128.29276173,78.36754222,68.14815893,69.21996017
10.37653387,19.97037092,34.74335613,0.77279146,0.82740697,2.43070803

>  <Name>
2fcz_lig

>  <RI>
0

>  <Rbt.Current_Directory>
/home/itssahil/PROJECTS/Mol_Feturizer/New_Systems/rnas/2fcz

>  <Rbt.Executable>
rbdock ($Id: //depot/dev/client3/rdock/2013.1/src/exe/rbdock.cxx#4 $)

>  <Rbt.Library>
libRbt.so (2013.1, Build901 2013/11/27)

>  <Rbt.Parameter_File>
/export/apps/rDock/src/rDock_2013.1_src/data/scripts/dock_solv.prm

>  <Rbt.Receptor>
prm/pocket_docking_5.prm

>  <SCORE>
-20.0364

>  <SCORE.INTER>
-19.9463

>  <SCORE.INTER.CONST>
1

>  <SCORE.INTER.POLAR>
-1.82409

>  <SCORE.INTER.ROT>
6

>  <SCORE.INTER.SOLV>
14.3685

>  <SCORE.INTER.VDW>
-19.6067

>  <SCORE.INTER.norm>
-0.643429

>  <SCORE.INTRA>
-0.0900831

>  <SCORE.INTRA.DIHEDRAL>
-1.07045

>  <SCORE.INTRA.DIHEDRAL.0>
10.8409

>  <SCORE.INTRA.POLAR>
0

>  <SCORE.INTRA.POLAR.0>
0

>  <SCORE.INTRA.REPUL>
0

>  <SCORE.INTRA.REPUL.0>
0

>  <SCORE.INTRA.SOLV>
-1.23711

>  <SCORE.INTRA.SOLV.lig_0>
-80.8302

>  <SCORE.INTRA.VDW>
1.06369

>  <SCORE.INTRA.VDW.0>
-4.23953

>  <SCORE.INTRA.norm>
-0.00290591

>  <SCORE.RESTR>
0

>  <SCORE.RESTR.CAVITY>
0

>  <SCORE.RESTR.norm>
0

>  <SCORE.SYSTEM>
0

>  <SCORE.SYSTEM.CONST>
0

>  <SCORE.SYSTEM.DIHEDRAL>
0

>  <SCORE.SYSTEM.SOLV>
0

>  <SCORE.SYSTEM.norm>
0

>  <SCORE.heavy>
31

>  <SCORE.norm>
-0.646335

>  <RMSD>
2.190

$$$$
2fcz_lig
 OpenBabel11021811433D
libRbt.so/2013.1/901 2013/11/27
 31 33  0  0  0  0  0  0  0  0999 V2000
   11.0354   18.6394   39.9634 C   0  0  0  0  0  0  0  0  0  0  0  0
   13.7931   24.0032   35.4367 N   0  0  0  0  0  0  0  0  0  0  0  0
    9.8991   18.6552   40.8317 O   0  0  0  0  0  0  0  0  0  0  0  0
   10.6915   17.8771   38.6792 C   0  0  1  0  0  0  0  0  0  0  0  0
   10.7815   22.4448   31.9084 N   0  0  0  0  0  0  0  0  0  0  0  0
    9.8994   18.6786   37.7793 O   0  0  0  0  0  0  0  0  0  0  0  0
   10.7012   19.0682   36.6466 C   0  0  1  0  0  0  0  0  0  0  0  0
    7.0813   23.0141   32.4757 N   0  0  0  0  0  0  0  0  0  0  0  0
   10.5465   20.4576   36.3105 O   0  0  0  0  0  0  0  0  0  0  0  0
   11.5006   20.9431   35.3509 C   0  0  2  0  0  0  0  0  0  0  0  0
   10.0196   17.3124   33.3526 N   0  0  0  0  0  0  0  0  0  0  0  0
   12.9636   21.8354   37.0589 O   0  0  0  0  0  0  0  0  0  0  0  0
   12.1879   22.1939   35.9127 C   0  0  1  0  0  0  0  0  0  0  0  0
   10.3491   20.0665   33.3586 O   0  0  0  0  0  0  0  0  0  0  0  0
   13.1096   22.8320   34.8708 C   0  0  1  0  0  0  0  0  0  0  0  0
    8.0269   20.4561   33.5280 O   0  0  0  0  0  0  0  0  0  0  0  0
   12.3012   23.2550   33.6423 C   0  0  0  0  0  0  0  0  0  0  0  0
    7.3061   19.5859   30.0222 O   0  0  0  0  0  0  0  0  0  0  0  0
   11.6373   22.0211   33.0280 C   0  0  1  0  0  0  0  0  0  0  0  0
    8.3027   17.1041   31.0714 O   0  0  0  0  0  0  0  0  0  0  0  0
   10.7797   21.2547   34.0409 C   0  0  2  0  0  0  0  0  0  0  0  0
   13.0457   18.6248   35.9974 O   0  0  0  0  0  0  0  0  0  0  0  0
    9.0990   19.5444   33.8321 C   0  0  1  0  0  0  0  0  0  0  0  0
   11.7480   16.3963   37.0457 O   0  0  0  0  0  0  0  0  0  0  0  0
    7.8252   20.6919   32.1238 C   0  0  2  0  0  0  0  0  0  0  0  0
    6.6844   21.6983   31.9537 C   0  0  0  0  0  0  0  0  0  0  0  0
    7.4784   19.3717   31.4264 C   0  0  2  0  0  0  0  0  0  0  0  0
    8.6159   18.3737   31.6532 C   0  0  1  0  0  0  0  0  0  0  0  0
    8.8595   18.1921   33.1531 C   0  0  1  0  0  0  0  0  0  0  0  0
   12.1399   18.8002   37.0911 C   0  0  2  0  0  0  0  0  0  0  0  0
   11.9599   17.5199   37.9045 C   0  0  1  0  0  0  0  0  0  0  0  0
  3  1  1  0  0  0  0
  4  1  1  1  0  0  0
  4  6  1  0  0  0  0
  4 31  1  0  0  0  0
  6  7  1  0  0  0  0
  7  9  1  1  0  0  0
  7 30  1  0  0  0  0
 10  9  1  1  0  0  0
 10 13  1  0  0  0  0
 10 21  1  0  0  0  0
 13 12  1  1  0  0  0
 13 15  1  0  0  0  0
 15  2  1  1  0  0  0
 15 17  1  0  0  0  0
 16 25  1  0  0  0  0
 17 19  1  0  0  0  0
 19  5  1  6  0  0  0
 19 21  1  0  0  0  0
 21 14  1  6  0  0  0
 23 14  1  6  0  0  0
 23 16  1  0  0  0  0
 23 29  1  0  0  0  0
 25 26  1  1  0  0  0
 25 27  1  0  0  0  0
 26  8  1  0  0  0  0
 27 18  1  6  0  0  0
 27 28  1  0  0  0  0
 28 20  1  1  0  0  0
 28 29  1  0  0  0  0
 29 11  1  6  0  0  0
 30 22  1  6  0  0  0
 30 31  1  0  0  0  0
 31 24  1  6  0  0  0
M  END
>  <CHROM.1>
77.59623214,169.29545057,-127.08909990,83.19647089,66.49933785,66.82929802
10.32448665,19.99527882,34.78308303,0.80016166,0.84506500,2.37316597

>  <Name>
2fcz_lig

>  <RI>
0

>  <Rbt.Current_Directory>
/home/itssahil/PROJECTS/Mol_Feturizer/New_Systems/rnas/2fcz

>  <Rbt.Executable>
rbdock ($Id: //depot/dev/client3/rdock/2013.1/src/exe/rbdock.cxx#4 $)

>  <Rbt.Library>
libRbt.so (2013.1, Build901 2013/11/27)

>  <Rbt.Parameter_File>
/export/apps/rDock/src/rDock_2013.1_src/data/scripts/dock_solv.prm

>  <Rbt.Receptor>
prm/pocket_docking_5.prm

>  <SCORE>
-19.3771

>  <SCORE.INTER>
-19.9808

>  <SCORE.INTER.CONST>
1

>  <SCORE.INTER.POLAR>
-1.83095

>  <SCORE.INTER.ROT>
6

>  <SCORE.INTER.SOLV>
14.607

>  <SCORE.INTER.VDW>
-19.6864

>  <SCORE.INTER.norm>
-0.644541

>  <SCORE.INTRA>
0.60363

>  <SCORE.INTRA.DIHEDRAL>
0.51682

>  <SCORE.INTRA.DIHEDRAL.0>
10.8409

>  <SCORE.INTRA.POLAR>
0

>  <SCORE.INTRA.POLAR.0>
0

>  <SCORE.INTRA.REPUL>
0

>  <SCORE.INTRA.REPUL.0>
0

>  <SCORE.INTRA.SOLV>
-1.07284

>  <SCORE.INTRA.SOLV.lig_0>
-80.8302

>  <SCORE.INTRA.VDW>
0.881639

>  <SCORE.INTRA.VDW.0>
-4.23953

>  <SCORE.INTRA.norm>
0.019472

>  <SCORE.RESTR>
0

>  <SCORE.RESTR.CAVITY>
0

>  <SCORE.RESTR.norm>
0

>  <SCORE.SYSTEM>
0

>  <SCORE.SYSTEM.CONST>
0

>  <SCORE.SYSTEM.DIHEDRAL>
0

>  <SCORE.SYSTEM.SOLV>
0

>  <SCORE.SYSTEM.norm>
0

>  <SCORE.heavy>
31

>  <SCORE.norm>
-0.625069

>  <RMSD>
2.193

$$$$
2fcz_lig
 OpenBabel11021811433D
libRbt.so/2013.1/901 2013/11/27
 31 33  0  0  0  0  0  0  0  0999 V2000
   10.7643   18.5403   40.0649 C   0  0  0  0  0  0  0  0  0  0  0  0
   14.2333   24.0235   35.4631 N   0  0  0  0  0  0  0  0  0  0  0  0
    9.5130   18.5201   40.7574 O   0  0  0  0  0  0  0  0  0  0  0  0
   10.6086   17.8606   38.7003 C   0  0  1  0  0  0  0  0  0  0  0  0
   11.1261   22.4296   32.0350 N   0  0  0  0  0  0  0  0  0  0  0  0
   10.0019   18.7407   37.7324 O   0  0  0  0  0  0  0  0  0  0  0  0
   10.9906   19.1531   36.7679 C   0  0  1  0  0  0  0  0  0  0  0  0
    6.0469   21.7289   33.2633 N   0  0  0  0  0  0  0  0  0  0  0  0
   10.9405   20.5632   36.4921 O   0  0  0  0  0  0  0  0  0  0  0  0
   11.8844   21.0055   35.5020 C   0  0  2  0  0  0  0  0  0  0  0  0
   10.2229   17.3627   33.5318 N   0  0  0  0  0  0  0  0  0  0  0  0
   13.3963   21.9148   37.1577 O   0  0  0  0  0  0  0  0  0  0  0  0
   12.6050   22.2575   36.0173 C   0  0  1  0  0  0  0  0  0  0  0  0
   10.6787   20.0986   33.5558 O   0  0  0  0  0  0  0  0  0  0  0  0
   13.5178   22.8508   34.9415 C   0  0  1  0  0  0  0  0  0  0  0  0
    8.3799   20.5926   33.7661 O   0  0  0  0  0  0  0  0  0  0  0  0
   12.6936   23.2565   33.7177 C   0  0  0  0  0  0  0  0  0  0  0  0
    7.5646   19.7887   30.2652 O   0  0  0  0  0  0  0  0  0  0  0  0
   11.9956   22.0195   33.1491 C   0  0  1  0  0  0  0  0  0  0  0  0
    8.4625   17.2543   31.2770 O   0  0  0  0  0  0  0  0  0  0  0  0
   11.1440   21.2961   34.1980 C   0  0  2  0  0  0  0  0  0  0  0  0
   13.3931   18.6429   36.4803 O   0  0  0  0  0  0  0  0  0  0  0  0
    9.4136   19.6300   34.0450 C   0  0  1  0  0  0  0  0  0  0  0  0
   11.8662   16.4215   37.1756 O   0  0  0  0  0  0  0  0  0  0  0  0
    8.1671   20.8503   32.3674 C   0  0  2  0  0  0  0  0  0  0  0  0
    7.0712   21.9094   32.2244 C   0  0  0  0  0  0  0  0  0  0  0  0
    7.7490   19.5539   31.6646 C   0  0  2  0  0  0  0  0  0  0  0  0
    8.8429   18.5028   31.8644 C   0  0  1  0  0  0  0  0  0  0  0  0
    9.1015   18.2964   33.3586 C   0  0  1  0  0  0  0  0  0  0  0  0
   12.3275   18.8008   37.4221 C   0  0  2  0  0  0  0  0  0  0  0  0
   11.9735   17.4893   38.1207 C   0  0  1  0  0  0  0  0  0  0  0  0
  3  1  1  0  0  0  0
  4  1  1  1  0  0  0
  4  6  1  0  0  0  0
  4 31  1  0  0  0  0
  6  7  1  0  0  0  0
  7  9  1  1  0  0  0
  7 30  1  0  0  0  0
 10  9  1  1  0  0  0
 10 13  1  0  0  0  0
 10 21  1  0  0  0  0
 13 12  1  1  0  0  0
 13 15  1  0  0  0  0
 15  2  1  1  0  0  0
 15 17  1  0  0  0  0
 16 25  1  0  0  0  0
 17 19  1  0  0  0  0
 19  5  1  6  0  0  0
 19 21  1  0  0  0  0
 21 14  1  6  0  0  0
 23 14  1  6  0  0  0
 23 16  1  0  0  0  0
 23 29  1  0  0  0  0
 25 26  1  1  0  0  0
 25 27  1  0  0  0  0
 26  8  1  0  0  0  0
 27 18  1  6  0  0  0
 27 28  1  0  0  0  0
 28 20  1  1  0  0  0
 28 29  1  0  0  0  0
 29 11  1  6  0  0  0
 30 22  1  6  0  0  0
 30 31  1  0  0  0  0
 31 24  1  6  0  0  0
M  END
>  <CHROM.1>
79.54914910,-178.11481268,-132.78184461,84.57662387,63.70365478,-36.06286570
10.52627740,20.01046971,34.96423778,0.87253376,0.73507751,2.25288465

>  <Name>
2fcz_lig

>  <RI>
0

>  <Rbt.Current_Directory>
/home/itssahil/PROJECTS/Mol_Feturizer/New_Systems/rnas/2fcz

>  <Rbt.Executable>
rbdock ($Id: //depot/dev/client3/rdock/2013.1/src/exe/rbdock.cxx#4 $)

>  <Rbt.Library>
libRbt.so (2013.1, Build901 2013/11/27)

>  <Rbt.Parameter_File>
/export/apps/rDock/src/rDock_2013.1_src/data/scripts/dock_solv.prm

>  <Rbt.Receptor>
prm/pocket_docking_6.prm

>  <SCORE>
-18.0917

>  <SCORE.INTER>
-18.9896

>  <SCORE.INTER.CONST>
1

>  <SCORE.INTER.POLAR>
-2.31275

>  <SCORE.INTER.ROT>
6

>  <SCORE.INTER.SOLV>
18.5309

>  <SCORE.INTER.VDW>
-18.7275

>  <SCORE.INTER.norm>
-0.612566

>  <SCORE.INTRA>
0.897884

>  <SCORE.INTRA.DIHEDRAL>
1.43599

>  <SCORE.INTRA.DIHEDRAL.0>
10.8409

>  <SCORE.INTRA.POLAR>
0

>  <SCORE.INTRA.POLAR.0>
0

>  <SCORE.INTRA.REPUL>
0

>  <SCORE.INTRA.REPUL.0>
0

>  <SCORE.INTRA.SOLV>
-0.79257

>  <SCORE.INTRA.SOLV.lig_0>
-80.8302

>  <SCORE.INTRA.VDW>
0.576176

>  <SCORE.INTRA.VDW.0>
-4.23953

>  <SCORE.INTRA.norm>
0.028964

>  <SCORE.RESTR>
0

>  <SCORE.RESTR.CAVITY>
0

>  <SCORE.RESTR.norm>
0

>  <SCORE.SYSTEM>
0

>  <SCORE.SYSTEM.CONST>
0

>  <SCORE.SYSTEM.DIHEDRAL>
0

>  <SCORE.SYSTEM.SOLV>
0

>  <SCORE.SYSTEM.norm>
0

>  <SCORE.heavy>
31

>  <SCORE.norm>
-0.583602

>  <RMSD>
2.214

$$$$
2fcz_lig
 OpenBabel11021811433D
libRbt.so/2013.1/901 2013/11/27
 31 33  0  0  0  0  0  0  0  0999 V2000
   10.8176   18.5646   40.0600 C   0  0  0  0  0  0  0  0  0  0  0  0
   14.2200   24.0000   35.4950 N   0  0  0  0  0  0  0  0  0  0  0  0
    9.5780   18.5398   40.7729 O   0  0  0  0  0  0  0  0  0  0  0  0
   10.6474   17.8657   38.7068 C   0  0  1  0  0  0  0  0  0  0  0  0
   11.1178   22.4746   32.0313 N   0  0  0  0  0  0  0  0  0  0  0  0
   10.0115   18.7252   37.7391 O   0  0  0  0  0  0  0  0  0  0  0  0
   10.9772   19.1389   36.7522 C   0  0  1  0  0  0  0  0  0  0  0  0
    6.0350   21.7197   33.3194 N   0  0  0  0  0  0  0  0  0  0  0  0
   10.9026   20.5446   36.4599 O   0  0  0  0  0  0  0  0  0  0  0  0
   11.8533   20.9957   35.4803 C   0  0  2  0  0  0  0  0  0  0  0  0
   10.2520   17.3794   33.5138 N   0  0  0  0  0  0  0  0  0  0  0  0
   13.3635   21.8718   37.1552 O   0  0  0  0  0  0  0  0  0  0  0  0
   12.5791   22.2358   36.0167 C   0  0  1  0  0  0  0  0  0  0  0  0
   10.6505   20.1243   33.5162 O   0  0  0  0  0  0  0  0  0  0  0  0
   13.4998   22.8392   34.9534 C   0  0  1  0  0  0  0  0  0  0  0  0
    8.3441   20.5715   33.7474 O   0  0  0  0  0  0  0  0  0  0  0  0
   12.6831   23.2676   33.7323 C   0  0  0  0  0  0  0  0  0  0  0  0
    7.5097   19.7283   30.2602 O   0  0  0  0  0  0  0  0  0  0  0  0
   11.9802   22.0431   33.1428 C   0  0  1  0  0  0  0  0  0  0  0  0
    8.4710   17.2198   31.2783 O   0  0  0  0  0  0  0  0  0  0  0  0
   11.1200   21.3096   34.1776 C   0  0  2  0  0  0  0  0  0  0  0  0
   13.3811   18.6581   36.4281 O   0  0  0  0  0  0  0  0  0  0  0  0
    9.4006   19.6325   34.0214 C   0  0  1  0  0  0  0  0  0  0  0  0
   11.8978   16.4249   37.1778 O   0  0  0  0  0  0  0  0  0  0  0  0
    8.1114   20.8158   32.3495 C   0  0  2  0  0  0  0  0  0  0  0  0
    6.9922   21.8508   32.2114 C   0  0  0  0  0  0  0  0  0  0  0  0
    7.7134   19.5064   31.6591 C   0  0  2  0  0  0  0  0  0  0  0  0
    8.8312   18.4797   31.8539 C   0  0  1  0  0  0  0  0  0  0  0  0
    9.1094   18.2883   33.3466 C   0  0  1  0  0  0  0  0  0  0  0  0
   12.3303   18.8132   37.3868 C   0  0  2  0  0  0  0  0  0  0  0  0
   12.0069   17.5058   38.1076 C   0  0  1  0  0  0  0  0  0  0  0  0
  3  1  1  0  0  0  0
  4  1  1  1  0  0  0
  4  6  1  0  0  0  0
  4 31  1  0  0  0  0
  6  7  1  0  0  0  0
  7  9  1  1  0  0  0
  7 30  1  0  0  0  0
 10  9  1  1  0  0  0
 10 13  1  0  0  0  0
 10 21  1  0  0  0  0
 13 12  1  1  0  0  0
 13 15  1  0  0  0  0
 15  2  1  1  0  0  0
 15 17  1  0  0  0  0
 16 25  1  0  0  0  0
 17 19  1  0  0  0  0
 19  5  1  6  0  0  0
 19 21  1  0  0  0  0
 21 14  1  6  0  0  0
 23 14  1  6  0  0  0
 23 16  1  0  0  0  0
 23 29  1  0  0  0  0
 25 26  1  1  0  0  0
 25 27  1  0  0  0  0
 26  8  1  0  0  0  0
 27 18  1  6  0  0  0
 27 28  1  0  0  0  0
 28 20  1  1  0  0  0
 28 29  1  0  0  0  0
 29 11  1  6  0  0  0
 30 22  1  6  0  0  0
 30 31  1  0  0  0  0
 31 24  1  6  0  0  0
M  END
>  <CHROM.1>
79.35817901,179.90256455,-130.56329248,82.74772722,65.74670411,-31.87294030
10.51707165,20.00309468,34.95687833,0.85571527,0.73761304,2.25884421

>  <Name>
2fcz_lig

>  <RI>
2.29611e+07

>  <Rbt.Current_Directory>
/home/itssahil/PROJECTS/Mol_Feturizer/New_Systems/rnas/2fcz

>  <Rbt.Executable>
rbdock ($Id: //depot/dev/client3/rdock/2013.1/src/exe/rbdock.cxx#4 $)

>  <Rbt.Library>
libRbt.so (2013.1, Build901 2013/11/27)

>  <Rbt.Parameter_File>
/export/apps/rDock/src/rDock_2013.1_src/data/scripts/dock_solv.prm

>  <Rbt.Receptor>
prm/pocket_docking_3.prm

>  <SCORE>
-18.1105

>  <SCORE.INTER>
-19.2919

>  <SCORE.INTER.CONST>
1

>  <SCORE.INTER.POLAR>
-2.33012

>  <SCORE.INTER.ROT>
6

>  <SCORE.INTER.SOLV>
18.958

>  <SCORE.INTER.VDW>
-19.0136

>  <SCORE.INTER.norm>
-0.622321

>  <SCORE.INTRA>
1.18143

>  <SCORE.INTRA.DIHEDRAL>
1.97594

>  <SCORE.INTRA.DIHEDRAL.0>
10.8409

>  <SCORE.INTRA.POLAR>
0

>  <SCORE.INTRA.POLAR.0>
0

>  <SCORE.INTRA.REPUL>
0

>  <SCORE.INTRA.REPUL.0>
0

>  <SCORE.INTRA.SOLV>
-1.01069

>  <SCORE.INTRA.SOLV.lig_0>
-80.8302

>  <SCORE.INTRA.VDW>
0.69881

>  <SCORE.INTRA.VDW.0>
-4.23953

>  <SCORE.INTRA.norm>
0.0381108

>  <SCORE.RESTR>
0

>  <SCORE.RESTR.CAVITY>
0

>  <SCORE.RESTR.norm>
0

>  <SCORE.SYSTEM>
0

>  <SCORE.SYSTEM.CONST>
0

>  <SCORE.SYSTEM.DIHEDRAL>
0

>  <SCORE.SYSTEM.SOLV>
0

>  <SCORE.SYSTEM.norm>
0

>  <SCORE.heavy>
31

>  <SCORE.norm>
-0.58421

>  <RMSD>
2.220

$$$$
2fcz_lig
 OpenBabel11021811433D
libRbt.so/2013.1/901 2013/11/27
 31 33  0  0  0  0  0  0  0  0999 V2000
    8.1465   14.5031   33.8465 C   0  0  0  0  0  0  0  0  0  0  0  0
   13.7676   19.3491   37.4045 N   0  0  0  0  0  0  0  0  0  0  0  0
    7.3796   13.2969   33.7966 O   0  0  0  0  0  0  0  0  0  0  0  0
    9.0664   14.4779   35.0719 C   0  0  1  0  0  0  0  0  0  0  0  0
   11.2834   21.9951   34.1221 N   0  0  0  0  0  0  0  0  0  0  0  0
    9.9013   15.6520   35.1361 O   0  0  0  0  0  0  0  0  0  0  0  0
    9.4541   16.5045   36.2090 C   0  0  1  0  0  0  0  0  0  0  0  0
    6.8261   23.1416   32.7470 N   0  0  0  0  0  0  0  0  0  0  0  0
    9.3813   17.8877   35.8234 O   0  0  0  0  0  0  0  0  0  0  0  0
   10.6355   18.4505   35.4023 C   0  0  2  0  0  0  0  0  0  0  0  0
    9.4391   17.1438   32.5257 N   0  0  0  0  0  0  0  0  0  0  0  0
   11.8908   17.2523   37.0882 O   0  0  0  0  0  0  0  0  0  0  0  0
   11.5694   18.5622   36.6137 C   0  0  1  0  0  0  0  0  0  0  0  0
    9.7333   19.7248   33.4981 O   0  0  0  0  0  0  0  0  0  0  0  0
   12.8659   19.2876   36.2460 C   0  0  1  0  0  0  0  0  0  0  0  0
    7.4132   20.1481   33.3939 O   0  0  0  0  0  0  0  0  0  0  0  0
   12.5558   20.7060   35.7627 C   0  0  0  0  0  0  0  0  0  0  0  0
    7.3244   20.5100   29.7294 O   0  0  0  0  0  0  0  0  0  0  0  0
   11.6609   20.6308   34.5240 C   0  0  1  0  0  0  0  0  0  0  0  0
    8.1489   17.7768   30.0499 O   0  0  0  0  0  0  0  0  0  0  0  0
   10.3847   19.8202   34.7746 C   0  0  2  0  0  0  0  0  0  0  0  0
    7.6323   16.3222   37.8711 O   0  0  0  0  0  0  0  0  0  0  0  0
    8.4254   19.1369   33.5548 C   0  0  1  0  0  0  0  0  0  0  0  0
    8.9918   13.9291   37.4533 O   0  0  0  0  0  0  0  0  0  0  0  0
    7.4570   20.8403   32.1342 C   0  0  2  0  0  0  0  0  0  0  0  0
    6.3528   21.9002   32.1175 C   0  0  0  0  0  0  0  0  0  0  0  0
    7.2512   19.8397   30.9914 C   0  0  2  0  0  0  0  0  0  0  0  0
    8.3423   18.7692   31.0629 C   0  0  1  0  0  0  0  0  0  0  0  0
    8.3223   18.0948   32.4365 C   0  0  1  0  0  0  0  0  0  0  0  0
    8.0549   15.9867   36.5459 C   0  0  2  0  0  0  0  0  0  0  0  0
    8.2491   14.4826   36.3637 C   0  0  1  0  0  0  0  0  0  0  0  0
  3  1  1  0  0  0  0
  4  1  1  6  0  0  0
  4  6  1  0  0  0  0
  4 31  1  0  0  0  0
  6  7  1  0  0  0  0
  7  9  1  6  0  0  0
  7 30  1  0  0  0  0
 10  9  1  1  0  0  0
 10 13  1  0  0  0  0
 10 21  1  0  0  0  0
 13 12  1  6  0  0  0
 13 15  1  0  0  0  0
 15  2  1  1  0  0  0
 15 17  1  0  0  0  0
 16 25  1  0  0  0  0
 17 19  1  0  0  0  0
 19  5  1  1  0  0  0
 19 21  1  0  0  0  0
 21 14  1  6  0  0  0
 23 14  1  6  0  0  0
 23 16  1  0  0  0  0
 23 29  1  0  0  0  0
 25 26  1  1  0  0  0
 25 27  1  0  0  0  0
 26  8  1  0  0  0  0
 27 18  1  6  0  0  0
 27 28  1  0  0  0  0
 28 20  1  6  0  0  0
 28 29  1  0  0  0  0
 29 11  1  6  0  0  0
 30 22  1  1  0  0  0
 30 31  1  0  0  0  0
 31 24  1  1  0  0  0
M  END
>  <CHROM.1>
177.65586209,-60.41710718,-69.07493145,62.67736274,105.58300998,85.44834772
9.26047490,18.21808421,34.33157302,1.21243652,0.76794020,2.64841912

>  <Name>
2fcz_lig

>  <RI>
0

>  <Rbt.Current_Directory>
/home/itssahil/PROJECTS/Mol_Feturizer/New_Systems/rnas/2fcz

>  <Rbt.Executable>
rbdock ($Id: //depot/dev/client3/rdock/2013.1/src/exe/rbdock.cxx#4 $)

>  <Rbt.Library>
libRbt.so (2013.1, Build901 2013/11/27)

>  <Rbt.Parameter_File>
/export/apps/rDock/src/rDock_2013.1_src/data/scripts/dock_solv.prm

>  <Rbt.Receptor>
prm/pocket_docking_5.prm

>  <SCORE>
-17.4893

>  <SCORE.INTER>
-17.867

>  <SCORE.INTER.CONST>
1

>  <SCORE.INTER.POLAR>
-1.85359

>  <SCORE.INTER.ROT>
6

>  <SCORE.INTER.SOLV>
16.4796

>  <SCORE.INTER.VDW>
-18.8259

>  <SCORE.INTER.norm>
-0.576354

>  <SCORE.INTRA>
0.37768

>  <SCORE.INTRA.DIHEDRAL>
-2.0015

>  <SCORE.INTRA.DIHEDRAL.0>
10.8409

>  <SCORE.INTRA.POLAR>
0

>  <SCORE.INTRA.POLAR.0>
0

>  <SCORE.INTRA.REPUL>
0

>  <SCORE.INTRA.REPUL.0>
0

>  <SCORE.INTRA.SOLV>
-0.678175

>  <SCORE.INTRA.SOLV.lig_0>
-80.8302

>  <SCORE.INTRA.VDW>
1.71752

>  <SCORE.INTRA.VDW.0>
-4.23953

>  <SCORE.INTRA.norm>
0.0121832

>  <SCORE.RESTR>
0

>  <SCORE.RESTR.CAVITY>
0

>  <SCORE.RESTR.norm>
0

>  <SCORE.SYSTEM>
0

>  <SCORE.SYSTEM.CONST>
0

>  <SCORE.SYSTEM.DIHEDRAL>
0

>  <SCORE.SYSTEM.SOLV>
0

>  <SCORE.SYSTEM.norm>
0

>  <SCORE.heavy>
31

>  <SCORE.norm>
-0.564171

>  <RMSD>
2.223

$$$$
2fcz_lig
 OpenBabel11021811433D
libRbt.so/2013.1/901 2013/11/27
 31 33  0  0  0  0  0  0  0  0999 V2000
   10.6103   16.7370   38.7281 C   0  0  0  0  0  0  0  0  0  0  0  0
   13.3605   21.5548   36.5966 N   0  0  0  0  0  0  0  0  0  0  0  0
    9.9789   15.8086   39.6140 O   0  0  0  0  0  0  0  0  0  0  0  0
    9.5726   17.7349   38.2029 C   0  0  1  0  0  0  0  0  0  0  0  0
    9.5487   22.6439   33.7276 N   0  0  0  0  0  0  0  0  0  0  0  0
   10.1059   18.5478   37.1379 O   0  0  0  0  0  0  0  0  0  0  0  0
    9.5110   18.1539   35.8854 C   0  0  1  0  0  0  0  0  0  0  0  0
    5.9472   23.5993   32.1038 N   0  0  0  0  0  0  0  0  0  0  0  0
   10.4778   18.0278   34.8288 O   0  0  0  0  0  0  0  0  0  0  0  0
   11.1468   19.2546   34.4906 C   0  0  2  0  0  0  0  0  0  0  0  0
    8.9830   17.9030   31.0389 N   0  0  0  0  0  0  0  0  0  0  0  0
   12.9961   18.8136   35.9871 O   0  0  0  0  0  0  0  0  0  0  0  0
   11.9470   19.7429   35.7045 C   0  0  1  0  0  0  0  0  0  0  0  0
    9.5246   19.9860   32.7884 O   0  0  0  0  0  0  0  0  0  0  0  0
   12.5624   21.1195   35.4422 C   0  0  1  0  0  0  0  0  0  0  0  0
    7.2383   20.3261   33.2679 O   0  0  0  0  0  0  0  0  0  0  0  0
   11.4600   22.1443   35.1663 C   0  0  0  0  0  0  0  0  0  0  0  0
    6.4811   21.9509   30.0502 O   0  0  0  0  0  0  0  0  0  0  0  0
   10.6686   21.7111   33.9306 C   0  0  1  0  0  0  0  0  0  0  0  0
    7.2739   19.3150   29.2278 O   0  0  0  0  0  0  0  0  0  0  0  0
   10.1086   20.2908   34.0647 C   0  0  2  0  0  0  0  0  0  0  0  0
    7.8297   16.4480   35.2704 O   0  0  0  0  0  0  0  0  0  0  0  0
    8.2341   19.3642   32.8727 C   0  0  1  0  0  0  0  0  0  0  0  0
    7.2033   17.8263   37.6064 O   0  0  0  0  0  0  0  0  0  0  0  0
    7.0670   21.4186   32.3486 C   0  0  2  0  0  0  0  0  0  0  0  0
    6.0090   22.3717   32.9102 C   0  0  0  0  0  0  0  0  0  0  0  0
    6.6247   20.8769   30.9846 C   0  0  2  0  0  0  0  0  0  0  0  0
    7.6797   19.8942   30.4721 C   0  0  1  0  0  0  0  0  0  0  0  0
    7.8961   18.7792   31.4977 C   0  0  1  0  0  0  0  0  0  0  0  0
    8.8823   16.7904   36.1772 C   0  0  2  0  0  0  0  0  0  0  0  0
    8.3727   17.0032   37.6014 C   0  0  1  0  0  0  0  0  0  0  0  0
  3  1  1  0  0  0  0
  4  1  1  6  0  0  0
  4  6  1  0  0  0  0
  4 31  1  0  0  0  0
  6  7  1  0  0  0  0
  7  9  1  6  0  0  0
  7 30  1  0  0  0  0
 10  9  1  1  0  0  0
 10 13  1  0  0  0  0
 10 21  1  0  0  0  0
 13 12  1  6  0  0  0
 13 15  1  0  0  0  0
 15  2  1  1  0  0  0
 15 17  1  0  0  0  0
 16 25  1  0  0  0  0
 17 19  1  0  0  0  0
 19  5  1  1  0  0  0
 19 21  1  0  0  0  0
 21 14  1  6  0  0  0
 23 14  1  6  0  0  0
 23 16  1  0  0  0  0
 23 29  1  0  0  0  0
 25 26  1  1  0  0  0
 25 27  1  0  0  0  0
 26  8  1  0  0  0  0
 27 18  1  6  0  0  0
 27 28  1  0  0  0  0
 28 20  1  6  0  0  0
 28 29  1  0  0  0  0
 29 11  1  6  0  0  0
 30 22  1  6  0  0  0
 30 31  1  0  0  0  0
 31 24  1  6  0  0  0
M  END
>  <CHROM.1>
-170.24668887,-63.21900965,62.79397303,99.99833741,73.32565523,171.60147064
9.18688004,19.51820336,34.39108478,1.04468008,0.59410848,2.36689311

>  <Name>
2fcz_lig

>  <RI>
3.41297e+07

>  <Rbt.Current_Directory>
/home/itssahil/PROJECTS/Mol_Feturizer/New_Systems/rnas/2fcz

>  <Rbt.Executable>
rbdock ($Id: //depot/dev/client3/rdock/2013.1/src/exe/rbdock.cxx#4 $)

>  <Rbt.Library>
libRbt.so (2013.1, Build901 2013/11/27)

>  <Rbt.Parameter_File>
/export/apps/rDock/src/rDock_2013.1_src/data/scripts/dock_solv.prm

>  <Rbt.Receptor>
prm/pocket_docking_2.prm

>  <SCORE>
-8.27839

>  <SCORE.INTER>
-9.76056

>  <SCORE.INTER.CONST>
1

>  <SCORE.INTER.POLAR>
-0.959166

>  <SCORE.INTER.ROT>
6

>  <SCORE.INTER.SOLV>
18.4216

>  <SCORE.INTER.VDW>
-17.0503

>  <SCORE.INTER.norm>
-0.314857

>  <SCORE.INTRA>
0.56732

>  <SCORE.INTRA.DIHEDRAL>
-3.86813

>  <SCORE.INTRA.DIHEDRAL.0>
10.8409

>  <SCORE.INTRA.POLAR>
0

>  <SCORE.INTRA.POLAR.0>
0

>  <SCORE.INTRA.REPUL>
0

>  <SCORE.INTRA.REPUL.0>
0

>  <SCORE.INTRA.SOLV>
0.114978

>  <SCORE.INTRA.SOLV.lig_0>
-80.8302

>  <SCORE.INTRA.VDW>
2.4439

>  <SCORE.INTRA.VDW.0>
-4.23953

>  <SCORE.INTRA.norm>
0.0183006

>  <SCORE.RESTR>
0.91485

>  <SCORE.RESTR.CAVITY>
0.91485

>  <SCORE.RESTR.norm>
0.0295113

>  <SCORE.SYSTEM>
0

>  <SCORE.SYSTEM.CONST>
0

>  <SCORE.SYSTEM.DIHEDRAL>
0

>  <SCORE.SYSTEM.SOLV>
0

>  <SCORE.SYSTEM.norm>
0

>  <SCORE.heavy>
31

>  <SCORE.norm>
-0.267045

>  <RMSD>
2.255

$$$$
2fcz_lig
 OpenBabel11021811433D
libRbt.so/2013.1/901 2013/11/27
 31 33  0  0  0  0  0  0  0  0999 V2000
   10.7802   18.6152   40.0271 C   0  0  0  0  0  0  0  0  0  0  0  0
   14.3590   23.9526   35.5005 N   0  0  0  0  0  0  0  0  0  0  0  0
   11.3643   17.7160   40.9735 O   0  0  0  0  0  0  0  0  0  0  0  0
   10.6303   17.9122   38.6736 C   0  0  1  0  0  0  0  0  0  0  0  0
   11.2071   22.5697   32.0219 N   0  0  0  0  0  0  0  0  0  0  0  0
   10.0182   18.7721   37.6911 O   0  0  0  0  0  0  0  0  0  0  0  0
   11.0047   19.1755   36.7207 C   0  0  1  0  0  0  0  0  0  0  0  0
    5.9773   21.7635   33.3384 N   0  0  0  0  0  0  0  0  0  0  0  0
   10.9450   20.5806   36.4217 O   0  0  0  0  0  0  0  0  0  0  0  0
   11.9063   21.0186   35.4466 C   0  0  2  0  0  0  0  0  0  0  0  0
   10.2333   17.4745   33.4046 N   0  0  0  0  0  0  0  0  0  0  0  0
   13.4446   21.8255   37.1308 O   0  0  0  0  0  0  0  0  0  0  0  0
   12.6688   22.2290   35.9997 C   0  0  1  0  0  0  0  0  0  0  0  0
   10.6749   20.2119   33.4727 O   0  0  0  0  0  0  0  0  0  0  0  0
   13.6045   22.8215   34.9434 C   0  0  1  0  0  0  0  0  0  0  0  0
    8.3835   20.6867   33.7838 O   0  0  0  0  0  0  0  0  0  0  0  0
   12.7981   23.2915   33.7308 C   0  0  0  0  0  0  0  0  0  0  0  0
    7.4358   19.9562   30.3001 O   0  0  0  0  0  0  0  0  0  0  0  0
   12.0589   22.0968   33.1248 C   0  0  1  0  0  0  0  0  0  0  0  0
    8.3863   17.4055   31.2186 O   0  0  0  0  0  0  0  0  0  0  0  0
   11.1799   21.3730   34.1506 C   0  0  2  0  0  0  0  0  0  0  0  0
   13.4109   18.6775   36.4429 O   0  0  0  0  0  0  0  0  0  0  0  0
    9.4325   19.7246   34.0002 C   0  0  1  0  0  0  0  0  0  0  0  0
   11.8991   16.4571   37.1735 O   0  0  0  0  0  0  0  0  0  0  0  0
    8.1145   20.9743   32.4007 C   0  0  2  0  0  0  0  0  0  0  0  0
    7.0082   22.0295   32.3246 C   0  0  0  0  0  0  0  0  0  0  0  0
    7.6762   19.6914   31.6856 C   0  0  2  0  0  0  0  0  0  0  0  0
    8.7827   18.6430   31.8187 C   0  0  1  0  0  0  0  0  0  0  0  0
    9.1008   18.4048   33.2965 C   0  0  1  0  0  0  0  0  0  0  0  0
   12.3436   18.8433   37.3814 C   0  0  2  0  0  0  0  0  0  0  0  0
   11.9982   17.5410   38.1010 C   0  0  1  0  0  0  0  0  0  0  0  0
  3  1  1  0  0  0  0
  4  1  1  1  0  0  0
  4  6  1  0  0  0  0
  4 31  1  0  0  0  0
  6  7  1  0  0  0  0
  7  9  1  1  0  0  0
  7 30  1  0  0  0  0
 10  9  1  1  0  0  0
 10 13  1  0  0  0  0
 10 21  1  0  0  0  0
 13 12  1  1  0  0  0
 13 15  1  0  0  0  0
 15  2  1  1  0  0  0
 15 17  1  0  0  0  0
 16 25  1  0  0  0  0
 17 19  1  0  0  0  0
 19  5  1  6  0  0  0
 19 21  1  0  0  0  0
 21 14  1  6  0  0  0
 23 14  1  6  0  0  0
 23 16  1  0  0  0  0
 23 29  1  0  0  0  0
 25 26  1  1  0  0  0
 25 27  1  0  0  0  0
 26  8  1  0  0  0  0
 27 18  1  6  0  0  0
 27 28  1  0  0  0  0
 28 20  1  1  0  0  0
 28 29  1  0  0  0  0
 29 11  1  6  0  0  0
 30 22  1  6  0  0  0
 30 31  1  0  0  0  0
 31 24  1  6  0  0  0
M  END
>  <CHROM.1>
178.78267478,-179.41262877,-128.89504705,80.94134215,65.56534897,-40.03552729
10.60229719,20.04171481,34.95281759,0.83520986,0.71974204,2.31950449

>  <Name>
2fcz_lig

>  <RI>
1.32928e+07

>  <Rbt.Current_Directory>
/home/itssahil/PROJECTS/Mol_Feturizer/New_Systems/rnas/2fcz

>  <Rbt.Executable>
rbdock ($Id: //depot/dev/client3/rdock/2013.1/src/exe/rbdock.cxx#4 $)

>  <Rbt.Library>
libRbt.so (2013.1, Build901 2013/11/27)

>  <Rbt.Parameter_File>
/export/apps/rDock/src/rDock_2013.1_src/data/scripts/dock_solv.prm

>  <Rbt.Receptor>
prm/pocket_docking_7.prm

>  <SCORE>
-19.0706

>  <SCORE.INTER>
-19.0803

>  <SCORE.INTER.CONST>
1

>  <SCORE.INTER.POLAR>
-2.23637

>  <SCORE.INTER.ROT>
6

>  <SCORE.INTER.SOLV>
18.5803

>  <SCORE.INTER.VDW>
-19.0591

>  <SCORE.INTER.norm>
-0.615494

>  <SCORE.INTRA>
0.0096703

>  <SCORE.INTRA.DIHEDRAL>
-0.494462

>  <SCORE.INTRA.DIHEDRAL.0>
10.8409

>  <SCORE.INTRA.POLAR>
0

>  <SCORE.INTRA.POLAR.0>
0

>  <SCORE.INTRA.REPUL>
0

>  <SCORE.INTRA.REPUL.0>
0

>  <SCORE.INTRA.SOLV>
-0.983117

>  <SCORE.INTRA.SOLV.lig_0>
-80.8302

>  <SCORE.INTRA.VDW>
0.74846

>  <SCORE.INTRA.VDW.0>
-4.23953

>  <SCORE.INTRA.norm>
0.000311945

>  <SCORE.RESTR>
0

>  <SCORE.RESTR.CAVITY>
0

>  <SCORE.RESTR.norm>
0

>  <SCORE.SYSTEM>
0

>  <SCORE.SYSTEM.CONST>
0

>  <SCORE.SYSTEM.DIHEDRAL>
0

>  <SCORE.SYSTEM.SOLV>
0

>  <SCORE.SYSTEM.norm>
0

>  <SCORE.heavy>
31

>  <SCORE.norm>
-0.615182

>  <RMSD>
2.262

$$$$
2fcz_lig
 OpenBabel11021811433D
libRbt.so/2013.1/901 2013/11/27
 31 33  0  0  0  0  0  0  0  0999 V2000
   10.8121   18.3321   39.7515 C   0  0  0  0  0  0  0  0  0  0  0  0
   13.6559   24.0938   34.8776 N   0  0  0  0  0  0  0  0  0  0  0  0
   11.6596   19.4621   39.5272 O   0  0  0  0  0  0  0  0  0  0  0  0
   10.3546   17.7565   38.4069 C   0  0  1  0  0  0  0  0  0  0  0  0
   10.6141   21.9852   31.6762 N   0  0  0  0  0  0  0  0  0  0  0  0
    9.6978   18.7523   37.5965 O   0  0  0  0  0  0  0  0  0  0  0  0
   10.5515   19.1173   36.4939 C   0  0  1  0  0  0  0  0  0  0  0  0
    6.0792   21.0677   31.0482 N   0  0  0  0  0  0  0  0  0  0  0  0
   10.6156   20.5392   36.2906 O   0  0  0  0  0  0  0  0  0  0  0  0
   11.5140   20.9466   35.2448 C   0  0  2  0  0  0  0  0  0  0  0  0
    9.6465   17.1511   33.9409 N   0  0  0  0  0  0  0  0  0  0  0  0
   12.9849   22.1043   36.7777 O   0  0  0  0  0  0  0  0  0  0  0  0
   12.1568   22.2858   35.6265 C   0  0  1  0  0  0  0  0  0  0  0  0
   10.3444   19.7838   33.4162 O   0  0  0  0  0  0  0  0  0  0  0  0
   13.0129   22.8331   34.4820 C   0  0  1  0  0  0  0  0  0  0  0  0
    8.1448   20.3572   32.7792 O   0  0  0  0  0  0  0  0  0  0  0  0
   12.1464   23.0672   33.2426 C   0  0  0  0  0  0  0  0  0  0  0  0
    8.3091   18.6549   29.5168 O   0  0  0  0  0  0  0  0  0  0  0  0
   11.5245   21.7393   32.8058 C   0  0  1  0  0  0  0  0  0  0  0  0
    8.6175   16.4710   31.3577 O   0  0  0  0  0  0  0  0  0  0  0  0
   10.7378   21.0642   33.9346 C   0  0  2  0  0  0  0  0  0  0  0  0
   12.7988   18.3783   35.7739 O   0  0  0  0  0  0  0  0  0  0  0  0
    8.9517   19.4869   33.5943 C   0  0  1  0  0  0  0  0  0  0  0  0
   11.1687   16.2897   36.6284 O   0  0  0  0  0  0  0  0  0  0  0  0
    8.3752   20.2326   31.3652 C   0  0  2  0  0  0  0  0  0  0  0  0
    7.4792   21.2334   30.6314 C   0  0  0  0  0  0  0  0  0  0  0  0
    8.0536   18.8025   30.9169 C   0  0  2  0  0  0  0  0  0  0  0  0
    8.9321   17.8246   31.7002 C   0  0  1  0  0  0  0  0  0  0  0  0
    8.7224   18.0236   33.2031 C   0  0  1  0  0  0  0  0  0  0  0  0
   11.9306   18.5886   36.8917 C   0  0  2  0  0  0  0  0  0  0  0  0
   11.5525   17.2811   37.5849 C   0  0  1  0  0  0  0  0  0  0  0  0
  3  1  1  0  0  0  0
  4  1  1  1  0  0  0
  4  6  1  0  0  0  0
  4 31  1  0  0  0  0
  6  7  1  0  0  0  0
  7  9  1  1  0  0  0
  7 30  1  0  0  0  0
 10  9  1  1  0  0  0
 10 13  1  0  0  0  0
 10 21  1  0  0  0  0
 13 12  1  1  0  0  0
 13 15  1  0  0  0  0
 15  2  1  1  0  0  0
 15 17  1  0  0  0  0
 16 25  1  0  0  0  0
 17 19  1  0  0  0  0
 19  5  1  6  0  0  0
 19 21  1  0  0  0  0
 21 14  1  6  0  0  0
 23 14  1  6  0  0  0
 23 16  1  0  0  0  0
 23 29  1  0  0  0  0
 25 26  1  6  0  0  0
 25 27  1  0  0  0  0
 26  8  1  0  0  0  0
 27 18  1  6  0  0  0
 27 28  1  0  0  0  0
 28 20  1  6  0  0  0
 28 29  1  0  0  0  0
 29 11  1  1  0  0  0
 30 22  1  6  0  0  0
 30 31  1  0  0  0  0
 31 24  1  6  0  0  0
M  END
>  <CHROM.1>
-56.10619875,176.82445344,-145.78197176,104.85206745,67.89857346,-53.09485288
10.35986009,19.76727277,34.44593050,0.71074672,0.91215803,2.34940626

>  <Name>
2fcz_lig

>  <RI>
2.29611e+07

>  <Rbt.Current_Directory>
/home/itssahil/PROJECTS/Mol_Feturizer/New_Systems/rnas/2fcz

>  <Rbt.Executable>
rbdock ($Id: //depot/dev/client3/rdock/2013.1/src/exe/rbdock.cxx#4 $)

>  <Rbt.Library>
libRbt.so (2013.1, Build901 2013/11/27)

>  <Rbt.Parameter_File>
/export/apps/rDock/src/rDock_2013.1_src/data/scripts/dock_solv.prm

>  <Rbt.Receptor>
prm/pocket_docking_3.prm

>  <SCORE>
-15.7119

>  <SCORE.INTER>
-18.0889

>  <SCORE.INTER.CONST>
1

>  <SCORE.INTER.POLAR>
-1.88739

>  <SCORE.INTER.ROT>
6

>  <SCORE.INTER.SOLV>
15.985

>  <SCORE.INTER.VDW>
-18.6963

>  <SCORE.INTER.norm>
-0.583514

>  <SCORE.INTRA>
2.37699

>  <SCORE.INTRA.DIHEDRAL>
0.279261

>  <SCORE.INTRA.DIHEDRAL.0>
10.8409

>  <SCORE.INTRA.POLAR>
0

>  <SCORE.INTRA.POLAR.0>
0

>  <SCORE.INTRA.REPUL>
0.00389405

>  <SCORE.INTRA.REPUL.0>
0

>  <SCORE.INTRA.SOLV>
3.49497

>  <SCORE.INTRA.SOLV.lig_0>
-80.8302

>  <SCORE.INTRA.VDW>
0.470405

>  <SCORE.INTRA.VDW.0>
-4.23953

>  <SCORE.INTRA.norm>
0.076677

>  <SCORE.RESTR>
0

>  <SCORE.RESTR.CAVITY>
0

>  <SCORE.RESTR.norm>
0

>  <SCORE.SYSTEM>
0

>  <SCORE.SYSTEM.CONST>
0

>  <SCORE.SYSTEM.DIHEDRAL>
0

>  <SCORE.SYSTEM.SOLV>
0

>  <SCORE.SYSTEM.norm>
0

>  <SCORE.heavy>
31

>  <SCORE.norm>
-0.506837

>  <RMSD>
2.356

$$$$
2fcz_lig
 OpenBabel11021811433D
libRbt.so/2013.1/901 2013/11/27
 31 33  0  0  0  0  0  0  0  0999 V2000
   11.6622   16.6811   40.1037 C   0  0  0  0  0  0  0  0  0  0  0  0
   14.1995   22.2196   37.2488 N   0  0  0  0  0  0  0  0  0  0  0  0
   10.8509   15.8278   40.9155 O   0  0  0  0  0  0  0  0  0  0  0  0
   10.8714   17.9391   39.7286 C   0  0  1  0  0  0  0  0  0  0  0  0
   10.3783   22.4289   34.1990 N   0  0  0  0  0  0  0  0  0  0  0  0
   11.5038   18.6662   38.6557 O   0  0  0  0  0  0  0  0  0  0  0  0
   10.7276   18.5198   37.4499 C   0  0  1  0  0  0  0  0  0  0  0  0
    6.9854   22.4063   31.3912 N   0  0  0  0  0  0  0  0  0  0  0  0
   11.5408   18.2314   36.2997 O   0  0  0  0  0  0  0  0  0  0  0  0
   12.1470   19.3887   35.6996 C   0  0  2  0  0  0  0  0  0  0  0  0
   10.2202   16.9831   33.1049 N   0  0  0  0  0  0  0  0  0  0  0  0
   13.9944   19.3953   37.2619 O   0  0  0  0  0  0  0  0  0  0  0  0
   12.9007   20.1781   36.7771 C   0  0  1  0  0  0  0  0  0  0  0  0
   10.5135   19.6321   33.8730 O   0  0  0  0  0  0  0  0  0  0  0  0
   13.4440   21.4950   36.2176 C   0  0  1  0  0  0  0  0  0  0  0  0
    8.1808   19.9895   33.9335 O   0  0  0  0  0  0  0  0  0  0  0  0
   12.2918   22.3693   35.7180 C   0  0  0  0  0  0  0  0  0  0  0  0
    7.7841   20.0925   30.2730 O   0  0  0  0  0  0  0  0  0  0  0  0
   11.5442   21.6291   34.6070 C   0  0  1  0  0  0  0  0  0  0  0  0
    8.7147   17.4095   30.7077 O   0  0  0  0  0  0  0  0  0  0  0  0
   11.0605   20.2445   35.0514 C   0  0  2  0  0  0  0  0  0  0  0  0
    8.6245   17.3308   36.9223 O   0  0  0  0  0  0  0  0  0  0  0  0
    9.2331   19.0173   34.0777 C   0  0  1  0  0  0  0  0  0  0  0  0
    8.5618   18.6562   39.3695 O   0  0  0  0  0  0  0  0  0  0  0  0
    8.1013   20.5929   32.6306 C   0  0  2  0  0  0  0  0  0  0  0  0
    6.9676   21.6215   32.6341 C   0  0  0  0  0  0  0  0  0  0  0  0
    7.8340   19.5102   31.5791 C   0  0  2  0  0  0  0  0  0  0  0  0
    8.9594   18.4748   31.6319 C   0  0  1  0  0  0  0  0  0  0  0  0
    9.0714   17.8975   33.0448 C   0  0  1  0  0  0  0  0  0  0  0  0
    9.8004   17.3379   37.7377 C   0  0  2  0  0  0  0  0  0  0  0  0
    9.4802   17.5713   39.2129 C   0  0  1  0  0  0  0  0  0  0  0  0
  3  1  1  0  0  0  0
  4  1  1  6  0  0  0
  4  6  1  0  0  0  0
  4 31  1  0  0  0  0
  6  7  1  0  0  0  0
  7  9  1  6  0  0  0
  7 30  1  0  0  0  0
 10  9  1  1  0  0  0
 10 13  1  0  0  0  0
 10 21  1  0  0  0  0
 13 12  1  6  0  0  0
 13 15  1  0  0  0  0
 15  2  1  1  0  0  0
 15 17  1  0  0  0  0
 16 25  1  0  0  0  0
 17 19  1  0  0  0  0
 19  5  1  1  0  0  0
 19 21  1  0  0  0  0
 21 14  1  6  0  0  0
 23 14  1  6  0  0  0
 23 16  1  0  0  0  0
 23 29  1  0  0  0  0
 25 26  1  1  0  0  0
 25 27  1  0  0  0  0
 26  8  1  0  0  0  0
 27 18  1  6  0  0  0
 27 28  1  0  0  0  0
 28 20  1  6  0  0  0
 28 29  1  0  0  0  0
 29 11  1  6  0  0  0
 30 22  1  6  0  0  0
 30 31  1  0  0  0  0
 31 24  1  6  0  0  0
M  END
>  <CHROM.1>
-165.60521288,-81.94765140,52.66808187,102.29723362,85.39627651,171.29766999
10.24886119,19.31159243,35.44041547,1.01992583,0.71796884,2.21597199

>  <Name>
2fcz_lig

>  <RI>
2.29611e+07

>  <Rbt.Current_Directory>
/home/itssahil/PROJECTS/Mol_Feturizer/New_Systems/rnas/2fcz

>  <Rbt.Executable>
rbdock ($Id: //depot/dev/client3/rdock/2013.1/src/exe/rbdock.cxx#4 $)

>  <Rbt.Library>
libRbt.so (2013.1, Build901 2013/11/27)

>  <Rbt.Parameter_File>
/export/apps/rDock/src/rDock_2013.1_src/data/scripts/dock_solv.prm

>  <Rbt.Receptor>
prm/pocket_docking_3.prm

>  <SCORE>
-15.6267

>  <SCORE.INTER>
-18.2677

>  <SCORE.INTER.CONST>
1

>  <SCORE.INTER.POLAR>
-2.11988

>  <SCORE.INTER.ROT>
6

>  <SCORE.INTER.SOLV>
13.9998

>  <SCORE.INTER.VDW>
-17.3788

>  <SCORE.INTER.norm>
-0.589282

>  <SCORE.INTRA>
2.42597

>  <SCORE.INTRA.DIHEDRAL>
1.04661

>  <SCORE.INTRA.DIHEDRAL.0>
10.8409

>  <SCORE.INTRA.POLAR>
0

>  <SCORE.INTRA.POLAR.0>
0

>  <SCORE.INTRA.REPUL>
0

>  <SCORE.INTRA.REPUL.0>
0

>  <SCORE.INTRA.SOLV>
0.0509196

>  <SCORE.INTRA.SOLV.lig_0>
-80.8302

>  <SCORE.INTRA.VDW>
1.8772

>  <SCORE.INTRA.VDW.0>
-4.23953

>  <SCORE.INTRA.norm>
0.078257

>  <SCORE.RESTR>
0.215077

>  <SCORE.RESTR.CAVITY>
0.215077

>  <SCORE.RESTR.norm>
0.00693797

>  <SCORE.SYSTEM>
0

>  <SCORE.SYSTEM.CONST>
0

>  <SCORE.SYSTEM.DIHEDRAL>
0

>  <SCORE.SYSTEM.SOLV>
0

>  <SCORE.SYSTEM.norm>
0

>  <SCORE.heavy>
31

>  <SCORE.norm>
-0.504087

>  <RMSD>
2.358

$$$$
2fcz_lig
 OpenBabel11021811433D
libRbt.so/2013.1/901 2013/11/27
 31 33  0  0  0  0  0  0  0  0999 V2000
    8.1272   14.6232   34.1064 C   0  0  0  0  0  0  0  0  0  0  0  0
   12.9727   19.6238   38.1740 N   0  0  0  0  0  0  0  0  0  0  0  0
    7.4038   13.4078   33.8948 O   0  0  0  0  0  0  0  0  0  0  0  0
    8.5308   14.7322   35.5808 C   0  0  1  0  0  0  0  0  0  0  0  0
   11.5384   21.6420   33.9530 N   0  0  0  0  0  0  0  0  0  0  0  0
    9.3794   15.8737   35.8183 O   0  0  0  0  0  0  0  0  0  0  0  0
    8.6442   16.8794   36.5434 C   0  0  1  0  0  0  0  0  0  0  0  0
    5.6493   22.1292   32.5580 N   0  0  0  0  0  0  0  0  0  0  0  0
    8.8328   18.1991   36.0048 O   0  0  0  0  0  0  0  0  0  0  0  0
   10.2064   18.5476   35.7625 C   0  0  2  0  0  0  0  0  0  0  0  0
    9.1747   17.2740   31.8725 N   0  0  0  0  0  0  0  0  0  0  0  0
   10.9435   17.6689   37.8928 O   0  0  0  0  0  0  0  0  0  0  0  0
   10.8907   18.8573   37.0997 C   0  0  1  0  0  0  0  0  0  0  0  0
    9.8651   19.4219   33.4858 O   0  0  0  0  0  0  0  0  0  0  0  0
   12.3156   19.3724   36.8840 C   0  0  1  0  0  0  0  0  0  0  0  0
    7.6802   20.3139   33.4248 O   0  0  0  0  0  0  0  0  0  0  0  0
   12.2895   20.6632   36.0626 C   0  0  0  0  0  0  0  0  0  0  0  0
    7.9542   21.5796   29.9765 O   0  0  0  0  0  0  0  0  0  0  0  0
   11.6530   20.3796   34.7005 C   0  0  1  0  0  0  0  0  0  0  0  0
    8.2274   18.7438   29.6061 O   0  0  0  0  0  0  0  0  0  0  0  0
   10.2599   19.7534   34.8264 C   0  0  2  0  0  0  0  0  0  0  0  0
    6.3330   16.9895   37.4158 O   0  0  0  0  0  0  0  0  0  0  0  0
    8.4704   19.1126   33.3498 C   0  0  1  0  0  0  0  0  0  0  0  0
    7.5465   14.5151   37.8082 O   0  0  0  0  0  0  0  0  0  0  0  0
    7.9529   21.2724   32.3880 C   0  0  2  0  0  0  0  0  0  0  0  0
    7.0702   22.5027   32.6120 C   0  0  0  0  0  0  0  0  0  0  0  0
    7.6567   20.6471   31.0202 C   0  0  2  0  0  0  0  0  0  0  0  0
    8.5203   19.3959   30.8461 C   0  0  1  0  0  0  0  0  0  0  0  0
    8.2651   18.4213   31.9981 C   0  0  1  0  0  0  0  0  0  0  0  0
    7.1806   16.4623   36.3906 C   0  0  2  0  0  0  0  0  0  0  0  0
    7.3018   14.9414   36.4653 C   0  0  1  0  0  0  0  0  0  0  0  0
  3  1  1  0  0  0  0
  4  1  1  6  0  0  0
  4  6  1  0  0  0  0
  4 31  1  0  0  0  0
  6  7  1  0  0  0  0
  7  9  1  6  0  0  0
  7 30  1  0  0  0  0
 10  9  1  1  0  0  0
 10 13  1  0  0  0  0
 10 21  1  0  0  0  0
 13 12  1  1  0  0  0
 13 15  1  0  0  0  0
 15  2  1  1  0  0  0
 15 17  1  0  0  0  0
 16 25  1  0  0  0  0
 17 19  1  0  0  0  0
 19  5  1  1  0  0  0
 19 21  1  0  0  0  0
 21 14  1  6  0  0  0
 23 14  1  6  0  0  0
 23 16  1  0  0  0  0
 23 29  1  0  0  0  0
 25 26  1  1  0  0  0
 25 27  1  0  0  0  0
 26  8  1  0  0  0  0
 27 18  1  6  0  0  0
 27 28  1  0  0  0  0
 28 20  1  6  0  0  0
 28 29  1  0  0  0  0
 29 11  1  6  0  0  0
 30 22  1  1  0  0  0
 30 31  1  0  0  0  0
 31 24  1  1  0  0  0
M  END
>  <CHROM.1>
174.12183358,-48.16560248,-75.35333302,69.19930466,74.31399626,-60.46909196
8.96425864,18.47730529,34.46841314,1.42258539,0.79980945,2.43101153

>  <Name>
2fcz_lig

>  <RI>
1.32928e+07

>  <Rbt.Current_Directory>
/home/itssahil/PROJECTS/Mol_Feturizer/New_Systems/rnas/2fcz

>  <Rbt.Executable>
rbdock ($Id: //depot/dev/client3/rdock/2013.1/src/exe/rbdock.cxx#4 $)

>  <Rbt.Library>
libRbt.so (2013.1, Build901 2013/11/27)

>  <Rbt.Parameter_File>
/export/apps/rDock/src/rDock_2013.1_src/data/scripts/dock_solv.prm

>  <Rbt.Receptor>
prm/pocket_docking_7.prm

>  <SCORE>
-23.136

>  <SCORE.INTER>
-20.2459

>  <SCORE.INTER.CONST>
1

>  <SCORE.INTER.POLAR>
-2.3749

>  <SCORE.INTER.ROT>
6

>  <SCORE.INTER.SOLV>
21.6725

>  <SCORE.INTER.VDW>
-20.4051

>  <SCORE.INTER.norm>
-0.653095

>  <SCORE.INTRA>
-2.8901

>  <SCORE.INTRA.DIHEDRAL>
-7.44319

>  <SCORE.INTRA.DIHEDRAL.0>
10.8409

>  <SCORE.INTRA.POLAR>
0

>  <SCORE.INTRA.POLAR.0>
0

>  <SCORE.INTRA.REPUL>
0

>  <SCORE.INTRA.REPUL.0>
0

>  <SCORE.INTRA.SOLV>
-1.53553

>  <SCORE.INTRA.SOLV.lig_0>
-80.8302

>  <SCORE.INTRA.VDW>
1.59926

>  <SCORE.INTRA.VDW.0>
-4.23953

>  <SCORE.INTRA.norm>
-0.093229

>  <SCORE.RESTR>
0

>  <SCORE.RESTR.CAVITY>
0

>  <SCORE.RESTR.norm>
0

>  <SCORE.SYSTEM>
0

>  <SCORE.SYSTEM.CONST>
0

>  <SCORE.SYSTEM.DIHEDRAL>
0

>  <SCORE.SYSTEM.SOLV>
0

>  <SCORE.SYSTEM.norm>
0

>  <SCORE.heavy>
31

>  <SCORE.norm>
-0.746324

>  <RMSD>
2.405

$$$$
2fcz_lig
 OpenBabel11021811433D
libRbt.so/2013.1/901 2013/11/27
 31 33  0  0  0  0  0  0  0  0999 V2000
   12.1931   15.1757   37.9911 C   0  0  0  0  0  0  0  0  0  0  0  0
   14.3097   22.6543   36.3686 N   0  0  0  0  0  0  0  0  0  0  0  0
   12.0359   14.1181   38.9409 O   0  0  0  0  0  0  0  0  0  0  0  0
   12.5883   16.4658   38.7178 C   0  0  1  0  0  0  0  0  0  0  0  0
   11.4634   21.4716   32.5677 N   0  0  0  0  0  0  0  0  0  0  0  0
   12.7747   17.5604   37.7977 O   0  0  0  0  0  0  0  0  0  0  0  0
   11.6890   18.4984   37.9367 C   0  0  1  0  0  0  0  0  0  0  0  0
    7.3813   21.3989   33.1815 N   0  0  0  0  0  0  0  0  0  0  0  0
   11.1631   18.9282   36.6695 O   0  0  0  0  0  0  0  0  0  0  0  0
   12.1287   19.5621   35.8134 C   0  0  2  0  0  0  0  0  0  0  0  0
   10.9983   16.1461   33.5280 N   0  0  0  0  0  0  0  0  0  0  0  0
   13.5069   20.2715   37.6711 O   0  0  0  0  0  0  0  0  0  0  0  0
   12.7545   20.7506   36.5537 C   0  0  1  0  0  0  0  0  0  0  0  0
   11.0698   18.9143   33.6867 O   0  0  0  0  0  0  0  0  0  0  0  0
   13.6850   21.5453   35.6345 C   0  0  1  0  0  0  0  0  0  0  0  0
    8.7172   19.0807   33.7893 O   0  0  0  0  0  0  0  0  0  0  0  0
   12.9003   22.0980   34.4426 C   0  0  0  0  0  0  0  0  0  0  0  0
    8.1942   18.3396   30.2193 O   0  0  0  0  0  0  0  0  0  0  0  0
   12.2988   20.9336   33.6531 C   0  0  1  0  0  0  0  0  0  0  0  0
    9.3829   15.9059   31.1770 O   0  0  0  0  0  0  0  0  0  0  0  0
   11.4378   20.0175   34.5295 C   0  0  2  0  0  0  0  0  0  0  0  0
    9.6910   18.5741   39.3917 O   0  0  0  0  0  0  0  0  0  0  0  0
    9.8591   18.2555   34.0861 C   0  0  1  0  0  0  0  0  0  0  0  0
   11.9932   17.7415   40.7168 O   0  0  0  0  0  0  0  0  0  0  0  0
    8.5399   19.3729   32.3924 C   0  0  2  0  0  0  0  0  0  0  0  0
    7.3165   20.2787   32.2316 C   0  0  0  0  0  0  0  0  0  0  0  0
    8.3401   18.0663   31.6162 C   0  0  2  0  0  0  0  0  0  0  0  0
    9.5577   17.1654   31.8339 C   0  0  1  0  0  0  0  0  0  0  0  0
    9.7684   16.9258   33.3307 C   0  0  1  0  0  0  0  0  0  0  0  0
   10.6171   17.7253   38.7066 C   0  0  2  0  0  0  0  0  0  0  0  0
   11.4796   16.9128   39.6706 C   0  0  1  0  0  0  0  0  0  0  0  0
  3  1  1  0  0  0  0
  4  1  1  6  0  0  0
  4  6  1  0  0  0  0
  4 31  1  0  0  0  0
  6  7  1  0  0  0  0
  7  9  1  6  0  0  0
  7 30  1  0  0  0  0
 10  9  1  1  0  0  0
 10 13  1  0  0  0  0
 10 21  1  0  0  0  0
 13 12  1  1  0  0  0
 13 15  1  0  0  0  0
 15  2  1  1  0  0  0
 15 17  1  0  0  0  0
 16 25  1  0  0  0  0
 17 19  1  0  0  0  0
 19  5  1  6  0  0  0
 19 21  1  0  0  0  0
 21 14  1  6  0  0  0
 23 14  1  6  0  0  0
 23 16  1  0  0  0  0
 23 29  1  0  0  0  0
 25 26  1  1  0  0  0
 25 27  1  0  0  0  0
 26  8  1  0  0  0  0
 27 18  1  6  0  0  0
 27 28  1  0  0  0  0
 28 20  1  6  0  0  0
 28 29  1  0  0  0  0
 29 11  1  6  0  0  0
 30 22  1  1  0  0  0
 30 31  1  0  0  0  0
 31 24  1  1  0  0  0
M  END
>  <CHROM.1>
179.30073292,-58.90069692,-56.28499949,80.24034076,72.51565203,48.36980244
10.95460963,18.70165670,35.34866056,0.76395726,0.95144501,2.45923817

>  <Name>
2fcz_lig

>  <RI>
2.26996e+07

>  <Rbt.Current_Directory>
/home/itssahil/PROJECTS/Mol_Feturizer/New_Systems/rnas/2fcz

>  <Rbt.Executable>
rbdock ($Id: //depot/dev/client3/rdock/2013.1/src/exe/rbdock.cxx#4 $)

>  <Rbt.Library>
libRbt.so (2013.1, Build901 2013/11/27)

>  <Rbt.Parameter_File>
/export/apps/rDock/src/rDock_2013.1_src/data/scripts/dock_solv.prm

>  <Rbt.Receptor>
prm/pocket_docking_4.prm

>  <SCORE>
-19.7976

>  <SCORE.INTER>
-18.1595

>  <SCORE.INTER.CONST>
1

>  <SCORE.INTER.POLAR>
-2.24118

>  <SCORE.INTER.ROT>
6

>  <SCORE.INTER.SOLV>
14.6828

>  <SCORE.INTER.VDW>
-17.13

>  <SCORE.INTER.norm>
-0.585791

>  <SCORE.INTRA>
-1.63807

>  <SCORE.INTRA.DIHEDRAL>
-7.58746

>  <SCORE.INTRA.DIHEDRAL.0>
10.8409

>  <SCORE.INTRA.POLAR>
0

>  <SCORE.INTRA.POLAR.0>
0

>  <SCORE.INTRA.REPUL>
0

>  <SCORE.INTRA.REPUL.0>
0

>  <SCORE.INTRA.SOLV>
-2.47601

>  <SCORE.INTRA.SOLV.lig_0>
-80.8302

>  <SCORE.INTRA.VDW>
3.39367

>  <SCORE.INTRA.VDW.0>
-4.23953

>  <SCORE.INTRA.norm>
-0.0528409

>  <SCORE.RESTR>
0

>  <SCORE.RESTR.CAVITY>
0

>  <SCORE.RESTR.norm>
0

>  <SCORE.SYSTEM>
0

>  <SCORE.SYSTEM.CONST>
0

>  <SCORE.SYSTEM.DIHEDRAL>
0

>  <SCORE.SYSTEM.SOLV>
0

>  <SCORE.SYSTEM.norm>
0

>  <SCORE.heavy>
31

>  <SCORE.norm>
-0.638632

>  <RMSD>
2.481

$$$$
2fcz_lig
 OpenBabel11021811433D
libRbt.so/2013.1/901 2013/11/27
 31 33  0  0  0  0  0  0  0  0999 V2000
    6.6043   15.5126   37.9993 C   0  0  0  0  0  0  0  0  0  0  0  0
   13.0700   19.6750   38.1600 N   0  0  0  0  0  0  0  0  0  0  0  0
    5.5083   16.3565   38.3631 O   0  0  0  0  0  0  0  0  0  0  0  0
    6.8118   15.5638   36.4818 C   0  0  1  0  0  0  0  0  0  0  0  0
   11.7530   21.4942   33.8122 N   0  0  0  0  0  0  0  0  0  0  0  0
    6.9486   16.9189   36.0078 O   0  0  0  0  0  0  0  0  0  0  0  0
    8.3164   17.1598   35.6218 C   0  0  1  0  0  0  0  0  0  0  0  0
    5.7656   22.2040   32.5873 N   0  0  0  0  0  0  0  0  0  0  0  0
    8.8166   18.4158   36.1110 O   0  0  0  0  0  0  0  0  0  0  0  0
   10.2102   18.6427   35.8399 C   0  0  2  0  0  0  0  0  0  0  0  0
    9.1171   17.2178   31.9632 N   0  0  0  0  0  0  0  0  0  0  0  0
   10.8985   17.8626   38.0243 O   0  0  0  0  0  0  0  0  0  0  0  0
   10.9273   18.9931   37.1496 C   0  0  1  0  0  0  0  0  0  0  0  0
    9.9150   19.3784   33.5086 O   0  0  0  0  0  0  0  0  0  0  0  0
   12.3848   19.3837   36.8932 C   0  0  1  0  0  0  0  0  0  0  0  0
    7.7589   20.3391   33.4786 O   0  0  0  0  0  0  0  0  0  0  0  0
   12.4475   20.6122   35.9829 C   0  0  0  0  0  0  0  0  0  0  0  0
    7.9883   21.5164   29.9959 O   0  0  0  0  0  0  0  0  0  0  0  0
   11.7799   20.2823   34.6464 C   0  0  1  0  0  0  0  0  0  0  0  0
    8.1617   18.6656   29.6859 O   0  0  0  0  0  0  0  0  0  0  0  0
   10.3451   19.7725   34.8210 C   0  0  2  0  0  0  0  0  0  0  0  0
   10.3475   15.7494   35.6112 O   0  0  0  0  0  0  0  0  0  0  0  0
    8.5083   19.1115   33.4131 C   0  0  1  0  0  0  0  0  0  0  0  0
    8.0697   14.4147   34.7283 O   0  0  0  0  0  0  0  0  0  0  0  0
    8.0364   21.2644   32.4133 C   0  0  2  0  0  0  0  0  0  0  0  0
    7.1991   22.5275   32.6292 C   0  0  0  0  0  0  0  0  0  0  0  0
    7.6870   20.6181   31.0681 C   0  0  2  0  0  0  0  0  0  0  0  0
    8.5057   19.3359   30.9029 C   0  0  1  0  0  0  0  0  0  0  0  0
    8.2480   18.3966   32.0833 C   0  0  1  0  0  0  0  0  0  0  0  0
    9.0974   16.0085   36.2574 C   0  0  2  0  0  0  0  0  0  0  0  0
    8.1085   14.8567   36.0877 C   0  0  1  0  0  0  0  0  0  0  0  0
  3  1  1  0  0  0  0
  4  1  1  1  0  0  0
  4  6  1  0  0  0  0
  4 31  1  0  0  0  0
  6  7  1  0  0  0  0
  7  9  1  1  0  0  0
  7 30  1  0  0  0  0
 10  9  1  1  0  0  0
 10 13  1  0  0  0  0
 10 21  1  0  0  0  0
 13 12  1  1  0  0  0
 13 15  1  0  0  0  0
 15  2  1  1  0  0  0
 15 17  1  0  0  0  0
 16 25  1  0  0  0  0
 17 19  1  0  0  0  0
 19  5  1  6  0  0  0
 19 21  1  0  0  0  0
 21 14  1  6  0  0  0
 23 14  1  6  0  0  0
 23 16  1  0  0  0  0
 23 29  1  0  0  0  0
 25 26  1  1  0  0  0
 25 27  1  0  0  0  0
 26  8  1  0  0  0  0
 27 18  1  6  0  0  0
 27 28  1  0  0  0  0
 28 20  1  6  0  0  0
 28 29  1  0  0  0  0
 29 11  1  6  0  0  0
 30 22  1  6  0  0  0
 30 31  1  0  0  0  0
 31 24  1  6  0  0  0
M  END
>  <CHROM.1>
53.35545287,175.16856998,-126.97656484,66.73503288,72.26483503,-61.75867738
8.97873119,18.62601456,34.59089252,1.45487349,0.60605187,2.28733381

>  <Name>
2fcz_lig

>  <RI>
2.26996e+07

>  <Rbt.Current_Directory>
/home/itssahil/PROJECTS/Mol_Feturizer/New_Systems/rnas/2fcz

>  <Rbt.Executable>
rbdock ($Id: //depot/dev/client3/rdock/2013.1/src/exe/rbdock.cxx#4 $)

>  <Rbt.Library>
libRbt.so (2013.1, Build901 2013/11/27)

>  <Rbt.Parameter_File>
/export/apps/rDock/src/rDock_2013.1_src/data/scripts/dock_solv.prm

>  <Rbt.Receptor>
prm/pocket_docking_4.prm

>  <SCORE>
-17.6685

>  <SCORE.INTER>
-17.4736

>  <SCORE.INTER.CONST>
1

>  <SCORE.INTER.POLAR>
-2.38966

>  <SCORE.INTER.ROT>
6

>  <SCORE.INTER.SOLV>
20.0098

>  <SCORE.INTER.VDW>
-17.9535

>  <SCORE.INTER.norm>
-0.563666

>  <SCORE.INTRA>
-0.197373

>  <SCORE.INTRA.DIHEDRAL>
-2.52945

>  <SCORE.INTRA.DIHEDRAL.0>
10.8409

>  <SCORE.INTRA.POLAR>
0

>  <SCORE.INTRA.POLAR.0>
0

>  <SCORE.INTRA.REPUL>
0

>  <SCORE.INTRA.REPUL.0>
0

>  <SCORE.INTRA.SOLV>
-0.954831

>  <SCORE.INTRA.SOLV.lig_0>
-80.8302

>  <SCORE.INTRA.VDW>
1.54477

>  <SCORE.INTRA.VDW.0>
-4.23953

>  <SCORE.INTRA.norm>
-0.00636688

>  <SCORE.RESTR>
0.00250107

>  <SCORE.RESTR.CAVITY>
0.00250107

>  <SCORE.RESTR.norm>
8.06796e-05

>  <SCORE.SYSTEM>
0

>  <SCORE.SYSTEM.CONST>
0

>  <SCORE.SYSTEM.DIHEDRAL>
0

>  <SCORE.SYSTEM.SOLV>
0

>  <SCORE.SYSTEM.norm>
0

>  <SCORE.heavy>
31

>  <SCORE.norm>
-0.569952

>  <RMSD>
2.609

$$$$
2fcz_lig
 OpenBabel11021811433D
libRbt.so/2013.1/901 2013/11/27
 31 33  0  0  0  0  0  0  0  0999 V2000
    7.0509   14.7850   37.5886 C   0  0  0  0  0  0  0  0  0  0  0  0
   13.0133   19.6561   38.1551 N   0  0  0  0  0  0  0  0  0  0  0  0
    5.8230   15.2897   38.1205 O   0  0  0  0  0  0  0  0  0  0  0  0
    7.1309   15.0992   36.0908 C   0  0  1  0  0  0  0  0  0  0  0  0
   11.4864   21.5982   33.9309 N   0  0  0  0  0  0  0  0  0  0  0  0
    7.1172   16.5197   35.8425 O   0  0  0  0  0  0  0  0  0  0  0  0
    8.4250   16.9476   35.4133 C   0  0  1  0  0  0  0  0  0  0  0  0
    5.7282   22.2237   32.5875 N   0  0  0  0  0  0  0  0  0  0  0  0
    8.8579   18.1500   36.0720 O   0  0  0  0  0  0  0  0  0  0  0  0
   10.2229   18.5124   35.8030 C   0  0  2  0  0  0  0  0  0  0  0  0
    9.0460   17.2203   31.9297 N   0  0  0  0  0  0  0  0  0  0  0  0
   11.0050   17.6722   37.9328 O   0  0  0  0  0  0  0  0  0  0  0  0
   10.9244   18.8489   37.1247 C   0  0  1  0  0  0  0  0  0  0  0  0
    9.8344   19.3512   33.5206 O   0  0  0  0  0  0  0  0  0  0  0  0
   12.3391   19.3789   36.8793 C   0  0  1  0  0  0  0  0  0  0  0  0
    7.6878   20.3320   33.4647 O   0  0  0  0  0  0  0  0  0  0  0  0
   12.2834   20.6579   36.0411 C   0  0  0  0  0  0  0  0  0  0  0  0
    7.9925   21.5568   30.0042 O   0  0  0  0  0  0  0  0  0  0  0  0
   11.6290   20.3477   34.6933 C   0  0  1  0  0  0  0  0  0  0  0  0
    8.1461   18.7092   29.6564 O   0  0  0  0  0  0  0  0  0  0  0  0
   10.2462   19.7059   34.8500 C   0  0  2  0  0  0  0  0  0  0  0  0
   10.5579   15.7554   35.0331 O   0  0  0  0  0  0  0  0  0  0  0  0
    8.4273   19.0986   33.3953 C   0  0  1  0  0  0  0  0  0  0  0  0
    8.3340   14.3713   34.0908 O   0  0  0  0  0  0  0  0  0  0  0  0
    7.9934   21.2699   32.4182 C   0  0  2  0  0  0  0  0  0  0  0  0
    7.1636   22.5374   32.6369 C   0  0  0  0  0  0  0  0  0  0  0  0
    7.6633   20.6461   31.0576 C   0  0  2  0  0  0  0  0  0  0  0  0
    8.4734   19.3589   30.8890 C   0  0  1  0  0  0  0  0  0  0  0  0
    8.1854   18.4052   32.0508 C   0  0  1  0  0  0  0  0  0  0  0  0
    9.3467   15.7880   35.7944 C   0  0  2  0  0  0  0  0  0  0  0  0
    8.4455   14.5904   35.4995 C   0  0  1  0  0  0  0  0  0  0  0  0
  3  1  1  0  0  0  0
  4  1  1  1  0  0  0
  4  6  1  0  0  0  0
  4 31  1  0  0  0  0
  6  7  1  0  0  0  0
  7  9  1  1  0  0  0
  7 30  1  0  0  0  0
 10  9  1  1  0  0  0
 10 13  1  0  0  0  0
 10 21  1  0  0  0  0
 13 12  1  1  0  0  0
 13 15  1  0  0  0  0
 15  2  1  1  0  0  0
 15 17  1  0  0  0  0
 16 25  1  0  0  0  0
 17 19  1  0  0  0  0
 19  5  1  6  0  0  0
 19 21  1  0  0  0  0
 21 14  1  6  0  0  0
 23 14  1  6  0  0  0
 23 16  1  0  0  0  0
 23 29  1  0  0  0  0
 25 26  1  1  0  0  0
 25 27  1  0  0  0  0
 26  8  1  0  0  0  0
 27 18  1  6  0  0  0
 27 28  1  0  0  0  0
 28 20  1  6  0  0  0
 28 29  1  0  0  0  0
 29 11  1  6  0  0  0
 30 22  1  6  0  0  0
 30 31  1  0  0  0  0
 31 24  1  6  0  0  0
M  END
>  <CHROM.1>
61.62410349,172.28624859,-132.44115442,72.65241499,73.01685042,-60.75688985
9.02146853,18.49746257,34.46706081,1.41346482,0.71067105,2.40925285

>  <Name>
2fcz_lig

>  <RI>
0

>  <Rbt.Current_Directory>
/home/itssahil/PROJECTS/Mol_Feturizer/New_Systems/rnas/2fcz

>  <Rbt.Executable>
rbdock ($Id: //depot/dev/client3/rdock/2013.1/src/exe/rbdock.cxx#4 $)

>  <Rbt.Library>
libRbt.so (2013.1, Build901 2013/11/27)

>  <Rbt.Parameter_File>
/export/apps/rDock/src/rDock_2013.1_src/data/scripts/dock_solv.prm

>  <Rbt.Receptor>
prm/pocket_docking_5.prm

>  <SCORE>
-17.6608

>  <SCORE.INTER>
-17.8697

>  <SCORE.INTER.CONST>
1

>  <SCORE.INTER.POLAR>
-2.39666

>  <SCORE.INTER.ROT>
6

>  <SCORE.INTER.SOLV>
20.2542

>  <SCORE.INTER.VDW>
-18.2756

>  <SCORE.INTER.norm>
-0.576441

>  <SCORE.INTRA>
0.208847

>  <SCORE.INTRA.DIHEDRAL>
-2.38936

>  <SCORE.INTRA.DIHEDRAL.0>
10.8409

>  <SCORE.INTRA.POLAR>
0

>  <SCORE.INTRA.POLAR.0>
0

>  <SCORE.INTRA.REPUL>
0

>  <SCORE.INTRA.REPUL.0>
0

>  <SCORE.INTRA.SOLV>
0.147962

>  <SCORE.INTRA.SOLV.lig_0>
-80.8302

>  <SCORE.INTRA.VDW>
1.32955

>  <SCORE.INTRA.VDW.0>
-4.23953

>  <SCORE.INTRA.norm>
0.006737

>  <SCORE.RESTR>
0

>  <SCORE.RESTR.CAVITY>
0

>  <SCORE.RESTR.norm>
0

>  <SCORE.SYSTEM>
0

>  <SCORE.SYSTEM.CONST>
0

>  <SCORE.SYSTEM.DIHEDRAL>
0

>  <SCORE.SYSTEM.SOLV>
0

>  <SCORE.SYSTEM.norm>
0

>  <SCORE.heavy>
31

>  <SCORE.norm>
-0.569704

>  <RMSD>
2.688

$$$$
2fcz_lig
 OpenBabel11021811433D
libRbt.so/2013.1/901 2013/11/27
 31 33  0  0  0  0  0  0  0  0999 V2000
    8.4789   17.4811   39.9197 C   0  0  0  0  0  0  0  0  0  0  0  0
   13.2034   19.8212   38.1110 N   0  0  0  0  0  0  0  0  0  0  0  0
    9.6184   18.0572   40.5640 O   0  0  0  0  0  0  0  0  0  0  0  0
    7.9185   18.4655   38.8876 C   0  0  1  0  0  0  0  0  0  0  0  0
   10.7370   21.8621   34.4098 N   0  0  0  0  0  0  0  0  0  0  0  0
    8.8746   18.7470   37.8453 O   0  0  0  0  0  0  0  0  0  0  0  0
    8.4521   18.1171   36.6195 C   0  0  1  0  0  0  0  0  0  0  0  0
    6.8988   23.0848   31.7054 N   0  0  0  0  0  0  0  0  0  0  0  0
    9.5268   17.4396   35.9463 O   0  0  0  0  0  0  0  0  0  0  0  0
   10.6796   18.2618   35.6973 C   0  0  2  0  0  0  0  0  0  0  0  0
    9.3825   17.0582   32.0790 N   0  0  0  0  0  0  0  0  0  0  0  0
   11.8919   17.3661   37.5899 O   0  0  0  0  0  0  0  0  0  0  0  0
   11.3723   18.5744   37.0295 C   0  0  1  0  0  0  0  0  0  0  0  0
    9.8248   19.3086   33.6389 O   0  0  0  0  0  0  0  0  0  0  0  0
   12.5229   19.5646   36.8342 C   0  0  1  0  0  0  0  0  0  0  0  0
    7.5520   19.9426   33.5666 O   0  0  0  0  0  0  0  0  0  0  0  0
   11.9922   20.8814   36.2632 C   0  0  0  0  0  0  0  0  0  0  0  0
    7.6733   21.1496   30.0887 O   0  0  0  0  0  0  0  0  0  0  0  0
   11.3335   20.6128   34.9086 C   0  0  1  0  0  0  0  0  0  0  0  0
    8.2691   18.3559   29.7831 O   0  0  0  0  0  0  0  0  0  0  0  0
   10.2385   19.5439   34.9940 C   0  0  2  0  0  0  0  0  0  0  0  0
    6.4931   16.7359   36.0118 O   0  0  0  0  0  0  0  0  0  0  0  0
    8.4745   18.8384   33.5161 C   0  0  1  0  0  0  0  0  0  0  0  0
    5.8576   18.8985   37.6454 O   0  0  0  0  0  0  0  0  0  0  0  0
    7.7112   20.9013   32.5066 C   0  0  2  0  0  0  0  0  0  0  0  0
    6.6936   22.0273   32.7058 C   0  0  0  0  0  0  0  0  0  0  0  0
    7.4864   20.2141   31.1551 C   0  0  2  0  0  0  0  0  0  0  0  0
    8.4874   19.0664   31.0063 C   0  0  1  0  0  0  0  0  0  0  0  0
    8.3477   18.0964   32.1818 C   0  0  1  0  0  0  0  0  0  0  0  0
    7.3957   17.1024   37.0598 C   0  0  2  0  0  0  0  0  0  0  0  0
    6.6998   17.8736   38.1797 C   0  0  1  0  0  0  0  0  0  0  0  0
  3  1  1  0  0  0  0
  4  1  1  1  0  0  0
  4  6  1  0  0  0  0
  4 31  1  0  0  0  0
  6  7  1  0  0  0  0
  7  9  1  1  0  0  0
  7 30  1  0  0  0  0
 10  9  1  1  0  0  0
 10 13  1  0  0  0  0
 10 21  1  0  0  0  0
 13 12  1  6  0  0  0
 13 15  1  0  0  0  0
 15  2  1  1  0  0  0
 15 17  1  0  0  0  0
 16 25  1  0  0  0  0
 17 19  1  0  0  0  0
 19  5  1  1  0  0  0
 19 21  1  0  0  0  0
 21 14  1  6  0  0  0
 23 14  1  6  0  0  0
 23 16  1  0  0  0  0
 23 29  1  0  0  0  0
 25 26  1  1  0  0  0
 25 27  1  0  0  0  0
 26  8  1  0  0  0  0
 27 18  1  6  0  0  0
 27 28  1  0  0  0  0
 28 20  1  6  0  0  0
 28 29  1  0  0  0  0
 29 11  1  6  0  0  0
 30 22  1  6  0  0  0
 30 31  1  0  0  0  0
 31 24  1  6  0  0  0
M  END
>  <CHROM.1>
62.39855990,-53.88732234,69.60118357,81.97357395,82.25568902,175.29230541
9.01211348,19.12532361,35.12074240,1.32049814,0.28480474,1.92222696

>  <Name>
2fcz_lig

>  <RI>
0

>  <Rbt.Current_Directory>
/home/itssahil/PROJECTS/Mol_Feturizer/New_Systems/rnas/2fcz

>  <Rbt.Executable>
rbdock ($Id: //depot/dev/client3/rdock/2013.1/src/exe/rbdock.cxx#4 $)

>  <Rbt.Library>
libRbt.so (2013.1, Build901 2013/11/27)

>  <Rbt.Parameter_File>
/export/apps/rDock/src/rDock_2013.1_src/data/scripts/dock_solv.prm

>  <Rbt.Receptor>
prm/pocket_docking_5.prm

>  <SCORE>
-28.2293

>  <SCORE.INTER>
-27.4273

>  <SCORE.INTER.CONST>
1

>  <SCORE.INTER.POLAR>
-3.89649

>  <SCORE.INTER.ROT>
6

>  <SCORE.INTER.SOLV>
18.1003

>  <SCORE.INTER.VDW>
-18.93

>  <SCORE.INTER.norm>
-0.884752

>  <SCORE.INTRA>
-0.802002

>  <SCORE.INTRA.DIHEDRAL>
-5.69109

>  <SCORE.INTRA.DIHEDRAL.0>
10.8409

>  <SCORE.INTRA.POLAR>
0

>  <SCORE.INTRA.POLAR.0>
0

>  <SCORE.INTRA.REPUL>
0

>  <SCORE.INTRA.REPUL.0>
0

>  <SCORE.INTRA.SOLV>
-1.06255

>  <SCORE.INTRA.SOLV.lig_0>
-80.8302

>  <SCORE.INTRA.VDW>
2.57482

>  <SCORE.INTRA.VDW.0>
-4.23953

>  <SCORE.INTRA.norm>
-0.025871

>  <SCORE.RESTR>
0

>  <SCORE.RESTR.CAVITY>
0

>  <SCORE.RESTR.norm>
0

>  <SCORE.SYSTEM>
0

>  <SCORE.SYSTEM.CONST>
0

>  <SCORE.SYSTEM.DIHEDRAL>
0

>  <SCORE.SYSTEM.SOLV>
0

>  <SCORE.SYSTEM.norm>
0

>  <SCORE.heavy>
31

>  <SCORE.norm>
-0.910623

>  <RMSD>
2.848

$$$$
2fcz_lig
 OpenBabel11021811433D
libRbt.so/2013.1/901 2013/11/27
 31 33  0  0  0  0  0  0  0  0999 V2000
   13.1920   16.4166   38.9271 C   0  0  0  0  0  0  0  0  0  0  0  0
   14.1340   23.5150   35.1258 N   0  0  0  0  0  0  0  0  0  0  0  0
   12.4817   15.7933   40.0006 O   0  0  0  0  0  0  0  0  0  0  0  0
   12.9365   17.9275   38.9492 C   0  0  1  0  0  0  0  0  0  0  0  0
    9.9245   21.6924   33.4213 N   0  0  0  0  0  0  0  0  0  0  0  0
   13.6346   18.6020   37.8829 O   0  0  0  0  0  0  0  0  0  0  0  0
   12.6886   19.0403   36.8876 C   0  0  1  0  0  0  0  0  0  0  0  0
    7.3116   20.9154   30.4493 N   0  0  0  0  0  0  0  0  0  0  0  0
   13.1223   18.7533   35.5472 O   0  0  0  0  0  0  0  0  0  0  0  0
   13.0567   19.8761   34.6517 C   0  0  2  0  0  0  0  0  0  0  0  0
   10.8872   16.3500   33.4980 N   0  0  0  0  0  0  0  0  0  0  0  0
   15.0706   20.8757   35.5454 O   0  0  0  0  0  0  0  0  0  0  0  0
   13.6746   21.1021   35.3354 C   0  0  1  0  0  0  0  0  0  0  0  0
   11.0694   19.1163   33.4118 O   0  0  0  0  0  0  0  0  0  0  0  0
   13.5001   22.3581   34.4784 C   0  0  1  0  0  0  0  0  0  0  0  0
    8.7261   19.3853   33.5092 O   0  0  0  0  0  0  0  0  0  0  0  0
   12.0126   22.6443   34.2616 C   0  0  0  0  0  0  0  0  0  0  0  0
    8.1468   18.3550   30.0206 O   0  0  0  0  0  0  0  0  0  0  0  0
   11.3724   21.4576   33.5386 C   0  0  1  0  0  0  0  0  0  0  0  0
    9.2456   15.9691   31.1840 O   0  0  0  0  0  0  0  0  0  0  0  0
   11.5986   20.1336   34.2767 C   0  0  2  0  0  0  0  0  0  0  0  0
   10.2291   18.8689   36.6959 O   0  0  0  0  0  0  0  0  0  0  0  0
    9.8367   18.5442   33.8728 C   0  0  1  0  0  0  0  0  0  0  0  0
   11.0966   19.5067   39.2630 O   0  0  0  0  0  0  0  0  0  0  0  0
    8.5498   19.5605   32.0928 C   0  0  2  0  0  0  0  0  0  0  0  0
    7.3620   20.4970   31.8578 C   0  0  0  0  0  0  0  0  0  0  0  0
    8.2925   18.1999   31.4355 C   0  0  2  0  0  0  0  0  0  0  0  0
    9.4751   17.2735   31.7267 C   0  0  1  0  0  0  0  0  0  0  0  0
    9.6877   17.1580   33.2378 C   0  0  1  0  0  0  0  0  0  0  0  0
   11.4167   18.2504   37.2005 C   0  0  2  0  0  0  0  0  0  0  0  0
   11.4546   18.2300   38.7274 C   0  0  1  0  0  0  0  0  0  0  0  0
  3  1  1  0  0  0  0
  4  1  1  6  0  0  0
  4  6  1  0  0  0  0
  4 31  1  0  0  0  0
  6  7  1  0  0  0  0
  7  9  1  6  0  0  0
  7 30  1  0  0  0  0
 10  9  1  1  0  0  0
 10 13  1  0  0  0  0
 10 21  1  0  0  0  0
 13 12  1  6  0  0  0
 13 15  1  0  0  0  0
 15  2  1  1  0  0  0
 15 17  1  0  0  0  0
 16 25  1  0  0  0  0
 17 19  1  0  0  0  0
 19  5  1  1  0  0  0
 19 21  1  0  0  0  0
 21 14  1  6  0  0  0
 23 14  1  6  0  0  0
 23 16  1  0  0  0  0
 23 29  1  0  0  0  0
 25 26  1  1  0  0  0
 25 27  1  0  0  0  0
 26  8  1  0  0  0  0
 27 18  1  6  0  0  0
 27 28  1  0  0  0  0
 28 20  1  1  0  0  0
 28 29  1  0  0  0  0
 29 11  1  6  0  0  0
 30 22  1  1  0  0  0
 30 31  1  0  0  0  0
 31 24  1  1  0  0  0
M  END
>  <CHROM.1>
179.95458735,-129.86153330,46.88601164,127.93812303,82.02698278,168.73726522
11.13799386,19.20589348,34.76785531,0.59428338,0.83816433,2.46383679

>  <Name>
2fcz_lig

>  <RI>
2.26996e+07

>  <Rbt.Current_Directory>
/home/itssahil/PROJECTS/Mol_Feturizer/New_Systems/rnas/2fcz

>  <Rbt.Executable>
rbdock ($Id: //depot/dev/client3/rdock/2013.1/src/exe/rbdock.cxx#4 $)

>  <Rbt.Library>
libRbt.so (2013.1, Build901 2013/11/27)

>  <Rbt.Parameter_File>
/export/apps/rDock/src/rDock_2013.1_src/data/scripts/dock_solv.prm

>  <Rbt.Receptor>
prm/pocket_docking_4.prm

>  <SCORE>
-15.0493

>  <SCORE.INTER>
-21.0828

>  <SCORE.INTER.CONST>
1

>  <SCORE.INTER.POLAR>
-2.10032

>  <SCORE.INTER.ROT>
6

>  <SCORE.INTER.SOLV>
9.51985

>  <SCORE.INTER.VDW>
-17.8274

>  <SCORE.INTER.norm>
-0.68009

>  <SCORE.INTRA>
6.03346

>  <SCORE.INTRA.DIHEDRAL>
6.09432

>  <SCORE.INTRA.DIHEDRAL.0>
10.8409

>  <SCORE.INTRA.POLAR>
0

>  <SCORE.INTRA.POLAR.0>
0

>  <SCORE.INTRA.REPUL>
0

>  <SCORE.INTRA.REPUL.0>
0

>  <SCORE.INTRA.SOLV>
1.96835

>  <SCORE.INTRA.SOLV.lig_0>
-80.8302

>  <SCORE.INTRA.VDW>
2.00213

>  <SCORE.INTRA.VDW.0>
-4.23953

>  <SCORE.INTRA.norm>
0.194628

>  <SCORE.RESTR>
0

>  <SCORE.RESTR.CAVITY>
0

>  <SCORE.RESTR.norm>
0

>  <SCORE.SYSTEM>
0

>  <SCORE.SYSTEM.CONST>
0

>  <SCORE.SYSTEM.DIHEDRAL>
0

>  <SCORE.SYSTEM.SOLV>
0

>  <SCORE.SYSTEM.norm>
0

>  <SCORE.heavy>
31

>  <SCORE.norm>
-0.485462

>  <RMSD>
2.861

$$$$
2fcz_lig
 OpenBabel11021811433D
libRbt.so/2013.1/901 2013/11/27
 31 33  0  0  0  0  0  0  0  0999 V2000
   12.1073   17.6143   40.5973 C   0  0  0  0  0  0  0  0  0  0  0  0
   14.6367   22.4818   37.0953 N   0  0  0  0  0  0  0  0  0  0  0  0
   11.4686   17.1582   41.7929 O   0  0  0  0  0  0  0  0  0  0  0  0
   11.2138   18.6436   39.8967 C   0  0  1  0  0  0  0  0  0  0  0  0
   11.0406   22.1067   33.7976 N   0  0  0  0  0  0  0  0  0  0  0  0
   11.8585   19.2075   38.7365 O   0  0  0  0  0  0  0  0  0  0  0  0
   11.2286   18.7042   37.5416 C   0  0  1  0  0  0  0  0  0  0  0  0
    7.3844   21.3813   33.1958 N   0  0  0  0  0  0  0  0  0  0  0  0
   12.1802   18.2940   36.5450 O   0  0  0  0  0  0  0  0  0  0  0  0
   12.7914   19.3805   35.8289 C   0  0  2  0  0  0  0  0  0  0  0  0
   11.6316   16.5670   33.5542 N   0  0  0  0  0  0  0  0  0  0  0  0
   14.5202   19.6807   37.4946 O   0  0  0  0  0  0  0  0  0  0  0  0
   13.4402   20.3426   36.8316 C   0  0  1  0  0  0  0  0  0  0  0  0
   11.2869   19.2997   33.8810 O   0  0  0  0  0  0  0  0  0  0  0  0
   13.9807   21.5902   36.1289 C   0  0  1  0  0  0  0  0  0  0  0  0
    8.9334   19.1167   33.8745 O   0  0  0  0  0  0  0  0  0  0  0  0
   12.8405   22.3381   35.4344 C   0  0  0  0  0  0  0  0  0  0  0  0
    8.6731   18.5463   30.2448 O   0  0  0  0  0  0  0  0  0  0  0  0
   12.1986   21.4203   34.3920 C   0  0  1  0  0  0  0  0  0  0  0  0
   10.1677   16.2521   31.1145 O   0  0  0  0  0  0  0  0  0  0  0  0
   11.7280   20.0922   34.9947 C   0  0  2  0  0  0  0  0  0  0  0  0
    9.3443   17.1530   37.1442 O   0  0  0  0  0  0  0  0  0  0  0  0
   10.1714   18.4476   34.1788 C   0  0  1  0  0  0  0  0  0  0  0  0
    8.8824   18.9441   39.2246 O   0  0  0  0  0  0  0  0  0  0  0  0
    8.7726   19.4721   32.4903 C   0  0  2  0  0  0  0  0  0  0  0  0
    7.4365   20.2000   32.3222 C   0  0  0  0  0  0  0  0  0  0  0  0
    8.8001   18.2049   31.6285 C   0  0  2  0  0  0  0  0  0  0  0  0
   10.1273   17.4773   31.8533 C   0  0  1  0  0  0  0  0  0  0  0  0
   10.3093   17.1718   33.3418 C   0  0  1  0  0  0  0  0  0  0  0  0
   10.4243   17.4938   38.0187 C   0  0  2  0  0  0  0  0  0  0  0  0
    9.9341   17.9874   39.3786 C   0  0  1  0  0  0  0  0  0  0  0  0
  3  1  1  0  0  0  0
  4  1  1  6  0  0  0
  4  6  1  0  0  0  0
  4 31  1  0  0  0  0
  6  7  1  0  0  0  0
  7  9  1  6  0  0  0
  7 30  1  0  0  0  0
 10  9  1  1  0  0  0
 10 13  1  0  0  0  0
 10 21  1  0  0  0  0
 13 12  1  6  0  0  0
 13 15  1  0  0  0  0
 15  2  1  1  0  0  0
 15 17  1  0  0  0  0
 16 25  1  0  0  0  0
 17 19  1  0  0  0  0
 19  5  1  1  0  0  0
 19 21  1  0  0  0  0
 21 14  1  6  0  0  0
 23 14  1  6  0  0  0
 23 16  1  0  0  0  0
 23 29  1  0  0  0  0
 25 26  1  1  0  0  0
 25 27  1  0  0  0  0
 26  8  1  0  0  0  0
 27 18  1  6  0  0  0
 27 28  1  0  0  0  0
 28 20  1  6  0  0  0
 28 29  1  0  0  0  0
 29 11  1  6  0  0  0
 30 22  1  6  0  0  0
 30 31  1  0  0  0  0
 31 24  1  6  0  0  0
M  END
>  <CHROM.1>
175.71928867,-76.60026086,55.54631501,89.80233512,92.01966094,57.20747538
10.93801671,19.09036081,35.58939101,1.04812440,0.76715933,1.94000651

>  <Name>
2fcz_lig

>  <RI>
0

>  <Rbt.Current_Directory>
/home/itssahil/PROJECTS/Mol_Feturizer/New_Systems/rnas/2fcz

>  <Rbt.Executable>
rbdock ($Id: //depot/dev/client3/rdock/2013.1/src/exe/rbdock.cxx#4 $)

>  <Rbt.Library>
libRbt.so (2013.1, Build901 2013/11/27)

>  <Rbt.Parameter_File>
/export/apps/rDock/src/rDock_2013.1_src/data/scripts/dock_solv.prm

>  <Rbt.Receptor>
prm/pocket_docking_5.prm

>  <SCORE>
-22.269

>  <SCORE.INTER>
-22.5687

>  <SCORE.INTER.CONST>
1

>  <SCORE.INTER.POLAR>
-3.15422

>  <SCORE.INTER.ROT>
6

>  <SCORE.INTER.SOLV>
17.7621

>  <SCORE.INTER.VDW>
-18.0524

>  <SCORE.INTER.norm>
-0.728023

>  <SCORE.INTRA>
0.299736

>  <SCORE.INTRA.DIHEDRAL>
-1.77223

>  <SCORE.INTRA.DIHEDRAL.0>
10.8409

>  <SCORE.INTRA.POLAR>
0

>  <SCORE.INTRA.POLAR.0>
0

>  <SCORE.INTRA.REPUL>
0

>  <SCORE.INTRA.REPUL.0>
0

>  <SCORE.INTRA.SOLV>
-0.912649

>  <SCORE.INTRA.SOLV.lig_0>
-80.8302

>  <SCORE.INTRA.VDW>
1.64218

>  <SCORE.INTRA.VDW.0>
-4.23953

>  <SCORE.INTRA.norm>
0.00966891

>  <SCORE.RESTR>
0

>  <SCORE.RESTR.CAVITY>
0

>  <SCORE.RESTR.norm>
0

>  <SCORE.SYSTEM>
0

>  <SCORE.SYSTEM.CONST>
0

>  <SCORE.SYSTEM.DIHEDRAL>
0

>  <SCORE.SYSTEM.SOLV>
0

>  <SCORE.SYSTEM.norm>
0

>  <SCORE.heavy>
31

>  <SCORE.norm>
-0.718354

>  <RMSD>
2.904

$$$$
2fcz_lig
 OpenBabel11021811433D
libRbt.so/2013.1/901 2013/11/27
 31 33  0  0  0  0  0  0  0  0999 V2000
    7.7044   14.6175   37.0736 C   0  0  0  0  0  0  0  0  0  0  0  0
   13.3099   19.7715   38.4031 N   0  0  0  0  0  0  0  0  0  0  0  0
    6.9175   13.5146   37.5317 O   0  0  0  0  0  0  0  0  0  0  0  0
    7.8367   15.6557   38.1931 C   0  0  1  0  0  0  0  0  0  0  0  0
   12.8455   19.1412   33.5725 N   0  0  0  0  0  0  0  0  0  0  0  0
    8.9136   16.5803   37.9382 O   0  0  0  0  0  0  0  0  0  0  0  0
    8.3709   17.8705   37.5936 C   0  0  1  0  0  0  0  0  0  0  0  0
    8.0756   21.2951   33.3328 N   0  0  0  0  0  0  0  0  0  0  0  0
    9.0243   18.4601   36.4566 O   0  0  0  0  0  0  0  0  0  0  0  0
   10.4414   18.2246   36.4016 C   0  0  2  0  0  0  0  0  0  0  0  0
    9.6647   15.0837   33.2597 N   0  0  0  0  0  0  0  0  0  0  0  0
   10.7372   18.6451   38.7658 O   0  0  0  0  0  0  0  0  0  0  0  0
   11.1363   19.0840   37.4649 C   0  0  1  0  0  0  0  0  0  0  0  0
   10.5204   17.6108   34.0181 O   0  0  0  0  0  0  0  0  0  0  0  0
   12.6589   18.9774   37.3519 C   0  0  1  0  0  0  0  0  0  0  0  0
    8.3744   18.5486   33.7219 O   0  0  0  0  0  0  0  0  0  0  0  0
   13.1200   19.4700   35.9785 C   0  0  0  0  0  0  0  0  0  0  0  0
    8.5365   18.5473   30.0420 O   0  0  0  0  0  0  0  0  0  0  0  0
   12.4801   18.6030   34.8924 C   0  0  1  0  0  0  0  0  0  0  0  0
    8.6728   15.7444   30.6569 O   0  0  0  0  0  0  0  0  0  0  0  0
   10.9520   18.5635   35.0024 C   0  0  2  0  0  0  0  0  0  0  0  0
    6.0647   18.7386   37.3875 O   0  0  0  0  0  0  0  0  0  0  0  0
    9.1091   17.3516   34.0387 C   0  0  1  0  0  0  0  0  0  0  0  0
    6.4296   17.0818   39.5945 O   0  0  0  0  0  0  0  0  0  0  0  0
    8.6372   19.0801   32.4117 C   0  0  2  0  0  0  0  0  0  0  0  0
    7.8184   20.3603   32.2277 C   0  0  0  0  0  0  0  0  0  0  0  0
    8.2503   18.0440   31.3505 C   0  0  2  0  0  0  0  0  0  0  0  0
    9.0515   16.7623   31.5891 C   0  0  1  0  0  0  0  0  0  0  0  0
    8.8110   16.2540   33.0124 C   0  0  1  0  0  0  0  0  0  0  0  0
    6.9054   17.5878   37.2595 C   0  0  2  0  0  0  0  0  0  0  0  0
    6.5737   16.5113   38.2911 C   0  0  1  0  0  0  0  0  0  0  0  0
  3  1  1  0  0  0  0
  4  1  1  6  0  0  0
  4  6  1  0  0  0  0
  4 31  1  0  0  0  0
  6  7  1  0  0  0  0
  7  9  1  6  0  0  0
  7 30  1  0  0  0  0
 10  9  1  6  0  0  0
 10 13  1  0  0  0  0
 10 21  1  0  0  0  0
 13 12  1  1  0  0  0
 13 15  1  0  0  0  0
 15  2  1  1  0  0  0
 15 17  1  0  0  0  0
 16 25  1  0  0  0  0
 17 19  1  0  0  0  0
 19  5  1  6  0  0  0
 19 21  1  0  0  0  0
 21 14  1  6  0  0  0
 23 14  1  6  0  0  0
 23 16  1  0  0  0  0
 23 29  1  0  0  0  0
 25 26  1  6  0  0  0
 25 27  1  0  0  0  0
 26  8  1  0  0  0  0
 27 18  1  6  0  0  0
 27 28  1  0  0  0  0
 28 20  1  6  0  0  0
 28 29  1  0  0  0  0
 29 11  1  1  0  0  0
 30 22  1  1  0  0  0
 30 31  1  0  0  0  0
 31 24  1  1  0  0  0
M  END
>  <CHROM.1>
163.18582408,-37.57608937,-73.29260807,50.65111832,63.02620258,53.40087672
9.24656362,17.78035876,35.32894670,1.70198073,0.57682390,1.66431667

>  <Name>
2fcz_lig

>  <RI>
2.26996e+07

>  <Rbt.Current_Directory>
/home/itssahil/PROJECTS/Mol_Feturizer/New_Systems/rnas/2fcz

>  <Rbt.Executable>
rbdock ($Id: //depot/dev/client3/rdock/2013.1/src/exe/rbdock.cxx#4 $)

>  <Rbt.Library>
libRbt.so (2013.1, Build901 2013/11/27)

>  <Rbt.Parameter_File>
/export/apps/rDock/src/rDock_2013.1_src/data/scripts/dock_solv.prm

>  <Rbt.Receptor>
prm/pocket_docking_4.prm

>  <SCORE>
-18.5922

>  <SCORE.INTER>
-16.6534

>  <SCORE.INTER.CONST>
1

>  <SCORE.INTER.POLAR>
-2.98501

>  <SCORE.INTER.ROT>
6

>  <SCORE.INTER.SOLV>
20.648

>  <SCORE.INTER.VDW>
-15.6349

>  <SCORE.INTER.norm>
-0.537206

>  <SCORE.INTRA>
-1.94922

>  <SCORE.INTRA.DIHEDRAL>
-6.12055

>  <SCORE.INTRA.DIHEDRAL.0>
10.8409

>  <SCORE.INTRA.POLAR>
0

>  <SCORE.INTRA.POLAR.0>
0

>  <SCORE.INTRA.REPUL>
0

>  <SCORE.INTRA.REPUL.0>
0

>  <SCORE.INTRA.SOLV>
-3.74104

>  <SCORE.INTRA.SOLV.lig_0>
-80.8302

>  <SCORE.INTRA.VDW>
2.98157

>  <SCORE.INTRA.VDW.0>
-4.23953

>  <SCORE.INTRA.norm>
-0.0628781

>  <SCORE.RESTR>
0.0103703

>  <SCORE.RESTR.CAVITY>
0.0103703

>  <SCORE.RESTR.norm>
0.000334526

>  <SCORE.SYSTEM>
0

>  <SCORE.SYSTEM.CONST>
0

>  <SCORE.SYSTEM.DIHEDRAL>
0

>  <SCORE.SYSTEM.SOLV>
0

>  <SCORE.SYSTEM.norm>
0

>  <SCORE.heavy>
31

>  <SCORE.norm>
-0.59975

>  <RMSD>
3.128

$$$$
2fcz_lig
 OpenBabel11021811433D
libRbt.so/2013.1/901 2013/11/27
 31 33  0  0  0  0  0  0  0  0999 V2000
   11.0798   16.6844   40.5213 C   0  0  0  0  0  0  0  0  0  0  0  0
   15.3602   19.3676   37.0693 N   0  0  0  0  0  0  0  0  0  0  0  0
   12.4257   16.9507   40.9252 O   0  0  0  0  0  0  0  0  0  0  0  0
   10.5538   17.8527   39.6806 C   0  0  1  0  0  0  0  0  0  0  0  0
   12.0616   20.7169   33.7158 N   0  0  0  0  0  0  0  0  0  0  0  0
   11.3163   18.0232   38.4685 O   0  0  0  0  0  0  0  0  0  0  0  0
   10.5248   17.6080   37.3376 C   0  0  1  0  0  0  0  0  0  0  0  0
    7.8903   21.3275   33.4400 N   0  0  0  0  0  0  0  0  0  0  0  0
   11.2630   16.7864   36.4171 O   0  0  0  0  0  0  0  0  0  0  0  0
   12.3199   17.4749   35.7273 C   0  0  2  0  0  0  0  0  0  0  0  0
   10.3750   15.4411   33.3224 N   0  0  0  0  0  0  0  0  0  0  0  0
   13.9593   16.9320   37.4218 O   0  0  0  0  0  0  0  0  0  0  0  0
   13.3188   18.0222   36.7544 C   0  0  1  0  0  0  0  0  0  0  0  0
   10.9863   18.1113   33.7574 O   0  0  0  0  0  0  0  0  0  0  0  0
   14.3868   18.8860   36.0795 C   0  0  1  0  0  0  0  0  0  0  0  0
    8.7109   18.7341   33.8425 O   0  0  0  0  0  0  0  0  0  0  0  0
   13.7330   20.0804   35.3813 C   0  0  0  0  0  0  0  0  0  0  0  0
    8.1730   18.4548   30.2093 O   0  0  0  0  0  0  0  0  0  0  0  0
   12.7615   19.5697   34.3153 C   0  0  1  0  0  0  0  0  0  0  0  0
    8.8245   15.7529   30.9363 O   0  0  0  0  0  0  0  0  0  0  0  0
   11.7204   18.6029   34.8898 C   0  0  2  0  0  0  0  0  0  0  0  0
    8.2269   16.7230   37.1109 O   0  0  0  0  0  0  0  0  0  0  0  0
    9.6565   17.6729   34.0718 C   0  0  1  0  0  0  0  0  0  0  0  0
    8.4318   18.8135   38.9378 O   0  0  0  0  0  0  0  0  0  0  0  0
    8.6421   19.1871   32.4794 C   0  0  2  0  0  0  0  0  0  0  0  0
    7.6279   20.3303   32.3922 C   0  0  0  0  0  0  0  0  0  0  0  0
    8.2147   18.0265   31.5739 C   0  0  2  0  0  0  0  0  0  0  0  0
    9.2222   16.8839   31.7180 C   0  0  1  0  0  0  0  0  0  0  0  0
    9.3307   16.4660   33.1862 C   0  0  1  0  0  0  0  0  0  0  0  0
    9.3819   16.7984   37.9522 C   0  0  2  0  0  0  0  0  0  0  0  0
    9.1165   17.5925   39.2298 C   0  0  1  0  0  0  0  0  0  0  0  0
  3  1  1  0  0  0  0
  4  1  1  6  0  0  0
  4  6  1  0  0  0  0
  4 31  1  0  0  0  0
  6  7  1  0  0  0  0
  7  9  1  6  0  0  0
  7 30  1  0  0  0  0
 10  9  1  1  0  0  0
 10 13  1  0  0  0  0
 10 21  1  0  0  0  0
 13 12  1  6  0  0  0
 13 15  1  0  0  0  0
 15  2  1  1  0  0  0
 15 17  1  0  0  0  0
 16 25  1  0  0  0  0
 17 19  1  0  0  0  0
 19  5  1  1  0  0  0
 19 21  1  0  0  0  0
 21 14  1  6  0  0  0
 23 14  1  6  0  0  0
 23 16  1  0  0  0  0
 23 29  1  0  0  0  0
 25 26  1  1  0  0  0
 25 27  1  0  0  0  0
 26  8  1  0  0  0  0
 27 18  1  6  0  0  0
 27 28  1  0  0  0  0
 28 20  1  6  0  0  0
 28 29  1  0  0  0  0
 29 11  1  6  0  0  0
 30 22  1  6  0  0  0
 30 31  1  0  0  0  0
 31 24  1  6  0  0  0
M  END
>  <CHROM.1>
62.32382066,-67.39563263,59.79345293,80.73457119,94.53128843,49.04487490
10.61336193,18.04143594,35.46626273,1.11756555,0.24715776,1.77246181

>  <Name>
2fcz_lig

>  <RI>
1.32928e+07

>  <Rbt.Current_Directory>
/home/itssahil/PROJECTS/Mol_Feturizer/New_Systems/rnas/2fcz

>  <Rbt.Executable>
rbdock ($Id: //depot/dev/client3/rdock/2013.1/src/exe/rbdock.cxx#4 $)

>  <Rbt.Library>
libRbt.so (2013.1, Build901 2013/11/27)

>  <Rbt.Parameter_File>
/export/apps/rDock/src/rDock_2013.1_src/data/scripts/dock_solv.prm

>  <Rbt.Receptor>
prm/pocket_docking_7.prm

>  <SCORE>
-18.5993

>  <SCORE.INTER>
-18.0315

>  <SCORE.INTER.CONST>
1

>  <SCORE.INTER.POLAR>
-2.59268

>  <SCORE.INTER.ROT>
6

>  <SCORE.INTER.SOLV>
14.1172

>  <SCORE.INTER.VDW>
-15.6844

>  <SCORE.INTER.norm>
-0.58166

>  <SCORE.INTRA>
-0.567826

>  <SCORE.INTRA.DIHEDRAL>
-3.65254

>  <SCORE.INTRA.DIHEDRAL.0>
10.8409

>  <SCORE.INTRA.POLAR>
0

>  <SCORE.INTRA.POLAR.0>
0

>  <SCORE.INTRA.REPUL>
0

>  <SCORE.INTRA.REPUL.0>
0

>  <SCORE.INTRA.SOLV>
-1.75154

>  <SCORE.INTRA.SOLV.lig_0>
-80.8302

>  <SCORE.INTRA.VDW>
2.13421

>  <SCORE.INTRA.VDW.0>
-4.23953

>  <SCORE.INTRA.norm>
-0.018317

>  <SCORE.RESTR>
0

>  <SCORE.RESTR.CAVITY>
0

>  <SCORE.RESTR.norm>
0

>  <SCORE.SYSTEM>
0

>  <SCORE.SYSTEM.CONST>
0

>  <SCORE.SYSTEM.DIHEDRAL>
0

>  <SCORE.SYSTEM.SOLV>
0

>  <SCORE.SYSTEM.norm>
0

>  <SCORE.heavy>
31

>  <SCORE.norm>
-0.599977

>  <RMSD>
3.291

$$$$
2fcz_lig
 OpenBabel11021811433D
libRbt.so/2013.1/901 2013/11/27
 31 33  0  0  0  0  0  0  0  0999 V2000
   13.8595   15.8612   32.4220 C   0  0  0  0  0  0  0  0  0  0  0  0
   14.0265   23.8596   35.1894 N   0  0  0  0  0  0  0  0  0  0  0  0
   12.7714   15.7570   33.3443 O   0  0  0  0  0  0  0  0  0  0  0  0
   14.8717   16.8915   32.9342 C   0  0  1  0  0  0  0  0  0  0  0  0
    9.4573   22.5804   33.9923 N   0  0  0  0  0  0  0  0  0  0  0  0
   14.2955   18.2111   33.0140 O   0  0  0  0  0  0  0  0  0  0  0  0
   14.1014   18.5705   34.3964 C   0  0  1  0  0  0  0  0  0  0  0  0
    7.0731   23.0966   32.7967 N   0  0  0  0  0  0  0  0  0  0  0  0
   12.8122   19.1587   34.6397 O   0  0  0  0  0  0  0  0  0  0  0  0
   12.6458   20.4710   34.0767 C   0  0  2  0  0  0  0  0  0  0  0  0
   10.1147   17.3360   32.7911 N   0  0  0  0  0  0  0  0  0  0  0  0
   14.8552   21.1869   34.7546 O   0  0  0  0  0  0  0  0  0  0  0  0
   13.4626   21.4778   34.8962 C   0  0  1  0  0  0  0  0  0  0  0  0
   10.4103   20.0737   33.1234 O   0  0  0  0  0  0  0  0  0  0  0  0
   13.2056   22.9109   34.4244 C   0  0  1  0  0  0  0  0  0  0  0  0
    8.1194   20.3753   33.6065 O   0  0  0  0  0  0  0  0  0  0  0  0
   11.7258   23.2625   34.5928 C   0  0  0  0  0  0  0  0  0  0  0  0
    7.0050   19.9488   30.1217 O   0  0  0  0  0  0  0  0  0  0  0  0
   10.8822   22.3039   33.7501 C   0  0  1  0  0  0  0  0  0  0  0  0
    8.1461   17.3795   30.7132 O   0  0  0  0  0  0  0  0  0  0  0  0
   11.1622   20.8342   34.0821 C   0  0  2  0  0  0  0  0  0  0  0  0
   14.5644   17.4095   36.5301 O   0  0  0  0  0  0  0  0  0  0  0  0
    9.2302   19.4611   33.6631 C   0  0  1  0  0  0  0  0  0  0  0  0
   16.5976   17.1217   34.6506 O   0  0  0  0  0  0  0  0  0  0  0  0
    7.7526   20.7860   32.2780 C   0  0  2  0  0  0  0  0  0  0  0  0
    6.5880   21.7749   32.3736 C   0  0  0  0  0  0  0  0  0  0  0  0
    7.3423   19.5588   31.4564 C   0  0  2  0  0  0  0  0  0  0  0  0
    8.5101   18.5708   31.4181 C   0  0  1  0  0  0  0  0  0  0  0  0
    8.9290   18.2025   32.8432 C   0  0  1  0  0  0  0  0  0  0  0  0
   14.2168   17.2455   35.1518 C   0  0  2  0  0  0  0  0  0  0  0  0
   15.3200   16.5511   34.3554 C   0  0  1  0  0  0  0  0  0  0  0  0
  3  1  1  0  0  0  0
  4  1  1  1  0  0  0
  4  6  1  0  0  0  0
  4 31  1  0  0  0  0
  6  7  1  0  0  0  0
  7  9  1  6  0  0  0
  7 30  1  0  0  0  0
 10  9  1  1  0  0  0
 10 13  1  0  0  0  0
 10 21  1  0  0  0  0
 13 12  1  6  0  0  0
 13 15  1  0  0  0  0
 15  2  1  1  0  0  0
 15 17  1  0  0  0  0
 16 25  1  0  0  0  0
 17 19  1  0  0  0  0
 19  5  1  1  0  0  0
 19 21  1  0  0  0  0
 21 14  1  6  0  0  0
 23 14  1  6  0  0  0
 23 16  1  0  0  0  0
 23 29  1  0  0  0  0
 25 26  1  1  0  0  0
 25 27  1  0  0  0  0
 26  8  1  0  0  0  0
 27 18  1  6  0  0  0
 27 28  1  0  0  0  0
 28 20  1  6  0  0  0
 28 29  1  0  0  0  0
 29 11  1  6  0  0  0
 30 22  1  1  0  0  0
 30 31  1  0  0  0  0
 31 24  1  1  0  0  0
M  END
>  <CHROM.1>
-63.00253619,-69.79279463,-72.88055948,130.08575043,86.82539490,76.66325452
11.44140114,19.57892310,33.49229474,0.25180826,0.39981189,-2.85143726

>  <Name>
2fcz_lig

>  <RI>
0

>  <Rbt.Current_Directory>
/home/itssahil/PROJECTS/Mol_Feturizer/New_Systems/rnas/2fcz

>  <Rbt.Executable>
rbdock ($Id: //depot/dev/client3/rdock/2013.1/src/exe/rbdock.cxx#4 $)

>  <Rbt.Library>
libRbt.so (2013.1, Build901 2013/11/27)

>  <Rbt.Parameter_File>
/export/apps/rDock/src/rDock_2013.1_src/data/scripts/dock_solv.prm

>  <Rbt.Receptor>
prm/blind_docking_80.prm

>  <SCORE>
-11.2115

>  <SCORE.INTER>
-15.0499

>  <SCORE.INTER.CONST>
1

>  <SCORE.INTER.POLAR>
-0.956004

>  <SCORE.INTER.ROT>
6

>  <SCORE.INTER.SOLV>
15.8002

>  <SCORE.INTER.VDW>
-19.7134

>  <SCORE.INTER.norm>
-0.485482

>  <SCORE.INTRA>
3.83846

>  <SCORE.INTRA.DIHEDRAL>
1.10864

>  <SCORE.INTRA.DIHEDRAL.0>
10.8409

>  <SCORE.INTRA.POLAR>
0

>  <SCORE.INTRA.POLAR.0>
0

>  <SCORE.INTRA.REPUL>
0

>  <SCORE.INTRA.REPUL.0>
0

>  <SCORE.INTRA.SOLV>
3.29017

>  <SCORE.INTRA.SOLV.lig_0>
-80.8302

>  <SCORE.INTRA.VDW>
1.63905

>  <SCORE.INTRA.VDW.0>
-4.23953

>  <SCORE.INTRA.norm>
0.123821

>  <SCORE.RESTR>
0

>  <SCORE.RESTR.CAVITY>
0

>  <SCORE.RESTR.norm>
0

>  <SCORE.SYSTEM>
0

>  <SCORE.SYSTEM.CONST>
0

>  <SCORE.SYSTEM.DIHEDRAL>
0

>  <SCORE.SYSTEM.SOLV>
0

>  <SCORE.SYSTEM.norm>
0

>  <SCORE.heavy>
31

>  <SCORE.norm>
-0.361661

>  <RMSD>
3.348

$$$$
2fcz_lig
 OpenBabel11021811433D
libRbt.so/2013.1/901 2013/11/27
 31 33  0  0  0  0  0  0  0  0999 V2000
    7.9529   17.6797   40.4973 C   0  0  0  0  0  0  0  0  0  0  0  0
   13.3052   19.6535   38.4065 N   0  0  0  0  0  0  0  0  0  0  0  0
    9.0903   18.1248   41.2414 O   0  0  0  0  0  0  0  0  0  0  0  0
    7.7406   18.5937   39.2856 C   0  0  1  0  0  0  0  0  0  0  0  0
   11.2533   20.5613   34.0576 N   0  0  0  0  0  0  0  0  0  0  0  0
    8.8795   18.5798   38.4011 O   0  0  0  0  0  0  0  0  0  0  0  0
    8.5447   17.8667   37.1940 C   0  0  1  0  0  0  0  0  0  0  0  0
    7.4645   21.4027   33.1114 N   0  0  0  0  0  0  0  0  0  0  0  0
    9.5724   16.9449   36.7925 O   0  0  0  0  0  0  0  0  0  0  0  0
   10.8053   17.5700   36.3974 C   0  0  2  0  0  0  0  0  0  0  0  0
    9.6860   15.3503   33.2404 N   0  0  0  0  0  0  0  0  0  0  0  0
   11.8188   17.2487   38.5707 O   0  0  0  0  0  0  0  0  0  0  0  0
   11.4410   18.2460   37.6184 C   0  0  1  0  0  0  0  0  0  0  0  0
   10.1704   17.9586   34.0501 O   0  0  0  0  0  0  0  0  0  0  0  0
   12.6831   19.0472   37.2213 C   0  0  1  0  0  0  0  0  0  0  0  0
    7.9470   18.6240   33.6184 O   0  0  0  0  0  0  0  0  0  0  0  0
   12.3044   20.1444   36.2241 C   0  0  0  0  0  0  0  0  0  0  0  0
    8.3386   18.6701   29.9561 O   0  0  0  0  0  0  0  0  0  0  0  0
   11.7076   19.5007   34.9709 C   0  0  1  0  0  0  0  0  0  0  0  0
    8.7847   15.9015   30.5798 O   0  0  0  0  0  0  0  0  0  0  0  0
   10.5207   18.5865   35.2934 C   0  0  2  0  0  0  0  0  0  0  0  0
    6.4883   16.7427   36.4049 O   0  0  0  0  0  0  0  0  0  0  0  0
    8.8040   17.5256   33.9816 C   0  0  1  0  0  0  0  0  0  0  0  0
    6.0039   19.1764   37.6665 O   0  0  0  0  0  0  0  0  0  0  0  0
    8.2231   19.1938   32.3272 C   0  0  2  0  0  0  0  0  0  0  0  0
    7.2642   20.3633   32.0912 C   0  0  0  0  0  0  0  0  0  0  0  0
    8.0359   18.1254   31.2442 C   0  0  2  0  0  0  0  0  0  0  0  0
    8.9742   16.9518   31.5335 C   0  0  1  0  0  0  0  0  0  0  0  0
    8.7101   16.4069   32.9390 C   0  0  1  0  0  0  0  0  0  0  0  0
    7.2704   17.0987   37.5490 C   0  0  2  0  0  0  0  0  0  0  0  0
    6.5592   18.1122   38.4436 C   0  0  1  0  0  0  0  0  0  0  0  0
  3  1  1  0  0  0  0
  4  1  1  1  0  0  0
  4  6  1  0  0  0  0
  4 31  1  0  0  0  0
  6  7  1  0  0  0  0
  7  9  1  1  0  0  0
  7 30  1  0  0  0  0
 10  9  1  1  0  0  0
 10 13  1  0  0  0  0
 10 21  1  0  0  0  0
 13 12  1  1  0  0  0
 13 15  1  0  0  0  0
 15  2  1  1  0  0  0
 15 17  1  0  0  0  0
 16 25  1  0  0  0  0
 17 19  1  0  0  0  0
 19  5  1  6  0  0  0
 19 21  1  0  0  0  0
 21 14  1  6  0  0  0
 23 14  1  6  0  0  0
 23 16  1  0  0  0  0
 23 29  1  0  0  0  0
 25 26  1  6  0  0  0
 25 27  1  0  0  0  0
 26  8  1  0  0  0  0
 27 18  1  6  0  0  0
 27 28  1  0  0  0  0
 28 20  1  6  0  0  0
 28 29  1  0  0  0  0
 29 11  1  1  0  0  0
 30 22  1  6  0  0  0
 30 31  1  0  0  0  0
 31 24  1  6  0  0  0
M  END
>  <CHROM.1>
60.55929999,-65.99017341,66.48263546,80.26169923,82.53557432,61.15978298
9.21146360,18.24208689,35.52568458,1.42913095,0.20091416,1.57962199

>  <Name>
2fcz_lig

>  <RI>
0

>  <Rbt.Current_Directory>
/home/itssahil/PROJECTS/Mol_Feturizer/New_Systems/rnas/2fcz

>  <Rbt.Executable>
rbdock ($Id: //depot/dev/client3/rdock/2013.1/src/exe/rbdock.cxx#4 $)

>  <Rbt.Library>
libRbt.so (2013.1, Build901 2013/11/27)

>  <Rbt.Parameter_File>
/export/apps/rDock/src/rDock_2013.1_src/data/scripts/dock_solv.prm

>  <Rbt.Receptor>
prm/pocket_docking_6.prm

>  <SCORE>
-27.1276

>  <SCORE.INTER>
-24.8678

>  <SCORE.INTER.CONST>
1

>  <SCORE.INTER.POLAR>
-4.17413

>  <SCORE.INTER.ROT>
6

>  <SCORE.INTER.SOLV>
21.2028

>  <SCORE.INTER.VDW>
-17.3324

>  <SCORE.INTER.norm>
-0.802187

>  <SCORE.INTRA>
-2.25976

>  <SCORE.INTRA.DIHEDRAL>
-6.26802

>  <SCORE.INTRA.DIHEDRAL.0>
10.8409

>  <SCORE.INTRA.POLAR>
0

>  <SCORE.INTRA.POLAR.0>
0

>  <SCORE.INTRA.REPUL>
0

>  <SCORE.INTRA.REPUL.0>
0

>  <SCORE.INTRA.SOLV>
-1.81138

>  <SCORE.INTRA.SOLV.lig_0>
-80.8302

>  <SCORE.INTRA.VDW>
1.77994

>  <SCORE.INTRA.VDW.0>
-4.23953

>  <SCORE.INTRA.norm>
-0.0728955

>  <SCORE.RESTR>
0

>  <SCORE.RESTR.CAVITY>
0

>  <SCORE.RESTR.norm>
0

>  <SCORE.SYSTEM>
0

>  <SCORE.SYSTEM.CONST>
0

>  <SCORE.SYSTEM.DIHEDRAL>
0

>  <SCORE.SYSTEM.SOLV>
0

>  <SCORE.SYSTEM.norm>
0

>  <SCORE.heavy>
31

>  <SCORE.norm>
-0.875083

>  <RMSD>
3.426

$$$$
2fcz_lig
 OpenBabel11021811433D
libRbt.so/2013.1/901 2013/11/27
 31 33  0  0  0  0  0  0  0  0999 V2000
    7.9797   13.2989   35.6181 C   0  0  0  0  0  0  0  0  0  0  0  0
   12.3131   19.3038   39.4146 N   0  0  0  0  0  0  0  0  0  0  0  0
    7.3569   14.4474   35.0362 O   0  0  0  0  0  0  0  0  0  0  0  0
    8.3743   13.6059   37.0668 C   0  0  1  0  0  0  0  0  0  0  0  0
   11.4643   20.2832   34.6958 N   0  0  0  0  0  0  0  0  0  0  0  0
    9.2191   14.7714   37.1538 O   0  0  0  0  0  0  0  0  0  0  0  0
    8.4775   15.8632   37.7333 C   0  0  1  0  0  0  0  0  0  0  0  0
    7.5257   21.3629   33.1588 N   0  0  0  0  0  0  0  0  0  0  0  0
    8.6666   17.0991   37.0235 O   0  0  0  0  0  0  0  0  0  0  0  0
   10.0388   17.5139   36.9145 C   0  0  2  0  0  0  0  0  0  0  0  0
    9.6919   15.2763   33.5585 N   0  0  0  0  0  0  0  0  0  0  0  0
   10.4722   17.1571   39.2679 O   0  0  0  0  0  0  0  0  0  0  0  0
   10.4794   18.1497   38.2389 C   0  0  1  0  0  0  0  0  0  0  0  0
   10.0193   17.8724   34.4783 O   0  0  0  0  0  0  0  0  0  0  0  0
   11.8884   18.7369   38.1272 C   0  0  1  0  0  0  0  0  0  0  0  0
    7.8717   18.5222   33.7445 O   0  0  0  0  0  0  0  0  0  0  0  0
   11.9205   19.8259   37.0527 C   0  0  0  0  0  0  0  0  0  0  0  0
    8.7834   18.6481   30.1779 O   0  0  0  0  0  0  0  0  0  0  0  0
   11.5296   19.2148   35.7056 C   0  0  1  0  0  0  0  0  0  0  0  0
    9.1737   15.8723   30.8070 O   0  0  0  0  0  0  0  0  0  0  0  0
   10.1729   18.5040   35.7591 C   0  0  2  0  0  0  0  0  0  0  0  0
    6.1609   16.0827   38.5700 O   0  0  0  0  0  0  0  0  0  0  0  0
    8.6829   17.4260   34.2063 C   0  0  1  0  0  0  0  0  0  0  0  0
    7.3772   13.6868   39.2977 O   0  0  0  0  0  0  0  0  0  0  0  0
    8.3221   19.1215   32.5173 C   0  0  2  0  0  0  0  0  0  0  0  0
    7.3909   20.2850   32.1682 C   0  0  0  0  0  0  0  0  0  0  0  0
    8.3068   18.0737   31.3987 C   0  0  2  0  0  0  0  0  0  0  0  0
    9.2100   16.9047   31.7976 C   0  0  1  0  0  0  0  0  0  0  0  0
    8.7549   16.3281   33.1402 C   0  0  1  0  0  0  0  0  0  0  0  0
    7.0157   15.4251   37.6296 C   0  0  2  0  0  0  0  0  0  0  0  0
    7.1396   13.9283   37.9084 C   0  0  1  0  0  0  0  0  0  0  0  0
  3  1  1  0  0  0  0
  4  1  1  6  0  0  0
  4  6  1  0  0  0  0
  4 31  1  0  0  0  0
  6  7  1  0  0  0  0
  7  9  1  6  0  0  0
  7 30  1  0  0  0  0
 10  9  1  1  0  0  0
 10 13  1  0  0  0  0
 10 21  1  0  0  0  0
 13 12  1  1  0  0  0
 13 15  1  0  0  0  0
 15  2  1  1  0  0  0
 15 17  1  0  0  0  0
 16 25  1  0  0  0  0
 17 19  1  0  0  0  0
 19  5  1  6  0  0  0
 19 21  1  0  0  0  0
 21 14  1  6  0  0  0
 23 14  1  6  0  0  0
 23 16  1  0  0  0  0
 23 29  1  0  0  0  0
 25 26  1  6  0  0  0
 25 27  1  0  0  0  0
 26  8  1  0  0  0  0
 27 18  1  6  0  0  0
 27 28  1  0  0  0  0
 28 20  1  6  0  0  0
 28 29  1  0  0  0  0
 29 11  1  1  0  0  0
 30 22  1  1  0  0  0
 30 31  1  0  0  0  0
 31 24  1  1  0  0  0
M  END
>  <CHROM.1>
-55.67100844,-56.75597240,-78.81035638,69.64010236,81.28106544,66.61862344
9.06090776,17.14973032,35.46383574,1.59048608,0.96312416,2.01440368

>  <Name>
2fcz_lig

>  <RI>
0

>  <Rbt.Current_Directory>
/home/itssahil/PROJECTS/Mol_Feturizer/New_Systems/rnas/2fcz

>  <Rbt.Executable>
rbdock ($Id: //depot/dev/client3/rdock/2013.1/src/exe/rbdock.cxx#4 $)

>  <Rbt.Library>
libRbt.so (2013.1, Build901 2013/11/27)

>  <Rbt.Parameter_File>
/export/apps/rDock/src/rDock_2013.1_src/data/scripts/dock_solv.prm

>  <Rbt.Receptor>
prm/pocket_docking_5.prm

>  <SCORE>
-19.2635

>  <SCORE.INTER>
-16.9096

>  <SCORE.INTER.CONST>
1

>  <SCORE.INTER.POLAR>
-1.94954

>  <SCORE.INTER.ROT>
6

>  <SCORE.INTER.SOLV>
19.0044

>  <SCORE.INTER.VDW>
-18.7094

>  <SCORE.INTER.norm>
-0.545472

>  <SCORE.INTRA>
-2.35435

>  <SCORE.INTRA.DIHEDRAL>
-6.35018

>  <SCORE.INTRA.DIHEDRAL.0>
10.8409

>  <SCORE.INTRA.POLAR>
0

>  <SCORE.INTRA.POLAR.0>
0

>  <SCORE.INTRA.REPUL>
0

>  <SCORE.INTRA.REPUL.0>
0

>  <SCORE.INTRA.SOLV>
-0.156387

>  <SCORE.INTRA.SOLV.lig_0>
-80.8302

>  <SCORE.INTRA.VDW>
0.898936

>  <SCORE.INTRA.VDW.0>
-4.23953

>  <SCORE.INTRA.norm>
-0.0759467

>  <SCORE.RESTR>
0.000486659

>  <SCORE.RESTR.CAVITY>
0.000486659

>  <SCORE.RESTR.norm>
1.56987e-05

>  <SCORE.SYSTEM>
0

>  <SCORE.SYSTEM.CONST>
0

>  <SCORE.SYSTEM.DIHEDRAL>
0

>  <SCORE.SYSTEM.SOLV>
0

>  <SCORE.SYSTEM.norm>
0

>  <SCORE.heavy>
31

>  <SCORE.norm>
-0.621403

>  <RMSD>
3.437

$$$$
2fcz_lig
 OpenBabel11021811433D
libRbt.so/2013.1/901 2013/11/27
 31 33  0  0  0  0  0  0  0  0999 V2000
    8.7339   17.7870   30.9194 C   0  0  0  0  0  0  0  0  0  0  0  0
   14.7148   19.1900   37.0668 N   0  0  0  0  0  0  0  0  0  0  0  0
    9.4623   18.6678   30.0596 O   0  0  0  0  0  0  0  0  0  0  0  0
    9.7090   16.8560   31.6481 C   0  0  1  0  0  0  0  0  0  0  0  0
   12.9832   22.9987   34.5286 N   0  0  0  0  0  0  0  0  0  0  0  0
   10.7263   17.5958   32.3533 O   0  0  0  0  0  0  0  0  0  0  0  0
   10.4890   17.5107   33.7725 C   0  0  1  0  0  0  0  0  0  0  0  0
    9.4283   21.7757   28.2671 N   0  0  0  0  0  0  0  0  0  0  0  0
   10.6196   18.7812   34.4328 O   0  0  0  0  0  0  0  0  0  0  0  0
   11.9535   19.3174   34.4237 C   0  0  2  0  0  0  0  0  0  0  0  0
    9.4445   21.6084   34.8056 N   0  0  0  0  0  0  0  0  0  0  0  0
   12.8301   17.5146   35.7784 O   0  0  0  0  0  0  0  0  0  0  0  0
   12.6596   18.9333   35.7299 C   0  0  1  0  0  0  0  0  0  0  0  0
   11.4666   21.2261   32.9460 O   0  0  0  0  0  0  0  0  0  0  0  0
   14.0331   19.6008   35.8316 C   0  0  1  0  0  0  0  0  0  0  0  0
   10.6672   22.9576   31.5547 O   0  0  0  0  0  0  0  0  0  0  0  0
   13.8805   21.1233   35.8132 C   0  0  0  0  0  0  0  0  0  0  0  0
    7.8052   21.0294   30.2669 O   0  0  0  0  0  0  0  0  0  0  0  0
   13.2192   21.5465   34.4999 C   0  0  1  0  0  0  0  0  0  0  0  0
    7.2029   21.2114   33.0700 O   0  0  0  0  0  0  0  0  0  0  0  0
   11.8827   20.8348   34.2638 C   0  0  2  0  0  0  0  0  0  0  0  0
    8.7644   16.3801   35.1373 O   0  0  0  0  0  0  0  0  0  0  0  0
   10.7524   22.4702   32.9068 C   0  0  1  0  0  0  0  0  0  0  0  0
    9.6883   14.8306   33.0172 O   0  0  0  0  0  0  0  0  0  0  0  0
    9.9577   22.0913   30.6524 C   0  0  2  0  0  0  0  0  0  0  0  0
    9.9754   22.7166   29.2553 C   0  0  0  0  0  0  0  0  0  0  0  0
    8.5146   21.9153   31.1382 C   0  0  2  0  0  0  0  0  0  0  0  0
    8.5320   21.3319   32.5527 C   0  0  1  0  0  0  0  0  0  0  0  0
    9.3511   22.2336   33.4790 C   0  0  1  0  0  0  0  0  0  0  0  0
    9.0467   17.0142   33.8860 C   0  0  2  0  0  0  0  0  0  0  0  0
    8.9820   16.0365   32.7142 C   0  0  1  0  0  0  0  0  0  0  0  0
  3  1  1  0  0  0  0
  4  1  1  1  0  0  0
  4  6  1  0  0  0  0
  4 31  1  0  0  0  0
  6  7  1  0  0  0  0
  7  9  1  1  0  0  0
  7 30  1  0  0  0  0
 10  9  1  1  0  0  0
 10 13  1  0  0  0  0
 10 21  1  0  0  0  0
 13 12  1  6  0  0  0
 13 15  1  0  0  0  0
 15  2  1  1  0  0  0
 15 17  1  0  0  0  0
 16 25  1  0  0  0  0
 17 19  1  0  0  0  0
 19  5  1  1  0  0  0
 19 21  1  0  0  0  0
 21 14  1  6  0  0  0
 23 14  1  6  0  0  0
 23 16  1  0  0  0  0
 23 29  1  0  0  0  0
 25 26  1  6  0  0  0
 25 27  1  0  0  0  0
 26  8  1  0  0  0  0
 27 18  1  6  0  0  0
 27 28  1  0  0  0  0
 28 20  1  1  0  0  0
 28 29  1  0  0  0  0
 29 11  1  1  0  0  0
 30 22  1  1  0  0  0
 30 31  1  0  0  0  0
 31 24  1  1  0  0  0
M  END
>  <CHROM.1>
54.72396966,-66.21447418,-95.11391497,150.11397355,165.55163153,171.99510956
10.53213589,19.80460103,33.10120390,2.46298133,-0.80374688,-0.35012506

>  <Name>
2fcz_lig

>  <RI>
0

>  <Rbt.Current_Directory>
/home/itssahil/PROJECTS/Mol_Feturizer/New_Systems/rnas/2fcz

>  <Rbt.Executable>
rbdock ($Id: //depot/dev/client3/rdock/2013.1/src/exe/rbdock.cxx#4 $)

>  <Rbt.Library>
libRbt.so (2013.1, Build901 2013/11/27)

>  <Rbt.Parameter_File>
/export/apps/rDock/src/rDock_2013.1_src/data/scripts/dock_solv.prm

>  <Rbt.Receptor>
prm/pocket_docking_5.prm

>  <SCORE>
-13.2148

>  <SCORE.INTER>
-15.5018

>  <SCORE.INTER.CONST>
1

>  <SCORE.INTER.POLAR>
-1.82947

>  <SCORE.INTER.ROT>
6

>  <SCORE.INTER.SOLV>
13.5888

>  <SCORE.INTER.VDW>
-16.3659

>  <SCORE.INTER.norm>
-0.500058

>  <SCORE.INTRA>
2.28703

>  <SCORE.INTRA.DIHEDRAL>
-1.14379

>  <SCORE.INTRA.DIHEDRAL.0>
10.8409

>  <SCORE.INTRA.POLAR>
0

>  <SCORE.INTRA.POLAR.0>
0

>  <SCORE.INTRA.REPUL>
0.0287081

>  <SCORE.INTRA.REPUL.0>
0

>  <SCORE.INTRA.SOLV>
2.94087

>  <SCORE.INTRA.SOLV.lig_0>
-80.8302

>  <SCORE.INTRA.VDW>
1.24495

>  <SCORE.INTRA.VDW.0>
-4.23953

>  <SCORE.INTRA.norm>
0.0737751

>  <SCORE.RESTR>
0

>  <SCORE.RESTR.CAVITY>
0

>  <SCORE.RESTR.norm>
0

>  <SCORE.SYSTEM>
0

>  <SCORE.SYSTEM.CONST>
0

>  <SCORE.SYSTEM.DIHEDRAL>
0

>  <SCORE.SYSTEM.SOLV>
0

>  <SCORE.SYSTEM.norm>
0

>  <SCORE.heavy>
31

>  <SCORE.norm>
-0.426283

>  <RMSD>
3.574

$$$$
2fcz_lig
 OpenBabel11021811433D
libRbt.so/2013.1/901 2013/11/27
 31 33  0  0  0  0  0  0  0  0999 V2000
   15.5735   17.9328   36.0700 C   0  0  0  0  0  0  0  0  0  0  0  0
   15.1087   23.3538   36.1042 N   0  0  0  0  0  0  0  0  0  0  0  0
   16.1216   16.8454   35.3199 O   0  0  0  0  0  0  0  0  0  0  0  0
   14.9615   17.4037   37.3716 C   0  0  1  0  0  0  0  0  0  0  0  0
   10.5774   22.4943   34.4683 N   0  0  0  0  0  0  0  0  0  0  0  0
   14.4433   18.4720   38.1900 O   0  0  0  0  0  0  0  0  0  0  0  0
   13.0024   18.4361   38.1755 C   0  0  1  0  0  0  0  0  0  0  0  0
    9.3652   21.7584   31.6994 N   0  0  0  0  0  0  0  0  0  0  0  0
   12.4181   19.7363   37.9881 O   0  0  0  0  0  0  0  0  0  0  0  0
   12.7933   20.3812   36.7592 C   0  0  2  0  0  0  0  0  0  0  0  0
    9.1083   18.2607   37.1248 N   0  0  0  0  0  0  0  0  0  0  0  0
   15.0053   20.9328   37.5693 O   0  0  0  0  0  0  0  0  0  0  0  0
   13.7950   21.5019   37.0640 C   0  0  1  0  0  0  0  0  0  0  0  0
   10.7038   19.8943   35.5504 O   0  0  0  0  0  0  0  0  0  0  0  0
   14.1163   22.3121   35.8059 C   0  0  1  0  0  0  0  0  0  0  0  0
    8.8517   20.7431   34.3580 O   0  0  0  0  0  0  0  0  0  0  0  0
   12.8427   22.9600   35.2583 C   0  0  0  0  0  0  0  0  0  0  0  0
    8.3400   17.6915   32.3595 O   0  0  0  0  0  0  0  0  0  0  0  0
   11.8358   21.8652   34.8997 C   0  0  1  0  0  0  0  0  0  0  0  0
    7.8644   16.7536   35.0330 O   0  0  0  0  0  0  0  0  0  0  0  0
   11.5414   20.9337   36.0805 C   0  0  2  0  0  0  0  0  0  0  0  0
   11.3554   16.9530   37.0789 O   0  0  0  0  0  0  0  0  0  0  0  0
    9.3010   20.1907   35.6094 C   0  0  1  0  0  0  0  0  0  0  0  0
   13.5273   15.5867   38.1584 O   0  0  0  0  0  0  0  0  0  0  0  0
    9.0003   19.8630   33.2304 C   0  0  2  0  0  0  0  0  0  0  0  0
    8.5164   20.5897   31.9731 C   0  0  0  0  0  0  0  0  0  0  0  0
    8.1762   18.5911   33.4601 C   0  0  2  0  0  0  0  0  0  0  0  0
    8.6527   17.9133   34.7465 C   0  0  1  0  0  0  0  0  0  0  0  0
    8.5518   18.8909   35.9196 C   0  0  1  0  0  0  0  0  0  0  0  0
   12.6581   17.5376   36.9865 C   0  0  2  0  0  0  0  0  0  0  0  0
   13.7690   16.4932   37.0791 C   0  0  1  0  0  0  0  0  0  0  0  0
  3  1  1  0  0  0  0
  4  1  1  6  0  0  0
  4  6  1  0  0  0  0
  4 31  1  0  0  0  0
  6  7  1  0  0  0  0
  7  9  1  6  0  0  0
  7 30  1  0  0  0  0
 10  9  1  1  0  0  0
 10 13  1  0  0  0  0
 10 21  1  0  0  0  0
 13 12  1  6  0  0  0
 13 15  1  0  0  0  0
 15  2  1  1  0  0  0
 15 17  1  0  0  0  0
 16 25  1  0  0  0  0
 17 19  1  0  0  0  0
 19  5  1  1  0  0  0
 19 21  1  0  0  0  0
 21 14  1  6  0  0  0
 23 14  1  6  0  0  0
 23 16  1  0  0  0  0
 23 29  1  0  0  0  0
 25 26  1  6  0  0  0
 25 27  1  0  0  0  0
 26  8  1  0  0  0  0
 27 18  1  6  0  0  0
 27 28  1  0  0  0  0
 28 20  1  1  0  0  0
 28 29  1  0  0  0  0
 29 11  1  1  0  0  0
 30 22  1  1  0  0  0
 30 31  1  0  0  0  0
 31 24  1  1  0  0  0
M  END
>  <CHROM.1>
177.62845245,59.91955447,-105.80457986,146.31769047,95.61332909,63.76126198
11.68501409,19.41107180,35.73824586,0.28410771,0.48155565,2.81381346

>  <Name>
2fcz_lig

>  <RI>
0

>  <Rbt.Current_Directory>
/home/itssahil/PROJECTS/Mol_Feturizer/New_Systems/rnas/2fcz

>  <Rbt.Executable>
rbdock ($Id: //depot/dev/client3/rdock/2013.1/src/exe/rbdock.cxx#4 $)

>  <Rbt.Library>
libRbt.so (2013.1, Build901 2013/11/27)

>  <Rbt.Parameter_File>
/export/apps/rDock/src/rDock_2013.1_src/data/scripts/dock_solv.prm

>  <Rbt.Receptor>
prm/pocket_docking_6.prm

>  <SCORE>
-13.6525

>  <SCORE.INTER>
-19.3332

>  <SCORE.INTER.CONST>
1

>  <SCORE.INTER.POLAR>
-2.51792

>  <SCORE.INTER.ROT>
6

>  <SCORE.INTER.SOLV>
11.9632

>  <SCORE.INTER.VDW>
-16.0835

>  <SCORE.INTER.norm>
-0.623652

>  <SCORE.INTRA>
5.68072

>  <SCORE.INTRA.DIHEDRAL>
4.46541

>  <SCORE.INTRA.DIHEDRAL.0>
10.8409

>  <SCORE.INTRA.POLAR>
0

>  <SCORE.INTRA.POLAR.0>
0

>  <SCORE.INTRA.REPUL>
0.01188

>  <SCORE.INTRA.REPUL.0>
0

>  <SCORE.INTRA.SOLV>
4.10603

>  <SCORE.INTRA.SOLV.lig_0>
-80.8302

>  <SCORE.INTRA.VDW>
1.3356

>  <SCORE.INTRA.VDW.0>
-4.23953

>  <SCORE.INTRA.norm>
0.183249

>  <SCORE.RESTR>
0

>  <SCORE.RESTR.CAVITY>
0

>  <SCORE.RESTR.norm>
0

>  <SCORE.SYSTEM>
0

>  <SCORE.SYSTEM.CONST>
0

>  <SCORE.SYSTEM.DIHEDRAL>
0

>  <SCORE.SYSTEM.SOLV>
0

>  <SCORE.SYSTEM.norm>
0

>  <SCORE.heavy>
31

>  <SCORE.norm>
-0.440403

>  <RMSD>
3.581

$$$$
2fcz_lig
 OpenBabel11021811433D
libRbt.so/2013.1/901 2013/11/27
 31 33  0  0  0  0  0  0  0  0999 V2000
    8.7962   17.2941   30.8454 C   0  0  0  0  0  0  0  0  0  0  0  0
   13.0632   19.7940   38.0635 N   0  0  0  0  0  0  0  0  0  0  0  0
    9.5204   18.3147   30.1530 O   0  0  0  0  0  0  0  0  0  0  0  0
    9.7189   16.6026   31.8548 C   0  0  1  0  0  0  0  0  0  0  0  0
   11.8959   23.3558   34.9174 N   0  0  0  0  0  0  0  0  0  0  0  0
   10.5078   17.5556   32.5959 O   0  0  0  0  0  0  0  0  0  0  0  0
   10.0302   17.6255   33.9541 C   0  0  1  0  0  0  0  0  0  0  0  0
   11.7968   22.6048   28.1510 N   0  0  0  0  0  0  0  0  0  0  0  0
    9.9031   18.9773   34.4273 O   0  0  0  0  0  0  0  0  0  0  0  0
   11.1525   19.6083   34.7557 C   0  0  2  0  0  0  0  0  0  0  0  0
    8.2475   21.3773   33.4999 N   0  0  0  0  0  0  0  0  0  0  0  0
   11.7164   17.9330   36.4077 O   0  0  0  0  0  0  0  0  0  0  0  0
   11.4845   19.3322   36.2274 C   0  0  1  0  0  0  0  0  0  0  0  0
   10.9901   21.4122   33.0874 O   0  0  0  0  0  0  0  0  0  0  0  0
   12.7330   20.1015   36.6651 C   0  0  1  0  0  0  0  0  0  0  0  0
   10.8660   23.2982   31.6731 O   0  0  0  0  0  0  0  0  0  0  0  0
   12.5036   21.6068   36.5122 C   0  0  0  0  0  0  0  0  0  0  0  0
    9.4896   21.4470   28.8014 O   0  0  0  0  0  0  0  0  0  0  0  0
   12.2143   21.9247   35.0439 C   0  0  1  0  0  0  0  0  0  0  0  0
    7.4194   21.1414   30.7698 O   0  0  0  0  0  0  0  0  0  0  0  0
   11.0414   21.1083   34.4902 C   0  0  2  0  0  0  0  0  0  0  0  0
    8.2202   16.4651   35.1757 O   0  0  0  0  0  0  0  0  0  0  0  0
   10.2548   22.6049   32.7770 C   0  0  1  0  0  0  0  0  0  0  0  0
    9.6705   14.7879   33.4925 O   0  0  0  0  0  0  0  0  0  0  0  0
   10.9003   22.5506   30.4451 C   0  0  2  0  0  0  0  0  0  0  0  0
   11.6021   23.3928   29.3768 C   0  0  0  0  0  0  0  0  0  0  0  0
    9.4697   22.2189   30.0061 C   0  0  2  0  0  0  0  0  0  0  0  0
    8.7813   21.4172   31.1128 C   0  0  1  0  0  0  0  0  0  0  0  0
    8.8190   22.2019   32.4261 C   0  0  1  0  0  0  0  0  0  0  0  0
    8.6527   16.9624   33.9057 C   0  0  2  0  0  0  0  0  0  0  0  0
    8.9047   15.8404   32.9002 C   0  0  1  0  0  0  0  0  0  0  0  0
  3  1  1  0  0  0  0
  4  1  1  6  0  0  0
  4  6  1  0  0  0  0
  4 31  1  0  0  0  0
  6  7  1  0  0  0  0
  7  9  1  6  0  0  0
  7 30  1  0  0  0  0
 10  9  1  1  0  0  0
 10 13  1  0  0  0  0
 10 21  1  0  0  0  0
 13 12  1  6  0  0  0
 13 15  1  0  0  0  0
 15  2  1  1  0  0  0
 15 17  1  0  0  0  0
 16 25  1  0  0  0  0
 17 19  1  0  0  0  0
 19  5  1  1  0  0  0
 19 21  1  0  0  0  0
 21 14  1  6  0  0  0
 23 14  1  6  0  0  0
 23 16  1  0  0  0  0
 23 29  1  0  0  0  0
 25 26  1  6  0  0  0
 25 27  1  0  0  0  0
 26  8  1  0  0  0  0
 27 18  1  6  0  0  0
 27 28  1  0  0  0  0
 28 20  1  6  0  0  0
 28 29  1  0  0  0  0
 29 11  1  1  0  0  0
 30 22  1  1  0  0  0
 30 31  1  0  0  0  0
 31 24  1  1  0  0  0
M  END
>  <CHROM.1>
44.51815170,-75.57095297,-89.50045599,150.64298899,144.12694043,173.43539347
10.31284440,19.98792628,33.02235817,1.43539015,1.06249731,2.42093181

>  <Name>
2fcz_lig

>  <RI>
0

>  <Rbt.Current_Directory>
/home/itssahil/PROJECTS/Mol_Feturizer/New_Systems/rnas/2fcz

>  <Rbt.Executable>
rbdock ($Id: //depot/dev/client3/rdock/2013.1/src/exe/rbdock.cxx#4 $)

>  <Rbt.Library>
libRbt.so (2013.1, Build901 2013/11/27)

>  <Rbt.Parameter_File>
/export/apps/rDock/src/rDock_2013.1_src/data/scripts/dock_solv.prm

>  <Rbt.Receptor>
prm/pocket_docking_6.prm

>  <SCORE>
-16.6523

>  <SCORE.INTER>
-19.6721

>  <SCORE.INTER.CONST>
1

>  <SCORE.INTER.POLAR>
-2.26934

>  <SCORE.INTER.ROT>
6

>  <SCORE.INTER.SOLV>
19.4501

>  <SCORE.INTER.VDW>
-19.6336

>  <SCORE.INTER.norm>
-0.634583

>  <SCORE.INTRA>
3.01975

>  <SCORE.INTRA.DIHEDRAL>
2.98184

>  <SCORE.INTRA.DIHEDRAL.0>
10.8409

>  <SCORE.INTRA.POLAR>
0

>  <SCORE.INTRA.POLAR.0>
0

>  <SCORE.INTRA.REPUL>
0.0189971

>  <SCORE.INTRA.REPUL.0>
0

>  <SCORE.INTRA.SOLV>
1.05767

>  <SCORE.INTRA.SOLV.lig_0>
-80.8302

>  <SCORE.INTRA.VDW>
0.905016

>  <SCORE.INTRA.VDW.0>
-4.23953

>  <SCORE.INTRA.norm>
0.0974114

>  <SCORE.RESTR>
0

>  <SCORE.RESTR.CAVITY>
0

>  <SCORE.RESTR.norm>
0

>  <SCORE.SYSTEM>
0

>  <SCORE.SYSTEM.CONST>
0

>  <SCORE.SYSTEM.DIHEDRAL>
0

>  <SCORE.SYSTEM.SOLV>
0

>  <SCORE.SYSTEM.norm>
0

>  <SCORE.heavy>
31

>  <SCORE.norm>
-0.537171

>  <RMSD>
3.626

$$$$
2fcz_lig
 OpenBabel11021811433D
libRbt.so/2013.1/901 2013/11/27
 31 33  0  0  0  0  0  0  0  0999 V2000
   14.1961   15.6019   32.7635 C   0  0  0  0  0  0  0  0  0  0  0  0
   13.9618   23.9880   34.4642 N   0  0  0  0  0  0  0  0  0  0  0  0
   13.7071   15.6850   31.4221 O   0  0  0  0  0  0  0  0  0  0  0  0
   15.1779   16.7490   33.0257 C   0  0  1  0  0  0  0  0  0  0  0  0
    9.5186   22.2425   33.3878 N   0  0  0  0  0  0  0  0  0  0  0  0
   14.5344   18.0355   32.9234 O   0  0  0  0  0  0  0  0  0  0  0  0
   14.4039   18.6159   34.2363 C   0  0  1  0  0  0  0  0  0  0  0  0
    7.1755   22.4104   31.9620 N   0  0  0  0  0  0  0  0  0  0  0  0
   13.1007   19.1782   34.4659 O   0  0  0  0  0  0  0  0  0  0  0  0
   12.8494   20.3992   33.7497 C   0  0  2  0  0  0  0  0  0  0  0  0
   10.5082   16.9647   33.0070 N   0  0  0  0  0  0  0  0  0  0  0  0
   14.9892   21.3513   34.3570 O   0  0  0  0  0  0  0  0  0  0  0  0
   13.5769   21.5531   34.4509 C   0  0  1  0  0  0  0  0  0  0  0  0
   10.6656   19.7283   32.8308 O   0  0  0  0  0  0  0  0  0  0  0  0
   13.2251   22.8977   33.8102 C   0  0  1  0  0  0  0  0  0  0  0  0
    8.3342   19.9896   33.0945 O   0  0  0  0  0  0  0  0  0  0  0  0
   11.7211   23.1564   33.9228 C   0  0  0  0  0  0  0  0  0  0  0  0
    7.5046   18.8589   29.6885 O   0  0  0  0  0  0  0  0  0  0  0  0
   10.9637   22.0455   33.1925 C   0  0  1  0  0  0  0  0  0  0  0  0
    8.7021   16.5116   30.8328 O   0  0  0  0  0  0  0  0  0  0  0  0
   11.3436   20.6499   33.6991 C   0  0  2  0  0  0  0  0  0  0  0  0
   15.0585   17.8574   36.4971 O   0  0  0  0  0  0  0  0  0  0  0  0
    9.4741   19.1640   33.3978 C   0  0  1  0  0  0  0  0  0  0  0  0
   16.9881   17.3457   34.5570 O   0  0  0  0  0  0  0  0  0  0  0  0
    8.0522   20.1241   31.6908 C   0  0  2  0  0  0  0  0  0  0  0  0
    6.8443   21.0484   31.5188 C   0  0  0  0  0  0  0  0  0  0  0  0
    7.7558   18.7443   31.0924 C   0  0  2  0  0  0  0  0  0  0  0  0
    8.9627   17.8318   31.3206 C   0  0  1  0  0  0  0  0  0  0  0  0
    9.2875   17.7598   32.8143 C   0  0  1  0  0  0  0  0  0  0  0  0
   14.6385   17.4456   35.1927 C   0  0  2  0  0  0  0  0  0  0  0  0
   15.7290   16.6762   34.4497 C   0  0  1  0  0  0  0  0  0  0  0  0
  3  1  1  0  0  0  0
  4  1  1  1  0  0  0
  4  6  1  0  0  0  0
  4 31  1  0  0  0  0
  6  7  1  0  0  0  0
  7  9  1  6  0  0  0
  7 30  1  0  0  0  0
 10  9  1  1  0  0  0
 10 13  1  0  0  0  0
 10 21  1  0  0  0  0
 13 12  1  6  0  0  0
 13 15  1  0  0  0  0
 15  2  1  1  0  0  0
 15 17  1  0  0  0  0
 16 25  1  0  0  0  0
 17 19  1  0  0  0  0
 19  5  1  1  0  0  0
 19 21  1  0  0  0  0
 21 14  1  6  0  0  0
 23 14  1  6  0  0  0
 23 16  1  0  0  0  0
 23 29  1  0  0  0  0
 25 26  1  1  0  0  0
 25 27  1  0  0  0  0
 26  8  1  0  0  0  0
 27 18  1  6  0  0  0
 27 28  1  0  0  0  0
 28 20  1  1  0  0  0
 28 29  1  0  0  0  0
 29 11  1  6  0  0  0
 30 22  1  1  0  0  0
 30 31  1  0  0  0  0
 31 24  1  6  0  0  0
M  END
>  <CHROM.1>
63.15562616,-72.41714636,-76.73544816,133.94612225,89.45317493,65.83996903
11.73397034,19.33425629,33.14698553,0.15078062,0.40025387,-2.87668493

>  <Name>
2fcz_lig

>  <RI>
2.6968e+07

>  <Rbt.Current_Directory>
/home/itssahil/PROJECTS/Mol_Feturizer/New_Systems/rnas/2fcz

>  <Rbt.Executable>
rbdock ($Id: //depot/dev/client3/rdock/2013.1/src/exe/rbdock.cxx#4 $)

>  <Rbt.Library>
libRbt.so (2013.1, Build901 2013/11/27)

>  <Rbt.Parameter_File>
/export/apps/rDock/src/rDock_2013.1_src/data/scripts/dock_solv.prm

>  <Rbt.Receptor>
prm/blind_docking_60.prm

>  <SCORE>
-13.9226

>  <SCORE.INTER>
-16.8288

>  <SCORE.INTER.CONST>
1

>  <SCORE.INTER.POLAR>
-0.845387

>  <SCORE.INTER.ROT>
6

>  <SCORE.INTER.SOLV>
12.7479

>  <SCORE.INTER.VDW>
-20.2505

>  <SCORE.INTER.norm>
-0.542864

>  <SCORE.INTRA>
2.90413

>  <SCORE.INTRA.DIHEDRAL>
1.14417

>  <SCORE.INTRA.DIHEDRAL.0>
10.8409

>  <SCORE.INTRA.POLAR>
0

>  <SCORE.INTRA.POLAR.0>
0

>  <SCORE.INTRA.REPUL>
0

>  <SCORE.INTRA.REPUL.0>
0

>  <SCORE.INTRA.SOLV>
2.3751

>  <SCORE.INTRA.SOLV.lig_0>
-80.8302

>  <SCORE.INTRA.VDW>
1.14449

>  <SCORE.INTRA.VDW.0>
-4.23953

>  <SCORE.INTRA.norm>
0.0936816

>  <SCORE.RESTR>
0.0020898

>  <SCORE.RESTR.CAVITY>
0.0020898

>  <SCORE.RESTR.norm>
6.74129e-05

>  <SCORE.SYSTEM>
0

>  <SCORE.SYSTEM.CONST>
0

>  <SCORE.SYSTEM.DIHEDRAL>
0

>  <SCORE.SYSTEM.SOLV>
0

>  <SCORE.SYSTEM.norm>
0

>  <SCORE.heavy>
31

>  <SCORE.norm>
-0.449115

>  <RMSD>
3.689

$$$$
2fcz_lig
 OpenBabel11021811433D
libRbt.so/2013.1/901 2013/11/27
 31 33  0  0  0  0  0  0  0  0999 V2000
    8.8816   15.4581   39.4721 C   0  0  0  0  0  0  0  0  0  0  0  0
   14.0040   19.5835   37.2740 N   0  0  0  0  0  0  0  0  0  0  0  0
   10.1360   14.8127   39.7079 O   0  0  0  0  0  0  0  0  0  0  0  0
    9.0709   16.9785   39.5038 C   0  0  1  0  0  0  0  0  0  0  0  0
   10.8641   22.1007   34.4899 N   0  0  0  0  0  0  0  0  0  0  0  0
    9.9801   17.4241   38.4770 O   0  0  0  0  0  0  0  0  0  0  0  0
    9.2451   18.1170   37.4487 C   0  0  1  0  0  0  0  0  0  0  0  0
   12.1022   16.0659   34.1480 N   0  0  0  0  0  0  0  0  0  0  0  0
    9.6367   17.7182   36.1240 O   0  0  0  0  0  0  0  0  0  0  0  0
   10.7617   18.4420   35.5973 C   0  0  2  0  0  0  0  0  0  0  0  0
    8.4077   20.6711   31.5420 N   0  0  0  0  0  0  0  0  0  0  0  0
   12.3369   17.3064   37.0405 O   0  0  0  0  0  0  0  0  0  0  0  0
   11.8213   18.5945   36.6956 C   0  0  1  0  0  0  0  0  0  0  0  0
    9.4997   19.7051   33.9015 O   0  0  0  0  0  0  0  0  0  0  0  0
   12.9773   19.4816   36.2277 C   0  0  1  0  0  0  0  0  0  0  0  0
   11.0673   18.3615   32.7569 O   0  0  0  0  0  0  0  0  0  0  0  0
   12.4602   20.8792   35.8801 C   0  0  0  0  0  0  0  0  0  0  0  0
    8.6091   15.8185   31.7281 O   0  0  0  0  0  0  0  0  0  0  0  0
   11.4319   20.7688   34.7526 C   0  0  1  0  0  0  0  0  0  0  0  0
    7.6553   18.1672   30.3763 O   0  0  0  0  0  0  0  0  0  0  0  0
   10.2903   19.8058   35.0963 C   0  0  2  0  0  0  0  0  0  0  0  0
    6.8514   18.6616   37.1512 O   0  0  0  0  0  0  0  0  0  0  0  0
   10.2739   19.5617   32.7019 C   0  0  1  0  0  0  0  0  0  0  0  0
    7.7513   19.0205   39.7609 O   0  0  0  0  0  0  0  0  0  0  0  0
   10.3042   17.1466   32.8562 C   0  0  2  0  0  0  0  0  0  0  0  0
   11.2724   15.9639   32.9388 C   0  0  0  0  0  0  0  0  0  0  0  0
    9.3984   17.0078   31.6275 C   0  0  2  0  0  0  0  0  0  0  0  0
    8.4754   18.2257   31.5478 C   0  0  1  0  0  0  0  0  0  0  0  0
    9.3075   19.5096   31.5142 C   0  0  1  0  0  0  0  0  0  0  0  0
    7.7872   17.7268   37.6971 C   0  0  2  0  0  0  0  0  0  0  0  0
    7.7501   17.6952   39.2238 C   0  0  1  0  0  0  0  0  0  0  0  0
  3  1  1  0  0  0  0
  4  1  1  6  0  0  0
  4  6  1  0  0  0  0
  4 31  1  0  0  0  0
  6  7  1  0  0  0  0
  7  9  1  6  0  0  0
  7 30  1  0  0  0  0
 10  9  1  1  0  0  0
 10 13  1  0  0  0  0
 10 21  1  0  0  0  0
 13 12  1  6  0  0  0
 13 15  1  0  0  0  0
 15  2  1  1  0  0  0
 15 17  1  0  0  0  0
 16 25  1  0  0  0  0
 17 19  1  0  0  0  0
 19  5  1  1  0  0  0
 19 21  1  0  0  0  0
 21 14  1  6  0  0  0
 23 14  1  1  0  0  0
 23 16  1  0  0  0  0
 23 29  1  0  0  0  0
 25 26  1  6  0  0  0
 25 27  1  0  0  0  0
 26  8  1  0  0  0  0
 27 18  1  1  0  0  0
 27 28  1  0  0  0  0
 28 20  1  6  0  0  0
 28 29  1  0  0  0  0
 29 11  1  1  0  0  0
 30 22  1  1  0  0  0
 30 31  1  0  0  0  0
 31 24  1  1  0  0  0
M  END
>  <CHROM.1>
61.29248749,-86.33064800,42.57144412,-80.76793062,60.79350524,62.28502261
9.98637155,18.24974178,35.35268586,1.57361346,0.64057578,1.75123173

>  <Name>
2fcz_lig

>  <RI>
0

>  <Rbt.Current_Directory>
/home/itssahil/PROJECTS/Mol_Feturizer/New_Systems/rnas/2fcz

>  <Rbt.Executable>
rbdock ($Id: //depot/dev/client3/rdock/2013.1/src/exe/rbdock.cxx#4 $)

>  <Rbt.Library>
libRbt.so (2013.1, Build901 2013/11/27)

>  <Rbt.Parameter_File>
/export/apps/rDock/src/rDock_2013.1_src/data/scripts/dock_solv.prm

>  <Rbt.Receptor>
prm/pocket_docking_5.prm

>  <SCORE>
-7.98013

>  <SCORE.INTER>
-11.2871

>  <SCORE.INTER.CONST>
1

>  <SCORE.INTER.POLAR>
-1.61964

>  <SCORE.INTER.ROT>
6

>  <SCORE.INTER.SOLV>
12.4575

>  <SCORE.INTER.VDW>
-13.8784

>  <SCORE.INTER.norm>
-0.3641

>  <SCORE.INTRA>
3.30698

>  <SCORE.INTRA.DIHEDRAL>
-4.50764

>  <SCORE.INTRA.DIHEDRAL.0>
10.8409

>  <SCORE.INTRA.POLAR>
0

>  <SCORE.INTRA.POLAR.0>
0

>  <SCORE.INTRA.REPUL>
0

>  <SCORE.INTRA.REPUL.0>
0

>  <SCORE.INTRA.SOLV>
0.82013

>  <SCORE.INTRA.SOLV.lig_0>
-80.8302

>  <SCORE.INTRA.VDW>
5.15074

>  <SCORE.INTRA.VDW.0>
-4.23953

>  <SCORE.INTRA.norm>
0.106677

>  <SCORE.RESTR>
0

>  <SCORE.RESTR.CAVITY>
0

>  <SCORE.RESTR.norm>
0

>  <SCORE.SYSTEM>
0

>  <SCORE.SYSTEM.CONST>
0

>  <SCORE.SYSTEM.DIHEDRAL>
0

>  <SCORE.SYSTEM.SOLV>
0

>  <SCORE.SYSTEM.norm>
0

>  <SCORE.heavy>
31

>  <SCORE.norm>
-0.257423

>  <RMSD>
3.761

$$$$
2fcz_lig
 OpenBabel11021811433D
libRbt.so/2013.1/901 2013/11/27
 31 33  0  0  0  0  0  0  0  0999 V2000
    6.2611   15.2325   38.0108 C   0  0  0  0  0  0  0  0  0  0  0  0
   13.1097   19.7943   38.1037 N   0  0  0  0  0  0  0  0  0  0  0  0
    6.4852   13.8202   37.9886 O   0  0  0  0  0  0  0  0  0  0  0  0
    7.3695   15.9171   38.8179 C   0  0  1  0  0  0  0  0  0  0  0  0
    9.8789   21.5080   34.8522 N   0  0  0  0  0  0  0  0  0  0  0  0
    8.6581   15.7663   38.1884 O   0  0  0  0  0  0  0  0  0  0  0  0
    9.0762   17.0299   37.6352 C   0  0  1  0  0  0  0  0  0  0  0  0
   11.5046   14.9689   34.1551 N   0  0  0  0  0  0  0  0  0  0  0  0
    9.6052   16.9037   36.3042 O   0  0  0  0  0  0  0  0  0  0  0  0
   10.5686   17.9114   35.9532 C   0  0  2  0  0  0  0  0  0  0  0  0
    8.7713   20.2953   31.7576 N   0  0  0  0  0  0  0  0  0  0  0  0
   12.1492   17.1729   37.6295 O   0  0  0  0  0  0  0  0  0  0  0  0
   11.3736   18.2949   37.2011 C   0  0  1  0  0  0  0  0  0  0  0  0
    9.2914   18.8627   34.0750 O   0  0  0  0  0  0  0  0  0  0  0  0
   12.3151   19.4664   36.9120 C   0  0  1  0  0  0  0  0  0  0  0  0
   10.9384   17.5401   33.0210 O   0  0  0  0  0  0  0  0  0  0  0  0
   11.5099   20.6938   36.4799 C   0  0  0  0  0  0  0  0  0  0  0  0
    8.5314   15.4801   31.1420 O   0  0  0  0  0  0  0  0  0  0  0  0
   10.7281   20.3600   35.2078 C   0  0  1  0  0  0  0  0  0  0  0  0
    8.0608   18.1006   30.0626 O   0  0  0  0  0  0  0  0  0  0  0  0
    9.8390   19.1233   35.3770 C   0  0  2  0  0  0  0  0  0  0  0  0
    8.0520   19.2801   37.5859 O   0  0  0  0  0  0  0  0  0  0  0  0
   10.2733   18.8170   33.0294 C   0  0  1  0  0  0  0  0  0  0  0  0
    7.7798   17.9945   40.0400 O   0  0  0  0  0  0  0  0  0  0  0  0
   10.0733   16.4190   32.7700 C   0  0  2  0  0  0  0  0  0  0  0  0
   10.9052   15.1352   32.8230 C   0  0  0  0  0  0  0  0  0  0  0  0
    9.4202   16.5733   31.3919 C   0  0  2  0  0  0  0  0  0  0  0  0
    8.6348   17.8860   31.3561 C   0  0  1  0  0  0  0  0  0  0  0  0
    9.5600   19.0570   31.6950 C   0  0  1  0  0  0  0  0  0  0  0  0
    7.7996   17.8718   37.6070 C   0  0  2  0  0  0  0  0  0  0  0  0
    7.1265   17.4239   38.9030 C   0  0  1  0  0  0  0  0  0  0  0  0
  3  1  1  0  0  0  0
  4  1  1  6  0  0  0
  4  6  1  0  0  0  0
  4 31  1  0  0  0  0
  6  7  1  0  0  0  0
  7  9  1  6  0  0  0
  7 30  1  0  0  0  0
 10  9  1  1  0  0  0
 10 13  1  0  0  0  0
 10 21  1  0  0  0  0
 13 12  1  6  0  0  0
 13 15  1  0  0  0  0
 15  2  1  1  0  0  0
 15 17  1  0  0  0  0
 16 25  1  0  0  0  0
 17 19  1  0  0  0  0
 19  5  1  1  0  0  0
 19 21  1  0  0  0  0
 21 14  1  6  0  0  0
 23 14  1  1  0  0  0
 23 16  1  0  0  0  0
 23 29  1  0  0  0  0
 25 26  1  6  0  0  0
 25 27  1  0  0  0  0
 26  8  1  0  0  0  0
 27 18  1  1  0  0  0
 27 28  1  0  0  0  0
 28 20  1  6  0  0  0
 28 29  1  0  0  0  0
 29 11  1  1  0  0  0
 30 22  1  1  0  0  0
 30 31  1  0  0  0  0
 31 24  1  1  0  0  0
M  END
>  <CHROM.1>
64.68031267,-152.21587271,33.63146990,-74.11809727,79.83356851,61.27196553
9.50933181,17.72625813,35.37107293,1.81312656,0.90306192,1.50034683

>  <Name>
2fcz_lig

>  <RI>
0

>  <Rbt.Current_Directory>
/home/itssahil/PROJECTS/Mol_Feturizer/New_Systems/rnas/2fcz

>  <Rbt.Executable>
rbdock ($Id: //depot/dev/client3/rdock/2013.1/src/exe/rbdock.cxx#4 $)

>  <Rbt.Library>
libRbt.so (2013.1, Build901 2013/11/27)

>  <Rbt.Parameter_File>
/export/apps/rDock/src/rDock_2013.1_src/data/scripts/dock_solv.prm

>  <Rbt.Receptor>
prm/pocket_docking_6.prm

>  <SCORE>
-12.4454

>  <SCORE.INTER>
-16.3232

>  <SCORE.INTER.CONST>
1

>  <SCORE.INTER.POLAR>
-2.28781

>  <SCORE.INTER.ROT>
6

>  <SCORE.INTER.SOLV>
16.8593

>  <SCORE.INTER.VDW>
-16.4759

>  <SCORE.INTER.norm>
-0.526554

>  <SCORE.INTRA>
3.87784

>  <SCORE.INTRA.DIHEDRAL>
-1.86013

>  <SCORE.INTRA.DIHEDRAL.0>
10.8409

>  <SCORE.INTRA.POLAR>
0

>  <SCORE.INTRA.POLAR.0>
0

>  <SCORE.INTRA.REPUL>
0

>  <SCORE.INTRA.REPUL.0>
0

>  <SCORE.INTRA.SOLV>
0.202516

>  <SCORE.INTRA.SOLV.lig_0>
-80.8302

>  <SCORE.INTRA.VDW>
4.70664

>  <SCORE.INTRA.VDW.0>
-4.23953

>  <SCORE.INTRA.norm>
0.125091

>  <SCORE.RESTR>
0

>  <SCORE.RESTR.CAVITY>
0

>  <SCORE.RESTR.norm>
0

>  <SCORE.SYSTEM>
0

>  <SCORE.SYSTEM.CONST>
0

>  <SCORE.SYSTEM.DIHEDRAL>
0

>  <SCORE.SYSTEM.SOLV>
0

>  <SCORE.SYSTEM.norm>
0

>  <SCORE.heavy>
31

>  <SCORE.norm>
-0.401463

>  <RMSD>
3.953

$$$$
2fcz_lig
 OpenBabel11021811433D
libRbt.so/2013.1/901 2013/11/27
 31 33  0  0  0  0  0  0  0  0999 V2000
   17.3417   17.9384   35.1349 C   0  0  0  0  0  0  0  0  0  0  0  0
   14.0136   24.7420   34.6063 N   0  0  0  0  0  0  0  0  0  0  0  0
   17.9257   16.9669   36.0070 O   0  0  0  0  0  0  0  0  0  0  0  0
   16.4226   18.8650   35.9382 C   0  0  1  0  0  0  0  0  0  0  0  0
    9.9245   22.0581   34.4513 N   0  0  0  0  0  0  0  0  0  0  0  0
   15.9250   19.9522   35.1320 O   0  0  0  0  0  0  0  0  0  0  0  0
   14.5240   19.7500   34.8602 C   0  0  1  0  0  0  0  0  0  0  0  0
    7.3356   22.1393   32.0358 N   0  0  0  0  0  0  0  0  0  0  0  0
   14.1869   19.9898   33.4832 O   0  0  0  0  0  0  0  0  0  0  0  0
   13.4562   21.2071   33.2571 C   0  0  2  0  0  0  0  0  0  0  0  0
   11.6006   17.4104   33.2286 N   0  0  0  0  0  0  0  0  0  0  0  0
   15.4353   22.5861   33.4446 O   0  0  0  0  0  0  0  0  0  0  0  0
   14.1427   22.3537   34.0096 C   0  0  1  0  0  0  0  0  0  0  0  0
   11.2683   20.1420   32.8799 O   0  0  0  0  0  0  0  0  0  0  0  0
   13.3230   23.6429   33.9177 C   0  0  1  0  0  0  0  0  0  0  0  0
    8.9447   20.0234   33.2798 O   0  0  0  0  0  0  0  0  0  0  0  0
   11.9423   23.4338   34.5434 C   0  0  0  0  0  0  0  0  0  0  0  0
    8.1387   18.5355   30.0081 O   0  0  0  0  0  0  0  0  0  0  0  0
   11.2095   22.3249   33.7856 C   0  0  1  0  0  0  0  0  0  0  0  0
    9.7842   16.5093   31.2079 O   0  0  0  0  0  0  0  0  0  0  0  0
   12.0164   21.0230   33.7324 C   0  0  2  0  0  0  0  0  0  0  0  0
   12.9106   17.9889   35.5008 O   0  0  0  0  0  0  0  0  0  0  0  0
   10.2249   19.4252   33.5559 C   0  0  1  0  0  0  0  0  0  0  0  0
   14.6100   18.7390   37.5741 O   0  0  0  0  0  0  0  0  0  0  0  0
    8.5677   20.0107   31.8921 C   0  0  2  0  0  0  0  0  0  0  0  0
    7.2107   20.7035   31.7454 C   0  0  0  0  0  0  0  0  0  0  0  0
    8.4820   18.5626   31.3969 C   0  0  2  0  0  0  0  0  0  0  0  0
    9.8390   17.8850   31.5988 C   0  0  1  0  0  0  0  0  0  0  0  0
   10.2522   17.9726   33.0698 C   0  0  1  0  0  0  0  0  0  0  0  0
   14.2799   18.2799   35.2045 C   0  0  2  0  0  0  0  0  0  0  0  0
   15.1841   18.1122   36.4241 C   0  0  1  0  0  0  0  0  0  0  0  0
  3  1  1  0  0  0  0
  4  1  1  6  0  0  0
  4  6  1  0  0  0  0
  4 31  1  0  0  0  0
  6  7  1  0  0  0  0
  7  9  1  6  0  0  0
  7 30  1  0  0  0  0
 10  9  1  1  0  0  0
 10 13  1  0  0  0  0
 10 21  1  0  0  0  0
 13 12  1  6  0  0  0
 13 15  1  0  0  0  0
 15  2  1  1  0  0  0
 15 17  1  0  0  0  0
 16 25  1  0  0  0  0
 17 19  1  0  0  0  0
 19  5  1  1  0  0  0
 19 21  1  0  0  0  0
 21 14  1  6  0  0  0
 23 14  1  6  0  0  0
 23 16  1  0  0  0  0
 23 29  1  0  0  0  0
 25 26  1  1  0  0  0
 25 27  1  0  0  0  0
 26  8  1  0  0  0  0
 27 18  1  6  0  0  0
 27 28  1  0  0  0  0
 28 20  1  1  0  0  0
 28 29  1  0  0  0  0
 29 11  1  6  0  0  0
 30 22  1  1  0  0  0
 30 31  1  0  0  0  0
 31 24  1  1  0  0  0
M  END
>  <CHROM.1>
173.61675467,-107.04935188,47.19656867,150.79669402,102.17911618,67.96922060
12.30044002,19.93952893,33.77515988,0.02992040,0.46701875,-3.09496311

>  <Name>
2fcz_lig

>  <RI>
0

>  <Rbt.Current_Directory>
/home/itssahil/PROJECTS/Mol_Feturizer/New_Systems/rnas/2fcz

>  <Rbt.Executable>
rbdock ($Id: //depot/dev/client3/rdock/2013.1/src/exe/rbdock.cxx#4 $)

>  <Rbt.Library>
libRbt.so (2013.1, Build901 2013/11/27)

>  <Rbt.Parameter_File>
/export/apps/rDock/src/rDock_2013.1_src/data/scripts/dock_solv.prm

>  <Rbt.Receptor>
prm/blind_docking_80.prm

>  <SCORE>
-7.11221

>  <SCORE.INTER>
-13.7539

>  <SCORE.INTER.CONST>
1

>  <SCORE.INTER.POLAR>
-0.894427

>  <SCORE.INTER.ROT>
6

>  <SCORE.INTER.SOLV>
13.9482

>  <SCORE.INTER.VDW>
-18.4373

>  <SCORE.INTER.norm>
-0.443675

>  <SCORE.INTRA>
6.64168

>  <SCORE.INTRA.DIHEDRAL>
5.87929

>  <SCORE.INTRA.DIHEDRAL.0>
10.8409

>  <SCORE.INTRA.POLAR>
0

>  <SCORE.INTRA.POLAR.0>
0

>  <SCORE.INTRA.REPUL>
0

>  <SCORE.INTRA.REPUL.0>
0

>  <SCORE.INTRA.SOLV>
2.60595

>  <SCORE.INTRA.SOLV.lig_0>
-80.8302

>  <SCORE.INTRA.VDW>
2.39906

>  <SCORE.INTRA.VDW.0>
-4.23953

>  <SCORE.INTRA.norm>
0.214248

>  <SCORE.RESTR>
2.72e-05

>  <SCORE.RESTR.CAVITY>
2.72e-05

>  <SCORE.RESTR.norm>
8.77419e-07

>  <SCORE.SYSTEM>
0

>  <SCORE.SYSTEM.CONST>
0

>  <SCORE.SYSTEM.DIHEDRAL>
0

>  <SCORE.SYSTEM.SOLV>
0

>  <SCORE.SYSTEM.norm>
0

>  <SCORE.heavy>
31

>  <SCORE.norm>
-0.229426

>  <RMSD>
4.148

$$$$
2fcz_lig
 OpenBabel11021811433D
libRbt.so/2013.1/901 2013/11/27
 31 33  0  0  0  0  0  0  0  0999 V2000
   11.7455   16.0478   32.1407 C   0  0  0  0  0  0  0  0  0  0  0  0
   18.2624   21.0754   33.0839 N   0  0  0  0  0  0  0  0  0  0  0  0
   11.1702   14.7387   32.1143 O   0  0  0  0  0  0  0  0  0  0  0  0
   13.2507   15.9434   32.4089 C   0  0  1  0  0  0  0  0  0  0  0  0
   14.1725   23.7613   33.1607 N   0  0  0  0  0  0  0  0  0  0  0  0
   13.8911   17.2348   32.3644 O   0  0  0  0  0  0  0  0  0  0  0  0
   14.2671   17.6336   33.6975 C   0  0  1  0  0  0  0  0  0  0  0  0
   10.6886   23.6626   29.4330 N   0  0  0  0  0  0  0  0  0  0  0  0
   13.9299   19.0021   33.9817 O   0  0  0  0  0  0  0  0  0  0  0  0
   14.6042   19.9618   33.1503 C   0  0  2  0  0  0  0  0  0  0  0  0
   11.5198   21.0471   35.2863 N   0  0  0  0  0  0  0  0  0  0  0  0
   16.6841   18.7262   33.1826 O   0  0  0  0  0  0  0  0  0  0  0  0
   16.0938   19.9853   33.5149 C   0  0  1  0  0  0  0  0  0  0  0  0
   12.6526   21.4176   32.7818 O   0  0  0  0  0  0  0  0  0  0  0  0
   16.8299   21.0927   32.7572 C   0  0  1  0  0  0  0  0  0  0  0  0
   11.1785   23.1840   32.2529 O   0  0  0  0  0  0  0  0  0  0  0  0
   16.2392   22.4579   33.1166 C   0  0  0  0  0  0  0  0  0  0  0  0
    8.2683   21.0014   31.6740 O   0  0  0  0  0  0  0  0  0  0  0  0
   14.7610   22.4856   32.7231 C   0  0  1  0  0  0  0  0  0  0  0  0
    8.8274   20.5435   34.4545 O   0  0  0  0  0  0  0  0  0  0  0  0
   13.9678   21.3354   33.3530 C   0  0  2  0  0  0  0  0  0  0  0  0
   14.0405   16.5616   35.9143 O   0  0  0  0  0  0  0  0  0  0  0  0
   11.8523   22.4828   33.3147 C   0  0  1  0  0  0  0  0  0  0  0  0
   14.8067   14.7945   33.9044 O   0  0  0  0  0  0  0  0  0  0  0  0
   10.2650   22.3760   31.4909 C   0  0  2  0  0  0  0  0  0  0  0  0
    9.6517   23.2384   30.3849 C   0  0  0  0  0  0  0  0  0  0  0  0
    9.1673   21.8339   32.4131 C   0  0  2  0  0  0  0  0  0  0  0  0
    9.8149   21.0156   33.5322 C   0  0  1  0  0  0  0  0  0  0  0  0
   10.8339   21.8747   34.2843 C   0  0  1  0  0  0  0  0  0  0  0  0
   13.4675   16.7030   34.6108 C   0  0  2  0  0  0  0  0  0  0  0  0
   13.5148   15.4010   33.8135 C   0  0  1  0  0  0  0  0  0  0  0  0
  3  1  1  0  0  0  0
  4  1  1  1  0  0  0
  4  6  1  0  0  0  0
  4 31  1  0  0  0  0
  6  7  1  0  0  0  0
  7  9  1  1  0  0  0
  7 30  1  0  0  0  0
 10  9  1  1  0  0  0
 10 13  1  0  0  0  0
 10 21  1  0  0  0  0
 13 12  1  6  0  0  0
 13 15  1  0  0  0  0
 15  2  1  1  0  0  0
 15 17  1  0  0  0  0
 16 25  1  0  0  0  0
 17 19  1  0  0  0  0
 19  5  1  1  0  0  0
 19 21  1  0  0  0  0
 21 14  1  6  0  0  0
 23 14  1  6  0  0  0
 23 16  1  0  0  0  0
 23 29  1  0  0  0  0
 25 26  1  6  0  0  0
 25 27  1  0  0  0  0
 26  8  1  0  0  0  0
 27 18  1  6  0  0  0
 27 28  1  0  0  0  0
 28 20  1  1  0  0  0
 28 29  1  0  0  0  0
 29 11  1  1  0  0  0
 30 22  1  1  0  0  0
 30 31  1  0  0  0  0
 31 24  1  6  0  0  0
M  END
>  <CHROM.1>
176.49004134,-62.68930022,-69.52953496,160.12014729,135.24011914,64.76099916
12.89570722,19.89798806,33.04605780,0.98992764,0.13920676,2.98478683

>  <Name>
2fcz_lig

>  <RI>
2.6968e+07

>  <Rbt.Current_Directory>
/home/itssahil/PROJECTS/Mol_Feturizer/New_Systems/rnas/2fcz

>  <Rbt.Executable>
rbdock ($Id: //depot/dev/client3/rdock/2013.1/src/exe/rbdock.cxx#4 $)

>  <Rbt.Library>
libRbt.so (2013.1, Build901 2013/11/27)

>  <Rbt.Parameter_File>
/export/apps/rDock/src/rDock_2013.1_src/data/scripts/dock_solv.prm

>  <Rbt.Receptor>
prm/blind_docking_60.prm

>  <SCORE>
-7.02404

>  <SCORE.INTER>
-8.51783

>  <SCORE.INTER.CONST>
1

>  <SCORE.INTER.POLAR>
-0.552224

>  <SCORE.INTER.ROT>
6

>  <SCORE.INTER.SOLV>
11.0593

>  <SCORE.INTER.VDW>
-15.1242

>  <SCORE.INTER.norm>
-0.274769

>  <SCORE.INTRA>
1.49379

>  <SCORE.INTRA.DIHEDRAL>
-2.23575

>  <SCORE.INTRA.DIHEDRAL.0>
10.8409

>  <SCORE.INTRA.POLAR>
0

>  <SCORE.INTRA.POLAR.0>
0

>  <SCORE.INTRA.REPUL>
0

>  <SCORE.INTRA.REPUL.0>
0

>  <SCORE.INTRA.SOLV>
-1.23569

>  <SCORE.INTRA.SOLV.lig_0>
-80.8302

>  <SCORE.INTRA.VDW>
3.22951

>  <SCORE.INTRA.VDW.0>
-4.23953

>  <SCORE.INTRA.norm>
0.0481868

>  <SCORE.RESTR>
0

>  <SCORE.RESTR.CAVITY>
0

>  <SCORE.RESTR.norm>
0

>  <SCORE.SYSTEM>
0

>  <SCORE.SYSTEM.CONST>
0

>  <SCORE.SYSTEM.DIHEDRAL>
0

>  <SCORE.SYSTEM.SOLV>
0

>  <SCORE.SYSTEM.norm>
0

>  <SCORE.heavy>
31

>  <SCORE.norm>
-0.226582

>  <RMSD>
4.406

$$$$
2fcz_lig
 OpenBabel11021811433D
libRbt.so/2013.1/901 2013/11/27
 31 33  0  0  0  0  0  0  0  0999 V2000
   15.0464   17.5832   33.1045 C   0  0  0  0  0  0  0  0  0  0  0  0
   16.9591   24.9841   36.4458 N   0  0  0  0  0  0  0  0  0  0  0  0
   13.7737   17.9488   33.6449 O   0  0  0  0  0  0  0  0  0  0  0  0
   16.1629   18.2017   33.9527 C   0  0  1  0  0  0  0  0  0  0  0  0
   12.4504   25.1297   34.5492 N   0  0  0  0  0  0  0  0  0  0  0  0
   15.9895   19.6250   34.1063 O   0  0  0  0  0  0  0  0  0  0  0  0
   15.5886   19.9195   35.4592 C   0  0  1  0  0  0  0  0  0  0  0  0
   11.2238   23.4486   29.6134 N   0  0  0  0  0  0  0  0  0  0  0  0
   14.5042   20.8614   35.5226 O   0  0  0  0  0  0  0  0  0  0  0  0
   14.8205   22.1626   34.9993 C   0  0  2  0  0  0  0  0  0  0  0  0
   11.2091   21.2609   35.7028 N   0  0  0  0  0  0  0  0  0  0  0  0
   17.0146   22.1853   36.0186 O   0  0  0  0  0  0  0  0  0  0  0  0
   15.7659   22.8799   35.9709 C   0  0  1  0  0  0  0  0  0  0  0  0
   12.7376   22.4513   33.7179 O   0  0  0  0  0  0  0  0  0  0  0  0
   16.0188   24.3235   35.5300 C   0  0  1  0  0  0  0  0  0  0  0  0
   10.8326   23.0932   32.4802 O   0  0  0  0  0  0  0  0  0  0  0  0
   14.7019   25.1022   35.4990 C   0  0  0  0  0  0  0  0  0  0  0  0
   10.1132   19.7035   31.2311 O   0  0  0  0  0  0  0  0  0  0  0  0
   13.7489   24.4390   34.5026 C   0  0  1  0  0  0  0  0  0  0  0  0
    9.7921   19.3861   34.0683 O   0  0  0  0  0  0  0  0  0  0  0  0
   13.5279   22.9533   34.8071 C   0  0  2  0  0  0  0  0  0  0  0  0
   15.1830   18.5111   37.4509 O   0  0  0  0  0  0  0  0  0  0  0  0
   11.3496   22.8079   33.7933 C   0  0  1  0  0  0  0  0  0  0  0  0
   17.4286   17.7463   35.9943 O   0  0  0  0  0  0  0  0  0  0  0  0
   10.8840   21.9846   31.5656 C   0  0  2  0  0  0  0  0  0  0  0  0
   10.3365   22.4400   30.2106 C   0  0  0  0  0  0  0  0  0  0  0  0
   10.0452   20.8258   32.1161 C   0  0  2  0  0  0  0  0  0  0  0  0
   10.5887   20.4247   33.4891 C   0  0  1  0  0  0  0  0  0  0  0  0
   10.5902   21.6364   34.4240 C   0  0  1  0  0  0  0  0  0  0  0  0
   15.1365   18.5710   36.0220 C   0  0  2  0  0  0  0  0  0  0  0  0
   16.1473   17.6295   35.3701 C   0  0  1  0  0  0  0  0  0  0  0  0
  3  1  1  0  0  0  0
  4  1  1  6  0  0  0
  4  6  1  0  0  0  0
  4 31  1  0  0  0  0
  6  7  1  0  0  0  0
  7  9  1  6  0  0  0
  7 30  1  0  0  0  0
 10  9  1  1  0  0  0
 10 13  1  0  0  0  0
 10 21  1  0  0  0  0
 13 12  1  6  0  0  0
 13 15  1  0  0  0  0
 15  2  1  1  0  0  0
 15 17  1  0  0  0  0
 16 25  1  0  0  0  0
 17 19  1  0  0  0  0
 19  5  1  1  0  0  0
 19 21  1  0  0  0  0
 21 14  1  6  0  0  0
 23 14  1  6  0  0  0
 23 16  1  0  0  0  0
 23 29  1  0  0  0  0
 25 26  1  6  0  0  0
 25 27  1  0  0  0  0
 26  8  1  0  0  0  0
 27 18  1  6  0  0  0
 27 28  1  0  0  0  0
 28 20  1  1  0  0  0
 28 29  1  0  0  0  0
 29 11  1  1  0  0  0
 30 22  1  1  0  0  0
 30 31  1  0  0  0  0
 31 24  1  1  0  0  0
M  END
>  <CHROM.1>
-53.23412022,-63.44025911,-72.04333109,158.45236333,142.38282337,66.04436418
13.54488334,21.24427408,34.23973216,0.27989980,0.59458041,-3.06157405

>  <Name>
2fcz_lig

>  <RI>
2.6968e+07

>  <Rbt.Current_Directory>
/home/itssahil/PROJECTS/Mol_Feturizer/New_Systems/rnas/2fcz

>  <Rbt.Executable>
rbdock ($Id: //depot/dev/client3/rdock/2013.1/src/exe/rbdock.cxx#4 $)

>  <Rbt.Library>
libRbt.so (2013.1, Build901 2013/11/27)

>  <Rbt.Parameter_File>
/export/apps/rDock/src/rDock_2013.1_src/data/scripts/dock_solv.prm

>  <Rbt.Receptor>
prm/blind_docking_60.prm

>  <SCORE>
-7.75935

>  <SCORE.INTER>
-9.11445

>  <SCORE.INTER.CONST>
1

>  <SCORE.INTER.POLAR>
-0.894427

>  <SCORE.INTER.ROT>
6

>  <SCORE.INTER.SOLV>
14.6667

>  <SCORE.INTER.VDW>
-15.5838

>  <SCORE.INTER.norm>
-0.294014

>  <SCORE.INTRA>
1.34327

>  <SCORE.INTRA.DIHEDRAL>
-2.6261

>  <SCORE.INTRA.DIHEDRAL.0>
10.8409

>  <SCORE.INTRA.POLAR>
0

>  <SCORE.INTRA.POLAR.0>
0

>  <SCORE.INTRA.REPUL>
0

>  <SCORE.INTRA.REPUL.0>
0

>  <SCORE.INTRA.SOLV>
-0.295278

>  <SCORE.INTRA.SOLV.lig_0>
-80.8302

>  <SCORE.INTRA.VDW>
2.80396

>  <SCORE.INTRA.VDW.0>
-4.23953

>  <SCORE.INTRA.norm>
0.0433314

>  <SCORE.RESTR>
0.0118294

>  <SCORE.RESTR.CAVITY>
0.0118294

>  <SCORE.RESTR.norm>
0.000381592

>  <SCORE.SYSTEM>
0

>  <SCORE.SYSTEM.CONST>
0

>  <SCORE.SYSTEM.DIHEDRAL>
0

>  <SCORE.SYSTEM.SOLV>
0

>  <SCORE.SYSTEM.norm>
0

>  <SCORE.heavy>
31

>  <SCORE.norm>
-0.250301

>  <RMSD>
4.682

$$$$
2fcz_lig
 OpenBabel11021811433D
libRbt.so/2013.1/901 2013/11/27
 31 33  0  0  0  0  0  0  0  0999 V2000
   13.7675   21.2867   36.5068 C   0  0  0  0  0  0  0  0  0  0  0  0
    9.2907   16.5584   37.2552 N   0  0  0  0  0  0  0  0  0  0  0  0
   12.6469   21.9213   37.1290 O   0  0  0  0  0  0  0  0  0  0  0  0
   13.3979   20.8751   35.0777 C   0  0  1  0  0  0  0  0  0  0  0  0
    9.5983   16.9989   32.3912 N   0  0  0  0  0  0  0  0  0  0  0  0
   12.1520   20.1501   35.0369 O   0  0  0  0  0  0  0  0  0  0  0  0
   11.1308   20.9779   34.4454 C   0  0  1  0  0  0  0  0  0  0  0  0
    7.3801   24.5955   31.9996 N   0  0  0  0  0  0  0  0  0  0  0  0
    9.8942   20.9397   35.1780 O   0  0  0  0  0  0  0  0  0  0  0  0
    9.1819   19.6955   35.0704 C   0  0  2  0  0  0  0  0  0  0  0  0
    7.6079   18.1888   30.7420 N   0  0  0  0  0  0  0  0  0  0  0  0
    9.1105   19.3764   37.4677 O   0  0  0  0  0  0  0  0  0  0  0  0
    9.5688   18.7905   36.2467 C   0  0  1  0  0  0  0  0  0  0  0  0
    8.9449   19.7316   32.6196 O   0  0  0  0  0  0  0  0  0  0  0  0
    8.9467   17.3998   36.1007 C   0  0  1  0  0  0  0  0  0  0  0  0
    7.0391   21.0556   33.0533 O   0  0  0  0  0  0  0  0  0  0  0  0
    9.4435   16.7338   34.8157 C   0  0  0  0  0  0  0  0  0  0  0  0
    7.2621   22.9651   29.9113 O   0  0  0  0  0  0  0  0  0  0  0  0
    9.0335   17.5891   33.6152 C   0  0  1  0  0  0  0  0  0  0  0  0
    6.8164   20.2893   28.9655 O   0  0  0  0  0  0  0  0  0  0  0  0
    9.5231   19.0363   33.7355 C   0  0  2  0  0  0  0  0  0  0  0  0
   11.1316   23.2743   33.5282 O   0  0  0  0  0  0  0  0  0  0  0  0
    7.5102   19.7616   32.6329 C   0  0  1  0  0  0  0  0  0  0  0  0
   13.3802   21.7971   32.8133 O   0  0  0  0  0  0  0  0  0  0  0  0
    7.4272   22.1398   32.1920 C   0  0  2  0  0  0  0  0  0  0  0  0
    6.8884   23.4481   32.7761 C   0  0  0  0  0  0  0  0  0  0  0  0
    6.8569   21.9093   30.7880 C   0  0  2  0  0  0  0  0  0  0  0  0
    7.3772   20.5742   30.2511 C   0  0  1  0  0  0  0  0  0  0  0  0
    7.0137   19.4455   31.2185 C   0  0  1  0  0  0  0  0  0  0  0  0
   11.7155   22.3905   34.4901 C   0  0  2  0  0  0  0  0  0  0  0  0
   13.1873   22.1061   34.1962 C   0  0  1  0  0  0  0  0  0  0  0  0
  3  1  1  0  0  0  0
  4  1  1  1  0  0  0
  4  6  1  0  0  0  0
  4 31  1  0  0  0  0
  6  7  1  0  0  0  0
  7  9  1  1  0  0  0
  7 30  1  0  0  0  0
 10  9  1  1  0  0  0
 10 13  1  0  0  0  0
 10 21  1  0  0  0  0
 13 12  1  1  0  0  0
 13 15  1  0  0  0  0
 15  2  1  1  0  0  0
 15 17  1  0  0  0  0
 16 25  1  0  0  0  0
 17 19  1  0  0  0  0
 19  5  1  6  0  0  0
 19 21  1  0  0  0  0
 21 14  1  6  0  0  0
 23 14  1  6  0  0  0
 23 16  1  0  0  0  0
 23 29  1  0  0  0  0
 25 26  1  1  0  0  0
 25 27  1  0  0  0  0
 26  8  1  0  0  0  0
 27 18  1  6  0  0  0
 27 28  1  0  0  0  0
 28 20  1  6  0  0  0
 28 29  1  0  0  0  0
 29 11  1  6  0  0  0
 30 22  1  6  0  0  0
 30 31  1  0  0  0  0
 31 24  1  6  0  0  0
M  END
>  <CHROM.1>
-49.71985857,-71.03234674,93.63183406,-62.17866864,103.40574716,174.20700237
9.50915395,20.42781568,33.62023040,-0.52273599,-0.69042599,-0.53232448

>  <Name>
2fcz_lig

>  <RI>
3.41297e+07

>  <Rbt.Current_Directory>
/home/itssahil/PROJECTS/Mol_Feturizer/New_Systems/rnas/2fcz

>  <Rbt.Executable>
rbdock ($Id: //depot/dev/client3/rdock/2013.1/src/exe/rbdock.cxx#4 $)

>  <Rbt.Library>
libRbt.so (2013.1, Build901 2013/11/27)

>  <Rbt.Parameter_File>
/export/apps/rDock/src/rDock_2013.1_src/data/scripts/dock_solv.prm

>  <Rbt.Receptor>
prm/pocket_docking_2.prm

>  <SCORE>
-2.40074

>  <SCORE.INTER>
-9.70171

>  <SCORE.INTER.CONST>
1

>  <SCORE.INTER.POLAR>
-1.44054

>  <SCORE.INTER.ROT>
6

>  <SCORE.INTER.SOLV>
17.3289

>  <SCORE.INTER.VDW>
-15.0423

>  <SCORE.INTER.norm>
-0.312959

>  <SCORE.INTRA>
5.76714

>  <SCORE.INTRA.DIHEDRAL>
0.60266

>  <SCORE.INTRA.DIHEDRAL.0>
10.8409

>  <SCORE.INTRA.POLAR>
0

>  <SCORE.INTRA.POLAR.0>
0

>  <SCORE.INTRA.REPUL>
0

>  <SCORE.INTRA.REPUL.0>
0

>  <SCORE.INTRA.SOLV>
0.976344

>  <SCORE.INTRA.SOLV.lig_0>
-80.8302

>  <SCORE.INTRA.VDW>
4.97764

>  <SCORE.INTRA.VDW.0>
-4.23953

>  <SCORE.INTRA.norm>
0.186037

>  <SCORE.RESTR>
1.53383

>  <SCORE.RESTR.CAVITY>
1.53383

>  <SCORE.RESTR.norm>
0.0494785

>  <SCORE.SYSTEM>
0

>  <SCORE.SYSTEM.CONST>
0

>  <SCORE.SYSTEM.DIHEDRAL>
0

>  <SCORE.SYSTEM.SOLV>
0

>  <SCORE.SYSTEM.norm>
0

>  <SCORE.heavy>
31

>  <SCORE.norm>
-0.0774432

>  <RMSD>
4.751

$$$$
2fcz_lig
 OpenBabel11021811433D
libRbt.so/2013.1/901 2013/11/27
 31 33  0  0  0  0  0  0  0  0999 V2000
   13.8187   22.0195   32.3490 C   0  0  0  0  0  0  0  0  0  0  0  0
   12.2017   18.1402   39.6060 N   0  0  0  0  0  0  0  0  0  0  0  0
   12.7809   22.9553   32.6536 O   0  0  0  0  0  0  0  0  0  0  0  0
   14.5631   21.6400   33.6337 C   0  0  1  0  0  0  0  0  0  0  0  0
    8.3146   17.9061   36.6425 N   0  0  0  0  0  0  0  0  0  0  0  0
   13.6686   21.1038   34.6296 O   0  0  0  0  0  0  0  0  0  0  0  0
   13.8930   19.6866   34.7674 C   0  0  1  0  0  0  0  0  0  0  0  0
    7.4554   22.5165   31.3403 N   0  0  0  0  0  0  0  0  0  0  0  0
   12.6689   18.9336   34.8073 O   0  0  0  0  0  0  0  0  0  0  0  0
   11.8428   19.2088   35.9514 C   0  0  2  0  0  0  0  0  0  0  0  0
   10.0010   16.9018   33.5464 N   0  0  0  0  0  0  0  0  0  0  0  0
   13.7234   19.2155   37.4736 O   0  0  0  0  0  0  0  0  0  0  0  0
   12.4769   18.5731   37.1948 C   0  0  1  0  0  0  0  0  0  0  0  0
    9.7232   19.4028   34.7131 O   0  0  0  0  0  0  0  0  0  0  0  0
   11.5630   18.7153   38.4142 C   0  0  1  0  0  0  0  0  0  0  0  0
    7.5819   19.7268   33.7735 O   0  0  0  0  0  0  0  0  0  0  0  0
   10.2297   18.0097   38.1570 C   0  0  0  0  0  0  0  0  0  0  0  0
    8.8290   20.3905   30.3718 O   0  0  0  0  0  0  0  0  0  0  0  0
    9.5465   18.6509   36.9475 C   0  0  1  0  0  0  0  0  0  0  0  0
    9.6755   17.6806   30.8110 O   0  0  0  0  0  0  0  0  0  0  0  0
   10.4422   18.6518   35.7040 C   0  0  2  0  0  0  0  0  0  0  0  0
   15.4522   18.1044   33.6810 O   0  0  0  0  0  0  0  0  0  0  0  0
    8.5344   18.7530   34.2400 C   0  0  1  0  0  0  0  0  0  0  0  0
   16.6288   20.5396   34.3404 O   0  0  0  0  0  0  0  0  0  0  0  0
    8.0376   20.5235   32.6665 C   0  0  2  0  0  0  0  0  0  0  0  0
    6.9431   21.5295   32.3019 C   0  0  0  0  0  0  0  0  0  0  0  0
    8.3437   19.6140   31.4713 C   0  0  2  0  0  0  0  0  0  0  0  0
    9.4066   18.5923   31.8810 C   0  0  1  0  0  0  0  0  0  0  0  0
    8.9296   17.8048   33.1034 C   0  0  1  0  0  0  0  0  0  0  0  0
   14.6938   19.3072   33.5208 C   0  0  2  0  0  0  0  0  0  0  0  0
   15.5859   20.5369   33.3620 C   0  0  1  0  0  0  0  0  0  0  0  0
  3  1  1  0  0  0  0
  4  1  1  6  0  0  0
  4  6  1  0  0  0  0
  4 31  1  0  0  0  0
  6  7  1  0  0  0  0
  7  9  1  6  0  0  0
  7 30  1  0  0  0  0
 10  9  1  6  0  0  0
 10 13  1  0  0  0  0
 10 21  1  0  0  0  0
 13 12  1  1  0  0  0
 13 15  1  0  0  0  0
 15  2  1  1  0  0  0
 15 17  1  0  0  0  0
 16 25  1  0  0  0  0
 17 19  1  0  0  0  0
 19  5  1  6  0  0  0
 19 21  1  0  0  0  0
 21 14  1  6  0  0  0
 23 14  1  6  0  0  0
 23 16  1  0  0  0  0
 23 29  1  0  0  0  0
 25 26  1  6  0  0  0
 25 27  1  0  0  0  0
 26  8  1  0  0  0  0
 27 18  1  6  0  0  0
 27 28  1  0  0  0  0
 28 20  1  6  0  0  0
 28 29  1  0  0  0  0
 29 11  1  1  0  0  0
 30 22  1  1  0  0  0
 30 31  1  0  0  0  0
 31 24  1  1  0  0  0
M  END
>  <CHROM.1>
56.88273040,-64.68311103,-73.30393226,167.05335587,153.53405073,169.93534006
11.24833709,19.54665949,34.29207430,-0.44560874,-0.18678545,-1.14274157

>  <Name>
2fcz_lig

>  <RI>
2.76032e+07

>  <Rbt.Current_Directory>
/home/itssahil/PROJECTS/Mol_Feturizer/New_Systems/rnas/2fcz

>  <Rbt.Executable>
rbdock ($Id: //depot/dev/client3/rdock/2013.1/src/exe/rbdock.cxx#4 $)

>  <Rbt.Library>
libRbt.so (2013.1, Build901 2013/11/27)

>  <Rbt.Parameter_File>
/export/apps/rDock/src/rDock_2013.1_src/data/scripts/dock_solv.prm

>  <Rbt.Receptor>
prm/pocket_docking_8.prm

>  <SCORE>
-14.0147

>  <SCORE.INTER>
-16.1072

>  <SCORE.INTER.CONST>
1

>  <SCORE.INTER.POLAR>
-1.84884

>  <SCORE.INTER.ROT>
6

>  <SCORE.INTER.SOLV>
10.6226

>  <SCORE.INTER.VDW>
-15.7162

>  <SCORE.INTER.norm>
-0.519588

>  <SCORE.INTRA>
2.0925

>  <SCORE.INTRA.DIHEDRAL>
-5.6364

>  <SCORE.INTRA.DIHEDRAL.0>
10.8409

>  <SCORE.INTRA.POLAR>
0

>  <SCORE.INTRA.POLAR.0>
0

>  <SCORE.INTRA.REPUL>
0

>  <SCORE.INTRA.REPUL.0>
0

>  <SCORE.INTRA.SOLV>
1.00992

>  <SCORE.INTRA.SOLV.lig_0>
-80.8302

>  <SCORE.INTRA.VDW>
4.40574

>  <SCORE.INTRA.VDW.0>
-4.23953

>  <SCORE.INTRA.norm>
0.0675

>  <SCORE.RESTR>
0

>  <SCORE.RESTR.CAVITY>
0

>  <SCORE.RESTR.norm>
0

>  <SCORE.SYSTEM>
0

>  <SCORE.SYSTEM.CONST>
0

>  <SCORE.SYSTEM.DIHEDRAL>
0

>  <SCORE.SYSTEM.SOLV>
0

>  <SCORE.SYSTEM.norm>
0

>  <SCORE.heavy>
31

>  <SCORE.norm>
-0.452088

>  <RMSD>
4.855

$$$$
2fcz_lig
 OpenBabel11021811433D
libRbt.so/2013.1/901 2013/11/27
 31 33  0  0  0  0  0  0  0  0999 V2000
   11.7620   18.1626   38.9494 C   0  0  0  0  0  0  0  0  0  0  0  0
    8.9066   14.7865   34.5540 N   0  0  0  0  0  0  0  0  0  0  0  0
   10.5295   18.8740   39.0923 O   0  0  0  0  0  0  0  0  0  0  0  0
   12.3129   18.3665   37.5339 C   0  0  1  0  0  0  0  0  0  0  0  0
   10.0070   18.1516   31.1758 N   0  0  0  0  0  0  0  0  0  0  0  0
   11.3086   18.1166   36.5297 O   0  0  0  0  0  0  0  0  0  0  0  0
   10.9053   19.3634   35.9292 C   0  0  1  0  0  0  0  0  0  0  0  0
   13.1505   23.1546   33.3234 N   0  0  0  0  0  0  0  0  0  0  0  0
    9.4783   19.4776   35.7959 O   0  0  0  0  0  0  0  0  0  0  0  0
    8.9051   18.6025   34.8097 C   0  0  2  0  0  0  0  0  0  0  0  0
    7.1962   22.1662   33.2567 N   0  0  0  0  0  0  0  0  0  0  0  0
    8.4502   16.8611   36.4267 O   0  0  0  0  0  0  0  0  0  0  0  0
    9.1604   17.1466   35.2191 C   0  0  1  0  0  0  0  0  0  0  0  0
    9.0908   20.1689   32.9188 O   0  0  0  0  0  0  0  0  0  0  0  0
    8.6950   16.1774   34.1299 C   0  0  1  0  0  0  0  0  0  0  0  0
   10.8570   21.5718   33.6154 O   0  0  0  0  0  0  0  0  0  0  0  0
    9.4609   16.4388   32.8312 C   0  0  0  0  0  0  0  0  0  0  0  0
   10.9569   23.5242   30.4935 O   0  0  0  0  0  0  0  0  0  0  0  0
    9.1913   17.8719   32.3682 C   0  0  1  0  0  0  0  0  0  0  0  0
    8.3317   24.1184   31.4978 O   0  0  0  0  0  0  0  0  0  0  0  0
    9.5264   18.9067   33.4479 C   0  0  2  0  0  0  0  0  0  0  0  0
   11.5937   21.7128   36.2774 O   0  0  0  0  0  0  0  0  0  0  0  0
    9.4488   21.2955   33.7324 C   0  0  1  0  0  0  0  0  0  0  0  0
   13.7257   19.9228   36.2852 O   0  0  0  0  0  0  0  0  0  0  0  0
   11.2883   21.9179   32.2879 C   0  0  2  0  0  0  0  0  0  0  0  0
   12.8011   22.1506   32.3079 C   0  0  0  0  0  0  0  0  0  0  0  0
   10.5611   23.1858   31.8263 C   0  0  2  0  0  0  0  0  0  0  0  0
    9.0518   22.9360   31.8608 C   0  0  1  0  0  0  0  0  0  0  0  0
    8.6270   22.5011   33.2653 C   0  0  1  0  0  0  0  0  0  0  0  0
   11.4224   20.4325   36.8931 C   0  0  2  0  0  0  0  0  0  0  0  0
   12.7512   19.8162   37.3263 C   0  0  1  0  0  0  0  0  0  0  0  0
  3  1  1  0  0  0  0
  4  1  1  1  0  0  0
  4  6  1  0  0  0  0
  4 31  1  0  0  0  0
  6  7  1  0  0  0  0
  7  9  1  1  0  0  0
  7 30  1  0  0  0  0
 10  9  1  1  0  0  0
 10 13  1  0  0  0  0
 10 21  1  0  0  0  0
 13 12  1  1  0  0  0
 13 15  1  0  0  0  0
 15  2  1  1  0  0  0
 15 17  1  0  0  0  0
 16 25  1  0  0  0  0
 17 19  1  0  0  0  0
 19  5  1  6  0  0  0
 19 21  1  0  0  0  0
 21 14  1  6  0  0  0
 23 14  1  6  0  0  0
 23 16  1  0  0  0  0
 23 29  1  0  0  0  0
 25 26  1  1  0  0  0
 25 27  1  0  0  0  0
 26  8  1  0  0  0  0
 27 18  1  6  0  0  0
 27 28  1  0  0  0  0
 28 20  1  1  0  0  0
 28 29  1  0  0  0  0
 29 11  1  6  0  0  0
 30 22  1  6  0  0  0
 30 31  1  0  0  0  0
 31 24  1  6  0  0  0
M  END
>  <CHROM.1>
-49.48012396,-70.02547560,62.29710494,61.62986159,73.78047536,-54.66326378
10.31629279,19.95537992,34.41058040,-1.48031768,-0.87062844,-0.67497723

>  <Name>
2fcz_lig

>  <RI>
2.26996e+07

>  <Rbt.Current_Directory>
/home/itssahil/PROJECTS/Mol_Feturizer/New_Systems/rnas/2fcz

>  <Rbt.Executable>
rbdock ($Id: //depot/dev/client3/rdock/2013.1/src/exe/rbdock.cxx#4 $)

>  <Rbt.Library>
libRbt.so (2013.1, Build901 2013/11/27)

>  <Rbt.Parameter_File>
/export/apps/rDock/src/rDock_2013.1_src/data/scripts/dock_solv.prm

>  <Rbt.Receptor>
prm/pocket_docking_4.prm

>  <SCORE>
-17.1434

>  <SCORE.INTER>
-14.7514

>  <SCORE.INTER.CONST>
1

>  <SCORE.INTER.POLAR>
-1.2602

>  <SCORE.INTER.ROT>
6

>  <SCORE.INTER.SOLV>
16.6659

>  <SCORE.INTER.VDW>
-18.7889

>  <SCORE.INTER.norm>
-0.475852

>  <SCORE.INTRA>
-2.39204

>  <SCORE.INTRA.DIHEDRAL>
-8.77527

>  <SCORE.INTRA.DIHEDRAL.0>
10.8409

>  <SCORE.INTRA.POLAR>
0

>  <SCORE.INTRA.POLAR.0>
0

>  <SCORE.INTRA.REPUL>
0

>  <SCORE.INTRA.REPUL.0>
0

>  <SCORE.INTRA.SOLV>
-0.598205

>  <SCORE.INTRA.SOLV.lig_0>
-80.8302

>  <SCORE.INTRA.VDW>
2.29469

>  <SCORE.INTRA.VDW.0>
-4.23953

>  <SCORE.INTRA.norm>
-0.0771627

>  <SCORE.RESTR>
0

>  <SCORE.RESTR.CAVITY>
0

>  <SCORE.RESTR.norm>
0

>  <SCORE.SYSTEM>
0

>  <SCORE.SYSTEM.CONST>
0

>  <SCORE.SYSTEM.DIHEDRAL>
0

>  <SCORE.SYSTEM.SOLV>
0

>  <SCORE.SYSTEM.norm>
0

>  <SCORE.heavy>
31

>  <SCORE.norm>
-0.553014

>  <RMSD>
4.890

$$$$
2fcz_lig
 OpenBabel11021811433D
libRbt.so/2013.1/901 2013/11/27
 31 33  0  0  0  0  0  0  0  0999 V2000
   14.4976   17.9449   34.3070 C   0  0  0  0  0  0  0  0  0  0  0  0
   17.0226   25.0108   38.1022 N   0  0  0  0  0  0  0  0  0  0  0  0
   14.2393   16.5459   34.4534 O   0  0  0  0  0  0  0  0  0  0  0  0
   15.3005   18.4490   35.5111 C   0  0  1  0  0  0  0  0  0  0  0  0
   14.2848   26.3512   34.2741 N   0  0  0  0  0  0  0  0  0  0  0  0
   15.5916   19.8575   35.4060 O   0  0  0  0  0  0  0  0  0  0  0  0
   14.7977   20.5874   36.3624 C   0  0  1  0  0  0  0  0  0  0  0  0
    9.0916   23.1294   32.4035 N   0  0  0  0  0  0  0  0  0  0  0  0
   14.1923   21.7626   35.7972 O   0  0  0  0  0  0  0  0  0  0  0  0
   15.1030   22.8561   35.5925 C   0  0  2  0  0  0  0  0  0  0  0  0
   15.5084   22.3379   31.4895 N   0  0  0  0  0  0  0  0  0  0  0  0
   16.4175   22.3009   37.5463 O   0  0  0  0  0  0  0  0  0  0  0  0
   15.6289   23.3345   36.9515 C   0  0  1  0  0  0  0  0  0  0  0  0
   14.1018   23.6504   33.4876 O   0  0  0  0  0  0  0  0  0  0  0  0
   16.4914   24.5895   36.7986 C   0  0  1  0  0  0  0  0  0  0  0  0
   12.4278   21.9872   33.5561 O   0  0  0  0  0  0  0  0  0  0  0  0
   15.6645   25.7251   36.1915 C   0  0  0  0  0  0  0  0  0  0  0  0
   10.8202   23.0302   30.4104 O   0  0  0  0  0  0  0  0  0  0  0  0
   15.1610   25.2981   34.8113 C   0  0  1  0  0  0  0  0  0  0  0  0
   13.4324   22.2304   29.5215 O   0  0  0  0  0  0  0  0  0  0  0  0
   14.3776   23.9817   34.8576 C   0  0  2  0  0  0  0  0  0  0  0  0
   13.1365   19.9014   38.0608 O   0  0  0  0  0  0  0  0  0  0  0  0
   13.8123   22.2615   33.2718 C   0  0  1  0  0  0  0  0  0  0  0  0
   15.3565   18.2258   37.9452 O   0  0  0  0  0  0  0  0  0  0  0  0
   11.4960   22.6968   32.7216 C   0  0  2  0  0  0  0  0  0  0  0  0
   10.0735   22.3353   33.1561 C   0  0  0  0  0  0  0  0  0  0  0  0
   11.7198   22.3072   31.2561 C   0  0  2  0  0  0  0  0  0  0  0  0
   13.1619   22.6386   30.8664 C   0  0  1  0  0  0  0  0  0  0  0  0
   14.1341   21.9288   31.8113 C   0  0  1  0  0  0  0  0  0  0  0  0
   13.7109   19.5979   36.7859 C   0  0  2  0  0  0  0  0  0  0  0  0
   14.4987   18.2894   36.8027 C   0  0  1  0  0  0  0  0  0  0  0  0
  3  1  1  0  0  0  0
  4  1  1  6  0  0  0
  4  6  1  0  0  0  0
  4 31  1  0  0  0  0
  6  7  1  0  0  0  0
  7  9  1  6  0  0  0
  7 30  1  0  0  0  0
 10  9  1  1  0  0  0
 10 13  1  0  0  0  0
 10 21  1  0  0  0  0
 13 12  1  6  0  0  0
 13 15  1  0  0  0  0
 15  2  1  1  0  0  0
 15 17  1  0  0  0  0
 16 25  1  0  0  0  0
 17 19  1  0  0  0  0
 19  5  1  1  0  0  0
 19 21  1  0  0  0  0
 21 14  1  6  0  0  0
 23 14  1  6  0  0  0
 23 16  1  0  0  0  0
 23 29  1  0  0  0  0
 25 26  1  1  0  0  0
 25 27  1  0  0  0  0
 26  8  1  0  0  0  0
 27 18  1  6  0  0  0
 27 28  1  0  0  0  0
 28 20  1  6  0  0  0
 28 29  1  0  0  0  0
 29 11  1  6  0  0  0
 30 22  1  1  0  0  0
 30 31  1  0  0  0  0
 31 24  1  1  0  0  0
M  END
>  <CHROM.1>
179.73921439,-75.09394239,-64.35624804,34.21261428,83.22345329,175.11826488
14.03086244,21.92337220,34.53432598,0.58794626,0.96354847,2.90302795

>  <Name>
2fcz_lig

>  <RI>
0

>  <Rbt.Current_Directory>
/home/itssahil/PROJECTS/Mol_Feturizer/New_Systems/rnas/2fcz

>  <Rbt.Executable>
rbdock ($Id: //depot/dev/client3/rdock/2013.1/src/exe/rbdock.cxx#4 $)

>  <Rbt.Library>
libRbt.so (2013.1, Build901 2013/11/27)

>  <Rbt.Parameter_File>
/export/apps/rDock/src/rDock_2013.1_src/data/scripts/dock_solv.prm

>  <Rbt.Receptor>
prm/blind_docking_80.prm

>  <SCORE>
-11.6021

>  <SCORE.INTER>
-13.1116

>  <SCORE.INTER.CONST>
1

>  <SCORE.INTER.POLAR>
-1.49689

>  <SCORE.INTER.ROT>
6

>  <SCORE.INTER.SOLV>
17.7944

>  <SCORE.INTER.VDW>
-17.2829

>  <SCORE.INTER.norm>
-0.422956

>  <SCORE.INTRA>
1.47989

>  <SCORE.INTRA.DIHEDRAL>
-4.3521

>  <SCORE.INTRA.DIHEDRAL.0>
10.8409

>  <SCORE.INTRA.POLAR>
0

>  <SCORE.INTRA.POLAR.0>
0

>  <SCORE.INTRA.REPUL>
0

>  <SCORE.INTRA.REPUL.0>
0

>  <SCORE.INTRA.SOLV>
-2.87882

>  <SCORE.INTRA.SOLV.lig_0>
-80.8302

>  <SCORE.INTRA.VDW>
5.09535

>  <SCORE.INTRA.VDW.0>
-4.23953

>  <SCORE.INTRA.norm>
0.0477385

>  <SCORE.RESTR>
0.0295936

>  <SCORE.RESTR.CAVITY>
0.0295936

>  <SCORE.RESTR.norm>
0.000954631

>  <SCORE.SYSTEM>
0

>  <SCORE.SYSTEM.CONST>
0

>  <SCORE.SYSTEM.DIHEDRAL>
0

>  <SCORE.SYSTEM.SOLV>
0

>  <SCORE.SYSTEM.norm>
0

>  <SCORE.heavy>
31

>  <SCORE.norm>
-0.374262

>  <RMSD>
4.955

$$$$
2fcz_lig
 OpenBabel11021811433D
libRbt.so/2013.1/901 2013/11/27
 31 33  0  0  0  0  0  0  0  0999 V2000
   12.3957   12.4230   37.6895 C   0  0  0  0  0  0  0  0  0  0  0  0
   14.1359   17.9533   38.2581 N   0  0  0  0  0  0  0  0  0  0  0  0
   12.9384   12.6009   36.3782 O   0  0  0  0  0  0  0  0  0  0  0  0
   11.0921   13.2181   37.8193 C   0  0  1  0  0  0  0  0  0  0  0  0
    9.5590   19.3997   37.3055 N   0  0  0  0  0  0  0  0  0  0  0  0
   11.2476   14.5759   37.3592 O   0  0  0  0  0  0  0  0  0  0  0  0
   10.5498   14.7452   36.1093 C   0  0  1  0  0  0  0  0  0  0  0  0
   12.3735   15.2659   32.5823 N   0  0  0  0  0  0  0  0  0  0  0  0
   11.3280   15.4583   35.1331 O   0  0  0  0  0  0  0  0  0  0  0  0
   11.7153   16.7822   35.5386 C   0  0  2  0  0  0  0  0  0  0  0  0
    8.1905   20.0087   33.8414 N   0  0  0  0  0  0  0  0  0  0  0  0
   13.9547   16.0877   36.1355 O   0  0  0  0  0  0  0  0  0  0  0  0
   12.7620   16.6808   36.6549 C   0  0  1  0  0  0  0  0  0  0  0  0
    9.5968   17.8808   34.9310 O   0  0  0  0  0  0  0  0  0  0  0  0
   13.1015   18.0620   37.2202 C   0  0  1  0  0  0  0  0  0  0  0  0
   11.0688   17.7653   33.0891 O   0  0  0  0  0  0  0  0  0  0  0  0
   11.8482   18.7103   37.8123 C   0  0  0  0  0  0  0  0  0  0  0  0
    8.6105   16.2258   30.8188 O   0  0  0  0  0  0  0  0  0  0  0  0
   10.7967   18.8691   36.7122 C   0  0  1  0  0  0  0  0  0  0  0  0
    7.4061   18.7726   31.3814 O   0  0  0  0  0  0  0  0  0  0  0  0
   10.4787   17.5429   36.0131 C   0  0  2  0  0  0  0  0  0  0  0  0
    9.2013   13.2235   34.7019 O   0  0  0  0  0  0  0  0  0  0  0  0
   10.2264   18.6257   33.8783 C   0  0  1  0  0  0  0  0  0  0  0  0
    8.6939   12.9514   37.4255 O   0  0  0  0  0  0  0  0  0  0  0  0
   10.3734   16.6958   32.4253 C   0  0  2  0  0  0  0  0  0  0  0  0
   11.3919   15.8500   31.6569 C   0  0  0  0  0  0  0  0  0  0  0  0
    9.3328   17.2796   31.4632 C   0  0  2  0  0  0  0  0  0  0  0  0
    8.3581   18.1551   32.2537 C   0  0  1  0  0  0  0  0  0  0  0  0
    9.1271   19.2424   33.0076 C   0  0  1  0  0  0  0  0  0  0  0  0
   10.2918   13.3180   35.6235 C   0  0  2  0  0  0  0  0  0  0  0  0
    9.9964   12.6096   36.9442 C   0  0  1  0  0  0  0  0  0  0  0  0
  3  1  1  0  0  0  0
  4  1  1  6  0  0  0
  4  6  1  0  0  0  0
  4 31  1  0  0  0  0
  6  7  1  0  0  0  0
  7  9  1  6  0  0  0
  7 30  1  0  0  0  0
 10  9  1  1  0  0  0
 10 13  1  0  0  0  0
 10 21  1  0  0  0  0
 13 12  1  6  0  0  0
 13 15  1  0  0  0  0
 15  2  1  1  0  0  0
 15 17  1  0  0  0  0
 16 25  1  0  0  0  0
 17 19  1  0  0  0  0
 19  5  1  1  0  0  0
 19 21  1  0  0  0  0
 21 14  1  6  0  0  0
 23 14  1  1  0  0  0
 23 16  1  0  0  0  0
 23 29  1  0  0  0  0
 25 26  1  6  0  0  0
 25 27  1  0  0  0  0
 26  8  1  0  0  0  0
 27 18  1  1  0  0  0
 27 28  1  0  0  0  0
 28 20  1  6  0  0  0
 28 29  1  0  0  0  0
 29 11  1  1  0  0  0
 30 22  1  6  0  0  0
 30 31  1  0  0  0  0
 31 24  1  1  0  0  0
M  END
>  <CHROM.1>
-48.94931204,-59.65373827,70.13898951,-55.51980608,74.55393996,61.06695037
10.70446433,16.31145497,35.08499771,0.70598146,1.01246361,3.06963370

>  <Name>
2fcz_lig

>  <RI>
0

>  <Rbt.Current_Directory>
/home/itssahil/PROJECTS/Mol_Feturizer/New_Systems/rnas/2fcz

>  <Rbt.Executable>
rbdock ($Id: //depot/dev/client3/rdock/2013.1/src/exe/rbdock.cxx#4 $)

>  <Rbt.Library>
libRbt.so (2013.1, Build901 2013/11/27)

>  <Rbt.Parameter_File>
/export/apps/rDock/src/rDock_2013.1_src/data/scripts/dock_solv.prm

>  <Rbt.Receptor>
prm/pocket_docking_5.prm

>  <SCORE>
-12.4775

>  <SCORE.INTER>
-12.0737

>  <SCORE.INTER.CONST>
1

>  <SCORE.INTER.POLAR>
-2.35759

>  <SCORE.INTER.ROT>
6

>  <SCORE.INTER.SOLV>
16.6948

>  <SCORE.INTER.VDW>
-13.3554

>  <SCORE.INTER.norm>
-0.389473

>  <SCORE.INTRA>
-0.403879

>  <SCORE.INTRA.DIHEDRAL>
-8.65955

>  <SCORE.INTRA.DIHEDRAL.0>
10.8409

>  <SCORE.INTRA.POLAR>
0

>  <SCORE.INTRA.POLAR.0>
0

>  <SCORE.INTRA.REPUL>
0

>  <SCORE.INTRA.REPUL.0>
0

>  <SCORE.INTRA.SOLV>
1.32599

>  <SCORE.INTRA.SOLV.lig_0>
-80.8302

>  <SCORE.INTRA.VDW>
3.2629

>  <SCORE.INTRA.VDW.0>
-4.23953

>  <SCORE.INTRA.norm>
-0.0130284

>  <SCORE.RESTR>
0

>  <SCORE.RESTR.CAVITY>
0

>  <SCORE.RESTR.norm>
0

>  <SCORE.SYSTEM>
0

>  <SCORE.SYSTEM.CONST>
0

>  <SCORE.SYSTEM.DIHEDRAL>
0

>  <SCORE.SYSTEM.SOLV>
0

>  <SCORE.SYSTEM.norm>
0

>  <SCORE.heavy>
31

>  <SCORE.norm>
-0.402502

>  <RMSD>
4.959

$$$$
2fcz_lig
 OpenBabel11021811433D
libRbt.so/2013.1/901 2013/11/27
 31 33  0  0  0  0  0  0  0  0999 V2000
   12.7069   22.9730   34.6222 C   0  0  0  0  0  0  0  0  0  0  0  0
    9.3885   16.0535   37.5685 N   0  0  0  0  0  0  0  0  0  0  0  0
   12.5383   24.2285   35.2860 O   0  0  0  0  0  0  0  0  0  0  0  0
   12.9207   21.8663   35.6605 C   0  0  1  0  0  0  0  0  0  0  0  0
    8.5362   17.3737   32.9341 N   0  0  0  0  0  0  0  0  0  0  0  0
   11.7955   21.7498   36.5549 O   0  0  0  0  0  0  0  0  0  0  0  0
   11.0699   20.5390   36.2631 C   0  0  1  0  0  0  0  0  0  0  0  0
    7.1037   20.6832   28.8553 N   0  0  0  0  0  0  0  0  0  0  0  0
    9.6473   20.7428   36.2202 O   0  0  0  0  0  0  0  0  0  0  0  0
    8.8817   19.5353   36.0696 C   0  0  2  0  0  0  0  0  0  0  0  0
    9.2496   22.4907   34.2013 N   0  0  0  0  0  0  0  0  0  0  0  0
    9.3755   18.7847   38.3161 O   0  0  0  0  0  0  0  0  0  0  0  0
    9.5038   18.4333   36.9361 C   0  0  1  0  0  0  0  0  0  0  0  0
    8.0647   20.0157   33.7968 O   0  0  0  0  0  0  0  0  0  0  0  0
    8.8107   17.0892   36.7010 C   0  0  1  0  0  0  0  0  0  0  0  0
    8.1542   20.2320   31.4478 O   0  0  0  0  0  0  0  0  0  0  0  0
    8.9578   16.6709   35.2364 C   0  0  0  0  0  0  0  0  0  0  0  0
    5.3912   22.6598   31.2506 O   0  0  0  0  0  0  0  0  0  0  0  0
    8.3055   17.7283   34.3435 C   0  0  1  0  0  0  0  0  0  0  0  0
    7.3543   24.0966   32.7788 O   0  0  0  0  0  0  0  0  0  0  0  0
    8.8662   19.1320   34.5965 C   0  0  2  0  0  0  0  0  0  0  0  0
   11.3943   18.7247   34.6144 O   0  0  0  0  0  0  0  0  0  0  0  0
    8.7705   20.6041   32.6946 C   0  0  1  0  0  0  0  0  0  0  0  0
   13.7634   19.5756   35.8030 O   0  0  0  0  0  0  0  0  0  0  0  0
    6.7942   20.6752   31.2995 C   0  0  2  0  0  0  0  0  0  0  0  0
    6.2614   20.1830   29.9515 C   0  0  0  0  0  0  0  0  0  0  0  0
    6.7433   22.2058   31.3648 C   0  0  2  0  0  0  0  0  0  0  0  0
    7.3238   22.6676   32.7032 C   0  0  1  0  0  0  0  0  0  0  0  0
    8.7452   22.1258   32.8701 C   0  0  1  0  0  0  0  0  0  0  0  0
   11.5746   20.1188   34.8817 C   0  0  2  0  0  0  0  0  0  0  0  0
   13.0497   20.5030   34.9811 C   0  0  1  0  0  0  0  0  0  0  0  0
  3  1  1  0  0  0  0
  4  1  1  6  0  0  0
  4  6  1  0  0  0  0
  4 31  1  0  0  0  0
  6  7  1  0  0  0  0
  7  9  1  6  0  0  0
  7 30  1  0  0  0  0
 10  9  1  6  0  0  0
 10 13  1  0  0  0  0
 10 21  1  0  0  0  0
 13 12  1  1  0  0  0
 13 15  1  0  0  0  0
 15  2  1  1  0  0  0
 15 17  1  0  0  0  0
 16 25  1  0  0  0  0
 17 19  1  0  0  0  0
 19  5  1  6  0  0  0
 19 21  1  0  0  0  0
 21 14  1  6  0  0  0
 23 14  1  1  0  0  0
 23 16  1  0  0  0  0
 23 29  1  0  0  0  0
 25 26  1  6  0  0  0
 25 27  1  0  0  0  0
 26  8  1  0  0  0  0
 27 18  1  1  0  0  0
 27 28  1  0  0  0  0
 28 20  1  6  0  0  0
 28 29  1  0  0  0  0
 29 11  1  1  0  0  0
 30 22  1  1  0  0  0
 30 31  1  0  0  0  0
 31 24  1  1  0  0  0
M  END
>  <CHROM.1>
60.33181032,-173.87581873,40.47859823,124.04948833,119.40444780,-57.91673579
9.40489323,20.37444866,34.23171235,-0.66089478,-0.67360549,-0.52643818

>  <Name>
2fcz_lig

>  <RI>
3.41297e+07

>  <Rbt.Current_Directory>
/home/itssahil/PROJECTS/Mol_Feturizer/New_Systems/rnas/2fcz

>  <Rbt.Executable>
rbdock ($Id: //depot/dev/client3/rdock/2013.1/src/exe/rbdock.cxx#4 $)

>  <Rbt.Library>
libRbt.so (2013.1, Build901 2013/11/27)

>  <Rbt.Parameter_File>
/export/apps/rDock/src/rDock_2013.1_src/data/scripts/dock_solv.prm

>  <Rbt.Receptor>
prm/pocket_docking_2.prm

>  <SCORE>
-6.33784

>  <SCORE.INTER>
-15.9615

>  <SCORE.INTER.CONST>
1

>  <SCORE.INTER.POLAR>
-1.78434

>  <SCORE.INTER.ROT>
6

>  <SCORE.INTER.SOLV>
16.4984

>  <SCORE.INTER.VDW>
-17.7926

>  <SCORE.INTER.norm>
-0.514886

>  <SCORE.INTRA>
8.64827

>  <SCORE.INTRA.DIHEDRAL>
5.403

>  <SCORE.INTRA.DIHEDRAL.0>
10.8409

>  <SCORE.INTRA.POLAR>
0

>  <SCORE.INTRA.POLAR.0>
0

>  <SCORE.INTRA.REPUL>
0.0332977

>  <SCORE.INTRA.REPUL.0>
0

>  <SCORE.INTRA.SOLV>
4.56408

>  <SCORE.INTRA.SOLV.lig_0>
-80.8302

>  <SCORE.INTRA.VDW>
3.49825

>  <SCORE.INTRA.VDW.0>
-4.23953

>  <SCORE.INTRA.norm>
0.278977

>  <SCORE.RESTR>
0.975351

>  <SCORE.RESTR.CAVITY>
0.975351

>  <SCORE.RESTR.norm>
0.0314629

>  <SCORE.SYSTEM>
0

>  <SCORE.SYSTEM.CONST>
0

>  <SCORE.SYSTEM.DIHEDRAL>
0

>  <SCORE.SYSTEM.SOLV>
0

>  <SCORE.SYSTEM.norm>
0

>  <SCORE.heavy>
31

>  <SCORE.norm>
-0.204447

>  <RMSD>
4.961

$$$$
2fcz_lig
 OpenBabel11021811433D
libRbt.so/2013.1/901 2013/11/27
 31 33  0  0  0  0  0  0  0  0999 V2000
   16.1469   19.3354   34.1039 C   0  0  0  0  0  0  0  0  0  0  0  0
   16.9884   23.4347   30.8252 N   0  0  0  0  0  0  0  0  0  0  0  0
   17.3989   19.9203   33.7356 O   0  0  0  0  0  0  0  0  0  0  0  0
   15.6433   19.9727   35.4034 C   0  0  1  0  0  0  0  0  0  0  0  0
   12.2981   22.8526   29.5564 N   0  0  0  0  0  0  0  0  0  0  0  0
   15.4032   21.3859   35.2462 O   0  0  0  0  0  0  0  0  0  0  0  0
   13.9840   21.6381   35.2512 C   0  0  1  0  0  0  0  0  0  0  0  0
    7.8244   19.9261   29.2943 N   0  0  0  0  0  0  0  0  0  0  0  0
   13.5786   22.5419   34.2091 O   0  0  0  0  0  0  0  0  0  0  0  0
   14.0318   22.1711   32.8961 C   0  0  2  0  0  0  0  0  0  0  0  0
   10.3193   22.8136   33.9753 N   0  0  0  0  0  0  0  0  0  0  0  0
   16.3560   22.5610   33.4435 O   0  0  0  0  0  0  0  0  0  0  0  0
   15.3039   22.9596   32.5612 C   0  0  1  0  0  0  0  0  0  0  0  0
   11.8184   21.5528   32.0115 O   0  0  0  0  0  0  0  0  0  0  0  0
   15.7458   22.7070   31.1178 C   0  0  1  0  0  0  0  0  0  0  0  0
    9.9593   21.3387   30.5725 O   0  0  0  0  0  0  0  0  0  0  0  0
   14.6504   23.1532   30.1469 C   0  0  0  0  0  0  0  0  0  0  0  0
    8.3953   18.6066   32.4849 O   0  0  0  0  0  0  0  0  0  0  0  0
   13.3767   22.3519   30.4233 C   0  0  1  0  0  0  0  0  0  0  0  0
    8.3535   20.7711   34.3733 O   0  0  0  0  0  0  0  0  0  0  0  0
   12.9249   22.4595   31.8838 C   0  0  2  0  0  0  0  0  0  0  0  0
   12.0038   20.1751   35.4825 O   0  0  0  0  0  0  0  0  0  0  0  0
   10.5564   22.1171   31.6264 C   0  0  1  0  0  0  0  0  0  0  0  0
   14.0747   19.5166   37.2224 O   0  0  0  0  0  0  0  0  0  0  0  0
    9.6658   19.9771   30.9302 C   0  0  2  0  0  0  0  0  0  0  0  0
    9.0702   19.2668   29.7121 C   0  0  0  0  0  0  0  0  0  0  0  0
    8.6721   19.9558   32.0970 C   0  0  2  0  0  0  0  0  0  0  0  0
    9.2774   20.7117   33.2818 C   0  0  1  0  0  0  0  0  0  0  0  0
    9.6465   22.1354   32.8587 C   0  0  1  0  0  0  0  0  0  0  0  0
   13.3544   20.2637   35.0184 C   0  0  2  0  0  0  0  0  0  0  0  0
   14.3009   19.3704   35.8180 C   0  0  1  0  0  0  0  0  0  0  0  0
  3  1  1  0  0  0  0
  4  1  1  6  0  0  0
  4  6  1  0  0  0  0
  4 31  1  0  0  0  0
  6  7  1  0  0  0  0
  7  9  1  6  0  0  0
  7 30  1  0  0  0  0
 10  9  1  1  0  0  0
 10 13  1  0  0  0  0
 10 21  1  0  0  0  0
 13 12  1  1  0  0  0
 13 15  1  0  0  0  0
 15  2  1  6  0  0  0
 15 17  1  0  0  0  0
 16 25  1  0  0  0  0
 17 19  1  0  0  0  0
 19  5  1  6  0  0  0
 19 21  1  0  0  0  0
 21 14  1  6  0  0  0
 23 14  1  1  0  0  0
 23 16  1  0  0  0  0
 23 29  1  0  0  0  0
 25 26  1  6  0  0  0
 25 27  1  0  0  0  0
 26  8  1  0  0  0  0
 27 18  1  1  0  0  0
 27 28  1  0  0  0  0
 28 20  1  1  0  0  0
 28 29  1  0  0  0  0
 29 11  1  1  0  0  0
 30 22  1  1  0  0  0
 30 31  1  0  0  0  0
 31 24  1  1  0  0  0
M  END
>  <CHROM.1>
62.26364958,52.08912901,-97.51476930,150.41313684,122.02774114,-60.74274009
12.62261597,21.20267475,32.86844384,0.26657191,0.26061347,1.99996361

>  <Name>
2fcz_lig

>  <RI>
0

>  <Rbt.Current_Directory>
/home/itssahil/PROJECTS/Mol_Feturizer/New_Systems/rnas/2fcz

>  <Rbt.Executable>
rbdock ($Id: //depot/dev/client3/rdock/2013.1/src/exe/rbdock.cxx#4 $)

>  <Rbt.Library>
libRbt.so (2013.1, Build901 2013/11/27)

>  <Rbt.Parameter_File>
/export/apps/rDock/src/rDock_2013.1_src/data/scripts/dock_solv.prm

>  <Rbt.Receptor>
prm/blind_docking_80.prm

>  <SCORE>
-8.30319

>  <SCORE.INTER>
-14.0469

>  <SCORE.INTER.CONST>
1

>  <SCORE.INTER.POLAR>
-1.59635

>  <SCORE.INTER.ROT>
6

>  <SCORE.INTER.SOLV>
15.8582

>  <SCORE.INTER.VDW>
-16.9295

>  <SCORE.INTER.norm>
-0.453127

>  <SCORE.INTRA>
5.74374

>  <SCORE.INTRA.DIHEDRAL>
5.23292

>  <SCORE.INTRA.DIHEDRAL.0>
10.8409

>  <SCORE.INTRA.POLAR>
0

>  <SCORE.INTRA.POLAR.0>
0

>  <SCORE.INTRA.REPUL>
0

>  <SCORE.INTRA.REPUL.0>
0

>  <SCORE.INTRA.SOLV>
2.83644

>  <SCORE.INTRA.SOLV.lig_0>
-80.8302

>  <SCORE.INTRA.VDW>
1.70906

>  <SCORE.INTRA.VDW.0>
-4.23953

>  <SCORE.INTRA.norm>
0.185282

>  <SCORE.RESTR>
0

>  <SCORE.RESTR.CAVITY>
0

>  <SCORE.RESTR.norm>
0

>  <SCORE.SYSTEM>
0

>  <SCORE.SYSTEM.CONST>
0

>  <SCORE.SYSTEM.DIHEDRAL>
0

>  <SCORE.SYSTEM.SOLV>
0

>  <SCORE.SYSTEM.norm>
0

>  <SCORE.heavy>
31

>  <SCORE.norm>
-0.267845

>  <RMSD>
4.981

$$$$
2fcz_lig
 OpenBabel11021811433D
libRbt.so/2013.1/901 2013/11/27
 31 33  0  0  0  0  0  0  0  0999 V2000
    9.1019   19.5994   30.2881 C   0  0  0  0  0  0  0  0  0  0  0  0
   15.0944   23.6846   34.8914 N   0  0  0  0  0  0  0  0  0  0  0  0
    7.8419   19.7156   29.6215 O   0  0  0  0  0  0  0  0  0  0  0  0
    8.8759   19.2024   31.7509 C   0  0  1  0  0  0  0  0  0  0  0  0
   13.3178   20.2351   37.8733 N   0  0  0  0  0  0  0  0  0  0  0  0
   10.1217   18.9670   32.4381 O   0  0  0  0  0  0  0  0  0  0  0  0
   10.3691   20.0385   33.3700 C   0  0  1  0  0  0  0  0  0  0  0  0
    7.2425   19.5006   38.4802 N   0  0  0  0  0  0  0  0  0  0  0  0
   11.7239   20.5168   33.3166 O   0  0  0  0  0  0  0  0  0  0  0  0
   12.0997   21.3520   34.4249 C   0  0  2  0  0  0  0  0  0  0  0  0
   12.7664   17.8569   35.4755 N   0  0  0  0  0  0  0  0  0  0  0  0
   13.0969   23.0291   32.9942 O   0  0  0  0  0  0  0  0  0  0  0  0
   13.3757   22.1229   34.0644 C   0  0  1  0  0  0  0  0  0  0  0  0
   11.0853   19.9490   36.1760 O   0  0  0  0  0  0  0  0  0  0  0  0
   13.8972   22.9182   35.2635 C   0  0  1  0  0  0  0  0  0  0  0  0
   10.0580   18.6962   37.8929 O   0  0  0  0  0  0  0  0  0  0  0  0
   14.2340   21.9704   36.4167 C   0  0  0  0  0  0  0  0  0  0  0  0
    8.0737   16.5982   35.6062 O   0  0  0  0  0  0  0  0  0  0  0  0
   12.9696   21.2164   36.8335 C   0  0  1  0  0  0  0  0  0  0  0  0
   10.7663   15.8928   34.8952 O   0  0  0  0  0  0  0  0  0  0  0  0
   12.3162   20.4792   35.6595 C   0  0  2  0  0  0  0  0  0  0  0  0
    9.1114   22.0786   33.9792 O   0  0  0  0  0  0  0  0  0  0  0  0
   11.2621   18.8896   37.1277 C   0  0  1  0  0  0  0  0  0  0  0  0
    7.4941   19.8345   33.6663 O   0  0  0  0  0  0  0  0  0  0  0  0
    8.9122   18.3109   37.1140 C   0  0  2  0  0  0  0  0  0  0  0  0
    7.7069   18.1745   38.0476 C   0  0  0  0  0  0  0  0  0  0  0  0
    9.1941   16.9783   36.4110 C   0  0  2  0  0  0  0  0  0  0  0  0
   10.4295   17.1348   35.5218 C   0  0  1  0  0  0  0  0  0  0  0  0
   11.6179   17.6129   36.3592 C   0  0  1  0  0  0  0  0  0  0  0  0
    9.4108   21.1481   32.9342 C   0  0  2  0  0  0  0  0  0  0  0  0
    8.1886   20.3312   32.5191 C   0  0  1  0  0  0  0  0  0  0  0  0
  3  1  1  0  0  0  0
  4  1  1  6  0  0  0
  4  6  1  0  0  0  0
  4 31  1  0  0  0  0
  6  7  1  0  0  0  0
  7  9  1  6  0  0  0
  7 30  1  0  0  0  0
 10  9  1  6  0  0  0
 10 13  1  0  0  0  0
 10 21  1  0  0  0  0
 13 12  1  6  0  0  0
 13 15  1  0  0  0  0
 15  2  1  6  0  0  0
 15 17  1  0  0  0  0
 16 25  1  0  0  0  0
 17 19  1  0  0  0  0
 19  5  1  1  0  0  0
 19 21  1  0  0  0  0
 21 14  1  1  0  0  0
 23 14  1  6  0  0  0
 23 16  1  0  0  0  0
 23 29  1  0  0  0  0
 25 26  1  1  0  0  0
 25 27  1  0  0  0  0
 26  8  1  0  0  0  0
 27 18  1  6  0  0  0
 27 28  1  0  0  0  0
 28 20  1  1  0  0  0
 28 29  1  0  0  0  0
 29 11  1  6  0  0  0
 30 22  1  1  0  0  0
 30 31  1  0  0  0  0
 31 24  1  1  0  0  0
M  END
>  <CHROM.1>
175.32764735,-166.12667517,-163.33928849,166.24898314,162.27294181,72.90973486
10.66021296,19.79397264,34.84473569,2.94600893,0.63107861,2.02655877

>  <Name>
2fcz_lig

>  <RI>
2.29611e+07

>  <Rbt.Current_Directory>
/home/itssahil/PROJECTS/Mol_Feturizer/New_Systems/rnas/2fcz

>  <Rbt.Executable>
rbdock ($Id: //depot/dev/client3/rdock/2013.1/src/exe/rbdock.cxx#4 $)

>  <Rbt.Library>
libRbt.so (2013.1, Build901 2013/11/27)

>  <Rbt.Parameter_File>
/export/apps/rDock/src/rDock_2013.1_src/data/scripts/dock_solv.prm

>  <Rbt.Receptor>
prm/pocket_docking_3.prm

>  <SCORE>
-17.9629

>  <SCORE.INTER>
-19.0605

>  <SCORE.INTER.CONST>
1

>  <SCORE.INTER.POLAR>
-3.35294

>  <SCORE.INTER.ROT>
6

>  <SCORE.INTER.SOLV>
17.0252

>  <SCORE.INTER.VDW>
-14.8056

>  <SCORE.INTER.norm>
-0.614854

>  <SCORE.INTRA>
0.931047

>  <SCORE.INTRA.DIHEDRAL>
-5.53793

>  <SCORE.INTRA.DIHEDRAL.0>
10.8409

>  <SCORE.INTRA.POLAR>
0

>  <SCORE.INTRA.POLAR.0>
0

>  <SCORE.INTRA.REPUL>
0

>  <SCORE.INTRA.REPUL.0>
0

>  <SCORE.INTRA.SOLV>
1.55003

>  <SCORE.INTRA.SOLV.lig_0>
-80.8302

>  <SCORE.INTRA.VDW>
2.925

>  <SCORE.INTRA.VDW.0>
-4.23953

>  <SCORE.INTRA.norm>
0.0300338

>  <SCORE.RESTR>
0.16655

>  <SCORE.RESTR.CAVITY>
0.16655

>  <SCORE.RESTR.norm>
0.00537259

>  <SCORE.SYSTEM>
0

>  <SCORE.SYSTEM.CONST>
0

>  <SCORE.SYSTEM.DIHEDRAL>
0

>  <SCORE.SYSTEM.SOLV>
0

>  <SCORE.SYSTEM.norm>
0

>  <SCORE.heavy>
31

>  <SCORE.norm>
-0.579448

>  <RMSD>
5.069

$$$$
2fcz_lig
 OpenBabel11021811433D
libRbt.so/2013.1/901 2013/11/27
 31 33  0  0  0  0  0  0  0  0999 V2000
   13.7443   17.4635   38.3052 C   0  0  0  0  0  0  0  0  0  0  0  0
   12.6168   22.1378   35.2021 N   0  0  0  0  0  0  0  0  0  0  0  0
   14.6241   18.5457   37.9886 O   0  0  0  0  0  0  0  0  0  0  0  0
   12.8711   17.8442   39.5056 C   0  0  1  0  0  0  0  0  0  0  0  0
    9.6701   18.8252   33.1306 N   0  0  0  0  0  0  0  0  0  0  0  0
   12.0166   18.9673   39.2086 O   0  0  0  0  0  0  0  0  0  0  0  0
   10.6518   18.5184   39.0929 C   0  0  1  0  0  0  0  0  0  0  0  0
   11.8868   14.0405   32.3543 N   0  0  0  0  0  0  0  0  0  0  0  0
    9.9809   19.0755   37.9498 O   0  0  0  0  0  0  0  0  0  0  0  0
   10.7970   19.1613   36.7694 C   0  0  2  0  0  0  0  0  0  0  0  0
    7.2884   16.2830   36.4596 N   0  0  0  0  0  0  0  0  0  0  0  0
   12.2084   20.8869   37.7096 O   0  0  0  0  0  0  0  0  0  0  0  0
   11.3243   20.5943   36.6248 C   0  0  1  0  0  0  0  0  0  0  0  0
    9.6748   17.3511   35.5335 O   0  0  0  0  0  0  0  0  0  0  0  0
   12.0815   20.7734   35.3069 C   0  0  1  0  0  0  0  0  0  0  0  0
    9.3304   16.5179   33.3517 O   0  0  0  0  0  0  0  0  0  0  0  0
   11.1509   20.4963   34.1240 C   0  0  0  0  0  0  0  0  0  0  0  0
   10.1179   13.0263   34.2212 O   0  0  0  0  0  0  0  0  0  0  0  0
   10.6413   19.0564   34.2117 C   0  0  1  0  0  0  0  0  0  0  0  0
    7.7842   13.5379   35.8166 O   0  0  0  0  0  0  0  0  0  0  0  0
    9.9646   18.7576   35.5540 C   0  0  2  0  0  0  0  0  0  0  0  0
    9.5715   16.3049   39.3133 O   0  0  0  0  0  0  0  0  0  0  0  0
    8.6915   16.9738   34.5588 C   0  0  1  0  0  0  0  0  0  0  0  0
   11.5192   16.7822   41.2441 O   0  0  0  0  0  0  0  0  0  0  0  0
   10.1571   15.3531   33.5182 C   0  0  2  0  0  0  0  0  0  0  0  0
   10.7930   15.0053   32.1700 C   0  0  0  0  0  0  0  0  0  0  0  0
    9.3018   14.1843   34.0203 C   0  0  2  0  0  0  0  0  0  0  0  0
    8.6447   14.5797   35.3445 C   0  0  1  0  0  0  0  0  0  0  0  0
    7.8276   15.8603   35.1596 C   0  0  1  0  0  0  0  0  0  0  0  0
   10.7642   17.0008   38.9383 C   0  0  2  0  0  0  0  0  0  0  0  0
   11.9304   16.6979   39.8771 C   0  0  1  0  0  0  0  0  0  0  0  0
  3  1  1  0  0  0  0
  4  1  1  6  0  0  0
  4  6  1  0  0  0  0
  4 31  1  0  0  0  0
  6  7  1  0  0  0  0
  7  9  1  6  0  0  0
  7 30  1  0  0  0  0
 10  9  1  1  0  0  0
 10 13  1  0  0  0  0
 10 21  1  0  0  0  0
 13 12  1  1  0  0  0
 13 15  1  0  0  0  0
 15  2  1  6  0  0  0
 15 17  1  0  0  0  0
 16 25  1  0  0  0  0
 17 19  1  0  0  0  0
 19  5  1  6  0  0  0
 19 21  1  0  0  0  0
 21 14  1  1  0  0  0
 23 14  1  1  0  0  0
 23 16  1  0  0  0  0
 23 29  1  0  0  0  0
 25 26  1  6  0  0  0
 25 27  1  0  0  0  0
 26  8  1  0  0  0  0
 27 18  1  1  0  0  0
 27 28  1  0  0  0  0
 28 20  1  6  0  0  0
 28 29  1  0  0  0  0
 29 11  1  1  0  0  0
 30 22  1  1  0  0  0
 30 31  1  0  0  0  0
 31 24  1  1  0  0  0
M  END
>  <CHROM.1>
63.19576859,39.58512395,-99.46799201,168.75154216,96.10557785,166.16450957
10.64277220,17.42075859,36.25443749,0.35291575,1.10995137,1.98992724

>  <Name>
2fcz_lig

>  <RI>
0

>  <Rbt.Current_Directory>
/home/itssahil/PROJECTS/Mol_Feturizer/New_Systems/rnas/2fcz

>  <Rbt.Executable>
rbdock ($Id: //depot/dev/client3/rdock/2013.1/src/exe/rbdock.cxx#4 $)

>  <Rbt.Library>
libRbt.so (2013.1, Build901 2013/11/27)

>  <Rbt.Parameter_File>
/export/apps/rDock/src/rDock_2013.1_src/data/scripts/dock_solv.prm

>  <Rbt.Receptor>
prm/pocket_docking_6.prm

>  <SCORE>
-10.2374

>  <SCORE.INTER>
-17.394

>  <SCORE.INTER.CONST>
1

>  <SCORE.INTER.POLAR>
-2.76068

>  <SCORE.INTER.ROT>
6

>  <SCORE.INTER.SOLV>
10.4186

>  <SCORE.INTER.VDW>
-13.4666

>  <SCORE.INTER.norm>
-0.561097

>  <SCORE.INTRA>
7.15661

>  <SCORE.INTRA.DIHEDRAL>
2.47807

>  <SCORE.INTRA.DIHEDRAL.0>
10.8409

>  <SCORE.INTRA.POLAR>
0

>  <SCORE.INTRA.POLAR.0>
0

>  <SCORE.INTRA.REPUL>
0

>  <SCORE.INTRA.REPUL.0>
0

>  <SCORE.INTRA.SOLV>
1.41449

>  <SCORE.INTRA.SOLV.lig_0>
-80.8302

>  <SCORE.INTRA.VDW>
5.21033

>  <SCORE.INTRA.VDW.0>
-4.23953

>  <SCORE.INTRA.norm>
0.230859

>  <SCORE.RESTR>
0

>  <SCORE.RESTR.CAVITY>
0

>  <SCORE.RESTR.norm>
0

>  <SCORE.SYSTEM>
0

>  <SCORE.SYSTEM.CONST>
0

>  <SCORE.SYSTEM.DIHEDRAL>
0

>  <SCORE.SYSTEM.SOLV>
0

>  <SCORE.SYSTEM.norm>
0

>  <SCORE.heavy>
31

>  <SCORE.norm>
-0.330238

>  <RMSD>
5.083

$$$$
2fcz_lig
 OpenBabel11021811433D
libRbt.so/2013.1/901 2013/11/27
 31 33  0  0  0  0  0  0  0  0999 V2000
   11.9689   23.6881   33.8127 C   0  0  0  0  0  0  0  0  0  0  0  0
   10.4971   17.3338   39.4325 N   0  0  0  0  0  0  0  0  0  0  0  0
   12.0682   22.5130   33.0035 O   0  0  0  0  0  0  0  0  0  0  0  0
   12.3277   23.3465   35.2629 C   0  0  1  0  0  0  0  0  0  0  0  0
    7.7135   16.9780   35.4236 N   0  0  0  0  0  0  0  0  0  0  0  0
   11.4834   22.3026   35.7893 O   0  0  0  0  0  0  0  0  0  0  0  0
   12.2454   21.0863   35.9224 C   0  0  1  0  0  0  0  0  0  0  0  0
    8.9989   18.7553   29.4574 N   0  0  0  0  0  0  0  0  0  0  0  0
   11.5401   19.9344   35.4295 O   0  0  0  0  0  0  0  0  0  0  0  0
   10.4651   19.4930   36.2760 C   0  0  2  0  0  0  0  0  0  0  0  0
    8.9918   22.2024   34.4192 N   0  0  0  0  0  0  0  0  0  0  0  0
   11.8377   19.5396   38.2679 O   0  0  0  0  0  0  0  0  0  0  0  0
   11.0433   18.6834   37.4432 C   0  0  1  0  0  0  0  0  0  0  0  0
    8.7414   19.4418   34.5181 O   0  0  0  0  0  0  0  0  0  0  0  0
    9.9292   18.0701   38.2947 C   0  0  1  0  0  0  0  0  0  0  0  0
    9.4384   19.1864   32.2772 O   0  0  0  0  0  0  0  0  0  0  0  0
    9.0789   17.1230   37.4451 C   0  0  0  0  0  0  0  0  0  0  0  0
    6.2720   20.3834   30.8252 O   0  0  0  0  0  0  0  0  0  0  0  0
    8.4480   17.9094   36.2944 C   0  0  1  0  0  0  0  0  0  0  0  0
    7.2083   22.7037   32.2369 O   0  0  0  0  0  0  0  0  0  0  0  0
    9.4923   18.6509   35.4528 C   0  0  2  0  0  0  0  0  0  0  0  0
   14.6025   20.5036   35.4540 O   0  0  0  0  0  0  0  0  0  0  0  0
    9.5339   20.0010   33.4605 C   0  0  1  0  0  0  0  0  0  0  0  0
   14.2980   22.9911   36.6661 O   0  0  0  0  0  0  0  0  0  0  0  0
    8.1117   19.0791   31.7328 C   0  0  2  0  0  0  0  0  0  0  0  0
    8.1564   18.1637   30.5069 C   0  0  0  0  0  0  0  0  0  0  0  0
    7.6044   20.4710   31.3393 C   0  0  2  0  0  0  0  0  0  0  0  0
    7.6149   21.3736   32.5748 C   0  0  1  0  0  0  0  0  0  0  0  0
    9.0208   21.4166   33.1778 C   0  0  1  0  0  0  0  0  0  0  0  0
   13.4962   21.3287   35.0761 C   0  0  2  0  0  0  0  0  0  0  0  0
   13.7552   22.8078   35.3558 C   0  0  1  0  0  0  0  0  0  0  0  0
  3  1  1  0  0  0  0
  4  1  1  6  0  0  0
  4  6  1  0  0  0  0
  4 31  1  0  0  0  0
  6  7  1  0  0  0  0
  7  9  1  6  0  0  0
  7 30  1  0  0  0  0
 10  9  1  6  0  0  0
 10 13  1  0  0  0  0
 10 21  1  0  0  0  0
 13 12  1  1  0  0  0
 13 15  1  0  0  0  0
 15  2  1  1  0  0  0
 15 17  1  0  0  0  0
 16 25  1  0  0  0  0
 17 19  1  0  0  0  0
 19  5  1  6  0  0  0
 19 21  1  0  0  0  0
 21 14  1  6  0  0  0
 23 14  1  1  0  0  0
 23 16  1  0  0  0  0
 23 29  1  0  0  0  0
 25 26  1  6  0  0  0
 25 27  1  0  0  0  0
 26  8  1  0  0  0  0
 27 18  1  1  0  0  0
 27 28  1  0  0  0  0
 28 20  1  6  0  0  0
 28 29  1  0  0  0  0
 29 11  1  1  0  0  0
 30 22  1  1  0  0  0
 30 31  1  0  0  0  0
 31 24  1  1  0  0  0
M  END
>  <CHROM.1>
-57.37089463,-73.42444530,-79.43617554,67.50546836,97.82239499,-63.22034363
10.21725694,20.27192796,34.58655460,-0.53932433,-0.68376012,-0.91175186

>  <Name>
2fcz_lig

>  <RI>
3.41297e+07

>  <Rbt.Current_Directory>
/home/itssahil/PROJECTS/Mol_Feturizer/New_Systems/rnas/2fcz

>  <Rbt.Executable>
rbdock ($Id: //depot/dev/client3/rdock/2013.1/src/exe/rbdock.cxx#4 $)

>  <Rbt.Library>
libRbt.so (2013.1, Build901 2013/11/27)

>  <Rbt.Parameter_File>
/export/apps/rDock/src/rDock_2013.1_src/data/scripts/dock_solv.prm

>  <Rbt.Receptor>
prm/pocket_docking_2.prm

>  <SCORE>
-7.9007

>  <SCORE.INTER>
-9.50553

>  <SCORE.INTER.CONST>
1

>  <SCORE.INTER.POLAR>
-1.05196

>  <SCORE.INTER.ROT>
6

>  <SCORE.INTER.SOLV>
21.1825

>  <SCORE.INTER.VDW>
-17.4913

>  <SCORE.INTER.norm>
-0.30663

>  <SCORE.INTRA>
0.501838

>  <SCORE.INTRA.DIHEDRAL>
-2.77794

>  <SCORE.INTRA.DIHEDRAL.0>
10.8409

>  <SCORE.INTRA.POLAR>
0

>  <SCORE.INTRA.POLAR.0>
0

>  <SCORE.INTRA.REPUL>
0

>  <SCORE.INTRA.REPUL.0>
0

>  <SCORE.INTRA.SOLV>
2.2602

>  <SCORE.INTRA.SOLV.lig_0>
-80.8302

>  <SCORE.INTRA.VDW>
0.760711

>  <SCORE.INTRA.VDW.0>
-4.23953

>  <SCORE.INTRA.norm>
0.0161883

>  <SCORE.RESTR>
1.10299

>  <SCORE.RESTR.CAVITY>
1.10299

>  <SCORE.RESTR.norm>
0.0355804

>  <SCORE.SYSTEM>
0

>  <SCORE.SYSTEM.CONST>
0

>  <SCORE.SYSTEM.DIHEDRAL>
0

>  <SCORE.SYSTEM.SOLV>
0

>  <SCORE.SYSTEM.norm>
0

>  <SCORE.heavy>
31

>  <SCORE.norm>
-0.254861

>  <RMSD>
5.138

$$$$
2fcz_lig
 OpenBabel11021811433D
libRbt.so/2013.1/901 2013/11/27
 31 33  0  0  0  0  0  0  0  0999 V2000
   13.6420   19.9632   35.9701 C   0  0  0  0  0  0  0  0  0  0  0  0
   15.1544   23.3908   28.5920 N   0  0  0  0  0  0  0  0  0  0  0  0
   14.0545   19.5441   37.2738 O   0  0  0  0  0  0  0  0  0  0  0  0
   14.8112   20.6500   35.2561 C   0  0  1  0  0  0  0  0  0  0  0  0
   10.3521   22.5814   29.0712 N   0  0  0  0  0  0  0  0  0  0  0  0
   14.4825   20.9809   33.8916 O   0  0  0  0  0  0  0  0  0  0  0  0
   14.3219   22.4078   33.7659 C   0  0  1  0  0  0  0  0  0  0  0  0
    6.4212   24.0789   31.0283 N   0  0  0  0  0  0  0  0  0  0  0  0
   13.1553   22.7689   33.0070 O   0  0  0  0  0  0  0  0  0  0  0  0
   13.1540   22.2778   31.6558 C   0  0  2  0  0  0  0  0  0  0  0  0
   10.4141   19.5266   33.5267 N   0  0  0  0  0  0  0  0  0  0  0  0
   15.5005   22.7716   31.3335 O   0  0  0  0  0  0  0  0  0  0  0  0
   14.1907   23.0562   30.8362 C   0  0  1  0  0  0  0  0  0  0  0  0
   10.8094   21.5253   31.6446 O   0  0  0  0  0  0  0  0  0  0  0  0
   14.1279   22.6693   29.3567 C   0  0  1  0  0  0  0  0  0  0  0  0
    9.4868   23.0702   32.8432 O   0  0  0  0  0  0  0  0  0  0  0  0
   12.7445   22.9913   28.7873 C   0  0  0  0  0  0  0  0  0  0  0  0
    6.2770   21.5131   31.9264 O   0  0  0  0  0  0  0  0  0  0  0  0
   11.6872   22.1942   29.5538 C   0  0  1  0  0  0  0  0  0  0  0  0
    7.5546   19.4282   33.4344 O   0  0  0  0  0  0  0  0  0  0  0  0
   11.7545   22.4385   31.0653 C   0  0  2  0  0  0  0  0  0  0  0  0
   14.5117   24.2820   35.3678 O   0  0  0  0  0  0  0  0  0  0  0  0
   10.3430   21.9171   32.9439 C   0  0  1  0  0  0  0  0  0  0  0  0
   16.5059   22.3632   35.6691 O   0  0  0  0  0  0  0  0  0  0  0  0
    8.2949   22.8615   32.0660 C   0  0  2  0  0  0  0  0  0  0  0  0
    7.5041   24.1712   32.0184 C   0  0  0  0  0  0  0  0  0  0  0  0
    7.4515   21.7539   32.7073 C   0  0  2  0  0  0  0  0  0  0  0  0
    8.2844   20.4724   32.7819 C   0  0  1  0  0  0  0  0  0  0  0  0
    9.5800   20.7363   33.5526 C   0  0  1  0  0  0  0  0  0  0  0  0
   14.1753   22.9006   35.2064 C   0  0  2  0  0  0  0  0  0  0  0  0
   15.1538   21.9782   35.9309 C   0  0  1  0  0  0  0  0  0  0  0  0
  3  1  1  0  0  0  0
  4  1  1  1  0  0  0
  4  6  1  0  0  0  0
  4 31  1  0  0  0  0
  6  7  1  0  0  0  0
  7  9  1  6  0  0  0
  7 30  1  0  0  0  0
 10  9  1  1  0  0  0
 10 13  1  0  0  0  0
 10 21  1  0  0  0  0
 13 12  1  1  0  0  0
 13 15  1  0  0  0  0
 15  2  1  6  0  0  0
 15 17  1  0  0  0  0
 16 25  1  0  0  0  0
 17 19  1  0  0  0  0
 19  5  1  6  0  0  0
 19 21  1  0  0  0  0
 21 14  1  1  0  0  0
 23 14  1  6  0  0  0
 23 16  1  0  0  0  0
 23 29  1  0  0  0  0
 25 26  1  1  0  0  0
 25 27  1  0  0  0  0
 26  8  1  0  0  0  0
 27 18  1  6  0  0  0
 27 28  1  0  0  0  0
 28 20  1  1  0  0  0
 28 29  1  0  0  0  0
 29 11  1  6  0  0  0
 30 22  1  6  0  0  0
 30 31  1  0  0  0  0
 31 24  1  6  0  0  0
M  END
>  <CHROM.1>
174.65465962,-60.49753540,-71.45835428,77.86977166,70.40001630,169.07577043
11.81798948,22.03164463,32.69292543,0.33979458,0.11939005,1.95123069

>  <Name>
2fcz_lig

>  <RI>
1.40544e+07

>  <Rbt.Current_Directory>
/home/itssahil/PROJECTS/Mol_Feturizer/New_Systems/rnas/2fcz

>  <Rbt.Executable>
rbdock ($Id: //depot/dev/client3/rdock/2013.1/src/exe/rbdock.cxx#4 $)

>  <Rbt.Library>
libRbt.so (2013.1, Build901 2013/11/27)

>  <Rbt.Parameter_File>
/export/apps/rDock/src/rDock_2013.1_src/data/scripts/dock_solv.prm

>  <Rbt.Receptor>
prm/blind_docking_100.prm

>  <SCORE>
-19.366

>  <SCORE.INTER>
-16.2253

>  <SCORE.INTER.CONST>
1

>  <SCORE.INTER.POLAR>
-1.7518

>  <SCORE.INTER.ROT>
6

>  <SCORE.INTER.SOLV>
14.8677

>  <SCORE.INTER.VDW>
-17.5334

>  <SCORE.INTER.norm>
-0.523396

>  <SCORE.INTRA>
-3.14073

>  <SCORE.INTRA.DIHEDRAL>
-7.58315

>  <SCORE.INTRA.DIHEDRAL.0>
10.8409

>  <SCORE.INTRA.POLAR>
0

>  <SCORE.INTRA.POLAR.0>
0

>  <SCORE.INTRA.REPUL>
0

>  <SCORE.INTRA.REPUL.0>
0

>  <SCORE.INTRA.SOLV>
-1.97945

>  <SCORE.INTRA.SOLV.lig_0>
-80.8302

>  <SCORE.INTRA.VDW>
1.64057

>  <SCORE.INTRA.VDW.0>
-4.23953

>  <SCORE.INTRA.norm>
-0.101314

>  <SCORE.RESTR>
0

>  <SCORE.RESTR.CAVITY>
0

>  <SCORE.RESTR.norm>
0

>  <SCORE.SYSTEM>
0

>  <SCORE.SYSTEM.CONST>
0

>  <SCORE.SYSTEM.DIHEDRAL>
0

>  <SCORE.SYSTEM.SOLV>
0

>  <SCORE.SYSTEM.norm>
0

>  <SCORE.heavy>
31

>  <SCORE.norm>
-0.62471

>  <RMSD>
5.173

$$$$
2fcz_lig
 OpenBabel11021811433D
libRbt.so/2013.1/901 2013/11/27
 31 33  0  0  0  0  0  0  0  0999 V2000
   14.0580   17.2499   36.4998 C   0  0  0  0  0  0  0  0  0  0  0  0
   12.5761   22.8072   34.9738 N   0  0  0  0  0  0  0  0  0  0  0  0
   14.5823   15.9517   36.2075 O   0  0  0  0  0  0  0  0  0  0  0  0
   13.9494   17.4315   38.0176 C   0  0  1  0  0  0  0  0  0  0  0  0
    8.5705   20.0884   34.2594 N   0  0  0  0  0  0  0  0  0  0  0  0
   13.4117   18.7244   38.3627 O   0  0  0  0  0  0  0  0  0  0  0  0
   12.0698   18.5706   38.8662 C   0  0  1  0  0  0  0  0  0  0  0  0
    8.7268   14.5746   33.7312 N   0  0  0  0  0  0  0  0  0  0  0  0
   11.1557   19.5295   38.3076 O   0  0  0  0  0  0  0  0  0  0  0  0
   11.3192   19.7492   36.8963 C   0  0  2  0  0  0  0  0  0  0  0  0
    7.7309   19.2613   38.0520 N   0  0  0  0  0  0  0  0  0  0  0  0
   13.2325   21.1967   37.2086 O   0  0  0  0  0  0  0  0  0  0  0  0
   11.9094   21.1465   36.6693 C   0  0  1  0  0  0  0  0  0  0  0  0
    9.5057   18.2464   36.1776 O   0  0  0  0  0  0  0  0  0  0  0  0
   11.9695   21.4845   35.1778 C   0  0  1  0  0  0  0  0  0  0  0  0
    7.8481   16.8990   35.1728 O   0  0  0  0  0  0  0  0  0  0  0  0
   10.5619   21.4688   34.5779 C   0  0  0  0  0  0  0  0  0  0  0  0
    7.7867   14.4043   37.8822 O   0  0  0  0  0  0  0  0  0  0  0  0
    9.9591   20.0726   34.7463 C   0  0  1  0  0  0  0  0  0  0  0  0
    6.9076   16.7850   39.2286 O   0  0  0  0  0  0  0  0  0  0  0  0
    9.9638   19.6073   36.2065 C   0  0  2  0  0  0  0  0  0  0  0  0
   10.6142   16.6064   39.2379 O   0  0  0  0  0  0  0  0  0  0  0  0
    8.1028   18.1103   35.9082 C   0  0  1  0  0  0  0  0  0  0  0  0
   13.2572   16.1851   40.0037 O   0  0  0  0  0  0  0  0  0  0  0  0
    8.2138   15.6930   35.8656 C   0  0  2  0  0  0  0  0  0  0  0  0
    7.9197   14.4964   34.9575 C   0  0  0  0  0  0  0  0  0  0  0  0
    7.4097   15.5843   37.1660 C   0  0  2  0  0  0  0  0  0  0  0  0
    7.6900   16.8154   38.0305 C   0  0  1  0  0  0  0  0  0  0  0  0
    7.3600   18.0885   37.2479 C   0  0  1  0  0  0  0  0  0  0  0  0
   11.6645   17.1590   38.4386 C   0  0  2  0  0  0  0  0  0  0  0  0
   12.9836   16.4101   38.6182 C   0  0  1  0  0  0  0  0  0  0  0  0
  3  1  1  0  0  0  0
  4  1  1  6  0  0  0
  4  6  1  0  0  0  0
  4 31  1  0  0  0  0
  6  7  1  0  0  0  0
  7  9  1  6  0  0  0
  7 30  1  0  0  0  0
 10  9  1  1  0  0  0
 10 13  1  0  0  0  0
 10 21  1  0  0  0  0
 13 12  1  6  0  0  0
 13 15  1  0  0  0  0
 15  2  1  1  0  0  0
 15 17  1  0  0  0  0
 16 25  1  0  0  0  0
 17 19  1  0  0  0  0
 19  5  1  1  0  0  0
 19 21  1  0  0  0  0
 21 14  1  6  0  0  0
 23 14  1  1  0  0  0
 23 16  1  0  0  0  0
 23 29  1  0  0  0  0
 25 26  1  6  0  0  0
 25 27  1  0  0  0  0
 26  8  1  0  0  0  0
 27 18  1  1  0  0  0
 27 28  1  0  0  0  0
 28 20  1  1  0  0  0
 28 29  1  0  0  0  0
 29 11  1  1  0  0  0
 30 22  1  1  0  0  0
 30 31  1  0  0  0  0
 31 24  1  1  0  0  0
M  END
>  <CHROM.1>
-179.43375306,42.19682641,-109.36453444,162.64347094,147.50032482,61.88703210
10.44125733,18.04267553,36.89844006,-0.56378752,0.36704098,2.66215754

>  <Name>
2fcz_lig

>  <RI>
0

>  <Rbt.Current_Directory>
/home/itssahil/PROJECTS/Mol_Feturizer/New_Systems/rnas/2fcz

>  <Rbt.Executable>
rbdock ($Id: //depot/dev/client3/rdock/2013.1/src/exe/rbdock.cxx#4 $)

>  <Rbt.Library>
libRbt.so (2013.1, Build901 2013/11/27)

>  <Rbt.Parameter_File>
/export/apps/rDock/src/rDock_2013.1_src/data/scripts/dock_solv.prm

>  <Rbt.Receptor>
prm/pocket_docking_5.prm

>  <SCORE>
-16.049

>  <SCORE.INTER>
-19.5525

>  <SCORE.INTER.CONST>
1

>  <SCORE.INTER.POLAR>
-2.72577

>  <SCORE.INTER.ROT>
6

>  <SCORE.INTER.SOLV>
17.0844

>  <SCORE.INTER.VDW>
-17.2439

>  <SCORE.INTER.norm>
-0.630727

>  <SCORE.INTRA>
3.50094

>  <SCORE.INTRA.DIHEDRAL>
2.8271

>  <SCORE.INTRA.DIHEDRAL.0>
10.8409

>  <SCORE.INTRA.POLAR>
0

>  <SCORE.INTRA.POLAR.0>
0

>  <SCORE.INTRA.REPUL>
0

>  <SCORE.INTRA.REPUL.0>
0

>  <SCORE.INTRA.SOLV>
0.926045

>  <SCORE.INTRA.SOLV.lig_0>
-80.8302

>  <SCORE.INTRA.VDW>
1.62437

>  <SCORE.INTRA.VDW.0>
-4.23953

>  <SCORE.INTRA.norm>
0.112933

>  <SCORE.RESTR>
0.0025576

>  <SCORE.RESTR.CAVITY>
0.0025576

>  <SCORE.RESTR.norm>
8.25033e-05

>  <SCORE.SYSTEM>
0

>  <SCORE.SYSTEM.CONST>
0

>  <SCORE.SYSTEM.DIHEDRAL>
0

>  <SCORE.SYSTEM.SOLV>
0

>  <SCORE.SYSTEM.norm>
0

>  <SCORE.heavy>
31

>  <SCORE.norm>
-0.517711

>  <RMSD>
5.207

$$$$
2fcz_lig
 OpenBabel11021811433D
libRbt.so/2013.1/901 2013/11/27
 31 33  0  0  0  0  0  0  0  0999 V2000
   14.3340   17.7358   36.1993 C   0  0  0  0  0  0  0  0  0  0  0  0
   12.4646   22.9752   34.9856 N   0  0  0  0  0  0  0  0  0  0  0  0
   15.1425   18.8722   35.8826 O   0  0  0  0  0  0  0  0  0  0  0  0
   14.0833   17.6873   37.7103 C   0  0  1  0  0  0  0  0  0  0  0  0
    8.5059   20.2791   33.9819 N   0  0  0  0  0  0  0  0  0  0  0  0
   13.3676   18.8519   38.1697 O   0  0  0  0  0  0  0  0  0  0  0  0
   12.0182   18.4833   38.5177 C   0  0  1  0  0  0  0  0  0  0  0  0
    8.4125   13.3434   34.9315 N   0  0  0  0  0  0  0  0  0  0  0  0
   11.0425   19.4068   38.0054 O   0  0  0  0  0  0  0  0  0  0  0  0
   11.2224   19.7487   36.6206 C   0  0  2  0  0  0  0  0  0  0  0  0
    7.8526   19.1823   37.8424 N   0  0  0  0  0  0  0  0  0  0  0  0
   13.1118   21.1873   37.0839 O   0  0  0  0  0  0  0  0  0  0  0  0
   11.7970   21.1673   36.5227 C   0  0  1  0  0  0  0  0  0  0  0  0
    9.4392   18.2910   35.7493 O   0  0  0  0  0  0  0  0  0  0  0  0
   11.8730   21.6326   35.0666 C   0  0  1  0  0  0  0  0  0  0  0  0
    7.7002   16.9768   34.8430 O   0  0  0  0  0  0  0  0  0  0  0  0
   10.4740   21.6512   34.4468 C   0  0  0  0  0  0  0  0  0  0  0  0
    7.9291   14.3421   37.4069 O   0  0  0  0  0  0  0  0  0  0  0  0
    9.8878   20.2386   34.4863 C   0  0  1  0  0  0  0  0  0  0  0  0
    7.1702   16.6367   38.9601 O   0  0  0  0  0  0  0  0  0  0  0  0
    9.8786   19.6499   35.9013 C   0  0  2  0  0  0  0  0  0  0  0  0
   10.7854   16.3400   38.4862 O   0  0  0  0  0  0  0  0  0  0  0  0
    8.0175   18.1510   35.6135 C   0  0  1  0  0  0  0  0  0  0  0  0
   13.3902   16.1037   39.4394 O   0  0  0  0  0  0  0  0  0  0  0  0
    8.1426   15.7409   35.4302 C   0  0  2  0  0  0  0  0  0  0  0  0
    7.7687   14.5901   34.4927 C   0  0  0  0  0  0  0  0  0  0  0  0
    7.4732   15.5532   36.7963 C   0  0  2  0  0  0  0  0  0  0  0  0
    7.8288   16.7406   37.6936 C   0  0  1  0  0  0  0  0  0  0  0  0
    7.4125   18.0488   37.0173 C   0  0  1  0  0  0  0  0  0  0  0  0
   11.8218   17.1112   37.8710 C   0  0  2  0  0  0  0  0  0  0  0  0
   13.2031   16.4921   38.0759 C   0  0  1  0  0  0  0  0  0  0  0  0
  3  1  1  0  0  0  0
  4  1  1  6  0  0  0
  4  6  1  0  0  0  0
  4 31  1  0  0  0  0
  6  7  1  0  0  0  0
  7  9  1  6  0  0  0
  7 30  1  0  0  0  0
 10  9  1  1  0  0  0
 10 13  1  0  0  0  0
 10 21  1  0  0  0  0
 13 12  1  6  0  0  0
 13 15  1  0  0  0  0
 15  2  1  1  0  0  0
 15 17  1  0  0  0  0
 16 25  1  0  0  0  0
 17 19  1  0  0  0  0
 19  5  1  1  0  0  0
 19 21  1  0  0  0  0
 21 14  1  6  0  0  0
 23 14  1  1  0  0  0
 23 16  1  0  0  0  0
 23 29  1  0  0  0  0
 25 26  1  6  0  0  0
 25 27  1  0  0  0  0
 26  8  1  0  0  0  0
 27 18  1  1  0  0  0
 27 28  1  0  0  0  0
 28 20  1  1  0  0  0
 28 29  1  0  0  0  0
 29 11  1  1  0  0  0
 30 22  1  1  0  0  0
 30 31  1  0  0  0  0
 31 24  1  1  0  0  0
M  END
>  <CHROM.1>
61.70780912,47.47332350,-105.33630831,155.33473116,151.69072121,169.74995630
10.46176573,18.14224103,36.62226554,-0.61973270,0.36689264,2.69497362

>  <Name>
2fcz_lig

>  <RI>
2.76032e+07

>  <Rbt.Current_Directory>
/home/itssahil/PROJECTS/Mol_Feturizer/New_Systems/rnas/2fcz

>  <Rbt.Executable>
rbdock ($Id: //depot/dev/client3/rdock/2013.1/src/exe/rbdock.cxx#4 $)

>  <Rbt.Library>
libRbt.so (2013.1, Build901 2013/11/27)

>  <Rbt.Parameter_File>
/export/apps/rDock/src/rDock_2013.1_src/data/scripts/dock_solv.prm

>  <Rbt.Receptor>
prm/pocket_docking_8.prm

>  <SCORE>
-15.7667

>  <SCORE.INTER>
-19.1821

>  <SCORE.INTER.CONST>
1

>  <SCORE.INTER.POLAR>
-2.78423

>  <SCORE.INTER.ROT>
6

>  <SCORE.INTER.SOLV>
17.1298

>  <SCORE.INTER.VDW>
-16.8172

>  <SCORE.INTER.norm>
-0.618776

>  <SCORE.INTRA>
3.41539

>  <SCORE.INTRA.DIHEDRAL>
2.44462

>  <SCORE.INTRA.DIHEDRAL.0>
10.8409

>  <SCORE.INTRA.POLAR>
0

>  <SCORE.INTRA.POLAR.0>
0

>  <SCORE.INTRA.REPUL>
0

>  <SCORE.INTRA.REPUL.0>
0

>  <SCORE.INTRA.SOLV>
2.60993

>  <SCORE.INTRA.SOLV.lig_0>
-80.8302

>  <SCORE.INTRA.VDW>
0.888114

>  <SCORE.INTRA.VDW.0>
-4.23953

>  <SCORE.INTRA.norm>
0.110174

>  <SCORE.RESTR>
0

>  <SCORE.RESTR.CAVITY>
0

>  <SCORE.RESTR.norm>
0

>  <SCORE.SYSTEM>
0

>  <SCORE.SYSTEM.CONST>
0

>  <SCORE.SYSTEM.DIHEDRAL>
0

>  <SCORE.SYSTEM.SOLV>
0

>  <SCORE.SYSTEM.norm>
0

>  <SCORE.heavy>
31

>  <SCORE.norm>
-0.508602

>  <RMSD>
5.210

$$$$
2fcz_lig
 OpenBabel11021811433D
libRbt.so/2013.1/901 2013/11/27
 31 33  0  0  0  0  0  0  0  0999 V2000
    7.6439   15.0045   38.8280 C   0  0  0  0  0  0  0  0  0  0  0  0
   10.2006   12.8738   34.3408 N   0  0  0  0  0  0  0  0  0  0  0  0
    7.4484   14.9604   40.2440 O   0  0  0  0  0  0  0  0  0  0  0  0
    8.6314   16.1233   38.4791 C   0  0  1  0  0  0  0  0  0  0  0  0
   12.0865   17.2610   33.2715 N   0  0  0  0  0  0  0  0  0  0  0  0
    8.9414   16.1409   37.0708 O   0  0  0  0  0  0  0  0  0  0  0  0
    8.3196   17.2855   36.4537 C   0  0  1  0  0  0  0  0  0  0  0  0
   11.7915   19.6463   36.9473 N   0  0  0  0  0  0  0  0  0  0  0  0
    7.6684   16.9604   35.2138 O   0  0  0  0  0  0  0  0  0  0  0  0
    8.5165   16.3064   34.2547 C   0  0  2  0  0  0  0  0  0  0  0  0
    7.7737   20.0022   31.8797 N   0  0  0  0  0  0  0  0  0  0  0  0
    7.6986   14.1045   34.8347 O   0  0  0  0  0  0  0  0  0  0  0  0
    8.8788   14.9092   34.7730 C   0  0  1  0  0  0  0  0  0  0  0  0
    9.4916   18.3616   33.3116 O   0  0  0  0  0  0  0  0  0  0  0  0
    9.8959   14.2268   33.8553 C   0  0  1  0  0  0  0  0  0  0  0  0
    9.4384   19.7702   35.2052 O   0  0  0  0  0  0  0  0  0  0  0  0
   11.1839   15.0507   33.7934 C   0  0  0  0  0  0  0  0  0  0  0  0
   11.5990   22.3624   33.7287 O   0  0  0  0  0  0  0  0  0  0  0  0
   10.8661   16.4396   33.2358 C   0  0  1  0  0  0  0  0  0  0  0  0
    9.3139   22.4127   31.9883 O   0  0  0  0  0  0  0  0  0  0  0  0
    9.7693   17.1520   34.0346 C   0  0  2  0  0  0  0  0  0  0  0  0
    6.9135   19.1244   37.3235 O   0  0  0  0  0  0  0  0  0  0  0  0
    8.7117   19.3141   34.0489 C   0  0  1  0  0  0  0  0  0  0  0  0
    9.0451   18.4775   38.9929 O   0  0  0  0  0  0  0  0  0  0  0  0
   10.6705   20.4486   34.9054 C   0  0  2  0  0  0  0  0  0  0  0  0
   11.3459   20.8442   36.2208 C   0  0  0  0  0  0  0  0  0  0  0  0
   10.3782   21.6945   34.0617 C   0  0  2  0  0  0  0  0  0  0  0  0
    9.6634   21.2706   32.7769 C   0  0  1  0  0  0  0  0  0  0  0  0
    8.3926   20.4899   33.1201 C   0  0  1  0  0  0  0  0  0  0  0  0
    7.2821   17.7503   37.4770 C   0  0  2  0  0  0  0  0  0  0  0  0
    8.0280   17.4940   38.7852 C   0  0  1  0  0  0  0  0  0  0  0  0
  3  1  1  0  0  0  0
  4  1  1  6  0  0  0
  4  6  1  0  0  0  0
  4 31  1  0  0  0  0
  6  7  1  0  0  0  0
  7  9  1  6  0  0  0
  7 30  1  0  0  0  0
 10  9  1  1  0  0  0
 10 13  1  0  0  0  0
 10 21  1  0  0  0  0
 13 12  1  6  0  0  0
 13 15  1  0  0  0  0
 15  2  1  1  0  0  0
 15 17  1  0  0  0  0
 16 25  1  0  0  0  0
 17 19  1  0  0  0  0
 19  5  1  1  0  0  0
 19 21  1  0  0  0  0
 21 14  1  6  0  0  0
 23 14  1  6  0  0  0
 23 16  1  0  0  0  0
 23 29  1  0  0  0  0
 25 26  1  1  0  0  0
 25 27  1  0  0  0  0
 26  8  1  0  0  0  0
 27 18  1  6  0  0  0
 27 28  1  0  0  0  0
 28 20  1  1  0  0  0
 28 29  1  0  0  0  0
 29 11  1  6  0  0  0
 30 22  1  6  0  0  0
 30 31  1  0  0  0  0
 31 24  1  6  0  0  0
M  END
>  <CHROM.1>
175.51679318,-54.52046593,67.65560390,68.74917579,63.93754755,67.53973535
9.25777008,17.89554802,35.30437018,2.39258143,-1.23682845,-2.94460395

>  <Name>
2fcz_lig

>  <RI>
2.76032e+07

>  <Rbt.Current_Directory>
/home/itssahil/PROJECTS/Mol_Feturizer/New_Systems/rnas/2fcz

>  <Rbt.Executable>
rbdock ($Id: //depot/dev/client3/rdock/2013.1/src/exe/rbdock.cxx#4 $)

>  <Rbt.Library>
libRbt.so (2013.1, Build901 2013/11/27)

>  <Rbt.Parameter_File>
/export/apps/rDock/src/rDock_2013.1_src/data/scripts/dock_solv.prm

>  <Rbt.Receptor>
prm/pocket_docking_8.prm

>  <SCORE>
-15.0771

>  <SCORE.INTER>
-11.65

>  <SCORE.INTER.CONST>
1

>  <SCORE.INTER.POLAR>
-1.79994

>  <SCORE.INTER.ROT>
6

>  <SCORE.INTER.SOLV>
11.4268

>  <SCORE.INTER.VDW>
-13.1758

>  <SCORE.INTER.norm>
-0.375806

>  <SCORE.INTRA>
-3.42712

>  <SCORE.INTRA.DIHEDRAL>
-9.54543

>  <SCORE.INTRA.DIHEDRAL.0>
10.8409

>  <SCORE.INTRA.POLAR>
0

>  <SCORE.INTRA.POLAR.0>
0

>  <SCORE.INTRA.REPUL>
0

>  <SCORE.INTRA.REPUL.0>
0

>  <SCORE.INTRA.SOLV>
-2.16986

>  <SCORE.INTRA.SOLV.lig_0>
-80.8302

>  <SCORE.INTRA.VDW>
2.43053

>  <SCORE.INTRA.VDW.0>
-4.23953

>  <SCORE.INTRA.norm>
-0.110552

>  <SCORE.RESTR>
0

>  <SCORE.RESTR.CAVITY>
0

>  <SCORE.RESTR.norm>
0

>  <SCORE.SYSTEM>
0

>  <SCORE.SYSTEM.CONST>
0

>  <SCORE.SYSTEM.DIHEDRAL>
0

>  <SCORE.SYSTEM.SOLV>
0

>  <SCORE.SYSTEM.norm>
0

>  <SCORE.heavy>
31

>  <SCORE.norm>
-0.486358

>  <RMSD>
5.285

$$$$
2fcz_lig
 OpenBabel11021811433D
libRbt.so/2013.1/901 2013/11/27
 31 33  0  0  0  0  0  0  0  0999 V2000
   14.5956   17.4599   37.0605 C   0  0  0  0  0  0  0  0  0  0  0  0
    8.9185   19.3330   37.2247 N   0  0  0  0  0  0  0  0  0  0  0  0
   14.7247   18.8776   37.1991 O   0  0  0  0  0  0  0  0  0  0  0  0
   13.9505   17.1313   35.7098 C   0  0  1  0  0  0  0  0  0  0  0  0
    8.7832   19.2412   32.3338 N   0  0  0  0  0  0  0  0  0  0  0  0
   12.8717   18.0366   35.3998 O   0  0  0  0  0  0  0  0  0  0  0  0
   13.2758   18.9237   34.3380 C   0  0  1  0  0  0  0  0  0  0  0  0
   15.2511   22.3476   33.1193 N   0  0  0  0  0  0  0  0  0  0  0  0
   12.9247   20.2936   34.5974 O   0  0  0  0  0  0  0  0  0  0  0  0
   11.5100   20.5352   34.6819 C   0  0  2  0  0  0  0  0  0  0  0  0
    9.1635   22.2509   30.9660 N   0  0  0  0  0  0  0  0  0  0  0  0
   11.5090   20.4700   37.1005 O   0  0  0  0  0  0  0  0  0  0  0  0
   10.9562   19.8495   35.9371 C   0  0  1  0  0  0  0  0  0  0  0  0
   11.1355   20.7931   32.2618 O   0  0  0  0  0  0  0  0  0  0  0  0
    9.4306   19.9563   35.9965 C   0  0  1  0  0  0  0  0  0  0  0  0
   12.4169   22.7220   32.7203 O   0  0  0  0  0  0  0  0  0  0  0  0
    8.8077   19.2727   34.7773 C   0  0  0  0  0  0  0  0  0  0  0  0
   13.6333   23.1190   29.2662 O   0  0  0  0  0  0  0  0  0  0  0  0
    9.3042   19.9632   33.5055 C   0  0  1  0  0  0  0  0  0  0  0  0
   10.7986   23.4670   28.9555 O   0  0  0  0  0  0  0  0  0  0  0  0
   10.8340   20.0005   33.4209 C   0  0  2  0  0  0  0  0  0  0  0  0
   15.3551   19.1513   33.0191 O   0  0  0  0  0  0  0  0  0  0  0  0
   11.0906   22.2080   32.4967 C   0  0  1  0  0  0  0  0  0  0  0  0
   14.5932   16.5063   33.4352 O   0  0  0  0  0  0  0  0  0  0  0  0
   13.3154   22.5563   31.6097 C   0  0  2  0  0  0  0  0  0  0  0  0
   14.6863   23.1146   31.9995 C   0  0  0  0  0  0  0  0  0  0  0  0
   12.7650   23.3017   30.3887 C   0  0  2  0  0  0  0  0  0  0  0  0
   11.3768   22.7526   30.0528 C   0  0  1  0  0  0  0  0  0  0  0  0
   10.4585   22.8749   31.2709 C   0  0  1  0  0  0  0  0  0  0  0  0
   14.7977   18.7807   34.2837 C   0  0  2  0  0  0  0  0  0  0  0  0
   14.9608   17.2899   34.5736 C   0  0  1  0  0  0  0  0  0  0  0  0
  3  1  1  0  0  0  0
  4  1  1  1  0  0  0
  4  6  1  0  0  0  0
  4 31  1  0  0  0  0
  6  7  1  0  0  0  0
  7  9  1  1  0  0  0
  7 30  1  0  0  0  0
 10  9  1  6  0  0  0
 10 13  1  0  0  0  0
 10 21  1  0  0  0  0
 13 12  1  1  0  0  0
 13 15  1  0  0  0  0
 15  2  1  1  0  0  0
 15 17  1  0  0  0  0
 16 25  1  0  0  0  0
 17 19  1  0  0  0  0
 19  5  1  6  0  0  0
 19 21  1  0  0  0  0
 21 14  1  6  0  0  0
 23 14  1  6  0  0  0
 23 16  1  0  0  0  0
 23 29  1  0  0  0  0
 25 26  1  1  0  0  0
 25 27  1  0  0  0  0
 26  8  1  0  0  0  0
 27 18  1  6  0  0  0
 27 28  1  0  0  0  0
 28 20  1  6  0  0  0
 28 29  1  0  0  0  0
 29 11  1  6  0  0  0
 30 22  1  6  0  0  0
 30 31  1  0  0  0  0
 31 24  1  6  0  0  0
M  END
>  <CHROM.1>
-41.23428512,-63.61034429,67.82461556,-42.77075742,98.30605252,63.25422909
12.24216167,20.40194665,33.53529643,-1.34825666,0.15877863,-0.89483604

>  <Name>
2fcz_lig

>  <RI>
0

>  <Rbt.Current_Directory>
/home/itssahil/PROJECTS/Mol_Feturizer/New_Systems/rnas/2fcz

>  <Rbt.Executable>
rbdock ($Id: //depot/dev/client3/rdock/2013.1/src/exe/rbdock.cxx#4 $)

>  <Rbt.Library>
libRbt.so (2013.1, Build901 2013/11/27)

>  <Rbt.Parameter_File>
/export/apps/rDock/src/rDock_2013.1_src/data/scripts/dock_solv.prm

>  <Rbt.Receptor>
prm/pocket_docking_6.prm

>  <SCORE>
-9.71504

>  <SCORE.INTER>
-12.0346

>  <SCORE.INTER.CONST>
1

>  <SCORE.INTER.POLAR>
-1.44042

>  <SCORE.INTER.ROT>
6

>  <SCORE.INTER.SOLV>
11.2295

>  <SCORE.INTER.VDW>
-14.5649

>  <SCORE.INTER.norm>
-0.388214

>  <SCORE.INTRA>
2.31958

>  <SCORE.INTRA.DIHEDRAL>
-2.65179

>  <SCORE.INTRA.DIHEDRAL.0>
10.8409

>  <SCORE.INTRA.POLAR>
0

>  <SCORE.INTRA.POLAR.0>
0

>  <SCORE.INTRA.REPUL>
0

>  <SCORE.INTRA.REPUL.0>
0

>  <SCORE.INTRA.SOLV>
1.60486

>  <SCORE.INTRA.SOLV.lig_0>
-80.8302

>  <SCORE.INTRA.VDW>
2.84304

>  <SCORE.INTRA.VDW.0>
-4.23953

>  <SCORE.INTRA.norm>
0.0748252

>  <SCORE.RESTR>
0

>  <SCORE.RESTR.CAVITY>
0

>  <SCORE.RESTR.norm>
0

>  <SCORE.SYSTEM>
0

>  <SCORE.SYSTEM.CONST>
0

>  <SCORE.SYSTEM.DIHEDRAL>
0

>  <SCORE.SYSTEM.SOLV>
0

>  <SCORE.SYSTEM.norm>
0

>  <SCORE.heavy>
31

>  <SCORE.norm>
-0.313388

>  <RMSD>
5.286

$$$$
2fcz_lig
 OpenBabel11021811433D
libRbt.so/2013.1/901 2013/11/27
 31 33  0  0  0  0  0  0  0  0999 V2000
   14.0771   17.0035   36.7743 C   0  0  0  0  0  0  0  0  0  0  0  0
   12.7761   22.3826   34.7111 N   0  0  0  0  0  0  0  0  0  0  0  0
   14.5430   15.6712   36.5428 O   0  0  0  0  0  0  0  0  0  0  0  0
   13.9828   17.2613   38.2820 C   0  0  1  0  0  0  0  0  0  0  0  0
    8.5706   19.8865   34.5338 N   0  0  0  0  0  0  0  0  0  0  0  0
   13.5521   18.6078   38.5667 O   0  0  0  0  0  0  0  0  0  0  0  0
   12.2018   18.5864   39.0709 C   0  0  1  0  0  0  0  0  0  0  0  0
    8.4232   15.0194   33.6126 N   0  0  0  0  0  0  0  0  0  0  0  0
   11.3692   19.5906   38.4662 O   0  0  0  0  0  0  0  0  0  0  0  0
   11.4556   19.6447   37.0321 C   0  0  2  0  0  0  0  0  0  0  0  0
    8.0058   18.8373   38.8329 N   0  0  0  0  0  0  0  0  0  0  0  0
   13.4719   20.9814   37.0715 O   0  0  0  0  0  0  0  0  0  0  0  0
   12.1164   20.9650   36.6170 C   0  0  1  0  0  0  0  0  0  0  0  0
    9.5093   18.2022   36.5902 O   0  0  0  0  0  0  0  0  0  0  0  0
   12.1021   21.1348   35.0960 C   0  0  1  0  0  0  0  0  0  0  0  0
    7.6950   17.1124   35.5447 O   0  0  0  0  0  0  0  0  0  0  0  0
   10.6608   21.1520   34.5824 C   0  0  0  0  0  0  0  0  0  0  0  0
    7.8535   14.1174   37.6831 O   0  0  0  0  0  0  0  0  0  0  0  0
    9.9838   19.8273   34.9400 C   0  0  1  0  0  0  0  0  0  0  0  0
    7.2302   16.1845   39.5783 O   0  0  0  0  0  0  0  0  0  0  0  0
   10.0526   19.5233   36.4405 C   0  0  2  0  0  0  0  0  0  0  0  0
   10.5907   16.7660   39.5238 O   0  0  0  0  0  0  0  0  0  0  0  0
    8.0804   18.1440   36.4722 C   0  0  1  0  0  0  0  0  0  0  0  0
   13.1901   16.1656   40.3188 O   0  0  0  0  0  0  0  0  0  0  0  0
    8.0921   15.7852   35.9306 C   0  0  2  0  0  0  0  0  0  0  0  0
    7.6480   14.8039   34.8430 C   0  0  0  0  0  0  0  0  0  0  0  0
    7.4415   15.4242   37.2707 C   0  0  2  0  0  0  0  0  0  0  0  0
    7.8681   16.4484   38.3245 C   0  0  1  0  0  0  0  0  0  0  0  0
    7.4986   17.8591   37.8606 C   0  0  1  0  0  0  0  0  0  0  0  0
   11.6831   17.1948   38.7050 C   0  0  2  0  0  0  0  0  0  0  0  0
   12.9367   16.3498   38.9235 C   0  0  1  0  0  0  0  0  0  0  0  0
  3  1  1  0  0  0  0
  4  1  1  6  0  0  0
  4  6  1  0  0  0  0
  4 31  1  0  0  0  0
  6  7  1  0  0  0  0
  7  9  1  6  0  0  0
  7 30  1  0  0  0  0
 10  9  1  1  0  0  0
 10 13  1  0  0  0  0
 10 21  1  0  0  0  0
 13 12  1  6  0  0  0
 13 15  1  0  0  0  0
 15  2  1  1  0  0  0
 15 17  1  0  0  0  0
 16 25  1  0  0  0  0
 17 19  1  0  0  0  0
 19  5  1  1  0  0  0
 19 21  1  0  0  0  0
 21 14  1  6  0  0  0
 23 14  1  1  0  0  0
 23 16  1  0  0  0  0
 23 29  1  0  0  0  0
 25 26  1  6  0  0  0
 25 27  1  0  0  0  0
 26  8  1  0  0  0  0
 27 18  1  1  0  0  0
 27 28  1  0  0  0  0
 28 20  1  1  0  0  0
 28 29  1  0  0  0  0
 29 11  1  1  0  0  0
 30 22  1  1  0  0  0
 30 31  1  0  0  0  0
 31 24  1  1  0  0  0
M  END
>  <CHROM.1>
178.37137474,47.91108221,-112.58019947,160.21732301,130.09512590,68.47250300
10.49489176,17.92176577,37.09327305,-0.46938081,0.40530281,2.51501444

>  <Name>
2fcz_lig

>  <RI>
0

>  <Rbt.Current_Directory>
/home/itssahil/PROJECTS/Mol_Feturizer/New_Systems/rnas/2fcz

>  <Rbt.Executable>
rbdock ($Id: //depot/dev/client3/rdock/2013.1/src/exe/rbdock.cxx#4 $)

>  <Rbt.Library>
libRbt.so (2013.1, Build901 2013/11/27)

>  <Rbt.Parameter_File>
/export/apps/rDock/src/rDock_2013.1_src/data/scripts/dock_solv.prm

>  <Rbt.Receptor>
prm/pocket_docking_5.prm

>  <SCORE>
-16.0557

>  <SCORE.INTER>
-20.2802

>  <SCORE.INTER.CONST>
1

>  <SCORE.INTER.POLAR>
-2.88644

>  <SCORE.INTER.ROT>
6

>  <SCORE.INTER.SOLV>
15.0098

>  <SCORE.INTER.VDW>
-16.5019

>  <SCORE.INTER.norm>
-0.6542

>  <SCORE.INTRA>
4.22446

>  <SCORE.INTRA.DIHEDRAL>
5.61374

>  <SCORE.INTRA.DIHEDRAL.0>
10.8409

>  <SCORE.INTRA.POLAR>
0

>  <SCORE.INTRA.POLAR.0>
0

>  <SCORE.INTRA.REPUL>
0

>  <SCORE.INTRA.REPUL.0>
0

>  <SCORE.INTRA.SOLV>
0.956664

>  <SCORE.INTRA.SOLV.lig_0>
-80.8302

>  <SCORE.INTRA.VDW>
0.939257

>  <SCORE.INTRA.VDW.0>
-4.23953

>  <SCORE.INTRA.norm>
0.136273

>  <SCORE.RESTR>
0

>  <SCORE.RESTR.CAVITY>
0

>  <SCORE.RESTR.norm>
0

>  <SCORE.SYSTEM>
0

>  <SCORE.SYSTEM.CONST>
0

>  <SCORE.SYSTEM.DIHEDRAL>
0

>  <SCORE.SYSTEM.SOLV>
0

>  <SCORE.SYSTEM.norm>
0

>  <SCORE.heavy>
31

>  <SCORE.norm>
-0.517927

>  <RMSD>
5.309

$$$$
2fcz_lig
 OpenBabel11021811433D
libRbt.so/2013.1/901 2013/11/27
 31 33  0  0  0  0  0  0  0  0999 V2000
    8.8723   18.9106   31.4680 C   0  0  0  0  0  0  0  0  0  0  0  0
   12.9857   14.6033   38.0780 N   0  0  0  0  0  0  0  0  0  0  0  0
    8.1483   18.9528   32.7007 O   0  0  0  0  0  0  0  0  0  0  0  0
    9.8571   17.7366   31.4893 C   0  0  1  0  0  0  0  0  0  0  0  0
   13.0392   19.4884   38.3616 N   0  0  0  0  0  0  0  0  0  0  0  0
   10.7649   17.8224   32.6065 O   0  0  0  0  0  0  0  0  0  0  0  0
   10.4328   16.8101   33.5774 C   0  0  1  0  0  0  0  0  0  0  0  0
   12.6698   24.5699   34.8259 N   0  0  0  0  0  0  0  0  0  0  0  0
   10.4235   17.3159   34.9233 O   0  0  0  0  0  0  0  0  0  0  0  0
   11.6867   17.2127   35.6020 C   0  0  2  0  0  0  0  0  0  0  0  0
    9.4127   19.6730   36.1841 N   0  0  0  0  0  0  0  0  0  0  0  0
   11.6456   14.7936   35.5907 O   0  0  0  0  0  0  0  0  0  0  0  0
   11.6997   15.9349   36.4502 C   0  0  1  0  0  0  0  0  0  0  0  0
   12.1422   19.6309   35.6929 O   0  0  0  0  0  0  0  0  0  0  0  0
   12.9672   15.8521   37.3040 C   0  0  1  0  0  0  0  0  0  0  0  0
   12.3093   21.9837   35.7909 O   0  0  0  0  0  0  0  0  0  0  0  0
   13.0375   17.0467   38.2577 C   0  0  0  0  0  0  0  0  0  0  0  0
   10.7529   22.5461   32.5001 O   0  0  0  0  0  0  0  0  0  0  0  0
   13.0727   18.3404   37.4416 C   0  0  1  0  0  0  0  0  0  0  0  0
    8.6187   21.3170   33.9793 O   0  0  0  0  0  0  0  0  0  0  0  0
   11.8907   18.4512   36.4724 C   0  0  2  0  0  0  0  0  0  0  0  0
    8.7007   15.0474   33.6627 O   0  0  0  0  0  0  0  0  0  0  0  0
   11.5850   20.8286   36.2536 C   0  0  1  0  0  0  0  0  0  0  0  0
    9.8843   15.3145   31.1573 O   0  0  0  0  0  0  0  0  0  0  0  0
   12.2666   22.1831   34.3673 C   0  0  2  0  0  0  0  0  0  0  0  0
   13.1004   23.4187   34.0192 C   0  0  0  0  0  0  0  0  0  0  0  0
   10.8137   22.3783   33.9198 C   0  0  2  0  0  0  0  0  0  0  0  0
    9.9980   21.1478   34.3221 C   0  0  1  0  0  0  0  0  0  0  0  0
   10.1152   20.9142   35.8300 C   0  0  1  0  0  0  0  0  0  0  0  0
    9.0258   16.3565   33.1852 C   0  0  2  0  0  0  0  0  0  0  0  0
    9.1164   16.4106   31.6613 C   0  0  1  0  0  0  0  0  0  0  0  0
  3  1  1  0  0  0  0
  4  1  1  1  0  0  0
  4  6  1  0  0  0  0
  4 31  1  0  0  0  0
  6  7  1  0  0  0  0
  7  9  1  1  0  0  0
  7 30  1  0  0  0  0
 10  9  1  1  0  0  0
 10 13  1  0  0  0  0
 10 21  1  0  0  0  0
 13 12  1  6  0  0  0
 13 15  1  0  0  0  0
 15  2  1  1  0  0  0
 15 17  1  0  0  0  0
 16 25  1  0  0  0  0
 17 19  1  0  0  0  0
 19  5  1  1  0  0  0
 19 21  1  0  0  0  0
 21 14  1  6  0  0  0
 23 14  1  6  0  0  0
 23 16  1  0  0  0  0
 23 29  1  0  0  0  0
 25 26  1  1  0  0  0
 25 27  1  0  0  0  0
 26  8  1  0  0  0  0
 27 18  1  6  0  0  0
 27 28  1  0  0  0  0
 28 20  1  1  0  0  0
 28 29  1  0  0  0  0
 29 11  1  6  0  0  0
 30 22  1  6  0  0  0
 30 31  1  0  0  0  0
 31 24  1  1  0  0  0
M  END
>  <CHROM.1>
-57.12573027,-90.52703839,-95.97327602,145.09550878,155.59469125,-52.75291759
10.97012374,18.79734432,34.72015468,1.77932526,0.96832607,2.96607043

>  <Name>
2fcz_lig

>  <RI>
0

>  <Rbt.Current_Directory>
/home/itssahil/PROJECTS/Mol_Feturizer/New_Systems/rnas/2fcz

>  <Rbt.Executable>
rbdock ($Id: //depot/dev/client3/rdock/2013.1/src/exe/rbdock.cxx#4 $)

>  <Rbt.Library>
libRbt.so (2013.1, Build901 2013/11/27)

>  <Rbt.Parameter_File>
/export/apps/rDock/src/rDock_2013.1_src/data/scripts/dock_solv.prm

>  <Rbt.Receptor>
prm/pocket_docking_5.prm

>  <SCORE>
-8.3581

>  <SCORE.INTER>
-12.8706

>  <SCORE.INTER.CONST>
1

>  <SCORE.INTER.POLAR>
-1.65705

>  <SCORE.INTER.ROT>
6

>  <SCORE.INTER.SOLV>
19.1275

>  <SCORE.INTER.VDW>
-17.0327

>  <SCORE.INTER.norm>
-0.415181

>  <SCORE.INTRA>
4.48539

>  <SCORE.INTRA.DIHEDRAL>
4.85515

>  <SCORE.INTRA.DIHEDRAL.0>
10.8409

>  <SCORE.INTRA.POLAR>
0

>  <SCORE.INTRA.POLAR.0>
0

>  <SCORE.INTRA.REPUL>
0.00472742

>  <SCORE.INTRA.REPUL.0>
0

>  <SCORE.INTRA.SOLV>
3.05972

>  <SCORE.INTRA.SOLV.lig_0>
-80.8302

>  <SCORE.INTRA.VDW>
0.504323

>  <SCORE.INTRA.VDW.0>
-4.23953

>  <SCORE.INTRA.norm>
0.14469

>  <SCORE.RESTR>
0.0271009

>  <SCORE.RESTR.CAVITY>
0.0271009

>  <SCORE.RESTR.norm>
0.000874221

>  <SCORE.SYSTEM>
0

>  <SCORE.SYSTEM.CONST>
0

>  <SCORE.SYSTEM.DIHEDRAL>
0

>  <SCORE.SYSTEM.SOLV>
0

>  <SCORE.SYSTEM.norm>
0

>  <SCORE.heavy>
31

>  <SCORE.norm>
-0.269616

>  <RMSD>
5.322

$$$$
2fcz_lig
 OpenBabel11021811433D
libRbt.so/2013.1/901 2013/11/27
 31 33  0  0  0  0  0  0  0  0999 V2000
   11.3748   20.8795   36.2116 C   0  0  0  0  0  0  0  0  0  0  0  0
   14.1709   22.9166   28.6445 N   0  0  0  0  0  0  0  0  0  0  0  0
   11.6688   20.6819   37.5973 O   0  0  0  0  0  0  0  0  0  0  0  0
   12.6795   21.0678   35.4302 C   0  0  1  0  0  0  0  0  0  0  0  0
    9.3462   23.7351   28.6367 N   0  0  0  0  0  0  0  0  0  0  0  0
   12.4343   21.2652   34.0229 O   0  0  0  0  0  0  0  0  0  0  0  0
   12.7031   22.6377   33.6737 C   0  0  1  0  0  0  0  0  0  0  0  0
    6.4002   26.1443   28.6436 N   0  0  0  0  0  0  0  0  0  0  0  0
   11.6806   23.2069   32.8385 O   0  0  0  0  0  0  0  0  0  0  0  0
   11.6428   22.6733   31.5040 C   0  0  2  0  0  0  0  0  0  0  0  0
    7.5347   21.5374   33.1445 N   0  0  0  0  0  0  0  0  0  0  0  0
   14.0406   22.3617   31.4184 O   0  0  0  0  0  0  0  0  0  0  0  0
   12.9483   23.0297   30.7821 C   0  0  1  0  0  0  0  0  0  0  0  0
    9.1926   22.7227   31.2632 O   0  0  0  0  0  0  0  0  0  0  0  0
   12.8986   22.6079   29.3118 C   0  0  1  0  0  0  0  0  0  0  0  0
    8.2333   24.8538   31.5961 O   0  0  0  0  0  0  0  0  0  0  0  0
   11.7561   23.3313   28.5955 C   0  0  0  0  0  0  0  0  0  0  0  0
    5.1219   24.0844   29.7808 O   0  0  0  0  0  0  0  0  0  0  0  0
   10.4300   22.9612   29.2628 C   0  0  1  0  0  0  0  0  0  0  0  0
    5.0157   22.2369   31.9783 O   0  0  0  0  0  0  0  0  0  0  0  0
   10.4342   23.2485   30.7682 C   0  0  2  0  0  0  0  0  0  0  0  0
   13.4774   24.5956   34.9706 O   0  0  0  0  0  0  0  0  0  0  0  0
    8.5301   23.5820   32.2023 C   0  0  1  0  0  0  0  0  0  0  0  0
   14.8160   22.2417   35.6163 O   0  0  0  0  0  0  0  0  0  0  0  0
    7.3474   24.7830   30.4655 C   0  0  2  0  0  0  0  0  0  0  0  0
    7.1494   26.1945   29.9075 C   0  0  0  0  0  0  0  0  0  0  0  0
    6.0032   24.1905   30.9031 C   0  0  2  0  0  0  0  0  0  0  0  0
    6.2402   22.8005   31.4972 C   0  0  1  0  0  0  0  0  0  0  0  0
    7.2394   22.8904   32.6528 C   0  0  1  0  0  0  0  0  0  0  0  0
   12.7415   23.3693   35.0164 C   0  0  2  0  0  0  0  0  0  0  0  0
   13.4167   22.3219   35.8998 C   0  0  1  0  0  0  0  0  0  0  0  0
  3  1  1  0  0  0  0
  4  1  1  1  0  0  0
  4  6  1  0  0  0  0
  4 31  1  0  0  0  0
  6  7  1  0  0  0  0
  7  9  1  6  0  0  0
  7 30  1  0  0  0  0
 10  9  1  1  0  0  0
 10 13  1  0  0  0  0
 10 21  1  0  0  0  0
 13 12  1  1  0  0  0
 13 15  1  0  0  0  0
 15  2  1  6  0  0  0
 15 17  1  0  0  0  0
 16 25  1  0  0  0  0
 17 19  1  0  0  0  0
 19  5  1  6  0  0  0
 19 21  1  0  0  0  0
 21 14  1  1  0  0  0
 23 14  1  6  0  0  0
 23 16  1  0  0  0  0
 23 29  1  0  0  0  0
 25 26  1  1  0  0  0
 25 27  1  0  0  0  0
 26  8  1  0  0  0  0
 27 18  1  6  0  0  0
 27 28  1  0  0  0  0
 28 20  1  1  0  0  0
 28 29  1  0  0  0  0
 29 11  1  6  0  0  0
 30 22  1  6  0  0  0
 30 31  1  0  0  0  0
 31 24  1  6  0  0  0
M  END
>  <CHROM.1>
179.74661951,-69.71640432,-64.19368802,98.25987272,59.75394240,172.27508950
10.28965238,23.06026423,32.11815833,0.65601590,-0.09341479,1.87637301

>  <Name>
2fcz_lig

>  <RI>
0

>  <Rbt.Current_Directory>
/home/itssahil/PROJECTS/Mol_Feturizer/New_Systems/rnas/2fcz

>  <Rbt.Executable>
rbdock ($Id: //depot/dev/client3/rdock/2013.1/src/exe/rbdock.cxx#4 $)

>  <Rbt.Library>
libRbt.so (2013.1, Build901 2013/11/27)

>  <Rbt.Parameter_File>
/export/apps/rDock/src/rDock_2013.1_src/data/scripts/dock_solv.prm

>  <Rbt.Receptor>
prm/pocket_docking_6.prm

>  <SCORE>
-16.5002

>  <SCORE.INTER>
-16.4544

>  <SCORE.INTER.CONST>
1

>  <SCORE.INTER.POLAR>
-1.63385

>  <SCORE.INTER.ROT>
6

>  <SCORE.INTER.SOLV>
17.9668

>  <SCORE.INTER.VDW>
-19.1124

>  <SCORE.INTER.norm>
-0.530787

>  <SCORE.INTRA>
-0.045792

>  <SCORE.INTRA.DIHEDRAL>
-4.92821

>  <SCORE.INTRA.DIHEDRAL.0>
10.8409

>  <SCORE.INTRA.POLAR>
0

>  <SCORE.INTRA.POLAR.0>
0

>  <SCORE.INTRA.REPUL>
0

>  <SCORE.INTRA.REPUL.0>
0

>  <SCORE.INTRA.SOLV>
0.0407281

>  <SCORE.INTRA.SOLV.lig_0>
-80.8302

>  <SCORE.INTRA.VDW>
2.39795

>  <SCORE.INTRA.VDW.0>
-4.23953

>  <SCORE.INTRA.norm>
-0.00147716

>  <SCORE.RESTR>
0

>  <SCORE.RESTR.CAVITY>
0

>  <SCORE.RESTR.norm>
0

>  <SCORE.SYSTEM>
0

>  <SCORE.SYSTEM.CONST>
0

>  <SCORE.SYSTEM.DIHEDRAL>
0

>  <SCORE.SYSTEM.SOLV>
0

>  <SCORE.SYSTEM.norm>
0

>  <SCORE.heavy>
31

>  <SCORE.norm>
-0.532264

>  <RMSD>
5.356

$$$$
2fcz_lig
 OpenBabel11021811433D
libRbt.so/2013.1/901 2013/11/27
 31 33  0  0  0  0  0  0  0  0999 V2000
   13.0540   22.7243   34.1492 C   0  0  0  0  0  0  0  0  0  0  0  0
   10.0360   17.2886   40.2543 N   0  0  0  0  0  0  0  0  0  0  0  0
   13.0265   21.3984   33.6137 O   0  0  0  0  0  0  0  0  0  0  0  0
   12.9381   22.6653   35.6761 C   0  0  1  0  0  0  0  0  0  0  0  0
    7.8625   16.5305   35.9359 N   0  0  0  0  0  0  0  0  0  0  0  0
   11.8604   21.8040   36.0962 O   0  0  0  0  0  0  0  0  0  0  0  0
   12.4020   20.5969   36.6683 C   0  0  1  0  0  0  0  0  0  0  0  0
   11.9567   15.9015   33.1890 N   0  0  0  0  0  0  0  0  0  0  0  0
   11.7362   19.4133   36.1960 O   0  0  0  0  0  0  0  0  0  0  0  0
   10.5353   19.0842   36.9146 C   0  0  2  0  0  0  0  0  0  0  0  0
    8.3830   21.1694   33.5641 N   0  0  0  0  0  0  0  0  0  0  0  0
   11.6008   19.3317   39.0727 O   0  0  0  0  0  0  0  0  0  0  0  0
   10.9103   18.4009   38.2355 C   0  0  1  0  0  0  0  0  0  0  0  0
    9.0881   18.8634   34.9346 O   0  0  0  0  0  0  0  0  0  0  0  0
    9.6647   17.9022   38.9718 C   0  0  1  0  0  0  0  0  0  0  0  0
   10.8495   18.3793   33.4392 O   0  0  0  0  0  0  0  0  0  0  0  0
    8.9197   16.8792   38.1115 C   0  0  0  0  0  0  0  0  0  0  0  0
    8.6455   17.2391   30.7170 O   0  0  0  0  0  0  0  0  0  0  0  0
    8.4894   17.5421   36.8014 C   0  0  1  0  0  0  0  0  0  0  0  0
    7.8829   19.9941   31.0022 O   0  0  0  0  0  0  0  0  0  0  0  0
    9.6686   18.1703   36.0506 C   0  0  2  0  0  0  0  0  0  0  0  0
   14.7077   19.7896   37.0515 O   0  0  0  0  0  0  0  0  0  0  0  0
   10.0529   19.4224   34.0312 C   0  0  1  0  0  0  0  0  0  0  0  0
   14.3658   22.4860   37.6527 O   0  0  0  0  0  0  0  0  0  0  0  0
   10.1044   17.4344   32.6518 C   0  0  2  0  0  0  0  0  0  0  0  0
   11.0684   16.3727   32.1166 C   0  0  0  0  0  0  0  0  0  0  0  0
    9.4172   18.1625   31.4911 C   0  0  2  0  0  0  0  0  0  0  0  0
    8.4965   19.2459   32.0569 C   0  0  1  0  0  0  0  0  0  0  0  0
    9.2975   20.1984   32.9475 C   0  0  1  0  0  0  0  0  0  0  0  0
   13.8626   20.5851   36.2146 C   0  0  2  0  0  0  0  0  0  0  0  0
   14.2043   22.0719   36.2936 C   0  0  1  0  0  0  0  0  0  0  0  0
  3  1  1  0  0  0  0
  4  1  1  6  0  0  0
  4  6  1  0  0  0  0
  4 31  1  0  0  0  0
  6  7  1  0  0  0  0
  7  9  1  6  0  0  0
  7 30  1  0  0  0  0
 10  9  1  6  0  0  0
 10 13  1  0  0  0  0
 10 21  1  0  0  0  0
 13 12  1  1  0  0  0
 13 15  1  0  0  0  0
 15  2  1  1  0  0  0
 15 17  1  0  0  0  0
 16 25  1  0  0  0  0
 17 19  1  0  0  0  0
 19  5  1  6  0  0  0
 19 21  1  0  0  0  0
 21 14  1  6  0  0  0
 23 14  1  1  0  0  0
 23 16  1  0  0  0  0
 23 29  1  0  0  0  0
 25 26  1  6  0  0  0
 25 27  1  0  0  0  0
 26  8  1  0  0  0  0
 27 18  1  1  0  0  0
 27 28  1  0  0  0  0
 28 20  1  6  0  0  0
 28 29  1  0  0  0  0
 29 11  1  1  0  0  0
 30 22  1  1  0  0  0
 30 31  1  0  0  0  0
 31 24  1  1  0  0  0
M  END
>  <CHROM.1>
-48.20640087,-84.40895755,-79.00308723,60.79180817,62.54528885,46.29744011
10.83784994,19.28299005,35.21360387,-0.66188632,-0.78608542,-1.29867214

>  <Name>
2fcz_lig

>  <RI>
2.29611e+07

>  <Rbt.Current_Directory>
/home/itssahil/PROJECTS/Mol_Feturizer/New_Systems/rnas/2fcz

>  <Rbt.Executable>
rbdock ($Id: //depot/dev/client3/rdock/2013.1/src/exe/rbdock.cxx#4 $)

>  <Rbt.Library>
libRbt.so (2013.1, Build901 2013/11/27)

>  <Rbt.Parameter_File>
/export/apps/rDock/src/rDock_2013.1_src/data/scripts/dock_solv.prm

>  <Rbt.Receptor>
prm/pocket_docking_3.prm

>  <SCORE>
-21.7897

>  <SCORE.INTER>
-19.4199

>  <SCORE.INTER.CONST>
1

>  <SCORE.INTER.POLAR>
-2.53039

>  <SCORE.INTER.ROT>
6

>  <SCORE.INTER.SOLV>
13.0559

>  <SCORE.INTER.VDW>
-16.4639

>  <SCORE.INTER.norm>
-0.62645

>  <SCORE.INTRA>
-2.36973

>  <SCORE.INTRA.DIHEDRAL>
-5.34997

>  <SCORE.INTRA.DIHEDRAL.0>
10.8409

>  <SCORE.INTRA.POLAR>
0

>  <SCORE.INTRA.POLAR.0>
0

>  <SCORE.INTRA.REPUL>
0.0416597

>  <SCORE.INTRA.REPUL.0>
0

>  <SCORE.INTRA.SOLV>
-2.85185

>  <SCORE.INTRA.SOLV.lig_0>
-80.8302

>  <SCORE.INTRA.VDW>
1.52289

>  <SCORE.INTRA.VDW.0>
-4.23953

>  <SCORE.INTRA.norm>
-0.0764428

>  <SCORE.RESTR>
0

>  <SCORE.RESTR.CAVITY>
0

>  <SCORE.RESTR.norm>
0

>  <SCORE.SYSTEM>
0

>  <SCORE.SYSTEM.CONST>
0

>  <SCORE.SYSTEM.DIHEDRAL>
0

>  <SCORE.SYSTEM.SOLV>
0

>  <SCORE.SYSTEM.norm>
0

>  <SCORE.heavy>
31

>  <SCORE.norm>
-0.702892

>  <RMSD>
5.420

$$$$
2fcz_lig
 OpenBabel11021811433D
libRbt.so/2013.1/901 2013/11/27
 31 33  0  0  0  0  0  0  0  0999 V2000
   13.9297   20.9047   35.3998 C   0  0  0  0  0  0  0  0  0  0  0  0
   11.0041   15.3612   33.2370 N   0  0  0  0  0  0  0  0  0  0  0  0
   12.7698   21.2951   36.1399 O   0  0  0  0  0  0  0  0  0  0  0  0
   13.5650   20.7397   33.9205 C   0  0  1  0  0  0  0  0  0  0  0  0
    8.5542   18.0686   29.9788 N   0  0  0  0  0  0  0  0  0  0  0  0
   12.4779   19.8096   33.7398 O   0  0  0  0  0  0  0  0  0  0  0  0
   11.2875   20.5266   33.3571 C   0  0  1  0  0  0  0  0  0  0  0  0
    8.6505   21.4841   27.1350 N   0  0  0  0  0  0  0  0  0  0  0  0
   10.1232   20.0928   34.0806 O   0  0  0  0  0  0  0  0  0  0  0  0
    9.5385   18.8766   33.5846 C   0  0  2  0  0  0  0  0  0  0  0  0
    6.1983   21.7053   33.1874 N   0  0  0  0  0  0  0  0  0  0  0  0
   10.8182   17.4881   35.0973 O   0  0  0  0  0  0  0  0  0  0  0  0
   10.5583   17.7384   33.7138 C   0  0  1  0  0  0  0  0  0  0  0  0
    7.9878   19.9494   32.0009 O   0  0  0  0  0  0  0  0  0  0  0  0
   10.0354   16.4531   33.0679 C   0  0  1  0  0  0  0  0  0  0  0  0
    9.0712   21.6792   30.8147 O   0  0  0  0  0  0  0  0  0  0  0  0
    9.7766   16.6816   31.5771 C   0  0  0  0  0  0  0  0  0  0  0  0
    6.3704   22.1067   28.3467 O   0  0  0  0  0  0  0  0  0  0  0  0
    8.7269   17.7824   31.4119 C   0  0  1  0  0  0  0  0  0  0  0  0
    5.0645   22.8163   30.8052 O   0  0  0  0  0  0  0  0  0  0  0  0
    9.1222   19.0779   32.1289 C   0  0  2  0  0  0  0  0  0  0  0  0
   10.8038   22.9193   32.9624 O   0  0  0  0  0  0  0  0  0  0  0  0
    8.3234   21.3447   31.9987 C   0  0  1  0  0  0  0  0  0  0  0  0
   13.2471   22.0970   31.9119 O   0  0  0  0  0  0  0  0  0  0  0  0
    8.3632   21.4636   29.5817 C   0  0  2  0  0  0  0  0  0  0  0  0
    9.2854   21.8278   28.4156 C   0  0  0  0  0  0  0  0  0  0  0  0
    7.1023   22.3348   29.5549 C   0  0  2  0  0  0  0  0  0  0  0  0
    6.2243   21.9790   30.7566 C   0  0  1  0  0  0  0  0  0  0  0  0
    7.0202   22.1484   32.0527 C   0  0  1  0  0  0  0  0  0  0  0  0
   11.5968   21.9846   33.7005 C   0  0  2  0  0  0  0  0  0  0  0  0
   13.0770   22.0632   33.3314 C   0  0  1  0  0  0  0  0  0  0  0  0
  3  1  1  0  0  0  0
  4  1  1  1  0  0  0
  4  6  1  0  0  0  0
  4 31  1  0  0  0  0
  6  7  1  0  0  0  0
  7  9  1  1  0  0  0
  7 30  1  0  0  0  0
 10  9  1  6  0  0  0
 10 13  1  0  0  0  0
 10 21  1  0  0  0  0
 13 12  1  1  0  0  0
 13 15  1  0  0  0  0
 15  2  1  6  0  0  0
 15 17  1  0  0  0  0
 16 25  1  0  0  0  0
 17 19  1  0  0  0  0
 19  5  1  6  0  0  0
 19 21  1  0  0  0  0
 21 14  1  1  0  0  0
 23 14  1  6  0  0  0
 23 16  1  0  0  0  0
 23 29  1  0  0  0  0
 25 26  1  6  0  0  0
 25 27  1  0  0  0  0
 26  8  1  0  0  0  0
 27 18  1  6  0  0  0
 27 28  1  0  0  0  0
 28 20  1  1  0  0  0
 28 29  1  0  0  0  0
 29 11  1  1  0  0  0
 30 22  1  6  0  0  0
 30 31  1  0  0  0  0
 31 24  1  6  0  0  0
M  END
>  <CHROM.1>
-55.57615162,-79.62647801,61.79457503,84.00738243,66.81502943,173.89916059
9.71001309,20.37976571,32.17608176,-0.43611450,-0.66288042,-0.19688033

>  <Name>
2fcz_lig

>  <RI>
2.26996e+07

>  <Rbt.Current_Directory>
/home/itssahil/PROJECTS/Mol_Feturizer/New_Systems/rnas/2fcz

>  <Rbt.Executable>
rbdock ($Id: //depot/dev/client3/rdock/2013.1/src/exe/rbdock.cxx#4 $)

>  <Rbt.Library>
libRbt.so (2013.1, Build901 2013/11/27)

>  <Rbt.Parameter_File>
/export/apps/rDock/src/rDock_2013.1_src/data/scripts/dock_solv.prm

>  <Rbt.Receptor>
prm/pocket_docking_4.prm

>  <SCORE>
-10.144

>  <SCORE.INTER>
-8.48657

>  <SCORE.INTER.CONST>
1

>  <SCORE.INTER.POLAR>
-0.673553

>  <SCORE.INTER.ROT>
6

>  <SCORE.INTER.SOLV>
17.9652

>  <SCORE.INTER.VDW>
-17.0009

>  <SCORE.INTER.norm>
-0.27376

>  <SCORE.INTRA>
-1.67046

>  <SCORE.INTRA.DIHEDRAL>
-6.08436

>  <SCORE.INTRA.DIHEDRAL.0>
10.8409

>  <SCORE.INTRA.POLAR>
0

>  <SCORE.INTRA.POLAR.0>
0

>  <SCORE.INTRA.REPUL>
0

>  <SCORE.INTRA.REPUL.0>
0

>  <SCORE.INTRA.SOLV>
-0.44464

>  <SCORE.INTRA.SOLV.lig_0>
-80.8302

>  <SCORE.INTRA.VDW>
1.59404

>  <SCORE.INTRA.VDW.0>
-4.23953

>  <SCORE.INTRA.norm>
-0.0538857

>  <SCORE.RESTR>
0.0130634

>  <SCORE.RESTR.CAVITY>
0.0130634

>  <SCORE.RESTR.norm>
0.000421399

>  <SCORE.SYSTEM>
0

>  <SCORE.SYSTEM.CONST>
0

>  <SCORE.SYSTEM.DIHEDRAL>
0

>  <SCORE.SYSTEM.SOLV>
0

>  <SCORE.SYSTEM.norm>
0

>  <SCORE.heavy>
31

>  <SCORE.norm>
-0.327225

>  <RMSD>
5.423

$$$$
2fcz_lig
 OpenBabel11021811433D
libRbt.so/2013.1/901 2013/11/27
 31 33  0  0  0  0  0  0  0  0999 V2000
   11.8522   23.2829   34.0854 C   0  0  0  0  0  0  0  0  0  0  0  0
   10.7145   17.4191   39.9816 N   0  0  0  0  0  0  0  0  0  0  0  0
   11.8152   22.0970   33.2867 O   0  0  0  0  0  0  0  0  0  0  0  0
   12.3896   22.9473   35.4808 C   0  0  1  0  0  0  0  0  0  0  0  0
    8.1238   16.3509   35.9698 N   0  0  0  0  0  0  0  0  0  0  0  0
   11.6593   21.8612   36.0863 O   0  0  0  0  0  0  0  0  0  0  0  0
   12.4860   20.6807   36.1161 C   0  0  1  0  0  0  0  0  0  0  0  0
   11.9524   15.7588   33.0715 N   0  0  0  0  0  0  0  0  0  0  0  0
   11.7820   19.5010   35.6920 O   0  0  0  0  0  0  0  0  0  0  0  0
   10.6980   19.1175   36.5549 C   0  0  2  0  0  0  0  0  0  0  0  0
    7.9529   20.8033   33.2970 N   0  0  0  0  0  0  0  0  0  0  0  0
   11.9817   19.5189   38.5661 O   0  0  0  0  0  0  0  0  0  0  0  0
   11.2697   18.5119   37.8428 C   0  0  1  0  0  0  0  0  0  0  0  0
    9.0544   18.7231   34.7642 O   0  0  0  0  0  0  0  0  0  0  0  0
   10.1557   17.9569   38.7335 C   0  0  1  0  0  0  0  0  0  0  0  0
   10.7449   18.3396   33.1617 O   0  0  0  0  0  0  0  0  0  0  0  0
    9.3938   16.8533   37.9963 C   0  0  0  0  0  0  0  0  0  0  0  0
    8.5077   16.7149   30.7280 O   0  0  0  0  0  0  0  0  0  0  0  0
    8.7700   17.4351   36.7262 C   0  0  1  0  0  0  0  0  0  0  0  0
    7.4168   19.3683   30.8788 O   0  0  0  0  0  0  0  0  0  0  0  0
    9.8071   18.1142   35.8251 C   0  0  2  0  0  0  0  0  0  0  0  0
   14.7981   20.2121   35.3749 O   0  0  0  0  0  0  0  0  0  0  0  0
    9.8667   19.3210   33.7434 C   0  0  1  0  0  0  0  0  0  0  0  0
   14.5215   22.6734   36.6458 O   0  0  0  0  0  0  0  0  0  0  0  0
   10.0715   17.2480   32.5112 C   0  0  2  0  0  0  0  0  0  0  0  0
   11.1221   16.2736   31.9730 C   0  0  0  0  0  0  0  0  0  0  0  0
    9.2091   17.7874   31.3645 C   0  0  2  0  0  0  0  0  0  0  0  0
    8.2010   18.7912   31.9279 C   0  0  1  0  0  0  0  0  0  0  0  0
    8.9365   19.9056   32.6756 C   0  0  1  0  0  0  0  0  0  0  0  0
   13.6195   20.9876   35.1361 C   0  0  2  0  0  0  0  0  0  0  0  0
   13.8414   22.4750   35.4036 C   0  0  1  0  0  0  0  0  0  0  0  0
  3  1  1  0  0  0  0
  4  1  1  6  0  0  0
  4  6  1  0  0  0  0
  4 31  1  0  0  0  0
  6  7  1  0  0  0  0
  7  9  1  6  0  0  0
  7 30  1  0  0  0  0
 10  9  1  6  0  0  0
 10 13  1  0  0  0  0
 10 21  1  0  0  0  0
 13 12  1  1  0  0  0
 13 15  1  0  0  0  0
 15  2  1  1  0  0  0
 15 17  1  0  0  0  0
 16 25  1  0  0  0  0
 17 19  1  0  0  0  0
 19  5  1  6  0  0  0
 19 21  1  0  0  0  0
 21 14  1  6  0  0  0
 23 14  1  1  0  0  0
 23 16  1  0  0  0  0
 23 29  1  0  0  0  0
 25 26  1  6  0  0  0
 25 27  1  0  0  0  0
 26  8  1  0  0  0  0
 27 18  1  1  0  0  0
 27 28  1  0  0  0  0
 28 20  1  6  0  0  0
 28 29  1  0  0  0  0
 29 11  1  1  0  0  0
 30 22  1  1  0  0  0
 30 31  1  0  0  0  0
 31 24  1  1  0  0  0
M  END
>  <CHROM.1>
-52.94576017,-64.68171242,-73.73310676,60.36542462,58.19142217,59.67709299
10.75727505,19.28433454,34.86995598,-0.40223305,-0.88424732,-1.15140924

>  <Name>
2fcz_lig

>  <RI>
0

>  <Rbt.Current_Directory>
/home/itssahil/PROJECTS/Mol_Feturizer/New_Systems/rnas/2fcz

>  <Rbt.Executable>
rbdock ($Id: //depot/dev/client3/rdock/2013.1/src/exe/rbdock.cxx#4 $)

>  <Rbt.Library>
libRbt.so (2013.1, Build901 2013/11/27)

>  <Rbt.Parameter_File>
/export/apps/rDock/src/rDock_2013.1_src/data/scripts/dock_solv.prm

>  <Rbt.Receptor>
prm/pocket_docking_5.prm

>  <SCORE>
-22.4252

>  <SCORE.INTER>
-18.1279

>  <SCORE.INTER.CONST>
1

>  <SCORE.INTER.POLAR>
-1.97897

>  <SCORE.INTER.ROT>
6

>  <SCORE.INTER.SOLV>
12.6358

>  <SCORE.INTER.VDW>
-17.3006

>  <SCORE.INTER.norm>
-0.58477

>  <SCORE.INTRA>
-4.29732

>  <SCORE.INTRA.DIHEDRAL>
-9.49099

>  <SCORE.INTRA.DIHEDRAL.0>
10.8409

>  <SCORE.INTRA.POLAR>
0

>  <SCORE.INTRA.POLAR.0>
0

>  <SCORE.INTRA.REPUL>
0

>  <SCORE.INTRA.REPUL.0>
0

>  <SCORE.INTRA.SOLV>
-2.84367

>  <SCORE.INTRA.SOLV.lig_0>
-80.8302

>  <SCORE.INTRA.VDW>
1.87001

>  <SCORE.INTRA.VDW.0>
-4.23953

>  <SCORE.INTRA.norm>
-0.138623

>  <SCORE.RESTR>
0

>  <SCORE.RESTR.CAVITY>
0

>  <SCORE.RESTR.norm>
0

>  <SCORE.SYSTEM>
0

>  <SCORE.SYSTEM.CONST>
0

>  <SCORE.SYSTEM.DIHEDRAL>
0

>  <SCORE.SYSTEM.SOLV>
0

>  <SCORE.SYSTEM.norm>
0

>  <SCORE.heavy>
31

>  <SCORE.norm>
-0.723393

>  <RMSD>
5.423

$$$$
2fcz_lig
 OpenBabel11021811433D
libRbt.so/2013.1/901 2013/11/27
 31 33  0  0  0  0  0  0  0  0999 V2000
   13.9716   19.8198   35.9880 C   0  0  0  0  0  0  0  0  0  0  0  0
   15.0948   23.4181   28.5133 N   0  0  0  0  0  0  0  0  0  0  0  0
   14.4324   19.4843   37.2997 O   0  0  0  0  0  0  0  0  0  0  0  0
   15.1264   20.4111   35.1722 C   0  0  1  0  0  0  0  0  0  0  0  0
   10.3357   22.6542   29.3584 N   0  0  0  0  0  0  0  0  0  0  0  0
   14.7102   20.7639   33.8373 O   0  0  0  0  0  0  0  0  0  0  0  0
   14.6515   22.1988   33.7131 C   0  0  1  0  0  0  0  0  0  0  0  0
    6.7035   20.0072   29.6714 N   0  0  0  0  0  0  0  0  0  0  0  0
   13.4567   22.6488   33.0520 O   0  0  0  0  0  0  0  0  0  0  0  0
   13.3359   22.2115   31.6877 C   0  0  2  0  0  0  0  0  0  0  0  0
    9.9035   22.2000   34.2958 N   0  0  0  0  0  0  0  0  0  0  0  0
   15.6556   22.6865   31.1908 O   0  0  0  0  0  0  0  0  0  0  0  0
   14.3141   23.0079   30.8152 C   0  0  1  0  0  0  0  0  0  0  0  0
   10.9862   21.4912   31.8426 O   0  0  0  0  0  0  0  0  0  0  0  0
   14.1231   22.6806   29.3324 C   0  0  1  0  0  0  0  0  0  0  0  0
    8.8598   21.2791   30.8394 O   0  0  0  0  0  0  0  0  0  0  0  0
   12.7030   23.0432   28.8926 C   0  0  0  0  0  0  0  0  0  0  0  0
    8.0523   18.0857   32.4881 O   0  0  0  0  0  0  0  0  0  0  0  0
   11.6995   22.2305   29.7133 C   0  0  1  0  0  0  0  0  0  0  0  0
    8.2800   19.8807   34.7195 O   0  0  0  0  0  0  0  0  0  0  0  0
   11.8953   22.4140   31.2221 C   0  0  2  0  0  0  0  0  0  0  0  0
   15.1220   24.0556   35.2770 O   0  0  0  0  0  0  0  0  0  0  0  0
    9.6240   21.9421   31.8639 C   0  0  1  0  0  0  0  0  0  0  0  0
   16.9785   21.9867   35.4262 O   0  0  0  0  0  0  0  0  0  0  0  0
    8.7825   19.8504   30.9840 C   0  0  2  0  0  0  0  0  0  0  0  0
    7.9739   19.2816   29.8153 C   0  0  0  0  0  0  0  0  0  0  0  0
    8.1073   19.5051   32.3160 C   0  0  2  0  0  0  0  0  0  0  0  0
    8.9131   20.1254   33.4594 C   0  0  1  0  0  0  0  0  0  0  0  0
    9.0421   21.6355   33.2475 C   0  0  1  0  0  0  0  0  0  0  0  0
   14.6662   22.7046   35.1565 C   0  0  2  0  0  0  0  0  0  0  0  0
   15.6274   21.7097   35.8042 C   0  0  1  0  0  0  0  0  0  0  0  0
  3  1  1  0  0  0  0
  4  1  1  1  0  0  0
  4  6  1  0  0  0  0
  4 31  1  0  0  0  0
  6  7  1  0  0  0  0
  7  9  1  1  0  0  0
  7 30  1  0  0  0  0
 10  9  1  1  0  0  0
 10 13  1  0  0  0  0
 10 21  1  0  0  0  0
 13 12  1  1  0  0  0
 13 15  1  0  0  0  0
 15  2  1  6  0  0  0
 15 17  1  0  0  0  0
 16 25  1  0  0  0  0
 17 19  1  0  0  0  0
 19  5  1  6  0  0  0
 19 21  1  0  0  0  0
 21 14  1  1  0  0  0
 23 14  1  1  0  0  0
 23 16  1  0  0  0  0
 23 29  1  0  0  0  0
 25 26  1  6  0  0  0
 25 27  1  0  0  0  0
 26  8  1  0  0  0  0
 27 18  1  1  0  0  0
 27 28  1  0  0  0  0
 28 20  1  1  0  0  0
 28 29  1  0  0  0  0
 29 11  1  1  0  0  0
 30 22  1  6  0  0  0
 30 31  1  0  0  0  0
 31 24  1  6  0  0  0
M  END
>  <CHROM.1>
179.89314585,-63.46929680,-73.75859299,156.99682635,102.34013122,-50.45628525
12.06111298,21.44975620,32.53461586,0.31911141,0.36994114,1.92706736

>  <Name>
2fcz_lig

>  <RI>
1.40544e+07

>  <Rbt.Current_Directory>
/home/itssahil/PROJECTS/Mol_Feturizer/New_Systems/rnas/2fcz

>  <Rbt.Executable>
rbdock ($Id: //depot/dev/client3/rdock/2013.1/src/exe/rbdock.cxx#4 $)

>  <Rbt.Library>
libRbt.so (2013.1, Build901 2013/11/27)

>  <Rbt.Parameter_File>
/export/apps/rDock/src/rDock_2013.1_src/data/scripts/dock_solv.prm

>  <Rbt.Receptor>
prm/blind_docking_100.prm

>  <SCORE>
-13.7611

>  <SCORE.INTER>
-16.2228

>  <SCORE.INTER.CONST>
1

>  <SCORE.INTER.POLAR>
-1.77051

>  <SCORE.INTER.ROT>
6

>  <SCORE.INTER.SOLV>
21.3401

>  <SCORE.INTER.VDW>
-19.6269

>  <SCORE.INTER.norm>
-0.523317

>  <SCORE.INTRA>
2.44245

>  <SCORE.INTRA.DIHEDRAL>
-1.38425

>  <SCORE.INTRA.DIHEDRAL.0>
10.8409

>  <SCORE.INTRA.POLAR>
0

>  <SCORE.INTRA.POLAR.0>
0

>  <SCORE.INTRA.REPUL>
0

>  <SCORE.INTRA.REPUL.0>
0

>  <SCORE.INTRA.SOLV>
0.205797

>  <SCORE.INTRA.SOLV.lig_0>
-80.8302

>  <SCORE.INTRA.VDW>
3.03168

>  <SCORE.INTRA.VDW.0>
-4.23953

>  <SCORE.INTRA.norm>
0.0787888

>  <SCORE.RESTR>
0.0193099

>  <SCORE.RESTR.CAVITY>
0.0193099

>  <SCORE.RESTR.norm>
0.000622899

>  <SCORE.SYSTEM>
0

>  <SCORE.SYSTEM.CONST>
0

>  <SCORE.SYSTEM.DIHEDRAL>
0

>  <SCORE.SYSTEM.SOLV>
0

>  <SCORE.SYSTEM.norm>
0

>  <SCORE.heavy>
31

>  <SCORE.norm>
-0.443905

>  <RMSD>
5.461

$$$$
2fcz_lig
 OpenBabel11021811433D
libRbt.so/2013.1/901 2013/11/27
 31 33  0  0  0  0  0  0  0  0999 V2000
   12.1056   22.3595   34.9625 C   0  0  0  0  0  0  0  0  0  0  0  0
    8.3238   16.7945   39.9094 N   0  0  0  0  0  0  0  0  0  0  0  0
   11.7775   23.7511   34.9991 O   0  0  0  0  0  0  0  0  0  0  0  0
   12.1155   21.7953   36.3873 C   0  0  1  0  0  0  0  0  0  0  0  0
    6.4312   16.1314   35.4455 N   0  0  0  0  0  0  0  0  0  0  0  0
   10.9595   20.9719   36.6428 O   0  0  0  0  0  0  0  0  0  0  0  0
   11.3578   19.5882   36.7111 C   0  0  1  0  0  0  0  0  0  0  0  0
   10.9779   15.4721   32.9941 N   0  0  0  0  0  0  0  0  0  0  0  0
   10.4801   18.7224   35.9713 O   0  0  0  0  0  0  0  0  0  0  0  0
    9.2071   18.4949   36.5995 C   0  0  2  0  0  0  0  0  0  0  0  0
    7.2449   20.7286   33.2488 N   0  0  0  0  0  0  0  0  0  0  0  0
   10.1225   18.6967   38.8300 O   0  0  0  0  0  0  0  0  0  0  0  0
    9.4290   17.8066   37.9520 C   0  0  1  0  0  0  0  0  0  0  0  0
    7.9008   18.3506   34.5170 O   0  0  0  0  0  0  0  0  0  0  0  0
    8.0974   17.4135   38.5961 C   0  0  1  0  0  0  0  0  0  0  0  0
    9.9071   18.1219   33.2942 O   0  0  0  0  0  0  0  0  0  0  0  0
    7.3445   16.4351   37.6919 C   0  0  0  0  0  0  0  0  0  0  0  0
    8.2521   17.1117   30.1623 O   0  0  0  0  0  0  0  0  0  0  0  0
    7.0654   17.1073   36.3461 C   0  0  1  0  0  0  0  0  0  0  0  0
    7.2451   19.7742   30.5499 O   0  0  0  0  0  0  0  0  0  0  0  0
    8.3417   17.6342   35.6812 C   0  0  2  0  0  0  0  0  0  0  0  0
   13.5373   18.4397   36.4976 O   0  0  0  0  0  0  0  0  0  0  0  0
    8.9497   19.0522   33.8337 C   0  0  1  0  0  0  0  0  0  0  0  0
   13.6658   20.7879   37.9872 O   0  0  0  0  0  0  0  0  0  0  0  0
    9.3696   17.2119   32.3189 C   0  0  2  0  0  0  0  0  0  0  0  0
   10.4843   16.2681   31.8610 C   0  0  0  0  0  0  0  0  0  0  0  0
    8.8195   18.0032   31.1270 C   0  0  2  0  0  0  0  0  0  0  0  0
    7.7410   18.9684   31.6239 C   0  0  1  0  0  0  0  0  0  0  0  0
    8.3167   19.8795   32.7104 C   0  0  1  0  0  0  0  0  0  0  0  0
   12.7543   19.5650   36.0876 C   0  0  2  0  0  0  0  0  0  0  0  0
   13.3250   20.8853   36.6018 C   0  0  1  0  0  0  0  0  0  0  0  0
  3  1  1  0  0  0  0
  4  1  1  6  0  0  0
  4  6  1  0  0  0  0
  4 31  1  0  0  0  0
  6  7  1  0  0  0  0
  7  9  1  6  0  0  0
  7 30  1  0  0  0  0
 10  9  1  6  0  0  0
 10 13  1  0  0  0  0
 10 21  1  0  0  0  0
 13 12  1  1  0  0  0
 13 15  1  0  0  0  0
 15  2  1  1  0  0  0
 15 17  1  0  0  0  0
 16 25  1  0  0  0  0
 17 19  1  0  0  0  0
 19  5  1  6  0  0  0
 19 21  1  0  0  0  0
 21 14  1  6  0  0  0
 23 14  1  6  0  0  0
 23 16  1  0  0  0  0
 23 29  1  0  0  0  0
 25 26  1  6  0  0  0
 25 27  1  0  0  0  0
 26  8  1  0  0  0  0
 27 18  1  6  0  0  0
 27 28  1  0  0  0  0
 28 20  1  6  0  0  0
 28 29  1  0  0  0  0
 29 11  1  1  0  0  0
 30 22  1  1  0  0  0
 30 31  1  0  0  0  0
 31 24  1  1  0  0  0
M  END
>  <CHROM.1>
106.11661029,-74.11911191,-61.81309897,48.75358313,64.85900472,61.98052415
9.76327838,18.81474816,35.09162598,-0.73670080,-0.76633290,-1.32786315

>  <Name>
2fcz_lig

>  <RI>
2.29611e+07

>  <Rbt.Current_Directory>
/home/itssahil/PROJECTS/Mol_Feturizer/New_Systems/rnas/2fcz

>  <Rbt.Executable>
rbdock ($Id: //depot/dev/client3/rdock/2013.1/src/exe/rbdock.cxx#4 $)

>  <Rbt.Library>
libRbt.so (2013.1, Build901 2013/11/27)

>  <Rbt.Parameter_File>
/export/apps/rDock/src/rDock_2013.1_src/data/scripts/dock_solv.prm

>  <Rbt.Receptor>
prm/pocket_docking_3.prm

>  <SCORE>
-17.3019

>  <SCORE.INTER>
-16.9187

>  <SCORE.INTER.CONST>
1

>  <SCORE.INTER.POLAR>
-1.86559

>  <SCORE.INTER.ROT>
6

>  <SCORE.INTER.SOLV>
23.1032

>  <SCORE.INTER.VDW>
-20.3615

>  <SCORE.INTER.norm>
-0.545764

>  <SCORE.INTRA>
-0.383216

>  <SCORE.INTRA.DIHEDRAL>
-4.42542

>  <SCORE.INTRA.DIHEDRAL.0>
10.8409

>  <SCORE.INTRA.POLAR>
0

>  <SCORE.INTRA.POLAR.0>
0

>  <SCORE.INTRA.REPUL>
0

>  <SCORE.INTRA.REPUL.0>
0

>  <SCORE.INTRA.SOLV>
-4.29903

>  <SCORE.INTRA.SOLV.lig_0>
-80.8302

>  <SCORE.INTRA.VDW>
3.97901

>  <SCORE.INTRA.VDW.0>
-4.23953

>  <SCORE.INTRA.norm>
-0.0123618

>  <SCORE.RESTR>
0

>  <SCORE.RESTR.CAVITY>
0

>  <SCORE.RESTR.norm>
0

>  <SCORE.SYSTEM>
0

>  <SCORE.SYSTEM.CONST>
0

>  <SCORE.SYSTEM.DIHEDRAL>
0

>  <SCORE.SYSTEM.SOLV>
0

>  <SCORE.SYSTEM.norm>
0

>  <SCORE.heavy>
31

>  <SCORE.norm>
-0.558126

>  <RMSD>
5.468

$$$$
2fcz_lig
 OpenBabel11021811433D
libRbt.so/2013.1/901 2013/11/27
 31 33  0  0  0  0  0  0  0  0999 V2000
   13.7330   22.4210   29.1612 C   0  0  0  0  0  0  0  0  0  0  0  0
   13.9276   21.0488   37.7993 N   0  0  0  0  0  0  0  0  0  0  0  0
   13.3130   23.4341   28.2432 O   0  0  0  0  0  0  0  0  0  0  0  0
   14.3475   23.0746   30.4036 C   0  0  1  0  0  0  0  0  0  0  0  0
    9.5115   19.8845   36.0414 N   0  0  0  0  0  0  0  0  0  0  0  0
   13.4830   22.9555   31.5516 O   0  0  0  0  0  0  0  0  0  0  0  0
   14.0438   22.0084   32.4824 C   0  0  1  0  0  0  0  0  0  0  0  0
    6.4225   23.8839   31.4773 N   0  0  0  0  0  0  0  0  0  0  0  0
   13.0654   21.0853   32.9899 O   0  0  0  0  0  0  0  0  0  0  0  0
   12.5160   21.4497   34.2675 C   0  0  2  0  0  0  0  0  0  0  0  0
   10.4280   18.7514   32.3398 N   0  0  0  0  0  0  0  0  0  0  0  0
   14.6907   21.9233   35.2163 O   0  0  0  0  0  0  0  0  0  0  0  0
   13.5278   21.1053   35.3674 C   0  0  1  0  0  0  0  0  0  0  0  0
   10.1520   21.1924   33.6277 O   0  0  0  0  0  0  0  0  0  0  0  0
   12.9334   21.3418   36.7578 C   0  0  1  0  0  0  0  0  0  0  0  0
    7.7959   21.1195   33.5008 O   0  0  0  0  0  0  0  0  0  0  0  0
   11.7025   20.4556   36.9611 C   0  0  0  0  0  0  0  0  0  0  0  0
    7.6506   21.9118   29.9065 O   0  0  0  0  0  0  0  0  0  0  0  0
   10.6513   20.8054   35.9059 C   0  0  1  0  0  0  0  0  0  0  0  0
    9.0447   19.3999   29.9189 O   0  0  0  0  0  0  0  0  0  0  0  0
   11.2003   20.7030   34.4788 C   0  0  2  0  0  0  0  0  0  0  0  0
   16.1055   20.6431   32.4750 O   0  0  0  0  0  0  0  0  0  0  0  0
    9.0019   20.3361   33.5702 C   0  0  1  0  0  0  0  0  0  0  0  0
   16.4968   23.2418   31.5571 O   0  0  0  0  0  0  0  0  0  0  0  0
    7.6958   21.9578   32.3366 C   0  0  2  0  0  0  0  0  0  0  0  0
    6.3887   22.7507   32.4132 C   0  0  0  0  0  0  0  0  0  0  0  0
    7.7173   21.0881   31.0746 C   0  0  2  0  0  0  0  0  0  0  0  0
    9.0136   20.2754   31.0508 C   0  0  1  0  0  0  0  0  0  0  0  0
    9.1325   19.4451   32.3308 C   0  0  1  0  0  0  0  0  0  0  0  0
   15.0943   21.2529   31.6669 C   0  0  2  0  0  0  0  0  0  0  0  0
   15.6503   22.3772   30.7949 C   0  0  1  0  0  0  0  0  0  0  0  0
  3  1  1  0  0  0  0
  4  1  1  6  0  0  0
  4  6  1  0  0  0  0
  4 31  1  0  0  0  0
  6  7  1  0  0  0  0
  7  9  1  6  0  0  0
  7 30  1  0  0  0  0
 10  9  1  6  0  0  0
 10 13  1  0  0  0  0
 10 21  1  0  0  0  0
 13 12  1  6  0  0  0
 13 15  1  0  0  0  0
 15  2  1  1  0  0  0
 15 17  1  0  0  0  0
 16 25  1  0  0  0  0
 17 19  1  0  0  0  0
 19  5  1  6  0  0  0
 19 21  1  0  0  0  0
 21 14  1  6  0  0  0
 23 14  1  6  0  0  0
 23 16  1  0  0  0  0
 23 29  1  0  0  0  0
 25 26  1  1  0  0  0
 25 27  1  0  0  0  0
 26  8  1  0  0  0  0
 27 18  1  6  0  0  0
 27 28  1  0  0  0  0
 28 20  1  6  0  0  0
 28 29  1  0  0  0  0
 29 11  1  1  0  0  0
 30 22  1  1  0  0  0
 30 31  1  0  0  0  0
 31 24  1  1  0  0  0
M  END
>  <CHROM.1>
107.91688290,-96.85094610,-77.48539624,166.56224155,142.97301767,163.51941364
11.52521626,21.41612562,32.77946461,-0.06577375,-0.11635804,-1.32298601

>  <Name>
2fcz_lig

>  <RI>
0

>  <Rbt.Current_Directory>
/home/itssahil/PROJECTS/Mol_Feturizer/New_Systems/rnas/2fcz

>  <Rbt.Executable>
rbdock ($Id: //depot/dev/client3/rdock/2013.1/src/exe/rbdock.cxx#4 $)

>  <Rbt.Library>
libRbt.so (2013.1, Build901 2013/11/27)

>  <Rbt.Parameter_File>
/export/apps/rDock/src/rDock_2013.1_src/data/scripts/dock_solv.prm

>  <Rbt.Receptor>
prm/blind_docking_80.prm

>  <SCORE>
-10.6529

>  <SCORE.INTER>
-17.8428

>  <SCORE.INTER.CONST>
1

>  <SCORE.INTER.POLAR>
-1.73841

>  <SCORE.INTER.ROT>
6

>  <SCORE.INTER.SOLV>
19.2486

>  <SCORE.INTER.VDW>
-20.1166

>  <SCORE.INTER.norm>
-0.575573

>  <SCORE.INTRA>
7.1385

>  <SCORE.INTRA.DIHEDRAL>
6.90584

>  <SCORE.INTRA.DIHEDRAL.0>
10.8409

>  <SCORE.INTRA.POLAR>
0

>  <SCORE.INTRA.POLAR.0>
0

>  <SCORE.INTRA.REPUL>
0.00198164

>  <SCORE.INTRA.REPUL.0>
0

>  <SCORE.INTRA.SOLV>
0.252795

>  <SCORE.INTRA.SOLV.lig_0>
-80.8302

>  <SCORE.INTRA.VDW>
3.54928

>  <SCORE.INTRA.VDW.0>
-4.23953

>  <SCORE.INTRA.norm>
0.230274

>  <SCORE.RESTR>
0.0513568

>  <SCORE.RESTR.CAVITY>
0.0513568

>  <SCORE.RESTR.norm>
0.00165667

>  <SCORE.SYSTEM>
0

>  <SCORE.SYSTEM.CONST>
0

>  <SCORE.SYSTEM.DIHEDRAL>
0

>  <SCORE.SYSTEM.SOLV>
0

>  <SCORE.SYSTEM.norm>
0

>  <SCORE.heavy>
31

>  <SCORE.norm>
-0.343642

>  <RMSD>
5.475

$$$$
2fcz_lig
 OpenBabel11021811433D
libRbt.so/2013.1/901 2013/11/27
 31 33  0  0  0  0  0  0  0  0999 V2000
   11.6977   15.4407   39.6787 C   0  0  0  0  0  0  0  0  0  0  0  0
    9.7456   13.2473   34.8227 N   0  0  0  0  0  0  0  0  0  0  0  0
   11.3994   14.1104   39.2466 O   0  0  0  0  0  0  0  0  0  0  0  0
   12.4934   16.1694   38.5904 C   0  0  1  0  0  0  0  0  0  0  0  0
   11.5619   16.9914   32.2478 N   0  0  0  0  0  0  0  0  0  0  0  0
   11.7476   16.2675   37.3601 O   0  0  0  0  0  0  0  0  0  0  0  0
   11.3288   17.6317   37.1567 C   0  0  1  0  0  0  0  0  0  0  0  0
   15.0261   20.6460   33.6372 N   0  0  0  0  0  0  0  0  0  0  0  0
    9.9542   17.7335   36.7476 O   0  0  0  0  0  0  0  0  0  0  0  0
    9.6375   17.0000   35.5524 C   0  0  2  0  0  0  0  0  0  0  0  0
    8.5055   20.9529   33.9263 N   0  0  0  0  0  0  0  0  0  0  0  0
    8.8397   15.0770   36.7850 O   0  0  0  0  0  0  0  0  0  0  0  0
    9.8083   15.4999   35.8221 C   0  0  1  0  0  0  0  0  0  0  0  0
   10.2398   18.7888   33.9708 O   0  0  0  0  0  0  0  0  0  0  0  0
    9.6216   14.6841   34.5407 C   0  0  1  0  0  0  0  0  0  0  0  0
   11.8030   19.9266   35.3253 O   0  0  0  0  0  0  0  0  0  0  0  0
   10.6660   15.0935   33.4999 C   0  0  0  0  0  0  0  0  0  0  0  0
   13.0454   22.0935   32.6181 O   0  0  0  0  0  0  0  0  0  0  0  0
   10.4942   16.5781   33.1723 C   0  0  1  0  0  0  0  0  0  0  0  0
   10.2951   22.8973   32.8258 O   0  0  0  0  0  0  0  0  0  0  0  0
   10.5554   17.4624   34.4225 C   0  0  2  0  0  0  0  0  0  0  0  0
   11.6512   19.7140   38.4509 O   0  0  0  0  0  0  0  0  0  0  0  0
   10.4126   19.8012   34.9730 C   0  0  1  0  0  0  0  0  0  0  0  0
   13.9343   18.1264   38.3233 O   0  0  0  0  0  0  0  0  0  0  0  0
   12.6591   20.3250   34.2407 C   0  0  2  0  0  0  0  0  0  0  0  0
   14.1014   20.3847   34.7499 C   0  0  0  0  0  0  0  0  0  0  0  0
   12.2217   21.6984   33.7194 C   0  0  2  0  0  0  0  0  0  0  0  0
   10.7640   21.6170   33.2611 C   0  0  1  0  0  0  0  0  0  0  0  0
    9.8823   21.1240   34.4106 C   0  0  1  0  0  0  0  0  0  0  0  0
   11.5121   18.2918   38.5243 C   0  0  2  0  0  0  0  0  0  0  0  0
   12.7903   17.6095   39.0081 C   0  0  1  0  0  0  0  0  0  0  0  0
  3  1  1  0  0  0  0
  4  1  1  1  0  0  0
  4  6  1  0  0  0  0
  4 31  1  0  0  0  0
  6  7  1  0  0  0  0
  7  9  1  1  0  0  0
  7 30  1  0  0  0  0
 10  9  1  1  0  0  0
 10 13  1  0  0  0  0
 10 21  1  0  0  0  0
 13 12  1  1  0  0  0
 13 15  1  0  0  0  0
 15  2  1  1  0  0  0
 15 17  1  0  0  0  0
 16 25  1  0  0  0  0
 17 19  1  0  0  0  0
 19  5  1  6  0  0  0
 19 21  1  0  0  0  0
 21 14  1  6  0  0  0
 23 14  1  6  0  0  0
 23 16  1  0  0  0  0
 23 29  1  0  0  0  0
 25 26  1  1  0  0  0
 25 27  1  0  0  0  0
 26  8  1  0  0  0  0
 27 18  1  6  0  0  0
 27 28  1  0  0  0  0
 28 20  1  1  0  0  0
 28 29  1  0  0  0  0
 29 11  1  6  0  0  0
 30 22  1  6  0  0  0
 30 31  1  0  0  0  0
 31 24  1  6  0  0  0
M  END
>  <CHROM.1>
60.82520545,-56.87036051,65.23400607,62.92766912,65.88154199,173.86419069
11.24813653,18.17199014,35.56460488,-1.75554583,-0.95243197,-0.74161312

>  <Name>
2fcz_lig

>  <RI>
2.26996e+07

>  <Rbt.Current_Directory>
/home/itssahil/PROJECTS/Mol_Feturizer/New_Systems/rnas/2fcz

>  <Rbt.Executable>
rbdock ($Id: //depot/dev/client3/rdock/2013.1/src/exe/rbdock.cxx#4 $)

>  <Rbt.Library>
libRbt.so (2013.1, Build901 2013/11/27)

>  <Rbt.Parameter_File>
/export/apps/rDock/src/rDock_2013.1_src/data/scripts/dock_solv.prm

>  <Rbt.Receptor>
prm/pocket_docking_4.prm

>  <SCORE>
-15.143

>  <SCORE.INTER>
-12.186

>  <SCORE.INTER.CONST>
1

>  <SCORE.INTER.POLAR>
-2.59941

>  <SCORE.INTER.ROT>
6

>  <SCORE.INTER.SOLV>
10.7205

>  <SCORE.INTER.VDW>
-10.6328

>  <SCORE.INTER.norm>
-0.393095

>  <SCORE.INTRA>
-2.95701

>  <SCORE.INTRA.DIHEDRAL>
-10.1554

>  <SCORE.INTRA.DIHEDRAL.0>
10.8409

>  <SCORE.INTRA.POLAR>
0

>  <SCORE.INTRA.POLAR.0>
0

>  <SCORE.INTRA.REPUL>
0

>  <SCORE.INTRA.REPUL.0>
0

>  <SCORE.INTRA.SOLV>
-1.88911

>  <SCORE.INTRA.SOLV.lig_0>
-80.8302

>  <SCORE.INTRA.VDW>
3.06525

>  <SCORE.INTRA.VDW.0>
-4.23953

>  <SCORE.INTRA.norm>
-0.0953874

>  <SCORE.RESTR>
0

>  <SCORE.RESTR.CAVITY>
0

>  <SCORE.RESTR.norm>
0

>  <SCORE.SYSTEM>
0

>  <SCORE.SYSTEM.CONST>
0

>  <SCORE.SYSTEM.DIHEDRAL>
0

>  <SCORE.SYSTEM.SOLV>
0

>  <SCORE.SYSTEM.norm>
0

>  <SCORE.heavy>
31

>  <SCORE.norm>
-0.488483

>  <RMSD>
5.478

$$$$
2fcz_lig
 OpenBabel11021811433D
libRbt.so/2013.1/901 2013/11/27
 31 33  0  0  0  0  0  0  0  0999 V2000
   16.9365   17.4947   34.7399 C   0  0  0  0  0  0  0  0  0  0  0  0
   12.0243   19.9974   38.0582 N   0  0  0  0  0  0  0  0  0  0  0  0
   17.8737   16.4145   34.7293 O   0  0  0  0  0  0  0  0  0  0  0  0
   15.5124   16.9398   34.8512 C   0  0  1  0  0  0  0  0  0  0  0  0
    8.8867   20.1684   34.3067 N   0  0  0  0  0  0  0  0  0  0  0  0
   14.5433   17.9914   35.0368 O   0  0  0  0  0  0  0  0  0  0  0  0
   13.7675   18.1513   33.8325 C   0  0  1  0  0  0  0  0  0  0  0  0
   15.3706   21.8369   32.7825 N   0  0  0  0  0  0  0  0  0  0  0  0
   13.6043   19.5299   33.4581 O   0  0  0  0  0  0  0  0  0  0  0  0
   12.7094   20.2703   34.3054 C   0  0  2  0  0  0  0  0  0  0  0  0
    9.1003   22.3213   31.3446 N   0  0  0  0  0  0  0  0  0  0  0  0
   14.1772   20.1079   36.2219 O   0  0  0  0  0  0  0  0  0  0  0  0
   12.8667   19.7835   35.7513 C   0  0  1  0  0  0  0  0  0  0  0  0
   11.0296   20.7496   32.5698 O   0  0  0  0  0  0  0  0  0  0  0  0
   11.8339   20.4404   36.6701 C   0  0  1  0  0  0  0  0  0  0  0  0
   12.5856   22.5233   32.6470 O   0  0  0  0  0  0  0  0  0  0  0  0
   10.4186   20.0854   36.2090 C   0  0  0  0  0  0  0  0  0  0  0  0
   13.3864   22.3950   29.0540 O   0  0  0  0  0  0  0  0  0  0  0  0
   10.2111   20.5984   34.7826 C   0  0  1  0  0  0  0  0  0  0  0  0
   10.5993   23.0912   29.0305 O   0  0  0  0  0  0  0  0  0  0  0  0
   11.2766   20.0749   33.8134 C   0  0  2  0  0  0  0  0  0  0  0  0
   13.7857   17.0066   31.6407 O   0  0  0  0  0  0  0  0  0  0  0  0
   11.1888   22.1741   32.6391 C   0  0  1  0  0  0  0  0  0  0  0  0
   14.0702   15.2701   33.7978 O   0  0  0  0  0  0  0  0  0  0  0  0
   13.3065   22.1240   31.4685 C   0  0  2  0  0  0  0  0  0  0  0  0
   14.7741   22.5279   31.6301 C   0  0  0  0  0  0  0  0  0  0  0  0
   12.6988   22.8082   30.2388 C   0  0  2  0  0  0  0  0  0  0  0  0
   11.2222   22.4212   30.1313 C   0  0  1  0  0  0  0  0  0  0  0  0
   10.4904   22.7915   31.4233 C   0  0  1  0  0  0  0  0  0  0  0  0
   14.5751   17.4162   32.7616 C   0  0  2  0  0  0  0  0  0  0  0  0
   15.1055   16.2277   33.5612 C   0  0  1  0  0  0  0  0  0  0  0  0
  3  1  1  0  0  0  0
  4  1  1  6  0  0  0
  4  6  1  0  0  0  0
  4 31  1  0  0  0  0
  6  7  1  0  0  0  0
  7  9  1  6  0  0  0
  7 30  1  0  0  0  0
 10  9  1  6  0  0  0
 10 13  1  0  0  0  0
 10 21  1  0  0  0  0
 13 12  1  1  0  0  0
 13 15  1  0  0  0  0
 15  2  1  1  0  0  0
 15 17  1  0  0  0  0
 16 25  1  0  0  0  0
 17 19  1  0  0  0  0
 19  5  1  6  0  0  0
 19 21  1  0  0  0  0
 21 14  1  6  0  0  0
 23 14  1  6  0  0  0
 23 16  1  0  0  0  0
 23 29  1  0  0  0  0
 25 26  1  1  0  0  0
 25 27  1  0  0  0  0
 26  8  1  0  0  0  0
 27 18  1  6  0  0  0
 27 28  1  0  0  0  0
 28 20  1  6  0  0  0
 28 29  1  0  0  0  0
 29 11  1  6  0  0  0
 30 22  1  6  0  0  0
 30 31  1  0  0  0  0
 31 24  1  1  0  0  0
M  END
>  <CHROM.1>
172.65449150,-72.10719252,36.03289568,-61.71174604,76.56869834,61.76861382
12.93988123,20.02787593,33.31603656,-0.87436362,0.59779179,-1.05348243

>  <Name>
2fcz_lig

>  <RI>
1.40544e+07

>  <Rbt.Current_Directory>
/home/itssahil/PROJECTS/Mol_Feturizer/New_Systems/rnas/2fcz

>  <Rbt.Executable>
rbdock ($Id: //depot/dev/client3/rdock/2013.1/src/exe/rbdock.cxx#4 $)

>  <Rbt.Library>
libRbt.so (2013.1, Build901 2013/11/27)

>  <Rbt.Parameter_File>
/export/apps/rDock/src/rDock_2013.1_src/data/scripts/dock_solv.prm

>  <Rbt.Receptor>
prm/blind_docking_100.prm

>  <SCORE>
-14.7512

>  <SCORE.INTER>
-17.9902

>  <SCORE.INTER.CONST>
1

>  <SCORE.INTER.POLAR>
-1.92012

>  <SCORE.INTER.ROT>
6

>  <SCORE.INTER.SOLV>
16.901

>  <SCORE.INTER.VDW>
-18.8267

>  <SCORE.INTER.norm>
-0.580328

>  <SCORE.INTRA>
3.23891

>  <SCORE.INTRA.DIHEDRAL>
-6.03972

>  <SCORE.INTRA.DIHEDRAL.0>
10.8409

>  <SCORE.INTRA.POLAR>
0

>  <SCORE.INTRA.POLAR.0>
0

>  <SCORE.INTRA.REPUL>
0

>  <SCORE.INTRA.REPUL.0>
0

>  <SCORE.INTRA.SOLV>
0.288486

>  <SCORE.INTRA.SOLV.lig_0>
-80.8302

>  <SCORE.INTRA.VDW>
6.11453

>  <SCORE.INTRA.VDW.0>
-4.23953

>  <SCORE.INTRA.norm>
0.104481

>  <SCORE.RESTR>
0

>  <SCORE.RESTR.CAVITY>
0

>  <SCORE.RESTR.norm>
0

>  <SCORE.SYSTEM>
0

>  <SCORE.SYSTEM.CONST>
0

>  <SCORE.SYSTEM.DIHEDRAL>
0

>  <SCORE.SYSTEM.SOLV>
0

>  <SCORE.SYSTEM.norm>
0

>  <SCORE.heavy>
31

>  <SCORE.norm>
-0.475846

>  <RMSD>
5.479

$$$$
2fcz_lig
 OpenBabel11021811433D
libRbt.so/2013.1/901 2013/11/27
 31 33  0  0  0  0  0  0  0  0999 V2000
   12.5716   10.5066   33.9934 C   0  0  0  0  0  0  0  0  0  0  0  0
   16.4725   15.2770   33.3552 N   0  0  0  0  0  0  0  0  0  0  0  0
   12.1059   10.7128   32.6569 O   0  0  0  0  0  0  0  0  0  0  0  0
   12.3419   11.7762   34.8203 C   0  0  1  0  0  0  0  0  0  0  0  0
   12.9844   18.6979   33.6346 N   0  0  0  0  0  0  0  0  0  0  0  0
   12.8084   12.9535   34.1305 O   0  0  0  0  0  0  0  0  0  0  0  0
   11.6796   13.7326   33.6873 C   0  0  1  0  0  0  0  0  0  0  0  0
    8.6542   21.0687   33.8317 N   0  0  0  0  0  0  0  0  0  0  0  0
   11.8203   14.1891   32.3311 O   0  0  0  0  0  0  0  0  0  0  0  0
   12.8461   15.1789   32.1443 C   0  0  2  0  0  0  0  0  0  0  0  0
    9.1215   15.7289   31.0430 N   0  0  0  0  0  0  0  0  0  0  0  0
   14.6172   13.5308   32.1193 O   0  0  0  0  0  0  0  0  0  0  0  0
   14.1419   14.6921   32.8046 C   0  0  1  0  0  0  0  0  0  0  0  0
   11.3297   17.1131   31.9922 O   0  0  0  0  0  0  0  0  0  0  0  0
   15.2248   15.7726   32.7578 C   0  0  1  0  0  0  0  0  0  0  0  0
    9.9996   18.5655   33.2939 O   0  0  0  0  0  0  0  0  0  0  0  0
   14.7564   17.0195   33.5111 C   0  0  0  0  0  0  0  0  0  0  0  0
    8.7921   20.5388   30.4276 O   0  0  0  0  0  0  0  0  0  0  0  0
   13.4874   17.5599   32.8489 C   0  0  1  0  0  0  0  0  0  0  0  0
    7.7257   17.9318   29.8625 O   0  0  0  0  0  0  0  0  0  0  0  0
   12.3833   16.5013   32.7527 C   0  0  2  0  0  0  0  0  0  0  0  0
    9.2329   13.4416   33.8963 O   0  0  0  0  0  0  0  0  0  0  0  0
   10.0966   17.2516   32.7131 C   0  0  1  0  0  0  0  0  0  0  0  0
   10.6248   12.8076   36.2222 O   0  0  0  0  0  0  0  0  0  0  0  0
    9.9963   19.6406   32.3388 C   0  0  2  0  0  0  0  0  0  0  0  0
    9.9227   20.9693   33.0952 C   0  0  0  0  0  0  0  0  0  0  0  0
    8.7905   19.4930   31.4041 C   0  0  2  0  0  0  0  0  0  0  0  0
    8.8692   18.1376   30.6983 C   0  0  1  0  0  0  0  0  0  0  0  0
    8.9427   17.0134   31.7340 C   0  0  1  0  0  0  0  0  0  0  0  0
   10.4933   12.7726   33.7899 C   0  0  2  0  0  0  0  0  0  0  0  0
   10.8496   12.0040   35.0609 C   0  0  1  0  0  0  0  0  0  0  0  0
  3  1  1  0  0  0  0
  4  1  1  6  0  0  0
  4  6  1  0  0  0  0
  4 31  1  0  0  0  0
  6  7  1  0  0  0  0
  7  9  1  6  0  0  0
  7 30  1  0  0  0  0
 10  9  1  1  0  0  0
 10 13  1  0  0  0  0
 10 21  1  0  0  0  0
 13 12  1  6  0  0  0
 13 15  1  0  0  0  0
 15  2  1  1  0  0  0
 15 17  1  0  0  0  0
 16 25  1  0  0  0  0
 17 19  1  0  0  0  0
 19  5  1  1  0  0  0
 19 21  1  0  0  0  0
 21 14  1  6  0  0  0
 23 14  1  6  0  0  0
 23 16  1  0  0  0  0
 23 29  1  0  0  0  0
 25 26  1  1  0  0  0
 25 27  1  0  0  0  0
 26  8  1  0  0  0  0
 27 18  1  6  0  0  0
 27 28  1  0  0  0  0
 28 20  1  1  0  0  0
 28 29  1  0  0  0  0
 29 11  1  6  0  0  0
 30 22  1  1  0  0  0
 30 31  1  0  0  0  0
 31 24  1  1  0  0  0
M  END
>  <CHROM.1>
-48.17492307,-68.75762305,49.50961195,117.45428898,95.57734756,-63.82000523
11.38555126,15.85956893,32.86290688,1.12456656,0.11079386,2.91761484

>  <Name>
2fcz_lig

>  <RI>
0

>  <Rbt.Current_Directory>
/home/itssahil/PROJECTS/Mol_Feturizer/New_Systems/rnas/2fcz

>  <Rbt.Executable>
rbdock ($Id: //depot/dev/client3/rdock/2013.1/src/exe/rbdock.cxx#4 $)

>  <Rbt.Library>
libRbt.so (2013.1, Build901 2013/11/27)

>  <Rbt.Parameter_File>
/export/apps/rDock/src/rDock_2013.1_src/data/scripts/dock_solv.prm

>  <Rbt.Receptor>
prm/blind_docking_40.prm

>  <SCORE>
7.75619

>  <SCORE.INTER>
-7.25477

>  <SCORE.INTER.CONST>
1

>  <SCORE.INTER.POLAR>
-0.792843

>  <SCORE.INTER.ROT>
6

>  <SCORE.INTER.SOLV>
21.6176

>  <SCORE.INTER.VDW>
-16.9996

>  <SCORE.INTER.norm>
-0.234025

>  <SCORE.INTRA>
5.29447

>  <SCORE.INTRA.DIHEDRAL>
2.41881

>  <SCORE.INTRA.DIHEDRAL.0>
10.8409

>  <SCORE.INTRA.POLAR>
0

>  <SCORE.INTRA.POLAR.0>
0

>  <SCORE.INTRA.REPUL>
0

>  <SCORE.INTRA.REPUL.0>
0

>  <SCORE.INTRA.SOLV>
2.31926

>  <SCORE.INTRA.SOLV.lig_0>
-80.8302

>  <SCORE.INTRA.VDW>
2.92543

>  <SCORE.INTRA.VDW.0>
-4.23953

>  <SCORE.INTRA.norm>
0.170789

>  <SCORE.RESTR>
9.71649

>  <SCORE.RESTR.CAVITY>
9.71649

>  <SCORE.RESTR.norm>
0.313435

>  <SCORE.SYSTEM>
0

>  <SCORE.SYSTEM.CONST>
0

>  <SCORE.SYSTEM.DIHEDRAL>
0

>  <SCORE.SYSTEM.SOLV>
0

>  <SCORE.SYSTEM.norm>
0

>  <SCORE.heavy>
31

>  <SCORE.norm>
0.2502

>  <RMSD>
5.482

$$$$
2fcz_lig
 OpenBabel11021811433D
libRbt.so/2013.1/901 2013/11/27
 31 33  0  0  0  0  0  0  0  0999 V2000
   12.9250   22.6104   34.1866 C   0  0  0  0  0  0  0  0  0  0  0  0
   10.2883   17.3169   40.6166 N   0  0  0  0  0  0  0  0  0  0  0  0
   12.9753   21.2631   33.7093 O   0  0  0  0  0  0  0  0  0  0  0  0
   12.9516   22.6151   35.7188 C   0  0  1  0  0  0  0  0  0  0  0  0
    7.8990   16.6479   36.3987 N   0  0  0  0  0  0  0  0  0  0  0  0
   11.9441   21.7443   36.2722 O   0  0  0  0  0  0  0  0  0  0  0  0
   12.5727   20.5783   36.8405 C   0  0  1  0  0  0  0  0  0  0  0  0
   12.0970   16.4985   32.0122 N   0  0  0  0  0  0  0  0  0  0  0  0
   11.9032   19.3578   36.4811 O   0  0  0  0  0  0  0  0  0  0  0  0
   10.7212   19.0831   37.2521 C   0  0  2  0  0  0  0  0  0  0  0  0
    8.4575   21.0190   33.6711 N   0  0  0  0  0  0  0  0  0  0  0  0
   11.8888   19.2871   39.3613 O   0  0  0  0  0  0  0  0  0  0  0  0
   11.1225   18.3862   38.5580 C   0  0  1  0  0  0  0  0  0  0  0  0
    9.1814   18.9228   35.3370 O   0  0  0  0  0  0  0  0  0  0  0  0
    9.8892   17.9441   39.3491 C   0  0  1  0  0  0  0  0  0  0  0  0
   10.8655   18.1816   33.8581 O   0  0  0  0  0  0  0  0  0  0  0  0
    9.0635   16.9534   38.5254 C   0  0  0  0  0  0  0  0  0  0  0  0
    8.5224   16.7077   31.4280 O   0  0  0  0  0  0  0  0  0  0  0  0
    8.6065   17.6324   37.2327 C   0  0  1  0  0  0  0  0  0  0  0  0
    7.8229   19.4925   31.3340 O   0  0  0  0  0  0  0  0  0  0  0  0
    9.7786   18.2068   36.4295 C   0  0  2  0  0  0  0  0  0  0  0  0
   14.9276   19.8507   37.0404 O   0  0  0  0  0  0  0  0  0  0  0  0
   10.1149   19.3194   34.3218 C   0  0  1  0  0  0  0  0  0  0  0  0
   14.5595   22.5607   37.5597 O   0  0  0  0  0  0  0  0  0  0  0  0
   10.0692   17.1496   33.2505 C   0  0  2  0  0  0  0  0  0  0  0  0
   10.9892   15.9977   32.8388 C   0  0  0  0  0  0  0  0  0  0  0  0
    9.3442   17.7158   32.0244 C   0  0  2  0  0  0  0  0  0  0  0  0
    8.4693   18.8927   32.4614 C   0  0  1  0  0  0  0  0  0  0  0  0
    9.3261   19.9459   33.1675 C   0  0  1  0  0  0  0  0  0  0  0  0
   13.9853   20.5860   36.2538 C   0  0  2  0  0  0  0  0  0  0  0  0
   14.2868   22.0834   36.2396 C   0  0  1  0  0  0  0  0  0  0  0  0
  3  1  1  0  0  0  0
  4  1  1  6  0  0  0
  4  6  1  0  0  0  0
  4 31  1  0  0  0  0
  6  7  1  0  0  0  0
  7  9  1  6  0  0  0
  7 30  1  0  0  0  0
 10  9  1  6  0  0  0
 10 13  1  0  0  0  0
 10 21  1  0  0  0  0
 13 12  1  1  0  0  0
 13 15  1  0  0  0  0
 15  2  1  1  0  0  0
 15 17  1  0  0  0  0
 16 25  1  0  0  0  0
 17 19  1  0  0  0  0
 19  5  1  6  0  0  0
 19 21  1  0  0  0  0
 21 14  1  6  0  0  0
 23 14  1  1  0  0  0
 23 16  1  0  0  0  0
 23 29  1  0  0  0  0
 25 26  1  6  0  0  0
 25 27  1  0  0  0  0
 26  8  1  0  0  0  0
 27 18  1  1  0  0  0
 27 28  1  0  0  0  0
 28 20  1  6  0  0  0
 28 29  1  0  0  0  0
 29 11  1  1  0  0  0
 30 22  1  1  0  0  0
 30 31  1  0  0  0  0
 31 24  1  1  0  0  0
M  END
>  <CHROM.1>
-51.86541047,-79.66876920,-84.41025896,66.79788983,53.71271005,-52.89053402
10.91718235,19.20054780,35.45890977,-0.64243995,-0.76579743,-1.36038679

>  <Name>
2fcz_lig

>  <RI>
2.29611e+07

>  <Rbt.Current_Directory>
/home/itssahil/PROJECTS/Mol_Feturizer/New_Systems/rnas/2fcz

>  <Rbt.Executable>
rbdock ($Id: //depot/dev/client3/rdock/2013.1/src/exe/rbdock.cxx#4 $)

>  <Rbt.Library>
libRbt.so (2013.1, Build901 2013/11/27)

>  <Rbt.Parameter_File>
/export/apps/rDock/src/rDock_2013.1_src/data/scripts/dock_solv.prm

>  <Rbt.Receptor>
prm/pocket_docking_3.prm

>  <SCORE>
-19.5079

>  <SCORE.INTER>
-16.9833

>  <SCORE.INTER.CONST>
1

>  <SCORE.INTER.POLAR>
-2.60131

>  <SCORE.INTER.ROT>
6

>  <SCORE.INTER.SOLV>
16.3684

>  <SCORE.INTER.VDW>
-15.7073

>  <SCORE.INTER.norm>
-0.547848

>  <SCORE.INTRA>
-2.52458

>  <SCORE.INTRA.DIHEDRAL>
-5.57651

>  <SCORE.INTRA.DIHEDRAL.0>
10.8409

>  <SCORE.INTRA.POLAR>
0

>  <SCORE.INTRA.POLAR.0>
0

>  <SCORE.INTRA.REPUL>
0.00105234

>  <SCORE.INTRA.REPUL.0>
0

>  <SCORE.INTRA.SOLV>
-1.67669

>  <SCORE.INTRA.SOLV.lig_0>
-80.8302

>  <SCORE.INTRA.VDW>
1.09676

>  <SCORE.INTRA.VDW.0>
-4.23953

>  <SCORE.INTRA.norm>
-0.081438

>  <SCORE.RESTR>
0

>  <SCORE.RESTR.CAVITY>
0

>  <SCORE.RESTR.norm>
0

>  <SCORE.SYSTEM>
0

>  <SCORE.SYSTEM.CONST>
0

>  <SCORE.SYSTEM.DIHEDRAL>
0

>  <SCORE.SYSTEM.SOLV>
0

>  <SCORE.SYSTEM.norm>
0

>  <SCORE.heavy>
31

>  <SCORE.norm>
-0.629286

>  <RMSD>
5.484

$$$$
2fcz_lig
 OpenBabel11021811433D
libRbt.so/2013.1/901 2013/11/27
 31 33  0  0  0  0  0  0  0  0999 V2000
   13.2651   22.8191   34.1206 C   0  0  0  0  0  0  0  0  0  0  0  0
   10.5338   17.1724   40.2053 N   0  0  0  0  0  0  0  0  0  0  0  0
   12.0684   23.3514   33.5461 O   0  0  0  0  0  0  0  0  0  0  0  0
   13.1212   22.7576   35.6451 C   0  0  1  0  0  0  0  0  0  0  0  0
    8.1090   16.4987   36.0084 N   0  0  0  0  0  0  0  0  0  0  0  0
   12.0304   21.9025   36.0435 O   0  0  0  0  0  0  0  0  0  0  0  0
   12.5535   20.6905   36.6225 C   0  0  1  0  0  0  0  0  0  0  0  0
   11.9544   15.8947   33.2254 N   0  0  0  0  0  0  0  0  0  0  0  0
   11.8885   19.5125   36.1354 O   0  0  0  0  0  0  0  0  0  0  0  0
   10.7497   19.1115   36.9159 C   0  0  2  0  0  0  0  0  0  0  0  0
    8.2930   21.1446   33.6413 N   0  0  0  0  0  0  0  0  0  0  0  0
   11.9453   19.3162   39.0093 O   0  0  0  0  0  0  0  0  0  0  0  0
   11.2342   18.3928   38.1812 C   0  0  1  0  0  0  0  0  0  0  0  0
    9.1841   18.9123   35.0256 O   0  0  0  0  0  0  0  0  0  0  0  0
   10.0578   17.8201   38.9752 C   0  0  1  0  0  0  0  0  0  0  0  0
   10.8704   18.4615   33.4363 O   0  0  0  0  0  0  0  0  0  0  0  0
    9.2940   16.8035   38.1239 C   0  0  0  0  0  0  0  0  0  0  0  0
    8.5572   17.1477   30.8886 O   0  0  0  0  0  0  0  0  0  0  0  0
    8.7558   17.4993   36.8721 C   0  0  1  0  0  0  0  0  0  0  0  0
    7.6902   19.8742   31.1478 O   0  0  0  0  0  0  0  0  0  0  0  0
    9.8604   18.1994   36.0731 C   0  0  2  0  0  0  0  0  0  0  0  0
   14.8465   19.8669   37.0454 O   0  0  0  0  0  0  0  0  0  0  0  0
   10.0654   19.4859   34.0492 C   0  0  1  0  0  0  0  0  0  0  0  0
   14.5117   22.5643   37.6467 O   0  0  0  0  0  0  0  0  0  0  0  0
   10.1217   17.4625   32.7224 C   0  0  2  0  0  0  0  0  0  0  0  0
   11.0980   16.4284   32.1563 C   0  0  0  0  0  0  0  0  0  0  0  0
    9.3325   18.1259   31.5881 C   0  0  2  0  0  0  0  0  0  0  0  0
    8.4005   19.1845   32.1815 C   0  0  1  0  0  0  0  0  0  0  0  0
    9.2108   20.1964   32.9947 C   0  0  1  0  0  0  0  0  0  0  0  0
   14.0220   20.6700   36.1953 C   0  0  2  0  0  0  0  0  0  0  0  0
   14.3720   22.1542   36.2839 C   0  0  1  0  0  0  0  0  0  0  0  0
  3  1  1  0  0  0  0
  4  1  1  6  0  0  0
  4  6  1  0  0  0  0
  4 31  1  0  0  0  0
  6  7  1  0  0  0  0
  7  9  1  6  0  0  0
  7 30  1  0  0  0  0
 10  9  1  6  0  0  0
 10 13  1  0  0  0  0
 10 21  1  0  0  0  0
 13 12  1  1  0  0  0
 13 15  1  0  0  0  0
 15  2  1  1  0  0  0
 15 17  1  0  0  0  0
 16 25  1  0  0  0  0
 17 19  1  0  0  0  0
 19  5  1  6  0  0  0
 19 21  1  0  0  0  0
 21 14  1  6  0  0  0
 23 14  1  1  0  0  0
 23 16  1  0  0  0  0
 23 29  1  0  0  0  0
 25 26  1  6  0  0  0
 25 27  1  0  0  0  0
 26  8  1  0  0  0  0
 27 18  1  1  0  0  0
 27 28  1  0  0  0  0
 28 20  1  6  0  0  0
 28 29  1  0  0  0  0
 29 11  1  1  0  0  0
 30 22  1  1  0  0  0
 30 31  1  0  0  0  0
 31 24  1  1  0  0  0
M  END
>  <CHROM.1>
60.91147743,-90.46581772,-78.16799198,63.67788821,58.52389186,53.85534906
10.92559546,19.36791961,35.23285481,-0.44466966,-0.84323113,-1.10973926

>  <Name>
2fcz_lig

>  <RI>
2.29611e+07

>  <Rbt.Current_Directory>
/home/itssahil/PROJECTS/Mol_Feturizer/New_Systems/rnas/2fcz

>  <Rbt.Executable>
rbdock ($Id: //depot/dev/client3/rdock/2013.1/src/exe/rbdock.cxx#4 $)

>  <Rbt.Library>
libRbt.so (2013.1, Build901 2013/11/27)

>  <Rbt.Parameter_File>
/export/apps/rDock/src/rDock_2013.1_src/data/scripts/dock_solv.prm

>  <Rbt.Receptor>
prm/pocket_docking_3.prm

>  <SCORE>
-23.1274

>  <SCORE.INTER>
-20.0466

>  <SCORE.INTER.CONST>
1

>  <SCORE.INTER.POLAR>
-2.54498

>  <SCORE.INTER.ROT>
6

>  <SCORE.INTER.SOLV>
12.9852

>  <SCORE.INTER.VDW>
-16.8095

>  <SCORE.INTER.norm>
-0.646665

>  <SCORE.INTRA>
-3.08609

>  <SCORE.INTRA.DIHEDRAL>
-5.336

>  <SCORE.INTRA.DIHEDRAL.0>
10.8409

>  <SCORE.INTRA.POLAR>
0

>  <SCORE.INTRA.POLAR.0>
0

>  <SCORE.INTRA.REPUL>
0

>  <SCORE.INTRA.REPUL.0>
0

>  <SCORE.INTRA.SOLV>
-3.64137

>  <SCORE.INTRA.SOLV.lig_0>
-80.8302

>  <SCORE.INTRA.VDW>
1.4026

>  <SCORE.INTRA.VDW.0>
-4.23953

>  <SCORE.INTRA.norm>
-0.0995513

>  <SCORE.RESTR>
0.00526154

>  <SCORE.RESTR.CAVITY>
0.00526154

>  <SCORE.RESTR.norm>
0.000169727

>  <SCORE.SYSTEM>
0

>  <SCORE.SYSTEM.CONST>
0

>  <SCORE.SYSTEM.DIHEDRAL>
0

>  <SCORE.SYSTEM.SOLV>
0

>  <SCORE.SYSTEM.norm>
0

>  <SCORE.heavy>
31

>  <SCORE.norm>
-0.746047

>  <RMSD>
5.484

$$$$
2fcz_lig
 OpenBabel11021811433D
libRbt.so/2013.1/901 2013/11/27
 31 33  0  0  0  0  0  0  0  0999 V2000
   10.8504   22.1972   32.8255 C   0  0  0  0  0  0  0  0  0  0  0  0
   10.7144   17.6069   40.1265 N   0  0  0  0  0  0  0  0  0  0  0  0
   11.3568   23.1455   31.8822 O   0  0  0  0  0  0  0  0  0  0  0  0
   11.3769   22.5320   34.2252 C   0  0  1  0  0  0  0  0  0  0  0  0
    8.0430   16.2389   36.2613 N   0  0  0  0  0  0  0  0  0  0  0  0
   10.9277   21.5757   35.2067 O   0  0  0  0  0  0  0  0  0  0  0  0
   12.0348   20.7494   35.6180 C   0  0  1  0  0  0  0  0  0  0  0  0
   10.9300   14.9233   31.8430 N   0  0  0  0  0  0  0  0  0  0  0  0
   11.6945   19.3534   35.6696 O   0  0  0  0  0  0  0  0  0  0  0  0
   10.6282   19.0385   36.5811 C   0  0  2  0  0  0  0  0  0  0  0  0
    7.6832   20.4337   33.3122 N   0  0  0  0  0  0  0  0  0  0  0  0
   11.9524   19.5906   38.5293 O   0  0  0  0  0  0  0  0  0  0  0  0
   11.2261   18.5323   37.8997 C   0  0  1  0  0  0  0  0  0  0  0  0
    8.9487   18.5107   34.8593 O   0  0  0  0  0  0  0  0  0  0  0  0
   10.1304   18.0485   38.8525 C   0  0  1  0  0  0  0  0  0  0  0  0
   10.7370   18.2989   33.3329 O   0  0  0  0  0  0  0  0  0  0  0  0
    9.3539   16.8929   38.2174 C   0  0  0  0  0  0  0  0  0  0  0  0
    8.7996   16.4001   30.8412 O   0  0  0  0  0  0  0  0  0  0  0  0
    8.7044   17.3769   36.9194 C   0  0  1  0  0  0  0  0  0  0  0  0
    7.4127   18.9153   30.9006 O   0  0  0  0  0  0  0  0  0  0  0  0
    9.7229   17.9836   35.9482 C   0  0  2  0  0  0  0  0  0  0  0  0
   14.4268   20.6880   34.9940 O   0  0  0  0  0  0  0  0  0  0  0  0
    9.7307   19.1828   33.8613 C   0  0  1  0  0  0  0  0  0  0  0  0
   13.4349   23.2685   35.3205 O   0  0  0  0  0  0  0  0  0  0  0  0
   10.2179   17.1299   32.6757 C   0  0  2  0  0  0  0  0  0  0  0  0
   11.3927   16.2729   32.1974 C   0  0  0  0  0  0  0  0  0  0  0  0
    9.3492   17.5532   31.4859 C   0  0  2  0  0  0  0  0  0  0  0  0
    8.2122   18.4444   31.9904 C   0  0  1  0  0  0  0  0  0  0  0  0
    8.7863   19.6445   32.7468 C   0  0  1  0  0  0  0  0  0  0  0  0
   13.1004   20.9832   34.5459 C   0  0  2  0  0  0  0  0  0  0  0  0
   12.9040   22.4706   34.2592 C   0  0  1  0  0  0  0  0  0  0  0  0
  3  1  1  0  0  0  0
  4  1  1  6  0  0  0
  4  6  1  0  0  0  0
  4 31  1  0  0  0  0
  6  7  1  0  0  0  0
  7  9  1  6  0  0  0
  7 30  1  0  0  0  0
 10  9  1  6  0  0  0
 10 13  1  0  0  0  0
 10 21  1  0  0  0  0
 13 12  1  1  0  0  0
 13 15  1  0  0  0  0
 15  2  1  1  0  0  0
 15 17  1  0  0  0  0
 16 25  1  0  0  0  0
 17 19  1  0  0  0  0
 19  5  1  6  0  0  0
 19 21  1  0  0  0  0
 21 14  1  6  0  0  0
 23 14  1  1  0  0  0
 23 16  1  0  0  0  0
 23 29  1  0  0  0  0
 25 26  1  6  0  0  0
 25 27  1  0  0  0  0
 26  8  1  0  0  0  0
 27 18  1  1  0  0  0
 27 28  1  0  0  0  0
 28 20  1  6  0  0  0
 28 29  1  0  0  0  0
 29 11  1  1  0  0  0
 30 22  1  1  0  0  0
 30 31  1  0  0  0  0
 31 24  1  1  0  0  0
M  END
>  <CHROM.1>
-178.11801563,-59.94115154,-98.28967518,52.69745688,57.12105324,165.19322513
10.50040439,19.19427742,34.61483944,-0.58041716,-0.98746036,-1.19106667

>  <Name>
2fcz_lig

>  <RI>
1.32928e+07

>  <Rbt.Current_Directory>
/home/itssahil/PROJECTS/Mol_Feturizer/New_Systems/rnas/2fcz

>  <Rbt.Executable>
rbdock ($Id: //depot/dev/client3/rdock/2013.1/src/exe/rbdock.cxx#4 $)

>  <Rbt.Library>
libRbt.so (2013.1, Build901 2013/11/27)

>  <Rbt.Parameter_File>
/export/apps/rDock/src/rDock_2013.1_src/data/scripts/dock_solv.prm

>  <Rbt.Receptor>
prm/pocket_docking_7.prm

>  <SCORE>
-19.1333

>  <SCORE.INTER>
-17.3257

>  <SCORE.INTER.CONST>
1

>  <SCORE.INTER.POLAR>
-1.97897

>  <SCORE.INTER.ROT>
6

>  <SCORE.INTER.SOLV>
16.3612

>  <SCORE.INTER.VDW>
-18.0076

>  <SCORE.INTER.norm>
-0.558893

>  <SCORE.INTRA>
-1.80762

>  <SCORE.INTRA.DIHEDRAL>
-4.51838

>  <SCORE.INTRA.DIHEDRAL.0>
10.8409

>  <SCORE.INTRA.POLAR>
0

>  <SCORE.INTRA.POLAR.0>
0

>  <SCORE.INTRA.REPUL>
0

>  <SCORE.INTRA.REPUL.0>
0

>  <SCORE.INTRA.SOLV>
-2.04541

>  <SCORE.INTRA.SOLV.lig_0>
-80.8302

>  <SCORE.INTRA.VDW>
1.47428

>  <SCORE.INTRA.VDW.0>
-4.23953

>  <SCORE.INTRA.norm>
-0.0583102

>  <SCORE.RESTR>
0

>  <SCORE.RESTR.CAVITY>
0

>  <SCORE.RESTR.norm>
0

>  <SCORE.SYSTEM>
0

>  <SCORE.SYSTEM.CONST>
0

>  <SCORE.SYSTEM.DIHEDRAL>
0

>  <SCORE.SYSTEM.SOLV>
0

>  <SCORE.SYSTEM.norm>
0

>  <SCORE.heavy>
31

>  <SCORE.norm>
-0.617203

>  <RMSD>
5.486

$$$$
2fcz_lig
 OpenBabel11021811433D
libRbt.so/2013.1/901 2013/11/27
 31 33  0  0  0  0  0  0  0  0999 V2000
   13.2181   22.7496   34.0955 C   0  0  0  0  0  0  0  0  0  0  0  0
   10.3794   17.3091   40.2895 N   0  0  0  0  0  0  0  0  0  0  0  0
   12.0056   23.2443   33.5207 O   0  0  0  0  0  0  0  0  0  0  0  0
   13.0852   22.7085   35.6216 C   0  0  1  0  0  0  0  0  0  0  0  0
    8.0771   16.4627   36.0551 N   0  0  0  0  0  0  0  0  0  0  0  0
   11.9994   21.8563   36.0395 O   0  0  0  0  0  0  0  0  0  0  0  0
   12.5297   20.6537   36.6312 C   0  0  1  0  0  0  0  0  0  0  0  0
   11.6952   15.5542   33.2451 N   0  0  0  0  0  0  0  0  0  0  0  0
   11.8643   19.4675   36.1650 O   0  0  0  0  0  0  0  0  0  0  0  0
   10.7011   19.1040   36.9277 C   0  0  2  0  0  0  0  0  0  0  0  0
    8.4083   21.0957   33.6094 N   0  0  0  0  0  0  0  0  0  0  0  0
   11.8351   19.3950   39.0450 O   0  0  0  0  0  0  0  0  0  0  0  0
   11.1447   18.4390   38.2366 C   0  0  1  0  0  0  0  0  0  0  0  0
    9.1913   18.8284   35.0020 O   0  0  0  0  0  0  0  0  0  0  0  0
    9.9428   17.9047   39.0191 C   0  0  1  0  0  0  0  0  0  0  0  0
   10.8681   18.3030   33.4256 O   0  0  0  0  0  0  0  0  0  0  0  0
    9.2002   16.8547   38.1899 C   0  0  0  0  0  0  0  0  0  0  0  0
    8.5189   17.0881   30.8617 O   0  0  0  0  0  0  0  0  0  0  0  0
    8.7023   17.4976   36.8939 C   0  0  1  0  0  0  0  0  0  0  0  0
    7.7693   19.8501   31.1125 O   0  0  0  0  0  0  0  0  0  0  0  0
    9.8332   18.1592   36.0988 C   0  0  2  0  0  0  0  0  0  0  0  0
   14.8277   19.8415   37.0490 O   0  0  0  0  0  0  0  0  0  0  0  0
   10.1039   19.3621   34.0316 C   0  0  1  0  0  0  0  0  0  0  0  0
   14.4903   22.5460   37.6158 O   0  0  0  0  0  0  0  0  0  0  0  0
   10.0820   17.3368   32.7069 C   0  0  2  0  0  0  0  0  0  0  0  0
   11.0166   16.2606   32.1488 C   0  0  0  0  0  0  0  0  0  0  0  0
    9.3308   18.0325   31.5663 C   0  0  2  0  0  0  0  0  0  0  0  0
    8.4412   19.1313   32.1519 C   0  0  1  0  0  0  0  0  0  0  0  0
    9.2888   20.1079   32.9703 C   0  0  1  0  0  0  0  0  0  0  0  0
   13.9952   20.6309   36.1938 C   0  0  2  0  0  0  0  0  0  0  0  0
   14.3421   22.1170   36.2597 C   0  0  1  0  0  0  0  0  0  0  0  0
  3  1  1  0  0  0  0
  4  1  1  6  0  0  0
  4  6  1  0  0  0  0
  4 31  1  0  0  0  0
  6  7  1  0  0  0  0
  7  9  1  6  0  0  0
  7 30  1  0  0  0  0
 10  9  1  6  0  0  0
 10 13  1  0  0  0  0
 10 21  1  0  0  0  0
 13 12  1  1  0  0  0
 13 15  1  0  0  0  0
 15  2  1  1  0  0  0
 15 17  1  0  0  0  0
 16 25  1  0  0  0  0
 17 19  1  0  0  0  0
 19  5  1  6  0  0  0
 19 21  1  0  0  0  0
 21 14  1  6  0  0  0
 23 14  1  1  0  0  0
 23 16  1  0  0  0  0
 23 29  1  0  0  0  0
 25 26  1  6  0  0  0
 25 27  1  0  0  0  0
 26  8  1  0  0  0  0
 27 18  1  1  0  0  0
 27 28  1  0  0  0  0
 28 20  1  6  0  0  0
 28 29  1  0  0  0  0
 29 11  1  1  0  0  0
 30 22  1  1  0  0  0
 30 31  1  0  0  0  0
 31 24  1  1  0  0  0
M  END
>  <CHROM.1>
59.68914209,-88.14866790,-77.40309302,63.40096547,62.18137353,62.23052114
10.89003432,19.31831011,35.23476602,-0.47640778,-0.85547750,-1.15485743

>  <Name>
2fcz_lig

>  <RI>
0

>  <Rbt.Current_Directory>
/home/itssahil/PROJECTS/Mol_Feturizer/New_Systems/rnas/2fcz

>  <Rbt.Executable>
rbdock ($Id: //depot/dev/client3/rdock/2013.1/src/exe/rbdock.cxx#4 $)

>  <Rbt.Library>
libRbt.so (2013.1, Build901 2013/11/27)

>  <Rbt.Parameter_File>
/export/apps/rDock/src/rDock_2013.1_src/data/scripts/dock_solv.prm

>  <Rbt.Receptor>
prm/pocket_docking_5.prm

>  <SCORE>
-23.6926

>  <SCORE.INTER>
-20.2811

>  <SCORE.INTER.CONST>
1

>  <SCORE.INTER.POLAR>
-2.55668

>  <SCORE.INTER.ROT>
6

>  <SCORE.INTER.SOLV>
12.603

>  <SCORE.INTER.VDW>
-16.7995

>  <SCORE.INTER.norm>
-0.654228

>  <SCORE.INTRA>
-3.41151

>  <SCORE.INTRA.DIHEDRAL>
-5.99887

>  <SCORE.INTRA.DIHEDRAL.0>
10.8409

>  <SCORE.INTRA.POLAR>
0

>  <SCORE.INTRA.POLAR.0>
0

>  <SCORE.INTRA.REPUL>
0

>  <SCORE.INTRA.REPUL.0>
0

>  <SCORE.INTRA.SOLV>
-3.64489

>  <SCORE.INTRA.SOLV.lig_0>
-80.8302

>  <SCORE.INTRA.VDW>
1.41037

>  <SCORE.INTRA.VDW.0>
-4.23953

>  <SCORE.INTRA.norm>
-0.110049

>  <SCORE.RESTR>
0

>  <SCORE.RESTR.CAVITY>
0

>  <SCORE.RESTR.norm>
0

>  <SCORE.SYSTEM>
0

>  <SCORE.SYSTEM.CONST>
0

>  <SCORE.SYSTEM.DIHEDRAL>
0

>  <SCORE.SYSTEM.SOLV>
0

>  <SCORE.SYSTEM.norm>
0

>  <SCORE.heavy>
31

>  <SCORE.norm>
-0.764277

>  <RMSD>
5.492

$$$$
2fcz_lig
 OpenBabel11021811433D
libRbt.so/2013.1/901 2013/11/27
 31 33  0  0  0  0  0  0  0  0999 V2000
   10.6222   22.3560   32.7917 C   0  0  0  0  0  0  0  0  0  0  0  0
   11.0382   17.6773   40.0189 N   0  0  0  0  0  0  0  0  0  0  0  0
   10.8542   23.4541   31.9052 O   0  0  0  0  0  0  0  0  0  0  0  0
   11.1186   22.7147   34.1965 C   0  0  1  0  0  0  0  0  0  0  0  0
    8.5282   16.0255   36.1564 N   0  0  0  0  0  0  0  0  0  0  0  0
   10.7786   21.6956   35.1585 O   0  0  0  0  0  0  0  0  0  0  0  0
   11.9692   20.9824   35.5477 C   0  0  1  0  0  0  0  0  0  0  0  0
   12.0835   15.5564   32.9241 N   0  0  0  0  0  0  0  0  0  0  0  0
   11.7786   19.5575   35.5700 O   0  0  0  0  0  0  0  0  0  0  0  0
   10.7625   19.1116   36.4842 C   0  0  2  0  0  0  0  0  0  0  0  0
    7.8379   20.3998   33.3633 N   0  0  0  0  0  0  0  0  0  0  0  0
   12.0219   19.8050   38.4302 O   0  0  0  0  0  0  0  0  0  0  0  0
   11.4236   18.6717   37.7964 C   0  0  1  0  0  0  0  0  0  0  0  0
    9.1487   18.3983   34.7665 O   0  0  0  0  0  0  0  0  0  0  0  0
   10.3988   18.0544   38.7507 C   0  0  1  0  0  0  0  0  0  0  0  0
   10.7672   18.1155   33.0714 O   0  0  0  0  0  0  0  0  0  0  0  0
    9.7623   16.8185   38.1110 C   0  0  0  0  0  0  0  0  0  0  0  0
    8.5031   16.3447   30.7680 O   0  0  0  0  0  0  0  0  0  0  0  0
    9.0526   17.2300   36.8195 C   0  0  1  0  0  0  0  0  0  0  0  0
    7.2579   18.9250   30.9794 O   0  0  0  0  0  0  0  0  0  0  0  0
    9.9861   17.9603   35.8480 C   0  0  2  0  0  0  0  0  0  0  0  0
   14.3507   21.1875   34.9140 O   0  0  0  0  0  0  0  0  0  0  0  0
    9.8631   19.0422   33.7014 C   0  0  1  0  0  0  0  0  0  0  0  0
   13.0936   23.6411   35.3002 O   0  0  0  0  0  0  0  0  0  0  0  0
   10.1281   16.9815   32.4601 C   0  0  2  0  0  0  0  0  0  0  0  0
   11.2059   16.0728   31.8637 C   0  0  0  0  0  0  0  0  0  0  0  0
    9.1705   17.4614   31.3637 C   0  0  2  0  0  0  0  0  0  0  0  0
    8.1345   18.4022   31.9828 C   0  0  1  0  0  0  0  0  0  0  0  0
    8.8395   19.5633   32.6876 C   0  0  1  0  0  0  0  0  0  0  0  0
   12.9979   21.3503   34.4771 C   0  0  2  0  0  0  0  0  0  0  0  0
   12.6437   22.8144   34.2237 C   0  0  1  0  0  0  0  0  0  0  0  0
  3  1  1  0  0  0  0
  4  1  1  6  0  0  0
  4  6  1  0  0  0  0
  4 31  1  0  0  0  0
  6  7  1  0  0  0  0
  7  9  1  6  0  0  0
  7 30  1  0  0  0  0
 10  9  1  6  0  0  0
 10 13  1  0  0  0  0
 10 21  1  0  0  0  0
 13 12  1  1  0  0  0
 13 15  1  0  0  0  0
 15  2  1  1  0  0  0
 15 17  1  0  0  0  0
 16 25  1  0  0  0  0
 17 19  1  0  0  0  0
 19  5  1  6  0  0  0
 19 21  1  0  0  0  0
 21 14  1  6  0  0  0
 23 14  1  1  0  0  0
 23 16  1  0  0  0  0
 23 29  1  0  0  0  0
 25 26  1  6  0  0  0
 25 27  1  0  0  0  0
 26  8  1  0  0  0  0
 27 18  1  1  0  0  0
 27 28  1  0  0  0  0
 28 20  1  6  0  0  0
 28 29  1  0  0  0  0
 29 11  1  1  0  0  0
 30 22  1  1  0  0  0
 30 31  1  0  0  0  0
 31 24  1  1  0  0  0
M  END
>  <CHROM.1>
173.85252383,-60.29916315,-97.03440196,58.93884573,64.10072672,62.75790827
10.53700411,19.27497034,34.56700487,-0.25230982,-1.04353816,-0.97568069

>  <Name>
2fcz_lig

>  <RI>
2.26996e+07

>  <Rbt.Current_Directory>
/home/itssahil/PROJECTS/Mol_Feturizer/New_Systems/rnas/2fcz

>  <Rbt.Executable>
rbdock ($Id: //depot/dev/client3/rdock/2013.1/src/exe/rbdock.cxx#4 $)

>  <Rbt.Library>
libRbt.so (2013.1, Build901 2013/11/27)

>  <Rbt.Parameter_File>
/export/apps/rDock/src/rDock_2013.1_src/data/scripts/dock_solv.prm

>  <Rbt.Receptor>
prm/pocket_docking_4.prm

>  <SCORE>
-21.6846

>  <SCORE.INTER>
-18.3889

>  <SCORE.INTER.CONST>
1

>  <SCORE.INTER.POLAR>
-1.97897

>  <SCORE.INTER.ROT>
6

>  <SCORE.INTER.SOLV>
14.045

>  <SCORE.INTER.VDW>
-17.9444

>  <SCORE.INTER.norm>
-0.593191

>  <SCORE.INTRA>
-3.29568

>  <SCORE.INTRA.DIHEDRAL>
-5.55522

>  <SCORE.INTRA.DIHEDRAL.0>
10.8409

>  <SCORE.INTRA.POLAR>
0

>  <SCORE.INTRA.POLAR.0>
0

>  <SCORE.INTRA.REPUL>
0

>  <SCORE.INTRA.REPUL.0>
0

>  <SCORE.INTRA.SOLV>
-2.45141

>  <SCORE.INTRA.SOLV.lig_0>
-80.8302

>  <SCORE.INTRA.VDW>
0.707634

>  <SCORE.INTRA.VDW.0>
-4.23953

>  <SCORE.INTRA.norm>
-0.106312

>  <SCORE.RESTR>
0

>  <SCORE.RESTR.CAVITY>
0

>  <SCORE.RESTR.norm>
0

>  <SCORE.SYSTEM>
0

>  <SCORE.SYSTEM.CONST>
0

>  <SCORE.SYSTEM.DIHEDRAL>
0

>  <SCORE.SYSTEM.SOLV>
0

>  <SCORE.SYSTEM.norm>
0

>  <SCORE.heavy>
31

>  <SCORE.norm>
-0.699503

>  <RMSD>
5.495

$$$$
2fcz_lig
 OpenBabel11021811433D
libRbt.so/2013.1/901 2013/11/27
 31 33  0  0  0  0  0  0  0  0999 V2000
   13.2192   22.7176   33.9965 C   0  0  0  0  0  0  0  0  0  0  0  0
   10.4876   17.3237   40.2891 N   0  0  0  0  0  0  0  0  0  0  0  0
   12.0061   23.1650   33.3850 O   0  0  0  0  0  0  0  0  0  0  0  0
   13.0565   22.7137   35.5203 C   0  0  1  0  0  0  0  0  0  0  0  0
    8.1799   16.3522   36.0845 N   0  0  0  0  0  0  0  0  0  0  0  0
   11.9767   21.8545   35.9391 O   0  0  0  0  0  0  0  0  0  0  0  0
   12.5146   20.6765   36.5722 C   0  0  1  0  0  0  0  0  0  0  0  0
   11.8311   15.5101   33.3036 N   0  0  0  0  0  0  0  0  0  0  0  0
   11.8780   19.4677   36.1243 O   0  0  0  0  0  0  0  0  0  0  0  0
   10.7316   19.0809   36.9009 C   0  0  2  0  0  0  0  0  0  0  0  0
    8.3444   20.9372   33.5480 N   0  0  0  0  0  0  0  0  0  0  0  0
   11.8722   19.4340   39.0052 O   0  0  0  0  0  0  0  0  0  0  0  0
   11.2043   18.4472   38.2152 C   0  0  1  0  0  0  0  0  0  0  0  0
    9.2164   18.7348   34.9909 O   0  0  0  0  0  0  0  0  0  0  0  0
   10.0244   17.8887   39.0142 C   0  0  1  0  0  0  0  0  0  0  0  0
   10.9081   18.2363   33.4217 O   0  0  0  0  0  0  0  0  0  0  0  0
    9.3068   16.8062   38.2050 C   0  0  0  0  0  0  0  0  0  0  0  0
    8.6006   16.8730   30.8950 O   0  0  0  0  0  0  0  0  0  0  0  0
    8.7807   17.4164   36.9043 C   0  0  1  0  0  0  0  0  0  0  0  0
    7.7471   19.6096   31.0832 O   0  0  0  0  0  0  0  0  0  0  0  0
    9.8858   18.0998   36.0916 C   0  0  2  0  0  0  0  0  0  0  0  0
   14.8167   19.9141   37.0557 O   0  0  0  0  0  0  0  0  0  0  0  0
   10.1057   19.2796   34.0052 C   0  0  1  0  0  0  0  0  0  0  0  0
   14.4242   22.6263   37.5450 O   0  0  0  0  0  0  0  0  0  0  0  0
   10.1576   17.2242   32.7286 C   0  0  2  0  0  0  0  0  0  0  0  0
   11.1310   16.1714   32.1928 C   0  0  0  0  0  0  0  0  0  0  0  0
    9.3777   17.8639   31.5744 C   0  0  2  0  0  0  0  0  0  0  0  0
    8.4484   18.9416   32.1369 C   0  0  1  0  0  0  0  0  0  0  0  0
    9.2602   19.9687   32.9294 C   0  0  1  0  0  0  0  0  0  0  0  0
   13.9887   20.6671   36.1642 C   0  0  2  0  0  0  0  0  0  0  0  0
   14.3099   22.1600   36.1980 C   0  0  1  0  0  0  0  0  0  0  0  0
  3  1  1  0  0  0  0
  4  1  1  6  0  0  0
  4  6  1  0  0  0  0
  4 31  1  0  0  0  0
  6  7  1  0  0  0  0
  7  9  1  6  0  0  0
  7 30  1  0  0  0  0
 10  9  1  6  0  0  0
 10 13  1  0  0  0  0
 10 21  1  0  0  0  0
 13 12  1  1  0  0  0
 13 15  1  0  0  0  0
 15  2  1  1  0  0  0
 15 17  1  0  0  0  0
 16 25  1  0  0  0  0
 17 19  1  0  0  0  0
 19  5  1  6  0  0  0
 19 21  1  0  0  0  0
 21 14  1  6  0  0  0
 23 14  1  1  0  0  0
 23 16  1  0  0  0  0
 23 29  1  0  0  0  0
 25 26  1  6  0  0  0
 25 27  1  0  0  0  0
 26  8  1  0  0  0  0
 27 18  1  1  0  0  0
 27 28  1  0  0  0  0
 28 20  1  6  0  0  0
 28 29  1  0  0  0  0
 29 11  1  1  0  0  0
 30 22  1  1  0  0  0
 30 31  1  0  0  0  0
 31 24  1  1  0  0  0
M  END
>  <CHROM.1>
59.14693288,-90.09209919,-77.18703821,63.49841807,61.34543761,62.66407333
10.91842713,19.26267815,35.20963436,-0.45452993,-0.87353458,-1.15867757

>  <Name>
2fcz_lig

>  <RI>
2.26996e+07

>  <Rbt.Current_Directory>
/home/itssahil/PROJECTS/Mol_Feturizer/New_Systems/rnas/2fcz

>  <Rbt.Executable>
rbdock ($Id: //depot/dev/client3/rdock/2013.1/src/exe/rbdock.cxx#4 $)

>  <Rbt.Library>
libRbt.so (2013.1, Build901 2013/11/27)

>  <Rbt.Parameter_File>
/export/apps/rDock/src/rDock_2013.1_src/data/scripts/dock_solv.prm

>  <Rbt.Receptor>
prm/pocket_docking_4.prm

>  <SCORE>
-23.5361

>  <SCORE.INTER>
-20.2925

>  <SCORE.INTER.CONST>
1

>  <SCORE.INTER.POLAR>
-2.59539

>  <SCORE.INTER.ROT>
6

>  <SCORE.INTER.SOLV>
12.2353

>  <SCORE.INTER.VDW>
-16.5555

>  <SCORE.INTER.norm>
-0.654597

>  <SCORE.INTRA>
-3.24355

>  <SCORE.INTRA.DIHEDRAL>
-5.67279

>  <SCORE.INTRA.DIHEDRAL.0>
10.8409

>  <SCORE.INTRA.POLAR>
0

>  <SCORE.INTRA.POLAR.0>
0

>  <SCORE.INTRA.REPUL>
0

>  <SCORE.INTRA.REPUL.0>
0

>  <SCORE.INTRA.SOLV>
-3.69819

>  <SCORE.INTRA.SOLV.lig_0>
-80.8302

>  <SCORE.INTRA.VDW>
1.44194

>  <SCORE.INTRA.VDW.0>
-4.23953

>  <SCORE.INTRA.norm>
-0.104631

>  <SCORE.RESTR>
0

>  <SCORE.RESTR.CAVITY>
0

>  <SCORE.RESTR.norm>
0

>  <SCORE.SYSTEM>
0

>  <SCORE.SYSTEM.CONST>
0

>  <SCORE.SYSTEM.DIHEDRAL>
0

>  <SCORE.SYSTEM.SOLV>
0

>  <SCORE.SYSTEM.norm>
0

>  <SCORE.heavy>
31

>  <SCORE.norm>
-0.759228

>  <RMSD>
5.513

$$$$
2fcz_lig
 OpenBabel11021811433D
libRbt.so/2013.1/901 2013/11/27
 31 33  0  0  0  0  0  0  0  0999 V2000
   17.4515   20.7670   35.5891 C   0  0  0  0  0  0  0  0  0  0  0  0
   12.0670   20.1353   38.0902 N   0  0  0  0  0  0  0  0  0  0  0  0
   17.2609   22.1732   35.4111 O   0  0  0  0  0  0  0  0  0  0  0  0
   16.4861   19.9975   34.6811 C   0  0  1  0  0  0  0  0  0  0  0  0
    9.7967   19.8865   33.7623 N   0  0  0  0  0  0  0  0  0  0  0  0
   15.1176   20.3983   34.8966 O   0  0  0  0  0  0  0  0  0  0  0  0
   14.6554   21.1651   33.7669 C   0  0  1  0  0  0  0  0  0  0  0  0
    6.6704   21.5231   30.7777 N   0  0  0  0  0  0  0  0  0  0  0  0
   13.9394   22.3492   34.1573 O   0  0  0  0  0  0  0  0  0  0  0  0
   12.7172   22.0928   34.8696 C   0  0  2  0  0  0  0  0  0  0  0  0
   12.6553   22.2735   30.5175 N   0  0  0  0  0  0  0  0  0  0  0  0
   13.8181   22.0887   37.0240 O   0  0  0  0  0  0  0  0  0  0  0  0
   13.0323   21.2888   36.1371 C   0  0  1  0  0  0  0  0  0  0  0  0
   11.2404   22.1489   32.8998 O   0  0  0  0  0  0  0  0  0  0  0  0
   11.7488   20.8671   36.8563 C   0  0  1  0  0  0  0  0  0  0  0  0
    9.2936   21.3482   31.8314 O   0  0  0  0  0  0  0  0  0  0  0  0
   10.8994   19.9825   35.9410 C   0  0  0  0  0  0  0  0  0  0  0  0
    8.3898   24.5972   30.3499 O   0  0  0  0  0  0  0  0  0  0  0  0
   10.5274   20.7710   34.6837 C   0  0  1  0  0  0  0  0  0  0  0  0
   10.9083   24.0338   29.0878 O   0  0  0  0  0  0  0  0  0  0  0  0
   11.7575   21.3287   33.9594 C   0  0  2  0  0  0  0  0  0  0  0  0
   15.7158   21.8636   31.6450 O   0  0  0  0  0  0  0  0  0  0  0  0
   10.7315   21.4046   31.7834 C   0  0  1  0  0  0  0  0  0  0  0  0
   16.3039   19.2394   32.3639 O   0  0  0  0  0  0  0  0  0  0  0  0
    8.6439   22.6288   31.7536 C   0  0  2  0  0  0  0  0  0  0  0  0
    7.1307   22.4184   31.8490 C   0  0  0  0  0  0  0  0  0  0  0  0
    9.0041   23.3072   30.4271 C   0  0  2  0  0  0  0  0  0  0  0  0
   10.5241   23.4616   30.3422 C   0  0  1  0  0  0  0  0  0  0  0  0
   11.1967   22.0958   30.4978 C   0  0  1  0  0  0  0  0  0  0  0  0
   15.9349   21.5549   33.0249 C   0  0  2  0  0  0  0  0  0  0  0  0
   16.7747   20.2924   33.2092 C   0  0  1  0  0  0  0  0  0  0  0  0
  3  1  1  0  0  0  0
  4  1  1  1  0  0  0
  4  6  1  0  0  0  0
  4 31  1  0  0  0  0
  6  7  1  0  0  0  0
  7  9  1  1  0  0  0
  7 30  1  0  0  0  0
 10  9  1  6  0  0  0
 10 13  1  0  0  0  0
 10 21  1  0  0  0  0
 13 12  1  1  0  0  0
 13 15  1  0  0  0  0
 15  2  1  1  0  0  0
 15 17  1  0  0  0  0
 16 25  1  0  0  0  0
 17 19  1  0  0  0  0
 19  5  1  6  0  0  0
 19 21  1  0  0  0  0
 21 14  1  6  0  0  0
 23 14  1  1  0  0  0
 23 16  1  0  0  0  0
 23 29  1  0  0  0  0
 25 26  1  6  0  0  0
 25 27  1  0  0  0  0
 26  8  1  0  0  0  0
 27 18  1  1  0  0  0
 27 28  1  0  0  0  0
 28 20  1  6  0  0  0
 28 29  1  0  0  0  0
 29 11  1  1  0  0  0
 30 22  1  6  0  0  0
 30 31  1  0  0  0  0
 31 24  1  6  0  0  0
M  END
>  <CHROM.1>
-54.73017169,-64.00273079,58.91710399,159.44632739,101.53192747,-57.81281216
12.37194744,21.61573013,33.28191330,-0.56376693,0.06663119,-1.24991089

>  <Name>
2fcz_lig

>  <RI>
1.40544e+07

>  <Rbt.Current_Directory>
/home/itssahil/PROJECTS/Mol_Feturizer/New_Systems/rnas/2fcz

>  <Rbt.Executable>
rbdock ($Id: //depot/dev/client3/rdock/2013.1/src/exe/rbdock.cxx#4 $)

>  <Rbt.Library>
libRbt.so (2013.1, Build901 2013/11/27)

>  <Rbt.Parameter_File>
/export/apps/rDock/src/rDock_2013.1_src/data/scripts/dock_solv.prm

>  <Rbt.Receptor>
prm/blind_docking_100.prm

>  <SCORE>
-3.46233

>  <SCORE.INTER>
-7.97094

>  <SCORE.INTER.CONST>
1

>  <SCORE.INTER.POLAR>
-0.730213

>  <SCORE.INTER.ROT>
6

>  <SCORE.INTER.SOLV>
15.8581

>  <SCORE.INTER.VDW>
-15.766

>  <SCORE.INTER.norm>
-0.257127

>  <SCORE.INTRA>
4.50861

>  <SCORE.INTRA.DIHEDRAL>
-2.98781

>  <SCORE.INTRA.DIHEDRAL.0>
10.8409

>  <SCORE.INTRA.POLAR>
0

>  <SCORE.INTRA.POLAR.0>
0

>  <SCORE.INTRA.REPUL>
0.000457335

>  <SCORE.INTRA.REPUL.0>
0

>  <SCORE.INTRA.SOLV>
2.65922

>  <SCORE.INTRA.SOLV.lig_0>
-80.8302

>  <SCORE.INTRA.VDW>
4.67062

>  <SCORE.INTRA.VDW.0>
-4.23953

>  <SCORE.INTRA.norm>
0.145439

>  <SCORE.RESTR>
0

>  <SCORE.RESTR.CAVITY>
0

>  <SCORE.RESTR.norm>
0

>  <SCORE.SYSTEM>
0

>  <SCORE.SYSTEM.CONST>
0

>  <SCORE.SYSTEM.DIHEDRAL>
0

>  <SCORE.SYSTEM.SOLV>
0

>  <SCORE.SYSTEM.norm>
0

>  <SCORE.heavy>
31

>  <SCORE.norm>
-0.111688

>  <RMSD>
5.522

$$$$
2fcz_lig
 OpenBabel11021811433D
libRbt.so/2013.1/901 2013/11/27
 31 33  0  0  0  0  0  0  0  0999 V2000
   12.2117   23.4431   35.0008 C   0  0  0  0  0  0  0  0  0  0  0  0
   10.2133   15.2658   32.5698 N   0  0  0  0  0  0  0  0  0  0  0  0
   13.3145   24.1426   35.5840 O   0  0  0  0  0  0  0  0  0  0  0  0
   12.0686   22.0668   35.6594 C   0  0  1  0  0  0  0  0  0  0  0  0
    7.8063   18.5548   29.8613 N   0  0  0  0  0  0  0  0  0  0  0  0
   11.0889   21.2519   34.9843 O   0  0  0  0  0  0  0  0  0  0  0  0
   11.7538   20.1964   34.2621 C   0  0  1  0  0  0  0  0  0  0  0  0
   10.0763   22.0234   27.6539 N   0  0  0  0  0  0  0  0  0  0  0  0
   11.2410   20.0292   32.9294 O   0  0  0  0  0  0  0  0  0  0  0  0
   10.1649   19.0815   32.8249 C   0  0  2  0  0  0  0  0  0  0  0  0
    7.8997   22.2262   33.7752 N   0  0  0  0  0  0  0  0  0  0  0  0
   11.3660   17.3813   34.0580 O   0  0  0  0  0  0  0  0  0  0  0  0
   10.7448   17.6618   32.8012 C   0  0  1  0  0  0  0  0  0  0  0  0
    8.5989   20.5795   31.6556 O   0  0  0  0  0  0  0  0  0  0  0  0
    9.6501   16.6228   32.5471 C   0  0  1  0  0  0  0  0  0  0  0  0
    9.8905   22.2660   30.6257 O   0  0  0  0  0  0  0  0  0  0  0  0
    8.9863   16.8790   31.1923 C   0  0  0  0  0  0  0  0  0  0  0  0
    6.9901   24.1929   29.4246 O   0  0  0  0  0  0  0  0  0  0  0  0
    8.3557   18.2730   31.1970 C   0  0  1  0  0  0  0  0  0  0  0  0
    6.6752   24.3356   32.2766 O   0  0  0  0  0  0  0  0  0  0  0  0
    9.3653   19.3689   31.5557 C   0  0  2  0  0  0  0  0  0  0  0  0
   14.1283   19.5580   33.9992 O   0  0  0  0  0  0  0  0  0  0  0  0
    9.3930   21.7543   31.8762 C   0  0  1  0  0  0  0  0  0  0  0  0
   13.4619   20.2919   36.6004 O   0  0  0  0  0  0  0  0  0  0  0  0
    8.8685   22.6746   29.7001 C   0  0  2  0  0  0  0  0  0  0  0  0
    9.5381   23.1618   28.4127 C   0  0  0  0  0  0  0  0  0  0  0  0
    8.0318   23.7980   30.3225 C   0  0  2  0  0  0  0  0  0  0  0  0
    7.4139   23.2948   31.6289 C   0  0  1  0  0  0  0  0  0  0  0  0
    8.5145   22.8001   32.5701 C   0  0  1  0  0  0  0  0  0  0  0  0
   13.2159   20.6414   34.2021 C   0  0  2  0  0  0  0  0  0  0  0  0
   13.3807   21.2870   35.5767 C   0  0  1  0  0  0  0  0  0  0  0  0
  3  1  1  0  0  0  0
  4  1  1  6  0  0  0
  4  6  1  0  0  0  0
  4 31  1  0  0  0  0
  6  7  1  0  0  0  0
  7  9  1  6  0  0  0
  7 30  1  0  0  0  0
 10  9  1  6  0  0  0
 10 13  1  0  0  0  0
 10 21  1  0  0  0  0
 13 12  1  1  0  0  0
 13 15  1  0  0  0  0
 15  2  1  6  0  0  0
 15 17  1  0  0  0  0
 16 25  1  0  0  0  0
 17 19  1  0  0  0  0
 19  5  1  6  0  0  0
 19 21  1  0  0  0  0
 21 14  1  1  0  0  0
 23 14  1  6  0  0  0
 23 16  1  0  0  0  0
 23 29  1  0  0  0  0
 25 26  1  6  0  0  0
 25 27  1  0  0  0  0
 26  8  1  0  0  0  0
 27 18  1  6  0  0  0
 27 28  1  0  0  0  0
 28 20  1  1  0  0  0
 28 29  1  0  0  0  0
 29 11  1  1  0  0  0
 30 22  1  1  0  0  0
 30 31  1  0  0  0  0
 31 24  1  1  0  0  0
M  END
>  <CHROM.1>
-172.11642032,-91.06502846,-80.11521624,60.40802411,84.20486204,73.00142635
10.16876856,20.84077619,32.52282255,-0.33177360,-0.84050551,0.09425142

>  <Name>
2fcz_lig

>  <RI>
2.26996e+07

>  <Rbt.Current_Directory>
/home/itssahil/PROJECTS/Mol_Feturizer/New_Systems/rnas/2fcz

>  <Rbt.Executable>
rbdock ($Id: //depot/dev/client3/rdock/2013.1/src/exe/rbdock.cxx#4 $)

>  <Rbt.Library>
libRbt.so (2013.1, Build901 2013/11/27)

>  <Rbt.Parameter_File>
/export/apps/rDock/src/rDock_2013.1_src/data/scripts/dock_solv.prm

>  <Rbt.Receptor>
prm/pocket_docking_4.prm

>  <SCORE>
-10.3617

>  <SCORE.INTER>
-9.55919

>  <SCORE.INTER.CONST>
1

>  <SCORE.INTER.POLAR>
-0.592325

>  <SCORE.INTER.ROT>
6

>  <SCORE.INTER.SOLV>
18.5913

>  <SCORE.INTER.VDW>
-18.1955

>  <SCORE.INTER.norm>
-0.308361

>  <SCORE.INTRA>
-0.802515

>  <SCORE.INTRA.DIHEDRAL>
-1.79406

>  <SCORE.INTRA.DIHEDRAL.0>
10.8409

>  <SCORE.INTRA.POLAR>
0

>  <SCORE.INTRA.POLAR.0>
0

>  <SCORE.INTRA.REPUL>
0

>  <SCORE.INTRA.REPUL.0>
0

>  <SCORE.INTRA.SOLV>
-3.04713

>  <SCORE.INTRA.SOLV.lig_0>
-80.8302

>  <SCORE.INTRA.VDW>
1.61808

>  <SCORE.INTRA.VDW.0>
-4.23953

>  <SCORE.INTRA.norm>
-0.0258876

>  <SCORE.RESTR>
0

>  <SCORE.RESTR.CAVITY>
0

>  <SCORE.RESTR.norm>
0

>  <SCORE.SYSTEM>
0

>  <SCORE.SYSTEM.CONST>
0

>  <SCORE.SYSTEM.DIHEDRAL>
0

>  <SCORE.SYSTEM.SOLV>
0

>  <SCORE.SYSTEM.norm>
0

>  <SCORE.heavy>
31

>  <SCORE.norm>
-0.334248

>  <RMSD>
5.522

$$$$
2fcz_lig
 OpenBabel11021811433D
libRbt.so/2013.1/901 2013/11/27
 31 33  0  0  0  0  0  0  0  0999 V2000
   13.0806   22.6732   34.0782 C   0  0  0  0  0  0  0  0  0  0  0  0
   10.3518   17.3087   40.3581 N   0  0  0  0  0  0  0  0  0  0  0  0
   11.8761   23.1998   33.5149 O   0  0  0  0  0  0  0  0  0  0  0  0
   12.9630   22.6402   35.6058 C   0  0  1  0  0  0  0  0  0  0  0  0
    8.1438   16.2509   36.1210 N   0  0  0  0  0  0  0  0  0  0  0  0
   11.9053   21.7616   36.0404 O   0  0  0  0  0  0  0  0  0  0  0  0
   12.4743   20.5787   36.6360 C   0  0  1  0  0  0  0  0  0  0  0  0
   11.7848   15.3939   33.2596 N   0  0  0  0  0  0  0  0  0  0  0  0
   11.8377   19.3709   36.1851 O   0  0  0  0  0  0  0  0  0  0  0  0
   10.6737   18.9983   36.9422 C   0  0  2  0  0  0  0  0  0  0  0  0
    8.3984   20.8704   33.6096 N   0  0  0  0  0  0  0  0  0  0  0  0
   11.7645   19.3946   39.0651 O   0  0  0  0  0  0  0  0  0  0  0  0
   11.1160   18.3915   38.2795 C   0  0  1  0  0  0  0  0  0  0  0  0
    9.2039   18.6124   35.0046 O   0  0  0  0  0  0  0  0  0  0  0  0
    9.9181   17.8477   39.0617 C   0  0  1  0  0  0  0  0  0  0  0  0
   10.8987   18.1130   33.4390 O   0  0  0  0  0  0  0  0  0  0  0  0
    9.2204   16.7483   38.2577 C   0  0  0  0  0  0  0  0  0  0  0  0
    8.5845   16.8686   30.8575 O   0  0  0  0  0  0  0  0  0  0  0  0
    8.7245   17.3319   36.9332 C   0  0  1  0  0  0  0  0  0  0  0  0
    7.7942   19.6193   31.1067 O   0  0  0  0  0  0  0  0  0  0  0  0
    9.8478   18.0003   36.1331 C   0  0  2  0  0  0  0  0  0  0  0  0
   14.7977   19.8337   37.0379 O   0  0  0  0  0  0  0  0  0  0  0  0
   10.1155   19.1603   34.0412 C   0  0  1  0  0  0  0  0  0  0  0  0
   14.3907   22.5322   37.5876 O   0  0  0  0  0  0  0  0  0  0  0  0
   10.1313   17.1367   32.7137 C   0  0  2  0  0  0  0  0  0  0  0  0
   11.0848   16.0746   32.1606 C   0  0  0  0  0  0  0  0  0  0  0  0
    9.3781   17.8234   31.5689 C   0  0  2  0  0  0  0  0  0  0  0  0
    8.4691   18.9086   32.1498 C   0  0  1  0  0  0  0  0  0  0  0  0
    9.2972   19.8960   32.9753 C   0  0  1  0  0  0  0  0  0  0  0  0
   13.9357   20.5931   36.1848 C   0  0  2  0  0  0  0  0  0  0  0  0
   14.2418   22.0888   36.2363 C   0  0  1  0  0  0  0  0  0  0  0  0
  3  1  1  0  0  0  0
  4  1  1  6  0  0  0
  4  6  1  0  0  0  0
  4 31  1  0  0  0  0
  6  7  1  0  0  0  0
  7  9  1  6  0  0  0
  7 30  1  0  0  0  0
 10  9  1  6  0  0  0
 10 13  1  0  0  0  0
 10 21  1  0  0  0  0
 13 12  1  1  0  0  0
 13 15  1  0  0  0  0
 15  2  1  1  0  0  0
 15 17  1  0  0  0  0
 16 25  1  0  0  0  0
 17 19  1  0  0  0  0
 19  5  1  6  0  0  0
 19 21  1  0  0  0  0
 21 14  1  6  0  0  0
 23 14  1  1  0  0  0
 23 16  1  0  0  0  0
 23 29  1  0  0  0  0
 25 26  1  6  0  0  0
 25 27  1  0  0  0  0
 26  8  1  0  0  0  0
 27 18  1  1  0  0  0
 27 28  1  0  0  0  0
 28 20  1  6  0  0  0
 28 29  1  0  0  0  0
 29 11  1  1  0  0  0
 30 22  1  1  0  0  0
 30 31  1  0  0  0  0
 31 24  1  1  0  0  0
M  END
>  <CHROM.1>
62.88234222,-86.76440501,-76.31633653,62.41719067,64.66601526,61.15344068
10.87374432,19.19414930,35.24606267,-0.48352290,-0.88630126,-1.17712968

>  <Name>
2fcz_lig

>  <RI>
1.32928e+07

>  <Rbt.Current_Directory>
/home/itssahil/PROJECTS/Mol_Feturizer/New_Systems/rnas/2fcz

>  <Rbt.Executable>
rbdock ($Id: //depot/dev/client3/rdock/2013.1/src/exe/rbdock.cxx#4 $)

>  <Rbt.Library>
libRbt.so (2013.1, Build901 2013/11/27)

>  <Rbt.Parameter_File>
/export/apps/rDock/src/rDock_2013.1_src/data/scripts/dock_solv.prm

>  <Rbt.Receptor>
prm/pocket_docking_7.prm

>  <SCORE>
-23.6165

>  <SCORE.INTER>
-20.1393

>  <SCORE.INTER.CONST>
1

>  <SCORE.INTER.POLAR>
-2.56713

>  <SCORE.INTER.ROT>
6

>  <SCORE.INTER.SOLV>
12.3926

>  <SCORE.INTER.VDW>
-16.5999

>  <SCORE.INTER.norm>
-0.649653

>  <SCORE.INTRA>
-3.47726

>  <SCORE.INTRA.DIHEDRAL>
-6.33631

>  <SCORE.INTRA.DIHEDRAL.0>
10.8409

>  <SCORE.INTRA.POLAR>
0

>  <SCORE.INTRA.POLAR.0>
0

>  <SCORE.INTRA.REPUL>
0

>  <SCORE.INTRA.REPUL.0>
0

>  <SCORE.INTRA.SOLV>
-3.72626

>  <SCORE.INTRA.SOLV.lig_0>
-80.8302

>  <SCORE.INTRA.VDW>
1.55403

>  <SCORE.INTRA.VDW.0>
-4.23953

>  <SCORE.INTRA.norm>
-0.11217

>  <SCORE.RESTR>
0

>  <SCORE.RESTR.CAVITY>
0

>  <SCORE.RESTR.norm>
0

>  <SCORE.SYSTEM>
0

>  <SCORE.SYSTEM.CONST>
0

>  <SCORE.SYSTEM.DIHEDRAL>
0

>  <SCORE.SYSTEM.SOLV>
0

>  <SCORE.SYSTEM.norm>
0

>  <SCORE.heavy>
31

>  <SCORE.norm>
-0.761823

>  <RMSD>
5.526

$$$$
2fcz_lig
 OpenBabel11021811433D
libRbt.so/2013.1/901 2013/11/27
 31 33  0  0  0  0  0  0  0  0999 V2000
   14.5854   12.3494   33.5093 C   0  0  0  0  0  0  0  0  0  0  0  0
   15.9184   16.9499   34.5590 N   0  0  0  0  0  0  0  0  0  0  0  0
   15.4071   13.5155   33.6113 O   0  0  0  0  0  0  0  0  0  0  0  0
   13.1124   12.7420   33.6669 C   0  0  1  0  0  0  0  0  0  0  0  0
   11.2657   18.4660   34.5312 N   0  0  0  0  0  0  0  0  0  0  0  0
   12.8958   14.1340   33.3588 O   0  0  0  0  0  0  0  0  0  0  0  0
   12.1932   14.2475   32.1053 C   0  0  1  0  0  0  0  0  0  0  0  0
    8.1563   21.5630   33.4400 N   0  0  0  0  0  0  0  0  0  0  0  0
   12.7580   15.2498   31.2430 O   0  0  0  0  0  0  0  0  0  0  0  0
   13.1936   16.4384   31.9245 C   0  0  2  0  0  0  0  0  0  0  0  0
    8.9055   16.2156   30.7177 N   0  0  0  0  0  0  0  0  0  0  0  0
   15.4855   15.6764   32.0671 O   0  0  0  0  0  0  0  0  0  0  0  0
   14.3633   16.0867   32.8522 C   0  0  1  0  0  0  0  0  0  0  0  0
   11.0218   17.5972   31.8605 O   0  0  0  0  0  0  0  0  0  0  0  0
   14.7702   17.2892   33.7071 C   0  0  1  0  0  0  0  0  0  0  0  0
    9.5825   19.0304   33.0634 O   0  0  0  0  0  0  0  0  0  0  0  0
   13.5964   17.7330   34.5829 C   0  0  0  0  0  0  0  0  0  0  0  0
    8.6069   21.0309   30.1284 O   0  0  0  0  0  0  0  0  0  0  0  0
   12.4242   18.1359   33.6860 C   0  0  1  0  0  0  0  0  0  0  0  0
    7.6022   18.4265   29.4495 O   0  0  0  0  0  0  0  0  0  0  0  0
   12.0230   17.0210   32.7140 C   0  0  2  0  0  0  0  0  0  0  0  0
   11.3295   12.5860   30.4904 O   0  0  0  0  0  0  0  0  0  0  0  0
    9.7329   17.7234   32.4787 C   0  0  1  0  0  0  0  0  0  0  0  0
   10.8837   11.8821   33.1465 O   0  0  0  0  0  0  0  0  0  0  0  0
    9.6533   20.1159   32.1228 C   0  0  2  0  0  0  0  0  0  0  0  0
    9.5116   21.4360   32.8847 C   0  0  0  0  0  0  0  0  0  0  0  0
    8.5293   19.9744   31.0903 C   0  0  2  0  0  0  0  0  0  0  0  0
    8.6720   18.6271   30.3790 C   0  0  1  0  0  0  0  0  0  0  0  0
    8.6647   17.4919   31.4052 C   0  0  1  0  0  0  0  0  0  0  0  0
   12.3414   12.8679   31.4619 C   0  0  2  0  0  0  0  0  0  0  0  0
   12.2356   11.9620   32.6873 C   0  0  1  0  0  0  0  0  0  0  0  0
  3  1  1  0  0  0  0
  4  1  1  6  0  0  0
  4  6  1  0  0  0  0
  4 31  1  0  0  0  0
  6  7  1  0  0  0  0
  7  9  1  6  0  0  0
  7 30  1  0  0  0  0
 10  9  1  1  0  0  0
 10 13  1  0  0  0  0
 10 21  1  0  0  0  0
 13 12  1  6  0  0  0
 13 15  1  0  0  0  0
 15  2  1  1  0  0  0
 15 17  1  0  0  0  0
 16 25  1  0  0  0  0
 17 19  1  0  0  0  0
 19  5  1  1  0  0  0
 19 21  1  0  0  0  0
 21 14  1  6  0  0  0
 23 14  1  6  0  0  0
 23 16  1  0  0  0  0
 23 29  1  0  0  0  0
 25 26  1  1  0  0  0
 25 27  1  0  0  0  0
 26  8  1  0  0  0  0
 27 18  1  6  0  0  0
 27 28  1  0  0  0  0
 28 20  1  6  0  0  0
 28 29  1  0  0  0  0
 29 11  1  6  0  0  0
 30 22  1  6  0  0  0
 30 31  1  0  0  0  0
 31 24  1  1  0  0  0
M  END
>  <CHROM.1>
22.28867640,-39.08571063,65.43830219,159.20155734,93.63711359,-67.56901792
11.59360962,16.57162528,32.39457220,0.80256157,0.50478374,-2.90975222

>  <Name>
2fcz_lig

>  <RI>
0

>  <Rbt.Current_Directory>
/home/itssahil/PROJECTS/Mol_Feturizer/New_Systems/rnas/2fcz

>  <Rbt.Executable>
rbdock ($Id: //depot/dev/client3/rdock/2013.1/src/exe/rbdock.cxx#4 $)

>  <Rbt.Library>
libRbt.so (2013.1, Build901 2013/11/27)

>  <Rbt.Parameter_File>
/export/apps/rDock/src/rDock_2013.1_src/data/scripts/dock_solv.prm

>  <Rbt.Receptor>
prm/blind_docking_40.prm

>  <SCORE>
7.62804

>  <SCORE.INTER>
-12.0556

>  <SCORE.INTER.CONST>
1

>  <SCORE.INTER.POLAR>
-1.78266

>  <SCORE.INTER.ROT>
6

>  <SCORE.INTER.SOLV>
21.1064

>  <SCORE.INTER.VDW>
-16.7304

>  <SCORE.INTER.norm>
-0.388892

>  <SCORE.INTRA>
9.49478

>  <SCORE.INTRA.DIHEDRAL>
1.39633

>  <SCORE.INTRA.DIHEDRAL.0>
10.8409

>  <SCORE.INTRA.POLAR>
0

>  <SCORE.INTRA.POLAR.0>
0

>  <SCORE.INTRA.REPUL>
0

>  <SCORE.INTRA.REPUL.0>
0

>  <SCORE.INTRA.SOLV>
3.01273

>  <SCORE.INTRA.SOLV.lig_0>
-80.8302

>  <SCORE.INTRA.VDW>
7.29025

>  <SCORE.INTRA.VDW.0>
-4.23953

>  <SCORE.INTRA.norm>
0.306283

>  <SCORE.RESTR>
10.1889

>  <SCORE.RESTR.CAVITY>
10.1889

>  <SCORE.RESTR.norm>
0.328674

>  <SCORE.SYSTEM>
0

>  <SCORE.SYSTEM.CONST>
0

>  <SCORE.SYSTEM.DIHEDRAL>
0

>  <SCORE.SYSTEM.SOLV>
0

>  <SCORE.SYSTEM.norm>
0

>  <SCORE.heavy>
31

>  <SCORE.norm>
0.246066

>  <RMSD>
5.529

$$$$
2fcz_lig
 OpenBabel11021811433D
libRbt.so/2013.1/901 2013/11/27
 31 33  0  0  0  0  0  0  0  0999 V2000
   11.8415   22.1987   34.9885 C   0  0  0  0  0  0  0  0  0  0  0  0
    8.0988   16.7513   39.9886 N   0  0  0  0  0  0  0  0  0  0  0  0
   12.8911   23.1423   34.7574 O   0  0  0  0  0  0  0  0  0  0  0  0
   11.9455   21.6524   36.4165 C   0  0  1  0  0  0  0  0  0  0  0  0
    6.3570   16.0533   35.4691 N   0  0  0  0  0  0  0  0  0  0  0  0
   10.8558   20.7603   36.7267 O   0  0  0  0  0  0  0  0  0  0  0  0
   11.3440   19.4055   36.7905 C   0  0  1  0  0  0  0  0  0  0  0  0
   10.8733   15.1267   33.0499 N   0  0  0  0  0  0  0  0  0  0  0  0
   10.4940   18.4775   36.0952 O   0  0  0  0  0  0  0  0  0  0  0  0
    9.1881   18.3227   36.6764 C   0  0  2  0  0  0  0  0  0  0  0  0
    7.5011   20.6102   33.2900 N   0  0  0  0  0  0  0  0  0  0  0  0
   10.0224   18.5435   38.9367 O   0  0  0  0  0  0  0  0  0  0  0  0
    9.3250   17.6616   38.0535 C   0  0  1  0  0  0  0  0  0  0  0  0
    7.9604   18.1805   34.5466 O   0  0  0  0  0  0  0  0  0  0  0  0
    7.9527   17.3445   38.6522 C   0  0  1  0  0  0  0  0  0  0  0  0
    9.9603   17.8114   33.3478 O   0  0  0  0  0  0  0  0  0  0  0  0
    7.1932   16.3763   37.7426 C   0  0  0  0  0  0  0  0  0  0  0  0
    8.2770   16.9511   30.1864 O   0  0  0  0  0  0  0  0  0  0  0  0
    6.9981   17.0240   36.3703 C   0  0  1  0  0  0  0  0  0  0  0  0
    7.4666   19.6786   30.5834 O   0  0  0  0  0  0  0  0  0  0  0  0
    8.3221   17.4767   35.7451 C   0  0  2  0  0  0  0  0  0  0  0  0
   13.5819   18.3952   36.4970 O   0  0  0  0  0  0  0  0  0  0  0  0
    9.0679   18.8066   33.8828 C   0  0  1  0  0  0  0  0  0  0  0  0
   13.6208   20.7636   37.9595 O   0  0  0  0  0  0  0  0  0  0  0  0
    9.3695   16.9514   32.3581 C   0  0  2  0  0  0  0  0  0  0  0  0
   10.4167   15.9303   31.9067 C   0  0  0  0  0  0  0  0  0  0  0  0
    8.8962   17.7906   31.1659 C   0  0  2  0  0  0  0  0  0  0  0  0
    7.8863   18.8300   31.6569 C   0  0  1  0  0  0  0  0  0  0  0  0
    8.5137   19.6874   32.7584 C   0  0  1  0  0  0  0  0  0  0  0  0
   12.7126   19.4639   36.1100 C   0  0  2  0  0  0  0  0  0  0  0  0
   13.2183   20.8235   36.5886 C   0  0  1  0  0  0  0  0  0  0  0  0
  3  1  1  0  0  0  0
  4  1  1  6  0  0  0
  4  6  1  0  0  0  0
  4 31  1  0  0  0  0
  6  7  1  0  0  0  0
  7  9  1  6  0  0  0
  7 30  1  0  0  0  0
 10  9  1  6  0  0  0
 10 13  1  0  0  0  0
 10 21  1  0  0  0  0
 13 12  1  1  0  0  0
 13 15  1  0  0  0  0
 15  2  1  1  0  0  0
 15 17  1  0  0  0  0
 16 25  1  0  0  0  0
 17 19  1  0  0  0  0
 19  5  1  6  0  0  0
 19 21  1  0  0  0  0
 21 14  1  6  0  0  0
 23 14  1  6  0  0  0
 23 16  1  0  0  0  0
 23 29  1  0  0  0  0
 25 26  1  6  0  0  0
 25 27  1  0  0  0  0
 26  8  1  0  0  0  0
 27 18  1  6  0  0  0
 27 28  1  0  0  0  0
 28 20  1  6  0  0  0
 28 29  1  0  0  0  0
 29 11  1  1  0  0  0
 30 22  1  1  0  0  0
 30 31  1  0  0  0  0
 31 24  1  1  0  0  0
M  END
>  <CHROM.1>
176.26066052,-65.65694288,-66.47704192,49.29623223,67.62635384,59.73586208
9.78536342,18.64084897,35.12778873,-0.77443118,-0.73672642,-1.41447178

>  <Name>
2fcz_lig

>  <RI>
0

>  <Rbt.Current_Directory>
/home/itssahil/PROJECTS/Mol_Feturizer/New_Systems/rnas/2fcz

>  <Rbt.Executable>
rbdock ($Id: //depot/dev/client3/rdock/2013.1/src/exe/rbdock.cxx#4 $)

>  <Rbt.Library>
libRbt.so (2013.1, Build901 2013/11/27)

>  <Rbt.Parameter_File>
/export/apps/rDock/src/rDock_2013.1_src/data/scripts/dock_solv.prm

>  <Rbt.Receptor>
prm/pocket_docking_5.prm

>  <SCORE>
-20.055

>  <SCORE.INTER>
-16.6806

>  <SCORE.INTER.CONST>
1

>  <SCORE.INTER.POLAR>
-1.90894

>  <SCORE.INTER.ROT>
6

>  <SCORE.INTER.SOLV>
21.3549

>  <SCORE.INTER.VDW>
-19.4755

>  <SCORE.INTER.norm>
-0.538083

>  <SCORE.INTRA>
-3.37447

>  <SCORE.INTRA.DIHEDRAL>
-9.45689

>  <SCORE.INTRA.DIHEDRAL.0>
10.8409

>  <SCORE.INTRA.POLAR>
0

>  <SCORE.INTRA.POLAR.0>
0

>  <SCORE.INTRA.REPUL>
0

>  <SCORE.INTRA.REPUL.0>
0

>  <SCORE.INTRA.SOLV>
-4.16335

>  <SCORE.INTRA.SOLV.lig_0>
-80.8302

>  <SCORE.INTRA.VDW>
3.43564

>  <SCORE.INTRA.VDW.0>
-4.23953

>  <SCORE.INTRA.norm>
-0.108854

>  <SCORE.RESTR>
0

>  <SCORE.RESTR.CAVITY>
0

>  <SCORE.RESTR.norm>
0

>  <SCORE.SYSTEM>
0

>  <SCORE.SYSTEM.CONST>
0

>  <SCORE.SYSTEM.DIHEDRAL>
0

>  <SCORE.SYSTEM.SOLV>
0

>  <SCORE.SYSTEM.norm>
0

>  <SCORE.heavy>
31

>  <SCORE.norm>
-0.646937

>  <RMSD>
5.538

$$$$
2fcz_lig
 OpenBabel11021811433D
libRbt.so/2013.1/901 2013/11/27
 31 33  0  0  0  0  0  0  0  0999 V2000
    9.6241   15.3669   36.7775 C   0  0  0  0  0  0  0  0  0  0  0  0
    7.5460   21.4632   31.2633 N   0  0  0  0  0  0  0  0  0  0  0  0
   10.5397   14.4731   36.1385 O   0  0  0  0  0  0  0  0  0  0  0  0
   10.3710   16.6199   37.2472 C   0  0  1  0  0  0  0  0  0  0  0  0
   11.9125   22.9236   32.9210 N   0  0  0  0  0  0  0  0  0  0  0  0
   10.9870   17.3178   36.1458 O   0  0  0  0  0  0  0  0  0  0  0  0
   10.2725   18.5433   35.8904 C   0  0  1  0  0  0  0  0  0  0  0  0
   14.7986   21.8010   32.0167 N   0  0  0  0  0  0  0  0  0  0  0  0
   10.0241   18.7578   34.4906 O   0  0  0  0  0  0  0  0  0  0  0  0
    9.6445   20.1039   34.1573 C   0  0  2  0  0  0  0  0  0  0  0  0
   12.1472   20.4239   37.7417 N   0  0  0  0  0  0  0  0  0  0  0  0
    7.5240   19.4146   33.2182 O   0  0  0  0  0  0  0  0  0  0  0  0
    8.7509   20.0812   32.9110 C   0  0  1  0  0  0  0  0  0  0  0  0
   11.6295   21.1916   35.1271 O   0  0  0  0  0  0  0  0  0  0  0  0
    8.4370   21.5002   32.4313 C   0  0  1  0  0  0  0  0  0  0  0  0
   13.7682   20.5189   34.3880 O   0  0  0  0  0  0  0  0  0  0  0  0
    9.7312   22.2298   32.0650 C   0  0  0  0  0  0  0  0  0  0  0  0
   15.5346   23.3791   35.8936 O   0  0  0  0  0  0  0  0  0  0  0  0
   10.6294   22.3114   33.3009 C   0  0  1  0  0  0  0  0  0  0  0  0
   14.4613   22.0453   38.2007 O   0  0  0  0  0  0  0  0  0  0  0  0
   10.9034   20.9342   33.9150 C   0  0  2  0  0  0  0  0  0  0  0  0
    8.3074   19.6106   36.9460 O   0  0  0  0  0  0  0  0  0  0  0  0
   12.7237   20.2909   35.3524 C   0  0  1  0  0  0  0  0  0  0  0  0
   10.0827   18.5018   38.7812 O   0  0  0  0  0  0  0  0  0  0  0  0
   14.3499   21.8331   34.4389 C   0  0  2  0  0  0  0  0  0  0  0  0
   15.4143   21.9418   33.3442 C   0  0  0  0  0  0  0  0  0  0  0  0
   14.9794   22.0625   35.8176 C   0  0  2  0  0  0  0  0  0  0  0  0
   13.9011   21.9022   36.8914 C   0  0  1  0  0  0  0  0  0  0  0  0
   13.2478   20.5234   36.7730 C   0  0  1  0  0  0  0  0  0  0  0  0
    8.9455   18.3692   36.6309 C   0  0  2  0  0  0  0  0  0  0  0  0
    9.4053   17.6212   37.8808 C   0  0  1  0  0  0  0  0  0  0  0  0
  3  1  1  0  0  0  0
  4  1  1  6  0  0  0
  4  6  1  0  0  0  0
  4 31  1  0  0  0  0
  6  7  1  0  0  0  0
  7  9  1  6  0  0  0
  7 30  1  0  0  0  0
 10  9  1  6  0  0  0
 10 13  1  0  0  0  0
 10 21  1  0  0  0  0
 13 12  1  1  0  0  0
 13 15  1  0  0  0  0
 15  2  1  6  0  0  0
 15 17  1  0  0  0  0
 16 25  1  0  0  0  0
 17 19  1  0  0  0  0
 19  5  1  6  0  0  0
 19 21  1  0  0  0  0
 21 14  1  1  0  0  0
 23 14  1  6  0  0  0
 23 16  1  0  0  0  0
 23 29  1  0  0  0  0
 25 26  1  6  0  0  0
 25 27  1  0  0  0  0
 26  8  1  0  0  0  0
 27 18  1  6  0  0  0
 27 28  1  0  0  0  0
 28 20  1  1  0  0  0
 28 29  1  0  0  0  0
 29 11  1  1  0  0  0
 30 22  1  1  0  0  0
 30 31  1  0  0  0  0
 31 24  1  1  0  0  0
M  END
>  <CHROM.1>
60.08188526,-164.23781506,-151.21000094,97.34994285,68.68005788,63.18724578
11.31242038,20.10130689,35.16424980,-2.48060719,-0.48622288,-0.84443466

>  <Name>
2fcz_lig

>  <RI>
0

>  <Rbt.Current_Directory>
/home/itssahil/PROJECTS/Mol_Feturizer/New_Systems/rnas/2fcz

>  <Rbt.Executable>
rbdock ($Id: //depot/dev/client3/rdock/2013.1/src/exe/rbdock.cxx#4 $)

>  <Rbt.Library>
libRbt.so (2013.1, Build901 2013/11/27)

>  <Rbt.Parameter_File>
/export/apps/rDock/src/rDock_2013.1_src/data/scripts/dock_solv.prm

>  <Rbt.Receptor>
prm/pocket_docking_5.prm

>  <SCORE>
-6.14899

>  <SCORE.INTER>
-6.8865

>  <SCORE.INTER.CONST>
1

>  <SCORE.INTER.POLAR>
-1.58157

>  <SCORE.INTER.ROT>
6

>  <SCORE.INTER.SOLV>
13.6021

>  <SCORE.INTER.VDW>
-11.4531

>  <SCORE.INTER.norm>
-0.222145

>  <SCORE.INTRA>
0.737507

>  <SCORE.INTRA.DIHEDRAL>
-0.925397

>  <SCORE.INTRA.DIHEDRAL.0>
10.8409

>  <SCORE.INTRA.POLAR>
0

>  <SCORE.INTRA.POLAR.0>
0

>  <SCORE.INTRA.REPUL>
0.00214978

>  <SCORE.INTRA.REPUL.0>
0

>  <SCORE.INTRA.SOLV>
3.03544

>  <SCORE.INTRA.SOLV.lig_0>
-80.8302

>  <SCORE.INTRA.VDW>
-0.328263

>  <SCORE.INTRA.VDW.0>
-4.23953

>  <SCORE.INTRA.norm>
0.0237905

>  <SCORE.RESTR>
0

>  <SCORE.RESTR.CAVITY>
0

>  <SCORE.RESTR.norm>
0

>  <SCORE.SYSTEM>
0

>  <SCORE.SYSTEM.CONST>
0

>  <SCORE.SYSTEM.DIHEDRAL>
0

>  <SCORE.SYSTEM.SOLV>
0

>  <SCORE.SYSTEM.norm>
0

>  <SCORE.heavy>
31

>  <SCORE.norm>
-0.198354

>  <RMSD>
5.541

$$$$
2fcz_lig
 OpenBabel11021811433D
libRbt.so/2013.1/901 2013/11/27
 31 33  0  0  0  0  0  0  0  0999 V2000
    9.4855   11.4100   33.7589 C   0  0  0  0  0  0  0  0  0  0  0  0
   16.3297   15.4649   33.2912 N   0  0  0  0  0  0  0  0  0  0  0  0
    9.1929   12.7987   33.9357 O   0  0  0  0  0  0  0  0  0  0  0  0
   11.0008   11.2142   33.6396 C   0  0  1  0  0  0  0  0  0  0  0  0
   12.3842   18.3089   33.8312 N   0  0  0  0  0  0  0  0  0  0  0  0
   11.5085   11.7297   32.3922 O   0  0  0  0  0  0  0  0  0  0  0  0
   12.2652   12.9315   32.6385 C   0  0  1  0  0  0  0  0  0  0  0  0
    8.7593   20.8572   34.0272 N   0  0  0  0  0  0  0  0  0  0  0  0
   11.9493   13.9843   31.7117 O   0  0  0  0  0  0  0  0  0  0  0  0
   12.8351   15.1148   31.7774 C   0  0  2  0  0  0  0  0  0  0  0  0
    8.7340   15.7378   30.8094 N   0  0  0  0  0  0  0  0  0  0  0  0
   14.8187   13.7372   31.6327 O   0  0  0  0  0  0  0  0  0  0  0  0
   14.1433   14.6907   32.4564 C   0  0  1  0  0  0  0  0  0  0  0  0
   11.0737   16.8353   31.8167 O   0  0  0  0  0  0  0  0  0  0  0  0
   15.0640   15.8927   32.6795 C   0  0  1  0  0  0  0  0  0  0  0  0
    9.9027   18.2653   33.2852 O   0  0  0  0  0  0  0  0  0  0  0  0
   14.3791   16.9190   33.5847 C   0  0  0  0  0  0  0  0  0  0  0  0
    8.8098   20.5949   30.6496 O   0  0  0  0  0  0  0  0  0  0  0  0
   13.0900   17.3991   32.9149 C   0  0  1  0  0  0  0  0  0  0  0  0
    7.5095   18.1520   29.8784 O   0  0  0  0  0  0  0  0  0  0  0  0
   12.1540   16.2407   32.5531 C   0  0  2  0  0  0  0  0  0  0  0  0
   12.8303   14.1869   34.6926 O   0  0  0  0  0  0  0  0  0  0  0  0
    9.8731   17.0086   32.5833 C   0  0  1  0  0  0  0  0  0  0  0  0
   13.0245   11.4265   34.9950 O   0  0  0  0  0  0  0  0  0  0  0  0
    9.9722   19.4221   32.4337 C   0  0  2  0  0  0  0  0  0  0  0  0
   10.0303   20.6751   33.3111 C   0  0  0  0  0  0  0  0  0  0  0  0
    8.7384   19.4656   31.5253 C   0  0  2  0  0  0  0  0  0  0  0  0
    8.6842   18.1810   30.6956 C   0  0  1  0  0  0  0  0  0  0  0  0
    8.6821   16.9620   31.6207 C   0  0  1  0  0  0  0  0  0  0  0  0
   11.8621   13.3493   34.0536 C   0  0  2  0  0  0  0  0  0  0  0  0
   11.7353   11.9878   34.7344 C   0  0  1  0  0  0  0  0  0  0  0  0
  3  1  1  0  0  0  0
  4  1  1  6  0  0  0
  4  6  1  0  0  0  0
  4 31  1  0  0  0  0
  6  7  1  0  0  0  0
  7  9  1  6  0  0  0
  7 30  1  0  0  0  0
 10  9  1  1  0  0  0
 10 13  1  0  0  0  0
 10 21  1  0  0  0  0
 13 12  1  6  0  0  0
 13 15  1  0  0  0  0
 15  2  1  1  0  0  0
 15 17  1  0  0  0  0
 16 25  1  0  0  0  0
 17 19  1  0  0  0  0
 19  5  1  1  0  0  0
 19 21  1  0  0  0  0
 21 14  1  6  0  0  0
 23 14  1  6  0  0  0
 23 16  1  0  0  0  0
 23 29  1  0  0  0  0
 25 26  1  1  0  0  0
 25 27  1  0  0  0  0
 26  8  1  0  0  0  0
 27 18  1  6  0  0  0
 27 28  1  0  0  0  0
 28 20  1  1  0  0  0
 28 29  1  0  0  0  0
 29 11  1  6  0  0  0
 30 22  1  1  0  0  0
 30 31  1  0  0  0  0
 31 24  1  6  0  0  0
M  END
>  <CHROM.1>
-70.48525306,-170.02969275,19.80354687,133.23955343,86.95960876,-67.34117443
11.30156895,15.81099900,32.70103219,1.08198222,0.18712856,3.00052786

>  <Name>
2fcz_lig

>  <RI>
0

>  <Rbt.Current_Directory>
/home/itssahil/PROJECTS/Mol_Feturizer/New_Systems/rnas/2fcz

>  <Rbt.Executable>
rbdock ($Id: //depot/dev/client3/rdock/2013.1/src/exe/rbdock.cxx#4 $)

>  <Rbt.Library>
libRbt.so (2013.1, Build901 2013/11/27)

>  <Rbt.Parameter_File>
/export/apps/rDock/src/rDock_2013.1_src/data/scripts/dock_solv.prm

>  <Rbt.Receptor>
prm/blind_docking_40.prm

>  <SCORE>
11.4823

>  <SCORE.INTER>
-7.50612

>  <SCORE.INTER.CONST>
1

>  <SCORE.INTER.POLAR>
-0.731096

>  <SCORE.INTER.ROT>
6

>  <SCORE.INTER.SOLV>
24.2674

>  <SCORE.INTER.VDW>
-18.2562

>  <SCORE.INTER.norm>
-0.242133

>  <SCORE.INTRA>
10.4854

>  <SCORE.INTRA.DIHEDRAL>
5.04799

>  <SCORE.INTRA.DIHEDRAL.0>
10.8409

>  <SCORE.INTRA.POLAR>
0

>  <SCORE.INTRA.POLAR.0>
0

>  <SCORE.INTRA.REPUL>
0

>  <SCORE.INTRA.REPUL.0>
0

>  <SCORE.INTRA.SOLV>
2.91153

>  <SCORE.INTRA.SOLV.lig_0>
-80.8302

>  <SCORE.INTRA.VDW>
6.50566

>  <SCORE.INTRA.VDW.0>
-4.23953

>  <SCORE.INTRA.norm>
0.338239

>  <SCORE.RESTR>
8.50305

>  <SCORE.RESTR.CAVITY>
8.50305

>  <SCORE.RESTR.norm>
0.274292

>  <SCORE.SYSTEM>
0

>  <SCORE.SYSTEM.CONST>
0

>  <SCORE.SYSTEM.DIHEDRAL>
0

>  <SCORE.SYSTEM.SOLV>
0

>  <SCORE.SYSTEM.norm>
0

>  <SCORE.heavy>
31

>  <SCORE.norm>
0.370398

>  <RMSD>
5.544

$$$$
2fcz_lig
 OpenBabel11021811433D
libRbt.so/2013.1/901 2013/11/27
 31 33  0  0  0  0  0  0  0  0999 V2000
    9.5140   11.3398   33.7315 C   0  0  0  0  0  0  0  0  0  0  0  0
   16.3227   15.4854   33.2676 N   0  0  0  0  0  0  0  0  0  0  0  0
    9.1906   12.7123   33.9707 O   0  0  0  0  0  0  0  0  0  0  0  0
   11.0345   11.1794   33.6284 C   0  0  1  0  0  0  0  0  0  0  0  0
   12.3708   18.3218   33.8010 N   0  0  0  0  0  0  0  0  0  0  0  0
   11.5438   11.7111   32.3884 O   0  0  0  0  0  0  0  0  0  0  0  0
   12.2698   12.9292   32.6472 C   0  0  1  0  0  0  0  0  0  0  0  0
    8.7462   20.8944   33.9954 N   0  0  0  0  0  0  0  0  0  0  0  0
   11.9399   13.9778   31.7206 O   0  0  0  0  0  0  0  0  0  0  0  0
   12.8224   15.1116   31.7727 C   0  0  2  0  0  0  0  0  0  0  0  0
    8.7064   15.7629   30.7849 N   0  0  0  0  0  0  0  0  0  0  0  0
   14.8097   13.7389   31.6307 O   0  0  0  0  0  0  0  0  0  0  0  0
   14.1349   14.6974   32.4494 C   0  0  1  0  0  0  0  0  0  0  0  0
   11.0559   16.8269   31.8052 O   0  0  0  0  0  0  0  0  0  0  0  0
   15.0530   15.9041   32.6580 C   0  0  1  0  0  0  0  0  0  0  0  0
    9.8979   18.2472   33.2934 O   0  0  0  0  0  0  0  0  0  0  0  0
   14.3689   16.9359   33.5574 C   0  0  0  0  0  0  0  0  0  0  0  0
    8.8234   20.6209   30.6898 O   0  0  0  0  0  0  0  0  0  0  0  0
   13.0753   17.4063   32.8894 C   0  0  1  0  0  0  0  0  0  0  0  0
    7.5019   18.1996   29.8870 O   0  0  0  0  0  0  0  0  0  0  0  0
   12.1414   16.2420   32.5417 C   0  0  2  0  0  0  0  0  0  0  0  0
   12.7832   14.1897   34.7118 O   0  0  0  0  0  0  0  0  0  0  0  0
    9.8572   17.0002   32.5748 C   0  0  1  0  0  0  0  0  0  0  0  0
   13.0378   11.4334   35.0067 O   0  0  0  0  0  0  0  0  0  0  0  0
    9.9768   19.4146   32.4574 C   0  0  2  0  0  0  0  0  0  0  0  0
   10.0460   20.6552   33.3513 C   0  0  0  0  0  0  0  0  0  0  0  0
    8.7429   19.4806   31.5504 C   0  0  2  0  0  0  0  0  0  0  0  0
    8.6773   18.2077   30.7037 C   0  0  1  0  0  0  0  0  0  0  0  0
    8.6653   16.9765   31.6125 C   0  0  1  0  0  0  0  0  0  0  0  0
   11.8417   13.3323   34.0592 C   0  0  2  0  0  0  0  0  0  0  0  0
   11.7389   11.9658   34.7339 C   0  0  1  0  0  0  0  0  0  0  0  0
  3  1  1  0  0  0  0
  4  1  1  6  0  0  0
  4  6  1  0  0  0  0
  4 31  1  0  0  0  0
  6  7  1  0  0  0  0
  7  9  1  6  0  0  0
  7 30  1  0  0  0  0
 10  9  1  1  0  0  0
 10 13  1  0  0  0  0
 10 21  1  0  0  0  0
 13 12  1  6  0  0  0
 13 15  1  0  0  0  0
 15  2  1  1  0  0  0
 15 17  1  0  0  0  0
 16 25  1  0  0  0  0
 17 19  1  0  0  0  0
 19  5  1  1  0  0  0
 19 21  1  0  0  0  0
 21 14  1  6  0  0  0
 23 14  1  6  0  0  0
 23 16  1  0  0  0  0
 23 29  1  0  0  0  0
 25 26  1  1  0  0  0
 25 27  1  0  0  0  0
 26  8  1  0  0  0  0
 27 18  1  6  0  0  0
 27 28  1  0  0  0  0
 28 20  1  1  0  0  0
 28 29  1  0  0  0  0
 29 11  1  6  0  0  0
 30 22  1  1  0  0  0
 30 31  1  0  0  0  0
 31 24  1  6  0  0  0
M  END
>  <CHROM.1>
-73.09917834,-168.28194754,19.31104067,133.09970490,85.58567221,-71.43892589
11.29738228,15.80940261,32.70042837,1.08837777,0.18304892,2.99989312

>  <Name>
2fcz_lig

>  <RI>
0

>  <Rbt.Current_Directory>
/home/itssahil/PROJECTS/Mol_Feturizer/New_Systems/rnas/2fcz

>  <Rbt.Executable>
rbdock ($Id: //depot/dev/client3/rdock/2013.1/src/exe/rbdock.cxx#4 $)

>  <Rbt.Library>
libRbt.so (2013.1, Build901 2013/11/27)

>  <Rbt.Parameter_File>
/export/apps/rDock/src/rDock_2013.1_src/data/scripts/dock_solv.prm

>  <Rbt.Receptor>
prm/blind_docking_40.prm

>  <SCORE>
11.3808

>  <SCORE.INTER>
-7.88401

>  <SCORE.INTER.CONST>
1

>  <SCORE.INTER.POLAR>
-0.74102

>  <SCORE.INTER.ROT>
6

>  <SCORE.INTER.SOLV>
24.3714

>  <SCORE.INTER.VDW>
-18.5097

>  <SCORE.INTER.norm>
-0.254323

>  <SCORE.INTRA>
10.752

>  <SCORE.INTRA.DIHEDRAL>
5.53704

>  <SCORE.INTRA.DIHEDRAL.0>
10.8409

>  <SCORE.INTRA.POLAR>
0

>  <SCORE.INTRA.POLAR.0>
0

>  <SCORE.INTRA.REPUL>
0

>  <SCORE.INTRA.REPUL.0>
0

>  <SCORE.INTRA.SOLV>
2.90579

>  <SCORE.INTRA.SOLV.lig_0>
-80.8302

>  <SCORE.INTRA.VDW>
6.5306

>  <SCORE.INTRA.VDW.0>
-4.23953

>  <SCORE.INTRA.norm>
0.346839

>  <SCORE.RESTR>
8.5128

>  <SCORE.RESTR.CAVITY>
8.5128

>  <SCORE.RESTR.norm>
0.274606

>  <SCORE.SYSTEM>
0

>  <SCORE.SYSTEM.CONST>
0

>  <SCORE.SYSTEM.DIHEDRAL>
0

>  <SCORE.SYSTEM.SOLV>
0

>  <SCORE.SYSTEM.norm>
0

>  <SCORE.heavy>
31

>  <SCORE.norm>
0.367123

>  <RMSD>
5.548

$$$$
2fcz_lig
 OpenBabel11021811433D
libRbt.so/2013.1/901 2013/11/27
 31 33  0  0  0  0  0  0  0  0999 V2000
   12.5072   10.3213   33.5204 C   0  0  0  0  0  0  0  0  0  0  0  0
   16.4835   15.2761   33.3016 N   0  0  0  0  0  0  0  0  0  0  0  0
   11.8173   10.6169   32.3029 O   0  0  0  0  0  0  0  0  0  0  0  0
   12.4085   11.5186   34.4719 C   0  0  1  0  0  0  0  0  0  0  0  0
   12.9605   18.6487   33.7037 N   0  0  0  0  0  0  0  0  0  0  0  0
   12.8874   12.7309   33.8548 O   0  0  0  0  0  0  0  0  0  0  0  0
   11.7738   13.6010   33.5713 C   0  0  1  0  0  0  0  0  0  0  0  0
   10.0461   22.0934   31.3989 N   0  0  0  0  0  0  0  0  0  0  0  0
   11.8399   14.1736   32.2541 O   0  0  0  0  0  0  0  0  0  0  0  0
   12.8547   15.1799   32.0976 C   0  0  2  0  0  0  0  0  0  0  0  0
    8.9864   15.6748   31.5431 N   0  0  0  0  0  0  0  0  0  0  0  0
   14.6429   13.5524   32.0132 O   0  0  0  0  0  0  0  0  0  0  0  0
   14.1575   14.6851   32.7380 C   0  0  1  0  0  0  0  0  0  0  0  0
   11.3176   17.1020   32.0139 O   0  0  0  0  0  0  0  0  0  0  0  0
   15.2289   15.7780   32.7243 C   0  0  1  0  0  0  0  0  0  0  0  0
   10.1675   18.8227   33.1493 O   0  0  0  0  0  0  0  0  0  0  0  0
   14.7496   16.9942   33.5199 C   0  0  0  0  0  0  0  0  0  0  0  0
    8.7349   20.3086   30.0985 O   0  0  0  0  0  0  0  0  0  0  0  0
   13.4731   17.5428   32.8793 C   0  0  1  0  0  0  0  0  0  0  0  0
    7.5427   17.6949   30.1185 O   0  0  0  0  0  0  0  0  0  0  0  0
   12.3799   16.4764   32.7508 C   0  0  2  0  0  0  0  0  0  0  0  0
    9.3365   13.4099   33.9432 O   0  0  0  0  0  0  0  0  0  0  0  0
   10.1679   17.4234   32.8102 C   0  0  1  0  0  0  0  0  0  0  0  0
   10.8575   12.4974   36.0887 O   0  0  0  0  0  0  0  0  0  0  0  0
   10.0990   19.7098   32.0195 C   0  0  2  0  0  0  0  0  0  0  0  0
   10.1399   21.1538   32.5257 C   0  0  0  0  0  0  0  0  0  0  0  0
    8.8015   19.4543   31.2444 C   0  0  2  0  0  0  0  0  0  0  0  0
    8.7699   17.9929   30.7921 C   0  0  1  0  0  0  0  0  0  0  0  0
    8.9149   17.0686   32.0031 C   0  0  1  0  0  0  0  0  0  0  0  0
   10.5472   12.6938   33.6804 C   0  0  2  0  0  0  0  0  0  0  0  0
   10.9525   11.7947   34.8468 C   0  0  1  0  0  0  0  0  0  0  0  0
  3  1  1  0  0  0  0
  4  1  1  6  0  0  0
  4  6  1  0  0  0  0
  4 31  1  0  0  0  0
  6  7  1  0  0  0  0
  7  9  1  6  0  0  0
  7 30  1  0  0  0  0
 10  9  1  1  0  0  0
 10 13  1  0  0  0  0
 10 21  1  0  0  0  0
 13 12  1  6  0  0  0
 13 15  1  0  0  0  0
 15  2  1  1  0  0  0
 15 17  1  0  0  0  0
 16 25  1  0  0  0  0
 17 19  1  0  0  0  0
 19  5  1  1  0  0  0
 19 21  1  0  0  0  0
 21 14  1  6  0  0  0
 23 14  1  6  0  0  0
 23 16  1  0  0  0  0
 23 29  1  0  0  0  0
 25 26  1  1  0  0  0
 25 27  1  0  0  0  0
 26  8  1  0  0  0  0
 27 18  1  6  0  0  0
 27 28  1  0  0  0  0
 28 20  1  1  0  0  0
 28 29  1  0  0  0  0
 29 11  1  6  0  0  0
 30 22  1  1  0  0  0
 30 31  1  0  0  0  0
 31 24  1  1  0  0  0
M  END
>  <CHROM.1>
-54.99736724,-72.02817554,45.19491133,128.15480042,100.85296299,-178.92846009
11.44436063,15.83826985,32.70184964,1.18854540,0.15772895,2.91498799

>  <Name>
2fcz_lig

>  <RI>
0

>  <Rbt.Current_Directory>
/home/itssahil/PROJECTS/Mol_Feturizer/New_Systems/rnas/2fcz

>  <Rbt.Executable>
rbdock ($Id: //depot/dev/client3/rdock/2013.1/src/exe/rbdock.cxx#4 $)

>  <Rbt.Library>
libRbt.so (2013.1, Build901 2013/11/27)

>  <Rbt.Parameter_File>
/export/apps/rDock/src/rDock_2013.1_src/data/scripts/dock_solv.prm

>  <Rbt.Receptor>
prm/blind_docking_40.prm

>  <SCORE>
11.8117

>  <SCORE.INTER>
-3.6994

>  <SCORE.INTER.CONST>
1

>  <SCORE.INTER.POLAR>
0

>  <SCORE.INTER.ROT>
6

>  <SCORE.INTER.SOLV>
18.3674

>  <SCORE.INTER.VDW>
-16.1887

>  <SCORE.INTER.norm>
-0.119335

>  <SCORE.INTRA>
6.66872

>  <SCORE.INTRA.DIHEDRAL>
3.39361

>  <SCORE.INTRA.DIHEDRAL.0>
10.8409

>  <SCORE.INTRA.POLAR>
0

>  <SCORE.INTRA.POLAR.0>
0

>  <SCORE.INTRA.REPUL>
0

>  <SCORE.INTRA.REPUL.0>
0

>  <SCORE.INTRA.SOLV>
2.61752

>  <SCORE.INTRA.SOLV.lig_0>
-80.8302

>  <SCORE.INTRA.VDW>
3.66316

>  <SCORE.INTRA.VDW.0>
-4.23953

>  <SCORE.INTRA.norm>
0.21512

>  <SCORE.RESTR>
8.84235

>  <SCORE.RESTR.CAVITY>
8.84235

>  <SCORE.RESTR.norm>
0.285237

>  <SCORE.SYSTEM>
0

>  <SCORE.SYSTEM.CONST>
0

>  <SCORE.SYSTEM.DIHEDRAL>
0

>  <SCORE.SYSTEM.SOLV>
0

>  <SCORE.SYSTEM.norm>
0

>  <SCORE.heavy>
31

>  <SCORE.norm>
0.381022

>  <RMSD>
5.555

$$$$
2fcz_lig
 OpenBabel11021811433D
libRbt.so/2013.1/901 2013/11/27
 31 33  0  0  0  0  0  0  0  0999 V2000
   13.2695   22.8093   34.0742 C   0  0  0  0  0  0  0  0  0  0  0  0
   10.5572   17.1768   40.1847 N   0  0  0  0  0  0  0  0  0  0  0  0
   14.2676   23.7725   33.7255 O   0  0  0  0  0  0  0  0  0  0  0  0
   13.1108   22.7609   35.5977 C   0  0  1  0  0  0  0  0  0  0  0  0
    8.1202   16.4752   35.9995 N   0  0  0  0  0  0  0  0  0  0  0  0
   12.0169   21.9083   35.9930 O   0  0  0  0  0  0  0  0  0  0  0  0
   12.5354   20.7020   36.5876 C   0  0  1  0  0  0  0  0  0  0  0  0
   11.9068   15.8947   33.1261 N   0  0  0  0  0  0  0  0  0  0  0  0
   11.8762   19.5191   36.1044 O   0  0  0  0  0  0  0  0  0  0  0  0
   10.7439   19.1107   36.8905 C   0  0  2  0  0  0  0  0  0  0  0  0
    8.2816   21.1522   33.6633 N   0  0  0  0  0  0  0  0  0  0  0  0
   11.9467   19.3292   38.9783 O   0  0  0  0  0  0  0  0  0  0  0  0
   11.2394   18.3985   38.1552 C   0  0  1  0  0  0  0  0  0  0  0  0
    9.1720   18.8952   35.0072 O   0  0  0  0  0  0  0  0  0  0  0  0
   10.0709   17.8182   38.9553 C   0  0  1  0  0  0  0  0  0  0  0  0
   10.8316   18.4492   33.3887 O   0  0  0  0  0  0  0  0  0  0  0  0
    9.3117   16.7938   38.1093 C   0  0  0  0  0  0  0  0  0  0  0  0
    8.4711   17.1876   30.8581 O   0  0  0  0  0  0  0  0  0  0  0  0
    8.7627   17.4827   36.8584 C   0  0  1  0  0  0  0  0  0  0  0  0
    7.6323   19.9184   31.1631 O   0  0  0  0  0  0  0  0  0  0  0  0
    9.8584   18.1898   36.0533 C   0  0  2  0  0  0  0  0  0  0  0  0
   14.8248   19.8843   37.0401 O   0  0  0  0  0  0  0  0  0  0  0  0
   10.0446   19.4731   34.0255 C   0  0  1  0  0  0  0  0  0  0  0  0
   14.4818   22.5865   37.6145 O   0  0  0  0  0  0  0  0  0  0  0  0
   10.0640   17.4659   32.6733 C   0  0  2  0  0  0  0  0  0  0  0  0
   11.0228   16.4303   32.0807 C   0  0  0  0  0  0  0  0  0  0  0  0
    9.2649   18.1503   31.5586 C   0  0  2  0  0  0  0  0  0  0  0  0
    8.3508   19.2096   32.1780 C   0  0  1  0  0  0  0  0  0  0  0  0
    9.1817   20.2041   32.9921 C   0  0  1  0  0  0  0  0  0  0  0  0
   14.0080   20.6791   36.1749 C   0  0  2  0  0  0  0  0  0  0  0  0
   14.3558   22.1644   36.2540 C   0  0  1  0  0  0  0  0  0  0  0  0
  3  1  1  0  0  0  0
  4  1  1  6  0  0  0
  4  6  1  0  0  0  0
  4 31  1  0  0  0  0
  6  7  1  0  0  0  0
  7  9  1  6  0  0  0
  7 30  1  0  0  0  0
 10  9  1  6  0  0  0
 10 13  1  0  0  0  0
 10 21  1  0  0  0  0
 13 12  1  1  0  0  0
 13 15  1  0  0  0  0
 15  2  1  1  0  0  0
 15 17  1  0  0  0  0
 16 25  1  0  0  0  0
 17 19  1  0  0  0  0
 19  5  1  6  0  0  0
 19 21  1  0  0  0  0
 21 14  1  6  0  0  0
 23 14  1  1  0  0  0
 23 16  1  0  0  0  0
 23 29  1  0  0  0  0
 25 26  1  6  0  0  0
 25 27  1  0  0  0  0
 26  8  1  0  0  0  0
 27 18  1  1  0  0  0
 27 28  1  0  0  0  0
 28 20  1  6  0  0  0
 28 29  1  0  0  0  0
 29 11  1  1  0  0  0
 30 22  1  1  0  0  0
 30 31  1  0  0  0  0
 31 24  1  1  0  0  0
M  END
>  <CHROM.1>
173.85218761,-91.47929283,-78.06132225,63.71085890,59.90178728,52.76879149
10.98532254,19.38836773,35.21298661,-0.37333131,-0.81078379,-1.16783671

>  <Name>
2fcz_lig

>  <RI>
2.29611e+07

>  <Rbt.Current_Directory>
/home/itssahil/PROJECTS/Mol_Feturizer/New_Systems/rnas/2fcz

>  <Rbt.Executable>
rbdock ($Id: //depot/dev/client3/rdock/2013.1/src/exe/rbdock.cxx#4 $)

>  <Rbt.Library>
libRbt.so (2013.1, Build901 2013/11/27)

>  <Rbt.Parameter_File>
/export/apps/rDock/src/rDock_2013.1_src/data/scripts/dock_solv.prm

>  <Rbt.Receptor>
prm/pocket_docking_3.prm

>  <SCORE>
-22.8191

>  <SCORE.INTER>
-20.0544

>  <SCORE.INTER.CONST>
1

>  <SCORE.INTER.POLAR>
-2.55549

>  <SCORE.INTER.ROT>
6

>  <SCORE.INTER.SOLV>
12.6329

>  <SCORE.INTER.VDW>
-16.6622

>  <SCORE.INTER.norm>
-0.646915

>  <SCORE.INTRA>
-2.76993

>  <SCORE.INTRA.DIHEDRAL>
-4.99656

>  <SCORE.INTRA.DIHEDRAL.0>
10.8409

>  <SCORE.INTRA.POLAR>
0

>  <SCORE.INTRA.POLAR.0>
0

>  <SCORE.INTRA.REPUL>
0

>  <SCORE.INTRA.REPUL.0>
0

>  <SCORE.INTRA.SOLV>
-3.68889

>  <SCORE.INTRA.SOLV.lig_0>
-80.8302

>  <SCORE.INTRA.VDW>
1.5728

>  <SCORE.INTRA.VDW.0>
-4.23953

>  <SCORE.INTRA.norm>
-0.0893525

>  <SCORE.RESTR>
0.00525346

>  <SCORE.RESTR.CAVITY>
0.00525346

>  <SCORE.RESTR.norm>
0.000169467

>  <SCORE.SYSTEM>
0

>  <SCORE.SYSTEM.CONST>
0

>  <SCORE.SYSTEM.DIHEDRAL>
0

>  <SCORE.SYSTEM.SOLV>
0

>  <SCORE.SYSTEM.norm>
0

>  <SCORE.heavy>
31

>  <SCORE.norm>
-0.736098

>  <RMSD>
5.558

$$$$
2fcz_lig
 OpenBabel11021811433D
libRbt.so/2013.1/901 2013/11/27
 31 33  0  0  0  0  0  0  0  0999 V2000
   17.2741   17.3827   35.9867 C   0  0  0  0  0  0  0  0  0  0  0  0
   11.7565   19.9144   38.5024 N   0  0  0  0  0  0  0  0  0  0  0  0
   17.5690   18.5940   35.2857 O   0  0  0  0  0  0  0  0  0  0  0  0
   15.8622   16.9092   35.6251 C   0  0  1  0  0  0  0  0  0  0  0  0
    9.5694   19.9371   34.1248 N   0  0  0  0  0  0  0  0  0  0  0  0
   14.8892   17.9612   35.7872 O   0  0  0  0  0  0  0  0  0  0  0  0
   14.4450   18.4120   34.4921 C   0  0  1  0  0  0  0  0  0  0  0  0
   14.8212   23.2113   29.2115 N   0  0  0  0  0  0  0  0  0  0  0  0
   14.3968   19.8455   34.3915 O   0  0  0  0  0  0  0  0  0  0  0  0
   13.2519   20.4439   35.0224 C   0  0  2  0  0  0  0  0  0  0  0  0
    9.5995   22.2575   32.8423 N   0  0  0  0  0  0  0  0  0  0  0  0
   14.2473   20.3434   37.2253 O   0  0  0  0  0  0  0  0  0  0  0  0
   13.1266   19.9055   36.4530 C   0  0  1  0  0  0  0  0  0  0  0  0
   11.9737   20.8276   32.9529 O   0  0  0  0  0  0  0  0  0  0  0  0
   11.8416   20.4029   37.1192 C   0  0  1  0  0  0  0  0  0  0  0  0
   13.2798   22.7474   32.5270 O   0  0  0  0  0  0  0  0  0  0  0  0
   10.6209   19.9230   36.3308 C   0  0  0  0  0  0  0  0  0  0  0  0
   12.4303   22.9170   28.9469 O   0  0  0  0  0  0  0  0  0  0  0  0
   10.6902   20.4811   34.9079 C   0  0  1  0  0  0  0  0  0  0  0  0
    9.8748   23.3165   30.1971 O   0  0  0  0  0  0  0  0  0  0  0  0
   12.0032   20.1222   34.2036 C   0  0  2  0  0  0  0  0  0  0  0  0
   15.0046   17.7380   32.1796 O   0  0  0  0  0  0  0  0  0  0  0  0
   12.0487   22.2544   33.0878 C   0  0  1  0  0  0  0  0  0  0  0  0
   14.7153   15.5846   33.9199 O   0  0  0  0  0  0  0  0  0  0  0  0
   13.4363   22.4967   31.1197 C   0  0  2  0  0  0  0  0  0  0  0  0
   14.7945   23.0424   30.6717 C   0  0  0  0  0  0  0  0  0  0  0  0
   12.3054   23.1847   30.3470 C   0  0  2  0  0  0  0  0  0  0  0  0
   10.9618   22.6517   30.8490 C   0  0  1  0  0  0  0  0  0  0  0  0
   10.8472   22.8658   32.3600 C   0  0  1  0  0  0  0  0  0  0  0  0
   15.4892   17.8597   33.5204 C   0  0  2  0  0  0  0  0  0  0  0  0
   15.7871   16.5019   34.1536 C   0  0  1  0  0  0  0  0  0  0  0  0
  3  1  1  0  0  0  0
  4  1  1  6  0  0  0
  4  6  1  0  0  0  0
  4 31  1  0  0  0  0
  6  7  1  0  0  0  0
  7  9  1  1  0  0  0
  7 30  1  0  0  0  0
 10  9  1  6  0  0  0
 10 13  1  0  0  0  0
 10 21  1  0  0  0  0
 13 12  1  1  0  0  0
 13 15  1  0  0  0  0
 15  2  1  1  0  0  0
 15 17  1  0  0  0  0
 16 25  1  0  0  0  0
 17 19  1  0  0  0  0
 19  5  1  6  0  0  0
 19 21  1  0  0  0  0
 21 14  1  6  0  0  0
 23 14  1  6  0  0  0
 23 16  1  0  0  0  0
 23 29  1  0  0  0  0
 25 26  1  6  0  0  0
 25 27  1  0  0  0  0
 26  8  1  0  0  0  0
 27 18  1  6  0  0  0
 27 28  1  0  0  0  0
 28 20  1  6  0  0  0
 28 29  1  0  0  0  0
 29 11  1  1  0  0  0
 30 22  1  6  0  0  0
 30 31  1  0  0  0  0
 31 24  1  1  0  0  0
M  END
>  <CHROM.1>
-51.24896152,-77.85997602,50.53052509,-57.31186077,113.99446702,-161.55073456
13.22597239,20.30856581,33.66925492,-1.02818329,0.52932915,-1.05049369

>  <Name>
2fcz_lig

>  <RI>
2.6968e+07

>  <Rbt.Current_Directory>
/home/itssahil/PROJECTS/Mol_Feturizer/New_Systems/rnas/2fcz

>  <Rbt.Executable>
rbdock ($Id: //depot/dev/client3/rdock/2013.1/src/exe/rbdock.cxx#4 $)

>  <Rbt.Library>
libRbt.so (2013.1, Build901 2013/11/27)

>  <Rbt.Parameter_File>
/export/apps/rDock/src/rDock_2013.1_src/data/scripts/dock_solv.prm

>  <Rbt.Receptor>
prm/blind_docking_60.prm

>  <SCORE>
-11.48

>  <SCORE.INTER>
-17.9729

>  <SCORE.INTER.CONST>
1

>  <SCORE.INTER.POLAR>
-2.07088

>  <SCORE.INTER.ROT>
6

>  <SCORE.INTER.SOLV>
19.8778

>  <SCORE.INTER.VDW>
-19.3049

>  <SCORE.INTER.norm>
-0.57977

>  <SCORE.INTRA>
6.49283

>  <SCORE.INTRA.DIHEDRAL>
-0.345347

>  <SCORE.INTRA.DIHEDRAL.0>
10.8409

>  <SCORE.INTRA.POLAR>
0

>  <SCORE.INTRA.POLAR.0>
0

>  <SCORE.INTRA.REPUL>
0

>  <SCORE.INTRA.REPUL.0>
0

>  <SCORE.INTRA.SOLV>
2.28725

>  <SCORE.INTRA.SOLV.lig_0>
-80.8302

>  <SCORE.INTRA.VDW>
5.52187

>  <SCORE.INTRA.VDW.0>
-4.23953

>  <SCORE.INTRA.norm>
0.209446

>  <SCORE.RESTR>
0

>  <SCORE.RESTR.CAVITY>
0

>  <SCORE.RESTR.norm>
0

>  <SCORE.SYSTEM>
0

>  <SCORE.SYSTEM.CONST>
0

>  <SCORE.SYSTEM.DIHEDRAL>
0

>  <SCORE.SYSTEM.SOLV>
0

>  <SCORE.SYSTEM.norm>
0

>  <SCORE.heavy>
31

>  <SCORE.norm>
-0.370324

>  <RMSD>
5.559

$$$$
2fcz_lig
 OpenBabel11021811433D
libRbt.so/2013.1/901 2013/11/27
 31 33  0  0  0  0  0  0  0  0999 V2000
    9.6619   11.1177   33.4569 C   0  0  0  0  0  0  0  0  0  0  0  0
   16.2863   15.6787   33.4451 N   0  0  0  0  0  0  0  0  0  0  0  0
    9.2140   10.3798   32.3165 O   0  0  0  0  0  0  0  0  0  0  0  0
   11.1935   11.1086   33.5069 C   0  0  1  0  0  0  0  0  0  0  0  0
   12.2430   18.4102   33.8161 N   0  0  0  0  0  0  0  0  0  0  0  0
   11.7689   11.7254   32.3372 O   0  0  0  0  0  0  0  0  0  0  0  0
   12.3405   12.9994   32.6948 C   0  0  1  0  0  0  0  0  0  0  0  0
    8.7494   20.9069   33.9924 N   0  0  0  0  0  0  0  0  0  0  0  0
   12.0022   14.0394   31.7615 O   0  0  0  0  0  0  0  0  0  0  0  0
   12.8514   15.1973   31.8337 C   0  0  2  0  0  0  0  0  0  0  0  0
    8.7042   15.8307   30.7063 N   0  0  0  0  0  0  0  0  0  0  0  0
   14.8788   13.8783   31.7729 O   0  0  0  0  0  0  0  0  0  0  0  0
   14.1504   14.8246   32.5590 C   0  0  1  0  0  0  0  0  0  0  0  0
   11.0391   16.8639   31.7897 O   0  0  0  0  0  0  0  0  0  0  0  0
   15.0276   16.0576   32.7883 C   0  0  1  0  0  0  0  0  0  0  0  0
    9.8603   18.2974   33.2485 O   0  0  0  0  0  0  0  0  0  0  0  0
   14.2850   17.0776   33.6542 C   0  0  0  0  0  0  0  0  0  0  0  0
    8.8853   20.6869   30.6202 O   0  0  0  0  0  0  0  0  0  0  0  0
   13.0032   17.5070   32.9377 C   0  0  1  0  0  0  0  0  0  0  0  0
    7.5549   18.2833   29.7797 O   0  0  0  0  0  0  0  0  0  0  0  0
   12.1137   16.3148   32.5685 C   0  0  2  0  0  0  0  0  0  0  0  0
   12.5168   14.2390   34.8271 O   0  0  0  0  0  0  0  0  0  0  0  0
    9.8227   17.0517   32.5275 C   0  0  1  0  0  0  0  0  0  0  0  0
   13.0136   11.5125   35.0886 O   0  0  0  0  0  0  0  0  0  0  0  0
    9.9761   19.4645   32.4162 C   0  0  2  0  0  0  0  0  0  0  0  0
   10.0373   20.7033   33.3132 C   0  0  0  0  0  0  0  0  0  0  0  0
    8.7675   19.5469   31.4770 C   0  0  2  0  0  0  0  0  0  0  0  0
    8.7083   18.2758   30.6273 C   0  0  1  0  0  0  0  0  0  0  0  0
    8.6566   17.0440   31.5340 C   0  0  1  0  0  0  0  0  0  0  0  0
   11.7353   13.3152   34.0635 C   0  0  2  0  0  0  0  0  0  0  0  0
   11.7021   11.9248   34.6952 C   0  0  1  0  0  0  0  0  0  0  0  0
  3  1  1  0  0  0  0
  4  1  1  6  0  0  0
  4  6  1  0  0  0  0
  4 31  1  0  0  0  0
  6  7  1  0  0  0  0
  7  9  1  6  0  0  0
  7 30  1  0  0  0  0
 10  9  1  1  0  0  0
 10 13  1  0  0  0  0
 10 21  1  0  0  0  0
 13 12  1  6  0  0  0
 13 15  1  0  0  0  0
 15  2  1  1  0  0  0
 15 17  1  0  0  0  0
 16 25  1  0  0  0  0
 17 19  1  0  0  0  0
 19  5  1  1  0  0  0
 19 21  1  0  0  0  0
 21 14  1  6  0  0  0
 23 14  1  6  0  0  0
 23 16  1  0  0  0  0
 23 29  1  0  0  0  0
 25 26  1  1  0  0  0
 25 27  1  0  0  0  0
 26  8  1  0  0  0  0
 27 18  1  6  0  0  0
 27 28  1  0  0  0  0
 28 20  1  1  0  0  0
 28 29  1  0  0  0  0
 29 11  1  6  0  0  0
 30 22  1  1  0  0  0
 30 31  1  0  0  0  0
 31 24  1  6  0  0  0
M  END
>  <CHROM.1>
60.91579016,-162.02432047,18.42516626,135.04809533,83.18903396,-67.69010620
11.29990954,15.77943454,32.63886648,1.14215441,0.29319655,3.06501704

>  <Name>
2fcz_lig

>  <RI>
0

>  <Rbt.Current_Directory>
/home/itssahil/PROJECTS/Mol_Feturizer/New_Systems/rnas/2fcz

>  <Rbt.Executable>
rbdock ($Id: //depot/dev/client3/rdock/2013.1/src/exe/rbdock.cxx#4 $)

>  <Rbt.Library>
libRbt.so (2013.1, Build901 2013/11/27)

>  <Rbt.Parameter_File>
/export/apps/rDock/src/rDock_2013.1_src/data/scripts/dock_solv.prm

>  <Rbt.Receptor>
prm/blind_docking_40.prm

>  <SCORE>
10.6104

>  <SCORE.INTER>
-8.10048

>  <SCORE.INTER.CONST>
1

>  <SCORE.INTER.POLAR>
-0.734248

>  <SCORE.INTER.ROT>
6

>  <SCORE.INTER.SOLV>
25.5095

>  <SCORE.INTER.VDW>
-19.056

>  <SCORE.INTER.norm>
-0.261306

>  <SCORE.INTRA>
9.32906

>  <SCORE.INTRA.DIHEDRAL>
4.9847

>  <SCORE.INTRA.DIHEDRAL.0>
10.8409

>  <SCORE.INTRA.POLAR>
0

>  <SCORE.INTRA.POLAR.0>
0

>  <SCORE.INTRA.REPUL>
0

>  <SCORE.INTRA.REPUL.0>
0

>  <SCORE.INTRA.SOLV>
2.12981

>  <SCORE.INTRA.SOLV.lig_0>
-80.8302

>  <SCORE.INTRA.VDW>
5.77181

>  <SCORE.INTRA.VDW.0>
-4.23953

>  <SCORE.INTRA.norm>
0.300938

>  <SCORE.RESTR>
9.38178

>  <SCORE.RESTR.CAVITY>
9.38178

>  <SCORE.RESTR.norm>
0.302638

>  <SCORE.SYSTEM>
0

>  <SCORE.SYSTEM.CONST>
0

>  <SCORE.SYSTEM.DIHEDRAL>
0

>  <SCORE.SYSTEM.SOLV>
0

>  <SCORE.SYSTEM.norm>
0

>  <SCORE.heavy>
31

>  <SCORE.norm>
0.34227

>  <RMSD>
5.565

$$$$
2fcz_lig
 OpenBabel11021811433D
libRbt.so/2013.1/901 2013/11/27
 31 33  0  0  0  0  0  0  0  0999 V2000
   12.3575   22.1641   35.0451 C   0  0  0  0  0  0  0  0  0  0  0  0
    8.3030   22.1205   32.0250 N   0  0  0  0  0  0  0  0  0  0  0  0
   13.7081   22.6316   34.9928 O   0  0  0  0  0  0  0  0  0  0  0  0
   12.0843   21.5312   36.4138 C   0  0  1  0  0  0  0  0  0  0  0  0
    8.7660   17.3120   31.2434 N   0  0  0  0  0  0  0  0  0  0  0  0
   10.7205   21.0767   36.5284 O   0  0  0  0  0  0  0  0  0  0  0  0
   10.6876   19.6359   36.5000 C   0  0  1  0  0  0  0  0  0  0  0  0
    7.0153   15.5293   37.0204 N   0  0  0  0  0  0  0  0  0  0  0  0
    9.6581   19.1226   35.6376 O   0  0  0  0  0  0  0  0  0  0  0  0
    9.8525   19.4185   34.2443 C   0  0  2  0  0  0  0  0  0  0  0  0
   12.2432   15.1207   34.0271 N   0  0  0  0  0  0  0  0  0  0  0  0
    9.5120   21.7924   34.5645 O   0  0  0  0  0  0  0  0  0  0  0  0
    9.0144   20.6469   33.8687 C   0  0  1  0  0  0  0  0  0  0  0  0
   10.3750   17.1146   33.5497 O   0  0  0  0  0  0  0  0  0  0  0  0
    9.0750   20.9169   32.3634 C   0  0  1  0  0  0  0  0  0  0  0  0
    9.1700   16.6113   35.5162 O   0  0  0  0  0  0  0  0  0  0  0  0
    8.5193   19.7183   31.5914 C   0  0  0  0  0  0  0  0  0  0  0  0
    7.6511   13.5353   34.1750 O   0  0  0  0  0  0  0  0  0  0  0  0
    9.3627   18.4816   31.9078 C   0  0  1  0  0  0  0  0  0  0  0  0
   10.4508   12.8919   34.1479 O   0  0  0  0  0  0  0  0  0  0  0  0
    9.4481   18.2030   33.4125 C   0  0  2  0  0  0  0  0  0  0  0  0
   12.4433   17.9042   36.3167 O   0  0  0  0  0  0  0  0  0  0  0  0
   10.4625   16.5893   34.8823 C   0  0  1  0  0  0  0  0  0  0  0  0
   13.1335   20.0040   38.0089 O   0  0  0  0  0  0  0  0  0  0  0  0
    8.1720   15.8079   34.8631 C   0  0  2  0  0  0  0  0  0  0  0  0
    6.8507   15.9528   35.6223 C   0  0  0  0  0  0  0  0  0  0  0  0
    8.6204   14.3423   34.8507 C   0  0  2  0  0  0  0  0  0  0  0  0
    9.9639   14.2376   34.1257 C   0  0  1  0  0  0  0  0  0  0  0  0
   10.9908   15.1539   34.7951 C   0  0  1  0  0  0  0  0  0  0  0  0
   12.0618   19.2365   35.9602 C   0  0  2  0  0  0  0  0  0  0  0  0
   12.9511   20.2890   36.6195 C   0  0  1  0  0  0  0  0  0  0  0  0
  3  1  1  0  0  0  0
  4  1  1  6  0  0  0
  4  6  1  0  0  0  0
  4 31  1  0  0  0  0
  6  7  1  0  0  0  0
  7  9  1  6  0  0  0
  7 30  1  0  0  0  0
 10  9  1  1  0  0  0
 10 13  1  0  0  0  0
 10 21  1  0  0  0  0
 13 12  1  1  0  0  0
 13 15  1  0  0  0  0
 15  2  1  1  0  0  0
 15 17  1  0  0  0  0
 16 25  1  0  0  0  0
 17 19  1  0  0  0  0
 19  5  1  6  0  0  0
 19 21  1  0  0  0  0
 21 14  1  6  0  0  0
 23 14  1  6  0  0  0
 23 16  1  0  0  0  0
 23 29  1  0  0  0  0
 25 26  1  1  0  0  0
 25 27  1  0  0  0  0
 26  8  1  0  0  0  0
 27 18  1  6  0  0  0
 27 28  1  0  0  0  0
 28 20  1  1  0  0  0
 28 29  1  0  0  0  0
 29 11  1  6  0  0  0
 30 22  1  1  0  0  0
 30 31  1  0  0  0  0
 31 24  1  1  0  0  0
M  END
>  <CHROM.1>
178.39859665,65.56873342,-97.83022503,62.93605477,36.33148018,-58.77574683
10.13989382,18.23233848,34.70327602,-1.04033272,0.77136977,2.87589465

>  <Name>
2fcz_lig

>  <RI>
2.26996e+07

>  <Rbt.Current_Directory>
/home/itssahil/PROJECTS/Mol_Feturizer/New_Systems/rnas/2fcz

>  <Rbt.Executable>
rbdock ($Id: //depot/dev/client3/rdock/2013.1/src/exe/rbdock.cxx#4 $)

>  <Rbt.Library>
libRbt.so (2013.1, Build901 2013/11/27)

>  <Rbt.Parameter_File>
/export/apps/rDock/src/rDock_2013.1_src/data/scripts/dock_solv.prm

>  <Rbt.Receptor>
prm/pocket_docking_4.prm

>  <SCORE>
-9.13699

>  <SCORE.INTER>
-11.2491

>  <SCORE.INTER.CONST>
1

>  <SCORE.INTER.POLAR>
-1.1393

>  <SCORE.INTER.ROT>
6

>  <SCORE.INTER.SOLV>
12.9087

>  <SCORE.INTER.VDW>
-15.6046

>  <SCORE.INTER.norm>
-0.362873

>  <SCORE.INTRA>
2.10397

>  <SCORE.INTRA.DIHEDRAL>
-3.03142

>  <SCORE.INTRA.DIHEDRAL.0>
10.8409

>  <SCORE.INTRA.POLAR>
0

>  <SCORE.INTRA.POLAR.0>
0

>  <SCORE.INTRA.REPUL>
0.0168273

>  <SCORE.INTRA.REPUL.0>
0

>  <SCORE.INTRA.SOLV>
-0.347826

>  <SCORE.INTRA.SOLV.lig_0>
-80.8302

>  <SCORE.INTRA.VDW>
3.70945

>  <SCORE.INTRA.VDW.0>
-4.23953

>  <SCORE.INTRA.norm>
0.0678698

>  <SCORE.RESTR>
0.00809973

>  <SCORE.RESTR.CAVITY>
0.00809973

>  <SCORE.RESTR.norm>
0.000261282

>  <SCORE.SYSTEM>
0

>  <SCORE.SYSTEM.CONST>
0

>  <SCORE.SYSTEM.DIHEDRAL>
0

>  <SCORE.SYSTEM.SOLV>
0

>  <SCORE.SYSTEM.norm>
0

>  <SCORE.heavy>
31

>  <SCORE.norm>
-0.294742

>  <RMSD>
5.576

$$$$
2fcz_lig
 OpenBabel11021811433D
libRbt.so/2013.1/901 2013/11/27
 31 33  0  0  0  0  0  0  0  0999 V2000
    7.2169   20.0503   29.6407 C   0  0  0  0  0  0  0  0  0  0  0  0
   13.0451   24.2379   34.0589 N   0  0  0  0  0  0  0  0  0  0  0  0
    7.8258   18.7661   29.4810 O   0  0  0  0  0  0  0  0  0  0  0  0
    6.7642   20.2283   31.0939 C   0  0  1  0  0  0  0  0  0  0  0  0
   12.7317   20.0059   36.4960 N   0  0  0  0  0  0  0  0  0  0  0  0
    7.7700   19.7790   32.0245 O   0  0  0  0  0  0  0  0  0  0  0  0
    8.3664   20.9171   32.6778 C   0  0  1  0  0  0  0  0  0  0  0  0
    8.8186   18.6044   39.5998 N   0  0  0  0  0  0  0  0  0  0  0  0
    9.8002   20.8312   32.7398 O   0  0  0  0  0  0  0  0  0  0  0  0
   10.3837   21.4977   33.8722 C   0  0  2  0  0  0  0  0  0  0  0  0
   10.6745   17.7191   33.4923 N   0  0  0  0  0  0  0  0  0  0  0  0
   10.6677   23.5777   32.6693 O   0  0  0  0  0  0  0  0  0  0  0  0
   11.3761   22.5569   33.3767 C   0  0  1  0  0  0  0  0  0  0  0  0
   10.1453   19.6173   35.4442 O   0  0  0  0  0  0  0  0  0  0  0  0
   12.1299   23.1962   34.5452 C   0  0  1  0  0  0  0  0  0  0  0  0
   10.2151   18.0167   37.1779 O   0  0  0  0  0  0  0  0  0  0  0  0
   12.9238   22.1310   35.3045 C   0  0  0  0  0  0  0  0  0  0  0  0
    6.9406   16.5359   36.3699 O   0  0  0  0  0  0  0  0  0  0  0  0
   11.9573   21.0797   35.8535 C   0  0  1  0  0  0  0  0  0  0  0  0
    8.4631   15.9735   33.9995 O   0  0  0  0  0  0  0  0  0  0  0  0
   11.0791   20.4657   34.7578 C   0  0  2  0  0  0  0  0  0  0  0  0
    7.9892   23.3554   32.5131 O   0  0  0  0  0  0  0  0  0  0  0  0
   10.7007   18.3637   35.8677 C   0  0  1  0  0  0  0  0  0  0  0  0
    5.6351   21.8695   32.5114 O   0  0  0  0  0  0  0  0  0  0  0  0
    8.7902   17.8398   37.2580 C   0  0  2  0  0  0  0  0  0  0  0  0
    8.4168   17.5092   38.7051 C   0  0  0  0  0  0  0  0  0  0  0  0
    8.3611   16.7022   36.3246 C   0  0  2  0  0  0  0  0  0  0  0  0
    8.7884   17.0415   34.8951 C   0  0  1  0  0  0  0  0  0  0  0  0
   10.2969   17.2945   34.8475 C   0  0  1  0  0  0  0  0  0  0  0  0
    7.9562   22.1089   31.8113 C   0  0  2  0  0  0  0  0  0  0  0  0
    6.5374   21.7057   31.4141 C   0  0  1  0  0  0  0  0  0  0  0  0
  3  1  1  0  0  0  0
  4  1  1  6  0  0  0
  4  6  1  0  0  0  0
  4 31  1  0  0  0  0
  6  7  1  0  0  0  0
  7  9  1  6  0  0  0
  7 30  1  0  0  0  0
 10  9  1  6  0  0  0
 10 13  1  0  0  0  0
 10 21  1  0  0  0  0
 13 12  1  1  0  0  0
 13 15  1  0  0  0  0
 15  2  1  6  0  0  0
 15 17  1  0  0  0  0
 16 25  1  0  0  0  0
 17 19  1  0  0  0  0
 19  5  1  6  0  0  0
 19 21  1  0  0  0  0
 21 14  1  1  0  0  0
 23 14  1  6  0  0  0
 23 16  1  0  0  0  0
 23 29  1  0  0  0  0
 25 26  1  1  0  0  0
 25 27  1  0  0  0  0
 26  8  1  0  0  0  0
 27 18  1  6  0  0  0
 27 28  1  0  0  0  0
 28 20  1  6  0  0  0
 28 29  1  0  0  0  0
 29 11  1  6  0  0  0
 30 22  1  1  0  0  0
 30 31  1  0  0  0  0
 31 24  1  1  0  0  0
M  END
>  <CHROM.1>
44.05862891,-150.55676108,-121.91168669,157.91334039,139.88327043,60.28598206
9.40057645,19.97673416,34.18833530,1.73525855,-0.71407526,-0.78824711

>  <Name>
2fcz_lig

>  <RI>
3.41297e+07

>  <Rbt.Current_Directory>
/home/itssahil/PROJECTS/Mol_Feturizer/New_Systems/rnas/2fcz

>  <Rbt.Executable>
rbdock ($Id: //depot/dev/client3/rdock/2013.1/src/exe/rbdock.cxx#4 $)

>  <Rbt.Library>
libRbt.so (2013.1, Build901 2013/11/27)

>  <Rbt.Parameter_File>
/export/apps/rDock/src/rDock_2013.1_src/data/scripts/dock_solv.prm

>  <Rbt.Receptor>
prm/pocket_docking_2.prm

>  <SCORE>
-3.92137

>  <SCORE.INTER>
-10.0118

>  <SCORE.INTER.CONST>
1

>  <SCORE.INTER.POLAR>
-0.758022

>  <SCORE.INTER.ROT>
6

>  <SCORE.INTER.SOLV>
16.3423

>  <SCORE.INTER.VDW>
-17.1952

>  <SCORE.INTER.norm>
-0.32296

>  <SCORE.INTRA>
5.61204

>  <SCORE.INTRA.DIHEDRAL>
8.29314

>  <SCORE.INTRA.DIHEDRAL.0>
10.8409

>  <SCORE.INTRA.POLAR>
0

>  <SCORE.INTRA.POLAR.0>
0

>  <SCORE.INTRA.REPUL>
0

>  <SCORE.INTRA.REPUL.0>
0

>  <SCORE.INTRA.SOLV>
0.0173014

>  <SCORE.INTRA.SOLV.lig_0>
-80.8302

>  <SCORE.INTRA.VDW>
1.45682

>  <SCORE.INTRA.VDW.0>
-4.23953

>  <SCORE.INTRA.norm>
0.181034

>  <SCORE.RESTR>
0.478362

>  <SCORE.RESTR.CAVITY>
0.478362

>  <SCORE.RESTR.norm>
0.015431

>  <SCORE.SYSTEM>
0

>  <SCORE.SYSTEM.CONST>
0

>  <SCORE.SYSTEM.DIHEDRAL>
0

>  <SCORE.SYSTEM.SOLV>
0

>  <SCORE.SYSTEM.norm>
0

>  <SCORE.heavy>
31

>  <SCORE.norm>
-0.126496

>  <RMSD>
5.585

$$$$
2fcz_lig
 OpenBabel11021811433D
libRbt.so/2013.1/901 2013/11/27
 31 33  0  0  0  0  0  0  0  0999 V2000
   15.8579   17.1260   37.1607 C   0  0  0  0  0  0  0  0  0  0  0  0
   19.2354   23.8447   32.9358 N   0  0  0  0  0  0  0  0  0  0  0  0
   15.9261   16.8402   38.5604 O   0  0  0  0  0  0  0  0  0  0  0  0
   14.7097   18.1042   36.8903 C   0  0  1  0  0  0  0  0  0  0  0  0
   14.4974   24.8624   33.6167 N   0  0  0  0  0  0  0  0  0  0  0  0
   15.1262   19.4746   37.0572 O   0  0  0  0  0  0  0  0  0  0  0  0
   15.2073   20.1151   35.7684 C   0  0  1  0  0  0  0  0  0  0  0  0
   11.5532   23.2766   30.7278 N   0  0  0  0  0  0  0  0  0  0  0  0
   16.4066   20.8923   35.6110 O   0  0  0  0  0  0  0  0  0  0  0  0
   16.4518   21.6710   34.4033 C   0  0  2  0  0  0  0  0  0  0  0  0
   13.0471   21.7770   36.8726 N   0  0  0  0  0  0  0  0  0  0  0  0
   18.8209   21.2925   34.0906 O   0  0  0  0  0  0  0  0  0  0  0  0
   17.8376   22.3146   34.2707 C   0  0  1  0  0  0  0  0  0  0  0  0
   14.0419   22.1690   34.3133 O   0  0  0  0  0  0  0  0  0  0  0  0
   17.8907   23.2690   33.0754 C   0  0  1  0  0  0  0  0  0  0  0  0
   12.1519   23.4180   33.6493 O   0  0  0  0  0  0  0  0  0  0  0  0
   16.8684   24.3935   33.2546 C   0  0  0  0  0  0  0  0  0  0  0  0
    9.9259   20.4963   33.3739 O   0  0  0  0  0  0  0  0  0  0  0  0
   15.4660   23.7885   33.3445 C   0  0  1  0  0  0  0  0  0  0  0  0
   10.5853   20.4960   36.1701 O   0  0  0  0  0  0  0  0  0  0  0  0
   15.3555   22.7334   34.4505 C   0  0  2  0  0  0  0  0  0  0  0  0
   14.7724   19.3402   33.4608 O   0  0  0  0  0  0  0  0  0  0  0  0
   12.9873   23.0349   34.7576 C   0  0  1  0  0  0  0  0  0  0  0  0
   12.8838   18.4486   35.3013 O   0  0  0  0  0  0  0  0  0  0  0  0
   11.4860   22.3224   32.9981 C   0  0  2  0  0  0  0  0  0  0  0  0
   10.6662   22.8715   31.8279 C   0  0  0  0  0  0  0  0  0  0  0  0
   10.5712   21.6093   34.0002 C   0  0  2  0  0  0  0  0  0  0  0  0
   11.4124   21.1128   35.1781 C   0  0  1  0  0  0  0  0  0  0  0  0
   12.1665   22.2844   35.8112 C   0  0  1  0  0  0  0  0  0  0  0  0
   15.2061   18.9569   34.7694 C   0  0  2  0  0  0  0  0  0  0  0  0
   14.2317   17.9923   35.4426 C   0  0  1  0  0  0  0  0  0  0  0  0
  3  1  1  0  0  0  0
  4  1  1  6  0  0  0
  4  6  1  0  0  0  0
  4 31  1  0  0  0  0
  6  7  1  0  0  0  0
  7  9  1  1  0  0  0
  7 30  1  0  0  0  0
 10  9  1  1  0  0  0
 10 13  1  0  0  0  0
 10 21  1  0  0  0  0
 13 12  1  6  0  0  0
 13 15  1  0  0  0  0
 15  2  1  1  0  0  0
 15 17  1  0  0  0  0
 16 25  1  0  0  0  0
 17 19  1  0  0  0  0
 19  5  1  1  0  0  0
 19 21  1  0  0  0  0
 21 14  1  6  0  0  0
 23 14  1  6  0  0  0
 23 16  1  0  0  0  0
 23 29  1  0  0  0  0
 25 26  1  6  0  0  0
 25 27  1  0  0  0  0
 26  8  1  0  0  0  0
 27 18  1  6  0  0  0
 27 28  1  0  0  0  0
 28 20  1  1  0  0  0
 28 29  1  0  0  0  0
 29 11  1  1  0  0  0
 30 22  1  6  0  0  0
 30 31  1  0  0  0  0
 31 24  1  1  0  0  0
M  END
>  <CHROM.1>
85.97976087,-173.09754420,-173.21933899,161.67989070,114.71840247,72.83171380
14.28907286,21.25258084,34.64082769,0.79376098,0.07880594,2.52597052

>  <Name>
2fcz_lig

>  <RI>
1.40544e+07

>  <Rbt.Current_Directory>
/home/itssahil/PROJECTS/Mol_Feturizer/New_Systems/rnas/2fcz

>  <Rbt.Executable>
rbdock ($Id: //depot/dev/client3/rdock/2013.1/src/exe/rbdock.cxx#4 $)

>  <Rbt.Library>
libRbt.so (2013.1, Build901 2013/11/27)

>  <Rbt.Parameter_File>
/export/apps/rDock/src/rDock_2013.1_src/data/scripts/dock_solv.prm

>  <Rbt.Receptor>
prm/blind_docking_100.prm

>  <SCORE>
-4.35873

>  <SCORE.INTER>
-7.37647

>  <SCORE.INTER.CONST>
1

>  <SCORE.INTER.POLAR>
-0.894427

>  <SCORE.INTER.ROT>
6

>  <SCORE.INTER.SOLV>
12.2738

>  <SCORE.INTER.VDW>
-13.6275

>  <SCORE.INTER.norm>
-0.237951

>  <SCORE.INTRA>
3.01619

>  <SCORE.INTRA.DIHEDRAL>
0.992594

>  <SCORE.INTRA.DIHEDRAL.0>
10.8409

>  <SCORE.INTRA.POLAR>
0

>  <SCORE.INTRA.POLAR.0>
0

>  <SCORE.INTRA.REPUL>
0

>  <SCORE.INTRA.REPUL.0>
0

>  <SCORE.INTRA.SOLV>
2.16861

>  <SCORE.INTRA.SOLV.lig_0>
-80.8302

>  <SCORE.INTRA.VDW>
1.43558

>  <SCORE.INTRA.VDW.0>
-4.23953

>  <SCORE.INTRA.norm>
0.0972963

>  <SCORE.RESTR>
0.00155295

>  <SCORE.RESTR.CAVITY>
0.00155295

>  <SCORE.RESTR.norm>
5.00953e-05

>  <SCORE.SYSTEM>
0

>  <SCORE.SYSTEM.CONST>
0

>  <SCORE.SYSTEM.DIHEDRAL>
0

>  <SCORE.SYSTEM.SOLV>
0

>  <SCORE.SYSTEM.norm>
0

>  <SCORE.heavy>
31

>  <SCORE.norm>
-0.140604

>  <RMSD>
5.586

$$$$
2fcz_lig
 OpenBabel11021811433D
libRbt.so/2013.1/901 2013/11/27
 31 33  0  0  0  0  0  0  0  0999 V2000
    9.0359   17.8144   38.9217 C   0  0  0  0  0  0  0  0  0  0  0  0
    8.0923   22.4876   31.8588 N   0  0  0  0  0  0  0  0  0  0  0  0
    9.7543   18.9639   39.3779 O   0  0  0  0  0  0  0  0  0  0  0  0
    7.8061   18.2593   38.1228 C   0  0  1  0  0  0  0  0  0  0  0  0
   12.6219   21.9835   33.6409 N   0  0  0  0  0  0  0  0  0  0  0  0
    8.1539   19.2056   37.0918 O   0  0  0  0  0  0  0  0  0  0  0  0
    8.0470   18.5740   35.8005 C   0  0  1  0  0  0  0  0  0  0  0  0
   12.0705   17.2505   32.5974 N   0  0  0  0  0  0  0  0  0  0  0  0
    9.1702   18.8600   34.9497 O   0  0  0  0  0  0  0  0  0  0  0  0
    9.3740   20.2593   34.6906 C   0  0  2  0  0  0  0  0  0  0  0  0
   12.6252   20.0418   38.2907 N   0  0  0  0  0  0  0  0  0  0  0  0
    7.1866   20.5289   33.6924 O   0  0  0  0  0  0  0  0  0  0  0  0
    8.5871   20.6590   33.4363 C   0  0  1  0  0  0  0  0  0  0  0  0
   11.5963   20.4071   35.7410 O   0  0  0  0  0  0  0  0  0  0  0  0
    8.8849   22.1058   33.0357 C   0  0  1  0  0  0  0  0  0  0  0  0
   11.9713   18.1537   35.1457 O   0  0  0  0  0  0  0  0  0  0  0  0
   10.3743   22.2694   32.7249 C   0  0  0  0  0  0  0  0  0  0  0  0
   15.6161   18.5306   34.7703 O   0  0  0  0  0  0  0  0  0  0  0  0
   11.1894   21.9221   33.9722 C   0  0  1  0  0  0  0  0  0  0  0  0
   15.2298   19.1071   37.5581 O   0  0  0  0  0  0  0  0  0  0  0  0
   10.8674   20.5232   34.5088 C   0  0  2  0  0  0  0  0  0  0  0  0
    7.3989   16.3007   35.0747 O   0  0  0  0  0  0  0  0  0  0  0  0
   11.7022   19.0621   36.2298 C   0  0  1  0  0  0  0  0  0  0  0  0
    5.7923   17.3116   37.1109 O   0  0  0  0  0  0  0  0  0  0  0  0
   13.2092   18.3988   34.4560 C   0  0  2  0  0  0  0  0  0  0  0  0
   13.3456   17.3857   33.3167 C   0  0  0  0  0  0  0  0  0  0  0  0
   14.3793   18.2579   35.4361 C   0  0  2  0  0  0  0  0  0  0  0  0
   14.1901   19.2507   36.5850 C   0  0  1  0  0  0  0  0  0  0  0  0
   12.8362   19.0169   37.2590 C   0  0  1  0  0  0  0  0  0  0  0  0
    8.0026   17.0775   36.1137 C   0  0  2  0  0  0  0  0  0  0  0  0
    7.1731   17.0727   37.3963 C   0  0  1  0  0  0  0  0  0  0  0  0
  3  1  1  0  0  0  0
  4  1  1  6  0  0  0
  4  6  1  0  0  0  0
  4 31  1  0  0  0  0
  6  7  1  0  0  0  0
  7  9  1  6  0  0  0
  7 30  1  0  0  0  0
 10  9  1  6  0  0  0
 10 13  1  0  0  0  0
 10 21  1  0  0  0  0
 13 12  1  1  0  0  0
 13 15  1  0  0  0  0
 15  2  1  6  0  0  0
 15 17  1  0  0  0  0
 16 25  1  0  0  0  0
 17 19  1  0  0  0  0
 19  5  1  6  0  0  0
 19 21  1  0  0  0  0
 21 14  1  1  0  0  0
 23 14  1  6  0  0  0
 23 16  1  0  0  0  0
 23 29  1  0  0  0  0
 25 26  1  6  0  0  0
 25 27  1  0  0  0  0
 26  8  1  0  0  0  0
 27 18  1  6  0  0  0
 27 28  1  0  0  0  0
 28 20  1  1  0  0  0
 28 29  1  0  0  0  0
 29 11  1  1  0  0  0
 30 22  1  6  0  0  0
 30 31  1  0  0  0  0
 31 24  1  6  0  0  0
M  END
>  <CHROM.1>
51.50121255,-58.95826484,-90.00619771,70.34321308,41.52009446,43.96275448
10.51251628,19.23392252,35.47409352,-2.99155303,-0.01516012,-0.95511011

>  <Name>
2fcz_lig

>  <RI>
2.26996e+07

>  <Rbt.Current_Directory>
/home/itssahil/PROJECTS/Mol_Feturizer/New_Systems/rnas/2fcz

>  <Rbt.Executable>
rbdock ($Id: //depot/dev/client3/rdock/2013.1/src/exe/rbdock.cxx#4 $)

>  <Rbt.Library>
libRbt.so (2013.1, Build901 2013/11/27)

>  <Rbt.Parameter_File>
/export/apps/rDock/src/rDock_2013.1_src/data/scripts/dock_solv.prm

>  <Rbt.Receptor>
prm/pocket_docking_4.prm

>  <SCORE>
-19.4378

>  <SCORE.INTER>
-17.9617

>  <SCORE.INTER.CONST>
1

>  <SCORE.INTER.POLAR>
-3.42637

>  <SCORE.INTER.ROT>
6

>  <SCORE.INTER.SOLV>
17.6395

>  <SCORE.INTER.VDW>
-14.033

>  <SCORE.INTER.norm>
-0.579408

>  <SCORE.INTRA>
-1.97451

>  <SCORE.INTRA.DIHEDRAL>
-3.89911

>  <SCORE.INTRA.DIHEDRAL.0>
10.8409

>  <SCORE.INTRA.POLAR>
0

>  <SCORE.INTRA.POLAR.0>
0

>  <SCORE.INTRA.REPUL>
0

>  <SCORE.INTRA.REPUL.0>
0

>  <SCORE.INTRA.SOLV>
-1.50555

>  <SCORE.INTRA.SOLV.lig_0>
-80.8302

>  <SCORE.INTRA.VDW>
0.727818

>  <SCORE.INTRA.VDW.0>
-4.23953

>  <SCORE.INTRA.norm>
-0.063694

>  <SCORE.RESTR>
0.498385

>  <SCORE.RESTR.CAVITY>
0.498385

>  <SCORE.RESTR.norm>
0.0160769

>  <SCORE.SYSTEM>
0

>  <SCORE.SYSTEM.CONST>
0

>  <SCORE.SYSTEM.DIHEDRAL>
0

>  <SCORE.SYSTEM.SOLV>
0

>  <SCORE.SYSTEM.norm>
0

>  <SCORE.heavy>
31

>  <SCORE.norm>
-0.627025

>  <RMSD>
5.588

$$$$
2fcz_lig
 OpenBabel11021811433D
libRbt.so/2013.1/901 2013/11/27
 31 33  0  0  0  0  0  0  0  0999 V2000
   13.2244   22.7513   34.0485 C   0  0  0  0  0  0  0  0  0  0  0  0
   10.4688   17.3267   40.2982 N   0  0  0  0  0  0  0  0  0  0  0  0
   14.2106   23.7163   33.6721 O   0  0  0  0  0  0  0  0  0  0  0  0
   13.0836   22.7272   35.5743 C   0  0  1  0  0  0  0  0  0  0  0  0
    8.1612   16.4111   36.0811 N   0  0  0  0  0  0  0  0  0  0  0  0
   12.0059   21.8672   35.9968 O   0  0  0  0  0  0  0  0  0  0  0  0
   12.5473   20.6783   36.6060 C   0  0  1  0  0  0  0  0  0  0  0  0
   11.7349   15.5271   33.2245 N   0  0  0  0  0  0  0  0  0  0  0  0
   11.8987   19.4786   36.1509 O   0  0  0  0  0  0  0  0  0  0  0  0
   10.7451   19.1017   36.9218 C   0  0  2  0  0  0  0  0  0  0  0  0
    8.4262   21.0486   33.6162 N   0  0  0  0  0  0  0  0  0  0  0  0
   11.8840   19.4271   39.0315 O   0  0  0  0  0  0  0  0  0  0  0  0
   11.2058   18.4538   38.2334 C   0  0  1  0  0  0  0  0  0  0  0  0
    9.2312   18.7869   35.0054 O   0  0  0  0  0  0  0  0  0  0  0  0
   10.0166   17.9056   39.0255 C   0  0  1  0  0  0  0  0  0  0  0  0
   10.8880   18.2593   33.4086 O   0  0  0  0  0  0  0  0  0  0  0  0
    9.2876   16.8373   38.2076 C   0  0  0  0  0  0  0  0  0  0  0  0
    8.5073   17.0326   30.8798 O   0  0  0  0  0  0  0  0  0  0  0  0
    8.7731   17.4623   36.9093 C   0  0  1  0  0  0  0  0  0  0  0  0
    7.7564   19.7941   31.1317 O   0  0  0  0  0  0  0  0  0  0  0  0
    9.8892   18.1365   36.1040 C   0  0  2  0  0  0  0  0  0  0  0  0
   14.8525   19.8990   37.0459 O   0  0  0  0  0  0  0  0  0  0  0  0
   10.1301   19.3190   34.0214 C   0  0  1  0  0  0  0  0  0  0  0  0
   14.4798   22.6060   37.5777 O   0  0  0  0  0  0  0  0  0  0  0  0
   10.0941   17.2895   32.7034 C   0  0  2  0  0  0  0  0  0  0  0  0
   11.0230   16.2131   32.1364 C   0  0  0  0  0  0  0  0  0  0  0  0
    9.3268   17.9805   31.5706 C   0  0  2  0  0  0  0  0  0  0  0  0
    8.4432   19.0796   32.1644 C   0  0  1  0  0  0  0  0  0  0  0  0
    9.2998   20.0602   32.9686 C   0  0  1  0  0  0  0  0  0  0  0  0
   14.0153   20.6678   36.1767 C   0  0  2  0  0  0  0  0  0  0  0  0
   14.3440   22.1587   36.2262 C   0  0  1  0  0  0  0  0  0  0  0  0
  3  1  1  0  0  0  0
  4  1  1  6  0  0  0
  4  6  1  0  0  0  0
  4 31  1  0  0  0  0
  6  7  1  0  0  0  0
  7  9  1  6  0  0  0
  7 30  1  0  0  0  0
 10  9  1  6  0  0  0
 10 13  1  0  0  0  0
 10 21  1  0  0  0  0
 13 12  1  1  0  0  0
 13 15  1  0  0  0  0
 15  2  1  1  0  0  0
 15 17  1  0  0  0  0
 16 25  1  0  0  0  0
 17 19  1  0  0  0  0
 19  5  1  6  0  0  0
 19 21  1  0  0  0  0
 21 14  1  6  0  0  0
 23 14  1  1  0  0  0
 23 16  1  0  0  0  0
 23 29  1  0  0  0  0
 25 26  1  6  0  0  0
 25 27  1  0  0  0  0
 26  8  1  0  0  0  0
 27 18  1  1  0  0  0
 27 28  1  0  0  0  0
 28 20  1  6  0  0  0
 28 29  1  0  0  0  0
 29 11  1  1  0  0  0
 30 22  1  1  0  0  0
 30 31  1  0  0  0  0
 31 24  1  1  0  0  0
M  END
>  <CHROM.1>
174.16801236,-88.86127101,-77.34375725,63.87251953,62.90552054,61.23965564
10.99731564,19.32422940,35.23334900,-0.39464301,-0.83327906,-1.21335180

>  <Name>
2fcz_lig

>  <RI>
2.26996e+07

>  <Rbt.Current_Directory>
/home/itssahil/PROJECTS/Mol_Feturizer/New_Systems/rnas/2fcz

>  <Rbt.Executable>
rbdock ($Id: //depot/dev/client3/rdock/2013.1/src/exe/rbdock.cxx#4 $)

>  <Rbt.Library>
libRbt.so (2013.1, Build901 2013/11/27)

>  <Rbt.Parameter_File>
/export/apps/rDock/src/rDock_2013.1_src/data/scripts/dock_solv.prm

>  <Rbt.Receptor>
prm/pocket_docking_4.prm

>  <SCORE>
-23.3167

>  <SCORE.INTER>
-20.1266

>  <SCORE.INTER.CONST>
1

>  <SCORE.INTER.POLAR>
-2.58043

>  <SCORE.INTER.ROT>
6

>  <SCORE.INTER.SOLV>
12.0247

>  <SCORE.INTER.VDW>
-16.4246

>  <SCORE.INTER.norm>
-0.649247

>  <SCORE.INTRA>
-3.19004

>  <SCORE.INTRA.DIHEDRAL>
-5.73718

>  <SCORE.INTRA.DIHEDRAL.0>
10.8409

>  <SCORE.INTRA.POLAR>
0

>  <SCORE.INTRA.POLAR.0>
0

>  <SCORE.INTRA.REPUL>
0

>  <SCORE.INTRA.REPUL.0>
0

>  <SCORE.INTRA.SOLV>
-3.79702

>  <SCORE.INTRA.SOLV.lig_0>
-80.8302

>  <SCORE.INTRA.VDW>
1.57706

>  <SCORE.INTRA.VDW.0>
-4.23953

>  <SCORE.INTRA.norm>
-0.102905

>  <SCORE.RESTR>
0

>  <SCORE.RESTR.CAVITY>
0

>  <SCORE.RESTR.norm>
0

>  <SCORE.SYSTEM>
0

>  <SCORE.SYSTEM.CONST>
0

>  <SCORE.SYSTEM.DIHEDRAL>
0

>  <SCORE.SYSTEM.SOLV>
0

>  <SCORE.SYSTEM.norm>
0

>  <SCORE.heavy>
31

>  <SCORE.norm>
-0.752151

>  <RMSD>
5.588

$$$$
2fcz_lig
 OpenBabel11021811433D
libRbt.so/2013.1/901 2013/11/27
 31 33  0  0  0  0  0  0  0  0999 V2000
   16.7860   17.7845   35.4562 C   0  0  0  0  0  0  0  0  0  0  0  0
   17.3569   24.2926   36.9800 N   0  0  0  0  0  0  0  0  0  0  0  0
   18.0146   17.9672   36.1652 O   0  0  0  0  0  0  0  0  0  0  0  0
   15.7222   18.7348   36.0162 C   0  0  1  0  0  0  0  0  0  0  0  0
   13.3927   25.4649   34.3612 N   0  0  0  0  0  0  0  0  0  0  0  0
   15.9840   20.1044   35.6483 O   0  0  0  0  0  0  0  0  0  0  0  0
   15.0206   20.5331   34.6655 C   0  0  1  0  0  0  0  0  0  0  0  0
   10.8924   21.3876   34.6028 N   0  0  0  0  0  0  0  0  0  0  0  0
   15.6242   21.2478   33.5737 O   0  0  0  0  0  0  0  0  0  0  0  0
   15.9075   22.6287   33.8562 C   0  0  2  0  0  0  0  0  0  0  0  0
   14.5432   23.4093   29.6773 N   0  0  0  0  0  0  0  0  0  0  0  0
   17.8053   22.0904   35.2571 O   0  0  0  0  0  0  0  0  0  0  0  0
   16.5313   22.7392   35.2530 C   0  0  1  0  0  0  0  0  0  0  0  0
   14.1424   23.5658   32.4174 O   0  0  0  0  0  0  0  0  0  0  0  0
   16.7197   24.2028   35.6590 C   0  0  1  0  0  0  0  0  0  0  0  0
   12.7814   21.6372   32.4413 O   0  0  0  0  0  0  0  0  0  0  0  0
   15.3668   24.9172   35.6935 C   0  0  0  0  0  0  0  0  0  0  0  0
    9.8534   23.3008   30.9490 O   0  0  0  0  0  0  0  0  0  0  0  0
   14.7355   24.8660   34.3008 C   0  0  1  0  0  0  0  0  0  0  0  0
   11.8044   23.5071   28.8503 O   0  0  0  0  0  0  0  0  0  0  0  0
   14.6128   23.4342   33.7681 C   0  0  2  0  0  0  0  0  0  0  0  0
   13.1042   19.4168   33.5719 O   0  0  0  0  0  0  0  0  0  0  0  0
   13.8630   22.3139   31.7741 C   0  0  1  0  0  0  0  0  0  0  0  0
   13.2969   18.8687   36.2943 O   0  0  0  0  0  0  0  0  0  0  0  0
   11.5330   22.3508   32.4276 C   0  0  2  0  0  0  0  0  0  0  0  0
   10.4916   21.5334   33.1959 C   0  0  0  0  0  0  0  0  0  0  0  0
   11.0793   22.5634   30.9790 C   0  0  2  0  0  0  0  0  0  0  0  0
   12.1603   23.3425   30.2268 C   0  0  1  0  0  0  0  0  0  0  0  0
   13.4954   22.5997   30.3145 C   0  0  1  0  0  0  0  0  0  0  0  0
   14.3990   19.2331   34.1526 C   0  0  2  0  0  0  0  0  0  0  0  0
   14.3454   18.4089   35.4375 C   0  0  1  0  0  0  0  0  0  0  0  0
  3  1  1  0  0  0  0
  4  1  1  6  0  0  0
  4  6  1  0  0  0  0
  4 31  1  0  0  0  0
  6  7  1  0  0  0  0
  7  9  1  6  0  0  0
  7 30  1  0  0  0  0
 10  9  1  1  0  0  0
 10 13  1  0  0  0  0
 10 21  1  0  0  0  0
 13 12  1  6  0  0  0
 13 15  1  0  0  0  0
 15  2  1  1  0  0  0
 15 17  1  0  0  0  0
 16 25  1  0  0  0  0
 17 19  1  0  0  0  0
 19  5  1  1  0  0  0
 19 21  1  0  0  0  0
 21 14  1  6  0  0  0
 23 14  1  1  0  0  0
 23 16  1  0  0  0  0
 23 29  1  0  0  0  0
 25 26  1  1  0  0  0
 25 27  1  0  0  0  0
 26  8  1  0  0  0  0
 27 18  1  1  0  0  0
 27 28  1  0  0  0  0
 28 20  1  6  0  0  0
 28 29  1  0  0  0  0
 29 11  1  1  0  0  0
 30 22  1  1  0  0  0
 30 31  1  0  0  0  0
 31 24  1  1  0  0  0
M  END
>  <CHROM.1>
71.68018983,-80.54289074,43.95181049,59.95836068,64.10276840,62.74785969
14.23595884,21.84948194,33.67518349,0.64047236,0.67585615,2.83181386

>  <Name>
2fcz_lig

>  <RI>
1.40544e+07

>  <Rbt.Current_Directory>
/home/itssahil/PROJECTS/Mol_Feturizer/New_Systems/rnas/2fcz

>  <Rbt.Executable>
rbdock ($Id: //depot/dev/client3/rdock/2013.1/src/exe/rbdock.cxx#4 $)

>  <Rbt.Library>
libRbt.so (2013.1, Build901 2013/11/27)

>  <Rbt.Parameter_File>
/export/apps/rDock/src/rDock_2013.1_src/data/scripts/dock_solv.prm

>  <Rbt.Receptor>
prm/blind_docking_100.prm

>  <SCORE>
-8.24735

>  <SCORE.INTER>
-7.2531

>  <SCORE.INTER.CONST>
1

>  <SCORE.INTER.POLAR>
-0.820612

>  <SCORE.INTER.ROT>
6

>  <SCORE.INTER.SOLV>
15.7449

>  <SCORE.INTER.VDW>
-14.9483

>  <SCORE.INTER.norm>
-0.233971

>  <SCORE.INTRA>
-0.994251

>  <SCORE.INTRA.DIHEDRAL>
-7.0374

>  <SCORE.INTRA.DIHEDRAL.0>
10.8409

>  <SCORE.INTRA.POLAR>
0

>  <SCORE.INTRA.POLAR.0>
0

>  <SCORE.INTRA.REPUL>
0

>  <SCORE.INTRA.REPUL.0>
0

>  <SCORE.INTRA.SOLV>
-1.18704

>  <SCORE.INTRA.SOLV.lig_0>
-80.8302

>  <SCORE.INTRA.VDW>
3.11797

>  <SCORE.INTRA.VDW.0>
-4.23953

>  <SCORE.INTRA.norm>
-0.0320726

>  <SCORE.RESTR>
0

>  <SCORE.RESTR.CAVITY>
0

>  <SCORE.RESTR.norm>
0

>  <SCORE.SYSTEM>
0

>  <SCORE.SYSTEM.CONST>
0

>  <SCORE.SYSTEM.DIHEDRAL>
0

>  <SCORE.SYSTEM.SOLV>
0

>  <SCORE.SYSTEM.norm>
0

>  <SCORE.heavy>
31

>  <SCORE.norm>
-0.266044

>  <RMSD>
5.599

$$$$
2fcz_lig
 OpenBabel11021811433D
libRbt.so/2013.1/901 2013/11/27
 31 33  0  0  0  0  0  0  0  0999 V2000
   11.8914   22.9153   34.3675 C   0  0  0  0  0  0  0  0  0  0  0  0
   10.3395   17.1494   40.2574 N   0  0  0  0  0  0  0  0  0  0  0  0
   12.6962   23.9786   33.8505 O   0  0  0  0  0  0  0  0  0  0  0  0
   12.3140   22.6029   35.8071 C   0  0  1  0  0  0  0  0  0  0  0  0
    8.0937   15.9452   36.0796 N   0  0  0  0  0  0  0  0  0  0  0  0
   11.5420   21.5208   36.3664 O   0  0  0  0  0  0  0  0  0  0  0  0
   12.3695   20.3462   36.4812 C   0  0  1  0  0  0  0  0  0  0  0  0
   11.8588   15.2657   33.1415 N   0  0  0  0  0  0  0  0  0  0  0  0
   11.7089   19.1562   36.0180 O   0  0  0  0  0  0  0  0  0  0  0  0
   10.5664   18.7715   36.8014 C   0  0  2  0  0  0  0  0  0  0  0  0
    8.1357   20.5193   33.5127 N   0  0  0  0  0  0  0  0  0  0  0  0
   11.6796   19.2409   38.8977 O   0  0  0  0  0  0  0  0  0  0  0  0
   11.0443   18.2051   38.1442 C   0  0  1  0  0  0  0  0  0  0  0  0
    9.0770   18.3073   34.8961 O   0  0  0  0  0  0  0  0  0  0  0  0
    9.8726   17.6491   38.9568 C   0  0  1  0  0  0  0  0  0  0  0  0
   10.8063   17.9270   33.3348 O   0  0  0  0  0  0  0  0  0  0  0  0
    9.1903   16.5156   38.1878 C   0  0  0  0  0  0  0  0  0  0  0  0
    8.5858   16.5565   30.7349 O   0  0  0  0  0  0  0  0  0  0  0  0
    8.6596   17.0577   36.8592 C   0  0  1  0  0  0  0  0  0  0  0  0
    7.6219   19.2499   30.9989 O   0  0  0  0  0  0  0  0  0  0  0  0
    9.7533   17.7360   36.0271 C   0  0  2  0  0  0  0  0  0  0  0  0
   14.7372   19.8818   35.9394 O   0  0  0  0  0  0  0  0  0  0  0  0
    9.9559   18.9185   33.9405 C   0  0  1  0  0  0  0  0  0  0  0  0
   14.3443   22.3590   37.1471 O   0  0  0  0  0  0  0  0  0  0  0  0
   10.1051   16.9092   32.5996 C   0  0  2  0  0  0  0  0  0  0  0  0
   11.1262   15.9134   32.0437 C   0  0  0  0  0  0  0  0  0  0  0  0
    9.3145   17.5547   31.4561 C   0  0  2  0  0  0  0  0  0  0  0  0
    8.3363   18.5762   32.0402 C   0  0  1  0  0  0  0  0  0  0  0  0
    9.0969   19.6082   32.8759 C   0  0  1  0  0  0  0  0  0  0  0  0
   13.5782   20.6463   35.5932 C   0  0  2  0  0  0  0  0  0  0  0  0
   13.7696   22.1388   35.8563 C   0  0  1  0  0  0  0  0  0  0  0  0
  3  1  1  0  0  0  0
  4  1  1  6  0  0  0
  4  6  1  0  0  0  0
  4 31  1  0  0  0  0
  6  7  1  0  0  0  0
  7  9  1  6  0  0  0
  7 30  1  0  0  0  0
 10  9  1  6  0  0  0
 10 13  1  0  0  0  0
 10 21  1  0  0  0  0
 13 12  1  1  0  0  0
 13 15  1  0  0  0  0
 15  2  1  1  0  0  0
 15 17  1  0  0  0  0
 16 25  1  0  0  0  0
 17 19  1  0  0  0  0
 19  5  1  6  0  0  0
 19 21  1  0  0  0  0
 21 14  1  6  0  0  0
 23 14  1  1  0  0  0
 23 16  1  0  0  0  0
 23 29  1  0  0  0  0
 25 26  1  6  0  0  0
 25 27  1  0  0  0  0
 26  8  1  0  0  0  0
 27 18  1  1  0  0  0
 27 28  1  0  0  0  0
 28 20  1  6  0  0  0
 28 29  1  0  0  0  0
 29 11  1  1  0  0  0
 30 22  1  1  0  0  0
 30 31  1  0  0  0  0
 31 24  1  1  0  0  0
M  END
>  <CHROM.1>
-179.14871510,-65.19089434,-72.80860494,59.32876481,64.99854054,61.44507361
10.74361888,19.03921041,35.11804464,-0.35586575,-0.94212025,-1.17898910

>  <Name>
2fcz_lig

>  <RI>
2.26996e+07

>  <Rbt.Current_Directory>
/home/itssahil/PROJECTS/Mol_Feturizer/New_Systems/rnas/2fcz

>  <Rbt.Executable>
rbdock ($Id: //depot/dev/client3/rdock/2013.1/src/exe/rbdock.cxx#4 $)

>  <Rbt.Library>
libRbt.so (2013.1, Build901 2013/11/27)

>  <Rbt.Parameter_File>
/export/apps/rDock/src/rDock_2013.1_src/data/scripts/dock_solv.prm

>  <Rbt.Receptor>
prm/pocket_docking_4.prm

>  <SCORE>
-22.0385

>  <SCORE.INTER>
-17.4955

>  <SCORE.INTER.CONST>
1

>  <SCORE.INTER.POLAR>
-1.97897

>  <SCORE.INTER.ROT>
6

>  <SCORE.INTER.SOLV>
12.7191

>  <SCORE.INTER.VDW>
-16.9068

>  <SCORE.INTER.norm>
-0.564371

>  <SCORE.INTRA>
-4.54298

>  <SCORE.INTRA.DIHEDRAL>
-9.64257

>  <SCORE.INTRA.DIHEDRAL.0>
10.8409

>  <SCORE.INTRA.POLAR>
0

>  <SCORE.INTRA.POLAR.0>
0

>  <SCORE.INTRA.REPUL>
0

>  <SCORE.INTRA.REPUL.0>
0

>  <SCORE.INTRA.SOLV>
-3.9345

>  <SCORE.INTRA.SOLV.lig_0>
-80.8302

>  <SCORE.INTRA.VDW>
2.24555

>  <SCORE.INTRA.VDW.0>
-4.23953

>  <SCORE.INTRA.norm>
-0.146548

>  <SCORE.RESTR>
0

>  <SCORE.RESTR.CAVITY>
0

>  <SCORE.RESTR.norm>
0

>  <SCORE.SYSTEM>
0

>  <SCORE.SYSTEM.CONST>
0

>  <SCORE.SYSTEM.DIHEDRAL>
0

>  <SCORE.SYSTEM.SOLV>
0

>  <SCORE.SYSTEM.norm>
0

>  <SCORE.heavy>
31

>  <SCORE.norm>
-0.710919

>  <RMSD>
5.602

$$$$
2fcz_lig
 OpenBabel11021811433D
libRbt.so/2013.1/901 2013/11/27
 31 33  0  0  0  0  0  0  0  0999 V2000
   16.3405   19.6772   36.8326 C   0  0  0  0  0  0  0  0  0  0  0  0
   11.8773   17.1020   40.0998 N   0  0  0  0  0  0  0  0  0  0  0  0
   15.6151   20.9096   36.8539 O   0  0  0  0  0  0  0  0  0  0  0  0
   15.5753   18.6437   35.9991 C   0  0  1  0  0  0  0  0  0  0  0  0
    9.5124   15.9420   35.9756 N   0  0  0  0  0  0  0  0  0  0  0  0
   14.2155   18.4923   36.4548 O   0  0  0  0  0  0  0  0  0  0  0  0
   13.3159   19.0799   35.4940 C   0  0  1  0  0  0  0  0  0  0  0  0
   12.5366   15.6367   33.1018 N   0  0  0  0  0  0  0  0  0  0  0  0
   12.3006   19.8906   36.1098 O   0  0  0  0  0  0  0  0  0  0  0  0
   11.3634   19.1540   36.9136 C   0  0  2  0  0  0  0  0  0  0  0  0
    8.4556   20.6035   33.7308 N   0  0  0  0  0  0  0  0  0  0  0  0
   12.5664   19.6029   38.9642 O   0  0  0  0  0  0  0  0  0  0  0  0
   12.0975   18.5506   38.1174 C   0  0  1  0  0  0  0  0  0  0  0  0
    9.8153   18.5981   35.0811 O   0  0  0  0  0  0  0  0  0  0  0  0
   11.1730   17.6383   38.9269 C   0  0  1  0  0  0  0  0  0  0  0  0
   11.3038   18.2430   33.2836 O   0  0  0  0  0  0  0  0  0  0  0  0
   10.6785   16.4828   38.0541 C   0  0  0  0  0  0  0  0  0  0  0  0
    8.8434   16.4836   31.1815 O   0  0  0  0  0  0  0  0  0  0  0  0
    9.9000   17.0487   36.8647 C   0  0  1  0  0  0  0  0  0  0  0  0
    7.6758   19.0972   31.4248 O   0  0  0  0  0  0  0  0  0  0  0  0
   10.7198   18.0630   36.0600 C   0  0  2  0  0  0  0  0  0  0  0  0
   13.6602   20.2196   33.3266 O   0  0  0  0  0  0  0  0  0  0  0  0
   10.4677   19.2036   33.9555 C   0  0  1  0  0  0  0  0  0  0  0  0
   15.2748   17.9775   33.6659 O   0  0  0  0  0  0  0  0  0  0  0  0
   10.5975   17.1133   32.7424 C   0  0  2  0  0  0  0  0  0  0  0  0
   11.6095   16.1671   32.0916 C   0  0  0  0  0  0  0  0  0  0  0  0
    9.5765   17.5951   31.7056 C   0  0  2  0  0  0  0  0  0  0  0  0
    8.6085   18.5727   32.3754 C   0  0  1  0  0  0  0  0  0  0  0  0
    9.3877   19.7297   33.0048 C   0  0  1  0  0  0  0  0  0  0  0  0
   14.2154   19.9537   34.6183 C   0  0  2  0  0  0  0  0  0  0  0  0
   15.4736   19.0910   34.5409 C   0  0  1  0  0  0  0  0  0  0  0  0
  3  1  1  0  0  0  0
  4  1  1  1  0  0  0
  4  6  1  0  0  0  0
  4 31  1  0  0  0  0
  6  7  1  0  0  0  0
  7  9  1  1  0  0  0
  7 30  1  0  0  0  0
 10  9  1  6  0  0  0
 10 13  1  0  0  0  0
 10 21  1  0  0  0  0
 13 12  1  1  0  0  0
 13 15  1  0  0  0  0
 15  2  1  1  0  0  0
 15 17  1  0  0  0  0
 16 25  1  0  0  0  0
 17 19  1  0  0  0  0
 19  5  1  6  0  0  0
 19 21  1  0  0  0  0
 21 14  1  6  0  0  0
 23 14  1  1  0  0  0
 23 16  1  0  0  0  0
 23 29  1  0  0  0  0
 25 26  1  6  0  0  0
 25 27  1  0  0  0  0
 26  8  1  0  0  0  0
 27 18  1  1  0  0  0
 27 28  1  0  0  0  0
 28 20  1  6  0  0  0
 28 29  1  0  0  0  0
 29 11  1  1  0  0  0
 30 22  1  6  0  0  0
 30 31  1  0  0  0  0
 31 24  1  6  0  0  0
M  END
>  <CHROM.1>
-53.81514444,-66.69269075,65.39423372,75.70909421,59.29278105,63.48442212
11.78777705,18.42589324,35.06173050,-0.74122869,-0.28397239,-1.50203868

>  <Name>
2fcz_lig

>  <RI>
2.76032e+07

>  <Rbt.Current_Directory>
/home/itssahil/PROJECTS/Mol_Feturizer/New_Systems/rnas/2fcz

>  <Rbt.Executable>
rbdock ($Id: //depot/dev/client3/rdock/2013.1/src/exe/rbdock.cxx#4 $)

>  <Rbt.Library>
libRbt.so (2013.1, Build901 2013/11/27)

>  <Rbt.Parameter_File>
/export/apps/rDock/src/rDock_2013.1_src/data/scripts/dock_solv.prm

>  <Rbt.Receptor>
prm/pocket_docking_8.prm

>  <SCORE>
-18.364

>  <SCORE.INTER>
-15.027

>  <SCORE.INTER.CONST>
1

>  <SCORE.INTER.POLAR>
-1.98098

>  <SCORE.INTER.ROT>
6

>  <SCORE.INTER.SOLV>
11.0297

>  <SCORE.INTER.VDW>
-14.6913

>  <SCORE.INTER.norm>
-0.484743

>  <SCORE.INTRA>
-3.33695

>  <SCORE.INTRA.DIHEDRAL>
-9.01266

>  <SCORE.INTRA.DIHEDRAL.0>
10.8409

>  <SCORE.INTRA.POLAR>
0

>  <SCORE.INTRA.POLAR.0>
0

>  <SCORE.INTRA.REPUL>
0

>  <SCORE.INTRA.REPUL.0>
0

>  <SCORE.INTRA.SOLV>
-0.710587

>  <SCORE.INTRA.SOLV.lig_0>
-80.8302

>  <SCORE.INTRA.VDW>
1.52467

>  <SCORE.INTRA.VDW.0>
-4.23953

>  <SCORE.INTRA.norm>
-0.107644

>  <SCORE.RESTR>
0

>  <SCORE.RESTR.CAVITY>
0

>  <SCORE.RESTR.norm>
0

>  <SCORE.SYSTEM>
0

>  <SCORE.SYSTEM.CONST>
0

>  <SCORE.SYSTEM.DIHEDRAL>
0

>  <SCORE.SYSTEM.SOLV>
0

>  <SCORE.SYSTEM.norm>
0

>  <SCORE.heavy>
31

>  <SCORE.norm>
-0.592386

>  <RMSD>
5.604

$$$$
2fcz_lig
 OpenBabel11021811433D
libRbt.so/2013.1/901 2013/11/27
 31 33  0  0  0  0  0  0  0  0999 V2000
   14.0506   12.5004   34.0710 C   0  0  0  0  0  0  0  0  0  0  0  0
   16.1272   16.1909   34.5109 N   0  0  0  0  0  0  0  0  0  0  0  0
   14.1556   11.1615   34.5628 O   0  0  0  0  0  0  0  0  0  0  0  0
   12.5733   12.8806   33.9242 C   0  0  1  0  0  0  0  0  0  0  0  0
   11.7727   18.4179   34.6716 N   0  0  0  0  0  0  0  0  0  0  0  0
   12.4155   14.2315   33.4448 O   0  0  0  0  0  0  0  0  0  0  0  0
   11.9482   14.2086   32.0814 C   0  0  1  0  0  0  0  0  0  0  0  0
    9.9866   22.1923   29.8973 N   0  0  0  0  0  0  0  0  0  0  0  0
   12.6581   15.1308   31.2373 O   0  0  0  0  0  0  0  0  0  0  0  0
   13.2924   16.2104   31.9438 C   0  0  2  0  0  0  0  0  0  0  0  0
    9.0520   16.1228   32.1470 N   0  0  0  0  0  0  0  0  0  0  0  0
   15.4381   15.0937   31.9929 O   0  0  0  0  0  0  0  0  0  0  0  0
   14.4142   15.6458   32.8241 C   0  0  1  0  0  0  0  0  0  0  0  0
   11.3297   17.6971   31.9826 O   0  0  0  0  0  0  0  0  0  0  0  0
   15.0265   16.7372   33.7052 C   0  0  1  0  0  0  0  0  0  0  0  0
   10.1574   19.6532   32.5927 O   0  0  0  0  0  0  0  0  0  0  0  0
   13.9591   17.3270   34.6297 C   0  0  0  0  0  0  0  0  0  0  0  0
    8.4849   20.0459   29.3344 O   0  0  0  0  0  0  0  0  0  0  0  0
   12.8436   17.9416   33.7819 C   0  0  1  0  0  0  0  0  0  0  0  0
    7.4307   17.5388   30.2600 O   0  0  0  0  0  0  0  0  0  0  0  0
   12.2480   16.9400   32.7865 C   0  0  2  0  0  0  0  0  0  0  0  0
   11.3864   12.3811   30.5131 O   0  0  0  0  0  0  0  0  0  0  0  0
   10.2106   18.2194   32.7134 C   0  0  1  0  0  0  0  0  0  0  0  0
   10.4732   11.9344   33.1047 O   0  0  0  0  0  0  0  0  0  0  0  0
    9.9815   20.1320   31.2482 C   0  0  2  0  0  0  0  0  0  0  0  0
    9.9765   21.6626   31.2686 C   0  0  0  0  0  0  0  0  0  0  0  0
    8.6580   19.6032   30.6841 C   0  0  2  0  0  0  0  0  0  0  0  0
    8.6763   18.0735   30.7194 C   0  0  1  0  0  0  0  0  0  0  0  0
    8.9348   17.5877   32.1474 C   0  0  1  0  0  0  0  0  0  0  0  0
   12.2086   12.7751   31.6159 C   0  0  2  0  0  0  0  0  0  0  0  0
   11.8854   11.9926   32.8874 C   0  0  1  0  0  0  0  0  0  0  0  0
  3  1  1  0  0  0  0
  4  1  1  6  0  0  0
  4  6  1  0  0  0  0
  4 31  1  0  0  0  0
  6  7  1  0  0  0  0
  7  9  1  6  0  0  0
  7 30  1  0  0  0  0
 10  9  1  1  0  0  0
 10 13  1  0  0  0  0
 10 21  1  0  0  0  0
 13 12  1  6  0  0  0
 13 15  1  0  0  0  0
 15  2  1  1  0  0  0
 15 17  1  0  0  0  0
 16 25  1  0  0  0  0
 17 19  1  0  0  0  0
 19  5  1  1  0  0  0
 19 21  1  0  0  0  0
 21 14  1  6  0  0  0
 23 14  1  6  0  0  0
 23 16  1  0  0  0  0
 23 29  1  0  0  0  0
 25 26  1  1  0  0  0
 25 27  1  0  0  0  0
 26  8  1  0  0  0  0
 27 18  1  6  0  0  0
 27 28  1  0  0  0  0
 28 20  1  1  0  0  0
 28 29  1  0  0  0  0
 29 11  1  6  0  0  0
 30 22  1  6  0  0  0
 30 31  1  0  0  0  0
 31 24  1  1  0  0  0
M  END
>  <CHROM.1>
179.31374160,-22.37383742,66.24495895,170.49955884,122.00916234,172.15605861
11.65821395,16.35481663,32.34332896,-0.96447522,-0.48711693,-0.02277504

>  <Name>
2fcz_lig

>  <RI>
0

>  <Rbt.Current_Directory>
/home/itssahil/PROJECTS/Mol_Feturizer/New_Systems/rnas/2fcz

>  <Rbt.Executable>
rbdock ($Id: //depot/dev/client3/rdock/2013.1/src/exe/rbdock.cxx#4 $)

>  <Rbt.Library>
libRbt.so (2013.1, Build901 2013/11/27)

>  <Rbt.Parameter_File>
/export/apps/rDock/src/rDock_2013.1_src/data/scripts/dock_solv.prm

>  <Rbt.Receptor>
prm/blind_docking_40.prm

>  <SCORE>
13.8323

>  <SCORE.INTER>
-3.82287

>  <SCORE.INTER.CONST>
1

>  <SCORE.INTER.POLAR>
-0.806117

>  <SCORE.INTER.ROT>
6

>  <SCORE.INTER.SOLV>
17.2601

>  <SCORE.INTER.VDW>
-13.2149

>  <SCORE.INTER.norm>
-0.123318

>  <SCORE.INTRA>
8.9938

>  <SCORE.INTRA.DIHEDRAL>
2.24684

>  <SCORE.INTRA.DIHEDRAL.0>
10.8409

>  <SCORE.INTRA.POLAR>
0

>  <SCORE.INTRA.POLAR.0>
0

>  <SCORE.INTRA.REPUL>
0

>  <SCORE.INTRA.REPUL.0>
0

>  <SCORE.INTRA.SOLV>
1.49137

>  <SCORE.INTRA.SOLV.lig_0>
-80.8302

>  <SCORE.INTRA.VDW>
7.1247

>  <SCORE.INTRA.VDW.0>
-4.23953

>  <SCORE.INTRA.norm>
0.290123

>  <SCORE.RESTR>
8.66133

>  <SCORE.RESTR.CAVITY>
8.66133

>  <SCORE.RESTR.norm>
0.279398

>  <SCORE.SYSTEM>
0

>  <SCORE.SYSTEM.CONST>
0

>  <SCORE.SYSTEM.DIHEDRAL>
0

>  <SCORE.SYSTEM.SOLV>
0

>  <SCORE.SYSTEM.norm>
0

>  <SCORE.heavy>
31

>  <SCORE.norm>
0.446202

>  <RMSD>
5.609

$$$$
2fcz_lig
 OpenBabel11021811433D
libRbt.so/2013.1/901 2013/11/27
 31 33  0  0  0  0  0  0  0  0999 V2000
   12.4987   10.1949   33.4217 C   0  0  0  0  0  0  0  0  0  0  0  0
   16.4714   15.3174   33.3624 N   0  0  0  0  0  0  0  0  0  0  0  0
   11.7967   10.5148   32.2173 O   0  0  0  0  0  0  0  0  0  0  0  0
   12.4355   11.3844   34.3858 C   0  0  1  0  0  0  0  0  0  0  0  0
   12.8465   18.5947   33.6207 N   0  0  0  0  0  0  0  0  0  0  0  0
   12.9304   12.5931   33.7745 O   0  0  0  0  0  0  0  0  0  0  0  0
   11.8306   13.4876   33.5136 C   0  0  1  0  0  0  0  0  0  0  0  0
    9.0606   21.4916   33.1637 N   0  0  0  0  0  0  0  0  0  0  0  0
   11.8915   14.0718   32.2013 O   0  0  0  0  0  0  0  0  0  0  0  0
   12.8820   15.1041   32.0594 C   0  0  2  0  0  0  0  0  0  0  0  0
    8.9004   15.7377   31.2654 N   0  0  0  0  0  0  0  0  0  0  0  0
   14.7163   13.5264   32.0467 O   0  0  0  0  0  0  0  0  0  0  0  0
   14.1795   14.6542   32.7424 C   0  0  1  0  0  0  0  0  0  0  0  0
   11.2953   16.9811   31.9070 O   0  0  0  0  0  0  0  0  0  0  0  0
   15.2202   15.7765   32.7437 C   0  0  1  0  0  0  0  0  0  0  0  0
   10.2097   18.7065   33.0973 O   0  0  0  0  0  0  0  0  0  0  0  0
   14.6852   16.9888   33.5091 C   0  0  0  0  0  0  0  0  0  0  0  0
    9.0012   20.4520   30.0873 O   0  0  0  0  0  0  0  0  0  0  0  0
   13.4125   17.4932   32.8259 C   0  0  1  0  0  0  0  0  0  0  0  0
    7.6470   17.9247   29.9086 O   0  0  0  0  0  0  0  0  0  0  0  0
   12.3533   16.3950   32.6816 C   0  0  2  0  0  0  0  0  0  0  0  0
    9.3950   13.3405   33.9146 O   0  0  0  0  0  0  0  0  0  0  0  0
   10.1360   17.3315   32.6768 C   0  0  1  0  0  0  0  0  0  0  0  0
   10.9246   12.3772   36.0317 O   0  0  0  0  0  0  0  0  0  0  0  0
   10.2440   19.6583   32.0199 C   0  0  2  0  0  0  0  0  0  0  0  0
   10.3548   21.0658   32.6113 C   0  0  0  0  0  0  0  0  0  0  0  0
    8.9663   19.5321   31.1827 C   0  0  2  0  0  0  0  0  0  0  0  0
    8.8616   18.1036   30.6443 C   0  0  1  0  0  0  0  0  0  0  0  0
    8.8978   17.1052   31.8035 C   0  0  1  0  0  0  0  0  0  0  0  0
   10.5879   12.6035   33.6295 C   0  0  2  0  0  0  0  0  0  0  0  0
   10.9901   11.6851   34.7820 C   0  0  1  0  0  0  0  0  0  0  0  0
  3  1  1  0  0  0  0
  4  1  1  6  0  0  0
  4  6  1  0  0  0  0
  4 31  1  0  0  0  0
  6  7  1  0  0  0  0
  7  9  1  6  0  0  0
  7 30  1  0  0  0  0
 10  9  1  1  0  0  0
 10 13  1  0  0  0  0
 10 21  1  0  0  0  0
 13 12  1  6  0  0  0
 13 15  1  0  0  0  0
 15  2  1  1  0  0  0
 15 17  1  0  0  0  0
 16 25  1  0  0  0  0
 17 19  1  0  0  0  0
 19  5  1  1  0  0  0
 19 21  1  0  0  0  0
 21 14  1  6  0  0  0
 23 14  1  6  0  0  0
 23 16  1  0  0  0  0
 23 29  1  0  0  0  0
 25 26  1  1  0  0  0
 25 27  1  0  0  0  0
 26  8  1  0  0  0  0
 27 18  1  6  0  0  0
 27 28  1  0  0  0  0
 28 20  1  1  0  0  0
 28 29  1  0  0  0  0
 29 11  1  6  0  0  0
 30 22  1  1  0  0  0
 30 31  1  0  0  0  0
 31 24  1  1  0  0  0
M  END
>  <CHROM.1>
-55.13727830,-74.80915820,43.48849000,130.61361791,93.55828230,-75.49114711
11.44873637,15.78054144,32.69628661,1.17387115,0.17118555,2.95069935

>  <Name>
2fcz_lig

>  <RI>
0

>  <Rbt.Current_Directory>
/home/itssahil/PROJECTS/Mol_Feturizer/New_Systems/rnas/2fcz

>  <Rbt.Executable>
rbdock ($Id: //depot/dev/client3/rdock/2013.1/src/exe/rbdock.cxx#4 $)

>  <Rbt.Library>
libRbt.so (2013.1, Build901 2013/11/27)

>  <Rbt.Parameter_File>
/export/apps/rDock/src/rDock_2013.1_src/data/scripts/dock_solv.prm

>  <Rbt.Receptor>
prm/blind_docking_40.prm

>  <SCORE>
12.0837

>  <SCORE.INTER>
-3.3628

>  <SCORE.INTER.CONST>
1

>  <SCORE.INTER.POLAR>
0

>  <SCORE.INTER.ROT>
6

>  <SCORE.INTER.SOLV>
20.5684

>  <SCORE.INTER.VDW>
-16.698

>  <SCORE.INTER.norm>
-0.108478

>  <SCORE.INTRA>
6.4467

>  <SCORE.INTRA.DIHEDRAL>
3.29064

>  <SCORE.INTRA.DIHEDRAL.0>
10.8409

>  <SCORE.INTRA.POLAR>
0

>  <SCORE.INTRA.POLAR.0>
0

>  <SCORE.INTRA.REPUL>
0

>  <SCORE.INTRA.REPUL.0>
0

>  <SCORE.INTRA.SOLV>
2.5394

>  <SCORE.INTRA.SOLV.lig_0>
-80.8302

>  <SCORE.INTRA.VDW>
3.53168

>  <SCORE.INTRA.VDW.0>
-4.23953

>  <SCORE.INTRA.norm>
0.207958

>  <SCORE.RESTR>
8.99984

>  <SCORE.RESTR.CAVITY>
8.99984

>  <SCORE.RESTR.norm>
0.290317

>  <SCORE.SYSTEM>
0

>  <SCORE.SYSTEM.CONST>
0

>  <SCORE.SYSTEM.DIHEDRAL>
0

>  <SCORE.SYSTEM.SOLV>
0

>  <SCORE.SYSTEM.norm>
0

>  <SCORE.heavy>
31

>  <SCORE.norm>
0.389798

>  <RMSD>
5.615

$$$$
2fcz_lig
 OpenBabel11021811433D
libRbt.so/2013.1/901 2013/11/27
 31 33  0  0  0  0  0  0  0  0999 V2000
    9.5460   20.0106   31.0235 C   0  0  0  0  0  0  0  0  0  0  0  0
   12.1203   20.0322   38.0455 N   0  0  0  0  0  0  0  0  0  0  0  0
    8.6498   19.5739   29.9980 O   0  0  0  0  0  0  0  0  0  0  0  0
    8.8042   20.0738   32.3630 C   0  0  1  0  0  0  0  0  0  0  0  0
   15.1704   23.0481   35.6900 N   0  0  0  0  0  0  0  0  0  0  0  0
    9.6935   20.4011   33.4500 O   0  0  0  0  0  0  0  0  0  0  0  0
    9.4318   21.7453   33.9000 C   0  0  1  0  0  0  0  0  0  0  0  0
   10.8003   23.3305   29.8541 N   0  0  0  0  0  0  0  0  0  0  0  0
   10.6353   22.5056   34.1019 O   0  0  0  0  0  0  0  0  0  0  0  0
   11.7275   21.7485   34.6504 C   0  0  2  0  0  0  0  0  0  0  0  0
   15.9923   21.6761   33.3718 N   0  0  0  0  0  0  0  0  0  0  0  0
   10.2617   20.3077   35.9269 O   0  0  0  0  0  0  0  0  0  0  0  0
   11.3384   21.2410   36.0444 C   0  0  1  0  0  0  0  0  0  0  0  0
   13.5106   22.9142   33.4153 O   0  0  0  0  0  0  0  0  0  0  0  0
   12.5198   20.5503   36.7298 C   0  0  1  0  0  0  0  0  0  0  0  0
   12.8236   21.8567   31.4197 O   0  0  0  0  0  0  0  0  0  0  0  0
   13.6792   21.5349   36.8977 C   0  0  0  0  0  0  0  0  0  0  0  0
   14.9025   23.9563   29.2202 O   0  0  0  0  0  0  0  0  0  0  0  0
   14.1242   22.0275   35.5193 C   0  0  1  0  0  0  0  0  0  0  0  0
   16.8755   22.6049   30.8122 O   0  0  0  0  0  0  0  0  0  0  0  0
   12.9692   22.6356   34.7161 C   0  0  2  0  0  0  0  0  0  0  0  0
    7.8194   23.4836   33.1978 O   0  0  0  0  0  0  0  0  0  0  0  0
   13.6607   21.7524   32.5865 C   0  0  1  0  0  0  0  0  0  0  0  0
    6.7163   20.9300   33.3038 O   0  0  0  0  0  0  0  0  0  0  0  0
   13.1321   22.9693   30.5623 C   0  0  2  0  0  0  0  0  0  0  0  0
   12.1486   22.9731   29.3895 C   0  0  0  0  0  0  0  0  0  0  0  0
   14.5708   22.8386   30.0497 C   0  0  2  0  0  0  0  0  0  0  0  0
   15.5243   22.7917   31.2456 C   0  0  1  0  0  0  0  0  0  0  0  0
   15.1337   21.6441   32.1797 C   0  0  1  0  0  0  0  0  0  0  0  0
    8.6087   22.3688   32.7717 C   0  0  2  0  0  0  0  0  0  0  0  0
    7.7491   21.1798   32.3467 C   0  0  1  0  0  0  0  0  0  0  0  0
  3  1  1  0  0  0  0
  4  1  1  6  0  0  0
  4  6  1  0  0  0  0
  4 31  1  0  0  0  0
  6  7  1  0  0  0  0
  7  9  1  6  0  0  0
  7 30  1  0  0  0  0
 10  9  1  1  0  0  0
 10 13  1  0  0  0  0
 10 21  1  0  0  0  0
 13 12  1  6  0  0  0
 13 15  1  0  0  0  0
 15  2  1  1  0  0  0
 15 17  1  0  0  0  0
 16 25  1  0  0  0  0
 17 19  1  0  0  0  0
 19  5  1  1  0  0  0
 19 21  1  0  0  0  0
 21 14  1  6  0  0  0
 23 14  1  1  0  0  0
 23 16  1  0  0  0  0
 23 29  1  0  0  0  0
 25 26  1  6  0  0  0
 25 27  1  0  0  0  0
 26  8  1  0  0  0  0
 27 18  1  6  0  0  0
 27 28  1  0  0  0  0
 28 20  1  6  0  0  0
 28 29  1  0  0  0  0
 29 11  1  1  0  0  0
 30 22  1  1  0  0  0
 30 31  1  0  0  0  0
 31 24  1  1  0  0  0
M  END
>  <CHROM.1>
175.13673964,-37.43498716,-62.72243221,-48.14190628,116.89133449,69.65695309
11.91709039,21.83038770,33.02509069,2.87398833,0.19966011,1.76269589

>  <Name>
2fcz_lig

>  <RI>
1.40544e+07

>  <Rbt.Current_Directory>
/home/itssahil/PROJECTS/Mol_Feturizer/New_Systems/rnas/2fcz

>  <Rbt.Executable>
rbdock ($Id: //depot/dev/client3/rdock/2013.1/src/exe/rbdock.cxx#4 $)

>  <Rbt.Library>
libRbt.so (2013.1, Build901 2013/11/27)

>  <Rbt.Parameter_File>
/export/apps/rDock/src/rDock_2013.1_src/data/scripts/dock_solv.prm

>  <Rbt.Receptor>
prm/blind_docking_100.prm

>  <SCORE>
-14.9568

>  <SCORE.INTER>
-19.1602

>  <SCORE.INTER.CONST>
1

>  <SCORE.INTER.POLAR>
-1.8135

>  <SCORE.INTER.ROT>
6

>  <SCORE.INTER.SOLV>
19.1885

>  <SCORE.INTER.VDW>
-20.7246

>  <SCORE.INTER.norm>
-0.618071

>  <SCORE.INTRA>
4.20339

>  <SCORE.INTRA.DIHEDRAL>
-0.235516

>  <SCORE.INTRA.DIHEDRAL.0>
10.8409

>  <SCORE.INTRA.POLAR>
0

>  <SCORE.INTRA.POLAR.0>
0

>  <SCORE.INTRA.REPUL>
0

>  <SCORE.INTRA.REPUL.0>
0

>  <SCORE.INTRA.SOLV>
1.40988

>  <SCORE.INTRA.SOLV.lig_0>
-80.8302

>  <SCORE.INTRA.VDW>
3.61621

>  <SCORE.INTRA.VDW.0>
-4.23953

>  <SCORE.INTRA.norm>
0.135593

>  <SCORE.RESTR>
0

>  <SCORE.RESTR.CAVITY>
0

>  <SCORE.RESTR.norm>
0

>  <SCORE.SYSTEM>
0

>  <SCORE.SYSTEM.CONST>
0

>  <SCORE.SYSTEM.DIHEDRAL>
0

>  <SCORE.SYSTEM.SOLV>
0

>  <SCORE.SYSTEM.norm>
0

>  <SCORE.heavy>
31

>  <SCORE.norm>
-0.482477

>  <RMSD>
5.618

$$$$
2fcz_lig
 OpenBabel11021811433D
libRbt.so/2013.1/901 2013/11/27
 31 33  0  0  0  0  0  0  0  0999 V2000
   11.8793   13.5516   32.3491 C   0  0  0  0  0  0  0  0  0  0  0  0
   10.1595   14.1062   35.0985 N   0  0  0  0  0  0  0  0  0  0  0  0
   12.2497   12.1783   32.4993 O   0  0  0  0  0  0  0  0  0  0  0  0
   12.9505   14.2879   31.5374 C   0  0  1  0  0  0  0  0  0  0  0  0
    8.4283   15.9440   30.9066 N   0  0  0  0  0  0  0  0  0  0  0  0
   12.5719   15.6534   31.2699 O   0  0  0  0  0  0  0  0  0  0  0  0
   13.3834   16.5435   32.0617 C   0  0  1  0  0  0  0  0  0  0  0  0
    9.0027   22.4551   28.5200 N   0  0  0  0  0  0  0  0  0  0  0  0
   12.6132   17.5804   32.6933 O   0  0  0  0  0  0  0  0  0  0  0  0
   11.3011   17.1693   33.1132 C   0  0  2  0  0  0  0  0  0  0  0  0
    8.5825   18.3441   33.5682 N   0  0  0  0  0  0  0  0  0  0  0  0
   12.1273   16.1421   35.1420 O   0  0  0  0  0  0  0  0  0  0  0  0
   11.4159   15.8766   33.9306 C   0  0  1  0  0  0  0  0  0  0  0  0
   10.0824   18.2024   31.2393 O   0  0  0  0  0  0  0  0  0  0  0  0
   10.0337   15.3199   34.2798 C   0  0  1  0  0  0  0  0  0  0  0  0
   10.5593   20.5141   31.2732 O   0  0  0  0  0  0  0  0  0  0  0  0
    9.2585   14.9966   33.0007 C   0  0  0  0  0  0  0  0  0  0  0  0
    7.1949   21.5447   30.1838 O   0  0  0  0  0  0  0  0  0  0  0  0
    9.0852   16.2766   32.1807 C   0  0  1  0  0  0  0  0  0  0  0  0
    6.6553   20.2766   32.7046 O   0  0  0  0  0  0  0  0  0  0  0  0
   10.4221   16.9632   31.8811 C   0  0  2  0  0  0  0  0  0  0  0  0
   15.2096   16.1760   33.6879 O   0  0  0  0  0  0  0  0  0  0  0  0
   10.2562   19.3566   32.0740 C   0  0  1  0  0  0  0  0  0  0  0  0
   15.3807   14.5378   31.4438 O   0  0  0  0  0  0  0  0  0  0  0  0
    9.5281   20.8800   30.3401 C   0  0  2  0  0  0  0  0  0  0  0  0
    9.9985   22.0977   29.5407 C   0  0  0  0  0  0  0  0  0  0  0  0
    8.2397   21.2095   31.1023 C   0  0  2  0  0  0  0  0  0  0  0  0
    7.8212   19.9895   31.9257 C   0  0  1  0  0  0  0  0  0  0  0  0
    8.9599   19.5755   32.8607 C   0  0  1  0  0  0  0  0  0  0  0  0
   14.0072   15.6403   33.1268 C   0  0  2  0  0  0  0  0  0  0  0  0
   14.2620   14.3695   32.3184 C   0  0  1  0  0  0  0  0  0  0  0  0
  3  1  1  0  0  0  0
  4  1  1  1  0  0  0
  4  6  1  0  0  0  0
  4 31  1  0  0  0  0
  6  7  1  0  0  0  0
  7  9  1  1  0  0  0
  7 30  1  0  0  0  0
 10  9  1  6  0  0  0
 10 13  1  0  0  0  0
 10 21  1  0  0  0  0
 13 12  1  1  0  0  0
 13 15  1  0  0  0  0
 15  2  1  1  0  0  0
 15 17  1  0  0  0  0
 16 25  1  0  0  0  0
 17 19  1  0  0  0  0
 19  5  1  6  0  0  0
 19 21  1  0  0  0  0
 21 14  1  1  0  0  0
 23 14  1  6  0  0  0
 23 16  1  0  0  0  0
 23 29  1  0  0  0  0
 25 26  1  1  0  0  0
 25 27  1  0  0  0  0
 26  8  1  0  0  0  0
 27 18  1  6  0  0  0
 27 28  1  0  0  0  0
 28 20  1  1  0  0  0
 28 29  1  0  0  0  0
 29 11  1  6  0  0  0
 30 22  1  6  0  0  0
 30 31  1  0  0  0  0
 31 24  1  6  0  0  0
M  END
>  <CHROM.1>
175.51571832,35.11776997,50.41502561,-18.55678903,151.22534190,176.69265197
10.79142230,17.34264746,32.18516725,0.94525134,-0.27512414,2.63590700

>  <Name>
2fcz_lig

>  <RI>
0

>  <Rbt.Current_Directory>
/home/itssahil/PROJECTS/Mol_Feturizer/New_Systems/rnas/2fcz

>  <Rbt.Executable>
rbdock ($Id: //depot/dev/client3/rdock/2013.1/src/exe/rbdock.cxx#4 $)

>  <Rbt.Library>
libRbt.so (2013.1, Build901 2013/11/27)

>  <Rbt.Parameter_File>
/export/apps/rDock/src/rDock_2013.1_src/data/scripts/dock_solv.prm

>  <Rbt.Receptor>
prm/blind_docking_40.prm

>  <SCORE>
22.5407

>  <SCORE.INTER>
-0.683896

>  <SCORE.INTER.CONST>
1

>  <SCORE.INTER.POLAR>
-0.216985

>  <SCORE.INTER.ROT>
6

>  <SCORE.INTER.SOLV>
18.0156

>  <SCORE.INTER.VDW>
-13.3378

>  <SCORE.INTER.norm>
-0.0220612

>  <SCORE.INTRA>
15.3764

>  <SCORE.INTRA.DIHEDRAL>
1.35617

>  <SCORE.INTRA.DIHEDRAL.0>
10.8409

>  <SCORE.INTRA.POLAR>
0

>  <SCORE.INTRA.POLAR.0>
0

>  <SCORE.INTRA.REPUL>
0

>  <SCORE.INTRA.REPUL.0>
0

>  <SCORE.INTRA.SOLV>
5.4907

>  <SCORE.INTRA.SOLV.lig_0>
-80.8302

>  <SCORE.INTRA.VDW>
11.953

>  <SCORE.INTRA.VDW.0>
-4.23953

>  <SCORE.INTRA.norm>
0.496013

>  <SCORE.RESTR>
7.8482

>  <SCORE.RESTR.CAVITY>
7.8482

>  <SCORE.RESTR.norm>
0.253168

>  <SCORE.SYSTEM>
0

>  <SCORE.SYSTEM.CONST>
0

>  <SCORE.SYSTEM.DIHEDRAL>
0

>  <SCORE.SYSTEM.SOLV>
0

>  <SCORE.SYSTEM.norm>
0

>  <SCORE.heavy>
31

>  <SCORE.norm>
0.72712

>  <RMSD>
5.618

$$$$
2fcz_lig
 OpenBabel11021811433D
libRbt.so/2013.1/901 2013/11/27
 31 33  0  0  0  0  0  0  0  0999 V2000
   15.5709   18.1172   32.9734 C   0  0  0  0  0  0  0  0  0  0  0  0
   17.0315   24.9844   38.0742 N   0  0  0  0  0  0  0  0  0  0  0  0
   15.6395   16.6940   32.8502 O   0  0  0  0  0  0  0  0  0  0  0  0
   16.6171   18.5974   33.9851 C   0  0  1  0  0  0  0  0  0  0  0  0
   13.8721   26.0394   34.4891 N   0  0  0  0  0  0  0  0  0  0  0  0
   16.5921   20.0311   34.1381 O   0  0  0  0  0  0  0  0  0  0  0  0
   16.0360   20.3700   35.4241 C   0  0  1  0  0  0  0  0  0  0  0  0
    9.3058   23.0815   32.4065 N   0  0  0  0  0  0  0  0  0  0  0  0
   15.0725   21.4344   35.3475 O   0  0  0  0  0  0  0  0  0  0  0  0
   15.6489   22.7504   35.2949 C   0  0  2  0  0  0  0  0  0  0  0  0
   15.6580   22.4181   31.1272 N   0  0  0  0  0  0  0  0  0  0  0  0
   17.1472   22.3125   37.1434 O   0  0  0  0  0  0  0  0  0  0  0  0
   16.0866   23.1652   36.7051 C   0  0  1  0  0  0  0  0  0  0  0  0
   14.3819   23.5212   33.3290 O   0  0  0  0  0  0  0  0  0  0  0  0
   16.5758   24.6152   36.7269 C   0  0  1  0  0  0  0  0  0  0  0  0
   12.6940   21.8708   33.3180 O   0  0  0  0  0  0  0  0  0  0  0  0
   15.4506   25.5564   36.2911 C   0  0  0  0  0  0  0  0  0  0  0  0
   10.9255   23.2502   30.3961 O   0  0  0  0  0  0  0  0  0  0  0  0
   15.0198   25.1995   34.8671 C   0  0  1  0  0  0  0  0  0  0  0  0
   13.4737   22.5321   29.2804 O   0  0  0  0  0  0  0  0  0  0  0  0
   14.6185   23.7267   34.7307 C   0  0  2  0  0  0  0  0  0  0  0  0
   15.1818   19.0180   37.3102 O   0  0  0  0  0  0  0  0  0  0  0  0
   14.0637   22.1647   32.9854 C   0  0  1  0  0  0  0  0  0  0  0  0
   17.5096   17.9925   36.1794 O   0  0  0  0  0  0  0  0  0  0  0  0
   11.7258   22.6704   32.6171 C   0  0  2  0  0  0  0  0  0  0  0  0
   10.3255   22.2741   33.0918 C   0  0  0  0  0  0  0  0  0  0  0  0
   11.8622   22.4363   31.1085 C   0  0  2  0  0  0  0  0  0  0  0  0
   13.2842   22.7978   30.6740 C   0  0  1  0  0  0  0  0  0  0  0  0
   14.2990   21.9861   31.4822 C   0  0  1  0  0  0  0  0  0  0  0  0
   15.3511   19.0845   35.8909 C   0  0  2  0  0  0  0  0  0  0  0  0
   16.3281   18.0298   35.3747 C   0  0  1  0  0  0  0  0  0  0  0  0
  3  1  1  0  0  0  0
  4  1  1  6  0  0  0
  4  6  1  0  0  0  0
  4 31  1  0  0  0  0
  6  7  1  0  0  0  0
  7  9  1  6  0  0  0
  7 30  1  0  0  0  0
 10  9  1  1  0  0  0
 10 13  1  0  0  0  0
 10 21  1  0  0  0  0
 13 12  1  6  0  0  0
 13 15  1  0  0  0  0
 15  2  1  1  0  0  0
 15 17  1  0  0  0  0
 16 25  1  0  0  0  0
 17 19  1  0  0  0  0
 19  5  1  1  0  0  0
 19 21  1  0  0  0  0
 21 14  1  6  0  0  0
 23 14  1  6  0  0  0
 23 16  1  0  0  0  0
 23 29  1  0  0  0  0
 25 26  1  1  0  0  0
 25 27  1  0  0  0  0
 26  8  1  0  0  0  0
 27 18  1  6  0  0  0
 27 28  1  0  0  0  0
 28 20  1  6  0  0  0
 28 29  1  0  0  0  0
 29 11  1  1  0  0  0
 30 22  1  1  0  0  0
 30 31  1  0  0  0  0
 31 24  1  1  0  0  0
M  END
>  <CHROM.1>
179.64898307,-81.08403479,-78.27879126,52.02131117,77.81790498,179.41518331
14.62856521,21.84530716,34.04390998,0.16244593,0.86082670,-2.75682221

>  <Name>
2fcz_lig

>  <RI>
2.6968e+07

>  <Rbt.Current_Directory>
/home/itssahil/PROJECTS/Mol_Feturizer/New_Systems/rnas/2fcz

>  <Rbt.Executable>
rbdock ($Id: //depot/dev/client3/rdock/2013.1/src/exe/rbdock.cxx#4 $)

>  <Rbt.Library>
libRbt.so (2013.1, Build901 2013/11/27)

>  <Rbt.Parameter_File>
/export/apps/rDock/src/rDock_2013.1_src/data/scripts/dock_solv.prm

>  <Rbt.Receptor>
prm/blind_docking_60.prm

>  <SCORE>
-16.6796

>  <SCORE.INTER>
-15.2791

>  <SCORE.INTER.CONST>
1

>  <SCORE.INTER.POLAR>
-1.39484

>  <SCORE.INTER.ROT>
6

>  <SCORE.INTER.SOLV>
18.2572

>  <SCORE.INTER.VDW>
-19.2224

>  <SCORE.INTER.norm>
-0.492876

>  <SCORE.INTRA>
-1.40049

>  <SCORE.INTRA.DIHEDRAL>
-5.45472

>  <SCORE.INTRA.DIHEDRAL.0>
10.8409

>  <SCORE.INTRA.POLAR>
0

>  <SCORE.INTRA.POLAR.0>
0

>  <SCORE.INTRA.REPUL>
0

>  <SCORE.INTRA.REPUL.0>
0

>  <SCORE.INTRA.SOLV>
-2.59372

>  <SCORE.INTRA.SOLV.lig_0>
-80.8302

>  <SCORE.INTRA.VDW>
2.62372

>  <SCORE.INTRA.VDW.0>
-4.23953

>  <SCORE.INTRA.norm>
-0.0451772

>  <SCORE.RESTR>
0

>  <SCORE.RESTR.CAVITY>
0

>  <SCORE.RESTR.norm>
0

>  <SCORE.SYSTEM>
0

>  <SCORE.SYSTEM.CONST>
0

>  <SCORE.SYSTEM.DIHEDRAL>
0

>  <SCORE.SYSTEM.SOLV>
0

>  <SCORE.SYSTEM.norm>
0

>  <SCORE.heavy>
31

>  <SCORE.norm>
-0.538053

>  <RMSD>
5.630

$$$$
2fcz_lig
 OpenBabel11021811433D
libRbt.so/2013.1/901 2013/11/27
 31 33  0  0  0  0  0  0  0  0999 V2000
   15.0226   21.9007   34.3486 C   0  0  0  0  0  0  0  0  0  0  0  0
   10.6897   17.5652   39.6804 N   0  0  0  0  0  0  0  0  0  0  0  0
   15.7891   23.0953   34.5241 O   0  0  0  0  0  0  0  0  0  0  0  0
   13.5577   22.2633   34.0823 C   0  0  1  0  0  0  0  0  0  0  0  0
    8.2560   16.2572   35.6413 N   0  0  0  0  0  0  0  0  0  0  0  0
   12.7572   21.0922   33.8230 O   0  0  0  0  0  0  0  0  0  0  0  0
   11.8891   20.8422   34.9463 C   0  0  1  0  0  0  0  0  0  0  0  0
   11.8677   15.2061   33.1421 N   0  0  0  0  0  0  0  0  0  0  0  0
   11.8681   19.4574   35.3323 O   0  0  0  0  0  0  0  0  0  0  0  0
   10.7618   19.0959   36.1763 C   0  0  2  0  0  0  0  0  0  0  0  0
    8.1836   20.4716   32.5846 N   0  0  0  0  0  0  0  0  0  0  0  0
   11.9691   19.6174   38.2072 O   0  0  0  0  0  0  0  0  0  0  0  0
   11.2993   18.5637   37.5105 C   0  0  1  0  0  0  0  0  0  0  0  0
    9.1873   18.5853   34.3531 O   0  0  0  0  0  0  0  0  0  0  0  0
   10.1650   18.0317   38.3896 C   0  0  1  0  0  0  0  0  0  0  0  0
   10.8354   17.8650   32.8241 O   0  0  0  0  0  0  0  0  0  0  0  0
    9.4474   16.8801   37.6821 C   0  0  0  0  0  0  0  0  0  0  0  0
    8.4843   16.0105   30.6791 O   0  0  0  0  0  0  0  0  0  0  0  0
    8.8578   17.3884   36.3651 C   0  0  1  0  0  0  0  0  0  0  0  0
    7.5415   18.7119   30.4199 O   0  0  0  0  0  0  0  0  0  0  0  0
    9.9135   18.0423   35.4669 C   0  0  2  0  0  0  0  0  0  0  0  0
   11.5337   21.9980   37.1033 O   0  0  0  0  0  0  0  0  0  0  0  0
   10.0189   18.9720   33.2493 C   0  0  1  0  0  0  0  0  0  0  0  0
   11.8110   23.7385   34.9485 O   0  0  0  0  0  0  0  0  0  0  0  0
   10.0958   16.7252   32.3530 C   0  0  2  0  0  0  0  0  0  0  0  0
   11.0853   15.6222   31.9690 C   0  0  0  0  0  0  0  0  0  0  0  0
    9.2507   17.1278   31.1393 C   0  0  2  0  0  0  0  0  0  0  0  0
    8.3055   18.2613   31.5433 C   0  0  1  0  0  0  0  0  0  0  0  0
    9.1094   19.4353   32.1068 C   0  0  1  0  0  0  0  0  0  0  0  0
   12.4805   21.6858   36.0768 C   0  0  2  0  0  0  0  0  0  0  0  0
   12.9318   22.9268   35.3090 C   0  0  1  0  0  0  0  0  0  0  0  0
  3  1  1  0  0  0  0
  4  1  1  1  0  0  0
  4  6  1  0  0  0  0
  4 31  1  0  0  0  0
  6  7  1  0  0  0  0
  7  9  1  1  0  0  0
  7 30  1  0  0  0  0
 10  9  1  6  0  0  0
 10 13  1  0  0  0  0
 10 21  1  0  0  0  0
 13 12  1  1  0  0  0
 13 15  1  0  0  0  0
 15  2  1  1  0  0  0
 15 17  1  0  0  0  0
 16 25  1  0  0  0  0
 17 19  1  0  0  0  0
 19  5  1  6  0  0  0
 19 21  1  0  0  0  0
 21 14  1  6  0  0  0
 23 14  1  1  0  0  0
 23 16  1  0  0  0  0
 23 29  1  0  0  0  0
 25 26  1  6  0  0  0
 25 27  1  0  0  0  0
 26  8  1  0  0  0  0
 27 18  1  1  0  0  0
 27 28  1  0  0  0  0
 28 20  1  6  0  0  0
 28 29  1  0  0  0  0
 29 11  1  1  0  0  0
 30 22  1  1  0  0  0
 30 31  1  0  0  0  0
 31 24  1  6  0  0  0
M  END
>  <CHROM.1>
176.72560487,-163.39154657,-119.78296789,68.88205671,55.13828503,61.59962324
10.82825939,19.17947854,34.56235241,-0.33977464,-0.92904332,-1.35709720

>  <Name>
2fcz_lig

>  <RI>
2.26996e+07

>  <Rbt.Current_Directory>
/home/itssahil/PROJECTS/Mol_Feturizer/New_Systems/rnas/2fcz

>  <Rbt.Executable>
rbdock ($Id: //depot/dev/client3/rdock/2013.1/src/exe/rbdock.cxx#4 $)

>  <Rbt.Library>
libRbt.so (2013.1, Build901 2013/11/27)

>  <Rbt.Parameter_File>
/export/apps/rDock/src/rDock_2013.1_src/data/scripts/dock_solv.prm

>  <Rbt.Receptor>
prm/pocket_docking_4.prm

>  <SCORE>
-14.3208

>  <SCORE.INTER>
-13.1708

>  <SCORE.INTER.CONST>
1

>  <SCORE.INTER.POLAR>
-1.18838

>  <SCORE.INTER.ROT>
6

>  <SCORE.INTER.SOLV>
13.0205

>  <SCORE.INTER.VDW>
-16.7594

>  <SCORE.INTER.norm>
-0.424863

>  <SCORE.INTRA>
-1.15334

>  <SCORE.INTRA.DIHEDRAL>
-1.70964

>  <SCORE.INTRA.DIHEDRAL.0>
10.8409

>  <SCORE.INTRA.POLAR>
0

>  <SCORE.INTRA.POLAR.0>
0

>  <SCORE.INTRA.REPUL>
0.00928232

>  <SCORE.INTRA.REPUL.0>
0

>  <SCORE.INTRA.SOLV>
-2.86298

>  <SCORE.INTRA.SOLV.lig_0>
-80.8302

>  <SCORE.INTRA.VDW>
1.08655

>  <SCORE.INTRA.VDW.0>
-4.23953

>  <SCORE.INTRA.norm>
-0.0372047

>  <SCORE.RESTR>
0.00327576

>  <SCORE.RESTR.CAVITY>
0.00327576

>  <SCORE.RESTR.norm>
0.00010567

>  <SCORE.SYSTEM>
0

>  <SCORE.SYSTEM.CONST>
0

>  <SCORE.SYSTEM.DIHEDRAL>
0

>  <SCORE.SYSTEM.SOLV>
0

>  <SCORE.SYSTEM.norm>
0

>  <SCORE.heavy>
31

>  <SCORE.norm>
-0.461962

>  <RMSD>
5.639

$$$$
2fcz_lig
 OpenBabel11021811433D
libRbt.so/2013.1/901 2013/11/27
 31 33  0  0  0  0  0  0  0  0999 V2000
   11.7415   10.1053   32.2738 C   0  0  0  0  0  0  0  0  0  0  0  0
   16.4433   15.4936   33.3825 N   0  0  0  0  0  0  0  0  0  0  0  0
   11.0201   10.8893   31.3196 O   0  0  0  0  0  0  0  0  0  0  0  0
   12.2474   11.0077   33.4044 C   0  0  1  0  0  0  0  0  0  0  0  0
   12.6966   18.6110   33.8204 N   0  0  0  0  0  0  0  0  0  0  0  0
   12.8890   12.1938   32.8934 O   0  0  0  0  0  0  0  0  0  0  0  0
   12.0486   13.3397   33.1350 C   0  0  1  0  0  0  0  0  0  0  0  0
    8.6931   21.0782   33.8986 N   0  0  0  0  0  0  0  0  0  0  0  0
   11.9425   14.2000   31.9879 O   0  0  0  0  0  0  0  0  0  0  0  0
   12.8983   15.2737   31.9642 C   0  0  2  0  0  0  0  0  0  0  0  0
    8.9963   15.8071   30.9593 N   0  0  0  0  0  0  0  0  0  0  0  0
   14.7882   13.7663   31.8672 O   0  0  0  0  0  0  0  0  0  0  0  0
   14.1934   14.8101   32.6424 C   0  0  1  0  0  0  0  0  0  0  0  0
   11.2490   17.1020   31.9299 O   0  0  0  0  0  0  0  0  0  0  0  0
   15.1924   15.9625   32.7705 C   0  0  1  0  0  0  0  0  0  0  0  0
    9.9694   18.5510   33.2848 O   0  0  0  0  0  0  0  0  0  0  0  0
   14.5946   17.0843   33.6224 C   0  0  0  0  0  0  0  0  0  0  0  0
    8.7948   20.6403   30.4878 O   0  0  0  0  0  0  0  0  0  0  0  0
   13.3222   17.6031   32.9496 C   0  0  1  0  0  0  0  0  0  0  0  0
    7.6526   18.0811   29.8557 O   0  0  0  0  0  0  0  0  0  0  0  0
   12.3075   16.4865   32.6806 C   0  0  2  0  0  0  0  0  0  0  0  0
    9.8434   13.6258   34.2166 O   0  0  0  0  0  0  0  0  0  0  0  0
   10.0258   17.2527   32.6650 C   0  0  1  0  0  0  0  0  0  0  0  0
   11.5216   11.8684   35.5747 O   0  0  0  0  0  0  0  0  0  0  0  0
    9.9884   19.6535   32.3616 C   0  0  2  0  0  0  0  0  0  0  0  0
    9.9572   20.9609   33.1572 C   0  0  0  0  0  0  0  0  0  0  0  0
    8.7718   19.5665   31.4333 C   0  0  2  0  0  0  0  0  0  0  0  0
    8.8078   18.2309   30.6874 C   0  0  1  0  0  0  0  0  0  0  0  0
    8.8582   17.0751   31.6891 C   0  0  1  0  0  0  0  0  0  0  0  0
   10.6792   12.7424   33.4626 C   0  0  2  0  0  0  0  0  0  0  0  0
   11.0843   11.5057   34.2624 C   0  0  1  0  0  0  0  0  0  0  0  0
  3  1  1  0  0  0  0
  4  1  1  6  0  0  0
  4  6  1  0  0  0  0
  4 31  1  0  0  0  0
  6  7  1  0  0  0  0
  7  9  1  6  0  0  0
  7 30  1  0  0  0  0
 10  9  1  1  0  0  0
 10 13  1  0  0  0  0
 10 21  1  0  0  0  0
 13 12  1  6  0  0  0
 13 15  1  0  0  0  0
 15  2  1  1  0  0  0
 15 17  1  0  0  0  0
 16 25  1  0  0  0  0
 17 19  1  0  0  0  0
 19  5  1  1  0  0  0
 19 21  1  0  0  0  0
 21 14  1  6  0  0  0
 23 14  1  6  0  0  0
 23 16  1  0  0  0  0
 23 29  1  0  0  0  0
 25 26  1  1  0  0  0
 25 27  1  0  0  0  0
 26  8  1  0  0  0  0
 27 18  1  6  0  0  0
 27 28  1  0  0  0  0
 28 20  1  1  0  0  0
 28 29  1  0  0  0  0
 29 11  1  6  0  0  0
 30 22  1  1  0  0  0
 30 31  1  0  0  0  0
 31 24  1  1  0  0  0
M  END
>  <CHROM.1>
-47.86850462,-93.07496082,31.91881358,126.18534385,93.27365259,-64.27208133
11.37287703,15.79397019,32.59029948,1.15121484,0.24215331,3.09235700

>  <Name>
2fcz_lig

>  <RI>
0

>  <Rbt.Current_Directory>
/home/itssahil/PROJECTS/Mol_Feturizer/New_Systems/rnas/2fcz

>  <Rbt.Executable>
rbdock ($Id: //depot/dev/client3/rdock/2013.1/src/exe/rbdock.cxx#4 $)

>  <Rbt.Library>
libRbt.so (2013.1, Build901 2013/11/27)

>  <Rbt.Parameter_File>
/export/apps/rDock/src/rDock_2013.1_src/data/scripts/dock_solv.prm

>  <Rbt.Receptor>
prm/blind_docking_40.prm

>  <SCORE>
9.90489

>  <SCORE.INTER>
-8.47093

>  <SCORE.INTER.CONST>
1

>  <SCORE.INTER.POLAR>
-0.774392

>  <SCORE.INTER.ROT>
6

>  <SCORE.INTER.SOLV>
22.3541

>  <SCORE.INTER.VDW>
-18.1174

>  <SCORE.INTER.norm>
-0.273256

>  <SCORE.INTRA>
8.40894

>  <SCORE.INTRA.DIHEDRAL>
8.32972

>  <SCORE.INTRA.DIHEDRAL.0>
10.8409

>  <SCORE.INTRA.POLAR>
0

>  <SCORE.INTRA.POLAR.0>
0

>  <SCORE.INTRA.REPUL>
0

>  <SCORE.INTRA.REPUL.0>
0

>  <SCORE.INTRA.SOLV>
1.93659

>  <SCORE.INTRA.SOLV.lig_0>
-80.8302

>  <SCORE.INTRA.VDW>
3.27578

>  <SCORE.INTRA.VDW.0>
-4.23953

>  <SCORE.INTRA.norm>
0.271256

>  <SCORE.RESTR>
9.96689

>  <SCORE.RESTR.CAVITY>
9.96689

>  <SCORE.RESTR.norm>
0.321512

>  <SCORE.SYSTEM>
0

>  <SCORE.SYSTEM.CONST>
0

>  <SCORE.SYSTEM.DIHEDRAL>
0

>  <SCORE.SYSTEM.SOLV>
0

>  <SCORE.SYSTEM.norm>
0

>  <SCORE.heavy>
31

>  <SCORE.norm>
0.319513

>  <RMSD>
5.641

$$$$
2fcz_lig
 OpenBabel11021811433D
libRbt.so/2013.1/901 2013/11/27
 31 33  0  0  0  0  0  0  0  0999 V2000
   11.5558   21.0794   36.6010 C   0  0  0  0  0  0  0  0  0  0  0  0
    9.6885   15.5168   33.0321 N   0  0  0  0  0  0  0  0  0  0  0  0
   12.6662   21.8034   37.1378 O   0  0  0  0  0  0  0  0  0  0  0  0
   11.7194   20.9362   35.0840 C   0  0  1  0  0  0  0  0  0  0  0  0
    8.2679   18.5812   29.4912 N   0  0  0  0  0  0  0  0  0  0  0  0
   10.8052   19.9633   34.5387 O   0  0  0  0  0  0  0  0  0  0  0  0
    9.7783   20.6359   33.7831 C   0  0  1  0  0  0  0  0  0  0  0  0
    6.5119   21.4966   26.5498 N   0  0  0  0  0  0  0  0  0  0  0  0
    8.4621   20.1319   34.0673 O   0  0  0  0  0  0  0  0  0  0  0  0
    8.0894   18.9814   33.2900 C   0  0  2  0  0  0  0  0  0  0  0  0
    6.7143   22.7911   32.4431 N   0  0  0  0  0  0  0  0  0  0  0  0
    8.8882   17.4270   34.9633 O   0  0  0  0  0  0  0  0  0  0  0  0
    9.0532   17.8296   33.6014 C   0  0  1  0  0  0  0  0  0  0  0  0
    7.0629   20.2314   31.4333 O   0  0  0  0  0  0  0  0  0  0  0  0
    8.7868   16.6265   32.6936 C   0  0  1  0  0  0  0  0  0  0  0  0
    7.3093   21.0171   29.2209 O   0  0  0  0  0  0  0  0  0  0  0  0
    8.9860   17.0193   31.2281 C   0  0  0  0  0  0  0  0  0  0  0  0
    3.7312   21.7534   28.7489 O   0  0  0  0  0  0  0  0  0  0  0  0
    8.0057   18.1379   30.8696 C   0  0  1  0  0  0  0  0  0  0  0  0
    4.4469   23.5532   30.8706 O   0  0  0  0  0  0  0  0  0  0  0  0
    8.1288   19.3442   31.8068 C   0  0  2  0  0  0  0  0  0  0  0  0
    9.3349   23.0139   33.2700 O   0  0  0  0  0  0  0  0  0  0  0  0
    7.4826   21.3329   30.6149 C   0  0  1  0  0  0  0  0  0  0  0  0
   12.0276   22.3289   33.0984 O   0  0  0  0  0  0  0  0  0  0  0  0
    5.9486   20.7606   28.8324 C   0  0  2  0  0  0  0  0  0  0  0  0
    5.9210   20.4090   27.3429 C   0  0  0  0  0  0  0  0  0  0  0  0
    5.0950   22.0050   29.1012 C   0  0  2  0  0  0  0  0  0  0  0  0
    5.1799   22.3568   30.5880 C   0  0  1  0  0  0  0  0  0  0  0  0
    6.6418   22.5561   30.9943 C   0  0  1  0  0  0  0  0  0  0  0  0
    9.8796   22.0970   34.2239 C   0  0  2  0  0  0  0  0  0  0  0  0
   11.3916   22.2512   34.3768 C   0  0  1  0  0  0  0  0  0  0  0  0
  3  1  1  0  0  0  0
  4  1  1  1  0  0  0
  4  6  1  0  0  0  0
  4 31  1  0  0  0  0
  6  7  1  0  0  0  0
  7  9  1  1  0  0  0
  7 30  1  0  0  0  0
 10  9  1  1  0  0  0
 10 13  1  0  0  0  0
 10 21  1  0  0  0  0
 13 12  1  1  0  0  0
 13 15  1  0  0  0  0
 15  2  1  1  0  0  0
 15 17  1  0  0  0  0
 16 25  1  0  0  0  0
 17 19  1  0  0  0  0
 19  5  1  6  0  0  0
 19 21  1  0  0  0  0
 21 14  1  6  0  0  0
 23 14  1  1  0  0  0
 23 16  1  0  0  0  0
 23 29  1  0  0  0  0
 25 26  1  6  0  0  0
 25 27  1  0  0  0  0
 26  8  1  0  0  0  0
 27 18  1  1  0  0  0
 27 28  1  0  0  0  0
 28 20  1  6  0  0  0
 28 29  1  0  0  0  0
 29 11  1  1  0  0  0
 30 22  1  6  0  0  0
 30 31  1  0  0  0  0
 31 24  1  6  0  0  0
M  END
>  <CHROM.1>
166.63846705,-85.66726880,61.80313007,134.21020741,94.30521706,-57.42511677
8.31848263,20.48188417,32.08940622,-0.00786678,-0.85778575,0.17084343

>  <Name>
2fcz_lig

>  <RI>
0

>  <Rbt.Current_Directory>
/home/itssahil/PROJECTS/Mol_Feturizer/New_Systems/rnas/2fcz

>  <Rbt.Executable>
rbdock ($Id: //depot/dev/client3/rdock/2013.1/src/exe/rbdock.cxx#4 $)

>  <Rbt.Library>
libRbt.so (2013.1, Build901 2013/11/27)

>  <Rbt.Parameter_File>
/export/apps/rDock/src/rDock_2013.1_src/data/scripts/dock_solv.prm

>  <Rbt.Receptor>
prm/pocket_docking_5.prm

>  <SCORE>
-10.8406

>  <SCORE.INTER>
-15.229

>  <SCORE.INTER.CONST>
1

>  <SCORE.INTER.POLAR>
-0.752674

>  <SCORE.INTER.ROT>
6

>  <SCORE.INTER.SOLV>
17.9297

>  <SCORE.INTER.VDW>
-21.2203

>  <SCORE.INTER.norm>
-0.491257

>  <SCORE.INTRA>
4.38834

>  <SCORE.INTRA.DIHEDRAL>
3.23351

>  <SCORE.INTRA.DIHEDRAL.0>
10.8409

>  <SCORE.INTRA.POLAR>
0

>  <SCORE.INTRA.POLAR.0>
0

>  <SCORE.INTRA.REPUL>
0

>  <SCORE.INTRA.REPUL.0>
0

>  <SCORE.INTRA.SOLV>
2.72884

>  <SCORE.INTRA.SOLV.lig_0>
-80.8302

>  <SCORE.INTRA.VDW>
1.40717

>  <SCORE.INTRA.VDW.0>
-4.23953

>  <SCORE.INTRA.norm>
0.14156

>  <SCORE.RESTR>
0

>  <SCORE.RESTR.CAVITY>
0

>  <SCORE.RESTR.norm>
0

>  <SCORE.SYSTEM>
0

>  <SCORE.SYSTEM.CONST>
0

>  <SCORE.SYSTEM.DIHEDRAL>
0

>  <SCORE.SYSTEM.SOLV>
0

>  <SCORE.SYSTEM.norm>
0

>  <SCORE.heavy>
31

>  <SCORE.norm>
-0.349698

>  <RMSD>
5.644

$$$$
2fcz_lig
 OpenBabel11021811433D
libRbt.so/2013.1/901 2013/11/27
 31 33  0  0  0  0  0  0  0  0999 V2000
    9.6447   11.1203   33.4927 C   0  0  0  0  0  0  0  0  0  0  0  0
   16.3851   15.5308   33.3354 N   0  0  0  0  0  0  0  0  0  0  0  0
    9.1832   10.4398   32.3224 O   0  0  0  0  0  0  0  0  0  0  0  0
   11.1758   11.0779   33.5427 C   0  0  1  0  0  0  0  0  0  0  0  0
   12.3876   18.3189   33.7753 N   0  0  0  0  0  0  0  0  0  0  0  0
   11.7641   11.6550   32.3593 O   0  0  0  0  0  0  0  0  0  0  0  0
   12.3645   12.9236   32.6878 C   0  0  1  0  0  0  0  0  0  0  0  0
   10.6167   21.9036   32.0287 N   0  0  0  0  0  0  0  0  0  0  0  0
   12.0491   13.9496   31.7313 O   0  0  0  0  0  0  0  0  0  0  0  0
   12.9155   15.0956   31.7867 C   0  0  2  0  0  0  0  0  0  0  0  0
    8.6919   15.7587   30.9304 N   0  0  0  0  0  0  0  0  0  0  0  0
   14.9229   13.7483   31.6912 O   0  0  0  0  0  0  0  0  0  0  0  0
   14.2219   14.7056   32.4890 C   0  0  1  0  0  0  0  0  0  0  0  0
   11.1261   16.7872   31.7729 O   0  0  0  0  0  0  0  0  0  0  0  0
   15.1203   15.9264   32.7008 C   0  0  1  0  0  0  0  0  0  0  0  0
   10.0936   18.4057   33.1467 O   0  0  0  0  0  0  0  0  0  0  0  0
   14.4077   16.9577   33.5786 C   0  0  0  0  0  0  0  0  0  0  0  0
    9.0545   20.5711   30.3540 O   0  0  0  0  0  0  0  0  0  0  0  0
   13.1193   17.4042   32.8846 C   0  0  1  0  0  0  0  0  0  0  0  0
    7.5842   18.1588   29.8318 O   0  0  0  0  0  0  0  0  0  0  0  0
   12.2068   16.2241   32.5331 C   0  0  2  0  0  0  0  0  0  0  0  0
   12.5699   14.2068   34.7916 O   0  0  0  0  0  0  0  0  0  0  0  0
    9.9646   17.0991   32.5559 C   0  0  1  0  0  0  0  0  0  0  0  0
   13.0055   11.4764   35.1146 O   0  0  0  0  0  0  0  0  0  0  0  0
   10.2038   19.4807   32.1979 C   0  0  2  0  0  0  0  0  0  0  0  0
   10.3668   20.7964   32.9630 C   0  0  0  0  0  0  0  0  0  0  0  0
    8.9448   19.5255   31.3247 C   0  0  2  0  0  0  0  0  0  0  0  0
    8.7854   18.1821   30.6097 C   0  0  1  0  0  0  0  0  0  0  0  0
    8.7412   17.0471   31.6353 C   0  0  1  0  0  0  0  0  0  0  0  0
   11.7673   13.2838   34.0491 C   0  0  2  0  0  0  0  0  0  0  0  0
   11.7033   11.9091   34.7121 C   0  0  1  0  0  0  0  0  0  0  0  0
  3  1  1  0  0  0  0
  4  1  1  6  0  0  0
  4  6  1  0  0  0  0
  4 31  1  0  0  0  0
  6  7  1  0  0  0  0
  7  9  1  6  0  0  0
  7 30  1  0  0  0  0
 10  9  1  1  0  0  0
 10 13  1  0  0  0  0
 10 21  1  0  0  0  0
 13 12  1  6  0  0  0
 13 15  1  0  0  0  0
 15  2  1  1  0  0  0
 15 17  1  0  0  0  0
 16 25  1  0  0  0  0
 17 19  1  0  0  0  0
 19  5  1  1  0  0  0
 19 21  1  0  0  0  0
 21 14  1  6  0  0  0
 23 14  1  6  0  0  0
 23 16  1  0  0  0  0
 23 29  1  0  0  0  0
 25 26  1  1  0  0  0
 25 27  1  0  0  0  0
 26  8  1  0  0  0  0
 27 18  1  6  0  0  0
 27 28  1  0  0  0  0
 28 20  1  1  0  0  0
 28 29  1  0  0  0  0
 29 11  1  6  0  0  0
 30 22  1  1  0  0  0
 30 31  1  0  0  0  0
 31 24  1  6  0  0  0
M  END
>  <CHROM.1>
57.23240339,-162.64517852,20.24125685,140.09477334,85.30678146,174.38193308
11.43804537,15.75995656,32.53546568,1.21950815,0.29088286,3.00289790

>  <Name>
2fcz_lig

>  <RI>
0

>  <Rbt.Current_Directory>
/home/itssahil/PROJECTS/Mol_Feturizer/New_Systems/rnas/2fcz

>  <Rbt.Executable>
rbdock ($Id: //depot/dev/client3/rdock/2013.1/src/exe/rbdock.cxx#4 $)

>  <Rbt.Library>
libRbt.so (2013.1, Build901 2013/11/27)

>  <Rbt.Parameter_File>
/export/apps/rDock/src/rDock_2013.1_src/data/scripts/dock_solv.prm

>  <Rbt.Receptor>
prm/blind_docking_40.prm

>  <SCORE>
13.0926

>  <SCORE.INTER>
-4.88603

>  <SCORE.INTER.CONST>
1

>  <SCORE.INTER.POLAR>
0

>  <SCORE.INTER.ROT>
6

>  <SCORE.INTER.SOLV>
24.0068

>  <SCORE.INTER.VDW>
-18.8596

>  <SCORE.INTER.norm>
-0.157614

>  <SCORE.INTRA>
9.09228

>  <SCORE.INTRA.DIHEDRAL>
4.16759

>  <SCORE.INTRA.DIHEDRAL.0>
10.8409

>  <SCORE.INTRA.POLAR>
0

>  <SCORE.INTRA.POLAR.0>
0

>  <SCORE.INTRA.REPUL>
0

>  <SCORE.INTRA.REPUL.0>
0

>  <SCORE.INTRA.SOLV>
1.69957

>  <SCORE.INTRA.SOLV.lig_0>
-80.8302

>  <SCORE.INTRA.VDW>
6.1587

>  <SCORE.INTRA.VDW.0>
-4.23953

>  <SCORE.INTRA.norm>
0.293299

>  <SCORE.RESTR>
8.8864

>  <SCORE.RESTR.CAVITY>
8.8864

>  <SCORE.RESTR.norm>
0.286658

>  <SCORE.SYSTEM>
0

>  <SCORE.SYSTEM.CONST>
0

>  <SCORE.SYSTEM.DIHEDRAL>
0

>  <SCORE.SYSTEM.SOLV>
0

>  <SCORE.SYSTEM.norm>
0

>  <SCORE.heavy>
31

>  <SCORE.norm>
0.422343

>  <RMSD>
5.649

$$$$
2fcz_lig
 OpenBabel11021811433D
libRbt.so/2013.1/901 2013/11/27
 31 33  0  0  0  0  0  0  0  0999 V2000
   12.5281   10.1723   33.5602 C   0  0  0  0  0  0  0  0  0  0  0  0
   16.4543   15.3419   33.3264 N   0  0  0  0  0  0  0  0  0  0  0  0
   11.8765   10.4684   32.3219 O   0  0  0  0  0  0  0  0  0  0  0  0
   12.4500   11.3901   34.4872 C   0  0  1  0  0  0  0  0  0  0  0  0
   12.7802   18.5666   33.5485 N   0  0  0  0  0  0  0  0  0  0  0  0
   12.9351   12.5844   33.8406 O   0  0  0  0  0  0  0  0  0  0  0  0
   11.8274   13.4595   33.5489 C   0  0  1  0  0  0  0  0  0  0  0  0
   10.4613   22.0028   31.9068 N   0  0  0  0  0  0  0  0  0  0  0  0
   11.8871   14.0038   32.2195 O   0  0  0  0  0  0  0  0  0  0  0  0
   12.8604   15.0486   32.0518 C   0  0  2  0  0  0  0  0  0  0  0  0
    8.8585   15.7374   31.0634 N   0  0  0  0  0  0  0  0  0  0  0  0
   14.7190   13.4996   32.0560 O   0  0  0  0  0  0  0  0  0  0  0  0
   14.1691   14.6317   32.7343 C   0  0  1  0  0  0  0  0  0  0  0  0
   11.2435   16.8974   31.8754 O   0  0  0  0  0  0  0  0  0  0  0  0
   15.1920   15.7699   32.7078 C   0  0  1  0  0  0  0  0  0  0  0  0
   10.1372   18.5296   33.1734 O   0  0  0  0  0  0  0  0  0  0  0  0
   14.6431   16.9877   33.4542 C   0  0  0  0  0  0  0  0  0  0  0  0
    9.0332   20.5318   30.2855 O   0  0  0  0  0  0  0  0  0  0  0  0
   13.3583   17.4594   32.7704 C   0  0  1  0  0  0  0  0  0  0  0  0
    7.6641   18.0427   29.8577 O   0  0  0  0  0  0  0  0  0  0  0  0
   12.3155   16.3424   32.6536 C   0  0  2  0  0  0  0  0  0  0  0  0
    9.3920   13.3007   33.9467 O   0  0  0  0  0  0  0  0  0  0  0  0
   10.0647   17.1951   32.6378 C   0  0  1  0  0  0  0  0  0  0  0  0
   10.9237   12.4179   36.0970 O   0  0  0  0  0  0  0  0  0  0  0  0
   10.2114   19.5672   32.1805 C   0  0  2  0  0  0  0  0  0  0  0  0
   10.3161   20.9195   32.8900 C   0  0  0  0  0  0  0  0  0  0  0  0
    8.9581   19.5246   31.2990 C   0  0  2  0  0  0  0  0  0  0  0  0
    8.8577   18.1469   30.6407 C   0  0  1  0  0  0  0  0  0  0  0  0
    8.8512   17.0553   31.7133 C   0  0  1  0  0  0  0  0  0  0  0  0
   10.5931   12.5671   33.6881 C   0  0  2  0  0  0  0  0  0  0  0  0
   11.0003   11.6886   34.8694 C   0  0  1  0  0  0  0  0  0  0  0  0
  3  1  1  0  0  0  0
  4  1  1  6  0  0  0
  4  6  1  0  0  0  0
  4 31  1  0  0  0  0
  6  7  1  0  0  0  0
  7  9  1  6  0  0  0
  7 30  1  0  0  0  0
 10  9  1  1  0  0  0
 10 13  1  0  0  0  0
 10 21  1  0  0  0  0
 13 12  1  6  0  0  0
 13 15  1  0  0  0  0
 15  2  1  1  0  0  0
 15 17  1  0  0  0  0
 16 25  1  0  0  0  0
 17 19  1  0  0  0  0
 19  5  1  1  0  0  0
 19 21  1  0  0  0  0
 21 14  1  6  0  0  0
 23 14  1  6  0  0  0
 23 16  1  0  0  0  0
 23 29  1  0  0  0  0
 25 26  1  1  0  0  0
 25 27  1  0  0  0  0
 26  8  1  0  0  0  0
 27 18  1  6  0  0  0
 27 28  1  0  0  0  0
 28 20  1  1  0  0  0
 28 29  1  0  0  0  0
 29 11  1  6  0  0  0
 30 22  1  1  0  0  0
 30 31  1  0  0  0  0
 31 24  1  1  0  0  0
M  END
>  <CHROM.1>
-52.67311973,-75.29105675,44.53346779,128.28940220,88.51292244,177.20387308
11.47928961,15.76974370,32.68431974,1.20741485,0.17526035,2.92553187

>  <Name>
2fcz_lig

>  <RI>
0

>  <Rbt.Current_Directory>
/home/itssahil/PROJECTS/Mol_Feturizer/New_Systems/rnas/2fcz

>  <Rbt.Executable>
rbdock ($Id: //depot/dev/client3/rdock/2013.1/src/exe/rbdock.cxx#4 $)

>  <Rbt.Library>
libRbt.so (2013.1, Build901 2013/11/27)

>  <Rbt.Parameter_File>
/export/apps/rDock/src/rDock_2013.1_src/data/scripts/dock_solv.prm

>  <Rbt.Receptor>
prm/blind_docking_40.prm

>  <SCORE>
10.2727

>  <SCORE.INTER>
-4.15286

>  <SCORE.INTER.CONST>
1

>  <SCORE.INTER.POLAR>
0

>  <SCORE.INTER.ROT>
6

>  <SCORE.INTER.SOLV>
20.6108

>  <SCORE.INTER.VDW>
-17.2388

>  <SCORE.INTER.norm>
-0.133963

>  <SCORE.INTRA>
5.22857

>  <SCORE.INTRA.DIHEDRAL>
1.77969

>  <SCORE.INTRA.DIHEDRAL.0>
10.8409

>  <SCORE.INTRA.POLAR>
0

>  <SCORE.INTRA.POLAR.0>
0

>  <SCORE.INTRA.REPUL>
0

>  <SCORE.INTRA.REPUL.0>
0

>  <SCORE.INTRA.SOLV>
1.86168

>  <SCORE.INTRA.SOLV.lig_0>
-80.8302

>  <SCORE.INTRA.VDW>
3.40788

>  <SCORE.INTRA.VDW.0>
-4.23953

>  <SCORE.INTRA.norm>
0.168664

>  <SCORE.RESTR>
9.19696

>  <SCORE.RESTR.CAVITY>
9.19696

>  <SCORE.RESTR.norm>
0.296676

>  <SCORE.SYSTEM>
0

>  <SCORE.SYSTEM.CONST>
0

>  <SCORE.SYSTEM.DIHEDRAL>
0

>  <SCORE.SYSTEM.SOLV>
0

>  <SCORE.SYSTEM.norm>
0

>  <SCORE.heavy>
31

>  <SCORE.norm>
0.331376

>  <RMSD>
5.649

$$$$
2fcz_lig
 OpenBabel11021811433D
libRbt.so/2013.1/901 2013/11/27
 31 33  0  0  0  0  0  0  0  0999 V2000
   15.7294   18.0824   32.9635 C   0  0  0  0  0  0  0  0  0  0  0  0
   17.0598   24.9985   38.0369 N   0  0  0  0  0  0  0  0  0  0  0  0
   14.4480   18.6331   33.2800 O   0  0  0  0  0  0  0  0  0  0  0  0
   16.7719   18.5974   33.9618 C   0  0  1  0  0  0  0  0  0  0  0  0
   13.8615   25.9917   34.4687 N   0  0  0  0  0  0  0  0  0  0  0  0
   16.7152   20.0318   34.0995 O   0  0  0  0  0  0  0  0  0  0  0  0
   16.1612   20.3719   35.3860 C   0  0  1  0  0  0  0  0  0  0  0  0
    9.3278   23.1103   32.4293 N   0  0  0  0  0  0  0  0  0  0  0  0
   15.1730   21.4132   35.3055 O   0  0  0  0  0  0  0  0  0  0  0  0
   15.7182   22.7425   35.2552 C   0  0  2  0  0  0  0  0  0  0  0  0
   15.6511   22.3685   31.0766 N   0  0  0  0  0  0  0  0  0  0  0  0
   17.2341   22.3334   37.0960 O   0  0  0  0  0  0  0  0  0  0  0  0
   16.1520   23.1625   36.6651 C   0  0  1  0  0  0  0  0  0  0  0  0
   14.4253   23.4903   33.2974 O   0  0  0  0  0  0  0  0  0  0  0  0
   16.6072   24.6235   36.6901 C   0  0  1  0  0  0  0  0  0  0  0  0
   12.7119   21.8665   33.3110 O   0  0  0  0  0  0  0  0  0  0  0  0
   15.4585   25.5395   36.2624 C   0  0  0  0  0  0  0  0  0  0  0  0
   10.9220   23.2748   30.4160 O   0  0  0  0  0  0  0  0  0  0  0  0
   15.0302   25.1777   34.8389 C   0  0  1  0  0  0  0  0  0  0  0  0
   13.4417   22.5175   29.2625 O   0  0  0  0  0  0  0  0  0  0  0  0
   14.6629   23.6964   34.6988 C   0  0  2  0  0  0  0  0  0  0  0  0
   15.3525   19.0216   37.2933 O   0  0  0  0  0  0  0  0  0  0  0  0
   14.0809   22.1391   32.9582 C   0  0  1  0  0  0  0  0  0  0  0  0
   17.6946   18.0371   36.1554 O   0  0  0  0  0  0  0  0  0  0  0  0
   11.7459   22.6814   32.6248 C   0  0  2  0  0  0  0  0  0  0  0  0
   10.3468   22.3068   33.1201 C   0  0  0  0  0  0  0  0  0  0  0  0
   11.8563   22.4459   31.1142 C   0  0  2  0  0  0  0  0  0  0  0  0
   13.2771   22.7855   30.6588 C   0  0  1  0  0  0  0  0  0  0  0  0
   14.2910   21.9575   31.4516 C   0  0  1  0  0  0  0  0  0  0  0  0
   15.5095   19.0763   35.8721 C   0  0  2  0  0  0  0  0  0  0  0  0
   16.5065   18.0386   35.3596 C   0  0  1  0  0  0  0  0  0  0  0  0
  3  1  1  0  0  0  0
  4  1  1  6  0  0  0
  4  6  1  0  0  0  0
  4 31  1  0  0  0  0
  6  7  1  0  0  0  0
  7  9  1  6  0  0  0
  7 30  1  0  0  0  0
 10  9  1  1  0  0  0
 10 13  1  0  0  0  0
 10 21  1  0  0  0  0
 13 12  1  6  0  0  0
 13 15  1  0  0  0  0
 15  2  1  1  0  0  0
 15 17  1  0  0  0  0
 16 25  1  0  0  0  0
 17 19  1  0  0  0  0
 19  5  1  1  0  0  0
 19 21  1  0  0  0  0
 21 14  1  6  0  0  0
 23 14  1  6  0  0  0
 23 16  1  0  0  0  0
 23 29  1  0  0  0  0
 25 26  1  1  0  0  0
 25 27  1  0  0  0  0
 26  8  1  0  0  0  0
 27 18  1  6  0  0  0
 27 28  1  0  0  0  0
 28 20  1  6  0  0  0
 28 29  1  0  0  0  0
 29 11  1  6  0  0  0
 30 22  1  1  0  0  0
 30 31  1  0  0  0  0
 31 24  1  1  0  0  0
M  END
>  <CHROM.1>
-49.91261145,-82.00571860,-77.76335269,54.56617716,76.78273808,-179.37688901
14.64267906,21.91137620,34.03920939,0.09173287,0.84593969,-2.77152251

>  <Name>
2fcz_lig

>  <RI>
0

>  <Rbt.Current_Directory>
/home/itssahil/PROJECTS/Mol_Feturizer/New_Systems/rnas/2fcz

>  <Rbt.Executable>
rbdock ($Id: //depot/dev/client3/rdock/2013.1/src/exe/rbdock.cxx#4 $)

>  <Rbt.Library>
libRbt.so (2013.1, Build901 2013/11/27)

>  <Rbt.Parameter_File>
/export/apps/rDock/src/rDock_2013.1_src/data/scripts/dock_solv.prm

>  <Rbt.Receptor>
prm/blind_docking_80.prm

>  <SCORE>
-16.2457

>  <SCORE.INTER>
-15.0284

>  <SCORE.INTER.CONST>
1

>  <SCORE.INTER.POLAR>
-1.40088

>  <SCORE.INTER.ROT>
6

>  <SCORE.INTER.SOLV>
18.2326

>  <SCORE.INTER.VDW>
-19.0269

>  <SCORE.INTER.norm>
-0.484788

>  <SCORE.INTRA>
-1.21726

>  <SCORE.INTRA.DIHEDRAL>
-5.32829

>  <SCORE.INTRA.DIHEDRAL.0>
10.8409

>  <SCORE.INTRA.POLAR>
0

>  <SCORE.INTRA.POLAR.0>
0

>  <SCORE.INTRA.REPUL>
0

>  <SCORE.INTRA.REPUL.0>
0

>  <SCORE.INTRA.SOLV>
-1.619

>  <SCORE.INTRA.SOLV.lig_0>
-80.8302

>  <SCORE.INTRA.VDW>
2.25638

>  <SCORE.INTRA.VDW.0>
-4.23953

>  <SCORE.INTRA.norm>
-0.0392666

>  <SCORE.RESTR>
0

>  <SCORE.RESTR.CAVITY>
0

>  <SCORE.RESTR.norm>
0

>  <SCORE.SYSTEM>
0

>  <SCORE.SYSTEM.CONST>
0

>  <SCORE.SYSTEM.DIHEDRAL>
0

>  <SCORE.SYSTEM.SOLV>
0

>  <SCORE.SYSTEM.norm>
0

>  <SCORE.heavy>
31

>  <SCORE.norm>
-0.524055

>  <RMSD>
5.652

$$$$
2fcz_lig
 OpenBabel11021811433D
libRbt.so/2013.1/901 2013/11/27
 31 33  0  0  0  0  0  0  0  0999 V2000
    8.8877   18.8838   30.6525 C   0  0  0  0  0  0  0  0  0  0  0  0
   14.1347   23.6737   34.5329 N   0  0  0  0  0  0  0  0  0  0  0  0
    7.7368   19.2158   29.8710 O   0  0  0  0  0  0  0  0  0  0  0  0
    8.4988   18.8007   32.1324 C   0  0  1  0  0  0  0  0  0  0  0  0
   14.7865   19.6783   37.2824 N   0  0  0  0  0  0  0  0  0  0  0  0
    9.6108   18.3904   32.9538 O   0  0  0  0  0  0  0  0  0  0  0  0
   10.0738   19.5103   33.7342 C   0  0  1  0  0  0  0  0  0  0  0  0
    7.3148   18.9593   37.4668 N   0  0  0  0  0  0  0  0  0  0  0  0
   11.5063   19.6338   33.7296 O   0  0  0  0  0  0  0  0  0  0  0  0
   12.0289   20.4893   34.7601 C   0  0  2  0  0  0  0  0  0  0  0  0
   13.1061   18.5016   39.1052 N   0  0  0  0  0  0  0  0  0  0  0  0
   11.8357   22.4761   33.3931 O   0  0  0  0  0  0  0  0  0  0  0  0
   12.7691   21.6652   34.1110 C   0  0  1  0  0  0  0  0  0  0  0  0
   12.2543   18.7375   36.4761 O   0  0  0  0  0  0  0  0  0  0  0  0
   13.4663   22.5281   35.1654 C   0  0  1  0  0  0  0  0  0  0  0  0
   10.0561   19.3065   37.1218 O   0  0  0  0  0  0  0  0  0  0  0  0
   14.4954   21.6936   35.9310 C   0  0  0  0  0  0  0  0  0  0  0  0
    9.1285   15.8860   38.1253 O   0  0  0  0  0  0  0  0  0  0  0  0
   13.7827   20.5346   36.6307 C   0  0  1  0  0  0  0  0  0  0  0  0
   11.2426   16.5074   39.9686 O   0  0  0  0  0  0  0  0  0  0  0  0
   12.9638   19.6801   35.6570 C   0  0  2  0  0  0  0  0  0  0  0  0
    9.3406   21.8645   33.9206 O   0  0  0  0  0  0  0  0  0  0  0  0
   11.4462   19.3446   37.4948 C   0  0  1  0  0  0  0  0  0  0  0  0
    7.2289   20.0544   33.8037 O   0  0  0  0  0  0  0  0  0  0  0  0
    9.5188   17.9827   36.9586 C   0  0  2  0  0  0  0  0  0  0  0  0
    8.0529   18.0966   36.5329 C   0  0  0  0  0  0  0  0  0  0  0  0
    9.6305   17.2167   38.2816 C   0  0  2  0  0  0  0  0  0  0  0  0
   11.1006   17.1598   38.7026 C   0  0  1  0  0  0  0  0  0  0  0  0
   11.6702   18.5767   38.8015 C   0  0  1  0  0  0  0  0  0  0  0  0
    9.4470   20.7295   33.0559 C   0  0  2  0  0  0  0  0  0  0  0  0
    8.0805   20.1727   32.6610 C   0  0  1  0  0  0  0  0  0  0  0  0
  3  1  1  0  0  0  0
  4  1  1  6  0  0  0
  4  6  1  0  0  0  0
  4 31  1  0  0  0  0
  6  7  1  0  0  0  0
  7  9  1  6  0  0  0
  7 30  1  0  0  0  0
 10  9  1  6  0  0  0
 10 13  1  0  0  0  0
 10 21  1  0  0  0  0
 13 12  1  1  0  0  0
 13 15  1  0  0  0  0
 15  2  1  6  0  0  0
 15 17  1  0  0  0  0
 16 25  1  0  0  0  0
 17 19  1  0  0  0  0
 19  5  1  6  0  0  0
 19 21  1  0  0  0  0
 21 14  1  1  0  0  0
 23 14  1  6  0  0  0
 23 16  1  0  0  0  0
 23 29  1  0  0  0  0
 25 26  1  1  0  0  0
 25 27  1  0  0  0  0
 26  8  1  0  0  0  0
 27 18  1  6  0  0  0
 27 28  1  0  0  0  0
 28 20  1  1  0  0  0
 28 29  1  0  0  0  0
 29 11  1  6  0  0  0
 30 22  1  1  0  0  0
 30 31  1  0  0  0  0
 31 24  1  1  0  0  0
M  END
>  <CHROM.1>
176.58680815,-164.04605121,-118.66853899,-68.77832369,103.85632235,-52.84126923
10.76872726,19.52977568,35.42449768,2.04408996,-0.53133732,-1.03025870

>  <Name>
2fcz_lig

>  <RI>
2.26996e+07

>  <Rbt.Current_Directory>
/home/itssahil/PROJECTS/Mol_Feturizer/New_Systems/rnas/2fcz

>  <Rbt.Executable>
rbdock ($Id: //depot/dev/client3/rdock/2013.1/src/exe/rbdock.cxx#4 $)

>  <Rbt.Library>
libRbt.so (2013.1, Build901 2013/11/27)

>  <Rbt.Parameter_File>
/export/apps/rDock/src/rDock_2013.1_src/data/scripts/dock_solv.prm

>  <Rbt.Receptor>
prm/pocket_docking_4.prm

>  <SCORE>
-16.4322

>  <SCORE.INTER>
-20.8362

>  <SCORE.INTER.CONST>
1

>  <SCORE.INTER.POLAR>
-3.5573

>  <SCORE.INTER.ROT>
6

>  <SCORE.INTER.SOLV>
18.0122

>  <SCORE.INTER.VDW>
-15.6372

>  <SCORE.INTER.norm>
-0.672135

>  <SCORE.INTRA>
4.404

>  <SCORE.INTRA.DIHEDRAL>
4.22729

>  <SCORE.INTRA.DIHEDRAL.0>
10.8409

>  <SCORE.INTRA.POLAR>
0

>  <SCORE.INTRA.POLAR.0>
0

>  <SCORE.INTRA.REPUL>
0

>  <SCORE.INTRA.REPUL.0>
0

>  <SCORE.INTRA.SOLV>
1.95591

>  <SCORE.INTRA.SOLV.lig_0>
-80.8302

>  <SCORE.INTRA.VDW>
1.3124

>  <SCORE.INTRA.VDW.0>
-4.23953

>  <SCORE.INTRA.norm>
0.142064

>  <SCORE.RESTR>
0

>  <SCORE.RESTR.CAVITY>
0

>  <SCORE.RESTR.norm>
0

>  <SCORE.SYSTEM>
0

>  <SCORE.SYSTEM.CONST>
0

>  <SCORE.SYSTEM.DIHEDRAL>
0

>  <SCORE.SYSTEM.SOLV>
0

>  <SCORE.SYSTEM.norm>
0

>  <SCORE.heavy>
31

>  <SCORE.norm>
-0.530071

>  <RMSD>
5.652

$$$$
2fcz_lig
 OpenBabel11021811433D
libRbt.so/2013.1/901 2013/11/27
 31 33  0  0  0  0  0  0  0  0999 V2000
   12.6366   10.2194   33.8039 C   0  0  0  0  0  0  0  0  0  0  0  0
   16.4745   15.3405   33.3492 N   0  0  0  0  0  0  0  0  0  0  0  0
   12.1121   10.4619   32.4956 O   0  0  0  0  0  0  0  0  0  0  0  0
   12.4658   11.4736   34.6677 C   0  0  1  0  0  0  0  0  0  0  0  0
   12.7746   18.5370   33.5499 N   0  0  0  0  0  0  0  0  0  0  0  0
   12.9367   12.6561   33.9898 O   0  0  0  0  0  0  0  0  0  0  0  0
   11.8124   13.4717   33.6043 C   0  0  1  0  0  0  0  0  0  0  0  0
   10.4943   21.9604   31.8996 N   0  0  0  0  0  0  0  0  0  0  0  0
   11.9176   13.9574   32.2551 O   0  0  0  0  0  0  0  0  0  0  0  0
   12.8823   15.0087   32.0791 C   0  0  2  0  0  0  0  0  0  0  0  0
    8.8500   15.7063   31.0908 N   0  0  0  0  0  0  0  0  0  0  0  0
   14.7534   13.4750   32.0935 O   0  0  0  0  0  0  0  0  0  0  0  0
   14.1948   14.6076   32.7638 C   0  0  1  0  0  0  0  0  0  0  0  0
   11.2504   16.8431   31.8902 O   0  0  0  0  0  0  0  0  0  0  0  0
   15.2085   15.7537   32.7282 C   0  0  1  0  0  0  0  0  0  0  0  0
   10.1665   18.4936   33.1840 O   0  0  0  0  0  0  0  0  0  0  0  0
   14.6501   16.9725   33.4660 C   0  0  0  0  0  0  0  0  0  0  0  0
    9.0762   20.4949   30.2902 O   0  0  0  0  0  0  0  0  0  0  0  0
   13.3611   17.4288   32.7796 C   0  0  1  0  0  0  0  0  0  0  0  0
    7.6779   18.0194   29.8781 O   0  0  0  0  0  0  0  0  0  0  0  0
   12.3274   16.3025   32.6717 C   0  0  2  0  0  0  0  0  0  0  0  0
    9.3680   13.2325   33.8912 O   0  0  0  0  0  0  0  0  0  0  0  0
   10.0775   17.1576   32.6548 C   0  0  1  0  0  0  0  0  0  0  0  0
   10.8228   12.5104   36.1520 O   0  0  0  0  0  0  0  0  0  0  0  0
   10.2494   19.5257   32.1860 C   0  0  2  0  0  0  0  0  0  0  0  0
   10.3715   20.8799   32.8890 C   0  0  0  0  0  0  0  0  0  0  0  0
    8.9930   19.4932   31.3086 C   0  0  2  0  0  0  0  0  0  0  0  0
    8.8750   18.1137   30.6570 C   0  0  1  0  0  0  0  0  0  0  0  0
    8.8595   17.0272   31.7346 C   0  0  1  0  0  0  0  0  0  0  0  0
   10.6076   12.5373   33.7256 C   0  0  2  0  0  0  0  0  0  0  0  0
   10.9885   11.7301   34.9652 C   0  0  1  0  0  0  0  0  0  0  0  0
  3  1  1  0  0  0  0
  4  1  1  6  0  0  0
  4  6  1  0  0  0  0
  4 31  1  0  0  0  0
  6  7  1  0  0  0  0
  7  9  1  6  0  0  0
  7 30  1  0  0  0  0
 10  9  1  1  0  0  0
 10 13  1  0  0  0  0
 10 21  1  0  0  0  0
 13 12  1  6  0  0  0
 13 15  1  0  0  0  0
 15  2  1  1  0  0  0
 15 17  1  0  0  0  0
 16 25  1  0  0  0  0
 17 19  1  0  0  0  0
 19  5  1  1  0  0  0
 19 21  1  0  0  0  0
 21 14  1  6  0  0  0
 23 14  1  6  0  0  0
 23 16  1  0  0  0  0
 23 29  1  0  0  0  0
 25 26  1  1  0  0  0
 25 27  1  0  0  0  0
 26  8  1  0  0  0  0
 27 18  1  6  0  0  0
 27 28  1  0  0  0  0
 28 20  1  1  0  0  0
 28 29  1  0  0  0  0
 29 11  1  6  0  0  0
 30 22  1  1  0  0  0
 30 31  1  0  0  0  0
 31 24  1  1  0  0  0
M  END
>  <CHROM.1>
-49.05082572,-73.77439657,47.69975296,129.26609009,87.42716102,178.52186205
11.50151892,15.75500256,32.72610301,1.20303116,0.16432265,2.90790486

>  <Name>
2fcz_lig

>  <RI>
0

>  <Rbt.Current_Directory>
/home/itssahil/PROJECTS/Mol_Feturizer/New_Systems/rnas/2fcz

>  <Rbt.Executable>
rbdock ($Id: //depot/dev/client3/rdock/2013.1/src/exe/rbdock.cxx#4 $)

>  <Rbt.Library>
libRbt.so (2013.1, Build901 2013/11/27)

>  <Rbt.Parameter_File>
/export/apps/rDock/src/rDock_2013.1_src/data/scripts/dock_solv.prm

>  <Rbt.Receptor>
prm/blind_docking_40.prm

>  <SCORE>
10.1233

>  <SCORE.INTER>
-3.92418

>  <SCORE.INTER.CONST>
1

>  <SCORE.INTER.POLAR>
0

>  <SCORE.INTER.ROT>
6

>  <SCORE.INTER.SOLV>
20.6689

>  <SCORE.INTER.VDW>
-17.1058

>  <SCORE.INTER.norm>
-0.126586

>  <SCORE.INTRA>
4.79556

>  <SCORE.INTRA.DIHEDRAL>
1.11816

>  <SCORE.INTRA.DIHEDRAL.0>
10.8409

>  <SCORE.INTRA.POLAR>
0

>  <SCORE.INTRA.POLAR.0>
0

>  <SCORE.INTRA.REPUL>
0

>  <SCORE.INTRA.REPUL.0>
0

>  <SCORE.INTRA.SOLV>
1.98552

>  <SCORE.INTRA.SOLV.lig_0>
-80.8302

>  <SCORE.INTRA.VDW>
3.24372

>  <SCORE.INTRA.VDW.0>
-4.23953

>  <SCORE.INTRA.norm>
0.154695

>  <SCORE.RESTR>
9.25194

>  <SCORE.RESTR.CAVITY>
9.25194

>  <SCORE.RESTR.norm>
0.29845

>  <SCORE.SYSTEM>
0

>  <SCORE.SYSTEM.CONST>
0

>  <SCORE.SYSTEM.DIHEDRAL>
0

>  <SCORE.SYSTEM.SOLV>
0

>  <SCORE.SYSTEM.norm>
0

>  <SCORE.heavy>
31

>  <SCORE.norm>
0.326559

>  <RMSD>
5.654

$$$$
2fcz_lig
 OpenBabel11021811433D
libRbt.so/2013.1/901 2013/11/27
 31 33  0  0  0  0  0  0  0  0999 V2000
   12.1980   23.3675   34.7975 C   0  0  0  0  0  0  0  0  0  0  0  0
   12.0380   17.0697   39.6869 N   0  0  0  0  0  0  0  0  0  0  0  0
   12.6508   24.6646   34.4000 O   0  0  0  0  0  0  0  0  0  0  0  0
   13.2297   22.7258   35.7315 C   0  0  1  0  0  0  0  0  0  0  0  0
    8.7008   16.4543   36.1610 N   0  0  0  0  0  0  0  0  0  0  0  0
   12.7337   21.5038   36.3147 O   0  0  0  0  0  0  0  0  0  0  0  0
   13.4174   20.3774   35.7301 C   0  0  1  0  0  0  0  0  0  0  0  0
   12.2336   15.7296   32.9742 N   0  0  0  0  0  0  0  0  0  0  0  0
   12.5217   19.3112   35.3722 O   0  0  0  0  0  0  0  0  0  0  0  0
   11.5752   18.9653   36.3976 C   0  0  2  0  0  0  0  0  0  0  0  0
    8.3094   20.8383   33.5434 N   0  0  0  0  0  0  0  0  0  0  0  0
   13.2214   19.1416   38.1619 O   0  0  0  0  0  0  0  0  0  0  0  0
   12.3066   18.2400   37.5339 C   0  0  1  0  0  0  0  0  0  0  0  0
    9.6153   18.8116   34.9147 O   0  0  0  0  0  0  0  0  0  0  0  0
   11.3202   17.7241   38.5843 C   0  0  1  0  0  0  0  0  0  0  0  0
   11.0961   18.4008   33.1226 O   0  0  0  0  0  0  0  0  0  0  0  0
   10.3454   16.7313   37.9474 C   0  0  0  0  0  0  0  0  0  0  0  0
    8.5932   16.6853   31.0345 O   0  0  0  0  0  0  0  0  0  0  0  0
    9.5639   17.4360   36.8368 C   0  0  1  0  0  0  0  0  0  0  0  0
    7.4933   19.3304   31.2510 O   0  0  0  0  0  0  0  0  0  0  0  0
   10.4842   18.0821   35.7954 C   0  0  2  0  0  0  0  0  0  0  0  0
   15.1924   20.1736   34.0206 O   0  0  0  0  0  0  0  0  0  0  0  0
   10.2844   19.3891   33.7841 C   0  0  1  0  0  0  0  0  0  0  0  0
   15.6262   22.2502   35.8231 O   0  0  0  0  0  0  0  0  0  0  0  0
   10.3613   17.2845   32.5915 C   0  0  2  0  0  0  0  0  0  0  0  0
   11.3492   16.3063   31.9511 C   0  0  0  0  0  0  0  0  0  0  0  0
    9.3542   17.7824   31.5487 C   0  0  2  0  0  0  0  0  0  0  0  0
    8.4111   18.7912   32.2078 C   0  0  1  0  0  0  0  0  0  0  0  0
    9.2194   19.9338   32.8270 C   0  0  1  0  0  0  0  0  0  0  0  0
   14.0751   20.9455   34.4715 C   0  0  2  0  0  0  0  0  0  0  0  0
   14.4892   22.3324   34.9597 C   0  0  1  0  0  0  0  0  0  0  0  0
  3  1  1  0  0  0  0
  4  1  1  6  0  0  0
  4  6  1  0  0  0  0
  4 31  1  0  0  0  0
  6  7  1  0  0  0  0
  7  9  1  6  0  0  0
  7 30  1  0  0  0  0
 10  9  1  6  0  0  0
 10 13  1  0  0  0  0
 10 21  1  0  0  0  0
 13 12  1  1  0  0  0
 13 15  1  0  0  0  0
 15  2  1  1  0  0  0
 15 17  1  0  0  0  0
 16 25  1  0  0  0  0
 17 19  1  0  0  0  0
 19  5  1  6  0  0  0
 19 21  1  0  0  0  0
 21 14  1  6  0  0  0
 23 14  1  1  0  0  0
 23 16  1  0  0  0  0
 23 29  1  0  0  0  0
 25 26  1  6  0  0  0
 25 27  1  0  0  0  0
 26  8  1  0  0  0  0
 27 18  1  1  0  0  0
 27 28  1  0  0  0  0
 28 20  1  6  0  0  0
 28 29  1  0  0  0  0
 29 11  1  1  0  0  0
 30 22  1  1  0  0  0
 30 31  1  0  0  0  0
 31 24  1  1  0  0  0
M  END
>  <CHROM.1>
171.55113900,-47.19544376,-72.02554421,61.05301462,50.12457895,65.26942080
11.38064513,19.28490864,34.83307930,-0.00520612,-0.83764019,-0.88310988

>  <Name>
2fcz_lig

>  <RI>
2.76032e+07

>  <Rbt.Current_Directory>
/home/itssahil/PROJECTS/Mol_Feturizer/New_Systems/rnas/2fcz

>  <Rbt.Executable>
rbdock ($Id: //depot/dev/client3/rdock/2013.1/src/exe/rbdock.cxx#4 $)

>  <Rbt.Library>
libRbt.so (2013.1, Build901 2013/11/27)

>  <Rbt.Parameter_File>
/export/apps/rDock/src/rDock_2013.1_src/data/scripts/dock_solv.prm

>  <Rbt.Receptor>
prm/pocket_docking_8.prm

>  <SCORE>
-16.9664

>  <SCORE.INTER>
-13.2498

>  <SCORE.INTER.CONST>
1

>  <SCORE.INTER.POLAR>
-1.55333

>  <SCORE.INTER.ROT>
6

>  <SCORE.INTER.SOLV>
10.9479

>  <SCORE.INTER.VDW>
-14.9047

>  <SCORE.INTER.norm>
-0.427414

>  <SCORE.INTRA>
-3.71659

>  <SCORE.INTRA.DIHEDRAL>
-8.40951

>  <SCORE.INTRA.DIHEDRAL.0>
10.8409

>  <SCORE.INTRA.POLAR>
0

>  <SCORE.INTRA.POLAR.0>
0

>  <SCORE.INTRA.REPUL>
0

>  <SCORE.INTRA.REPUL.0>
0

>  <SCORE.INTRA.SOLV>
-3.76877

>  <SCORE.INTRA.SOLV.lig_0>
-80.8302

>  <SCORE.INTRA.VDW>
2.37255

>  <SCORE.INTRA.VDW.0>
-4.23953

>  <SCORE.INTRA.norm>
-0.11989

>  <SCORE.RESTR>
0

>  <SCORE.RESTR.CAVITY>
0

>  <SCORE.RESTR.norm>
0

>  <SCORE.SYSTEM>
0

>  <SCORE.SYSTEM.CONST>
0

>  <SCORE.SYSTEM.DIHEDRAL>
0

>  <SCORE.SYSTEM.SOLV>
0

>  <SCORE.SYSTEM.norm>
0

>  <SCORE.heavy>
31

>  <SCORE.norm>
-0.547304

>  <RMSD>
5.656

$$$$
2fcz_lig
 OpenBabel11021811433D
libRbt.so/2013.1/901 2013/11/27
 31 33  0  0  0  0  0  0  0  0999 V2000
   12.5778   10.1642   33.6817 C   0  0  0  0  0  0  0  0  0  0  0  0
   16.4801   15.3039   33.3620 N   0  0  0  0  0  0  0  0  0  0  0  0
   11.9625   10.4229   32.4167 O   0  0  0  0  0  0  0  0  0  0  0  0
   12.4536   11.4014   34.5773 C   0  0  1  0  0  0  0  0  0  0  0  0
   12.7988   18.5224   33.5533 N   0  0  0  0  0  0  0  0  0  0  0  0
   12.9405   12.5880   33.9181 O   0  0  0  0  0  0  0  0  0  0  0  0
   11.8296   13.4391   33.5729 C   0  0  1  0  0  0  0  0  0  0  0  0
    9.1414   21.3692   33.2719 N   0  0  0  0  0  0  0  0  0  0  0  0
   11.9217   13.9537   32.2336 O   0  0  0  0  0  0  0  0  0  0  0  0
   12.8939   14.9998   32.0681 C   0  0  2  0  0  0  0  0  0  0  0  0
    8.8578   15.7005   31.1405 N   0  0  0  0  0  0  0  0  0  0  0  0
   14.7555   13.4545   32.0876 O   0  0  0  0  0  0  0  0  0  0  0  0
   14.1996   14.5876   32.7592 C   0  0  1  0  0  0  0  0  0  0  0  0
   11.2746   16.8451   31.8768 O   0  0  0  0  0  0  0  0  0  0  0  0
   15.2205   15.7276   32.7349 C   0  0  1  0  0  0  0  0  0  0  0  0
   10.2163   18.5489   33.1217 O   0  0  0  0  0  0  0  0  0  0  0  0
   14.6651   16.9467   33.4744 C   0  0  0  0  0  0  0  0  0  0  0  0
    9.1139   20.4559   30.1694 O   0  0  0  0  0  0  0  0  0  0  0  0
   13.3833   17.4139   32.7820 C   0  0  1  0  0  0  0  0  0  0  0  0
    7.6923   17.9790   29.8580 O   0  0  0  0  0  0  0  0  0  0  0  0
   12.3433   16.2945   32.6627 C   0  0  2  0  0  0  0  0  0  0  0  0
    9.3857   13.2518   33.9007 O   0  0  0  0  0  0  0  0  0  0  0  0
   10.1116   17.1959   32.6408 C   0  0  1  0  0  0  0  0  0  0  0  0
   10.8640   12.4420   36.1162 O   0  0  0  0  0  0  0  0  0  0  0  0
   10.2976   19.5446   32.0872 C   0  0  2  0  0  0  0  0  0  0  0  0
   10.4372   20.9217   32.7407 C   0  0  0  0  0  0  0  0  0  0  0  0
    9.0326   19.4915   31.2232 C   0  0  2  0  0  0  0  0  0  0  0  0
    8.8975   18.0909   30.6218 C   0  0  1  0  0  0  0  0  0  0  0  0
    8.8839   17.0432   31.7372 C   0  0  1  0  0  0  0  0  0  0  0  0
   10.6048   12.5312   33.6955 C   0  0  2  0  0  0  0  0  0  0  0  0
   10.9887   11.6861   34.9087 C   0  0  1  0  0  0  0  0  0  0  0  0
  3  1  1  0  0  0  0
  4  1  1  6  0  0  0
  4  6  1  0  0  0  0
  4 31  1  0  0  0  0
  6  7  1  0  0  0  0
  7  9  1  6  0  0  0
  7 30  1  0  0  0  0
 10  9  1  1  0  0  0
 10 13  1  0  0  0  0
 10 21  1  0  0  0  0
 13 12  1  6  0  0  0
 13 15  1  0  0  0  0
 15  2  1  1  0  0  0
 15 17  1  0  0  0  0
 16 25  1  0  0  0  0
 17 19  1  0  0  0  0
 19  5  1  1  0  0  0
 19 21  1  0  0  0  0
 21 14  1  6  0  0  0
 23 14  1  6  0  0  0
 23 16  1  0  0  0  0
 23 29  1  0  0  0  0
 25 26  1  1  0  0  0
 25 27  1  0  0  0  0
 26  8  1  0  0  0  0
 27 18  1  6  0  0  0
 27 28  1  0  0  0  0
 28 20  1  1  0  0  0
 28 29  1  0  0  0  0
 29 11  1  6  0  0  0
 30 22  1  1  0  0  0
 30 31  1  0  0  0  0
 31 24  1  1  0  0  0
M  END
>  <CHROM.1>
-52.54806528,-74.68304744,46.17055831,130.80161189,88.80025809,-76.28131772
11.46905159,15.72035210,32.73476863,1.17487732,0.15748021,2.93078012

>  <Name>
2fcz_lig

>  <RI>
0

>  <Rbt.Current_Directory>
/home/itssahil/PROJECTS/Mol_Feturizer/New_Systems/rnas/2fcz

>  <Rbt.Executable>
rbdock ($Id: //depot/dev/client3/rdock/2013.1/src/exe/rbdock.cxx#4 $)

>  <Rbt.Library>
libRbt.so (2013.1, Build901 2013/11/27)

>  <Rbt.Parameter_File>
/export/apps/rDock/src/rDock_2013.1_src/data/scripts/dock_solv.prm

>  <Rbt.Receptor>
prm/blind_docking_40.prm

>  <SCORE>
11.7249

>  <SCORE.INTER>
-3.02393

>  <SCORE.INTER.CONST>
1

>  <SCORE.INTER.POLAR>
0

>  <SCORE.INTER.ROT>
6

>  <SCORE.INTER.SOLV>
21.2018

>  <SCORE.INTER.VDW>
-16.6832

>  <SCORE.INTER.norm>
-0.0975463

>  <SCORE.INTRA>
5.60935

>  <SCORE.INTRA.DIHEDRAL>
2.19952

>  <SCORE.INTRA.DIHEDRAL.0>
10.8409

>  <SCORE.INTRA.POLAR>
0

>  <SCORE.INTRA.POLAR.0>
0

>  <SCORE.INTRA.REPUL>
0

>  <SCORE.INTRA.REPUL.0>
0

>  <SCORE.INTRA.SOLV>
2.42363

>  <SCORE.INTRA.SOLV.lig_0>
-80.8302

>  <SCORE.INTRA.VDW>
3.29778

>  <SCORE.INTRA.VDW.0>
-4.23953

>  <SCORE.INTRA.norm>
0.180947

>  <SCORE.RESTR>
9.13951

>  <SCORE.RESTR.CAVITY>
9.13951

>  <SCORE.RESTR.norm>
0.294823

>  <SCORE.SYSTEM>
0

>  <SCORE.SYSTEM.CONST>
0

>  <SCORE.SYSTEM.DIHEDRAL>
0

>  <SCORE.SYSTEM.SOLV>
0

>  <SCORE.SYSTEM.norm>
0

>  <SCORE.heavy>
31

>  <SCORE.norm>
0.378223

>  <RMSD>
5.659

$$$$
2fcz_lig
 OpenBabel11021811433D
libRbt.so/2013.1/901 2013/11/27
 31 33  0  0  0  0  0  0  0  0999 V2000
   15.5328   17.9597   33.0140 C   0  0  0  0  0  0  0  0  0  0  0  0
   17.0023   24.8745   38.1341 N   0  0  0  0  0  0  0  0  0  0  0  0
   15.6335   16.5403   32.8710 O   0  0  0  0  0  0  0  0  0  0  0  0
   16.6235   18.4598   33.9673 C   0  0  1  0  0  0  0  0  0  0  0  0
   13.9449   25.9242   34.4602 N   0  0  0  0  0  0  0  0  0  0  0  0
   16.6038   19.8963   34.0934 O   0  0  0  0  0  0  0  0  0  0  0  0
   16.1067   20.2599   35.3966 C   0  0  1  0  0  0  0  0  0  0  0  0
   10.0528   20.9851   33.0112 N   0  0  0  0  0  0  0  0  0  0  0  0
   15.1395   21.3224   35.3434 O   0  0  0  0  0  0  0  0  0  0  0  0
   15.7115   22.6410   35.3106 C   0  0  2  0  0  0  0  0  0  0  0  0
   15.6147   22.2658   31.0433 N   0  0  0  0  0  0  0  0  0  0  0  0
   17.1568   22.2053   37.2013 O   0  0  0  0  0  0  0  0  0  0  0  0
   16.1058   23.0544   36.7339 C   0  0  1  0  0  0  0  0  0  0  0  0
   14.4994   23.4109   33.3101 O   0  0  0  0  0  0  0  0  0  0  0  0
   16.5879   24.5064   36.7732 C   0  0  1  0  0  0  0  0  0  0  0  0
   12.7194   21.8609   33.3536 O   0  0  0  0  0  0  0  0  0  0  0  0
   15.4719   25.4438   36.3067 C   0  0  0  0  0  0  0  0  0  0  0  0
   10.9120   23.3791   30.5259 O   0  0  0  0  0  0  0  0  0  0  0  0
   15.0846   25.0884   34.8699 C   0  0  1  0  0  0  0  0  0  0  0  0
   13.3645   22.5304   29.2937 O   0  0  0  0  0  0  0  0  0  0  0  0
   14.6939   23.6142   34.7185 C   0  0  2  0  0  0  0  0  0  0  0  0
   15.3411   18.9448   37.3457 O   0  0  0  0  0  0  0  0  0  0  0  0
   14.0886   22.0798   32.9656 C   0  0  1  0  0  0  0  0  0  0  0  0
   17.6160   17.8980   36.1299 O   0  0  0  0  0  0  0  0  0  0  0  0
   11.7705   22.7243   32.7039 C   0  0  2  0  0  0  0  0  0  0  0  0
   10.3709   22.4030   33.2340 C   0  0  0  0  0  0  0  0  0  0  0  0
   11.8291   22.5030   31.1883 C   0  0  2  0  0  0  0  0  0  0  0  0
   13.2500   22.7878   30.6970 C   0  0  1  0  0  0  0  0  0  0  0  0
   14.2492   21.9081   31.4518 C   0  0  1  0  0  0  0  0  0  0  0  0
   15.4454   18.9836   35.9192 C   0  0  2  0  0  0  0  0  0  0  0  0
   16.3989   17.9193   35.3795 C   0  0  1  0  0  0  0  0  0  0  0  0
  3  1  1  0  0  0  0
  4  1  1  6  0  0  0
  4  6  1  0  0  0  0
  4 31  1  0  0  0  0
  6  7  1  0  0  0  0
  7  9  1  6  0  0  0
  7 30  1  0  0  0  0
 10  9  1  1  0  0  0
 10 13  1  0  0  0  0
 10 21  1  0  0  0  0
 13 12  1  6  0  0  0
 13 15  1  0  0  0  0
 15  2  1  1  0  0  0
 15 17  1  0  0  0  0
 16 25  1  0  0  0  0
 17 19  1  0  0  0  0
 19  5  1  1  0  0  0
 19 21  1  0  0  0  0
 21 14  1  6  0  0  0
 23 14  1  6  0  0  0
 23 16  1  0  0  0  0
 23 29  1  0  0  0  0
 25 26  1  1  0  0  0
 25 27  1  0  0  0  0
 26  8  1  0  0  0  0
 27 18  1  6  0  0  0
 27 28  1  0  0  0  0
 28 20  1  6  0  0  0
 28 29  1  0  0  0  0
 29 11  1  6  0  0  0
 30 22  1  1  0  0  0
 30 31  1  0  0  0  0
 31 24  1  1  0  0  0
M  END
>  <CHROM.1>
177.19413516,-84.22190071,-80.43825193,56.92779694,72.66719230,-57.32339055
14.67930681,21.70639377,34.08032757,0.18709116,0.87240927,-2.79716533

>  <Name>
2fcz_lig

>  <RI>
1.40544e+07

>  <Rbt.Current_Directory>
/home/itssahil/PROJECTS/Mol_Feturizer/New_Systems/rnas/2fcz

>  <Rbt.Executable>
rbdock ($Id: //depot/dev/client3/rdock/2013.1/src/exe/rbdock.cxx#4 $)

>  <Rbt.Library>
libRbt.so (2013.1, Build901 2013/11/27)

>  <Rbt.Parameter_File>
/export/apps/rDock/src/rDock_2013.1_src/data/scripts/dock_solv.prm

>  <Rbt.Receptor>
prm/blind_docking_100.prm

>  <SCORE>
-17.1196

>  <SCORE.INTER>
-15.0827

>  <SCORE.INTER.CONST>
1

>  <SCORE.INTER.POLAR>
-1.33584

>  <SCORE.INTER.ROT>
6

>  <SCORE.INTER.SOLV>
17.4096

>  <SCORE.INTER.VDW>
-19.0056

>  <SCORE.INTER.norm>
-0.486539

>  <SCORE.INTRA>
-2.16888

>  <SCORE.INTRA.DIHEDRAL>
-5.4717

>  <SCORE.INTRA.DIHEDRAL.0>
10.8409

>  <SCORE.INTRA.POLAR>
0

>  <SCORE.INTRA.POLAR.0>
0

>  <SCORE.INTRA.REPUL>
0

>  <SCORE.INTRA.REPUL.0>
0

>  <SCORE.INTRA.SOLV>
-2.43811

>  <SCORE.INTRA.SOLV.lig_0>
-80.8302

>  <SCORE.INTRA.VDW>
1.78602

>  <SCORE.INTRA.VDW.0>
-4.23953

>  <SCORE.INTRA.norm>
-0.069964

>  <SCORE.RESTR>
0.131996

>  <SCORE.RESTR.CAVITY>
0.131996

>  <SCORE.RESTR.norm>
0.00425792

>  <SCORE.SYSTEM>
0

>  <SCORE.SYSTEM.CONST>
0

>  <SCORE.SYSTEM.DIHEDRAL>
0

>  <SCORE.SYSTEM.SOLV>
0

>  <SCORE.SYSTEM.norm>
0

>  <SCORE.heavy>
31

>  <SCORE.norm>
-0.552245

>  <RMSD>
5.661

$$$$
2fcz_lig
 OpenBabel11021811433D
libRbt.so/2013.1/901 2013/11/27
 31 33  0  0  0  0  0  0  0  0999 V2000
   12.2988   15.3170   40.3102 C   0  0  0  0  0  0  0  0  0  0  0  0
   13.2503   13.4163   34.6279 N   0  0  0  0  0  0  0  0  0  0  0  0
   12.7481   15.4125   41.6646 O   0  0  0  0  0  0  0  0  0  0  0  0
   12.7077   16.5784   39.5419 C   0  0  1  0  0  0  0  0  0  0  0  0
   13.4202   18.1748   33.4987 N   0  0  0  0  0  0  0  0  0  0  0  0
   12.4387   16.4538   38.1307 O   0  0  0  0  0  0  0  0  0  0  0  0
   11.3253   17.2974   37.7750 C   0  0  1  0  0  0  0  0  0  0  0  0
   14.3697   19.8846   37.1226 N   0  0  0  0  0  0  0  0  0  0  0  0
   10.3761   16.6318   36.9245 O   0  0  0  0  0  0  0  0  0  0  0  0
   10.8968   16.2567   35.6380 C   0  0  2  0  0  0  0  0  0  0  0  0
    8.5691   20.0133   34.3108 N   0  0  0  0  0  0  0  0  0  0  0  0
   10.9426   13.9027   36.1953 O   0  0  0  0  0  0  0  0  0  0  0  0
   11.7642   15.0012   35.7925 C   0  0  1  0  0  0  0  0  0  0  0  0
   10.8792   18.5206   34.6694 O   0  0  0  0  0  0  0  0  0  0  0  0
   12.4577   14.6442   34.4757 C   0  0  1  0  0  0  0  0  0  0  0  0
   11.5739   19.8301   36.5066 O   0  0  0  0  0  0  0  0  0  0  0  0
   13.3698   15.7908   34.0340 C   0  0  0  0  0  0  0  0  0  0  0  0
   12.6062   22.7154   34.4628 O   0  0  0  0  0  0  0  0  0  0  0  0
   12.5279   17.0512   33.8255 C   0  0  1  0  0  0  0  0  0  0  0  0
    9.7850   22.5780   33.9383 O   0  0  0  0  0  0  0  0  0  0  0  0
   11.7088   17.4180   35.0679 C   0  0  2  0  0  0  0  0  0  0  0  0
    9.8875   18.8398   39.0667 O   0  0  0  0  0  0  0  0  0  0  0  0
   10.4425   19.3441   35.7605 C   0  0  1  0  0  0  0  0  0  0  0  0
   12.5823   19.0117   39.7436 O   0  0  0  0  0  0  0  0  0  0  0  0
   12.4749   20.6582   35.7512 C   0  0  2  0  0  0  0  0  0  0  0  0
   13.6380   21.0714   36.6564 C   0  0  0  0  0  0  0  0  0  0  0  0
   11.7294   21.8976   35.2437 C   0  0  2  0  0  0  0  0  0  0  0  0
   10.5476   21.4505   34.3807 C   0  0  1  0  0  0  0  0  0  0  0  0
    9.6404   20.5146   35.1828 C   0  0  1  0  0  0  0  0  0  0  0  0
   10.6689   17.6420   39.1128 C   0  0  2  0  0  0  0  0  0  0  0  0
   11.8961   17.7859   40.0110 C   0  0  1  0  0  0  0  0  0  0  0  0
  3  1  1  0  0  0  0
  4  1  1  1  0  0  0
  4  6  1  0  0  0  0
  4 31  1  0  0  0  0
  6  7  1  0  0  0  0
  7  9  1  6  0  0  0
  7 30  1  0  0  0  0
 10  9  1  1  0  0  0
 10 13  1  0  0  0  0
 10 21  1  0  0  0  0
 13 12  1  6  0  0  0
 13 15  1  0  0  0  0
 15  2  1  1  0  0  0
 15 17  1  0  0  0  0
 16 25  1  0  0  0  0
 17 19  1  0  0  0  0
 19  5  1  1  0  0  0
 19 21  1  0  0  0  0
 21 14  1  6  0  0  0
 23 14  1  6  0  0  0
 23 16  1  0  0  0  0
 23 29  1  0  0  0  0
 25 26  1  1  0  0  0
 25 27  1  0  0  0  0
 26  8  1  0  0  0  0
 27 18  1  6  0  0  0
 27 28  1  0  0  0  0
 28 20  1  1  0  0  0
 28 29  1  0  0  0  0
 29 11  1  6  0  0  0
 30 22  1  6  0  0  0
 30 31  1  0  0  0  0
 31 24  1  6  0  0  0
M  END
>  <CHROM.1>
172.15942543,-63.91668285,77.32393826,78.85980875,55.93781111,60.95172484
11.71875079,18.11284591,36.47022526,0.21759855,-1.42113575,1.22898095

>  <Name>
2fcz_lig

>  <RI>
1.32928e+07

>  <Rbt.Current_Directory>
/home/itssahil/PROJECTS/Mol_Feturizer/New_Systems/rnas/2fcz

>  <Rbt.Executable>
rbdock ($Id: //depot/dev/client3/rdock/2013.1/src/exe/rbdock.cxx#4 $)

>  <Rbt.Library>
libRbt.so (2013.1, Build901 2013/11/27)

>  <Rbt.Parameter_File>
/export/apps/rDock/src/rDock_2013.1_src/data/scripts/dock_solv.prm

>  <Rbt.Receptor>
prm/pocket_docking_7.prm

>  <SCORE>
-17.5651

>  <SCORE.INTER>
-15.5364

>  <SCORE.INTER.CONST>
1

>  <SCORE.INTER.POLAR>
-2.96

>  <SCORE.INTER.ROT>
6

>  <SCORE.INTER.SOLV>
13.6806

>  <SCORE.INTER.VDW>
-12.6512

>  <SCORE.INTER.norm>
-0.501176

>  <SCORE.INTRA>
-2.02864

>  <SCORE.INTRA.DIHEDRAL>
-7.35102

>  <SCORE.INTRA.DIHEDRAL.0>
10.8409

>  <SCORE.INTRA.POLAR>
0

>  <SCORE.INTRA.POLAR.0>
0

>  <SCORE.INTRA.REPUL>
0

>  <SCORE.INTRA.REPUL.0>
0

>  <SCORE.INTRA.SOLV>
0.0296092

>  <SCORE.INTRA.SOLV.lig_0>
-80.8302

>  <SCORE.INTRA.VDW>
1.63206

>  <SCORE.INTRA.VDW.0>
-4.23953

>  <SCORE.INTRA.norm>
-0.0654402

>  <SCORE.RESTR>
0

>  <SCORE.RESTR.CAVITY>
0

>  <SCORE.RESTR.norm>
0

>  <SCORE.SYSTEM>
0

>  <SCORE.SYSTEM.CONST>
0

>  <SCORE.SYSTEM.DIHEDRAL>
0

>  <SCORE.SYSTEM.SOLV>
0

>  <SCORE.SYSTEM.norm>
0

>  <SCORE.heavy>
31

>  <SCORE.norm>
-0.566616

>  <RMSD>
5.661

$$$$
2fcz_lig
 OpenBabel11021811433D
libRbt.so/2013.1/901 2013/11/27
 31 33  0  0  0  0  0  0  0  0999 V2000
   12.7372   10.3790   33.7944 C   0  0  0  0  0  0  0  0  0  0  0  0
   16.4663   15.3157   33.3343 N   0  0  0  0  0  0  0  0  0  0  0  0
   12.3311    9.2033   34.5003 O   0  0  0  0  0  0  0  0  0  0  0  0
   12.4991   11.6136   34.6705 C   0  0  1  0  0  0  0  0  0  0  0  0
   12.8797   18.6345   33.5971 N   0  0  0  0  0  0  0  0  0  0  0  0
   12.9186   12.8250   34.0101 O   0  0  0  0  0  0  0  0  0  0  0  0
   11.7600   13.5903   33.6233 C   0  0  1  0  0  0  0  0  0  0  0  0
   11.4964   21.2201   33.4574 N   0  0  0  0  0  0  0  0  0  0  0  0
   11.8536   14.0960   32.2806 O   0  0  0  0  0  0  0  0  0  0  0  0
   12.8515   15.1152   32.1013 C   0  0  2  0  0  0  0  0  0  0  0  0
    8.9234   15.7141   31.2590 N   0  0  0  0  0  0  0  0  0  0  0  0
   14.6694   13.5187   32.0848 O   0  0  0  0  0  0  0  0  0  0  0  0
   14.1568   14.6648   32.7688 C   0  0  1  0  0  0  0  0  0  0  0  0
   11.2811   17.0053   31.9426 O   0  0  0  0  0  0  0  0  0  0  0  0
   15.2085   15.7761   32.7300 C   0  0  1  0  0  0  0  0  0  0  0  0
   10.1438   18.6741   33.1650 O   0  0  0  0  0  0  0  0  0  0  0  0
   14.6999   17.0079   33.4821 C   0  0  0  0  0  0  0  0  0  0  0  0
    8.9056   20.4548   30.1877 O   0  0  0  0  0  0  0  0  0  0  0  0
   13.4199   17.5125   32.8130 C   0  0  1  0  0  0  0  0  0  0  0  0
    7.6198   17.8973   29.9442 O   0  0  0  0  0  0  0  0  0  0  0  0
   12.3473   16.4229   32.7086 C   0  0  2  0  0  0  0  0  0  0  0  0
    9.3274   13.2314   33.8850 O   0  0  0  0  0  0  0  0  0  0  0  0
   10.1089   17.3075   32.7132 C   0  0  1  0  0  0  0  0  0  0  0  0
   10.7955   12.5536   36.1510 O   0  0  0  0  0  0  0  0  0  0  0  0
   10.1587   19.6507   32.1094 C   0  0  2  0  0  0  0  0  0  0  0  0
   10.2289   21.0469   32.7329 C   0  0  0  0  0  0  0  0  0  0  0  0
    8.8892   19.5098   31.2620 C   0  0  2  0  0  0  0  0  0  0  0  0
    8.8253   18.0915   30.6910 C   0  0  1  0  0  0  0  0  0  0  0  0
    8.8817   17.0684   31.8277 C   0  0  1  0  0  0  0  0  0  0  0  0
   10.6003   12.5981   33.7231 C   0  0  2  0  0  0  0  0  0  0  0  0
   11.0086   11.7958   34.9571 C   0  0  1  0  0  0  0  0  0  0  0  0
  3  1  1  0  0  0  0
  4  1  1  6  0  0  0
  4  6  1  0  0  0  0
  4 31  1  0  0  0  0
  6  7  1  0  0  0  0
  7  9  1  6  0  0  0
  7 30  1  0  0  0  0
 10  9  1  1  0  0  0
 10 13  1  0  0  0  0
 10 21  1  0  0  0  0
 13 12  1  6  0  0  0
 13 15  1  0  0  0  0
 15  2  1  1  0  0  0
 15 17  1  0  0  0  0
 16 25  1  0  0  0  0
 17 19  1  0  0  0  0
 19  5  1  1  0  0  0
 19 21  1  0  0  0  0
 21 14  1  6  0  0  0
 23 14  1  6  0  0  0
 23 16  1  0  0  0  0
 23 29  1  0  0  0  0
 25 26  1  1  0  0  0
 25 27  1  0  0  0  0
 26  8  1  0  0  0  0
 27 18  1  6  0  0  0
 27 28  1  0  0  0  0
 28 20  1  1  0  0  0
 28 29  1  0  0  0  0
 29 11  1  6  0  0  0
 30 22  1  1  0  0  0
 30 31  1  0  0  0  0
 31 24  1  1  0  0  0
M  END
>  <CHROM.1>
178.86973721,-68.64845203,46.81705387,127.04399283,93.89710592,64.35326346
11.52495557,15.75277635,32.85620165,1.21832869,0.17262358,2.89622815

>  <Name>
2fcz_lig

>  <RI>
0

>  <Rbt.Current_Directory>
/home/itssahil/PROJECTS/Mol_Feturizer/New_Systems/rnas/2fcz

>  <Rbt.Executable>
rbdock ($Id: //depot/dev/client3/rdock/2013.1/src/exe/rbdock.cxx#4 $)

>  <Rbt.Library>
libRbt.so (2013.1, Build901 2013/11/27)

>  <Rbt.Parameter_File>
/export/apps/rDock/src/rDock_2013.1_src/data/scripts/dock_solv.prm

>  <Rbt.Receptor>
prm/blind_docking_40.prm

>  <SCORE>
12.5582

>  <SCORE.INTER>
-3.24782

>  <SCORE.INTER.CONST>
1

>  <SCORE.INTER.POLAR>
0

>  <SCORE.INTER.ROT>
6

>  <SCORE.INTER.SOLV>
19.3843

>  <SCORE.INTER.VDW>
-16.2267

>  <SCORE.INTER.norm>
-0.104768

>  <SCORE.INTRA>
5.24089

>  <SCORE.INTRA.DIHEDRAL>
1.71358

>  <SCORE.INTRA.DIHEDRAL.0>
10.8409

>  <SCORE.INTRA.POLAR>
0

>  <SCORE.INTRA.POLAR.0>
0

>  <SCORE.INTRA.REPUL>
0

>  <SCORE.INTRA.REPUL.0>
0

>  <SCORE.INTRA.SOLV>
2.16739

>  <SCORE.INTRA.SOLV.lig_0>
-80.8302

>  <SCORE.INTRA.VDW>
3.30041

>  <SCORE.INTRA.VDW.0>
-4.23953

>  <SCORE.INTRA.norm>
0.169061

>  <SCORE.RESTR>
10.5651

>  <SCORE.RESTR.CAVITY>
10.5651

>  <SCORE.RESTR.norm>
0.34081

>  <SCORE.SYSTEM>
0

>  <SCORE.SYSTEM.CONST>
0

>  <SCORE.SYSTEM.DIHEDRAL>
0

>  <SCORE.SYSTEM.SOLV>
0

>  <SCORE.SYSTEM.norm>
0

>  <SCORE.heavy>
31

>  <SCORE.norm>
0.405103

>  <RMSD>
5.662

$$$$
2fcz_lig
 OpenBabel11021811433D
libRbt.so/2013.1/901 2013/11/27
 31 33  0  0  0  0  0  0  0  0999 V2000
   12.9321   10.3551   33.8365 C   0  0  0  0  0  0  0  0  0  0  0  0
   16.4780   15.4138   33.3647 N   0  0  0  0  0  0  0  0  0  0  0  0
   12.4714    9.1779   34.5053 O   0  0  0  0  0  0  0  0  0  0  0  0
   12.6380   11.5864   34.7003 C   0  0  1  0  0  0  0  0  0  0  0  0
   12.7738   18.6048   33.5745 N   0  0  0  0  0  0  0  0  0  0  0  0
   13.0168   12.8079   34.0340 O   0  0  0  0  0  0  0  0  0  0  0  0
   11.8333   13.5248   33.6302 C   0  0  1  0  0  0  0  0  0  0  0  0
   10.4697   22.0083   31.8528 N   0  0  0  0  0  0  0  0  0  0  0  0
   11.9201   14.0233   32.2844 O   0  0  0  0  0  0  0  0  0  0  0  0
   12.8827   15.0760   32.1052 C   0  0  2  0  0  0  0  0  0  0  0  0
    8.8586   15.7237   31.1554 N   0  0  0  0  0  0  0  0  0  0  0  0
   14.7561   13.5450   32.1149 O   0  0  0  0  0  0  0  0  0  0  0  0
   14.1977   14.6771   32.7862 C   0  0  1  0  0  0  0  0  0  0  0  0
   11.2475   16.9078   31.9199 O   0  0  0  0  0  0  0  0  0  0  0  0
   15.2095   15.8248   32.7472 C   0  0  1  0  0  0  0  0  0  0  0  0
   10.1483   18.5635   33.1941 O   0  0  0  0  0  0  0  0  0  0  0  0
   14.6515   17.0431   33.4860 C   0  0  0  0  0  0  0  0  0  0  0  0
    9.0103   20.5014   30.2756 O   0  0  0  0  0  0  0  0  0  0  0  0
   13.3598   17.4971   32.8031 C   0  0  1  0  0  0  0  0  0  0  0  0
    7.6453   17.9996   29.9132 O   0  0  0  0  0  0  0  0  0  0  0  0
   12.3275   16.3693   32.6986 C   0  0  2  0  0  0  0  0  0  0  0  0
    9.4140   13.0740   33.8723 O   0  0  0  0  0  0  0  0  0  0  0  0
   10.0751   17.2179   32.6873 C   0  0  1  0  0  0  0  0  0  0  0  0
   10.8854   12.4712   36.1573 O   0  0  0  0  0  0  0  0  0  0  0  0
   10.2097   19.5803   32.1789 C   0  0  2  0  0  0  0  0  0  0  0  0
   10.3169   20.9474   32.8589 C   0  0  0  0  0  0  0  0  0  0  0  0
    8.9482   19.5154   31.3106 C   0  0  2  0  0  0  0  0  0  0  0  0
    8.8460   18.1239   30.6823 C   0  0  1  0  0  0  0  0  0  0  0  0
    8.8532   17.0550   31.7776 C   0  0  1  0  0  0  0  0  0  0  0  0
   10.7118   12.4892   33.7274 C   0  0  2  0  0  0  0  0  0  0  0  0
   11.1390   11.7129   34.9716 C   0  0  1  0  0  0  0  0  0  0  0  0
  3  1  1  0  0  0  0
  4  1  1  6  0  0  0
  4  6  1  0  0  0  0
  4 31  1  0  0  0  0
  6  7  1  0  0  0  0
  7  9  1  6  0  0  0
  7 30  1  0  0  0  0
 10  9  1  1  0  0  0
 10 13  1  0  0  0  0
 10 21  1  0  0  0  0
 13 12  1  6  0  0  0
 13 15  1  0  0  0  0
 15  2  1  1  0  0  0
 15 17  1  0  0  0  0
 16 25  1  0  0  0  0
 17 19  1  0  0  0  0
 19  5  1  1  0  0  0
 19 21  1  0  0  0  0
 21 14  1  6  0  0  0
 23 14  1  6  0  0  0
 23 16  1  0  0  0  0
 23 29  1  0  0  0  0
 25 26  1  1  0  0  0
 25 27  1  0  0  0  0
 26  8  1  0  0  0  0
 27 18  1  6  0  0  0
 27 28  1  0  0  0  0
 28 20  1  1  0  0  0
 28 29  1  0  0  0  0
 29 11  1  6  0  0  0
 30 22  1  1  0  0  0
 30 31  1  0  0  0  0
 31 24  1  1  0  0  0
M  END
>  <CHROM.1>
-176.73923380,-68.46012968,46.84434115,129.12361992,88.66570433,176.34307918
11.53427981,15.74961606,32.81511434,1.20945106,0.15253852,2.87590046

>  <Name>
2fcz_lig

>  <RI>
0

>  <Rbt.Current_Directory>
/home/itssahil/PROJECTS/Mol_Feturizer/New_Systems/rnas/2fcz

>  <Rbt.Executable>
rbdock ($Id: //depot/dev/client3/rdock/2013.1/src/exe/rbdock.cxx#4 $)

>  <Rbt.Library>
libRbt.so (2013.1, Build901 2013/11/27)

>  <Rbt.Parameter_File>
/export/apps/rDock/src/rDock_2013.1_src/data/scripts/dock_solv.prm

>  <Rbt.Receptor>
prm/blind_docking_40.prm

>  <SCORE>
11.5075

>  <SCORE.INTER>
-3.35753

>  <SCORE.INTER.CONST>
1

>  <SCORE.INTER.POLAR>
0

>  <SCORE.INTER.ROT>
6

>  <SCORE.INTER.SOLV>
20.3048

>  <SCORE.INTER.VDW>
-16.6066

>  <SCORE.INTER.norm>
-0.108308

>  <SCORE.INTRA>
4.93274

>  <SCORE.INTRA.DIHEDRAL>
0.574873

>  <SCORE.INTRA.DIHEDRAL.0>
10.8409

>  <SCORE.INTRA.POLAR>
0

>  <SCORE.INTRA.POLAR.0>
0

>  <SCORE.INTRA.REPUL>
0

>  <SCORE.INTRA.REPUL.0>
0

>  <SCORE.INTRA.SOLV>
1.22556

>  <SCORE.INTRA.SOLV.lig_0>
-80.8302

>  <SCORE.INTRA.VDW>
4.03252

>  <SCORE.INTRA.VDW.0>
-4.23953

>  <SCORE.INTRA.norm>
0.159121

>  <SCORE.RESTR>
9.93229

>  <SCORE.RESTR.CAVITY>
9.93229

>  <SCORE.RESTR.norm>
0.320396

>  <SCORE.SYSTEM>
0

>  <SCORE.SYSTEM.CONST>
0

>  <SCORE.SYSTEM.DIHEDRAL>
0

>  <SCORE.SYSTEM.SOLV>
0

>  <SCORE.SYSTEM.norm>
0

>  <SCORE.heavy>
31

>  <SCORE.norm>
0.371209

>  <RMSD>
5.668

$$$$
2fcz_lig
 OpenBabel11021811433D
libRbt.so/2013.1/901 2013/11/27
 31 33  0  0  0  0  0  0  0  0999 V2000
   14.0653   12.4828   34.0072 C   0  0  0  0  0  0  0  0  0  0  0  0
   16.4637   15.8602   34.1672 N   0  0  0  0  0  0  0  0  0  0  0  0
   14.1918   11.2364   34.6971 O   0  0  0  0  0  0  0  0  0  0  0  0
   12.5833   12.8504   33.8757 C   0  0  1  0  0  0  0  0  0  0  0  0
   12.2016   18.1074   35.0228 N   0  0  0  0  0  0  0  0  0  0  0  0
   12.4091   14.2072   33.4192 O   0  0  0  0  0  0  0  0  0  0  0  0
   11.9333   14.2016   32.0586 C   0  0  1  0  0  0  0  0  0  0  0  0
    8.0621   21.2689   33.3487 N   0  0  0  0  0  0  0  0  0  0  0  0
   12.6287   15.1445   31.2251 O   0  0  0  0  0  0  0  0  0  0  0  0
   13.3602   16.1472   31.9506 C   0  0  2  0  0  0  0  0  0  0  0  0
    9.6068   15.6143   31.9077 N   0  0  0  0  0  0  0  0  0  0  0  0
   15.4744   15.0087   31.6542 O   0  0  0  0  0  0  0  0  0  0  0  0
   14.5616   15.4917   32.6429 C   0  0  1  0  0  0  0  0  0  0  0  0
   11.4455   17.6440   32.3469 O   0  0  0  0  0  0  0  0  0  0  0  0
   15.2912   16.4902   33.5446 C   0  0  1  0  0  0  0  0  0  0  0  0
    9.8118   19.0764   33.2699 O   0  0  0  0  0  0  0  0  0  0  0  0
   14.3465   17.0027   34.6340 C   0  0  0  0  0  0  0  0  0  0  0  0
    8.2437   19.8882   30.0373 O   0  0  0  0  0  0  0  0  0  0  0  0
   13.1561   17.7048   33.9777 C   0  0  1  0  0  0  0  0  0  0  0  0
    7.7806   17.0605   30.2439 O   0  0  0  0  0  0  0  0  0  0  0  0
   12.4321   16.8061   32.9692 C   0  0  2  0  0  0  0  0  0  0  0  0
   11.3798   12.3941   30.4644 O   0  0  0  0  0  0  0  0  0  0  0  0
   10.2018   17.7064   33.0601 C   0  0  1  0  0  0  0  0  0  0  0  0
   10.4876   11.8965   33.0540 O   0  0  0  0  0  0  0  0  0  0  0  0
    9.5874   19.8240   32.0621 C   0  0  2  0  0  0  0  0  0  0  0  0
    9.2145   21.2608   32.4359 C   0  0  0  0  0  0  0  0  0  0  0  0
    8.4565   19.1729   31.2581 C   0  0  2  0  0  0  0  0  0  0  0  0
    8.8395   17.7260   30.9399 C   0  0  1  0  0  0  0  0  0  0  0  0
    9.1419   16.9693   32.2353 C   0  0  1  0  0  0  0  0  0  0  0  0
   12.2050   12.7785   31.5684 C   0  0  2  0  0  0  0  0  0  0  0  0
   11.8977   11.9724   32.8289 C   0  0  1  0  0  0  0  0  0  0  0  0
  3  1  1  0  0  0  0
  4  1  1  6  0  0  0
  4  6  1  0  0  0  0
  4 31  1  0  0  0  0
  6  7  1  0  0  0  0
  7  9  1  6  0  0  0
  7 30  1  0  0  0  0
 10  9  1  1  0  0  0
 10 13  1  0  0  0  0
 10 21  1  0  0  0  0
 13 12  1  6  0  0  0
 13 15  1  0  0  0  0
 15  2  1  1  0  0  0
 15 17  1  0  0  0  0
 16 25  1  0  0  0  0
 17 19  1  0  0  0  0
 19  5  1  1  0  0  0
 19 21  1  0  0  0  0
 21 14  1  6  0  0  0
 23 14  1  6  0  0  0
 23 16  1  0  0  0  0
 23 29  1  0  0  0  0
 25 26  1  1  0  0  0
 25 27  1  0  0  0  0
 26  8  1  0  0  0  0
 27 18  1  6  0  0  0
 27 28  1  0  0  0  0
 28 20  1  1  0  0  0
 28 29  1  0  0  0  0
 29 11  1  6  0  0  0
 30 22  1  6  0  0  0
 30 31  1  0  0  0  0
 31 24  1  1  0  0  0
M  END
>  <CHROM.1>
169.01262243,-16.85825941,69.75193753,148.72931266,128.78671843,-55.11086119
11.64680833,16.12570493,32.58784923,0.83875609,0.44017306,-2.98325256

>  <Name>
2fcz_lig

>  <RI>
0

>  <Rbt.Current_Directory>
/home/itssahil/PROJECTS/Mol_Feturizer/New_Systems/rnas/2fcz

>  <Rbt.Executable>
rbdock ($Id: //depot/dev/client3/rdock/2013.1/src/exe/rbdock.cxx#4 $)

>  <Rbt.Library>
libRbt.so (2013.1, Build901 2013/11/27)

>  <Rbt.Parameter_File>
/export/apps/rDock/src/rDock_2013.1_src/data/scripts/dock_solv.prm

>  <Rbt.Receptor>
prm/blind_docking_40.prm

>  <SCORE>
10.4519

>  <SCORE.INTER>
-9.13535

>  <SCORE.INTER.CONST>
1

>  <SCORE.INTER.POLAR>
-1.76865

>  <SCORE.INTER.ROT>
6

>  <SCORE.INTER.SOLV>
19.7842

>  <SCORE.INTER.VDW>
-14.3895

>  <SCORE.INTER.norm>
-0.294689

>  <SCORE.INTRA>
9.51947

>  <SCORE.INTRA.DIHEDRAL>
6.64808

>  <SCORE.INTRA.DIHEDRAL.0>
10.8409

>  <SCORE.INTRA.POLAR>
0

>  <SCORE.INTRA.POLAR.0>
0

>  <SCORE.INTRA.REPUL>
0

>  <SCORE.INTRA.REPUL.0>
0

>  <SCORE.INTRA.SOLV>
3.52731

>  <SCORE.INTRA.SOLV.lig_0>
-80.8302

>  <SCORE.INTRA.VDW>
4.43178

>  <SCORE.INTRA.VDW.0>
-4.23953

>  <SCORE.INTRA.norm>
0.30708

>  <SCORE.RESTR>
10.0678

>  <SCORE.RESTR.CAVITY>
10.0678

>  <SCORE.RESTR.norm>
0.324768

>  <SCORE.SYSTEM>
0

>  <SCORE.SYSTEM.CONST>
0

>  <SCORE.SYSTEM.DIHEDRAL>
0

>  <SCORE.SYSTEM.SOLV>
0

>  <SCORE.SYSTEM.norm>
0

>  <SCORE.heavy>
31

>  <SCORE.norm>
0.337159

>  <RMSD>
5.694

$$$$
2fcz_lig
 OpenBabel11021811433D
libRbt.so/2013.1/901 2013/11/27
 31 33  0  0  0  0  0  0  0  0999 V2000
   11.9054   13.5449   34.5548 C   0  0  0  0  0  0  0  0  0  0  0  0
   14.0008   16.2158   35.4603 N   0  0  0  0  0  0  0  0  0  0  0  0
   12.4531   12.5471   35.4208 O   0  0  0  0  0  0  0  0  0  0  0  0
   11.5327   12.9112   33.2102 C   0  0  1  0  0  0  0  0  0  0  0  0
    9.2293   16.7552   34.5175 N   0  0  0  0  0  0  0  0  0  0  0  0
   11.0507   13.8950   32.2724 O   0  0  0  0  0  0  0  0  0  0  0  0
   12.0380   14.1058   31.2435 C   0  0  1  0  0  0  0  0  0  0  0  0
    8.1030   20.6203   28.6548 N   0  0  0  0  0  0  0  0  0  0  0  0
   12.2489   15.4986   30.9557 O   0  0  0  0  0  0  0  0  0  0  0  0
   12.1700   16.3581   32.1055 C   0  0  2  0  0  0  0  0  0  0  0  0
   10.6444   18.7460   33.7991 N   0  0  0  0  0  0  0  0  0  0  0  0
   14.4970   16.0258   32.6789 O   0  0  0  0  0  0  0  0  0  0  0  0
   13.1626   15.8700   33.1680 C   0  0  1  0  0  0  0  0  0  0  0  0
    9.8252   17.0341   31.7763 O   0  0  0  0  0  0  0  0  0  0  0  0
   13.0155   16.6654   34.4673 C   0  0  1  0  0  0  0  0  0  0  0  0
    9.5317   18.8054   30.2435 O   0  0  0  0  0  0  0  0  0  0  0  0
   11.6039   16.4931   35.0324 C   0  0  0  0  0  0  0  0  0  0  0  0
    6.4166   20.0348   31.7774 O   0  0  0  0  0  0  0  0  0  0  0  0
   10.5877   17.0139   34.0141 C   0  0  1  0  0  0  0  0  0  0  0  0
    8.3275   20.4249   33.8869 O   0  0  0  0  0  0  0  0  0  0  0  0
   10.7404   16.3460   32.6432 C   0  0  2  0  0  0  0  0  0  0  0  0
   14.2699   13.1326   30.8118 O   0  0  0  0  0  0  0  0  0  0  0  0
   10.2573   18.3500   31.4007 C   0  0  1  0  0  0  0  0  0  0  0  0
   12.3830   11.2546   31.6258 O   0  0  0  0  0  0  0  0  0  0  0  0
    8.1114   18.9201   30.4377 C   0  0  2  0  0  0  0  0  0  0  0  0
    7.4717   19.3787   29.1249 C   0  0  0  0  0  0  0  0  0  0  0  0
    7.8259   19.9340   31.5512 C   0  0  2  0  0  0  0  0  0  0  0  0
    8.5157   19.4712   32.8363 C   0  0  1  0  0  0  0  0  0  0  0  0
   10.0145   19.2882   32.5873 C   0  0  1  0  0  0  0  0  0  0  0  0
   13.3183   13.4960   31.8167 C   0  0  2  0  0  0  0  0  0  0  0  0
   12.7582   12.2789   32.5504 C   0  0  1  0  0  0  0  0  0  0  0  0
  3  1  1  0  0  0  0
  4  1  1  1  0  0  0
  4  6  1  0  0  0  0
  4 31  1  0  0  0  0
  6  7  1  0  0  0  0
  7  9  1  1  0  0  0
  7 30  1  0  0  0  0
 10  9  1  6  0  0  0
 10 13  1  0  0  0  0
 10 21  1  0  0  0  0
 13 12  1  6  0  0  0
 13 15  1  0  0  0  0
 15  2  1  1  0  0  0
 15 17  1  0  0  0  0
 16 25  1  0  0  0  0
 17 19  1  0  0  0  0
 19  5  1  1  0  0  0
 19 21  1  0  0  0  0
 21 14  1  6  0  0  0
 23 14  1  1  0  0  0
 23 16  1  0  0  0  0
 23 29  1  0  0  0  0
 25 26  1  6  0  0  0
 25 27  1  0  0  0  0
 26  8  1  0  0  0  0
 27 18  1  1  0  0  0
 27 28  1  0  0  0  0
 28 20  1  1  0  0  0
 28 29  1  0  0  0  0
 29 11  1  1  0  0  0
 30 22  1  6  0  0  0
 30 31  1  0  0  0  0
 31 24  1  6  0  0  0
M  END
>  <CHROM.1>
-176.47715533,36.16246535,55.56821323,-50.71036040,162.35916114,-54.82910132
10.90925294,16.46857402,32.45834407,-0.12198990,-0.93096260,1.15345772

>  <Name>
2fcz_lig

>  <RI>
0

>  <Rbt.Current_Directory>
/home/itssahil/PROJECTS/Mol_Feturizer/New_Systems/rnas/2fcz

>  <Rbt.Executable>
rbdock ($Id: //depot/dev/client3/rdock/2013.1/src/exe/rbdock.cxx#4 $)

>  <Rbt.Library>
libRbt.so (2013.1, Build901 2013/11/27)

>  <Rbt.Parameter_File>
/export/apps/rDock/src/rDock_2013.1_src/data/scripts/dock_solv.prm

>  <Rbt.Receptor>
prm/blind_docking_40.prm

>  <SCORE>
28.5616

>  <SCORE.INTER>
-8.00372

>  <SCORE.INTER.CONST>
1

>  <SCORE.INTER.POLAR>
-1.43634

>  <SCORE.INTER.ROT>
6

>  <SCORE.INTER.SOLV>
12.1411

>  <SCORE.INTER.VDW>
-12.1951

>  <SCORE.INTER.norm>
-0.258184

>  <SCORE.INTRA>
27.1108

>  <SCORE.INTRA.DIHEDRAL>
-6.18974

>  <SCORE.INTRA.DIHEDRAL.0>
10.8409

>  <SCORE.INTRA.POLAR>
0

>  <SCORE.INTRA.POLAR.0>
0

>  <SCORE.INTRA.REPUL>
0

>  <SCORE.INTRA.REPUL.0>
0

>  <SCORE.INTRA.SOLV>
8.72468

>  <SCORE.INTRA.SOLV.lig_0>
-80.8302

>  <SCORE.INTRA.VDW>
25.8433

>  <SCORE.INTRA.VDW.0>
-4.23953

>  <SCORE.INTRA.norm>
0.874542

>  <SCORE.RESTR>
9.45451

>  <SCORE.RESTR.CAVITY>
9.45451

>  <SCORE.RESTR.norm>
0.304984

>  <SCORE.SYSTEM>
0

>  <SCORE.SYSTEM.CONST>
0

>  <SCORE.SYSTEM.DIHEDRAL>
0

>  <SCORE.SYSTEM.SOLV>
0

>  <SCORE.SYSTEM.norm>
0

>  <SCORE.heavy>
31

>  <SCORE.norm>
0.921342

>  <RMSD>
5.697

$$$$
2fcz_lig
 OpenBabel11021811433D
libRbt.so/2013.1/901 2013/11/27
 31 33  0  0  0  0  0  0  0  0999 V2000
   15.2852   17.0041   33.4345 C   0  0  0  0  0  0  0  0  0  0  0  0
   16.8131   23.9618   38.1777 N   0  0  0  0  0  0  0  0  0  0  0  0
   15.4136   17.0150   32.0101 O   0  0  0  0  0  0  0  0  0  0  0  0
   16.4978   17.6966   34.0661 C   0  0  1  0  0  0  0  0  0  0  0  0
   13.9107   25.5610   34.5769 N   0  0  0  0  0  0  0  0  0  0  0  0
   16.5274   19.1052   33.7586 O   0  0  0  0  0  0  0  0  0  0  0  0
   16.2054   19.8644   34.9409 C   0  0  1  0  0  0  0  0  0  0  0  0
   10.6661   21.7938   34.4117 N   0  0  0  0  0  0  0  0  0  0  0  0
   15.2641   20.9198   34.6817 O   0  0  0  0  0  0  0  0  0  0  0  0
   15.7766   22.2411   34.9232 C   0  0  2  0  0  0  0  0  0  0  0  0
   15.6809   22.8073   30.5075 N   0  0  0  0  0  0  0  0  0  0  0  0
   17.1378   21.5163   36.7874 O   0  0  0  0  0  0  0  0  0  0  0  0
   16.0757   22.3996   36.4191 C   0  0  1  0  0  0  0  0  0  0  0  0
   14.6389   23.3225   33.0258 O   0  0  0  0  0  0  0  0  0  0  0  0
   16.4887   23.8357   36.7501 C   0  0  1  0  0  0  0  0  0  0  0  0
   13.0116   21.6244   32.8225 O   0  0  0  0  0  0  0  0  0  0  0  0
   15.3577   24.8033   36.3946 C   0  0  0  0  0  0  0  0  0  0  0  0
   10.8726   23.5164   30.4960 O   0  0  0  0  0  0  0  0  0  0  0  0
   15.0638   24.7044   34.8964 C   0  0  1  0  0  0  0  0  0  0  0  0
   13.2930   23.2061   28.9799 O   0  0  0  0  0  0  0  0  0  0  0  0
   14.7489   23.2704   34.4569 C   0  0  2  0  0  0  0  0  0  0  0  0
   15.6589   19.2276   37.2669 O   0  0  0  0  0  0  0  0  0  0  0  0
   14.3235   22.0603   32.4202 C   0  0  1  0  0  0  0  0  0  0  0  0
   17.7393   17.7368   36.1719 O   0  0  0  0  0  0  0  0  0  0  0  0
   11.9444   22.5043   32.4290 C   0  0  2  0  0  0  0  0  0  0  0  0
   10.6218   21.9355   32.9490 C   0  0  0  0  0  0  0  0  0  0  0  0
   11.9102   22.6182   30.9008 C   0  0  2  0  0  0  0  0  0  0  0  0
   13.2601   23.1455   30.4095 C   0  0  1  0  0  0  0  0  0  0  0  0
   14.3864   22.2325   30.8992 C   0  0  1  0  0  0  0  0  0  0  0  0
   15.5851   18.8394   35.8917 C   0  0  2  0  0  0  0  0  0  0  0  0
   16.4388   17.6089   35.5910 C   0  0  1  0  0  0  0  0  0  0  0  0
  3  1  1  0  0  0  0
  4  1  1  6  0  0  0
  4  6  1  0  0  0  0
  4 31  1  0  0  0  0
  6  7  1  0  0  0  0
  7  9  1  6  0  0  0
  7 30  1  0  0  0  0
 10  9  1  1  0  0  0
 10 13  1  0  0  0  0
 10 21  1  0  0  0  0
 13 12  1  6  0  0  0
 13 15  1  0  0  0  0
 15  2  1  1  0  0  0
 15 17  1  0  0  0  0
 16 25  1  0  0  0  0
 17 19  1  0  0  0  0
 19  5  1  1  0  0  0
 19 21  1  0  0  0  0
 21 14  1  6  0  0  0
 23 14  1  1  0  0  0
 23 16  1  0  0  0  0
 23 29  1  0  0  0  0
 25 26  1  6  0  0  0
 25 27  1  0  0  0  0
 26  8  1  0  0  0  0
 27 18  1  1  0  0  0
 27 28  1  0  0  0  0
 28 20  1  6  0  0  0
 28 29  1  0  0  0  0
 29 11  1  1  0  0  0
 30 22  1  1  0  0  0
 30 31  1  0  0  0  0
 31 24  1  1  0  0  0
M  END
>  <CHROM.1>
66.72429848,-117.15162364,-65.10148753,56.21924489,65.08344886,58.40815830
14.73348893,21.51029167,33.90298135,0.21316504,0.95944890,-2.69348911

>  <Name>
2fcz_lig

>  <RI>
0

>  <Rbt.Current_Directory>
/home/itssahil/PROJECTS/Mol_Feturizer/New_Systems/rnas/2fcz

>  <Rbt.Executable>
rbdock ($Id: //depot/dev/client3/rdock/2013.1/src/exe/rbdock.cxx#4 $)

>  <Rbt.Library>
libRbt.so (2013.1, Build901 2013/11/27)

>  <Rbt.Parameter_File>
/export/apps/rDock/src/rDock_2013.1_src/data/scripts/dock_solv.prm

>  <Rbt.Receptor>
prm/blind_docking_80.prm

>  <SCORE>
-14.1189

>  <SCORE.INTER>
-13.7134

>  <SCORE.INTER.CONST>
1

>  <SCORE.INTER.POLAR>
-1.16682

>  <SCORE.INTER.ROT>
6

>  <SCORE.INTER.SOLV>
20.5955

>  <SCORE.INTER.VDW>
-19.718

>  <SCORE.INTER.norm>
-0.442367

>  <SCORE.INTRA>
-0.405545

>  <SCORE.INTRA.DIHEDRAL>
-3.14294

>  <SCORE.INTRA.DIHEDRAL.0>
10.8409

>  <SCORE.INTRA.POLAR>
0

>  <SCORE.INTRA.POLAR.0>
0

>  <SCORE.INTRA.REPUL>
0

>  <SCORE.INTRA.REPUL.0>
0

>  <SCORE.INTRA.SOLV>
-3.50858

>  <SCORE.INTRA.SOLV.lig_0>
-80.8302

>  <SCORE.INTRA.VDW>
2.92021

>  <SCORE.INTRA.VDW.0>
-4.23953

>  <SCORE.INTRA.norm>
-0.0130821

>  <SCORE.RESTR>
0

>  <SCORE.RESTR.CAVITY>
0

>  <SCORE.RESTR.norm>
0

>  <SCORE.SYSTEM>
0

>  <SCORE.SYSTEM.CONST>
0

>  <SCORE.SYSTEM.DIHEDRAL>
0

>  <SCORE.SYSTEM.SOLV>
0

>  <SCORE.SYSTEM.norm>
0

>  <SCORE.heavy>
31

>  <SCORE.norm>
-0.455449

>  <RMSD>
5.697

$$$$
2fcz_lig
 OpenBabel11021811433D
libRbt.so/2013.1/901 2013/11/27
 31 33  0  0  0  0  0  0  0  0999 V2000
    8.1245   18.5169   30.2878 C   0  0  0  0  0  0  0  0  0  0  0  0
    9.9077   23.3007   32.4421 N   0  0  0  0  0  0  0  0  0  0  0  0
    7.3423   18.9759   31.3936 O   0  0  0  0  0  0  0  0  0  0  0  0
    9.4796   18.0084   30.7915 C   0  0  1  0  0  0  0  0  0  0  0  0
   13.7238   20.8005   34.2122 N   0  0  0  0  0  0  0  0  0  0  0  0
    9.9665   18.7949   31.8978 O   0  0  0  0  0  0  0  0  0  0  0  0
    9.8768   18.0257   33.1136 C   0  0  1  0  0  0  0  0  0  0  0  0
    7.6782   19.1643   37.9874 N   0  0  0  0  0  0  0  0  0  0  0  0
    9.3299   18.7814   34.2077 O   0  0  0  0  0  0  0  0  0  0  0  0
    9.9830   20.0408   34.4407 C   0  0  2  0  0  0  0  0  0  0  0  0
   13.7275   19.1297   37.7311 N   0  0  0  0  0  0  0  0  0  0  0  0
    8.1704   21.3122   33.4650 O   0  0  0  0  0  0  0  0  0  0  0  0
    9.5677   21.0332   33.3475 C   0  0  1  0  0  0  0  0  0  0  0  0
   11.9449   19.1155   35.6062 O   0  0  0  0  0  0  0  0  0  0  0  0
   10.3464   22.3452   33.4686 C   0  0  1  0  0  0  0  0  0  0  0  0
   10.0860   19.4678   37.0179 O   0  0  0  0  0  0  0  0  0  0  0  0
   11.8462   22.0825   33.3158 C   0  0  0  0  0  0  0  0  0  0  0  0
   10.0347   16.0277   38.3335 O   0  0  0  0  0  0  0  0  0  0  0  0
   12.3049   21.1295   34.4214 C   0  0  1  0  0  0  0  0  0  0  0  0
   12.5819   16.9902   39.2492 O   0  0  0  0  0  0  0  0  0  0  0  0
   11.4955   19.8282   34.4430 C   0  0  2  0  0  0  0  0  0  0  0  0
    9.0996   15.7322   33.6143 O   0  0  0  0  0  0  0  0  0  0  0  0
   11.4989   19.6847   36.8457 C   0  0  1  0  0  0  0  0  0  0  0  0
   10.6179   15.9022   31.2872 O   0  0  0  0  0  0  0  0  0  0  0  0
    9.6987   18.0843   37.0816 C   0  0  2  0  0  0  0  0  0  0  0  0
    8.1774   18.0065   37.2315 C   0  0  0  0  0  0  0  0  0  0  0  0
   10.3860   17.4136   38.2764 C   0  0  2  0  0  0  0  0  0  0  0  0
   11.9022   17.5481   38.1199 C   0  0  1  0  0  0  0  0  0  0  0  0
   12.2837   19.0239   37.9834 C   0  0  1  0  0  0  0  0  0  0  0  0
    8.9381   16.8703   32.7622 C   0  0  2  0  0  0  0  0  0  0  0  0
    9.3593   16.5801   31.3229 C   0  0  1  0  0  0  0  0  0  0  0  0
  3  1  1  0  0  0  0
  4  1  1  1  0  0  0
  4  6  1  0  0  0  0
  4 31  1  0  0  0  0
  6  7  1  0  0  0  0
  7  9  1  1  0  0  0
  7 30  1  0  0  0  0
 10  9  1  6  0  0  0
 10 13  1  0  0  0  0
 10 21  1  0  0  0  0
 13 12  1  1  0  0  0
 13 15  1  0  0  0  0
 15  2  1  6  0  0  0
 15 17  1  0  0  0  0
 16 25  1  0  0  0  0
 17 19  1  0  0  0  0
 19  5  1  6  0  0  0
 19 21  1  0  0  0  0
 21 14  1  1  0  0  0
 23 14  1  6  0  0  0
 23 16  1  0  0  0  0
 23 29  1  0  0  0  0
 25 26  1  1  0  0  0
 25 27  1  0  0  0  0
 26  8  1  0  0  0  0
 27 18  1  6  0  0  0
 27 28  1  0  0  0  0
 28 20  1  1  0  0  0
 28 29  1  0  0  0  0
 29 11  1  6  0  0  0
 30 22  1  1  0  0  0
 30 31  1  0  0  0  0
 31 24  1  1  0  0  0
M  END
>  <CHROM.1>
-36.02595409,-52.06420488,74.21998739,-52.40442590,71.15559014,-31.75555626
10.28172961,18.91985112,34.69422130,2.24148043,-1.03375381,-0.82122527

>  <Name>
2fcz_lig

>  <RI>
2.29611e+07

>  <Rbt.Current_Directory>
/home/itssahil/PROJECTS/Mol_Feturizer/New_Systems/rnas/2fcz

>  <Rbt.Executable>
rbdock ($Id: //depot/dev/client3/rdock/2013.1/src/exe/rbdock.cxx#4 $)

>  <Rbt.Library>
libRbt.so (2013.1, Build901 2013/11/27)

>  <Rbt.Parameter_File>
/export/apps/rDock/src/rDock_2013.1_src/data/scripts/dock_solv.prm

>  <Rbt.Receptor>
prm/pocket_docking_3.prm

>  <SCORE>
-23.9143

>  <SCORE.INTER>
-25.6261

>  <SCORE.INTER.CONST>
1

>  <SCORE.INTER.POLAR>
-3.40835

>  <SCORE.INTER.ROT>
6

>  <SCORE.INTER.SOLV>
19.3796

>  <SCORE.INTER.VDW>
-19.7827

>  <SCORE.INTER.norm>
-0.826648

>  <SCORE.INTRA>
1.7118

>  <SCORE.INTRA.DIHEDRAL>
-4.34064

>  <SCORE.INTRA.DIHEDRAL.0>
10.8409

>  <SCORE.INTRA.POLAR>
0

>  <SCORE.INTRA.POLAR.0>
0

>  <SCORE.INTRA.REPUL>
0

>  <SCORE.INTRA.REPUL.0>
0

>  <SCORE.INTRA.SOLV>
-0.318461

>  <SCORE.INTRA.SOLV.lig_0>
-80.8302

>  <SCORE.INTRA.VDW>
4.04135

>  <SCORE.INTRA.VDW.0>
-4.23953

>  <SCORE.INTRA.norm>
0.0552193

>  <SCORE.RESTR>
0

>  <SCORE.RESTR.CAVITY>
0

>  <SCORE.RESTR.norm>
0

>  <SCORE.SYSTEM>
0

>  <SCORE.SYSTEM.CONST>
0

>  <SCORE.SYSTEM.DIHEDRAL>
0

>  <SCORE.SYSTEM.SOLV>
0

>  <SCORE.SYSTEM.norm>
0

>  <SCORE.heavy>
31

>  <SCORE.norm>
-0.771429

>  <RMSD>
5.709

$$$$
2fcz_lig
 OpenBabel11021811433D
libRbt.so/2013.1/901 2013/11/27
 31 33  0  0  0  0  0  0  0  0999 V2000
   15.3119   17.0807   33.3692 C   0  0  0  0  0  0  0  0  0  0  0  0
   16.8406   24.0426   38.1576 N   0  0  0  0  0  0  0  0  0  0  0  0
   15.5245   17.0254   31.9560 O   0  0  0  0  0  0  0  0  0  0  0  0
   16.5089   17.7595   34.0437 C   0  0  1  0  0  0  0  0  0  0  0  0
   13.9474   25.6175   34.5387 N   0  0  0  0  0  0  0  0  0  0  0  0
   16.5425   19.1751   33.7708 O   0  0  0  0  0  0  0  0  0  0  0  0
   16.1931   19.9054   34.9634 C   0  0  1  0  0  0  0  0  0  0  0  0
   10.6662   21.8382   34.3848 N   0  0  0  0  0  0  0  0  0  0  0  0
   15.2557   20.9654   34.7089 O   0  0  0  0  0  0  0  0  0  0  0  0
   15.7815   22.2850   34.9302 C   0  0  2  0  0  0  0  0  0  0  0  0
   15.7127   22.7800   30.5209 N   0  0  0  0  0  0  0  0  0  0  0  0
   17.1389   21.5740   36.8026 O   0  0  0  0  0  0  0  0  0  0  0  0
   16.0848   22.4623   36.4232 C   0  0  1  0  0  0  0  0  0  0  0  0
   14.6510   23.3497   33.0192 O   0  0  0  0  0  0  0  0  0  0  0  0
   16.5124   23.8989   36.7326 C   0  0  1  0  0  0  0  0  0  0  0  0
   13.0073   21.6661   32.8283 O   0  0  0  0  0  0  0  0  0  0  0  0
   15.3903   24.8722   36.3649 C   0  0  0  0  0  0  0  0  0  0  0  0
   10.9128   23.5407   30.4478 O   0  0  0  0  0  0  0  0  0  0  0  0
   15.0927   24.7545   34.8688 C   0  0  1  0  0  0  0  0  0  0  0  0
   13.3449   23.1781   28.9622 O   0  0  0  0  0  0  0  0  0  0  0  0
   14.7630   23.3174   34.4507 C   0  0  2  0  0  0  0  0  0  0  0  0
   15.5967   19.2123   37.2610 O   0  0  0  0  0  0  0  0  0  0  0  0
   14.3279   22.0808   32.4321 C   0  0  1  0  0  0  0  0  0  0  0  0
   17.7036   17.7511   36.1768 O   0  0  0  0  0  0  0  0  0  0  0  0
   11.9538   22.5506   32.4088 C   0  0  2  0  0  0  0  0  0  0  0  0
   10.6199   22.0051   32.9249 C   0  0  0  0  0  0  0  0  0  0  0  0
   11.9364   22.6384   30.8786 C   0  0  2  0  0  0  0  0  0  0  0  0
   13.2968   23.1426   30.3923 C   0  0  1  0  0  0  0  0  0  0  0  0
   14.4081   22.2260   30.9091 C   0  0  1  0  0  0  0  0  0  0  0  0
   15.5540   18.8570   35.8756 C   0  0  2  0  0  0  0  0  0  0  0  0
   16.4165   17.6353   35.5645 C   0  0  1  0  0  0  0  0  0  0  0  0
  3  1  1  0  0  0  0
  4  1  1  6  0  0  0
  4  6  1  0  0  0  0
  4 31  1  0  0  0  0
  6  7  1  0  0  0  0
  7  9  1  6  0  0  0
  7 30  1  0  0  0  0
 10  9  1  1  0  0  0
 10 13  1  0  0  0  0
 10 21  1  0  0  0  0
 13 12  1  6  0  0  0
 13 15  1  0  0  0  0
 15  2  1  1  0  0  0
 15 17  1  0  0  0  0
 16 25  1  0  0  0  0
 17 19  1  0  0  0  0
 19  5  1  1  0  0  0
 19 21  1  0  0  0  0
 21 14  1  6  0  0  0
 23 14  1  1  0  0  0
 23 16  1  0  0  0  0
 23 29  1  0  0  0  0
 25 26  1  6  0  0  0
 25 27  1  0  0  0  0
 26  8  1  0  0  0  0
 27 18  1  1  0  0  0
 27 28  1  0  0  0  0
 28 20  1  6  0  0  0
 28 29  1  0  0  0  0
 29 11  1  1  0  0  0
 30 22  1  1  0  0  0
 30 31  1  0  0  0  0
 31 24  1  1  0  0  0
M  END
>  <CHROM.1>
71.56369292,-114.24449124,-65.94573908,55.96482716,65.84990392,56.18666632
14.74644581,21.54560910,33.89089973,0.20839612,0.96183232,-2.69069683

>  <Name>
2fcz_lig

>  <RI>
1.40544e+07

>  <Rbt.Current_Directory>
/home/itssahil/PROJECTS/Mol_Feturizer/New_Systems/rnas/2fcz

>  <Rbt.Executable>
rbdock ($Id: //depot/dev/client3/rdock/2013.1/src/exe/rbdock.cxx#4 $)

>  <Rbt.Library>
libRbt.so (2013.1, Build901 2013/11/27)

>  <Rbt.Parameter_File>
/export/apps/rDock/src/rDock_2013.1_src/data/scripts/dock_solv.prm

>  <Rbt.Receptor>
prm/blind_docking_100.prm

>  <SCORE>
-14.0439

>  <SCORE.INTER>
-13.6819

>  <SCORE.INTER.CONST>
1

>  <SCORE.INTER.POLAR>
-1.16662

>  <SCORE.INTER.ROT>
6

>  <SCORE.INTER.SOLV>
20.5186

>  <SCORE.INTER.VDW>
-19.6721

>  <SCORE.INTER.norm>
-0.441353

>  <SCORE.INTRA>
-0.361948

>  <SCORE.INTRA.DIHEDRAL>
-2.81517

>  <SCORE.INTRA.DIHEDRAL.0>
10.8409

>  <SCORE.INTRA.POLAR>
0

>  <SCORE.INTRA.POLAR.0>
0

>  <SCORE.INTRA.REPUL>
0

>  <SCORE.INTRA.REPUL.0>
0

>  <SCORE.INTRA.SOLV>
-3.57849

>  <SCORE.INTRA.SOLV.lig_0>
-80.8302

>  <SCORE.INTRA.VDW>
2.83488

>  <SCORE.INTRA.VDW.0>
-4.23953

>  <SCORE.INTRA.norm>
-0.0116757

>  <SCORE.RESTR>
0

>  <SCORE.RESTR.CAVITY>
0

>  <SCORE.RESTR.norm>
0

>  <SCORE.SYSTEM>
0

>  <SCORE.SYSTEM.CONST>
0

>  <SCORE.SYSTEM.DIHEDRAL>
0

>  <SCORE.SYSTEM.SOLV>
0

>  <SCORE.SYSTEM.norm>
0

>  <SCORE.heavy>
31

>  <SCORE.norm>
-0.453029

>  <RMSD>
5.713

$$$$
2fcz_lig
 OpenBabel11021811433D
libRbt.so/2013.1/901 2013/11/27
 31 33  0  0  0  0  0  0  0  0999 V2000
    8.8042   15.1425   34.2908 C   0  0  0  0  0  0  0  0  0  0  0  0
    7.2147   22.2146   30.8714 N   0  0  0  0  0  0  0  0  0  0  0  0
    7.4019   15.0216   34.5445 O   0  0  0  0  0  0  0  0  0  0  0  0
    9.0262   15.8924   32.9729 C   0  0  1  0  0  0  0  0  0  0  0  0
   12.0853   22.1363   31.3387 N   0  0  0  0  0  0  0  0  0  0  0  0
    8.4946   17.2318   33.0255 O   0  0  0  0  0  0  0  0  0  0  0  0
    9.5789   18.1801   33.0785 C   0  0  1  0  0  0  0  0  0  0  0  0
    9.7216   18.2620   36.8062 N   0  0  0  0  0  0  0  0  0  0  0  0
    9.3689   19.2067   34.0630 O   0  0  0  0  0  0  0  0  0  0  0  0
    9.3909   20.5441   33.5360 C   0  0  2  0  0  0  0  0  0  0  0  0
   13.3668   23.0929   34.6051 N   0  0  0  0  0  0  0  0  0  0  0  0
    6.9986   20.5837   33.1762 O   0  0  0  0  0  0  0  0  0  0  0  0
    8.2595   20.7006   32.5124 C   0  0  1  0  0  0  0  0  0  0  0  0
   11.8009   20.9253   33.8684 O   0  0  0  0  0  0  0  0  0  0  0  0
    8.3288   22.0623   31.8173 C   0  0  1  0  0  0  0  0  0  0  0  0
   10.8185   20.7650   36.0090 O   0  0  0  0  0  0  0  0  0  0  0  0
    9.6571   22.2048   31.0711 C   0  0  0  0  0  0  0  0  0  0  0  0
   13.7931   19.2969   37.6103 O   0  0  0  0  0  0  0  0  0  0  0  0
   10.8098   22.0994   32.0716 C   0  0  1  0  0  0  0  0  0  0  0  0
   14.7542   21.8785   36.7948 O   0  0  0  0  0  0  0  0  0  0  0  0
   10.7517   20.8078   32.8946 C   0  0  2  0  0  0  0  0  0  0  0  0
   12.0402   17.9413   33.0800 O   0  0  0  0  0  0  0  0  0  0  0  0
   11.4218   21.6505   35.0473 C   0  0  1  0  0  0  0  0  0  0  0  0
   10.7646   16.2350   31.2882 O   0  0  0  0  0  0  0  0  0  0  0  0
   11.6832   19.7159   36.4779 C   0  0  2  0  0  0  0  0  0  0  0  0
   10.9037   18.8400   37.4618 C   0  0  0  0  0  0  0  0  0  0  0  0
   12.9075   20.3294   37.1665 C   0  0  2  0  0  0  0  0  0  0  0  0
   13.6384   21.2339   36.1719 C   0  0  1  0  0  0  0  0  0  0  0  0
   12.6802   22.2987   35.6333 C   0  0  1  0  0  0  0  0  0  0  0  0
   10.7987   17.3394   33.4593 C   0  0  2  0  0  0  0  0  0  0  0  0
   10.5189   16.0527   32.6851 C   0  0  1  0  0  0  0  0  0  0  0  0
  3  1  1  0  0  0  0
  4  1  1  1  0  0  0
  4  6  1  0  0  0  0
  4 31  1  0  0  0  0
  6  7  1  0  0  0  0
  7  9  1  1  0  0  0
  7 30  1  0  0  0  0
 10  9  1  6  0  0  0
 10 13  1  0  0  0  0
 10 21  1  0  0  0  0
 13 12  1  1  0  0  0
 13 15  1  0  0  0  0
 15  2  1  6  0  0  0
 15 17  1  0  0  0  0
 16 25  1  0  0  0  0
 17 19  1  0  0  0  0
 19  5  1  6  0  0  0
 19 21  1  0  0  0  0
 21 14  1  1  0  0  0
 23 14  1  6  0  0  0
 23 16  1  0  0  0  0
 23 29  1  0  0  0  0
 25 26  1  1  0  0  0
 25 27  1  0  0  0  0
 26  8  1  0  0  0  0
 27 18  1  6  0  0  0
 27 28  1  0  0  0  0
 28 20  1  1  0  0  0
 28 29  1  0  0  0  0
 29 11  1  6  0  0  0
 30 22  1  6  0  0  0
 30 31  1  0  0  0  0
 31 24  1  6  0  0  0
M  END
>  <CHROM.1>
61.79026489,-122.47348045,61.46415333,-40.05172920,87.00222224,59.27495823
10.57185544,19.63118378,34.06223436,-2.74008842,-0.79523049,-0.42488656

>  <Name>
2fcz_lig

>  <RI>
2.26996e+07

>  <Rbt.Current_Directory>
/home/itssahil/PROJECTS/Mol_Feturizer/New_Systems/rnas/2fcz

>  <Rbt.Executable>
rbdock ($Id: //depot/dev/client3/rdock/2013.1/src/exe/rbdock.cxx#4 $)

>  <Rbt.Library>
libRbt.so (2013.1, Build901 2013/11/27)

>  <Rbt.Parameter_File>
/export/apps/rDock/src/rDock_2013.1_src/data/scripts/dock_solv.prm

>  <Rbt.Receptor>
prm/pocket_docking_4.prm

>  <SCORE>
-11.5505

>  <SCORE.INTER>
-14.6352

>  <SCORE.INTER.CONST>
1

>  <SCORE.INTER.POLAR>
-1.62004

>  <SCORE.INTER.ROT>
6

>  <SCORE.INTER.SOLV>
11.668

>  <SCORE.INTER.VDW>
-15.846

>  <SCORE.INTER.norm>
-0.472104

>  <SCORE.INTRA>
3.08469

>  <SCORE.INTRA.DIHEDRAL>
1.1852

>  <SCORE.INTRA.DIHEDRAL.0>
10.8409

>  <SCORE.INTRA.POLAR>
0

>  <SCORE.INTRA.POLAR.0>
0

>  <SCORE.INTRA.REPUL>
0

>  <SCORE.INTRA.REPUL.0>
0

>  <SCORE.INTRA.SOLV>
1.09302

>  <SCORE.INTRA.SOLV.lig_0>
-80.8302

>  <SCORE.INTRA.VDW>
1.94559

>  <SCORE.INTRA.VDW.0>
-4.23953

>  <SCORE.INTRA.norm>
0.0995063

>  <SCORE.RESTR>
0

>  <SCORE.RESTR.CAVITY>
0

>  <SCORE.RESTR.norm>
0

>  <SCORE.SYSTEM>
0

>  <SCORE.SYSTEM.CONST>
0

>  <SCORE.SYSTEM.DIHEDRAL>
0

>  <SCORE.SYSTEM.SOLV>
0

>  <SCORE.SYSTEM.norm>
0

>  <SCORE.heavy>
31

>  <SCORE.norm>
-0.372598

>  <RMSD>
5.726

$$$$
2fcz_lig
 OpenBabel11021811433D
libRbt.so/2013.1/901 2013/11/27
 31 33  0  0  0  0  0  0  0  0999 V2000
    9.3229   17.8012   38.5740 C   0  0  0  0  0  0  0  0  0  0  0  0
    8.2487   22.8452   31.9881 N   0  0  0  0  0  0  0  0  0  0  0  0
    9.8679   18.9477   39.2326 O   0  0  0  0  0  0  0  0  0  0  0  0
    8.0755   18.2071   37.7816 C   0  0  1  0  0  0  0  0  0  0  0  0
   12.8715   22.0295   33.3707 N   0  0  0  0  0  0  0  0  0  0  0  0
    8.3851   19.1761   36.7594 O   0  0  0  0  0  0  0  0  0  0  0  0
    8.2995   18.5536   35.4621 C   0  0  1  0  0  0  0  0  0  0  0  0
   14.1399   16.1315   33.4183 N   0  0  0  0  0  0  0  0  0  0  0  0
    9.4093   18.8903   34.6123 O   0  0  0  0  0  0  0  0  0  0  0  0
    9.6452   20.3023   34.4801 C   0  0  2  0  0  0  0  0  0  0  0  0
   12.4825   19.6672   38.0235 N   0  0  0  0  0  0  0  0  0  0  0  0
    7.4040   20.7362   33.6786 O   0  0  0  0  0  0  0  0  0  0  0  0
    8.7867   20.8510   33.3337 C   0  0  1  0  0  0  0  0  0  0  0  0
   11.9401   20.2769   35.3726 O   0  0  0  0  0  0  0  0  0  0  0  0
    9.1081   22.3220   33.0590 C   0  0  1  0  0  0  0  0  0  0  0  0
   12.5003   18.1033   34.6416 O   0  0  0  0  0  0  0  0  0  0  0  0
   10.5768   22.4731   32.6567 C   0  0  0  0  0  0  0  0  0  0  0  0
   16.1349   18.5760   35.0083 O   0  0  0  0  0  0  0  0  0  0  0  0
   11.4647   21.9763   33.7993 C   0  0  1  0  0  0  0  0  0  0  0  0
   15.2100   18.8554   37.7138 O   0  0  0  0  0  0  0  0  0  0  0  0
   11.1307   20.5397   34.2156 C   0  0  2  0  0  0  0  0  0  0  0  0
    7.7364   16.2646   34.7149 O   0  0  0  0  0  0  0  0  0  0  0  0
   11.9997   18.8905   35.7382 C   0  0  1  0  0  0  0  0  0  0  0  0
    6.0969   17.1938   36.7638 O   0  0  0  0  0  0  0  0  0  0  0  0
   13.8365   18.4383   34.2285 C   0  0  2  0  0  0  0  0  0  0  0  0
   14.2209   17.5505   33.0423 C   0  0  0  0  0  0  0  0  0  0  0  0
   14.8052   18.2160   35.3954 C   0  0  2  0  0  0  0  0  0  0  0  0
   14.3679   19.0817   36.5789 C   0  0  1  0  0  0  0  0  0  0  0  0
   12.9204   18.7578   36.9555 C   0  0  1  0  0  0  0  0  0  0  0  0
    8.3124   17.0535   35.7605 C   0  0  2  0  0  0  0  0  0  0  0  0
    7.4863   17.0046   37.0444 C   0  0  1  0  0  0  0  0  0  0  0  0
  3  1  1  0  0  0  0
  4  1  1  6  0  0  0
  4  6  1  0  0  0  0
  4 31  1  0  0  0  0
  6  7  1  0  0  0  0
  7  9  1  6  0  0  0
  7 30  1  0  0  0  0
 10  9  1  6  0  0  0
 10 13  1  0  0  0  0
 10 21  1  0  0  0  0
 13 12  1  1  0  0  0
 13 15  1  0  0  0  0
 15  2  1  6  0  0  0
 15 17  1  0  0  0  0
 16 25  1  0  0  0  0
 17 19  1  0  0  0  0
 19  5  1  6  0  0  0
 19 21  1  0  0  0  0
 21 14  1  1  0  0  0
 23 14  1  6  0  0  0
 23 16  1  0  0  0  0
 23 29  1  0  0  0  0
 25 26  1  6  0  0  0
 25 27  1  0  0  0  0
 26  8  1  0  0  0  0
 27 18  1  6  0  0  0
 27 28  1  0  0  0  0
 28 20  1  1  0  0  0
 28 29  1  0  0  0  0
 29 11  1  1  0  0  0
 30 22  1  6  0  0  0
 30 31  1  0  0  0  0
 31 24  1  6  0  0  0
M  END
>  <CHROM.1>
61.45198889,-52.74070999,-87.24768728,68.63591839,57.61244449,-58.72062247
10.85042219,19.19065679,35.29713675,-3.12520550,0.05466101,-0.82699195

>  <Name>
2fcz_lig

>  <RI>
2.76032e+07

>  <Rbt.Current_Directory>
/home/itssahil/PROJECTS/Mol_Feturizer/New_Systems/rnas/2fcz

>  <Rbt.Executable>
rbdock ($Id: //depot/dev/client3/rdock/2013.1/src/exe/rbdock.cxx#4 $)

>  <Rbt.Library>
libRbt.so (2013.1, Build901 2013/11/27)

>  <Rbt.Parameter_File>
/export/apps/rDock/src/rDock_2013.1_src/data/scripts/dock_solv.prm

>  <Rbt.Receptor>
prm/pocket_docking_8.prm

>  <SCORE>
-23.2749

>  <SCORE.INTER>
-20.1083

>  <SCORE.INTER.CONST>
1

>  <SCORE.INTER.POLAR>
-3.43333

>  <SCORE.INTER.ROT>
6

>  <SCORE.INTER.SOLV>
13.0874

>  <SCORE.INTER.VDW>
-13.9236

>  <SCORE.INTER.norm>
-0.648656

>  <SCORE.INTRA>
-3.16655

>  <SCORE.INTRA.DIHEDRAL>
-6.95966

>  <SCORE.INTRA.DIHEDRAL.0>
10.8409

>  <SCORE.INTRA.POLAR>
0

>  <SCORE.INTRA.POLAR.0>
0

>  <SCORE.INTRA.REPUL>
0

>  <SCORE.INTRA.REPUL.0>
0

>  <SCORE.INTRA.SOLV>
-0.847694

>  <SCORE.INTRA.SOLV.lig_0>
-80.8302

>  <SCORE.INTRA.VDW>
0.737125

>  <SCORE.INTRA.VDW.0>
-4.23953

>  <SCORE.INTRA.norm>
-0.102147

>  <SCORE.RESTR>
0

>  <SCORE.RESTR.CAVITY>
0

>  <SCORE.RESTR.norm>
0

>  <SCORE.SYSTEM>
0

>  <SCORE.SYSTEM.CONST>
0

>  <SCORE.SYSTEM.DIHEDRAL>
0

>  <SCORE.SYSTEM.SOLV>
0

>  <SCORE.SYSTEM.norm>
0

>  <SCORE.heavy>
31

>  <SCORE.norm>
-0.750803

>  <RMSD>
5.746

$$$$
2fcz_lig
 OpenBabel11021811433D
libRbt.so/2013.1/901 2013/11/27
 31 33  0  0  0  0  0  0  0  0999 V2000
    6.7925   20.6356   31.6294 C   0  0  0  0  0  0  0  0  0  0  0  0
   14.0782   22.8876   35.9476 N   0  0  0  0  0  0  0  0  0  0  0  0
    6.1191   21.0431   30.4352 O   0  0  0  0  0  0  0  0  0  0  0  0
    7.2409   21.8726   32.4151 C   0  0  1  0  0  0  0  0  0  0  0  0
   12.5637   18.5188   37.5499 N   0  0  0  0  0  0  0  0  0  0  0  0
    7.9235   21.5119   33.6332 O   0  0  0  0  0  0  0  0  0  0  0  0
    9.3300   21.7986   33.5016 C   0  0  1  0  0  0  0  0  0  0  0  0
    9.6361   15.7296   32.5591 N   0  0  0  0  0  0  0  0  0  0  0  0
   10.1605   20.7279   33.9823 O   0  0  0  0  0  0  0  0  0  0  0  0
   10.8263   21.0088   35.2252 C   0  0  2  0  0  0  0  0  0  0  0  0
    7.3913   18.7989   37.2485 N   0  0  0  0  0  0  0  0  0  0  0  0
   11.6965   23.1232   34.4340 O   0  0  0  0  0  0  0  0  0  0  0  0
   12.0813   21.8450   34.9463 C   0  0  1  0  0  0  0  0  0  0  0  0
   10.0291   19.0066   36.4166 O   0  0  0  0  0  0  0  0  0  0  0  0
   12.9027   22.0495   36.2214 C   0  0  1  0  0  0  0  0  0  0  0  0
    9.5908   17.8982   34.3789 O   0  0  0  0  0  0  0  0  0  0  0  0
   13.3559   20.6978   36.7774 C   0  0  0  0  0  0  0  0  0  0  0  0
    9.3253   14.5509   35.8932 O   0  0  0  0  0  0  0  0  0  0  0  0
   12.1247   19.8528   37.1105 C   0  0  1  0  0  0  0  0  0  0  0  0
    7.1395   15.9500   37.1252 O   0  0  0  0  0  0  0  0  0  0  0  0
   11.1854   19.6917   35.9103 C   0  0  2  0  0  0  0  0  0  0  0  0
   10.7013   22.7545   31.6794 O   0  0  0  0  0  0  0  0  0  0  0  0
    9.0365   18.7250   35.4191 C   0  0  1  0  0  0  0  0  0  0  0  0
    8.2673   24.0584   32.0325 O   0  0  0  0  0  0  0  0  0  0  0  0
   10.0500   16.6097   34.8227 C   0  0  2  0  0  0  0  0  0  0  0  0
   10.6394   15.8593   33.6258 C   0  0  0  0  0  0  0  0  0  0  0  0
    8.8763   15.8237   35.4179 C   0  0  2  0  0  0  0  0  0  0  0  0
    8.2811   16.6201   36.5810 C   0  0  1  0  0  0  0  0  0  0  0  0
    7.8644   18.0122   36.1010 C   0  0  1  0  0  0  0  0  0  0  0  0
    9.5400   21.9815   31.9977 C   0  0  2  0  0  0  0  0  0  0  0  0
    8.2461   22.6932   31.6072 C   0  0  1  0  0  0  0  0  0  0  0  0
  3  1  1  0  0  0  0
  4  1  1  6  0  0  0
  4  6  1  0  0  0  0
  4 31  1  0  0  0  0
  6  7  1  0  0  0  0
  7  9  1  6  0  0  0
  7 30  1  0  0  0  0
 10  9  1  6  0  0  0
 10 13  1  0  0  0  0
 10 21  1  0  0  0  0
 13 12  1  1  0  0  0
 13 15  1  0  0  0  0
 15  2  1  6  0  0  0
 15 17  1  0  0  0  0
 16 25  1  0  0  0  0
 17 19  1  0  0  0  0
 19  5  1  6  0  0  0
 19 21  1  0  0  0  0
 21 14  1  1  0  0  0
 23 14  1  1  0  0  0
 23 16  1  0  0  0  0
 23 29  1  0  0  0  0
 25 26  1  6  0  0  0
 25 27  1  0  0  0  0
 26  8  1  0  0  0  0
 27 18  1  1  0  0  0
 27 28  1  0  0  0  0
 28 20  1  6  0  0  0
 28 29  1  0  0  0  0
 29 11  1  1  0  0  0
 30 22  1  1  0  0  0
 30 31  1  0  0  0  0
 31 24  1  1  0  0  0
M  END
>  <CHROM.1>
179.83291242,-107.54193484,-81.38010105,57.09123595,59.72239932,-57.70690232
9.74173491,19.76212769,34.56716860,1.54248624,-0.63072866,-0.50621080

>  <Name>
2fcz_lig

>  <RI>
2.29611e+07

>  <Rbt.Current_Directory>
/home/itssahil/PROJECTS/Mol_Feturizer/New_Systems/rnas/2fcz

>  <Rbt.Executable>
rbdock ($Id: //depot/dev/client3/rdock/2013.1/src/exe/rbdock.cxx#4 $)

>  <Rbt.Library>
libRbt.so (2013.1, Build901 2013/11/27)

>  <Rbt.Parameter_File>
/export/apps/rDock/src/rDock_2013.1_src/data/scripts/dock_solv.prm

>  <Rbt.Receptor>
prm/pocket_docking_3.prm

>  <SCORE>
-15.2161

>  <SCORE.INTER>
-14.7202

>  <SCORE.INTER.CONST>
1

>  <SCORE.INTER.POLAR>
-1.67774

>  <SCORE.INTER.ROT>
6

>  <SCORE.INTER.SOLV>
15.3274

>  <SCORE.INTER.VDW>
-16.9301

>  <SCORE.INTER.norm>
-0.474845

>  <SCORE.INTRA>
-0.504605

>  <SCORE.INTRA.DIHEDRAL>
-2.24415

>  <SCORE.INTRA.DIHEDRAL.0>
10.8409

>  <SCORE.INTRA.POLAR>
0

>  <SCORE.INTRA.POLAR.0>
0

>  <SCORE.INTRA.REPUL>
0

>  <SCORE.INTRA.REPUL.0>
0

>  <SCORE.INTRA.SOLV>
-2.46186

>  <SCORE.INTRA.SOLV.lig_0>
-80.8302

>  <SCORE.INTRA.VDW>
1.8484

>  <SCORE.INTRA.VDW.0>
-4.23953

>  <SCORE.INTRA.norm>
-0.0162776

>  <SCORE.RESTR>
0.00871434

>  <SCORE.RESTR.CAVITY>
0.00871434

>  <SCORE.RESTR.norm>
0.000281108

>  <SCORE.SYSTEM>
0

>  <SCORE.SYSTEM.CONST>
0

>  <SCORE.SYSTEM.DIHEDRAL>
0

>  <SCORE.SYSTEM.SOLV>
0

>  <SCORE.SYSTEM.norm>
0

>  <SCORE.heavy>
31

>  <SCORE.norm>
-0.490841

>  <RMSD>
5.749

$$$$
2fcz_lig
 OpenBabel11021811433D
libRbt.so/2013.1/901 2013/11/27
 31 33  0  0  0  0  0  0  0  0999 V2000
    5.7064   19.8391   41.7057 C   0  0  0  0  0  0  0  0  0  0  0  0
   12.8224   16.3454   41.9111 N   0  0  0  0  0  0  0  0  0  0  0  0
    5.7093   21.2668   41.6217 O   0  0  0  0  0  0  0  0  0  0  0  0
    5.7158   19.2403   40.2951 C   0  0  1  0  0  0  0  0  0  0  0  0
   12.7996   17.0382   37.0669 N   0  0  0  0  0  0  0  0  0  0  0  0
    6.9149   19.5911   39.5750 O   0  0  0  0  0  0  0  0  0  0  0  0
    7.7594   18.4298   39.4483 C   0  0  1  0  0  0  0  0  0  0  0  0
   12.6039   21.2151   34.8099 N   0  0  0  0  0  0  0  0  0  0  0  0
    9.1376   18.7125   39.7446 O   0  0  0  0  0  0  0  0  0  0  0  0
   10.0119   17.5771   39.6285 C   0  0  2  0  0  0  0  0  0  0  0  0
    7.7541   16.8946   35.6830 N   0  0  0  0  0  0  0  0  0  0  0  0
   10.1481   17.2696   42.0244 O   0  0  0  0  0  0  0  0  0  0  0  0
   10.9310   17.5219   40.8550 C   0  0  1  0  0  0  0  0  0  0  0  0
   10.0193   17.4933   37.1674 O   0  0  0  0  0  0  0  0  0  0  0  0
   11.9772   16.4141   40.7111 C   0  0  1  0  0  0  0  0  0  0  0  0
    9.8001   19.8108   36.7753 O   0  0  0  0  0  0  0  0  0  0  0  0
   12.8522   16.6737   39.4828 C   0  0  0  0  0  0  0  0  0  0  0  0
   10.9593   19.6492   33.2828 O   0  0  0  0  0  0  0  0  0  0  0  0
   11.9712   16.6895   38.2321 C   0  0  1  0  0  0  0  0  0  0  0  0
    8.5612   18.0694   33.2005 O   0  0  0  0  0  0  0  0  0  0  0  0
   10.8230   17.6988   38.3399 C   0  0  2  0  0  0  0  0  0  0  0  0
    7.5312   16.0803   40.1851 O   0  0  0  0  0  0  0  0  0  0  0  0
    9.0977   18.5601   36.8994 C   0  0  1  0  0  0  0  0  0  0  0  0
    5.1781   17.1482   39.1498 O   0  0  0  0  0  0  0  0  0  0  0  0
   10.7490   19.8570   35.6957 C   0  0  2  0  0  0  0  0  0  0  0  0
   11.4383   21.2237   35.7058 C   0  0  0  0  0  0  0  0  0  0  0  0
   10.0223   19.6376   34.3641 C   0  0  2  0  0  0  0  0  0  0  0  0
    9.3069   18.2855   34.4030 C   0  0  1  0  0  0  0  0  0  0  0  0
    8.3549   18.2331   35.6000 C   0  0  1  0  0  0  0  0  0  0  0  0
    7.2014   17.4422   40.4745 C   0  0  2  0  0  0  0  0  0  0  0  0
    5.7028   17.7128   40.3543 C   0  0  1  0  0  0  0  0  0  0  0  0
  3  1  1  0  0  0  0
  4  1  1  1  0  0  0
  4  6  1  0  0  0  0
  4 31  1  0  0  0  0
  6  7  1  0  0  0  0
  7  9  1  1  0  0  0
  7 30  1  0  0  0  0
 10  9  1  1  0  0  0
 10 13  1  0  0  0  0
 10 21  1  0  0  0  0
 13 12  1  1  0  0  0
 13 15  1  0  0  0  0
 15  2  1  1  0  0  0
 15 17  1  0  0  0  0
 16 25  1  0  0  0  0
 17 19  1  0  0  0  0
 19  5  1  6  0  0  0
 19 21  1  0  0  0  0
 21 14  1  6  0  0  0
 23 14  1  6  0  0  0
 23 16  1  0  0  0  0
 23 29  1  0  0  0  0
 25 26  1  6  0  0  0
 25 27  1  0  0  0  0
 26  8  1  0  0  0  0
 27 18  1  6  0  0  0
 27 28  1  0  0  0  0
 28 20  1  6  0  0  0
 28 29  1  0  0  0  0
 29 11  1  1  0  0  0
 30 22  1  6  0  0  0
 30 31  1  0  0  0  0
 31 24  1  6  0  0  0
M  END
>  <CHROM.1>
62.94280273,-179.97821265,-133.91351768,70.77952513,56.86770289,168.07949657
9.30055845,18.32629841,38.20840415,2.10617986,-0.26059053,1.86777931

>  <Name>
2fcz_lig

>  <RI>
1.32928e+07

>  <Rbt.Current_Directory>
/home/itssahil/PROJECTS/Mol_Feturizer/New_Systems/rnas/2fcz

>  <Rbt.Executable>
rbdock ($Id: //depot/dev/client3/rdock/2013.1/src/exe/rbdock.cxx#4 $)

>  <Rbt.Library>
libRbt.so (2013.1, Build901 2013/11/27)

>  <Rbt.Parameter_File>
/export/apps/rDock/src/rDock_2013.1_src/data/scripts/dock_solv.prm

>  <Rbt.Receptor>
prm/pocket_docking_7.prm

>  <SCORE>
-13.1583

>  <SCORE.INTER>
-12.2054

>  <SCORE.INTER.CONST>
1

>  <SCORE.INTER.POLAR>
-1.0344

>  <SCORE.INTER.ROT>
6

>  <SCORE.INTER.SOLV>
14.6813

>  <SCORE.INTER.VDW>
-17.1827

>  <SCORE.INTER.norm>
-0.393722

>  <SCORE.INTRA>
-0.952919

>  <SCORE.INTRA.DIHEDRAL>
-3.28628

>  <SCORE.INTRA.DIHEDRAL.0>
10.8409

>  <SCORE.INTRA.POLAR>
0

>  <SCORE.INTRA.POLAR.0>
0

>  <SCORE.INTRA.REPUL>
0

>  <SCORE.INTRA.REPUL.0>
0

>  <SCORE.INTRA.SOLV>
-2.00461

>  <SCORE.INTRA.SOLV.lig_0>
-80.8302

>  <SCORE.INTRA.VDW>
1.69253

>  <SCORE.INTRA.VDW.0>
-4.23953

>  <SCORE.INTRA.norm>
-0.0307393

>  <SCORE.RESTR>
0

>  <SCORE.RESTR.CAVITY>
0

>  <SCORE.RESTR.norm>
0

>  <SCORE.SYSTEM>
0

>  <SCORE.SYSTEM.CONST>
0

>  <SCORE.SYSTEM.DIHEDRAL>
0

>  <SCORE.SYSTEM.SOLV>
0

>  <SCORE.SYSTEM.norm>
0

>  <SCORE.heavy>
31

>  <SCORE.norm>
-0.424462

>  <RMSD>
5.754

$$$$
2fcz_lig
 OpenBabel11021811433D
libRbt.so/2013.1/901 2013/11/27
 31 33  0  0  0  0  0  0  0  0999 V2000
   13.9104   11.8317   35.2602 C   0  0  0  0  0  0  0  0  0  0  0  0
   16.5383   15.4872   33.3964 N   0  0  0  0  0  0  0  0  0  0  0  0
   14.3868   11.8721   33.9123 O   0  0  0  0  0  0  0  0  0  0  0  0
   12.6227   12.6545   35.3760 C   0  0  1  0  0  0  0  0  0  0  0  0
   12.5297   18.2640   33.8059 N   0  0  0  0  0  0  0  0  0  0  0  0
   12.6027   13.7484   34.4366 O   0  0  0  0  0  0  0  0  0  0  0  0
   11.6472   13.4718   33.3934 C   0  0  1  0  0  0  0  0  0  0  0  0
   10.0274   21.6270   32.5146 N   0  0  0  0  0  0  0  0  0  0  0  0
   12.1602   13.7613   32.0819 O   0  0  0  0  0  0  0  0  0  0  0  0
   13.0148   14.9158   32.0233 C   0  0  2  0  0  0  0  0  0  0  0  0
    8.8819   15.4143   31.0110 N   0  0  0  0  0  0  0  0  0  0  0  0
   15.0322   13.5828   31.9391 O   0  0  0  0  0  0  0  0  0  0  0  0
   14.3527   14.5867   32.6972 C   0  0  1  0  0  0  0  0  0  0  0  0
   11.2070   16.5869   31.9662 O   0  0  0  0  0  0  0  0  0  0  0  0
   15.2446   15.8270   32.7880 C   0  0  1  0  0  0  0  0  0  0  0  0
   10.0198   18.0268   33.4118 O   0  0  0  0  0  0  0  0  0  0  0  0
   14.5558   16.9101   33.6212 C   0  0  0  0  0  0  0  0  0  0  0  0
    8.8492   20.2665   30.7320 O   0  0  0  0  0  0  0  0  0  0  0  0
   13.2357   17.2964   32.9511 C   0  0  1  0  0  0  0  0  0  0  0  0
    7.5952   17.7776   30.0345 O   0  0  0  0  0  0  0  0  0  0  0  0
   12.3236   16.0870   32.7187 C   0  0  2  0  0  0  0  0  0  0  0  0
   10.1155   11.5802   32.9566 O   0  0  0  0  0  0  0  0  0  0  0  0
   10.0107   16.7528   32.7411 C   0  0  1  0  0  0  0  0  0  0  0  0
   10.2138   12.3276   35.6364 O   0  0  0  0  0  0  0  0  0  0  0  0
   10.0552   19.1636   32.5316 C   0  0  2  0  0  0  0  0  0  0  0  0
   10.0945   20.4387   33.3775 C   0  0  0  0  0  0  0  0  0  0  0  0
    8.8115   19.1577   31.6356 C   0  0  2  0  0  0  0  0  0  0  0  0
    8.7772   17.8523   30.8381 C   0  0  1  0  0  0  0  0  0  0  0  0
    8.8113   16.6566   31.7928 C   0  0  1  0  0  0  0  0  0  0  0  0
   11.3701   11.9730   33.5217 C   0  0  2  0  0  0  0  0  0  0  0  0
   11.4010   11.7997   35.0390 C   0  0  1  0  0  0  0  0  0  0  0  0
  3  1  1  0  0  0  0
  4  1  1  6  0  0  0
  4  6  1  0  0  0  0
  4 31  1  0  0  0  0
  6  7  1  0  0  0  0
  7  9  1  6  0  0  0
  7 30  1  0  0  0  0
 10  9  1  1  0  0  0
 10 13  1  0  0  0  0
 10 21  1  0  0  0  0
 13 12  1  6  0  0  0
 13 15  1  0  0  0  0
 15  2  1  1  0  0  0
 15 17  1  0  0  0  0
 16 25  1  0  0  0  0
 17 19  1  0  0  0  0
 19  5  1  1  0  0  0
 19 21  1  0  0  0  0
 21 14  1  6  0  0  0
 23 14  1  6  0  0  0
 23 16  1  0  0  0  0
 23 29  1  0  0  0  0
 25 26  1  1  0  0  0
 25 27  1  0  0  0  0
 26  8  1  0  0  0  0
 27 18  1  6  0  0  0
 27 28  1  0  0  0  0
 28 20  1  1  0  0  0
 28 29  1  0  0  0  0
 29 11  1  6  0  0  0
 30 22  1  1  0  0  0
 30 31  1  0  0  0  0
 31 24  1  1  0  0  0
M  END
>  <CHROM.1>
-30.38359166,-36.42788108,71.88713982,131.27074827,84.48313329,-175.67178456
11.60991392,15.70164163,32.90052617,1.03811775,0.18713766,2.91992003

>  <Name>
2fcz_lig

>  <RI>
0

>  <Rbt.Current_Directory>
/home/itssahil/PROJECTS/Mol_Feturizer/New_Systems/rnas/2fcz

>  <Rbt.Executable>
rbdock ($Id: //depot/dev/client3/rdock/2013.1/src/exe/rbdock.cxx#4 $)

>  <Rbt.Library>
libRbt.so (2013.1, Build901 2013/11/27)

>  <Rbt.Parameter_File>
/export/apps/rDock/src/rDock_2013.1_src/data/scripts/dock_solv.prm

>  <Rbt.Receptor>
prm/blind_docking_40.prm

>  <SCORE>
14.0521

>  <SCORE.INTER>
-1.39102

>  <SCORE.INTER.CONST>
1

>  <SCORE.INTER.POLAR>
0

>  <SCORE.INTER.ROT>
6

>  <SCORE.INTER.SOLV>
20.5729

>  <SCORE.INTER.VDW>
-15.385

>  <SCORE.INTER.norm>
-0.0448716

>  <SCORE.INTRA>
7.12183

>  <SCORE.INTRA.DIHEDRAL>
4.04961

>  <SCORE.INTRA.DIHEDRAL.0>
10.8409

>  <SCORE.INTRA.POLAR>
0

>  <SCORE.INTRA.POLAR.0>
0

>  <SCORE.INTRA.REPUL>
0

>  <SCORE.INTRA.REPUL.0>
0

>  <SCORE.INTRA.SOLV>
2.76477

>  <SCORE.INTRA.SOLV.lig_0>
-80.8302

>  <SCORE.INTRA.VDW>
3.71464

>  <SCORE.INTRA.VDW.0>
-4.23953

>  <SCORE.INTRA.norm>
0.229736

>  <SCORE.RESTR>
8.32125

>  <SCORE.RESTR.CAVITY>
8.32125

>  <SCORE.RESTR.norm>
0.268428

>  <SCORE.SYSTEM>
0

>  <SCORE.SYSTEM.CONST>
0

>  <SCORE.SYSTEM.DIHEDRAL>
0

>  <SCORE.SYSTEM.SOLV>
0

>  <SCORE.SYSTEM.norm>
0

>  <SCORE.heavy>
31

>  <SCORE.norm>
0.453292

>  <RMSD>
5.774

$$$$
2fcz_lig
 OpenBabel11021811433D
libRbt.so/2013.1/901 2013/11/27
 31 33  0  0  0  0  0  0  0  0999 V2000
   15.3243   17.1599   33.4423 C   0  0  0  0  0  0  0  0  0  0  0  0
   16.6860   24.3138   38.1955 N   0  0  0  0  0  0  0  0  0  0  0  0
   15.5214   17.1921   32.0261 O   0  0  0  0  0  0  0  0  0  0  0  0
   16.5137   17.8254   34.1429 C   0  0  1  0  0  0  0  0  0  0  0  0
   14.0636   25.6429   34.2835 N   0  0  0  0  0  0  0  0  0  0  0  0
   16.5342   19.2502   33.9211 O   0  0  0  0  0  0  0  0  0  0  0  0
   16.1760   19.9337   35.1386 C   0  0  1  0  0  0  0  0  0  0  0  0
   10.3969   22.5198   33.4218 N   0  0  0  0  0  0  0  0  0  0  0  0
   15.2289   20.9932   34.9206 O   0  0  0  0  0  0  0  0  0  0  0  0
   15.7768   22.3145   35.0645 C   0  0  2  0  0  0  0  0  0  0  0  0
   16.3287   22.1533   30.9647 N   0  0  0  0  0  0  0  0  0  0  0  0
   16.9974   21.7336   37.0711 O   0  0  0  0  0  0  0  0  0  0  0  0
   15.9935   22.6103   36.5538 C   0  0  1  0  0  0  0  0  0  0  0  0
   14.7948   23.2395   33.0045 O   0  0  0  0  0  0  0  0  0  0  0  0
   16.4413   24.0578   36.7694 C   0  0  1  0  0  0  0  0  0  0  0  0
   12.9926   21.7749   32.5806 O   0  0  0  0  0  0  0  0  0  0  0  0
   15.3713   25.0218   36.2524 C   0  0  0  0  0  0  0  0  0  0  0  0
   11.8895   23.5109   29.5249 O   0  0  0  0  0  0  0  0  0  0  0  0
   15.1621   24.7850   34.7554 C   0  0  1  0  0  0  0  0  0  0  0  0
   14.5172   22.6075   28.7952 O   0  0  0  0  0  0  0  0  0  0  0  0
   14.8186   23.3256   34.4379 C   0  0  2  0  0  0  0  0  0  0  0  0
   15.5829   19.1528   37.4087 O   0  0  0  0  0  0  0  0  0  0  0  0
   14.4200   21.9473   32.5053 C   0  0  1  0  0  0  0  0  0  0  0  0
   17.7053   17.7517   36.2765 O   0  0  0  0  0  0  0  0  0  0  0  0
   12.2367   22.7124   31.7946 C   0  0  2  0  0  0  0  0  0  0  0  0
   10.7454   22.4325   31.9962 C   0  0  0  0  0  0  0  0  0  0  0  0
   12.6111   22.5617   30.3159 C   0  0  2  0  0  0  0  0  0  0  0  0
   14.1136   22.8024   30.1545 C   0  0  1  0  0  0  0  0  0  0  0  0
   14.8954   21.8412   31.0528 C   0  0  1  0  0  0  0  0  0  0  0  0
   15.5456   18.8472   36.0113 C   0  0  2  0  0  0  0  0  0  0  0  0
   16.4203   17.6457   35.6581 C   0  0  1  0  0  0  0  0  0  0  0  0
  3  1  1  0  0  0  0
  4  1  1  6  0  0  0
  4  6  1  0  0  0  0
  4 31  1  0  0  0  0
  6  7  1  0  0  0  0
  7  9  1  6  0  0  0
  7 30  1  0  0  0  0
 10  9  1  1  0  0  0
 10 13  1  0  0  0  0
 10 21  1  0  0  0  0
 13 12  1  6  0  0  0
 13 15  1  0  0  0  0
 15  2  1  1  0  0  0
 15 17  1  0  0  0  0
 16 25  1  0  0  0  0
 17 19  1  0  0  0  0
 19  5  1  1  0  0  0
 19 21  1  0  0  0  0
 21 14  1  6  0  0  0
 23 14  1  6  0  0  0
 23 16  1  0  0  0  0
 23 29  1  0  0  0  0
 25 26  1  6  0  0  0
 25 27  1  0  0  0  0
 26  8  1  0  0  0  0
 27 18  1  6  0  0  0
 27 28  1  0  0  0  0
 28 20  1  6  0  0  0
 28 29  1  0  0  0  0
 29 11  1  1  0  0  0
 30 22  1  1  0  0  0
 30 31  1  0  0  0  0
 31 24  1  1  0  0  0
M  END
>  <CHROM.1>
69.90193477,-108.53385458,-74.29261826,58.35375933,78.56174368,57.41154884
14.90367014,21.56030312,33.80662145,0.05659651,1.04115915,-2.62105855

>  <Name>
2fcz_lig

>  <RI>
0

>  <Rbt.Current_Directory>
/home/itssahil/PROJECTS/Mol_Feturizer/New_Systems/rnas/2fcz

>  <Rbt.Executable>
rbdock ($Id: //depot/dev/client3/rdock/2013.1/src/exe/rbdock.cxx#4 $)

>  <Rbt.Library>
libRbt.so (2013.1, Build901 2013/11/27)

>  <Rbt.Parameter_File>
/export/apps/rDock/src/rDock_2013.1_src/data/scripts/dock_solv.prm

>  <Rbt.Receptor>
prm/blind_docking_80.prm

>  <SCORE>
-12.2426

>  <SCORE.INTER>
-11.6997

>  <SCORE.INTER.CONST>
1

>  <SCORE.INTER.POLAR>
-0.947226

>  <SCORE.INTER.ROT>
6

>  <SCORE.INTER.SOLV>
23.349

>  <SCORE.INTER.VDW>
-20.0254

>  <SCORE.INTER.norm>
-0.377409

>  <SCORE.INTRA>
-0.562899

>  <SCORE.INTRA.DIHEDRAL>
-1.30236

>  <SCORE.INTRA.DIHEDRAL.0>
10.8409

>  <SCORE.INTRA.POLAR>
0

>  <SCORE.INTRA.POLAR.0>
0

>  <SCORE.INTRA.REPUL>
0

>  <SCORE.INTRA.REPUL.0>
0

>  <SCORE.INTRA.SOLV>
-3.60469

>  <SCORE.INTRA.SOLV.lig_0>
-80.8302

>  <SCORE.INTRA.VDW>
1.89062

>  <SCORE.INTRA.VDW.0>
-4.23953

>  <SCORE.INTRA.norm>
-0.018158

>  <SCORE.RESTR>
0.0200112

>  <SCORE.RESTR.CAVITY>
0.0200112

>  <SCORE.RESTR.norm>
0.000645523

>  <SCORE.SYSTEM>
0

>  <SCORE.SYSTEM.CONST>
0

>  <SCORE.SYSTEM.DIHEDRAL>
0

>  <SCORE.SYSTEM.SOLV>
0

>  <SCORE.SYSTEM.norm>
0

>  <SCORE.heavy>
31

>  <SCORE.norm>
-0.394921

>  <RMSD>
5.779

$$$$
2fcz_lig
 OpenBabel11021811433D
libRbt.so/2013.1/901 2013/11/27
 31 33  0  0  0  0  0  0  0  0999 V2000
    8.4540   15.5223   34.0660 C   0  0  0  0  0  0  0  0  0  0  0  0
    7.2667   22.3891   30.8501 N   0  0  0  0  0  0  0  0  0  0  0  0
    8.7396   14.1256   33.9506 O   0  0  0  0  0  0  0  0  0  0  0  0
    8.9651   16.2569   32.8220 C   0  0  1  0  0  0  0  0  0  0  0  0
   12.1405   22.4686   31.2831 N   0  0  0  0  0  0  0  0  0  0  0  0
    8.5983   17.6514   32.8380 O   0  0  0  0  0  0  0  0  0  0  0  0
    9.7686   18.4558   33.0849 C   0  0  1  0  0  0  0  0  0  0  0  0
   11.5534   17.7586   37.5249 N   0  0  0  0  0  0  0  0  0  0  0  0
    9.5361   19.4868   34.0597 O   0  0  0  0  0  0  0  0  0  0  0  0
    9.5125   20.8181   33.5176 C   0  0  2  0  0  0  0  0  0  0  0  0
   13.4888   23.3658   34.7490 N   0  0  0  0  0  0  0  0  0  0  0  0
    7.1178   20.7787   33.1747 O   0  0  0  0  0  0  0  0  0  0  0  0
    8.3698   20.9274   32.5005 C   0  0  1  0  0  0  0  0  0  0  0  0
   11.9116   21.2783   33.8282 O   0  0  0  0  0  0  0  0  0  0  0  0
    8.3915   22.2826   31.7896 C   0  0  1  0  0  0  0  0  0  0  0  0
   10.8419   21.0174   35.9164 O   0  0  0  0  0  0  0  0  0  0  0  0
    9.7096   22.4580   31.0323 C   0  0  0  0  0  0  0  0  0  0  0  0
   13.7213   19.3961   37.5437 O   0  0  0  0  0  0  0  0  0  0  0  0
   10.8718   22.4002   32.0256 C   0  0  1  0  0  0  0  0  0  0  0  0
   14.7640   21.9986   36.9168 O   0  0  0  0  0  0  0  0  0  0  0  0
   10.8600   21.1169   32.8634 C   0  0  2  0  0  0  0  0  0  0  0  0
   12.1530   17.9113   33.4492 O   0  0  0  0  0  0  0  0  0  0  0  0
   11.5001   21.9431   35.0316 C   0  0  1  0  0  0  0  0  0  0  0  0
   10.9701   16.4030   31.4305 O   0  0  0  0  0  0  0  0  0  0  0  0
   11.6666   19.9248   36.3568 C   0  0  2  0  0  0  0  0  0  0  0  0
   10.8317   19.0112   37.2575 C   0  0  0  0  0  0  0  0  0  0  0  0
   12.8743   20.4713   37.1265 C   0  0  2  0  0  0  0  0  0  0  0  0
   13.6616   21.4150   36.2149 C   0  0  1  0  0  0  0  0  0  0  0  0
   12.7465   22.5293   35.7023 C   0  0  1  0  0  0  0  0  0  0  0  0
   10.8042   17.4641   33.6172 C   0  0  2  0  0  0  0  0  0  0  0  0
   10.4926   16.2333   32.7678 C   0  0  1  0  0  0  0  0  0  0  0  0
  3  1  1  0  0  0  0
  4  1  1  1  0  0  0
  4  6  1  0  0  0  0
  4 31  1  0  0  0  0
  6  7  1  0  0  0  0
  7  9  1  1  0  0  0
  7 30  1  0  0  0  0
 10  9  1  6  0  0  0
 10 13  1  0  0  0  0
 10 21  1  0  0  0  0
 13 12  1  1  0  0  0
 13 15  1  0  0  0  0
 15  2  1  6  0  0  0
 15 17  1  0  0  0  0
 16 25  1  0  0  0  0
 17 19  1  0  0  0  0
 19  5  1  6  0  0  0
 19 21  1  0  0  0  0
 21 14  1  1  0  0  0
 23 14  1  6  0  0  0
 23 16  1  0  0  0  0
 23 29  1  0  0  0  0
 25 26  1  1  0  0  0
 25 27  1  0  0  0  0
 26  8  1  0  0  0  0
 27 18  1  6  0  0  0
 27 28  1  0  0  0  0
 28 20  1  1  0  0  0
 28 29  1  0  0  0  0
 29 11  1  6  0  0  0
 30 22  1  6  0  0  0
 30 31  1  0  0  0  0
 31 24  1  6  0  0  0
M  END
>  <CHROM.1>
175.00977562,-109.48321743,61.33830273,-36.95505372,80.90374165,169.45457658
10.72300303,19.79902331,34.05645913,-2.62726354,-0.81866306,-0.32422307

>  <Name>
2fcz_lig

>  <RI>
2.29611e+07

>  <Rbt.Current_Directory>
/home/itssahil/PROJECTS/Mol_Feturizer/New_Systems/rnas/2fcz

>  <Rbt.Executable>
rbdock ($Id: //depot/dev/client3/rdock/2013.1/src/exe/rbdock.cxx#4 $)

>  <Rbt.Library>
libRbt.so (2013.1, Build901 2013/11/27)

>  <Rbt.Parameter_File>
/export/apps/rDock/src/rDock_2013.1_src/data/scripts/dock_solv.prm

>  <Rbt.Receptor>
prm/pocket_docking_3.prm

>  <SCORE>
-12.8029

>  <SCORE.INTER>
-15.5431

>  <SCORE.INTER.CONST>
1

>  <SCORE.INTER.POLAR>
-1.77657

>  <SCORE.INTER.ROT>
6

>  <SCORE.INTER.SOLV>
10.7848

>  <SCORE.INTER.VDW>
-15.6351

>  <SCORE.INTER.norm>
-0.501391

>  <SCORE.INTRA>
2.74023

>  <SCORE.INTRA.DIHEDRAL>
0.581392

>  <SCORE.INTRA.DIHEDRAL.0>
10.8409

>  <SCORE.INTRA.POLAR>
0

>  <SCORE.INTRA.POLAR.0>
0

>  <SCORE.INTRA.REPUL>
0

>  <SCORE.INTRA.REPUL.0>
0

>  <SCORE.INTRA.SOLV>
-0.769562

>  <SCORE.INTRA.SOLV.lig_0>
-80.8302

>  <SCORE.INTRA.VDW>
2.83431

>  <SCORE.INTRA.VDW.0>
-4.23953

>  <SCORE.INTRA.norm>
0.0883944

>  <SCORE.RESTR>
0

>  <SCORE.RESTR.CAVITY>
0

>  <SCORE.RESTR.norm>
0

>  <SCORE.SYSTEM>
0

>  <SCORE.SYSTEM.CONST>
0

>  <SCORE.SYSTEM.DIHEDRAL>
0

>  <SCORE.SYSTEM.SOLV>
0

>  <SCORE.SYSTEM.norm>
0

>  <SCORE.heavy>
31

>  <SCORE.norm>
-0.412997

>  <RMSD>
5.779

$$$$
2fcz_lig
 OpenBabel11021811433D
libRbt.so/2013.1/901 2013/11/27
 31 33  0  0  0  0  0  0  0  0999 V2000
   10.6903   13.0624   33.8986 C   0  0  0  0  0  0  0  0  0  0  0  0
    9.6016   17.0316   41.2039 N   0  0  0  0  0  0  0  0  0  0  0  0
   12.0277   12.6930   34.2457 O   0  0  0  0  0  0  0  0  0  0  0  0
    9.7895   12.9547   35.1337 C   0  0  1  0  0  0  0  0  0  0  0  0
   12.9129   19.3684   38.4614 N   0  0  0  0  0  0  0  0  0  0  0  0
   10.2027   13.8619   36.1758 O   0  0  0  0  0  0  0  0  0  0  0  0
    9.2481   14.9362   36.2873 C   0  0  1  0  0  0  0  0  0  0  0  0
   10.7452   20.7272   33.1442 N   0  0  0  0  0  0  0  0  0  0  0  0
    9.8756   16.2256   36.3925 O   0  0  0  0  0  0  0  0  0  0  0  0
   10.6613   16.4050   37.5830 C   0  0  2  0  0  0  0  0  0  0  0  0
   14.2152   16.0262   34.6605 N   0  0  0  0  0  0  0  0  0  0  0  0
    8.9981   15.3625   38.9974 O   0  0  0  0  0  0  0  0  0  0  0  0
    9.7233   16.5761   38.7843 C   0  0  1  0  0  0  0  0  0  0  0  0
   12.6189   17.3980   36.4669 O   0  0  0  0  0  0  0  0  0  0  0  0
   10.5086   16.9131   40.0540 C   0  0  1  0  0  0  0  0  0  0  0  0
   11.4605   18.5336   34.7519 O   0  0  0  0  0  0  0  0  0  0  0  0
   11.2724   18.2258   39.8669 C   0  0  0  0  0  0  0  0  0  0  0  0
   14.2276   20.8382   33.9770 O   0  0  0  0  0  0  0  0  0  0  0  0
   12.2531   18.0753   38.7023 C   0  0  1  0  0  0  0  0  0  0  0  0
   15.3655   18.2820   33.3254 O   0  0  0  0  0  0  0  0  0  0  0  0
   11.5607   17.6275   37.4105 C   0  0  2  0  0  0  0  0  0  0  0  0
    7.1466   15.4662   35.0966 O   0  0  0  0  0  0  0  0  0  0  0  0
   12.1785   17.3359   35.1025 C   0  0  1  0  0  0  0  0  0  0  0  0
    7.4205   12.7641   35.7075 O   0  0  0  0  0  0  0  0  0  0  0  0
   12.2369   19.7410   34.8390 C   0  0  2  0  0  0  0  0  0  0  0  0
   11.3421   20.9278   34.4727 C   0  0  0  0  0  0  0  0  0  0  0  0
   13.4277   19.6559   33.8776 C   0  0  2  0  0  0  0  0  0  0  0  0
   14.2761   18.4355   34.2410 C   0  0  1  0  0  0  0  0  0  0  0  0
   13.4130   17.1721   34.2102 C   0  0  1  0  0  0  0  0  0  0  0  0
    8.4380   14.8588   34.9922 C   0  0  2  0  0  0  0  0  0  0  0  0
    8.3520   13.3469   34.7922 C   0  0  1  0  0  0  0  0  0  0  0  0
  3  1  1  0  0  0  0
  4  1  1  6  0  0  0
  4  6  1  0  0  0  0
  4 31  1  0  0  0  0
  6  7  1  0  0  0  0
  7  9  1  6  0  0  0
  7 30  1  0  0  0  0
 10  9  1  6  0  0  0
 10 13  1  0  0  0  0
 10 21  1  0  0  0  0
 13 12  1  1  0  0  0
 13 15  1  0  0  0  0
 15  2  1  1  0  0  0
 15 17  1  0  0  0  0
 16 25  1  0  0  0  0
 17 19  1  0  0  0  0
 19  5  1  6  0  0  0
 19 21  1  0  0  0  0
 21 14  1  6  0  0  0
 23 14  1  1  0  0  0
 23 16  1  0  0  0  0
 23 29  1  0  0  0  0
 25 26  1  6  0  0  0
 25 27  1  0  0  0  0
 26  8  1  0  0  0  0
 27 18  1  1  0  0  0
 27 28  1  0  0  0  0
 28 20  1  6  0  0  0
 28 29  1  0  0  0  0
 29 11  1  1  0  0  0
 30 22  1  1  0  0  0
 30 31  1  0  0  0  0
 31 24  1  1  0  0  0
M  END
>  <CHROM.1>
62.43377631,-64.43682898,-73.50209534,71.94174540,55.79700783,-55.72845323
11.15748955,16.77385236,36.00067239,-2.96600667,0.89369744,1.01096205

>  <Name>
2fcz_lig

>  <RI>
2.76032e+07

>  <Rbt.Current_Directory>
/home/itssahil/PROJECTS/Mol_Feturizer/New_Systems/rnas/2fcz

>  <Rbt.Executable>
rbdock ($Id: //depot/dev/client3/rdock/2013.1/src/exe/rbdock.cxx#4 $)

>  <Rbt.Library>
libRbt.so (2013.1, Build901 2013/11/27)

>  <Rbt.Parameter_File>
/export/apps/rDock/src/rDock_2013.1_src/data/scripts/dock_solv.prm

>  <Rbt.Receptor>
prm/pocket_docking_8.prm

>  <SCORE>
-11.0528

>  <SCORE.INTER>
-7.13459

>  <SCORE.INTER.CONST>
1

>  <SCORE.INTER.POLAR>
-1.38295

>  <SCORE.INTER.ROT>
6

>  <SCORE.INTER.SOLV>
9.61103

>  <SCORE.INTER.VDW>
-10.9502

>  <SCORE.INTER.norm>
-0.230148

>  <SCORE.INTRA>
-3.91823

>  <SCORE.INTRA.DIHEDRAL>
-8.8866

>  <SCORE.INTRA.DIHEDRAL.0>
10.8409

>  <SCORE.INTRA.POLAR>
0

>  <SCORE.INTRA.POLAR.0>
0

>  <SCORE.INTRA.REPUL>
0

>  <SCORE.INTRA.REPUL.0>
0

>  <SCORE.INTRA.SOLV>
-2.18717

>  <SCORE.INTRA.SOLV.lig_0>
-80.8302

>  <SCORE.INTRA.VDW>
1.61865

>  <SCORE.INTRA.VDW.0>
-4.23953

>  <SCORE.INTRA.norm>
-0.126395

>  <SCORE.RESTR>
0

>  <SCORE.RESTR.CAVITY>
0

>  <SCORE.RESTR.norm>
0

>  <SCORE.SYSTEM>
0

>  <SCORE.SYSTEM.CONST>
0

>  <SCORE.SYSTEM.DIHEDRAL>
0

>  <SCORE.SYSTEM.SOLV>
0

>  <SCORE.SYSTEM.norm>
0

>  <SCORE.heavy>
31

>  <SCORE.norm>
-0.356543

>  <RMSD>
5.819

$$$$
2fcz_lig
 OpenBabel11021811433D
libRbt.so/2013.1/901 2013/11/27
 31 33  0  0  0  0  0  0  0  0999 V2000
   13.5713   22.5636   29.3497 C   0  0  0  0  0  0  0  0  0  0  0  0
   12.2491   20.0231   37.7958 N   0  0  0  0  0  0  0  0  0  0  0  0
   12.2676   23.0526   29.0231 O   0  0  0  0  0  0  0  0  0  0  0  0
   14.0416   23.1909   30.6664 C   0  0  1  0  0  0  0  0  0  0  0  0
    8.4804   19.9829   34.6745 N   0  0  0  0  0  0  0  0  0  0  0  0
   13.1576   22.8646   31.7581 O   0  0  0  0  0  0  0  0  0  0  0  0
   13.8066   21.9289   32.6419 C   0  0  1  0  0  0  0  0  0  0  0  0
    9.2304   17.1094   31.9718 N   0  0  0  0  0  0  0  0  0  0  0  0
   12.9453   20.8451   33.0298 O   0  0  0  0  0  0  0  0  0  0  0  0
   12.0852   21.1430   34.1426 C   0  0  2  0  0  0  0  0  0  0  0  0
    9.8863   23.4505   30.9176 N   0  0  0  0  0  0  0  0  0  0  0  0
   13.9004   21.0552   35.7398 O   0  0  0  0  0  0  0  0  0  0  0  0
   12.6407   20.4687   35.4031 C   0  0  1  0  0  0  0  0  0  0  0  0
   10.0280   21.4386   32.8218 O   0  0  0  0  0  0  0  0  0  0  0  0
   11.6842   20.6367   36.5860 C   0  0  1  0  0  0  0  0  0  0  0  0
   10.1382   19.7424   31.1836 O   0  0  0  0  0  0  0  0  0  0  0  0
   10.3344   19.9904   36.2666 C   0  0  0  0  0  0  0  0  0  0  0  0
    6.5746   19.9515   30.2753 O   0  0  0  0  0  0  0  0  0  0  0  0
    9.7287   20.6721   35.0381 C   0  0  1  0  0  0  0  0  0  0  0  0
    7.5426   22.5544   29.5396 O   0  0  0  0  0  0  0  0  0  0  0  0
   10.6740   20.6480   33.8320 C   0  0  2  0  0  0  0  0  0  0  0  0
   16.0350   20.8569   32.6343 O   0  0  0  0  0  0  0  0  0  0  0  0
   10.4358   21.1188   31.4836 C   0  0  1  0  0  0  0  0  0  0  0  0
   16.1010   23.5504   31.9341 O   0  0  0  0  0  0  0  0  0  0  0  0
    8.7402   19.4094   31.2375 C   0  0  2  0  0  0  0  0  0  0  0  0
    8.5783   17.9183   30.9318 C   0  0  0  0  0  0  0  0  0  0  0  0
    7.9726   20.2495   30.2106 C   0  0  2  0  0  0  0  0  0  0  0  0
    8.1914   21.7329   30.5158 C   0  0  1  0  0  0  0  0  0  0  0  0
    9.6887   22.0489   30.5225 C   0  0  1  0  0  0  0  0  0  0  0  0
   14.9818   21.3893   31.8251 C   0  0  2  0  0  0  0  0  0  0  0  0
   15.4116   22.6448   31.0684 C   0  0  1  0  0  0  0  0  0  0  0  0
  3  1  1  0  0  0  0
  4  1  1  6  0  0  0
  4  6  1  0  0  0  0
  4 31  1  0  0  0  0
  6  7  1  0  0  0  0
  7  9  1  6  0  0  0
  7 30  1  0  0  0  0
 10  9  1  6  0  0  0
 10 13  1  0  0  0  0
 10 21  1  0  0  0  0
 13 12  1  1  0  0  0
 13 15  1  0  0  0  0
 15  2  1  1  0  0  0
 15 17  1  0  0  0  0
 16 25  1  0  0  0  0
 17 19  1  0  0  0  0
 19  5  1  6  0  0  0
 19 21  1  0  0  0  0
 21 14  1  6  0  0  0
 23 14  1  1  0  0  0
 23 16  1  0  0  0  0
 23 29  1  0  0  0  0
 25 26  1  6  0  0  0
 25 27  1  0  0  0  0
 26  8  1  0  0  0  0
 27 18  1  1  0  0  0
 27 28  1  0  0  0  0
 28 20  1  6  0  0  0
 28 29  1  0  0  0  0
 29 11  1  1  0  0  0
 30 22  1  1  0  0  0
 30 31  1  0  0  0  0
 31 24  1  1  0  0  0
M  END
>  <CHROM.1>
60.36041764,-84.02677417,-103.51556067,79.44927181,60.02746347,64.02953496
11.34703019,21.12207602,32.38875926,-0.17554648,-0.34526015,-1.20626211

>  <Name>
2fcz_lig

>  <RI>
1.40544e+07

>  <Rbt.Current_Directory>
/home/itssahil/PROJECTS/Mol_Feturizer/New_Systems/rnas/2fcz

>  <Rbt.Executable>
rbdock ($Id: //depot/dev/client3/rdock/2013.1/src/exe/rbdock.cxx#4 $)

>  <Rbt.Library>
libRbt.so (2013.1, Build901 2013/11/27)

>  <Rbt.Parameter_File>
/export/apps/rDock/src/rDock_2013.1_src/data/scripts/dock_solv.prm

>  <Rbt.Receptor>
prm/blind_docking_100.prm

>  <SCORE>
-17.1277

>  <SCORE.INTER>
-16.3007

>  <SCORE.INTER.CONST>
1

>  <SCORE.INTER.POLAR>
-1.12107

>  <SCORE.INTER.ROT>
6

>  <SCORE.INTER.SOLV>
18.6737

>  <SCORE.INTER.VDW>
-20.9548

>  <SCORE.INTER.norm>
-0.525829

>  <SCORE.INTRA>
-0.827017

>  <SCORE.INTRA.DIHEDRAL>
-0.570324

>  <SCORE.INTRA.DIHEDRAL.0>
10.8409

>  <SCORE.INTRA.POLAR>
0

>  <SCORE.INTRA.POLAR.0>
0

>  <SCORE.INTRA.REPUL>
0

>  <SCORE.INTRA.REPUL.0>
0

>  <SCORE.INTRA.SOLV>
-0.0691869

>  <SCORE.INTRA.SOLV.lig_0>
-80.8302

>  <SCORE.INTRA.VDW>
-0.507261

>  <SCORE.INTRA.VDW.0>
-4.23953

>  <SCORE.INTRA.norm>
-0.026678

>  <SCORE.RESTR>
0

>  <SCORE.RESTR.CAVITY>
0

>  <SCORE.RESTR.norm>
0

>  <SCORE.SYSTEM>
0

>  <SCORE.SYSTEM.CONST>
0

>  <SCORE.SYSTEM.DIHEDRAL>
0

>  <SCORE.SYSTEM.SOLV>
0

>  <SCORE.SYSTEM.norm>
0

>  <SCORE.heavy>
31

>  <SCORE.norm>
-0.552507

>  <RMSD>
5.820

$$$$
2fcz_lig
 OpenBabel11021811433D
libRbt.so/2013.1/901 2013/11/27
 31 33  0  0  0  0  0  0  0  0999 V2000
   14.1267   11.8256   34.7267 C   0  0  0  0  0  0  0  0  0  0  0  0
   16.3199   15.4100   33.1332 N   0  0  0  0  0  0  0  0  0  0  0  0
   15.1413   12.7816   34.4071 O   0  0  0  0  0  0  0  0  0  0  0  0
   12.8178   12.5532   35.0519 C   0  0  1  0  0  0  0  0  0  0  0  0
   12.4044   18.3145   33.5581 N   0  0  0  0  0  0  0  0  0  0  0  0
   12.6121   13.6913   34.1904 O   0  0  0  0  0  0  0  0  0  0  0  0
   11.5489   13.4065   33.2597 C   0  0  1  0  0  0  0  0  0  0  0  0
    8.7497   20.6901   34.0804 N   0  0  0  0  0  0  0  0  0  0  0  0
   11.8711   13.7982   31.9143 O   0  0  0  0  0  0  0  0  0  0  0  0
   12.7595   14.9249   31.8237 C   0  0  2  0  0  0  0  0  0  0  0  0
    8.6355   15.6565   30.7159 N   0  0  0  0  0  0  0  0  0  0  0  0
   14.7338   13.5296   31.7307 O   0  0  0  0  0  0  0  0  0  0  0  0
   14.0971   14.5658   32.4824 C   0  0  1  0  0  0  0  0  0  0  0  0
   11.0026   16.6494   31.7667 O   0  0  0  0  0  0  0  0  0  0  0  0
   15.0277   15.7795   32.5392 C   0  0  1  0  0  0  0  0  0  0  0  0
    9.8688   18.0335   33.3068 O   0  0  0  0  0  0  0  0  0  0  0  0
   14.3853   16.8964   33.3648 C   0  0  0  0  0  0  0  0  0  0  0  0
    8.8240   20.5126   30.7907 O   0  0  0  0  0  0  0  0  0  0  0  0
   13.0672   17.3122   32.7087 C   0  0  1  0  0  0  0  0  0  0  0  0
    7.4653   18.1406   29.9070 O   0  0  0  0  0  0  0  0  0  0  0  0
   12.1151   16.1277   32.5102 C   0  0  2  0  0  0  0  0  0  0  0  0
   10.0894   11.4423   32.9035 O   0  0  0  0  0  0  0  0  0  0  0  0
    9.8081   16.8132   32.5450 C   0  0  1  0  0  0  0  0  0  0  0  0
   10.4860   12.0529   35.5904 O   0  0  0  0  0  0  0  0  0  0  0  0
    9.9632   19.2282   32.5119 C   0  0  2  0  0  0  0  0  0  0  0  0
   10.0526   20.4355   33.4486 C   0  0  0  0  0  0  0  0  0  0  0  0
    8.7285   19.3441   31.6111 C   0  0  2  0  0  0  0  0  0  0  0  0
    8.6423   18.1028   30.7205 C   0  0  1  0  0  0  0  0  0  0  0  0
    8.6140   16.8408   31.5856 C   0  0  1  0  0  0  0  0  0  0  0  0
   11.3804   11.8879   33.3304 C   0  0  2  0  0  0  0  0  0  0  0  0
   11.6161   11.6376   34.8187 C   0  0  1  0  0  0  0  0  0  0  0  0
  3  1  1  0  0  0  0
  4  1  1  6  0  0  0
  4  6  1  0  0  0  0
  4 31  1  0  0  0  0
  6  7  1  0  0  0  0
  7  9  1  6  0  0  0
  7 30  1  0  0  0  0
 10  9  1  1  0  0  0
 10 13  1  0  0  0  0
 10 21  1  0  0  0  0
 13 12  1  6  0  0  0
 13 15  1  0  0  0  0
 15  2  1  1  0  0  0
 15 17  1  0  0  0  0
 16 25  1  0  0  0  0
 17 19  1  0  0  0  0
 19  5  1  1  0  0  0
 19 21  1  0  0  0  0
 21 14  1  6  0  0  0
 23 14  1  6  0  0  0
 23 16  1  0  0  0  0
 23 29  1  0  0  0  0
 25 26  1  1  0  0  0
 25 27  1  0  0  0  0
 26  8  1  0  0  0  0
 27 18  1  6  0  0  0
 27 28  1  0  0  0  0
 28 20  1  1  0  0  0
 28 29  1  0  0  0  0
 29 11  1  6  0  0  0
 30 22  1  1  0  0  0
 30 31  1  0  0  0  0
 31 24  1  1  0  0  0
M  END
>  <CHROM.1>
38.58607605,-30.07126599,61.93747594,128.87158451,80.59722643,-72.74578400
11.50331948,15.72773407,32.80466030,0.98253619,0.18178879,2.95629800

>  <Name>
2fcz_lig

>  <RI>
0

>  <Rbt.Current_Directory>
/home/itssahil/PROJECTS/Mol_Feturizer/New_Systems/rnas/2fcz

>  <Rbt.Executable>
rbdock ($Id: //depot/dev/client3/rdock/2013.1/src/exe/rbdock.cxx#4 $)

>  <Rbt.Library>
libRbt.so (2013.1, Build901 2013/11/27)

>  <Rbt.Parameter_File>
/export/apps/rDock/src/rDock_2013.1_src/data/scripts/dock_solv.prm

>  <Rbt.Receptor>
prm/blind_docking_40.prm

>  <SCORE>
12.6004

>  <SCORE.INTER>
-4.10573

>  <SCORE.INTER.CONST>
1

>  <SCORE.INTER.POLAR>
-0.730106

>  <SCORE.INTER.ROT>
6

>  <SCORE.INTER.SOLV>
24.9106

>  <SCORE.INTER.VDW>
-16.207

>  <SCORE.INTER.norm>
-0.132443

>  <SCORE.INTRA>
9.08179

>  <SCORE.INTRA.DIHEDRAL>
3.4801

>  <SCORE.INTRA.DIHEDRAL.0>
10.8409

>  <SCORE.INTRA.POLAR>
0

>  <SCORE.INTRA.POLAR.0>
0

>  <SCORE.INTRA.REPUL>
0

>  <SCORE.INTRA.REPUL.0>
0

>  <SCORE.INTRA.SOLV>
3.6813

>  <SCORE.INTRA.SOLV.lig_0>
-80.8302

>  <SCORE.INTRA.VDW>
5.50109

>  <SCORE.INTRA.VDW.0>
-4.23953

>  <SCORE.INTRA.norm>
0.292961

>  <SCORE.RESTR>
7.62436

>  <SCORE.RESTR.CAVITY>
7.62436

>  <SCORE.RESTR.norm>
0.245947

>  <SCORE.SYSTEM>
0

>  <SCORE.SYSTEM.CONST>
0

>  <SCORE.SYSTEM.DIHEDRAL>
0

>  <SCORE.SYSTEM.SOLV>
0

>  <SCORE.SYSTEM.norm>
0

>  <SCORE.heavy>
31

>  <SCORE.norm>
0.406465

>  <RMSD>
5.845

$$$$
2fcz_lig
 OpenBabel11021811433D
libRbt.so/2013.1/901 2013/11/27
 31 33  0  0  0  0  0  0  0  0999 V2000
    7.7040   18.7086   30.0989 C   0  0  0  0  0  0  0  0  0  0  0  0
    7.9056   23.6353   31.5857 N   0  0  0  0  0  0  0  0  0  0  0  0
    7.6399   19.9796   29.4463 O   0  0  0  0  0  0  0  0  0  0  0  0
    9.1496   18.4158   30.5150 C   0  0  1  0  0  0  0  0  0  0  0  0
   12.6192   22.5404   32.3138 N   0  0  0  0  0  0  0  0  0  0  0  0
    9.6233   19.3596   31.4971 O   0  0  0  0  0  0  0  0  0  0  0  0
    9.7328   18.7089   32.7786 C   0  0  1  0  0  0  0  0  0  0  0  0
    9.1846   18.7899   38.2801 N   0  0  0  0  0  0  0  0  0  0  0  0
    9.1875   19.4990   33.8490 O   0  0  0  0  0  0  0  0  0  0  0  0
    9.4769   20.9040   33.7531 C   0  0  2  0  0  0  0  0  0  0  0  0
   13.8867   21.7727   35.9194 N   0  0  0  0  0  0  0  0  0  0  0  0
    7.1769   21.4802   33.2718 O   0  0  0  0  0  0  0  0  0  0  0  0
    8.5082   21.5506   32.7553 C   0  0  1  0  0  0  0  0  0  0  0  0
   11.8629   20.7281   34.3364 O   0  0  0  0  0  0  0  0  0  0  0  0
    8.8670   23.0180   32.5098 C   0  0  1  0  0  0  0  0  0  0  0  0
   10.4189   20.4349   36.1807 O   0  0  0  0  0  0  0  0  0  0  0  0
   10.2779   23.1239   31.9267 C   0  0  0  0  0  0  0  0  0  0  0  0
   12.2033   17.5008   37.5129 O   0  0  0  0  0  0  0  0  0  0  0  0
   11.2781   22.5280   32.9193 C   0  0  1  0  0  0  0  0  0  0  0  0
   14.1918   19.5643   37.7152 O   0  0  0  0  0  0  0  0  0  0  0  0
   10.9266   21.0879   33.3084 C   0  0  2  0  0  0  0  0  0  0  0  0
    9.2960   16.4003   33.5497 O   0  0  0  0  0  0  0  0  0  0  0  0
   11.5071   21.2080   35.6412 C   0  0  1  0  0  0  0  0  0  0  0  0
   10.5821   16.5180   31.0837 O   0  0  0  0  0  0  0  0  0  0  0  0
   10.7125   19.0391   36.3636 C   0  0  2  0  0  0  0  0  0  0  0  0
    9.4634   18.3416   36.9080 C   0  0  0  0  0  0  0  0  0  0  0  0
   11.8789   18.8844   37.3459 C   0  0  2  0  0  0  0  0  0  0  0  0
   13.0969   19.6296   36.7956 C   0  0  1  0  0  0  0  0  0  0  0  0
   12.7407   21.0963   36.5428 C   0  0  1  0  0  0  0  0  0  0  0  0
    8.9218   17.4218   32.6202 C   0  0  2  0  0  0  0  0  0  0  0  0
    9.2553   17.0428   31.1785 C   0  0  1  0  0  0  0  0  0  0  0  0
  3  1  1  0  0  0  0
  4  1  1  1  0  0  0
  4  6  1  0  0  0  0
  4 31  1  0  0  0  0
  6  7  1  0  0  0  0
  7  9  1  1  0  0  0
  7 30  1  0  0  0  0
 10  9  1  6  0  0  0
 10 13  1  0  0  0  0
 10 21  1  0  0  0  0
 13 12  1  1  0  0  0
 13 15  1  0  0  0  0
 15  2  1  6  0  0  0
 15 17  1  0  0  0  0
 16 25  1  0  0  0  0
 17 19  1  0  0  0  0
 19  5  1  6  0  0  0
 19 21  1  0  0  0  0
 21 14  1  1  0  0  0
 23 14  1  6  0  0  0
 23 16  1  0  0  0  0
 23 29  1  0  0  0  0
 25 26  1  1  0  0  0
 25 27  1  0  0  0  0
 26  8  1  0  0  0  0
 27 18  1  6  0  0  0
 27 28  1  0  0  0  0
 28 20  1  1  0  0  0
 28 29  1  0  0  0  0
 29 11  1  6  0  0  0
 30 22  1  1  0  0  0
 30 31  1  0  0  0  0
 31 24  1  1  0  0  0
M  END
>  <CHROM.1>
64.24456430,-40.11662547,80.10321301,-43.44526883,74.33602127,-68.34745713
10.29123391,19.92558896,33.88375495,2.81933125,-0.98482532,-0.32754626

>  <Name>
2fcz_lig

>  <RI>
2.29611e+07

>  <Rbt.Current_Directory>
/home/itssahil/PROJECTS/Mol_Feturizer/New_Systems/rnas/2fcz

>  <Rbt.Executable>
rbdock ($Id: //depot/dev/client3/rdock/2013.1/src/exe/rbdock.cxx#4 $)

>  <Rbt.Library>
libRbt.so (2013.1, Build901 2013/11/27)

>  <Rbt.Parameter_File>
/export/apps/rDock/src/rDock_2013.1_src/data/scripts/dock_solv.prm

>  <Rbt.Receptor>
prm/pocket_docking_3.prm

>  <SCORE>
-23.7036

>  <SCORE.INTER>
-25.5976

>  <SCORE.INTER.CONST>
1

>  <SCORE.INTER.POLAR>
-2.72537

>  <SCORE.INTER.ROT>
6

>  <SCORE.INTER.SOLV>
16.136

>  <SCORE.INTER.VDW>
-20.9592

>  <SCORE.INTER.norm>
-0.825729

>  <SCORE.INTRA>
1.89403

>  <SCORE.INTRA.DIHEDRAL>
-4.59251

>  <SCORE.INTRA.DIHEDRAL.0>
10.8409

>  <SCORE.INTRA.POLAR>
0

>  <SCORE.INTRA.POLAR.0>
0

>  <SCORE.INTRA.REPUL>
0

>  <SCORE.INTRA.REPUL.0>
0

>  <SCORE.INTRA.SOLV>
-0.798939

>  <SCORE.INTRA.SOLV.lig_0>
-80.8302

>  <SCORE.INTRA.VDW>
4.58975

>  <SCORE.INTRA.VDW.0>
-4.23953

>  <SCORE.INTRA.norm>
0.0610977

>  <SCORE.RESTR>
0

>  <SCORE.RESTR.CAVITY>
0

>  <SCORE.RESTR.norm>
0

>  <SCORE.SYSTEM>
0

>  <SCORE.SYSTEM.CONST>
0

>  <SCORE.SYSTEM.DIHEDRAL>
0

>  <SCORE.SYSTEM.SOLV>
0

>  <SCORE.SYSTEM.norm>
0

>  <SCORE.heavy>
31

>  <SCORE.norm>
-0.764632

>  <RMSD>
5.854

$$$$
2fcz_lig
 OpenBabel11021811433D
libRbt.so/2013.1/901 2013/11/27
 31 33  0  0  0  0  0  0  0  0999 V2000
    7.1327   20.4644   31.9074 C   0  0  0  0  0  0  0  0  0  0  0  0
   14.3901   24.0281   35.0174 N   0  0  0  0  0  0  0  0  0  0  0  0
    8.3429   19.7652   31.6042 O   0  0  0  0  0  0  0  0  0  0  0  0
    7.4644   21.7947   32.5921 C   0  0  1  0  0  0  0  0  0  0  0  0
   13.9098   19.6980   37.2460 N   0  0  0  0  0  0  0  0  0  0  0  0
    8.2548   21.5993   33.7824 O   0  0  0  0  0  0  0  0  0  0  0  0
    9.6040   22.0478   33.5453 C   0  0  1  0  0  0  0  0  0  0  0  0
   11.1148   16.1510   32.9382 N   0  0  0  0  0  0  0  0  0  0  0  0
   10.5892   21.1203   34.0313 O   0  0  0  0  0  0  0  0  0  0  0  0
   11.4095   21.6330   35.0949 C   0  0  2  0  0  0  0  0  0  0  0  0
    8.9155   18.7695   37.9139 N   0  0  0  0  0  0  0  0  0  0  0  0
   11.7724   23.7466   33.9747 O   0  0  0  0  0  0  0  0  0  0  0  0
   12.4434   22.6033   34.5103 C   0  0  1  0  0  0  0  0  0  0  0  0
   11.1699   19.6856   36.5829 O   0  0  0  0  0  0  0  0  0  0  0  0
   13.4328   23.0669   35.5820 C   0  0  1  0  0  0  0  0  0  0  0  0
   10.7346   18.3440   34.6899 O   0  0  0  0  0  0  0  0  0  0  0  0
   14.1898   21.8660   36.1534 C   0  0  0  0  0  0  0  0  0  0  0  0
   11.7807   15.1953   36.2897 O   0  0  0  0  0  0  0  0  0  0  0  0
   13.1900   20.8967   36.7873 C   0  0  1  0  0  0  0  0  0  0  0  0
    9.5292   15.9735   37.8953 O   0  0  0  0  0  0  0  0  0  0  0  0
   12.0923   20.4674   35.8077 C   0  0  2  0  0  0  0  0  0  0  0  0
   10.7382   23.0469   31.5882 O   0  0  0  0  0  0  0  0  0  0  0  0
   10.1495   19.0466   35.8021 C   0  0  1  0  0  0  0  0  0  0  0  0
    8.1825   24.0613   32.0222 O   0  0  0  0  0  0  0  0  0  0  0  0
   11.6374   17.2878   35.0605 C   0  0  2  0  0  0  0  0  0  0  0  0
   12.2040   16.6563   33.7865 C   0  0  0  0  0  0  0  0  0  0  0  0
   10.8867   16.2372   35.8865 C   0  0  2  0  0  0  0  0  0  0  0  0
   10.2945   16.9081   37.1277 C   0  0  1  0  0  0  0  0  0  0  0  0
    9.3932   18.0728   36.7114 C   0  0  1  0  0  0  0  0  0  0  0  0
    9.7040   22.1587   32.0230 C   0  0  2  0  0  0  0  0  0  0  0  0
    8.3104   22.6795   31.6766 C   0  0  1  0  0  0  0  0  0  0  0  0
  3  1  1  0  0  0  0
  4  1  1  6  0  0  0
  4  6  1  0  0  0  0
  4 31  1  0  0  0  0
  6  7  1  0  0  0  0
  7  9  1  6  0  0  0
  7 30  1  0  0  0  0
 10  9  1  6  0  0  0
 10 13  1  0  0  0  0
 10 21  1  0  0  0  0
 13 12  1  1  0  0  0
 13 15  1  0  0  0  0
 15  2  1  6  0  0  0
 15 17  1  0  0  0  0
 16 25  1  0  0  0  0
 17 19  1  0  0  0  0
 19  5  1  6  0  0  0
 19 21  1  0  0  0  0
 21 14  1  1  0  0  0
 23 14  1  1  0  0  0
 23 16  1  0  0  0  0
 23 29  1  0  0  0  0
 25 26  1  6  0  0  0
 25 27  1  0  0  0  0
 26  8  1  0  0  0  0
 27 18  1  1  0  0  0
 27 28  1  0  0  0  0
 28 20  1  6  0  0  0
 28 29  1  0  0  0  0
 29 11  1  1  0  0  0
 30 22  1  1  0  0  0
 30 31  1  0  0  0  0
 31 24  1  1  0  0  0
M  END
>  <CHROM.1>
-56.79776035,-115.71857044,-75.88517001,62.82523246,49.75002753,-57.81519228
10.71303982,20.16176249,34.67176118,1.78742418,-0.61210626,-0.42697082

>  <Name>
2fcz_lig

>  <RI>
0

>  <Rbt.Current_Directory>
/home/itssahil/PROJECTS/Mol_Feturizer/New_Systems/rnas/2fcz

>  <Rbt.Executable>
rbdock ($Id: //depot/dev/client3/rdock/2013.1/src/exe/rbdock.cxx#4 $)

>  <Rbt.Library>
libRbt.so (2013.1, Build901 2013/11/27)

>  <Rbt.Parameter_File>
/export/apps/rDock/src/rDock_2013.1_src/data/scripts/dock_solv.prm

>  <Rbt.Receptor>
prm/pocket_docking_6.prm

>  <SCORE>
-15.6002

>  <SCORE.INTER>
-15.9955

>  <SCORE.INTER.CONST>
1

>  <SCORE.INTER.POLAR>
-2.48563

>  <SCORE.INTER.ROT>
6

>  <SCORE.INTER.SOLV>
12.6621

>  <SCORE.INTER.VDW>
-14.1989

>  <SCORE.INTER.norm>
-0.515984

>  <SCORE.INTRA>
0.395338

>  <SCORE.INTRA.DIHEDRAL>
-1.91756

>  <SCORE.INTRA.DIHEDRAL.0>
10.8409

>  <SCORE.INTRA.POLAR>
0

>  <SCORE.INTRA.POLAR.0>
0

>  <SCORE.INTRA.REPUL>
0

>  <SCORE.INTRA.REPUL.0>
0

>  <SCORE.INTRA.SOLV>
-1.51057

>  <SCORE.INTRA.SOLV.lig_0>
-80.8302

>  <SCORE.INTRA.VDW>
2.1094

>  <SCORE.INTRA.VDW.0>
-4.23953

>  <SCORE.INTRA.norm>
0.0127528

>  <SCORE.RESTR>
0

>  <SCORE.RESTR.CAVITY>
0

>  <SCORE.RESTR.norm>
0

>  <SCORE.SYSTEM>
0

>  <SCORE.SYSTEM.CONST>
0

>  <SCORE.SYSTEM.DIHEDRAL>
0

>  <SCORE.SYSTEM.SOLV>
0

>  <SCORE.SYSTEM.norm>
0

>  <SCORE.heavy>
31

>  <SCORE.norm>
-0.503231

>  <RMSD>
5.855

$$$$
2fcz_lig
 OpenBabel11021811433D
libRbt.so/2013.1/901 2013/11/27
 31 33  0  0  0  0  0  0  0  0999 V2000
    8.0193   18.4006   30.4231 C   0  0  0  0  0  0  0  0  0  0  0  0
   10.1600   23.1190   32.5971 N   0  0  0  0  0  0  0  0  0  0  0  0
    8.1488   19.7701   30.0319 O   0  0  0  0  0  0  0  0  0  0  0  0
    9.3736   17.8737   30.9096 C   0  0  1  0  0  0  0  0  0  0  0  0
   13.7595   20.4288   34.5345 N   0  0  0  0  0  0  0  0  0  0  0  0
    9.8828   18.6505   32.0128 O   0  0  0  0  0  0  0  0  0  0  0  0
    9.7976   17.8785   33.2270 C   0  0  1  0  0  0  0  0  0  0  0  0
    7.4171   16.8002   37.4882 N   0  0  0  0  0  0  0  0  0  0  0  0
    9.2726   18.6373   34.3297 O   0  0  0  0  0  0  0  0  0  0  0  0
    9.9782   19.8619   34.5933 C   0  0  2  0  0  0  0  0  0  0  0  0
   13.6408   18.7531   37.9492 N   0  0  0  0  0  0  0  0  0  0  0  0
    8.2788   21.2232   33.5385 O   0  0  0  0  0  0  0  0  0  0  0  0
    9.6639   20.8730   33.4837 C   0  0  1  0  0  0  0  0  0  0  0  0
   11.8357   18.8387   35.8450 O   0  0  0  0  0  0  0  0  0  0  0  0
   10.5025   22.1435   33.6412 C   0  0  1  0  0  0  0  0  0  0  0  0
   10.0381   19.4126   37.2635 O   0  0  0  0  0  0  0  0  0  0  0  0
   11.9922   21.8041   33.5559 C   0  0  0  0  0  0  0  0  0  0  0  0
    9.6792   16.0382   38.6961 O   0  0  0  0  0  0  0  0  0  0  0  0
   12.3513   20.8302   34.6799 C   0  0  1  0  0  0  0  0  0  0  0  0
   12.3186   16.7835   39.5514 O   0  0  0  0  0  0  0  0  0  0  0  0
   11.4762   19.5721   34.6636 C   0  0  2  0  0  0  0  0  0  0  0  0
    8.9979   15.5931   33.7293 O   0  0  0  0  0  0  0  0  0  0  0  0
   11.4627   19.4882   37.0690 C   0  0  1  0  0  0  0  0  0  0  0  0
   10.4914   15.7520   31.3855 O   0  0  0  0  0  0  0  0  0  0  0  0
    9.5225   18.0751   37.3785 C   0  0  2  0  0  0  0  0  0  0  0  0
    8.0028   18.1474   37.5470 C   0  0  0  0  0  0  0  0  0  0  0  0
   10.1594   17.3817   38.5880 C   0  0  2  0  0  0  0  0  0  0  0  0
   11.6793   17.3661   38.4110 C   0  0  1  0  0  0  0  0  0  0  0  0
   12.1970   18.7935   38.2202 C   0  0  1  0  0  0  0  0  0  0  0  0
    8.8407   16.7359   32.8828 C   0  0  2  0  0  0  0  0  0  0  0  0
    9.2418   16.4453   31.4378 C   0  0  1  0  0  0  0  0  0  0  0  0
  3  1  1  0  0  0  0
  4  1  1  1  0  0  0
  4  6  1  0  0  0  0
  4 31  1  0  0  0  0
  6  7  1  0  0  0  0
  7  9  1  1  0  0  0
  7 30  1  0  0  0  0
 10  9  1  6  0  0  0
 10 13  1  0  0  0  0
 10 21  1  0  0  0  0
 13 12  1  1  0  0  0
 13 15  1  0  0  0  0
 15  2  1  6  0  0  0
 15 17  1  0  0  0  0
 16 25  1  0  0  0  0
 17 19  1  0  0  0  0
 19  5  1  6  0  0  0
 19 21  1  0  0  0  0
 21 14  1  1  0  0  0
 23 14  1  6  0  0  0
 23 16  1  0  0  0  0
 23 29  1  0  0  0  0
 25 26  1  1  0  0  0
 25 27  1  0  0  0  0
 26  8  1  0  0  0  0
 27 18  1  6  0  0  0
 27 28  1  0  0  0  0
 28 20  1  1  0  0  0
 28 29  1  0  0  0  0
 29 11  1  6  0  0  0
 30 22  1  1  0  0  0
 30 31  1  0  0  0  0
 31 24  1  1  0  0  0
M  END
>  <CHROM.1>
58.07595163,-54.46475859,71.93357790,-57.38857119,72.96398859,172.46142367
10.24137538,18.72451598,34.81559495,2.05545658,-0.98068465,-0.95992343

>  <Name>
2fcz_lig

>  <RI>
2.26996e+07

>  <Rbt.Current_Directory>
/home/itssahil/PROJECTS/Mol_Feturizer/New_Systems/rnas/2fcz

>  <Rbt.Executable>
rbdock ($Id: //depot/dev/client3/rdock/2013.1/src/exe/rbdock.cxx#4 $)

>  <Rbt.Library>
libRbt.so (2013.1, Build901 2013/11/27)

>  <Rbt.Parameter_File>
/export/apps/rDock/src/rDock_2013.1_src/data/scripts/dock_solv.prm

>  <Rbt.Receptor>
prm/pocket_docking_4.prm

>  <SCORE>
-23.05

>  <SCORE.INTER>
-21.9285

>  <SCORE.INTER.CONST>
1

>  <SCORE.INTER.POLAR>
-2.37141

>  <SCORE.INTER.ROT>
6

>  <SCORE.INTER.SOLV>
13.3495

>  <SCORE.INTER.VDW>
-18.7641

>  <SCORE.INTER.norm>
-0.707371

>  <SCORE.INTRA>
-1.12152

>  <SCORE.INTRA.DIHEDRAL>
-8.8142

>  <SCORE.INTRA.DIHEDRAL.0>
10.8409

>  <SCORE.INTRA.POLAR>
0

>  <SCORE.INTRA.POLAR.0>
0

>  <SCORE.INTRA.REPUL>
0

>  <SCORE.INTRA.REPUL.0>
0

>  <SCORE.INTRA.SOLV>
-1.04538

>  <SCORE.INTRA.SOLV.lig_0>
-80.8302

>  <SCORE.INTRA.VDW>
3.80827

>  <SCORE.INTRA.VDW.0>
-4.23953

>  <SCORE.INTRA.norm>
-0.036178

>  <SCORE.RESTR>
0

>  <SCORE.RESTR.CAVITY>
0

>  <SCORE.RESTR.norm>
0

>  <SCORE.SYSTEM>
0

>  <SCORE.SYSTEM.CONST>
0

>  <SCORE.SYSTEM.DIHEDRAL>
0

>  <SCORE.SYSTEM.SOLV>
0

>  <SCORE.SYSTEM.norm>
0

>  <SCORE.heavy>
31

>  <SCORE.norm>
-0.743549

>  <RMSD>
5.856

$$$$
2fcz_lig
 OpenBabel11021811433D
libRbt.so/2013.1/901 2013/11/27
 31 33  0  0  0  0  0  0  0  0999 V2000
    8.3509   18.4548   30.3692 C   0  0  0  0  0  0  0  0  0  0  0  0
   10.1701   23.0662   32.6069 N   0  0  0  0  0  0  0  0  0  0  0  0
    7.4526   18.7859   31.4317 O   0  0  0  0  0  0  0  0  0  0  0  0
    9.6278   17.8364   30.9485 C   0  0  1  0  0  0  0  0  0  0  0  0
   13.8010   20.4036   34.5238 N   0  0  0  0  0  0  0  0  0  0  0  0
   10.1037   18.5710   32.0945 O   0  0  0  0  0  0  0  0  0  0  0  0
    9.8779   17.7992   33.2907 C   0  0  1  0  0  0  0  0  0  0  0  0
    7.6274   16.5154   37.5437 N   0  0  0  0  0  0  0  0  0  0  0  0
    9.3235   18.5845   34.3599 O   0  0  0  0  0  0  0  0  0  0  0  0
   10.0237   19.8142   34.6143 C   0  0  2  0  0  0  0  0  0  0  0  0
   13.7275   18.8445   37.9380 N   0  0  0  0  0  0  0  0  0  0  0  0
    8.3079   21.1620   33.5688 O   0  0  0  0  0  0  0  0  0  0  0  0
    9.6946   20.8200   33.5042 C   0  0  1  0  0  0  0  0  0  0  0  0
   11.8972   18.8060   35.8542 O   0  0  0  0  0  0  0  0  0  0  0  0
   10.5268   22.0960   33.6512 C   0  0  1  0  0  0  0  0  0  0  0  0
   10.0840   19.2792   37.2899 O   0  0  0  0  0  0  0  0  0  0  0  0
   12.0178   21.7653   33.5551 C   0  0  0  0  0  0  0  0  0  0  0  0
    9.9470   15.8990   38.7471 O   0  0  0  0  0  0  0  0  0  0  0  0
   12.3915   20.7970   34.6792 C   0  0  1  0  0  0  0  0  0  0  0  0
   12.5455   16.8091   39.5673 O   0  0  0  0  0  0  0  0  0  0  0  0
   11.5240   19.5336   34.6735 C   0  0  2  0  0  0  0  0  0  0  0  0
    8.8946   15.5689   33.7079 O   0  0  0  0  0  0  0  0  0  0  0  0
   11.4991   19.4400   37.0785 C   0  0  1  0  0  0  0  0  0  0  0  0
   10.5653   15.6423   31.4824 O   0  0  0  0  0  0  0  0  0  0  0  0
    9.6520   17.9136   37.4190 C   0  0  2  0  0  0  0  0  0  0  0  0
    8.1327   17.8946   37.6046 C   0  0  0  0  0  0  0  0  0  0  0  0
   10.3434   17.2685   38.6253 C   0  0  2  0  0  0  0  0  0  0  0  0
   11.8593   17.3441   38.4309 C   0  0  1  0  0  0  0  0  0  0  0  0
   12.2871   18.7990   38.2254 C   0  0  1  0  0  0  0  0  0  0  0  0
    8.8762   16.7247   32.8645 C   0  0  2  0  0  0  0  0  0  0  0  0
    9.3635   16.4167   31.4500 C   0  0  1  0  0  0  0  0  0  0  0  0
  3  1  1  0  0  0  0
  4  1  1  1  0  0  0
  4  6  1  0  0  0  0
  4 31  1  0  0  0  0
  6  7  1  0  0  0  0
  7  9  1  1  0  0  0
  7 30  1  0  0  0  0
 10  9  1  6  0  0  0
 10 13  1  0  0  0  0
 10 21  1  0  0  0  0
 13 12  1  1  0  0  0
 13 15  1  0  0  0  0
 15  2  1  6  0  0  0
 15 17  1  0  0  0  0
 16 25  1  0  0  0  0
 17 19  1  0  0  0  0
 19  5  1  6  0  0  0
 19 21  1  0  0  0  0
 21 14  1  1  0  0  0
 23 14  1  6  0  0  0
 23 16  1  0  0  0  0
 23 29  1  0  0  0  0
 25 26  1  1  0  0  0
 25 27  1  0  0  0  0
 26  8  1  0  0  0  0
 27 18  1  6  0  0  0
 27 28  1  0  0  0  0
 28 20  1  1  0  0  0
 28 29  1  0  0  0  0
 29 11  1  6  0  0  0
 30 22  1  1  0  0  0
 30 31  1  0  0  0  0
 31 24  1  1  0  0  0
M  END
>  <CHROM.1>
-44.39921168,-49.56668543,74.35699951,-55.84665457,75.15988858,171.74713285
10.31285712,18.62935217,34.88753198,2.09485895,-0.96131554,-0.94522855

>  <Name>
2fcz_lig

>  <RI>
2.26996e+07

>  <Rbt.Current_Directory>
/home/itssahil/PROJECTS/Mol_Feturizer/New_Systems/rnas/2fcz

>  <Rbt.Executable>
rbdock ($Id: //depot/dev/client3/rdock/2013.1/src/exe/rbdock.cxx#4 $)

>  <Rbt.Library>
libRbt.so (2013.1, Build901 2013/11/27)

>  <Rbt.Parameter_File>
/export/apps/rDock/src/rDock_2013.1_src/data/scripts/dock_solv.prm

>  <Rbt.Receptor>
prm/pocket_docking_4.prm

>  <SCORE>
-21.8226

>  <SCORE.INTER>
-22.004

>  <SCORE.INTER.CONST>
1

>  <SCORE.INTER.POLAR>
-2.45086

>  <SCORE.INTER.ROT>
6

>  <SCORE.INTER.SOLV>
13.7612

>  <SCORE.INTER.VDW>
-18.6869

>  <SCORE.INTER.norm>
-0.709807

>  <SCORE.INTRA>
0.181431

>  <SCORE.INTRA.DIHEDRAL>
-6.96186

>  <SCORE.INTRA.DIHEDRAL.0>
10.8409

>  <SCORE.INTRA.POLAR>
0

>  <SCORE.INTRA.POLAR.0>
0

>  <SCORE.INTRA.REPUL>
0

>  <SCORE.INTRA.REPUL.0>
0

>  <SCORE.INTRA.SOLV>
-0.139836

>  <SCORE.INTRA.SOLV.lig_0>
-80.8302

>  <SCORE.INTRA.VDW>
3.73228

>  <SCORE.INTRA.VDW.0>
-4.23953

>  <SCORE.INTRA.norm>
0.00585262

>  <SCORE.RESTR>
0

>  <SCORE.RESTR.CAVITY>
0

>  <SCORE.RESTR.norm>
0

>  <SCORE.SYSTEM>
0

>  <SCORE.SYSTEM.CONST>
0

>  <SCORE.SYSTEM.DIHEDRAL>
0

>  <SCORE.SYSTEM.SOLV>
0

>  <SCORE.SYSTEM.norm>
0

>  <SCORE.heavy>
31

>  <SCORE.norm>
-0.703954

>  <RMSD>
5.867

$$$$
2fcz_lig
 OpenBabel11021811433D
libRbt.so/2013.1/901 2013/11/27
 31 33  0  0  0  0  0  0  0  0999 V2000
   13.7722   12.8853   34.7676 C   0  0  0  0  0  0  0  0  0  0  0  0
   15.8775   13.8910   32.5082 N   0  0  0  0  0  0  0  0  0  0  0  0
   14.6049   14.0292   34.9767 O   0  0  0  0  0  0  0  0  0  0  0  0
   12.3181   13.2399   35.0965 C   0  0  1  0  0  0  0  0  0  0  0  0
   13.3896   18.0156   33.3716 N   0  0  0  0  0  0  0  0  0  0  0  0
   11.7974   14.2415   34.1992 O   0  0  0  0  0  0  0  0  0  0  0  0
   10.8415   13.6384   33.3046 C   0  0  1  0  0  0  0  0  0  0  0  0
    9.0424   21.4889   33.2553 N   0  0  0  0  0  0  0  0  0  0  0  0
   11.0271   14.0471   31.9387 O   0  0  0  0  0  0  0  0  0  0  0  0
   12.2449   14.7727   31.6993 C   0  0  2  0  0  0  0  0  0  0  0  0
    8.8364   15.7455   31.3358 N   0  0  0  0  0  0  0  0  0  0  0  0
   13.5410   12.7544   31.3822 O   0  0  0  0  0  0  0  0  0  0  0  0
   13.4342   13.9338   32.1833 C   0  0  1  0  0  0  0  0  0  0  0  0
   11.2493   17.0211   31.8298 O   0  0  0  0  0  0  0  0  0  0  0  0
   14.7426   14.7213   32.0819 C   0  0  1  0  0  0  0  0  0  0  0  0
   10.2164   18.7290   33.0903 O   0  0  0  0  0  0  0  0  0  0  0  0
   14.6699   15.9761   32.9548 C   0  0  0  0  0  0  0  0  0  0  0  0
    8.7979   20.4629   30.1664 O   0  0  0  0  0  0  0  0  0  0  0  0
   13.5197   16.8605   32.4692 C   0  0  1  0  0  0  0  0  0  0  0  0
    7.4704   17.9171   30.0659 O   0  0  0  0  0  0  0  0  0  0  0  0
   12.1832   16.1113   32.4323 C   0  0  2  0  0  0  0  0  0  0  0  0
    9.9724   11.3369   33.0546 O   0  0  0  0  0  0  0  0  0  0  0  0
   10.1357   17.3539   32.6715 C   0  0  1  0  0  0  0  0  0  0  0  0
   10.2200   12.1435   35.7074 O   0  0  0  0  0  0  0  0  0  0  0  0
   10.1701   19.6832   32.0154 C   0  0  2  0  0  0  0  0  0  0  0  0
   10.2981   21.0910   32.6025 C   0  0  0  0  0  0  0  0  0  0  0  0
    8.8444   19.5406   31.2594 C   0  0  2  0  0  0  0  0  0  0  0  0
    8.7260   18.1117   30.7248 C   0  0  1  0  0  0  0  0  0  0  0  0
    8.8485   17.1118   31.8768 C   0  0  1  0  0  0  0  0  0  0  0  0
   11.0969   12.1359   33.4346 C   0  0  2  0  0  0  0  0  0  0  0  0
   11.4108   12.0216   34.9251 C   0  0  1  0  0  0  0  0  0  0  0  0
  3  1  1  0  0  0  0
  4  1  1  6  0  0  0
  4  6  1  0  0  0  0
  4 31  1  0  0  0  0
  6  7  1  0  0  0  0
  7  9  1  6  0  0  0
  7 30  1  0  0  0  0
 10  9  1  1  0  0  0
 10 13  1  0  0  0  0
 10 21  1  0  0  0  0
 13 12  1  6  0  0  0
 13 15  1  0  0  0  0
 15  2  1  1  0  0  0
 15 17  1  0  0  0  0
 16 25  1  0  0  0  0
 17 19  1  0  0  0  0
 19  5  1  1  0  0  0
 19 21  1  0  0  0  0
 21 14  1  6  0  0  0
 23 14  1  6  0  0  0
 23 16  1  0  0  0  0
 23 29  1  0  0  0  0
 25 26  1  1  0  0  0
 25 27  1  0  0  0  0
 26  8  1  0  0  0  0
 27 18  1  6  0  0  0
 27 28  1  0  0  0  0
 28 20  1  1  0  0  0
 28 29  1  0  0  0  0
 29 11  1  6  0  0  0
 30 22  1  1  0  0  0
 30 31  1  0  0  0  0
 31 24  1  1  0  0  0
M  END
>  <CHROM.1>
64.36927564,10.28321030,55.30985195,115.34183049,110.86901741,-74.55602928
11.37634189,15.81903052,32.69094895,-1.07979853,-0.15656613,-0.23147509

>  <Name>
2fcz_lig

>  <RI>
0

>  <Rbt.Current_Directory>
/home/itssahil/PROJECTS/Mol_Feturizer/New_Systems/rnas/2fcz

>  <Rbt.Executable>
rbdock ($Id: //depot/dev/client3/rdock/2013.1/src/exe/rbdock.cxx#4 $)

>  <Rbt.Library>
libRbt.so (2013.1, Build901 2013/11/27)

>  <Rbt.Parameter_File>
/export/apps/rDock/src/rDock_2013.1_src/data/scripts/dock_solv.prm

>  <Rbt.Receptor>
prm/blind_docking_40.prm

>  <SCORE>
14.9228

>  <SCORE.INTER>
-4.23295

>  <SCORE.INTER.CONST>
1

>  <SCORE.INTER.POLAR>
0

>  <SCORE.INTER.ROT>
6

>  <SCORE.INTER.SOLV>
20.117

>  <SCORE.INTER.VDW>
-17.1276

>  <SCORE.INTER.norm>
-0.136547

>  <SCORE.INTRA>
13.5

>  <SCORE.INTRA.DIHEDRAL>
10.5539

>  <SCORE.INTRA.DIHEDRAL.0>
10.8409

>  <SCORE.INTRA.POLAR>
0

>  <SCORE.INTRA.POLAR.0>
0

>  <SCORE.INTRA.REPUL>
0

>  <SCORE.INTRA.REPUL.0>
0

>  <SCORE.INTRA.SOLV>
5.10981

>  <SCORE.INTRA.SOLV.lig_0>
-80.8302

>  <SCORE.INTRA.VDW>
5.6681

>  <SCORE.INTRA.VDW.0>
-4.23953

>  <SCORE.INTRA.norm>
0.435482

>  <SCORE.RESTR>
5.65584

>  <SCORE.RESTR.CAVITY>
5.65584

>  <SCORE.RESTR.norm>
0.182446

>  <SCORE.SYSTEM>
0

>  <SCORE.SYSTEM.CONST>
0

>  <SCORE.SYSTEM.DIHEDRAL>
0

>  <SCORE.SYSTEM.SOLV>
0

>  <SCORE.SYSTEM.norm>
0

>  <SCORE.heavy>
31

>  <SCORE.norm>
0.481382

>  <RMSD>
5.872

$$$$
2fcz_lig
 OpenBabel11021811433D
libRbt.so/2013.1/901 2013/11/27
 31 33  0  0  0  0  0  0  0  0999 V2000
   13.7854   12.8762   34.7614 C   0  0  0  0  0  0  0  0  0  0  0  0
   15.8768   13.8807   32.5261 N   0  0  0  0  0  0  0  0  0  0  0  0
   14.6035   14.0295   34.9763 O   0  0  0  0  0  0  0  0  0  0  0  0
   12.3282   13.2084   35.1001 C   0  0  1  0  0  0  0  0  0  0  0  0
   13.4209   18.0069   33.4695 N   0  0  0  0  0  0  0  0  0  0  0  0
   11.7973   14.2276   34.2289 O   0  0  0  0  0  0  0  0  0  0  0  0
   10.8465   13.6386   33.3196 C   0  0  1  0  0  0  0  0  0  0  0  0
   10.1017   22.0853   31.5421 N   0  0  0  0  0  0  0  0  0  0  0  0
   11.0272   14.0840   31.9646 O   0  0  0  0  0  0  0  0  0  0  0  0
   12.2503   14.8047   31.7377 C   0  0  2  0  0  0  0  0  0  0  0  0
    8.9130   15.6802   31.4303 N   0  0  0  0  0  0  0  0  0  0  0  0
   13.5309   12.7831   31.3813 O   0  0  0  0  0  0  0  0  0  0  0  0
   13.4337   13.9480   32.2045 C   0  0  1  0  0  0  0  0  0  0  0  0
   11.2718   17.0578   31.9114 O   0  0  0  0  0  0  0  0  0  0  0  0
   14.7479   14.7274   32.1167 C   0  0  1  0  0  0  0  0  0  0  0  0
   10.1685   18.7394   33.1474 O   0  0  0  0  0  0  0  0  0  0  0  0
   14.6855   15.9661   33.0131 C   0  0  0  0  0  0  0  0  0  0  0  0
    8.6885   20.3764   30.1982 O   0  0  0  0  0  0  0  0  0  0  0  0
   13.5415   16.8680   32.5454 C   0  0  1  0  0  0  0  0  0  0  0  0
    7.4641   17.7784   30.1292 O   0  0  0  0  0  0  0  0  0  0  0  0
   12.1994   16.1298   32.4957 C   0  0  2  0  0  0  0  0  0  0  0  0
    9.9993   11.3360   33.0110 O   0  0  0  0  0  0  0  0  0  0  0  0
   10.1439   17.3567   32.7467 C   0  0  1  0  0  0  0  0  0  0  0  0
   10.2410   12.0766   35.6836 O   0  0  0  0  0  0  0  0  0  0  0  0
   10.0865   19.6767   32.0598 C   0  0  2  0  0  0  0  0  0  0  0  0
   10.1568   21.0962   32.6283 C   0  0  0  0  0  0  0  0  0  0  0  0
    8.7693   19.4712   31.3034 C   0  0  2  0  0  0  0  0  0  0  0  0
    8.7094   18.0318   30.7876 C   0  0  1  0  0  0  0  0  0  0  0  0
    8.8692   17.0529   31.9530 C   0  0  1  0  0  0  0  0  0  0  0  0
   11.1164   12.1358   33.4109 C   0  0  2  0  0  0  0  0  0  0  0  0
   11.4324   11.9863   34.8978 C   0  0  1  0  0  0  0  0  0  0  0  0
  3  1  1  0  0  0  0
  4  1  1  6  0  0  0
  4  6  1  0  0  0  0
  4 31  1  0  0  0  0
  6  7  1  0  0  0  0
  7  9  1  6  0  0  0
  7 30  1  0  0  0  0
 10  9  1  1  0  0  0
 10 13  1  0  0  0  0
 10 21  1  0  0  0  0
 13 12  1  6  0  0  0
 13 15  1  0  0  0  0
 15  2  1  1  0  0  0
 15 17  1  0  0  0  0
 16 25  1  0  0  0  0
 17 19  1  0  0  0  0
 19  5  1  1  0  0  0
 19 21  1  0  0  0  0
 21 14  1  6  0  0  0
 23 14  1  6  0  0  0
 23 16  1  0  0  0  0
 23 29  1  0  0  0  0
 25 26  1  1  0  0  0
 25 27  1  0  0  0  0
 26  8  1  0  0  0  0
 27 18  1  6  0  0  0
 27 28  1  0  0  0  0
 28 20  1  1  0  0  0
 28 29  1  0  0  0  0
 29 11  1  6  0  0  0
 30 22  1  1  0  0  0
 30 31  1  0  0  0  0
 31 24  1  1  0  0  0
M  END
>  <CHROM.1>
63.32823936,11.42649343,54.67580288,113.83815248,114.46985916,178.91889706
11.40482722,15.82190483,32.66856243,-1.10729383,-0.17211044,-0.25148534

>  <Name>
2fcz_lig

>  <RI>
0

>  <Rbt.Current_Directory>
/home/itssahil/PROJECTS/Mol_Feturizer/New_Systems/rnas/2fcz

>  <Rbt.Executable>
rbdock ($Id: //depot/dev/client3/rdock/2013.1/src/exe/rbdock.cxx#4 $)

>  <Rbt.Library>
libRbt.so (2013.1, Build901 2013/11/27)

>  <Rbt.Parameter_File>
/export/apps/rDock/src/rDock_2013.1_src/data/scripts/dock_solv.prm

>  <Rbt.Receptor>
prm/blind_docking_40.prm

>  <SCORE>
14.186

>  <SCORE.INTER>
-4.99733

>  <SCORE.INTER.CONST>
1

>  <SCORE.INTER.POLAR>
0

>  <SCORE.INTER.ROT>
6

>  <SCORE.INTER.SOLV>
18.22

>  <SCORE.INTER.VDW>
-17.0049

>  <SCORE.INTER.norm>
-0.161204

>  <SCORE.INTRA>
13.6888

>  <SCORE.INTRA.DIHEDRAL>
9.89047

>  <SCORE.INTRA.DIHEDRAL.0>
10.8409

>  <SCORE.INTRA.POLAR>
0

>  <SCORE.INTRA.POLAR.0>
0

>  <SCORE.INTRA.REPUL>
0.00144016

>  <SCORE.INTRA.REPUL.0>
0

>  <SCORE.INTRA.SOLV>
4.8665

>  <SCORE.INTRA.SOLV.lig_0>
-80.8302

>  <SCORE.INTRA.VDW>
6.30312

>  <SCORE.INTRA.VDW.0>
-4.23953

>  <SCORE.INTRA.norm>
0.441574

>  <SCORE.RESTR>
5.4945

>  <SCORE.RESTR.CAVITY>
5.4945

>  <SCORE.RESTR.norm>
0.177242

>  <SCORE.SYSTEM>
0

>  <SCORE.SYSTEM.CONST>
0

>  <SCORE.SYSTEM.DIHEDRAL>
0

>  <SCORE.SYSTEM.SOLV>
0

>  <SCORE.SYSTEM.norm>
0

>  <SCORE.heavy>
31

>  <SCORE.norm>
0.457612

>  <RMSD>
5.876

$$$$
2fcz_lig
 OpenBabel11021811433D
libRbt.so/2013.1/901 2013/11/27
 31 33  0  0  0  0  0  0  0  0999 V2000
   13.7588   13.1902   34.8117 C   0  0  0  0  0  0  0  0  0  0  0  0
   15.8447   13.8543   32.5033 N   0  0  0  0  0  0  0  0  0  0  0  0
   14.2254   12.0170   35.4836 O   0  0  0  0  0  0  0  0  0  0  0  0
   12.2670   13.3897   35.1000 C   0  0  1  0  0  0  0  0  0  0  0  0
   13.4740   18.0254   33.4670 N   0  0  0  0  0  0  0  0  0  0  0  0
   11.6782   14.3633   34.2139 O   0  0  0  0  0  0  0  0  0  0  0  0
   10.8157   13.6979   33.2700 C   0  0  1  0  0  0  0  0  0  0  0  0
   10.0563   22.1578   31.6540 N   0  0  0  0  0  0  0  0  0  0  0  0
   11.0030   14.1659   31.9235 O   0  0  0  0  0  0  0  0  0  0  0  0
   12.2423   14.8618   31.7069 C   0  0  2  0  0  0  0  0  0  0  0  0
    8.9935   15.7474   31.2633 N   0  0  0  0  0  0  0  0  0  0  0  0
   13.4806   12.8158   31.3408 O   0  0  0  0  0  0  0  0  0  0  0  0
   13.4050   13.9764   32.1722 C   0  0  1  0  0  0  0  0  0  0  0  0
   11.3116   17.1340   31.8932 O   0  0  0  0  0  0  0  0  0  0  0  0
   14.7359   14.7281   32.0955 C   0  0  1  0  0  0  0  0  0  0  0  0
   10.1352   18.7573   33.1397 O   0  0  0  0  0  0  0  0  0  0  0  0
   14.6963   15.9612   33.0007 C   0  0  0  0  0  0  0  0  0  0  0  0
    8.7596   20.4819   30.1899 O   0  0  0  0  0  0  0  0  0  0  0  0
   13.5740   16.8909   32.5351 C   0  0  1  0  0  0  0  0  0  0  0  0
    7.5735   17.8740   29.9768 O   0  0  0  0  0  0  0  0  0  0  0  0
   12.2166   16.1821   32.4744 C   0  0  2  0  0  0  0  0  0  0  0  0
   10.1876   11.3312   32.9247 O   0  0  0  0  0  0  0  0  0  0  0  0
   10.1456   17.3897   32.6896 C   0  0  1  0  0  0  0  0  0  0  0  0
   10.2696   12.0738   35.6063 O   0  0  0  0  0  0  0  0  0  0  0  0
   10.0869   19.7320   32.0835 C   0  0  2  0  0  0  0  0  0  0  0  0
   10.1145   21.1309   32.7044 C   0  0  0  0  0  0  0  0  0  0  0  0
    8.8056   19.5386   31.2648 C   0  0  2  0  0  0  0  0  0  0  0  0
    8.7864   18.1180   30.6963 C   0  0  1  0  0  0  0  0  0  0  0  0
    8.9097   17.0998   31.8320 C   0  0  1  0  0  0  0  0  0  0  0  0
   11.2146   12.2244   33.3660 C   0  0  2  0  0  0  0  0  0  0  0  0
   11.4909   12.0943   34.8627 C   0  0  1  0  0  0  0  0  0  0  0  0
  3  1  1  0  0  0  0
  4  1  1  6  0  0  0
  4  6  1  0  0  0  0
  4 31  1  0  0  0  0
  6  7  1  0  0  0  0
  7  9  1  6  0  0  0
  7 30  1  0  0  0  0
 10  9  1  1  0  0  0
 10 13  1  0  0  0  0
 10 21  1  0  0  0  0
 13 12  1  6  0  0  0
 13 15  1  0  0  0  0
 15  2  1  1  0  0  0
 15 17  1  0  0  0  0
 16 25  1  0  0  0  0
 17 19  1  0  0  0  0
 19  5  1  1  0  0  0
 19 21  1  0  0  0  0
 21 14  1  6  0  0  0
 23 14  1  6  0  0  0
 23 16  1  0  0  0  0
 23 29  1  0  0  0  0
 25 26  1  1  0  0  0
 25 27  1  0  0  0  0
 26  8  1  0  0  0  0
 27 18  1  6  0  0  0
 27 28  1  0  0  0  0
 28 20  1  1  0  0  0
 28 29  1  0  0  0  0
 29 11  1  6  0  0  0
 30 22  1  1  0  0  0
 30 31  1  0  0  0  0
 31 24  1  1  0  0  0
M  END
>  <CHROM.1>
-166.62594606,18.29621062,53.82823269,110.23771062,115.30902604,-179.57897927
11.40521214,15.80970094,32.65616694,-1.12336343,-0.17864683,-0.25582909

>  <Name>
2fcz_lig

>  <RI>
0

>  <Rbt.Current_Directory>
/home/itssahil/PROJECTS/Mol_Feturizer/New_Systems/rnas/2fcz

>  <Rbt.Executable>
rbdock ($Id: //depot/dev/client3/rdock/2013.1/src/exe/rbdock.cxx#4 $)

>  <Rbt.Library>
libRbt.so (2013.1, Build901 2013/11/27)

>  <Rbt.Parameter_File>
/export/apps/rDock/src/rDock_2013.1_src/data/scripts/dock_solv.prm

>  <Rbt.Receptor>
prm/blind_docking_40.prm

>  <SCORE>
12.2229

>  <SCORE.INTER>
-6.0256

>  <SCORE.INTER.CONST>
1

>  <SCORE.INTER.POLAR>
0

>  <SCORE.INTER.ROT>
6

>  <SCORE.INTER.SOLV>
18.0805

>  <SCORE.INTER.VDW>
-17.6439

>  <SCORE.INTER.norm>
-0.194374

>  <SCORE.INTRA>
12.7598

>  <SCORE.INTRA.DIHEDRAL>
9.4026

>  <SCORE.INTRA.DIHEDRAL.0>
10.8409

>  <SCORE.INTRA.POLAR>
0

>  <SCORE.INTRA.POLAR.0>
0

>  <SCORE.INTRA.REPUL>
0

>  <SCORE.INTRA.REPUL.0>
0

>  <SCORE.INTRA.SOLV>
3.56605

>  <SCORE.INTRA.SOLV.lig_0>
-80.8302

>  <SCORE.INTRA.VDW>
6.27548

>  <SCORE.INTRA.VDW.0>
-4.23953

>  <SCORE.INTRA.norm>
0.411607

>  <SCORE.RESTR>
5.4887

>  <SCORE.RESTR.CAVITY>
5.4887

>  <SCORE.RESTR.norm>
0.177055

>  <SCORE.SYSTEM>
0

>  <SCORE.SYSTEM.CONST>
0

>  <SCORE.SYSTEM.DIHEDRAL>
0

>  <SCORE.SYSTEM.SOLV>
0

>  <SCORE.SYSTEM.norm>
0

>  <SCORE.heavy>
31

>  <SCORE.norm>
0.394287

>  <RMSD>
5.877

$$$$
2fcz_lig
 OpenBabel11021811433D
libRbt.so/2013.1/901 2013/11/27
 31 33  0  0  0  0  0  0  0  0999 V2000
    8.0564   19.2744   30.2162 C   0  0  0  0  0  0  0  0  0  0  0  0
   13.5740   23.3600   33.9865 N   0  0  0  0  0  0  0  0  0  0  0  0
    8.2719   17.8651   30.1030 O   0  0  0  0  0  0  0  0  0  0  0  0
    7.3724   19.5850   31.5519 C   0  0  1  0  0  0  0  0  0  0  0  0
   12.7781   20.3107   37.7302 N   0  0  0  0  0  0  0  0  0  0  0  0
    8.1286   19.0757   32.6692 O   0  0  0  0  0  0  0  0  0  0  0  0
    8.7324   20.1723   33.3837 C   0  0  1  0  0  0  0  0  0  0  0  0
   10.7454   15.1211   34.6371 N   0  0  0  0  0  0  0  0  0  0  0  0
   10.1092   19.9252   33.7162 O   0  0  0  0  0  0  0  0  0  0  0  0
   10.6949   20.9135   34.5806 C   0  0  2  0  0  0  0  0  0  0  0  0
    7.8069   19.2193   37.9575 N   0  0  0  0  0  0  0  0  0  0  0  0
   11.2157   22.4019   32.7456 O   0  0  0  0  0  0  0  0  0  0  0  0
   11.7982   21.6583   33.8188 C   0  0  1  0  0  0  0  0  0  0  0  0
   10.2198   19.7401   36.6927 O   0  0  0  0  0  0  0  0  0  0  0  0
   12.5495   22.6231   34.7392 C   0  0  1  0  0  0  0  0  0  0  0  0
   10.0841   17.7809   35.3829 O   0  0  0  0  0  0  0  0  0  0  0  0
   13.2108   21.8511   35.8831 C   0  0  0  0  0  0  0  0  0  0  0  0
   10.9256   15.4964   38.1471 O   0  0  0  0  0  0  0  0  0  0  0  0
   12.1314   21.1311   36.6938 C   0  0  1  0  0  0  0  0  0  0  0  0
    8.4531   16.6513   39.0450 O   0  0  0  0  0  0  0  0  0  0  0  0
   11.2553   20.2240   35.8230 C   0  0  2  0  0  0  0  0  0  0  0  0
    8.6964   22.6247   33.0686 O   0  0  0  0  0  0  0  0  0  0  0  0
    9.3332   18.7971   36.0731 C   0  0  1  0  0  0  0  0  0  0  0  0
    6.2164   21.4227   32.6762 O   0  0  0  0  0  0  0  0  0  0  0  0
   10.9366   16.9910   36.2298 C   0  0  2  0  0  0  0  0  0  0  0  0
   11.6919   15.9814   35.3619 C   0  0  0  0  0  0  0  0  0  0  0  0
   10.0867   16.2618   37.2765 C   0  0  2  0  0  0  0  0  0  0  0  0
    9.3104   17.2946   38.0964 C   0  0  1  0  0  0  0  0  0  0  0  0
    8.4647   18.1690   37.1679 C   0  0  1  0  0  0  0  0  0  0  0  0
    8.6376   21.3528   32.4158 C   0  0  2  0  0  0  0  0  0  0  0  0
    7.2759   21.0944   31.7736 C   0  0  1  0  0  0  0  0  0  0  0  0
  3  1  1  0  0  0  0
  4  1  1  6  0  0  0
  4  6  1  0  0  0  0
  4 31  1  0  0  0  0
  6  7  1  0  0  0  0
  7  9  1  6  0  0  0
  7 30  1  0  0  0  0
 10  9  1  6  0  0  0
 10 13  1  0  0  0  0
 10 21  1  0  0  0  0
 13 12  1  6  0  0  0
 13 15  1  0  0  0  0
 15  2  1  6  0  0  0
 15 17  1  0  0  0  0
 16 25  1  0  0  0  0
 17 19  1  0  0  0  0
 19  5  1  1  0  0  0
 19 21  1  0  0  0  0
 21 14  1  1  0  0  0
 23 14  1  1  0  0  0
 23 16  1  0  0  0  0
 23 29  1  0  0  0  0
 25 26  1  6  0  0  0
 25 27  1  0  0  0  0
 26  8  1  0  0  0  0
 27 18  1  1  0  0  0
 27 28  1  0  0  0  0
 28 20  1  1  0  0  0
 28 29  1  0  0  0  0
 29 11  1  1  0  0  0
 30 22  1  1  0  0  0
 30 31  1  0  0  0  0
 31 24  1  1  0  0  0
M  END
>  <CHROM.1>
55.95612453,-172.12999508,-114.38969325,59.00932346,48.31109983,-58.63496216
9.92923880,19.47934754,34.80425544,1.84595289,-0.75421846,-0.74146577

>  <Name>
2fcz_lig

>  <RI>
3.41297e+07

>  <Rbt.Current_Directory>
/home/itssahil/PROJECTS/Mol_Feturizer/New_Systems/rnas/2fcz

>  <Rbt.Executable>
rbdock ($Id: //depot/dev/client3/rdock/2013.1/src/exe/rbdock.cxx#4 $)

>  <Rbt.Library>
libRbt.so (2013.1, Build901 2013/11/27)

>  <Rbt.Parameter_File>
/export/apps/rDock/src/rDock_2013.1_src/data/scripts/dock_solv.prm

>  <Rbt.Receptor>
prm/pocket_docking_2.prm

>  <SCORE>
-11.0846

>  <SCORE.INTER>
-13.9497

>  <SCORE.INTER.CONST>
1

>  <SCORE.INTER.POLAR>
-1.6784

>  <SCORE.INTER.ROT>
6

>  <SCORE.INTER.SOLV>
17.7767

>  <SCORE.INTER.VDW>
-17.2307

>  <SCORE.INTER.norm>
-0.449991

>  <SCORE.INTRA>
0.741191

>  <SCORE.INTRA.DIHEDRAL>
-2.63982

>  <SCORE.INTRA.DIHEDRAL.0>
10.8409

>  <SCORE.INTRA.POLAR>
0

>  <SCORE.INTRA.POLAR.0>
0

>  <SCORE.INTRA.REPUL>
0.100337

>  <SCORE.INTRA.REPUL.0>
0

>  <SCORE.INTRA.SOLV>
-1.92581

>  <SCORE.INTRA.SOLV.lig_0>
-80.8302

>  <SCORE.INTRA.VDW>
2.52232

>  <SCORE.INTRA.VDW.0>
-4.23953

>  <SCORE.INTRA.norm>
0.0239094

>  <SCORE.RESTR>
2.12397

>  <SCORE.RESTR.CAVITY>
2.12397

>  <SCORE.RESTR.norm>
0.0685152

>  <SCORE.SYSTEM>
0

>  <SCORE.SYSTEM.CONST>
0

>  <SCORE.SYSTEM.DIHEDRAL>
0

>  <SCORE.SYSTEM.SOLV>
0

>  <SCORE.SYSTEM.norm>
0

>  <SCORE.heavy>
31

>  <SCORE.norm>
-0.357566

>  <RMSD>
5.885

$$$$
2fcz_lig
 OpenBabel11021811433D
libRbt.so/2013.1/901 2013/11/27
 31 33  0  0  0  0  0  0  0  0999 V2000
    8.7100   18.4322   30.8891 C   0  0  0  0  0  0  0  0  0  0  0  0
   14.5725   23.1934   33.4431 N   0  0  0  0  0  0  0  0  0  0  0  0
    7.5891   18.7945   30.0781 O   0  0  0  0  0  0  0  0  0  0  0  0
    8.3581   18.6222   32.3684 C   0  0  1  0  0  0  0  0  0  0  0  0
   14.7134   20.1564   37.2777 N   0  0  0  0  0  0  0  0  0  0  0  0
    9.4545   18.2526   33.2291 O   0  0  0  0  0  0  0  0  0  0  0  0
   10.0329   19.4380   33.8106 C   0  0  1  0  0  0  0  0  0  0  0  0
    9.0233   17.9286   40.5915 N   0  0  0  0  0  0  0  0  0  0  0  0
   11.4699   19.4323   33.7650 O   0  0  0  0  0  0  0  0  0  0  0  0
   12.0890   20.4902   34.5164 C   0  0  2  0  0  0  0  0  0  0  0  0
   12.8164   16.9887   35.3647 N   0  0  0  0  0  0  0  0  0  0  0  0
   12.1488   21.9853   32.6152 O   0  0  0  0  0  0  0  0  0  0  0  0
   12.9717   21.3236   33.5791 C   0  0  1  0  0  0  0  0  0  0  0  0
   12.0885   19.3184   36.6822 O   0  0  0  0  0  0  0  0  0  0  0  0
   13.7648   22.3754   34.3584 C   0  0  1  0  0  0  0  0  0  0  0  0
   12.2547   18.3017   38.8063 O   0  0  0  0  0  0  0  0  0  0  0  0
   14.6795   21.6946   35.3789 C   0  0  0  0  0  0  0  0  0  0  0  0
    9.1337   16.3735   38.4763 O   0  0  0  0  0  0  0  0  0  0  0  0
   13.8260   20.8890   36.3605 C   0  0  1  0  0  0  0  0  0  0  0  0
   10.7484   15.2813   36.3660 O   0  0  0  0  0  0  0  0  0  0  0  0
   12.9127   19.8836   35.6507 C   0  0  2  0  0  0  0  0  0  0  0  0
    9.5071   21.8470   33.6231 O   0  0  0  0  0  0  0  0  0  0  0  0
   12.7376   18.2944   37.4499 C   0  0  1  0  0  0  0  0  0  0  0  0
    7.2474   20.2348   33.8325 O   0  0  0  0  0  0  0  0  0  0  0  0
   10.8482   18.0334   38.9397 C   0  0  2  0  0  0  0  0  0  0  0  0
   10.4728   18.1057   40.4219 C   0  0  0  0  0  0  0  0  0  0  0  0
   10.5359   16.6413   38.3792 C   0  0  2  0  0  0  0  0  0  0  0  0
   10.9639   16.5871   36.9111 C   0  0  1  0  0  0  0  0  0  0  0  0
   12.4466   16.9445   36.7862 C   0  0  1  0  0  0  0  0  0  0  0  0
    9.4922   20.5830   32.9526 C   0  0  2  0  0  0  0  0  0  0  0  0
    8.0727   20.0927   32.6733 C   0  0  1  0  0  0  0  0  0  0  0  0
  3  1  1  0  0  0  0
  4  1  1  6  0  0  0
  4  6  1  0  0  0  0
  4 31  1  0  0  0  0
  6  7  1  0  0  0  0
  7  9  1  6  0  0  0
  7 30  1  0  0  0  0
 10  9  1  6  0  0  0
 10 13  1  0  0  0  0
 10 21  1  0  0  0  0
 13 12  1  6  0  0  0
 13 15  1  0  0  0  0
 15  2  1  6  0  0  0
 15 17  1  0  0  0  0
 16 25  1  0  0  0  0
 17 19  1  0  0  0  0
 19  5  1  1  0  0  0
 19 21  1  0  0  0  0
 21 14  1  1  0  0  0
 23 14  1  6  0  0  0
 23 16  1  0  0  0  0
 23 29  1  0  0  0  0
 25 26  1  1  0  0  0
 25 27  1  0  0  0  0
 26  8  1  0  0  0  0
 27 18  1  6  0  0  0
 27 28  1  0  0  0  0
 28 20  1  1  0  0  0
 28 29  1  0  0  0  0
 29 11  1  6  0  0  0
 30 22  1  1  0  0  0
 30 31  1  0  0  0  0
 31 24  1  1  0  0  0
M  END
>  <CHROM.1>
179.26879190,-170.77220254,-122.09470725,155.67554953,147.89082499,176.09219437
11.09981506,19.22899575,35.31442994,1.80341557,-0.55832174,-1.02907313

>  <Name>
2fcz_lig

>  <RI>
2.29611e+07

>  <Rbt.Current_Directory>
/home/itssahil/PROJECTS/Mol_Feturizer/New_Systems/rnas/2fcz

>  <Rbt.Executable>
rbdock ($Id: //depot/dev/client3/rdock/2013.1/src/exe/rbdock.cxx#4 $)

>  <Rbt.Library>
libRbt.so (2013.1, Build901 2013/11/27)

>  <Rbt.Parameter_File>
/export/apps/rDock/src/rDock_2013.1_src/data/scripts/dock_solv.prm

>  <Rbt.Receptor>
prm/pocket_docking_3.prm

>  <SCORE>
-7.31055

>  <SCORE.INTER>
-11.6449

>  <SCORE.INTER.CONST>
1

>  <SCORE.INTER.POLAR>
-1.60447

>  <SCORE.INTER.ROT>
6

>  <SCORE.INTER.SOLV>
10.5969

>  <SCORE.INTER.VDW>
-13.5473

>  <SCORE.INTER.norm>
-0.375641

>  <SCORE.INTRA>
4.33432

>  <SCORE.INTRA.DIHEDRAL>
3.42844

>  <SCORE.INTRA.DIHEDRAL.0>
10.8409

>  <SCORE.INTRA.POLAR>
0

>  <SCORE.INTRA.POLAR.0>
0

>  <SCORE.INTRA.REPUL>
0

>  <SCORE.INTRA.REPUL.0>
0

>  <SCORE.INTRA.SOLV>
1.37191

>  <SCORE.INTRA.SOLV.lig_0>
-80.8302

>  <SCORE.INTRA.VDW>
1.93414

>  <SCORE.INTRA.VDW.0>
-4.23953

>  <SCORE.INTRA.norm>
0.139817

>  <SCORE.RESTR>
0

>  <SCORE.RESTR.CAVITY>
0

>  <SCORE.RESTR.norm>
0

>  <SCORE.SYSTEM>
0

>  <SCORE.SYSTEM.CONST>
0

>  <SCORE.SYSTEM.DIHEDRAL>
0

>  <SCORE.SYSTEM.SOLV>
0

>  <SCORE.SYSTEM.norm>
0

>  <SCORE.heavy>
31

>  <SCORE.norm>
-0.235824

>  <RMSD>
5.885

$$$$
2fcz_lig
 OpenBabel11021811433D
libRbt.so/2013.1/901 2013/11/27
 31 33  0  0  0  0  0  0  0  0999 V2000
    7.6783   18.6925   30.5091 C   0  0  0  0  0  0  0  0  0  0  0  0
   13.0362   23.5824   35.4012 N   0  0  0  0  0  0  0  0  0  0  0  0
    9.0992   18.5927   30.3803 O   0  0  0  0  0  0  0  0  0  0  0  0
    7.3278   19.8202   31.4859 C   0  0  1  0  0  0  0  0  0  0  0  0
   13.0279   19.0282   37.1921 N   0  0  0  0  0  0  0  0  0  0  0  0
    8.0006   19.6580   32.7510 O   0  0  0  0  0  0  0  0  0  0  0  0
    9.0366   20.6521   32.8780 C   0  0  1  0  0  0  0  0  0  0  0  0
   10.7987   16.1463   39.6637 N   0  0  0  0  0  0  0  0  0  0  0  0
   10.2728   20.1041   33.3664 O   0  0  0  0  0  0  0  0  0  0  0  0
   10.7060   20.6512   34.6234 C   0  0  2  0  0  0  0  0  0  0  0  0
   10.1008   17.3985   33.4132 N   0  0  0  0  0  0  0  0  0  0  0  0
   10.8394   22.9030   33.7485 O   0  0  0  0  0  0  0  0  0  0  0  0
   11.6073   21.8640   34.3608 C   0  0  1  0  0  0  0  0  0  0  0  0
   10.5724   18.5460   35.8940 O   0  0  0  0  0  0  0  0  0  0  0  0
   12.2101   22.3957   35.6632 C   0  0  1  0  0  0  0  0  0  0  0  0
   11.0240   16.4580   36.8985 O   0  0  0  0  0  0  0  0  0  0  0  0
   13.0644   21.3137   36.3275 C   0  0  0  0  0  0  0  0  0  0  0  0
    7.5010   15.3869   36.9933 O   0  0  0  0  0  0  0  0  0  0  0  0
   12.1844   20.1033   36.6459 C   0  0  1  0  0  0  0  0  0  0  0  0
    7.9888   15.6213   34.1719 O   0  0  0  0  0  0  0  0  0  0  0  0
   11.4508   19.5737   35.4090 C   0  0  2  0  0  0  0  0  0  0  0  0
    9.8134   22.4866   31.4131 O   0  0  0  0  0  0  0  0  0  0  0  0
   11.0580   17.2138   35.6735 C   0  0  1  0  0  0  0  0  0  0  0  0
    7.0416   22.2481   31.5115 O   0  0  0  0  0  0  0  0  0  0  0  0
    9.7102   16.2887   37.4582 C   0  0  2  0  0  0  0  0  0  0  0  0
    9.8308   15.5008   38.7650 C   0  0  0  0  0  0  0  0  0  0  0  0
    8.8215   15.5347   36.4625 C   0  0  2  0  0  0  0  0  0  0  0  0
    8.7582   16.3240   35.1531 C   0  0  1  0  0  0  0  0  0  0  0  0
   10.1717   16.5528   34.6130 C   0  0  1  0  0  0  0  0  0  0  0  0
    9.2306   21.1805   31.4558 C   0  0  2  0  0  0  0  0  0  0  0  0
    7.7918   21.1717   30.9428 C   0  0  1  0  0  0  0  0  0  0  0  0
  3  1  1  0  0  0  0
  4  1  1  6  0  0  0
  4  6  1  0  0  0  0
  4 31  1  0  0  0  0
  6  7  1  0  0  0  0
  7  9  1  6  0  0  0
  7 30  1  0  0  0  0
 10  9  1  6  0  0  0
 10 13  1  0  0  0  0
 10 21  1  0  0  0  0
 13 12  1  1  0  0  0
 13 15  1  0  0  0  0
 15  2  1  6  0  0  0
 15 17  1  0  0  0  0
 16 25  1  0  0  0  0
 17 19  1  0  0  0  0
 19  5  1  6  0  0  0
 19 21  1  0  0  0  0
 21 14  1  1  0  0  0
 23 14  1  1  0  0  0
 23 16  1  0  0  0  0
 23 29  1  0  0  0  0
 25 26  1  1  0  0  0
 25 27  1  0  0  0  0
 26  8  1  0  0  0  0
 27 18  1  1  0  0  0
 27 28  1  0  0  0  0
 28 20  1  6  0  0  0
 28 29  1  0  0  0  0
 29 11  1  6  0  0  0
 30 22  1  1  0  0  0
 30 31  1  0  0  0  0
 31 24  1  1  0  0  0
M  END
>  <CHROM.1>
-53.82327358,-118.21440740,-90.71937622,133.94746359,128.72201643,53.59977379
9.95658538,19.12856188,34.51974749,1.74317903,-0.80781472,-0.67891230

>  <Name>
2fcz_lig

>  <RI>
3.41297e+07

>  <Rbt.Current_Directory>
/home/itssahil/PROJECTS/Mol_Feturizer/New_Systems/rnas/2fcz

>  <Rbt.Executable>
rbdock ($Id: //depot/dev/client3/rdock/2013.1/src/exe/rbdock.cxx#4 $)

>  <Rbt.Library>
libRbt.so (2013.1, Build901 2013/11/27)

>  <Rbt.Parameter_File>
/export/apps/rDock/src/rDock_2013.1_src/data/scripts/dock_solv.prm

>  <Rbt.Receptor>
prm/pocket_docking_2.prm

>  <SCORE>
4.98853

>  <SCORE.INTER>
-3.96581

>  <SCORE.INTER.CONST>
1

>  <SCORE.INTER.POLAR>
0

>  <SCORE.INTER.ROT>
6

>  <SCORE.INTER.SOLV>
9.61198

>  <SCORE.INTER.VDW>
-13.4479

>  <SCORE.INTER.norm>
-0.127929

>  <SCORE.INTRA>
8.5388

>  <SCORE.INTRA.DIHEDRAL>
13.3833

>  <SCORE.INTRA.DIHEDRAL.0>
10.8409

>  <SCORE.INTRA.POLAR>
0

>  <SCORE.INTRA.POLAR.0>
0

>  <SCORE.INTRA.REPUL>
0.0726697

>  <SCORE.INTRA.REPUL.0>
0

>  <SCORE.INTRA.SOLV>
2.14008

>  <SCORE.INTRA.SOLV.lig_0>
-80.8302

>  <SCORE.INTRA.VDW>
0.413756

>  <SCORE.INTRA.VDW.0>
-4.23953

>  <SCORE.INTRA.norm>
0.275445

>  <SCORE.RESTR>
0.415535

>  <SCORE.RESTR.CAVITY>
0.415535

>  <SCORE.RESTR.norm>
0.0134044

>  <SCORE.SYSTEM>
0

>  <SCORE.SYSTEM.CONST>
0

>  <SCORE.SYSTEM.DIHEDRAL>
0

>  <SCORE.SYSTEM.SOLV>
0

>  <SCORE.SYSTEM.norm>
0

>  <SCORE.heavy>
31

>  <SCORE.norm>
0.16092

>  <RMSD>
5.890

$$$$
2fcz_lig
 OpenBabel11021811433D
libRbt.so/2013.1/901 2013/11/27
 31 33  0  0  0  0  0  0  0  0999 V2000
   15.5415   18.1698   36.2130 C   0  0  0  0  0  0  0  0  0  0  0  0
    8.7657   15.7215   41.1729 N   0  0  0  0  0  0  0  0  0  0  0  0
   16.9126   17.9174   35.8941 O   0  0  0  0  0  0  0  0  0  0  0  0
   15.2731   17.7857   37.6721 C   0  0  1  0  0  0  0  0  0  0  0  0
    7.2998   18.7676   37.6347 N   0  0  0  0  0  0  0  0  0  0  0  0
   13.9392   18.1491   38.0824 O   0  0  0  0  0  0  0  0  0  0  0  0
   13.1374   16.9600   38.2263 C   0  0  1  0  0  0  0  0  0  0  0  0
    9.8432   17.6838   32.3294 N   0  0  0  0  0  0  0  0  0  0  0  0
   11.8365   17.0938   37.6286 O   0  0  0  0  0  0  0  0  0  0  0  0
   10.8194   17.5680   38.5272 C   0  0  2  0  0  0  0  0  0  0  0  0
   11.7274   21.4920   36.6165 N   0  0  0  0  0  0  0  0  0  0  0  0
   11.4328   15.9970   40.2620 O   0  0  0  0  0  0  0  0  0  0  0  0
   10.3548   16.4094   39.4183 C   0  0  1  0  0  0  0  0  0  0  0  0
    9.9945   19.3747   37.0714 O   0  0  0  0  0  0  0  0  0  0  0  0
    9.1719   16.8275   40.2949 C   0  0  1  0  0  0  0  0  0  0  0  0
   10.4010   18.4386   34.9428 O   0  0  0  0  0  0  0  0  0  0  0  0
    7.9896   17.2458   39.4181 C   0  0  0  0  0  0  0  0  0  0  0  0
    8.4027   20.9354   33.1151 O   0  0  0  0  0  0  0  0  0  0  0  0
    8.4051   18.4326   38.5465 C   0  0  1  0  0  0  0  0  0  0  0  0
   10.4862   22.5467   34.2624 O   0  0  0  0  0  0  0  0  0  0  0  0
    9.6573   18.1354   37.7144 C   0  0  2  0  0  0  0  0  0  0  0  0
   13.6105   14.5511   37.9295 O   0  0  0  0  0  0  0  0  0  0  0  0
   10.9483   19.2377   36.0081 C   0  0  1  0  0  0  0  0  0  0  0  0
   15.6578   15.9299   39.2166 O   0  0  0  0  0  0  0  0  0  0  0  0
    9.2282   18.9940   34.3230 C   0  0  2  0  0  0  0  0  0  0  0  0
    8.7414   18.0286   33.2395 C   0  0  0  0  0  0  0  0  0  0  0  0
    9.5690   20.3560   33.7080 C   0  0  2  0  0  0  0  0  0  0  0  0
   10.0948   21.2821   34.8067 C   0  0  1  0  0  0  0  0  0  0  0  0
   11.2989   20.6394   35.4988 C   0  0  1  0  0  0  0  0  0  0  0  0
   13.9331   15.8763   37.4969 C   0  0  2  0  0  0  0  0  0  0  0  0
   15.3634   16.2713   37.8595 C   0  0  1  0  0  0  0  0  0  0  0  0
  3  1  1  0  0  0  0
  4  1  1  6  0  0  0
  4  6  1  0  0  0  0
  4 31  1  0  0  0  0
  6  7  1  0  0  0  0
  7  9  1  6  0  0  0
  7 30  1  0  0  0  0
 10  9  1  6  0  0  0
 10 13  1  0  0  0  0
 10 21  1  0  0  0  0
 13 12  1  1  0  0  0
 13 15  1  0  0  0  0
 15  2  1  6  0  0  0
 15 17  1  0  0  0  0
 16 25  1  0  0  0  0
 17 19  1  0  0  0  0
 19  5  1  6  0  0  0
 19 21  1  0  0  0  0
 21 14  1  1  0  0  0
 23 14  1  1  0  0  0
 23 16  1  0  0  0  0
 23 29  1  0  0  0  0
 25 26  1  6  0  0  0
 25 27  1  0  0  0  0
 26  8  1  0  0  0  0
 27 18  1  1  0  0  0
 27 28  1  0  0  0  0
 28 20  1  6  0  0  0
 28 29  1  0  0  0  0
 29 11  1  1  0  0  0
 30 22  1  1  0  0  0
 30 31  1  0  0  0  0
 31 24  1  1  0  0  0
M  END
>  <CHROM.1>
174.08089917,-91.74507050,-78.43332384,69.14937100,63.80441367,-52.00378880
11.33110316,18.15122864,36.92848347,-0.85298708,0.15349952,-0.95912674

>  <Name>
2fcz_lig

>  <RI>
1.32928e+07

>  <Rbt.Current_Directory>
/home/itssahil/PROJECTS/Mol_Feturizer/New_Systems/rnas/2fcz

>  <Rbt.Executable>
rbdock ($Id: //depot/dev/client3/rdock/2013.1/src/exe/rbdock.cxx#4 $)

>  <Rbt.Library>
libRbt.so (2013.1, Build901 2013/11/27)

>  <Rbt.Parameter_File>
/export/apps/rDock/src/rDock_2013.1_src/data/scripts/dock_solv.prm

>  <Rbt.Receptor>
prm/pocket_docking_7.prm

>  <SCORE>
-14.818

>  <SCORE.INTER>
-12.7086

>  <SCORE.INTER.CONST>
1

>  <SCORE.INTER.POLAR>
-2.32533

>  <SCORE.INTER.ROT>
6

>  <SCORE.INTER.SOLV>
15.5086

>  <SCORE.INTER.VDW>
-13.4908

>  <SCORE.INTER.norm>
-0.409956

>  <SCORE.INTRA>
-2.10939

>  <SCORE.INTRA.DIHEDRAL>
-4.45757

>  <SCORE.INTRA.DIHEDRAL.0>
10.8409

>  <SCORE.INTRA.POLAR>
0

>  <SCORE.INTRA.POLAR.0>
0

>  <SCORE.INTRA.REPUL>
0

>  <SCORE.INTRA.REPUL.0>
0

>  <SCORE.INTRA.SOLV>
-2.41486

>  <SCORE.INTRA.SOLV.lig_0>
-80.8302

>  <SCORE.INTRA.VDW>
1.32682

>  <SCORE.INTRA.VDW.0>
-4.23953

>  <SCORE.INTRA.norm>
-0.0680449

>  <SCORE.RESTR>
0

>  <SCORE.RESTR.CAVITY>
0

>  <SCORE.RESTR.norm>
0

>  <SCORE.SYSTEM>
0

>  <SCORE.SYSTEM.CONST>
0

>  <SCORE.SYSTEM.DIHEDRAL>
0

>  <SCORE.SYSTEM.SOLV>
0

>  <SCORE.SYSTEM.norm>
0

>  <SCORE.heavy>
31

>  <SCORE.norm>
-0.478001

>  <RMSD>
5.890

$$$$
2fcz_lig
 OpenBabel11021811433D
libRbt.so/2013.1/901 2013/11/27
 31 33  0  0  0  0  0  0  0  0999 V2000
   10.6171   16.1764   40.6887 C   0  0  0  0  0  0  0  0  0  0  0  0
    6.3070   14.9421   39.7148 N   0  0  0  0  0  0  0  0  0  0  0  0
   11.6860   15.8235   41.5710 O   0  0  0  0  0  0  0  0  0  0  0  0
   11.1566   16.3325   39.2629 C   0  0  1  0  0  0  0  0  0  0  0  0
    7.5540   15.0179   34.9834 N   0  0  0  0  0  0  0  0  0  0  0  0
   10.1008   16.6104   38.3207 O   0  0  0  0  0  0  0  0  0  0  0  0
   10.1901   17.9819   37.8861 C   0  0  1  0  0  0  0  0  0  0  0  0
   11.9066   15.7044   32.7362 N   0  0  0  0  0  0  0  0  0  0  0  0
    8.9141   18.6444   37.8785 O   0  0  0  0  0  0  0  0  0  0  0  0
    7.7983   17.7748   37.6221 C   0  0  2  0  0  0  0  0  0  0  0  0
    8.0868   20.2407   33.8617 N   0  0  0  0  0  0  0  0  0  0  0  0
    7.2162   17.6123   39.9649 O   0  0  0  0  0  0  0  0  0  0  0  0
    7.6005   16.8420   38.8234 C   0  0  1  0  0  0  0  0  0  0  0  0
    7.9988   17.7954   35.1679 O   0  0  0  0  0  0  0  0  0  0  0  0
    6.5151   15.8007   38.5406 C   0  0  1  0  0  0  0  0  0  0  0  0
   10.1071   17.1449   34.3286 O   0  0  0  0  0  0  0  0  0  0  0  0
    6.9132   14.9389   37.3404 C   0  0  0  0  0  0  0  0  0  0  0  0
    8.8892   16.4546   30.9215 O   0  0  0  0  0  0  0  0  0  0  0  0
    7.0746   15.8340   36.1101 C   0  0  1  0  0  0  0  0  0  0  0  0
    8.3916   19.2717   31.1853 O   0  0  0  0  0  0  0  0  0  0  0  0
    8.0665   16.9780   36.3469 C   0  0  2  0  0  0  0  0  0  0  0  0
   11.7429   19.8309   38.4197 O   0  0  0  0  0  0  0  0  0  0  0  0
    9.2764   18.2584   34.7068 C   0  0  1  0  0  0  0  0  0  0  0  0
   13.0181   17.3806   38.0739 O   0  0  0  0  0  0  0  0  0  0  0  0
    9.5854   16.3517   33.2484 C   0  0  2  0  0  0  0  0  0  0  0  0
   10.5496   15.1938   32.9790 C   0  0  0  0  0  0  0  0  0  0  0  0
    9.4379   17.2235   31.9963 C   0  0  2  0  0  0  0  0  0  0  0  0
    8.5057   18.3954   32.3112 C   0  0  1  0  0  0  0  0  0  0  0  0
    9.0439   19.1833   33.5078 C   0  0  1  0  0  0  0  0  0  0  0  0
   11.1114   18.6447   38.9114 C   0  0  2  0  0  0  0  0  0  0  0  0
   12.1131   17.5214   39.1722 C   0  0  1  0  0  0  0  0  0  0  0  0
  3  1  1  0  0  0  0
  4  1  1  1  0  0  0
  4  6  1  0  0  0  0
  4 31  1  0  0  0  0
  6  7  1  0  0  0  0
  7  9  1  1  0  0  0
  7 30  1  0  0  0  0
 10  9  1  1  0  0  0
 10 13  1  0  0  0  0
 10 21  1  0  0  0  0
 13 12  1  1  0  0  0
 13 15  1  0  0  0  0
 15  2  1  1  0  0  0
 15 17  1  0  0  0  0
 16 25  1  0  0  0  0
 17 19  1  0  0  0  0
 19  5  1  6  0  0  0
 19 21  1  0  0  0  0
 21 14  1  6  0  0  0
 23 14  1  6  0  0  0
 23 16  1  0  0  0  0
 23 29  1  0  0  0  0
 25 26  1  6  0  0  0
 25 27  1  0  0  0  0
 26  8  1  0  0  0  0
 27 18  1  6  0  0  0
 27 28  1  0  0  0  0
 28 20  1  6  0  0  0
 28 29  1  0  0  0  0
 29 11  1  1  0  0  0
 30 22  1  6  0  0  0
 30 31  1  0  0  0  0
 31 24  1  6  0  0  0
M  END
>  <CHROM.1>
176.54662035,-30.08038239,69.26778442,96.94293693,62.68949924,-54.63221101
9.30278745,17.17403722,36.35315001,-1.45257840,-0.31478794,-1.43971739

>  <Name>
2fcz_lig

>  <RI>
0

>  <Rbt.Current_Directory>
/home/itssahil/PROJECTS/Mol_Feturizer/New_Systems/rnas/2fcz

>  <Rbt.Executable>
rbdock ($Id: //depot/dev/client3/rdock/2013.1/src/exe/rbdock.cxx#4 $)

>  <Rbt.Library>
libRbt.so (2013.1, Build901 2013/11/27)

>  <Rbt.Parameter_File>
/export/apps/rDock/src/rDock_2013.1_src/data/scripts/dock_solv.prm

>  <Rbt.Receptor>
prm/pocket_docking_6.prm

>  <SCORE>
-17.9383

>  <SCORE.INTER>
-20.4354

>  <SCORE.INTER.CONST>
1

>  <SCORE.INTER.POLAR>
-2.73904

>  <SCORE.INTER.ROT>
6

>  <SCORE.INTER.SOLV>
13.3566

>  <SCORE.INTER.VDW>
-16.5456

>  <SCORE.INTER.norm>
-0.659206

>  <SCORE.INTRA>
2.49708

>  <SCORE.INTRA.DIHEDRAL>
-1.78058

>  <SCORE.INTRA.DIHEDRAL.0>
10.8409

>  <SCORE.INTRA.POLAR>
0

>  <SCORE.INTRA.POLAR.0>
0

>  <SCORE.INTRA.REPUL>
0

>  <SCORE.INTRA.REPUL.0>
0

>  <SCORE.INTRA.SOLV>
0.218046

>  <SCORE.INTRA.SOLV.lig_0>
-80.8302

>  <SCORE.INTRA.VDW>
3.27835

>  <SCORE.INTRA.VDW.0>
-4.23953

>  <SCORE.INTRA.norm>
0.0805509

>  <SCORE.RESTR>
0

>  <SCORE.RESTR.CAVITY>
0

>  <SCORE.RESTR.norm>
0

>  <SCORE.SYSTEM>
0

>  <SCORE.SYSTEM.CONST>
0

>  <SCORE.SYSTEM.DIHEDRAL>
0

>  <SCORE.SYSTEM.SOLV>
0

>  <SCORE.SYSTEM.norm>
0

>  <SCORE.heavy>
31

>  <SCORE.norm>
-0.578655

>  <RMSD>
5.901

$$$$
2fcz_lig
 OpenBabel11021811433D
libRbt.so/2013.1/901 2013/11/27
 31 33  0  0  0  0  0  0  0  0999 V2000
   15.3433   15.2052   32.4565 C   0  0  0  0  0  0  0  0  0  0  0  0
   12.0721   12.8467   31.9915 N   0  0  0  0  0  0  0  0  0  0  0  0
   15.1112   14.3317   31.3482 O   0  0  0  0  0  0  0  0  0  0  0  0
   14.8737   16.6207   32.1036 C   0  0  1  0  0  0  0  0  0  0  0  0
    9.2723   16.6088   30.5935 N   0  0  0  0  0  0  0  0  0  0  0  0
   13.4594   16.7857   32.3322 O   0  0  0  0  0  0  0  0  0  0  0  0
   13.2513   17.6269   33.4840 C   0  0  1  0  0  0  0  0  0  0  0  0
    9.2873   20.9980   29.1544 N   0  0  0  0  0  0  0  0  0  0  0  0
   12.2467   17.1096   34.3731 O   0  0  0  0  0  0  0  0  0  0  0  0
   11.3561   16.1570   33.7679 C   0  0  2  0  0  0  0  0  0  0  0  0
    8.8031   19.6404   35.0245 N   0  0  0  0  0  0  0  0  0  0  0  0
   12.7691   14.2765   34.3343 O   0  0  0  0  0  0  0  0  0  0  0  0
   12.1718   14.9717   33.2370 C   0  0  1  0  0  0  0  0  0  0  0  0
    9.6156   17.7798   33.1347 O   0  0  0  0  0  0  0  0  0  0  0  0
   11.2859   13.9975   32.4569 C   0  0  1  0  0  0  0  0  0  0  0  0
   10.0108   19.4415   31.5051 O   0  0  0  0  0  0  0  0  0  0  0  0
   10.6556   14.7062   31.2560 C   0  0  0  0  0  0  0  0  0  0  0  0
    6.4462   20.0361   30.7923 O   0  0  0  0  0  0  0  0  0  0  0  0
    9.7954   15.8696   31.7534 C   0  0  1  0  0  0  0  0  0  0  0  0
    6.6538   20.8215   33.5479 O   0  0  0  0  0  0  0  0  0  0  0  0
   10.5826   16.8394   32.6414 C   0  0  2  0  0  0  0  0  0  0  0  0
   14.7887   18.7827   35.0382 O   0  0  0  0  0  0  0  0  0  0  0  0
    9.9738   19.1520   32.9150 C   0  0  1  0  0  0  0  0  0  0  0  0
   15.5804   18.9455   32.3744 O   0  0  0  0  0  0  0  0  0  0  0  0
    8.7534   19.2710   30.8284 C   0  0  2  0  0  0  0  0  0  0  0  0
    8.9498   19.5795   29.3420 C   0  0  0  0  0  0  0  0  0  0  0  0
    7.7116   20.2177   31.4351 C   0  0  2  0  0  0  0  0  0  0  0  0
    7.5719   19.9149   32.9285 C   0  0  1  0  0  0  0  0  0  0  0  0
    8.9346   20.0338   33.6147 C   0  0  1  0  0  0  0  0  0  0  0  0
   14.6080   17.6445   34.1901 C   0  0  2  0  0  0  0  0  0  0  0  0
   15.5586   17.6571   32.9944 C   0  0  1  0  0  0  0  0  0  0  0  0
  3  1  1  0  0  0  0
  4  1  1  1  0  0  0
  4  6  1  0  0  0  0
  4 31  1  0  0  0  0
  6  7  1  0  0  0  0
  7  9  1  1  0  0  0
  7 30  1  0  0  0  0
 10  9  1  6  0  0  0
 10 13  1  0  0  0  0
 10 21  1  0  0  0  0
 13 12  1  1  0  0  0
 13 15  1  0  0  0  0
 15  2  1  6  0  0  0
 15 17  1  0  0  0  0
 16 25  1  0  0  0  0
 17 19  1  0  0  0  0
 19  5  1  6  0  0  0
 19 21  1  0  0  0  0
 21 14  1  1  0  0  0
 23 14  1  6  0  0  0
 23 16  1  0  0  0  0
 23 29  1  0  0  0  0
 25 26  1  6  0  0  0
 25 27  1  0  0  0  0
 26  8  1  0  0  0  0
 27 18  1  6  0  0  0
 27 28  1  0  0  0  0
 28 20  1  1  0  0  0
 28 29  1  0  0  0  0
 29 11  1  1  0  0  0
 30 22  1  1  0  0  0
 30 31  1  0  0  0  0
 31 24  1  6  0  0  0
M  END
>  <CHROM.1>
84.05258886,-19.75863665,59.07914357,107.87584403,64.91236127,-65.61187090
11.23143068,17.55621640,32.49186730,-0.51544412,-0.32487109,0.24329993

>  <Name>
2fcz_lig

>  <RI>
0

>  <Rbt.Current_Directory>
/home/itssahil/PROJECTS/Mol_Feturizer/New_Systems/rnas/2fcz

>  <Rbt.Executable>
rbdock ($Id: //depot/dev/client3/rdock/2013.1/src/exe/rbdock.cxx#4 $)

>  <Rbt.Library>
libRbt.so (2013.1, Build901 2013/11/27)

>  <Rbt.Parameter_File>
/export/apps/rDock/src/rDock_2013.1_src/data/scripts/dock_solv.prm

>  <Rbt.Receptor>
prm/blind_docking_40.prm

>  <SCORE>
17.7777

>  <SCORE.INTER>
-2.70536

>  <SCORE.INTER.CONST>
1

>  <SCORE.INTER.POLAR>
-0.824792

>  <SCORE.INTER.ROT>
6

>  <SCORE.INTER.SOLV>
21.5161

>  <SCORE.INTER.VDW>
-13.8263

>  <SCORE.INTER.norm>
-0.0872698

>  <SCORE.INTRA>
8.65544

>  <SCORE.INTRA.DIHEDRAL>
3.10855

>  <SCORE.INTRA.DIHEDRAL.0>
10.8409

>  <SCORE.INTRA.POLAR>
0

>  <SCORE.INTRA.POLAR.0>
0

>  <SCORE.INTRA.REPUL>
0

>  <SCORE.INTRA.REPUL.0>
0

>  <SCORE.INTRA.SOLV>
2.53477

>  <SCORE.INTRA.SOLV.lig_0>
-80.8302

>  <SCORE.INTRA.VDW>
5.83378

>  <SCORE.INTRA.VDW.0>
-4.23953

>  <SCORE.INTRA.norm>
0.279208

>  <SCORE.RESTR>
11.8276

>  <SCORE.RESTR.CAVITY>
11.8276

>  <SCORE.RESTR.norm>
0.381537

>  <SCORE.SYSTEM>
0

>  <SCORE.SYSTEM.CONST>
0

>  <SCORE.SYSTEM.DIHEDRAL>
0

>  <SCORE.SYSTEM.SOLV>
0

>  <SCORE.SYSTEM.norm>
0

>  <SCORE.heavy>
31

>  <SCORE.norm>
0.573474

>  <RMSD>
5.902

$$$$
2fcz_lig
 OpenBabel11021811433D
libRbt.so/2013.1/901 2013/11/27
 31 33  0  0  0  0  0  0  0  0999 V2000
    8.0667   14.5568   34.4020 C   0  0  0  0  0  0  0  0  0  0  0  0
   10.5840   15.8806   40.0866 N   0  0  0  0  0  0  0  0  0  0  0  0
    7.6134   13.9365   35.6084 O   0  0  0  0  0  0  0  0  0  0  0  0
    8.4013   16.0274   34.6735 C   0  0  1  0  0  0  0  0  0  0  0  0
   13.0025   19.6646   38.1425 N   0  0  0  0  0  0  0  0  0  0  0  0
    9.4710   16.1628   35.6312 O   0  0  0  0  0  0  0  0  0  0  0  0
   10.6647   16.6145   34.9612 C   0  0  1  0  0  0  0  0  0  0  0  0
   10.8719   21.0162   34.4648 N   0  0  0  0  0  0  0  0  0  0  0  0
   11.8355   15.8834   35.3634 O   0  0  0  0  0  0  0  0  0  0  0  0
   12.3040   16.1987   36.6855 C   0  0  2  0  0  0  0  0  0  0  0  0
   16.0017   17.0992   34.5589 N   0  0  0  0  0  0  0  0  0  0  0  0
   11.0305   14.4128   37.7064 O   0  0  0  0  0  0  0  0  0  0  0  0
   11.2194   15.8300   37.7053 C   0  0  1  0  0  0  0  0  0  0  0  0
   13.8213   18.0159   36.0076 O   0  0  0  0  0  0  0  0  0  0  0  0
   11.6120   16.2783   39.1149 C   0  0  1  0  0  0  0  0  0  0  0  0
   12.7624   18.8777   34.0818 O   0  0  0  0  0  0  0  0  0  0  0  0
   11.7916   17.7976   39.1525 C   0  0  0  0  0  0  0  0  0  0  0  0
   14.9976   21.7889   33.7709 O   0  0  0  0  0  0  0  0  0  0  0  0
   12.9012   18.1970   38.1778 C   0  0  1  0  0  0  0  0  0  0  0  0
   16.8093   19.5901   33.4021 O   0  0  0  0  0  0  0  0  0  0  0  0
   12.6406   17.6869   36.7563 C   0  0  2  0  0  0  0  0  0  0  0  0
   11.1765   17.1808   32.6092 O   0  0  0  0  0  0  0  0  0  0  0  0
   13.6669   17.8782   34.5875 C   0  0  1  0  0  0  0  0  0  0  0  0
    8.7022   18.1295   33.4619 O   0  0  0  0  0  0  0  0  0  0  0  0
   13.2004   20.2330   34.2800 C   0  0  2  0  0  0  0  0  0  0  0  0
   12.1328   21.1801   33.7267 C   0  0  0  0  0  0  0  0  0  0  0  0
   14.5333   20.4527   33.5556 C   0  0  2  0  0  0  0  0  0  0  0  0
   15.5654   19.4618   34.0984 C   0  0  1  0  0  0  0  0  0  0  0  0
   15.0475   18.0304   33.9410 C   0  0  1  0  0  0  0  0  0  0  0  0
   10.3834   16.3666   33.4784 C   0  0  2  0  0  0  0  0  0  0  0  0
    8.8980   16.7143   33.4014 C   0  0  1  0  0  0  0  0  0  0  0  0
  3  1  1  0  0  0  0
  4  1  1  6  0  0  0
  4  6  1  0  0  0  0
  4 31  1  0  0  0  0
  6  7  1  0  0  0  0
  7  9  1  1  0  0  0
  7 30  1  0  0  0  0
 10  9  1  6  0  0  0
 10 13  1  0  0  0  0
 10 21  1  0  0  0  0
 13 12  1  1  0  0  0
 13 15  1  0  0  0  0
 15  2  1  1  0  0  0
 15 17  1  0  0  0  0
 16 25  1  0  0  0  0
 17 19  1  0  0  0  0
 19  5  1  6  0  0  0
 19 21  1  0  0  0  0
 21 14  1  6  0  0  0
 23 14  1  1  0  0  0
 23 16  1  0  0  0  0
 23 29  1  0  0  0  0
 25 26  1  6  0  0  0
 25 27  1  0  0  0  0
 26  8  1  0  0  0  0
 27 18  1  1  0  0  0
 27 28  1  0  0  0  0
 28 20  1  6  0  0  0
 28 29  1  0  0  0  0
 29 11  1  1  0  0  0
 30 22  1  6  0  0  0
 30 31  1  0  0  0  0
 31 24  1  1  0  0  0
M  END
>  <CHROM.1>
62.16751995,-72.92194149,62.12619512,67.96563502,68.38029742,62.59703887
11.97569150,17.64093151,35.37785115,2.60432909,0.54487463,1.99032473

>  <Name>
2fcz_lig

>  <RI>
0

>  <Rbt.Current_Directory>
/home/itssahil/PROJECTS/Mol_Feturizer/New_Systems/rnas/2fcz

>  <Rbt.Executable>
rbdock ($Id: //depot/dev/client3/rdock/2013.1/src/exe/rbdock.cxx#4 $)

>  <Rbt.Library>
libRbt.so (2013.1, Build901 2013/11/27)

>  <Rbt.Parameter_File>
/export/apps/rDock/src/rDock_2013.1_src/data/scripts/dock_solv.prm

>  <Rbt.Receptor>
prm/pocket_docking_6.prm

>  <SCORE>
-10.7201

>  <SCORE.INTER>
-6.53588

>  <SCORE.INTER.CONST>
1

>  <SCORE.INTER.POLAR>
-1.16249

>  <SCORE.INTER.ROT>
6

>  <SCORE.INTER.SOLV>
8.26018

>  <SCORE.INTER.VDW>
-10.8357

>  <SCORE.INTER.norm>
-0.210835

>  <SCORE.INTRA>
-4.18421

>  <SCORE.INTRA.DIHEDRAL>
-9.19726

>  <SCORE.INTRA.DIHEDRAL.0>
10.8409

>  <SCORE.INTRA.POLAR>
0

>  <SCORE.INTRA.POLAR.0>
0

>  <SCORE.INTRA.REPUL>
0

>  <SCORE.INTRA.REPUL.0>
0

>  <SCORE.INTRA.SOLV>
-2.26461

>  <SCORE.INTRA.SOLV.lig_0>
-80.8302

>  <SCORE.INTRA.VDW>
1.54673

>  <SCORE.INTRA.VDW.0>
-4.23953

>  <SCORE.INTRA.norm>
-0.134974

>  <SCORE.RESTR>
0

>  <SCORE.RESTR.CAVITY>
0

>  <SCORE.RESTR.norm>
0

>  <SCORE.SYSTEM>
0

>  <SCORE.SYSTEM.CONST>
0

>  <SCORE.SYSTEM.DIHEDRAL>
0

>  <SCORE.SYSTEM.SOLV>
0

>  <SCORE.SYSTEM.norm>
0

>  <SCORE.heavy>
31

>  <SCORE.norm>
-0.345809

>  <RMSD>
5.917

$$$$
2fcz_lig
 OpenBabel11021811433D
libRbt.so/2013.1/901 2013/11/27
 31 33  0  0  0  0  0  0  0  0999 V2000
   14.2404   17.3201   33.1677 C   0  0  0  0  0  0  0  0  0  0  0  0
   19.8212   23.5899   32.8499 N   0  0  0  0  0  0  0  0  0  0  0  0
   13.7301   18.3265   34.0465 O   0  0  0  0  0  0  0  0  0  0  0  0
   15.7722   17.3242   33.2146 C   0  0  1  0  0  0  0  0  0  0  0  0
   15.0797   24.8004   32.8631 N   0  0  0  0  0  0  0  0  0  0  0  0
   16.3077   18.6505   33.0309 O   0  0  0  0  0  0  0  0  0  0  0  0
   16.8440   19.1320   34.2792 C   0  0  1  0  0  0  0  0  0  0  0  0
   11.8358   22.8781   29.4930 N   0  0  0  0  0  0  0  0  0  0  0  0
   16.4568   20.4875   34.5619 O   0  0  0  0  0  0  0  0  0  0  0  0
   16.7426   21.4167   33.5028 C   0  0  2  0  0  0  0  0  0  0  0  0
   13.4555   21.9011   35.6811 N   0  0  0  0  0  0  0  0  0  0  0  0
   19.1136   20.9367   33.5419 O   0  0  0  0  0  0  0  0  0  0  0  0
   18.1538   21.9847   33.6984 C   0  0  1  0  0  0  0  0  0  0  0  0
   14.4065   22.0716   33.0811 O   0  0  0  0  0  0  0  0  0  0  0  0
   18.4518   23.0856   32.6778 C   0  0  1  0  0  0  0  0  0  0  0  0
   12.4640   23.1793   32.3245 O   0  0  0  0  0  0  0  0  0  0  0  0
   17.4577   24.2374   32.8414 C   0  0  0  0  0  0  0  0  0  0  0  0
   10.3456   20.1663   32.3733 O   0  0  0  0  0  0  0  0  0  0  0  0
   16.0392   23.7144   32.6069 C   0  0  1  0  0  0  0  0  0  0  0  0
   11.0357   20.4686   35.1456 O   0  0  0  0  0  0  0  0  0  0  0  0
   15.6964   22.5295   33.5164 C   0  0  2  0  0  0  0  0  0  0  0  0
   17.0159   18.1482   36.5414 O   0  0  0  0  0  0  0  0  0  0  0  0
   13.3253   22.9389   33.4529 C   0  0  1  0  0  0  0  0  0  0  0  0
   17.6045   16.3453   34.5036 O   0  0  0  0  0  0  0  0  0  0  0  0
   11.8322   22.0008   31.7952 C   0  0  2  0  0  0  0  0  0  0  0  0
   10.9795   22.4006   30.5885 C   0  0  0  0  0  0  0  0  0  0  0  0
   10.9559   21.3587   32.8765 C   0  0  2  0  0  0  0  0  0  0  0  0
   11.8281   21.0128   34.0852 C   0  0  1  0  0  0  0  0  0  0  0  0
   12.5448   22.2681   34.5878 C   0  0  1  0  0  0  0  0  0  0  0  0
   16.2519   18.1941   35.3324 C   0  0  2  0  0  0  0  0  0  0  0  0
   16.2740   16.8633   34.5830 C   0  0  1  0  0  0  0  0  0  0  0  0
  3  1  1  0  0  0  0
  4  1  1  1  0  0  0
  4  6  1  0  0  0  0
  4 31  1  0  0  0  0
  6  7  1  0  0  0  0
  7  9  1  1  0  0  0
  7 30  1  0  0  0  0
 10  9  1  1  0  0  0
 10 13  1  0  0  0  0
 10 21  1  0  0  0  0
 13 12  1  6  0  0  0
 13 15  1  0  0  0  0
 15  2  1  1  0  0  0
 15 17  1  0  0  0  0
 16 25  1  0  0  0  0
 17 19  1  0  0  0  0
 19  5  1  1  0  0  0
 19 21  1  0  0  0  0
 21 14  1  6  0  0  0
 23 14  1  6  0  0  0
 23 16  1  0  0  0  0
 23 29  1  0  0  0  0
 25 26  1  6  0  0  0
 25 27  1  0  0  0  0
 26  8  1  0  0  0  0
 27 18  1  6  0  0  0
 27 28  1  0  0  0  0
 28 20  1  1  0  0  0
 28 29  1  0  0  0  0
 29 11  1  1  0  0  0
 30 22  1  1  0  0  0
 30 31  1  0  0  0  0
 31 24  1  6  0  0  0
M  END
>  <CHROM.1>
-50.16466750,-52.99751168,-89.43517355,162.09337112,132.62552493,66.12804228
14.89798059,20.90933479,33.46324569,0.51713605,0.13707697,2.80386659

>  <Name>
2fcz_lig

>  <RI>
0

>  <Rbt.Current_Directory>
/home/itssahil/PROJECTS/Mol_Feturizer/New_Systems/rnas/2fcz

>  <Rbt.Executable>
rbdock ($Id: //depot/dev/client3/rdock/2013.1/src/exe/rbdock.cxx#4 $)

>  <Rbt.Library>
libRbt.so (2013.1, Build901 2013/11/27)

>  <Rbt.Parameter_File>
/export/apps/rDock/src/rDock_2013.1_src/data/scripts/dock_solv.prm

>  <Rbt.Receptor>
prm/blind_docking_80.prm

>  <SCORE>
-3.22312

>  <SCORE.INTER>
-5.97416

>  <SCORE.INTER.CONST>
1

>  <SCORE.INTER.POLAR>
0

>  <SCORE.INTER.ROT>
6

>  <SCORE.INTER.SOLV>
12.3039

>  <SCORE.INTER.VDW>
-15.6841

>  <SCORE.INTER.norm>
-0.192715

>  <SCORE.INTRA>
2.68685

>  <SCORE.INTRA.DIHEDRAL>
1.39576

>  <SCORE.INTRA.DIHEDRAL.0>
10.8409

>  <SCORE.INTRA.POLAR>
0

>  <SCORE.INTRA.POLAR.0>
0

>  <SCORE.INTRA.REPUL>
0

>  <SCORE.INTRA.REPUL.0>
0

>  <SCORE.INTRA.SOLV>
-0.0462961

>  <SCORE.INTRA.SOLV.lig_0>
-80.8302

>  <SCORE.INTRA.VDW>
2.01212

>  <SCORE.INTRA.VDW.0>
-4.23953

>  <SCORE.INTRA.norm>
0.0866727

>  <SCORE.RESTR>
0.0641798

>  <SCORE.RESTR.CAVITY>
0.0641798

>  <SCORE.RESTR.norm>
0.00207031

>  <SCORE.SYSTEM>
0

>  <SCORE.SYSTEM.CONST>
0

>  <SCORE.SYSTEM.DIHEDRAL>
0

>  <SCORE.SYSTEM.SOLV>
0

>  <SCORE.SYSTEM.norm>
0

>  <SCORE.heavy>
31

>  <SCORE.norm>
-0.103972

>  <RMSD>
5.918

$$$$
2fcz_lig
 OpenBabel11021811433D
libRbt.so/2013.1/901 2013/11/27
 31 33  0  0  0  0  0  0  0  0999 V2000
   13.7324   13.2387   34.8372 C   0  0  0  0  0  0  0  0  0  0  0  0
   15.8354   13.8472   32.5497 N   0  0  0  0  0  0  0  0  0  0  0  0
   14.2133   12.0652   35.4984 O   0  0  0  0  0  0  0  0  0  0  0  0
   12.2313   13.3995   35.1007 C   0  0  1  0  0  0  0  0  0  0  0  0
   13.4461   18.0190   33.4634 N   0  0  0  0  0  0  0  0  0  0  0  0
   11.6328   14.3594   34.2062 O   0  0  0  0  0  0  0  0  0  0  0  0
   10.8035   13.6739   33.2469 C   0  0  1  0  0  0  0  0  0  0  0  0
   11.4567   21.3346   33.3965 N   0  0  0  0  0  0  0  0  0  0  0  0
   11.0014   14.1491   31.9045 O   0  0  0  0  0  0  0  0  0  0  0  0
   12.2424   14.8459   31.7012 C   0  0  2  0  0  0  0  0  0  0  0  0
    8.9758   15.7829   31.1709 N   0  0  0  0  0  0  0  0  0  0  0  0
   13.4884   12.8000   31.3607 O   0  0  0  0  0  0  0  0  0  0  0  0
   13.4001   13.9643   32.1858 C   0  0  1  0  0  0  0  0  0  0  0  0
   11.3061   17.1175   31.8651 O   0  0  0  0  0  0  0  0  0  0  0  0
   14.7309   14.7175   32.1234 C   0  0  1  0  0  0  0  0  0  0  0  0
   10.1365   18.7371   33.1227 O   0  0  0  0  0  0  0  0  0  0  0  0
   14.6775   15.9546   33.0225 C   0  0  0  0  0  0  0  0  0  0  0  0
    8.8399   20.5400   30.1839 O   0  0  0  0  0  0  0  0  0  0  0  0
   13.5601   16.8806   32.5379 C   0  0  1  0  0  0  0  0  0  0  0  0
    7.6136   17.9574   29.9018 O   0  0  0  0  0  0  0  0  0  0  0  0
   12.2046   16.1695   32.4625 C   0  0  2  0  0  0  0  0  0  0  0  0
   10.2419   11.2926   32.8878 O   0  0  0  0  0  0  0  0  0  0  0  0
   10.1314   17.3782   32.6469 C   0  0  1  0  0  0  0  0  0  0  0  0
   10.2600   12.0321   35.5715 O   0  0  0  0  0  0  0  0  0  0  0  0
   10.1224   19.7322   32.0845 C   0  0  2  0  0  0  0  0  0  0  0  0
   10.1631   21.1184   32.7323 C   0  0  0  0  0  0  0  0  0  0  0  0
    8.8519   19.5761   31.2413 C   0  0  2  0  0  0  0  0  0  0  0  0
    8.8183   18.1670   30.6457 C   0  0  1  0  0  0  0  0  0  0  0  0
    8.9053   17.1257   31.7638 C   0  0  1  0  0  0  0  0  0  0  0  0
   11.2383   12.2109   33.3476 C   0  0  2  0  0  0  0  0  0  0  0  0
   11.4927   12.0851   34.8485 C   0  0  1  0  0  0  0  0  0  0  0  0
  3  1  1  0  0  0  0
  4  1  1  6  0  0  0
  4  6  1  0  0  0  0
  4 31  1  0  0  0  0
  6  7  1  0  0  0  0
  7  9  1  6  0  0  0
  7 30  1  0  0  0  0
 10  9  1  1  0  0  0
 10 13  1  0  0  0  0
 10 21  1  0  0  0  0
 13 12  1  6  0  0  0
 13 15  1  0  0  0  0
 15  2  1  1  0  0  0
 15 17  1  0  0  0  0
 16 25  1  0  0  0  0
 17 19  1  0  0  0  0
 19  5  1  1  0  0  0
 19 21  1  0  0  0  0
 21 14  1  6  0  0  0
 23 14  1  6  0  0  0
 23 16  1  0  0  0  0
 23 29  1  0  0  0  0
 25 26  1  1  0  0  0
 25 27  1  0  0  0  0
 26  8  1  0  0  0  0
 27 18  1  6  0  0  0
 27 28  1  0  0  0  0
 28 20  1  1  0  0  0
 28 29  1  0  0  0  0
 29 11  1  6  0  0  0
 30 22  1  1  0  0  0
 30 31  1  0  0  0  0
 31 24  1  1  0  0  0
M  END
>  <CHROM.1>
-165.75259580,19.87263296,53.17989453,110.42911487,113.52563095,67.16022354
11.45318441,15.78656447,32.69923232,-1.12476489,-0.25937697,-0.20540631

>  <Name>
2fcz_lig

>  <RI>
0

>  <Rbt.Current_Directory>
/home/itssahil/PROJECTS/Mol_Feturizer/New_Systems/rnas/2fcz

>  <Rbt.Executable>
rbdock ($Id: //depot/dev/client3/rdock/2013.1/src/exe/rbdock.cxx#4 $)

>  <Rbt.Library>
libRbt.so (2013.1, Build901 2013/11/27)

>  <Rbt.Parameter_File>
/export/apps/rDock/src/rDock_2013.1_src/data/scripts/dock_solv.prm

>  <Rbt.Receptor>
prm/blind_docking_40.prm

>  <SCORE>
12.098

>  <SCORE.INTER>
-6.08601

>  <SCORE.INTER.CONST>
1

>  <SCORE.INTER.POLAR>
0

>  <SCORE.INTER.ROT>
6

>  <SCORE.INTER.SOLV>
18.3777

>  <SCORE.INTER.VDW>
-17.7832

>  <SCORE.INTER.norm>
-0.196323

>  <SCORE.INTRA>
11.9392

>  <SCORE.INTRA.DIHEDRAL>
9.38019

>  <SCORE.INTRA.DIHEDRAL.0>
10.8409

>  <SCORE.INTRA.POLAR>
0

>  <SCORE.INTRA.POLAR.0>
0

>  <SCORE.INTRA.REPUL>
0

>  <SCORE.INTRA.REPUL.0>
0

>  <SCORE.INTRA.SOLV>
2.92246

>  <SCORE.INTRA.SOLV.lig_0>
-80.8302

>  <SCORE.INTRA.VDW>
5.78787

>  <SCORE.INTRA.VDW.0>
-4.23953

>  <SCORE.INTRA.norm>
0.385135

>  <SCORE.RESTR>
6.24483

>  <SCORE.RESTR.CAVITY>
6.24483

>  <SCORE.RESTR.norm>
0.201446

>  <SCORE.SYSTEM>
0

>  <SCORE.SYSTEM.CONST>
0

>  <SCORE.SYSTEM.DIHEDRAL>
0

>  <SCORE.SYSTEM.SOLV>
0

>  <SCORE.SYSTEM.norm>
0

>  <SCORE.heavy>
31

>  <SCORE.norm>
0.390258

>  <RMSD>
5.923

$$$$
2fcz_lig
 OpenBabel11021811433D
libRbt.so/2013.1/901 2013/11/27
 31 33  0  0  0  0  0  0  0  0999 V2000
    8.5345   15.9126   36.5169 C   0  0  0  0  0  0  0  0  0  0  0  0
    7.6408   21.0111   30.1558 N   0  0  0  0  0  0  0  0  0  0  0  0
    7.8634   16.9448   37.2446 O   0  0  0  0  0  0  0  0  0  0  0  0
    7.8612   15.7226   35.1535 C   0  0  1  0  0  0  0  0  0  0  0  0
   10.8969   22.4514   33.5130 N   0  0  0  0  0  0  0  0  0  0  0  0
    7.9685   16.9059   34.3363 O   0  0  0  0  0  0  0  0  0  0  0  0
    8.9002   16.6684   33.2624 C   0  0  1  0  0  0  0  0  0  0  0  0
   15.0573   18.0013   33.9560 N   0  0  0  0  0  0  0  0  0  0  0  0
    9.8207   17.7572   33.0772 O   0  0  0  0  0  0  0  0  0  0  0  0
    9.2027   19.0549   33.0472 C   0  0  2  0  0  0  0  0  0  0  0  0
   10.3745   19.2540   37.5531 N   0  0  0  0  0  0  0  0  0  0  0  0
    7.6508   18.4219   31.3024 O   0  0  0  0  0  0  0  0  0  0  0  0
    8.6979   19.3395   31.6272 C   0  0  1  0  0  0  0  0  0  0  0  0
   10.5168   20.0220   34.8916 O   0  0  0  0  0  0  0  0  0  0  0  0
    8.1596   20.7673   31.5088 C   0  0  1  0  0  0  0  0  0  0  0  0
   12.3725   18.6246   34.4715 O   0  0  0  0  0  0  0  0  0  0  0  0
    9.2681   21.7748   31.8213 C   0  0  0  0  0  0  0  0  0  0  0  0
   14.7921   20.7817   36.2210 O   0  0  0  0  0  0  0  0  0  0  0  0
    9.7646   21.5488   33.2508 C   0  0  1  0  0  0  0  0  0  0  0  0
   13.0194   20.0096   38.3458 O   0  0  0  0  0  0  0  0  0  0  0  0
   10.2202   20.1050   33.4888 C   0  0  2  0  0  0  0  0  0  0  0  0
   10.2562   14.7103   32.5976 O   0  0  0  0  0  0  0  0  0  0  0  0
   11.1917   18.8144   35.2732 C   0  0  1  0  0  0  0  0  0  0  0  0
    7.6685   14.0486   33.3819 O   0  0  0  0  0  0  0  0  0  0  0  0
   13.3586   19.6624   34.6078 C   0  0  2  0  0  0  0  0  0  0  0  0
   14.5346   19.3474   33.6800 C   0  0  0  0  0  0  0  0  0  0  0  0
   13.8332   19.7313   36.0637 C   0  0  2  0  0  0  0  0  0  0  0  0
   12.6293   20.0016   36.9687 C   0  0  1  0  0  0  0  0  0  0  0  0
   11.5637   18.9242   36.7552 C   0  0  1  0  0  0  0  0  0  0  0  0
    9.6620   15.4139   33.6928 C   0  0  2  0  0  0  0  0  0  0  0  0
    8.5473   14.6106   34.3601 C   0  0  1  0  0  0  0  0  0  0  0  0
  3  1  1  0  0  0  0
  4  1  1  1  0  0  0
  4  6  1  0  0  0  0
  4 31  1  0  0  0  0
  6  7  1  0  0  0  0
  7  9  1  1  0  0  0
  7 30  1  0  0  0  0
 10  9  1  6  0  0  0
 10 13  1  0  0  0  0
 10 21  1  0  0  0  0
 13 12  1  1  0  0  0
 13 15  1  0  0  0  0
 15  2  1  6  0  0  0
 15 17  1  0  0  0  0
 16 25  1  0  0  0  0
 17 19  1  0  0  0  0
 19  5  1  6  0  0  0
 19 21  1  0  0  0  0
 21 14  1  1  0  0  0
 23 14  1  6  0  0  0
 23 16  1  0  0  0  0
 23 29  1  0  0  0  0
 25 26  1  6  0  0  0
 25 27  1  0  0  0  0
 26  8  1  0  0  0  0
 27 18  1  6  0  0  0
 27 28  1  0  0  0  0
 28 20  1  1  0  0  0
 28 29  1  0  0  0  0
 29 11  1  1  0  0  0
 30 22  1  6  0  0  0
 30 31  1  0  0  0  0
 31 24  1  6  0  0  0
M  END
>  <CHROM.1>
63.29910091,-47.41649491,-84.27686159,66.10115393,53.61955914,-54.88737210
10.37698500,18.55681607,34.27817501,-2.94169920,-0.67163665,-0.61610490

>  <Name>
2fcz_lig

>  <RI>
0

>  <Rbt.Current_Directory>
/home/itssahil/PROJECTS/Mol_Feturizer/New_Systems/rnas/2fcz

>  <Rbt.Executable>
rbdock ($Id: //depot/dev/client3/rdock/2013.1/src/exe/rbdock.cxx#4 $)

>  <Rbt.Library>
libRbt.so (2013.1, Build901 2013/11/27)

>  <Rbt.Parameter_File>
/export/apps/rDock/src/rDock_2013.1_src/data/scripts/dock_solv.prm

>  <Rbt.Receptor>
prm/pocket_docking_5.prm

>  <SCORE>
-14.846

>  <SCORE.INTER>
-11.8076

>  <SCORE.INTER.CONST>
1

>  <SCORE.INTER.POLAR>
-1.59695

>  <SCORE.INTER.ROT>
6

>  <SCORE.INTER.SOLV>
11.0614

>  <SCORE.INTER.VDW>
-13.8357

>  <SCORE.INTER.norm>
-0.380889

>  <SCORE.INTRA>
-3.03844

>  <SCORE.INTRA.DIHEDRAL>
-6.9

>  <SCORE.INTRA.DIHEDRAL.0>
10.8409

>  <SCORE.INTRA.POLAR>
0

>  <SCORE.INTRA.POLAR.0>
0

>  <SCORE.INTRA.REPUL>
0

>  <SCORE.INTRA.REPUL.0>
0

>  <SCORE.INTRA.SOLV>
-1.48041

>  <SCORE.INTRA.SOLV.lig_0>
-80.8302

>  <SCORE.INTRA.VDW>
1.15176

>  <SCORE.INTRA.VDW.0>
-4.23953

>  <SCORE.INTRA.norm>
-0.0980143

>  <SCORE.RESTR>
0

>  <SCORE.RESTR.CAVITY>
0

>  <SCORE.RESTR.norm>
0

>  <SCORE.SYSTEM>
0

>  <SCORE.SYSTEM.CONST>
0

>  <SCORE.SYSTEM.DIHEDRAL>
0

>  <SCORE.SYSTEM.SOLV>
0

>  <SCORE.SYSTEM.norm>
0

>  <SCORE.heavy>
31

>  <SCORE.norm>
-0.478904

>  <RMSD>
5.925

$$$$
2fcz_lig
 OpenBabel11021811433D
libRbt.so/2013.1/901 2013/11/27
 31 33  0  0  0  0  0  0  0  0999 V2000
    8.6603   17.8677   39.0590 C   0  0  0  0  0  0  0  0  0  0  0  0
    8.3275   22.0092   31.6382 N   0  0  0  0  0  0  0  0  0  0  0  0
    9.5249   18.9227   39.4888 O   0  0  0  0  0  0  0  0  0  0  0  0
    7.5402   18.4434   38.1857 C   0  0  1  0  0  0  0  0  0  0  0  0
   12.8429   20.9764   33.2165 N   0  0  0  0  0  0  0  0  0  0  0  0
    8.0639   19.2387   37.1027 O   0  0  0  0  0  0  0  0  0  0  0  0
    7.8860   18.5354   35.8572 C   0  0  1  0  0  0  0  0  0  0  0  0
   15.0269   16.6972   33.0362 N   0  0  0  0  0  0  0  0  0  0  0  0
    9.0612   18.5691   35.0296 O   0  0  0  0  0  0  0  0  0  0  0  0
    9.4540   19.8884   34.6147 C   0  0  2  0  0  0  0  0  0  0  0  0
   12.3311   19.6038   38.2264 N   0  0  0  0  0  0  0  0  0  0  0  0
    7.2678   20.3997   33.7131 O   0  0  0  0  0  0  0  0  0  0  0  0
    8.6509   20.2846   33.3696 C   0  0  1  0  0  0  0  0  0  0  0  0
   11.7408   19.7868   35.5224 O   0  0  0  0  0  0  0  0  0  0  0  0
    9.1337   21.6223   32.8041 C   0  0  1  0  0  0  0  0  0  0  0  0
   12.0979   17.4795   35.1740 O   0  0  0  0  0  0  0  0  0  0  0  0
   10.6056   21.5210   32.3980 C   0  0  0  0  0  0  0  0  0  0  0  0
   15.7698   17.6972   35.3692 O   0  0  0  0  0  0  0  0  0  0  0  0
   11.4439   21.1712   33.6291 C   0  0  1  0  0  0  0  0  0  0  0  0
   14.9716   18.5210   38.0032 O   0  0  0  0  0  0  0  0  0  0  0  0
   10.9539   19.8973   34.3260 C   0  0  2  0  0  0  0  0  0  0  0  0
    6.8906   16.3483   35.2734 O   0  0  0  0  0  0  0  0  0  0  0  0
   11.7030   18.4853   36.1256 C   0  0  1  0  0  0  0  0  0  0  0  0
    5.4232   17.7599   37.1716 O   0  0  0  0  0  0  0  0  0  0  0  0
   13.4403   17.6223   34.6782 C   0  0  2  0  0  0  0  0  0  0  0  0
   13.7081   16.5122   33.6590 C   0  0  0  0  0  0  0  0  0  0  0  0
   14.4309   17.5248   35.8438 C   0  0  2  0  0  0  0  0  0  0  0  0
   14.1085   18.6173   36.8655 C   0  0  1  0  0  0  0  0  0  0  0  0
   12.6548   18.4884   37.3261 C   0  0  1  0  0  0  0  0  0  0  0  0
    7.5884   17.0945   36.2752 C   0  0  2  0  0  0  0  0  0  0  0  0
    6.7385   17.3229   37.5237 C   0  0  1  0  0  0  0  0  0  0  0  0
  3  1  1  0  0  0  0
  4  1  1  6  0  0  0
  4  6  1  0  0  0  0
  4 31  1  0  0  0  0
  6  7  1  0  0  0  0
  7  9  1  6  0  0  0
  7 30  1  0  0  0  0
 10  9  1  6  0  0  0
 10 13  1  0  0  0  0
 10 21  1  0  0  0  0
 13 12  1  1  0  0  0
 13 15  1  0  0  0  0
 15  2  1  6  0  0  0
 15 17  1  0  0  0  0
 16 25  1  0  0  0  0
 17 19  1  0  0  0  0
 19  5  1  6  0  0  0
 19 21  1  0  0  0  0
 21 14  1  1  0  0  0
 23 14  1  6  0  0  0
 23 16  1  0  0  0  0
 23 29  1  0  0  0  0
 25 26  1  6  0  0  0
 25 27  1  0  0  0  0
 26  8  1  0  0  0  0
 27 18  1  6  0  0  0
 27 28  1  0  0  0  0
 28 20  1  1  0  0  0
 28 29  1  0  0  0  0
 29 11  1  1  0  0  0
 30 22  1  6  0  0  0
 30 31  1  0  0  0  0
 31 24  1  6  0  0  0
M  END
>  <CHROM.1>
53.14782171,-62.36138596,-84.02387904,71.75527616,55.29160386,174.75705841
10.56479835,18.84817869,35.53016751,-3.07272814,0.11804435,-1.05941742

>  <Name>
2fcz_lig

>  <RI>
2.76032e+07

>  <Rbt.Current_Directory>
/home/itssahil/PROJECTS/Mol_Feturizer/New_Systems/rnas/2fcz

>  <Rbt.Executable>
rbdock ($Id: //depot/dev/client3/rdock/2013.1/src/exe/rbdock.cxx#4 $)

>  <Rbt.Library>
libRbt.so (2013.1, Build901 2013/11/27)

>  <Rbt.Parameter_File>
/export/apps/rDock/src/rDock_2013.1_src/data/scripts/dock_solv.prm

>  <Rbt.Receptor>
prm/pocket_docking_8.prm

>  <SCORE>
-23.3565

>  <SCORE.INTER>
-20.1384

>  <SCORE.INTER.CONST>
1

>  <SCORE.INTER.POLAR>
-4.02513

>  <SCORE.INTER.ROT>
6

>  <SCORE.INTER.SOLV>
15.8565

>  <SCORE.INTER.VDW>
-12.894

>  <SCORE.INTER.norm>
-0.649624

>  <SCORE.INTRA>
-3.21811

>  <SCORE.INTRA.DIHEDRAL>
-7.15557

>  <SCORE.INTRA.DIHEDRAL.0>
10.8409

>  <SCORE.INTRA.POLAR>
0

>  <SCORE.INTRA.POLAR.0>
0

>  <SCORE.INTRA.REPUL>
0

>  <SCORE.INTRA.REPUL.0>
0

>  <SCORE.INTRA.SOLV>
-1.29147

>  <SCORE.INTRA.SOLV.lig_0>
-80.8302

>  <SCORE.INTRA.VDW>
1.00541

>  <SCORE.INTRA.VDW.0>
-4.23953

>  <SCORE.INTRA.norm>
-0.10381

>  <SCORE.RESTR>
0

>  <SCORE.RESTR.CAVITY>
0

>  <SCORE.RESTR.norm>
0

>  <SCORE.SYSTEM>
0

>  <SCORE.SYSTEM.CONST>
0

>  <SCORE.SYSTEM.DIHEDRAL>
0

>  <SCORE.SYSTEM.SOLV>
0

>  <SCORE.SYSTEM.norm>
0

>  <SCORE.heavy>
31

>  <SCORE.norm>
-0.753434

>  <RMSD>
5.925

$$$$
2fcz_lig
 OpenBabel11021811433D
libRbt.so/2013.1/901 2013/11/27
 31 33  0  0  0  0  0  0  0  0999 V2000
    8.0596   18.2854   30.5249 C   0  0  0  0  0  0  0  0  0  0  0  0
   10.2571   23.0184   32.6915 N   0  0  0  0  0  0  0  0  0  0  0  0
    8.1950   19.6125   30.0093 O   0  0  0  0  0  0  0  0  0  0  0  0
    9.4251   17.7747   30.9972 C   0  0  1  0  0  0  0  0  0  0  0  0
   13.8397   20.3218   34.6511 N   0  0  0  0  0  0  0  0  0  0  0  0
    9.9367   18.5577   32.0948 O   0  0  0  0  0  0  0  0  0  0  0  0
    9.8733   17.7852   33.3100 C   0  0  1  0  0  0  0  0  0  0  0  0
    7.5871   16.5520   37.6455 N   0  0  0  0  0  0  0  0  0  0  0  0
    9.3511   18.5381   34.4180 O   0  0  0  0  0  0  0  0  0  0  0  0
   10.0571   19.7614   34.6862 C   0  0  2  0  0  0  0  0  0  0  0  0
   13.7411   18.7438   38.0282 N   0  0  0  0  0  0  0  0  0  0  0  0
    8.3668   21.1258   33.6209 O   0  0  0  0  0  0  0  0  0  0  0  0
    9.7516   20.7732   33.5747 C   0  0  1  0  0  0  0  0  0  0  0  0
   11.9050   18.7349   35.9493 O   0  0  0  0  0  0  0  0  0  0  0  0
   10.5914   22.0422   33.7376 C   0  0  1  0  0  0  0  0  0  0  0  0
   10.1067   19.2568   37.3869 O   0  0  0  0  0  0  0  0  0  0  0  0
   12.0810   21.7003   33.6616 C   0  0  0  0  0  0  0  0  0  0  0  0
    9.8975   15.8886   38.8632 O   0  0  0  0  0  0  0  0  0  0  0  0
   12.4313   20.7257   34.7877 C   0  0  1  0  0  0  0  0  0  0  0  0
   12.5180   16.7445   39.6718 O   0  0  0  0  0  0  0  0  0  0  0  0
   11.5542   19.4691   34.7658 C   0  0  2  0  0  0  0  0  0  0  0  0
    9.1060   15.4907   33.8212 O   0  0  0  0  0  0  0  0  0  0  0  0
   11.5245   19.3845   37.1710 C   0  0  1  0  0  0  0  0  0  0  0  0
   10.5727   15.6664   31.4618 O   0  0  0  0  0  0  0  0  0  0  0  0
    9.6443   17.9020   37.5246 C   0  0  2  0  0  0  0  0  0  0  0  0
    8.1255   17.9183   37.7142 C   0  0  0  0  0  0  0  0  0  0  0  0
   10.3243   17.2481   38.7328 C   0  0  2  0  0  0  0  0  0  0  0  0
   11.8410   17.2885   38.5341 C   0  0  1  0  0  0  0  0  0  0  0  0
   12.3008   18.7323   38.3195 C   0  0  1  0  0  0  0  0  0  0  0  0
    8.9264   16.6313   32.9761 C   0  0  2  0  0  0  0  0  0  0  0  0
    9.3157   16.3450   31.5271 C   0  0  1  0  0  0  0  0  0  0  0  0
  3  1  1  0  0  0  0
  4  1  1  1  0  0  0
  4  6  1  0  0  0  0
  4 31  1  0  0  0  0
  6  7  1  0  0  0  0
  7  9  1  1  0  0  0
  7 30  1  0  0  0  0
 10  9  1  6  0  0  0
 10 13  1  0  0  0  0
 10 21  1  0  0  0  0
 13 12  1  1  0  0  0
 13 15  1  0  0  0  0
 15  2  1  6  0  0  0
 15 17  1  0  0  0  0
 16 25  1  0  0  0  0
 17 19  1  0  0  0  0
 19  5  1  6  0  0  0
 19 21  1  0  0  0  0
 21 14  1  1  0  0  0
 23 14  1  6  0  0  0
 23 16  1  0  0  0  0
 23 29  1  0  0  0  0
 25 26  1  1  0  0  0
 25 27  1  0  0  0  0
 26  8  1  0  0  0  0
 27 18  1  6  0  0  0
 27 28  1  0  0  0  0
 28 20  1  1  0  0  0
 28 29  1  0  0  0  0
 29 11  1  6  0  0  0
 30 22  1  1  0  0  0
 30 31  1  0  0  0  0
 31 24  1  1  0  0  0
M  END
>  <CHROM.1>
63.73003586,-55.32741334,71.33618556,-57.33708758,75.60654856,171.04470613
10.33923981,18.61306540,34.91806806,2.06938401,-0.97884239,-0.95083909

>  <Name>
2fcz_lig

>  <RI>
2.26996e+07

>  <Rbt.Current_Directory>
/home/itssahil/PROJECTS/Mol_Feturizer/New_Systems/rnas/2fcz

>  <Rbt.Executable>
rbdock ($Id: //depot/dev/client3/rdock/2013.1/src/exe/rbdock.cxx#4 $)

>  <Rbt.Library>
libRbt.so (2013.1, Build901 2013/11/27)

>  <Rbt.Parameter_File>
/export/apps/rDock/src/rDock_2013.1_src/data/scripts/dock_solv.prm

>  <Rbt.Receptor>
prm/pocket_docking_4.prm

>  <SCORE>
-22.9475

>  <SCORE.INTER>
-21.892

>  <SCORE.INTER.CONST>
1

>  <SCORE.INTER.POLAR>
-2.47753

>  <SCORE.INTER.ROT>
6

>  <SCORE.INTER.SOLV>
12.7679

>  <SCORE.INTER.VDW>
-18.1922

>  <SCORE.INTER.norm>
-0.706195

>  <SCORE.INTRA>
-1.05545

>  <SCORE.INTRA.DIHEDRAL>
-8.45787

>  <SCORE.INTRA.DIHEDRAL.0>
10.8409

>  <SCORE.INTRA.POLAR>
0

>  <SCORE.INTRA.POLAR.0>
0

>  <SCORE.INTRA.REPUL>
0

>  <SCORE.INTRA.REPUL.0>
0

>  <SCORE.INTRA.SOLV>
-1.07752

>  <SCORE.INTRA.SOLV.lig_0>
-80.8302

>  <SCORE.INTRA.VDW>
3.71224

>  <SCORE.INTRA.VDW.0>
-4.23953

>  <SCORE.INTRA.norm>
-0.0340468

>  <SCORE.RESTR>
0

>  <SCORE.RESTR.CAVITY>
0

>  <SCORE.RESTR.norm>
0

>  <SCORE.SYSTEM>
0

>  <SCORE.SYSTEM.CONST>
0

>  <SCORE.SYSTEM.DIHEDRAL>
0

>  <SCORE.SYSTEM.SOLV>
0

>  <SCORE.SYSTEM.norm>
0

>  <SCORE.heavy>
31

>  <SCORE.norm>
-0.740242

>  <RMSD>
5.928

$$$$
2fcz_lig
 OpenBabel11021811433D
libRbt.so/2013.1/901 2013/11/27
 31 33  0  0  0  0  0  0  0  0999 V2000
   13.7782   12.8400   34.8088 C   0  0  0  0  0  0  0  0  0  0  0  0
   15.9259   13.9759   32.5926 N   0  0  0  0  0  0  0  0  0  0  0  0
   14.5968   14.0020   34.9671 O   0  0  0  0  0  0  0  0  0  0  0  0
   12.3162   13.1967   35.0984 C   0  0  1  0  0  0  0  0  0  0  0  0
   13.2524   18.0114   33.3096 N   0  0  0  0  0  0  0  0  0  0  0  0
   11.8114   14.1747   34.1666 O   0  0  0  0  0  0  0  0  0  0  0  0
   10.8767   13.5469   33.2666 C   0  0  1  0  0  0  0  0  0  0  0  0
   10.4939   22.0119   31.9888 N   0  0  0  0  0  0  0  0  0  0  0  0
   11.0899   13.9239   31.8956 O   0  0  0  0  0  0  0  0  0  0  0  0
   12.2836   14.6937   31.6733 C   0  0  2  0  0  0  0  0  0  0  0  0
    8.7786   15.8102   30.9205 N   0  0  0  0  0  0  0  0  0  0  0  0
   13.6676   12.7242   31.4297 O   0  0  0  0  0  0  0  0  0  0  0  0
   13.4923   13.9132   32.2042 C   0  0  1  0  0  0  0  0  0  0  0  0
   11.1953   16.9019   31.7334 O   0  0  0  0  0  0  0  0  0  0  0  0
   14.7702   14.7512   32.1209 C   0  0  1  0  0  0  0  0  0  0  0  0
   10.1379   18.4948   33.1181 O   0  0  0  0  0  0  0  0  0  0  0  0
   14.6242   16.0182   32.9665 C   0  0  0  0  0  0  0  0  0  0  0  0
    9.0105   20.6297   30.3363 O   0  0  0  0  0  0  0  0  0  0  0  0
   13.4526   16.8458   32.4341 C   0  0  1  0  0  0  0  0  0  0  0  0
    7.5966   18.1800   29.8334 O   0  0  0  0  0  0  0  0  0  0  0  0
   12.1487   16.0423   32.3776 C   0  0  2  0  0  0  0  0  0  0  0  0
   10.0208   11.2368   33.0531 O   0  0  0  0  0  0  0  0  0  0  0  0
   10.0356   17.1846   32.5298 C   0  0  1  0  0  0  0  0  0  0  0  0
   10.2092   12.1071   35.6906 O   0  0  0  0  0  0  0  0  0  0  0  0
   10.2092   19.5712   32.1672 C   0  0  2  0  0  0  0  0  0  0  0  0
   10.3474   20.8915   32.9293 C   0  0  0  0  0  0  0  0  0  0  0  0
    8.9393   19.5827   31.3089 C   0  0  2  0  0  0  0  0  0  0  0  0
    8.8060   18.2349   30.5969 C   0  0  1  0  0  0  0  0  0  0  0  0
    8.8031   17.1003   31.6238 C   0  0  1  0  0  0  0  0  0  0  0  0
   11.1343   12.0490   33.4377 C   0  0  2  0  0  0  0  0  0  0  0  0
   11.4168   11.9712   34.9368 C   0  0  1  0  0  0  0  0  0  0  0  0
  3  1  1  0  0  0  0
  4  1  1  6  0  0  0
  4  6  1  0  0  0  0
  4 31  1  0  0  0  0
  6  7  1  0  0  0  0
  7  9  1  6  0  0  0
  7 30  1  0  0  0  0
 10  9  1  1  0  0  0
 10 13  1  0  0  0  0
 10 21  1  0  0  0  0
 13 12  1  6  0  0  0
 13 15  1  0  0  0  0
 15  2  1  1  0  0  0
 15 17  1  0  0  0  0
 16 25  1  0  0  0  0
 17 19  1  0  0  0  0
 19  5  1  1  0  0  0
 19 21  1  0  0  0  0
 21 14  1  6  0  0  0
 23 14  1  6  0  0  0
 23 16  1  0  0  0  0
 23 29  1  0  0  0  0
 25 26  1  1  0  0  0
 25 27  1  0  0  0  0
 26  8  1  0  0  0  0
 27 18  1  6  0  0  0
 27 28  1  0  0  0  0
 28 20  1  1  0  0  0
 28 29  1  0  0  0  0
 29 11  1  6  0  0  0
 30 22  1  1  0  0  0
 30 31  1  0  0  0  0
 31 24  1  1  0  0  0
M  END
>  <CHROM.1>
62.55226751,7.94853478,55.99627913,114.23860123,101.63478807,177.06136925
11.43907184,15.80631697,32.63168647,-1.12529385,-0.20018018,-0.24302413

>  <Name>
2fcz_lig

>  <RI>
0

>  <Rbt.Current_Directory>
/home/itssahil/PROJECTS/Mol_Feturizer/New_Systems/rnas/2fcz

>  <Rbt.Executable>
rbdock ($Id: //depot/dev/client3/rdock/2013.1/src/exe/rbdock.cxx#4 $)

>  <Rbt.Library>
libRbt.so (2013.1, Build901 2013/11/27)

>  <Rbt.Parameter_File>
/export/apps/rDock/src/rDock_2013.1_src/data/scripts/dock_solv.prm

>  <Rbt.Receptor>
prm/blind_docking_40.prm

>  <SCORE>
13.236

>  <SCORE.INTER>
-4.83585

>  <SCORE.INTER.CONST>
1

>  <SCORE.INTER.POLAR>
0

>  <SCORE.INTER.ROT>
6

>  <SCORE.INTER.SOLV>
20.8749

>  <SCORE.INTER.VDW>
-17.7822

>  <SCORE.INTER.norm>
-0.155995

>  <SCORE.INTRA>
12.2957

>  <SCORE.INTRA.DIHEDRAL>
8.78694

>  <SCORE.INTRA.DIHEDRAL.0>
10.8409

>  <SCORE.INTRA.POLAR>
0

>  <SCORE.INTRA.POLAR.0>
0

>  <SCORE.INTRA.REPUL>
0

>  <SCORE.INTRA.REPUL.0>
0

>  <SCORE.INTRA.SOLV>
4.52719

>  <SCORE.INTRA.SOLV.lig_0>
-80.8302

>  <SCORE.INTRA.VDW>
5.63868

>  <SCORE.INTRA.VDW.0>
-4.23953

>  <SCORE.INTRA.norm>
0.396637

>  <SCORE.RESTR>
5.77615

>  <SCORE.RESTR.CAVITY>
5.77615

>  <SCORE.RESTR.norm>
0.186327

>  <SCORE.SYSTEM>
0

>  <SCORE.SYSTEM.CONST>
0

>  <SCORE.SYSTEM.DIHEDRAL>
0

>  <SCORE.SYSTEM.SOLV>
0

>  <SCORE.SYSTEM.norm>
0

>  <SCORE.heavy>
31

>  <SCORE.norm>
0.426969

>  <RMSD>
5.929

$$$$
2fcz_lig
 OpenBabel11021811433D
libRbt.so/2013.1/901 2013/11/27
 31 33  0  0  0  0  0  0  0  0999 V2000
    6.9191   20.3391   30.6910 C   0  0  0  0  0  0  0  0  0  0  0  0
   12.0879   23.4604   33.4047 N   0  0  0  0  0  0  0  0  0  0  0  0
    6.3894   19.7493   29.5006 O   0  0  0  0  0  0  0  0  0  0  0  0
    8.3344   19.8081   30.9428 C   0  0  1  0  0  0  0  0  0  0  0  0
   12.8827   19.9585   36.7292 N   0  0  0  0  0  0  0  0  0  0  0  0
    8.9585   20.4650   32.0647 O   0  0  0  0  0  0  0  0  0  0  0  0
    9.0408   19.5500   33.1754 C   0  0  1  0  0  0  0  0  0  0  0  0
    9.8029   15.0768   34.6306 N   0  0  0  0  0  0  0  0  0  0  0  0
    8.6392   20.1507   34.4184 O   0  0  0  0  0  0  0  0  0  0  0  0
    9.6321   21.0064   35.0091 C   0  0  2  0  0  0  0  0  0  0  0  0
    8.4354   18.9233   39.0781 N   0  0  0  0  0  0  0  0  0  0  0  0
    9.3575   22.7145   33.3177 O   0  0  0  0  0  0  0  0  0  0  0  0
   10.3114   21.8262   33.9051 C   0  0  1  0  0  0  0  0  0  0  0  0
   10.0994   19.5732   36.9562 O   0  0  0  0  0  0  0  0  0  0  0  0
   11.4746   22.6484   34.4648 C   0  0  1  0  0  0  0  0  0  0  0  0
    9.4718   17.6554   35.7311 O   0  0  0  0  0  0  0  0  0  0  0  0
   12.5286   21.7213   35.0741 C   0  0  0  0  0  0  0  0  0  0  0  0
   11.4242   15.3114   37.7955 O   0  0  0  0  0  0  0  0  0  0  0  0
   11.8950   20.9192   36.2125 C   0  0  1  0  0  0  0  0  0  0  0  0
    9.5224   16.3453   39.6843 O   0  0  0  0  0  0  0  0  0  0  0  0
   10.6489   20.1498   35.7611 C   0  0  2  0  0  0  0  0  0  0  0  0
    8.3600   17.1927   33.4829 O   0  0  0  0  0  0  0  0  0  0  0  0
    9.0541   18.6200   36.7150 C   0  0  1  0  0  0  0  0  0  0  0  0
    9.5491   17.6875   31.0150 O   0  0  0  0  0  0  0  0  0  0  0  0
   10.6131   16.8689   36.1144 C   0  0  2  0  0  0  0  0  0  0  0  0
   10.9613   15.9171   34.9673 C   0  0  0  0  0  0  0  0  0  0  0  0
   10.2860   16.0748   37.3840 C   0  0  2  0  0  0  0  0  0  0  0  0
    9.8984   17.0507   38.4970 C   0  0  1  0  0  0  0  0  0  0  0  0
    8.7280   17.9246   38.0405 C   0  0  1  0  0  0  0  0  0  0  0  0
    8.0743   18.4224   32.8094 C   0  0  2  0  0  0  0  0  0  0  0  0
    8.3004   18.3227   31.3020 C   0  0  1  0  0  0  0  0  0  0  0  0
  3  1  1  0  0  0  0
  4  1  1  1  0  0  0
  4  6  1  0  0  0  0
  4 31  1  0  0  0  0
  6  7  1  0  0  0  0
  7  9  1  1  0  0  0
  7 30  1  0  0  0  0
 10  9  1  6  0  0  0
 10 13  1  0  0  0  0
 10 21  1  0  0  0  0
 13 12  1  1  0  0  0
 13 15  1  0  0  0  0
 15  2  1  6  0  0  0
 15 17  1  0  0  0  0
 16 25  1  0  0  0  0
 17 19  1  0  0  0  0
 19  5  1  6  0  0  0
 19 21  1  0  0  0  0
 21 14  1  1  0  0  0
 23 14  1  1  0  0  0
 23 16  1  0  0  0  0
 23 29  1  0  0  0  0
 25 26  1  6  0  0  0
 25 27  1  0  0  0  0
 26  8  1  0  0  0  0
 27 18  1  1  0  0  0
 27 28  1  0  0  0  0
 28 20  1  1  0  0  0
 28 29  1  0  0  0  0
 29 11  1  1  0  0  0
 30 22  1  1  0  0  0
 30 31  1  0  0  0  0
 31 24  1  1  0  0  0
M  END
>  <CHROM.1>
174.72704167,-77.64093350,40.20970059,65.60365525,49.88747639,-56.86372122
9.70649421,19.05600905,34.77690405,2.00561638,-1.02390807,-0.69176779

>  <Name>
2fcz_lig

>  <RI>
3.41297e+07

>  <Rbt.Current_Directory>
/home/itssahil/PROJECTS/Mol_Feturizer/New_Systems/rnas/2fcz

>  <Rbt.Executable>
rbdock ($Id: //depot/dev/client3/rdock/2013.1/src/exe/rbdock.cxx#4 $)

>  <Rbt.Library>
libRbt.so (2013.1, Build901 2013/11/27)

>  <Rbt.Parameter_File>
/export/apps/rDock/src/rDock_2013.1_src/data/scripts/dock_solv.prm

>  <Rbt.Receptor>
prm/pocket_docking_2.prm

>  <SCORE>
-11.5821

>  <SCORE.INTER>
-13.1529

>  <SCORE.INTER.CONST>
1

>  <SCORE.INTER.POLAR>
-1.5302

>  <SCORE.INTER.ROT>
6

>  <SCORE.INTER.SOLV>
15.3497

>  <SCORE.INTER.VDW>
-16.3845

>  <SCORE.INTER.norm>
-0.424288

>  <SCORE.INTRA>
0.343793

>  <SCORE.INTRA.DIHEDRAL>
-6.74373

>  <SCORE.INTRA.DIHEDRAL.0>
10.8409

>  <SCORE.INTRA.POLAR>
0

>  <SCORE.INTRA.POLAR.0>
0

>  <SCORE.INTRA.REPUL>
0

>  <SCORE.INTRA.REPUL.0>
0

>  <SCORE.INTRA.SOLV>
-0.0402406

>  <SCORE.INTRA.SOLV.lig_0>
-80.8302

>  <SCORE.INTRA.VDW>
3.73578

>  <SCORE.INTRA.VDW.0>
-4.23953

>  <SCORE.INTRA.norm>
0.0110901

>  <SCORE.RESTR>
1.22709

>  <SCORE.RESTR.CAVITY>
1.22709

>  <SCORE.RESTR.norm>
0.0395835

>  <SCORE.SYSTEM>
0

>  <SCORE.SYSTEM.CONST>
0

>  <SCORE.SYSTEM.DIHEDRAL>
0

>  <SCORE.SYSTEM.SOLV>
0

>  <SCORE.SYSTEM.norm>
0

>  <SCORE.heavy>
31

>  <SCORE.norm>
-0.373615

>  <RMSD>
5.930

$$$$
2fcz_lig
 OpenBabel11021811433D
libRbt.so/2013.1/901 2013/11/27
 31 33  0  0  0  0  0  0  0  0999 V2000
   13.5895   11.6102   35.1056 C   0  0  0  0  0  0  0  0  0  0  0  0
   16.2936   14.5833   33.0417 N   0  0  0  0  0  0  0  0  0  0  0  0
   14.8048   12.2454   35.5119 O   0  0  0  0  0  0  0  0  0  0  0  0
   12.4072   12.5524   35.3567 C   0  0  1  0  0  0  0  0  0  0  0  0
   12.8882   18.0810   33.3838 N   0  0  0  0  0  0  0  0  0  0  0  0
   12.3559   13.6148   34.3828 O   0  0  0  0  0  0  0  0  0  0  0  0
   11.2465   13.3970   33.4886 C   0  0  1  0  0  0  0  0  0  0  0  0
   10.6909   21.6506   32.1645 N   0  0  0  0  0  0  0  0  0  0  0  0
   11.5995   13.5979   32.1094 O   0  0  0  0  0  0  0  0  0  0  0  0
   12.6431   14.5646   31.9013 C   0  0  2  0  0  0  0  0  0  0  0  0
    8.7244   15.5566   30.8958 N   0  0  0  0  0  0  0  0  0  0  0  0
   14.3764   12.8775   31.8443 O   0  0  0  0  0  0  0  0  0  0  0  0
   13.9404   14.0497   32.5371 C   0  0  1  0  0  0  0  0  0  0  0  0
   11.1673   16.5318   31.7760 O   0  0  0  0  0  0  0  0  0  0  0  0
   15.0459   15.1059   32.4678 C   0  0  1  0  0  0  0  0  0  0  0  0
   10.1486   18.1258   33.1882 O   0  0  0  0  0  0  0  0  0  0  0  0
   14.6199   16.3636   33.2284 C   0  0  0  0  0  0  0  0  0  0  0  0
    9.1493   20.3778   30.4500 O   0  0  0  0  0  0  0  0  0  0  0  0
   13.3506   16.9314   32.5901 C   0  0  1  0  0  0  0  0  0  0  0  0
    7.6516   17.9990   29.8572 O   0  0  0  0  0  0  0  0  0  0  0  0
   12.2217   15.8975   32.5167 C   0  0  2  0  0  0  0  0  0  0  0  0
    9.5088   11.6440   33.3400 O   0  0  0  0  0  0  0  0  0  0  0  0
   10.0062   16.8371   32.5621 C   0  0  1  0  0  0  0  0  0  0  0  0
   10.0369   12.4593   35.9487 O   0  0  0  0  0  0  0  0  0  0  0  0
   10.2765   19.2243   32.2689 C   0  0  2  0  0  0  0  0  0  0  0  0
   10.4523   20.5170   33.0696 C   0  0  0  0  0  0  0  0  0  0  0  0
    9.0222   19.3081   31.3918 C   0  0  2  0  0  0  0  0  0  0  0  0
    8.8494   17.9864   30.6405 C   0  0  1  0  0  0  0  0  0  0  0  0
    8.7864   16.8251   31.6352 C   0  0  1  0  0  0  0  0  0  0  0  0
   10.8583   11.9351   33.7160 C   0  0  2  0  0  0  0  0  0  0  0  0
   11.0804   11.8054   35.2217 C   0  0  1  0  0  0  0  0  0  0  0  0
  3  1  1  0  0  0  0
  4  1  1  6  0  0  0
  4  6  1  0  0  0  0
  4 31  1  0  0  0  0
  6  7  1  0  0  0  0
  7  9  1  6  0  0  0
  7 30  1  0  0  0  0
 10  9  1  1  0  0  0
 10 13  1  0  0  0  0
 10 21  1  0  0  0  0
 13 12  1  6  0  0  0
 13 15  1  0  0  0  0
 15  2  1  1  0  0  0
 15 17  1  0  0  0  0
 16 25  1  0  0  0  0
 17 19  1  0  0  0  0
 19  5  1  1  0  0  0
 19 21  1  0  0  0  0
 21 14  1  6  0  0  0
 23 14  1  6  0  0  0
 23 16  1  0  0  0  0
 23 29  1  0  0  0  0
 25 26  1  1  0  0  0
 25 27  1  0  0  0  0
 26  8  1  0  0  0  0
 27 18  1  6  0  0  0
 27 28  1  0  0  0  0
 28 20  1  1  0  0  0
 28 29  1  0  0  0  0
 29 11  1  6  0  0  0
 30 22  1  1  0  0  0
 30 31  1  0  0  0  0
 31 24  1  1  0  0  0
M  END
>  <CHROM.1>
74.81085229,-29.98683204,64.41692323,124.22178024,87.12655674,175.62130643
11.52512729,15.59583456,32.82921761,1.11814723,0.15497799,2.82576183

>  <Name>
2fcz_lig

>  <RI>
0

>  <Rbt.Current_Directory>
/home/itssahil/PROJECTS/Mol_Feturizer/New_Systems/rnas/2fcz

>  <Rbt.Executable>
rbdock ($Id: //depot/dev/client3/rdock/2013.1/src/exe/rbdock.cxx#4 $)

>  <Rbt.Library>
libRbt.so (2013.1, Build901 2013/11/27)

>  <Rbt.Parameter_File>
/export/apps/rDock/src/rDock_2013.1_src/data/scripts/dock_solv.prm

>  <Rbt.Receptor>
prm/blind_docking_40.prm

>  <SCORE>
13.1912

>  <SCORE.INTER>
-1.67869

>  <SCORE.INTER.CONST>
1

>  <SCORE.INTER.POLAR>
0

>  <SCORE.INTER.ROT>
6

>  <SCORE.INTER.SOLV>
23.6712

>  <SCORE.INTER.VDW>
-16.6095

>  <SCORE.INTER.norm>
-0.0541512

>  <SCORE.INTRA>
6.93766

>  <SCORE.INTRA.DIHEDRAL>
3.8166

>  <SCORE.INTRA.DIHEDRAL.0>
10.8409

>  <SCORE.INTRA.POLAR>
0

>  <SCORE.INTRA.POLAR.0>
0

>  <SCORE.INTRA.REPUL>
0

>  <SCORE.INTRA.REPUL.0>
0

>  <SCORE.INTRA.SOLV>
1.98167

>  <SCORE.INTRA.SOLV.lig_0>
-80.8302

>  <SCORE.INTRA.VDW>
4.03853

>  <SCORE.INTRA.VDW.0>
-4.23953

>  <SCORE.INTRA.norm>
0.223796

>  <SCORE.RESTR>
7.93225

>  <SCORE.RESTR.CAVITY>
7.93225

>  <SCORE.RESTR.norm>
0.255879

>  <SCORE.SYSTEM>
0

>  <SCORE.SYSTEM.CONST>
0

>  <SCORE.SYSTEM.DIHEDRAL>
0

>  <SCORE.SYSTEM.SOLV>
0

>  <SCORE.SYSTEM.norm>
0

>  <SCORE.heavy>
31

>  <SCORE.norm>
0.425523

>  <RMSD>
5.939

$$$$
2fcz_lig
 OpenBabel11021811433D
libRbt.so/2013.1/901 2013/11/27
 31 33  0  0  0  0  0  0  0  0999 V2000
   12.5000   10.5621   34.0312 C   0  0  0  0  0  0  0  0  0  0  0  0
   16.7166   15.0716   33.6799 N   0  0  0  0  0  0  0  0  0  0  0  0
   12.2620   10.9707   35.3810 O   0  0  0  0  0  0  0  0  0  0  0  0
   11.4131   11.1406   33.1188 C   0  0  1  0  0  0  0  0  0  0  0  0
   13.8287   18.9932   33.2018 N   0  0  0  0  0  0  0  0  0  0  0  0
   10.9060   12.3934   33.6217 O   0  0  0  0  0  0  0  0  0  0  0  0
   11.3702   13.4725   32.7863 C   0  0  1  0  0  0  0  0  0  0  0  0
    8.4208   20.9504   33.6073 N   0  0  0  0  0  0  0  0  0  0  0  0
   11.8558   14.5918   33.5468 O   0  0  0  0  0  0  0  0  0  0  0  0
   12.9687   15.2759   32.9463 C   0  0  2  0  0  0  0  0  0  0  0  0
    9.8357   15.4502   31.5586 N   0  0  0  0  0  0  0  0  0  0  0  0
   14.4656   13.4030   33.2704 O   0  0  0  0  0  0  0  0  0  0  0  0
   14.2701   14.7826   33.5907 C   0  0  1  0  0  0  0  0  0  0  0  0
   11.7334   17.3172   32.3372 O   0  0  0  0  0  0  0  0  0  0  0  0
   15.4733   15.5832   33.0869 C   0  0  1  0  0  0  0  0  0  0  0  0
   10.1179   18.6940   33.3702 O   0  0  0  0  0  0  0  0  0  0  0  0
   15.3070   17.0622   33.4429 C   0  0  0  0  0  0  0  0  0  0  0  0
    8.7415   19.9892   30.2086 O   0  0  0  0  0  0  0  0  0  0  0  0
   14.0390   17.6002   32.7768 C   0  0  1  0  0  0  0  0  0  0  0  0
    8.1527   17.1835   30.0231 O   0  0  0  0  0  0  0  0  0  0  0  0
   12.7960   16.7810   33.1410 C   0  0  2  0  0  0  0  0  0  0  0  0
   12.7822   13.5584   30.7581 O   0  0  0  0  0  0  0  0  0  0  0  0
   10.4606   17.3457   32.9993 C   0  0  1  0  0  0  0  0  0  0  0  0
   10.9477   11.4647   30.7406 O   0  0  0  0  0  0  0  0  0  0  0  0
    9.9828   19.6010   32.2624 C   0  0  2  0  0  0  0  0  0  0  0  0
    9.6520   20.9935   32.8051 C   0  0  0  0  0  0  0  0  0  0  0  0
    8.8657   19.1131   31.3330 C   0  0  2  0  0  0  0  0  0  0  0  0
    9.2035   17.7029   30.8444 C   0  0  1  0  0  0  0  0  0  0  0  0
    9.4119   16.7720   32.0410 C   0  0  1  0  0  0  0  0  0  0  0  0
   12.5151   12.8599   31.9780 C   0  0  2  0  0  0  0  0  0  0  0  0
   11.9776   11.4513   31.7326 C   0  0  1  0  0  0  0  0  0  0  0  0
  3  1  1  0  0  0  0
  4  1  1  1  0  0  0
  4  6  1  0  0  0  0
  4 31  1  0  0  0  0
  6  7  1  0  0  0  0
  7  9  1  1  0  0  0
  7 30  1  0  0  0  0
 10  9  1  1  0  0  0
 10 13  1  0  0  0  0
 10 21  1  0  0  0  0
 13 12  1  6  0  0  0
 13 15  1  0  0  0  0
 15  2  1  1  0  0  0
 15 17  1  0  0  0  0
 16 25  1  0  0  0  0
 17 19  1  0  0  0  0
 19  5  1  1  0  0  0
 19 21  1  0  0  0  0
 21 14  1  6  0  0  0
 23 14  1  6  0  0  0
 23 16  1  0  0  0  0
 23 29  1  0  0  0  0
 25 26  1  1  0  0  0
 25 27  1  0  0  0  0
 26  8  1  0  0  0  0
 27 18  1  6  0  0  0
 27 28  1  0  0  0  0
 28 20  1  6  0  0  0
 28 29  1  0  0  0  0
 29 11  1  6  0  0  0
 30 22  1  6  0  0  0
 30 31  1  0  0  0  0
 31 24  1  6  0  0  0
M  END
>  <CHROM.1>
29.71512638,145.00848587,-98.24736444,91.65934316,106.28080672,-57.90772375
11.68387585,15.71264659,32.57962825,1.10234602,0.34612219,-3.13518816

>  <Name>
2fcz_lig

>  <RI>
0

>  <Rbt.Current_Directory>
/home/itssahil/PROJECTS/Mol_Feturizer/New_Systems/rnas/2fcz

>  <Rbt.Executable>
rbdock ($Id: //depot/dev/client3/rdock/2013.1/src/exe/rbdock.cxx#4 $)

>  <Rbt.Library>
libRbt.so (2013.1, Build901 2013/11/27)

>  <Rbt.Parameter_File>
/export/apps/rDock/src/rDock_2013.1_src/data/scripts/dock_solv.prm

>  <Rbt.Receptor>
prm/blind_docking_40.prm

>  <SCORE>
17.1314

>  <SCORE.INTER>
-6.09216

>  <SCORE.INTER.CONST>
1

>  <SCORE.INTER.POLAR>
-0.959166

>  <SCORE.INTER.ROT>
6

>  <SCORE.INTER.SOLV>
22.5358

>  <SCORE.INTER.VDW>
-15.9762

>  <SCORE.INTER.norm>
-0.196521

>  <SCORE.INTRA>
14.4656

>  <SCORE.INTRA.DIHEDRAL>
11.6714

>  <SCORE.INTRA.DIHEDRAL.0>
10.8409

>  <SCORE.INTRA.POLAR>
0

>  <SCORE.INTRA.POLAR.0>
0

>  <SCORE.INTRA.REPUL>
0

>  <SCORE.INTRA.REPUL.0>
0

>  <SCORE.INTRA.SOLV>
2.9688

>  <SCORE.INTRA.SOLV.lig_0>
-80.8302

>  <SCORE.INTRA.VDW>
7.14552

>  <SCORE.INTRA.VDW.0>
-4.23953

>  <SCORE.INTRA.norm>
0.466633

>  <SCORE.RESTR>
8.75795

>  <SCORE.RESTR.CAVITY>
8.75795

>  <SCORE.RESTR.norm>
0.282515

>  <SCORE.SYSTEM>
0

>  <SCORE.SYSTEM.CONST>
0

>  <SCORE.SYSTEM.DIHEDRAL>
0

>  <SCORE.SYSTEM.SOLV>
0

>  <SCORE.SYSTEM.norm>
0

>  <SCORE.heavy>
31

>  <SCORE.norm>
0.552626

>  <RMSD>
5.940

$$$$
2fcz_lig
 OpenBabel11021811433D
libRbt.so/2013.1/901 2013/11/27
 31 33  0  0  0  0  0  0  0  0999 V2000
   13.5965   11.6210   35.1354 C   0  0  0  0  0  0  0  0  0  0  0  0
   16.3074   14.5672   33.0517 N   0  0  0  0  0  0  0  0  0  0  0  0
   14.8136   12.2960   35.4649 O   0  0  0  0  0  0  0  0  0  0  0  0
   12.4074   12.5581   35.3729 C   0  0  1  0  0  0  0  0  0  0  0  0
   12.8995   18.0628   33.3892 N   0  0  0  0  0  0  0  0  0  0  0  0
   12.3566   13.6140   34.3920 O   0  0  0  0  0  0  0  0  0  0  0  0
   11.2542   13.3845   33.4921 C   0  0  1  0  0  0  0  0  0  0  0  0
   10.6514   21.6416   32.1747 N   0  0  0  0  0  0  0  0  0  0  0  0
   11.6150   13.5787   32.1139 O   0  0  0  0  0  0  0  0  0  0  0  0
   12.6583   14.5460   31.9070 C   0  0  2  0  0  0  0  0  0  0  0  0
    8.7376   15.5442   30.8942 N   0  0  0  0  0  0  0  0  0  0  0  0
   14.3928   12.8601   31.8523 O   0  0  0  0  0  0  0  0  0  0  0  0
   13.9551   14.0321   32.5444 C   0  0  1  0  0  0  0  0  0  0  0  0
   11.1814   16.5123   31.7795 O   0  0  0  0  0  0  0  0  0  0  0  0
   15.0600   15.0889   32.4763 C   0  0  1  0  0  0  0  0  0  0  0  0
   10.1644   18.1060   33.1933 O   0  0  0  0  0  0  0  0  0  0  0  0
   14.6324   16.3465   33.2361 C   0  0  0  0  0  0  0  0  0  0  0  0
    9.1738   20.3652   30.4579 O   0  0  0  0  0  0  0  0  0  0  0  0
   13.3635   16.9134   32.5962 C   0  0  1  0  0  0  0  0  0  0  0  0
    7.6716   17.9908   29.8586 O   0  0  0  0  0  0  0  0  0  0  0  0
   12.2353   15.8788   32.5217 C   0  0  2  0  0  0  0  0  0  0  0  0
    9.5273   11.6209   33.3432 O   0  0  0  0  0  0  0  0  0  0  0  0
   10.0199   16.8188   32.5646 C   0  0  1  0  0  0  0  0  0  0  0  0
   10.0339   12.4554   35.9502 O   0  0  0  0  0  0  0  0  0  0  0  0
   10.2959   19.2059   32.2762 C   0  0  2  0  0  0  0  0  0  0  0  0
   10.4735   20.4966   33.0795 C   0  0  0  0  0  0  0  0  0  0  0  0
    9.0430   19.2941   31.3976 C   0  0  2  0  0  0  0  0  0  0  0  0
    8.8684   17.9741   30.6435 C   0  0  1  0  0  0  0  0  0  0  0  0
    8.8014   16.8112   31.6360 C   0  0  1  0  0  0  0  0  0  0  0  0
   10.8727   11.9219   33.7261 C   0  0  2  0  0  0  0  0  0  0  0  0
   11.0857   11.8029   35.2340 C   0  0  1  0  0  0  0  0  0  0  0  0
  3  1  1  0  0  0  0
  4  1  1  6  0  0  0
  4  6  1  0  0  0  0
  4 31  1  0  0  0  0
  6  7  1  0  0  0  0
  7  9  1  6  0  0  0
  7 30  1  0  0  0  0
 10  9  1  1  0  0  0
 10 13  1  0  0  0  0
 10 21  1  0  0  0  0
 13 12  1  6  0  0  0
 13 15  1  0  0  0  0
 15  2  1  1  0  0  0
 15 17  1  0  0  0  0
 16 25  1  0  0  0  0
 17 19  1  0  0  0  0
 19  5  1  1  0  0  0
 19 21  1  0  0  0  0
 21 14  1  6  0  0  0
 23 14  1  6  0  0  0
 23 16  1  0  0  0  0
 23 29  1  0  0  0  0
 25 26  1  1  0  0  0
 25 27  1  0  0  0  0
 26  8  1  0  0  0  0
 27 18  1  6  0  0  0
 27 28  1  0  0  0  0
 28 20  1  1  0  0  0
 28 29  1  0  0  0  0
 29 11  1  6  0  0  0
 30 22  1  1  0  0  0
 30 31  1  0  0  0  0
 31 24  1  1  0  0  0
M  END
>  <CHROM.1>
71.12861763,-29.75122785,64.81802165,124.30534260,86.90819911,178.33685499
11.53665921,15.58492736,32.83418269,1.11751138,0.15400719,2.82564702

>  <Name>
2fcz_lig

>  <RI>
0

>  <Rbt.Current_Directory>
/home/itssahil/PROJECTS/Mol_Feturizer/New_Systems/rnas/2fcz

>  <Rbt.Executable>
rbdock ($Id: //depot/dev/client3/rdock/2013.1/src/exe/rbdock.cxx#4 $)

>  <Rbt.Library>
libRbt.so (2013.1, Build901 2013/11/27)

>  <Rbt.Parameter_File>
/export/apps/rDock/src/rDock_2013.1_src/data/scripts/dock_solv.prm

>  <Rbt.Receptor>
prm/blind_docking_40.prm

>  <SCORE>
12.7679

>  <SCORE.INTER>
-1.97364

>  <SCORE.INTER.CONST>
1

>  <SCORE.INTER.POLAR>
0

>  <SCORE.INTER.ROT>
6

>  <SCORE.INTER.SOLV>
23.6093

>  <SCORE.INTER.VDW>
-16.7855

>  <SCORE.INTER.norm>
-0.063666

>  <SCORE.INTRA>
6.78752

>  <SCORE.INTRA.DIHEDRAL>
3.45544

>  <SCORE.INTRA.DIHEDRAL.0>
10.8409

>  <SCORE.INTRA.POLAR>
0

>  <SCORE.INTRA.POLAR.0>
0

>  <SCORE.INTRA.REPUL>
0

>  <SCORE.INTRA.REPUL.0>
0

>  <SCORE.INTRA.SOLV>
2.12226

>  <SCORE.INTRA.SOLV.lig_0>
-80.8302

>  <SCORE.INTRA.VDW>
3.99867

>  <SCORE.INTRA.VDW.0>
-4.23953

>  <SCORE.INTRA.norm>
0.218952

>  <SCORE.RESTR>
7.95403

>  <SCORE.RESTR.CAVITY>
7.95403

>  <SCORE.RESTR.norm>
0.256582

>  <SCORE.SYSTEM>
0

>  <SCORE.SYSTEM.CONST>
0

>  <SCORE.SYSTEM.DIHEDRAL>
0

>  <SCORE.SYSTEM.SOLV>
0

>  <SCORE.SYSTEM.norm>
0

>  <SCORE.heavy>
31

>  <SCORE.norm>
0.411868

>  <RMSD>
5.948

$$$$
2fcz_lig
 OpenBabel11021811433D
libRbt.so/2013.1/901 2013/11/27
 31 33  0  0  0  0  0  0  0  0999 V2000
   13.7251   12.8063   34.8785 C   0  0  0  0  0  0  0  0  0  0  0  0
   15.9378   14.0010   32.6007 N   0  0  0  0  0  0  0  0  0  0  0  0
   13.7683   11.7054   33.9666 O   0  0  0  0  0  0  0  0  0  0  0  0
   12.2681   13.2075   35.1327 C   0  0  1  0  0  0  0  0  0  0  0  0
   13.1820   17.9875   33.2797 N   0  0  0  0  0  0  0  0  0  0  0  0
   11.8005   14.1630   34.1590 O   0  0  0  0  0  0  0  0  0  0  0  0
   10.8642   13.5255   33.2677 C   0  0  1  0  0  0  0  0  0  0  0  0
   10.6208   21.9449   32.0980 N   0  0  0  0  0  0  0  0  0  0  0  0
   11.1063   13.8478   31.8876 O   0  0  0  0  0  0  0  0  0  0  0  0
   12.2852   14.6397   31.6638 C   0  0  2  0  0  0  0  0  0  0  0  0
    8.7036   15.8318   30.8649 N   0  0  0  0  0  0  0  0  0  0  0  0
   13.7090   12.6964   31.4390 O   0  0  0  0  0  0  0  0  0  0  0  0
   13.5074   13.8871   32.2044 C   0  0  1  0  0  0  0  0  0  0  0  0
   11.1531   16.8261   31.7044 O   0  0  0  0  0  0  0  0  0  0  0  0
   14.7687   14.7498   32.1195 C   0  0  1  0  0  0  0  0  0  0  0  0
   10.1456   18.4130   33.1325 O   0  0  0  0  0  0  0  0  0  0  0  0
   14.5944   16.0196   32.9555 C   0  0  0  0  0  0  0  0  0  0  0  0
    9.0843   20.6558   30.4101 O   0  0  0  0  0  0  0  0  0  0  0  0
   13.4085   16.8199   32.4132 C   0  0  1  0  0  0  0  0  0  0  0  0
    7.5953   18.2653   29.8430 O   0  0  0  0  0  0  0  0  0  0  0  0
   12.1211   15.9903   32.3581 C   0  0  2  0  0  0  0  0  0  0  0  0
    9.9562   11.2299   33.1233 O   0  0  0  0  0  0  0  0  0  0  0  0
   10.0027   17.1230   32.5093 C   0  0  1  0  0  0  0  0  0  0  0  0
   10.1271   12.1897   35.7308 O   0  0  0  0  0  0  0  0  0  0  0  0
   10.2500   19.5119   32.2108 C   0  0  2  0  0  0  0  0  0  0  0  0
   10.4290   20.8063   33.0080 C   0  0  0  0  0  0  0  0  0  0  0  0
    8.9809   19.5858   31.3544 C   0  0  2  0  0  0  0  0  0  0  0  0
    8.8059   18.2623   30.6065 C   0  0  1  0  0  0  0  0  0  0  0  0
    8.7681   17.1011   31.6026 C   0  0  1  0  0  0  0  0  0  0  0  0
   11.0832   12.0290   33.4959 C   0  0  2  0  0  0  0  0  0  0  0  0
   11.3419   11.9985   35.0010 C   0  0  1  0  0  0  0  0  0  0  0  0
  3  1  1  0  0  0  0
  4  1  1  6  0  0  0
  4  6  1  0  0  0  0
  4 31  1  0  0  0  0
  6  7  1  0  0  0  0
  7  9  1  6  0  0  0
  7 30  1  0  0  0  0
 10  9  1  1  0  0  0
 10 13  1  0  0  0  0
 10 21  1  0  0  0  0
 13 12  1  6  0  0  0
 13 15  1  0  0  0  0
 15  2  1  1  0  0  0
 15 17  1  0  0  0  0
 16 25  1  0  0  0  0
 17 19  1  0  0  0  0
 19  5  1  1  0  0  0
 19 21  1  0  0  0  0
 21 14  1  6  0  0  0
 23 14  1  6  0  0  0
 23 16  1  0  0  0  0
 23 29  1  0  0  0  0
 25 26  1  1  0  0  0
 25 27  1  0  0  0  0
 26  8  1  0  0  0  0
 27 18  1  6  0  0  0
 27 28  1  0  0  0  0
 28 20  1  1  0  0  0
 28 29  1  0  0  0  0
 29 11  1  6  0  0  0
 30 22  1  1  0  0  0
 30 31  1  0  0  0  0
 31 24  1  1  0  0  0
M  END
>  <CHROM.1>
-87.71800485,4.91716137,58.56677398,115.94235748,97.79887535,176.60181249
11.39971021,15.70713709,32.61183725,-1.15988020,-0.12737940,-0.25658664

>  <Name>
2fcz_lig

>  <RI>
0

>  <Rbt.Current_Directory>
/home/itssahil/PROJECTS/Mol_Feturizer/New_Systems/rnas/2fcz

>  <Rbt.Executable>
rbdock ($Id: //depot/dev/client3/rdock/2013.1/src/exe/rbdock.cxx#4 $)

>  <Rbt.Library>
libRbt.so (2013.1, Build901 2013/11/27)

>  <Rbt.Parameter_File>
/export/apps/rDock/src/rDock_2013.1_src/data/scripts/dock_solv.prm

>  <Rbt.Receptor>
prm/blind_docking_40.prm

>  <SCORE>
14.2458

>  <SCORE.INTER>
-4.54782

>  <SCORE.INTER.CONST>
1

>  <SCORE.INTER.POLAR>
0

>  <SCORE.INTER.ROT>
6

>  <SCORE.INTER.SOLV>
21.0645

>  <SCORE.INTER.VDW>
-17.6534

>  <SCORE.INTER.norm>
-0.146704

>  <SCORE.INTRA>
13.5358

>  <SCORE.INTRA.DIHEDRAL>
10.6346

>  <SCORE.INTRA.DIHEDRAL.0>
10.8409

>  <SCORE.INTRA.POLAR>
0

>  <SCORE.INTRA.POLAR.0>
0

>  <SCORE.INTRA.REPUL>
0

>  <SCORE.INTRA.REPUL.0>
0

>  <SCORE.INTRA.SOLV>
4.26716

>  <SCORE.INTRA.SOLV.lig_0>
-80.8302

>  <SCORE.INTRA.VDW>
6.08491

>  <SCORE.INTRA.VDW.0>
-4.23953

>  <SCORE.INTRA.norm>
0.436638

>  <SCORE.RESTR>
5.2578

>  <SCORE.RESTR.CAVITY>
5.2578

>  <SCORE.RESTR.norm>
0.169606

>  <SCORE.SYSTEM>
0

>  <SCORE.SYSTEM.CONST>
0

>  <SCORE.SYSTEM.DIHEDRAL>
0

>  <SCORE.SYSTEM.SOLV>
0

>  <SCORE.SYSTEM.norm>
0

>  <SCORE.heavy>
31

>  <SCORE.norm>
0.459541

>  <RMSD>
5.952

$$$$
2fcz_lig
 OpenBabel11021811433D
libRbt.so/2013.1/901 2013/11/27
 31 33  0  0  0  0  0  0  0  0999 V2000
   16.3953   20.4354   37.0377 C   0  0  0  0  0  0  0  0  0  0  0  0
   11.5837   17.2853   40.4471 N   0  0  0  0  0  0  0  0  0  0  0  0
   17.7233   20.5870   36.5289 O   0  0  0  0  0  0  0  0  0  0  0  0
   15.9333   18.9867   36.8474 C   0  0  1  0  0  0  0  0  0  0  0  0
    9.6211   15.5276   36.3233 N   0  0  0  0  0  0  0  0  0  0  0  0
   14.5618   18.8065   37.2551 O   0  0  0  0  0  0  0  0  0  0  0  0
   13.7332   18.6149   36.0913 C   0  0  1  0  0  0  0  0  0  0  0  0
   12.5374   14.6996   33.2349 N   0  0  0  0  0  0  0  0  0  0  0  0
   12.5237   19.3908   36.1392 O   0  0  0  0  0  0  0  0  0  0  0  0
   11.4811   18.8110   36.9416 C   0  0  2  0  0  0  0  0  0  0  0  0
    9.0875   20.1493   33.6399 N   0  0  0  0  0  0  0  0  0  0  0  0
   12.4793   19.5582   39.0151 O   0  0  0  0  0  0  0  0  0  0  0  0
   12.0629   18.3935   38.2979 C   0  0  1  0  0  0  0  0  0  0  0  0
   10.1133   17.9999   35.0615 O   0  0  0  0  0  0  0  0  0  0  0  0
   11.0260   17.6410   39.1350 C   0  0  1  0  0  0  0  0  0  0  0  0
   11.6419   17.4523   33.3479 O   0  0  0  0  0  0  0  0  0  0  0  0
   10.5829   16.3707   38.4057 C   0  0  0  0  0  0  0  0  0  0  0  0
    9.1006   15.9970   31.1137 O   0  0  0  0  0  0  0  0  0  0  0  0
    9.9542   16.7543   37.0646 C   0  0  1  0  0  0  0  0  0  0  0  0
    8.2538   18.7363   31.2940 O   0  0  0  0  0  0  0  0  0  0  0  0
   10.8904   17.6105   36.2049 C   0  0  2  0  0  0  0  0  0  0  0  0
   14.2109   18.5289   33.6666 O   0  0  0  0  0  0  0  0  0  0  0  0
   10.8958   18.5129   33.9735 C   0  0  1  0  0  0  0  0  0  0  0  0
   16.0891   17.1754   35.2126 O   0  0  0  0  0  0  0  0  0  0  0  0
   10.8317   16.4151   32.7685 C   0  0  2  0  0  0  0  0  0  0  0  0
   11.7527   15.3470   32.1735 C   0  0  0  0  0  0  0  0  0  0  0  0
    9.9360   17.0127   31.6776 C   0  0  2  0  0  0  0  0  0  0  0  0
    9.0614   18.1067   32.2939 C   0  0  1  0  0  0  0  0  0  0  0  0
    9.9425   19.1625   32.9654 C   0  0  1  0  0  0  0  0  0  0  0  0
   14.6040   19.0850   34.9251 C   0  0  2  0  0  0  0  0  0  0  0  0
   15.9793   18.5924   35.3712 C   0  0  1  0  0  0  0  0  0  0  0  0
  3  1  1  0  0  0  0
  4  1  1  6  0  0  0
  4  6  1  0  0  0  0
  4 31  1  0  0  0  0
  6  7  1  0  0  0  0
  7  9  1  1  0  0  0
  7 30  1  0  0  0  0
 10  9  1  6  0  0  0
 10 13  1  0  0  0  0
 10 21  1  0  0  0  0
 13 12  1  1  0  0  0
 13 15  1  0  0  0  0
 15  2  1  1  0  0  0
 15 17  1  0  0  0  0
 16 25  1  0  0  0  0
 17 19  1  0  0  0  0
 19  5  1  6  0  0  0
 19 21  1  0  0  0  0
 21 14  1  6  0  0  0
 23 14  1  1  0  0  0
 23 16  1  0  0  0  0
 23 29  1  0  0  0  0
 25 26  1  6  0  0  0
 25 27  1  0  0  0  0
 26  8  1  0  0  0  0
 27 18  1  1  0  0  0
 27 28  1  0  0  0  0
 28 20  1  6  0  0  0
 28 29  1  0  0  0  0
 29 11  1  1  0  0  0
 30 22  1  6  0  0  0
 30 31  1  0  0  0  0
 31 24  1  1  0  0  0
M  END
>  <CHROM.1>
-175.71220822,-80.53046892,48.41938772,70.63665402,71.24081287,64.26238349
12.11656312,18.00718439,35.28444418,-0.72561617,-0.28364759,-1.62968269

>  <Name>
2fcz_lig

>  <RI>
1.32928e+07

>  <Rbt.Current_Directory>
/home/itssahil/PROJECTS/Mol_Feturizer/New_Systems/rnas/2fcz

>  <Rbt.Executable>
rbdock ($Id: //depot/dev/client3/rdock/2013.1/src/exe/rbdock.cxx#4 $)

>  <Rbt.Library>
libRbt.so (2013.1, Build901 2013/11/27)

>  <Rbt.Parameter_File>
/export/apps/rDock/src/rDock_2013.1_src/data/scripts/dock_solv.prm

>  <Rbt.Receptor>
prm/pocket_docking_7.prm

>  <SCORE>
-18.8203

>  <SCORE.INTER>
-16.3548

>  <SCORE.INTER.CONST>
1

>  <SCORE.INTER.POLAR>
-1.90395

>  <SCORE.INTER.ROT>
6

>  <SCORE.INTER.SOLV>
9.69079

>  <SCORE.INTER.VDW>
-15.3869

>  <SCORE.INTER.norm>
-0.527574

>  <SCORE.INTRA>
-2.46551

>  <SCORE.INTRA.DIHEDRAL>
-6.9155

>  <SCORE.INTRA.DIHEDRAL.0>
10.8409

>  <SCORE.INTRA.POLAR>
0

>  <SCORE.INTRA.POLAR.0>
0

>  <SCORE.INTRA.REPUL>
0.00205363

>  <SCORE.INTRA.REPUL.0>
0

>  <SCORE.INTRA.SOLV>
-2.61906

>  <SCORE.INTRA.SOLV.lig_0>
-80.8302

>  <SCORE.INTRA.VDW>
2.2915

>  <SCORE.INTRA.VDW.0>
-4.23953

>  <SCORE.INTRA.norm>
-0.0795327

>  <SCORE.RESTR>
0

>  <SCORE.RESTR.CAVITY>
0

>  <SCORE.RESTR.norm>
0

>  <SCORE.SYSTEM>
0

>  <SCORE.SYSTEM.CONST>
0

>  <SCORE.SYSTEM.DIHEDRAL>
0

>  <SCORE.SYSTEM.SOLV>
0

>  <SCORE.SYSTEM.norm>
0

>  <SCORE.heavy>
31

>  <SCORE.norm>
-0.607106

>  <RMSD>
5.966

$$$$
2fcz_lig
 OpenBabel11021811433D
libRbt.so/2013.1/901 2013/11/27
 31 33  0  0  0  0  0  0  0  0999 V2000
    4.5979   15.1608   39.4133 C   0  0  0  0  0  0  0  0  0  0  0  0
   11.1981   14.2862   40.5534 N   0  0  0  0  0  0  0  0  0  0  0  0
    3.2246   15.3348   39.7725 O   0  0  0  0  0  0  0  0  0  0  0  0
    5.4524   16.2209   40.1167 C   0  0  1  0  0  0  0  0  0  0  0  0
   11.7581   19.0862   39.7828 N   0  0  0  0  0  0  0  0  0  0  0  0
    6.8470   16.0966   39.7714 O   0  0  0  0  0  0  0  0  0  0  0  0
    7.2310   17.1889   38.9127 C   0  0  1  0  0  0  0  0  0  0  0  0
    9.5189   15.9396   33.4366 N   0  0  0  0  0  0  0  0  0  0  0  0
    8.0176   16.7591   37.7886 O   0  0  0  0  0  0  0  0  0  0  0  0
    9.4163   16.5912   38.0757 C   0  0  2  0  0  0  0  0  0  0  0  0
   11.5631   20.8710   36.2564 N   0  0  0  0  0  0  0  0  0  0  0  0
    9.1658   14.2386   38.5821 O   0  0  0  0  0  0  0  0  0  0  0  0
    9.5852   15.4906   39.1304 C   0  0  1  0  0  0  0  0  0  0  0  0
   10.0836   18.8962   37.5230 O   0  0  0  0  0  0  0  0  0  0  0  0
   11.0447   15.3721   39.5755 C   0  0  1  0  0  0  0  0  0  0  0  0
   10.3399   17.3923   35.7215 O   0  0  0  0  0  0  0  0  0  0  0  0
   11.5138   16.6899   40.1960 C   0  0  0  0  0  0  0  0  0  0  0  0
    7.9433   19.1232   33.5242 O   0  0  0  0  0  0  0  0  0  0  0  0
   11.4019   17.8044   39.1538 C   0  0  1  0  0  0  0  0  0  0  0  0
    9.9873   21.1106   33.8786 O   0  0  0  0  0  0  0  0  0  0  0  0
    9.9893   17.9179   38.5703 C   0  0  2  0  0  0  0  0  0  0  0  0
    6.0083   19.1307   37.9913 O   0  0  0  0  0  0  0  0  0  0  0  0
   10.9258   18.4998   36.4307 C   0  0  1  0  0  0  0  0  0  0  0  0
    5.4012   18.6048   40.6567 O   0  0  0  0  0  0  0  0  0  0  0  0
    9.0627   17.6753   35.1244 C   0  0  2  0  0  0  0  0  0  0  0  0
    8.5494   16.4071   34.4380 C   0  0  0  0  0  0  0  0  0  0  0  0
    9.2133   18.8088   34.1036 C   0  0  2  0  0  0  0  0  0  0  0  0
    9.7703   20.0463   34.8107 C   0  0  1  0  0  0  0  0  0  0  0  0
   11.0941   19.7032   35.4976 C   0  0  1  0  0  0  0  0  0  0  0  0
    5.9037   17.7707   38.4237 C   0  0  2  0  0  0  0  0  0  0  0  0
    5.0428   17.6265   39.6772 C   0  0  1  0  0  0  0  0  0  0  0  0
  3  1  1  0  0  0  0
  4  1  1  6  0  0  0
  4  6  1  0  0  0  0
  4 31  1  0  0  0  0
  6  7  1  0  0  0  0
  7  9  1  6  0  0  0
  7 30  1  0  0  0  0
 10  9  1  1  0  0  0
 10 13  1  0  0  0  0
 10 21  1  0  0  0  0
 13 12  1  6  0  0  0
 13 15  1  0  0  0  0
 15  2  1  1  0  0  0
 15 17  1  0  0  0  0
 16 25  1  0  0  0  0
 17 19  1  0  0  0  0
 19  5  1  1  0  0  0
 19 21  1  0  0  0  0
 21 14  1  6  0  0  0
 23 14  1  1  0  0  0
 23 16  1  0  0  0  0
 23 29  1  0  0  0  0
 25 26  1  6  0  0  0
 25 27  1  0  0  0  0
 26  8  1  0  0  0  0
 27 18  1  1  0  0  0
 27 28  1  0  0  0  0
 28 20  1  6  0  0  0
 28 29  1  0  0  0  0
 29 11  1  1  0  0  0
 30 22  1  1  0  0  0
 30 31  1  0  0  0  0
 31 24  1  1  0  0  0
M  END
>  <CHROM.1>
-179.26613522,-82.72743517,62.48034176,-60.19076952,67.14054787,-57.50219481
8.68390296,17.48272671,37.63479271,2.22866344,0.01889952,2.12047778

>  <Name>
2fcz_lig

>  <RI>
1.32928e+07

>  <Rbt.Current_Directory>
/home/itssahil/PROJECTS/Mol_Feturizer/New_Systems/rnas/2fcz

>  <Rbt.Executable>
rbdock ($Id: //depot/dev/client3/rdock/2013.1/src/exe/rbdock.cxx#4 $)

>  <Rbt.Library>
libRbt.so (2013.1, Build901 2013/11/27)

>  <Rbt.Parameter_File>
/export/apps/rDock/src/rDock_2013.1_src/data/scripts/dock_solv.prm

>  <Rbt.Receptor>
prm/pocket_docking_7.prm

>  <SCORE>
-17.3939

>  <SCORE.INTER>
-16.2977

>  <SCORE.INTER.CONST>
1

>  <SCORE.INTER.POLAR>
-3.63209

>  <SCORE.INTER.ROT>
6

>  <SCORE.INTER.SOLV>
15.4844

>  <SCORE.INTER.VDW>
-11.5196

>  <SCORE.INTER.norm>
-0.525731

>  <SCORE.INTRA>
-1.09622

>  <SCORE.INTRA.DIHEDRAL>
-8.15662

>  <SCORE.INTRA.DIHEDRAL.0>
10.8409

>  <SCORE.INTRA.POLAR>
0

>  <SCORE.INTRA.POLAR.0>
0

>  <SCORE.INTRA.REPUL>
0

>  <SCORE.INTRA.REPUL.0>
0

>  <SCORE.INTRA.SOLV>
-1.42794

>  <SCORE.INTRA.SOLV.lig_0>
-80.8302

>  <SCORE.INTRA.VDW>
3.69606

>  <SCORE.INTRA.VDW.0>
-4.23953

>  <SCORE.INTRA.norm>
-0.0353618

>  <SCORE.RESTR>
0

>  <SCORE.RESTR.CAVITY>
0

>  <SCORE.RESTR.norm>
0

>  <SCORE.SYSTEM>
0

>  <SCORE.SYSTEM.CONST>
0

>  <SCORE.SYSTEM.DIHEDRAL>
0

>  <SCORE.SYSTEM.SOLV>
0

>  <SCORE.SYSTEM.norm>
0

>  <SCORE.heavy>
31

>  <SCORE.norm>
-0.561093

>  <RMSD>
5.975

$$$$
2fcz_lig
 OpenBabel11021811433D
libRbt.so/2013.1/901 2013/11/27
 31 33  0  0  0  0  0  0  0  0999 V2000
   13.6302   12.0133   34.5574 C   0  0  0  0  0  0  0  0  0  0  0  0
   15.8317   13.3728   31.7721 N   0  0  0  0  0  0  0  0  0  0  0  0
   13.1278   11.3312   33.4051 O   0  0  0  0  0  0  0  0  0  0  0  0
   12.5565   12.9605   35.1039 C   0  0  1  0  0  0  0  0  0  0  0  0
   14.0556   17.7561   33.0286 N   0  0  0  0  0  0  0  0  0  0  0  0
   12.2914   14.0476   34.1942 O   0  0  0  0  0  0  0  0  0  0  0  0
   10.9978   13.8635   33.5856 C   0  0  1  0  0  0  0  0  0  0  0  0
    8.6504   20.7962   33.9307 N   0  0  0  0  0  0  0  0  0  0  0  0
   11.0154   14.0957   32.1668 O   0  0  0  0  0  0  0  0  0  0  0  0
   12.2370   14.6752   31.6780 C   0  0  2  0  0  0  0  0  0  0  0  0
    9.4009   15.5455   31.0214 N   0  0  0  0  0  0  0  0  0  0  0  0
   13.2036   12.5207   31.1509 O   0  0  0  0  0  0  0  0  0  0  0  0
   13.3940   13.7015   31.9343 C   0  0  1  0  0  0  0  0  0  0  0  0
   11.5525   17.0239   31.9585 O   0  0  0  0  0  0  0  0  0  0  0  0
   14.7382   14.3314   31.5618 C   0  0  1  0  0  0  0  0  0  0  0  0
   10.1812   18.3425   33.3563 O   0  0  0  0  0  0  0  0  0  0  0  0
   14.9847   15.5828   32.4073 C   0  0  0  0  0  0  0  0  0  0  0  0
    8.7670   20.3466   30.6083 O   0  0  0  0  0  0  0  0  0  0  0  0
   13.8706   16.5971   32.1410 C   0  0  1  0  0  0  0  0  0  0  0  0
    7.8395   17.7032   29.9719 O   0  0  0  0  0  0  0  0  0  0  0  0
   12.4761   16.0091   32.3827 C   0  0  2  0  0  0  0  0  0  0  0  0
    9.2475   12.1320   33.8164 O   0  0  0  0  0  0  0  0  0  0  0  0
   10.3373   17.0599   32.7210 C   0  0  1  0  0  0  0  0  0  0  0  0
   10.3941   12.8757   36.2416 O   0  0  0  0  0  0  0  0  0  0  0  0
   10.0834   19.4510   32.4453 C   0  0  2  0  0  0  0  0  0  0  0  0
    9.9554   20.7431   33.2560 C   0  0  0  0  0  0  0  0  0  0  0  0
    8.8589   19.2662   31.5420 C   0  0  2  0  0  0  0  0  0  0  0  0
    8.9951   17.9459   30.7806 C   0  0  1  0  0  0  0  0  0  0  0  0
    9.1685   16.7897   31.7681 C   0  0  1  0  0  0  0  0  0  0  0  0
   10.6522   12.4002   33.8663 C   0  0  2  0  0  0  0  0  0  0  0  0
   11.2242   12.2302   35.2724 C   0  0  1  0  0  0  0  0  0  0  0  0
  3  1  1  0  0  0  0
  4  1  1  6  0  0  0
  4  6  1  0  0  0  0
  4 31  1  0  0  0  0
  6  7  1  0  0  0  0
  7  9  1  6  0  0  0
  7 30  1  0  0  0  0
 10  9  1  1  0  0  0
 10 13  1  0  0  0  0
 10 21  1  0  0  0  0
 13 12  1  6  0  0  0
 13 15  1  0  0  0  0
 15  2  1  1  0  0  0
 15 17  1  0  0  0  0
 16 25  1  0  0  0  0
 17 19  1  0  0  0  0
 19  5  1  1  0  0  0
 19 21  1  0  0  0  0
 21 14  1  6  0  0  0
 23 14  1  6  0  0  0
 23 16  1  0  0  0  0
 23 29  1  0  0  0  0
 25 26  1  1  0  0  0
 25 27  1  0  0  0  0
 26  8  1  0  0  0  0
 27 18  1  6  0  0  0
 27 28  1  0  0  0  0
 28 20  1  1  0  0  0
 28 29  1  0  0  0  0
 29 11  1  6  0  0  0
 30 22  1  1  0  0  0
 30 31  1  0  0  0  0
 31 24  1  1  0  0  0
M  END
>  <CHROM.1>
-67.31751352,-9.93766420,62.83768078,88.66756369,119.92878233,-69.28892235
11.38148287,15.57446633,32.69944659,1.06202532,-0.25587655,2.76312553

>  <Name>
2fcz_lig

>  <RI>
0

>  <Rbt.Current_Directory>
/home/itssahil/PROJECTS/Mol_Feturizer/New_Systems/rnas/2fcz

>  <Rbt.Executable>
rbdock ($Id: //depot/dev/client3/rdock/2013.1/src/exe/rbdock.cxx#4 $)

>  <Rbt.Library>
libRbt.so (2013.1, Build901 2013/11/27)

>  <Rbt.Parameter_File>
/export/apps/rDock/src/rDock_2013.1_src/data/scripts/dock_solv.prm

>  <Rbt.Receptor>
prm/blind_docking_40.prm

>  <SCORE>
9.8516

>  <SCORE.INTER>
-8.06599

>  <SCORE.INTER.CONST>
1

>  <SCORE.INTER.POLAR>
-0.811384

>  <SCORE.INTER.ROT>
6

>  <SCORE.INTER.SOLV>
20.5716

>  <SCORE.INTER.VDW>
-17.1299

>  <SCORE.INTER.norm>
-0.260193

>  <SCORE.INTRA>
11.2522

>  <SCORE.INTRA.DIHEDRAL>
6.9379

>  <SCORE.INTRA.DIHEDRAL.0>
10.8409

>  <SCORE.INTRA.POLAR>
0

>  <SCORE.INTRA.POLAR.0>
0

>  <SCORE.INTRA.REPUL>
0

>  <SCORE.INTRA.REPUL.0>
0

>  <SCORE.INTRA.SOLV>
3.72163

>  <SCORE.INTRA.SOLV.lig_0>
-80.8302

>  <SCORE.INTRA.VDW>
5.92243

>  <SCORE.INTRA.VDW.0>
-4.23953

>  <SCORE.INTRA.norm>
0.362974

>  <SCORE.RESTR>
6.66539

>  <SCORE.RESTR.CAVITY>
6.66539

>  <SCORE.RESTR.norm>
0.215013

>  <SCORE.SYSTEM>
0

>  <SCORE.SYSTEM.CONST>
0

>  <SCORE.SYSTEM.DIHEDRAL>
0

>  <SCORE.SYSTEM.SOLV>
0

>  <SCORE.SYSTEM.norm>
0

>  <SCORE.heavy>
31

>  <SCORE.norm>
0.317794

>  <RMSD>
5.985

$$$$
2fcz_lig
 OpenBabel11021811433D
libRbt.so/2013.1/901 2013/11/27
 31 33  0  0  0  0  0  0  0  0999 V2000
   13.8851   12.9052   34.5620 C   0  0  0  0  0  0  0  0  0  0  0  0
   15.6216   13.3238   31.9937 N   0  0  0  0  0  0  0  0  0  0  0  0
   14.7827   14.0067   34.7245 O   0  0  0  0  0  0  0  0  0  0  0  0
   12.4981   13.2891   35.0886 C   0  0  1  0  0  0  0  0  0  0  0  0
   13.8902   17.7771   33.0511 N   0  0  0  0  0  0  0  0  0  0  0  0
   11.8848   14.3126   34.2787 O   0  0  0  0  0  0  0  0  0  0  0  0
   10.8019   13.7417   33.5176 C   0  0  1  0  0  0  0  0  0  0  0  0
   10.1307   22.0722   31.8162 N   0  0  0  0  0  0  0  0  0  0  0  0
   10.8101   14.1617   32.1426 O   0  0  0  0  0  0  0  0  0  0  0  0
   12.0660   14.7010   31.6969 C   0  0  2  0  0  0  0  0  0  0  0  0
    9.1330   15.6556   31.2166 N   0  0  0  0  0  0  0  0  0  0  0  0
   13.0063   12.5126   31.2719 O   0  0  0  0  0  0  0  0  0  0  0  0
   13.1872   13.7097   32.0325 C   0  0  1  0  0  0  0  0  0  0  0  0
   11.4233   17.0708   31.8838 O   0  0  0  0  0  0  0  0  0  0  0  0
   14.5613   14.3000   31.7074 C   0  0  1  0  0  0  0  0  0  0  0  0
   10.2175   18.6252   33.1887 O   0  0  0  0  0  0  0  0  0  0  0  0
   14.7969   15.5681   32.5308 C   0  0  0  0  0  0  0  0  0  0  0  0
    8.7912   20.4172   30.3039 O   0  0  0  0  0  0  0  0  0  0  0  0
   13.7200   16.5988   32.1861 C   0  0  1  0  0  0  0  0  0  0  0  0
    7.6611   17.7926   30.0078 O   0  0  0  0  0  0  0  0  0  0  0  0
   12.3027   16.0480   32.3771 C   0  0  2  0  0  0  0  0  0  0  0  0
    9.8515   11.4637   33.3693 O   0  0  0  0  0  0  0  0  0  0  0  0
   10.2556   17.2740   32.6929 C   0  0  1  0  0  0  0  0  0  0  0  0
   10.4765   12.2341   35.9703 O   0  0  0  0  0  0  0  0  0  0  0  0
   10.1432   19.6335   32.1661 C   0  0  2  0  0  0  0  0  0  0  0  0
   10.1431   21.0110   32.8336 C   0  0  0  0  0  0  0  0  0  0  0  0
    8.8626   19.4396   31.3463 C   0  0  2  0  0  0  0  0  0  0  0  0
    8.8718   18.0388   30.7304 C   0  0  1  0  0  0  0  0  0  0  0  0
    9.0224   16.9860   31.8308 C   0  0  1  0  0  0  0  0  0  0  0  0
   11.0362   12.2324   33.5993 C   0  0  2  0  0  0  0  0  0  0  0  0
   11.5468   12.0939   35.0323 C   0  0  1  0  0  0  0  0  0  0  0  0
  3  1  1  0  0  0  0
  4  1  1  6  0  0  0
  4  6  1  0  0  0  0
  4 31  1  0  0  0  0
  6  7  1  0  0  0  0
  7  9  1  6  0  0  0
  7 30  1  0  0  0  0
 10  9  1  1  0  0  0
 10 13  1  0  0  0  0
 10 21  1  0  0  0  0
 13 12  1  6  0  0  0
 13 15  1  0  0  0  0
 15  2  1  1  0  0  0
 15 17  1  0  0  0  0
 16 25  1  0  0  0  0
 17 19  1  0  0  0  0
 19  5  1  1  0  0  0
 19 21  1  0  0  0  0
 21 14  1  6  0  0  0
 23 14  1  6  0  0  0
 23 16  1  0  0  0  0
 23 29  1  0  0  0  0
 25 26  1  1  0  0  0
 25 27  1  0  0  0  0
 26  8  1  0  0  0  0
 27 18  1  6  0  0  0
 27 28  1  0  0  0  0
 28 20  1  1  0  0  0
 28 29  1  0  0  0  0
 29 11  1  6  0  0  0
 30 22  1  1  0  0  0
 30 31  1  0  0  0  0
 31 24  1  1  0  0  0
M  END
>  <CHROM.1>
67.13454523,18.16181727,52.11357132,96.50106808,119.73052525,177.38942059
11.44179216,15.75707170,32.62363827,-1.12171781,-0.08297095,-0.28127233

>  <Name>
2fcz_lig

>  <RI>
0

>  <Rbt.Current_Directory>
/home/itssahil/PROJECTS/Mol_Feturizer/New_Systems/rnas/2fcz

>  <Rbt.Executable>
rbdock ($Id: //depot/dev/client3/rdock/2013.1/src/exe/rbdock.cxx#4 $)

>  <Rbt.Library>
libRbt.so (2013.1, Build901 2013/11/27)

>  <Rbt.Parameter_File>
/export/apps/rDock/src/rDock_2013.1_src/data/scripts/dock_solv.prm

>  <Rbt.Receptor>
prm/blind_docking_40.prm

>  <SCORE>
13.0694

>  <SCORE.INTER>
-6.43247

>  <SCORE.INTER.CONST>
1

>  <SCORE.INTER.POLAR>
0

>  <SCORE.INTER.ROT>
6

>  <SCORE.INTER.SOLV>
18.0408

>  <SCORE.INTER.VDW>
-17.9019

>  <SCORE.INTER.norm>
-0.207499

>  <SCORE.INTRA>
13.9057

>  <SCORE.INTRA.DIHEDRAL>
7.32948

>  <SCORE.INTRA.DIHEDRAL.0>
10.8409

>  <SCORE.INTRA.POLAR>
0

>  <SCORE.INTRA.POLAR.0>
0

>  <SCORE.INTRA.REPUL>
0

>  <SCORE.INTRA.REPUL.0>
0

>  <SCORE.INTRA.SOLV>
4.63645

>  <SCORE.INTRA.SOLV.lig_0>
-80.8302

>  <SCORE.INTRA.VDW>
7.9227

>  <SCORE.INTRA.VDW.0>
-4.23953

>  <SCORE.INTRA.norm>
0.44857

>  <SCORE.RESTR>
5.59621

>  <SCORE.RESTR.CAVITY>
5.59621

>  <SCORE.RESTR.norm>
0.180523

>  <SCORE.SYSTEM>
0

>  <SCORE.SYSTEM.CONST>
0

>  <SCORE.SYSTEM.DIHEDRAL>
0

>  <SCORE.SYSTEM.SOLV>
0

>  <SCORE.SYSTEM.norm>
0

>  <SCORE.heavy>
31

>  <SCORE.norm>
0.421594

>  <RMSD>
5.990

$$$$
2fcz_lig
 OpenBabel11021811433D
libRbt.so/2013.1/901 2013/11/27
 31 33  0  0  0  0  0  0  0  0999 V2000
    6.5501   21.7020   31.8628 C   0  0  0  0  0  0  0  0  0  0  0  0
   13.9853   20.9325   35.0783 N   0  0  0  0  0  0  0  0  0  0  0  0
    6.1955   21.3463   33.2019 O   0  0  0  0  0  0  0  0  0  0  0  0
    8.0470   21.4574   31.6443 C   0  0  1  0  0  0  0  0  0  0  0  0
   11.7814   16.6193   35.7760 N   0  0  0  0  0  0  0  0  0  0  0  0
    8.8169   21.7774   32.8209 O   0  0  0  0  0  0  0  0  0  0  0  0
    9.2964   20.5619   33.4296 C   0  0  1  0  0  0  0  0  0  0  0  0
    8.8602   13.1041   34.9125 N   0  0  0  0  0  0  0  0  0  0  0  0
    9.1191   20.5500   34.8563 O   0  0  0  0  0  0  0  0  0  0  0  0
   10.2810   20.1320   35.5927 C   0  0  2  0  0  0  0  0  0  0  0  0
    7.1037   18.7705   37.7157 N   0  0  0  0  0  0  0  0  0  0  0  0
   11.4568   22.2042   35.1717 O   0  0  0  0  0  0  0  0  0  0  0  0
   11.5261   20.7886   34.9837 C   0  0  1  0  0  0  0  0  0  0  0  0
    9.3683   17.9671   36.3303 O   0  0  0  0  0  0  0  0  0  0  0  0
   12.8044   20.2637   35.6417 C   0  0  1  0  0  0  0  0  0  0  0  0
    8.1086   16.7197   34.7715 O   0  0  0  0  0  0  0  0  0  0  0  0
   12.9223   18.7527   35.4303 C   0  0  0  0  0  0  0  0  0  0  0  0
    7.3785   13.9577   37.0965 O   0  0  0  0  0  0  0  0  0  0  0  0
   11.7160   18.0602   36.0676 C   0  0  1  0  0  0  0  0  0  0  0  0
    6.0723   16.1802   38.3645 O   0  0  0  0  0  0  0  0  0  0  0  0
   10.3843   18.6088   35.5437 C   0  0  2  0  0  0  0  0  0  0  0  0
    9.0648   18.1697   32.8478 O   0  0  0  0  0  0  0  0  0  0  0  0
    8.1032   17.8502   35.6632 C   0  0  1  0  0  0  0  0  0  0  0  0
    9.5434   19.8025   30.6445 O   0  0  0  0  0  0  0  0  0  0  0  0
    8.3080   15.4511   35.4186 C   0  0  2  0  0  0  0  0  0  0  0  0
    8.3236   14.3529   34.3524 C   0  0  0  0  0  0  0  0  0  0  0  0
    7.1757   15.2029   36.4215 C   0  0  2  0  0  0  0  0  0  0  0  0
    7.1579   16.3398   37.4454 C   0  0  1  0  0  0  0  0  0  0  0  0
    7.0155   17.6848   36.7294 C   0  0  1  0  0  0  0  0  0  0  0  0
    8.4480   19.4597   32.7933 C   0  0  2  0  0  0  0  0  0  0  0  0
    8.3197   19.9799   31.3628 C   0  0  1  0  0  0  0  0  0  0  0  0
  3  1  1  0  0  0  0
  4  1  1  1  0  0  0
  4  6  1  0  0  0  0
  4 31  1  0  0  0  0
  6  7  1  0  0  0  0
  7  9  1  1  0  0  0
  7 30  1  0  0  0  0
 10  9  1  6  0  0  0
 10 13  1  0  0  0  0
 10 21  1  0  0  0  0
 13 12  1  1  0  0  0
 13 15  1  0  0  0  0
 15  2  1  6  0  0  0
 15 17  1  0  0  0  0
 16 25  1  0  0  0  0
 17 19  1  0  0  0  0
 19  5  1  6  0  0  0
 19 21  1  0  0  0  0
 21 14  1  1  0  0  0
 23 14  1  1  0  0  0
 23 16  1  0  0  0  0
 23 29  1  0  0  0  0
 25 26  1  6  0  0  0
 25 27  1  0  0  0  0
 26  8  1  0  0  0  0
 27 18  1  1  0  0  0
 27 28  1  0  0  0  0
 28 20  1  1  0  0  0
 28 29  1  0  0  0  0
 29 11  1  1  0  0  0
 30 22  1  6  0  0  0
 30 31  1  0  0  0  0
 31 24  1  6  0  0  0
M  END
>  <CHROM.1>
-36.80398662,-132.83444900,42.72676617,82.00687068,81.11232362,165.54051822
9.10683618,18.54996922,34.82511277,1.23769775,-0.35327942,-0.63057324

>  <Name>
2fcz_lig

>  <RI>
2.26996e+07

>  <Rbt.Current_Directory>
/home/itssahil/PROJECTS/Mol_Feturizer/New_Systems/rnas/2fcz

>  <Rbt.Executable>
rbdock ($Id: //depot/dev/client3/rdock/2013.1/src/exe/rbdock.cxx#4 $)

>  <Rbt.Library>
libRbt.so (2013.1, Build901 2013/11/27)

>  <Rbt.Parameter_File>
/export/apps/rDock/src/rDock_2013.1_src/data/scripts/dock_solv.prm

>  <Rbt.Receptor>
prm/pocket_docking_4.prm

>  <SCORE>
-11.4086

>  <SCORE.INTER>
-14.9373

>  <SCORE.INTER.CONST>
1

>  <SCORE.INTER.POLAR>
-1.74115

>  <SCORE.INTER.ROT>
6

>  <SCORE.INTER.SOLV>
13.3243

>  <SCORE.INTER.VDW>
-16.1958

>  <SCORE.INTER.norm>
-0.48185

>  <SCORE.INTRA>
3.50583

>  <SCORE.INTRA.DIHEDRAL>
3.5232

>  <SCORE.INTRA.DIHEDRAL.0>
10.8409

>  <SCORE.INTRA.POLAR>
0

>  <SCORE.INTRA.POLAR.0>
0

>  <SCORE.INTRA.REPUL>
0

>  <SCORE.INTRA.REPUL.0>
0

>  <SCORE.INTRA.SOLV>
-0.199062

>  <SCORE.INTRA.SOLV.lig_0>
-80.8302

>  <SCORE.INTRA.VDW>
1.84376

>  <SCORE.INTRA.VDW.0>
-4.23953

>  <SCORE.INTRA.norm>
0.113091

>  <SCORE.RESTR>
0.0229638

>  <SCORE.RESTR.CAVITY>
0.0229638

>  <SCORE.RESTR.norm>
0.000740768

>  <SCORE.SYSTEM>
0

>  <SCORE.SYSTEM.CONST>
0

>  <SCORE.SYSTEM.DIHEDRAL>
0

>  <SCORE.SYSTEM.SOLV>
0

>  <SCORE.SYSTEM.norm>
0

>  <SCORE.heavy>
31

>  <SCORE.norm>
-0.368018

>  <RMSD>
5.991

$$$$
2fcz_lig
 OpenBabel11021811433D
libRbt.so/2013.1/901 2013/11/27
 31 33  0  0  0  0  0  0  0  0999 V2000
   13.8834   12.9068   34.5598 C   0  0  0  0  0  0  0  0  0  0  0  0
   15.6112   13.3108   31.9893 N   0  0  0  0  0  0  0  0  0  0  0  0
   14.7826   14.0031   34.7463 O   0  0  0  0  0  0  0  0  0  0  0  0
   12.4952   13.2837   35.0886 C   0  0  1  0  0  0  0  0  0  0  0  0
   13.8901   17.7672   33.0499 N   0  0  0  0  0  0  0  0  0  0  0  0
   11.8772   14.3070   34.2820 O   0  0  0  0  0  0  0  0  0  0  0  0
   10.7961   13.7340   33.5201 C   0  0  1  0  0  0  0  0  0  0  0  0
   10.1490   22.0736   31.8121 N   0  0  0  0  0  0  0  0  0  0  0  0
   10.8015   14.1579   32.1462 O   0  0  0  0  0  0  0  0  0  0  0  0
   12.0578   14.6949   31.6985 C   0  0  2  0  0  0  0  0  0  0  0  0
    9.1182   15.6604   31.2385 N   0  0  0  0  0  0  0  0  0  0  0  0
   12.9931   12.5047   31.2718 O   0  0  0  0  0  0  0  0  0  0  0  0
   13.1776   13.7013   32.0322 C   0  0  1  0  0  0  0  0  0  0  0  0
   11.4200   17.0658   31.8867 O   0  0  0  0  0  0  0  0  0  0  0  0
   14.5523   14.2890   31.7048 C   0  0  1  0  0  0  0  0  0  0  0  0
   10.2306   18.6304   33.1945 O   0  0  0  0  0  0  0  0  0  0  0  0
   14.7918   15.5566   32.5280 C   0  0  0  0  0  0  0  0  0  0  0  0
    8.7950   20.4210   30.3134 O   0  0  0  0  0  0  0  0  0  0  0  0
   13.7163   16.5894   32.1851 C   0  0  1  0  0  0  0  0  0  0  0  0
    7.6496   17.8014   30.0326 O   0  0  0  0  0  0  0  0  0  0  0  0
   12.2982   16.0413   32.3784 C   0  0  2  0  0  0  0  0  0  0  0  0
    9.8546   11.4526   33.3659 O   0  0  0  0  0  0  0  0  0  0  0  0
   10.2586   17.2775   32.7026 C   0  0  1  0  0  0  0  0  0  0  0  0
   10.4785   12.2181   35.9687 O   0  0  0  0  0  0  0  0  0  0  0  0
   10.1549   19.6360   32.1693 C   0  0  2  0  0  0  0  0  0  0  0  0
   10.1662   21.0154   32.8326 C   0  0  0  0  0  0  0  0  0  0  0  0
    8.8681   19.4462   31.3583 C   0  0  2  0  0  0  0  0  0  0  0  0
    8.8661   18.0435   30.7467 C   0  0  1  0  0  0  0  0  0  0  0  0
    9.0184   16.9933   31.8493 C   0  0  1  0  0  0  0  0  0  0  0  0
   11.0364   12.2254   33.5973 C   0  0  2  0  0  0  0  0  0  0  0  0
   11.5486   12.0849   35.0295 C   0  0  1  0  0  0  0  0  0  0  0  0
  3  1  1  0  0  0  0
  4  1  1  6  0  0  0
  4  6  1  0  0  0  0
  4 31  1  0  0  0  0
  6  7  1  0  0  0  0
  7  9  1  6  0  0  0
  7 30  1  0  0  0  0
 10  9  1  1  0  0  0
 10 13  1  0  0  0  0
 10 21  1  0  0  0  0
 13 12  1  6  0  0  0
 13 15  1  0  0  0  0
 15  2  1  1  0  0  0
 15 17  1  0  0  0  0
 16 25  1  0  0  0  0
 17 19  1  0  0  0  0
 19  5  1  1  0  0  0
 19 21  1  0  0  0  0
 21 14  1  6  0  0  0
 23 14  1  6  0  0  0
 23 16  1  0  0  0  0
 23 29  1  0  0  0  0
 25 26  1  1  0  0  0
 25 27  1  0  0  0  0
 26  8  1  0  0  0  0
 27 18  1  6  0  0  0
 27 28  1  0  0  0  0
 28 20  1  1  0  0  0
 28 29  1  0  0  0  0
 29 11  1  6  0  0  0
 30 22  1  1  0  0  0
 30 31  1  0  0  0  0
 31 24  1  1  0  0  0
M  END
>  <CHROM.1>
68.14507770,18.57614423,51.92978153,96.90194325,119.64806431,177.54326348
11.44036115,15.75372911,32.62791678,-1.12396947,-0.08322537,-0.27971187

>  <Name>
2fcz_lig

>  <RI>
0

>  <Rbt.Current_Directory>
/home/itssahil/PROJECTS/Mol_Feturizer/New_Systems/rnas/2fcz

>  <Rbt.Executable>
rbdock ($Id: //depot/dev/client3/rdock/2013.1/src/exe/rbdock.cxx#4 $)

>  <Rbt.Library>
libRbt.so (2013.1, Build901 2013/11/27)

>  <Rbt.Parameter_File>
/export/apps/rDock/src/rDock_2013.1_src/data/scripts/dock_solv.prm

>  <Rbt.Receptor>
prm/blind_docking_40.prm

>  <SCORE>
12.9459

>  <SCORE.INTER>
-6.5205

>  <SCORE.INTER.CONST>
1

>  <SCORE.INTER.POLAR>
0

>  <SCORE.INTER.ROT>
6

>  <SCORE.INTER.SOLV>
17.9835

>  <SCORE.INTER.VDW>
-17.9415

>  <SCORE.INTER.norm>
-0.210339

>  <SCORE.INTRA>
13.8457

>  <SCORE.INTRA.DIHEDRAL>
7.40182

>  <SCORE.INTRA.DIHEDRAL.0>
10.8409

>  <SCORE.INTRA.POLAR>
0

>  <SCORE.INTRA.POLAR.0>
0

>  <SCORE.INTRA.REPUL>
0

>  <SCORE.INTRA.REPUL.0>
0

>  <SCORE.INTRA.SOLV>
4.61503

>  <SCORE.INTRA.SOLV.lig_0>
-80.8302

>  <SCORE.INTRA.VDW>
7.83725

>  <SCORE.INTRA.VDW.0>
-4.23953

>  <SCORE.INTRA.norm>
0.446635

>  <SCORE.RESTR>
5.62074

>  <SCORE.RESTR.CAVITY>
5.62074

>  <SCORE.RESTR.norm>
0.181314

>  <SCORE.SYSTEM>
0

>  <SCORE.SYSTEM.CONST>
0

>  <SCORE.SYSTEM.DIHEDRAL>
0

>  <SCORE.SYSTEM.SOLV>
0

>  <SCORE.SYSTEM.norm>
0

>  <SCORE.heavy>
31

>  <SCORE.norm>
0.41761

>  <RMSD>
5.996

$$$$
2fcz_lig
 OpenBabel11021811433D
libRbt.so/2013.1/901 2013/11/27
 31 33  0  0  0  0  0  0  0  0999 V2000
    8.2122   18.6901   30.8083 C   0  0  0  0  0  0  0  0  0  0  0  0
   10.2547   22.9426   33.2364 N   0  0  0  0  0  0  0  0  0  0  0  0
    8.0077   18.4028   29.4223 O   0  0  0  0  0  0  0  0  0  0  0  0
    9.4977   18.0097   31.2910 C   0  0  1  0  0  0  0  0  0  0  0  0
   13.7496   20.1787   35.2595 N   0  0  0  0  0  0  0  0  0  0  0  0
   10.0050   18.6211   32.4945 O   0  0  0  0  0  0  0  0  0  0  0  0
    9.8014   17.7320   33.6107 C   0  0  1  0  0  0  0  0  0  0  0  0
    7.4010   18.7538   37.4044 N   0  0  0  0  0  0  0  0  0  0  0  0
    9.2774   18.4065   34.7673 O   0  0  0  0  0  0  0  0  0  0  0  0
    9.9697   19.6196   35.1080 C   0  0  2  0  0  0  0  0  0  0  0  0
   13.7143   18.5074   38.3846 N   0  0  0  0  0  0  0  0  0  0  0  0
    8.3269   21.0205   34.0161 O   0  0  0  0  0  0  0  0  0  0  0  0
    9.7127   20.6688   34.0193 C   0  0  1  0  0  0  0  0  0  0  0  0
   11.7608   18.5495   36.4160 O   0  0  0  0  0  0  0  0  0  0  0  0
   10.5433   21.9311   34.2624 C   0  0  1  0  0  0  0  0  0  0  0  0
   10.0718   19.1598   37.9481 O   0  0  0  0  0  0  0  0  0  0  0  0
   12.0351   21.5911   34.2408 C   0  0  0  0  0  0  0  0  0  0  0  0
    9.8156   15.8197   39.4797 O   0  0  0  0  0  0  0  0  0  0  0  0
   12.3361   20.5784   35.3474 C   0  0  1  0  0  0  0  0  0  0  0  0
   12.5108   16.5779   40.1234 O   0  0  0  0  0  0  0  0  0  0  0  0
   11.4621   19.3238   35.2438 C   0  0  2  0  0  0  0  0  0  0  0  0
    8.8124   15.4754   33.8210 O   0  0  0  0  0  0  0  0  0  0  0  0
   11.4785   19.2276   37.6488 C   0  0  1  0  0  0  0  0  0  0  0  0
   10.4317   15.7683   31.5757 O   0  0  0  0  0  0  0  0  0  0  0  0
    9.5648   17.8265   38.1308 C   0  0  2  0  0  0  0  0  0  0  0  0
    8.0615   17.9063   38.4078 C   0  0  0  0  0  0  0  0  0  0  0  0
   10.2877   17.1593   39.3063 C   0  0  2  0  0  0  0  0  0  0  0  0
   11.7906   17.1360   39.0196 C   0  0  1  0  0  0  0  0  0  0  0  0
   12.2941   18.5575   38.7590 C   0  0  1  0  0  0  0  0  0  0  0  0
    8.7827   16.7115   33.1008 C   0  0  2  0  0  0  0  0  0  0  0  0
    9.2350   16.5475   31.6510 C   0  0  1  0  0  0  0  0  0  0  0  0
  3  1  1  0  0  0  0
  4  1  1  1  0  0  0
  4  6  1  0  0  0  0
  4 31  1  0  0  0  0
  6  7  1  0  0  0  0
  7  9  1  1  0  0  0
  7 30  1  0  0  0  0
 10  9  1  6  0  0  0
 10 13  1  0  0  0  0
 10 21  1  0  0  0  0
 13 12  1  1  0  0  0
 13 15  1  0  0  0  0
 15  2  1  6  0  0  0
 15 17  1  0  0  0  0
 16 25  1  0  0  0  0
 17 19  1  0  0  0  0
 19  5  1  6  0  0  0
 19 21  1  0  0  0  0
 21 14  1  1  0  0  0
 23 14  1  6  0  0  0
 23 16  1  0  0  0  0
 23 29  1  0  0  0  0
 25 26  1  1  0  0  0
 25 27  1  0  0  0  0
 26  8  1  0  0  0  0
 27 18  1  6  0  0  0
 27 28  1  0  0  0  0
 28 20  1  1  0  0  0
 28 29  1  0  0  0  0
 29 11  1  6  0  0  0
 30 22  1  1  0  0  0
 30 31  1  0  0  0  0
 31 24  1  1  0  0  0
M  END
>  <CHROM.1>
159.56446615,-47.98191208,67.90150554,-64.68647514,79.95148376,49.69636687
10.27310551,18.58706667,35.28159856,2.14401804,-1.02214515,-0.95463718

>  <Name>
2fcz_lig

>  <RI>
0

>  <Rbt.Current_Directory>
/home/itssahil/PROJECTS/Mol_Feturizer/New_Systems/rnas/2fcz

>  <Rbt.Executable>
rbdock ($Id: //depot/dev/client3/rdock/2013.1/src/exe/rbdock.cxx#4 $)

>  <Rbt.Library>
libRbt.so (2013.1, Build901 2013/11/27)

>  <Rbt.Parameter_File>
/export/apps/rDock/src/rDock_2013.1_src/data/scripts/dock_solv.prm

>  <Rbt.Receptor>
prm/pocket_docking_6.prm

>  <SCORE>
-21.629

>  <SCORE.INTER>
-22.5606

>  <SCORE.INTER.CONST>
1

>  <SCORE.INTER.POLAR>
-3.28825

>  <SCORE.INTER.ROT>
6

>  <SCORE.INTER.SOLV>
18.7146

>  <SCORE.INTER.VDW>
-17.9178

>  <SCORE.INTER.norm>
-0.727761

>  <SCORE.INTRA>
0.931611

>  <SCORE.INTRA.DIHEDRAL>
-6.08235

>  <SCORE.INTRA.DIHEDRAL.0>
10.8409

>  <SCORE.INTRA.POLAR>
0

>  <SCORE.INTRA.POLAR.0>
0

>  <SCORE.INTRA.REPUL>
0

>  <SCORE.INTRA.REPUL.0>
0

>  <SCORE.INTRA.SOLV>
-0.311971

>  <SCORE.INTRA.SOLV.lig_0>
-80.8302

>  <SCORE.INTRA.VDW>
4.12877

>  <SCORE.INTRA.VDW.0>
-4.23953

>  <SCORE.INTRA.norm>
0.030052

>  <SCORE.RESTR>
0

>  <SCORE.RESTR.CAVITY>
0

>  <SCORE.RESTR.norm>
0

>  <SCORE.SYSTEM>
0

>  <SCORE.SYSTEM.CONST>
0

>  <SCORE.SYSTEM.DIHEDRAL>
0

>  <SCORE.SYSTEM.SOLV>
0

>  <SCORE.SYSTEM.norm>
0

>  <SCORE.heavy>
31

>  <SCORE.norm>
-0.697709

>  <RMSD>
6.004

$$$$
2fcz_lig
 OpenBabel11021811433D
libRbt.so/2013.1/901 2013/11/27
 31 33  0  0  0  0  0  0  0  0999 V2000
   13.6100   11.8301   34.4309 C   0  0  0  0  0  0  0  0  0  0  0  0
   15.8250   13.3829   31.8846 N   0  0  0  0  0  0  0  0  0  0  0  0
   14.8327   12.5395   34.2144 O   0  0  0  0  0  0  0  0  0  0  0  0
   12.5685   12.7737   35.0420 C   0  0  1  0  0  0  0  0  0  0  0  0
   13.9986   17.7820   33.0070 N   0  0  0  0  0  0  0  0  0  0  0  0
   12.3109   13.9076   34.1891 O   0  0  0  0  0  0  0  0  0  0  0  0
   11.0022   13.7803   33.5985 C   0  0  1  0  0  0  0  0  0  0  0  0
   10.0527   21.9591   31.9985 N   0  0  0  0  0  0  0  0  0  0  0  0
   10.9983   14.0783   32.1919 O   0  0  0  0  0  0  0  0  0  0  0  0
   12.2226   14.6549   31.7067 C   0  0  2  0  0  0  0  0  0  0  0  0
    9.2673   15.5302   31.2414 N   0  0  0  0  0  0  0  0  0  0  0  0
   13.2125   12.4957   31.2468 O   0  0  0  0  0  0  0  0  0  0  0  0
   13.3828   13.6967   32.0035 C   0  0  1  0  0  0  0  0  0  0  0  0
   11.5168   17.0045   31.9193 O   0  0  0  0  0  0  0  0  0  0  0  0
   14.7276   14.3277   31.6350 C   0  0  1  0  0  0  0  0  0  0  0  0
   10.2757   18.4827   33.2785 O   0  0  0  0  0  0  0  0  0  0  0  0
   14.9525   15.6013   32.4529 C   0  0  0  0  0  0  0  0  0  0  0  0
    8.7543   20.2995   30.4586 O   0  0  0  0  0  0  0  0  0  0  0  0
   13.8351   16.6002   32.1455 C   0  0  1  0  0  0  0  0  0  0  0  0
    7.7095   17.6467   30.1064 O   0  0  0  0  0  0  0  0  0  0  0  0
   12.4416   16.0076   32.3816 C   0  0  2  0  0  0  0  0  0  0  0  0
    9.2179   12.0783   33.7836 O   0  0  0  0  0  0  0  0  0  0  0  0
   10.3531   17.1469   32.7468 C   0  0  1  0  0  0  0  0  0  0  0  0
   10.4266   12.6827   36.2174 O   0  0  0  0  0  0  0  0  0  0  0  0
   10.1548   19.5141   32.2837 C   0  0  2  0  0  0  0  0  0  0  0  0
   10.1168   20.8730   32.9873 C   0  0  0  0  0  0  0  0  0  0  0  0
    8.8715   19.2982   31.4739 C   0  0  2  0  0  0  0  0  0  0  0  0
    8.9201   17.9150   30.8213 C   0  0  1  0  0  0  0  0  0  0  0  0
    9.1196   16.8397   31.8917 C   0  0  1  0  0  0  0  0  0  0  0  0
   10.6289   12.3134   33.8179 C   0  0  2  0  0  0  0  0  0  0  0  0
   11.2234   12.0654   35.2030 C   0  0  1  0  0  0  0  0  0  0  0  0
  3  1  1  0  0  0  0
  4  1  1  6  0  0  0
  4  6  1  0  0  0  0
  4 31  1  0  0  0  0
  6  7  1  0  0  0  0
  7  9  1  6  0  0  0
  7 30  1  0  0  0  0
 10  9  1  1  0  0  0
 10 13  1  0  0  0  0
 10 21  1  0  0  0  0
 13 12  1  6  0  0  0
 13 15  1  0  0  0  0
 15  2  1  1  0  0  0
 15 17  1  0  0  0  0
 16 25  1  0  0  0  0
 17 19  1  0  0  0  0
 19  5  1  1  0  0  0
 19 21  1  0  0  0  0
 21 14  1  6  0  0  0
 23 14  1  6  0  0  0
 23 16  1  0  0  0  0
 23 29  1  0  0  0  0
 25 26  1  1  0  0  0
 25 27  1  0  0  0  0
 26  8  1  0  0  0  0
 27 18  1  6  0  0  0
 27 28  1  0  0  0  0
 28 20  1  1  0  0  0
 28 29  1  0  0  0  0
 29 11  1  6  0  0  0
 30 22  1  1  0  0  0
 30 31  1  0  0  0  0
 31 24  1  1  0  0  0
M  END
>  <CHROM.1>
58.96877311,-10.01505484,58.04259520,94.90424596,119.23010717,177.52947775
11.47860331,15.62967487,32.66254402,1.10681379,-0.09098174,2.79570505

>  <Name>
2fcz_lig

>  <RI>
0

>  <Rbt.Current_Directory>
/home/itssahil/PROJECTS/Mol_Feturizer/New_Systems/rnas/2fcz

>  <Rbt.Executable>
rbdock ($Id: //depot/dev/client3/rdock/2013.1/src/exe/rbdock.cxx#4 $)

>  <Rbt.Library>
libRbt.so (2013.1, Build901 2013/11/27)

>  <Rbt.Parameter_File>
/export/apps/rDock/src/rDock_2013.1_src/data/scripts/dock_solv.prm

>  <Rbt.Receptor>
prm/blind_docking_40.prm

>  <SCORE>
12.4578

>  <SCORE.INTER>
-5.99566

>  <SCORE.INTER.CONST>
1

>  <SCORE.INTER.POLAR>
0

>  <SCORE.INTER.ROT>
6

>  <SCORE.INTER.SOLV>
18.1521

>  <SCORE.INTER.VDW>
-17.6478

>  <SCORE.INTER.norm>
-0.193408

>  <SCORE.INTRA>
11.908

>  <SCORE.INTRA.DIHEDRAL>
7.58391

>  <SCORE.INTRA.DIHEDRAL.0>
10.8409

>  <SCORE.INTRA.POLAR>
0

>  <SCORE.INTRA.POLAR.0>
0

>  <SCORE.INTRA.REPUL>
0

>  <SCORE.INTRA.REPUL.0>
0

>  <SCORE.INTRA.SOLV>
3.9183

>  <SCORE.INTRA.SOLV.lig_0>
-80.8302

>  <SCORE.INTRA.VDW>
6.1569

>  <SCORE.INTRA.VDW.0>
-4.23953

>  <SCORE.INTRA.norm>
0.384129

>  <SCORE.RESTR>
6.54542

>  <SCORE.RESTR.CAVITY>
6.54542

>  <SCORE.RESTR.norm>
0.211143

>  <SCORE.SYSTEM>
0

>  <SCORE.SYSTEM.CONST>
0

>  <SCORE.SYSTEM.DIHEDRAL>
0

>  <SCORE.SYSTEM.SOLV>
0

>  <SCORE.SYSTEM.norm>
0

>  <SCORE.heavy>
31

>  <SCORE.norm>
0.401863

>  <RMSD>
6.022

$$$$
2fcz_lig
 OpenBabel11021811433D
libRbt.so/2013.1/901 2013/11/27
 31 33  0  0  0  0  0  0  0  0999 V2000
    6.2990   21.5826   32.2387 C   0  0  0  0  0  0  0  0  0  0  0  0
   13.5431   22.8190   33.9543 N   0  0  0  0  0  0  0  0  0  0  0  0
    6.5590   21.1343   33.5717 O   0  0  0  0  0  0  0  0  0  0  0  0
    7.6006   21.5749   31.4298 C   0  0  1  0  0  0  0  0  0  0  0  0
   12.0492   20.1324   37.7619 N   0  0  0  0  0  0  0  0  0  0  0  0
    8.7606   21.5612   32.2864 O   0  0  0  0  0  0  0  0  0  0  0  0
    9.3918   20.2668   32.2240 C   0  0  1  0  0  0  0  0  0  0  0  0
   11.9329   16.9661   33.9484 N   0  0  0  0  0  0  0  0  0  0  0  0
    9.7540   19.7644   33.5216 O   0  0  0  0  0  0  0  0  0  0  0  0
   10.3616   20.7405   34.3846 C   0  0  2  0  0  0  0  0  0  0  0  0
    7.3272   18.9710   37.9455 N   0  0  0  0  0  0  0  0  0  0  0  0
   11.2224   22.0372   32.5322 O   0  0  0  0  0  0  0  0  0  0  0  0
   11.6106   21.3097   33.7002 C   0  0  1  0  0  0  0  0  0  0  0  0
    9.5549   19.7701   36.4992 O   0  0  0  0  0  0  0  0  0  0  0  0
   12.3738   22.2486   34.6374 C   0  0  1  0  0  0  0  0  0  0  0  0
    9.5690   17.7903   35.2135 O   0  0  0  0  0  0  0  0  0  0  0  0
   12.8299   21.4893   35.8853 C   0  0  0  0  0  0  0  0  0  0  0  0
   10.8936   15.6692   37.9179 O   0  0  0  0  0  0  0  0  0  0  0  0
   11.6027   20.9454   36.6195 C   0  0  1  0  0  0  0  0  0  0  0  0
    8.3695   16.5198   38.9942 O   0  0  0  0  0  0  0  0  0  0  0  0
   10.7177   20.0805   35.7153 C   0  0  2  0  0  0  0  0  0  0  0  0
    8.8849   18.1929   30.9763 O   0  0  0  0  0  0  0  0  0  0  0  0
    8.7500   18.7149   35.9533 C   0  0  1  0  0  0  0  0  0  0  0  0
    8.5677   20.5034   29.4565 O   0  0  0  0  0  0  0  0  0  0  0  0
   10.5745   17.1253   35.9976 C   0  0  2  0  0  0  0  0  0  0  0  0
   11.3838   16.2053   35.0803 C   0  0  0  0  0  0  0  0  0  0  0  0
    9.9030   16.3112   37.1093 C   0  0  2  0  0  0  0  0  0  0  0  0
    9.0664   17.2510   37.9802 C   0  0  1  0  0  0  0  0  0  0  0  0
    8.0510   17.9995   37.1137 C   0  0  1  0  0  0  0  0  0  0  0  0
    8.3334   19.3595   31.5945 C   0  0  2  0  0  0  0  0  0  0  0  0
    7.7024   20.3095   30.5783 C   0  0  1  0  0  0  0  0  0  0  0  0
  3  1  1  0  0  0  0
  4  1  1  1  0  0  0
  4  6  1  0  0  0  0
  4 31  1  0  0  0  0
  6  7  1  0  0  0  0
  7  9  1  1  0  0  0
  7 30  1  0  0  0  0
 10  9  1  6  0  0  0
 10 13  1  0  0  0  0
 10 21  1  0  0  0  0
 13 12  1  6  0  0  0
 13 15  1  0  0  0  0
 15  2  1  6  0  0  0
 15 17  1  0  0  0  0
 16 25  1  0  0  0  0
 17 19  1  0  0  0  0
 19  5  1  1  0  0  0
 19 21  1  0  0  0  0
 21 14  1  1  0  0  0
 23 14  1  1  0  0  0
 23 16  1  0  0  0  0
 23 29  1  0  0  0  0
 25 26  1  6  0  0  0
 25 27  1  0  0  0  0
 26  8  1  0  0  0  0
 27 18  1  1  0  0  0
 27 28  1  0  0  0  0
 28 20  1  1  0  0  0
 28 29  1  0  0  0  0
 29 11  1  1  0  0  0
 30 22  1  6  0  0  0
 30 31  1  0  0  0  0
 31 24  1  6  0  0  0
M  END
>  <CHROM.1>
-19.07692626,-43.64287930,-57.53831465,69.31958297,29.80323252,54.97825736
9.76785153,19.51485435,34.58282728,1.76145866,-0.55194390,-0.91667788

>  <Name>
2fcz_lig

>  <RI>
3.41297e+07

>  <Rbt.Current_Directory>
/home/itssahil/PROJECTS/Mol_Feturizer/New_Systems/rnas/2fcz

>  <Rbt.Executable>
rbdock ($Id: //depot/dev/client3/rdock/2013.1/src/exe/rbdock.cxx#4 $)

>  <Rbt.Library>
libRbt.so (2013.1, Build901 2013/11/27)

>  <Rbt.Parameter_File>
/export/apps/rDock/src/rDock_2013.1_src/data/scripts/dock_solv.prm

>  <Rbt.Receptor>
prm/pocket_docking_2.prm

>  <SCORE>
-10.5138

>  <SCORE.INTER>
-16.5461

>  <SCORE.INTER.CONST>
1

>  <SCORE.INTER.POLAR>
-2.50656

>  <SCORE.INTER.ROT>
6

>  <SCORE.INTER.SOLV>
15.3244

>  <SCORE.INTER.VDW>
-15.3836

>  <SCORE.INTER.norm>
-0.533744

>  <SCORE.INTRA>
3.78808

>  <SCORE.INTRA.DIHEDRAL>
-1.23951

>  <SCORE.INTRA.DIHEDRAL.0>
10.8409

>  <SCORE.INTRA.POLAR>
0

>  <SCORE.INTRA.POLAR.0>
0

>  <SCORE.INTRA.REPUL>
0.00115032

>  <SCORE.INTRA.REPUL.0>
0

>  <SCORE.INTRA.SOLV>
-0.750161

>  <SCORE.INTRA.SOLV.lig_0>
-80.8302

>  <SCORE.INTRA.VDW>
4.77716

>  <SCORE.INTRA.VDW.0>
-4.23953

>  <SCORE.INTRA.norm>
0.122196

>  <SCORE.RESTR>
2.24419

>  <SCORE.RESTR.CAVITY>
2.24419

>  <SCORE.RESTR.norm>
0.0723932

>  <SCORE.SYSTEM>
0

>  <SCORE.SYSTEM.CONST>
0

>  <SCORE.SYSTEM.DIHEDRAL>
0

>  <SCORE.SYSTEM.SOLV>
0

>  <SCORE.SYSTEM.norm>
0

>  <SCORE.heavy>
31

>  <SCORE.norm>
-0.339154

>  <RMSD>
6.024

$$$$
2fcz_lig
 OpenBabel11021811433D
libRbt.so/2013.1/901 2013/11/27
 31 33  0  0  0  0  0  0  0  0999 V2000
    7.1108   20.2212   31.7687 C   0  0  0  0  0  0  0  0  0  0  0  0
   14.2695   23.6729   35.2840 N   0  0  0  0  0  0  0  0  0  0  0  0
    6.3827   20.4547   30.5601 O   0  0  0  0  0  0  0  0  0  0  0  0
    7.4085   21.5578   32.4568 C   0  0  1  0  0  0  0  0  0  0  0  0
   13.4243   19.4506   37.6089 N   0  0  0  0  0  0  0  0  0  0  0  0
    8.1263   21.3724   33.6938 O   0  0  0  0  0  0  0  0  0  0  0  0
    9.4894   21.8120   33.5317 C   0  0  1  0  0  0  0  0  0  0  0  0
   12.7174   16.4215   34.1672 N   0  0  0  0  0  0  0  0  0  0  0  0
   10.4394   20.8856   34.0855 O   0  0  0  0  0  0  0  0  0  0  0  0
   11.1921   21.4039   35.1954 C   0  0  2  0  0  0  0  0  0  0  0  0
    8.1384   19.3059   37.6337 N   0  0  0  0  0  0  0  0  0  0  0  0
   11.7352   23.4584   34.0389 O   0  0  0  0  0  0  0  0  0  0  0  0
   12.3108   22.3097   34.6659 C   0  0  1  0  0  0  0  0  0  0  0  0
   10.7492   19.5238   36.7228 O   0  0  0  0  0  0  0  0  0  0  0  0
   13.2291   22.7723   35.7995 C   0  0  1  0  0  0  0  0  0  0  0  0
   10.4570   17.8021   35.1344 O   0  0  0  0  0  0  0  0  0  0  0  0
   13.8849   21.5639   36.4713 C   0  0  0  0  0  0  0  0  0  0  0  0
   10.5312   15.0755   37.6097 O   0  0  0  0  0  0  0  0  0  0  0  0
   12.7963   20.6596   37.0526 C   0  0  1  0  0  0  0  0  0  0  0  0
    8.1935   16.5477   38.3977 O   0  0  0  0  0  0  0  0  0  0  0  0
   11.7641   20.2389   36.0007 C   0  0  2  0  0  0  0  0  0  0  0  0
   10.7424   22.7833   31.6340 O   0  0  0  0  0  0  0  0  0  0  0  0
    9.8048   18.8460   35.8814 C   0  0  1  0  0  0  0  0  0  0  0  0
    8.1708   23.8143   31.9050 O   0  0  0  0  0  0  0  0  0  0  0  0
   11.0454   16.7688   35.9431 C   0  0  2  0  0  0  0  0  0  0  0  0
   11.7264   15.7528   35.0228 C   0  0  0  0  0  0  0  0  0  0  0  0
    9.9550   16.0853   36.7757 C   0  0  2  0  0  0  0  0  0  0  0  0
    9.2638   17.1339   37.6499 C   0  0  1  0  0  0  0  0  0  0  0  0
    8.7070   18.2585   36.7740 C   0  0  1  0  0  0  0  0  0  0  0  0
    9.6797   21.9050   32.0169 C   0  0  2  0  0  0  0  0  0  0  0  0
    8.3117   22.4281   31.5830 C   0  0  1  0  0  0  0  0  0  0  0  0
  3  1  1  0  0  0  0
  4  1  1  6  0  0  0
  4  6  1  0  0  0  0
  4 31  1  0  0  0  0
  6  7  1  0  0  0  0
  7  9  1  6  0  0  0
  7 30  1  0  0  0  0
 10  9  1  6  0  0  0
 10 13  1  0  0  0  0
 10 21  1  0  0  0  0
 13 12  1  1  0  0  0
 13 15  1  0  0  0  0
 15  2  1  6  0  0  0
 15 17  1  0  0  0  0
 16 25  1  0  0  0  0
 17 19  1  0  0  0  0
 19  5  1  6  0  0  0
 19 21  1  0  0  0  0
 21 14  1  1  0  0  0
 23 14  1  1  0  0  0
 23 16  1  0  0  0  0
 23 29  1  0  0  0  0
 25 26  1  6  0  0  0
 25 27  1  0  0  0  0
 26  8  1  0  0  0  0
 27 18  1  1  0  0  0
 27 28  1  0  0  0  0
 28 20  1  6  0  0  0
 28 29  1  0  0  0  0
 29 11  1  1  0  0  0
 30 22  1  1  0  0  0
 30 31  1  0  0  0  0
 31 24  1  1  0  0  0
M  END
>  <CHROM.1>
179.14429950,-115.33597204,-78.85209030,65.58799436,65.05365618,56.51714796
10.34270714,20.01188467,34.90726016,1.78433221,-0.53487207,-0.58835822

>  <Name>
2fcz_lig

>  <RI>
2.26996e+07

>  <Rbt.Current_Directory>
/home/itssahil/PROJECTS/Mol_Feturizer/New_Systems/rnas/2fcz

>  <Rbt.Executable>
rbdock ($Id: //depot/dev/client3/rdock/2013.1/src/exe/rbdock.cxx#4 $)

>  <Rbt.Library>
libRbt.so (2013.1, Build901 2013/11/27)

>  <Rbt.Parameter_File>
/export/apps/rDock/src/rDock_2013.1_src/data/scripts/dock_solv.prm

>  <Rbt.Receptor>
prm/pocket_docking_4.prm

>  <SCORE>
-16.5379

>  <SCORE.INTER>
-15.5

>  <SCORE.INTER.CONST>
1

>  <SCORE.INTER.POLAR>
-2.70785

>  <SCORE.INTER.ROT>
6

>  <SCORE.INTER.SOLV>
15.4275

>  <SCORE.INTER.VDW>
-14.0496

>  <SCORE.INTER.norm>
-0.499999

>  <SCORE.INTRA>
-1.03789

>  <SCORE.INTRA.DIHEDRAL>
-1.77395

>  <SCORE.INTRA.DIHEDRAL.0>
10.8409

>  <SCORE.INTRA.POLAR>
0

>  <SCORE.INTRA.POLAR.0>
0

>  <SCORE.INTRA.REPUL>
0

>  <SCORE.INTRA.REPUL.0>
0

>  <SCORE.INTRA.SOLV>
-3.34022

>  <SCORE.INTRA.SOLV.lig_0>
-80.8302

>  <SCORE.INTRA.VDW>
1.51919

>  <SCORE.INTRA.VDW.0>
-4.23953

>  <SCORE.INTRA.norm>
-0.0334805

>  <SCORE.RESTR>
0

>  <SCORE.RESTR.CAVITY>
0

>  <SCORE.RESTR.norm>
0

>  <SCORE.SYSTEM>
0

>  <SCORE.SYSTEM.CONST>
0

>  <SCORE.SYSTEM.DIHEDRAL>
0

>  <SCORE.SYSTEM.SOLV>
0

>  <SCORE.SYSTEM.norm>
0

>  <SCORE.heavy>
31

>  <SCORE.norm>
-0.533479

>  <RMSD>
6.028

$$$$
2fcz_lig
 OpenBabel11021811433D
libRbt.so/2013.1/901 2013/11/27
 31 33  0  0  0  0  0  0  0  0999 V2000
    7.9446   19.5207   30.2872 C   0  0  0  0  0  0  0  0  0  0  0  0
   13.5163   23.1942   34.2411 N   0  0  0  0  0  0  0  0  0  0  0  0
    8.1548   18.1237   30.0641 O   0  0  0  0  0  0  0  0  0  0  0  0
    7.2389   19.7268   31.6319 C   0  0  1  0  0  0  0  0  0  0  0  0
   12.5162   20.1558   37.9445 N   0  0  0  0  0  0  0  0  0  0  0  0
    7.9754   19.1286   32.7178 O   0  0  0  0  0  0  0  0  0  0  0  0
    8.5691   20.1636   33.5266 C   0  0  1  0  0  0  0  0  0  0  0  0
   10.7840   14.8458   35.5394 N   0  0  0  0  0  0  0  0  0  0  0  0
    9.9397   19.8868   33.8613 O   0  0  0  0  0  0  0  0  0  0  0  0
   10.5377   20.8491   34.7464 C   0  0  2  0  0  0  0  0  0  0  0  0
    7.4147   19.2900   37.8513 N   0  0  0  0  0  0  0  0  0  0  0  0
   11.1582   22.3275   32.9345 O   0  0  0  0  0  0  0  0  0  0  0  0
   11.6861   21.5580   34.0177 C   0  0  1  0  0  0  0  0  0  0  0  0
    9.9669   19.6823   36.8384 O   0  0  0  0  0  0  0  0  0  0  0  0
   12.4471   22.4905   34.9629 C   0  0  1  0  0  0  0  0  0  0  0  0
   10.0127   17.5514   35.8236 O   0  0  0  0  0  0  0  0  0  0  0  0
   13.0509   21.6894   36.1185 C   0  0  0  0  0  0  0  0  0  0  0  0
   10.5064   15.7127   38.9769 O   0  0  0  0  0  0  0  0  0  0  0  0
   11.9261   21.0042   36.8970 C   0  0  1  0  0  0  0  0  0  0  0  0
    7.9319   16.9234   39.3764 O   0  0  0  0  0  0  0  0  0  0  0  0
   11.0410   20.1335   35.9985 C   0  0  2  0  0  0  0  0  0  0  0  0
    8.5424   22.6333   33.4057 O   0  0  0  0  0  0  0  0  0  0  0  0
    9.1731   18.6377   36.2570 C   0  0  1  0  0  0  0  0  0  0  0  0
    6.0673   21.4734   32.8786 O   0  0  0  0  0  0  0  0  0  0  0  0
   10.7543   16.9139   36.8780 C   0  0  2  0  0  0  0  0  0  0  0  0
   11.6212   15.8085   36.2699 C   0  0  0  0  0  0  0  0  0  0  0  0
    9.7816   16.3229   37.9047 C   0  0  2  0  0  0  0  0  0  0  0  0
    8.8999   17.4438   38.4595 C   0  0  1  0  0  0  0  0  0  0  0  0
    8.1751   18.1532   37.3136 C   0  0  1  0  0  0  0  0  0  0  0  0
    8.4924   21.4171   32.6535 C   0  0  2  0  0  0  0  0  0  0  0  0
    7.1412   21.2143   31.9706 C   0  0  1  0  0  0  0  0  0  0  0  0
  3  1  1  0  0  0  0
  4  1  1  6  0  0  0
  4  6  1  0  0  0  0
  4 31  1  0  0  0  0
  6  7  1  0  0  0  0
  7  9  1  6  0  0  0
  7 30  1  0  0  0  0
 10  9  1  6  0  0  0
 10 13  1  0  0  0  0
 10 21  1  0  0  0  0
 13 12  1  6  0  0  0
 13 15  1  0  0  0  0
 15  2  1  6  0  0  0
 15 17  1  0  0  0  0
 16 25  1  0  0  0  0
 17 19  1  0  0  0  0
 19  5  1  1  0  0  0
 19 21  1  0  0  0  0
 21 14  1  1  0  0  0
 23 14  1  1  0  0  0
 23 16  1  0  0  0  0
 23 29  1  0  0  0  0
 25 26  1  6  0  0  0
 25 27  1  0  0  0  0
 26  8  1  0  0  0  0
 27 18  1  1  0  0  0
 27 28  1  0  0  0  0
 28 20  1  1  0  0  0
 28 29  1  0  0  0  0
 29 11  1  1  0  0  0
 30 22  1  1  0  0  0
 30 31  1  0  0  0  0
 31 24  1  1  0  0  0
M  END
>  <CHROM.1>
56.18541736,-175.78079530,-116.13389206,67.21087393,52.92845187,-57.33613578
9.74160796,19.46942862,35.08499906,1.81420580,-0.68915054,-0.80195589

>  <Name>
2fcz_lig

>  <RI>
2.29611e+07

>  <Rbt.Current_Directory>
/home/itssahil/PROJECTS/Mol_Feturizer/New_Systems/rnas/2fcz

>  <Rbt.Executable>
rbdock ($Id: //depot/dev/client3/rdock/2013.1/src/exe/rbdock.cxx#4 $)

>  <Rbt.Library>
libRbt.so (2013.1, Build901 2013/11/27)

>  <Rbt.Parameter_File>
/export/apps/rDock/src/rDock_2013.1_src/data/scripts/dock_solv.prm

>  <Rbt.Receptor>
prm/pocket_docking_3.prm

>  <SCORE>
-15.8438

>  <SCORE.INTER>
-15.174

>  <SCORE.INTER.CONST>
1

>  <SCORE.INTER.POLAR>
-1.81637

>  <SCORE.INTER.ROT>
6

>  <SCORE.INTER.SOLV>
19.5706

>  <SCORE.INTER.VDW>
-18.185

>  <SCORE.INTER.norm>
-0.489483

>  <SCORE.INTRA>
-0.670864

>  <SCORE.INTRA.DIHEDRAL>
-2.92244

>  <SCORE.INTRA.DIHEDRAL.0>
10.8409

>  <SCORE.INTRA.POLAR>
0

>  <SCORE.INTRA.POLAR.0>
0

>  <SCORE.INTRA.REPUL>
0.0111221

>  <SCORE.INTRA.REPUL.0>
0

>  <SCORE.INTRA.SOLV>
-1.78972

>  <SCORE.INTRA.SOLV.lig_0>
-80.8302

>  <SCORE.INTRA.VDW>
1.6296

>  <SCORE.INTRA.VDW.0>
-4.23953

>  <SCORE.INTRA.norm>
-0.0216408

>  <SCORE.RESTR>
0.00109886

>  <SCORE.RESTR.CAVITY>
0.00109886

>  <SCORE.RESTR.norm>
3.5447e-05

>  <SCORE.SYSTEM>
0

>  <SCORE.SYSTEM.CONST>
0

>  <SCORE.SYSTEM.DIHEDRAL>
0

>  <SCORE.SYSTEM.SOLV>
0

>  <SCORE.SYSTEM.norm>
0

>  <SCORE.heavy>
31

>  <SCORE.norm>
-0.511089

>  <RMSD>
6.035

$$$$
2fcz_lig
 OpenBabel11021811433D
libRbt.so/2013.1/901 2013/11/27
 31 33  0  0  0  0  0  0  0  0999 V2000
    6.7847   20.6766   31.5577 C   0  0  0  0  0  0  0  0  0  0  0  0
   13.8916   22.1912   36.2181 N   0  0  0  0  0  0  0  0  0  0  0  0
    7.7555   19.6277   31.5032 O   0  0  0  0  0  0  0  0  0  0  0  0
    7.3465   21.8571   32.3571 C   0  0  1  0  0  0  0  0  0  0  0  0
   12.0385   18.0018   37.9391 N   0  0  0  0  0  0  0  0  0  0  0  0
    7.7977   21.4492   33.6646 O   0  0  0  0  0  0  0  0  0  0  0  0
    9.2381   21.4801   33.7098 C   0  0  1  0  0  0  0  0  0  0  0  0
   10.6524   13.8695   35.3663 N   0  0  0  0  0  0  0  0  0  0  0  0
    9.7979   20.3088   34.3279 O   0  0  0  0  0  0  0  0  0  0  0  0
   10.4929   20.5657   35.5599 C   0  0  2  0  0  0  0  0  0  0  0  0
    6.8508   18.7653   37.4618 N   0  0  0  0  0  0  0  0  0  0  0  0
   11.5264   22.5818   34.7107 O   0  0  0  0  0  0  0  0  0  0  0  0
   11.8097   21.2899   35.2536 C   0  0  1  0  0  0  0  0  0  0  0  0
    9.5440   18.6655   36.8060 O   0  0  0  0  0  0  0  0  0  0  0  0
   12.6538   21.4588   36.5191 C   0  0  1  0  0  0  0  0  0  0  0  0
    9.1580   17.2371   34.9667 O   0  0  0  0  0  0  0  0  0  0  0  0
   12.9996   20.0890   37.1072 C   0  0  0  0  0  0  0  0  0  0  0  0
    8.5606   14.2373   37.0190 O   0  0  0  0  0  0  0  0  0  0  0  0
   11.7062   19.3556   37.4679 C   0  0  1  0  0  0  0  0  0  0  0  0
    6.4060   15.9603   37.8203 O   0  0  0  0  0  0  0  0  0  0  0  0
   10.7486   19.2414   36.2768 C   0  0  2  0  0  0  0  0  0  0  0  0
   10.9728   22.0849   32.0546 O   0  0  0  0  0  0  0  0  0  0  0  0
    8.5991   18.2682   35.8018 C   0  0  1  0  0  0  0  0  0  0  0  0
    8.7866   23.8082   32.0453 O   0  0  0  0  0  0  0  0  0  0  0  0
    9.4957   16.0245   35.6621 C   0  0  2  0  0  0  0  0  0  0  0  0
   10.1049   15.0383   34.6625 C   0  0  0  0  0  0  0  0  0  0  0  0
    8.2340   15.4281   36.2961 C   0  0  2  0  0  0  0  0  0  0  0  0
    7.6244   16.4538   37.2542 C   0  0  1  0  0  0  0  0  0  0  0  0
    7.3385   17.7591   36.5082 C   0  0  1  0  0  0  0  0  0  0  0  0
    9.6617   21.5431   32.2415 C   0  0  2  0  0  0  0  0  0  0  0  0
    8.5744   22.4466   31.6630 C   0  0  1  0  0  0  0  0  0  0  0  0
  3  1  1  0  0  0  0
  4  1  1  6  0  0  0
  4  6  1  0  0  0  0
  4 31  1  0  0  0  0
  6  7  1  0  0  0  0
  7  9  1  6  0  0  0
  7 30  1  0  0  0  0
 10  9  1  6  0  0  0
 10 13  1  0  0  0  0
 10 21  1  0  0  0  0
 13 12  1  1  0  0  0
 13 15  1  0  0  0  0
 15  2  1  6  0  0  0
 15 17  1  0  0  0  0
 16 25  1  0  0  0  0
 17 19  1  0  0  0  0
 19  5  1  6  0  0  0
 19 21  1  0  0  0  0
 21 14  1  1  0  0  0
 23 14  1  1  0  0  0
 23 16  1  0  0  0  0
 23 29  1  0  0  0  0
 25 26  1  6  0  0  0
 25 27  1  0  0  0  0
 26  8  1  0  0  0  0
 27 18  1  1  0  0  0
 27 28  1  0  0  0  0
 28 20  1  6  0  0  0
 28 29  1  0  0  0  0
 29 11  1  1  0  0  0
 30 22  1  1  0  0  0
 30 31  1  0  0  0  0
 31 24  1  1  0  0  0
M  END
>  <CHROM.1>
-54.39627369,-114.99800561,-71.64662463,65.34341856,62.65948413,171.29639800
9.56198420,19.28960981,35.06028351,1.42849616,-0.56246656,-0.60350095

>  <Name>
2fcz_lig

>  <RI>
0

>  <Rbt.Current_Directory>
/home/itssahil/PROJECTS/Mol_Feturizer/New_Systems/rnas/2fcz

>  <Rbt.Executable>
rbdock ($Id: //depot/dev/client3/rdock/2013.1/src/exe/rbdock.cxx#4 $)

>  <Rbt.Library>
libRbt.so (2013.1, Build901 2013/11/27)

>  <Rbt.Parameter_File>
/export/apps/rDock/src/rDock_2013.1_src/data/scripts/dock_solv.prm

>  <Rbt.Receptor>
prm/pocket_docking_5.prm

>  <SCORE>
-16.0362

>  <SCORE.INTER>
-16.0844

>  <SCORE.INTER.CONST>
1

>  <SCORE.INTER.POLAR>
-1.91639

>  <SCORE.INTER.ROT>
6

>  <SCORE.INTER.SOLV>
13.0814

>  <SCORE.INTER.VDW>
-16.2954

>  <SCORE.INTER.norm>
-0.518851

>  <SCORE.INTRA>
0.0482249

>  <SCORE.INTRA.DIHEDRAL>
-2.517

>  <SCORE.INTRA.DIHEDRAL.0>
10.8409

>  <SCORE.INTRA.POLAR>
0

>  <SCORE.INTRA.POLAR.0>
0

>  <SCORE.INTRA.REPUL>
0

>  <SCORE.INTRA.REPUL.0>
0

>  <SCORE.INTRA.SOLV>
-1.81722

>  <SCORE.INTRA.SOLV.lig_0>
-80.8302

>  <SCORE.INTRA.VDW>
2.21533

>  <SCORE.INTRA.VDW.0>
-4.23953

>  <SCORE.INTRA.norm>
0.00155564

>  <SCORE.RESTR>
0

>  <SCORE.RESTR.CAVITY>
0

>  <SCORE.RESTR.norm>
0

>  <SCORE.SYSTEM>
0

>  <SCORE.SYSTEM.CONST>
0

>  <SCORE.SYSTEM.DIHEDRAL>
0

>  <SCORE.SYSTEM.SOLV>
0

>  <SCORE.SYSTEM.norm>
0

>  <SCORE.heavy>
31

>  <SCORE.norm>
-0.517296

>  <RMSD>
6.038

$$$$
2fcz_lig
 OpenBabel11021811433D
libRbt.so/2013.1/901 2013/11/27
 31 33  0  0  0  0  0  0  0  0999 V2000
   13.5996   11.7898   34.4780 C   0  0  0  0  0  0  0  0  0  0  0  0
   15.8503   13.3578   31.8634 N   0  0  0  0  0  0  0  0  0  0  0  0
   14.7844   12.5121   34.1316 O   0  0  0  0  0  0  0  0  0  0  0  0
   12.5634   12.7528   35.0675 C   0  0  1  0  0  0  0  0  0  0  0  0
   14.0019   17.7356   33.0321 N   0  0  0  0  0  0  0  0  0  0  0  0
   12.3207   13.8745   34.1943 O   0  0  0  0  0  0  0  0  0  0  0  0
   11.0141   13.7490   33.5986 C   0  0  1  0  0  0  0  0  0  0  0  0
   10.1129   21.9130   31.9539 N   0  0  0  0  0  0  0  0  0  0  0  0
   11.0205   14.0233   32.1873 O   0  0  0  0  0  0  0  0  0  0  0  0
   12.2406   14.6115   31.7052 C   0  0  2  0  0  0  0  0  0  0  0  0
    9.2536   15.4685   31.3611 N   0  0  0  0  0  0  0  0  0  0  0  0
   13.2415   12.4623   31.2224 O   0  0  0  0  0  0  0  0  0  0  0  0
   13.4067   13.6569   31.9903 C   0  0  1  0  0  0  0  0  0  0  0  0
   11.5222   16.9549   31.9420 O   0  0  0  0  0  0  0  0  0  0  0  0
   14.7472   14.2989   31.6252 C   0  0  1  0  0  0  0  0  0  0  0  0
   10.3212   18.4635   33.3039 O   0  0  0  0  0  0  0  0  0  0  0  0
   14.9668   15.5657   32.4550 C   0  0  0  0  0  0  0  0  0  0  0  0
    8.7203   20.2203   30.4899 O   0  0  0  0  0  0  0  0  0  0  0  0
   13.8432   16.5613   32.1596 C   0  0  1  0  0  0  0  0  0  0  0  0
    7.6647   17.5615   30.2255 O   0  0  0  0  0  0  0  0  0  0  0  0
   12.4535   15.9587   32.3927 C   0  0  2  0  0  0  0  0  0  0  0  0
    9.2136   12.0663   33.8023 O   0  0  0  0  0  0  0  0  0  0  0  0
   10.3828   17.1164   32.7993 C   0  0  1  0  0  0  0  0  0  0  0  0
   10.4144   12.7006   36.2322 O   0  0  0  0  0  0  0  0  0  0  0  0
   10.1723   19.4732   32.2908 C   0  0  2  0  0  0  0  0  0  0  0  0
   10.1549   20.8471   32.9655 C   0  0  0  0  0  0  0  0  0  0  0  0
    8.8661   19.2411   31.5230 C   0  0  2  0  0  0  0  0  0  0  0  0
    8.8954   17.8441   30.8994 C   0  0  1  0  0  0  0  0  0  0  0  0
    9.1252   16.7920   31.9867 C   0  0  1  0  0  0  0  0  0  0  0  0
   10.6265   12.2893   33.8405 C   0  0  2  0  0  0  0  0  0  0  0  0
   11.2112   12.0593   35.2328 C   0  0  1  0  0  0  0  0  0  0  0  0
  3  1  1  0  0  0  0
  4  1  1  6  0  0  0
  4  6  1  0  0  0  0
  4 31  1  0  0  0  0
  6  7  1  0  0  0  0
  7  9  1  6  0  0  0
  7 30  1  0  0  0  0
 10  9  1  1  0  0  0
 10 13  1  0  0  0  0
 10 21  1  0  0  0  0
 13 12  1  6  0  0  0
 13 15  1  0  0  0  0
 15  2  1  1  0  0  0
 15 17  1  0  0  0  0
 16 25  1  0  0  0  0
 17 19  1  0  0  0  0
 19  5  1  1  0  0  0
 19 21  1  0  0  0  0
 21 14  1  6  0  0  0
 23 14  1  6  0  0  0
 23 16  1  0  0  0  0
 23 29  1  0  0  0  0
 25 26  1  1  0  0  0
 25 27  1  0  0  0  0
 26  8  1  0  0  0  0
 27 18  1  6  0  0  0
 27 28  1  0  0  0  0
 28 20  1  1  0  0  0
 28 29  1  0  0  0  0
 29 11  1  6  0  0  0
 30 22  1  1  0  0  0
 30 31  1  0  0  0  0
 31 24  1  1  0  0  0
M  END
>  <CHROM.1>
53.19299344,-11.47528132,59.82609864,97.02138382,119.76613208,175.45080906
11.48404177,15.59140162,32.68115025,1.10401838,-0.10366084,2.79501994

>  <Name>
2fcz_lig

>  <RI>
0

>  <Rbt.Current_Directory>
/home/itssahil/PROJECTS/Mol_Feturizer/New_Systems/rnas/2fcz

>  <Rbt.Executable>
rbdock ($Id: //depot/dev/client3/rdock/2013.1/src/exe/rbdock.cxx#4 $)

>  <Rbt.Library>
libRbt.so (2013.1, Build901 2013/11/27)

>  <Rbt.Parameter_File>
/export/apps/rDock/src/rDock_2013.1_src/data/scripts/dock_solv.prm

>  <Rbt.Receptor>
prm/blind_docking_40.prm

>  <SCORE>
12.3732

>  <SCORE.INTER>
-6.10347

>  <SCORE.INTER.CONST>
1

>  <SCORE.INTER.POLAR>
0

>  <SCORE.INTER.ROT>
6

>  <SCORE.INTER.SOLV>
17.7017

>  <SCORE.INTER.VDW>
-17.5696

>  <SCORE.INTER.norm>
-0.196886

>  <SCORE.INTRA>
11.9019

>  <SCORE.INTRA.DIHEDRAL>
8.00462

>  <SCORE.INTRA.DIHEDRAL.0>
10.8409

>  <SCORE.INTRA.POLAR>
0

>  <SCORE.INTRA.POLAR.0>
0

>  <SCORE.INTRA.REPUL>
0

>  <SCORE.INTRA.REPUL.0>
0

>  <SCORE.INTRA.SOLV>
4.04604

>  <SCORE.INTRA.SOLV.lig_0>
-80.8302

>  <SCORE.INTRA.VDW>
5.87662

>  <SCORE.INTRA.VDW.0>
-4.23953

>  <SCORE.INTRA.norm>
0.383934

>  <SCORE.RESTR>
6.5747

>  <SCORE.RESTR.CAVITY>
6.5747

>  <SCORE.RESTR.norm>
0.212087

>  <SCORE.SYSTEM>
0

>  <SCORE.SYSTEM.CONST>
0

>  <SCORE.SYSTEM.DIHEDRAL>
0

>  <SCORE.SYSTEM.SOLV>
0

>  <SCORE.SYSTEM.norm>
0

>  <SCORE.heavy>
31

>  <SCORE.norm>
0.399134

>  <RMSD>
6.045

$$$$
2fcz_lig
 OpenBabel11021811433D
libRbt.so/2013.1/901 2013/11/27
 31 33  0  0  0  0  0  0  0  0999 V2000
    7.8062   19.3465   30.2780 C   0  0  0  0  0  0  0  0  0  0  0  0
   11.9984   23.5511   33.4037 N   0  0  0  0  0  0  0  0  0  0  0  0
    8.0313   20.6087   29.6444 O   0  0  0  0  0  0  0  0  0  0  0  0
    9.0852   18.8924   30.9898 C   0  0  1  0  0  0  0  0  0  0  0  0
   12.6233   20.2024   36.9169 N   0  0  0  0  0  0  0  0  0  0  0  0
    9.4773   19.8180   32.0238 O   0  0  0  0  0  0  0  0  0  0  0  0
    9.2376   19.2275   33.3167 C   0  0  1  0  0  0  0  0  0  0  0  0
   12.5046   16.3372   35.6301 N   0  0  0  0  0  0  0  0  0  0  0  0
    8.6024   20.1368   34.2315 O   0  0  0  0  0  0  0  0  0  0  0  0
    9.5039   21.0533   34.8752 C   0  0  2  0  0  0  0  0  0  0  0  0
    7.4916   19.3624   38.3311 N   0  0  0  0  0  0  0  0  0  0  0  0
    9.3180   22.6890   33.1022 O   0  0  0  0  0  0  0  0  0  0  0  0
   10.2483   21.8622   33.8057 C   0  0  1  0  0  0  0  0  0  0  0  0
    9.8478   19.7090   36.9095 O   0  0  0  0  0  0  0  0  0  0  0  0
   11.3234   22.7512   34.4351 C   0  0  1  0  0  0  0  0  0  0  0  0
    9.9417   17.4322   36.2926 O   0  0  0  0  0  0  0  0  0  0  0  0
   12.3529   21.8906   35.1708 C   0  0  0  0  0  0  0  0  0  0  0  0
   10.9951   16.2493   39.6181 O   0  0  0  0  0  0  0  0  0  0  0  0
   11.6502   21.1025   36.2780 C   0  0  1  0  0  0  0  0  0  0  0  0
    8.4012   17.3582   40.1616 O   0  0  0  0  0  0  0  0  0  0  0  0
   10.4807   20.2665   35.7469 C   0  0  2  0  0  0  0  0  0  0  0  0
    8.3434   17.0385   34.0404 O   0  0  0  0  0  0  0  0  0  0  0  0
    9.0765   18.5287   36.6424 C   0  0  1  0  0  0  0  0  0  0  0  0
   10.1012   16.8587   31.8894 O   0  0  0  0  0  0  0  0  0  0  0  0
   10.8653   17.0487   37.3260 C   0  0  2  0  0  0  0  0  0  0  0  0
   11.7362   15.9025   36.8056 C   0  0  0  0  0  0  0  0  0  0  0  0
   10.0879   16.6037   38.5698 C   0  0  2  0  0  0  0  0  0  0  0  0
    9.1942   17.7543   39.0378 C   0  0  1  0  0  0  0  0  0  0  0  0
    8.2691   18.1923   37.9001 C   0  0  1  0  0  0  0  0  0  0  0  0
    8.3064   18.0490   33.0280 C   0  0  2  0  0  0  0  0  0  0  0  0
    8.8669   17.5543   31.6959 C   0  0  1  0  0  0  0  0  0  0  0  0
  3  1  1  0  0  0  0
  4  1  1  1  0  0  0
  4  6  1  0  0  0  0
  4 31  1  0  0  0  0
  6  7  1  0  0  0  0
  7  9  1  1  0  0  0
  7 30  1  0  0  0  0
 10  9  1  6  0  0  0
 10 13  1  0  0  0  0
 10 21  1  0  0  0  0
 13 12  1  1  0  0  0
 13 15  1  0  0  0  0
 15  2  1  6  0  0  0
 15 17  1  0  0  0  0
 16 25  1  0  0  0  0
 17 19  1  0  0  0  0
 19  5  1  6  0  0  0
 19 21  1  0  0  0  0
 21 14  1  1  0  0  0
 23 14  1  1  0  0  0
 23 16  1  0  0  0  0
 23 29  1  0  0  0  0
 25 26  1  6  0  0  0
 25 27  1  0  0  0  0
 26  8  1  0  0  0  0
 27 18  1  1  0  0  0
 27 28  1  0  0  0  0
 28 20  1  1  0  0  0
 28 29  1  0  0  0  0
 29 11  1  1  0  0  0
 30 22  1  1  0  0  0
 30 31  1  0  0  0  0
 31 24  1  1  0  0  0
M  END
>  <CHROM.1>
61.63374320,-81.66343866,57.75355040,77.68099531,68.99408276,61.08901122
9.84262088,19.12325033,35.08075798,1.80955010,-1.14286099,-0.92033715

>  <Name>
2fcz_lig

>  <RI>
1.32928e+07

>  <Rbt.Current_Directory>
/home/itssahil/PROJECTS/Mol_Feturizer/New_Systems/rnas/2fcz

>  <Rbt.Executable>
rbdock ($Id: //depot/dev/client3/rdock/2013.1/src/exe/rbdock.cxx#4 $)

>  <Rbt.Library>
libRbt.so (2013.1, Build901 2013/11/27)

>  <Rbt.Parameter_File>
/export/apps/rDock/src/rDock_2013.1_src/data/scripts/dock_solv.prm

>  <Rbt.Receptor>
prm/pocket_docking_7.prm

>  <SCORE>
-19.4065

>  <SCORE.INTER>
-16.1866

>  <SCORE.INTER.CONST>
1

>  <SCORE.INTER.POLAR>
-1.94335

>  <SCORE.INTER.ROT>
6

>  <SCORE.INTER.SOLV>
16.7041

>  <SCORE.INTER.VDW>
-17.4813

>  <SCORE.INTER.norm>
-0.522149

>  <SCORE.INTRA>
-3.21986

>  <SCORE.INTRA.DIHEDRAL>
-6.80234

>  <SCORE.INTRA.DIHEDRAL.0>
10.8409

>  <SCORE.INTRA.POLAR>
0

>  <SCORE.INTRA.POLAR.0>
0

>  <SCORE.INTRA.REPUL>
0

>  <SCORE.INTRA.REPUL.0>
0

>  <SCORE.INTRA.SOLV>
-2.03712

>  <SCORE.INTRA.SOLV.lig_0>
-80.8302

>  <SCORE.INTRA.VDW>
1.19987

>  <SCORE.INTRA.VDW.0>
-4.23953

>  <SCORE.INTRA.norm>
-0.103866

>  <SCORE.RESTR>
0

>  <SCORE.RESTR.CAVITY>
0

>  <SCORE.RESTR.norm>
0

>  <SCORE.SYSTEM>
0

>  <SCORE.SYSTEM.CONST>
0

>  <SCORE.SYSTEM.DIHEDRAL>
0

>  <SCORE.SYSTEM.SOLV>
0

>  <SCORE.SYSTEM.norm>
0

>  <SCORE.heavy>
31

>  <SCORE.norm>
-0.626015

>  <RMSD>
6.050

$$$$
2fcz_lig
 OpenBabel11021811433D
libRbt.so/2013.1/901 2013/11/27
 31 33  0  0  0  0  0  0  0  0999 V2000
    7.9464   19.3970   30.2327 C   0  0  0  0  0  0  0  0  0  0  0  0
   12.1987   23.4642   33.5567 N   0  0  0  0  0  0  0  0  0  0  0  0
    6.9122   19.7568   31.1528 O   0  0  0  0  0  0  0  0  0  0  0  0
    9.1705   18.8935   31.0051 C   0  0  1  0  0  0  0  0  0  0  0  0
   12.5214   20.0490   37.0466 N   0  0  0  0  0  0  0  0  0  0  0  0
    9.5628   19.8154   32.0423 O   0  0  0  0  0  0  0  0  0  0  0  0
    9.2402   19.2575   33.3317 C   0  0  1  0  0  0  0  0  0  0  0  0
   12.4942   15.4875   37.8356 N   0  0  0  0  0  0  0  0  0  0  0  0
    8.6116   20.2105   34.2056 O   0  0  0  0  0  0  0  0  0  0  0  0
    9.5301   21.0744   34.8962 C   0  0  2  0  0  0  0  0  0  0  0  0
    7.2952   19.4520   38.2352 N   0  0  0  0  0  0  0  0  0  0  0  0
    9.4938   22.7374   33.1393 O   0  0  0  0  0  0  0  0  0  0  0  0
   10.3545   21.8582   33.8675 C   0  0  1  0  0  0  0  0  0  0  0  0
    9.7278   19.6917   36.9243 O   0  0  0  0  0  0  0  0  0  0  0  0
   11.4455   22.6864   34.5501 C   0  0  1  0  0  0  0  0  0  0  0  0
    9.7376   17.4176   36.2911 O   0  0  0  0  0  0  0  0  0  0  0  0
   12.4022   21.7683   35.3139 C   0  0  0  0  0  0  0  0  0  0  0  0
   10.5797   16.1604   39.6494 O   0  0  0  0  0  0  0  0  0  0  0  0
   11.6190   21.0028   36.3822 C   0  0  1  0  0  0  0  0  0  0  0  0
    8.0214   17.3924   40.0859 O   0  0  0  0  0  0  0  0  0  0  0  0
   10.4324   20.2310   35.7948 C   0  0  2  0  0  0  0  0  0  0  0  0
    8.2109   17.1255   34.0460 O   0  0  0  0  0  0  0  0  0  0  0  0
    8.9124   18.5530   36.6118 C   0  0  1  0  0  0  0  0  0  0  0  0
   10.0475   16.8278   31.9754 O   0  0  0  0  0  0  0  0  0  0  0  0
   10.5935   16.9815   37.3613 C   0  0  2  0  0  0  0  0  0  0  0  0
   11.4298   15.7974   36.8700 C   0  0  0  0  0  0  0  0  0  0  0  0
    9.7396   16.5667   38.5647 C   0  0  2  0  0  0  0  0  0  0  0  0
    8.8831   17.7567   39.0027 C   0  0  1  0  0  0  0  0  0  0  0  0
    8.0331   18.2480   37.8287 C   0  0  1  0  0  0  0  0  0  0  0  0
    8.2659   18.1205   33.0192 C   0  0  2  0  0  0  0  0  0  0  0  0
    8.8577   17.5786   31.7194 C   0  0  1  0  0  0  0  0  0  0  0  0
  3  1  1  0  0  0  0
  4  1  1  1  0  0  0
  4  6  1  0  0  0  0
  4 31  1  0  0  0  0
  6  7  1  0  0  0  0
  7  9  1  1  0  0  0
  7 30  1  0  0  0  0
 10  9  1  6  0  0  0
 10 13  1  0  0  0  0
 10 21  1  0  0  0  0
 13 12  1  1  0  0  0
 13 15  1  0  0  0  0
 15  2  1  6  0  0  0
 15 17  1  0  0  0  0
 16 25  1  0  0  0  0
 17 19  1  0  0  0  0
 19  5  1  6  0  0  0
 19 21  1  0  0  0  0
 21 14  1  1  0  0  0
 23 14  1  1  0  0  0
 23 16  1  0  0  0  0
 23 29  1  0  0  0  0
 25 26  1  6  0  0  0
 25 27  1  0  0  0  0
 26  8  1  0  0  0  0
 27 18  1  1  0  0  0
 27 28  1  0  0  0  0
 28 20  1  1  0  0  0
 28 29  1  0  0  0  0
 29 11  1  1  0  0  0
 30 22  1  1  0  0  0
 30 31  1  0  0  0  0
 31 24  1  1  0  0  0
M  END
>  <CHROM.1>
-50.97387878,-82.88951679,59.35480603,77.73000898,69.38703921,169.11495259
9.72411766,19.05578711,35.22860702,1.74409174,-1.04847912,-0.94945089

>  <Name>
2fcz_lig

>  <RI>
2.26996e+07

>  <Rbt.Current_Directory>
/home/itssahil/PROJECTS/Mol_Feturizer/New_Systems/rnas/2fcz

>  <Rbt.Executable>
rbdock ($Id: //depot/dev/client3/rdock/2013.1/src/exe/rbdock.cxx#4 $)

>  <Rbt.Library>
libRbt.so (2013.1, Build901 2013/11/27)

>  <Rbt.Parameter_File>
/export/apps/rDock/src/rDock_2013.1_src/data/scripts/dock_solv.prm

>  <Rbt.Receptor>
prm/pocket_docking_4.prm

>  <SCORE>
-18.77

>  <SCORE.INTER>
-16.9463

>  <SCORE.INTER.CONST>
1

>  <SCORE.INTER.POLAR>
-1.95327

>  <SCORE.INTER.ROT>
6

>  <SCORE.INTER.SOLV>
18.1035

>  <SCORE.INTER.VDW>
-18.4211

>  <SCORE.INTER.norm>
-0.546653

>  <SCORE.INTRA>
-1.82377

>  <SCORE.INTRA.DIHEDRAL>
-5.87711

>  <SCORE.INTRA.DIHEDRAL.0>
10.8409

>  <SCORE.INTRA.POLAR>
0

>  <SCORE.INTRA.POLAR.0>
0

>  <SCORE.INTRA.REPUL>
0

>  <SCORE.INTRA.REPUL.0>
0

>  <SCORE.INTRA.SOLV>
-0.815465

>  <SCORE.INTRA.SOLV.lig_0>
-80.8302

>  <SCORE.INTRA.VDW>
1.52252

>  <SCORE.INTRA.VDW.0>
-4.23953

>  <SCORE.INTRA.norm>
-0.0588312

>  <SCORE.RESTR>
0

>  <SCORE.RESTR.CAVITY>
0

>  <SCORE.RESTR.norm>
0

>  <SCORE.SYSTEM>
0

>  <SCORE.SYSTEM.CONST>
0

>  <SCORE.SYSTEM.DIHEDRAL>
0

>  <SCORE.SYSTEM.SOLV>
0

>  <SCORE.SYSTEM.norm>
0

>  <SCORE.heavy>
31

>  <SCORE.norm>
-0.605484

>  <RMSD>
6.058

$$$$
2fcz_lig
 OpenBabel11021811433D
libRbt.so/2013.1/901 2013/11/27
 31 33  0  0  0  0  0  0  0  0999 V2000
    8.1708   19.2017   30.3133 C   0  0  0  0  0  0  0  0  0  0  0  0
   12.2389   23.3943   33.5765 N   0  0  0  0  0  0  0  0  0  0  0  0
    8.5521   20.4290   29.6857 O   0  0  0  0  0  0  0  0  0  0  0  0
    9.3338   18.6732   31.1598 C   0  0  1  0  0  0  0  0  0  0  0  0
   12.6305   19.9960   37.0758 N   0  0  0  0  0  0  0  0  0  0  0  0
    9.7167   19.6121   32.1852 O   0  0  0  0  0  0  0  0  0  0  0  0
    9.3094   19.1120   33.4743 C   0  0  1  0  0  0  0  0  0  0  0  0
   10.5868   14.6049   36.5453 N   0  0  0  0  0  0  0  0  0  0  0  0
    8.6826   20.1195   34.2862 O   0  0  0  0  0  0  0  0  0  0  0  0
    9.6043   20.9925   34.9610 C   0  0  2  0  0  0  0  0  0  0  0  0
    7.4084   19.4244   38.3157 N   0  0  0  0  0  0  0  0  0  0  0  0
    9.5336   22.6478   33.1979 O   0  0  0  0  0  0  0  0  0  0  0  0
   10.4098   21.7774   33.9182 C   0  0  1  0  0  0  0  0  0  0  0  0
    9.8380   19.6196   36.9919 O   0  0  0  0  0  0  0  0  0  0  0  0
   11.5041   22.6157   34.5830 C   0  0  1  0  0  0  0  0  0  0  0  0
    9.8101   17.3421   36.3715 O   0  0  0  0  0  0  0  0  0  0  0  0
   12.4770   21.7072   35.3378 C   0  0  0  0  0  0  0  0  0  0  0  0
   10.6492   16.0910   39.7328 O   0  0  0  0  0  0  0  0  0  0  0  0
   11.7130   20.9410   36.4195 C   0  0  1  0  0  0  0  0  0  0  0  0
    8.1121   17.3643   40.1745 O   0  0  0  0  0  0  0  0  0  0  0  0
   10.5240   20.1588   35.8510 C   0  0  2  0  0  0  0  0  0  0  0  0
    8.1553   17.0506   34.2047 O   0  0  0  0  0  0  0  0  0  0  0  0
    9.0038   18.4917   36.6897 C   0  0  1  0  0  0  0  0  0  0  0  0
   10.0730   16.6063   32.2363 O   0  0  0  0  0  0  0  0  0  0  0  0
   10.6644   16.8990   37.4401 C   0  0  2  0  0  0  0  0  0  0  0  0
   11.4802   15.6995   36.9515 C   0  0  0  0  0  0  0  0  0  0  0  0
    9.8101   16.5040   38.6499 C   0  0  2  0  0  0  0  0  0  0  0  0
    8.9740   17.7094   39.0852 C   0  0  1  0  0  0  0  0  0  0  0  0
    8.1259   18.2070   37.9125 C   0  0  1  0  0  0  0  0  0  0  0  0
    8.3022   18.0073   33.1508 C   0  0  2  0  0  0  0  0  0  0  0  0
    8.9305   17.3975   31.8991 C   0  0  1  0  0  0  0  0  0  0  0  0
  3  1  1  0  0  0  0
  4  1  1  1  0  0  0
  4  6  1  0  0  0  0
  4 31  1  0  0  0  0
  6  7  1  0  0  0  0
  7  9  1  1  0  0  0
  7 30  1  0  0  0  0
 10  9  1  6  0  0  0
 10 13  1  0  0  0  0
 10 21  1  0  0  0  0
 13 12  1  1  0  0  0
 13 15  1  0  0  0  0
 15  2  1  6  0  0  0
 15 17  1  0  0  0  0
 16 25  1  0  0  0  0
 17 19  1  0  0  0  0
 19  5  1  6  0  0  0
 19 21  1  0  0  0  0
 21 14  1  1  0  0  0
 23 14  1  1  0  0  0
 23 16  1  0  0  0  0
 23 29  1  0  0  0  0
 25 26  1  6  0  0  0
 25 27  1  0  0  0  0
 26  8  1  0  0  0  0
 27 18  1  1  0  0  0
 27 28  1  0  0  0  0
 28 20  1  1  0  0  0
 28 29  1  0  0  0  0
 29 11  1  1  0  0  0
 30 22  1  1  0  0  0
 30 31  1  0  0  0  0
 31 24  1  1  0  0  0
M  END
>  <CHROM.1>
59.68793238,-81.09452190,63.13115666,76.46667338,70.59792591,-59.66501785
9.79696667,18.96335256,35.21864308,1.59056125,-1.17145549,-1.06472428

>  <Name>
2fcz_lig

>  <RI>
2.29611e+07

>  <Rbt.Current_Directory>
/home/itssahil/PROJECTS/Mol_Feturizer/New_Systems/rnas/2fcz

>  <Rbt.Executable>
rbdock ($Id: //depot/dev/client3/rdock/2013.1/src/exe/rbdock.cxx#4 $)

>  <Rbt.Library>
libRbt.so (2013.1, Build901 2013/11/27)

>  <Rbt.Parameter_File>
/export/apps/rDock/src/rDock_2013.1_src/data/scripts/dock_solv.prm

>  <Rbt.Receptor>
prm/pocket_docking_3.prm

>  <SCORE>
-18.9462

>  <SCORE.INTER>
-16.3192

>  <SCORE.INTER.CONST>
1

>  <SCORE.INTER.POLAR>
-1.86202

>  <SCORE.INTER.ROT>
6

>  <SCORE.INTER.SOLV>
16.1278

>  <SCORE.INTER.VDW>
-17.6487

>  <SCORE.INTER.norm>
-0.526427

>  <SCORE.INTRA>
-2.62694

>  <SCORE.INTRA.DIHEDRAL>
-6.91537

>  <SCORE.INTRA.DIHEDRAL.0>
10.8409

>  <SCORE.INTRA.POLAR>
0

>  <SCORE.INTRA.POLAR.0>
0

>  <SCORE.INTRA.REPUL>
0

>  <SCORE.INTRA.REPUL.0>
0

>  <SCORE.INTRA.SOLV>
-0.992623

>  <SCORE.INTRA.SOLV.lig_0>
-80.8302

>  <SCORE.INTRA.VDW>
1.32705

>  <SCORE.INTRA.VDW.0>
-4.23953

>  <SCORE.INTRA.norm>
-0.0847401

>  <SCORE.RESTR>
0

>  <SCORE.RESTR.CAVITY>
0

>  <SCORE.RESTR.norm>
0

>  <SCORE.SYSTEM>
0

>  <SCORE.SYSTEM.CONST>
0

>  <SCORE.SYSTEM.DIHEDRAL>
0

>  <SCORE.SYSTEM.SOLV>
0

>  <SCORE.SYSTEM.norm>
0

>  <SCORE.heavy>
31

>  <SCORE.norm>
-0.611167

>  <RMSD>
6.059

$$$$
2fcz_lig
 OpenBabel11021811433D
libRbt.so/2013.1/901 2013/11/27
 31 33  0  0  0  0  0  0  0  0999 V2000
    9.2562   15.7909   32.6500 C   0  0  0  0  0  0  0  0  0  0  0  0
   11.5212   14.9563   40.7463 N   0  0  0  0  0  0  0  0  0  0  0  0
   10.5962   15.9389   32.1726 O   0  0  0  0  0  0  0  0  0  0  0  0
    9.2144   14.7163   33.7418 C   0  0  1  0  0  0  0  0  0  0  0  0
   12.5207   19.4489   39.0836 N   0  0  0  0  0  0  0  0  0  0  0  0
    9.9691   15.1093   34.9060 O   0  0  0  0  0  0  0  0  0  0  0  0
    9.0654   15.4201   35.9851 C   0  0  1  0  0  0  0  0  0  0  0  0
   15.8575   19.8757   37.1967 N   0  0  0  0  0  0  0  0  0  0  0  0
    9.4166   16.6353   36.6687 O   0  0  0  0  0  0  0  0  0  0  0  0
   10.6598   16.5705   37.3878 C   0  0  2  0  0  0  0  0  0  0  0  0
    9.7032   20.2388   35.1940 N   0  0  0  0  0  0  0  0  0  0  0  0
   10.1552   14.3996   38.3291 O   0  0  0  0  0  0  0  0  0  0  0  0
   10.4575   15.7545   38.6706 C   0  0  1  0  0  0  0  0  0  0  0  0
   11.5737   18.6934   36.5381 O   0  0  0  0  0  0  0  0  0  0  0  0
   11.7151   15.7765   39.5426 C   0  0  1  0  0  0  0  0  0  0  0  0
   13.0057   20.5362   36.8938 O   0  0  0  0  0  0  0  0  0  0  0  0
   12.0471   17.2136   39.9505 C   0  0  0  0  0  0  0  0  0  0  0  0
   14.2043   20.6784   33.4137 O   0  0  0  0  0  0  0  0  0  0  0  0
   12.3008   18.0473   38.6929 C   0  0  1  0  0  0  0  0  0  0  0  0
   11.4011   21.2307   33.1136 O   0  0  0  0  0  0  0  0  0  0  0  0
   11.1283   17.9887   37.7077 C   0  0  2  0  0  0  0  0  0  0  0  0
    6.6017   15.3886   36.1944 O   0  0  0  0  0  0  0  0  0  0  0  0
   11.6410   20.1169   36.7070 C   0  0  1  0  0  0  0  0  0  0  0  0
    7.6222   13.1995   34.8103 O   0  0  0  0  0  0  0  0  0  0  0  0
   13.8743   20.2504   35.7839 C   0  0  2  0  0  0  0  0  0  0  0  0
   15.2891   20.7180   36.1343 C   0  0  0  0  0  0  0  0  0  0  0  0
   13.3672   20.9794   34.5345 C   0  0  2  0  0  0  0  0  0  0  0  0
   11.9366   20.5248   34.2377 C   0  0  1  0  0  0  0  0  0  0  0  0
   11.0463   20.7738   35.4572 C   0  0  1  0  0  0  0  0  0  0  0  0
    7.7053   15.5834   35.3047 C   0  0  2  0  0  0  0  0  0  0  0  0
    7.7834   14.4978   34.2330 C   0  0  1  0  0  0  0  0  0  0  0  0
  3  1  1  0  0  0  0
  4  1  1  6  0  0  0
  4  6  1  0  0  0  0
  4 31  1  0  0  0  0
  6  7  1  0  0  0  0
  7  9  1  6  0  0  0
  7 30  1  0  0  0  0
 10  9  1  1  0  0  0
 10 13  1  0  0  0  0
 10 21  1  0  0  0  0
 13 12  1  6  0  0  0
 13 15  1  0  0  0  0
 15  2  1  1  0  0  0
 15 17  1  0  0  0  0
 16 25  1  0  0  0  0
 17 19  1  0  0  0  0
 19  5  1  1  0  0  0
 19 21  1  0  0  0  0
 21 14  1  6  0  0  0
 23 14  1  6  0  0  0
 23 16  1  0  0  0  0
 23 29  1  0  0  0  0
 25 26  1  1  0  0  0
 25 27  1  0  0  0  0
 26  8  1  0  0  0  0
 27 18  1  6  0  0  0
 27 28  1  0  0  0  0
 28 20  1  6  0  0  0
 28 29  1  0  0  0  0
 29 11  1  6  0  0  0
 30 22  1  1  0  0  0
 30 31  1  0  0  0  0
 31 24  1  1  0  0  0
M  END
>  <CHROM.1>
64.75016166,-66.49336188,-75.25576607,162.39784694,102.79814468,68.74194312
11.03224098,17.62593363,36.14985882,2.82348596,0.82773099,2.02418348

>  <Name>
2fcz_lig

>  <RI>
1.32928e+07

>  <Rbt.Current_Directory>
/home/itssahil/PROJECTS/Mol_Feturizer/New_Systems/rnas/2fcz

>  <Rbt.Executable>
rbdock ($Id: //depot/dev/client3/rdock/2013.1/src/exe/rbdock.cxx#4 $)

>  <Rbt.Library>
libRbt.so (2013.1, Build901 2013/11/27)

>  <Rbt.Parameter_File>
/export/apps/rDock/src/rDock_2013.1_src/data/scripts/dock_solv.prm

>  <Rbt.Receptor>
prm/pocket_docking_7.prm

>  <SCORE>
-8.1519

>  <SCORE.INTER>
-10.4546

>  <SCORE.INTER.CONST>
1

>  <SCORE.INTER.POLAR>
-1.59343

>  <SCORE.INTER.ROT>
6

>  <SCORE.INTER.SOLV>
17.0172

>  <SCORE.INTER.VDW>
-14.9307

>  <SCORE.INTER.norm>
-0.337246

>  <SCORE.INTRA>
2.30274

>  <SCORE.INTRA.DIHEDRAL>
-1.81337

>  <SCORE.INTRA.DIHEDRAL.0>
10.8409

>  <SCORE.INTRA.POLAR>
0

>  <SCORE.INTRA.POLAR.0>
0

>  <SCORE.INTRA.REPUL>
0

>  <SCORE.INTRA.REPUL.0>
0

>  <SCORE.INTRA.SOLV>
-0.484828

>  <SCORE.INTRA.SOLV.lig_0>
-80.8302

>  <SCORE.INTRA.VDW>
3.45184

>  <SCORE.INTRA.VDW.0>
-4.23953

>  <SCORE.INTRA.norm>
0.074282

>  <SCORE.RESTR>
0

>  <SCORE.RESTR.CAVITY>
0

>  <SCORE.RESTR.norm>
0

>  <SCORE.SYSTEM>
0

>  <SCORE.SYSTEM.CONST>
0

>  <SCORE.SYSTEM.DIHEDRAL>
0

>  <SCORE.SYSTEM.SOLV>
0

>  <SCORE.SYSTEM.norm>
0

>  <SCORE.heavy>
31

>  <SCORE.norm>
-0.262964

>  <RMSD>
6.063

$$$$
2fcz_lig
 OpenBabel11021811433D
libRbt.so/2013.1/901 2013/11/27
 31 33  0  0  0  0  0  0  0  0999 V2000
   13.8513   12.1189   34.3318 C   0  0  0  0  0  0  0  0  0  0  0  0
   15.7920   13.3300   31.7427 N   0  0  0  0  0  0  0  0  0  0  0  0
   14.9798   12.9824   34.1694 O   0  0  0  0  0  0  0  0  0  0  0  0
   12.6963   12.8960   34.9726 C   0  0  1  0  0  0  0  0  0  0  0  0
   14.0841   17.7374   33.0097 N   0  0  0  0  0  0  0  0  0  0  0  0
   12.3023   14.0257   34.1675 O   0  0  0  0  0  0  0  0  0  0  0  0
   11.0230   13.7617   33.5581 C   0  0  1  0  0  0  0  0  0  0  0  0
    8.6566   20.8274   33.8897 N   0  0  0  0  0  0  0  0  0  0  0  0
   10.9886   14.1195   32.1660 O   0  0  0  0  0  0  0  0  0  0  0  0
   12.2152   14.6820   31.6700 C   0  0  2  0  0  0  0  0  0  0  0  0
    9.4158   15.5553   31.0212 N   0  0  0  0  0  0  0  0  0  0  0  0
   13.1487   12.5144   31.1371 O   0  0  0  0  0  0  0  0  0  0  0  0
   13.3600   13.6924   31.9193 C   0  0  1  0  0  0  0  0  0  0  0  0
   11.5648   17.0399   31.9545 O   0  0  0  0  0  0  0  0  0  0  0  0
   14.7105   14.3037   31.5389 C   0  0  1  0  0  0  0  0  0  0  0  0
   10.1895   18.3686   33.3388 O   0  0  0  0  0  0  0  0  0  0  0  0
   14.9793   15.5515   32.3829 C   0  0  0  0  0  0  0  0  0  0  0  0
    8.7840   20.3535   30.5724 O   0  0  0  0  0  0  0  0  0  0  0  0
   13.8779   16.5811   32.1232 C   0  0  1  0  0  0  0  0  0  0  0  0
    7.8580   17.7058   29.9518 O   0  0  0  0  0  0  0  0  0  0  0  0
   12.4768   16.0125   32.3731 C   0  0  2  0  0  0  0  0  0  0  0  0
    9.4662   11.8426   33.6497 O   0  0  0  0  0  0  0  0  0  0  0  0
   10.3473   17.0815   32.7130 C   0  0  1  0  0  0  0  0  0  0  0  0
   10.5771   12.4844   36.1202 O   0  0  0  0  0  0  0  0  0  0  0  0
   10.0946   19.4706   32.4198 C   0  0  2  0  0  0  0  0  0  0  0  0
    9.9644   20.7684   33.2209 C   0  0  0  0  0  0  0  0  0  0  0  0
    8.8729   19.2797   31.5140 C   0  0  2  0  0  0  0  0  0  0  0  0
    9.0112   17.9541   30.7623 C   0  0  1  0  0  0  0  0  0  0  0  0
    9.1814   16.8048   31.7584 C   0  0  1  0  0  0  0  0  0  0  0  0
   10.8362   12.2511   33.7091 C   0  0  2  0  0  0  0  0  0  0  0  0
   11.4503   12.0180   35.0882 C   0  0  1  0  0  0  0  0  0  0  0  0
  3  1  1  0  0  0  0
  4  1  1  6  0  0  0
  4  6  1  0  0  0  0
  4 31  1  0  0  0  0
  6  7  1  0  0  0  0
  7  9  1  6  0  0  0
  7 30  1  0  0  0  0
 10  9  1  1  0  0  0
 10 13  1  0  0  0  0
 10 21  1  0  0  0  0
 13 12  1  6  0  0  0
 13 15  1  0  0  0  0
 15  2  1  1  0  0  0
 15 17  1  0  0  0  0
 16 25  1  0  0  0  0
 17 19  1  0  0  0  0
 19  5  1  1  0  0  0
 19 21  1  0  0  0  0
 21 14  1  6  0  0  0
 23 14  1  6  0  0  0
 23 16  1  0  0  0  0
 23 29  1  0  0  0  0
 25 26  1  1  0  0  0
 25 27  1  0  0  0  0
 26  8  1  0  0  0  0
 27 18  1  6  0  0  0
 27 28  1  0  0  0  0
 28 20  1  1  0  0  0
 28 29  1  0  0  0  0
 29 11  1  6  0  0  0
 30 22  1  1  0  0  0
 30 31  1  0  0  0  0
 31 24  1  1  0  0  0
M  END
>  <CHROM.1>
59.43458888,-0.92142260,56.85819081,87.90307003,120.98322851,-69.36826555
11.48696912,15.59940923,32.68090499,1.03384462,-0.15245656,2.79672525

>  <Name>
2fcz_lig

>  <RI>
0

>  <Rbt.Current_Directory>
/home/itssahil/PROJECTS/Mol_Feturizer/New_Systems/rnas/2fcz

>  <Rbt.Executable>
rbdock ($Id: //depot/dev/client3/rdock/2013.1/src/exe/rbdock.cxx#4 $)

>  <Rbt.Library>
libRbt.so (2013.1, Build901 2013/11/27)

>  <Rbt.Parameter_File>
/export/apps/rDock/src/rDock_2013.1_src/data/scripts/dock_solv.prm

>  <Rbt.Receptor>
prm/blind_docking_40.prm

>  <SCORE>
10.0084

>  <SCORE.INTER>
-8.72419

>  <SCORE.INTER.CONST>
1

>  <SCORE.INTER.POLAR>
-0.819586

>  <SCORE.INTER.ROT>
6

>  <SCORE.INTER.SOLV>
20.8696

>  <SCORE.INTER.VDW>
-17.6407

>  <SCORE.INTER.norm>
-0.281425

>  <SCORE.INTRA>
12.2873

>  <SCORE.INTRA.DIHEDRAL>
7.08751

>  <SCORE.INTRA.DIHEDRAL.0>
10.8409

>  <SCORE.INTRA.POLAR>
0

>  <SCORE.INTRA.POLAR.0>
0

>  <SCORE.INTRA.REPUL>
0

>  <SCORE.INTRA.REPUL.0>
0

>  <SCORE.INTRA.SOLV>
4.49813

>  <SCORE.INTRA.SOLV.lig_0>
-80.8302

>  <SCORE.INTRA.VDW>
6.49452

>  <SCORE.INTRA.VDW.0>
-4.23953

>  <SCORE.INTRA.norm>
0.396366

>  <SCORE.RESTR>
6.44522

>  <SCORE.RESTR.CAVITY>
6.44522

>  <SCORE.RESTR.norm>
0.20791

>  <SCORE.SYSTEM>
0

>  <SCORE.SYSTEM.CONST>
0

>  <SCORE.SYSTEM.DIHEDRAL>
0

>  <SCORE.SYSTEM.SOLV>
0

>  <SCORE.SYSTEM.norm>
0

>  <SCORE.heavy>
31

>  <SCORE.norm>
0.322851

>  <RMSD>
6.069

$$$$
2fcz_lig
 OpenBabel11021811433D
libRbt.so/2013.1/901 2013/11/27
 31 33  0  0  0  0  0  0  0  0999 V2000
   13.8411   13.0897   34.8665 C   0  0  0  0  0  0  0  0  0  0  0  0
   16.0442   14.5319   32.9692 N   0  0  0  0  0  0  0  0  0  0  0  0
   14.3813   12.0308   35.6616 O   0  0  0  0  0  0  0  0  0  0  0  0
   12.3103   13.0466   34.9230 C   0  0  1  0  0  0  0  0  0  0  0  0
   12.5979   17.9625   33.5182 N   0  0  0  0  0  0  0  0  0  0  0  0
   11.7157   13.9348   33.9549 O   0  0  0  0  0  0  0  0  0  0  0  0
   11.1221   13.1631   32.8920 C   0  0  1  0  0  0  0  0  0  0  0  0
   10.8314   21.7534   32.2248 N   0  0  0  0  0  0  0  0  0  0  0  0
   11.4344   13.6838   31.5888 O   0  0  0  0  0  0  0  0  0  0  0  0
   12.4831   14.6673   31.5812 C   0  0  2  0  0  0  0  0  0  0  0  0
    8.5218   15.8546   30.6513 N   0  0  0  0  0  0  0  0  0  0  0  0
   14.2283   12.9986   31.4297 O   0  0  0  0  0  0  0  0  0  0  0  0
   13.7362   14.0723   32.2353 C   0  0  1  0  0  0  0  0  0  0  0  0
   11.0054   16.6371   31.6066 O   0  0  0  0  0  0  0  0  0  0  0  0
   14.8361   15.1265   32.3809 C   0  0  1  0  0  0  0  0  0  0  0  0
   10.0637   18.2250   33.0778 O   0  0  0  0  0  0  0  0  0  0  0  0
   14.3487   16.2763   33.2652 C   0  0  0  0  0  0  0  0  0  0  0  0
    9.2457   20.6558   30.4340 O   0  0  0  0  0  0  0  0  0  0  0  0
   13.1232   16.9241   32.6175 C   0  0  1  0  0  0  0  0  0  0  0  0
    7.6156   18.4028   29.7129 O   0  0  0  0  0  0  0  0  0  0  0  0
   12.0098   15.9104   32.3320 C   0  0  2  0  0  0  0  0  0  0  0  0
   10.9359   10.7353   32.4608 O   0  0  0  0  0  0  0  0  0  0  0  0
    9.8529   16.9772   32.3911 C   0  0  1  0  0  0  0  0  0  0  0  0
   10.4930   11.4231   35.1216 O   0  0  0  0  0  0  0  0  0  0  0  0
   10.2724   19.3540   32.2119 C   0  0  2  0  0  0  0  0  0  0  0  0
   10.5139   20.5959   33.0737 C   0  0  0  0  0  0  0  0  0  0  0  0
    9.0393   19.5544   31.3238 C   0  0  2  0  0  0  0  0  0  0  0  0
    8.7982   18.2812   30.5100 C   0  0  1  0  0  0  0  0  0  0  0  0
    8.6493   17.0821   31.4492 C   0  0  1  0  0  0  0  0  0  0  0  0
   11.7300   11.7686   33.0516 C   0  0  2  0  0  0  0  0  0  0  0  0
   11.7939   11.6510   34.5732 C   0  0  1  0  0  0  0  0  0  0  0  0
  3  1  1  0  0  0  0
  4  1  1  6  0  0  0
  4  6  1  0  0  0  0
  4 31  1  0  0  0  0
  6  7  1  0  0  0  0
  7  9  1  6  0  0  0
  7 30  1  0  0  0  0
 10  9  1  1  0  0  0
 10 13  1  0  0  0  0
 10 21  1  0  0  0  0
 13 12  1  6  0  0  0
 13 15  1  0  0  0  0
 15  2  1  1  0  0  0
 15 17  1  0  0  0  0
 16 25  1  0  0  0  0
 17 19  1  0  0  0  0
 19  5  1  1  0  0  0
 19 21  1  0  0  0  0
 21 14  1  6  0  0  0
 23 14  1  6  0  0  0
 23 16  1  0  0  0  0
 23 29  1  0  0  0  0
 25 26  1  1  0  0  0
 25 27  1  0  0  0  0
 26  8  1  0  0  0  0
 27 18  1  6  0  0  0
 27 28  1  0  0  0  0
 28 20  1  1  0  0  0
 28 29  1  0  0  0  0
 29 11  1  6  0  0  0
 30 22  1  1  0  0  0
 30 31  1  0  0  0  0
 31 24  1  1  0  0  0
M  END
>  <CHROM.1>
-169.60965694,12.63255778,55.75928449,131.14739639,86.91415110,175.77597976
11.51960546,15.65718757,32.58396068,-1.10505371,-0.33814822,-0.16250449

>  <Name>
2fcz_lig

>  <RI>
0

>  <Rbt.Current_Directory>
/home/itssahil/PROJECTS/Mol_Feturizer/New_Systems/rnas/2fcz

>  <Rbt.Executable>
rbdock ($Id: //depot/dev/client3/rdock/2013.1/src/exe/rbdock.cxx#4 $)

>  <Rbt.Library>
libRbt.so (2013.1, Build901 2013/11/27)

>  <Rbt.Parameter_File>
/export/apps/rDock/src/rDock_2013.1_src/data/scripts/dock_solv.prm

>  <Rbt.Receptor>
prm/blind_docking_40.prm

>  <SCORE>
12.1233

>  <SCORE.INTER>
-4.71358

>  <SCORE.INTER.CONST>
1

>  <SCORE.INTER.POLAR>
0

>  <SCORE.INTER.ROT>
6

>  <SCORE.INTER.SOLV>
22.5538

>  <SCORE.INTER.VDW>
-18.2603

>  <SCORE.INTER.norm>
-0.152051

>  <SCORE.INTRA>
10.6032

>  <SCORE.INTRA.DIHEDRAL>
5.68447

>  <SCORE.INTRA.DIHEDRAL.0>
10.8409

>  <SCORE.INTRA.POLAR>
0

>  <SCORE.INTRA.POLAR.0>
0

>  <SCORE.INTRA.REPUL>
0

>  <SCORE.INTRA.REPUL.0>
0

>  <SCORE.INTRA.SOLV>
3.29484

>  <SCORE.INTRA.SOLV.lig_0>
-80.8302

>  <SCORE.INTRA.VDW>
6.11356

>  <SCORE.INTRA.VDW.0>
-4.23953

>  <SCORE.INTRA.norm>
0.342039

>  <SCORE.RESTR>
6.23366

>  <SCORE.RESTR.CAVITY>
6.23366

>  <SCORE.RESTR.norm>
0.201086

>  <SCORE.SYSTEM>
0

>  <SCORE.SYSTEM.CONST>
0

>  <SCORE.SYSTEM.DIHEDRAL>
0

>  <SCORE.SYSTEM.SOLV>
0

>  <SCORE.SYSTEM.norm>
0

>  <SCORE.heavy>
31

>  <SCORE.norm>
0.391074

>  <RMSD>
6.072

$$$$
2fcz_lig
 OpenBabel11021811433D
libRbt.so/2013.1/901 2013/11/27
 31 33  0  0  0  0  0  0  0  0999 V2000
    7.9992   18.3256   30.4374 C   0  0  0  0  0  0  0  0  0  0  0  0
   10.5723   23.0086   33.3067 N   0  0  0  0  0  0  0  0  0  0  0  0
    8.0363   19.6740   29.9620 O   0  0  0  0  0  0  0  0  0  0  0  0
    9.3861   17.9217   30.9491 C   0  0  1  0  0  0  0  0  0  0  0  0
   13.5322   19.9063   35.6650 N   0  0  0  0  0  0  0  0  0  0  0  0
    9.7702   18.6875   32.1091 O   0  0  0  0  0  0  0  0  0  0  0  0
    9.7295   17.8458   33.2786 C   0  0  1  0  0  0  0  0  0  0  0  0
    7.4398   16.1794   35.7568 N   0  0  0  0  0  0  0  0  0  0  0  0
    9.0883   18.4826   34.3968 O   0  0  0  0  0  0  0  0  0  0  0  0
    9.7939   19.6250   34.9106 C   0  0  2  0  0  0  0  0  0  0  0  0
   12.2413   19.0663   38.9175 N   0  0  0  0  0  0  0  0  0  0  0  0
    8.4307   21.1916   33.6691 O   0  0  0  0  0  0  0  0  0  0  0  0
    9.7746   20.7428   33.8606 C   0  0  1  0  0  0  0  0  0  0  0  0
   11.2905   18.3667   36.4075 O   0  0  0  0  0  0  0  0  0  0  0  0
   10.6348   21.9293   34.3019 C   0  0  1  0  0  0  0  0  0  0  0  0
    9.1253   17.9127   37.2312 O   0  0  0  0  0  0  0  0  0  0  0  0
   12.0878   21.4858   34.4856 C   0  0  0  0  0  0  0  0  0  0  0  0
   10.0576   14.7251   38.8243 O   0  0  0  0  0  0  0  0  0  0  0  0
   12.1500   20.4004   35.5621 C   0  0  1  0  0  0  0  0  0  0  0  0
   11.6482   16.6213   40.2831 O   0  0  0  0  0  0  0  0  0  0  0  0
   11.2258   19.2177   35.2523 C   0  0  2  0  0  0  0  0  0  0  0  0
    9.1685   15.4638   33.6332 O   0  0  0  0  0  0  0  0  0  0  0  0
   10.3250   18.6859   37.4201 C   0  0  1  0  0  0  0  0  0  0  0  0
   10.7128   15.9098   31.3604 O   0  0  0  0  0  0  0  0  0  0  0  0
    9.3116   16.4900   37.3283 C   0  0  2  0  0  0  0  0  0  0  0  0
    7.9687   15.8004   37.0751 C   0  0  0  0  0  0  0  0  0  0  0  0
    9.8370   16.1353   38.7238 C   0  0  2  0  0  0  0  0  0  0  0  0
   11.1550   16.8748   38.9636 C   0  0  1  0  0  0  0  0  0  0  0  0
   10.9482   18.3807   38.7860 C   0  0  1  0  0  0  0  0  0  0  0  0
    8.9155   16.6275   32.8400 C   0  0  2  0  0  0  0  0  0  0  0  0
    9.3938   16.4608   31.3989 C   0  0  1  0  0  0  0  0  0  0  0  0
  3  1  1  0  0  0  0
  4  1  1  1  0  0  0
  4  6  1  0  0  0  0
  4 31  1  0  0  0  0
  6  7  1  0  0  0  0
  7  9  1  1  0  0  0
  7 30  1  0  0  0  0
 10  9  1  6  0  0  0
 10 13  1  0  0  0  0
 10 21  1  0  0  0  0
 13 12  1  1  0  0  0
 13 15  1  0  0  0  0
 15  2  1  6  0  0  0
 15 17  1  0  0  0  0
 16 25  1  0  0  0  0
 17 19  1  0  0  0  0
 19  5  1  6  0  0  0
 19 21  1  0  0  0  0
 21 14  1  1  0  0  0
 23 14  1  6  0  0  0
 23 16  1  0  0  0  0
 23 29  1  0  0  0  0
 25 26  1  1  0  0  0
 25 27  1  0  0  0  0
 26  8  1  0  0  0  0
 27 18  1  6  0  0  0
 27 28  1  0  0  0  0
 28 20  1  1  0  0  0
 28 29  1  0  0  0  0
 29 11  1  6  0  0  0
 30 22  1  1  0  0  0
 30 31  1  0  0  0  0
 31 24  1  1  0  0  0
M  END
>  <CHROM.1>
65.39272649,-65.70546393,66.81533219,-35.73788517,92.26374431,57.75569972
10.03771111,18.29737246,35.04892087,1.98500535,-1.07471687,-0.91727778

>  <Name>
2fcz_lig

>  <RI>
2.29611e+07

>  <Rbt.Current_Directory>
/home/itssahil/PROJECTS/Mol_Feturizer/New_Systems/rnas/2fcz

>  <Rbt.Executable>
rbdock ($Id: //depot/dev/client3/rdock/2013.1/src/exe/rbdock.cxx#4 $)

>  <Rbt.Library>
libRbt.so (2013.1, Build901 2013/11/27)

>  <Rbt.Parameter_File>
/export/apps/rDock/src/rDock_2013.1_src/data/scripts/dock_solv.prm

>  <Rbt.Receptor>
prm/pocket_docking_3.prm

>  <SCORE>
-12.8088

>  <SCORE.INTER>
-14.7935

>  <SCORE.INTER.CONST>
1

>  <SCORE.INTER.POLAR>
-1.81188

>  <SCORE.INTER.ROT>
6

>  <SCORE.INTER.SOLV>
16.3525

>  <SCORE.INTER.VDW>
-16.8736

>  <SCORE.INTER.norm>
-0.47721

>  <SCORE.INTRA>
1.98468

>  <SCORE.INTRA.DIHEDRAL>
-3.66821

>  <SCORE.INTRA.DIHEDRAL.0>
10.8409

>  <SCORE.INTRA.POLAR>
0

>  <SCORE.INTRA.POLAR.0>
0

>  <SCORE.INTRA.REPUL>
0

>  <SCORE.INTRA.REPUL.0>
0

>  <SCORE.INTRA.SOLV>
1.52075

>  <SCORE.INTRA.SOLV.lig_0>
-80.8302

>  <SCORE.INTRA.VDW>
3.05841

>  <SCORE.INTRA.VDW.0>
-4.23953

>  <SCORE.INTRA.norm>
0.0640219

>  <SCORE.RESTR>
0

>  <SCORE.RESTR.CAVITY>
0

>  <SCORE.RESTR.norm>
0

>  <SCORE.SYSTEM>
0

>  <SCORE.SYSTEM.CONST>
0

>  <SCORE.SYSTEM.DIHEDRAL>
0

>  <SCORE.SYSTEM.SOLV>
0

>  <SCORE.SYSTEM.norm>
0

>  <SCORE.heavy>
31

>  <SCORE.norm>
-0.413188

>  <RMSD>
6.074

$$$$
2fcz_lig
 OpenBabel11021811433D
libRbt.so/2013.1/901 2013/11/27
 31 33  0  0  0  0  0  0  0  0999 V2000
   13.7105   11.8931   34.3120 C   0  0  0  0  0  0  0  0  0  0  0  0
   15.7865   13.3543   31.7346 N   0  0  0  0  0  0  0  0  0  0  0  0
   14.2193   10.9572   35.2663 O   0  0  0  0  0  0  0  0  0  0  0  0
   12.6389   12.7686   34.9704 C   0  0  1  0  0  0  0  0  0  0  0  0
   14.0641   17.7363   33.0684 N   0  0  0  0  0  0  0  0  0  0  0  0
   12.3246   13.9229   34.1650 O   0  0  0  0  0  0  0  0  0  0  0  0
   11.0150   13.7642   33.5840 C   0  0  1  0  0  0  0  0  0  0  0  0
    8.5322   20.7330   33.9892 N   0  0  0  0  0  0  0  0  0  0  0  0
   10.9815   14.1155   32.1902 O   0  0  0  0  0  0  0  0  0  0  0  0
   12.2032   14.6904   31.6962 C   0  0  2  0  0  0  0  0  0  0  0  0
    9.4360   15.5482   31.0036 N   0  0  0  0  0  0  0  0  0  0  0  0
   13.1443   12.5346   31.1301 O   0  0  0  0  0  0  0  0  0  0  0  0
   13.3538   13.7029   31.9271 C   0  0  1  0  0  0  0  0  0  0  0  0
   11.5432   17.0412   32.0153 O   0  0  0  0  0  0  0  0  0  0  0  0
   14.6997   14.3256   31.5488 C   0  0  1  0  0  0  0  0  0  0  0  0
   10.1221   18.3079   33.4113 O   0  0  0  0  0  0  0  0  0  0  0  0
   14.9666   15.5632   32.4083 C   0  0  0  0  0  0  0  0  0  0  0  0
    8.7310   20.3459   30.6765 O   0  0  0  0  0  0  0  0  0  0  0  0
   13.8592   16.5911   32.1673 C   0  0  1  0  0  0  0  0  0  0  0  0
    7.8606   17.7017   29.9667 O   0  0  0  0  0  0  0  0  0  0  0  0
   12.4619   16.0125   32.4160 C   0  0  2  0  0  0  0  0  0  0  0  0
    9.3043   11.9839   33.7220 O   0  0  0  0  0  0  0  0  0  0  0  0
   10.3124   17.0416   32.7531 C   0  0  1  0  0  0  0  0  0  0  0  0
   10.5171   12.5440   36.1643 O   0  0  0  0  0  0  0  0  0  0  0  0
   10.0244   19.4335   32.5215 C   0  0  2  0  0  0  0  0  0  0  0  0
    9.8586   20.7061   33.3558 C   0  0  0  0  0  0  0  0  0  0  0  0
    8.8218   19.2479   31.5895 C   0  0  2  0  0  0  0  0  0  0  0  0
    8.9954   17.9462   30.8040 C   0  0  1  0  0  0  0  0  0  0  0  0
    9.1679   16.7725   31.7708 C   0  0  1  0  0  0  0  0  0  0  0  0
   10.7049   12.2757   33.7502 C   0  0  2  0  0  0  0  0  0  0  0  0
   11.3260   11.9996   35.1182 C   0  0  1  0  0  0  0  0  0  0  0  0
  3  1  1  0  0  0  0
  4  1  1  6  0  0  0
  4  6  1  0  0  0  0
  4 31  1  0  0  0  0
  6  7  1  0  0  0  0
  7  9  1  6  0  0  0
  7 30  1  0  0  0  0
 10  9  1  1  0  0  0
 10 13  1  0  0  0  0
 10 21  1  0  0  0  0
 13 12  1  6  0  0  0
 13 15  1  0  0  0  0
 15  2  1  1  0  0  0
 15 17  1  0  0  0  0
 16 25  1  0  0  0  0
 17 19  1  0  0  0  0
 19  5  1  1  0  0  0
 19 21  1  0  0  0  0
 21 14  1  6  0  0  0
 23 14  1  6  0  0  0
 23 16  1  0  0  0  0
 23 29  1  0  0  0  0
 25 26  1  1  0  0  0
 25 27  1  0  0  0  0
 26  8  1  0  0  0  0
 27 18  1  6  0  0  0
 27 28  1  0  0  0  0
 28 20  1  1  0  0  0
 28 29  1  0  0  0  0
 29 11  1  6  0  0  0
 30 22  1  1  0  0  0
 30 31  1  0  0  0  0
 31 24  1  1  0  0  0
M  END
>  <CHROM.1>
166.15736704,-6.61407832,58.05372967,86.13838433,121.33699650,-70.08201229
11.41740214,15.50970275,32.75808090,1.05641303,-0.22592600,2.74808020

>  <Name>
2fcz_lig

>  <RI>
0

>  <Rbt.Current_Directory>
/home/itssahil/PROJECTS/Mol_Feturizer/New_Systems/rnas/2fcz

>  <Rbt.Executable>
rbdock ($Id: //depot/dev/client3/rdock/2013.1/src/exe/rbdock.cxx#4 $)

>  <Rbt.Library>
libRbt.so (2013.1, Build901 2013/11/27)

>  <Rbt.Parameter_File>
/export/apps/rDock/src/rDock_2013.1_src/data/scripts/dock_solv.prm

>  <Rbt.Receptor>
prm/blind_docking_40.prm

>  <SCORE>
9.6809

>  <SCORE.INTER>
-8.6261

>  <SCORE.INTER.CONST>
1

>  <SCORE.INTER.POLAR>
-0.830577

>  <SCORE.INTER.ROT>
6

>  <SCORE.INTER.SOLV>
20.915

>  <SCORE.INTER.VDW>
-17.5538

>  <SCORE.INTER.norm>
-0.278261

>  <SCORE.INTRA>
11.0038

>  <SCORE.INTRA.DIHEDRAL>
7.22188

>  <SCORE.INTRA.DIHEDRAL.0>
10.8409

>  <SCORE.INTRA.POLAR>
0

>  <SCORE.INTRA.POLAR.0>
0

>  <SCORE.INTRA.REPUL>
0

>  <SCORE.INTRA.REPUL.0>
0

>  <SCORE.INTRA.SOLV>
2.15703

>  <SCORE.INTRA.SOLV.lig_0>
-80.8302

>  <SCORE.INTRA.VDW>
6.31436

>  <SCORE.INTRA.VDW.0>
-4.23953

>  <SCORE.INTRA.norm>
0.354962

>  <SCORE.RESTR>
7.30319

>  <SCORE.RESTR.CAVITY>
7.30319

>  <SCORE.RESTR.norm>
0.235587

>  <SCORE.SYSTEM>
0

>  <SCORE.SYSTEM.CONST>
0

>  <SCORE.SYSTEM.DIHEDRAL>
0

>  <SCORE.SYSTEM.SOLV>
0

>  <SCORE.SYSTEM.norm>
0

>  <SCORE.heavy>
31

>  <SCORE.norm>
0.312287

>  <RMSD>
6.075

$$$$
2fcz_lig
 OpenBabel11021811433D
libRbt.so/2013.1/901 2013/11/27
 31 33  0  0  0  0  0  0  0  0999 V2000
    8.5325   18.6282   30.5280 C   0  0  0  0  0  0  0  0  0  0  0  0
   11.6081   23.2739   33.3033 N   0  0  0  0  0  0  0  0  0  0  0  0
    7.4176   18.9241   31.3735 O   0  0  0  0  0  0  0  0  0  0  0  0
    9.7242   18.1852   31.3836 C   0  0  1  0  0  0  0  0  0  0  0  0
   12.9611   20.3079   36.9528 N   0  0  0  0  0  0  0  0  0  0  0  0
    9.9869   19.1150   32.4542 O   0  0  0  0  0  0  0  0  0  0  0  0
    9.6042   18.5239   33.7120 C   0  0  1  0  0  0  0  0  0  0  0  0
   13.0908   16.4845   35.1630 N   0  0  0  0  0  0  0  0  0  0  0  0
    8.8604   19.4291   34.5454 O   0  0  0  0  0  0  0  0  0  0  0  0
    9.6363   20.5173   35.0753 C   0  0  2  0  0  0  0  0  0  0  0  0
    8.4024   18.6752   39.0450 N   0  0  0  0  0  0  0  0  0  0  0  0
    9.0898   21.9811   33.2280 O   0  0  0  0  0  0  0  0  0  0  0  0
   10.1793   21.3604   33.9149 C   0  0  1  0  0  0  0  0  0  0  0  0
   10.3059   19.3829   37.1558 O   0  0  0  0  0  0  0  0  0  0  0  0
   11.1299   22.4481   34.4206 C   0  0  1  0  0  0  0  0  0  0  0  0
   10.5405   17.1602   36.3960 O   0  0  0  0  0  0  0  0  0  0  0  0
   12.3244   21.8119   35.1349 C   0  0  0  0  0  0  0  0  0  0  0  0
   12.4704   16.0301   39.3228 O   0  0  0  0  0  0  0  0  0  0  0  0
   11.8212   20.9983   36.3290 C   0  0  1  0  0  0  0  0  0  0  0  0
    9.9528   16.7583   40.4997 O   0  0  0  0  0  0  0  0  0  0  0  0
   10.7745   19.9545   35.9244 C   0  0  2  0  0  0  0  0  0  0  0  0
    8.6497   16.3286   34.3319 O   0  0  0  0  0  0  0  0  0  0  0  0
    9.6483   18.1174   36.9967 C   0  0  1  0  0  0  0  0  0  0  0  0
   10.6455   16.1606   32.3985 O   0  0  0  0  0  0  0  0  0  0  0  0
   11.7177   16.8744   37.1710 C   0  0  2  0  0  0  0  0  0  0  0  0
   12.5824   15.8740   36.4000 C   0  0  0  0  0  0  0  0  0  0  0  0
   11.3094   16.2897   38.5278 C   0  0  2  0  0  0  0  0  0  0  0  0
   10.4100   17.2930   39.2532 C   0  0  1  0  0  0  0  0  0  0  0  0
    9.2005   17.6356   38.3804 C   0  0  1  0  0  0  0  0  0  0  0  0
    8.7219   17.3376   33.3199 C   0  0  2  0  0  0  0  0  0  0  0  0
    9.4363   16.8461   32.0624 C   0  0  1  0  0  0  0  0  0  0  0  0
  3  1  1  0  0  0  0
  4  1  1  1  0  0  0
  4  6  1  0  0  0  0
  4 31  1  0  0  0  0
  6  7  1  0  0  0  0
  7  9  1  1  0  0  0
  7 30  1  0  0  0  0
 10  9  1  6  0  0  0
 10 13  1  0  0  0  0
 10 21  1  0  0  0  0
 13 12  1  1  0  0  0
 13 15  1  0  0  0  0
 15  2  1  6  0  0  0
 15 17  1  0  0  0  0
 16 25  1  0  0  0  0
 17 19  1  0  0  0  0
 19  5  1  6  0  0  0
 19 21  1  0  0  0  0
 21 14  1  1  0  0  0
 23 14  1  1  0  0  0
 23 16  1  0  0  0  0
 23 29  1  0  0  0  0
 25 26  1  6  0  0  0
 25 27  1  0  0  0  0
 26  8  1  0  0  0  0
 27 18  1  1  0  0  0
 27 28  1  0  0  0  0
 28 20  1  1  0  0  0
 28 29  1  0  0  0  0
 29 11  1  1  0  0  0
 30 22  1  1  0  0  0
 30 31  1  0  0  0  0
 31 24  1  1  0  0  0
M  END
>  <CHROM.1>
-50.68505946,-69.81814692,61.52227816,74.05263908,59.36152442,65.76434671
10.32475635,18.64118565,35.30172957,2.24284558,-1.21324201,-0.53235015

>  <Name>
2fcz_lig

>  <RI>
0

>  <Rbt.Current_Directory>
/home/itssahil/PROJECTS/Mol_Feturizer/New_Systems/rnas/2fcz

>  <Rbt.Executable>
rbdock ($Id: //depot/dev/client3/rdock/2013.1/src/exe/rbdock.cxx#4 $)

>  <Rbt.Library>
libRbt.so (2013.1, Build901 2013/11/27)

>  <Rbt.Parameter_File>
/export/apps/rDock/src/rDock_2013.1_src/data/scripts/dock_solv.prm

>  <Rbt.Receptor>
prm/pocket_docking_5.prm

>  <SCORE>
-15.5318

>  <SCORE.INTER>
-12.1166

>  <SCORE.INTER.CONST>
1

>  <SCORE.INTER.POLAR>
-1.01961

>  <SCORE.INTER.ROT>
6

>  <SCORE.INTER.SOLV>
14.4275

>  <SCORE.INTER.VDW>
-17.0882

>  <SCORE.INTER.norm>
-0.390858

>  <SCORE.INTRA>
-3.41516

>  <SCORE.INTRA.DIHEDRAL>
-8.86917

>  <SCORE.INTRA.DIHEDRAL.0>
10.8409

>  <SCORE.INTRA.POLAR>
0

>  <SCORE.INTRA.POLAR.0>
0

>  <SCORE.INTRA.REPUL>
0

>  <SCORE.INTRA.REPUL.0>
0

>  <SCORE.INTRA.SOLV>
-0.925071

>  <SCORE.INTRA.SOLV.lig_0>
-80.8302

>  <SCORE.INTRA.VDW>
1.48196

>  <SCORE.INTRA.VDW.0>
-4.23953

>  <SCORE.INTRA.norm>
-0.110167

>  <SCORE.RESTR>
0

>  <SCORE.RESTR.CAVITY>
0

>  <SCORE.RESTR.norm>
0

>  <SCORE.SYSTEM>
0

>  <SCORE.SYSTEM.CONST>
0

>  <SCORE.SYSTEM.DIHEDRAL>
0

>  <SCORE.SYSTEM.SOLV>
0

>  <SCORE.SYSTEM.norm>
0

>  <SCORE.heavy>
31

>  <SCORE.norm>
-0.501024

>  <RMSD>
6.076

$$$$
2fcz_lig
 OpenBabel11021811433D
libRbt.so/2013.1/901 2013/11/27
 31 33  0  0  0  0  0  0  0  0999 V2000
    8.3221   17.9200   30.8216 C   0  0  0  0  0  0  0  0  0  0  0  0
    8.7016   17.2944   38.9006 N   0  0  0  0  0  0  0  0  0  0  0  0
    8.3924   19.1827   30.1536 O   0  0  0  0  0  0  0  0  0  0  0  0
    9.7384   17.4032   31.0962 C   0  0  1  0  0  0  0  0  0  0  0  0
   12.9862   19.5640   38.2381 N   0  0  0  0  0  0  0  0  0  0  0  0
   10.4437   18.2495   32.0267 O   0  0  0  0  0  0  0  0  0  0  0  0
   10.5739   17.5722   33.2924 C   0  0  1  0  0  0  0  0  0  0  0  0
   13.1548   23.5038   33.9424 N   0  0  0  0  0  0  0  0  0  0  0  0
   10.2619   18.4219   34.4096 O   0  0  0  0  0  0  0  0  0  0  0  0
   10.6782   17.9003   35.6830 C   0  0  2  0  0  0  0  0  0  0  0  0
   14.6691   17.6706   33.5902 N   0  0  0  0  0  0  0  0  0  0  0  0
    8.5349   16.8610   36.1072 O   0  0  0  0  0  0  0  0  0  0  0  0
    9.4636   17.8215   36.6162 C   0  0  1  0  0  0  0  0  0  0  0  0
   13.0037   18.7001   35.5548 O   0  0  0  0  0  0  0  0  0  0  0  0
    9.8797   17.4072   38.0296 C   0  0  1  0  0  0  0  0  0  0  0  0
   12.7472   20.7534   34.4186 O   0  0  0  0  0  0  0  0  0  0  0  0
   10.8520   18.4343   38.6138 C   0  0  0  0  0  0  0  0  0  0  0  0
   16.1085   22.0011   35.2628 O   0  0  0  0  0  0  0  0  0  0  0  0
   12.0991   18.5054   37.7303 C   0  0  1  0  0  0  0  0  0  0  0  0
   16.7026   19.6837   33.6721 O   0  0  0  0  0  0  0  0  0  0  0  0
   11.7606   18.8065   36.2663 C   0  0  2  0  0  0  0  0  0  0  0  0
    9.8626   15.3477   34.1050 O   0  0  0  0  0  0  0  0  0  0  0  0
   12.9966   19.3430   34.2719 C   0  0  1  0  0  0  0  0  0  0  0  0
   10.9092   15.3003   31.5259 O   0  0  0  0  0  0  0  0  0  0  0  0
   13.7403   21.4579   35.1838 C   0  0  2  0  0  0  0  0  0  0  0  0
   13.3305   22.9292   35.2842 C   0  0  0  0  0  0  0  0  0  0  0  0
   15.1038   21.3312   34.4951 C   0  0  2  0  0  0  0  0  0  0  0  0
   15.4635   19.8493   34.3691 C   0  0  1  0  0  0  0  0  0  0  0  0
   14.3594   19.1069   33.6129 C   0  0  1  0  0  0  0  0  0  0  0  0
    9.5629   16.4271   33.2148 C   0  0  2  0  0  0  0  0  0  0  0  0
    9.6944   16.0212   31.7481 C   0  0  1  0  0  0  0  0  0  0  0  0
  3  1  1  0  0  0  0
  4  1  1  1  0  0  0
  4  6  1  0  0  0  0
  4 31  1  0  0  0  0
  6  7  1  0  0  0  0
  7  9  1  1  0  0  0
  7 30  1  0  0  0  0
 10  9  1  6  0  0  0
 10 13  1  0  0  0  0
 10 21  1  0  0  0  0
 13 12  1  6  0  0  0
 13 15  1  0  0  0  0
 15  2  1  1  0  0  0
 15 17  1  0  0  0  0
 16 25  1  0  0  0  0
 17 19  1  0  0  0  0
 19  5  1  1  0  0  0
 19 21  1  0  0  0  0
 21 14  1  6  0  0  0
 23 14  1  1  0  0  0
 23 16  1  0  0  0  0
 23 29  1  0  0  0  0
 25 26  1  6  0  0  0
 25 27  1  0  0  0  0
 26  8  1  0  0  0  0
 27 18  1  1  0  0  0
 27 28  1  0  0  0  0
 28 20  1  6  0  0  0
 28 29  1  0  0  0  0
 29 11  1  1  0  0  0
 30 22  1  1  0  0  0
 30 31  1  0  0  0  0
 31 24  1  1  0  0  0
M  END
>  <CHROM.1>
65.34801358,-165.94002618,-123.82061541,73.99048960,61.07696269,-56.63988197
11.74122816,18.72926541,34.54611497,-2.84659990,0.64490495,1.52974267

>  <Name>
2fcz_lig

>  <RI>
0

>  <Rbt.Current_Directory>
/home/itssahil/PROJECTS/Mol_Feturizer/New_Systems/rnas/2fcz

>  <Rbt.Executable>
rbdock ($Id: //depot/dev/client3/rdock/2013.1/src/exe/rbdock.cxx#4 $)

>  <Rbt.Library>
libRbt.so (2013.1, Build901 2013/11/27)

>  <Rbt.Parameter_File>
/export/apps/rDock/src/rDock_2013.1_src/data/scripts/dock_solv.prm

>  <Rbt.Receptor>
prm/pocket_docking_6.prm

>  <SCORE>
-13.495

>  <SCORE.INTER>
-12.6862

>  <SCORE.INTER.CONST>
1

>  <SCORE.INTER.POLAR>
-1.42945

>  <SCORE.INTER.ROT>
6

>  <SCORE.INTER.SOLV>
11.6156

>  <SCORE.INTER.VDW>
-15.1645

>  <SCORE.INTER.norm>
-0.409232

>  <SCORE.INTRA>
-0.808844

>  <SCORE.INTRA.DIHEDRAL>
-1.59814

>  <SCORE.INTRA.DIHEDRAL.0>
10.8409

>  <SCORE.INTRA.POLAR>
0

>  <SCORE.INTRA.POLAR.0>
0

>  <SCORE.INTRA.REPUL>
0

>  <SCORE.INTRA.REPUL.0>
0

>  <SCORE.INTRA.SOLV>
-1.40215

>  <SCORE.INTRA.SOLV.lig_0>
-80.8302

>  <SCORE.INTRA.VDW>
0.691297

>  <SCORE.INTRA.VDW.0>
-4.23953

>  <SCORE.INTRA.norm>
-0.0260917

>  <SCORE.RESTR>
0

>  <SCORE.RESTR.CAVITY>
0

>  <SCORE.RESTR.norm>
0

>  <SCORE.SYSTEM>
0

>  <SCORE.SYSTEM.CONST>
0

>  <SCORE.SYSTEM.DIHEDRAL>
0

>  <SCORE.SYSTEM.SOLV>
0

>  <SCORE.SYSTEM.norm>
0

>  <SCORE.heavy>
31

>  <SCORE.norm>
-0.435323

>  <RMSD>
6.079

$$$$
2fcz_lig
 OpenBabel11021811433D
libRbt.so/2013.1/901 2013/11/27
 31 33  0  0  0  0  0  0  0  0999 V2000
   15.6597   17.0102   37.8120 C   0  0  0  0  0  0  0  0  0  0  0  0
   10.1299   19.1805   37.5601 N   0  0  0  0  0  0  0  0  0  0  0  0
   14.5415   16.6712   38.6368 O   0  0  0  0  0  0  0  0  0  0  0  0
   15.2616   16.9042   36.3360 C   0  0  1  0  0  0  0  0  0  0  0  0
   10.6533   19.3603   32.6979 N   0  0  0  0  0  0  0  0  0  0  0  0
   14.2578   17.8776   35.9833 O   0  0  0  0  0  0  0  0  0  0  0  0
   14.8460   18.8992   35.1538 C   0  0  1  0  0  0  0  0  0  0  0  0
   15.6175   23.2349   35.8001 N   0  0  0  0  0  0  0  0  0  0  0  0
   14.4599   20.2257   35.5517 O   0  0  0  0  0  0  0  0  0  0  0  0
   13.0484   20.4829   35.4594 C   0  0  2  0  0  0  0  0  0  0  0  0
   11.7086   21.9760   30.8363 N   0  0  0  0  0  0  0  0  0  0  0  0
   12.7215   20.2847   37.8485 O   0  0  0  0  0  0  0  0  0  0  0  0
   12.3259   19.7374   36.5883 C   0  0  1  0  0  0  0  0  0  0  0  0
   13.0048   20.8792   33.0294 O   0  0  0  0  0  0  0  0  0  0  0  0
   10.8070   19.8630   36.4488 C   0  0  1  0  0  0  0  0  0  0  0  0
   13.4398   22.9988   33.9733 O   0  0  0  0  0  0  0  0  0  0  0  0
   10.3490   19.2568   35.1205 C   0  0  0  0  0  0  0  0  0  0  0  0
   16.1260   23.8529   31.6021 O   0  0  0  0  0  0  0  0  0  0  0  0
   11.0170   20.0089   33.9677 C   0  0  1  0  0  0  0  0  0  0  0  0
   13.8411   23.6265   29.8755 O   0  0  0  0  0  0  0  0  0  0  0  0
   12.5444   20.0284   34.0911 C   0  0  2  0  0  0  0  0  0  0  0  0
   17.1261   19.2560   34.2656 O   0  0  0  0  0  0  0  0  0  0  0  0
   12.5521   22.2369   33.1340 C   0  0  1  0  0  0  0  0  0  0  0  0
   16.2928   16.6029   34.1398 O   0  0  0  0  0  0  0  0  0  0  0  0
   14.7890   23.0918   33.4843 C   0  0  2  0  0  0  0  0  0  0  0  0
   15.6204   23.8959   34.4869 C   0  0  0  0  0  0  0  0  0  0  0  0
   14.7924   23.7821   32.1158 C   0  0  2  0  0  0  0  0  0  0  0  0
   13.9172   22.9800   31.1502 C   0  0  1  0  0  0  0  0  0  0  0  0
   12.5060   22.8339   31.7239 C   0  0  1  0  0  0  0  0  0  0  0  0
   16.3531   18.7198   35.3438 C   0  0  2  0  0  0  0  0  0  0  0  0
   16.4569   17.1982   35.4295 C   0  0  1  0  0  0  0  0  0  0  0  0
  3  1  1  0  0  0  0
  4  1  1  1  0  0  0
  4  6  1  0  0  0  0
  4 31  1  0  0  0  0
  6  7  1  0  0  0  0
  7  9  1  1  0  0  0
  7 30  1  0  0  0  0
 10  9  1  6  0  0  0
 10 13  1  0  0  0  0
 10 21  1  0  0  0  0
 13 12  1  1  0  0  0
 13 15  1  0  0  0  0
 15  2  1  1  0  0  0
 15 17  1  0  0  0  0
 16 25  1  0  0  0  0
 17 19  1  0  0  0  0
 19  5  1  6  0  0  0
 19 21  1  0  0  0  0
 21 14  1  6  0  0  0
 23 14  1  6  0  0  0
 23 16  1  0  0  0  0
 23 29  1  0  0  0  0
 25 26  1  1  0  0  0
 25 27  1  0  0  0  0
 26  8  1  0  0  0  0
 27 18  1  6  0  0  0
 27 28  1  0  0  0  0
 28 20  1  6  0  0  0
 28 29  1  0  0  0  0
 29 11  1  6  0  0  0
 30 22  1  6  0  0  0
 30 31  1  0  0  0  0
 31 24  1  6  0  0  0
M  END
>  <CHROM.1>
65.17363144,-61.98610929,72.89956544,-62.00637410,85.90952819,59.82996746
13.80693179,20.40723013,34.51018645,-1.50027667,0.08804381,-0.74340344

>  <Name>
2fcz_lig

>  <RI>
2.76032e+07

>  <Rbt.Current_Directory>
/home/itssahil/PROJECTS/Mol_Feturizer/New_Systems/rnas/2fcz

>  <Rbt.Executable>
rbdock ($Id: //depot/dev/client3/rdock/2013.1/src/exe/rbdock.cxx#4 $)

>  <Rbt.Library>
libRbt.so (2013.1, Build901 2013/11/27)

>  <Rbt.Parameter_File>
/export/apps/rDock/src/rDock_2013.1_src/data/scripts/dock_solv.prm

>  <Rbt.Receptor>
prm/pocket_docking_8.prm

>  <SCORE>
-13.43

>  <SCORE.INTER>
-12.8498

>  <SCORE.INTER.CONST>
1

>  <SCORE.INTER.POLAR>
-1.95651

>  <SCORE.INTER.ROT>
6

>  <SCORE.INTER.SOLV>
13.1

>  <SCORE.INTER.VDW>
-14.0115

>  <SCORE.INTER.norm>
-0.414511

>  <SCORE.INTRA>
-0.580204

>  <SCORE.INTRA.DIHEDRAL>
-6.92597

>  <SCORE.INTRA.DIHEDRAL.0>
10.8409

>  <SCORE.INTRA.POLAR>
0

>  <SCORE.INTRA.POLAR.0>
0

>  <SCORE.INTRA.REPUL>
0

>  <SCORE.INTRA.REPUL.0>
0

>  <SCORE.INTRA.SOLV>
-0.398603

>  <SCORE.INTRA.SOLV.lig_0>
-80.8302

>  <SCORE.INTRA.VDW>
3.08208

>  <SCORE.INTRA.VDW.0>
-4.23953

>  <SCORE.INTRA.norm>
-0.0187163

>  <SCORE.RESTR>
0

>  <SCORE.RESTR.CAVITY>
0

>  <SCORE.RESTR.norm>
0

>  <SCORE.SYSTEM>
0

>  <SCORE.SYSTEM.CONST>
0

>  <SCORE.SYSTEM.DIHEDRAL>
0

>  <SCORE.SYSTEM.SOLV>
0

>  <SCORE.SYSTEM.norm>
0

>  <SCORE.heavy>
31

>  <SCORE.norm>
-0.433227

>  <RMSD>
6.081

$$$$
2fcz_lig
 OpenBabel11021811433D
libRbt.so/2013.1/901 2013/11/27
 31 33  0  0  0  0  0  0  0  0999 V2000
   11.8457   10.3732   34.6031 C   0  0  0  0  0  0  0  0  0  0  0  0
   17.2516   15.1141   33.4364 N   0  0  0  0  0  0  0  0  0  0  0  0
   11.5277   10.9278   35.8825 O   0  0  0  0  0  0  0  0  0  0  0  0
   11.0892   11.1347   33.5094 C   0  0  1  0  0  0  0  0  0  0  0  0
   14.0989   18.8339   33.0229 N   0  0  0  0  0  0  0  0  0  0  0  0
   10.9007   12.5212   33.8580 O   0  0  0  0  0  0  0  0  0  0  0  0
   11.7516   13.3456   33.0370 C   0  0  1  0  0  0  0  0  0  0  0  0
    9.3172   21.3675   32.5541 N   0  0  0  0  0  0  0  0  0  0  0  0
   12.4373   14.3584   33.7928 O   0  0  0  0  0  0  0  0  0  0  0  0
   13.4467   15.0660   33.0529 C   0  0  2  0  0  0  0  0  0  0  0  0
   10.3699   15.0159   31.4596 N   0  0  0  0  0  0  0  0  0  0  0  0
   15.0782   13.3017   33.3343 O   0  0  0  0  0  0  0  0  0  0  0  0
   14.8293   14.6850   33.5963 C   0  0  1  0  0  0  0  0  0  0  0  0
   12.0388   16.9956   32.4540 O   0  0  0  0  0  0  0  0  0  0  0  0
   15.9302   15.5196   32.9376 C   0  0  1  0  0  0  0  0  0  0  0  0
   10.3025   17.9836   33.7117 O   0  0  0  0  0  0  0  0  0  0  0  0
   15.7077   17.0057   33.2268 C   0  0  0  0  0  0  0  0  0  0  0  0
    8.6361   19.5086   30.8022 O   0  0  0  0  0  0  0  0  0  0  0  0
   14.3536   17.4317   32.6561 C   0  0  1  0  0  0  0  0  0  0  0  0
    8.4115   16.7025   30.2290 O   0  0  0  0  0  0  0  0  0  0  0  0
   13.2014   16.5682   33.1810 C   0  0  2  0  0  0  0  0  0  0  0  0
   13.3691   12.8443   31.2350 O   0  0  0  0  0  0  0  0  0  0  0  0
   10.8024   16.7590   33.1428 C   0  0  1  0  0  0  0  0  0  0  0  0
   11.0324   11.3399   31.0738 O   0  0  0  0  0  0  0  0  0  0  0  0
   10.0034   19.0094   32.7493 C   0  0  2  0  0  0  0  0  0  0  0  0
    9.5169   20.2550   33.4941 C   0  0  0  0  0  0  0  0  0  0  0  0
    8.9213   18.5092   31.7857 C   0  0  2  0  0  0  0  0  0  0  0  0
    9.4193   17.2397   31.0917 C   0  0  1  0  0  0  0  0  0  0  0  0
    9.7980   16.1879   32.1368 C   0  0  1  0  0  0  0  0  0  0  0  0
   12.7662   12.3678   32.4420 C   0  0  2  0  0  0  0  0  0  0  0  0
   11.8854   11.1426   32.2045 C   0  0  1  0  0  0  0  0  0  0  0  0
  3  1  1  0  0  0  0
  4  1  1  1  0  0  0
  4  6  1  0  0  0  0
  4 31  1  0  0  0  0
  6  7  1  0  0  0  0
  7  9  1  1  0  0  0
  7 30  1  0  0  0  0
 10  9  1  1  0  0  0
 10 13  1  0  0  0  0
 10 21  1  0  0  0  0
 13 12  1  6  0  0  0
 13 15  1  0  0  0  0
 15  2  1  1  0  0  0
 15 17  1  0  0  0  0
 16 25  1  0  0  0  0
 17 19  1  0  0  0  0
 19  5  1  1  0  0  0
 19 21  1  0  0  0  0
 21 14  1  6  0  0  0
 23 14  1  6  0  0  0
 23 16  1  0  0  0  0
 23 29  1  0  0  0  0
 25 26  1  1  0  0  0
 25 27  1  0  0  0  0
 26  8  1  0  0  0  0
 27 18  1  6  0  0  0
 27 28  1  0  0  0  0
 28 20  1  6  0  0  0
 28 29  1  0  0  0  0
 29 11  1  6  0  0  0
 30 22  1  6  0  0  0
 30 31  1  0  0  0  0
 31 24  1  6  0  0  0
M  END
>  <CHROM.1>
31.97193480,170.92735892,-110.83960735,80.63146976,103.00425955,174.84980763
11.90891100,15.43156652,32.76133213,1.13935516,0.20454812,3.05914207

>  <Name>
2fcz_lig

>  <RI>
0

>  <Rbt.Current_Directory>
/home/itssahil/PROJECTS/Mol_Feturizer/New_Systems/rnas/2fcz

>  <Rbt.Executable>
rbdock ($Id: //depot/dev/client3/rdock/2013.1/src/exe/rbdock.cxx#4 $)

>  <Rbt.Library>
libRbt.so (2013.1, Build901 2013/11/27)

>  <Rbt.Parameter_File>
/export/apps/rDock/src/rDock_2013.1_src/data/scripts/dock_solv.prm

>  <Rbt.Receptor>
prm/blind_docking_40.prm

>  <SCORE>
11.8661

>  <SCORE.INTER>
-5.6108

>  <SCORE.INTER.CONST>
1

>  <SCORE.INTER.POLAR>
0

>  <SCORE.INTER.ROT>
6

>  <SCORE.INTER.SOLV>
13.8321

>  <SCORE.INTER.VDW>
-15.9512

>  <SCORE.INTER.norm>
-0.180994

>  <SCORE.INTRA>
7.19949

>  <SCORE.INTRA.DIHEDRAL>
6.6471

>  <SCORE.INTRA.DIHEDRAL.0>
10.8409

>  <SCORE.INTRA.POLAR>
0

>  <SCORE.INTRA.POLAR.0>
0

>  <SCORE.INTRA.REPUL>
0

>  <SCORE.INTRA.REPUL.0>
0

>  <SCORE.INTRA.SOLV>
2.40138

>  <SCORE.INTRA.SOLV.lig_0>
-80.8302

>  <SCORE.INTRA.VDW>
2.67525

>  <SCORE.INTRA.VDW.0>
-4.23953

>  <SCORE.INTRA.norm>
0.232242

>  <SCORE.RESTR>
10.2774

>  <SCORE.RESTR.CAVITY>
10.2774

>  <SCORE.RESTR.norm>
0.331529

>  <SCORE.SYSTEM>
0

>  <SCORE.SYSTEM.CONST>
0

>  <SCORE.SYSTEM.DIHEDRAL>
0

>  <SCORE.SYSTEM.SOLV>
0

>  <SCORE.SYSTEM.norm>
0

>  <SCORE.heavy>
31

>  <SCORE.norm>
0.382777

>  <RMSD>
6.083

$$$$
2fcz_lig
 OpenBabel11021811433D
libRbt.so/2013.1/901 2013/11/27
 31 33  0  0  0  0  0  0  0  0999 V2000
   10.1950   11.9971   36.3973 C   0  0  0  0  0  0  0  0  0  0  0  0
    6.2758   15.3464   40.5985 N   0  0  0  0  0  0  0  0  0  0  0  0
   11.3987   12.6472   36.8142 O   0  0  0  0  0  0  0  0  0  0  0  0
    9.1783   13.0452   35.9322 C   0  0  1  0  0  0  0  0  0  0  0  0
    6.8405   19.3765   37.8807 N   0  0  0  0  0  0  0  0  0  0  0  0
    8.8997   14.0127   36.9646 O   0  0  0  0  0  0  0  0  0  0  0  0
    9.4961   15.2775   36.6148 C   0  0  1  0  0  0  0  0  0  0  0  0
    9.5735   18.8493   32.6017 N   0  0  0  0  0  0  0  0  0  0  0  0
   10.1857   15.8884   37.7186 O   0  0  0  0  0  0  0  0  0  0  0  0
    9.3267   16.5735   38.6458 C   0  0  2  0  0  0  0  0  0  0  0  0
   12.1822   19.7581   37.9686 N   0  0  0  0  0  0  0  0  0  0  0  0
    8.9233   14.5773   39.9520 O   0  0  0  0  0  0  0  0  0  0  0  0
    8.2764   15.5913   39.1792 C   0  0  1  0  0  0  0  0  0  0  0  0
    9.5934   18.8127   37.6564 O   0  0  0  0  0  0  0  0  0  0  0  0
    7.2497   16.3063   40.0607 C   0  0  1  0  0  0  0  0  0  0  0  0
    9.8978   18.4143   35.3496 O   0  0  0  0  0  0  0  0  0  0  0  0
    6.5178   17.3790   39.2511 C   0  0  0  0  0  0  0  0  0  0  0  0
    9.7408   21.9681   34.3940 O   0  0  0  0  0  0  0  0  0  0  0  0
    7.5328   18.4038   38.7409 C   0  0  1  0  0  0  0  0  0  0  0  0
   12.0791   21.8902   36.0612 O   0  0  0  0  0  0  0  0  0  0  0  0
    8.6647   17.7538   37.9375 C   0  0  2  0  0  0  0  0  0  0  0  0
   10.8191   16.0477   34.6729 O   0  0  0  0  0  0  0  0  0  0  0  0
   10.5468   18.4937   36.6324 C   0  0  1  0  0  0  0  0  0  0  0  0
    8.6736   14.4179   33.9730 O   0  0  0  0  0  0  0  0  0  0  0  0
    9.2808   19.6390   34.9169 C   0  0  2  0  0  0  0  0  0  0  0  0
    8.6069   19.3982   33.5638 C   0  0  0  0  0  0  0  0  0  0  0  0
   10.3458   20.7345   34.7933 C   0  0  2  0  0  0  0  0  0  0  0  0
   11.0312   20.9192   36.1488 C   0  0  1  0  0  0  0  0  0  0  0  0
   11.6191   19.5878   36.6220 C   0  0  1  0  0  0  0  0  0  0  0  0
   10.4939   14.9324   35.5081 C   0  0  2  0  0  0  0  0  0  0  0  0
    9.7279   13.8478   34.7530 C   0  0  1  0  0  0  0  0  0  0  0  0
  3  1  1  0  0  0  0
  4  1  1  1  0  0  0
  4  6  1  0  0  0  0
  4 31  1  0  0  0  0
  6  7  1  0  0  0  0
  7  9  1  1  0  0  0
  7 30  1  0  0  0  0
 10  9  1  6  0  0  0
 10 13  1  0  0  0  0
 10 21  1  0  0  0  0
 13 12  1  1  0  0  0
 13 15  1  0  0  0  0
 15  2  1  6  0  0  0
 15 17  1  0  0  0  0
 16 25  1  0  0  0  0
 17 19  1  0  0  0  0
 19  5  1  6  0  0  0
 19 21  1  0  0  0  0
 21 14  1  1  0  0  0
 23 14  1  1  0  0  0
 23 16  1  0  0  0  0
 23 29  1  0  0  0  0
 25 26  1  6  0  0  0
 25 27  1  0  0  0  0
 26  8  1  0  0  0  0
 27 18  1  1  0  0  0
 27 28  1  0  0  0  0
 28 20  1  6  0  0  0
 28 29  1  0  0  0  0
 29 11  1  1  0  0  0
 30 22  1  6  0  0  0
 30 31  1  0  0  0  0
 31 24  1  1  0  0  0
M  END
>  <CHROM.1>
-57.10884442,-80.15754737,57.03708150,70.45131575,69.56376223,-54.57083118
9.48174501,17.14238879,36.69755638,-1.99610597,1.08950041,0.05164845

>  <Name>
2fcz_lig

>  <RI>
0

>  <Rbt.Current_Directory>
/home/itssahil/PROJECTS/Mol_Feturizer/New_Systems/rnas/2fcz

>  <Rbt.Executable>
rbdock ($Id: //depot/dev/client3/rdock/2013.1/src/exe/rbdock.cxx#4 $)

>  <Rbt.Library>
libRbt.so (2013.1, Build901 2013/11/27)

>  <Rbt.Parameter_File>
/export/apps/rDock/src/rDock_2013.1_src/data/scripts/dock_solv.prm

>  <Rbt.Receptor>
prm/pocket_docking_5.prm

>  <SCORE>
-13.7899

>  <SCORE.INTER>
-11.7065

>  <SCORE.INTER.CONST>
1

>  <SCORE.INTER.POLAR>
-2.77165

>  <SCORE.INTER.ROT>
6

>  <SCORE.INTER.SOLV>
14.9969

>  <SCORE.INTER.VDW>
-11.1645

>  <SCORE.INTER.norm>
-0.377629

>  <SCORE.INTRA>
-2.08863

>  <SCORE.INTRA.DIHEDRAL>
-7.75136

>  <SCORE.INTRA.DIHEDRAL.0>
10.8409

>  <SCORE.INTRA.POLAR>
0

>  <SCORE.INTRA.POLAR.0>
0

>  <SCORE.INTRA.REPUL>
0

>  <SCORE.INTRA.REPUL.0>
0

>  <SCORE.INTRA.SOLV>
-0.38644

>  <SCORE.INTRA.SOLV.lig_0>
-80.8302

>  <SCORE.INTRA.VDW>
1.98027

>  <SCORE.INTRA.VDW.0>
-4.23953

>  <SCORE.INTRA.norm>
-0.0673751

>  <SCORE.RESTR>
0.00524462

>  <SCORE.RESTR.CAVITY>
0.00524462

>  <SCORE.RESTR.norm>
0.000169181

>  <SCORE.SYSTEM>
0

>  <SCORE.SYSTEM.CONST>
0

>  <SCORE.SYSTEM.DIHEDRAL>
0

>  <SCORE.SYSTEM.SOLV>
0

>  <SCORE.SYSTEM.norm>
0

>  <SCORE.heavy>
31

>  <SCORE.norm>
-0.444835

>  <RMSD>
6.083

$$$$
2fcz_lig
 OpenBabel11021811433D
libRbt.so/2013.1/901 2013/11/27
 31 33  0  0  0  0  0  0  0  0999 V2000
   14.4035   21.9698   37.3429 C   0  0  0  0  0  0  0  0  0  0  0  0
   17.4978   24.0802   29.9512 N   0  0  0  0  0  0  0  0  0  0  0  0
   14.5059   20.5952   36.9614 O   0  0  0  0  0  0  0  0  0  0  0  0
   15.6218   22.7405   36.8231 C   0  0  1  0  0  0  0  0  0  0  0  0
   12.9664   22.2906   29.4917 N   0  0  0  0  0  0  0  0  0  0  0  0
   15.6848   22.7296   35.3825 O   0  0  0  0  0  0  0  0  0  0  0  0
   15.3634   24.0399   34.8751 C   0  0  1  0  0  0  0  0  0  0  0  0
    8.3468   22.3392   29.9724 N   0  0  0  0  0  0  0  0  0  0  0  0
   14.4477   23.9955   33.7675 O   0  0  0  0  0  0  0  0  0  0  0  0
   14.9170   23.2322   32.6432 C   0  0  2  0  0  0  0  0  0  0  0  0
   11.8312   21.3902   34.8097 N   0  0  0  0  0  0  0  0  0  0  0  0
   17.1400   24.1803   32.7584 O   0  0  0  0  0  0  0  0  0  0  0  0
   15.9999   24.0319   31.9085 C   0  0  1  0  0  0  0  0  0  0  0  0
   12.8348   21.9661   32.2889 O   0  0  0  0  0  0  0  0  0  0  0  0
   16.4306   23.3245   30.6214 C   0  0  1  0  0  0  0  0  0  0  0  0
   10.7154   22.6044   31.4683 O   0  0  0  0  0  0  0  0  0  0  0  0
   15.2357   23.1785   29.6766 C   0  0  0  0  0  0  0  0  0  0  0  0
    9.4250   19.1632   31.2217 O   0  0  0  0  0  0  0  0  0  0  0  0
   14.1516   22.3445   30.3622 C   0  0  1  0  0  0  0  0  0  0  0  0
    9.8797   19.4405   34.0447 O   0  0  0  0  0  0  0  0  0  0  0  0
   13.7399   22.9250   31.7195 C   0  0  2  0  0  0  0  0  0  0  0  0
   14.7735   26.1806   35.9635 O   0  0  0  0  0  0  0  0  0  0  0  0
   11.5531   22.5104   32.6355 C   0  0  1  0  0  0  0  0  0  0  0  0
   16.8364   24.8200   37.2450 O   0  0  0  0  0  0  0  0  0  0  0  0
   10.4278   21.3442   30.8380 C   0  0  2  0  0  0  0  0  0  0  0  0
    9.5621   21.5997   29.6017 C   0  0  0  0  0  0  0  0  0  0  0  0
    9.6896   20.4333   31.8253 C   0  0  2  0  0  0  0  0  0  0  0  0
   10.5604   20.2346   33.0677 C   0  0  1  0  0  0  0  0  0  0  0  0
   10.9121   21.5920   33.6809 C   0  0  1  0  0  0  0  0  0  0  0  0
   14.7095   24.7543   36.0590 C   0  0  2  0  0  0  0  0  0  0  0  0
   15.5412   24.2143   37.2208 C   0  0  1  0  0  0  0  0  0  0  0  0
  3  1  1  0  0  0  0
  4  1  1  6  0  0  0
  4  6  1  0  0  0  0
  4 31  1  0  0  0  0
  6  7  1  0  0  0  0
  7  9  1  6  0  0  0
  7 30  1  0  0  0  0
 10  9  1  1  0  0  0
 10 13  1  0  0  0  0
 10 21  1  0  0  0  0
 13 12  1  1  0  0  0
 13 15  1  0  0  0  0
 15  2  1  6  0  0  0
 15 17  1  0  0  0  0
 16 25  1  0  0  0  0
 17 19  1  0  0  0  0
 19  5  1  6  0  0  0
 19 21  1  0  0  0  0
 21 14  1  1  0  0  0
 23 14  1  6  0  0  0
 23 16  1  0  0  0  0
 23 29  1  0  0  0  0
 25 26  1  6  0  0  0
 25 27  1  0  0  0  0
 26  8  1  0  0  0  0
 27 18  1  6  0  0  0
 27 28  1  0  0  0  0
 28 20  1  1  0  0  0
 28 29  1  0  0  0  0
 29 11  1  1  0  0  0
 30 22  1  6  0  0  0
 30 31  1  0  0  0  0
 31 24  1  6  0  0  0
M  END
>  <CHROM.1>
62.72648708,-58.59647578,-74.39005980,111.64112392,80.61775035,-55.92103005
13.41526699,22.58422320,33.14770548,0.55607871,0.51332949,1.64618681

>  <Name>
2fcz_lig

>  <RI>
0

>  <Rbt.Current_Directory>
/home/itssahil/PROJECTS/Mol_Feturizer/New_Systems/rnas/2fcz

>  <Rbt.Executable>
rbdock ($Id: //depot/dev/client3/rdock/2013.1/src/exe/rbdock.cxx#4 $)

>  <Rbt.Library>
libRbt.so (2013.1, Build901 2013/11/27)

>  <Rbt.Parameter_File>
/export/apps/rDock/src/rDock_2013.1_src/data/scripts/dock_solv.prm

>  <Rbt.Receptor>
prm/blind_docking_80.prm

>  <SCORE>
-9.63598

>  <SCORE.INTER>
-10.7381

>  <SCORE.INTER.CONST>
1

>  <SCORE.INTER.POLAR>
0

>  <SCORE.INTER.ROT>
6

>  <SCORE.INTER.SOLV>
12.209

>  <SCORE.INTER.VDW>
-18.8284

>  <SCORE.INTER.norm>
-0.34639

>  <SCORE.INTRA>
1.09664

>  <SCORE.INTRA.DIHEDRAL>
-0.988133

>  <SCORE.INTRA.DIHEDRAL.0>
10.8409

>  <SCORE.INTRA.POLAR>
0

>  <SCORE.INTRA.POLAR.0>
0

>  <SCORE.INTRA.REPUL>
0

>  <SCORE.INTRA.REPUL.0>
0

>  <SCORE.INTRA.SOLV>
1.45727

>  <SCORE.INTRA.SOLV.lig_0>
-80.8302

>  <SCORE.INTRA.VDW>
0.862076

>  <SCORE.INTRA.VDW.0>
-4.23953

>  <SCORE.INTRA.norm>
0.0353756

>  <SCORE.RESTR>
0.00547561

>  <SCORE.RESTR.CAVITY>
0.00547561

>  <SCORE.RESTR.norm>
0.000176632

>  <SCORE.SYSTEM>
0

>  <SCORE.SYSTEM.CONST>
0

>  <SCORE.SYSTEM.DIHEDRAL>
0

>  <SCORE.SYSTEM.SOLV>
0

>  <SCORE.SYSTEM.norm>
0

>  <SCORE.heavy>
31

>  <SCORE.norm>
-0.310838

>  <RMSD>
6.088

$$$$
2fcz_lig
 OpenBabel11021811433D
libRbt.so/2013.1/901 2013/11/27
 31 33  0  0  0  0  0  0  0  0999 V2000
   15.8888   17.5413   36.6340 C   0  0  0  0  0  0  0  0  0  0  0  0
   19.6116   24.0386   32.6070 N   0  0  0  0  0  0  0  0  0  0  0  0
   15.5977   18.0782   37.9273 O   0  0  0  0  0  0  0  0  0  0  0  0
   14.8806   18.0808   35.6138 C   0  0  1  0  0  0  0  0  0  0  0  0
   14.9707   25.5166   33.0817 N   0  0  0  0  0  0  0  0  0  0  0  0
   14.8029   19.5204   35.6509 O   0  0  0  0  0  0  0  0  0  0  0  0
   15.4182   20.0679   34.4680 C   0  0  1  0  0  0  0  0  0  0  0  0
   10.4801   23.0675   30.9084 N   0  0  0  0  0  0  0  0  0  0  0  0
   16.2870   21.1761   34.7584 O   0  0  0  0  0  0  0  0  0  0  0  0
   16.5077   22.0609   33.6469 C   0  0  2  0  0  0  0  0  0  0  0  0
   14.1820   22.7193   36.2246 N   0  0  0  0  0  0  0  0  0  0  0  0
   18.8400   21.4480   33.4511 O   0  0  0  0  0  0  0  0  0  0  0  0
   17.9602   22.5525   33.6753 C   0  0  1  0  0  0  0  0  0  0  0  0
   14.1786   22.8368   33.4535 O   0  0  0  0  0  0  0  0  0  0  0  0
   18.2064   23.6088   32.5956 C   0  0  1  0  0  0  0  0  0  0  0  0
   11.9776   23.6871   33.3808 O   0  0  0  0  0  0  0  0  0  0  0  0
   17.2990   24.8190   32.8273 C   0  0  0  0  0  0  0  0  0  0  0  0
   10.3731   20.4756   34.2048 O   0  0  0  0  0  0  0  0  0  0  0  0
   15.8374   24.3718   32.7596 C   0  0  1  0  0  0  0  0  0  0  0  0
   11.9116   21.0106   36.5712 O   0  0  0  0  0  0  0  0  0  0  0  0
   15.5304   23.2314   33.7363 C   0  0  2  0  0  0  0  0  0  0  0  0
   16.5050   19.0464   32.4957 O   0  0  0  0  0  0  0  0  0  0  0  0
   13.1896   23.6054   34.1537 C   0  0  1  0  0  0  0  0  0  0  0  0
   14.1927   17.7188   33.2957 O   0  0  0  0  0  0  0  0  0  0  0  0
   11.3500   22.4197   33.1205 C   0  0  2  0  0  0  0  0  0  0  0  0
   10.1009   22.6560   32.2679 C   0  0  0  0  0  0  0  0  0  0  0  0
   10.9701   21.7531   34.4474 C   0  0  2  0  0  0  0  0  0  0  0  0
   12.2317   21.5724   35.2943 C   0  0  1  0  0  0  0  0  0  0  0  0
   12.9206   22.9236   35.4990 C   0  0  1  0  0  0  0  0  0  0  0  0
   16.2331   18.9079   33.8937 C   0  0  2  0  0  0  0  0  0  0  0  0
   15.3090   17.7281   34.1894 C   0  0  1  0  0  0  0  0  0  0  0  0
  3  1  1  0  0  0  0
  4  1  1  1  0  0  0
  4  6  1  0  0  0  0
  4 31  1  0  0  0  0
  6  7  1  0  0  0  0
  7  9  1  1  0  0  0
  7 30  1  0  0  0  0
 10  9  1  1  0  0  0
 10 13  1  0  0  0  0
 10 21  1  0  0  0  0
 13 12  1  6  0  0  0
 13 15  1  0  0  0  0
 15  2  1  1  0  0  0
 15 17  1  0  0  0  0
 16 25  1  0  0  0  0
 17 19  1  0  0  0  0
 19  5  1  1  0  0  0
 19 21  1  0  0  0  0
 21 14  1  6  0  0  0
 23 14  1  6  0  0  0
 23 16  1  0  0  0  0
 23 29  1  0  0  0  0
 25 26  1  6  0  0  0
 25 27  1  0  0  0  0
 26  8  1  0  0  0  0
 27 18  1  6  0  0  0
 27 28  1  0  0  0  0
 28 20  1  1  0  0  0
 28 29  1  0  0  0  0
 29 11  1  6  0  0  0
 30 22  1  6  0  0  0
 30 31  1  0  0  0  0
 31 24  1  6  0  0  0
M  END
>  <CHROM.1>
52.46304566,-157.18105100,-143.04493117,149.14499301,149.86799911,70.01431109
14.62552469,21.50588982,34.11115945,0.12115738,-0.04297976,2.69921726

>  <Name>
2fcz_lig

>  <RI>
0

>  <Rbt.Current_Directory>
/home/itssahil/PROJECTS/Mol_Feturizer/New_Systems/rnas/2fcz

>  <Rbt.Executable>
rbdock ($Id: //depot/dev/client3/rdock/2013.1/src/exe/rbdock.cxx#4 $)

>  <Rbt.Library>
libRbt.so (2013.1, Build901 2013/11/27)

>  <Rbt.Parameter_File>
/export/apps/rDock/src/rDock_2013.1_src/data/scripts/dock_solv.prm

>  <Rbt.Receptor>
prm/blind_docking_80.prm

>  <SCORE>
-5.90054

>  <SCORE.INTER>
-8.71702

>  <SCORE.INTER.CONST>
1

>  <SCORE.INTER.POLAR>
-0.815592

>  <SCORE.INTER.ROT>
6

>  <SCORE.INTER.SOLV>
11.5453

>  <SCORE.INTER.VDW>
-14.5411

>  <SCORE.INTER.norm>
-0.281194

>  <SCORE.INTRA>
2.81648

>  <SCORE.INTRA.DIHEDRAL>
4.2864

>  <SCORE.INTRA.DIHEDRAL.0>
10.8409

>  <SCORE.INTRA.POLAR>
0

>  <SCORE.INTRA.POLAR.0>
0

>  <SCORE.INTRA.REPUL>
0

>  <SCORE.INTRA.REPUL.0>
0

>  <SCORE.INTRA.SOLV>
0.882307

>  <SCORE.INTRA.SOLV.lig_0>
-80.8302

>  <SCORE.INTRA.VDW>
0.232127

>  <SCORE.INTRA.VDW.0>
-4.23953

>  <SCORE.INTRA.norm>
0.0908542

>  <SCORE.RESTR>
0

>  <SCORE.RESTR.CAVITY>
0

>  <SCORE.RESTR.norm>
0

>  <SCORE.SYSTEM>
0

>  <SCORE.SYSTEM.CONST>
0

>  <SCORE.SYSTEM.DIHEDRAL>
0

>  <SCORE.SYSTEM.SOLV>
0

>  <SCORE.SYSTEM.norm>
0

>  <SCORE.heavy>
31

>  <SCORE.norm>
-0.19034

>  <RMSD>
6.092

$$$$
2fcz_lig
 OpenBabel11021811433D
libRbt.so/2013.1/901 2013/11/27
 31 33  0  0  0  0  0  0  0  0999 V2000
    8.4959   19.3842   30.5309 C   0  0  0  0  0  0  0  0  0  0  0  0
   12.4766   23.1676   34.1147 N   0  0  0  0  0  0  0  0  0  0  0  0
    8.1601   18.4899   29.4666 O   0  0  0  0  0  0  0  0  0  0  0  0
    9.5729   18.7488   31.4169 C   0  0  1  0  0  0  0  0  0  0  0  0
   12.5335   19.7317   37.5988 N   0  0  0  0  0  0  0  0  0  0  0  0
    9.9225   19.6017   32.5259 O   0  0  0  0  0  0  0  0  0  0  0  0
    9.4046   19.0406   33.7485 C   0  0  1  0  0  0  0  0  0  0  0  0
   11.8789   15.6184   36.5151 N   0  0  0  0  0  0  0  0  0  0  0  0
    8.7659   20.0231   34.5815 O   0  0  0  0  0  0  0  0  0  0  0  0
    9.6774   20.8560   35.3180 C   0  0  2  0  0  0  0  0  0  0  0  0
    7.1584   19.5777   38.3564 N   0  0  0  0  0  0  0  0  0  0  0  0
    9.7730   22.5255   33.5695 O   0  0  0  0  0  0  0  0  0  0  0  0
   10.5719   21.6178   34.3322 C   0  0  1  0  0  0  0  0  0  0  0  0
    9.7389   19.4607   37.3461 O   0  0  0  0  0  0  0  0  0  0  0  0
   11.6550   22.4097   35.0686 C   0  0  1  0  0  0  0  0  0  0  0  0
    9.5356   17.1765   36.7856 O   0  0  0  0  0  0  0  0  0  0  0  0
   12.5470   21.4600   35.8710 C   0  0  0  0  0  0  0  0  0  0  0  0
    9.8113   15.9759   40.2570 O   0  0  0  0  0  0  0  0  0  0  0  0
   11.6922   20.7151   36.8983 C   0  0  1  0  0  0  0  0  0  0  0  0
    7.3958   17.5288   40.3415 O   0  0  0  0  0  0  0  0  0  0  0  0
   10.5110   19.9821   36.2530 C   0  0  2  0  0  0  0  0  0  0  0  0
    8.1150   16.9938   34.2608 O   0  0  0  0  0  0  0  0  0  0  0  0
    8.8285   18.4172   36.9698 C   0  0  1  0  0  0  0  0  0  0  0  0
   10.1455   16.5851   32.4008 O   0  0  0  0  0  0  0  0  0  0  0  0
   10.1977   16.6871   37.9647 C   0  0  2  0  0  0  0  0  0  0  0  0
   10.9296   15.3893   37.6140 C   0  0  0  0  0  0  0  0  0  0  0  0
    9.1627   16.4332   39.0664 C   0  0  2  0  0  0  0  0  0  0  0  0
    8.4180   17.7370   39.3614 C   0  0  1  0  0  0  0  0  0  0  0  0
    7.7809   18.2758   38.0786 C   0  0  1  0  0  0  0  0  0  0  0  0
    8.3764   18.0074   33.2852 C   0  0  2  0  0  0  0  0  0  0  0  0
    9.0644   17.4493   32.0409 C   0  0  1  0  0  0  0  0  0  0  0  0
  3  1  1  0  0  0  0
  4  1  1  1  0  0  0
  4  6  1  0  0  0  0
  4 31  1  0  0  0  0
  6  7  1  0  0  0  0
  7  9  1  1  0  0  0
  7 30  1  0  0  0  0
 10  9  1  6  0  0  0
 10 13  1  0  0  0  0
 10 21  1  0  0  0  0
 13 12  1  1  0  0  0
 13 15  1  0  0  0  0
 15  2  1  6  0  0  0
 15 17  1  0  0  0  0
 16 25  1  0  0  0  0
 17 19  1  0  0  0  0
 19  5  1  6  0  0  0
 19 21  1  0  0  0  0
 21 14  1  1  0  0  0
 23 14  1  1  0  0  0
 23 16  1  0  0  0  0
 23 29  1  0  0  0  0
 25 26  1  6  0  0  0
 25 27  1  0  0  0  0
 26  8  1  0  0  0  0
 27 18  1  1  0  0  0
 27 28  1  0  0  0  0
 28 20  1  1  0  0  0
 28 29  1  0  0  0  0
 29 11  1  1  0  0  0
 30 22  1  1  0  0  0
 30 31  1  0  0  0  0
 31 24  1  1  0  0  0
M  END
>  <CHROM.1>
-178.59964857,-77.85413022,60.27146343,73.16575238,77.19505534,57.26304516
9.72740546,18.84849582,35.52368442,1.46343038,-1.11283537,-1.29793894

>  <Name>
2fcz_lig

>  <RI>
2.26996e+07

>  <Rbt.Current_Directory>
/home/itssahil/PROJECTS/Mol_Feturizer/New_Systems/rnas/2fcz

>  <Rbt.Executable>
rbdock ($Id: //depot/dev/client3/rdock/2013.1/src/exe/rbdock.cxx#4 $)

>  <Rbt.Library>
libRbt.so (2013.1, Build901 2013/11/27)

>  <Rbt.Parameter_File>
/export/apps/rDock/src/rDock_2013.1_src/data/scripts/dock_solv.prm

>  <Rbt.Receptor>
prm/pocket_docking_4.prm

>  <SCORE>
-18.9054

>  <SCORE.INTER>
-15.7774

>  <SCORE.INTER.CONST>
1

>  <SCORE.INTER.POLAR>
-1.89215

>  <SCORE.INTER.ROT>
6

>  <SCORE.INTER.SOLV>
18.4515

>  <SCORE.INTER.VDW>
-17.9616

>  <SCORE.INTER.norm>
-0.50895

>  <SCORE.INTRA>
-3.12797

>  <SCORE.INTRA.DIHEDRAL>
-7.04392

>  <SCORE.INTRA.DIHEDRAL.0>
10.8409

>  <SCORE.INTRA.POLAR>
0

>  <SCORE.INTRA.POLAR.0>
0

>  <SCORE.INTRA.REPUL>
0

>  <SCORE.INTRA.REPUL.0>
0

>  <SCORE.INTRA.SOLV>
-2.53269

>  <SCORE.INTRA.SOLV.lig_0>
-80.8302

>  <SCORE.INTRA.VDW>
1.66033

>  <SCORE.INTRA.VDW.0>
-4.23953

>  <SCORE.INTRA.norm>
-0.100902

>  <SCORE.RESTR>
0

>  <SCORE.RESTR.CAVITY>
0

>  <SCORE.RESTR.norm>
0

>  <SCORE.SYSTEM>
0

>  <SCORE.SYSTEM.CONST>
0

>  <SCORE.SYSTEM.DIHEDRAL>
0

>  <SCORE.SYSTEM.SOLV>
0

>  <SCORE.SYSTEM.norm>
0

>  <SCORE.heavy>
31

>  <SCORE.norm>
-0.609852

>  <RMSD>
6.093

$$$$
2fcz_lig
 OpenBabel11021811433D
libRbt.so/2013.1/901 2013/11/27
 31 33  0  0  0  0  0  0  0  0999 V2000
    8.4386   19.4388   30.5836 C   0  0  0  0  0  0  0  0  0  0  0  0
   12.5652   23.0604   34.2762 N   0  0  0  0  0  0  0  0  0  0  0  0
    8.1074   18.5937   29.4783 O   0  0  0  0  0  0  0  0  0  0  0  0
    9.5280   18.7739   31.4319 C   0  0  1  0  0  0  0  0  0  0  0  0
   12.5693   19.4920   37.6249 N   0  0  0  0  0  0  0  0  0  0  0  0
    9.9060   19.5965   32.5543 O   0  0  0  0  0  0  0  0  0  0  0  0
    9.4082   19.0091   33.7729 C   0  0  1  0  0  0  0  0  0  0  0  0
   11.8411   15.4464   36.3817 N   0  0  0  0  0  0  0  0  0  0  0  0
    8.7938   19.9753   34.6424 O   0  0  0  0  0  0  0  0  0  0  0  0
    9.7256   20.7607   35.4053 C   0  0  2  0  0  0  0  0  0  0  0  0
    7.1995   19.4113   38.4157 N   0  0  0  0  0  0  0  0  0  0  0  0
    9.8465   22.4943   33.7219 O   0  0  0  0  0  0  0  0  0  0  0  0
   10.6306   21.5419   34.4445 C   0  0  1  0  0  0  0  0  0  0  0  0
    9.7687   19.2871   37.3777 O   0  0  0  0  0  0  0  0  0  0  0  0
   11.7330   22.2829   35.2047 C   0  0  1  0  0  0  0  0  0  0  0  0
    9.5158   17.0328   36.7241 O   0  0  0  0  0  0  0  0  0  0  0  0
   12.6094   21.2851   35.9649 C   0  0  0  0  0  0  0  0  0  0  0  0
    9.7969   15.6824   40.1396 O   0  0  0  0  0  0  0  0  0  0  0  0
   11.7448   20.5184   36.9676 C   0  0  1  0  0  0  0  0  0  0  0  0
    7.4132   17.2767   40.3111 O   0  0  0  0  0  0  0  0  0  0  0  0
   10.5459   19.8347   36.3012 C   0  0  2  0  0  0  0  0  0  0  0  0
    8.1132   16.9597   34.2604 O   0  0  0  0  0  0  0  0  0  0  0  0
    8.8349   18.2780   36.9665 C   0  0  1  0  0  0  0  0  0  0  0  0
   10.1032   16.5825   32.3507 O   0  0  0  0  0  0  0  0  0  0  0  0
   10.1780   16.4817   37.8756 C   0  0  2  0  0  0  0  0  0  0  0  0
   10.8813   15.1858   37.4643 C   0  0  0  0  0  0  0  0  0  0  0  0
    9.1474   16.2018   38.9752 C   0  0  2  0  0  0  0  0  0  0  0  0
    8.4310   17.5061   39.3313 C   0  0  1  0  0  0  0  0  0  0  0  0
    7.7939   18.1105   38.0779 C   0  0  1  0  0  0  0  0  0  0  0  0
    8.3630   17.9952   33.3050 C   0  0  2  0  0  0  0  0  0  0  0  0
    9.0219   17.4630   32.0338 C   0  0  1  0  0  0  0  0  0  0  0  0
  3  1  1  0  0  0  0
  4  1  1  1  0  0  0
  4  6  1  0  0  0  0
  4 31  1  0  0  0  0
  6  7  1  0  0  0  0
  7  9  1  1  0  0  0
  7 30  1  0  0  0  0
 10  9  1  6  0  0  0
 10 13  1  0  0  0  0
 10 21  1  0  0  0  0
 13 12  1  1  0  0  0
 13 15  1  0  0  0  0
 15  2  1  6  0  0  0
 15 17  1  0  0  0  0
 16 25  1  0  0  0  0
 17 19  1  0  0  0  0
 19  5  1  6  0  0  0
 19 21  1  0  0  0  0
 21 14  1  1  0  0  0
 23 14  1  1  0  0  0
 23 16  1  0  0  0  0
 23 29  1  0  0  0  0
 25 26  1  6  0  0  0
 25 27  1  0  0  0  0
 26  8  1  0  0  0  0
 27 18  1  1  0  0  0
 27 28  1  0  0  0  0
 28 20  1  1  0  0  0
 28 29  1  0  0  0  0
 29 11  1  1  0  0  0
 30 22  1  1  0  0  0
 30 31  1  0  0  0  0
 31 24  1  1  0  0  0
M  END
>  <CHROM.1>
179.42457437,-79.30804561,60.52887905,73.12503418,76.93532299,58.15418250
9.73523336,18.73655173,35.53670541,1.46643283,-1.09323239,-1.25808625

>  <Name>
2fcz_lig

>  <RI>
1.32928e+07

>  <Rbt.Current_Directory>
/home/itssahil/PROJECTS/Mol_Feturizer/New_Systems/rnas/2fcz

>  <Rbt.Executable>
rbdock ($Id: //depot/dev/client3/rdock/2013.1/src/exe/rbdock.cxx#4 $)

>  <Rbt.Library>
libRbt.so (2013.1, Build901 2013/11/27)

>  <Rbt.Parameter_File>
/export/apps/rDock/src/rDock_2013.1_src/data/scripts/dock_solv.prm

>  <Rbt.Receptor>
prm/pocket_docking_7.prm

>  <SCORE>
-18.8625

>  <SCORE.INTER>
-15.7546

>  <SCORE.INTER.CONST>
1

>  <SCORE.INTER.POLAR>
-1.88042

>  <SCORE.INTER.ROT>
6

>  <SCORE.INTER.SOLV>
17.0194

>  <SCORE.INTER.VDW>
-17.5081

>  <SCORE.INTER.norm>
-0.508211

>  <SCORE.INTRA>
-3.10794

>  <SCORE.INTRA.DIHEDRAL>
-6.88529

>  <SCORE.INTRA.DIHEDRAL.0>
10.8409

>  <SCORE.INTRA.POLAR>
0

>  <SCORE.INTRA.POLAR.0>
0

>  <SCORE.INTRA.REPUL>
0

>  <SCORE.INTRA.REPUL.0>
0

>  <SCORE.INTRA.SOLV>
-2.51829

>  <SCORE.INTRA.SOLV.lig_0>
-80.8302

>  <SCORE.INTRA.VDW>
1.59385

>  <SCORE.INTRA.VDW.0>
-4.23953

>  <SCORE.INTRA.norm>
-0.100256

>  <SCORE.RESTR>
0

>  <SCORE.RESTR.CAVITY>
0

>  <SCORE.RESTR.norm>
0

>  <SCORE.SYSTEM>
0

>  <SCORE.SYSTEM.CONST>
0

>  <SCORE.SYSTEM.DIHEDRAL>
0

>  <SCORE.SYSTEM.SOLV>
0

>  <SCORE.SYSTEM.norm>
0

>  <SCORE.heavy>
31

>  <SCORE.norm>
-0.608467

>  <RMSD>
6.110

$$$$
2fcz_lig
 OpenBabel11021811433D
libRbt.so/2013.1/901 2013/11/27
 31 33  0  0  0  0  0  0  0  0999 V2000
    9.7809   18.0335   33.0935 C   0  0  0  0  0  0  0  0  0  0  0  0
   13.6582   25.2104   35.0760 N   0  0  0  0  0  0  0  0  0  0  0  0
    8.5900   17.3120   32.7670 O   0  0  0  0  0  0  0  0  0  0  0  0
    9.4112   19.4124   33.6506 C   0  0  1  0  0  0  0  0  0  0  0  0
   16.7951   22.0501   33.0464 N   0  0  0  0  0  0  0  0  0  0  0  0
   10.5825   20.2028   33.9384 O   0  0  0  0  0  0  0  0  0  0  0  0
   10.6984   21.2646   32.9704 C   0  0  1  0  0  0  0  0  0  0  0  0
   12.3179   15.7245   33.5798 N   0  0  0  0  0  0  0  0  0  0  0  0
   12.0371   21.4106   32.4666 O   0  0  0  0  0  0  0  0  0  0  0  0
   13.0008   21.8087   33.4565 C   0  0  2  0  0  0  0  0  0  0  0  0
   16.5631   19.8165   34.8844 N   0  0  0  0  0  0  0  0  0  0  0  0
   11.5253   23.4679   34.4177 O   0  0  0  0  0  0  0  0  0  0  0  0
   12.7975   23.2920   33.7893 C   0  0  1  0  0  0  0  0  0  0  0  0
   14.7183   20.1549   32.8409 O   0  0  0  0  0  0  0  0  0  0  0  0
   13.8902   23.8007   34.7324 C   0  0  1  0  0  0  0  0  0  0  0  0
   13.3693   18.3784   33.6134 O   0  0  0  0  0  0  0  0  0  0  0  0
   15.2636   23.6536   34.0737 C   0  0  0  0  0  0  0  0  0  0  0  0
   15.6344   15.7262   32.4288 O   0  0  0  0  0  0  0  0  0  0  0  0
   15.5195   22.1763   33.7691 C   0  0  1  0  0  0  0  0  0  0  0  0
   17.2556   17.0867   34.3715 O   0  0  0  0  0  0  0  0  0  0  0  0
   14.4072   21.5550   32.9173 C   0  0  2  0  0  0  0  0  0  0  0  0
    9.3257   21.9455   31.0296 O   0  0  0  0  0  0  0  0  0  0  0  0
   14.3064   19.4037   33.9922 C   0  0  1  0  0  0  0  0  0  0  0  0
    7.8153   21.2214   33.2531 O   0  0  0  0  0  0  0  0  0  0  0  0
   13.8929   17.4010   32.6977 C   0  0  2  0  0  0  0  0  0  0  0  0
   12.7847   16.4004   32.3606 C   0  0  0  0  0  0  0  0  0  0  0  0
   15.0827   16.6802   33.3415 C   0  0  2  0  0  0  0  0  0  0  0  0
   16.1522   17.7115   33.7077 C   0  0  1  0  0  0  0  0  0  0  0  0
   15.5541   18.7799   34.6257 C   0  0  1  0  0  0  0  0  0  0  0  0
    9.7612   20.8468   31.8362 C   0  0  2  0  0  0  0  0  0  0  0  0
    8.6140   20.2162   32.6234 C   0  0  1  0  0  0  0  0  0  0  0  0
  3  1  1  0  0  0  0
  4  1  1  6  0  0  0
  4  6  1  0  0  0  0
  4 31  1  0  0  0  0
  6  7  1  0  0  0  0
  7  9  1  6  0  0  0
  7 30  1  0  0  0  0
 10  9  1  6  0  0  0
 10 13  1  0  0  0  0
 10 21  1  0  0  0  0
 13 12  1  1  0  0  0
 13 15  1  0  0  0  0
 15  2  1  6  0  0  0
 15 17  1  0  0  0  0
 16 25  1  0  0  0  0
 17 19  1  0  0  0  0
 19  5  1  6  0  0  0
 19 21  1  0  0  0  0
 21 14  1  1  0  0  0
 23 14  1  6  0  0  0
 23 16  1  0  0  0  0
 23 29  1  0  0  0  0
 25 26  1  1  0  0  0
 25 27  1  0  0  0  0
 26  8  1  0  0  0  0
 27 18  1  6  0  0  0
 27 28  1  0  0  0  0
 28 20  1  1  0  0  0
 28 29  1  0  0  0  0
 29 11  1  6  0  0  0
 30 22  1  1  0  0  0
 30 31  1  0  0  0  0
 31 24  1  1  0  0  0
M  END
>  <CHROM.1>
-177.36892557,-64.46043576,-74.08427881,-43.36550895,119.80377797,-60.08454622
12.89583752,20.04436211,33.38427187,2.70775437,-0.16763575,0.11440347

>  <Name>
2fcz_lig

>  <RI>
0

>  <Rbt.Current_Directory>
/home/itssahil/PROJECTS/Mol_Feturizer/New_Systems/rnas/2fcz

>  <Rbt.Executable>
rbdock ($Id: //depot/dev/client3/rdock/2013.1/src/exe/rbdock.cxx#4 $)

>  <Rbt.Library>
libRbt.so (2013.1, Build901 2013/11/27)

>  <Rbt.Parameter_File>
/export/apps/rDock/src/rDock_2013.1_src/data/scripts/dock_solv.prm

>  <Rbt.Receptor>
prm/blind_docking_80.prm

>  <SCORE>
-7.43579

>  <SCORE.INTER>
-10.5524

>  <SCORE.INTER.CONST>
1

>  <SCORE.INTER.POLAR>
-0.880433

>  <SCORE.INTER.ROT>
6

>  <SCORE.INTER.SOLV>
10.5553

>  <SCORE.INTER.VDW>
-15.2186

>  <SCORE.INTER.norm>
-0.3404

>  <SCORE.INTRA>
3.11662

>  <SCORE.INTRA.DIHEDRAL>
-1.17865

>  <SCORE.INTRA.DIHEDRAL.0>
10.8409

>  <SCORE.INTRA.POLAR>
0

>  <SCORE.INTRA.POLAR.0>
0

>  <SCORE.INTRA.REPUL>
0.0756459

>  <SCORE.INTRA.REPUL.0>
0

>  <SCORE.INTRA.SOLV>
2.44217

>  <SCORE.INTRA.SOLV.lig_0>
-80.8302

>  <SCORE.INTRA.VDW>
2.10663

>  <SCORE.INTRA.VDW.0>
-4.23953

>  <SCORE.INTRA.norm>
0.100536

>  <SCORE.RESTR>
0

>  <SCORE.RESTR.CAVITY>
0

>  <SCORE.RESTR.norm>
0

>  <SCORE.SYSTEM>
0

>  <SCORE.SYSTEM.CONST>
0

>  <SCORE.SYSTEM.DIHEDRAL>
0

>  <SCORE.SYSTEM.SOLV>
0

>  <SCORE.SYSTEM.norm>
0

>  <SCORE.heavy>
31

>  <SCORE.norm>
-0.239864

>  <RMSD>
6.112

$$$$
2fcz_lig
 OpenBabel11021811433D
libRbt.so/2013.1/901 2013/11/27
 31 33  0  0  0  0  0  0  0  0999 V2000
    8.0863   19.4886   30.5930 C   0  0  0  0  0  0  0  0  0  0  0  0
   13.8462   22.8613   34.3937 N   0  0  0  0  0  0  0  0  0  0  0  0
    9.4598   19.8783   30.6790 O   0  0  0  0  0  0  0  0  0  0  0  0
    7.4126   19.6725   31.9571 C   0  0  1  0  0  0  0  0  0  0  0  0
   12.8978   19.8329   38.1188 N   0  0  0  0  0  0  0  0  0  0  0  0
    8.1481   19.0137   33.0082 O   0  0  0  0  0  0  0  0  0  0  0  0
    8.7911   20.0005   33.8393 C   0  0  1  0  0  0  0  0  0  0  0  0
   10.6936   14.5513   35.8401 N   0  0  0  0  0  0  0  0  0  0  0  0
   10.1574   19.6672   34.1381 O   0  0  0  0  0  0  0  0  0  0  0  0
   10.8187   20.6054   35.0037 C   0  0  2  0  0  0  0  0  0  0  0  0
    7.7164   19.2814   38.1221 N   0  0  0  0  0  0  0  0  0  0  0  0
   11.4136   22.0749   33.1760 O   0  0  0  0  0  0  0  0  0  0  0  0
   11.9592   21.2832   34.2341 C   0  0  1  0  0  0  0  0  0  0  0  0
   10.2940   19.4443   37.1109 O   0  0  0  0  0  0  0  0  0  0  0  0
   12.7848   22.1864   35.1533 C   0  0  1  0  0  0  0  0  0  0  0  0
   10.1568   17.3098   36.1119 O   0  0  0  0  0  0  0  0  0  0  0  0
   13.4081   21.3603   36.2806 C   0  0  0  0  0  0  0  0  0  0  0  0
   10.4864   15.4591   39.2796 O   0  0  0  0  0  0  0  0  0  0  0  0
   12.2938   20.7052   37.0991 C   0  0  1  0  0  0  0  0  0  0  0  0
    8.0256   16.8905   39.6657 O   0  0  0  0  0  0  0  0  0  0  0  0
   11.3480   19.8674   36.2318 C   0  0  2  0  0  0  0  0  0  0  0  0
    8.8458   22.4724   33.8010 O   0  0  0  0  0  0  0  0  0  0  0  0
    9.4136   18.4678   36.5358 C   0  0  1  0  0  0  0  0  0  0  0  0
    6.3237   21.4138   33.2836 O   0  0  0  0  0  0  0  0  0  0  0  0
   10.8394   16.6186   37.1723 C   0  0  2  0  0  0  0  0  0  0  0  0
   11.6082   15.4380   36.5740 C   0  0  0  0  0  0  0  0  0  0  0  0
    9.8181   16.1215   38.2016 C   0  0  2  0  0  0  0  0  0  0  0  0
    9.0360   17.3185   38.7467 C   0  0  1  0  0  0  0  0  0  0  0  0
    8.3763   18.0792   37.5942 C   0  0  1  0  0  0  0  0  0  0  0  0
    8.7409   21.2847   33.0100 C   0  0  2  0  0  0  0  0  0  0  0  0
    7.3715   21.1500   32.3468 C   0  0  1  0  0  0  0  0  0  0  0  0
  3  1  1  0  0  0  0
  4  1  1  6  0  0  0
  4  6  1  0  0  0  0
  4 31  1  0  0  0  0
  6  7  1  0  0  0  0
  7  9  1  6  0  0  0
  7 30  1  0  0  0  0
 10  9  1  6  0  0  0
 10 13  1  0  0  0  0
 10 21  1  0  0  0  0
 13 12  1  6  0  0  0
 13 15  1  0  0  0  0
 15  2  1  6  0  0  0
 15 17  1  0  0  0  0
 16 25  1  0  0  0  0
 17 19  1  0  0  0  0
 19  5  1  1  0  0  0
 19 21  1  0  0  0  0
 21 14  1  1  0  0  0
 23 14  1  1  0  0  0
 23 16  1  0  0  0  0
 23 29  1  0  0  0  0
 25 26  1  6  0  0  0
 25 27  1  0  0  0  0
 26  8  1  0  0  0  0
 27 18  1  1  0  0  0
 27 28  1  0  0  0  0
 28 20  1  1  0  0  0
 28 29  1  0  0  0  0
 29 11  1  1  0  0  0
 30 22  1  1  0  0  0
 30 31  1  0  0  0  0
 31 24  1  1  0  0  0
M  END
>  <CHROM.1>
-52.44956035,-177.96038150,-115.08031577,64.79265969,57.25685791,-56.88670488
9.99029431,19.34331964,35.37638448,1.70750334,-0.55618379,-0.82993869

>  <Name>
2fcz_lig

>  <RI>
0

>  <Rbt.Current_Directory>
/home/itssahil/PROJECTS/Mol_Feturizer/New_Systems/rnas/2fcz

>  <Rbt.Executable>
rbdock ($Id: //depot/dev/client3/rdock/2013.1/src/exe/rbdock.cxx#4 $)

>  <Rbt.Library>
libRbt.so (2013.1, Build901 2013/11/27)

>  <Rbt.Parameter_File>
/export/apps/rDock/src/rDock_2013.1_src/data/scripts/dock_solv.prm

>  <Rbt.Receptor>
prm/pocket_docking_5.prm

>  <SCORE>
-14.852

>  <SCORE.INTER>
-14.6594

>  <SCORE.INTER.CONST>
1

>  <SCORE.INTER.POLAR>
-2.13857

>  <SCORE.INTER.ROT>
6

>  <SCORE.INTER.SOLV>
17.2557

>  <SCORE.INTER.VDW>
-15.9962

>  <SCORE.INTER.norm>
-0.472883

>  <SCORE.INTRA>
-0.192664

>  <SCORE.INTRA.DIHEDRAL>
-3.20945

>  <SCORE.INTRA.DIHEDRAL.0>
10.8409

>  <SCORE.INTRA.POLAR>
0

>  <SCORE.INTRA.POLAR.0>
0

>  <SCORE.INTRA.REPUL>
0.00688464

>  <SCORE.INTRA.REPUL.0>
0

>  <SCORE.INTRA.SOLV>
-1.13395

>  <SCORE.INTRA.SOLV.lig_0>
-80.8302

>  <SCORE.INTRA.VDW>
1.94461

>  <SCORE.INTRA.VDW.0>
-4.23953

>  <SCORE.INTRA.norm>
-0.00621497

>  <SCORE.RESTR>
0

>  <SCORE.RESTR.CAVITY>
0

>  <SCORE.RESTR.norm>
0

>  <SCORE.SYSTEM>
0

>  <SCORE.SYSTEM.CONST>
0

>  <SCORE.SYSTEM.DIHEDRAL>
0

>  <SCORE.SYSTEM.SOLV>
0

>  <SCORE.SYSTEM.norm>
0

>  <SCORE.heavy>
31

>  <SCORE.norm>
-0.479098

>  <RMSD>
6.114

$$$$
2fcz_lig
 OpenBabel11021811433D
libRbt.so/2013.1/901 2013/11/27
 31 33  0  0  0  0  0  0  0  0999 V2000
   17.3620   20.9186   36.3550 C   0  0  0  0  0  0  0  0  0  0  0  0
   13.4446   23.3230   29.1292 N   0  0  0  0  0  0  0  0  0  0  0  0
   17.4524   22.1890   37.0057 O   0  0  0  0  0  0  0  0  0  0  0  0
   15.9261   20.3918   36.4513 C   0  0  1  0  0  0  0  0  0  0  0  0
    9.8059   22.1107   32.1686 N   0  0  0  0  0  0  0  0  0  0  0  0
   14.9701   21.3586   35.9706 O   0  0  0  0  0  0  0  0  0  0  0  0
   14.4324   20.9191   34.7074 C   0  0  1  0  0  0  0  0  0  0  0  0
    8.9999   16.5018   34.9170 N   0  0  0  0  0  0  0  0  0  0  0  0
   14.3801   21.9733   33.7312 O   0  0  0  0  0  0  0  0  0  0  0  0
   13.5825   21.6684   32.5745 C   0  0  2  0  0  0  0  0  0  0  0  0
   12.1777   22.0720   36.1933 N   0  0  0  0  0  0  0  0  0  0  0  0
   15.3110   22.3697   31.0336 O   0  0  0  0  0  0  0  0  0  0  0  0
   13.9623   22.6225   31.4353 C   0  0  1  0  0  0  0  0  0  0  0  0
   11.6564   20.7561   33.8080 O   0  0  0  0  0  0  0  0  0  0  0  0
   13.0421   22.4332   30.2271 C   0  0  1  0  0  0  0  0  0  0  0  0
    9.4775   20.1532   34.4873 O   0  0  0  0  0  0  0  0  0  0  0  0
   11.5924   22.7273   30.6192 C   0  0  0  0  0  0  0  0  0  0  0  0
   10.5902   17.5199   36.8101 O   0  0  0  0  0  0  0  0  0  0  0  0
   11.1646   21.7603   31.7250 C   0  0  1  0  0  0  0  0  0  0  0  0
   11.7260   19.8838   37.9828 O   0  0  0  0  0  0  0  0  0  0  0  0
   12.1045   21.8046   32.9347 C   0  0  2  0  0  0  0  0  0  0  0  0
   14.8177   18.9187   33.3057 O   0  0  0  0  0  0  0  0  0  0  0  0
   10.5353   21.1200   34.6265 C   0  0  1  0  0  0  0  0  0  0  0  0
   14.6532   18.3484   36.0255 O   0  0  0  0  0  0  0  0  0  0  0  0
    9.8277   18.8222   34.9042 C   0  0  2  0  0  0  0  0  0  0  0  0
    8.6269   17.9023   34.6703 C   0  0  0  0  0  0  0  0  0  0  0  0
   10.2083   18.8330   36.3890 C   0  0  2  0  0  0  0  0  0  0  0  0
   11.3801   19.7949   36.5968 C   0  0  1  0  0  0  0  0  0  0  0  0
   11.0096   21.1875   36.0817 C   0  0  1  0  0  0  0  0  0  0  0  0
   15.4006   19.8302   34.2421 C   0  0  2  0  0  0  0  0  0  0  0  0
   15.7415   19.1566   35.5700 C   0  0  1  0  0  0  0  0  0  0  0  0
  3  1  1  0  0  0  0
  4  1  1  6  0  0  0
  4  6  1  0  0  0  0
  4 31  1  0  0  0  0
  6  7  1  0  0  0  0
  7  9  1  6  0  0  0
  7 30  1  0  0  0  0
 10  9  1  1  0  0  0
 10 13  1  0  0  0  0
 10 21  1  0  0  0  0
 13 12  1  6  0  0  0
 13 15  1  0  0  0  0
 15  2  1  6  0  0  0
 15 17  1  0  0  0  0
 16 25  1  0  0  0  0
 17 19  1  0  0  0  0
 19  5  1  1  0  0  0
 19 21  1  0  0  0  0
 21 14  1  1  0  0  0
 23 14  1  6  0  0  0
 23 16  1  0  0  0  0
 23 29  1  0  0  0  0
 25 26  1  1  0  0  0
 25 27  1  0  0  0  0
 26  8  1  0  0  0  0
 27 18  1  6  0  0  0
 27 28  1  0  0  0  0
 28 20  1  1  0  0  0
 28 29  1  0  0  0  0
 29 11  1  6  0  0  0
 30 22  1  6  0  0  0
 30 31  1  0  0  0  0
 31 24  1  1  0  0  0
M  END
>  <CHROM.1>
53.04764274,-166.57690656,-161.48289848,153.85964517,127.30644855,172.56602908
12.78802978,20.60869981,34.31647474,-0.74927763,0.27205399,2.09402073

>  <Name>
2fcz_lig

>  <RI>
0

>  <Rbt.Current_Directory>
/home/itssahil/PROJECTS/Mol_Feturizer/New_Systems/rnas/2fcz

>  <Rbt.Executable>
rbdock ($Id: //depot/dev/client3/rdock/2013.1/src/exe/rbdock.cxx#4 $)

>  <Rbt.Library>
libRbt.so (2013.1, Build901 2013/11/27)

>  <Rbt.Parameter_File>
/export/apps/rDock/src/rDock_2013.1_src/data/scripts/dock_solv.prm

>  <Rbt.Receptor>
prm/pocket_docking_6.prm

>  <SCORE>
-10.6896

>  <SCORE.INTER>
-13.4934

>  <SCORE.INTER.CONST>
1

>  <SCORE.INTER.POLAR>
-1.61357

>  <SCORE.INTER.ROT>
6

>  <SCORE.INTER.SOLV>
14.0627

>  <SCORE.INTER.VDW>
-15.9046

>  <SCORE.INTER.norm>
-0.435271

>  <SCORE.INTRA>
2.80377

>  <SCORE.INTRA.DIHEDRAL>
1.8336

>  <SCORE.INTRA.DIHEDRAL.0>
10.8409

>  <SCORE.INTRA.POLAR>
0

>  <SCORE.INTRA.POLAR.0>
0

>  <SCORE.INTRA.REPUL>
0

>  <SCORE.INTRA.REPUL.0>
0

>  <SCORE.INTRA.SOLV>
2.36456

>  <SCORE.INTRA.SOLV.lig_0>
-80.8302

>  <SCORE.INTRA.VDW>
0.704693

>  <SCORE.INTRA.VDW.0>
-4.23953

>  <SCORE.INTRA.norm>
0.0904442

>  <SCORE.RESTR>
0

>  <SCORE.RESTR.CAVITY>
0

>  <SCORE.RESTR.norm>
0

>  <SCORE.SYSTEM>
0

>  <SCORE.SYSTEM.CONST>
0

>  <SCORE.SYSTEM.DIHEDRAL>
0

>  <SCORE.SYSTEM.SOLV>
0

>  <SCORE.SYSTEM.norm>
0

>  <SCORE.heavy>
31

>  <SCORE.norm>
-0.344826

>  <RMSD>
6.114

$$$$
2fcz_lig
 OpenBabel11021811433D
libRbt.so/2013.1/901 2013/11/27
 31 33  0  0  0  0  0  0  0  0999 V2000
   10.6946   14.7418   33.4126 C   0  0  0  0  0  0  0  0  0  0  0  0
    5.8246   15.0842   40.0757 N   0  0  0  0  0  0  0  0  0  0  0  0
   11.8941   13.9726   33.5351 O   0  0  0  0  0  0  0  0  0  0  0  0
    9.5712   14.0749   34.2136 C   0  0  1  0  0  0  0  0  0  0  0  0
    6.7499   19.4096   37.9824 N   0  0  0  0  0  0  0  0  0  0  0  0
    9.8833   14.0134   35.6202 O   0  0  0  0  0  0  0  0  0  0  0  0
    9.0559   14.9490   36.3398 C   0  0  1  0  0  0  0  0  0  0  0  0
    9.5770   19.0195   32.5806 N   0  0  0  0  0  0  0  0  0  0  0  0
    9.7975   15.7173   37.3026 O   0  0  0  0  0  0  0  0  0  0  0  0
    8.9877   16.3274   38.3219 C   0  0  2  0  0  0  0  0  0  0  0  0
   12.0217   19.6153   38.0723 N   0  0  0  0  0  0  0  0  0  0  0  0
    8.4067   14.2011   39.3194 O   0  0  0  0  0  0  0  0  0  0  0  0
    7.8542   15.3682   38.7056 C   0  0  1  0  0  0  0  0  0  0  0  0
    9.4492   18.6578   37.6738 O   0  0  0  0  0  0  0  0  0  0  0  0
    6.8803   16.0285   39.6844 C   0  0  1  0  0  0  0  0  0  0  0  0
    9.8093   18.3292   35.3640 O   0  0  0  0  0  0  0  0  0  0  0  0
    6.2483   17.2659   39.0431 C   0  0  0  0  0  0  0  0  0  0  0  0
    9.6421   21.9080   34.5081 O   0  0  0  0  0  0  0  0  0  0  0  0
    7.3500   18.2665   38.6885 C   0  0  1  0  0  0  0  0  0  0  0  0
   11.9426   21.8010   36.2255 O   0  0  0  0  0  0  0  0  0  0  0  0
    8.4332   17.6501   37.7966 C   0  0  2  0  0  0  0  0  0  0  0  0
    7.2918   16.5356   35.6428 O   0  0  0  0  0  0  0  0  0  0  0  0
   10.4283   18.3767   36.6630 C   0  0  1  0  0  0  0  0  0  0  0  0
    7.1308   14.0697   34.3611 O   0  0  0  0  0  0  0  0  0  0  0  0
    9.1912   19.5609   34.9528 C   0  0  2  0  0  0  0  0  0  0  0  0
    8.5503   19.3539   33.5783 C   0  0  0  0  0  0  0  0  0  0  0  0
   10.2489   20.6683   34.8853 C   0  0  2  0  0  0  0  0  0  0  0  0
   10.9018   20.8192   36.2610 C   0  0  1  0  0  0  0  0  0  0  0  0
   11.4908   19.4795   36.7088 C   0  0  1  0  0  0  0  0  0  0  0  0
    8.5005   15.8746   35.2561 C   0  0  2  0  0  0  0  0  0  0  0  0
    8.2790   14.8853   34.1134 C   0  0  1  0  0  0  0  0  0  0  0  0
  3  1  1  0  0  0  0
  4  1  1  6  0  0  0
  4  6  1  0  0  0  0
  4 31  1  0  0  0  0
  6  7  1  0  0  0  0
  7  9  1  1  0  0  0
  7 30  1  0  0  0  0
 10  9  1  6  0  0  0
 10 13  1  0  0  0  0
 10 21  1  0  0  0  0
 13 12  1  1  0  0  0
 13 15  1  0  0  0  0
 15  2  1  6  0  0  0
 15 17  1  0  0  0  0
 16 25  1  0  0  0  0
 17 19  1  0  0  0  0
 19  5  1  6  0  0  0
 19 21  1  0  0  0  0
 21 14  1  1  0  0  0
 23 14  1  1  0  0  0
 23 16  1  0  0  0  0
 23 29  1  0  0  0  0
 25 26  1  6  0  0  0
 25 27  1  0  0  0  0
 26  8  1  0  0  0  0
 27 18  1  1  0  0  0
 27 28  1  0  0  0  0
 28 20  1  6  0  0  0
 28 29  1  0  0  0  0
 29 11  1  1  0  0  0
 30 22  1  1  0  0  0
 30 31  1  0  0  0  0
 31 24  1  1  0  0  0
M  END
>  <CHROM.1>
61.90160928,-160.77745620,37.54215922,67.08373607,62.80758626,-62.31970754
9.11924206,17.27376966,36.32494161,-2.41261974,1.02723722,0.44764532

>  <Name>
2fcz_lig

>  <RI>
2.76032e+07

>  <Rbt.Current_Directory>
/home/itssahil/PROJECTS/Mol_Feturizer/New_Systems/rnas/2fcz

>  <Rbt.Executable>
rbdock ($Id: //depot/dev/client3/rdock/2013.1/src/exe/rbdock.cxx#4 $)

>  <Rbt.Library>
libRbt.so (2013.1, Build901 2013/11/27)

>  <Rbt.Parameter_File>
/export/apps/rDock/src/rDock_2013.1_src/data/scripts/dock_solv.prm

>  <Rbt.Receptor>
prm/pocket_docking_8.prm

>  <SCORE>
-15.6685

>  <SCORE.INTER>
-15.1135

>  <SCORE.INTER.CONST>
1

>  <SCORE.INTER.POLAR>
-2.83014

>  <SCORE.INTER.ROT>
6

>  <SCORE.INTER.SOLV>
16.3898

>  <SCORE.INTER.VDW>
-13.7052

>  <SCORE.INTER.norm>
-0.487533

>  <SCORE.INTRA>
-0.554946

>  <SCORE.INTRA.DIHEDRAL>
-6.51544

>  <SCORE.INTRA.DIHEDRAL.0>
10.8409

>  <SCORE.INTRA.POLAR>
0

>  <SCORE.INTRA.POLAR.0>
0

>  <SCORE.INTRA.REPUL>
0

>  <SCORE.INTRA.REPUL.0>
0

>  <SCORE.INTRA.SOLV>
-0.276689

>  <SCORE.INTRA.SOLV.lig_0>
-80.8302

>  <SCORE.INTRA.VDW>
2.84112

>  <SCORE.INTRA.VDW.0>
-4.23953

>  <SCORE.INTRA.norm>
-0.0179015

>  <SCORE.RESTR>
0

>  <SCORE.RESTR.CAVITY>
0

>  <SCORE.RESTR.norm>
0

>  <SCORE.SYSTEM>
0

>  <SCORE.SYSTEM.CONST>
0

>  <SCORE.SYSTEM.DIHEDRAL>
0

>  <SCORE.SYSTEM.SOLV>
0

>  <SCORE.SYSTEM.norm>
0

>  <SCORE.heavy>
31

>  <SCORE.norm>
-0.505435

>  <RMSD>
6.115

$$$$
2fcz_lig
 OpenBabel11021811433D
libRbt.so/2013.1/901 2013/11/27
 31 33  0  0  0  0  0  0  0  0999 V2000
    8.0421   19.4567   30.1419 C   0  0  0  0  0  0  0  0  0  0  0  0
   13.3387   23.0801   34.4764 N   0  0  0  0  0  0  0  0  0  0  0  0
    7.3304   20.0161   29.0347 O   0  0  0  0  0  0  0  0  0  0  0  0
    7.2441   19.6772   31.4315 C   0  0  1  0  0  0  0  0  0  0  0  0
   12.1051   20.0133   38.0847 N   0  0  0  0  0  0  0  0  0  0  0  0
    7.8889   19.0678   32.5683 O   0  0  0  0  0  0  0  0  0  0  0  0
    8.4402   20.0934   33.4180 C   0  0  1  0  0  0  0  0  0  0  0  0
   10.5459   14.7465   35.5500 N   0  0  0  0  0  0  0  0  0  0  0  0
    9.7777   19.7932   33.8518 O   0  0  0  0  0  0  0  0  0  0  0  0
   10.3254   20.7446   34.7800 C   0  0  2  0  0  0  0  0  0  0  0  0
    7.0163   19.1587   37.6749 N   0  0  0  0  0  0  0  0  0  0  0  0
   11.0599   22.2363   33.0225 O   0  0  0  0  0  0  0  0  0  0  0  0
   11.5185   21.4546   34.1282 C   0  0  1  0  0  0  0  0  0  0  0  0
    9.6249   19.5619   36.8231 O   0  0  0  0  0  0  0  0  0  0  0  0
   12.2252   22.3750   35.1261 C   0  0  1  0  0  0  0  0  0  0  0  0
    9.7425   17.4318   35.8123 O   0  0  0  0  0  0  0  0  0  0  0  0
   12.7550   21.5608   36.3084 C   0  0  0  0  0  0  0  0  0  0  0  0
   10.0462   15.5930   38.9894 O   0  0  0  0  0  0  0  0  0  0  0  0
   11.5826   20.8739   37.0115 C   0  0  1  0  0  0  0  0  0  0  0  0
    7.4470   16.7931   39.2284 O   0  0  0  0  0  0  0  0  0  0  0  0
   10.7495   20.0155   36.0534 C   0  0  2  0  0  0  0  0  0  0  0  0
    8.4659   22.5630   33.2950 O   0  0  0  0  0  0  0  0  0  0  0  0
    8.8731   18.5145   36.1930 C   0  0  1  0  0  0  0  0  0  0  0  0
    6.0157   21.4459   32.5891 O   0  0  0  0  0  0  0  0  0  0  0  0
   10.4195   16.7966   36.9105 C   0  0  2  0  0  0  0  0  0  0  0  0
   11.3270   15.6951   36.3571 C   0  0  0  0  0  0  0  0  0  0  0  0
    9.3871   16.2010   37.8744 C   0  0  2  0  0  0  0  0  0  0  0  0
    8.4682   17.3180   38.3738 C   0  0  1  0  0  0  0  0  0  0  0  0
    7.8132   18.0253   37.1852 C   0  0  1  0  0  0  0  0  0  0  0  0
    8.4494   21.3468   32.5414 C   0  0  2  0  0  0  0  0  0  0  0  0
    7.1482   21.1666   31.7618 C   0  0  1  0  0  0  0  0  0  0  0  0
  3  1  1  0  0  0  0
  4  1  1  6  0  0  0
  4  6  1  0  0  0  0
  4 31  1  0  0  0  0
  6  7  1  0  0  0  0
  7  9  1  6  0  0  0
  7 30  1  0  0  0  0
 10  9  1  6  0  0  0
 10 13  1  0  0  0  0
 10 21  1  0  0  0  0
 13 12  1  6  0  0  0
 13 15  1  0  0  0  0
 15  2  1  6  0  0  0
 15 17  1  0  0  0  0
 16 25  1  0  0  0  0
 17 19  1  0  0  0  0
 19  5  1  1  0  0  0
 19 21  1  0  0  0  0
 21 14  1  1  0  0  0
 23 14  1  1  0  0  0
 23 16  1  0  0  0  0
 23 29  1  0  0  0  0
 25 26  1  6  0  0  0
 25 27  1  0  0  0  0
 26  8  1  0  0  0  0
 27 18  1  1  0  0  0
 27 28  1  0  0  0  0
 28 20  1  1  0  0  0
 28 29  1  0  0  0  0
 29 11  1  1  0  0  0
 30 22  1  1  0  0  0
 30 31  1  0  0  0  0
 31 24  1  1  0  0  0
M  END
>  <CHROM.1>
176.97423920,-175.65551034,-114.99468862,67.96042882,52.77426670,-56.04574829
9.48798343,19.44051639,35.02277827,1.79383089,-0.67560076,-0.83819131

>  <Name>
2fcz_lig

>  <RI>
2.26996e+07

>  <Rbt.Current_Directory>
/home/itssahil/PROJECTS/Mol_Feturizer/New_Systems/rnas/2fcz

>  <Rbt.Executable>
rbdock ($Id: //depot/dev/client3/rdock/2013.1/src/exe/rbdock.cxx#4 $)

>  <Rbt.Library>
libRbt.so (2013.1, Build901 2013/11/27)

>  <Rbt.Parameter_File>
/export/apps/rDock/src/rDock_2013.1_src/data/scripts/dock_solv.prm

>  <Rbt.Receptor>
prm/pocket_docking_4.prm

>  <SCORE>
-15.7012

>  <SCORE.INTER>
-15.2439

>  <SCORE.INTER.CONST>
1

>  <SCORE.INTER.POLAR>
-1.89492

>  <SCORE.INTER.ROT>
6

>  <SCORE.INTER.SOLV>
18.8671

>  <SCORE.INTER.VDW>
-17.7352

>  <SCORE.INTER.norm>
-0.491739

>  <SCORE.INTRA>
-0.45724

>  <SCORE.INTRA.DIHEDRAL>
-2.89035

>  <SCORE.INTRA.DIHEDRAL.0>
10.8409

>  <SCORE.INTRA.POLAR>
0

>  <SCORE.INTRA.POLAR.0>
0

>  <SCORE.INTRA.REPUL>
0.00933538

>  <SCORE.INTRA.REPUL.0>
0

>  <SCORE.INTRA.SOLV>
-1.78744

>  <SCORE.INTRA.SOLV.lig_0>
-80.8302

>  <SCORE.INTRA.VDW>
1.83498

>  <SCORE.INTRA.VDW.0>
-4.23953

>  <SCORE.INTRA.norm>
-0.0147497

>  <SCORE.RESTR>
0

>  <SCORE.RESTR.CAVITY>
0

>  <SCORE.RESTR.norm>
0

>  <SCORE.SYSTEM>
0

>  <SCORE.SYSTEM.CONST>
0

>  <SCORE.SYSTEM.DIHEDRAL>
0

>  <SCORE.SYSTEM.SOLV>
0

>  <SCORE.SYSTEM.norm>
0

>  <SCORE.heavy>
31

>  <SCORE.norm>
-0.506489

>  <RMSD>
6.116

$$$$
2fcz_lig
 OpenBabel11021811433D
libRbt.so/2013.1/901 2013/11/27
 31 33  0  0  0  0  0  0  0  0999 V2000
   13.8757   12.1398   34.3258 C   0  0  0  0  0  0  0  0  0  0  0  0
   15.7843   13.2962   31.6713 N   0  0  0  0  0  0  0  0  0  0  0  0
   14.9609   13.0507   34.1304 O   0  0  0  0  0  0  0  0  0  0  0  0
   12.6901   12.8789   34.9554 C   0  0  1  0  0  0  0  0  0  0  0  0
   14.0713   17.6631   33.0651 N   0  0  0  0  0  0  0  0  0  0  0  0
   12.2721   13.9998   34.1501 O   0  0  0  0  0  0  0  0  0  0  0  0
   11.0088   13.7001   33.5238 C   0  0  1  0  0  0  0  0  0  0  0  0
    8.5713   20.6766   34.0215 N   0  0  0  0  0  0  0  0  0  0  0  0
   10.9807   14.0628   32.1329 O   0  0  0  0  0  0  0  0  0  0  0  0
   12.2043   14.6416   31.6483 C   0  0  2  0  0  0  0  0  0  0  0  0
    9.4303   15.5085   30.9960 N   0  0  0  0  0  0  0  0  0  0  0  0
   13.1406   12.4916   31.0527 O   0  0  0  0  0  0  0  0  0  0  0  0
   13.3522   13.6480   31.8663 C   0  0  1  0  0  0  0  0  0  0  0  0
   11.5498   16.9893   31.9999 O   0  0  0  0  0  0  0  0  0  0  0  0
   14.7000   14.2727   31.4981 C   0  0  1  0  0  0  0  0  0  0  0  0
   10.1429   18.2551   33.4109 O   0  0  0  0  0  0  0  0  0  0  0  0
   14.9691   15.4974   32.3753 C   0  0  0  0  0  0  0  0  0  0  0  0
    8.7409   20.3102   30.6945 O   0  0  0  0  0  0  0  0  0  0  0  0
   13.8645   16.5313   32.1478 C   0  0  1  0  0  0  0  0  0  0  0  0
    7.8560   17.6723   29.9791 O   0  0  0  0  0  0  0  0  0  0  0  0
   12.4656   15.9527   32.3869 C   0  0  2  0  0  0  0  0  0  0  0  0
    9.5096   11.7346   33.5884 O   0  0  0  0  0  0  0  0  0  0  0  0
   10.3240   16.9910   32.7459 C   0  0  1  0  0  0  0  0  0  0  0  0
   10.5703   12.3987   36.0750 O   0  0  0  0  0  0  0  0  0  0  0  0
   10.0434   19.3849   32.5268 C   0  0  2  0  0  0  0  0  0  0  0  0
    9.8879   20.6544   33.3677 C   0  0  0  0  0  0  0  0  0  0  0  0
    8.8338   19.2078   31.6021 C   0  0  2  0  0  0  0  0  0  0  0  0
    8.9973   17.9090   30.8098 C   0  0  1  0  0  0  0  0  0  0  0  0
    9.1719   16.7304   31.7703 C   0  0  1  0  0  0  0  0  0  0  0  0
   10.8659   12.1839   33.6664 C   0  0  2  0  0  0  0  0  0  0  0  0
   11.4698   11.9633   35.0521 C   0  0  1  0  0  0  0  0  0  0  0  0
  3  1  1  0  0  0  0
  4  1  1  6  0  0  0
  4  6  1  0  0  0  0
  4 31  1  0  0  0  0
  6  7  1  0  0  0  0
  7  9  1  6  0  0  0
  7 30  1  0  0  0  0
 10  9  1  1  0  0  0
 10 13  1  0  0  0  0
 10 21  1  0  0  0  0
 13 12  1  6  0  0  0
 13 15  1  0  0  0  0
 15  2  1  1  0  0  0
 15 17  1  0  0  0  0
 16 25  1  0  0  0  0
 17 19  1  0  0  0  0
 19  5  1  1  0  0  0
 19 21  1  0  0  0  0
 21 14  1  6  0  0  0
 23 14  1  6  0  0  0
 23 16  1  0  0  0  0
 23 29  1  0  0  0  0
 25 26  1  1  0  0  0
 25 27  1  0  0  0  0
 26  8  1  0  0  0  0
 27 18  1  6  0  0  0
 27 28  1  0  0  0  0
 28 20  1  1  0  0  0
 28 29  1  0  0  0  0
 29 11  1  6  0  0  0
 30 22  1  1  0  0  0
 30 31  1  0  0  0  0
 31 24  1  1  0  0  0
M  END
>  <CHROM.1>
57.07805986,0.16977957,58.45317113,86.75589065,121.52889280,-69.48624338
11.47238056,15.54440739,32.68990689,1.01973728,-0.16453028,2.80601569

>  <Name>
2fcz_lig

>  <RI>
0

>  <Rbt.Current_Directory>
/home/itssahil/PROJECTS/Mol_Feturizer/New_Systems/rnas/2fcz

>  <Rbt.Executable>
rbdock ($Id: //depot/dev/client3/rdock/2013.1/src/exe/rbdock.cxx#4 $)

>  <Rbt.Library>
libRbt.so (2013.1, Build901 2013/11/27)

>  <Rbt.Parameter_File>
/export/apps/rDock/src/rDock_2013.1_src/data/scripts/dock_solv.prm

>  <Rbt.Receptor>
prm/blind_docking_40.prm

>  <SCORE>
10.1903

>  <SCORE.INTER>
-8.29377

>  <SCORE.INTER.CONST>
1

>  <SCORE.INTER.POLAR>
-0.807749

>  <SCORE.INTER.ROT>
6

>  <SCORE.INTER.SOLV>
21.0962

>  <SCORE.INTER.VDW>
-17.4687

>  <SCORE.INTER.norm>
-0.267541

>  <SCORE.INTRA>
12.0316

>  <SCORE.INTRA.DIHEDRAL>
6.87337

>  <SCORE.INTRA.DIHEDRAL.0>
10.8409

>  <SCORE.INTRA.POLAR>
0

>  <SCORE.INTRA.POLAR.0>
0

>  <SCORE.INTRA.REPUL>
0

>  <SCORE.INTRA.REPUL.0>
0

>  <SCORE.INTRA.SOLV>
4.51841

>  <SCORE.INTRA.SOLV.lig_0>
-80.8302

>  <SCORE.INTRA.VDW>
6.33571

>  <SCORE.INTRA.VDW.0>
-4.23953

>  <SCORE.INTRA.norm>
0.388116

>  <SCORE.RESTR>
6.45244

>  <SCORE.RESTR.CAVITY>
6.45244

>  <SCORE.RESTR.norm>
0.208143

>  <SCORE.SYSTEM>
0

>  <SCORE.SYSTEM.CONST>
0

>  <SCORE.SYSTEM.DIHEDRAL>
0

>  <SCORE.SYSTEM.SOLV>
0

>  <SCORE.SYSTEM.norm>
0

>  <SCORE.heavy>
31

>  <SCORE.norm>
0.328719

>  <RMSD>
6.117

$$$$
2fcz_lig
 OpenBabel11021811433D
libRbt.so/2013.1/901 2013/11/27
 31 33  0  0  0  0  0  0  0  0999 V2000
    7.9638   19.4433   30.1593 C   0  0  0  0  0  0  0  0  0  0  0  0
   13.3632   23.4479   34.1021 N   0  0  0  0  0  0  0  0  0  0  0  0
    7.1799   19.9470   29.0743 O   0  0  0  0  0  0  0  0  0  0  0  0
    7.2328   19.6944   31.4826 C   0  0  1  0  0  0  0  0  0  0  0  0
   12.3825   20.4735   37.8623 N   0  0  0  0  0  0  0  0  0  0  0  0
    7.9669   19.1661   32.6058 O   0  0  0  0  0  0  0  0  0  0  0  0
    8.5229   20.2521   33.3733 C   0  0  1  0  0  0  0  0  0  0  0  0
   12.9913   16.9023   35.5302 N   0  0  0  0  0  0  0  0  0  0  0  0
    9.8945   20.0255   33.7400 O   0  0  0  0  0  0  0  0  0  0  0  0
   10.4464   21.0271   34.6114 C   0  0  2  0  0  0  0  0  0  0  0  0
    7.3976   19.2340   37.7898 N   0  0  0  0  0  0  0  0  0  0  0  0
   11.0576   22.4781   32.7743 O   0  0  0  0  0  0  0  0  0  0  0  0
   11.5871   21.7520   33.8863 C   0  0  1  0  0  0  0  0  0  0  0  0
    9.8702   19.8959   36.7214 O   0  0  0  0  0  0  0  0  0  0  0  0
   12.3017   22.7303   34.8216 C   0  0  1  0  0  0  0  0  0  0  0  0
   10.2213   17.7135   35.8928 O   0  0  0  0  0  0  0  0  0  0  0  0
   12.9065   21.9768   36.0082 C   0  0  0  0  0  0  0  0  0  0  0  0
   10.9646   16.2430   39.1872 O   0  0  0  0  0  0  0  0  0  0  0  0
   11.7877   21.2774   36.7827 C   0  0  1  0  0  0  0  0  0  0  0  0
    8.2430   17.1056   39.5072 O   0  0  0  0  0  0  0  0  0  0  0  0
   10.9464   20.3584   35.8904 C   0  0  2  0  0  0  0  0  0  0  0  0
    8.4383   22.7121   33.1360 O   0  0  0  0  0  0  0  0  0  0  0  0
    9.2345   18.7029   36.2398 C   0  0  1  0  0  0  0  0  0  0  0  0
    6.0004   21.4676   32.6290 O   0  0  0  0  0  0  0  0  0  0  0  0
   11.0437   17.2813   36.9906 C   0  0  2  0  0  0  0  0  0  0  0  0
   12.0605   16.2620   36.4709 C   0  0  0  0  0  0  0  0  0  0  0  0
   10.1627   16.6491   38.0739 C   0  0  2  0  0  0  0  0  0  0  0  0
    9.1292   17.6770   38.5394 C   0  0  1  0  0  0  0  0  0  0  0  0
    8.3133   18.1747   37.3441 C   0  0  1  0  0  0  0  0  0  0  0  0
    8.4292   21.4612   32.4412 C   0  0  2  0  0  0  0  0  0  0  0  0
    7.0940   21.1931   31.7495 C   0  0  1  0  0  0  0  0  0  0  0  0
  3  1  1  0  0  0  0
  4  1  1  6  0  0  0
  4  6  1  0  0  0  0
  4 31  1  0  0  0  0
  6  7  1  0  0  0  0
  7  9  1  6  0  0  0
  7 30  1  0  0  0  0
 10  9  1  6  0  0  0
 10 13  1  0  0  0  0
 10 21  1  0  0  0  0
 13 12  1  6  0  0  0
 13 15  1  0  0  0  0
 15  2  1  6  0  0  0
 15 17  1  0  0  0  0
 16 25  1  0  0  0  0
 17 19  1  0  0  0  0
 19  5  1  1  0  0  0
 19 21  1  0  0  0  0
 21 14  1  1  0  0  0
 23 14  1  1  0  0  0
 23 16  1  0  0  0  0
 23 29  1  0  0  0  0
 25 26  1  6  0  0  0
 25 27  1  0  0  0  0
 26  8  1  0  0  0  0
 27 18  1  1  0  0  0
 27 28  1  0  0  0  0
 28 20  1  1  0  0  0
 28 29  1  0  0  0  0
 29 11  1  1  0  0  0
 30 22  1  1  0  0  0
 30 31  1  0  0  0  0
 31 24  1  1  0  0  0
M  END
>  <CHROM.1>
178.23309687,-174.46445800,-116.15041941,75.18739922,48.01743700,65.45626427
9.80780958,19.75778511,34.98676995,1.94654523,-0.57024424,-0.86723670

>  <Name>
2fcz_lig

>  <RI>
2.29611e+07

>  <Rbt.Current_Directory>
/home/itssahil/PROJECTS/Mol_Feturizer/New_Systems/rnas/2fcz

>  <Rbt.Executable>
rbdock ($Id: //depot/dev/client3/rdock/2013.1/src/exe/rbdock.cxx#4 $)

>  <Rbt.Library>
libRbt.so (2013.1, Build901 2013/11/27)

>  <Rbt.Parameter_File>
/export/apps/rDock/src/rDock_2013.1_src/data/scripts/dock_solv.prm

>  <Rbt.Receptor>
prm/pocket_docking_3.prm

>  <SCORE>
-15.022

>  <SCORE.INTER>
-14.4385

>  <SCORE.INTER.CONST>
1

>  <SCORE.INTER.POLAR>
-1.72528

>  <SCORE.INTER.ROT>
6

>  <SCORE.INTER.SOLV>
18.8788

>  <SCORE.INTER.VDW>
-17.7677

>  <SCORE.INTER.norm>
-0.465757

>  <SCORE.INTRA>
-0.585902

>  <SCORE.INTRA.DIHEDRAL>
-1.56701

>  <SCORE.INTRA.DIHEDRAL.0>
10.8409

>  <SCORE.INTRA.POLAR>
0

>  <SCORE.INTRA.POLAR.0>
0

>  <SCORE.INTRA.REPUL>
0.00207112

>  <SCORE.INTRA.REPUL.0>
0

>  <SCORE.INTRA.SOLV>
-2.13581

>  <SCORE.INTRA.SOLV.lig_0>
-80.8302

>  <SCORE.INTRA.VDW>
1.25515

>  <SCORE.INTRA.VDW.0>
-4.23953

>  <SCORE.INTRA.norm>
-0.0189001

>  <SCORE.RESTR>
0.00241691

>  <SCORE.RESTR.CAVITY>
0.00241691

>  <SCORE.RESTR.norm>
7.79649e-05

>  <SCORE.SYSTEM>
0

>  <SCORE.SYSTEM.CONST>
0

>  <SCORE.SYSTEM.DIHEDRAL>
0

>  <SCORE.SYSTEM.SOLV>
0

>  <SCORE.SYSTEM.norm>
0

>  <SCORE.heavy>
31

>  <SCORE.norm>
-0.484579

>  <RMSD>
6.122

$$$$
2fcz_lig
 OpenBabel11021811433D
libRbt.so/2013.1/901 2013/11/27
 31 33  0  0  0  0  0  0  0  0999 V2000
   12.1908   18.0718   39.9362 C   0  0  0  0  0  0  0  0  0  0  0  0
    8.1561   21.3992   33.7374 N   0  0  0  0  0  0  0  0  0  0  0  0
   12.2887   17.3131   41.1447 O   0  0  0  0  0  0  0  0  0  0  0  0
   10.7398   18.0701   39.4432 C   0  0  1  0  0  0  0  0  0  0  0  0
   12.9371   21.3223   32.6967 N   0  0  0  0  0  0  0  0  0  0  0  0
   10.5906   18.8229   38.2223 O   0  0  0  0  0  0  0  0  0  0  0  0
   10.3572   17.9197   37.1235 C   0  0  1  0  0  0  0  0  0  0  0  0
   14.0606   17.0149   31.8374 N   0  0  0  0  0  0  0  0  0  0  0  0
   11.1461   18.2414   35.9653 O   0  0  0  0  0  0  0  0  0  0  0  0
   11.0212   19.6044   35.5254 C   0  0  2  0  0  0  0  0  0  0  0  0
   14.9260   20.0105   37.4584 N   0  0  0  0  0  0  0  0  0  0  0  0
    8.6334   19.6501   35.9127 O   0  0  0  0  0  0  0  0  0  0  0  0
    9.6340   19.8078   34.9037 C   0  0  1  0  0  0  0  0  0  0  0  0
   13.4222   19.9805   35.1280 O   0  0  0  0  0  0  0  0  0  0  0  0
    9.5033   21.2040   34.2907 C   0  0  1  0  0  0  0  0  0  0  0  0
   14.1712   17.8205   34.5398 O   0  0  0  0  0  0  0  0  0  0  0  0
   10.5434   21.3919   33.1840 C   0  0  0  0  0  0  0  0  0  0  0  0
   17.5276   18.9249   33.4991 O   0  0  0  0  0  0  0  0  0  0  0  0
   11.9444   21.2408   33.7799 C   0  0  1  0  0  0  0  0  0  0  0  0
   17.5072   19.5938   36.2929 O   0  0  0  0  0  0  0  0  0  0  0  0
   12.1254   19.9081   34.5147 C   0  0  2  0  0  0  0  0  0  0  0  0
   10.1625   15.4597   36.9641 O   0  0  0  0  0  0  0  0  0  0  0  0
   13.9002   18.7233   35.6281 C   0  0  1  0  0  0  0  0  0  0  0  0
    8.8586   16.5312   39.1779 O   0  0  0  0  0  0  0  0  0  0  0  0
   15.1896   18.2720   33.6303 C   0  0  2  0  0  0  0  0  0  0  0  0
   15.3465   17.2356   32.5149 C   0  0  0  0  0  0  0  0  0  0  0  0
   16.5121   18.4450   34.3856 C   0  0  2  0  0  0  0  0  0  0  0  0
   16.3106   19.4512   35.5207 C   0  0  1  0  0  0  0  0  0  0  0  0
   15.1756   18.9854   36.4355 C   0  0  1  0  0  0  0  0  0  0  0  0
   10.7684   16.5498   37.6656 C   0  0  2  0  0  0  0  0  0  0  0  0
   10.2821   16.6501   39.1101 C   0  0  1  0  0  0  0  0  0  0  0  0
  3  1  1  0  0  0  0
  4  1  1  6  0  0  0
  4  6  1  0  0  0  0
  4 31  1  0  0  0  0
  6  7  1  0  0  0  0
  7  9  1  6  0  0  0
  7 30  1  0  0  0  0
 10  9  1  6  0  0  0
 10 13  1  0  0  0  0
 10 21  1  0  0  0  0
 13 12  1  1  0  0  0
 13 15  1  0  0  0  0
 15  2  1  6  0  0  0
 15 17  1  0  0  0  0
 16 25  1  0  0  0  0
 17 19  1  0  0  0  0
 19  5  1  6  0  0  0
 19 21  1  0  0  0  0
 21 14  1  1  0  0  0
 23 14  1  6  0  0  0
 23 16  1  0  0  0  0
 23 29  1  0  0  0  0
 25 26  1  6  0  0  0
 25 27  1  0  0  0  0
 26  8  1  0  0  0  0
 27 18  1  6  0  0  0
 27 28  1  0  0  0  0
 28 20  1  1  0  0  0
 28 29  1  0  0  0  0
 29 11  1  1  0  0  0
 30 22  1  6  0  0  0
 30 31  1  0  0  0  0
 31 24  1  6  0  0  0
M  END
>  <CHROM.1>
-179.90852328,-53.11808231,-71.37488231,67.89850612,67.65392090,56.76266466
12.45048681,18.79668153,35.84999650,-2.50053770,0.15538382,-1.09033042

>  <Name>
2fcz_lig

>  <RI>
0

>  <Rbt.Current_Directory>
/home/itssahil/PROJECTS/Mol_Feturizer/New_Systems/rnas/2fcz

>  <Rbt.Executable>
rbdock ($Id: //depot/dev/client3/rdock/2013.1/src/exe/rbdock.cxx#4 $)

>  <Rbt.Library>
libRbt.so (2013.1, Build901 2013/11/27)

>  <Rbt.Parameter_File>
/export/apps/rDock/src/rDock_2013.1_src/data/scripts/dock_solv.prm

>  <Rbt.Receptor>
prm/pocket_docking_6.prm

>  <SCORE>
-15.6576

>  <SCORE.INTER>
-11.5194

>  <SCORE.INTER.CONST>
1

>  <SCORE.INTER.POLAR>
-2.63669

>  <SCORE.INTER.ROT>
6

>  <SCORE.INTER.SOLV>
21.497

>  <SCORE.INTER.VDW>
-13.6563

>  <SCORE.INTER.norm>
-0.371593

>  <SCORE.INTRA>
-4.30265

>  <SCORE.INTRA.DIHEDRAL>
-9.21938

>  <SCORE.INTRA.DIHEDRAL.0>
10.8409

>  <SCORE.INTRA.POLAR>
0

>  <SCORE.INTRA.POLAR.0>
0

>  <SCORE.INTRA.REPUL>
0

>  <SCORE.INTRA.REPUL.0>
0

>  <SCORE.INTRA.SOLV>
-3.38722

>  <SCORE.INTRA.SOLV.lig_0>
-80.8302

>  <SCORE.INTRA.VDW>
2.00065

>  <SCORE.INTRA.VDW.0>
-4.23953

>  <SCORE.INTRA.norm>
-0.138795

>  <SCORE.RESTR>
0.164432

>  <SCORE.RESTR.CAVITY>
0.164432

>  <SCORE.RESTR.norm>
0.00530426

>  <SCORE.SYSTEM>
0

>  <SCORE.SYSTEM.CONST>
0

>  <SCORE.SYSTEM.DIHEDRAL>
0

>  <SCORE.SYSTEM.SOLV>
0

>  <SCORE.SYSTEM.norm>
0

>  <SCORE.heavy>
31

>  <SCORE.norm>
-0.505084

>  <RMSD>
6.124

$$$$
2fcz_lig
 OpenBabel11021811433D
libRbt.so/2013.1/901 2013/11/27
 31 33  0  0  0  0  0  0  0  0999 V2000
   17.3630   18.5953   35.9065 C   0  0  0  0  0  0  0  0  0  0  0  0
   18.5646   24.0386   35.9567 N   0  0  0  0  0  0  0  0  0  0  0  0
   17.2090   17.2718   36.4261 O   0  0  0  0  0  0  0  0  0  0  0  0
   15.9843   19.2354   35.7113 C   0  0  1  0  0  0  0  0  0  0  0  0
   14.2150   25.1512   34.0098 N   0  0  0  0  0  0  0  0  0  0  0  0
   16.0788   20.5141   35.0513 O   0  0  0  0  0  0  0  0  0  0  0  0
   15.5771   20.4007   33.7047 C   0  0  1  0  0  0  0  0  0  0  0  0
   10.6223   20.4743   32.9132 N   0  0  0  0  0  0  0  0  0  0  0  0
   16.4286   21.0435   32.7408 O   0  0  0  0  0  0  0  0  0  0  0  0
   16.7093   22.4240   33.0279 C   0  0  2  0  0  0  0  0  0  0  0  0
   14.5487   23.1000   29.1490 N   0  0  0  0  0  0  0  0  0  0  0  0
   18.8132   21.9096   34.1062 O   0  0  0  0  0  0  0  0  0  0  0  0
   17.5341   22.5123   34.3179 C   0  0  1  0  0  0  0  0  0  0  0  0
   14.7186   23.3426   31.9068 O   0  0  0  0  0  0  0  0  0  0  0  0
   17.7373   23.9681   34.7443 C   0  0  1  0  0  0  0  0  0  0  0  0
   13.1858   21.5840   32.2680 O   0  0  0  0  0  0  0  0  0  0  0  0
   16.3842   24.6323   35.0085 C   0  0  0  0  0  0  0  0  0  0  0  0
   10.2210   23.5510   31.3147 O   0  0  0  0  0  0  0  0  0  0  0  0
   15.5507   24.6028   33.7259 C   0  0  1  0  0  0  0  0  0  0  0  0
   11.7280   23.5000   28.8693 O   0  0  0  0  0  0  0  0  0  0  0  0
   15.3922   23.1852   33.1655 C   0  0  2  0  0  0  0  0  0  0  0  0
   14.6258   18.5257   32.4031 O   0  0  0  0  0  0  0  0  0  0  0  0
   14.1813   22.1217   31.3777 C   0  0  1  0  0  0  0  0  0  0  0  0
   13.7176   18.6195   35.0329 O   0  0  0  0  0  0  0  0  0  0  0  0
   12.0455   22.4363   32.4715 C   0  0  2  0  0  0  0  0  0  0  0  0
   11.0936   21.7558   33.4584 C   0  0  0  0  0  0  0  0  0  0  0  0
   11.3399   22.6779   31.1324 C   0  0  2  0  0  0  0  0  0  0  0  0
   12.3293   23.3161   30.1551 C   0  0  1  0  0  0  0  0  0  0  0  0
   13.5655   22.4259   30.0083 C   0  0  1  0  0  0  0  0  0  0  0  0
   15.5402   18.8947   33.4400 C   0  0  2  0  0  0  0  0  0  0  0  0
   15.1074   18.3691   34.8074 C   0  0  1  0  0  0  0  0  0  0  0  0
  3  1  1  0  0  0  0
  4  1  1  6  0  0  0
  4  6  1  0  0  0  0
  4 31  1  0  0  0  0
  6  7  1  0  0  0  0
  7  9  1  6  0  0  0
  7 30  1  0  0  0  0
 10  9  1  1  0  0  0
 10 13  1  0  0  0  0
 10 21  1  0  0  0  0
 13 12  1  6  0  0  0
 13 15  1  0  0  0  0
 15  2  1  1  0  0  0
 15 17  1  0  0  0  0
 16 25  1  0  0  0  0
 17 19  1  0  0  0  0
 19  5  1  1  0  0  0
 19 21  1  0  0  0  0
 21 14  1  6  0  0  0
 23 14  1  1  0  0  0
 23 16  1  0  0  0  0
 23 29  1  0  0  0  0
 25 26  1  1  0  0  0
 25 27  1  0  0  0  0
 26  8  1  0  0  0  0
 27 18  1  1  0  0  0
 27 28  1  0  0  0  0
 28 20  1  6  0  0  0
 28 29  1  0  0  0  0
 29 11  1  6  0  0  0
 30 22  1  6  0  0  0
 30 31  1  0  0  0  0
 31 24  1  1  0  0  0
M  END
>  <CHROM.1>
-173.60425967,-54.52638123,65.68624482,70.04532885,62.17903182,-61.29575973
14.76923801,21.70853536,33.17018600,0.61939459,0.54434160,2.76923543

>  <Name>
2fcz_lig

>  <RI>
2.6968e+07

>  <Rbt.Current_Directory>
/home/itssahil/PROJECTS/Mol_Feturizer/New_Systems/rnas/2fcz

>  <Rbt.Executable>
rbdock ($Id: //depot/dev/client3/rdock/2013.1/src/exe/rbdock.cxx#4 $)

>  <Rbt.Library>
libRbt.so (2013.1, Build901 2013/11/27)

>  <Rbt.Parameter_File>
/export/apps/rDock/src/rDock_2013.1_src/data/scripts/dock_solv.prm

>  <Rbt.Receptor>
prm/blind_docking_60.prm

>  <SCORE>
-12.3774

>  <SCORE.INTER>
-9.71924

>  <SCORE.INTER.CONST>
1

>  <SCORE.INTER.POLAR>
-0.819493

>  <SCORE.INTER.ROT>
6

>  <SCORE.INTER.SOLV>
14.3422

>  <SCORE.INTER.VDW>
-16.1286

>  <SCORE.INTER.norm>
-0.313524

>  <SCORE.INTRA>
-2.65822

>  <SCORE.INTRA.DIHEDRAL>
-9.72591

>  <SCORE.INTRA.DIHEDRAL.0>
10.8409

>  <SCORE.INTRA.POLAR>
0

>  <SCORE.INTRA.POLAR.0>
0

>  <SCORE.INTRA.REPUL>
0

>  <SCORE.INTRA.REPUL.0>
0

>  <SCORE.INTRA.SOLV>
-1.43327

>  <SCORE.INTRA.SOLV.lig_0>
-80.8302

>  <SCORE.INTRA.VDW>
2.92137

>  <SCORE.INTRA.VDW.0>
-4.23953

>  <SCORE.INTRA.norm>
-0.085749

>  <SCORE.RESTR>
8.66194e-05

>  <SCORE.RESTR.CAVITY>
8.66194e-05

>  <SCORE.RESTR.norm>
2.79417e-06

>  <SCORE.SYSTEM>
0

>  <SCORE.SYSTEM.CONST>
0

>  <SCORE.SYSTEM.DIHEDRAL>
0

>  <SCORE.SYSTEM.SOLV>
0

>  <SCORE.SYSTEM.norm>
0

>  <SCORE.heavy>
31

>  <SCORE.norm>
-0.39927

>  <RMSD>
6.130

$$$$
2fcz_lig
 OpenBabel11021811433D
libRbt.so/2013.1/901 2013/11/27
 31 33  0  0  0  0  0  0  0  0999 V2000
    8.8128   18.2172   30.5178 C   0  0  0  0  0  0  0  0  0  0  0  0
   12.2603   22.6576   33.7278 N   0  0  0  0  0  0  0  0  0  0  0  0
    7.6396   18.6110   31.2348 O   0  0  0  0  0  0  0  0  0  0  0  0
    9.9104   17.8138   31.5083 C   0  0  1  0  0  0  0  0  0  0  0  0
   12.2698   19.9249   37.7873 N   0  0  0  0  0  0  0  0  0  0  0  0
   10.0985   18.8124   32.5315 O   0  0  0  0  0  0  0  0  0  0  0  0
    9.5885   18.3199   33.7865 C   0  0  1  0  0  0  0  0  0  0  0  0
   12.0364   15.6552   36.8159 N   0  0  0  0  0  0  0  0  0  0  0  0
    8.7954   19.2961   34.4831 O   0  0  0  0  0  0  0  0  0  0  0  0
    9.5605   20.3337   35.1197 C   0  0  2  0  0  0  0  0  0  0  0  0
    6.9939   19.3334   38.4626 N   0  0  0  0  0  0  0  0  0  0  0  0
    9.6834   21.6638   33.1024 O   0  0  0  0  0  0  0  0  0  0  0  0
   10.4786   20.9911   34.0818 C   0  0  1  0  0  0  0  0  0  0  0  0
    9.5441   19.3377   37.3717 O   0  0  0  0  0  0  0  0  0  0  0  0
   11.4172   22.0055   34.7393 C   0  0  1  0  0  0  0  0  0  0  0  0
    9.5006   17.0106   36.9775 O   0  0  0  0  0  0  0  0  0  0  0  0
   12.3044   21.3081   35.7728 C   0  0  0  0  0  0  0  0  0  0  0  0
    9.9726   16.0848   40.5113 O   0  0  0  0  0  0  0  0  0  0  0  0
   11.4204   20.6786   36.8513 C   0  0  1  0  0  0  0  0  0  0  0  0
    7.4483   17.4549   40.5744 O   0  0  0  0  0  0  0  0  0  0  0  0
   10.3709   19.7285   36.2642 C   0  0  2  0  0  0  0  0  0  0  0  0
    8.5263   16.1929   34.4663 O   0  0  0  0  0  0  0  0  0  0  0  0
    8.7059   18.2049   37.1007 C   0  0  1  0  0  0  0  0  0  0  0  0
   10.6842   15.8497   32.7415 O   0  0  0  0  0  0  0  0  0  0  0  0
   10.2337   16.6574   38.1632 C   0  0  2  0  0  0  0  0  0  0  0  0
   11.0524   15.3962   37.8771 C   0  0  0  0  0  0  0  0  0  0  0  0
    9.2550   16.4062   39.3159 C   0  0  2  0  0  0  0  0  0  0  0  0
    8.4213   17.6684   39.5466 C   0  0  1  0  0  0  0  0  0  0  0  0
    7.7061   18.0651   38.2531 C   0  0  1  0  0  0  0  0  0  0  0  0
    8.7155   17.1257   33.3979 C   0  0  2  0  0  0  0  0  0  0  0  0
    9.5283   16.5323   32.2487 C   0  0  1  0  0  0  0  0  0  0  0  0
  3  1  1  0  0  0  0
  4  1  1  6  0  0  0
  4  6  1  0  0  0  0
  4 31  1  0  0  0  0
  6  7  1  0  0  0  0
  7  9  1  6  0  0  0
  7 30  1  0  0  0  0
 10  9  1  6  0  0  0
 10 13  1  0  0  0  0
 10 21  1  0  0  0  0
 13 12  1  6  0  0  0
 13 15  1  0  0  0  0
 15  2  1  6  0  0  0
 15 17  1  0  0  0  0
 16 25  1  0  0  0  0
 17 19  1  0  0  0  0
 19  5  1  1  0  0  0
 19 21  1  0  0  0  0
 21 14  1  1  0  0  0
 23 14  1  1  0  0  0
 23 16  1  0  0  0  0
 23 29  1  0  0  0  0
 25 26  1  6  0  0  0
 25 27  1  0  0  0  0
 26  8  1  0  0  0  0
 27 18  1  1  0  0  0
 27 28  1  0  0  0  0
 28 20  1  1  0  0  0
 28 29  1  0  0  0  0
 29 11  1  1  0  0  0
 30 22  1  1  0  0  0
 30 31  1  0  0  0  0
 31 24  1  1  0  0  0
M  END
>  <CHROM.1>
-49.90914242,-75.71375106,54.34515158,69.74315558,69.54730063,62.58966858
9.74922044,18.47016380,35.64148687,1.33715237,-1.20535763,-1.48710740

>  <Name>
2fcz_lig

>  <RI>
0

>  <Rbt.Current_Directory>
/home/itssahil/PROJECTS/Mol_Feturizer/New_Systems/rnas/2fcz

>  <Rbt.Executable>
rbdock ($Id: //depot/dev/client3/rdock/2013.1/src/exe/rbdock.cxx#4 $)

>  <Rbt.Library>
libRbt.so (2013.1, Build901 2013/11/27)

>  <Rbt.Parameter_File>
/export/apps/rDock/src/rDock_2013.1_src/data/scripts/dock_solv.prm

>  <Rbt.Receptor>
prm/pocket_docking_6.prm

>  <SCORE>
-20.3223

>  <SCORE.INTER>
-17.1502

>  <SCORE.INTER.CONST>
1

>  <SCORE.INTER.POLAR>
-2.09801

>  <SCORE.INTER.ROT>
6

>  <SCORE.INTER.SOLV>
16.283

>  <SCORE.INTER.VDW>
-17.4678

>  <SCORE.INTER.norm>
-0.553231

>  <SCORE.INTRA>
-3.17216

>  <SCORE.INTRA.DIHEDRAL>
-8.11742

>  <SCORE.INTRA.DIHEDRAL.0>
10.8409

>  <SCORE.INTRA.POLAR>
0

>  <SCORE.INTRA.POLAR.0>
0

>  <SCORE.INTRA.REPUL>
0

>  <SCORE.INTRA.REPUL.0>
0

>  <SCORE.INTRA.SOLV>
-2.12843

>  <SCORE.INTRA.SOLV.lig_0>
-80.8302

>  <SCORE.INTRA.VDW>
1.95077

>  <SCORE.INTRA.VDW.0>
-4.23953

>  <SCORE.INTRA.norm>
-0.102328

>  <SCORE.RESTR>
0

>  <SCORE.RESTR.CAVITY>
0

>  <SCORE.RESTR.norm>
0

>  <SCORE.SYSTEM>
0

>  <SCORE.SYSTEM.CONST>
0

>  <SCORE.SYSTEM.DIHEDRAL>
0

>  <SCORE.SYSTEM.SOLV>
0

>  <SCORE.SYSTEM.norm>
0

>  <SCORE.heavy>
31

>  <SCORE.norm>
-0.655559

>  <RMSD>
6.130

$$$$
2fcz_lig
 OpenBabel11021811433D
libRbt.so/2013.1/901 2013/11/27
 31 33  0  0  0  0  0  0  0  0999 V2000
    8.2652   15.5802   36.6155 C   0  0  0  0  0  0  0  0  0  0  0  0
    8.4715   19.4988   29.5149 N   0  0  0  0  0  0  0  0  0  0  0  0
    7.5462   16.7623   36.9777 O   0  0  0  0  0  0  0  0  0  0  0  0
    7.8366   15.1254   35.2162 C   0  0  1  0  0  0  0  0  0  0  0  0
   11.3196   21.4375   32.9901 N   0  0  0  0  0  0  0  0  0  0  0  0
    8.1148   16.1306   34.2203 O   0  0  0  0  0  0  0  0  0  0  0  0
    9.2141   15.7000   33.3933 C   0  0  1  0  0  0  0  0  0  0  0  0
   15.7015   18.9031   33.6326 N   0  0  0  0  0  0  0  0  0  0  0  0
   10.1795   16.7416   33.1695 O   0  0  0  0  0  0  0  0  0  0  0  0
    9.6056   18.0218   32.8555 C   0  0  2  0  0  0  0  0  0  0  0  0
   10.3650   19.0912   37.4235 N   0  0  0  0  0  0  0  0  0  0  0  0
    8.2676   17.1273   31.0490 O   0  0  0  0  0  0  0  0  0  0  0  0
    9.2904   18.0781   31.3556 C   0  0  1  0  0  0  0  0  0  0  0  0
   10.7042   19.2637   34.6761 O   0  0  0  0  0  0  0  0  0  0  0  0
    8.8101   19.4719   30.9446 C   0  0  1  0  0  0  0  0  0  0  0  0
   12.3891   17.6103   34.6678 O   0  0  0  0  0  0  0  0  0  0  0  0
    9.8977   20.5091   31.2327 C   0  0  0  0  0  0  0  0  0  0  0  0
   14.9853   19.8008   36.0923 O   0  0  0  0  0  0  0  0  0  0  0  0
   10.2050   20.5122   32.7315 C   0  0  1  0  0  0  0  0  0  0  0  0
   13.0498   19.6948   38.2126 O   0  0  0  0  0  0  0  0  0  0  0  0
   10.5879   19.1223   33.2515 C   0  0  2  0  0  0  0  0  0  0  0  0
   10.6166   13.6636   33.3646 O   0  0  0  0  0  0  0  0  0  0  0  0
   11.2102   18.0950   35.3374 C   0  0  1  0  0  0  0  0  0  0  0  0
    7.9159   13.1405   33.7909 O   0  0  0  0  0  0  0  0  0  0  0  0
   13.4892   18.5364   34.6527 C   0  0  2  0  0  0  0  0  0  0  0  0
   14.6528   17.9042   33.8850 C   0  0  0  0  0  0  0  0  0  0  0  0
   13.9115   18.8551   36.0912 C   0  0  2  0  0  0  0  0  0  0  0  0
   12.7157   19.4422   36.8440 C   0  0  1  0  0  0  0  0  0  0  0  0
   11.5349   18.4704   36.7868 C   0  0  1  0  0  0  0  0  0  0  0  0
    9.8574   14.5589   34.1829 C   0  0  2  0  0  0  0  0  0  0  0  0
    8.6234   13.8882   34.7835 C   0  0  1  0  0  0  0  0  0  0  0  0
  3  1  1  0  0  0  0
  4  1  1  1  0  0  0
  4  6  1  0  0  0  0
  4 31  1  0  0  0  0
  6  7  1  0  0  0  0
  7  9  1  1  0  0  0
  7 30  1  0  0  0  0
 10  9  1  6  0  0  0
 10 13  1  0  0  0  0
 10 21  1  0  0  0  0
 13 12  1  1  0  0  0
 13 15  1  0  0  0  0
 15  2  1  6  0  0  0
 15 17  1  0  0  0  0
 16 25  1  0  0  0  0
 17 19  1  0  0  0  0
 19  5  1  6  0  0  0
 19 21  1  0  0  0  0
 21 14  1  1  0  0  0
 23 14  1  6  0  0  0
 23 16  1  0  0  0  0
 23 29  1  0  0  0  0
 25 26  1  6  0  0  0
 25 27  1  0  0  0  0
 26  8  1  0  0  0  0
 27 18  1  6  0  0  0
 27 28  1  0  0  0  0
 28 20  1  1  0  0  0
 28 29  1  0  0  0  0
 29 11  1  6  0  0  0
 30 22  1  6  0  0  0
 30 31  1  0  0  0  0
 31 24  1  6  0  0  0
M  END
>  <CHROM.1>
60.67981158,-44.17673967,-83.72809899,62.17416122,48.34784388,169.61561823
10.61668779,17.73270218,34.21168000,-3.03768196,-0.70524771,-0.92126954

>  <Name>
2fcz_lig

>  <RI>
1.32928e+07

>  <Rbt.Current_Directory>
/home/itssahil/PROJECTS/Mol_Feturizer/New_Systems/rnas/2fcz

>  <Rbt.Executable>
rbdock ($Id: //depot/dev/client3/rdock/2013.1/src/exe/rbdock.cxx#4 $)

>  <Rbt.Library>
libRbt.so (2013.1, Build901 2013/11/27)

>  <Rbt.Parameter_File>
/export/apps/rDock/src/rDock_2013.1_src/data/scripts/dock_solv.prm

>  <Rbt.Receptor>
prm/pocket_docking_7.prm

>  <SCORE>
-17.9272

>  <SCORE.INTER>
-15.4394

>  <SCORE.INTER.CONST>
1

>  <SCORE.INTER.POLAR>
-2.05852

>  <SCORE.INTER.ROT>
6

>  <SCORE.INTER.SOLV>
13.9457

>  <SCORE.INTER.VDW>
-15.6797

>  <SCORE.INTER.norm>
-0.498044

>  <SCORE.INTRA>
-2.48781

>  <SCORE.INTRA.DIHEDRAL>
-6.04964

>  <SCORE.INTRA.DIHEDRAL.0>
10.8409

>  <SCORE.INTRA.POLAR>
0

>  <SCORE.INTRA.POLAR.0>
0

>  <SCORE.INTRA.REPUL>
0

>  <SCORE.INTRA.REPUL.0>
0

>  <SCORE.INTRA.SOLV>
-2.17075

>  <SCORE.INTRA.SOLV.lig_0>
-80.8302

>  <SCORE.INTRA.VDW>
1.62239

>  <SCORE.INTRA.VDW.0>
-4.23953

>  <SCORE.INTRA.norm>
-0.0802518

>  <SCORE.RESTR>
0

>  <SCORE.RESTR.CAVITY>
0

>  <SCORE.RESTR.norm>
0

>  <SCORE.SYSTEM>
0

>  <SCORE.SYSTEM.CONST>
0

>  <SCORE.SYSTEM.DIHEDRAL>
0

>  <SCORE.SYSTEM.SOLV>
0

>  <SCORE.SYSTEM.norm>
0

>  <SCORE.heavy>
31

>  <SCORE.norm>
-0.578296

>  <RMSD>
6.138

$$$$
2fcz_lig
 OpenBabel11021811433D
libRbt.so/2013.1/901 2013/11/27
 31 33  0  0  0  0  0  0  0  0999 V2000
    9.4681   20.0635   30.5625 C   0  0  0  0  0  0  0  0  0  0  0  0
   14.5891   16.4686   35.7663 N   0  0  0  0  0  0  0  0  0  0  0  0
    8.2161   20.1749   29.8801 O   0  0  0  0  0  0  0  0  0  0  0  0
    9.3521   19.0268   31.6851 C   0  0  1  0  0  0  0  0  0  0  0  0
   16.6709   20.5168   33.9702 N   0  0  0  0  0  0  0  0  0  0  0  0
   10.6268   18.7721   32.3094 O   0  0  0  0  0  0  0  0  0  0  0  0
   10.6418   19.3497   33.6300 C   0  0  1  0  0  0  0  0  0  0  0  0
   14.8554   25.6983   34.5488 N   0  0  0  0  0  0  0  0  0  0  0  0
   11.8566   20.0673   33.9066 O   0  0  0  0  0  0  0  0  0  0  0  0
   13.0554   19.3002   33.7030 C   0  0  2  0  0  0  0  0  0  0  0  0
   13.0371   21.9077   30.2152 N   0  0  0  0  0  0  0  0  0  0  0  0
   12.1064   17.3068   34.6927 O   0  0  0  0  0  0  0  0  0  0  0  0
   13.1750   18.2489   34.8133 C   0  0  1  0  0  0  0  0  0  0  0  0
   14.3097   21.0660   32.5315 O   0  0  0  0  0  0  0  0  0  0  0  0
   14.5072   17.5007   34.7235 C   0  0  1  0  0  0  0  0  0  0  0  0
   14.0269   23.1613   33.5816 O   0  0  0  0  0  0  0  0  0  0  0  0
   15.6721   18.4805   34.8804 C   0  0  0  0  0  0  0  0  0  0  0  0
   16.6408   24.8537   31.6142 O   0  0  0  0  0  0  0  0  0  0  0  0
   15.6099   19.5192   33.7587 C   0  0  1  0  0  0  0  0  0  0  0  0
   14.7330   24.1283   29.5925 O   0  0  0  0  0  0  0  0  0  0  0  0
   14.2589   20.2408   33.7059 C   0  0  2  0  0  0  0  0  0  0  0  0
    8.9712   20.6104   34.9471 O   0  0  0  0  0  0  0  0  0  0  0  0
   13.4915   22.2423   32.6111 C   0  0  1  0  0  0  0  0  0  0  0  0
    7.8867   18.4561   33.5571 O   0  0  0  0  0  0  0  0  0  0  0  0
   15.3473   23.6446   33.2798 C   0  0  2  0  0  0  0  0  0  0  0  0
   15.7975   24.5788   34.4057 C   0  0  0  0  0  0  0  0  0  0  0  0
   15.3262   24.3943   31.9430 C   0  0  2  0  0  0  0  0  0  0  0  0
   14.8292   23.4480   30.8481 C   0  0  1  0  0  0  0  0  0  0  0  0
   13.4540   22.8916   31.2240 C   0  0  1  0  0  0  0  0  0  0  0  0
    9.4570   20.3170   33.6335 C   0  0  2  0  0  0  0  0  0  0  0  0
    8.4410   19.5364   32.8018 C   0  0  1  0  0  0  0  0  0  0  0  0
  3  1  1  0  0  0  0
  4  1  1  6  0  0  0
  4  6  1  0  0  0  0
  4 31  1  0  0  0  0
  6  7  1  0  0  0  0
  7  9  1  6  0  0  0
  7 30  1  0  0  0  0
 10  9  1  1  0  0  0
 10 13  1  0  0  0  0
 10 21  1  0  0  0  0
 13 12  1  6  0  0  0
 13 15  1  0  0  0  0
 15  2  1  1  0  0  0
 15 17  1  0  0  0  0
 16 25  1  0  0  0  0
 17 19  1  0  0  0  0
 19  5  1  1  0  0  0
 19 21  1  0  0  0  0
 21 14  1  6  0  0  0
 23 14  1  6  0  0  0
 23 16  1  0  0  0  0
 23 29  1  0  0  0  0
 25 26  1  1  0  0  0
 25 27  1  0  0  0  0
 26  8  1  0  0  0  0
 27 18  1  6  0  0  0
 27 28  1  0  0  0  0
 28 20  1  6  0  0  0
 28 29  1  0  0  0  0
 29 11  1  6  0  0  0
 30 22  1  1  0  0  0
 30 31  1  0  0  0  0
 31 24  1  1  0  0  0
M  END
>  <CHROM.1>
173.73037535,-54.12101602,-71.59497602,83.31013854,68.60078766,-58.46379362
12.87201607,20.84345409,32.99415427,2.50762924,0.34945273,2.57926871

>  <Name>
2fcz_lig

>  <RI>
1.40544e+07

>  <Rbt.Current_Directory>
/home/itssahil/PROJECTS/Mol_Feturizer/New_Systems/rnas/2fcz

>  <Rbt.Executable>
rbdock ($Id: //depot/dev/client3/rdock/2013.1/src/exe/rbdock.cxx#4 $)

>  <Rbt.Library>
libRbt.so (2013.1, Build901 2013/11/27)

>  <Rbt.Parameter_File>
/export/apps/rDock/src/rDock_2013.1_src/data/scripts/dock_solv.prm

>  <Rbt.Receptor>
prm/blind_docking_100.prm

>  <SCORE>
-11.0907

>  <SCORE.INTER>
-8.91865

>  <SCORE.INTER.CONST>
1

>  <SCORE.INTER.POLAR>
-1.08914

>  <SCORE.INTER.ROT>
6

>  <SCORE.INTER.SOLV>
12.3685

>  <SCORE.INTER.VDW>
-14.0381

>  <SCORE.INTER.norm>
-0.287698

>  <SCORE.INTRA>
-2.56948

>  <SCORE.INTRA.DIHEDRAL>
-7.05701

>  <SCORE.INTRA.DIHEDRAL.0>
10.8409

>  <SCORE.INTRA.POLAR>
0

>  <SCORE.INTRA.POLAR.0>
0

>  <SCORE.INTRA.REPUL>
0

>  <SCORE.INTRA.REPUL.0>
0

>  <SCORE.INTRA.SOLV>
-1.20466

>  <SCORE.INTRA.SOLV.lig_0>
-80.8302

>  <SCORE.INTRA.VDW>
1.56136

>  <SCORE.INTRA.VDW.0>
-4.23953

>  <SCORE.INTRA.norm>
-0.0828863

>  <SCORE.RESTR>
0.397446

>  <SCORE.RESTR.CAVITY>
0.397446

>  <SCORE.RESTR.norm>
0.0128208

>  <SCORE.SYSTEM>
0

>  <SCORE.SYSTEM.CONST>
0

>  <SCORE.SYSTEM.DIHEDRAL>
0

>  <SCORE.SYSTEM.SOLV>
0

>  <SCORE.SYSTEM.norm>
0

>  <SCORE.heavy>
31

>  <SCORE.norm>
-0.357764

>  <RMSD>
6.143

$$$$
2fcz_lig
 OpenBabel11021811433D
libRbt.so/2013.1/901 2013/11/27
 31 33  0  0  0  0  0  0  0  0999 V2000
    6.6151   21.8834   32.4699 C   0  0  0  0  0  0  0  0  0  0  0  0
   14.3286   22.1096   36.2883 N   0  0  0  0  0  0  0  0  0  0  0  0
    6.4430   20.9250   33.5174 O   0  0  0  0  0  0  0  0  0  0  0  0
    7.7532   22.8435   32.8323 C   0  0  1  0  0  0  0  0  0  0  0  0
   11.9735   18.2316   38.1219 N   0  0  0  0  0  0  0  0  0  0  0  0
    8.4108   22.4535   34.0551 O   0  0  0  0  0  0  0  0  0  0  0  0
    9.7208   21.9329   33.7541 C   0  0  1  0  0  0  0  0  0  0  0  0
   10.9843   14.3483   36.0337 N   0  0  0  0  0  0  0  0  0  0  0  0
   10.0119   20.7198   34.4689 O   0  0  0  0  0  0  0  0  0  0  0  0
   10.7450   20.9150   35.6901 C   0  0  2  0  0  0  0  0  0  0  0  0
    6.8706   19.1896   37.6098 N   0  0  0  0  0  0  0  0  0  0  0  0
   12.0188   22.7626   34.7858 O   0  0  0  0  0  0  0  0  0  0  0  0
   12.1404   21.4582   35.3584 C   0  0  1  0  0  0  0  0  0  0  0  0
    9.5736   19.1808   36.9878 O   0  0  0  0  0  0  0  0  0  0  0  0
   13.0105   21.5479   36.6143 C   0  0  1  0  0  0  0  0  0  0  0  0
    9.2928   17.5604   35.2942 O   0  0  0  0  0  0  0  0  0  0  0  0
   13.1846   20.1595   37.2337 C   0  0  0  0  0  0  0  0  0  0  0  0
    8.8377   14.7452   37.6256 O   0  0  0  0  0  0  0  0  0  0  0  0
   11.8118   19.6054   37.6198 C   0  0  1  0  0  0  0  0  0  0  0  0
    6.5793   16.4119   38.2377 O   0  0  0  0  0  0  0  0  0  0  0  0
   10.8368   19.5861   36.4375 C   0  0  2  0  0  0  0  0  0  0  0  0
   10.9768   21.6199   31.6472 O   0  0  0  0  0  0  0  0  0  0  0  0
    8.6658   18.6342   36.0200 C   0  0  1  0  0  0  0  0  0  0  0  0
    9.6014   24.0372   31.7662 O   0  0  0  0  0  0  0  0  0  0  0  0
    9.6888   16.4426   36.1076 C   0  0  2  0  0  0  0  0  0  0  0  0
   10.3657   15.4003   35.2140 C   0  0  0  0  0  0  0  0  0  0  0  0
    8.4543   15.8395   36.7871 C   0  0  2  0  0  0  0  0  0  0  0  0
    7.7754   16.9170   37.6355 C   0  0  1  0  0  0  0  0  0  0  0  0
    7.4266   18.1250   36.7632 C   0  0  1  0  0  0  0  0  0  0  0  0
    9.6801   21.6512   32.2513 C   0  0  2  0  0  0  0  0  0  0  0  0
    8.8396   22.8270   31.7571 C   0  0  1  0  0  0  0  0  0  0  0  0
  3  1  1  0  0  0  0
  4  1  1  6  0  0  0
  4  6  1  0  0  0  0
  4 31  1  0  0  0  0
  6  7  1  0  0  0  0
  7  9  1  1  0  0  0
  7 30  1  0  0  0  0
 10  9  1  6  0  0  0
 10 13  1  0  0  0  0
 10 21  1  0  0  0  0
 13 12  1  1  0  0  0
 13 15  1  0  0  0  0
 15  2  1  6  0  0  0
 15 17  1  0  0  0  0
 16 25  1  0  0  0  0
 17 19  1  0  0  0  0
 19  5  1  6  0  0  0
 19 21  1  0  0  0  0
 21 14  1  1  0  0  0
 23 14  1  1  0  0  0
 23 16  1  0  0  0  0
 23 29  1  0  0  0  0
 25 26  1  6  0  0  0
 25 27  1  0  0  0  0
 26  8  1  0  0  0  0
 27 18  1  1  0  0  0
 27 28  1  0  0  0  0
 28 20  1  6  0  0  0
 28 29  1  0  0  0  0
 29 11  1  1  0  0  0
 30 22  1  6  0  0  0
 30 31  1  0  0  0  0
 31 24  1  1  0  0  0
M  END
>  <CHROM.1>
5.13109225,-95.37118903,-65.50791297,76.96099879,53.71549350,170.53233618
9.73558732,19.68949631,35.36129084,1.47010440,-0.34896702,-0.60861643

>  <Name>
2fcz_lig

>  <RI>
0

>  <Rbt.Current_Directory>
/home/itssahil/PROJECTS/Mol_Feturizer/New_Systems/rnas/2fcz

>  <Rbt.Executable>
rbdock ($Id: //depot/dev/client3/rdock/2013.1/src/exe/rbdock.cxx#4 $)

>  <Rbt.Library>
libRbt.so (2013.1, Build901 2013/11/27)

>  <Rbt.Parameter_File>
/export/apps/rDock/src/rDock_2013.1_src/data/scripts/dock_solv.prm

>  <Rbt.Receptor>
prm/pocket_docking_5.prm

>  <SCORE>
-15.6116

>  <SCORE.INTER>
-17.6642

>  <SCORE.INTER.CONST>
1

>  <SCORE.INTER.POLAR>
-2.54111

>  <SCORE.INTER.ROT>
6

>  <SCORE.INTER.SOLV>
16.8989

>  <SCORE.INTER.VDW>
-16.5387

>  <SCORE.INTER.norm>
-0.569812

>  <SCORE.INTRA>
2.05256

>  <SCORE.INTRA.DIHEDRAL>
0.951134

>  <SCORE.INTRA.DIHEDRAL.0>
10.8409

>  <SCORE.INTRA.POLAR>
0

>  <SCORE.INTRA.POLAR.0>
0

>  <SCORE.INTRA.REPUL>
0

>  <SCORE.INTRA.REPUL.0>
0

>  <SCORE.INTRA.SOLV>
-1.50773

>  <SCORE.INTRA.SOLV.lig_0>
-80.8302

>  <SCORE.INTRA.VDW>
2.33086

>  <SCORE.INTRA.VDW.0>
-4.23953

>  <SCORE.INTRA.norm>
0.0662115

>  <SCORE.RESTR>
0

>  <SCORE.RESTR.CAVITY>
0

>  <SCORE.RESTR.norm>
0

>  <SCORE.SYSTEM>
0

>  <SCORE.SYSTEM.CONST>
0

>  <SCORE.SYSTEM.DIHEDRAL>
0

>  <SCORE.SYSTEM.SOLV>
0

>  <SCORE.SYSTEM.norm>
0

>  <SCORE.heavy>
31

>  <SCORE.norm>
-0.5036

>  <RMSD>
6.150

$$$$
2fcz_lig
 OpenBabel11021811433D
libRbt.so/2013.1/901 2013/11/27
 31 33  0  0  0  0  0  0  0  0999 V2000
   12.8232   17.7631   37.9879 C   0  0  0  0  0  0  0  0  0  0  0  0
    8.7017   22.8240   31.9836 N   0  0  0  0  0  0  0  0  0  0  0  0
   14.0352   18.4806   38.2365 O   0  0  0  0  0  0  0  0  0  0  0  0
   11.6324   18.7254   38.0544 C   0  0  1  0  0  0  0  0  0  0  0  0
   13.5766   22.6027   31.6182 N   0  0  0  0  0  0  0  0  0  0  0  0
   11.7237   19.7570   37.0509 O   0  0  0  0  0  0  0  0  0  0  0  0
   10.7369   19.5231   36.0266 C   0  0  1  0  0  0  0  0  0  0  0  0
   17.2454   23.8538   35.1391 N   0  0  0  0  0  0  0  0  0  0  0  0
   11.2690   19.6766   34.6998 O   0  0  0  0  0  0  0  0  0  0  0  0
   11.2431   21.0263   34.2053 C   0  0  2  0  0  0  0  0  0  0  0  0
   13.8546   18.6413   33.4888 N   0  0  0  0  0  0  0  0  0  0  0  0
    8.8269   21.1396   34.2565 O   0  0  0  0  0  0  0  0  0  0  0  0
    9.9608   21.2400   33.3915 C   0  0  1  0  0  0  0  0  0  0  0  0
   13.6853   21.3338   34.1331 O   0  0  0  0  0  0  0  0  0  0  0  0
    9.9540   22.6171   32.7239 C   0  0  1  0  0  0  0  0  0  0  0  0
   16.0035   21.6656   33.8351 O   0  0  0  0  0  0  0  0  0  0  0  0
   11.1413   22.7434   31.7668 C   0  0  0  0  0  0  0  0  0  0  0  0
   16.9661   19.9895   36.9707 O   0  0  0  0  0  0  0  0  0  0  0  0
   12.4423   22.5808   32.5554 C   0  0  1  0  0  0  0  0  0  0  0  0
   15.7429   17.8526   35.4905 O   0  0  0  0  0  0  0  0  0  0  0  0
   12.4839   21.2701   33.3486 C   0  0  2  0  0  0  0  0  0  0  0  0
    9.0076   17.7850   35.7051 O   0  0  0  0  0  0  0  0  0  0  0  0
   14.8587   20.8881   33.4375 C   0  0  1  0  0  0  0  0  0  0  0  0
    9.2042   18.6764   38.3350 O   0  0  0  0  0  0  0  0  0  0  0  0
   16.3363   21.5659   35.2305 C   0  0  2  0  0  0  0  0  0  0  0  0
   17.5435   22.4636   35.5129 C   0  0  0  0  0  0  0  0  0  0  0  0
   16.6639   20.1092   35.5772 C   0  0  2  0  0  0  0  0  0  0  0  0
   15.4555   19.2325   35.2415 C   0  0  1  0  0  0  0  0  0  0  0  0
   15.0762   19.4083   33.7693 C   0  0  1  0  0  0  0  0  0  0  0  0
   10.3009   18.0733   36.2450 C   0  0  2  0  0  0  0  0  0  0  0  0
   10.3235   17.9888   37.7700 C   0  0  1  0  0  0  0  0  0  0  0  0
  3  1  1  0  0  0  0
  4  1  1  6  0  0  0
  4  6  1  0  0  0  0
  4 31  1  0  0  0  0
  6  7  1  0  0  0  0
  7  9  1  6  0  0  0
  7 30  1  0  0  0  0
 10  9  1  6  0  0  0
 10 13  1  0  0  0  0
 10 21  1  0  0  0  0
 13 12  1  1  0  0  0
 13 15  1  0  0  0  0
 15  2  1  6  0  0  0
 15 17  1  0  0  0  0
 16 25  1  0  0  0  0
 17 19  1  0  0  0  0
 19  5  1  6  0  0  0
 19 21  1  0  0  0  0
 21 14  1  1  0  0  0
 23 14  1  1  0  0  0
 23 16  1  0  0  0  0
 23 29  1  0  0  0  0
 25 26  1  6  0  0  0
 25 27  1  0  0  0  0
 26  8  1  0  0  0  0
 27 18  1  1  0  0  0
 27 28  1  0  0  0  0
 28 20  1  6  0  0  0
 28 29  1  0  0  0  0
 29 11  1  1  0  0  0
 30 22  1  1  0  0  0
 30 31  1  0  0  0  0
 31 24  1  1  0  0  0
M  END
>  <CHROM.1>
61.63373744,-86.32709512,-94.00833250,150.02561819,144.60910926,57.98442858
12.86129565,20.33982081,35.00629724,-2.96617512,-0.11178433,-0.85998963

>  <Name>
2fcz_lig

>  <RI>
0

>  <Rbt.Current_Directory>
/home/itssahil/PROJECTS/Mol_Feturizer/New_Systems/rnas/2fcz

>  <Rbt.Executable>
rbdock ($Id: //depot/dev/client3/rdock/2013.1/src/exe/rbdock.cxx#4 $)

>  <Rbt.Library>
libRbt.so (2013.1, Build901 2013/11/27)

>  <Rbt.Parameter_File>
/export/apps/rDock/src/rDock_2013.1_src/data/scripts/dock_solv.prm

>  <Rbt.Receptor>
prm/pocket_docking_5.prm

>  <SCORE>
-11.603

>  <SCORE.INTER>
-14.5604

>  <SCORE.INTER.CONST>
1

>  <SCORE.INTER.POLAR>
-2.34781

>  <SCORE.INTER.ROT>
6

>  <SCORE.INTER.SOLV>
9.07884

>  <SCORE.INTER.VDW>
-12.5072

>  <SCORE.INTER.norm>
-0.469691

>  <SCORE.INTRA>
2.9574

>  <SCORE.INTRA.DIHEDRAL>
4.6694

>  <SCORE.INTRA.DIHEDRAL.0>
10.8409

>  <SCORE.INTRA.POLAR>
0

>  <SCORE.INTRA.POLAR.0>
0

>  <SCORE.INTRA.REPUL>
0.0329557

>  <SCORE.INTRA.REPUL.0>
0

>  <SCORE.INTRA.SOLV>
0.00980627

>  <SCORE.INTRA.SOLV.lig_0>
-80.8302

>  <SCORE.INTRA.VDW>
0.453015

>  <SCORE.INTRA.VDW.0>
-4.23953

>  <SCORE.INTRA.norm>
0.0953998

>  <SCORE.RESTR>
0

>  <SCORE.RESTR.CAVITY>
0

>  <SCORE.RESTR.norm>
0

>  <SCORE.SYSTEM>
0

>  <SCORE.SYSTEM.CONST>
0

>  <SCORE.SYSTEM.DIHEDRAL>
0

>  <SCORE.SYSTEM.SOLV>
0

>  <SCORE.SYSTEM.norm>
0

>  <SCORE.heavy>
31

>  <SCORE.norm>
-0.374291

>  <RMSD>
6.151

$$$$
2fcz_lig
 OpenBabel11021811433D
libRbt.so/2013.1/901 2013/11/27
 31 33  0  0  0  0  0  0  0  0999 V2000
    6.8815   20.5544   31.7230 C   0  0  0  0  0  0  0  0  0  0  0  0
   14.2416   22.7860   35.6086 N   0  0  0  0  0  0  0  0  0  0  0  0
    6.2891   20.8995   30.4678 O   0  0  0  0  0  0  0  0  0  0  0  0
    7.3515   21.8261   32.4374 C   0  0  1  0  0  0  0  0  0  0  0  0
   12.6666   18.8020   37.9739 N   0  0  0  0  0  0  0  0  0  0  0  0
    7.8988   21.5349   33.7394 O   0  0  0  0  0  0  0  0  0  0  0  0
    9.3288   21.7145   33.7133 C   0  0  1  0  0  0  0  0  0  0  0  0
   11.9714   15.9053   34.8106 N   0  0  0  0  0  0  0  0  0  0  0  0
   10.0336   20.6401   34.3584 O   0  0  0  0  0  0  0  0  0  0  0  0
   10.8368   21.0488   35.4785 C   0  0  2  0  0  0  0  0  0  0  0  0
    7.4013   19.2920   37.8149 N   0  0  0  0  0  0  0  0  0  0  0  0
   11.7338   22.9654   34.3056 O   0  0  0  0  0  0  0  0  0  0  0  0
   12.0999   21.7498   34.9632 C   0  0  1  0  0  0  0  0  0  0  0  0
   10.0593   19.2948   37.0221 O   0  0  0  0  0  0  0  0  0  0  0  0
   13.0569   22.0771   36.1118 C   0  0  1  0  0  0  0  0  0  0  0  0
    9.7365   17.4831   35.5436 O   0  0  0  0  0  0  0  0  0  0  0  0
   13.4914   20.7904   36.8170 C   0  0  0  0  0  0  0  0  0  0  0  0
    9.5329   14.9412   38.2017 O   0  0  0  0  0  0  0  0  0  0  0  0
   12.2571   20.0868   37.3848 C   0  0  1  0  0  0  0  0  0  0  0  0
    7.2549   16.5970   38.7690 O   0  0  0  0  0  0  0  0  0  0  0  0
   11.1929   19.8211   36.3145 C   0  0  2  0  0  0  0  0  0  0  0  0
   10.9179   22.4055   31.9492 O   0  0  0  0  0  0  0  0  0  0  0  0
    9.1151   18.6133   36.1835 C   0  0  1  0  0  0  0  0  0  0  0  0
    8.5660   23.8946   31.9641 O   0  0  0  0  0  0  0  0  0  0  0  0
   10.2240   16.4786   36.4499 C   0  0  2  0  0  0  0  0  0  0  0  0
   10.8836   15.3619   35.6368 C   0  0  0  0  0  0  0  0  0  0  0  0
    9.0574   15.9198   37.2724 C   0  0  2  0  0  0  0  0  0  0  0  0
    8.3917   17.0661   38.0367 C   0  0  1  0  0  0  0  0  0  0  0  0
    7.9442   18.1549   37.0588 C   0  0  1  0  0  0  0  0  0  0  0  0
    9.6796   21.7437   32.2249 C   0  0  2  0  0  0  0  0  0  0  0  0
    8.4802   22.5005   31.6575 C   0  0  1  0  0  0  0  0  0  0  0  0
  3  1  1  0  0  0  0
  4  1  1  6  0  0  0
  4  6  1  0  0  0  0
  4 31  1  0  0  0  0
  6  7  1  0  0  0  0
  7  9  1  1  0  0  0
  7 30  1  0  0  0  0
 10  9  1  6  0  0  0
 10 13  1  0  0  0  0
 10 21  1  0  0  0  0
 13 12  1  1  0  0  0
 13 15  1  0  0  0  0
 15  2  1  6  0  0  0
 15 17  1  0  0  0  0
 16 25  1  0  0  0  0
 17 19  1  0  0  0  0
 19  5  1  6  0  0  0
 19 21  1  0  0  0  0
 21 14  1  1  0  0  0
 23 14  1  1  0  0  0
 23 16  1  0  0  0  0
 23 29  1  0  0  0  0
 25 26  1  6  0  0  0
 25 27  1  0  0  0  0
 26  8  1  0  0  0  0
 27 18  1  1  0  0  0
 27 28  1  0  0  0  0
 28 20  1  6  0  0  0
 28 29  1  0  0  0  0
 29 11  1  1  0  0  0
 30 22  1  1  0  0  0
 30 31  1  0  0  0  0
 31 24  1  1  0  0  0
M  END
>  <CHROM.1>
177.20259984,-119.74196034,-74.95040491,73.11330845,61.15433612,57.80674959
9.92088142,19.78124570,35.19386987,1.65361611,-0.46181887,-0.69108040

>  <Name>
2fcz_lig

>  <RI>
2.29611e+07

>  <Rbt.Current_Directory>
/home/itssahil/PROJECTS/Mol_Feturizer/New_Systems/rnas/2fcz

>  <Rbt.Executable>
rbdock ($Id: //depot/dev/client3/rdock/2013.1/src/exe/rbdock.cxx#4 $)

>  <Rbt.Library>
libRbt.so (2013.1, Build901 2013/11/27)

>  <Rbt.Parameter_File>
/export/apps/rDock/src/rDock_2013.1_src/data/scripts/dock_solv.prm

>  <Rbt.Receptor>
prm/pocket_docking_3.prm

>  <SCORE>
-16.0011

>  <SCORE.INTER>
-15.4055

>  <SCORE.INTER.CONST>
1

>  <SCORE.INTER.POLAR>
-2.31174

>  <SCORE.INTER.ROT>
6

>  <SCORE.INTER.SOLV>
14.9545

>  <SCORE.INTER.VDW>
-15.1494

>  <SCORE.INTER.norm>
-0.496952

>  <SCORE.INTRA>
-0.595611

>  <SCORE.INTRA.DIHEDRAL>
-1.70746

>  <SCORE.INTRA.DIHEDRAL.0>
10.8409

>  <SCORE.INTRA.POLAR>
0

>  <SCORE.INTRA.POLAR.0>
0

>  <SCORE.INTRA.REPUL>
0

>  <SCORE.INTRA.REPUL.0>
0

>  <SCORE.INTRA.SOLV>
-2.80668

>  <SCORE.INTRA.SOLV.lig_0>
-80.8302

>  <SCORE.INTRA.VDW>
1.66146

>  <SCORE.INTRA.VDW.0>
-4.23953

>  <SCORE.INTRA.norm>
-0.0192132

>  <SCORE.RESTR>
0

>  <SCORE.RESTR.CAVITY>
0

>  <SCORE.RESTR.norm>
0

>  <SCORE.SYSTEM>
0

>  <SCORE.SYSTEM.CONST>
0

>  <SCORE.SYSTEM.DIHEDRAL>
0

>  <SCORE.SYSTEM.SOLV>
0

>  <SCORE.SYSTEM.norm>
0

>  <SCORE.heavy>
31

>  <SCORE.norm>
-0.516165

>  <RMSD>
6.153

$$$$
2fcz_lig
 OpenBabel11021811433D
libRbt.so/2013.1/901 2013/11/27
 31 33  0  0  0  0  0  0  0  0999 V2000
    6.7780   21.2608   31.7904 C   0  0  0  0  0  0  0  0  0  0  0  0
   13.8005   20.4471   35.6079 N   0  0  0  0  0  0  0  0  0  0  0  0
    6.3285   21.2459   33.1480 O   0  0  0  0  0  0  0  0  0  0  0  0
    8.2300   20.7754   31.7234 C   0  0  1  0  0  0  0  0  0  0  0  0
   11.4215   16.3117   36.6970 N   0  0  0  0  0  0  0  0  0  0  0  0
    8.9663   21.1307   32.9114 O   0  0  0  0  0  0  0  0  0  0  0  0
    9.2146   19.9481   33.6973 C   0  0  1  0  0  0  0  0  0  0  0  0
    9.1072   13.8933   34.6601 N   0  0  0  0  0  0  0  0  0  0  0  0
    8.9504   20.1477   35.0964 O   0  0  0  0  0  0  0  0  0  0  0  0
   10.0471   19.8032   35.9599 C   0  0  2  0  0  0  0  0  0  0  0  0
    6.7191   18.9120   37.9534 N   0  0  0  0  0  0  0  0  0  0  0  0
   11.3124   21.7763   35.3600 O   0  0  0  0  0  0  0  0  0  0  0  0
   11.3499   20.3470   35.3605 C   0  0  1  0  0  0  0  0  0  0  0  0
    9.0201   17.7737   36.9033 O   0  0  0  0  0  0  0  0  0  0  0  0
   12.5645   19.8838   36.1683 C   0  0  1  0  0  0  0  0  0  0  0  0
    7.7964   16.3350   35.4872 O   0  0  0  0  0  0  0  0  0  0  0  0
   12.6490   18.3559   36.1613 C   0  0  0  0  0  0  0  0  0  0  0  0
    6.7468   14.0573   38.1851 O   0  0  0  0  0  0  0  0  0  0  0  0
   11.3818   17.7794   36.7960 C   0  0  1  0  0  0  0  0  0  0  0  0
    5.4931   16.5258   38.9521 O   0  0  0  0  0  0  0  0  0  0  0  0
   10.1058   18.2847   36.1141 C   0  0  2  0  0  0  0  0  0  0  0  0
    8.6536   17.5597   33.3886 O   0  0  0  0  0  0  0  0  0  0  0  0
    7.7983   17.6023   36.1705 C   0  0  1  0  0  0  0  0  0  0  0  0
    9.5122   18.8051   31.0517 O   0  0  0  0  0  0  0  0  0  0  0  0
    7.8754   15.1903   36.3541 C   0  0  2  0  0  0  0  0  0  0  0  0
    7.8973   13.9239   35.4947 C   0  0  0  0  0  0  0  0  0  0  0  0
    6.6649   15.1742   37.2944 C   0  0  2  0  0  0  0  0  0  0  0  0
    6.6460   16.4716   38.1056 C   0  0  1  0  0  0  0  0  0  0  0  0
    6.6331   17.6766   37.1624 C   0  0  1  0  0  0  0  0  0  0  0  0
    8.2473   18.9073   33.1312 C   0  0  2  0  0  0  0  0  0  0  0  0
    8.2886   19.2500   31.6432 C   0  0  1  0  0  0  0  0  0  0  0  0
  3  1  1  0  0  0  0
  4  1  1  1  0  0  0
  4  6  1  0  0  0  0
  4 31  1  0  0  0  0
  6  7  1  0  0  0  0
  7  9  1  1  0  0  0
  7 30  1  0  0  0  0
 10  9  1  6  0  0  0
 10 13  1  0  0  0  0
 10 21  1  0  0  0  0
 13 12  1  1  0  0  0
 13 15  1  0  0  0  0
 15  2  1  6  0  0  0
 15 17  1  0  0  0  0
 16 25  1  0  0  0  0
 17 19  1  0  0  0  0
 19  5  1  6  0  0  0
 19 21  1  0  0  0  0
 21 14  1  1  0  0  0
 23 14  1  1  0  0  0
 23 16  1  0  0  0  0
 23 29  1  0  0  0  0
 25 26  1  6  0  0  0
 25 27  1  0  0  0  0
 26  8  1  0  0  0  0
 27 18  1  1  0  0  0
 27 28  1  0  0  0  0
 28 20  1  6  0  0  0
 28 29  1  0  0  0  0
 29 11  1  1  0  0  0
 30 22  1  6  0  0  0
 30 31  1  0  0  0  0
 31 24  1  1  0  0  0
M  END
>  <CHROM.1>
-31.87122695,-126.22661835,43.74466447,81.86214903,84.11017622,63.80042686
8.88040330,18.25312275,35.29247759,1.16934082,-0.36705093,-0.80443148

>  <Name>
2fcz_lig

>  <RI>
1.32928e+07

>  <Rbt.Current_Directory>
/home/itssahil/PROJECTS/Mol_Feturizer/New_Systems/rnas/2fcz

>  <Rbt.Executable>
rbdock ($Id: //depot/dev/client3/rdock/2013.1/src/exe/rbdock.cxx#4 $)

>  <Rbt.Library>
libRbt.so (2013.1, Build901 2013/11/27)

>  <Rbt.Parameter_File>
/export/apps/rDock/src/rDock_2013.1_src/data/scripts/dock_solv.prm

>  <Rbt.Receptor>
prm/pocket_docking_7.prm

>  <SCORE>
-13.042

>  <SCORE.INTER>
-16.8146

>  <SCORE.INTER.CONST>
1

>  <SCORE.INTER.POLAR>
-1.88995

>  <SCORE.INTER.ROT>
6

>  <SCORE.INTER.SOLV>
12.3862

>  <SCORE.INTER.VDW>
-16.6386

>  <SCORE.INTER.norm>
-0.542406

>  <SCORE.INTRA>
3.77263

>  <SCORE.INTRA.DIHEDRAL>
4.44701

>  <SCORE.INTRA.DIHEDRAL.0>
10.8409

>  <SCORE.INTRA.POLAR>
0

>  <SCORE.INTRA.POLAR.0>
0

>  <SCORE.INTRA.REPUL>
0

>  <SCORE.INTRA.REPUL.0>
0

>  <SCORE.INTRA.SOLV>
-0.318611

>  <SCORE.INTRA.SOLV.lig_0>
-80.8302

>  <SCORE.INTRA.VDW>
1.70843

>  <SCORE.INTRA.VDW.0>
-4.23953

>  <SCORE.INTRA.norm>
0.121698

>  <SCORE.RESTR>
0

>  <SCORE.RESTR.CAVITY>
0

>  <SCORE.RESTR.norm>
0

>  <SCORE.SYSTEM>
0

>  <SCORE.SYSTEM.CONST>
0

>  <SCORE.SYSTEM.DIHEDRAL>
0

>  <SCORE.SYSTEM.SOLV>
0

>  <SCORE.SYSTEM.norm>
0

>  <SCORE.heavy>
31

>  <SCORE.norm>
-0.420708

>  <RMSD>
6.154

$$$$
2fcz_lig
 OpenBabel11021811433D
libRbt.so/2013.1/901 2013/11/27
 31 33  0  0  0  0  0  0  0  0999 V2000
    7.7562   15.3992   36.9404 C   0  0  0  0  0  0  0  0  0  0  0  0
    8.5350   20.4959   30.6620 N   0  0  0  0  0  0  0  0  0  0  0  0
    7.2939   14.2468   37.6501 O   0  0  0  0  0  0  0  0  0  0  0  0
    7.3690   15.2832   35.4622 C   0  0  1  0  0  0  0  0  0  0  0  0
   11.4449   21.6589   34.4207 N   0  0  0  0  0  0  0  0  0  0  0  0
    7.7681   16.4493   34.7134 O   0  0  0  0  0  0  0  0  0  0  0  0
    8.8752   16.1151   33.8530 C   0  0  1  0  0  0  0  0  0  0  0  0
   14.1871   17.6120   33.6658 N   0  0  0  0  0  0  0  0  0  0  0  0
    9.9220   17.1001   33.8900 O   0  0  0  0  0  0  0  0  0  0  0  0
    9.4621   18.4561   33.7615 C   0  0  2  0  0  0  0  0  0  0  0  0
    9.9443   18.7602   38.3919 N   0  0  0  0  0  0  0  0  0  0  0  0
    8.1008   17.9512   31.8262 O   0  0  0  0  0  0  0  0  0  0  0  0
    9.1897   18.7574   32.2826 C   0  0  1  0  0  0  0  0  0  0  0  0
   10.6130   19.3215   35.7592 O   0  0  0  0  0  0  0  0  0  0  0  0
    8.8348   20.2318   32.0761 C   0  0  1  0  0  0  0  0  0  0  0  0
   12.0798   17.4770   35.6211 O   0  0  0  0  0  0  0  0  0  0  0  0
    9.9959   21.1204   32.5279 C   0  0  0  0  0  0  0  0  0  0  0  0
   14.7377   19.0382   37.6376 O   0  0  0  0  0  0  0  0  0  0  0  0
   10.2653   20.8785   34.0144 C   0  0  1  0  0  0  0  0  0  0  0  0
   12.5739   18.8591   39.5189 O   0  0  0  0  0  0  0  0  0  0  0  0
   10.5208   19.4002   34.3280 C   0  0  2  0  0  0  0  0  0  0  0  0
   10.1303   14.0246   33.4411 O   0  0  0  0  0  0  0  0  0  0  0  0
   10.8980   18.0043   36.2522 C   0  0  1  0  0  0  0  0  0  0  0  0
    7.3811   13.6410   33.6510 O   0  0  0  0  0  0  0  0  0  0  0  0
   13.2764   18.2353   35.8685 C   0  0  2  0  0  0  0  0  0  0  0  0
   14.4369   17.5815   35.1142 C   0  0  0  0  0  0  0  0  0  0  0  0
   13.5666   18.2597   37.3734 C   0  0  2  0  0  0  0  0  0  0  0  0
   12.3707   18.8762   38.1022 C   0  0  1  0  0  0  0  0  0  0  0  0
   11.0973   18.0957   37.7685 C   0  0  1  0  0  0  0  0  0  0  0  0
    9.3951   14.7863   34.4039 C   0  0  2  0  0  0  0  0  0  0  0  0
    8.0877   14.1054   34.8043 C   0  0  1  0  0  0  0  0  0  0  0  0
  3  1  1  0  0  0  0
  4  1  1  1  0  0  0
  4  6  1  0  0  0  0
  4 31  1  0  0  0  0
  6  7  1  0  0  0  0
  7  9  1  1  0  0  0
  7 30  1  0  0  0  0
 10  9  1  6  0  0  0
 10 13  1  0  0  0  0
 10 21  1  0  0  0  0
 13 12  1  1  0  0  0
 13 15  1  0  0  0  0
 15  2  1  6  0  0  0
 15 17  1  0  0  0  0
 16 25  1  0  0  0  0
 17 19  1  0  0  0  0
 19  5  1  6  0  0  0
 19 21  1  0  0  0  0
 21 14  1  1  0  0  0
 23 14  1  6  0  0  0
 23 16  1  0  0  0  0
 23 29  1  0  0  0  0
 25 26  1  6  0  0  0
 25 27  1  0  0  0  0
 26  8  1  0  0  0  0
 27 18  1  6  0  0  0
 27 28  1  0  0  0  0
 28 20  1  1  0  0  0
 28 29  1  0  0  0  0
 29 11  1  1  0  0  0
 30 22  1  6  0  0  0
 30 31  1  0  0  0  0
 31 24  1  6  0  0  0
M  END
>  <CHROM.1>
177.70536642,-47.42393623,-79.66707142,57.33302268,53.85639352,62.38752748
10.31717963,17.70444624,35.04086148,-3.07795703,-0.72602207,-0.80286901

>  <Name>
2fcz_lig

>  <RI>
2.76032e+07

>  <Rbt.Current_Directory>
/home/itssahil/PROJECTS/Mol_Feturizer/New_Systems/rnas/2fcz

>  <Rbt.Executable>
rbdock ($Id: //depot/dev/client3/rdock/2013.1/src/exe/rbdock.cxx#4 $)

>  <Rbt.Library>
libRbt.so (2013.1, Build901 2013/11/27)

>  <Rbt.Parameter_File>
/export/apps/rDock/src/rDock_2013.1_src/data/scripts/dock_solv.prm

>  <Rbt.Receptor>
prm/pocket_docking_8.prm

>  <SCORE>
-17.4756

>  <SCORE.INTER>
-13.6644

>  <SCORE.INTER.CONST>
1

>  <SCORE.INTER.POLAR>
-1.76621

>  <SCORE.INTER.ROT>
6

>  <SCORE.INTER.SOLV>
11.4678

>  <SCORE.INTER.VDW>
-14.6449

>  <SCORE.INTER.norm>
-0.440789

>  <SCORE.INTRA>
-3.81119

>  <SCORE.INTRA.DIHEDRAL>
-7.94711

>  <SCORE.INTRA.DIHEDRAL.0>
10.8409

>  <SCORE.INTRA.POLAR>
0

>  <SCORE.INTRA.POLAR.0>
0

>  <SCORE.INTRA.REPUL>
0

>  <SCORE.INTRA.REPUL.0>
0

>  <SCORE.INTRA.SOLV>
-3.57695

>  <SCORE.INTRA.SOLV.lig_0>
-80.8302

>  <SCORE.INTRA.VDW>
1.95084

>  <SCORE.INTRA.VDW.0>
-4.23953

>  <SCORE.INTRA.norm>
-0.122942

>  <SCORE.RESTR>
0

>  <SCORE.RESTR.CAVITY>
0

>  <SCORE.RESTR.norm>
0

>  <SCORE.SYSTEM>
0

>  <SCORE.SYSTEM.CONST>
0

>  <SCORE.SYSTEM.DIHEDRAL>
0

>  <SCORE.SYSTEM.SOLV>
0

>  <SCORE.SYSTEM.norm>
0

>  <SCORE.heavy>
31

>  <SCORE.norm>
-0.56373

>  <RMSD>
6.155

$$$$
2fcz_lig
 OpenBabel11021811433D
libRbt.so/2013.1/901 2013/11/27
 31 33  0  0  0  0  0  0  0  0999 V2000
    6.9995   20.2704   31.7770 C   0  0  0  0  0  0  0  0  0  0  0  0
   14.1850   23.4668   35.2112 N   0  0  0  0  0  0  0  0  0  0  0  0
    8.1289   19.3929   31.7881 O   0  0  0  0  0  0  0  0  0  0  0  0
    7.3901   21.6200   32.3890 C   0  0  1  0  0  0  0  0  0  0  0  0
   13.2594   19.4103   37.7871 N   0  0  0  0  0  0  0  0  0  0  0  0
    7.9972   21.4610   33.6873 O   0  0  0  0  0  0  0  0  0  0  0  0
    9.4074   21.7463   33.5993 C   0  0  1  0  0  0  0  0  0  0  0  0
   10.8369   14.8964   34.9254 N   0  0  0  0  0  0  0  0  0  0  0  0
   10.2128   20.7751   34.2888 O   0  0  0  0  0  0  0  0  0  0  0  0
   11.0221   21.3208   35.3442 C   0  0  2  0  0  0  0  0  0  0  0  0
    7.9538   19.2908   37.8988 N   0  0  0  0  0  0  0  0  0  0  0  0
   11.6034   23.2881   34.0614 O   0  0  0  0  0  0  0  0  0  0  0  0
   12.1558   22.1520   34.7310 C   0  0  1  0  0  0  0  0  0  0  0  0
   10.5603   19.5433   36.9846 O   0  0  0  0  0  0  0  0  0  0  0  0
   13.1293   22.6369   35.8078 C   0  0  1  0  0  0  0  0  0  0  0  0
   10.3863   17.6243   35.6208 O   0  0  0  0  0  0  0  0  0  0  0  0
   13.7611   21.4405   36.5227 C   0  0  0  0  0  0  0  0  0  0  0  0
   10.5797   15.2338   38.4165 O   0  0  0  0  0  0  0  0  0  0  0  0
   12.6593   20.6123   37.1866 C   0  0  1  0  0  0  0  0  0  0  0  0
    8.1529   16.6561   39.0003 O   0  0  0  0  0  0  0  0  0  0  0  0
   11.5765   20.1781   36.1927 C   0  0  2  0  0  0  0  0  0  0  0  0
   10.8843   22.4333   31.7388 O   0  0  0  0  0  0  0  0  0  0  0  0
    9.6668   18.7135   36.2281 C   0  0  1  0  0  0  0  0  0  0  0  0
    8.4249   23.7373   31.7378 O   0  0  0  0  0  0  0  0  0  0  0  0
   11.0208   16.7344   36.5555 C   0  0  2  0  0  0  0  0  0  0  0  0
   11.7698   15.6529   35.7731 C   0  0  0  0  0  0  0  0  0  0  0  0
    9.9592   16.0980   37.4597 C   0  0  2  0  0  0  0  0  0  0  0  0
    9.1987   17.2055   38.1922 C   0  0  1  0  0  0  0  0  0  0  0  0
    8.5916   18.1793   37.1797 C   0  0  1  0  0  0  0  0  0  0  0  0
    9.7102   21.6999   32.1008 C   0  0  2  0  0  0  0  0  0  0  0  0
    8.4389   22.3229   31.5272 C   0  0  1  0  0  0  0  0  0  0  0  0
  3  1  1  0  0  0  0
  4  1  1  6  0  0  0
  4  6  1  0  0  0  0
  4 31  1  0  0  0  0
  6  7  1  0  0  0  0
  7  9  1  1  0  0  0
  7 30  1  0  0  0  0
 10  9  1  6  0  0  0
 10 13  1  0  0  0  0
 10 21  1  0  0  0  0
 13 12  1  1  0  0  0
 13 15  1  0  0  0  0
 15  2  1  6  0  0  0
 15 17  1  0  0  0  0
 16 25  1  0  0  0  0
 17 19  1  0  0  0  0
 19  5  1  6  0  0  0
 19 21  1  0  0  0  0
 21 14  1  1  0  0  0
 23 14  1  1  0  0  0
 23 16  1  0  0  0  0
 23 29  1  0  0  0  0
 25 26  1  6  0  0  0
 25 27  1  0  0  0  0
 26  8  1  0  0  0  0
 27 18  1  1  0  0  0
 27 28  1  0  0  0  0
 28 20  1  6  0  0  0
 28 29  1  0  0  0  0
 29 11  1  1  0  0  0
 30 22  1  1  0  0  0
 30 31  1  0  0  0  0
 31 24  1  1  0  0  0
M  END
>  <CHROM.1>
-52.62080322,-120.16803147,-71.11413447,73.47963880,62.68939534,-59.70520870
10.28349131,19.86398954,35.19129894,1.65888241,-0.57365707,-0.65410249

>  <Name>
2fcz_lig

>  <RI>
0

>  <Rbt.Current_Directory>
/home/itssahil/PROJECTS/Mol_Feturizer/New_Systems/rnas/2fcz

>  <Rbt.Executable>
rbdock ($Id: //depot/dev/client3/rdock/2013.1/src/exe/rbdock.cxx#4 $)

>  <Rbt.Library>
libRbt.so (2013.1, Build901 2013/11/27)

>  <Rbt.Parameter_File>
/export/apps/rDock/src/rDock_2013.1_src/data/scripts/dock_solv.prm

>  <Rbt.Receptor>
prm/pocket_docking_6.prm

>  <SCORE>
-15.8564

>  <SCORE.INTER>
-16.4399

>  <SCORE.INTER.CONST>
1

>  <SCORE.INTER.POLAR>
-2.85467

>  <SCORE.INTER.ROT>
6

>  <SCORE.INTER.SOLV>
14.7369

>  <SCORE.INTER.VDW>
-13.9567

>  <SCORE.INTER.norm>
-0.530321

>  <SCORE.INTRA>
0.583578

>  <SCORE.INTRA.DIHEDRAL>
-1.93259

>  <SCORE.INTRA.DIHEDRAL.0>
10.8409

>  <SCORE.INTRA.POLAR>
0

>  <SCORE.INTRA.POLAR.0>
0

>  <SCORE.INTRA.REPUL>
0

>  <SCORE.INTRA.REPUL.0>
0

>  <SCORE.INTRA.SOLV>
-0.960535

>  <SCORE.INTRA.SOLV.lig_0>
-80.8302

>  <SCORE.INTRA.VDW>
2.03014

>  <SCORE.INTRA.VDW.0>
-4.23953

>  <SCORE.INTRA.norm>
0.0188251

>  <SCORE.RESTR>
0

>  <SCORE.RESTR.CAVITY>
0

>  <SCORE.RESTR.norm>
0

>  <SCORE.SYSTEM>
0

>  <SCORE.SYSTEM.CONST>
0

>  <SCORE.SYSTEM.DIHEDRAL>
0

>  <SCORE.SYSTEM.SOLV>
0

>  <SCORE.SYSTEM.norm>
0

>  <SCORE.heavy>
31

>  <SCORE.norm>
-0.511496

>  <RMSD>
6.157

$$$$
2fcz_lig
 OpenBabel11021811433D
libRbt.so/2013.1/901 2013/11/27
 31 33  0  0  0  0  0  0  0  0999 V2000
    8.0197   19.3995   30.1178 C   0  0  0  0  0  0  0  0  0  0  0  0
   13.3135   23.1084   34.3525 N   0  0  0  0  0  0  0  0  0  0  0  0
    9.3794   19.7986   30.3114 O   0  0  0  0  0  0  0  0  0  0  0  0
    7.2239   19.6411   31.4050 C   0  0  1  0  0  0  0  0  0  0  0  0
   12.1277   20.0995   38.0251 N   0  0  0  0  0  0  0  0  0  0  0  0
    7.8705   19.0500   32.5505 O   0  0  0  0  0  0  0  0  0  0  0  0
    8.4235   20.0891   33.3825 C   0  0  1  0  0  0  0  0  0  0  0  0
   12.3028   15.2896   37.5103 N   0  0  0  0  0  0  0  0  0  0  0  0
    9.7616   19.7956   33.8188 O   0  0  0  0  0  0  0  0  0  0  0  0
   10.3137   20.7654   34.7252 C   0  0  2  0  0  0  0  0  0  0  0  0
    7.0467   19.1807   37.6841 N   0  0  0  0  0  0  0  0  0  0  0  0
   11.0250   22.2295   32.9350 O   0  0  0  0  0  0  0  0  0  0  0  0
   11.4974   21.4691   34.0499 C   0  0  1  0  0  0  0  0  0  0  0  0
    9.6378   19.6154   36.7950 O   0  0  0  0  0  0  0  0  0  0  0  0
   12.2093   22.4099   35.0248 C   0  0  1  0  0  0  0  0  0  0  0  0
    9.7954   17.4572   35.8515 O   0  0  0  0  0  0  0  0  0  0  0  0
   12.7539   21.6186   36.2161 C   0  0  0  0  0  0  0  0  0  0  0  0
   10.1693   15.7286   39.0826 O   0  0  0  0  0  0  0  0  0  0  0  0
   11.5912   20.9390   36.9421 C   0  0  1  0  0  0  0  0  0  0  0  0
    7.5454   16.8765   39.3080 O   0  0  0  0  0  0  0  0  0  0  0  0
   10.7530   20.0604   36.0070 C   0  0  2  0  0  0  0  0  0  0  0  0
    8.4496   22.5564   33.2194 O   0  0  0  0  0  0  0  0  0  0  0  0
    8.9047   18.5315   36.2058 C   0  0  1  0  0  0  0  0  0  0  0  0
    5.9979   21.4287   32.5359 O   0  0  0  0  0  0  0  0  0  0  0  0
   10.4964   16.8730   36.9629 C   0  0  2  0  0  0  0  0  0  0  0  0
   11.4241   15.7753   36.4363 C   0  0  0  0  0  0  0  0  0  0  0  0
    9.4866   16.2855   37.9551 C   0  0  2  0  0  0  0  0  0  0  0  0
    8.5466   17.3968   38.4274 C   0  0  1  0  0  0  0  0  0  0  0  0
    7.8651   18.0505   37.2232 C   0  0  1  0  0  0  0  0  0  0  0  0
    8.4315   21.3281   32.4857 C   0  0  2  0  0  0  0  0  0  0  0  0
    7.1289   21.1358   31.7113 C   0  0  1  0  0  0  0  0  0  0  0  0
  3  1  1  0  0  0  0
  4  1  1  6  0  0  0
  4  6  1  0  0  0  0
  4 31  1  0  0  0  0
  6  7  1  0  0  0  0
  7  9  1  6  0  0  0
  7 30  1  0  0  0  0
 10  9  1  6  0  0  0
 10 13  1  0  0  0  0
 10 21  1  0  0  0  0
 13 12  1  6  0  0  0
 13 15  1  0  0  0  0
 15  2  1  6  0  0  0
 15 17  1  0  0  0  0
 16 25  1  0  0  0  0
 17 19  1  0  0  0  0
 19  5  1  1  0  0  0
 19 21  1  0  0  0  0
 21 14  1  1  0  0  0
 23 14  1  1  0  0  0
 23 16  1  0  0  0  0
 23 29  1  0  0  0  0
 25 26  1  6  0  0  0
 25 27  1  0  0  0  0
 26  8  1  0  0  0  0
 27 18  1  1  0  0  0
 27 28  1  0  0  0  0
 28 20  1  1  0  0  0
 28 29  1  0  0  0  0
 29 11  1  1  0  0  0
 30 22  1  1  0  0  0
 30 31  1  0  0  0  0
 31 24  1  1  0  0  0
M  END
>  <CHROM.1>
-51.59353554,-175.96385678,-114.42541881,69.43211411,52.17295982,171.64057909
9.63494707,19.47697088,35.11344804,1.76362046,-0.56135053,-0.86022293

>  <Name>
2fcz_lig

>  <RI>
0

>  <Rbt.Current_Directory>
/home/itssahil/PROJECTS/Mol_Feturizer/New_Systems/rnas/2fcz

>  <Rbt.Executable>
rbdock ($Id: //depot/dev/client3/rdock/2013.1/src/exe/rbdock.cxx#4 $)

>  <Rbt.Library>
libRbt.so (2013.1, Build901 2013/11/27)

>  <Rbt.Parameter_File>
/export/apps/rDock/src/rDock_2013.1_src/data/scripts/dock_solv.prm

>  <Rbt.Receptor>
prm/pocket_docking_6.prm

>  <SCORE>
-15.338

>  <SCORE.INTER>
-15.4873

>  <SCORE.INTER.CONST>
1

>  <SCORE.INTER.POLAR>
-1.89814

>  <SCORE.INTER.ROT>
6

>  <SCORE.INTER.SOLV>
18.7693

>  <SCORE.INTER.VDW>
-17.8541

>  <SCORE.INTER.norm>
-0.499589

>  <SCORE.INTRA>
0.149232

>  <SCORE.INTRA.DIHEDRAL>
-2.34937

>  <SCORE.INTRA.DIHEDRAL.0>
10.8409

>  <SCORE.INTRA.POLAR>
0

>  <SCORE.INTRA.POLAR.0>
0

>  <SCORE.INTRA.REPUL>
0.00609618

>  <SCORE.INTRA.REPUL.0>
0

>  <SCORE.INTRA.SOLV>
-1.31482

>  <SCORE.INTRA.SOLV.lig_0>
-80.8302

>  <SCORE.INTRA.VDW>
1.95085

>  <SCORE.INTRA.VDW.0>
-4.23953

>  <SCORE.INTRA.norm>
0.00481392

>  <SCORE.RESTR>
0

>  <SCORE.RESTR.CAVITY>
0

>  <SCORE.RESTR.norm>
0

>  <SCORE.SYSTEM>
0

>  <SCORE.SYSTEM.CONST>
0

>  <SCORE.SYSTEM.DIHEDRAL>
0

>  <SCORE.SYSTEM.SOLV>
0

>  <SCORE.SYSTEM.norm>
0

>  <SCORE.heavy>
31

>  <SCORE.norm>
-0.494775

>  <RMSD>
6.160

$$$$
2fcz_lig
 OpenBabel11021811433D
libRbt.so/2013.1/901 2013/11/27
 31 33  0  0  0  0  0  0  0  0999 V2000
    7.5682   20.1870   31.8723 C   0  0  0  0  0  0  0  0  0  0  0  0
    8.6856   17.8536   39.4451 N   0  0  0  0  0  0  0  0  0  0  0  0
    7.2418   20.3461   33.2557 O   0  0  0  0  0  0  0  0  0  0  0  0
    8.8099   19.2994   31.7351 C   0  0  1  0  0  0  0  0  0  0  0  0
   13.4315   18.3288   38.3509 N   0  0  0  0  0  0  0  0  0  0  0  0
    9.8543   19.6991   32.6456 O   0  0  0  0  0  0  0  0  0  0  0  0
    9.9805   18.7197   33.6956 C   0  0  1  0  0  0  0  0  0  0  0  0
   14.0855   22.4153   36.3868 N   0  0  0  0  0  0  0  0  0  0  0  0
   10.0888   19.3165   34.9992 O   0  0  0  0  0  0  0  0  0  0  0  0
   10.3742   18.3829   36.0546 C   0  0  2  0  0  0  0  0  0  0  0  0
   13.2741   16.8742   33.2226 N   0  0  0  0  0  0  0  0  0  0  0  0
    8.0512   18.2081   36.7082 O   0  0  0  0  0  0  0  0  0  0  0  0
    9.3510   18.5691   37.1819 C   0  0  1  0  0  0  0  0  0  0  0  0
   12.7892   18.2022   35.6089 O   0  0  0  0  0  0  0  0  0  0  0  0
    9.6972   17.6970   38.3910 C   0  0  1  0  0  0  0  0  0  0  0  0
   13.2953   20.3079   34.6694 O   0  0  0  0  0  0  0  0  0  0  0  0
   11.0727   18.0818   38.9402 C   0  0  0  0  0  0  0  0  0  0  0  0
   16.9365   19.7554   34.6040 O   0  0  0  0  0  0  0  0  0  0  0  0
   12.1271   17.8639   37.8531 C   0  0  1  0  0  0  0  0  0  0  0  0
   15.9806   17.7157   32.8210 O   0  0  0  0  0  0  0  0  0  0  0  0
   11.7963   18.6173   36.5601 C   0  0  2  0  0  0  0  0  0  0  0  0
    8.8105   16.5961   34.1816 O   0  0  0  0  0  0  0  0  0  0  0  0
   12.8022   18.9815   34.4040 C   0  0  1  0  0  0  0  0  0  0  0  0
    9.4018   16.9406   31.4833 O   0  0  0  0  0  0  0  0  0  0  0  0
   14.6468   20.3546   35.1587 C   0  0  2  0  0  0  0  0  0  0  0  0
   15.0222   21.8142   35.4262 C   0  0  0  0  0  0  0  0  0  0  0  0
   15.5912   19.7448   34.1168 C   0  0  2  0  0  0  0  0  0  0  0  0
   15.1624   18.3026   33.8381 C   0  0  1  0  0  0  0  0  0  0  0  0
   13.7005   18.2709   33.3865 C   0  0  1  0  0  0  0  0  0  0  0  0
    8.6917   17.9009   33.6066 C   0  0  2  0  0  0  0  0  0  0  0  0
    8.4827   17.8500   32.0943 C   0  0  1  0  0  0  0  0  0  0  0  0
  3  1  1  0  0  0  0
  4  1  1  1  0  0  0
  4  6  1  0  0  0  0
  4 31  1  0  0  0  0
  6  7  1  0  0  0  0
  7  9  1  1  0  0  0
  7 30  1  0  0  0  0
 10  9  1  6  0  0  0
 10 13  1  0  0  0  0
 10 21  1  0  0  0  0
 13 12  1  6  0  0  0
 13 15  1  0  0  0  0
 15  2  1  1  0  0  0
 15 17  1  0  0  0  0
 16 25  1  0  0  0  0
 17 19  1  0  0  0  0
 19  5  1  1  0  0  0
 19 21  1  0  0  0  0
 21 14  1  6  0  0  0
 23 14  1  1  0  0  0
 23 16  1  0  0  0  0
 23 29  1  0  0  0  0
 25 26  1  6  0  0  0
 25 27  1  0  0  0  0
 26  8  1  0  0  0  0
 27 18  1  1  0  0  0
 27 28  1  0  0  0  0
 28 20  1  6  0  0  0
 28 29  1  0  0  0  0
 29 11  1  1  0  0  0
 30 22  1  6  0  0  0
 30 31  1  0  0  0  0
 31 24  1  6  0  0  0
M  END
>  <CHROM.1>
-46.67354827,-173.02781306,-128.12412003,66.26836465,70.01199142,57.68571219
11.49759783,18.81461228,34.89030691,-3.03672291,0.16363623,1.62417316

>  <Name>
2fcz_lig

>  <RI>
0

>  <Rbt.Current_Directory>
/home/itssahil/PROJECTS/Mol_Feturizer/New_Systems/rnas/2fcz

>  <Rbt.Executable>
rbdock ($Id: //depot/dev/client3/rdock/2013.1/src/exe/rbdock.cxx#4 $)

>  <Rbt.Library>
libRbt.so (2013.1, Build901 2013/11/27)

>  <Rbt.Parameter_File>
/export/apps/rDock/src/rDock_2013.1_src/data/scripts/dock_solv.prm

>  <Rbt.Receptor>
prm/pocket_docking_6.prm

>  <SCORE>
-10.9643

>  <SCORE.INTER>
-10.01

>  <SCORE.INTER.CONST>
1

>  <SCORE.INTER.POLAR>
-1.63441

>  <SCORE.INTER.ROT>
6

>  <SCORE.INTER.SOLV>
12.8888

>  <SCORE.INTER.VDW>
-13.1216

>  <SCORE.INTER.norm>
-0.322905

>  <SCORE.INTRA>
-0.954258

>  <SCORE.INTRA.DIHEDRAL>
-2.27428

>  <SCORE.INTRA.DIHEDRAL.0>
10.8409

>  <SCORE.INTRA.POLAR>
0

>  <SCORE.INTRA.POLAR.0>
0

>  <SCORE.INTRA.REPUL>
0

>  <SCORE.INTRA.REPUL.0>
0

>  <SCORE.INTRA.SOLV>
-2.07549

>  <SCORE.INTRA.SOLV.lig_0>
-80.8302

>  <SCORE.INTRA.VDW>
1.22063

>  <SCORE.INTRA.VDW.0>
-4.23953

>  <SCORE.INTRA.norm>
-0.0307825

>  <SCORE.RESTR>
0

>  <SCORE.RESTR.CAVITY>
0

>  <SCORE.RESTR.norm>
0

>  <SCORE.SYSTEM>
0

>  <SCORE.SYSTEM.CONST>
0

>  <SCORE.SYSTEM.DIHEDRAL>
0

>  <SCORE.SYSTEM.SOLV>
0

>  <SCORE.SYSTEM.norm>
0

>  <SCORE.heavy>
31

>  <SCORE.norm>
-0.353687

>  <RMSD>
6.164

$$$$
2fcz_lig
 OpenBabel11021811433D
libRbt.so/2013.1/901 2013/11/27
 31 33  0  0  0  0  0  0  0  0999 V2000
    7.0845   20.3072   30.5079 C   0  0  0  0  0  0  0  0  0  0  0  0
   12.5817   23.1114   33.4867 N   0  0  0  0  0  0  0  0  0  0  0  0
    6.3476   20.5173   31.7154 O   0  0  0  0  0  0  0  0  0  0  0  0
    8.4600   19.7186   30.8399 C   0  0  1  0  0  0  0  0  0  0  0  0
   12.7342   19.5408   36.8295 N   0  0  0  0  0  0  0  0  0  0  0  0
    9.0875   20.4149   31.9357 O   0  0  0  0  0  0  0  0  0  0  0  0
    9.0862   19.5739   33.1064 C   0  0  1  0  0  0  0  0  0  0  0  0
   11.8633   14.7403   37.5038 N   0  0  0  0  0  0  0  0  0  0  0  0
    8.6835   20.2780   34.2935 O   0  0  0  0  0  0  0  0  0  0  0  0
    9.7452   20.9987   34.9418 C   0  0  2  0  0  0  0  0  0  0  0  0
    7.5870   19.5527   38.4089 N   0  0  0  0  0  0  0  0  0  0  0  0
    9.7866   22.7256   33.2477 O   0  0  0  0  0  0  0  0  0  0  0  0
   10.5840   21.7219   33.8809 C   0  0  1  0  0  0  0  0  0  0  0  0
    9.9162   19.5198   36.9033 O   0  0  0  0  0  0  0  0  0  0  0  0
   11.8117   22.3872   34.5074 C   0  0  1  0  0  0  0  0  0  0  0  0
    9.5416   17.3085   36.1668 O   0  0  0  0  0  0  0  0  0  0  0  0
   12.7020   21.3322   35.1676 C   0  0  0  0  0  0  0  0  0  0  0  0
   10.4546   15.7497   39.3769 O   0  0  0  0  0  0  0  0  0  0  0  0
   11.9089   20.6207   36.2655 C   0  0  1  0  0  0  0  0  0  0  0  0
    8.1479   17.3058   40.0917 O   0  0  0  0  0  0  0  0  0  0  0  0
   10.6000   20.0186   35.7429 C   0  0  2  0  0  0  0  0  0  0  0  0
    8.2654   17.2831   33.5461 O   0  0  0  0  0  0  0  0  0  0  0  0
    8.9202   18.5291   36.6107 C   0  0  1  0  0  0  0  0  0  0  0  0
    9.5509   17.5450   31.0909 O   0  0  0  0  0  0  0  0  0  0  0  0
   10.4066   16.6930   37.1369 C   0  0  2  0  0  0  0  0  0  0  0  0
   11.0182   15.4327   36.5201 C   0  0  0  0  0  0  0  0  0  0  0  0
    9.5995   16.3344   38.3897 C   0  0  2  0  0  0  0  0  0  0  0  0
    8.9647   17.6065   38.9555 C   0  0  1  0  0  0  0  0  0  0  0  0
    8.1054   18.2817   37.8842 C   0  0  1  0  0  0  0  0  0  0  0  0
    8.0688   18.4782   32.7842 C   0  0  2  0  0  0  0  0  0  0  0  0
    8.3322   18.2648   31.2948 C   0  0  1  0  0  0  0  0  0  0  0  0
  3  1  1  0  0  0  0
  4  1  1  1  0  0  0
  4  6  1  0  0  0  0
  4 31  1  0  0  0  0
  6  7  1  0  0  0  0
  7  9  1  1  0  0  0
  7 30  1  0  0  0  0
 10  9  1  6  0  0  0
 10 13  1  0  0  0  0
 10 21  1  0  0  0  0
 13 12  1  1  0  0  0
 13 15  1  0  0  0  0
 15  2  1  6  0  0  0
 15 17  1  0  0  0  0
 16 25  1  0  0  0  0
 17 19  1  0  0  0  0
 19  5  1  6  0  0  0
 19 21  1  0  0  0  0
 21 14  1  1  0  0  0
 23 14  1  1  0  0  0
 23 16  1  0  0  0  0
 23 29  1  0  0  0  0
 25 26  1  6  0  0  0
 25 27  1  0  0  0  0
 26  8  1  0  0  0  0
 27 18  1  1  0  0  0
 27 28  1  0  0  0  0
 28 20  1  1  0  0  0
 28 29  1  0  0  0  0
 29 11  1  1  0  0  0
 30 22  1  1  0  0  0
 30 31  1  0  0  0  0
 31 24  1  1  0  0  0
M  END
>  <CHROM.1>
-45.57527567,-84.19313995,43.14098900,75.86096197,69.40152856,-177.44147862
9.64612851,19.07864422,35.11869819,1.75487031,-0.85570711,-0.89960812

>  <Name>
2fcz_lig

>  <RI>
3.41297e+07

>  <Rbt.Current_Directory>
/home/itssahil/PROJECTS/Mol_Feturizer/New_Systems/rnas/2fcz

>  <Rbt.Executable>
rbdock ($Id: //depot/dev/client3/rdock/2013.1/src/exe/rbdock.cxx#4 $)

>  <Rbt.Library>
libRbt.so (2013.1, Build901 2013/11/27)

>  <Rbt.Parameter_File>
/export/apps/rDock/src/rDock_2013.1_src/data/scripts/dock_solv.prm

>  <Rbt.Receptor>
prm/pocket_docking_2.prm

>  <SCORE>
-11.1651

>  <SCORE.INTER>
-14.7759

>  <SCORE.INTER.CONST>
1

>  <SCORE.INTER.POLAR>
-1.886

>  <SCORE.INTER.ROT>
6

>  <SCORE.INTER.SOLV>
15.1225

>  <SCORE.INTER.VDW>
-16.2047

>  <SCORE.INTER.norm>
-0.476641

>  <SCORE.INTRA>
0.637586

>  <SCORE.INTRA.DIHEDRAL>
-4.56964

>  <SCORE.INTRA.DIHEDRAL.0>
10.8409

>  <SCORE.INTRA.POLAR>
0

>  <SCORE.INTRA.POLAR.0>
0

>  <SCORE.INTRA.REPUL>
0.0704379

>  <SCORE.INTRA.REPUL.0>
0

>  <SCORE.INTRA.SOLV>
-0.742825

>  <SCORE.INTRA.SOLV.lig_0>
-80.8302

>  <SCORE.INTRA.VDW>
2.94163

>  <SCORE.INTRA.VDW.0>
-4.23953

>  <SCORE.INTRA.norm>
0.0205673

>  <SCORE.RESTR>
2.97313

>  <SCORE.RESTR.CAVITY>
2.97313

>  <SCORE.RESTR.norm>
0.0959075

>  <SCORE.SYSTEM>
0

>  <SCORE.SYSTEM.CONST>
0

>  <SCORE.SYSTEM.DIHEDRAL>
0

>  <SCORE.SYSTEM.SOLV>
0

>  <SCORE.SYSTEM.norm>
0

>  <SCORE.heavy>
31

>  <SCORE.norm>
-0.360166

>  <RMSD>
6.176

$$$$
2fcz_lig
 OpenBabel11021811433D
libRbt.so/2013.1/901 2013/11/27
 31 33  0  0  0  0  0  0  0  0999 V2000
    6.9953   20.2495   31.8060 C   0  0  0  0  0  0  0  0  0  0  0  0
   14.1935   23.4900   35.2266 N   0  0  0  0  0  0  0  0  0  0  0  0
    6.3652   20.4790   30.5427 O   0  0  0  0  0  0  0  0  0  0  0  0
    7.3412   21.5915   32.4602 C   0  0  1  0  0  0  0  0  0  0  0  0
   13.2714   19.4187   37.7803 N   0  0  0  0  0  0  0  0  0  0  0  0
    7.9758   21.4117   33.7426 O   0  0  0  0  0  0  0  0  0  0  0  0
    9.3716   21.7575   33.6434 C   0  0  1  0  0  0  0  0  0  0  0  0
   12.7986   16.2828   34.8674 N   0  0  0  0  0  0  0  0  0  0  0  0
   10.2270   20.7964   34.2850 O   0  0  0  0  0  0  0  0  0  0  0  0
   11.0341   21.3380   35.3444 C   0  0  2  0  0  0  0  0  0  0  0  0
    7.9703   19.3042   37.9009 N   0  0  0  0  0  0  0  0  0  0  0  0
   11.6136   23.3129   34.0725 O   0  0  0  0  0  0  0  0  0  0  0  0
   12.1671   22.1744   34.7369 C   0  0  1  0  0  0  0  0  0  0  0  0
   10.5732   19.5512   36.9749 O   0  0  0  0  0  0  0  0  0  0  0  0
   13.1384   22.6553   35.8175 C   0  0  1  0  0  0  0  0  0  0  0  0
   10.3751   17.6575   35.5793 O   0  0  0  0  0  0  0  0  0  0  0  0
   13.7713   21.4563   36.5270 C   0  0  0  0  0  0  0  0  0  0  0  0
   10.5658   15.2176   38.3322 O   0  0  0  0  0  0  0  0  0  0  0  0
   12.6701   20.6227   37.1852 C   0  0  1  0  0  0  0  0  0  0  0  0
    8.1544   16.6493   38.9555 O   0  0  0  0  0  0  0  0  0  0  0  0
   11.5893   20.1919   36.1876 C   0  0  2  0  0  0  0  0  0  0  0  0
   10.7883   22.5699   31.7865 O   0  0  0  0  0  0  0  0  0  0  0  0
    9.6682   18.7419   36.2097 C   0  0  1  0  0  0  0  0  0  0  0  0
    8.2784   23.7712   31.8700 O   0  0  0  0  0  0  0  0  0  0  0  0
   11.0079   16.7465   36.4946 C   0  0  2  0  0  0  0  0  0  0  0  0
   11.7432   15.6726   35.6890 C   0  0  0  0  0  0  0  0  0  0  0  0
    9.9466   16.1032   37.3943 C   0  0  2  0  0  0  0  0  0  0  0  0
    9.1998   17.2040   38.1505 C   0  0  1  0  0  0  0  0  0  0  0  0
    8.5945   18.2000   37.1588 C   0  0  1  0  0  0  0  0  0  0  0  0
    9.6510   21.7766   32.1397 C   0  0  2  0  0  0  0  0  0  0  0  0
    8.3462   22.3669   31.6084 C   0  0  1  0  0  0  0  0  0  0  0  0
  3  1  1  0  0  0  0
  4  1  1  6  0  0  0
  4  6  1  0  0  0  0
  4 31  1  0  0  0  0
  6  7  1  0  0  0  0
  7  9  1  1  0  0  0
  7 30  1  0  0  0  0
 10  9  1  6  0  0  0
 10 13  1  0  0  0  0
 10 21  1  0  0  0  0
 13 12  1  1  0  0  0
 13 15  1  0  0  0  0
 15  2  1  6  0  0  0
 15 17  1  0  0  0  0
 16 25  1  0  0  0  0
 17 19  1  0  0  0  0
 19  5  1  6  0  0  0
 19 21  1  0  0  0  0
 21 14  1  1  0  0  0
 23 14  1  1  0  0  0
 23 16  1  0  0  0  0
 23 29  1  0  0  0  0
 25 26  1  6  0  0  0
 25 27  1  0  0  0  0
 26  8  1  0  0  0  0
 27 18  1  1  0  0  0
 27 28  1  0  0  0  0
 28 20  1  6  0  0  0
 28 29  1  0  0  0  0
 29 11  1  1  0  0  0
 30 22  1  1  0  0  0
 30 31  1  0  0  0  0
 31 24  1  1  0  0  0
M  END
>  <CHROM.1>
179.78064152,-120.34270291,-74.04510619,72.47768824,62.71802268,62.18401016
10.26731193,19.96359419,35.14630168,1.79060250,-0.49743454,-0.65888456

>  <Name>
2fcz_lig

>  <RI>
0

>  <Rbt.Current_Directory>
/home/itssahil/PROJECTS/Mol_Feturizer/New_Systems/rnas/2fcz

>  <Rbt.Executable>
rbdock ($Id: //depot/dev/client3/rdock/2013.1/src/exe/rbdock.cxx#4 $)

>  <Rbt.Library>
libRbt.so (2013.1, Build901 2013/11/27)

>  <Rbt.Parameter_File>
/export/apps/rDock/src/rDock_2013.1_src/data/scripts/dock_solv.prm

>  <Rbt.Receptor>
prm/pocket_docking_6.prm

>  <SCORE>
-16.9523

>  <SCORE.INTER>
-16.3798

>  <SCORE.INTER.CONST>
1

>  <SCORE.INTER.POLAR>
-2.85331

>  <SCORE.INTER.ROT>
6

>  <SCORE.INTER.SOLV>
15.7943

>  <SCORE.INTER.VDW>
-14.2736

>  <SCORE.INTER.norm>
-0.528381

>  <SCORE.INTRA>
-0.572533

>  <SCORE.INTRA.DIHEDRAL>
-1.89417

>  <SCORE.INTRA.DIHEDRAL.0>
10.8409

>  <SCORE.INTRA.POLAR>
0

>  <SCORE.INTRA.POLAR.0>
0

>  <SCORE.INTRA.REPUL>
0

>  <SCORE.INTRA.REPUL.0>
0

>  <SCORE.INTRA.SOLV>
-2.80652

>  <SCORE.INTRA.SOLV.lig_0>
-80.8302

>  <SCORE.INTRA.VDW>
1.77782

>  <SCORE.INTRA.VDW.0>
-4.23953

>  <SCORE.INTRA.norm>
-0.0184688

>  <SCORE.RESTR>
0

>  <SCORE.RESTR.CAVITY>
0

>  <SCORE.RESTR.norm>
0

>  <SCORE.SYSTEM>
0

>  <SCORE.SYSTEM.CONST>
0

>  <SCORE.SYSTEM.DIHEDRAL>
0

>  <SCORE.SYSTEM.SOLV>
0

>  <SCORE.SYSTEM.norm>
0

>  <SCORE.heavy>
31

>  <SCORE.norm>
-0.54685

>  <RMSD>
6.176

$$$$
2fcz_lig
 OpenBabel11021811433D
libRbt.so/2013.1/901 2013/11/27
 31 33  0  0  0  0  0  0  0  0999 V2000
    8.5710   18.2798   30.5223 C   0  0  0  0  0  0  0  0  0  0  0  0
   12.2628   22.7069   33.6841 N   0  0  0  0  0  0  0  0  0  0  0  0
    8.8450   19.5040   29.8355 O   0  0  0  0  0  0  0  0  0  0  0  0
    9.7549   17.9208   31.4268 C   0  0  1  0  0  0  0  0  0  0  0  0
   12.3138   19.9816   37.7483 N   0  0  0  0  0  0  0  0  0  0  0  0
    9.9768   18.9246   32.4381 O   0  0  0  0  0  0  0  0  0  0  0  0
    9.5822   18.4091   33.7251 C   0  0  1  0  0  0  0  0  0  0  0  0
   12.1323   15.7609   36.7675 N   0  0  0  0  0  0  0  0  0  0  0  0
    8.8032   19.3501   34.4832 O   0  0  0  0  0  0  0  0  0  0  0  0
    9.5761   20.3881   35.1095 C   0  0  2  0  0  0  0  0  0  0  0  0
    7.0542   19.3402   38.5012 N   0  0  0  0  0  0  0  0  0  0  0  0
    9.6784   21.7144   33.0886 O   0  0  0  0  0  0  0  0  0  0  0  0
   10.4835   21.0427   34.0605 C   0  0  1  0  0  0  0  0  0  0  0  0
    9.5832   19.3963   37.3634 O   0  0  0  0  0  0  0  0  0  0  0  0
   11.4302   22.0575   34.7060 C   0  0  1  0  0  0  0  0  0  0  0  0
    9.5866   17.0662   36.9847 O   0  0  0  0  0  0  0  0  0  0  0  0
   12.3278   21.3611   35.7311 C   0  0  0  0  0  0  0  0  0  0  0  0
   10.1447   16.1753   40.5149 O   0  0  0  0  0  0  0  0  0  0  0  0
   11.4550   20.7344   36.8202 C   0  0  1  0  0  0  0  0  0  0  0  0
    7.5907   17.4869   40.6159 O   0  0  0  0  0  0  0  0  0  0  0  0
   10.3983   19.7842   36.2463 C   0  0  2  0  0  0  0  0  0  0  0  0
    8.6624   16.2384   34.4714 O   0  0  0  0  0  0  0  0  0  0  0  0
    8.7668   18.2425   37.1151 C   0  0  1  0  0  0  0  0  0  0  0  0
   10.6989   15.9885   32.5899 O   0  0  0  0  0  0  0  0  0  0  0  0
   10.3493   16.7381   38.1589 C   0  0  2  0  0  0  0  0  0  0  0  0
   11.1919   15.4942   37.8656 C   0  0  0  0  0  0  0  0  0  0  0  0
    9.3980   16.4720   39.3309 C   0  0  2  0  0  0  0  0  0  0  0  0
    8.5395   17.7160   39.5691 C   0  0  1  0  0  0  0  0  0  0  0  0
    7.7918   18.0874   38.2866 C   0  0  1  0  0  0  0  0  0  0  0  0
    8.7330   17.1801   33.3964 C   0  0  2  0  0  0  0  0  0  0  0  0
    9.4822   16.6231   32.1874 C   0  0  1  0  0  0  0  0  0  0  0  0
  3  1  1  0  0  0  0
  4  1  1  1  0  0  0
  4  6  1  0  0  0  0
  4 31  1  0  0  0  0
  6  7  1  0  0  0  0
  7  9  1  6  0  0  0
  7 30  1  0  0  0  0
 10  9  1  6  0  0  0
 10 13  1  0  0  0  0
 10 21  1  0  0  0  0
 13 12  1  6  0  0  0
 13 15  1  0  0  0  0
 15  2  1  6  0  0  0
 15 17  1  0  0  0  0
 16 25  1  0  0  0  0
 17 19  1  0  0  0  0
 19  5  1  1  0  0  0
 19 21  1  0  0  0  0
 21 14  1  1  0  0  0
 23 14  1  1  0  0  0
 23 16  1  0  0  0  0
 23 29  1  0  0  0  0
 25 26  1  6  0  0  0
 25 27  1  0  0  0  0
 26  8  1  0  0  0  0
 27 18  1  1  0  0  0
 27 28  1  0  0  0  0
 28 20  1  1  0  0  0
 28 29  1  0  0  0  0
 29 11  1  1  0  0  0
 30 22  1  1  0  0  0
 30 31  1  0  0  0  0
 31 24  1  1  0  0  0
M  END
>  <CHROM.1>
61.85731003,-78.01569762,51.44164181,71.28270487,68.48263845,61.50653835
9.82674902,18.56509816,35.57149475,1.36791223,-1.23764905,-1.46629106

>  <Name>
2fcz_lig

>  <RI>
2.26996e+07

>  <Rbt.Current_Directory>
/home/itssahil/PROJECTS/Mol_Feturizer/New_Systems/rnas/2fcz

>  <Rbt.Executable>
rbdock ($Id: //depot/dev/client3/rdock/2013.1/src/exe/rbdock.cxx#4 $)

>  <Rbt.Library>
libRbt.so (2013.1, Build901 2013/11/27)

>  <Rbt.Parameter_File>
/export/apps/rDock/src/rDock_2013.1_src/data/scripts/dock_solv.prm

>  <Rbt.Receptor>
prm/pocket_docking_4.prm

>  <SCORE>
-20.6204

>  <SCORE.INTER>
-17.2677

>  <SCORE.INTER.CONST>
1

>  <SCORE.INTER.POLAR>
-2.06063

>  <SCORE.INTER.ROT>
6

>  <SCORE.INTER.SOLV>
16.0507

>  <SCORE.INTER.VDW>
-17.5932

>  <SCORE.INTER.norm>
-0.557021

>  <SCORE.INTRA>
-3.35275

>  <SCORE.INTRA.DIHEDRAL>
-7.89967

>  <SCORE.INTRA.DIHEDRAL.0>
10.8409

>  <SCORE.INTRA.POLAR>
0

>  <SCORE.INTRA.POLAR.0>
0

>  <SCORE.INTRA.REPUL>
7.91294e-05

>  <SCORE.INTRA.REPUL.0>
0

>  <SCORE.INTRA.SOLV>
-2.5489

>  <SCORE.INTRA.SOLV.lig_0>
-80.8302

>  <SCORE.INTRA.VDW>
1.87114

>  <SCORE.INTRA.VDW.0>
-4.23953

>  <SCORE.INTRA.norm>
-0.108153

>  <SCORE.RESTR>
0

>  <SCORE.RESTR.CAVITY>
0

>  <SCORE.RESTR.norm>
0

>  <SCORE.SYSTEM>
0

>  <SCORE.SYSTEM.CONST>
0

>  <SCORE.SYSTEM.DIHEDRAL>
0

>  <SCORE.SYSTEM.SOLV>
0

>  <SCORE.SYSTEM.norm>
0

>  <SCORE.heavy>
31

>  <SCORE.norm>
-0.665174

>  <RMSD>
6.178

$$$$
2fcz_lig
 OpenBabel11021811433D
libRbt.so/2013.1/901 2013/11/27
 31 33  0  0  0  0  0  0  0  0999 V2000
    8.6279   18.3850   30.7950 C   0  0  0  0  0  0  0  0  0  0  0  0
   11.3024   23.1841   33.1608 N   0  0  0  0  0  0  0  0  0  0  0  0
    7.5482   18.8074   31.6325 O   0  0  0  0  0  0  0  0  0  0  0  0
    9.8158   17.9567   31.6632 C   0  0  1  0  0  0  0  0  0  0  0  0
   13.1287   20.5175   36.8352 N   0  0  0  0  0  0  0  0  0  0  0  0
   10.0700   18.9014   32.7227 O   0  0  0  0  0  0  0  0  0  0  0  0
    9.6817   18.3261   33.9860 C   0  0  1  0  0  0  0  0  0  0  0  0
   13.6032   16.7561   35.3644 N   0  0  0  0  0  0  0  0  0  0  0  0
    8.9308   19.2403   34.8031 O   0  0  0  0  0  0  0  0  0  0  0  0
    9.6662   20.4046   35.2160 C   0  0  2  0  0  0  0  0  0  0  0  0
    8.8477   18.6276   39.3133 N   0  0  0  0  0  0  0  0  0  0  0  0
    8.8820   21.7261   33.3472 O   0  0  0  0  0  0  0  0  0  0  0  0
   10.0606   21.2169   33.9763 C   0  0  1  0  0  0  0  0  0  0  0  0
   10.5673   19.4322   37.2912 O   0  0  0  0  0  0  0  0  0  0  0  0
   10.9681   22.3909   34.3516 C   0  0  1  0  0  0  0  0  0  0  0  0
   11.0758   17.2079   36.6857 O   0  0  0  0  0  0  0  0  0  0  0  0
   12.2542   21.8747   35.0007 C   0  0  0  0  0  0  0  0  0  0  0  0
   13.2464   16.5792   39.5945 O   0  0  0  0  0  0  0  0  0  0  0  0
   11.8998   21.0963   36.2693 C   0  0  1  0  0  0  0  0  0  0  0  0
   10.6971   17.0552   40.8306 O   0  0  0  0  0  0  0  0  0  0  0  0
   10.9013   19.9653   36.0001 C   0  0  2  0  0  0  0  0  0  0  0  0
    8.7293   16.1367   34.6298 O   0  0  0  0  0  0  0  0  0  0  0  0
   10.0835   18.0817   37.2557 C   0  0  1  0  0  0  0  0  0  0  0  0
   10.7366   15.9484   32.7102 O   0  0  0  0  0  0  0  0  0  0  0  0
   12.3082   17.1437   37.4241 C   0  0  2  0  0  0  0  0  0  0  0  0
   13.2731   16.2102   36.6889 C   0  0  0  0  0  0  0  0  0  0  0  0
   12.0328   16.6183   38.8375 C   0  0  2  0  0  0  0  0  0  0  0  0
   11.0316   17.5464   39.5286 C   0  0  1  0  0  0  0  0  0  0  0  0
    9.7559   17.6548   38.6901 C   0  0  1  0  0  0  0  0  0  0  0  0
    8.8047   17.1324   33.6049 C   0  0  2  0  0  0  0  0  0  0  0  0
    9.5276   16.6260   32.3581 C   0  0  1  0  0  0  0  0  0  0  0  0
  3  1  1  0  0  0  0
  4  1  1  1  0  0  0
  4  6  1  0  0  0  0
  4 31  1  0  0  0  0
  6  7  1  0  0  0  0
  7  9  1  1  0  0  0
  7 30  1  0  0  0  0
 10  9  1  6  0  0  0
 10 13  1  0  0  0  0
 10 21  1  0  0  0  0
 13 12  1  1  0  0  0
 13 15  1  0  0  0  0
 15  2  1  6  0  0  0
 15 17  1  0  0  0  0
 16 25  1  0  0  0  0
 17 19  1  0  0  0  0
 19  5  1  6  0  0  0
 19 21  1  0  0  0  0
 21 14  1  1  0  0  0
 23 14  1  1  0  0  0
 23 16  1  0  0  0  0
 23 29  1  0  0  0  0
 25 26  1  6  0  0  0
 25 27  1  0  0  0  0
 26  8  1  0  0  0  0
 27 18  1  1  0  0  0
 27 28  1  0  0  0  0
 28 20  1  1  0  0  0
 28 29  1  0  0  0  0
 29 11  1  1  0  0  0
 30 22  1  1  0  0  0
 30 31  1  0  0  0  0
 31 24  1  1  0  0  0
M  END
>  <CHROM.1>
-45.36152460,-64.10296333,62.93610673,78.48547796,59.70234563,63.34615692
10.56209537,18.64199679,35.49370365,2.51446717,-1.17011086,-0.34183939

>  <Name>
2fcz_lig

>  <RI>
0

>  <Rbt.Current_Directory>
/home/itssahil/PROJECTS/Mol_Feturizer/New_Systems/rnas/2fcz

>  <Rbt.Executable>
rbdock ($Id: //depot/dev/client3/rdock/2013.1/src/exe/rbdock.cxx#4 $)

>  <Rbt.Library>
libRbt.so (2013.1, Build901 2013/11/27)

>  <Rbt.Parameter_File>
/export/apps/rDock/src/rDock_2013.1_src/data/scripts/dock_solv.prm

>  <Rbt.Receptor>
prm/pocket_docking_5.prm

>  <SCORE>
-15.6716

>  <SCORE.INTER>
-12.8904

>  <SCORE.INTER.CONST>
1

>  <SCORE.INTER.POLAR>
-1.10644

>  <SCORE.INTER.ROT>
6

>  <SCORE.INTER.SOLV>
14.4576

>  <SCORE.INTER.VDW>
-17.3246

>  <SCORE.INTER.norm>
-0.415818

>  <SCORE.INTRA>
-2.78125

>  <SCORE.INTRA.DIHEDRAL>
-8.24844

>  <SCORE.INTRA.DIHEDRAL.0>
10.8409

>  <SCORE.INTRA.POLAR>
0

>  <SCORE.INTRA.POLAR.0>
0

>  <SCORE.INTRA.REPUL>
0

>  <SCORE.INTRA.REPUL.0>
0

>  <SCORE.INTRA.SOLV>
-0.785115

>  <SCORE.INTRA.SOLV.lig_0>
-80.8302

>  <SCORE.INTRA.VDW>
1.73553

>  <SCORE.INTRA.VDW.0>
-4.23953

>  <SCORE.INTRA.norm>
-0.0897176

>  <SCORE.RESTR>
0

>  <SCORE.RESTR.CAVITY>
0

>  <SCORE.RESTR.norm>
0

>  <SCORE.SYSTEM>
0

>  <SCORE.SYSTEM.CONST>
0

>  <SCORE.SYSTEM.DIHEDRAL>
0

>  <SCORE.SYSTEM.SOLV>
0

>  <SCORE.SYSTEM.norm>
0

>  <SCORE.heavy>
31

>  <SCORE.norm>
-0.505535

>  <RMSD>
6.185

$$$$
2fcz_lig
 OpenBabel11021811433D
libRbt.so/2013.1/901 2013/11/27
 31 33  0  0  0  0  0  0  0  0999 V2000
    8.0760   19.4609   30.5659 C   0  0  0  0  0  0  0  0  0  0  0  0
   13.8693   22.7323   34.3288 N   0  0  0  0  0  0  0  0  0  0  0  0
    9.4659   19.7799   30.6755 O   0  0  0  0  0  0  0  0  0  0  0  0
    7.3958   19.6490   31.9261 C   0  0  1  0  0  0  0  0  0  0  0  0
   12.8675   19.7841   38.1040 N   0  0  0  0  0  0  0  0  0  0  0  0
    8.1153   18.9767   32.9796 O   0  0  0  0  0  0  0  0  0  0  0  0
    8.7659   19.9516   33.8186 C   0  0  1  0  0  0  0  0  0  0  0  0
   12.3714   14.7672   37.5983 N   0  0  0  0  0  0  0  0  0  0  0  0
   10.1256   19.5988   34.1252 O   0  0  0  0  0  0  0  0  0  0  0  0
   10.8029   20.5399   34.9752 C   0  0  2  0  0  0  0  0  0  0  0  0
    7.6888   19.2977   38.1399 N   0  0  0  0  0  0  0  0  0  0  0  0
   11.4236   21.9678   33.1233 O   0  0  0  0  0  0  0  0  0  0  0  0
   11.9552   21.1847   34.1949 C   0  0  1  0  0  0  0  0  0  0  0  0
   10.2576   19.4238   37.1014 O   0  0  0  0  0  0  0  0  0  0  0  0
   12.7961   22.0888   35.0991 C   0  0  1  0  0  0  0  0  0  0  0  0
   10.0858   17.2841   36.1191 O   0  0  0  0  0  0  0  0  0  0  0  0
   13.4047   21.2712   36.2406 C   0  0  0  0  0  0  0  0  0  0  0  0
   10.4266   15.4519   39.2963 O   0  0  0  0  0  0  0  0  0  0  0  0
   12.2790   20.6494   37.0695 C   0  0  1  0  0  0  0  0  0  0  0  0
    7.9864   16.9142   39.6972 O   0  0  0  0  0  0  0  0  0  0  0  0
   11.3190   19.8136   36.2158 C   0  0  2  0  0  0  0  0  0  0  0  0
    8.8543   22.4227   33.7897 O   0  0  0  0  0  0  0  0  0  0  0  0
    9.3602   18.4535   36.5423 C   0  0  1  0  0  0  0  0  0  0  0  0
    6.3216   21.4002   33.2517 O   0  0  0  0  0  0  0  0  0  0  0  0
   10.7712   16.5925   37.1774 C   0  0  2  0  0  0  0  0  0  0  0  0
   11.5203   15.3990   36.5796 C   0  0  0  0  0  0  0  0  0  0  0  0
    9.7549   16.1144   38.2205 C   0  0  2  0  0  0  0  0  0  0  0  0
    8.9921   17.3241   38.7649 C   0  0  1  0  0  0  0  0  0  0  0  0
    8.3295   18.0843   37.6139 C   0  0  1  0  0  0  0  0  0  0  0  0
    8.7387   21.2394   32.9936 C   0  0  2  0  0  0  0  0  0  0  0  0
    7.3720   21.1256   32.3209 C   0  0  1  0  0  0  0  0  0  0  0  0
  3  1  1  0  0  0  0
  4  1  1  6  0  0  0
  4  6  1  0  0  0  0
  4 31  1  0  0  0  0
  6  7  1  0  0  0  0
  7  9  1  6  0  0  0
  7 30  1  0  0  0  0
 10  9  1  6  0  0  0
 10 13  1  0  0  0  0
 10 21  1  0  0  0  0
 13 12  1  6  0  0  0
 13 15  1  0  0  0  0
 15  2  1  6  0  0  0
 15 17  1  0  0  0  0
 16 25  1  0  0  0  0
 17 19  1  0  0  0  0
 19  5  1  1  0  0  0
 19 21  1  0  0  0  0
 21 14  1  1  0  0  0
 23 14  1  1  0  0  0
 23 16  1  0  0  0  0
 23 29  1  0  0  0  0
 25 26  1  6  0  0  0
 25 27  1  0  0  0  0
 26  8  1  0  0  0  0
 27 18  1  1  0  0  0
 27 28  1  0  0  0  0
 28 20  1  1  0  0  0
 28 29  1  0  0  0  0
 29 11  1  1  0  0  0
 30 22  1  1  0  0  0
 30 31  1  0  0  0  0
 31 24  1  1  0  0  0
M  END
>  <CHROM.1>
-50.12351285,-179.23975050,-114.99728654,64.77153092,56.37145854,172.77225167
10.01930152,19.30916820,35.41921163,1.74897082,-0.46313949,-0.84683520

>  <Name>
2fcz_lig

>  <RI>
2.26996e+07

>  <Rbt.Current_Directory>
/home/itssahil/PROJECTS/Mol_Feturizer/New_Systems/rnas/2fcz

>  <Rbt.Executable>
rbdock ($Id: //depot/dev/client3/rdock/2013.1/src/exe/rbdock.cxx#4 $)

>  <Rbt.Library>
libRbt.so (2013.1, Build901 2013/11/27)

>  <Rbt.Parameter_File>
/export/apps/rDock/src/rDock_2013.1_src/data/scripts/dock_solv.prm

>  <Rbt.Receptor>
prm/pocket_docking_4.prm

>  <SCORE>
-14.692

>  <SCORE.INTER>
-14.6611

>  <SCORE.INTER.CONST>
1

>  <SCORE.INTER.POLAR>
-2.13776

>  <SCORE.INTER.ROT>
6

>  <SCORE.INTER.SOLV>
17.1379

>  <SCORE.INTER.VDW>
-15.9608

>  <SCORE.INTER.norm>
-0.47294

>  <SCORE.INTRA>
-0.0308845

>  <SCORE.INTRA.DIHEDRAL>
-2.90935

>  <SCORE.INTRA.DIHEDRAL.0>
10.8409

>  <SCORE.INTRA.POLAR>
0

>  <SCORE.INTRA.POLAR.0>
0

>  <SCORE.INTRA.REPUL>
0.00561793

>  <SCORE.INTRA.REPUL.0>
0

>  <SCORE.INTRA.SOLV>
-1.44618

>  <SCORE.INTRA.SOLV.lig_0>
-80.8302

>  <SCORE.INTRA.VDW>
2.11879

>  <SCORE.INTRA.VDW.0>
-4.23953

>  <SCORE.INTRA.norm>
-0.000996275

>  <SCORE.RESTR>
0

>  <SCORE.RESTR.CAVITY>
0

>  <SCORE.RESTR.norm>
0

>  <SCORE.SYSTEM>
0

>  <SCORE.SYSTEM.CONST>
0

>  <SCORE.SYSTEM.DIHEDRAL>
0

>  <SCORE.SYSTEM.SOLV>
0

>  <SCORE.SYSTEM.norm>
0

>  <SCORE.heavy>
31

>  <SCORE.norm>
-0.473936

>  <RMSD>
6.188

$$$$
2fcz_lig
 OpenBabel11021811433D
libRbt.so/2013.1/901 2013/11/27
 31 33  0  0  0  0  0  0  0  0999 V2000
    6.9860   20.2443   31.8126 C   0  0  0  0  0  0  0  0  0  0  0  0
   14.1827   23.4955   35.2429 N   0  0  0  0  0  0  0  0  0  0  0  0
    8.1271   19.3821   31.8177 O   0  0  0  0  0  0  0  0  0  0  0  0
    7.3585   21.5951   32.4333 C   0  0  1  0  0  0  0  0  0  0  0  0
   13.2492   19.4281   37.7987 N   0  0  0  0  0  0  0  0  0  0  0  0
    7.9914   21.4346   33.7191 O   0  0  0  0  0  0  0  0  0  0  0  0
    9.3934   21.7510   33.6101 C   0  0  1  0  0  0  0  0  0  0  0  0
   12.5443   14.8365   36.5536 N   0  0  0  0  0  0  0  0  0  0  0  0
   10.2311   20.7896   34.2744 O   0  0  0  0  0  0  0  0  0  0  0  0
   11.0278   21.3358   35.3392 C   0  0  2  0  0  0  0  0  0  0  0  0
    7.9523   19.2986   37.8878 N   0  0  0  0  0  0  0  0  0  0  0  0
   11.6132   23.3091   34.0674 O   0  0  0  0  0  0  0  0  0  0  0  0
   12.1639   22.1735   34.7393 C   0  0  1  0  0  0  0  0  0  0  0  0
   10.5575   19.5519   36.9702 O   0  0  0  0  0  0  0  0  0  0  0  0
   13.1247   22.6596   35.8269 C   0  0  1  0  0  0  0  0  0  0  0  0
   10.3639   17.6661   35.5633 O   0  0  0  0  0  0  0  0  0  0  0  0
   13.7546   21.4639   36.5447 C   0  0  0  0  0  0  0  0  0  0  0  0
   10.5483   15.2106   38.3027 O   0  0  0  0  0  0  0  0  0  0  0  0
   12.6499   20.6291   37.1956 C   0  0  1  0  0  0  0  0  0  0  0  0
    8.1346   16.6378   38.9278 O   0  0  0  0  0  0  0  0  0  0  0  0
   11.5787   20.1931   36.1900 C   0  0  2  0  0  0  0  0  0  0  0  0
   10.8228   22.4901   31.7325 O   0  0  0  0  0  0  0  0  0  0  0  0
    9.6549   18.7466   36.1980 C   0  0  1  0  0  0  0  0  0  0  0  0
    8.3366   23.7411   31.7889 O   0  0  0  0  0  0  0  0  0  0  0  0
   10.9946   16.7501   36.4751 C   0  0  2  0  0  0  0  0  0  0  0  0
   11.7325   15.6811   35.6653 C   0  0  0  0  0  0  0  0  0  0  0  0
    9.9312   16.1013   37.3682 C   0  0  2  0  0  0  0  0  0  0  0  0
    9.1819   17.1975   38.1288 C   0  0  1  0  0  0  0  0  0  0  0  0
    8.5789   18.1989   37.1411 C   0  0  1  0  0  0  0  0  0  0  0  0
    9.6710   21.7278   32.1062 C   0  0  2  0  0  0  0  0  0  0  0  0
    8.3770   22.3298   31.5617 C   0  0  1  0  0  0  0  0  0  0  0  0
  3  1  1  0  0  0  0
  4  1  1  6  0  0  0
  4  6  1  0  0  0  0
  4 31  1  0  0  0  0
  6  7  1  0  0  0  0
  7  9  1  1  0  0  0
  7 30  1  0  0  0  0
 10  9  1  6  0  0  0
 10 13  1  0  0  0  0
 10 21  1  0  0  0  0
 13 12  1  1  0  0  0
 13 15  1  0  0  0  0
 15  2  1  6  0  0  0
 15 17  1  0  0  0  0
 16 25  1  0  0  0  0
 17 19  1  0  0  0  0
 19  5  1  6  0  0  0
 19 21  1  0  0  0  0
 21 14  1  1  0  0  0
 23 14  1  1  0  0  0
 23 16  1  0  0  0  0
 23 29  1  0  0  0  0
 25 26  1  6  0  0  0
 25 27  1  0  0  0  0
 26  8  1  0  0  0  0
 27 18  1  1  0  0  0
 27 28  1  0  0  0  0
 28 20  1  6  0  0  0
 28 29  1  0  0  0  0
 29 11  1  1  0  0  0
 30 22  1  1  0  0  0
 30 31  1  0  0  0  0
 31 24  1  1  0  0  0
M  END
>  <CHROM.1>
-51.51456825,-119.02035079,-73.17180485,72.02550442,62.48430129,172.09429452
10.32100968,19.87210229,35.23137166,1.70863537,-0.51598129,-0.63700505

>  <Name>
2fcz_lig

>  <RI>
2.26996e+07

>  <Rbt.Current_Directory>
/home/itssahil/PROJECTS/Mol_Feturizer/New_Systems/rnas/2fcz

>  <Rbt.Executable>
rbdock ($Id: //depot/dev/client3/rdock/2013.1/src/exe/rbdock.cxx#4 $)

>  <Rbt.Library>
libRbt.so (2013.1, Build901 2013/11/27)

>  <Rbt.Parameter_File>
/export/apps/rDock/src/rDock_2013.1_src/data/scripts/dock_solv.prm

>  <Rbt.Receptor>
prm/pocket_docking_4.prm

>  <SCORE>
-15.719

>  <SCORE.INTER>
-16.1829

>  <SCORE.INTER.CONST>
1

>  <SCORE.INTER.POLAR>
-2.85248

>  <SCORE.INTER.ROT>
6

>  <SCORE.INTER.SOLV>
14.9984

>  <SCORE.INTER.VDW>
-13.8798

>  <SCORE.INTER.norm>
-0.522031

>  <SCORE.INTRA>
0.463982

>  <SCORE.INTRA.DIHEDRAL>
-1.59379

>  <SCORE.INTRA.DIHEDRAL.0>
10.8409

>  <SCORE.INTRA.POLAR>
0

>  <SCORE.INTRA.POLAR.0>
0

>  <SCORE.INTRA.REPUL>
0

>  <SCORE.INTRA.REPUL.0>
0

>  <SCORE.INTRA.SOLV>
-1.4432

>  <SCORE.INTRA.SOLV.lig_0>
-80.8302

>  <SCORE.INTRA.VDW>
1.98248

>  <SCORE.INTRA.VDW.0>
-4.23953

>  <SCORE.INTRA.norm>
0.0149672

>  <SCORE.RESTR>
0

>  <SCORE.RESTR.CAVITY>
0

>  <SCORE.RESTR.norm>
0

>  <SCORE.SYSTEM>
0

>  <SCORE.SYSTEM.CONST>
0

>  <SCORE.SYSTEM.DIHEDRAL>
0

>  <SCORE.SYSTEM.SOLV>
0

>  <SCORE.SYSTEM.norm>
0

>  <SCORE.heavy>
31

>  <SCORE.norm>
-0.507063

>  <RMSD>
6.201

$$$$
2fcz_lig
 OpenBabel11021811433D
libRbt.so/2013.1/901 2013/11/27
 31 33  0  0  0  0  0  0  0  0999 V2000
    8.6485   18.3427   30.4643 C   0  0  0  0  0  0  0  0  0  0  0  0
   12.2339   22.7449   33.7228 N   0  0  0  0  0  0  0  0  0  0  0  0
    8.9569   19.5553   29.7716 O   0  0  0  0  0  0  0  0  0  0  0  0
    9.8114   17.9682   31.3895 C   0  0  1  0  0  0  0  0  0  0  0  0
   12.2651   19.9703   37.7537 N   0  0  0  0  0  0  0  0  0  0  0  0
   10.0116   18.9561   32.4208 O   0  0  0  0  0  0  0  0  0  0  0  0
    9.5877   18.4215   33.6906 C   0  0  1  0  0  0  0  0  0  0  0  0
   10.2208   14.3236   37.3717 N   0  0  0  0  0  0  0  0  0  0  0  0
    8.7929   19.3519   34.4454 O   0  0  0  0  0  0  0  0  0  0  0  0
    9.5512   20.3880   35.0922 C   0  0  2  0  0  0  0  0  0  0  0  0
    7.0036   19.3193   38.4477 N   0  0  0  0  0  0  0  0  0  0  0  0
    9.6636   21.7399   33.0888 O   0  0  0  0  0  0  0  0  0  0  0  0
   10.4640   21.0625   34.0607 C   0  0  1  0  0  0  0  0  0  0  0  0
    9.5432   19.3686   37.3338 O   0  0  0  0  0  0  0  0  0  0  0  0
   11.3961   22.0765   34.7281 C   0  0  1  0  0  0  0  0  0  0  0  0
    9.5211   17.0477   36.9031 O   0  0  0  0  0  0  0  0  0  0  0  0
   12.2888   21.3745   35.7537 C   0  0  0  0  0  0  0  0  0  0  0  0
   10.0359   16.0714   40.4173 O   0  0  0  0  0  0  0  0  0  0  0  0
   11.4099   20.7277   36.8261 C   0  0  1  0  0  0  0  0  0  0  0  0
    7.4977   17.4128   40.5251 O   0  0  0  0  0  0  0  0  0  0  0  0
   10.3666   19.7766   36.2299 C   0  0  2  0  0  0  0  0  0  0  0  0
    8.6491   16.2409   34.3827 O   0  0  0  0  0  0  0  0  0  0  0  0
    8.7148   18.2312   37.0525 C   0  0  1  0  0  0  0  0  0  0  0  0
   10.7270   16.0171   32.5437 O   0  0  0  0  0  0  0  0  0  0  0  0
   10.2689   16.6839   38.0763 C   0  0  2  0  0  0  0  0  0  0  0  0
   11.0985   15.4363   37.7626 C   0  0  0  0  0  0  0  0  0  0  0  0
    9.3038   16.4038   39.2337 C   0  0  2  0  0  0  0  0  0  0  0  0
    8.4587   17.6531   39.4921 C   0  0  1  0  0  0  0  0  0  0  0  0
    7.7274   18.0623   38.2116 C   0  0  1  0  0  0  0  0  0  0  0  0
    8.7448   17.1989   33.3241 C   0  0  2  0  0  0  0  0  0  0  0  0
    9.5204   16.6594   32.1238 C   0  0  1  0  0  0  0  0  0  0  0  0
  3  1  1  0  0  0  0
  4  1  1  6  0  0  0
  4  6  1  0  0  0  0
  4 31  1  0  0  0  0
  6  7  1  0  0  0  0
  7  9  1  6  0  0  0
  7 30  1  0  0  0  0
 10  9  1  6  0  0  0
 10 13  1  0  0  0  0
 10 21  1  0  0  0  0
 13 12  1  6  0  0  0
 13 15  1  0  0  0  0
 15  2  1  6  0  0  0
 15 17  1  0  0  0  0
 16 25  1  0  0  0  0
 17 19  1  0  0  0  0
 19  5  1  1  0  0  0
 19 21  1  0  0  0  0
 21 14  1  1  0  0  0
 23 14  1  1  0  0  0
 23 16  1  0  0  0  0
 23 29  1  0  0  0  0
 25 26  1  6  0  0  0
 25 27  1  0  0  0  0
 26  8  1  0  0  0  0
 27 18  1  1  0  0  0
 27 28  1  0  0  0  0
 28 20  1  1  0  0  0
 28 29  1  0  0  0  0
 29 11  1  1  0  0  0
 30 22  1  1  0  0  0
 30 31  1  0  0  0  0
 31 24  1  1  0  0  0
M  END
>  <CHROM.1>
63.63692182,-77.34055958,51.80606070,69.86946609,68.88464520,-59.73607804
9.74163997,18.51471777,35.54793323,1.24648255,-1.25984806,-1.52828311

>  <Name>
2fcz_lig

>  <RI>
2.26996e+07

>  <Rbt.Current_Directory>
/home/itssahil/PROJECTS/Mol_Feturizer/New_Systems/rnas/2fcz

>  <Rbt.Executable>
rbdock ($Id: //depot/dev/client3/rdock/2013.1/src/exe/rbdock.cxx#4 $)

>  <Rbt.Library>
libRbt.so (2013.1, Build901 2013/11/27)

>  <Rbt.Parameter_File>
/export/apps/rDock/src/rDock_2013.1_src/data/scripts/dock_solv.prm

>  <Rbt.Receptor>
prm/pocket_docking_4.prm

>  <SCORE>
-19.7746

>  <SCORE.INTER>
-17.2546

>  <SCORE.INTER.CONST>
1

>  <SCORE.INTER.POLAR>
-2.06653

>  <SCORE.INTER.ROT>
6

>  <SCORE.INTER.SOLV>
16.3854

>  <SCORE.INTER.VDW>
-17.6764

>  <SCORE.INTER.norm>
-0.5566

>  <SCORE.INTRA>
-2.52001

>  <SCORE.INTRA.DIHEDRAL>
-8.10427

>  <SCORE.INTRA.DIHEDRAL.0>
10.8409

>  <SCORE.INTRA.POLAR>
0

>  <SCORE.INTRA.POLAR.0>
0

>  <SCORE.INTRA.REPUL>
0

>  <SCORE.INTRA.REPUL.0>
0

>  <SCORE.INTRA.SOLV>
-1.16228

>  <SCORE.INTRA.SOLV.lig_0>
-80.8302

>  <SCORE.INTRA.VDW>
2.11327

>  <SCORE.INTRA.VDW.0>
-4.23953

>  <SCORE.INTRA.norm>
-0.0812907

>  <SCORE.RESTR>
0

>  <SCORE.RESTR.CAVITY>
0

>  <SCORE.RESTR.norm>
0

>  <SCORE.SYSTEM>
0

>  <SCORE.SYSTEM.CONST>
0

>  <SCORE.SYSTEM.DIHEDRAL>
0

>  <SCORE.SYSTEM.SOLV>
0

>  <SCORE.SYSTEM.norm>
0

>  <SCORE.heavy>
31

>  <SCORE.norm>
-0.637891

>  <RMSD>
6.203

$$$$
2fcz_lig
 OpenBabel11021811433D
libRbt.so/2013.1/901 2013/11/27
 31 33  0  0  0  0  0  0  0  0999 V2000
    8.5646   17.9384   30.6305 C   0  0  0  0  0  0  0  0  0  0  0  0
   12.0729   22.6425   33.5931 N   0  0  0  0  0  0  0  0  0  0  0  0
    8.8164   19.1305   29.8814 O   0  0  0  0  0  0  0  0  0  0  0  0
    9.7534   17.6496   31.5534 C   0  0  1  0  0  0  0  0  0  0  0  0
   12.2882   20.0361   37.7292 N   0  0  0  0  0  0  0  0  0  0  0  0
    9.9454   18.7018   32.5207 O   0  0  0  0  0  0  0  0  0  0  0  0
    9.5586   18.2327   33.8277 C   0  0  1  0  0  0  0  0  0  0  0  0
   12.1166   15.6674   37.0493 N   0  0  0  0  0  0  0  0  0  0  0  0
    8.7527   19.1855   34.5417 O   0  0  0  0  0  0  0  0  0  0  0  0
    9.4964   20.2681   35.1262 C   0  0  2  0  0  0  0  0  0  0  0  0
    7.0160   19.3563   38.4750 N   0  0  0  0  0  0  0  0  0  0  0  0
    9.5180   21.5400   33.0682 O   0  0  0  0  0  0  0  0  0  0  0  0
   10.3625   20.9258   34.0447 C   0  0  1  0  0  0  0  0  0  0  0  0
    9.5754   19.3409   37.4061 O   0  0  0  0  0  0  0  0  0  0  0  0
   11.2810   21.9921   34.6461 C   0  0  1  0  0  0  0  0  0  0  0  0
    9.5652   16.9969   37.1263 O   0  0  0  0  0  0  0  0  0  0  0  0
   12.2197   21.3580   35.6749 C   0  0  0  0  0  0  0  0  0  0  0  0
   10.0178   16.2517   40.7051 O   0  0  0  0  0  0  0  0  0  0  0  0
   11.3878   20.7306   36.7952 C   0  0  1  0  0  0  0  0  0  0  0  0
    7.4757   17.5897   40.6801 O   0  0  0  0  0  0  0  0  0  0  0  0
   10.3581   19.7268   36.2653 C   0  0  2  0  0  0  0  0  0  0  0  0
    8.6913   16.0736   34.6649 O   0  0  0  0  0  0  0  0  0  0  0  0
    8.7542   18.1852   37.1842 C   0  0  1  0  0  0  0  0  0  0  0  0
   10.7414   15.7946   32.8025 O   0  0  0  0  0  0  0  0  0  0  0  0
   10.2922   16.7120   38.3339 C   0  0  2  0  0  0  0  0  0  0  0  0
   11.1296   15.4491   38.1167 C   0  0  0  0  0  0  0  0  0  0  0  0
    9.3067   16.5046   39.4894 C   0  0  2  0  0  0  0  0  0  0  0  0
    8.4549   17.7655   39.6511 C   0  0  1  0  0  0  0  0  0  0  0  0
    7.7462   18.0888   38.3339 C   0  0  1  0  0  0  0  0  0  0  0  0
    8.7424   16.9692   33.5502 C   0  0  2  0  0  0  0  0  0  0  0  0
    9.5107   16.3796   32.3689 C   0  0  1  0  0  0  0  0  0  0  0  0
  3  1  1  0  0  0  0
  4  1  1  6  0  0  0
  4  6  1  0  0  0  0
  4 31  1  0  0  0  0
  6  7  1  0  0  0  0
  7  9  1  6  0  0  0
  7 30  1  0  0  0  0
 10  9  1  6  0  0  0
 10 13  1  0  0  0  0
 10 21  1  0  0  0  0
 13 12  1  6  0  0  0
 13 15  1  0  0  0  0
 15  2  1  6  0  0  0
 15 17  1  0  0  0  0
 16 25  1  0  0  0  0
 17 19  1  0  0  0  0
 19  5  1  1  0  0  0
 19 21  1  0  0  0  0
 21 14  1  1  0  0  0
 23 14  1  1  0  0  0
 23 16  1  0  0  0  0
 23 29  1  0  0  0  0
 25 26  1  6  0  0  0
 25 27  1  0  0  0  0
 26  8  1  0  0  0  0
 27 18  1  1  0  0  0
 27 28  1  0  0  0  0
 28 20  1  1  0  0  0
 28 29  1  0  0  0  0
 29 11  1  1  0  0  0
 30 22  1  1  0  0  0
 30 31  1  0  0  0  0
 31 24  1  1  0  0  0
M  END
>  <CHROM.1>
62.47077843,-78.10181623,53.06141647,68.72188318,72.44350389,62.41034886
9.77369672,18.46746992,35.65301721,1.33130302,-1.27336773,-1.52962867

>  <Name>
2fcz_lig

>  <RI>
0

>  <Rbt.Current_Directory>
/home/itssahil/PROJECTS/Mol_Feturizer/New_Systems/rnas/2fcz

>  <Rbt.Executable>
rbdock ($Id: //depot/dev/client3/rdock/2013.1/src/exe/rbdock.cxx#4 $)

>  <Rbt.Library>
libRbt.so (2013.1, Build901 2013/11/27)

>  <Rbt.Parameter_File>
/export/apps/rDock/src/rDock_2013.1_src/data/scripts/dock_solv.prm

>  <Rbt.Receptor>
prm/pocket_docking_5.prm

>  <SCORE>
-20.7899

>  <SCORE.INTER>
-17.4082

>  <SCORE.INTER.CONST>
1

>  <SCORE.INTER.POLAR>
-2.13692

>  <SCORE.INTER.ROT>
6

>  <SCORE.INTER.SOLV>
16.4791

>  <SCORE.INTER.VDW>
-17.5754

>  <SCORE.INTER.norm>
-0.561555

>  <SCORE.INTRA>
-3.38167

>  <SCORE.INTRA.DIHEDRAL>
-7.83277

>  <SCORE.INTRA.DIHEDRAL.0>
10.8409

>  <SCORE.INTRA.POLAR>
0

>  <SCORE.INTRA.POLAR.0>
0

>  <SCORE.INTRA.REPUL>
0

>  <SCORE.INTRA.REPUL.0>
0

>  <SCORE.INTRA.SOLV>
-2.78961

>  <SCORE.INTRA.SOLV.lig_0>
-80.8302

>  <SCORE.INTRA.VDW>
1.92952

>  <SCORE.INTRA.VDW.0>
-4.23953

>  <SCORE.INTRA.norm>
-0.109086

>  <SCORE.RESTR>
0

>  <SCORE.RESTR.CAVITY>
0

>  <SCORE.RESTR.norm>
0

>  <SCORE.SYSTEM>
0

>  <SCORE.SYSTEM.CONST>
0

>  <SCORE.SYSTEM.DIHEDRAL>
0

>  <SCORE.SYSTEM.SOLV>
0

>  <SCORE.SYSTEM.norm>
0

>  <SCORE.heavy>
31

>  <SCORE.norm>
-0.670641

>  <RMSD>
6.203

$$$$
2fcz_lig
 OpenBabel11021811433D
libRbt.so/2013.1/901 2013/11/27
 31 33  0  0  0  0  0  0  0  0999 V2000
    8.4598   17.8762   30.6447 C   0  0  0  0  0  0  0  0  0  0  0  0
   12.0401   22.6227   33.4987 N   0  0  0  0  0  0  0  0  0  0  0  0
    8.6688   19.0645   29.8767 O   0  0  0  0  0  0  0  0  0  0  0  0
    9.6797   17.6178   31.5355 C   0  0  1  0  0  0  0  0  0  0  0  0
   12.2953   20.0941   37.6806 N   0  0  0  0  0  0  0  0  0  0  0  0
    9.8819   18.6840   32.4852 O   0  0  0  0  0  0  0  0  0  0  0  0
    9.5414   18.2235   33.8080 C   0  0  1  0  0  0  0  0  0  0  0  0
   12.1980   15.7671   37.0090 N   0  0  0  0  0  0  0  0  0  0  0  0
    8.7406   19.1710   34.5349 O   0  0  0  0  0  0  0  0  0  0  0  0
    9.4841   20.2671   35.0940 C   0  0  2  0  0  0  0  0  0  0  0  0
    7.0487   19.3349   38.5159 N   0  0  0  0  0  0  0  0  0  0  0  0
    9.4859   21.5008   33.0127 O   0  0  0  0  0  0  0  0  0  0  0  0
   10.3398   20.9080   33.9943 C   0  0  1  0  0  0  0  0  0  0  0  0
    9.5831   19.3825   37.3899 O   0  0  0  0  0  0  0  0  0  0  0  0
   11.2583   21.9888   34.5693 C   0  0  1  0  0  0  0  0  0  0  0  0
    9.6448   17.0343   37.1552 O   0  0  0  0  0  0  0  0  0  0  0  0
   12.2069   21.3775   35.6028 C   0  0  0  0  0  0  0  0  0  0  0  0
   10.2005   16.3754   40.7364 O   0  0  0  0  0  0  0  0  0  0  0  0
   11.3855   20.7677   36.7405 C   0  0  1  0  0  0  0  0  0  0  0  0
    7.6154   17.6284   40.7434 O   0  0  0  0  0  0  0  0  0  0  0  0
   10.3561   19.7503   36.2366 C   0  0  2  0  0  0  0  0  0  0  0  0
    8.7356   16.0601   34.6940 O   0  0  0  0  0  0  0  0  0  0  0  0
    8.7962   18.1962   37.2088 C   0  0  1  0  0  0  0  0  0  0  0  0
   10.7349   15.7938   32.7753 O   0  0  0  0  0  0  0  0  0  0  0  0
   10.4073   16.7975   38.3512 C   0  0  2  0  0  0  0  0  0  0  0  0
   11.2813   15.5588   38.1393 C   0  0  0  0  0  0  0  0  0  0  0  0
    9.4549   16.5807   39.5325 C   0  0  2  0  0  0  0  0  0  0  0  0
    8.5653   17.8159   39.6894 C   0  0  1  0  0  0  0  0  0  0  0  0
    7.8175   18.0896   38.3826 C   0  0  1  0  0  0  0  0  0  0  0  0
    8.7390   16.9436   33.5684 C   0  0  2  0  0  0  0  0  0  0  0  0
    9.4823   16.3533   32.3716 C   0  0  1  0  0  0  0  0  0  0  0  0
  3  1  1  0  0  0  0
  4  1  1  1  0  0  0
  4  6  1  0  0  0  0
  4 31  1  0  0  0  0
  6  7  1  0  0  0  0
  7  9  1  6  0  0  0
  7 30  1  0  0  0  0
 10  9  1  6  0  0  0
 10 13  1  0  0  0  0
 10 21  1  0  0  0  0
 13 12  1  6  0  0  0
 13 15  1  0  0  0  0
 15  2  1  6  0  0  0
 15 17  1  0  0  0  0
 16 25  1  0  0  0  0
 17 19  1  0  0  0  0
 19  5  1  1  0  0  0
 19 21  1  0  0  0  0
 21 14  1  1  0  0  0
 23 14  1  1  0  0  0
 23 16  1  0  0  0  0
 23 29  1  0  0  0  0
 25 26  1  6  0  0  0
 25 27  1  0  0  0  0
 26  8  1  0  0  0  0
 27 18  1  1  0  0  0
 27 28  1  0  0  0  0
 28 20  1  1  0  0  0
 28 29  1  0  0  0  0
 29 11  1  1  0  0  0
 30 22  1  1  0  0  0
 30 31  1  0  0  0  0
 31 24  1  1  0  0  0
M  END
>  <CHROM.1>
62.41042566,-78.54483505,51.77651873,70.52424046,70.80083992,60.01552690
9.79351744,18.48157743,35.64501703,1.42434156,-1.27231247,-1.46177210

>  <Name>
2fcz_lig

>  <RI>
2.26996e+07

>  <Rbt.Current_Directory>
/home/itssahil/PROJECTS/Mol_Feturizer/New_Systems/rnas/2fcz

>  <Rbt.Executable>
rbdock ($Id: //depot/dev/client3/rdock/2013.1/src/exe/rbdock.cxx#4 $)

>  <Rbt.Library>
libRbt.so (2013.1, Build901 2013/11/27)

>  <Rbt.Parameter_File>
/export/apps/rDock/src/rDock_2013.1_src/data/scripts/dock_solv.prm

>  <Rbt.Receptor>
prm/pocket_docking_4.prm

>  <SCORE>
-20.7119

>  <SCORE.INTER>
-17.4046

>  <SCORE.INTER.CONST>
1

>  <SCORE.INTER.POLAR>
-2.11718

>  <SCORE.INTER.ROT>
6

>  <SCORE.INTER.SOLV>
16.2343

>  <SCORE.INTER.VDW>
-17.5572

>  <SCORE.INTER.norm>
-0.56144

>  <SCORE.INTRA>
-3.30722

>  <SCORE.INTRA.DIHEDRAL>
-7.71012

>  <SCORE.INTRA.DIHEDRAL.0>
10.8409

>  <SCORE.INTRA.POLAR>
0

>  <SCORE.INTRA.POLAR.0>
0

>  <SCORE.INTRA.REPUL>
0

>  <SCORE.INTRA.REPUL.0>
0

>  <SCORE.INTRA.SOLV>
-2.66261

>  <SCORE.INTRA.SOLV.lig_0>
-80.8302

>  <SCORE.INTRA.VDW>
1.87914

>  <SCORE.INTRA.VDW.0>
-4.23953

>  <SCORE.INTRA.norm>
-0.106685

>  <SCORE.RESTR>
0

>  <SCORE.RESTR.CAVITY>
0

>  <SCORE.RESTR.norm>
0

>  <SCORE.SYSTEM>
0

>  <SCORE.SYSTEM.CONST>
0

>  <SCORE.SYSTEM.DIHEDRAL>
0

>  <SCORE.SYSTEM.SOLV>
0

>  <SCORE.SYSTEM.norm>
0

>  <SCORE.heavy>
31

>  <SCORE.norm>
-0.668124

>  <RMSD>
6.209

$$$$
2fcz_lig
 OpenBabel11021811433D
libRbt.so/2013.1/901 2013/11/27
 31 33  0  0  0  0  0  0  0  0999 V2000
    8.1486   18.3007   30.9004 C   0  0  0  0  0  0  0  0  0  0  0  0
   11.2174   23.1785   33.1200 N   0  0  0  0  0  0  0  0  0  0  0  0
    8.2856   19.5537   30.2245 O   0  0  0  0  0  0  0  0  0  0  0  0
    9.4563   17.9599   31.6230 C   0  0  1  0  0  0  0  0  0  0  0  0
   13.1300   20.5161   36.7532 N   0  0  0  0  0  0  0  0  0  0  0  0
    9.7774   18.9373   32.6336 O   0  0  0  0  0  0  0  0  0  0  0  0
    9.5798   18.3630   33.9409 C   0  0  1  0  0  0  0  0  0  0  0  0
   13.5359   16.7204   35.2959 N   0  0  0  0  0  0  0  0  0  0  0  0
    8.8779   19.2456   34.8328 O   0  0  0  0  0  0  0  0  0  0  0  0
    9.6269   20.4088   35.2237 C   0  0  2  0  0  0  0  0  0  0  0  0
    8.8920   18.6505   39.3338 N   0  0  0  0  0  0  0  0  0  0  0  0
    8.7986   21.7277   33.3722 O   0  0  0  0  0  0  0  0  0  0  0  0
    9.9915   21.2169   33.9722 C   0  0  1  0  0  0  0  0  0  0  0  0
   10.5782   19.4392   37.2776 O   0  0  0  0  0  0  0  0  0  0  0  0
   10.9115   22.3892   34.3211 C   0  0  1  0  0  0  0  0  0  0  0  0
   11.0700   17.2101   36.6757 O   0  0  0  0  0  0  0  0  0  0  0  0
   12.2124   21.8712   34.9382 C   0  0  0  0  0  0  0  0  0  0  0  0
   13.2893   16.5913   39.5497 O   0  0  0  0  0  0  0  0  0  0  0  0
   11.8886   21.0969   36.2175 C   0  0  1  0  0  0  0  0  0  0  0  0
   10.7633   17.0812   40.8273 O   0  0  0  0  0  0  0  0  0  0  0  0
   10.8804   19.9680   35.9770 C   0  0  2  0  0  0  0  0  0  0  0  0
    8.8480   16.1328   34.7190 O   0  0  0  0  0  0  0  0  0  0  0  0
   10.0902   18.0898   37.2580 C   0  0  1  0  0  0  0  0  0  0  0  0
   10.6178   16.0295   32.5727 O   0  0  0  0  0  0  0  0  0  0  0  0
   12.3149   17.1465   37.3928 C   0  0  2  0  0  0  0  0  0  0  0  0
   13.2643   16.2062   36.6461 C   0  0  0  0  0  0  0  0  0  0  0  0
   12.0628   16.6296   38.8136 C   0  0  2  0  0  0  0  0  0  0  0  0
   11.0763   17.5643   39.5169 C   0  0  1  0  0  0  0  0  0  0  0  0
    9.7865   17.6717   38.7003 C   0  0  1  0  0  0  0  0  0  0  0  0
    8.7384   17.1123   33.6817 C   0  0  2  0  0  0  0  0  0  0  0  0
    9.3359   16.6273   32.3622 C   0  0  1  0  0  0  0  0  0  0  0  0
  3  1  1  0  0  0  0
  4  1  1  1  0  0  0
  4  6  1  0  0  0  0
  4 31  1  0  0  0  0
  6  7  1  0  0  0  0
  7  9  1  1  0  0  0
  7 30  1  0  0  0  0
 10  9  1  6  0  0  0
 10 13  1  0  0  0  0
 10 21  1  0  0  0  0
 13 12  1  1  0  0  0
 13 15  1  0  0  0  0
 15  2  1  6  0  0  0
 15 17  1  0  0  0  0
 16 25  1  0  0  0  0
 17 19  1  0  0  0  0
 19  5  1  6  0  0  0
 19 21  1  0  0  0  0
 21 14  1  1  0  0  0
 23 14  1  1  0  0  0
 23 16  1  0  0  0  0
 23 29  1  0  0  0  0
 25 26  1  6  0  0  0
 25 27  1  0  0  0  0
 26  8  1  0  0  0  0
 27 18  1  1  0  0  0
 27 28  1  0  0  0  0
 28 20  1  1  0  0  0
 28 29  1  0  0  0  0
 29 11  1  1  0  0  0
 30 22  1  1  0  0  0
 30 31  1  0  0  0  0
 31 24  1  1  0  0  0
M  END
>  <CHROM.1>
62.20501604,-68.71891404,59.75059731,78.49587877,60.19835054,61.39838777
10.53359250,18.67413417,35.42676698,2.55276446,-1.17881056,-0.30416667

>  <Name>
2fcz_lig

>  <RI>
0

>  <Rbt.Current_Directory>
/home/itssahil/PROJECTS/Mol_Feturizer/New_Systems/rnas/2fcz

>  <Rbt.Executable>
rbdock ($Id: //depot/dev/client3/rdock/2013.1/src/exe/rbdock.cxx#4 $)

>  <Rbt.Library>
libRbt.so (2013.1, Build901 2013/11/27)

>  <Rbt.Parameter_File>
/export/apps/rDock/src/rDock_2013.1_src/data/scripts/dock_solv.prm

>  <Rbt.Receptor>
prm/pocket_docking_6.prm

>  <SCORE>
-16.9964

>  <SCORE.INTER>
-13.424

>  <SCORE.INTER.CONST>
1

>  <SCORE.INTER.POLAR>
-1.09728

>  <SCORE.INTER.ROT>
6

>  <SCORE.INTER.SOLV>
13.5127

>  <SCORE.INTER.VDW>
-17.3959

>  <SCORE.INTER.norm>
-0.433031

>  <SCORE.INTRA>
-3.57245

>  <SCORE.INTRA.DIHEDRAL>
-8.76663

>  <SCORE.INTRA.DIHEDRAL.0>
10.8409

>  <SCORE.INTRA.POLAR>
0

>  <SCORE.INTRA.POLAR.0>
0

>  <SCORE.INTRA.REPUL>
0

>  <SCORE.INTRA.REPUL.0>
0

>  <SCORE.INTRA.SOLV>
-1.58667

>  <SCORE.INTRA.SOLV.lig_0>
-80.8302

>  <SCORE.INTRA.VDW>
1.6042

>  <SCORE.INTRA.VDW.0>
-4.23953

>  <SCORE.INTRA.norm>
-0.11524

>  <SCORE.RESTR>
0

>  <SCORE.RESTR.CAVITY>
0

>  <SCORE.RESTR.norm>
0

>  <SCORE.SYSTEM>
0

>  <SCORE.SYSTEM.CONST>
0

>  <SCORE.SYSTEM.DIHEDRAL>
0

>  <SCORE.SYSTEM.SOLV>
0

>  <SCORE.SYSTEM.norm>
0

>  <SCORE.heavy>
31

>  <SCORE.norm>
-0.548272

>  <RMSD>
6.220

$$$$
2fcz_lig
 OpenBabel11021811433D
libRbt.so/2013.1/901 2013/11/27
 31 33  0  0  0  0  0  0  0  0999 V2000
    8.8856   17.6996   31.5988 C   0  0  0  0  0  0  0  0  0  0  0  0
   11.2475   22.2491   34.6828 N   0  0  0  0  0  0  0  0  0  0  0  0
    9.1206   19.0294   31.1276 O   0  0  0  0  0  0  0  0  0  0  0  0
   10.1263   17.1890   32.3394 C   0  0  1  0  0  0  0  0  0  0  0  0
   13.6155   19.0684   37.5504 N   0  0  0  0  0  0  0  0  0  0  0  0
   10.3835   17.9504   33.5367 O   0  0  0  0  0  0  0  0  0  0  0  0
   10.0737   17.1493   34.6943 C   0  0  1  0  0  0  0  0  0  0  0  0
    6.8777   18.8439   37.4661 N   0  0  0  0  0  0  0  0  0  0  0  0
    9.3189   17.8721   35.6818 O   0  0  0  0  0  0  0  0  0  0  0  0
   10.0172   18.9887   36.2586 C   0  0  2  0  0  0  0  0  0  0  0  0
   12.3658   17.0790   40.4337 N   0  0  0  0  0  0  0  0  0  0  0  0
    8.9586   20.5846   34.7800 O   0  0  0  0  0  0  0  0  0  0  0  0
   10.2268   20.0616   35.1828 C   0  0  1  0  0  0  0  0  0  0  0  0
   11.1909   17.7024   37.9998 O   0  0  0  0  0  0  0  0  0  0  0  0
   11.0912   21.2096   35.7095 C   0  0  1  0  0  0  0  0  0  0  0  0
    9.3747   18.8025   39.0313 O   0  0  0  0  0  0  0  0  0  0  0  0
   12.4686   20.6848   36.1207 C   0  0  0  0  0  0  0  0  0  0  0  0
    7.7140   15.7038   40.1303 O   0  0  0  0  0  0  0  0  0  0  0  0
   12.2996   19.6426   37.2280 C   0  0  1  0  0  0  0  0  0  0  0  0
   10.1917   15.6125   41.5815 O   0  0  0  0  0  0  0  0  0  0  0  0
   11.3531   18.5078   36.8217 C   0  0  2  0  0  0  0  0  0  0  0  0
    9.2447   14.8375   34.9826 O   0  0  0  0  0  0  0  0  0  0  0  0
   10.7626   18.4396   39.1541 C   0  0  1  0  0  0  0  0  0  0  0  0
   11.1760   15.0798   32.9925 O   0  0  0  0  0  0  0  0  0  0  0  0
    8.4721   17.6863   38.9451 C   0  0  2  0  0  0  0  0  0  0  0  0
    7.0459   18.2191   38.7862 C   0  0  0  0  0  0  0  0  0  0  0  0
    8.5840   16.8366   40.2159 C   0  0  2  0  0  0  0  0  0  0  0  0
   10.0291   16.3578   40.3704 C   0  0  1  0  0  0  0  0  0  0  0  0
   10.9775   17.5587   40.3889 C   0  0  1  0  0  0  0  0  0  0  0  0
    9.2339   15.9960   34.1429 C   0  0  2  0  0  0  0  0  0  0  0  0
    9.9251   15.7466   32.8037 C   0  0  1  0  0  0  0  0  0  0  0  0
  3  1  1  0  0  0  0
  4  1  1  1  0  0  0
  4  6  1  0  0  0  0
  4 31  1  0  0  0  0
  6  7  1  0  0  0  0
  7  9  1  1  0  0  0
  7 30  1  0  0  0  0
 10  9  1  6  0  0  0
 10 13  1  0  0  0  0
 10 21  1  0  0  0  0
 13 12  1  1  0  0  0
 13 15  1  0  0  0  0
 15  2  1  6  0  0  0
 15 17  1  0  0  0  0
 16 25  1  0  0  0  0
 17 19  1  0  0  0  0
 19  5  1  6  0  0  0
 19 21  1  0  0  0  0
 21 14  1  1  0  0  0
 23 14  1  6  0  0  0
 23 16  1  0  0  0  0
 23 29  1  0  0  0  0
 25 26  1  1  0  0  0
 25 27  1  0  0  0  0
 26  8  1  0  0  0  0
 27 18  1  6  0  0  0
 27 28  1  0  0  0  0
 28 20  1  1  0  0  0
 28 29  1  0  0  0  0
 29 11  1  6  0  0  0
 30 22  1  1  0  0  0
 30 31  1  0  0  0  0
 31 24  1  1  0  0  0
M  END
>  <CHROM.1>
64.92395346,-63.75481921,66.98188510,-70.63584790,73.47172335,69.16198236
10.05257954,17.98301768,36.51766061,1.54087403,-1.06929197,-1.45854984

>  <Name>
2fcz_lig

>  <RI>
0

>  <Rbt.Current_Directory>
/home/itssahil/PROJECTS/Mol_Feturizer/New_Systems/rnas/2fcz

>  <Rbt.Executable>
rbdock ($Id: //depot/dev/client3/rdock/2013.1/src/exe/rbdock.cxx#4 $)

>  <Rbt.Library>
libRbt.so (2013.1, Build901 2013/11/27)

>  <Rbt.Parameter_File>
/export/apps/rDock/src/rDock_2013.1_src/data/scripts/dock_solv.prm

>  <Rbt.Receptor>
prm/pocket_docking_6.prm

>  <SCORE>
-19.5691

>  <SCORE.INTER>
-18.8206

>  <SCORE.INTER.CONST>
1

>  <SCORE.INTER.POLAR>
-3.08443

>  <SCORE.INTER.ROT>
6

>  <SCORE.INTER.SOLV>
16.6938

>  <SCORE.INTER.VDW>
-15.4302

>  <SCORE.INTER.norm>
-0.607116

>  <SCORE.INTRA>
-0.748513

>  <SCORE.INTRA.DIHEDRAL>
-8.60031

>  <SCORE.INTRA.DIHEDRAL.0>
10.8409

>  <SCORE.INTRA.POLAR>
0

>  <SCORE.INTRA.POLAR.0>
0

>  <SCORE.INTRA.REPUL>
0

>  <SCORE.INTRA.REPUL.0>
0

>  <SCORE.INTRA.SOLV>
-0.047596

>  <SCORE.INTRA.SOLV.lig_0>
-80.8302

>  <SCORE.INTRA.VDW>
3.57544

>  <SCORE.INTRA.VDW.0>
-4.23953

>  <SCORE.INTRA.norm>
-0.0241456

>  <SCORE.RESTR>
0

>  <SCORE.RESTR.CAVITY>
0

>  <SCORE.RESTR.norm>
0

>  <SCORE.SYSTEM>
0

>  <SCORE.SYSTEM.CONST>
0

>  <SCORE.SYSTEM.DIHEDRAL>
0

>  <SCORE.SYSTEM.SOLV>
0

>  <SCORE.SYSTEM.norm>
0

>  <SCORE.heavy>
31

>  <SCORE.norm>
-0.631261

>  <RMSD>
6.225

$$$$
2fcz_lig
 OpenBabel11021811433D
libRbt.so/2013.1/901 2013/11/27
 31 33  0  0  0  0  0  0  0  0999 V2000
    6.4816   20.9775   31.8779 C   0  0  0  0  0  0  0  0  0  0  0  0
    9.4034   15.3504   36.9171 N   0  0  0  0  0  0  0  0  0  0  0  0
    6.2736   20.7757   30.4774 O   0  0  0  0  0  0  0  0  0  0  0  0
    7.9075   21.4846   32.1189 C   0  0  1  0  0  0  0  0  0  0  0  0
   11.8594   19.1631   38.7553 N   0  0  0  0  0  0  0  0  0  0  0  0
    8.2145   21.5642   33.5256 O   0  0  0  0  0  0  0  0  0  0  0  0
    9.1449   20.5207   33.8767 C   0  0  1  0  0  0  0  0  0  0  0  0
   12.7263   22.4150   31.8573 N   0  0  0  0  0  0  0  0  0  0  0  0
    8.7800   19.8385   35.0886 O   0  0  0  0  0  0  0  0  0  0  0  0
    9.7684   18.9088   35.5637 C   0  0  2  0  0  0  0  0  0  0  0  0
   13.9230   20.0289   37.2715 N   0  0  0  0  0  0  0  0  0  0  0  0
    8.5298   16.9853   34.7764 O   0  0  0  0  0  0  0  0  0  0  0  0
    9.0790   17.5936   35.9479 C   0  0  1  0  0  0  0  0  0  0  0  0
   11.3586   20.6011   36.3829 O   0  0  0  0  0  0  0  0  0  0  0  0
   10.0679   16.6205   36.5939 C   0  0  1  0  0  0  0  0  0  0  0  0
   12.0824   20.9339   34.1607 O   0  0  0  0  0  0  0  0  0  0  0  0
   10.6507   17.2326   37.8696 C   0  0  0  0  0  0  0  0  0  0  0  0
   13.6215   24.2148   34.8201 O   0  0  0  0  0  0  0  0  0  0  0  0
   11.3870   18.5262   37.5157 C   0  0  1  0  0  0  0  0  0  0  0  0
   15.1949   22.4640   36.4669 O   0  0  0  0  0  0  0  0  0  0  0  0
   10.4947   19.5179   36.7614 C   0  0  2  0  0  0  0  0  0  0  0  0
   10.2562   18.7339   32.5778 O   0  0  0  0  0  0  0  0  0  0  0  0
   12.3405   20.2455   35.3987 C   0  0  1  0  0  0  0  0  0  0  0  0
   10.1715   21.1782   31.2484 O   0  0  0  0  0  0  0  0  0  0  0  0
   12.1469   22.3677   34.2514 C   0  0  2  0  0  0  0  0  0  0  0  0
   11.8213   22.9617   32.8787 C   0  0  0  0  0  0  0  0  0  0  0  0
   13.5518   22.7912   34.6946 C   0  0  2  0  0  0  0  0  0  0  0  0
   13.8645   22.1454   36.0462 C   0  0  1  0  0  0  0  0  0  0  0  0
   13.7210   20.6252   35.9437 C   0  0  1  0  0  0  0  0  0  0  0  0
    9.0858   19.5484   32.6974 C   0  0  2  0  0  0  0  0  0  0  0  0
    8.9338   20.5185   31.5273 C   0  0  1  0  0  0  0  0  0  0  0  0
  3  1  1  0  0  0  0
  4  1  1  1  0  0  0
  4  6  1  0  0  0  0
  4 31  1  0  0  0  0
  6  7  1  0  0  0  0
  7  9  1  1  0  0  0
  7 30  1  0  0  0  0
 10  9  1  1  0  0  0
 10 13  1  0  0  0  0
 10 21  1  0  0  0  0
 13 12  1  6  0  0  0
 13 15  1  0  0  0  0
 15  2  1  1  0  0  0
 15 17  1  0  0  0  0
 16 25  1  0  0  0  0
 17 19  1  0  0  0  0
 19  5  1  1  0  0  0
 19 21  1  0  0  0  0
 21 14  1  6  0  0  0
 23 14  1  1  0  0  0
 23 16  1  0  0  0  0
 23 29  1  0  0  0  0
 25 26  1  6  0  0  0
 25 27  1  0  0  0  0
 26  8  1  0  0  0  0
 27 18  1  1  0  0  0
 27 28  1  0  0  0  0
 28 20  1  6  0  0  0
 28 29  1  0  0  0  0
 29 11  1  1  0  0  0
 30 22  1  6  0  0  0
 30 31  1  0  0  0  0
 31 24  1  1  0  0  0
M  END
>  <CHROM.1>
-173.67983703,-172.47395021,-133.90169273,-56.60529875,113.23774981,-55.84293955
10.72101077,20.24719859,34.66510261,-2.75251355,0.58309901,2.34795800

>  <Name>
2fcz_lig

>  <RI>
2.26996e+07

>  <Rbt.Current_Directory>
/home/itssahil/PROJECTS/Mol_Feturizer/New_Systems/rnas/2fcz

>  <Rbt.Executable>
rbdock ($Id: //depot/dev/client3/rdock/2013.1/src/exe/rbdock.cxx#4 $)

>  <Rbt.Library>
libRbt.so (2013.1, Build901 2013/11/27)

>  <Rbt.Parameter_File>
/export/apps/rDock/src/rDock_2013.1_src/data/scripts/dock_solv.prm

>  <Rbt.Receptor>
prm/pocket_docking_4.prm

>  <SCORE>
-11.1475

>  <SCORE.INTER>
-15.3154

>  <SCORE.INTER.CONST>
1

>  <SCORE.INTER.POLAR>
-2.73072

>  <SCORE.INTER.ROT>
6

>  <SCORE.INTER.SOLV>
14.0711

>  <SCORE.INTER.VDW>
-13.3982

>  <SCORE.INTER.norm>
-0.494045

>  <SCORE.INTRA>
4.16786

>  <SCORE.INTRA.DIHEDRAL>
3.09593

>  <SCORE.INTRA.DIHEDRAL.0>
10.8409

>  <SCORE.INTRA.POLAR>
0

>  <SCORE.INTRA.POLAR.0>
0

>  <SCORE.INTRA.REPUL>
0

>  <SCORE.INTRA.REPUL.0>
0

>  <SCORE.INTRA.SOLV>
3.86322

>  <SCORE.INTRA.SOLV.lig_0>
-80.8302

>  <SCORE.INTRA.VDW>
0.688285

>  <SCORE.INTRA.VDW.0>
-4.23953

>  <SCORE.INTRA.norm>
0.134447

>  <SCORE.RESTR>
0

>  <SCORE.RESTR.CAVITY>
0

>  <SCORE.RESTR.norm>
0

>  <SCORE.SYSTEM>
0

>  <SCORE.SYSTEM.CONST>
0

>  <SCORE.SYSTEM.DIHEDRAL>
0

>  <SCORE.SYSTEM.SOLV>
0

>  <SCORE.SYSTEM.norm>
0

>  <SCORE.heavy>
31

>  <SCORE.norm>
-0.359598

>  <RMSD>
6.230

$$$$
2fcz_lig
 OpenBabel11021811433D
libRbt.so/2013.1/901 2013/11/27
 31 33  0  0  0  0  0  0  0  0999 V2000
    6.8848   21.1681   32.4667 C   0  0  0  0  0  0  0  0  0  0  0  0
   14.1689   22.2536   34.1696 N   0  0  0  0  0  0  0  0  0  0  0  0
    5.8093   21.5090   31.5877 O   0  0  0  0  0  0  0  0  0  0  0  0
    8.1839   21.0374   31.6643 C   0  0  1  0  0  0  0  0  0  0  0  0
   12.4546   20.0094   38.1661 N   0  0  0  0  0  0  0  0  0  0  0  0
    9.3435   21.0503   32.5214 O   0  0  0  0  0  0  0  0  0  0  0  0
    9.9211   19.7306   32.5723 C   0  0  1  0  0  0  0  0  0  0  0  0
   10.5697   14.6975   35.8622 N   0  0  0  0  0  0  0  0  0  0  0  0
   10.2642   19.3278   33.9092 O   0  0  0  0  0  0  0  0  0  0  0  0
   10.8895   20.3571   34.6943 C   0  0  2  0  0  0  0  0  0  0  0  0
    7.4444   19.4161   37.9621 N   0  0  0  0  0  0  0  0  0  0  0  0
   11.8569   21.4332   32.7553 O   0  0  0  0  0  0  0  0  0  0  0  0
   12.1805   20.8066   33.9990 C   0  0  1  0  0  0  0  0  0  0  0  0
    9.9830   19.6286   36.8649 O   0  0  0  0  0  0  0  0  0  0  0  0
   12.9575   21.7997   34.8664 C   0  0  1  0  0  0  0  0  0  0  0  0
    9.9146   17.4331   36.0000 O   0  0  0  0  0  0  0  0  0  0  0  0
   13.3453   21.1463   36.1947 C   0  0  0  0  0  0  0  0  0  0  0  0
   10.4152   15.7954   39.2612 O   0  0  0  0  0  0  0  0  0  0  0  0
   12.0758   20.7260   36.9379 C   0  0  1  0  0  0  0  0  0  0  0  0
    7.9040   17.1396   39.6357 O   0  0  0  0  0  0  0  0  0  0  0  0
   11.1795   19.8146   36.0924 C   0  0  2  0  0  0  0  0  0  0  0  0
    9.3281   17.5791   31.5073 O   0  0  0  0  0  0  0  0  0  0  0  0
    9.1320   18.5815   36.3763 C   0  0  1  0  0  0  0  0  0  0  0  0
    9.1036   19.7608   29.7929 O   0  0  0  0  0  0  0  0  0  0  0  0
   10.6569   16.8382   37.0786 C   0  0  2  0  0  0  0  0  0  0  0  0
   11.4613   15.6577   36.5288 C   0  0  0  0  0  0  0  0  0  0  0  0
    9.6881   16.3611   38.1664 C   0  0  2  0  0  0  0  0  0  0  0  0
    8.8681   17.5541   38.6624 C   0  0  1  0  0  0  0  0  0  0  0  0
    8.1431   18.2137   37.4871 C   0  0  1  0  0  0  0  0  0  0  0  0
    8.8257   18.8164   32.0212 C   0  0  2  0  0  0  0  0  0  0  0  0
    8.2326   19.7000   30.9254 C   0  0  1  0  0  0  0  0  0  0  0  0
  3  1  1  0  0  0  0
  4  1  1  1  0  0  0
  4  6  1  0  0  0  0
  4 31  1  0  0  0  0
  6  7  1  0  0  0  0
  7  9  1  1  0  0  0
  7 30  1  0  0  0  0
 10  9  1  6  0  0  0
 10 13  1  0  0  0  0
 10 21  1  0  0  0  0
 13 12  1  6  0  0  0
 13 15  1  0  0  0  0
 15  2  1  6  0  0  0
 15 17  1  0  0  0  0
 16 25  1  0  0  0  0
 17 19  1  0  0  0  0
 19  5  1  1  0  0  0
 19 21  1  0  0  0  0
 21 14  1  1  0  0  0
 23 14  1  1  0  0  0
 23 16  1  0  0  0  0
 23 29  1  0  0  0  0
 25 26  1  6  0  0  0
 25 27  1  0  0  0  0
 26  8  1  0  0  0  0
 27 18  1  1  0  0  0
 27 28  1  0  0  0  0
 28 20  1  1  0  0  0
 28 29  1  0  0  0  0
 29 11  1  1  0  0  0
 30 22  1  6  0  0  0
 30 31  1  0  0  0  0
 31 24  1  6  0  0  0
M  END
>  <CHROM.1>
164.58029290,-42.51887522,-59.44781681,67.82184631,42.52562750,-56.15956764
10.00819561,19.19502829,35.02366277,1.71192813,-0.51958262,-1.01589632

>  <Name>
2fcz_lig

>  <RI>
2.29611e+07

>  <Rbt.Current_Directory>
/home/itssahil/PROJECTS/Mol_Feturizer/New_Systems/rnas/2fcz

>  <Rbt.Executable>
rbdock ($Id: //depot/dev/client3/rdock/2013.1/src/exe/rbdock.cxx#4 $)

>  <Rbt.Library>
libRbt.so (2013.1, Build901 2013/11/27)

>  <Rbt.Parameter_File>
/export/apps/rDock/src/rDock_2013.1_src/data/scripts/dock_solv.prm

>  <Rbt.Receptor>
prm/pocket_docking_3.prm

>  <SCORE>
-12.2403

>  <SCORE.INTER>
-11.9965

>  <SCORE.INTER.CONST>
1

>  <SCORE.INTER.POLAR>
-2.05347

>  <SCORE.INTER.ROT>
6

>  <SCORE.INTER.SOLV>
16.687

>  <SCORE.INTER.VDW>
-14.3151

>  <SCORE.INTER.norm>
-0.386985

>  <SCORE.INTRA>
-0.243728

>  <SCORE.INTRA.DIHEDRAL>
-6.75476

>  <SCORE.INTRA.DIHEDRAL.0>
10.8409

>  <SCORE.INTRA.POLAR>
0

>  <SCORE.INTRA.POLAR.0>
0

>  <SCORE.INTRA.REPUL>
0

>  <SCORE.INTRA.REPUL.0>
0

>  <SCORE.INTRA.SOLV>
-2.18984

>  <SCORE.INTRA.SOLV.lig_0>
-80.8302

>  <SCORE.INTRA.VDW>
4.22857

>  <SCORE.INTRA.VDW.0>
-4.23953

>  <SCORE.INTRA.norm>
-0.0078622

>  <SCORE.RESTR>
0

>  <SCORE.RESTR.CAVITY>
0

>  <SCORE.RESTR.norm>
0

>  <SCORE.SYSTEM>
0

>  <SCORE.SYSTEM.CONST>
0

>  <SCORE.SYSTEM.DIHEDRAL>
0

>  <SCORE.SYSTEM.SOLV>
0

>  <SCORE.SYSTEM.norm>
0

>  <SCORE.heavy>
31

>  <SCORE.norm>
-0.394847

>  <RMSD>
6.234

$$$$
2fcz_lig
 OpenBabel11021811433D
libRbt.so/2013.1/901 2013/11/27
 31 33  0  0  0  0  0  0  0  0999 V2000
    8.4224   18.2025   30.5478 C   0  0  0  0  0  0  0  0  0  0  0  0
   12.2193   22.6192   33.7100 N   0  0  0  0  0  0  0  0  0  0  0  0
    8.6465   19.4316   29.8517 O   0  0  0  0  0  0  0  0  0  0  0  0
    9.6424   17.8717   31.4143 C   0  0  1  0  0  0  0  0  0  0  0  0
   12.2364   19.9181   37.7905 N   0  0  0  0  0  0  0  0  0  0  0  0
    9.8702   18.8788   32.4210 O   0  0  0  0  0  0  0  0  0  0  0  0
    9.5287   18.3511   33.7181 C   0  0  1  0  0  0  0  0  0  0  0  0
   10.0932   14.2835   37.5708 N   0  0  0  0  0  0  0  0  0  0  0  0
    8.7502   19.2708   34.5025 O   0  0  0  0  0  0  0  0  0  0  0  0
    9.5194   20.3116   35.1285 C   0  0  2  0  0  0  0  0  0  0  0  0
    6.9514   19.3622   38.4630 N   0  0  0  0  0  0  0  0  0  0  0  0
    9.6385   21.6258   33.1006 O   0  0  0  0  0  0  0  0  0  0  0  0
   10.4355   20.9591   34.0827 C   0  0  1  0  0  0  0  0  0  0  0  0
    9.5082   19.3332   37.3882 O   0  0  0  0  0  0  0  0  0  0  0  0
   11.3782   21.9767   34.7293 C   0  0  1  0  0  0  0  0  0  0  0  0
    9.4498   17.0014   37.0249 O   0  0  0  0  0  0  0  0  0  0  0  0
   12.2673   21.2855   35.7653 C   0  0  0  0  0  0  0  0  0  0  0  0
    9.8930   16.1196   40.5737 O   0  0  0  0  0  0  0  0  0  0  0  0
   11.3855   20.6661   36.8515 C   0  0  1  0  0  0  0  0  0  0  0  0
    7.3786   17.5089   40.6025 O   0  0  0  0  0  0  0  0  0  0  0  0
   10.3323   19.7137   36.2751 C   0  0  2  0  0  0  0  0  0  0  0  0
    8.6873   16.1565   34.4866 O   0  0  0  0  0  0  0  0  0  0  0  0
    8.6633   18.2030   37.1272 C   0  0  1  0  0  0  0  0  0  0  0  0
   10.6701   15.9616   32.5425 O   0  0  0  0  0  0  0  0  0  0  0  0
   10.1729   16.6588   38.2198 C   0  0  2  0  0  0  0  0  0  0  0  0
   10.9841   15.3878   37.9557 C   0  0  0  0  0  0  0  0  0  0  0  0
    9.1853   16.4302   39.3695 C   0  0  2  0  0  0  0  0  0  0  0  0
    8.3596   17.7015   39.5782 C   0  0  1  0  0  0  0  0  0  0  0  0
    7.6554   18.0861   38.2750 C   0  0  1  0  0  0  0  0  0  0  0  0
    8.7009   17.1017   33.4125 C   0  0  2  0  0  0  0  0  0  0  0  0
    9.4260   16.5661   32.1794 C   0  0  1  0  0  0  0  0  0  0  0  0
  3  1  1  0  0  0  0
  4  1  1  1  0  0  0
  4  6  1  0  0  0  0
  4 31  1  0  0  0  0
  6  7  1  0  0  0  0
  7  9  1  1  0  0  0
  7 30  1  0  0  0  0
 10  9  1  6  0  0  0
 10 13  1  0  0  0  0
 10 21  1  0  0  0  0
 13 12  1  6  0  0  0
 13 15  1  0  0  0  0
 15  2  1  6  0  0  0
 15 17  1  0  0  0  0
 16 25  1  0  0  0  0
 17 19  1  0  0  0  0
 19  5  1  1  0  0  0
 19 21  1  0  0  0  0
 21 14  1  1  0  0  0
 23 14  1  1  0  0  0
 23 16  1  0  0  0  0
 23 29  1  0  0  0  0
 25 26  1  6  0  0  0
 25 27  1  0  0  0  0
 26  8  1  0  0  0  0
 27 18  1  1  0  0  0
 27 28  1  0  0  0  0
 28 20  1  1  0  0  0
 28 29  1  0  0  0  0
 29 11  1  1  0  0  0
 30 22  1  1  0  0  0
 30 31  1  0  0  0  0
 31 24  1  1  0  0  0
M  END
>  <CHROM.1>
62.10569221,-79.15883660,49.40732684,69.52747965,70.30849049,-59.18581154
9.66228910,18.46191897,35.61329099,1.28775177,-1.23867575,-1.51046461

>  <Name>
2fcz_lig

>  <RI>
0

>  <Rbt.Current_Directory>
/home/itssahil/PROJECTS/Mol_Feturizer/New_Systems/rnas/2fcz

>  <Rbt.Executable>
rbdock ($Id: //depot/dev/client3/rdock/2013.1/src/exe/rbdock.cxx#4 $)

>  <Rbt.Library>
libRbt.so (2013.1, Build901 2013/11/27)

>  <Rbt.Parameter_File>
/export/apps/rDock/src/rDock_2013.1_src/data/scripts/dock_solv.prm

>  <Rbt.Receptor>
prm/pocket_docking_5.prm

>  <SCORE>
-19.6999

>  <SCORE.INTER>
-17.5658

>  <SCORE.INTER.CONST>
1

>  <SCORE.INTER.POLAR>
-2.11567

>  <SCORE.INTER.ROT>
6

>  <SCORE.INTER.SOLV>
16.1215

>  <SCORE.INTER.VDW>
-17.6322

>  <SCORE.INTER.norm>
-0.56664

>  <SCORE.INTRA>
-2.13402

>  <SCORE.INTRA.DIHEDRAL>
-7.54835

>  <SCORE.INTRA.DIHEDRAL.0>
10.8409

>  <SCORE.INTRA.POLAR>
0

>  <SCORE.INTRA.POLAR.0>
0

>  <SCORE.INTRA.REPUL>
0

>  <SCORE.INTRA.REPUL.0>
0

>  <SCORE.INTRA.SOLV>
-1.16975

>  <SCORE.INTRA.SOLV.lig_0>
-80.8302

>  <SCORE.INTRA.VDW>
2.22503

>  <SCORE.INTRA.VDW.0>
-4.23953

>  <SCORE.INTRA.norm>
-0.0688394

>  <SCORE.RESTR>
0

>  <SCORE.RESTR.CAVITY>
0

>  <SCORE.RESTR.norm>
0

>  <SCORE.SYSTEM>
0

>  <SCORE.SYSTEM.CONST>
0

>  <SCORE.SYSTEM.DIHEDRAL>
0

>  <SCORE.SYSTEM.SOLV>
0

>  <SCORE.SYSTEM.norm>
0

>  <SCORE.heavy>
31

>  <SCORE.norm>
-0.63548

>  <RMSD>
6.235

$$$$
2fcz_lig
 OpenBabel11021811433D
libRbt.so/2013.1/901 2013/11/27
 31 33  0  0  0  0  0  0  0  0999 V2000
    6.4179   20.0715   30.1931 C   0  0  0  0  0  0  0  0  0  0  0  0
    8.3349   14.8198   36.9232 N   0  0  0  0  0  0  0  0  0  0  0  0
    5.9971   21.3821   30.5814 O   0  0  0  0  0  0  0  0  0  0  0  0
    7.9272   19.9281   30.4161 C   0  0  1  0  0  0  0  0  0  0  0  0
   10.5394   19.1354   37.6041 N   0  0  0  0  0  0  0  0  0  0  0  0
    8.2672   19.9865   31.8163 O   0  0  0  0  0  0  0  0  0  0  0  0
    8.6597   18.6768   32.2730 C   0  0  1  0  0  0  0  0  0  0  0  0
   14.5246   21.1955   35.6770 N   0  0  0  0  0  0  0  0  0  0  0  0
    8.0600   18.3268   33.5319 O   0  0  0  0  0  0  0  0  0  0  0  0
    8.9516   17.6701   34.4489 C   0  0  2  0  0  0  0  0  0  0  0  0
    8.2937   21.1920   34.0244 N   0  0  0  0  0  0  0  0  0  0  0  0
    7.8186   15.5431   34.2345 O   0  0  0  0  0  0  0  0  0  0  0  0
    8.1932   16.5524   35.1753 C   0  0  1  0  0  0  0  0  0  0  0  0
   10.4239   19.6074   34.8272 O   0  0  0  0  0  0  0  0  0  0  0  0
    9.0589   15.9164   36.2655 C   0  0  1  0  0  0  0  0  0  0  0  0
   11.6794   21.4692   35.5555 O   0  0  0  0  0  0  0  0  0  0  0  0
    9.4508   16.9678   37.3059 C   0  0  0  0  0  0  0  0  0  0  0  0
   12.5555   22.6036   32.1624 O   0  0  0  0  0  0  0  0  0  0  0  0
   10.2508   18.0782   36.6220 C   0  0  1  0  0  0  0  0  0  0  0  0
    9.6944   22.8631   32.1697 O   0  0  0  0  0  0  0  0  0  0  0  0
    9.4972   18.6968   35.4395 C   0  0  2  0  0  0  0  0  0  0  0  0
    8.8587   16.4811   31.1532 O   0  0  0  0  0  0  0  0  0  0  0  0
   10.3554   20.9436   35.3460 C   0  0  1  0  0  0  0  0  0  0  0  0
    9.8157   18.5965   29.6175 O   0  0  0  0  0  0  0  0  0  0  0  0
   12.4754   21.5723   34.3623 C   0  0  2  0  0  0  0  0  0  0  0  0
   13.8579   22.1106   34.7393 C   0  0  0  0  0  0  0  0  0  0  0  0
   11.7900   22.5163   33.3681 C   0  0  2  0  0  0  0  0  0  0  0  0
   10.3950   21.9755   33.0471 C   0  0  1  0  0  0  0  0  0  0  0  0
    9.5906   21.8076   34.3382 C   0  0  1  0  0  0  0  0  0  0  0  0
    8.1604   17.7297   31.1807 C   0  0  2  0  0  0  0  0  0  0  0  0
    8.4203   18.5657   29.9289 C   0  0  1  0  0  0  0  0  0  0  0  0
  3  1  1  0  0  0  0
  4  1  1  1  0  0  0
  4  6  1  0  0  0  0
  4 31  1  0  0  0  0
  6  7  1  0  0  0  0
  7  9  1  1  0  0  0
  7 30  1  0  0  0  0
 10  9  1  6  0  0  0
 10 13  1  0  0  0  0
 10 21  1  0  0  0  0
 13 12  1  6  0  0  0
 13 15  1  0  0  0  0
 15  2  1  1  0  0  0
 15 17  1  0  0  0  0
 16 25  1  0  0  0  0
 17 19  1  0  0  0  0
 19  5  1  1  0  0  0
 19 21  1  0  0  0  0
 21 14  1  6  0  0  0
 23 14  1  6  0  0  0
 23 16  1  0  0  0  0
 23 29  1  0  0  0  0
 25 26  1  1  0  0  0
 25 27  1  0  0  0  0
 26  8  1  0  0  0  0
 27 18  1  6  0  0  0
 27 28  1  0  0  0  0
 28 20  1  6  0  0  0
 28 29  1  0  0  0  0
 29 11  1  6  0  0  0
 30 22  1  6  0  0  0
 30 31  1  0  0  0  0
 31 24  1  1  0  0  0
M  END
>  <CHROM.1>
66.03110348,-138.24473005,-140.40090771,144.59457073,136.49093997,60.70950823
9.61150803,19.46545528,33.63593934,2.84594394,0.80884087,2.29389823

>  <Name>
2fcz_lig

>  <RI>
2.29611e+07

>  <Rbt.Current_Directory>
/home/itssahil/PROJECTS/Mol_Feturizer/New_Systems/rnas/2fcz

>  <Rbt.Executable>
rbdock ($Id: //depot/dev/client3/rdock/2013.1/src/exe/rbdock.cxx#4 $)

>  <Rbt.Library>
libRbt.so (2013.1, Build901 2013/11/27)

>  <Rbt.Parameter_File>
/export/apps/rDock/src/rDock_2013.1_src/data/scripts/dock_solv.prm

>  <Rbt.Receptor>
prm/pocket_docking_3.prm

>  <SCORE>
-8.43073

>  <SCORE.INTER>
-14.7982

>  <SCORE.INTER.CONST>
1

>  <SCORE.INTER.POLAR>
-1.4969

>  <SCORE.INTER.ROT>
6

>  <SCORE.INTER.SOLV>
14.933

>  <SCORE.INTER.VDW>
-17.4534

>  <SCORE.INTER.norm>
-0.47736

>  <SCORE.INTRA>
6.36744

>  <SCORE.INTRA.DIHEDRAL>
10.8101

>  <SCORE.INTRA.DIHEDRAL.0>
10.8409

>  <SCORE.INTRA.POLAR>
0

>  <SCORE.INTRA.POLAR.0>
0

>  <SCORE.INTRA.REPUL>
0

>  <SCORE.INTRA.REPUL.0>
0

>  <SCORE.INTRA.SOLV>
1.74638

>  <SCORE.INTRA.SOLV.lig_0>
-80.8302

>  <SCORE.INTRA.VDW>
0.0891874

>  <SCORE.INTRA.VDW.0>
-4.23953

>  <SCORE.INTRA.norm>
0.205401

>  <SCORE.RESTR>
0

>  <SCORE.RESTR.CAVITY>
0

>  <SCORE.RESTR.norm>
0

>  <SCORE.SYSTEM>
0

>  <SCORE.SYSTEM.CONST>
0

>  <SCORE.SYSTEM.DIHEDRAL>
0

>  <SCORE.SYSTEM.SOLV>
0

>  <SCORE.SYSTEM.norm>
0

>  <SCORE.heavy>
31

>  <SCORE.norm>
-0.271959

>  <RMSD>
6.236

$$$$
2fcz_lig
 OpenBabel11021811433D
libRbt.so/2013.1/901 2013/11/27
 31 33  0  0  0  0  0  0  0  0999 V2000
   15.2947   18.0431   36.2133 C   0  0  0  0  0  0  0  0  0  0  0  0
    9.8648   15.9804   42.6242 N   0  0  0  0  0  0  0  0  0  0  0  0
   15.1100   19.4595   36.1416 O   0  0  0  0  0  0  0  0  0  0  0  0
   15.3299   17.6021   37.6806 C   0  0  1  0  0  0  0  0  0  0  0  0
    7.4991   18.4754   39.1420 N   0  0  0  0  0  0  0  0  0  0  0  0
   14.0990   17.9185   38.3620 O   0  0  0  0  0  0  0  0  0  0  0  0
   13.3623   16.7059   38.6163 C   0  0  1  0  0  0  0  0  0  0  0  0
    9.4916   16.5533   33.4690 N   0  0  0  0  0  0  0  0  0  0  0  0
   11.9662   16.8287   38.2953 O   0  0  0  0  0  0  0  0  0  0  0  0
   11.1715   17.4264   39.3335 C   0  0  2  0  0  0  0  0  0  0  0  0
   11.3956   21.1556   36.8796 N   0  0  0  0  0  0  0  0  0  0  0  0
   12.2319   16.1263   41.0768 O   0  0  0  0  0  0  0  0  0  0  0  0
   10.9716   16.4089   40.4636 C   0  0  1  0  0  0  0  0  0  0  0  0
    9.9623   18.9999   37.8754 O   0  0  0  0  0  0  0  0  0  0  0  0
   10.0128   16.9476   41.5280 C   0  0  1  0  0  0  0  0  0  0  0  0
   10.2555   17.7473   35.8961 O   0  0  0  0  0  0  0  0  0  0  0  0
    8.6433   17.2311   40.9069 C   0  0  0  0  0  0  0  0  0  0  0  0
    7.8202   19.6906   33.9313 O   0  0  0  0  0  0  0  0  0  0  0  0
    8.7990   18.2793   39.8033 C   0  0  1  0  0  0  0  0  0  0  0  0
    9.8162   21.6630   34.5467 O   0  0  0  0  0  0  0  0  0  0  0  0
    9.8311   17.8668   38.7482 C   0  0  2  0  0  0  0  0  0  0  0  0
   13.8073   14.3210   38.1379 O   0  0  0  0  0  0  0  0  0  0  0  0
   10.8145   18.7676   36.7444 C   0  0  1  0  0  0  0  0  0  0  0  0
   16.0469   15.7038   39.0443 O   0  0  0  0  0  0  0  0  0  0  0  0
    8.9724   18.0751   35.3357 C   0  0  2  0  0  0  0  0  0  0  0  0
    8.4898   16.8943   34.4896 C   0  0  0  0  0  0  0  0  0  0  0  0
    9.0969   19.3340   34.4701 C   0  0  2  0  0  0  0  0  0  0  0  0
    9.6239   20.4826   35.3329 C   0  0  1  0  0  0  0  0  0  0  0  0
   10.9549   20.0848   35.9749 C   0  0  1  0  0  0  0  0  0  0  0  0
   14.0145   15.6679   37.7016 C   0  0  2  0  0  0  0  0  0  0  0  0
   15.4815   16.0848   37.7873 C   0  0  1  0  0  0  0  0  0  0  0  0
  3  1  1  0  0  0  0
  4  1  1  6  0  0  0
  4  6  1  0  0  0  0
  4 31  1  0  0  0  0
  6  7  1  0  0  0  0
  7  9  1  6  0  0  0
  7 30  1  0  0  0  0
 10  9  1  6  0  0  0
 10 13  1  0  0  0  0
 10 21  1  0  0  0  0
 13 12  1  1  0  0  0
 13 15  1  0  0  0  0
 15  2  1  1  0  0  0
 15 17  1  0  0  0  0
 16 25  1  0  0  0  0
 17 19  1  0  0  0  0
 19  5  1  6  0  0  0
 19 21  1  0  0  0  0
 21 14  1  6  0  0  0
 23 14  1  1  0  0  0
 23 16  1  0  0  0  0
 23 29  1  0  0  0  0
 25 26  1  6  0  0  0
 25 27  1  0  0  0  0
 26  8  1  0  0  0  0
 27 18  1  1  0  0  0
 27 28  1  0  0  0  0
 28 20  1  6  0  0  0
 28 29  1  0  0  0  0
 29 11  1  1  0  0  0
 30 22  1  1  0  0  0
 30 31  1  0  0  0  0
 31 24  1  1  0  0  0
M  END
>  <CHROM.1>
60.71850276,-83.30458707,-74.53619417,60.22925070,63.83360964,-55.58057986
11.33394264,17.82390232,37.61105230,-0.81019803,0.21850458,-1.12486573

>  <Name>
2fcz_lig

>  <RI>
0

>  <Rbt.Current_Directory>
/home/itssahil/PROJECTS/Mol_Feturizer/New_Systems/rnas/2fcz

>  <Rbt.Executable>
rbdock ($Id: //depot/dev/client3/rdock/2013.1/src/exe/rbdock.cxx#4 $)

>  <Rbt.Library>
libRbt.so (2013.1, Build901 2013/11/27)

>  <Rbt.Parameter_File>
/export/apps/rDock/src/rDock_2013.1_src/data/scripts/dock_solv.prm

>  <Rbt.Receptor>
prm/pocket_docking_6.prm

>  <SCORE>
-16.2153

>  <SCORE.INTER>
-13.6486

>  <SCORE.INTER.CONST>
1

>  <SCORE.INTER.POLAR>
-1.66298

>  <SCORE.INTER.ROT>
6

>  <SCORE.INTER.SOLV>
17.3267

>  <SCORE.INTER.VDW>
-16.9314

>  <SCORE.INTER.norm>
-0.440278

>  <SCORE.INTRA>
-3.01379

>  <SCORE.INTRA.DIHEDRAL>
-7.22435

>  <SCORE.INTRA.DIHEDRAL.0>
10.8409

>  <SCORE.INTRA.POLAR>
0

>  <SCORE.INTRA.POLAR.0>
0

>  <SCORE.INTRA.REPUL>
0

>  <SCORE.INTRA.REPUL.0>
0

>  <SCORE.INTRA.SOLV>
-2.55695

>  <SCORE.INTRA.SOLV.lig_0>
-80.8302

>  <SCORE.INTRA.VDW>
1.87687

>  <SCORE.INTRA.VDW.0>
-4.23953

>  <SCORE.INTRA.norm>
-0.0972189

>  <SCORE.RESTR>
0.447109

>  <SCORE.RESTR.CAVITY>
0.447109

>  <SCORE.RESTR.norm>
0.0144229

>  <SCORE.SYSTEM>
0

>  <SCORE.SYSTEM.CONST>
0

>  <SCORE.SYSTEM.DIHEDRAL>
0

>  <SCORE.SYSTEM.SOLV>
0

>  <SCORE.SYSTEM.norm>
0

>  <SCORE.heavy>
31

>  <SCORE.norm>
-0.523074

>  <RMSD>
6.239

$$$$
2fcz_lig
 OpenBabel11021811433D
libRbt.so/2013.1/901 2013/11/27
 31 33  0  0  0  0  0  0  0  0999 V2000
    7.0377   20.2945   31.7498 C   0  0  0  0  0  0  0  0  0  0  0  0
   14.2091   23.5872   35.2271 N   0  0  0  0  0  0  0  0  0  0  0  0
    6.3235   20.5310   30.5335 O   0  0  0  0  0  0  0  0  0  0  0  0
    7.3488   21.6308   32.4324 C   0  0  1  0  0  0  0  0  0  0  0  0
   13.2798   19.4937   37.7424 N   0  0  0  0  0  0  0  0  0  0  0  0
    7.9967   21.4406   33.7066 O   0  0  0  0  0  0  0  0  0  0  0  0
    9.3813   21.8291   33.6071 C   0  0  1  0  0  0  0  0  0  0  0  0
   12.7086   14.9681   36.4394 N   0  0  0  0  0  0  0  0  0  0  0  0
   10.2683   20.8789   34.2216 O   0  0  0  0  0  0  0  0  0  0  0  0
   11.0602   21.4176   35.2938 C   0  0  2  0  0  0  0  0  0  0  0  0
    7.9940   19.2868   37.8254 N   0  0  0  0  0  0  0  0  0  0  0  0
   11.6437   23.4042   34.0421 O   0  0  0  0  0  0  0  0  0  0  0  0
   12.1956   22.2641   34.7051 C   0  0  1  0  0  0  0  0  0  0  0  0
   10.5902   19.6173   36.9069 O   0  0  0  0  0  0  0  0  0  0  0  0
   13.1518   22.7429   35.8001 C   0  0  1  0  0  0  0  0  0  0  0  0
   10.4438   17.7411   35.4816 O   0  0  0  0  0  0  0  0  0  0  0  0
   13.7830   21.5424   36.5087 C   0  0  0  0  0  0  0  0  0  0  0  0
   10.6968   15.2644   38.1963 O   0  0  0  0  0  0  0  0  0  0  0  0
   12.6788   20.6985   37.1485 C   0  0  1  0  0  0  0  0  0  0  0  0
    8.2476   16.6216   38.8387 O   0  0  0  0  0  0  0  0  0  0  0  0
   11.6119   20.2687   36.1357 C   0  0  2  0  0  0  0  0  0  0  0  0
   10.7616   22.7241   31.7609 O   0  0  0  0  0  0  0  0  0  0  0  0
    9.7078   18.7964   36.1279 C   0  0  1  0  0  0  0  0  0  0  0  0
    8.2186   23.8496   31.8867 O   0  0  0  0  0  0  0  0  0  0  0  0
   11.0997   16.8330   36.3834 C   0  0  2  0  0  0  0  0  0  0  0  0
   11.8641   15.7918   35.5621 C   0  0  0  0  0  0  0  0  0  0  0  0
   10.0551   16.1478   37.2715 C   0  0  2  0  0  0  0  0  0  0  0  0
    9.2786   17.2164   38.0439 C   0  0  1  0  0  0  0  0  0  0  0  0
    8.6480   18.2114   37.0669 C   0  0  1  0  0  0  0  0  0  0  0  0
    9.6501   21.8903   32.1026 C   0  0  2  0  0  0  0  0  0  0  0  0
    8.3252   22.4542   31.5926 C   0  0  1  0  0  0  0  0  0  0  0  0
  3  1  1  0  0  0  0
  4  1  1  6  0  0  0
  4  6  1  0  0  0  0
  4 31  1  0  0  0  0
  6  7  1  0  0  0  0
  7  9  1  1  0  0  0
  7 30  1  0  0  0  0
 10  9  1  6  0  0  0
 10 13  1  0  0  0  0
 10 21  1  0  0  0  0
 13 12  1  1  0  0  0
 13 15  1  0  0  0  0
 15  2  1  6  0  0  0
 15 17  1  0  0  0  0
 16 25  1  0  0  0  0
 17 19  1  0  0  0  0
 19  5  1  6  0  0  0
 19 21  1  0  0  0  0
 21 14  1  1  0  0  0
 23 14  1  1  0  0  0
 23 16  1  0  0  0  0
 23 29  1  0  0  0  0
 25 26  1  6  0  0  0
 25 27  1  0  0  0  0
 26  8  1  0  0  0  0
 27 18  1  1  0  0  0
 27 28  1  0  0  0  0
 28 20  1  6  0  0  0
 28 29  1  0  0  0  0
 29 11  1  1  0  0  0
 30 22  1  1  0  0  0
 30 31  1  0  0  0  0
 31 24  1  1  0  0  0
M  END
>  <CHROM.1>
176.41770497,-119.97159312,-76.09406100,73.14879032,61.13842850,171.57385230
10.29528948,19.98603004,35.14149264,1.81222510,-0.51077229,-0.61728199

>  <Name>
2fcz_lig

>  <RI>
0

>  <Rbt.Current_Directory>
/home/itssahil/PROJECTS/Mol_Feturizer/New_Systems/rnas/2fcz

>  <Rbt.Executable>
rbdock ($Id: //depot/dev/client3/rdock/2013.1/src/exe/rbdock.cxx#4 $)

>  <Rbt.Library>
libRbt.so (2013.1, Build901 2013/11/27)

>  <Rbt.Parameter_File>
/export/apps/rDock/src/rDock_2013.1_src/data/scripts/dock_solv.prm

>  <Rbt.Receptor>
prm/pocket_docking_6.prm

>  <SCORE>
-16.0929

>  <SCORE.INTER>
-16.3035

>  <SCORE.INTER.CONST>
1

>  <SCORE.INTER.POLAR>
-2.79559

>  <SCORE.INTER.ROT>
6

>  <SCORE.INTER.SOLV>
15.9512

>  <SCORE.INTER.VDW>
-14.4674

>  <SCORE.INTER.norm>
-0.525918

>  <SCORE.INTRA>
0.210576

>  <SCORE.INTRA.DIHEDRAL>
-1.294

>  <SCORE.INTRA.DIHEDRAL.0>
10.8409

>  <SCORE.INTRA.POLAR>
0

>  <SCORE.INTRA.POLAR.0>
0

>  <SCORE.INTRA.REPUL>
0

>  <SCORE.INTRA.REPUL.0>
0

>  <SCORE.INTRA.SOLV>
-2.0534

>  <SCORE.INTRA.SOLV.lig_0>
-80.8302

>  <SCORE.INTRA.VDW>
1.88428

>  <SCORE.INTRA.VDW.0>
-4.23953

>  <SCORE.INTRA.norm>
0.00679278

>  <SCORE.RESTR>
0

>  <SCORE.RESTR.CAVITY>
0

>  <SCORE.RESTR.norm>
0

>  <SCORE.SYSTEM>
0

>  <SCORE.SYSTEM.CONST>
0

>  <SCORE.SYSTEM.DIHEDRAL>
0

>  <SCORE.SYSTEM.SOLV>
0

>  <SCORE.SYSTEM.norm>
0

>  <SCORE.heavy>
31

>  <SCORE.norm>
-0.519125

>  <RMSD>
6.239

$$$$
2fcz_lig
 OpenBabel11021811433D
libRbt.so/2013.1/901 2013/11/27
 31 33  0  0  0  0  0  0  0  0999 V2000
    8.9375   16.2973   31.1881 C   0  0  0  0  0  0  0  0  0  0  0  0
    8.5490   22.2818   31.5928 N   0  0  0  0  0  0  0  0  0  0  0  0
    8.0844   17.1987   30.4775 O   0  0  0  0  0  0  0  0  0  0  0  0
   10.3581   16.8694   31.2448 C   0  0  1  0  0  0  0  0  0  0  0  0
   13.1406   22.4142   33.2799 N   0  0  0  0  0  0  0  0  0  0  0  0
   10.3968   18.1323   31.9399 O   0  0  0  0  0  0  0  0  0  0  0  0
   11.0362   17.9595   33.2201 C   0  0  1  0  0  0  0  0  0  0  0  0
   16.5787   19.0846   32.4890 N   0  0  0  0  0  0  0  0  0  0  0  0
   10.3263   18.6128   34.2862 O   0  0  0  0  0  0  0  0  0  0  0  0
   10.2743   20.0449   34.1708 C   0  0  2  0  0  0  0  0  0  0  0  0
   12.9820   19.9448   37.8859 N   0  0  0  0  0  0  0  0  0  0  0  0
    8.0488   20.0203   33.2219 O   0  0  0  0  0  0  0  0  0  0  0  0
    9.3977   20.4218   32.9701 C   0  0  1  0  0  0  0  0  0  0  0  0
   12.4621   20.4791   35.2143 O   0  0  0  0  0  0  0  0  0  0  0  0
    9.4262   21.9311   32.7182 C   0  0  1  0  0  0  0  0  0  0  0  0
   13.5193   18.4944   34.4960 O   0  0  0  0  0  0  0  0  0  0  0  0
   10.8552   22.3867   32.4148 C   0  0  0  0  0  0  0  0  0  0  0  0
   16.9395   19.7345   35.0722 O   0  0  0  0  0  0  0  0  0  0  0  0
   11.7502   22.0668   33.6138 C   0  0  1  0  0  0  0  0  0  0  0  0
   15.8334   19.7493   37.7235 O   0  0  0  0  0  0  0  0  0  0  0  0
   11.6930   20.5864   34.0061 C   0  0  2  0  0  0  0  0  0  0  0  0
   12.0336   16.0086   34.3664 O   0  0  0  0  0  0  0  0  0  0  0  0
   12.8020   19.1309   35.5698 C   0  0  1  0  0  0  0  0  0  0  0  0
   12.6534   16.1344   31.6555 O   0  0  0  0  0  0  0  0  0  0  0  0
   14.7708   19.1193   34.1623 C   0  0  2  0  0  0  0  0  0  0  0  0
   15.4016   18.3613   32.9916 C   0  0  0  0  0  0  0  0  0  0  0  0
   15.7012   19.0871   35.3801 C   0  0  2  0  0  0  0  0  0  0  0  0
   15.0238   19.8122   36.5449 C   0  0  1  0  0  0  0  0  0  0  0  0
   13.6633   19.1746   36.8360 C   0  0  1  0  0  0  0  0  0  0  0  0
   11.0303   16.4466   33.4451 C   0  0  2  0  0  0  0  0  0  0  0  0
   11.2862   15.9401   32.0269 C   0  0  1  0  0  0  0  0  0  0  0  0
  3  1  1  0  0  0  0
  4  1  1  1  0  0  0
  4  6  1  0  0  0  0
  4 31  1  0  0  0  0
  6  7  1  0  0  0  0
  7  9  1  1  0  0  0
  7 30  1  0  0  0  0
 10  9  1  6  0  0  0
 10 13  1  0  0  0  0
 10 21  1  0  0  0  0
 13 12  1  1  0  0  0
 13 15  1  0  0  0  0
 15  2  1  6  0  0  0
 15 17  1  0  0  0  0
 16 25  1  0  0  0  0
 17 19  1  0  0  0  0
 19  5  1  6  0  0  0
 19 21  1  0  0  0  0
 21 14  1  1  0  0  0
 23 14  1  6  0  0  0
 23 16  1  0  0  0  0
 23 29  1  0  0  0  0
 25 26  1  6  0  0  0
 25 27  1  0  0  0  0
 26  8  1  0  0  0  0
 27 18  1  6  0  0  0
 27 28  1  0  0  0  0
 28 20  1  1  0  0  0
 28 29  1  0  0  0  0
 29 11  1  1  0  0  0
 30 22  1  1  0  0  0
 30 31  1  0  0  0  0
 31 24  1  6  0  0  0
M  END
>  <CHROM.1>
61.27135386,-64.28980072,68.07506701,69.65869947,56.82026857,171.52012312
12.09483833,19.12625043,33.74500178,-2.81887583,-0.49000097,0.36801304

>  <Name>
2fcz_lig

>  <RI>
1.32928e+07

>  <Rbt.Current_Directory>
/home/itssahil/PROJECTS/Mol_Feturizer/New_Systems/rnas/2fcz

>  <Rbt.Executable>
rbdock ($Id: //depot/dev/client3/rdock/2013.1/src/exe/rbdock.cxx#4 $)

>  <Rbt.Library>
libRbt.so (2013.1, Build901 2013/11/27)

>  <Rbt.Parameter_File>
/export/apps/rDock/src/rDock_2013.1_src/data/scripts/dock_solv.prm

>  <Rbt.Receptor>
prm/pocket_docking_7.prm

>  <SCORE>
-14.2879

>  <SCORE.INTER>
-10.7715

>  <SCORE.INTER.CONST>
1

>  <SCORE.INTER.POLAR>
-1.48173

>  <SCORE.INTER.ROT>
6

>  <SCORE.INTER.SOLV>
17.1309

>  <SCORE.INTER.VDW>
-15.5522

>  <SCORE.INTER.norm>
-0.347467

>  <SCORE.INTRA>
-3.52142

>  <SCORE.INTRA.DIHEDRAL>
-9.52591

>  <SCORE.INTRA.DIHEDRAL.0>
10.8409

>  <SCORE.INTRA.POLAR>
0

>  <SCORE.INTRA.POLAR.0>
0

>  <SCORE.INTRA.REPUL>
0

>  <SCORE.INTRA.REPUL.0>
0

>  <SCORE.INTRA.SOLV>
-1.61552

>  <SCORE.INTRA.SOLV.lig_0>
-80.8302

>  <SCORE.INTRA.VDW>
2.0493

>  <SCORE.INTRA.VDW.0>
-4.23953

>  <SCORE.INTRA.norm>
-0.113594

>  <SCORE.RESTR>
0.00503965

>  <SCORE.RESTR.CAVITY>
0.00503965

>  <SCORE.RESTR.norm>
0.000162569

>  <SCORE.SYSTEM>
0

>  <SCORE.SYSTEM.CONST>
0

>  <SCORE.SYSTEM.DIHEDRAL>
0

>  <SCORE.SYSTEM.SOLV>
0

>  <SCORE.SYSTEM.norm>
0

>  <SCORE.heavy>
31

>  <SCORE.norm>
-0.460898

>  <RMSD>
6.249

$$$$
2fcz_lig
 OpenBabel11021811433D
libRbt.so/2013.1/901 2013/11/27
 31 33  0  0  0  0  0  0  0  0999 V2000
   17.9697   19.8767   32.7876 C   0  0  0  0  0  0  0  0  0  0  0  0
   12.0700   19.9227   38.1555 N   0  0  0  0  0  0  0  0  0  0  0  0
   19.3259   20.3303   32.7667 O   0  0  0  0  0  0  0  0  0  0  0  0
   17.0459   20.9923   32.2870 C   0  0  1  0  0  0  0  0  0  0  0  0
    9.1561   19.9147   34.2241 N   0  0  0  0  0  0  0  0  0  0  0  0
   15.7013   20.5162   32.0754 O   0  0  0  0  0  0  0  0  0  0  0  0
   14.8344   21.0475   33.0972 C   0  0  1  0  0  0  0  0  0  0  0  0
   14.4621   23.3065   29.2268 N   0  0  0  0  0  0  0  0  0  0  0  0
   13.9555   20.0527   33.6496 O   0  0  0  0  0  0  0  0  0  0  0  0
   12.9121   20.5840   34.4839 C   0  0  2  0  0  0  0  0  0  0  0  0
    8.9102   22.3512   32.3610 N   0  0  0  0  0  0  0  0  0  0  0  0
   14.2790   20.4940   36.4783 O   0  0  0  0  0  0  0  0  0  0  0  0
   13.0618   20.0157   35.9006 C   0  0  1  0  0  0  0  0  0  0  0  0
   11.2775   20.9409   32.6771 O   0  0  0  0  0  0  0  0  0  0  0  0
   11.8912   20.4385   36.7913 C   0  0  1  0  0  0  0  0  0  0  0  0
   12.5992   22.8753   32.3876 O   0  0  0  0  0  0  0  0  0  0  0  0
   10.5748   19.9137   36.2140 C   0  0  0  0  0  0  0  0  0  0  0  0
   12.0790   23.0687   28.7462 O   0  0  0  0  0  0  0  0  0  0  0  0
   10.3705   20.4989   34.8151 C   0  0  1  0  0  0  0  0  0  0  0  0
    9.4163   23.4354   29.7604 O   0  0  0  0  0  0  0  0  0  0  0  0
   11.5557   20.2162   33.8856 C   0  0  2  0  0  0  0  0  0  0  0  0
   15.2099   22.5506   35.0245 O   0  0  0  0  0  0  0  0  0  0  0  0
   11.3267   22.3669   32.8294 C   0  0  1  0  0  0  0  0  0  0  0  0
   16.5556   23.3477   32.7217 O   0  0  0  0  0  0  0  0  0  0  0  0
   12.8860   22.6382   30.9985 C   0  0  2  0  0  0  0  0  0  0  0  0
   14.2743   23.1993   30.6809 C   0  0  0  0  0  0  0  0  0  0  0  0
   11.8241   23.3232   30.1310 C   0  0  2  0  0  0  0  0  0  0  0  0
   10.4453   22.7743   30.5038 C   0  0  1  0  0  0  0  0  0  0  0  0
   10.1911   22.9743   31.9996 C   0  0  1  0  0  0  0  0  0  0  0  0
   15.7901   21.5523   34.1795 C   0  0  2  0  0  0  0  0  0  0  0  0
   16.9294   22.1070   33.3265 C   0  0  1  0  0  0  0  0  0  0  0  0
  3  1  1  0  0  0  0
  4  1  1  1  0  0  0
  4  6  1  0  0  0  0
  4 31  1  0  0  0  0
  6  7  1  0  0  0  0
  7  9  1  1  0  0  0
  7 30  1  0  0  0  0
 10  9  1  6  0  0  0
 10 13  1  0  0  0  0
 10 21  1  0  0  0  0
 13 12  1  1  0  0  0
 13 15  1  0  0  0  0
 15  2  1  1  0  0  0
 15 17  1  0  0  0  0
 16 25  1  0  0  0  0
 17 19  1  0  0  0  0
 19  5  1  6  0  0  0
 19 21  1  0  0  0  0
 21 14  1  6  0  0  0
 23 14  1  6  0  0  0
 23 16  1  0  0  0  0
 23 29  1  0  0  0  0
 25 26  1  6  0  0  0
 25 27  1  0  0  0  0
 26  8  1  0  0  0  0
 27 18  1  6  0  0  0
 27 28  1  0  0  0  0
 28 20  1  6  0  0  0
 28 29  1  0  0  0  0
 29 11  1  1  0  0  0
 30 22  1  6  0  0  0
 30 31  1  0  0  0  0
 31 24  1  6  0  0  0
M  END
>  <CHROM.1>
170.27563602,-168.94902213,-118.93840625,-56.60695814,98.31098212,-164.88669073
13.23638586,21.54637130,33.04489195,-0.23661624,0.05566504,-1.12393082

>  <Name>
2fcz_lig

>  <RI>
2.6968e+07

>  <Rbt.Current_Directory>
/home/itssahil/PROJECTS/Mol_Feturizer/New_Systems/rnas/2fcz

>  <Rbt.Executable>
rbdock ($Id: //depot/dev/client3/rdock/2013.1/src/exe/rbdock.cxx#4 $)

>  <Rbt.Library>
libRbt.so (2013.1, Build901 2013/11/27)

>  <Rbt.Parameter_File>
/export/apps/rDock/src/rDock_2013.1_src/data/scripts/dock_solv.prm

>  <Rbt.Receptor>
prm/blind_docking_60.prm

>  <SCORE>
-12.0232

>  <SCORE.INTER>
-16.3877

>  <SCORE.INTER.CONST>
1

>  <SCORE.INTER.POLAR>
-1.70872

>  <SCORE.INTER.ROT>
6

>  <SCORE.INTER.SOLV>
18.34

>  <SCORE.INTER.VDW>
-18.9427

>  <SCORE.INTER.norm>
-0.528636

>  <SCORE.INTRA>
4.36446

>  <SCORE.INTRA.DIHEDRAL>
3.34712

>  <SCORE.INTRA.DIHEDRAL.0>
10.8409

>  <SCORE.INTRA.POLAR>
0

>  <SCORE.INTRA.POLAR.0>
0

>  <SCORE.INTRA.REPUL>
0

>  <SCORE.INTRA.REPUL.0>
0

>  <SCORE.INTRA.SOLV>
1.88939

>  <SCORE.INTRA.SOLV.lig_0>
-80.8302

>  <SCORE.INTRA.VDW>
1.74621

>  <SCORE.INTRA.VDW.0>
-4.23953

>  <SCORE.INTRA.norm>
0.140789

>  <SCORE.RESTR>
0

>  <SCORE.RESTR.CAVITY>
0

>  <SCORE.RESTR.norm>
0

>  <SCORE.SYSTEM>
0

>  <SCORE.SYSTEM.CONST>
0

>  <SCORE.SYSTEM.DIHEDRAL>
0

>  <SCORE.SYSTEM.SOLV>
0

>  <SCORE.SYSTEM.norm>
0

>  <SCORE.heavy>
31

>  <SCORE.norm>
-0.387847

>  <RMSD>
6.268

$$$$
2fcz_lig
 OpenBabel11021811433D
libRbt.so/2013.1/901 2013/11/27
 31 33  0  0  0  0  0  0  0  0999 V2000
   18.0937   20.6183   33.2743 C   0  0  0  0  0  0  0  0  0  0  0  0
   12.3097   19.9582   38.0840 N   0  0  0  0  0  0  0  0  0  0  0  0
   18.6037   19.5940   32.4163 O   0  0  0  0  0  0  0  0  0  0  0  0
   17.1193   21.5064   32.4930 C   0  0  1  0  0  0  0  0  0  0  0  0
    9.2499   19.8288   34.2672 N   0  0  0  0  0  0  0  0  0  0  0  0
   15.9068   20.8013   32.1578 O   0  0  0  0  0  0  0  0  0  0  0  0
   14.8186   21.3045   32.9580 C   0  0  1  0  0  0  0  0  0  0  0  0
   14.2796   23.3011   29.0335 N   0  0  0  0  0  0  0  0  0  0  0  0
   14.0071   20.2546   33.5117 O   0  0  0  0  0  0  0  0  0  0  0  0
   12.9681   20.7134   34.3931 C   0  0  2  0  0  0  0  0  0  0  0  0
    8.8821   22.4327   32.4521 N   0  0  0  0  0  0  0  0  0  0  0  0
   14.4146   20.6787   36.3321 O   0  0  0  0  0  0  0  0  0  0  0  0
   13.2056   20.1372   35.7944 C   0  0  1  0  0  0  0  0  0  0  0  0
   11.2463   20.9966   32.6555 O   0  0  0  0  0  0  0  0  0  0  0  0
   12.0482   20.4797   36.7354 C   0  0  1  0  0  0  0  0  0  0  0  0
   12.5733   22.9141   32.2878 O   0  0  0  0  0  0  0  0  0  0  0  0
   10.7429   19.8859   36.2011 C   0  0  0  0  0  0  0  0  0  0  0  0
   11.8704   23.0942   28.6765 O   0  0  0  0  0  0  0  0  0  0  0  0
   10.4505   20.4756   34.8199 C   0  0  1  0  0  0  0  0  0  0  0  0
    9.2672   23.4972   29.8228 O   0  0  0  0  0  0  0  0  0  0  0  0
   11.6130   20.2745   33.8416 C   0  0  2  0  0  0  0  0  0  0  0  0
   14.6600   23.0640   34.6883 O   0  0  0  0  0  0  0  0  0  0  0  0
   11.3193   22.4228   32.7968 C   0  0  1  0  0  0  0  0  0  0  0  0
   16.2427   23.7886   32.5159 O   0  0  0  0  0  0  0  0  0  0  0  0
   12.7863   22.6663   30.8873 C   0  0  2  0  0  0  0  0  0  0  0  0
   14.1628   23.2095   30.4961 C   0  0  0  0  0  0  0  0  0  0  0  0
   11.6894   23.3590   30.0710 C   0  0  2  0  0  0  0  0  0  0  0  0
   10.3252   22.8282   30.5167 C   0  0  1  0  0  0  0  0  0  0  0  0
   10.1498   23.0390   32.0223 C   0  0  1  0  0  0  0  0  0  0  0  0
   15.5040   22.0782   34.0855 C   0  0  2  0  0  0  0  0  0  0  0  0
   16.6801   22.7027   33.3372 C   0  0  1  0  0  0  0  0  0  0  0  0
  3  1  1  0  0  0  0
  4  1  1  1  0  0  0
  4  6  1  0  0  0  0
  4 31  1  0  0  0  0
  6  7  1  0  0  0  0
  7  9  1  1  0  0  0
  7 30  1  0  0  0  0
 10  9  1  6  0  0  0
 10 13  1  0  0  0  0
 10 21  1  0  0  0  0
 13 12  1  1  0  0  0
 13 15  1  0  0  0  0
 15  2  1  1  0  0  0
 15 17  1  0  0  0  0
 16 25  1  0  0  0  0
 17 19  1  0  0  0  0
 19  5  1  6  0  0  0
 19 21  1  0  0  0  0
 21 14  1  6  0  0  0
 23 14  1  6  0  0  0
 23 16  1  0  0  0  0
 23 29  1  0  0  0  0
 25 26  1  6  0  0  0
 25 27  1  0  0  0  0
 26  8  1  0  0  0  0
 27 18  1  6  0  0  0
 27 28  1  0  0  0  0
 28 20  1  6  0  0  0
 28 29  1  0  0  0  0
 29 11  1  1  0  0  0
 30 22  1  6  0  0  0
 30 31  1  0  0  0  0
 31 24  1  6  0  0  0
M  END
>  <CHROM.1>
68.97397457,175.81637990,-117.96834143,-52.01246481,96.69037497,-165.14304703
13.17621712,21.68185725,32.99142328,-0.38514020,0.03719808,-1.11560759

>  <Name>
2fcz_lig

>  <RI>
1.40544e+07

>  <Rbt.Current_Directory>
/home/itssahil/PROJECTS/Mol_Feturizer/New_Systems/rnas/2fcz

>  <Rbt.Executable>
rbdock ($Id: //depot/dev/client3/rdock/2013.1/src/exe/rbdock.cxx#4 $)

>  <Rbt.Library>
libRbt.so (2013.1, Build901 2013/11/27)

>  <Rbt.Parameter_File>
/export/apps/rDock/src/rDock_2013.1_src/data/scripts/dock_solv.prm

>  <Rbt.Receptor>
prm/blind_docking_100.prm

>  <SCORE>
-10.5662

>  <SCORE.INTER>
-15.2167

>  <SCORE.INTER.CONST>
1

>  <SCORE.INTER.POLAR>
-1.61727

>  <SCORE.INTER.ROT>
6

>  <SCORE.INTER.SOLV>
17.8009

>  <SCORE.INTER.VDW>
-18.2872

>  <SCORE.INTER.norm>
-0.49086

>  <SCORE.INTRA>
4.63638

>  <SCORE.INTRA.DIHEDRAL>
2.74863

>  <SCORE.INTRA.DIHEDRAL.0>
10.8409

>  <SCORE.INTRA.POLAR>
0

>  <SCORE.INTRA.POLAR.0>
0

>  <SCORE.INTRA.REPUL>
0

>  <SCORE.INTRA.REPUL.0>
0

>  <SCORE.INTRA.SOLV>
1.98754

>  <SCORE.INTRA.SOLV.lig_0>
-80.8302

>  <SCORE.INTRA.VDW>
2.2683

>  <SCORE.INTRA.VDW.0>
-4.23953

>  <SCORE.INTRA.norm>
0.149561

>  <SCORE.RESTR>
0.0140574

>  <SCORE.RESTR.CAVITY>
0.0140574

>  <SCORE.RESTR.norm>
0.000453463

>  <SCORE.SYSTEM>
0

>  <SCORE.SYSTEM.CONST>
0

>  <SCORE.SYSTEM.DIHEDRAL>
0

>  <SCORE.SYSTEM.SOLV>
0

>  <SCORE.SYSTEM.norm>
0

>  <SCORE.heavy>
31

>  <SCORE.norm>
-0.340846

>  <RMSD>
6.270

$$$$
2fcz_lig
 OpenBabel11021811433D
libRbt.so/2013.1/901 2013/11/27
 31 33  0  0  0  0  0  0  0  0999 V2000
    8.2125   18.5609   30.3433 C   0  0  0  0  0  0  0  0  0  0  0  0
   13.5286   22.9393   33.9111 N   0  0  0  0  0  0  0  0  0  0  0  0
    9.6193   18.6164   30.5951 O   0  0  0  0  0  0  0  0  0  0  0  0
    7.4484   19.0419   31.5816 C   0  0  1  0  0  0  0  0  0  0  0  0
   12.6002   20.2971   37.9241 N   0  0  0  0  0  0  0  0  0  0  0  0
    8.0994   18.6335   32.8018 O   0  0  0  0  0  0  0  0  0  0  0  0
    8.6975   19.7807   33.4374 C   0  0  1  0  0  0  0  0  0  0  0  0
   11.4963   14.6857   37.3841 N   0  0  0  0  0  0  0  0  0  0  0  0
   10.0348   19.5235   33.8987 O   0  0  0  0  0  0  0  0  0  0  0  0
   10.6081   20.5905   34.6731 C   0  0  2  0  0  0  0  0  0  0  0  0
    7.4758   19.2031   37.7740 N   0  0  0  0  0  0  0  0  0  0  0  0
   11.1938   21.8783   32.7104 O   0  0  0  0  0  0  0  0  0  0  0  0
   11.7394   21.2441   33.8698 C   0  0  1  0  0  0  0  0  0  0  0  0
   10.0643   19.6440   36.8804 O   0  0  0  0  0  0  0  0  0  0  0  0
   12.4764   22.2921   34.7069 C   0  0  1  0  0  0  0  0  0  0  0  0
   10.4338   17.3484   36.4724 O   0  0  0  0  0  0  0  0  0  0  0  0
   13.0987   21.6362   35.9415 C   0  0  0  0  0  0  0  0  0  0  0  0
   10.7880   16.4509   40.0273 O   0  0  0  0  0  0  0  0  0  0  0  0
   11.9903   21.0121   36.7917 C   0  0  1  0  0  0  0  0  0  0  0  0
    8.0750   17.3878   39.9048 O   0  0  0  0  0  0  0  0  0  0  0  0
   11.1277   20.0276   35.9946 C   0  0  2  0  0  0  0  0  0  0  0  0
    8.7910   22.1826   32.8571 O   0  0  0  0  0  0  0  0  0  0  0  0
    9.4464   18.3941   36.5408 C   0  0  1  0  0  0  0  0  0  0  0  0
    6.2956   21.0328   32.4091 O   0  0  0  0  0  0  0  0  0  0  0  0
   11.1249   17.0994   37.7087 C   0  0  2  0  0  0  0  0  0  0  0  0
   12.1591   15.9945   37.4794 C   0  0  0  0  0  0  0  0  0  0  0  0
   10.1181   16.6713   38.7823 C   0  0  2  0  0  0  0  0  0  0  0  0
    9.0732   17.7757   38.9552 C   0  0  1  0  0  0  0  0  0  0  0  0
    8.4006   18.0724   37.6130 C   0  0  1  0  0  0  0  0  0  0  0  0
    8.7239   20.8489   32.3431 C   0  0  2  0  0  0  0  0  0  0  0  0
    7.4020   20.5690   31.6307 C   0  0  1  0  0  0  0  0  0  0  0  0
  3  1  1  0  0  0  0
  4  1  1  6  0  0  0
  4  6  1  0  0  0  0
  4 31  1  0  0  0  0
  6  7  1  0  0  0  0
  7  9  1  6  0  0  0
  7 30  1  0  0  0  0
 10  9  1  6  0  0  0
 10 13  1  0  0  0  0
 10 21  1  0  0  0  0
 13 12  1  6  0  0  0
 13 15  1  0  0  0  0
 15  2  1  6  0  0  0
 15 17  1  0  0  0  0
 16 25  1  0  0  0  0
 17 19  1  0  0  0  0
 19  5  1  1  0  0  0
 19 21  1  0  0  0  0
 21 14  1  1  0  0  0
 23 14  1  1  0  0  0
 23 16  1  0  0  0  0
 23 29  1  0  0  0  0
 25 26  1  6  0  0  0
 25 27  1  0  0  0  0
 26  8  1  0  0  0  0
 27 18  1  1  0  0  0
 27 28  1  0  0  0  0
 28 20  1  1  0  0  0
 28 29  1  0  0  0  0
 29 11  1  1  0  0  0
 30 22  1  1  0  0  0
 30 31  1  0  0  0  0
 31 24  1  1  0  0  0
M  END
>  <CHROM.1>
-36.19615517,-173.18759069,-110.87225300,77.40428616,55.57388545,-74.99616418
9.98482112,19.32741789,35.26749712,1.79362296,-0.61411249,-0.96110855

>  <Name>
2fcz_lig

>  <RI>
3.41297e+07

>  <Rbt.Current_Directory>
/home/itssahil/PROJECTS/Mol_Feturizer/New_Systems/rnas/2fcz

>  <Rbt.Executable>
rbdock ($Id: //depot/dev/client3/rdock/2013.1/src/exe/rbdock.cxx#4 $)

>  <Rbt.Library>
libRbt.so (2013.1, Build901 2013/11/27)

>  <Rbt.Parameter_File>
/export/apps/rDock/src/rDock_2013.1_src/data/scripts/dock_solv.prm

>  <Rbt.Receptor>
prm/pocket_docking_2.prm

>  <SCORE>
-8.73449

>  <SCORE.INTER>
-14.1547

>  <SCORE.INTER.CONST>
1

>  <SCORE.INTER.POLAR>
-1.90084

>  <SCORE.INTER.ROT>
6

>  <SCORE.INTER.SOLV>
17.4265

>  <SCORE.INTER.VDW>
-16.5092

>  <SCORE.INTER.norm>
-0.456602

>  <SCORE.INTRA>
2.49075

>  <SCORE.INTRA.DIHEDRAL>
0.357768

>  <SCORE.INTRA.DIHEDRAL.0>
10.8409

>  <SCORE.INTRA.POLAR>
0

>  <SCORE.INTRA.POLAR.0>
0

>  <SCORE.INTRA.REPUL>
0

>  <SCORE.INTRA.REPUL.0>
0

>  <SCORE.INTRA.SOLV>
-0.263205

>  <SCORE.INTRA.SOLV.lig_0>
-80.8302

>  <SCORE.INTRA.VDW>
2.44347

>  <SCORE.INTRA.VDW.0>
-4.23953

>  <SCORE.INTRA.norm>
0.0803468

>  <SCORE.RESTR>
2.92943

>  <SCORE.RESTR.CAVITY>
2.92943

>  <SCORE.RESTR.norm>
0.0944977

>  <SCORE.SYSTEM>
0

>  <SCORE.SYSTEM.CONST>
0

>  <SCORE.SYSTEM.DIHEDRAL>
0

>  <SCORE.SYSTEM.SOLV>
0

>  <SCORE.SYSTEM.norm>
0

>  <SCORE.heavy>
31

>  <SCORE.norm>
-0.281758

>  <RMSD>
6.273

$$$$
2fcz_lig
 OpenBabel11021811433D
libRbt.so/2013.1/901 2013/11/27
 31 33  0  0  0  0  0  0  0  0999 V2000
    6.9993   20.2515   31.7870 C   0  0  0  0  0  0  0  0  0  0  0  0
   14.1946   23.3682   35.2184 N   0  0  0  0  0  0  0  0  0  0  0  0
    8.0893   19.3322   31.8977 O   0  0  0  0  0  0  0  0  0  0  0  0
    7.3995   21.6002   32.3948 C   0  0  1  0  0  0  0  0  0  0  0  0
   13.2174   19.3615   37.8524 N   0  0  0  0  0  0  0  0  0  0  0  0
    7.9812   21.4429   33.7050 O   0  0  0  0  0  0  0  0  0  0  0  0
    9.3969   21.7062   33.6397 C   0  0  1  0  0  0  0  0  0  0  0  0
   12.5960   14.8500   36.9425 N   0  0  0  0  0  0  0  0  0  0  0  0
   10.1751   20.7288   34.3512 O   0  0  0  0  0  0  0  0  0  0  0  0
   10.9985   21.2753   35.3953 C   0  0  2  0  0  0  0  0  0  0  0  0
    7.9026   19.3006   37.9605 N   0  0  0  0  0  0  0  0  0  0  0  0
   11.6046   23.2159   34.0837 O   0  0  0  0  0  0  0  0  0  0  0  0
   12.1422   22.0801   34.7655 C   0  0  1  0  0  0  0  0  0  0  0  0
   10.5167   19.5272   37.0614 O   0  0  0  0  0  0  0  0  0  0  0  0
   13.1288   22.5634   35.8311 C   0  0  1  0  0  0  0  0  0  0  0  0
   10.3603   17.5591   35.7671 O   0  0  0  0  0  0  0  0  0  0  0  0
   13.7451   21.3665   36.5586 C   0  0  0  0  0  0  0  0  0  0  0  0
   10.5343   15.2730   38.6500 O   0  0  0  0  0  0  0  0  0  0  0  0
   12.6335   20.5649   37.2389 C   0  0  1  0  0  0  0  0  0  0  0  0
    8.0985   16.7085   39.1594 O   0  0  0  0  0  0  0  0  0  0  0  0
   11.5389   20.1351   36.2561 C   0  0  2  0  0  0  0  0  0  0  0  0
   10.9166   22.3552   31.8001 O   0  0  0  0  0  0  0  0  0  0  0  0
    9.6323   18.6677   36.3276 C   0  0  1  0  0  0  0  0  0  0  0  0
    8.4777   23.6961   31.7450 O   0  0  0  0  0  0  0  0  0  0  0  0
   10.9885   16.7059   36.7395 C   0  0  2  0  0  0  0  0  0  0  0  0
   11.7475   15.5987   36.0040 C   0  0  0  0  0  0  0  0  0  0  0  0
    9.9203   16.0998   37.6566 C   0  0  2  0  0  0  0  0  0  0  0  0
    9.1502   17.2311   38.3413 C   0  0  1  0  0  0  0  0  0  0  0  0
    8.5499   18.1654   37.2884 C   0  0  1  0  0  0  0  0  0  0  0  0
    9.7253   21.6427   32.1472 C   0  0  2  0  0  0  0  0  0  0  0  0
    8.4739   22.2800   31.5461 C   0  0  1  0  0  0  0  0  0  0  0  0
  3  1  1  0  0  0  0
  4  1  1  6  0  0  0
  4  6  1  0  0  0  0
  4 31  1  0  0  0  0
  6  7  1  0  0  0  0
  7  9  1  1  0  0  0
  7 30  1  0  0  0  0
 10  9  1  6  0  0  0
 10 13  1  0  0  0  0
 10 21  1  0  0  0  0
 13 12  1  1  0  0  0
 13 15  1  0  0  0  0
 15  2  1  6  0  0  0
 15 17  1  0  0  0  0
 16 25  1  0  0  0  0
 17 19  1  0  0  0  0
 19  5  1  6  0  0  0
 19 21  1  0  0  0  0
 21 14  1  1  0  0  0
 23 14  1  1  0  0  0
 23 16  1  0  0  0  0
 23 29  1  0  0  0  0
 25 26  1  6  0  0  0
 25 27  1  0  0  0  0
 26  8  1  0  0  0  0
 27 18  1  1  0  0  0
 27 28  1  0  0  0  0
 28 20  1  6  0  0  0
 28 29  1  0  0  0  0
 29 11  1  1  0  0  0
 30 22  1  1  0  0  0
 30 31  1  0  0  0  0
 31 24  1  1  0  0  0
M  END
>  <CHROM.1>
-49.18760239,-121.59098417,-70.23484830,75.39174302,62.65854660,169.92729951
10.32181582,19.82748590,35.33286252,1.70529957,-0.49295568,-0.67529250

>  <Name>
2fcz_lig

>  <RI>
2.76032e+07

>  <Rbt.Current_Directory>
/home/itssahil/PROJECTS/Mol_Feturizer/New_Systems/rnas/2fcz

>  <Rbt.Executable>
rbdock ($Id: //depot/dev/client3/rdock/2013.1/src/exe/rbdock.cxx#4 $)

>  <Rbt.Library>
libRbt.so (2013.1, Build901 2013/11/27)

>  <Rbt.Parameter_File>
/export/apps/rDock/src/rDock_2013.1_src/data/scripts/dock_solv.prm

>  <Rbt.Receptor>
prm/pocket_docking_8.prm

>  <SCORE>
-15.7745

>  <SCORE.INTER>
-16.7211

>  <SCORE.INTER.CONST>
1

>  <SCORE.INTER.POLAR>
-2.92635

>  <SCORE.INTER.ROT>
6

>  <SCORE.INTER.SOLV>
14.8259

>  <SCORE.INTER.VDW>
-13.9349

>  <SCORE.INTER.norm>
-0.53939

>  <SCORE.INTRA>
0.946548

>  <SCORE.INTRA.DIHEDRAL>
-1.21352

>  <SCORE.INTRA.DIHEDRAL.0>
10.8409

>  <SCORE.INTRA.POLAR>
0

>  <SCORE.INTRA.POLAR.0>
0

>  <SCORE.INTRA.REPUL>
0

>  <SCORE.INTRA.REPUL.0>
0

>  <SCORE.INTRA.SOLV>
-1.22855

>  <SCORE.INTRA.SOLV.lig_0>
-80.8302

>  <SCORE.INTRA.VDW>
2.16758

>  <SCORE.INTRA.VDW.0>
-4.23953

>  <SCORE.INTRA.norm>
0.0305338

>  <SCORE.RESTR>
0

>  <SCORE.RESTR.CAVITY>
0

>  <SCORE.RESTR.norm>
0

>  <SCORE.SYSTEM>
0

>  <SCORE.SYSTEM.CONST>
0

>  <SCORE.SYSTEM.DIHEDRAL>
0

>  <SCORE.SYSTEM.SOLV>
0

>  <SCORE.SYSTEM.norm>
0

>  <SCORE.heavy>
31

>  <SCORE.norm>
-0.508856

>  <RMSD>
6.273

$$$$
2fcz_lig
 OpenBabel11021811433D
libRbt.so/2013.1/901 2013/11/27
 31 33  0  0  0  0  0  0  0  0999 V2000
    8.4970   17.9357   30.6363 C   0  0  0  0  0  0  0  0  0  0  0  0
   12.1164   22.6129   33.5729 N   0  0  0  0  0  0  0  0  0  0  0  0
    8.7413   19.1198   29.8724 O   0  0  0  0  0  0  0  0  0  0  0  0
    9.6991   17.6508   31.5431 C   0  0  1  0  0  0  0  0  0  0  0  0
   12.2817   20.0357   37.7295 N   0  0  0  0  0  0  0  0  0  0  0  0
    9.9075   18.7091   32.5003 O   0  0  0  0  0  0  0  0  0  0  0  0
    9.5397   18.2494   33.8161 C   0  0  1  0  0  0  0  0  0  0  0  0
   12.2122   15.4351   39.2779 N   0  0  0  0  0  0  0  0  0  0  0  0
    8.7463   19.2085   34.5358 O   0  0  0  0  0  0  0  0  0  0  0  0
    9.5025   20.2854   35.1147 C   0  0  2  0  0  0  0  0  0  0  0  0
    7.0059   19.3366   38.4807 N   0  0  0  0  0  0  0  0  0  0  0  0
    9.5486   21.5410   33.0471 O   0  0  0  0  0  0  0  0  0  0  0  0
   10.3812   20.9230   34.0314 C   0  0  1  0  0  0  0  0  0  0  0  0
    9.5609   19.3748   37.4019 O   0  0  0  0  0  0  0  0  0  0  0  0
   11.3119   21.9814   34.6279 C   0  0  1  0  0  0  0  0  0  0  0  0
    9.6195   17.0261   37.1712 O   0  0  0  0  0  0  0  0  0  0  0  0
   12.2384   21.3426   35.6649 C   0  0  0  0  0  0  0  0  0  0  0  0
   10.1066   16.3700   40.7628 O   0  0  0  0  0  0  0  0  0  0  0  0
   11.3941   20.7352   36.7870 C   0  0  1  0  0  0  0  0  0  0  0  0
    7.5257   17.6311   40.7203 O   0  0  0  0  0  0  0  0  0  0  0  0
   10.3527   19.7413   36.2611 C   0  0  2  0  0  0  0  0  0  0  0  0
    8.6814   16.0975   34.6808 O   0  0  0  0  0  0  0  0  0  0  0  0
    8.7737   18.1907   37.2076 C   0  0  1  0  0  0  0  0  0  0  0  0
   10.7027   15.8024   32.7895 O   0  0  0  0  0  0  0  0  0  0  0  0
   10.3589   16.7883   38.3814 C   0  0  2  0  0  0  0  0  0  0  0  0
   11.2327   15.5467   38.1873 C   0  0  0  0  0  0  0  0  0  0  0  0
    9.3840   16.5761   39.5451 C   0  0  2  0  0  0  0  0  0  0  0  0
    8.4957   17.8142   39.6839 C   0  0  1  0  0  0  0  0  0  0  0  0
    7.7730   18.0887   38.3631 C   0  0  1  0  0  0  0  0  0  0  0  0
    8.7172   16.9856   33.5594 C   0  0  2  0  0  0  0  0  0  0  0  0
    9.4665   16.3867   32.3706 C   0  0  1  0  0  0  0  0  0  0  0  0
  3  1  1  0  0  0  0
  4  1  1  1  0  0  0
  4  6  1  0  0  0  0
  4 31  1  0  0  0  0
  6  7  1  0  0  0  0
  7  9  1  6  0  0  0
  7 30  1  0  0  0  0
 10  9  1  6  0  0  0
 10 13  1  0  0  0  0
 10 21  1  0  0  0  0
 13 12  1  6  0  0  0
 13 15  1  0  0  0  0
 15  2  1  6  0  0  0
 15 17  1  0  0  0  0
 16 25  1  0  0  0  0
 17 19  1  0  0  0  0
 19  5  1  1  0  0  0
 19 21  1  0  0  0  0
 21 14  1  1  0  0  0
 23 14  1  1  0  0  0
 23 16  1  0  0  0  0
 23 29  1  0  0  0  0
 25 26  1  6  0  0  0
 25 27  1  0  0  0  0
 26  8  1  0  0  0  0
 27 18  1  1  0  0  0
 27 28  1  0  0  0  0
 28 20  1  1  0  0  0
 28 29  1  0  0  0  0
 29 11  1  1  0  0  0
 30 22  1  1  0  0  0
 30 31  1  0  0  0  0
 31 24  1  1  0  0  0
M  END
>  <CHROM.1>
62.65792303,-78.77772436,52.23277512,71.57979099,71.00642042,167.77855811
9.78510321,18.47890085,35.73226791,1.47792229,-1.24356018,-1.38416354

>  <Name>
2fcz_lig

>  <RI>
2.26996e+07

>  <Rbt.Current_Directory>
/home/itssahil/PROJECTS/Mol_Feturizer/New_Systems/rnas/2fcz

>  <Rbt.Executable>
rbdock ($Id: //depot/dev/client3/rdock/2013.1/src/exe/rbdock.cxx#4 $)

>  <Rbt.Library>
libRbt.so (2013.1, Build901 2013/11/27)

>  <Rbt.Parameter_File>
/export/apps/rDock/src/rDock_2013.1_src/data/scripts/dock_solv.prm

>  <Rbt.Receptor>
prm/pocket_docking_4.prm

>  <SCORE>
-19.949

>  <SCORE.INTER>
-17.5408

>  <SCORE.INTER.CONST>
1

>  <SCORE.INTER.POLAR>
-2.12614

>  <SCORE.INTER.ROT>
6

>  <SCORE.INTER.SOLV>
16.7133

>  <SCORE.INTER.VDW>
-17.7778

>  <SCORE.INTER.norm>
-0.565832

>  <SCORE.INTRA>
-2.40816

>  <SCORE.INTRA.DIHEDRAL>
-7.054

>  <SCORE.INTRA.DIHEDRAL.0>
10.8409

>  <SCORE.INTRA.POLAR>
0

>  <SCORE.INTRA.POLAR.0>
0

>  <SCORE.INTRA.REPUL>
0

>  <SCORE.INTRA.REPUL.0>
0

>  <SCORE.INTRA.SOLV>
-1.85302

>  <SCORE.INTRA.SOLV.lig_0>
-80.8302

>  <SCORE.INTRA.VDW>
2.04535

>  <SCORE.INTRA.VDW.0>
-4.23953

>  <SCORE.INTRA.norm>
-0.0776826

>  <SCORE.RESTR>
0

>  <SCORE.RESTR.CAVITY>
0

>  <SCORE.RESTR.norm>
0

>  <SCORE.SYSTEM>
0

>  <SCORE.SYSTEM.CONST>
0

>  <SCORE.SYSTEM.DIHEDRAL>
0

>  <SCORE.SYSTEM.SOLV>
0

>  <SCORE.SYSTEM.norm>
0

>  <SCORE.heavy>
31

>  <SCORE.norm>
-0.643515

>  <RMSD>
6.289

$$$$
2fcz_lig
 OpenBabel11021811433D
libRbt.so/2013.1/901 2013/11/27
 31 33  0  0  0  0  0  0  0  0999 V2000
   11.5585   13.5567   34.8408 C   0  0  0  0  0  0  0  0  0  0  0  0
    7.3719   18.8166   30.0305 N   0  0  0  0  0  0  0  0  0  0  0  0
   12.2156   14.7865   35.1594 O   0  0  0  0  0  0  0  0  0  0  0  0
   11.0847   13.5886   33.3837 C   0  0  1  0  0  0  0  0  0  0  0  0
    8.6974   20.9625   34.2240 N   0  0  0  0  0  0  0  0  0  0  0  0
   10.3240   14.7795   33.0963 O   0  0  0  0  0  0  0  0  0  0  0  0
   11.1006   15.6578   32.2577 C   0  0  1  0  0  0  0  0  0  0  0  0
   12.7928   21.4810   33.0530 N   0  0  0  0  0  0  0  0  0  0  0  0
   11.0545   17.0262   32.6967 O   0  0  0  0  0  0  0  0  0  0  0  0
    9.7289   17.5771   32.7755 C   0  0  2  0  0  0  0  0  0  0  0  0
   10.4674   17.3553   37.4498 N   0  0  0  0  0  0  0  0  0  0  0  0
    9.0669   16.6338   30.6481 O   0  0  0  0  0  0  0  0  0  0  0  0
    9.2183   17.8654   31.3584 C   0  0  1  0  0  0  0  0  0  0  0  0
    9.9870   18.5818   35.0089 O   0  0  0  0  0  0  0  0  0  0  0  0
    7.8682   18.5855   31.3941 C   0  0  1  0  0  0  0  0  0  0  0  0
   12.2518   19.1922   34.7432 O   0  0  0  0  0  0  0  0  0  0  0  0
    8.0055   19.9242   32.1227 C   0  0  0  0  0  0  0  0  0  0  0  0
   12.1359   21.9145   37.2218 O   0  0  0  0  0  0  0  0  0  0  0  0
    8.4704   19.6701   33.5580 C   0  0  1  0  0  0  0  0  0  0  0  0
   11.5778   19.6023   38.8328 O   0  0  0  0  0  0  0  0  0  0  0  0
    9.7651   18.8521   33.6158 C   0  0  2  0  0  0  0  0  0  0  0  0
   13.3610   15.4956   31.2683 O   0  0  0  0  0  0  0  0  0  0  0  0
   11.3438   18.2389   35.3261 C   0  0  1  0  0  0  0  0  0  0  0  0
   11.9224   13.1160   31.1360 O   0  0  0  0  0  0  0  0  0  0  0  0
   12.0867   20.5398   35.2175 C   0  0  2  0  0  0  0  0  0  0  0  0
   13.0885   21.4419   34.4926 C   0  0  0  0  0  0  0  0  0  0  0  0
   12.3284   20.5845   36.7305 C   0  0  2  0  0  0  0  0  0  0  0  0
   11.3431   19.6393   37.4214 C   0  0  1  0  0  0  0  0  0  0  0  0
   11.4882   18.2266   36.8512 C   0  0  1  0  0  0  0  0  0  0  0  0
   12.5298   15.1252   32.3725 C   0  0  2  0  0  0  0  0  0  0  0  0
   12.2763   13.6199   32.4267 C   0  0  1  0  0  0  0  0  0  0  0  0
  3  1  1  0  0  0  0
  4  1  1  1  0  0  0
  4  6  1  0  0  0  0
  4 31  1  0  0  0  0
  6  7  1  0  0  0  0
  7  9  1  1  0  0  0
  7 30  1  0  0  0  0
 10  9  1  6  0  0  0
 10 13  1  0  0  0  0
 10 21  1  0  0  0  0
 13 12  1  6  0  0  0
 13 15  1  0  0  0  0
 15  2  1  6  0  0  0
 15 17  1  0  0  0  0
 16 25  1  0  0  0  0
 17 19  1  0  0  0  0
 19  5  1  6  0  0  0
 19 21  1  0  0  0  0
 21 14  1  1  0  0  0
 23 14  1  1  0  0  0
 23 16  1  0  0  0  0
 23 29  1  0  0  0  0
 25 26  1  6  0  0  0
 25 27  1  0  0  0  0
 26  8  1  0  0  0  0
 27 18  1  1  0  0  0
 27 28  1  0  0  0  0
 28 20  1  1  0  0  0
 28 29  1  0  0  0  0
 29 11  1  1  0  0  0
 30 22  1  6  0  0  0
 30 31  1  0  0  0  0
 31 24  1  6  0  0  0
M  END
>  <CHROM.1>
-51.26750659,-57.39198822,-74.68353351,75.65047449,49.08371642,64.19948024
10.88240025,17.79244625,33.89754548,-1.66847685,-0.93148880,0.56150244

>  <Name>
2fcz_lig

>  <RI>
1.32928e+07

>  <Rbt.Current_Directory>
/home/itssahil/PROJECTS/Mol_Feturizer/New_Systems/rnas/2fcz

>  <Rbt.Executable>
rbdock ($Id: //depot/dev/client3/rdock/2013.1/src/exe/rbdock.cxx#4 $)

>  <Rbt.Library>
libRbt.so (2013.1, Build901 2013/11/27)

>  <Rbt.Parameter_File>
/export/apps/rDock/src/rDock_2013.1_src/data/scripts/dock_solv.prm

>  <Rbt.Receptor>
prm/pocket_docking_7.prm

>  <SCORE>
-18.4798

>  <SCORE.INTER>
-15.1959

>  <SCORE.INTER.CONST>
1

>  <SCORE.INTER.POLAR>
-2.21951

>  <SCORE.INTER.ROT>
6

>  <SCORE.INTER.SOLV>
20.6625

>  <SCORE.INTER.VDW>
-17.2198

>  <SCORE.INTER.norm>
-0.490192

>  <SCORE.INTRA>
-3.2839

>  <SCORE.INTRA.DIHEDRAL>
-7.6107

>  <SCORE.INTRA.DIHEDRAL.0>
10.8409

>  <SCORE.INTRA.POLAR>
0

>  <SCORE.INTRA.POLAR.0>
0

>  <SCORE.INTRA.REPUL>
0

>  <SCORE.INTRA.REPUL.0>
0

>  <SCORE.INTRA.SOLV>
-1.66889

>  <SCORE.INTRA.SOLV.lig_0>
-80.8302

>  <SCORE.INTRA.VDW>
1.3559

>  <SCORE.INTRA.VDW.0>
-4.23953

>  <SCORE.INTRA.norm>
-0.105932

>  <SCORE.RESTR>
0

>  <SCORE.RESTR.CAVITY>
0

>  <SCORE.RESTR.norm>
0

>  <SCORE.SYSTEM>
0

>  <SCORE.SYSTEM.CONST>
0

>  <SCORE.SYSTEM.DIHEDRAL>
0

>  <SCORE.SYSTEM.SOLV>
0

>  <SCORE.SYSTEM.norm>
0

>  <SCORE.heavy>
31

>  <SCORE.norm>
-0.596124

>  <RMSD>
6.298

$$$$
2fcz_lig
 OpenBabel11021811433D
libRbt.so/2013.1/901 2013/11/27
 31 33  0  0  0  0  0  0  0  0999 V2000
   16.0558   23.5275   30.0323 C   0  0  0  0  0  0  0  0  0  0  0  0
   15.0221   19.1995   37.4720 N   0  0  0  0  0  0  0  0  0  0  0  0
   15.4220   23.1095   28.8202 O   0  0  0  0  0  0  0  0  0  0  0  0
   15.0013   24.0641   31.0062 C   0  0  1  0  0  0  0  0  0  0  0  0
   11.2357   18.0289   34.6015 N   0  0  0  0  0  0  0  0  0  0  0  0
   14.1171   23.0204   31.4628 O   0  0  0  0  0  0  0  0  0  0  0  0
   14.4008   22.7166   32.8430 C   0  0  1  0  0  0  0  0  0  0  0  0
   10.3773   23.0669   28.9303 N   0  0  0  0  0  0  0  0  0  0  0  0
   14.4611   21.3028   33.0975 O   0  0  0  0  0  0  0  0  0  0  0  0
   13.7582   20.8849   34.2800 C   0  0  2  0  0  0  0  0  0  0  0  0
    9.5913   20.8449   35.0259 N   0  0  0  0  0  0  0  0  0  0  0  0
   15.6468   21.3372   35.7231 O   0  0  0  0  0  0  0  0  0  0  0  0
   14.7621   20.3037   35.2835 C   0  0  1  0  0  0  0  0  0  0  0  0
   11.6088   20.4278   33.1688 O   0  0  0  0  0  0  0  0  0  0  0  0
   14.0466   19.7134   36.5008 C   0  0  1  0  0  0  0  0  0  0  0  0
   11.5433   22.6683   32.4280 O   0  0  0  0  0  0  0  0  0  0  0  0
   13.1135   18.5817   36.0646 C   0  0  0  0  0  0  0  0  0  0  0  0
    8.4063   22.2819   30.5366 O   0  0  0  0  0  0  0  0  0  0  0  0
   12.0678   19.1374   35.0958 C   0  0  1  0  0  0  0  0  0  0  0  0
    7.5582   21.7630   33.2319 O   0  0  0  0  0  0  0  0  0  0  0  0
   12.7035   19.8489   33.8964 C   0  0  2  0  0  0  0  0  0  0  0  0
   16.0227   23.6179   34.4777 O   0  0  0  0  0  0  0  0  0  0  0  0
   11.3152   21.7825   33.5400 C   0  0  1  0  0  0  0  0  0  0  0  0
   14.8207   25.5824   32.9139 O   0  0  0  0  0  0  0  0  0  0  0  0
   10.7174   22.4085   31.2798 C   0  0  2  0  0  0  0  0  0  0  0  0
   11.0899   23.3979   30.1729 C   0  0  0  0  0  0  0  0  0  0  0  0
    9.2417   22.5689   31.6622 C   0  0  2  0  0  0  0  0  0  0  0  0
    8.9130   21.6000   32.8001 C   0  0  1  0  0  0  0  0  0  0  0  0
    9.8504   21.8483   33.9840 C   0  0  1  0  0  0  0  0  0  0  0  0
   15.7714   23.3468   33.0953 C   0  0  2  0  0  0  0  0  0  0  0  0
   15.6618   24.6247   32.2657 C   0  0  1  0  0  0  0  0  0  0  0  0
  3  1  1  0  0  0  0
  4  1  1  6  0  0  0
  4  6  1  0  0  0  0
  4 31  1  0  0  0  0
  6  7  1  0  0  0  0
  7  9  1  6  0  0  0
  7 30  1  0  0  0  0
 10  9  1  6  0  0  0
 10 13  1  0  0  0  0
 10 21  1  0  0  0  0
 13 12  1  1  0  0  0
 13 15  1  0  0  0  0
 15  2  1  1  0  0  0
 15 17  1  0  0  0  0
 16 25  1  0  0  0  0
 17 19  1  0  0  0  0
 19  5  1  6  0  0  0
 19 21  1  0  0  0  0
 21 14  1  1  0  0  0
 23 14  1  6  0  0  0
 23 16  1  0  0  0  0
 23 29  1  0  0  0  0
 25 26  1  6  0  0  0
 25 27  1  0  0  0  0
 26  8  1  0  0  0  0
 27 18  1  6  0  0  0
 27 28  1  0  0  0  0
 28 20  1  1  0  0  0
 28 29  1  0  0  0  0
 29 11  1  1  0  0  0
 30 22  1  1  0  0  0
 30 31  1  0  0  0  0
 31 24  1  1  0  0  0
M  END
>  <CHROM.1>
67.20084787,-134.94533278,-116.25440713,-31.86199978,116.11702454,173.51054288
12.73018155,21.85864683,33.05437845,-0.21111386,-0.22333673,-0.91464266

>  <Name>
2fcz_lig

>  <RI>
1.32928e+07

>  <Rbt.Current_Directory>
/home/itssahil/PROJECTS/Mol_Feturizer/New_Systems/rnas/2fcz

>  <Rbt.Executable>
rbdock ($Id: //depot/dev/client3/rdock/2013.1/src/exe/rbdock.cxx#4 $)

>  <Rbt.Library>
libRbt.so (2013.1, Build901 2013/11/27)

>  <Rbt.Parameter_File>
/export/apps/rDock/src/rDock_2013.1_src/data/scripts/dock_solv.prm

>  <Rbt.Receptor>
prm/pocket_docking_7.prm

>  <SCORE>
-6.02877

>  <SCORE.INTER>
-14.9787

>  <SCORE.INTER.CONST>
1

>  <SCORE.INTER.POLAR>
-2.33101

>  <SCORE.INTER.ROT>
6

>  <SCORE.INTER.SOLV>
13.4261

>  <SCORE.INTER.VDW>
-14.2911

>  <SCORE.INTER.norm>
-0.483183

>  <SCORE.INTRA>
8.83898

>  <SCORE.INTRA.DIHEDRAL>
13.1309

>  <SCORE.INTRA.DIHEDRAL.0>
10.8409

>  <SCORE.INTRA.POLAR>
0

>  <SCORE.INTRA.POLAR.0>
0

>  <SCORE.INTRA.REPUL>
0.0177737

>  <SCORE.INTRA.REPUL.0>
0

>  <SCORE.INTRA.SOLV>
0.828764

>  <SCORE.INTRA.SOLV.lig_0>
-80.8302

>  <SCORE.INTRA.VDW>
1.7703

>  <SCORE.INTRA.VDW.0>
-4.23953

>  <SCORE.INTRA.norm>
0.285129

>  <SCORE.RESTR>
0.110936

>  <SCORE.RESTR.CAVITY>
0.110936

>  <SCORE.RESTR.norm>
0.00357857

>  <SCORE.SYSTEM>
0

>  <SCORE.SYSTEM.CONST>
0

>  <SCORE.SYSTEM.DIHEDRAL>
0

>  <SCORE.SYSTEM.SOLV>
0

>  <SCORE.SYSTEM.norm>
0

>  <SCORE.heavy>
31

>  <SCORE.norm>
-0.194476

>  <RMSD>
6.299

$$$$
2fcz_lig
 OpenBabel11021811433D
libRbt.so/2013.1/901 2013/11/27
 31 33  0  0  0  0  0  0  0  0999 V2000
    9.5805   22.5643   31.6795 C   0  0  0  0  0  0  0  0  0  0  0  0
   17.8590   24.8527   33.6525 N   0  0  0  0  0  0  0  0  0  0  0  0
   10.3530   23.7631   31.5712 O   0  0  0  0  0  0  0  0  0  0  0  0
   10.2427   21.6139   32.6828 C   0  0  1  0  0  0  0  0  0  0  0  0
   17.6445   20.1961   32.1635 N   0  0  0  0  0  0  0  0  0  0  0  0
   11.6247   21.3682   32.3522 O   0  0  0  0  0  0  0  0  0  0  0  0
   12.4754   22.0377   33.3040 C   0  0  1  0  0  0  0  0  0  0  0  0
   13.3293   20.2933   37.8536 N   0  0  0  0  0  0  0  0  0  0  0  0
   13.5633   22.7383   32.6772 O   0  0  0  0  0  0  0  0  0  0  0  0
   14.8397   22.5310   33.3055 C   0  0  2  0  0  0  0  0  0  0  0  0
   15.3369   17.3551   32.9499 N   0  0  0  0  0  0  0  0  0  0  0  0
   15.0438   24.8516   33.9588 O   0  0  0  0  0  0  0  0  0  0  0  0
   15.6693   23.8164   33.1964 C   0  0  1  0  0  0  0  0  0  0  0  0
   14.9334   20.0992   32.9297 O   0  0  0  0  0  0  0  0  0  0  0  0
   17.0900   23.6026   33.7237 C   0  0  1  0  0  0  0  0  0  0  0  0
   14.8848   20.2220   35.2867 O   0  0  0  0  0  0  0  0  0  0  0  0
   17.7969   22.5194   32.9059 C   0  0  0  0  0  0  0  0  0  0  0  0
   11.5184   18.7616   35.6076 O   0  0  0  0  0  0  0  0  0  0  0  0
   17.0191   21.2078   33.0300 C   0  0  1  0  0  0  0  0  0  0  0  0
   13.0075   16.6032   34.4341 O   0  0  0  0  0  0  0  0  0  0  0  0
   15.5486   21.3610   32.6262 C   0  0  2  0  0  0  0  0  0  0  0  0
   12.0214   23.4360   35.2923 O   0  0  0  0  0  0  0  0  0  0  0  0
   15.3985   19.5036   34.1496 C   0  0  1  0  0  0  0  0  0  0  0  0
   10.3486   21.2198   35.0934 O   0  0  0  0  0  0  0  0  0  0  0  0
   13.4507   20.2212   35.3940 C   0  0  2  0  0  0  0  0  0  0  0  0
   13.0495   21.0439   36.6208 C   0  0  0  0  0  0  0  0  0  0  0  0
   12.9472   18.7801   35.5320 C   0  0  2  0  0  0  0  0  0  0  0  0
   13.4027   17.9736   34.3140 C   0  0  1  0  0  0  0  0  0  0  0  0
   14.9253   18.0468   34.1794 C   0  0  1  0  0  0  0  0  0  0  0  0
   11.5503   23.0361   34.0018 C   0  0  2  0  0  0  0  0  0  0  0  0
   10.2569   22.2275   34.0828 C   0  0  1  0  0  0  0  0  0  0  0  0
  3  1  1  0  0  0  0
  4  1  1  6  0  0  0
  4  6  1  0  0  0  0
  4 31  1  0  0  0  0
  6  7  1  0  0  0  0
  7  9  1  6  0  0  0
  7 30  1  0  0  0  0
 10  9  1  6  0  0  0
 10 13  1  0  0  0  0
 10 21  1  0  0  0  0
 13 12  1  1  0  0  0
 13 15  1  0  0  0  0
 15  2  1  6  0  0  0
 15 17  1  0  0  0  0
 16 25  1  0  0  0  0
 17 19  1  0  0  0  0
 19  5  1  6  0  0  0
 19 21  1  0  0  0  0
 21 14  1  1  0  0  0
 23 14  1  6  0  0  0
 23 16  1  0  0  0  0
 23 29  1  0  0  0  0
 25 26  1  1  0  0  0
 25 27  1  0  0  0  0
 26  8  1  0  0  0  0
 27 18  1  6  0  0  0
 27 28  1  0  0  0  0
 28 20  1  1  0  0  0
 28 29  1  0  0  0  0
 29 11  1  6  0  0  0
 30 22  1  1  0  0  0
 30 31  1  0  0  0  0
 31 24  1  1  0  0  0
M  END
>  <CHROM.1>
-53.83937994,-134.26853851,-145.97952616,-85.67198349,72.33789495,-74.41644664
13.71329153,21.22739688,33.89222394,2.87188850,-0.07242296,2.84030283

>  <Name>
2fcz_lig

>  <RI>
0

>  <Rbt.Current_Directory>
/home/itssahil/PROJECTS/Mol_Feturizer/New_Systems/rnas/2fcz

>  <Rbt.Executable>
rbdock ($Id: //depot/dev/client3/rdock/2013.1/src/exe/rbdock.cxx#4 $)

>  <Rbt.Library>
libRbt.so (2013.1, Build901 2013/11/27)

>  <Rbt.Parameter_File>
/export/apps/rDock/src/rDock_2013.1_src/data/scripts/dock_solv.prm

>  <Rbt.Receptor>
prm/blind_docking_80.prm

>  <SCORE>
0.262178

>  <SCORE.INTER>
-6.1065

>  <SCORE.INTER.CONST>
1

>  <SCORE.INTER.POLAR>
-0.858917

>  <SCORE.INTER.ROT>
6

>  <SCORE.INTER.SOLV>
14.4124

>  <SCORE.INTER.VDW>
-13.6121

>  <SCORE.INTER.norm>
-0.196984

>  <SCORE.INTRA>
5.88323

>  <SCORE.INTRA.DIHEDRAL>
4.11666

>  <SCORE.INTRA.DIHEDRAL.0>
10.8409

>  <SCORE.INTRA.POLAR>
0

>  <SCORE.INTRA.POLAR.0>
0

>  <SCORE.INTRA.REPUL>
0

>  <SCORE.INTRA.REPUL.0>
0

>  <SCORE.INTRA.SOLV>
1.77373

>  <SCORE.INTRA.SOLV.lig_0>
-80.8302

>  <SCORE.INTRA.VDW>
2.93804

>  <SCORE.INTRA.VDW.0>
-4.23953

>  <SCORE.INTRA.norm>
0.189782

>  <SCORE.RESTR>
0.485448

>  <SCORE.RESTR.CAVITY>
0.485448

>  <SCORE.RESTR.norm>
0.0156596

>  <SCORE.SYSTEM>
0

>  <SCORE.SYSTEM.CONST>
0

>  <SCORE.SYSTEM.DIHEDRAL>
0

>  <SCORE.SYSTEM.SOLV>
0

>  <SCORE.SYSTEM.norm>
0

>  <SCORE.heavy>
31

>  <SCORE.norm>
0.00845736

>  <RMSD>
6.304

$$$$
2fcz_lig
 OpenBabel11021811433D
libRbt.so/2013.1/901 2013/11/27
 31 33  0  0  0  0  0  0  0  0999 V2000
    7.3651   20.0031   31.8913 C   0  0  0  0  0  0  0  0  0  0  0  0
   14.3060   20.0860   37.1040 N   0  0  0  0  0  0  0  0  0  0  0  0
    8.1569   18.8257   32.0707 O   0  0  0  0  0  0  0  0  0  0  0  0
    7.9719   21.1590   32.6940 C   0  0  1  0  0  0  0  0  0  0  0  0
   10.8961   17.3634   39.3191 N   0  0  0  0  0  0  0  0  0  0  0  0
    8.1849   20.7962   34.0733 O   0  0  0  0  0  0  0  0  0  0  0  0
    9.5970   20.6461   34.3207 C   0  0  1  0  0  0  0  0  0  0  0  0
    7.8569   14.1997   35.5811 N   0  0  0  0  0  0  0  0  0  0  0  0
    9.9038   19.4627   35.0775 O   0  0  0  0  0  0  0  0  0  0  0  0
   10.5811   19.7151   36.3202 C   0  0  2  0  0  0  0  0  0  0  0  0
    6.2884   19.4796   38.0498 N   0  0  0  0  0  0  0  0  0  0  0  0
   12.3537   20.9686   35.2524 O   0  0  0  0  0  0  0  0  0  0  0  0
   12.0890   19.8188   36.0598 C   0  0  1  0  0  0  0  0  0  0  0  0
    8.9112   18.6237   37.7639 O   0  0  0  0  0  0  0  0  0  0  0  0
   12.8680   19.9446   37.3712 C   0  0  1  0  0  0  0  0  0  0  0  0
    8.2935   16.8461   36.3386 O   0  0  0  0  0  0  0  0  0  0  0  0
   12.6285   18.7116   38.2454 C   0  0  0  0  0  0  0  0  0  0  0  0
    6.8930   14.7578   39.0304 O   0  0  0  0  0  0  0  0  0  0  0  0
   11.1359   18.6031   38.5635 C   0  0  1  0  0  0  0  0  0  0  0  0
    5.1711   17.0567   39.0869 O   0  0  0  0  0  0  0  0  0  0  0  0
   10.2697   18.5849   37.2993 C   0  0  2  0  0  0  0  0  0  0  0  0
   11.6029   20.8980   32.8967 O   0  0  0  0  0  0  0  0  0  0  0  0
    7.9528   18.1674   36.7981 C   0  0  1  0  0  0  0  0  0  0  0  0
    9.6942   22.8809   32.4794 O   0  0  0  0  0  0  0  0  0  0  0  0
    8.2962   15.8399   37.3661 C   0  0  2  0  0  0  0  0  0  0  0  0
    8.7049   14.5028   36.7431 C   0  0  0  0  0  0  0  0  0  0  0  0
    6.8974   15.7335   37.9838 C   0  0  2  0  0  0  0  0  0  0  0  0
    6.4999   17.0957   38.5564 C   0  0  1  0  0  0  0  0  0  0  0  0
    6.5722   18.1630   37.4621 C   0  0  1  0  0  0  0  0  0  0  0  0
   10.2169   20.5438   32.9261 C   0  0  2  0  0  0  0  0  0  0  0  0
    9.3503   21.5328   32.1488 C   0  0  1  0  0  0  0  0  0  0  0  0
  3  1  1  0  0  0  0
  4  1  1  6  0  0  0
  4  6  1  0  0  0  0
  4 31  1  0  0  0  0
  6  7  1  0  0  0  0
  7  9  1  1  0  0  0
  7 30  1  0  0  0  0
 10  9  1  6  0  0  0
 10 13  1  0  0  0  0
 10 21  1  0  0  0  0
 13 12  1  6  0  0  0
 13 15  1  0  0  0  0
 15  2  1  6  0  0  0
 15 17  1  0  0  0  0
 16 25  1  0  0  0  0
 17 19  1  0  0  0  0
 19  5  1  6  0  0  0
 19 21  1  0  0  0  0
 21 14  1  1  0  0  0
 23 14  1  1  0  0  0
 23 16  1  0  0  0  0
 23 29  1  0  0  0  0
 25 26  1  6  0  0  0
 25 27  1  0  0  0  0
 26  8  1  0  0  0  0
 27 18  1  1  0  0  0
 27 28  1  0  0  0  0
 28 20  1  6  0  0  0
 28 29  1  0  0  0  0
 29 11  1  1  0  0  0
 30 22  1  1  0  0  0
 30 31  1  0  0  0  0
 31 24  1  1  0  0  0
M  END
>  <CHROM.1>
-52.47242333,-121.00089304,-85.32260472,75.33220683,54.86109376,-53.10328878
9.25731359,18.75176090,35.99669716,1.12472154,-0.39563435,-0.95148672

>  <Name>
2fcz_lig

>  <RI>
1.32928e+07

>  <Rbt.Current_Directory>
/home/itssahil/PROJECTS/Mol_Feturizer/New_Systems/rnas/2fcz

>  <Rbt.Executable>
rbdock ($Id: //depot/dev/client3/rdock/2013.1/src/exe/rbdock.cxx#4 $)

>  <Rbt.Library>
libRbt.so (2013.1, Build901 2013/11/27)

>  <Rbt.Parameter_File>
/export/apps/rDock/src/rDock_2013.1_src/data/scripts/dock_solv.prm

>  <Rbt.Receptor>
prm/pocket_docking_7.prm

>  <SCORE>
-15.1168

>  <SCORE.INTER>
-16.6253

>  <SCORE.INTER.CONST>
1

>  <SCORE.INTER.POLAR>
-2.66498

>  <SCORE.INTER.ROT>
6

>  <SCORE.INTER.SOLV>
17.2936

>  <SCORE.INTER.VDW>
-15.5648

>  <SCORE.INTER.norm>
-0.5363

>  <SCORE.INTRA>
1.5085

>  <SCORE.INTRA.DIHEDRAL>
0.698193

>  <SCORE.INTRA.DIHEDRAL.0>
10.8409

>  <SCORE.INTRA.POLAR>
0

>  <SCORE.INTRA.POLAR.0>
0

>  <SCORE.INTRA.REPUL>
0

>  <SCORE.INTRA.REPUL.0>
0

>  <SCORE.INTRA.SOLV>
-0.950344

>  <SCORE.INTRA.SOLV.lig_0>
-80.8302

>  <SCORE.INTRA.VDW>
1.63458

>  <SCORE.INTRA.VDW.0>
-4.23953

>  <SCORE.INTRA.norm>
0.0486613

>  <SCORE.RESTR>
0

>  <SCORE.RESTR.CAVITY>
0

>  <SCORE.RESTR.norm>
0

>  <SCORE.SYSTEM>
0

>  <SCORE.SYSTEM.CONST>
0

>  <SCORE.SYSTEM.DIHEDRAL>
0

>  <SCORE.SYSTEM.SOLV>
0

>  <SCORE.SYSTEM.norm>
0

>  <SCORE.heavy>
31

>  <SCORE.norm>
-0.487638

>  <RMSD>
6.310

$$$$
2fcz_lig
 OpenBabel11021811433D
libRbt.so/2013.1/901 2013/11/27
 31 33  0  0  0  0  0  0  0  0999 V2000
    7.9165   20.0355   30.1835 C   0  0  0  0  0  0  0  0  0  0  0  0
   12.1427   23.6482   33.6345 N   0  0  0  0  0  0  0  0  0  0  0  0
    7.5298   19.1828   29.1023 O   0  0  0  0  0  0  0  0  0  0  0  0
    9.1740   19.4752   30.8568 C   0  0  1  0  0  0  0  0  0  0  0  0
   12.4968   20.2417   37.1298 N   0  0  0  0  0  0  0  0  0  0  0  0
    9.5538   20.2542   32.0094 O   0  0  0  0  0  0  0  0  0  0  0  0
    9.2788   19.5056   33.2101 C   0  0  1  0  0  0  0  0  0  0  0  0
   13.7125   18.1083   38.2869 N   0  0  0  0  0  0  0  0  0  0  0  0
    8.6341   20.2986   34.2214 O   0  0  0  0  0  0  0  0  0  0  0  0
    9.5168   21.1868   34.9277 C   0  0  2  0  0  0  0  0  0  0  0  0
    7.2391   18.7387   37.5993 N   0  0  0  0  0  0  0  0  0  0  0  0
    9.4661   22.8488   33.1702 O   0  0  0  0  0  0  0  0  0  0  0  0
   10.3375   21.9929   33.9134 C   0  0  1  0  0  0  0  0  0  0  0  0
    9.7164   19.8092   36.9590 O   0  0  0  0  0  0  0  0  0  0  0  0
   11.3937   22.8500   34.6148 C   0  0  1  0  0  0  0  0  0  0  0  0
   10.8120   17.7391   37.2544 O   0  0  0  0  0  0  0  0  0  0  0  0
   12.3614   21.9578   35.3952 C   0  0  0  0  0  0  0  0  0  0  0  0
   10.6547   17.8229   40.9335 O   0  0  0  0  0  0  0  0  0  0  0  0
   11.5807   21.1710   36.4498 C   0  0  1  0  0  0  0  0  0  0  0  0
    7.8759   17.7480   40.2084 O   0  0  0  0  0  0  0  0  0  0  0  0
   10.4257   20.3676   35.8420 C   0  0  2  0  0  0  0  0  0  0  0  0
    8.3434   17.2548   33.6268 O   0  0  0  0  0  0  0  0  0  0  0  0
    9.5729   18.3825   36.9027 C   0  0  1  0  0  0  0  0  0  0  0  0
   10.1462   17.3282   31.5069 O   0  0  0  0  0  0  0  0  0  0  0  0
   11.2693   18.0158   38.5895 C   0  0  2  0  0  0  0  0  0  0  0  0
   12.6031   17.2981   38.8104 C   0  0  0  0  0  0  0  0  0  0  0  0
   10.2273   17.5252   39.6009 C   0  0  2  0  0  0  0  0  0  0  0  0
    8.8954   18.2263   39.3251 C   0  0  1  0  0  0  0  0  0  0  0  0
    8.4638   17.9761   37.8783 C   0  0  1  0  0  0  0  0  0  0  0  0
    8.3405   18.3876   32.7527 C   0  0  2  0  0  0  0  0  0  0  0  0
    8.9245   18.0606   31.3797 C   0  0  1  0  0  0  0  0  0  0  0  0
  3  1  1  0  0  0  0
  4  1  1  1  0  0  0
  4  6  1  0  0  0  0
  4 31  1  0  0  0  0
  6  7  1  0  0  0  0
  7  9  1  1  0  0  0
  7 30  1  0  0  0  0
 10  9  1  6  0  0  0
 10 13  1  0  0  0  0
 10 21  1  0  0  0  0
 13 12  1  1  0  0  0
 13 15  1  0  0  0  0
 15  2  1  6  0  0  0
 15 17  1  0  0  0  0
 16 25  1  0  0  0  0
 17 19  1  0  0  0  0
 19  5  1  6  0  0  0
 19 21  1  0  0  0  0
 21 14  1  1  0  0  0
 23 14  1  1  0  0  0
 23 16  1  0  0  0  0
 23 29  1  0  0  0  0
 25 26  1  1  0  0  0
 25 27  1  0  0  0  0
 26  8  1  0  0  0  0
 27 18  1  1  0  0  0
 27 28  1  0  0  0  0
 28 20  1  1  0  0  0
 28 29  1  0  0  0  0
 29 11  1  6  0  0  0
 30 22  1  1  0  0  0
 30 31  1  0  0  0  0
 31 24  1  1  0  0  0
M  END
>  <CHROM.1>
-176.24605838,-77.16353375,50.29190648,110.49287050,76.32322232,83.78506627
9.92870821,19.44464567,35.34004608,1.85940757,-0.86339232,-1.11267692

>  <Name>
2fcz_lig

>  <RI>
2.26996e+07

>  <Rbt.Current_Directory>
/home/itssahil/PROJECTS/Mol_Feturizer/New_Systems/rnas/2fcz

>  <Rbt.Executable>
rbdock ($Id: //depot/dev/client3/rdock/2013.1/src/exe/rbdock.cxx#4 $)

>  <Rbt.Library>
libRbt.so (2013.1, Build901 2013/11/27)

>  <Rbt.Parameter_File>
/export/apps/rDock/src/rDock_2013.1_src/data/scripts/dock_solv.prm

>  <Rbt.Receptor>
prm/pocket_docking_4.prm

>  <SCORE>
-17.1285

>  <SCORE.INTER>
-20.342

>  <SCORE.INTER.CONST>
1

>  <SCORE.INTER.POLAR>
-2.67398

>  <SCORE.INTER.ROT>
6

>  <SCORE.INTER.SOLV>
21.3569

>  <SCORE.INTER.VDW>
-19.367

>  <SCORE.INTER.norm>
-0.656194

>  <SCORE.INTRA>
3.21357

>  <SCORE.INTRA.DIHEDRAL>
0.82049

>  <SCORE.INTRA.DIHEDRAL.0>
10.8409

>  <SCORE.INTRA.POLAR>
0

>  <SCORE.INTRA.POLAR.0>
0

>  <SCORE.INTRA.REPUL>
0

>  <SCORE.INTRA.REPUL.0>
0

>  <SCORE.INTRA.SOLV>
1.33866

>  <SCORE.INTRA.SOLV.lig_0>
-80.8302

>  <SCORE.INTRA.VDW>
2.13399

>  <SCORE.INTRA.VDW.0>
-4.23953

>  <SCORE.INTRA.norm>
0.103663

>  <SCORE.RESTR>
0

>  <SCORE.RESTR.CAVITY>
0

>  <SCORE.RESTR.norm>
0

>  <SCORE.SYSTEM>
0

>  <SCORE.SYSTEM.CONST>
0

>  <SCORE.SYSTEM.DIHEDRAL>
0

>  <SCORE.SYSTEM.SOLV>
0

>  <SCORE.SYSTEM.norm>
0

>  <SCORE.heavy>
31

>  <SCORE.norm>
-0.552531

>  <RMSD>
6.312

$$$$
2fcz_lig
 OpenBabel11021811433D
libRbt.so/2013.1/901 2013/11/27
 31 33  0  0  0  0  0  0  0  0999 V2000
   15.8764   17.2663   37.4519 C   0  0  0  0  0  0  0  0  0  0  0  0
   11.6457   20.0956   38.1032 N   0  0  0  0  0  0  0  0  0  0  0  0
   16.2982   16.0049   37.9776 O   0  0  0  0  0  0  0  0  0  0  0  0
   15.5113   17.1111   35.9716 C   0  0  1  0  0  0  0  0  0  0  0  0
   10.8259   19.7178   33.2936 N   0  0  0  0  0  0  0  0  0  0  0  0
   14.7039   18.2104   35.5035 O   0  0  0  0  0  0  0  0  0  0  0  0
   15.4864   19.0454   34.6271 C   0  0  1  0  0  0  0  0  0  0  0  0
   16.6941   23.3253   34.5400 N   0  0  0  0  0  0  0  0  0  0  0  0
   15.3256   20.4464   34.9078 O   0  0  0  0  0  0  0  0  0  0  0  0
   13.9677   20.8467   35.1585 C   0  0  2  0  0  0  0  0  0  0  0  0
   11.5733   21.9864   30.8559 N   0  0  0  0  0  0  0  0  0  0  0  0
   14.2951   20.9313   37.5542 O   0  0  0  0  0  0  0  0  0  0  0  0
   13.5270   20.3047   36.5239 C   0  0  1  0  0  0  0  0  0  0  0  0
   13.2896   20.9944   32.7959 O   0  0  0  0  0  0  0  0  0  0  0  0
   12.0429   20.5819   36.7747 C   0  0  1  0  0  0  0  0  0  0  0  0
   14.0973   23.1447   33.3402 O   0  0  0  0  0  0  0  0  0  0  0  0
   11.1916   19.8970   35.7033 C   0  0  0  0  0  0  0  0  0  0  0  0
   16.1668   23.4786   30.3115 O   0  0  0  0  0  0  0  0  0  0  0  0
   11.5741   20.4490   34.3285 C   0  0  1  0  0  0  0  0  0  0  0  0
   13.5151   23.3079   29.2194 O   0  0  0  0  0  0  0  0  0  0  0  0
   13.0733   20.3127   34.0414 C   0  0  2  0  0  0  0  0  0  0  0  0
   17.8199   18.9329   33.8164 O   0  0  0  0  0  0  0  0  0  0  0  0
   12.9764   22.3942   32.8368 C   0  0  1  0  0  0  0  0  0  0  0  0
   16.5408   16.4606   33.8516 O   0  0  0  0  0  0  0  0  0  0  0  0
   15.2863   23.0515   32.5368 C   0  0  2  0  0  0  0  0  0  0  0  0
   16.3962   23.8661   33.2058 C   0  0  0  0  0  0  0  0  0  0  0  0
   15.0005   23.5948   31.1323 C   0  0  2  0  0  0  0  0  0  0  0  0
   13.8576   22.7904   30.5091 C   0  0  1  0  0  0  0  0  0  0  0  0
   12.6258   22.8459   31.4155 C   0  0  1  0  0  0  0  0  0  0  0  0
   16.9325   18.6262   34.8963 C   0  0  2  0  0  0  0  0  0  0  0  0
   16.7667   17.1214   35.0995 C   0  0  1  0  0  0  0  0  0  0  0  0
  3  1  1  0  0  0  0
  4  1  1  1  0  0  0
  4  6  1  0  0  0  0
  4 31  1  0  0  0  0
  6  7  1  0  0  0  0
  7  9  1  1  0  0  0
  7 30  1  0  0  0  0
 10  9  1  6  0  0  0
 10 13  1  0  0  0  0
 10 21  1  0  0  0  0
 13 12  1  1  0  0  0
 13 15  1  0  0  0  0
 15  2  1  1  0  0  0
 15 17  1  0  0  0  0
 16 25  1  0  0  0  0
 17 19  1  0  0  0  0
 19  5  1  6  0  0  0
 19 21  1  0  0  0  0
 21 14  1  6  0  0  0
 23 14  1  6  0  0  0
 23 16  1  0  0  0  0
 23 29  1  0  0  0  0
 25 26  1  1  0  0  0
 25 27  1  0  0  0  0
 26  8  1  0  0  0  0
 27 18  1  6  0  0  0
 27 28  1  0  0  0  0
 28 20  1  6  0  0  0
 28 29  1  0  0  0  0
 29 11  1  6  0  0  0
 30 22  1  6  0  0  0
 30 31  1  0  0  0  0
 31 24  1  6  0  0  0
M  END
>  <CHROM.1>
162.06349767,-42.96018400,71.49802295,-62.66768037,84.64535021,61.23544819
14.39489317,20.53358637,34.13351463,-1.37689834,0.30930420,-0.84070352

>  <Name>
2fcz_lig

>  <RI>
2.6968e+07

>  <Rbt.Current_Directory>
/home/itssahil/PROJECTS/Mol_Feturizer/New_Systems/rnas/2fcz

>  <Rbt.Executable>
rbdock ($Id: //depot/dev/client3/rdock/2013.1/src/exe/rbdock.cxx#4 $)

>  <Rbt.Library>
libRbt.so (2013.1, Build901 2013/11/27)

>  <Rbt.Parameter_File>
/export/apps/rDock/src/rDock_2013.1_src/data/scripts/dock_solv.prm

>  <Rbt.Receptor>
prm/blind_docking_60.prm

>  <SCORE>
-12.5007

>  <SCORE.INTER>
-13.6978

>  <SCORE.INTER.CONST>
1

>  <SCORE.INTER.POLAR>
-1.66475

>  <SCORE.INTER.ROT>
6

>  <SCORE.INTER.SOLV>
17.3887

>  <SCORE.INTER.VDW>
-16.9789

>  <SCORE.INTER.norm>
-0.441863

>  <SCORE.INTRA>
1.19706

>  <SCORE.INTRA.DIHEDRAL>
-5.03229

>  <SCORE.INTRA.DIHEDRAL.0>
10.8409

>  <SCORE.INTRA.POLAR>
0

>  <SCORE.INTRA.POLAR.0>
0

>  <SCORE.INTRA.REPUL>
0

>  <SCORE.INTRA.REPUL.0>
0

>  <SCORE.INTRA.SOLV>
-0.294791

>  <SCORE.INTRA.SOLV.lig_0>
-80.8302

>  <SCORE.INTRA.VDW>
3.8606

>  <SCORE.INTRA.VDW.0>
-4.23953

>  <SCORE.INTRA.norm>
0.0386149

>  <SCORE.RESTR>
0

>  <SCORE.RESTR.CAVITY>
0

>  <SCORE.RESTR.norm>
0

>  <SCORE.SYSTEM>
0

>  <SCORE.SYSTEM.CONST>
0

>  <SCORE.SYSTEM.DIHEDRAL>
0

>  <SCORE.SYSTEM.SOLV>
0

>  <SCORE.SYSTEM.norm>
0

>  <SCORE.heavy>
31

>  <SCORE.norm>
-0.403248

>  <RMSD>
6.314

$$$$
2fcz_lig
 OpenBabel11021811433D
libRbt.so/2013.1/901 2013/11/27
 31 33  0  0  0  0  0  0  0  0999 V2000
    8.1572   18.2147   30.7334 C   0  0  0  0  0  0  0  0  0  0  0  0
    9.6686   23.2496   32.2474 N   0  0  0  0  0  0  0  0  0  0  0  0
    8.2133   19.5047   30.1185 O   0  0  0  0  0  0  0  0  0  0  0  0
    9.5283   17.8646   31.3216 C   0  0  1  0  0  0  0  0  0  0  0  0
   13.4607   21.3324   34.6747 N   0  0  0  0  0  0  0  0  0  0  0  0
    9.9264   18.8031   32.3414 O   0  0  0  0  0  0  0  0  0  0  0  0
    9.8535   18.1708   33.6347 C   0  0  1  0  0  0  0  0  0  0  0  0
   16.1609   17.3308   35.7718 N   0  0  0  0  0  0  0  0  0  0  0  0
    9.2232   19.0032   34.6232 O   0  0  0  0  0  0  0  0  0  0  0  0
    9.7707   20.3294   34.7149 C   0  0  2  0  0  0  0  0  0  0  0  0
   10.4203   18.9329   38.5003 N   0  0  0  0  0  0  0  0  0  0  0  0
    7.9764   21.3032   33.4164 O   0  0  0  0  0  0  0  0  0  0  0  0
    9.3936   21.1181   33.4547 C   0  0  1  0  0  0  0  0  0  0  0  0
   11.6741   19.7359   36.1601 O   0  0  0  0  0  0  0  0  0  0  0  0
   10.0728   22.4895   33.4382 C   0  0  1  0  0  0  0  0  0  0  0  0
   12.4684   17.5596   35.7068 O   0  0  0  0  0  0  0  0  0  0  0  0
   11.5939   22.3231   33.4475 C   0  0  0  0  0  0  0  0  0  0  0  0
   15.1015   17.6439   38.2812 O   0  0  0  0  0  0  0  0  0  0  0  0
   12.0105   21.5785   34.7175 C   0  0  1  0  0  0  0  0  0  0  0  0
   12.7075   17.8688   39.8534 O   0  0  0  0  0  0  0  0  0  0  0  0
   11.2873   20.2359   34.8704 C   0  0  2  0  0  0  0  0  0  0  0  0
    9.2216   15.8980   34.3764 O   0  0  0  0  0  0  0  0  0  0  0  0
   11.4303   18.3329   36.3372 C   0  0  1  0  0  0  0  0  0  0  0  0
   10.7937   15.9146   32.0791 O   0  0  0  0  0  0  0  0  0  0  0  0
   13.7847   17.7802   36.2423 C   0  0  2  0  0  0  0  0  0  0  0  0
   14.7831   16.9234   35.4600 C   0  0  0  0  0  0  0  0  0  0  0  0
   13.8053   17.3991   37.7269 C   0  0  2  0  0  0  0  0  0  0  0  0
   12.7661   18.2395   38.4722 C   0  0  1  0  0  0  0  0  0  0  0  0
   11.3860   18.0429   37.8409 C   0  0  1  0  0  0  0  0  0  0  0  0
    9.0076   16.9188   33.3968 C   0  0  2  0  0  0  0  0  0  0  0  0
    9.4908   16.5000   32.0095 C   0  0  1  0  0  0  0  0  0  0  0  0
  3  1  1  0  0  0  0
  4  1  1  1  0  0  0
  4  6  1  0  0  0  0
  4 31  1  0  0  0  0
  6  7  1  0  0  0  0
  7  9  1  1  0  0  0
  7 30  1  0  0  0  0
 10  9  1  6  0  0  0
 10 13  1  0  0  0  0
 10 21  1  0  0  0  0
 13 12  1  1  0  0  0
 13 15  1  0  0  0  0
 15  2  1  6  0  0  0
 15 17  1  0  0  0  0
 16 25  1  0  0  0  0
 17 19  1  0  0  0  0
 19  5  1  6  0  0  0
 19 21  1  0  0  0  0
 21 14  1  1  0  0  0
 23 14  1  1  0  0  0
 23 16  1  0  0  0  0
 23 29  1  0  0  0  0
 25 26  1  6  0  0  0
 25 27  1  0  0  0  0
 26  8  1  0  0  0  0
 27 18  1  1  0  0  0
 27 28  1  0  0  0  0
 28 20  1  1  0  0  0
 28 29  1  0  0  0  0
 29 11  1  1  0  0  0
 30 22  1  1  0  0  0
 30 31  1  0  0  0  0
 31 24  1  1  0  0  0
M  END
>  <CHROM.1>
61.46782988,-51.39483683,70.01496252,72.76960868,79.69234208,167.71826053
11.12043795,18.89347163,34.70283723,2.99241208,-0.89585882,0.11597998

>  <Name>
2fcz_lig

>  <RI>
1.32928e+07

>  <Rbt.Current_Directory>
/home/itssahil/PROJECTS/Mol_Feturizer/New_Systems/rnas/2fcz

>  <Rbt.Executable>
rbdock ($Id: //depot/dev/client3/rdock/2013.1/src/exe/rbdock.cxx#4 $)

>  <Rbt.Library>
libRbt.so (2013.1, Build901 2013/11/27)

>  <Rbt.Parameter_File>
/export/apps/rDock/src/rDock_2013.1_src/data/scripts/dock_solv.prm

>  <Rbt.Receptor>
prm/pocket_docking_7.prm

>  <SCORE>
-19.7656

>  <SCORE.INTER>
-18.1878

>  <SCORE.INTER.CONST>
1

>  <SCORE.INTER.POLAR>
-1.83095

>  <SCORE.INTER.ROT>
6

>  <SCORE.INTER.SOLV>
13.79

>  <SCORE.INTER.VDW>
-18.2187

>  <SCORE.INTER.norm>
-0.586702

>  <SCORE.INTRA>
-1.57785

>  <SCORE.INTRA.DIHEDRAL>
-6.8043

>  <SCORE.INTRA.DIHEDRAL.0>
10.8409

>  <SCORE.INTRA.POLAR>
0

>  <SCORE.INTRA.POLAR.0>
0

>  <SCORE.INTRA.REPUL>
0

>  <SCORE.INTRA.REPUL.0>
0

>  <SCORE.INTRA.SOLV>
-1.71357

>  <SCORE.INTRA.SOLV.lig_0>
-80.8302

>  <SCORE.INTRA.VDW>
2.68109

>  <SCORE.INTRA.VDW.0>
-4.23953

>  <SCORE.INTRA.norm>
-0.0508983

>  <SCORE.RESTR>
0

>  <SCORE.RESTR.CAVITY>
0

>  <SCORE.RESTR.norm>
0

>  <SCORE.SYSTEM>
0

>  <SCORE.SYSTEM.CONST>
0

>  <SCORE.SYSTEM.DIHEDRAL>
0

>  <SCORE.SYSTEM.SOLV>
0

>  <SCORE.SYSTEM.norm>
0

>  <SCORE.heavy>
31

>  <SCORE.norm>
-0.637601

>  <RMSD>
6.314

$$$$
2fcz_lig
 OpenBabel11021811433D
libRbt.so/2013.1/901 2013/11/27
 31 33  0  0  0  0  0  0  0  0999 V2000
    8.4581   17.9084   30.6563 C   0  0  0  0  0  0  0  0  0  0  0  0
   12.1747   22.6074   33.5273 N   0  0  0  0  0  0  0  0  0  0  0  0
    8.6842   19.0918   29.8857 O   0  0  0  0  0  0  0  0  0  0  0  0
    9.6725   17.6364   31.5506 C   0  0  1  0  0  0  0  0  0  0  0  0
   12.3207   20.0642   37.7056 N   0  0  0  0  0  0  0  0  0  0  0  0
    9.8976   18.7113   32.4853 O   0  0  0  0  0  0  0  0  0  0  0  0
    9.5478   18.2768   33.8144 C   0  0  1  0  0  0  0  0  0  0  0  0
   12.9372   16.5893   38.2750 N   0  0  0  0  0  0  0  0  0  0  0  0
    8.7675   19.2511   34.5279 O   0  0  0  0  0  0  0  0  0  0  0  0
    9.5378   20.3241   35.0957 C   0  0  2  0  0  0  0  0  0  0  0  0
    6.9526   18.9790   38.1140 N   0  0  0  0  0  0  0  0  0  0  0  0
    9.5932   21.5613   33.0172 O   0  0  0  0  0  0  0  0  0  0  0  0
   10.4211   20.9419   34.0047 C   0  0  1  0  0  0  0  0  0  0  0  0
    9.5915   19.4324   37.3904 O   0  0  0  0  0  0  0  0  0  0  0  0
   11.3657   21.9944   34.5898 C   0  0  1  0  0  0  0  0  0  0  0  0
   10.1904   17.1748   37.7328 O   0  0  0  0  0  0  0  0  0  0  0  0
   12.2873   21.3537   35.6299 C   0  0  0  0  0  0  0  0  0  0  0  0
   10.1545   17.3946   41.4095 O   0  0  0  0  0  0  0  0  0  0  0  0
   11.4389   20.7659   36.7593 C   0  0  1  0  0  0  0  0  0  0  0  0
    7.4144   17.9411   40.7416 O   0  0  0  0  0  0  0  0  0  0  0  0
   10.3846   19.7798   36.2445 C   0  0  2  0  0  0  0  0  0  0  0  0
    8.6963   16.1436   34.7305 O   0  0  0  0  0  0  0  0  0  0  0  0
    9.1230   18.0760   37.3842 C   0  0  1  0  0  0  0  0  0  0  0  0
   10.6890   15.8080   32.8159 O   0  0  0  0  0  0  0  0  0  0  0  0
   10.7343   17.3757   39.0487 C   0  0  2  0  0  0  0  0  0  0  0  0
   11.8733   16.3768   39.2672 C   0  0  0  0  0  0  0  0  0  0  0  0
    9.6349   17.1663   40.0960 C   0  0  2  0  0  0  0  0  0  0  0  0
    8.4926   18.1473   39.8232 C   0  0  1  0  0  0  0  0  0  0  0  0
    7.9767   17.9630   38.3942 C   0  0  1  0  0  0  0  0  0  0  0  0
    8.7182   17.0110   33.5927 C   0  0  2  0  0  0  0  0  0  0  0  0
    9.4485   16.3884   32.4043 C   0  0  1  0  0  0  0  0  0  0  0  0
  3  1  1  0  0  0  0
  4  1  1  1  0  0  0
  4  6  1  0  0  0  0
  4 31  1  0  0  0  0
  6  7  1  0  0  0  0
  7  9  1  6  0  0  0
  7 30  1  0  0  0  0
 10  9  1  6  0  0  0
 10 13  1  0  0  0  0
 10 21  1  0  0  0  0
 13 12  1  6  0  0  0
 13 15  1  0  0  0  0
 15  2  1  6  0  0  0
 15 17  1  0  0  0  0
 16 25  1  0  0  0  0
 17 19  1  0  0  0  0
 19  5  1  1  0  0  0
 19 21  1  0  0  0  0
 21 14  1  1  0  0  0
 23 14  1  1  0  0  0
 23 16  1  0  0  0  0
 23 29  1  0  0  0  0
 25 26  1  1  0  0  0
 25 27  1  0  0  0  0
 26  8  1  0  0  0  0
 27 18  1  1  0  0  0
 27 28  1  0  0  0  0
 28 20  1  1  0  0  0
 28 29  1  0  0  0  0
 29 11  1  6  0  0  0
 30 22  1  1  0  0  0
 30 31  1  0  0  0  0
 31 24  1  1  0  0  0
M  END
>  <CHROM.1>
61.58142499,-79.79066803,52.22699204,89.88990186,76.08140615,60.65100294
9.88964864,18.63298059,35.81063828,1.59593980,-1.09264706,-1.37622143

>  <Name>
2fcz_lig

>  <RI>
0

>  <Rbt.Current_Directory>
/home/itssahil/PROJECTS/Mol_Feturizer/New_Systems/rnas/2fcz

>  <Rbt.Executable>
rbdock ($Id: //depot/dev/client3/rdock/2013.1/src/exe/rbdock.cxx#4 $)

>  <Rbt.Library>
libRbt.so (2013.1, Build901 2013/11/27)

>  <Rbt.Parameter_File>
/export/apps/rDock/src/rDock_2013.1_src/data/scripts/dock_solv.prm

>  <Rbt.Receptor>
prm/pocket_docking_5.prm

>  <SCORE>
-19.8477

>  <SCORE.INTER>
-18.9935

>  <SCORE.INTER.CONST>
1

>  <SCORE.INTER.POLAR>
-2.08944

>  <SCORE.INTER.ROT>
6

>  <SCORE.INTER.SOLV>
15.7003

>  <SCORE.INTER.VDW>
-18.5309

>  <SCORE.INTER.norm>
-0.612692

>  <SCORE.INTRA>
-0.854196

>  <SCORE.INTRA.DIHEDRAL>
-3.93223

>  <SCORE.INTRA.DIHEDRAL.0>
10.8409

>  <SCORE.INTRA.POLAR>
0

>  <SCORE.INTRA.POLAR.0>
0

>  <SCORE.INTRA.REPUL>
0

>  <SCORE.INTRA.REPUL.0>
0

>  <SCORE.INTRA.SOLV>
-0.87075

>  <SCORE.INTRA.SOLV.lig_0>
-80.8302

>  <SCORE.INTRA.VDW>
1.54729

>  <SCORE.INTRA.VDW.0>
-4.23953

>  <SCORE.INTRA.norm>
-0.0275547

>  <SCORE.RESTR>
0

>  <SCORE.RESTR.CAVITY>
0

>  <SCORE.RESTR.norm>
0

>  <SCORE.SYSTEM>
0

>  <SCORE.SYSTEM.CONST>
0

>  <SCORE.SYSTEM.DIHEDRAL>
0

>  <SCORE.SYSTEM.SOLV>
0

>  <SCORE.SYSTEM.norm>
0

>  <SCORE.heavy>
31

>  <SCORE.norm>
-0.640247

>  <RMSD>
6.315

$$$$
2fcz_lig
 OpenBabel11021811433D
libRbt.so/2013.1/901 2013/11/27
 31 33  0  0  0  0  0  0  0  0999 V2000
    8.1307   18.8257   31.5878 C   0  0  0  0  0  0  0  0  0  0  0  0
    9.7397   17.1668   39.5742 N   0  0  0  0  0  0  0  0  0  0  0  0
    7.8515   19.8874   30.6711 O   0  0  0  0  0  0  0  0  0  0  0  0
    8.0448   19.3504   33.0251 C   0  0  1  0  0  0  0  0  0  0  0  0
   13.5709   19.3920   37.4961 N   0  0  0  0  0  0  0  0  0  0  0  0
    8.2455   18.2976   33.9899 O   0  0  0  0  0  0  0  0  0  0  0  0
    9.5312   18.4596   34.6212 C   0  0  1  0  0  0  0  0  0  0  0  0
   12.0293   13.1201   33.8565 N   0  0  0  0  0  0  0  0  0  0  0  0
   10.2608   17.2244   34.7161 O   0  0  0  0  0  0  0  0  0  0  0  0
   10.9698   17.0507   35.9547 C   0  0  2  0  0  0  0  0  0  0  0  0
   15.8435   17.7460   34.5614 N   0  0  0  0  0  0  0  0  0  0  0  0
    9.0626   16.0534   37.0601 O   0  0  0  0  0  0  0  0  0  0  0  0
    9.9783   17.1497   37.1206 C   0  0  1  0  0  0  0  0  0  0  0  0
   13.1363   17.8969   35.1461 O   0  0  0  0  0  0  0  0  0  0  0  0
   10.7047   17.1143   38.4673 C   0  0  1  0  0  0  0  0  0  0  0  0
   12.8629   15.5559   35.0122 O   0  0  0  0  0  0  0  0  0  0  0  0
   11.6715   18.2956   38.5744 C   0  0  0  0  0  0  0  0  0  0  0  0
   13.0424   15.4287   31.3354 O   0  0  0  0  0  0  0  0  0  0  0  0
   12.7054   18.2027   37.4504 C   0  0  1  0  0  0  0  0  0  0  0  0
   15.6498   16.4097   32.0372 O   0  0  0  0  0  0  0  0  0  0  0  0
   12.0553   18.1196   36.0651 C   0  0  2  0  0  0  0  0  0  0  0  0
   11.3417   20.1258   34.3752 O   0  0  0  0  0  0  0  0  0  0  0  0
   13.7819   16.6250   35.3044 C   0  0  1  0  0  0  0  0  0  0  0  0
    8.7953   21.2505   34.3682 O   0  0  0  0  0  0  0  0  0  0  0  0
   12.3596   15.5540   33.6651 C   0  0  2  0  0  0  0  0  0  0  0  0
   11.3766   14.3909   33.5097 C   0  0  0  0  0  0  0  0  0  0  0  0
   13.5254   15.4002   32.6819 C   0  0  2  0  0  0  0  0  0  0  0  0
   14.5115   16.5510   32.8933 C   0  0  1  0  0  0  0  0  0  0  0  0
   14.9794   16.5763   34.3502 C   0  0  1  0  0  0  0  0  0  0  0  0
   10.2798   19.4343   33.7106 C   0  0  2  0  0  0  0  0  0  0  0  0
    9.1484   20.3730   33.2957 C   0  0  1  0  0  0  0  0  0  0  0  0
  3  1  1  0  0  0  0
  4  1  1  6  0  0  0
  4  6  1  0  0  0  0
  4 31  1  0  0  0  0
  6  7  1  0  0  0  0
  7  9  1  6  0  0  0
  7 30  1  0  0  0  0
 10  9  1  6  0  0  0
 10 13  1  0  0  0  0
 10 21  1  0  0  0  0
 13 12  1  1  0  0  0
 13 15  1  0  0  0  0
 15  2  1  1  0  0  0
 15 17  1  0  0  0  0
 16 25  1  0  0  0  0
 17 19  1  0  0  0  0
 19  5  1  6  0  0  0
 19 21  1  0  0  0  0
 21 14  1  6  0  0  0
 23 14  1  6  0  0  0
 23 16  1  0  0  0  0
 23 29  1  0  0  0  0
 25 26  1  1  0  0  0
 25 27  1  0  0  0  0
 26  8  1  0  0  0  0
 27 18  1  6  0  0  0
 27 28  1  0  0  0  0
 28 20  1  6  0  0  0
 28 29  1  0  0  0  0
 29 11  1  6  0  0  0
 30 22  1  1  0  0  0
 30 31  1  0  0  0  0
 31 24  1  1  0  0  0
M  END
>  <CHROM.1>
176.76853313,-140.08624581,57.05949805,-58.10782693,63.91233212,-56.75690171
11.43303594,17.52875822,34.68089897,3.13153867,-0.55574037,1.54179847

>  <Name>
2fcz_lig

>  <RI>
1.32928e+07

>  <Rbt.Current_Directory>
/home/itssahil/PROJECTS/Mol_Feturizer/New_Systems/rnas/2fcz

>  <Rbt.Executable>
rbdock ($Id: //depot/dev/client3/rdock/2013.1/src/exe/rbdock.cxx#4 $)

>  <Rbt.Library>
libRbt.so (2013.1, Build901 2013/11/27)

>  <Rbt.Parameter_File>
/export/apps/rDock/src/rDock_2013.1_src/data/scripts/dock_solv.prm

>  <Rbt.Receptor>
prm/pocket_docking_7.prm

>  <SCORE>
-12.8381

>  <SCORE.INTER>
-14.1701

>  <SCORE.INTER.CONST>
1

>  <SCORE.INTER.POLAR>
-2.17816

>  <SCORE.INTER.ROT>
6

>  <SCORE.INTER.SOLV>
9.2225

>  <SCORE.INTER.VDW>
-12.8604

>  <SCORE.INTER.norm>
-0.457099

>  <SCORE.INTRA>
1.28212

>  <SCORE.INTRA.DIHEDRAL>
-5.1795

>  <SCORE.INTRA.DIHEDRAL.0>
10.8409

>  <SCORE.INTRA.POLAR>
0

>  <SCORE.INTRA.POLAR.0>
0

>  <SCORE.INTRA.REPUL>
0

>  <SCORE.INTRA.REPUL.0>
0

>  <SCORE.INTRA.SOLV>
-0.911296

>  <SCORE.INTRA.SOLV.lig_0>
-80.8302

>  <SCORE.INTRA.VDW>
4.32752

>  <SCORE.INTRA.VDW.0>
-4.23953

>  <SCORE.INTRA.norm>
0.0413588

>  <SCORE.RESTR>
0.0498076

>  <SCORE.RESTR.CAVITY>
0.0498076

>  <SCORE.RESTR.norm>
0.0016067

>  <SCORE.SYSTEM>
0

>  <SCORE.SYSTEM.CONST>
0

>  <SCORE.SYSTEM.DIHEDRAL>
0

>  <SCORE.SYSTEM.SOLV>
0

>  <SCORE.SYSTEM.norm>
0

>  <SCORE.heavy>
31

>  <SCORE.norm>
-0.414134

>  <RMSD>
6.316

$$$$
2fcz_lig
 OpenBabel11021811433D
libRbt.so/2013.1/901 2013/11/27
 31 33  0  0  0  0  0  0  0  0999 V2000
    7.3745   19.4888   29.5791 C   0  0  0  0  0  0  0  0  0  0  0  0
   10.6317   23.8747   29.4032 N   0  0  0  0  0  0  0  0  0  0  0  0
    7.5999   20.5704   28.6709 O   0  0  0  0  0  0  0  0  0  0  0  0
    8.7175   18.8884   30.0082 C   0  0  1  0  0  0  0  0  0  0  0  0
   14.0936   21.7010   32.0935 N   0  0  0  0  0  0  0  0  0  0  0  0
    9.5449   19.8590   30.6811 O   0  0  0  0  0  0  0  0  0  0  0  0
    9.6122   19.5449   32.0863 C   0  0  1  0  0  0  0  0  0  0  0  0
   15.2967   17.1820   32.9329 N   0  0  0  0  0  0  0  0  0  0  0  0
    9.4352   20.7020   32.9213 O   0  0  0  0  0  0  0  0  0  0  0  0
   10.3045   21.8011   32.6000 C   0  0  2  0  0  0  0  0  0  0  0  0
   11.7506   21.0670   36.8035 N   0  0  0  0  0  0  0  0  0  0  0  0
    8.6645   22.8515   31.1645 O   0  0  0  0  0  0  0  0  0  0  0  0
    9.9835   22.3002   31.1858 C   0  0  1  0  0  0  0  0  0  0  0  0
   12.1628   21.1109   34.0610 O   0  0  0  0  0  0  0  0  0  0  0  0
   10.9772   23.3762   30.7416 C   0  0  1  0  0  0  0  0  0  0  0  0
   12.0798   18.7573   33.8982 O   0  0  0  0  0  0  0  0  0  0  0  0
   12.3971   22.8059   30.7248 C   0  0  0  0  0  0  0  0  0  0  0  0
   15.4186   18.2238   35.3597 O   0  0  0  0  0  0  0  0  0  0  0  0
   12.7682   22.3392   32.1338 C   0  0  1  0  0  0  0  0  0  0  0  0
   13.9911   19.4422   37.5348 O   0  0  0  0  0  0  0  0  0  0  0  0
   11.7565   21.3381   32.7022 C   0  0  2  0  0  0  0  0  0  0  0  0
    8.6364   17.7412   33.4681 O   0  0  0  0  0  0  0  0  0  0  0  0
   11.6284   19.9091   34.6348 C   0  0  1  0  0  0  0  0  0  0  0  0
    9.6157   16.8514   31.0189 O   0  0  0  0  0  0  0  0  0  0  0  0
   13.5056   18.5699   33.9000 C   0  0  2  0  0  0  0  0  0  0  0  0
   13.8400   17.3366   33.0574 C   0  0  0  0  0  0  0  0  0  0  0  0
   13.9963   18.3796   35.3396 C   0  0  2  0  0  0  0  0  0  0  0  0
   13.6073   19.6074   36.1658 C   0  0  1  0  0  0  0  0  0  0  0  0
   12.0948   19.8282   36.0918 C   0  0  1  0  0  0  0  0  0  0  0  0
    8.4605   18.5637   32.3105 C   0  0  2  0  0  0  0  0  0  0  0  0
    8.5088   17.7567   31.0145 C   0  0  1  0  0  0  0  0  0  0  0  0
  3  1  1  0  0  0  0
  4  1  1  1  0  0  0
  4  6  1  0  0  0  0
  4 31  1  0  0  0  0
  6  7  1  0  0  0  0
  7  9  1  1  0  0  0
  7 30  1  0  0  0  0
 10  9  1  6  0  0  0
 10 13  1  0  0  0  0
 10 21  1  0  0  0  0
 13 12  1  1  0  0  0
 13 15  1  0  0  0  0
 15  2  1  6  0  0  0
 15 17  1  0  0  0  0
 16 25  1  0  0  0  0
 17 19  1  0  0  0  0
 19  5  1  6  0  0  0
 19 21  1  0  0  0  0
 21 14  1  1  0  0  0
 23 14  1  6  0  0  0
 23 16  1  0  0  0  0
 23 29  1  0  0  0  0
 25 26  1  6  0  0  0
 25 27  1  0  0  0  0
 26  8  1  0  0  0  0
 27 18  1  6  0  0  0
 27 28  1  0  0  0  0
 28 20  1  1  0  0  0
 28 29  1  0  0  0  0
 29 11  1  1  0  0  0
 30 22  1  1  0  0  0
 30 31  1  0  0  0  0
 31 24  1  1  0  0  0
M  END
>  <CHROM.1>
60.76876857,-52.30730778,63.60919430,74.38528382,61.40412651,174.83550122
11.21991720,20.03369156,32.71953960,2.66137553,-0.68961553,-0.36269632

>  <Name>
2fcz_lig

>  <RI>
2.6968e+07

>  <Rbt.Current_Directory>
/home/itssahil/PROJECTS/Mol_Feturizer/New_Systems/rnas/2fcz

>  <Rbt.Executable>
rbdock ($Id: //depot/dev/client3/rdock/2013.1/src/exe/rbdock.cxx#4 $)

>  <Rbt.Library>
libRbt.so (2013.1, Build901 2013/11/27)

>  <Rbt.Parameter_File>
/export/apps/rDock/src/rDock_2013.1_src/data/scripts/dock_solv.prm

>  <Rbt.Receptor>
prm/blind_docking_60.prm

>  <SCORE>
-15.8817

>  <SCORE.INTER>
-14.1707

>  <SCORE.INTER.CONST>
1

>  <SCORE.INTER.POLAR>
-0.894427

>  <SCORE.INTER.ROT>
6

>  <SCORE.INTER.SOLV>
18.4124

>  <SCORE.INTER.VDW>
-20.2032

>  <SCORE.INTER.norm>
-0.457118

>  <SCORE.INTRA>
-2.19597

>  <SCORE.INTRA.DIHEDRAL>
-9.27513

>  <SCORE.INTRA.DIHEDRAL.0>
10.8409

>  <SCORE.INTRA.POLAR>
0

>  <SCORE.INTRA.POLAR.0>
0

>  <SCORE.INTRA.REPUL>
0

>  <SCORE.INTRA.REPUL.0>
0

>  <SCORE.INTRA.SOLV>
-1.49817

>  <SCORE.INTRA.SOLV.lig_0>
-80.8302

>  <SCORE.INTRA.VDW>
3.19068

>  <SCORE.INTRA.VDW.0>
-4.23953

>  <SCORE.INTRA.norm>
-0.0708379

>  <SCORE.RESTR>
0.48496

>  <SCORE.RESTR.CAVITY>
0.48496

>  <SCORE.RESTR.norm>
0.0156439

>  <SCORE.SYSTEM>
0

>  <SCORE.SYSTEM.CONST>
0

>  <SCORE.SYSTEM.DIHEDRAL>
0

>  <SCORE.SYSTEM.SOLV>
0

>  <SCORE.SYSTEM.norm>
0

>  <SCORE.heavy>
31

>  <SCORE.norm>
-0.512312

>  <RMSD>
6.319

$$$$
2fcz_lig
 OpenBabel11021811433D
libRbt.so/2013.1/901 2013/11/27
 31 33  0  0  0  0  0  0  0  0999 V2000
    7.4292   12.4515   38.5263 C   0  0  0  0  0  0  0  0  0  0  0  0
    5.9438   16.5121   42.0448 N   0  0  0  0  0  0  0  0  0  0  0  0
    6.5529   12.6228   39.6436 O   0  0  0  0  0  0  0  0  0  0  0  0
    7.2500   13.6173   37.5479 C   0  0  1  0  0  0  0  0  0  0  0  0
    6.6212   19.8144   38.4975 N   0  0  0  0  0  0  0  0  0  0  0  0
    7.4847   14.8893   38.1854 O   0  0  0  0  0  0  0  0  0  0  0  0
    8.7299   15.4427   37.7153 C   0  0  1  0  0  0  0  0  0  0  0  0
    9.1736   17.9293   33.1494 N   0  0  0  0  0  0  0  0  0  0  0  0
    9.5392   15.9688   38.7808 O   0  0  0  0  0  0  0  0  0  0  0  0
    8.8675   16.9283   39.6146 C   0  0  2  0  0  0  0  0  0  0  0  0
   11.9601   19.4784   38.2783 N   0  0  0  0  0  0  0  0  0  0  0  0
    8.4053   15.3003   41.3437 O   0  0  0  0  0  0  0  0  0  0  0  0
    7.7862   16.2134   40.4343 C   0  0  1  0  0  0  0  0  0  0  0  0
    9.2562   18.8729   38.1547 O   0  0  0  0  0  0  0  0  0  0  0  0
    6.9468   17.2141   41.2322 C   0  0  1  0  0  0  0  0  0  0  0  0
    9.4486   17.9445   35.9928 O   0  0  0  0  0  0  0  0  0  0  0  0
    6.2458   18.1876   40.2822 C   0  0  0  0  0  0  0  0  0  0  0  0
    9.7816   21.1914   34.2855 O   0  0  0  0  0  0  0  0  0  0  0  0
    7.2994   18.9530   39.4791 C   0  0  1  0  0  0  0  0  0  0  0  0
   12.1212   21.1386   35.9519 O   0  0  0  0  0  0  0  0  0  0  0  0
    8.2583   18.0178   38.7343 C   0  0  2  0  0  0  0  0  0  0  0  0
   10.4286   14.6598   36.0978 O   0  0  0  0  0  0  0  0  0  0  0  0
   10.1308   18.2051   37.2336 C   0  0  1  0  0  0  0  0  0  0  0  0
    7.8125   14.2303   35.2489 O   0  0  0  0  0  0  0  0  0  0  0  0
    9.0041   19.1226   35.2981 C   0  0  2  0  0  0  0  0  0  0  0  0
    8.2726   18.6946   34.0235 C   0  0  0  0  0  0  0  0  0  0  0  0
   10.2122   19.9992   34.9493 C   0  0  2  0  0  0  0  0  0  0  0  0
   10.9471   20.3719   36.2387 C   0  0  1  0  0  0  0  0  0  0  0  0
   11.3485   19.1038   36.9957 C   0  0  1  0  0  0  0  0  0  0  0  0
    9.4446   14.2614   37.0572 C   0  0  2  0  0  0  0  0  0  0  0  0
    8.2681   13.5323   36.4109 C   0  0  1  0  0  0  0  0  0  0  0  0
  3  1  1  0  0  0  0
  4  1  1  1  0  0  0
  4  6  1  0  0  0  0
  4 31  1  0  0  0  0
  6  7  1  0  0  0  0
  7  9  1  1  0  0  0
  7 30  1  0  0  0  0
 10  9  1  6  0  0  0
 10 13  1  0  0  0  0
 10 21  1  0  0  0  0
 13 12  1  1  0  0  0
 13 15  1  0  0  0  0
 15  2  1  6  0  0  0
 15 17  1  0  0  0  0
 16 25  1  0  0  0  0
 17 19  1  0  0  0  0
 19  5  1  6  0  0  0
 19 21  1  0  0  0  0
 21 14  1  1  0  0  0
 23 14  1  1  0  0  0
 23 16  1  0  0  0  0
 23 29  1  0  0  0  0
 25 26  1  6  0  0  0
 25 27  1  0  0  0  0
 26  8  1  0  0  0  0
 27 18  1  1  0  0  0
 27 28  1  0  0  0  0
 28 20  1  6  0  0  0
 28 29  1  0  0  0  0
 29 11  1  1  0  0  0
 30 22  1  6  0  0  0
 30 31  1  0  0  0  0
 31 24  1  6  0  0  0
M  END
>  <CHROM.1>
57.08552932,-53.97952187,69.16799689,64.85626762,74.39658229,-60.27879134
8.75152376,17.10190176,37.64196767,-2.82840455,1.12644680,0.58430501

>  <Name>
2fcz_lig

>  <RI>
0

>  <Rbt.Current_Directory>
/home/itssahil/PROJECTS/Mol_Feturizer/New_Systems/rnas/2fcz

>  <Rbt.Executable>
rbdock ($Id: //depot/dev/client3/rdock/2013.1/src/exe/rbdock.cxx#4 $)

>  <Rbt.Library>
libRbt.so (2013.1, Build901 2013/11/27)

>  <Rbt.Parameter_File>
/export/apps/rDock/src/rDock_2013.1_src/data/scripts/dock_solv.prm

>  <Rbt.Receptor>
prm/pocket_docking_6.prm

>  <SCORE>
-16.8472

>  <SCORE.INTER>
-14.3396

>  <SCORE.INTER.CONST>
1

>  <SCORE.INTER.POLAR>
-2.85075

>  <SCORE.INTER.ROT>
6

>  <SCORE.INTER.SOLV>
15.9248

>  <SCORE.INTER.VDW>
-12.9655

>  <SCORE.INTER.norm>
-0.462566

>  <SCORE.INTRA>
-2.50765

>  <SCORE.INTRA.DIHEDRAL>
-8.98911

>  <SCORE.INTRA.DIHEDRAL.0>
10.8409

>  <SCORE.INTRA.POLAR>
0

>  <SCORE.INTRA.POLAR.0>
0

>  <SCORE.INTRA.REPUL>
0

>  <SCORE.INTRA.REPUL.0>
0

>  <SCORE.INTRA.SOLV>
-1.55875

>  <SCORE.INTRA.SOLV.lig_0>
-80.8302

>  <SCORE.INTRA.VDW>
2.76628

>  <SCORE.INTRA.VDW.0>
-4.23953

>  <SCORE.INTRA.norm>
-0.080892

>  <SCORE.RESTR>
0

>  <SCORE.RESTR.CAVITY>
0

>  <SCORE.RESTR.norm>
0

>  <SCORE.SYSTEM>
0

>  <SCORE.SYSTEM.CONST>
0

>  <SCORE.SYSTEM.DIHEDRAL>
0

>  <SCORE.SYSTEM.SOLV>
0

>  <SCORE.SYSTEM.norm>
0

>  <SCORE.heavy>
31

>  <SCORE.norm>
-0.543458

>  <RMSD>
6.321

$$$$
2fcz_lig
 OpenBabel11021811433D
libRbt.so/2013.1/901 2013/11/27
 31 33  0  0  0  0  0  0  0  0999 V2000
   11.8629   22.4052   32.9495 C   0  0  0  0  0  0  0  0  0  0  0  0
   12.2474   18.0330   40.1991 N   0  0  0  0  0  0  0  0  0  0  0  0
   12.8100   22.0827   31.9275 O   0  0  0  0  0  0  0  0  0  0  0  0
   10.7708   21.3311   32.9969 C   0  0  1  0  0  0  0  0  0  0  0  0
   12.8284   14.5734   36.7872 N   0  0  0  0  0  0  0  0  0  0  0  0
   11.3104   20.0365   33.3325 O   0  0  0  0  0  0  0  0  0  0  0  0
   10.9120   19.6796   34.6710 C   0  0  1  0  0  0  0  0  0  0  0  0
   15.8266   17.5369   34.4941 N   0  0  0  0  0  0  0  0  0  0  0  0
   11.9974   19.1449   35.4477 O   0  0  0  0  0  0  0  0  0  0  0  0
   11.5984   18.1768   36.4328 C   0  0  2  0  0  0  0  0  0  0  0  0
    9.8831   15.6737   32.7682 N   0  0  0  0  0  0  0  0  0  0  0  0
   11.4131   19.8375   38.1826 O   0  0  0  0  0  0  0  0  0  0  0  0
   12.0876   18.6322   37.8133 C   0  0  1  0  0  0  0  0  0  0  0  0
   11.5531   16.2436   34.9082 O   0  0  0  0  0  0  0  0  0  0  0  0
   11.8126   17.5654   38.8757 C   0  0  1  0  0  0  0  0  0  0  0  0
   13.0913   17.4030   33.5434 O   0  0  0  0  0  0  0  0  0  0  0  0
   12.5477   16.2705   38.5232 C   0  0  0  0  0  0  0  0  0  0  0  0
   14.5023   14.3654   32.0105 O   0  0  0  0  0  0  0  0  0  0  0  0
   12.0493   15.7620   37.1690 C   0  0  1  0  0  0  0  0  0  0  0  0
   11.7694   14.2772   31.1292 O   0  0  0  0  0  0  0  0  0  0  0  0
   12.1850   16.8156   36.0643 C   0  0  2  0  0  0  0  0  0  0  0  0
    9.5393   20.8107   36.3889 O   0  0  0  0  0  0  0  0  0  0  0  0
   11.7133   17.0215   33.7130 C   0  0  1  0  0  0  0  0  0  0  0  0
    8.4894   21.0212   33.8194 O   0  0  0  0  0  0  0  0  0  0  0  0
   14.0014   16.2995   33.3955 C   0  0  2  0  0  0  0  0  0  0  0  0
   15.4230   16.8503   33.2584 C   0  0  0  0  0  0  0  0  0  0  0  0
   13.6239   15.4861   32.1524 C   0  0  2  0  0  0  0  0  0  0  0  0
   12.1844   14.9887   32.2997 C   0  0  1  0  0  0  0  0  0  0  0  0
   11.2434   16.1742   32.5263 C   0  0  1  0  0  0  0  0  0  0  0  0
   10.4335   20.9952   35.2872 C   0  0  2  0  0  0  0  0  0  0  0  0
    9.7473   21.6461   34.0877 C   0  0  1  0  0  0  0  0  0  0  0  0
  3  1  1  0  0  0  0
  4  1  1  1  0  0  0
  4  6  1  0  0  0  0
  4 31  1  0  0  0  0
  6  7  1  0  0  0  0
  7  9  1  1  0  0  0
  7 30  1  0  0  0  0
 10  9  1  6  0  0  0
 10 13  1  0  0  0  0
 10 21  1  0  0  0  0
 13 12  1  1  0  0  0
 13 15  1  0  0  0  0
 15  2  1  1  0  0  0
 15 17  1  0  0  0  0
 16 25  1  0  0  0  0
 17 19  1  0  0  0  0
 19  5  1  6  0  0  0
 19 21  1  0  0  0  0
 21 14  1  6  0  0  0
 23 14  1  1  0  0  0
 23 16  1  0  0  0  0
 23 29  1  0  0  0  0
 25 26  1  6  0  0  0
 25 27  1  0  0  0  0
 26  8  1  0  0  0  0
 27 18  1  1  0  0  0
 27 28  1  0  0  0  0
 28 20  1  6  0  0  0
 28 29  1  0  0  0  0
 29 11  1  1  0  0  0
 30 22  1  1  0  0  0
 30 31  1  0  0  0  0
 31 24  1  6  0  0  0
M  END
>  <CHROM.1>
62.20352590,-149.04708125,-124.01116135,62.27516723,48.01666300,64.47278060
11.97513914,17.99954425,34.71395303,2.91790938,-1.16127770,1.71140545

>  <Name>
2fcz_lig

>  <RI>
1.32928e+07

>  <Rbt.Current_Directory>
/home/itssahil/PROJECTS/Mol_Feturizer/New_Systems/rnas/2fcz

>  <Rbt.Executable>
rbdock ($Id: //depot/dev/client3/rdock/2013.1/src/exe/rbdock.cxx#4 $)

>  <Rbt.Library>
libRbt.so (2013.1, Build901 2013/11/27)

>  <Rbt.Parameter_File>
/export/apps/rDock/src/rDock_2013.1_src/data/scripts/dock_solv.prm

>  <Rbt.Receptor>
prm/pocket_docking_7.prm

>  <SCORE>
-10.7684

>  <SCORE.INTER>
-11.9733

>  <SCORE.INTER.CONST>
1

>  <SCORE.INTER.POLAR>
-1.88526

>  <SCORE.INTER.ROT>
6

>  <SCORE.INTER.SOLV>
13.8978

>  <SCORE.INTER.VDW>
-13.9306

>  <SCORE.INTER.norm>
-0.386235

>  <SCORE.INTRA>
1.16844

>  <SCORE.INTRA.DIHEDRAL>
0.938814

>  <SCORE.INTRA.DIHEDRAL.0>
10.8409

>  <SCORE.INTRA.POLAR>
0

>  <SCORE.INTRA.POLAR.0>
0

>  <SCORE.INTRA.REPUL>
0.166919

>  <SCORE.INTRA.REPUL.0>
0

>  <SCORE.INTRA.SOLV>
-2.9938

>  <SCORE.INTRA.SOLV.lig_0>
-80.8302

>  <SCORE.INTRA.VDW>
1.36134

>  <SCORE.INTRA.VDW.0>
-4.23953

>  <SCORE.INTRA.norm>
0.0376917

>  <SCORE.RESTR>
0.0364801

>  <SCORE.RESTR.CAVITY>
0.0364801

>  <SCORE.RESTR.norm>
0.00117678

>  <SCORE.SYSTEM>
0

>  <SCORE.SYSTEM.CONST>
0

>  <SCORE.SYSTEM.DIHEDRAL>
0

>  <SCORE.SYSTEM.SOLV>
0

>  <SCORE.SYSTEM.norm>
0

>  <SCORE.heavy>
31

>  <SCORE.norm>
-0.347367

>  <RMSD>
6.324

$$$$
2fcz_lig
 OpenBabel11021811433D
libRbt.so/2013.1/901 2013/11/27
 31 33  0  0  0  0  0  0  0  0999 V2000
   15.9958   18.5928   34.4684 C   0  0  0  0  0  0  0  0  0  0  0  0
   14.8317   23.4271   28.2109 N   0  0  0  0  0  0  0  0  0  0  0  0
   14.9118   19.3255   35.0460 O   0  0  0  0  0  0  0  0  0  0  0  0
   16.8448   19.5279   33.6006 C   0  0  1  0  0  0  0  0  0  0  0  0
   10.5207   23.0789   30.5004 N   0  0  0  0  0  0  0  0  0  0  0  0
   16.0402   20.2383   32.6375 O   0  0  0  0  0  0  0  0  0  0  0  0
   15.9420   21.6249   33.0192 C   0  0  1  0  0  0  0  0  0  0  0  0
    8.1825   18.7416   32.1837 N   0  0  0  0  0  0  0  0  0  0  0  0
   14.6011   22.1335   32.9171 O   0  0  0  0  0  0  0  0  0  0  0  0
   13.9904   21.9357   31.6307 C   0  0  2  0  0  0  0  0  0  0  0  0
   12.1418   23.2469   34.5641 N   0  0  0  0  0  0  0  0  0  0  0  0
   16.0813   22.2197   30.4468 O   0  0  0  0  0  0  0  0  0  0  0  0
   14.7585   22.7457   30.5789 C   0  0  1  0  0  0  0  0  0  0  0  0
   11.7253   21.4690   32.4763 O   0  0  0  0  0  0  0  0  0  0  0  0
   14.0623   22.6826   29.2173 C   0  0  1  0  0  0  0  0  0  0  0  0
    9.4478   21.1820   33.0272 O   0  0  0  0  0  0  0  0  0  0  0  0
   12.6523   23.2682   29.3201 C   0  0  0  0  0  0  0  0  0  0  0  0
   10.1011   19.0661   35.9706 O   0  0  0  0  0  0  0  0  0  0  0  0
   11.8417   22.4533   30.3299 C   0  0  1  0  0  0  0  0  0  0  0  0
   11.3327   21.5501   36.7229 O   0  0  0  0  0  0  0  0  0  0  0  0
   12.5278   22.3706   31.6979 C   0  0  2  0  0  0  0  0  0  0  0  0
   16.8613   22.9321   34.9062 O   0  0  0  0  0  0  0  0  0  0  0  0
   10.5711   22.0817   33.0695 C   0  0  1  0  0  0  0  0  0  0  0  0
   18.6813   21.1268   33.8209 O   0  0  0  0  0  0  0  0  0  0  0  0
    9.6371   19.9575   33.7571 C   0  0  2  0  0  0  0  0  0  0  0  0
    8.3849   19.0918   33.5971 C   0  0  0  0  0  0  0  0  0  0  0  0
    9.8792   20.2744   35.2371 C   0  0  2  0  0  0  0  0  0  0  0  0
   11.1088   21.1770   35.3594 C   0  0  1  0  0  0  0  0  0  0  0  0
   10.9140   22.4409   34.5188 C   0  0  1  0  0  0  0  0  0  0  0  0
   16.3947   21.6483   34.4800 C   0  0  2  0  0  0  0  0  0  0  0  0
   17.5108   20.6057   34.4560 C   0  0  1  0  0  0  0  0  0  0  0  0
  3  1  1  0  0  0  0
  4  1  1  1  0  0  0
  4  6  1  0  0  0  0
  4 31  1  0  0  0  0
  6  7  1  0  0  0  0
  7  9  1  1  0  0  0
  7 30  1  0  0  0  0
 10  9  1  1  0  0  0
 10 13  1  0  0  0  0
 10 21  1  0  0  0  0
 13 12  1  6  0  0  0
 13 15  1  0  0  0  0
 15  2  1  6  0  0  0
 15 17  1  0  0  0  0
 16 25  1  0  0  0  0
 17 19  1  0  0  0  0
 19  5  1  1  0  0  0
 19 21  1  0  0  0  0
 21 14  1  1  0  0  0
 23 14  1  1  0  0  0
 23 16  1  0  0  0  0
 23 29  1  0  0  0  0
 25 26  1  1  0  0  0
 25 27  1  0  0  0  0
 26  8  1  0  0  0  0
 27 18  1  1  0  0  0
 27 28  1  0  0  0  0
 28 20  1  1  0  0  0
 28 29  1  0  0  0  0
 29 11  1  6  0  0  0
 30 22  1  6  0  0  0
 30 31  1  0  0  0  0
 31 24  1  6  0  0  0
M  END
>  <CHROM.1>
-52.74677513,-53.65960277,-64.81620230,153.37168217,141.54171890,62.14677274
13.20945447,21.34540590,32.99917870,-0.19793412,0.05235290,2.02539458

>  <Name>
2fcz_lig

>  <RI>
1.40544e+07

>  <Rbt.Current_Directory>
/home/itssahil/PROJECTS/Mol_Feturizer/New_Systems/rnas/2fcz

>  <Rbt.Executable>
rbdock ($Id: //depot/dev/client3/rdock/2013.1/src/exe/rbdock.cxx#4 $)

>  <Rbt.Library>
libRbt.so (2013.1, Build901 2013/11/27)

>  <Rbt.Parameter_File>
/export/apps/rDock/src/rDock_2013.1_src/data/scripts/dock_solv.prm

>  <Rbt.Receptor>
prm/blind_docking_100.prm

>  <SCORE>
-8.95084

>  <SCORE.INTER>
-11.6901

>  <SCORE.INTER.CONST>
1

>  <SCORE.INTER.POLAR>
-0.868767

>  <SCORE.INTER.ROT>
6

>  <SCORE.INTER.SOLV>
20.8968

>  <SCORE.INTER.VDW>
-19.4632

>  <SCORE.INTER.norm>
-0.377102

>  <SCORE.INTRA>
1.91384

>  <SCORE.INTRA.DIHEDRAL>
-2.12071

>  <SCORE.INTRA.DIHEDRAL.0>
10.8409

>  <SCORE.INTRA.POLAR>
0

>  <SCORE.INTRA.POLAR.0>
0

>  <SCORE.INTRA.REPUL>
0

>  <SCORE.INTRA.REPUL.0>
0

>  <SCORE.INTRA.SOLV>
-0.218139

>  <SCORE.INTRA.SOLV.lig_0>
-80.8302

>  <SCORE.INTRA.VDW>
3.08326

>  <SCORE.INTRA.VDW.0>
-4.23953

>  <SCORE.INTRA.norm>
0.0617367

>  <SCORE.RESTR>
0.825469

>  <SCORE.RESTR.CAVITY>
0.825469

>  <SCORE.RESTR.norm>
0.026628

>  <SCORE.SYSTEM>
0

>  <SCORE.SYSTEM.CONST>
0

>  <SCORE.SYSTEM.DIHEDRAL>
0

>  <SCORE.SYSTEM.SOLV>
0

>  <SCORE.SYSTEM.norm>
0

>  <SCORE.heavy>
31

>  <SCORE.norm>
-0.288737

>  <RMSD>
6.330

$$$$
2fcz_lig
 OpenBabel11021811433D
libRbt.so/2013.1/901 2013/11/27
 31 33  0  0  0  0  0  0  0  0999 V2000
    8.5170   17.8381   30.6480 C   0  0  0  0  0  0  0  0  0  0  0  0
   12.0504   22.6743   33.4767 N   0  0  0  0  0  0  0  0  0  0  0  0
    8.7174   19.0268   29.8784 O   0  0  0  0  0  0  0  0  0  0  0  0
    9.7298   17.6010   31.5543 C   0  0  1  0  0  0  0  0  0  0  0  0
   12.3066   20.1547   37.6639 N   0  0  0  0  0  0  0  0  0  0  0  0
    9.9214   18.6868   32.4837 O   0  0  0  0  0  0  0  0  0  0  0  0
    9.5706   18.2526   33.8126 C   0  0  1  0  0  0  0  0  0  0  0  0
   11.3885   14.9614   38.9251 N   0  0  0  0  0  0  0  0  0  0  0  0
    8.7614   19.2126   34.5132 O   0  0  0  0  0  0  0  0  0  0  0  0
    9.4999   20.3125   35.0715 C   0  0  2  0  0  0  0  0  0  0  0  0
    6.9617   18.9828   38.1062 N   0  0  0  0  0  0  0  0  0  0  0  0
    9.5012   21.5422   32.9879 O   0  0  0  0  0  0  0  0  0  0  0  0
   10.3554   20.9544   33.9723 C   0  0  1  0  0  0  0  0  0  0  0  0
    9.5976   19.4327   37.3694 O   0  0  0  0  0  0  0  0  0  0  0  0
   11.2688   22.0396   34.5469 C   0  0  1  0  0  0  0  0  0  0  0  0
   10.1842   17.1652   37.6640 O   0  0  0  0  0  0  0  0  0  0  0  0
   12.2176   21.4337   35.5834 C   0  0  0  0  0  0  0  0  0  0  0  0
   10.1799   17.3155   41.3444 O   0  0  0  0  0  0  0  0  0  0  0  0
   11.3962   20.8232   36.7207 C   0  0  1  0  0  0  0  0  0  0  0  0
    7.4381   17.8923   40.7098 O   0  0  0  0  0  0  0  0  0  0  0  0
   10.3714   19.8011   36.2169 C   0  0  2  0  0  0  0  0  0  0  0  0
    8.7624   16.1056   34.7357 O   0  0  0  0  0  0  0  0  0  0  0  0
    9.1201   18.0798   37.3414 C   0  0  1  0  0  0  0  0  0  0  0  0
   10.7787   15.8054   32.8400 O   0  0  0  0  0  0  0  0  0  0  0  0
   10.7403   17.3376   38.9790 C   0  0  2  0  0  0  0  0  0  0  0  0
   11.8744   16.3273   39.1691 C   0  0  0  0  0  0  0  0  0  0  0  0
    9.6480   17.1155   40.0312 C   0  0  2  0  0  0  0  0  0  0  0  0
    8.5101   18.1088   39.7865 C   0  0  1  0  0  0  0  0  0  0  0  0
    7.9813   17.9551   38.3586 C   0  0  1  0  0  0  0  0  0  0  0  0
    8.7733   16.9660   33.5924 C   0  0  2  0  0  0  0  0  0  0  0  0
    9.5283   16.3534   32.4143 C   0  0  1  0  0  0  0  0  0  0  0  0
  3  1  1  0  0  0  0
  4  1  1  1  0  0  0
  4  6  1  0  0  0  0
  4 31  1  0  0  0  0
  6  7  1  0  0  0  0
  7  9  1  6  0  0  0
  7 30  1  0  0  0  0
 10  9  1  6  0  0  0
 10 13  1  0  0  0  0
 10 21  1  0  0  0  0
 13 12  1  6  0  0  0
 13 15  1  0  0  0  0
 15  2  1  6  0  0  0
 15 17  1  0  0  0  0
 16 25  1  0  0  0  0
 17 19  1  0  0  0  0
 19  5  1  1  0  0  0
 19 21  1  0  0  0  0
 21 14  1  1  0  0  0
 23 14  1  1  0  0  0
 23 16  1  0  0  0  0
 23 29  1  0  0  0  0
 25 26  1  1  0  0  0
 25 27  1  0  0  0  0
 26  8  1  0  0  0  0
 27 18  1  1  0  0  0
 27 28  1  0  0  0  0
 28 20  1  1  0  0  0
 28 29  1  0  0  0  0
 29 11  1  6  0  0  0
 30 22  1  1  0  0  0
 30 31  1  0  0  0  0
 31 24  1  1  0  0  0
M  END
>  <CHROM.1>
61.18155741,-79.34143824,52.96477756,87.08773085,76.71950532,-55.53282048
9.84182381,18.56893279,35.80367926,1.55145524,-1.22502093,-1.37303584

>  <Name>
2fcz_lig

>  <RI>
2.76032e+07

>  <Rbt.Current_Directory>
/home/itssahil/PROJECTS/Mol_Feturizer/New_Systems/rnas/2fcz

>  <Rbt.Executable>
rbdock ($Id: //depot/dev/client3/rdock/2013.1/src/exe/rbdock.cxx#4 $)

>  <Rbt.Library>
libRbt.so (2013.1, Build901 2013/11/27)

>  <Rbt.Parameter_File>
/export/apps/rDock/src/rDock_2013.1_src/data/scripts/dock_solv.prm

>  <Rbt.Receptor>
prm/pocket_docking_8.prm

>  <SCORE>
-19.5724

>  <SCORE.INTER>
-18.7244

>  <SCORE.INTER.CONST>
1

>  <SCORE.INTER.POLAR>
-2.09025

>  <SCORE.INTER.ROT>
6

>  <SCORE.INTER.SOLV>
15.7552

>  <SCORE.INTER.VDW>
-18.3672

>  <SCORE.INTER.norm>
-0.604013

>  <SCORE.INTRA>
-0.847978

>  <SCORE.INTRA.DIHEDRAL>
-4.41484

>  <SCORE.INTRA.DIHEDRAL.0>
10.8409

>  <SCORE.INTRA.POLAR>
0

>  <SCORE.INTRA.POLAR.0>
0

>  <SCORE.INTRA.REPUL>
0

>  <SCORE.INTRA.REPUL.0>
0

>  <SCORE.INTRA.SOLV>
-0.612208

>  <SCORE.INTRA.SOLV.lig_0>
-80.8302

>  <SCORE.INTRA.VDW>
1.66555

>  <SCORE.INTRA.VDW.0>
-4.23953

>  <SCORE.INTRA.norm>
-0.0273541

>  <SCORE.RESTR>
0

>  <SCORE.RESTR.CAVITY>
0

>  <SCORE.RESTR.norm>
0

>  <SCORE.SYSTEM>
0

>  <SCORE.SYSTEM.CONST>
0

>  <SCORE.SYSTEM.DIHEDRAL>
0

>  <SCORE.SYSTEM.SOLV>
0

>  <SCORE.SYSTEM.norm>
0

>  <SCORE.heavy>
31

>  <SCORE.norm>
-0.631367

>  <RMSD>
6.343

$$$$
2fcz_lig
 OpenBabel11021811433D
libRbt.so/2013.1/901 2013/11/27
 31 33  0  0  0  0  0  0  0  0999 V2000
    8.1050   13.8591   34.5624 C   0  0  0  0  0  0  0  0  0  0  0  0
   12.6379   20.7123   33.4716 N   0  0  0  0  0  0  0  0  0  0  0  0
    7.0853   13.8172   33.5605 O   0  0  0  0  0  0  0  0  0  0  0  0
    9.3652   14.5148   33.9875 C   0  0  1  0  0  0  0  0  0  0  0  0
   12.0430   19.7151   38.2254 N   0  0  0  0  0  0  0  0  0  0  0  0
    9.1307   15.8894   33.6201 O   0  0  0  0  0  0  0  0  0  0  0  0
    9.8030   16.7597   34.5520 C   0  0  1  0  0  0  0  0  0  0  0  0
   11.9717   16.2459   40.1109 N   0  0  0  0  0  0  0  0  0  0  0  0
    8.9755   17.8532   34.9840 O   0  0  0  0  0  0  0  0  0  0  0  0
    9.6979   19.0613   35.2765 C   0  0  2  0  0  0  0  0  0  0  0  0
    6.5976   18.9953   37.8661 N   0  0  0  0  0  0  0  0  0  0  0  0
   10.1190   19.5322   32.9410 O   0  0  0  0  0  0  0  0  0  0  0  0
   10.7613   19.2865   34.1945 C   0  0  1  0  0  0  0  0  0  0  0  0
    9.3671   18.9894   37.7156 O   0  0  0  0  0  0  0  0  0  0  0  0
   11.6524   20.4828   34.5371 C   0  0  1  0  0  0  0  0  0  0  0  0
    9.5327   16.8941   38.7904 O   0  0  0  0  0  0  0  0  0  0  0  0
   12.3783   20.2355   35.8613 C   0  0  0  0  0  0  0  0  0  0  0  0
    8.7591   18.2009   42.1463 O   0  0  0  0  0  0  0  0  0  0  0  0
   11.3449   20.0517   36.9745 C   0  0  1  0  0  0  0  0  0  0  0  0
    6.3350   18.7519   40.7063 O   0  0  0  0  0  0  0  0  0  0  0  0
   10.3378   18.9406   36.6581 C   0  0  2  0  0  0  0  0  0  0  0  0
   11.2146   16.3472   36.5400 O   0  0  0  0  0  0  0  0  0  0  0  0
    8.7110   17.7370   37.9613 C   0  0  1  0  0  0  0  0  0  0  0  0
   11.7693   14.6361   34.4153 O   0  0  0  0  0  0  0  0  0  0  0  0
    9.8121   17.4314   40.0948 C   0  0  2  0  0  0  0  0  0  0  0  0
   10.7155   16.4508   40.8466 C   0  0  0  0  0  0  0  0  0  0  0  0
    8.4985   17.6364   40.8575 C   0  0  2  0  0  0  0  0  0  0  0  0
    7.6005   18.5839   40.0591 C   0  0  1  0  0  0  0  0  0  0  0  0
    7.3745   18.0266   38.6519 C   0  0  1  0  0  0  0  0  0  0  0  0
   10.1320   15.8577   35.7426 C   0  0  2  0  0  0  0  0  0  0  0  0
   10.4814   14.5519   35.0312 C   0  0  1  0  0  0  0  0  0  0  0  0
  3  1  1  0  0  0  0
  4  1  1  1  0  0  0
  4  6  1  0  0  0  0
  4 31  1  0  0  0  0
  6  7  1  0  0  0  0
  7  9  1  1  0  0  0
  7 30  1  0  0  0  0
 10  9  1  6  0  0  0
 10 13  1  0  0  0  0
 10 21  1  0  0  0  0
 13 12  1  6  0  0  0
 13 15  1  0  0  0  0
 15  2  1  6  0  0  0
 15 17  1  0  0  0  0
 16 25  1  0  0  0  0
 17 19  1  0  0  0  0
 19  5  1  1  0  0  0
 19 21  1  0  0  0  0
 21 14  1  1  0  0  0
 23 14  1  1  0  0  0
 23 16  1  0  0  0  0
 23 29  1  0  0  0  0
 25 26  1  1  0  0  0
 25 27  1  0  0  0  0
 26  8  1  0  0  0  0
 27 18  1  1  0  0  0
 27 28  1  0  0  0  0
 28 20  1  1  0  0  0
 28 29  1  0  0  0  0
 29 11  1  6  0  0  0
 30 22  1  6  0  0  0
 30 31  1  0  0  0  0
 31 24  1  6  0  0  0
M  END
>  <CHROM.1>
63.48863231,-148.18923084,42.56152378,81.71353960,81.75088734,59.43842034
9.73048580,17.58545482,36.79428175,1.17724930,-0.99444279,-2.09787454

>  <Name>
2fcz_lig

>  <RI>
2.76032e+07

>  <Rbt.Current_Directory>
/home/itssahil/PROJECTS/Mol_Feturizer/New_Systems/rnas/2fcz

>  <Rbt.Executable>
rbdock ($Id: //depot/dev/client3/rdock/2013.1/src/exe/rbdock.cxx#4 $)

>  <Rbt.Library>
libRbt.so (2013.1, Build901 2013/11/27)

>  <Rbt.Parameter_File>
/export/apps/rDock/src/rDock_2013.1_src/data/scripts/dock_solv.prm

>  <Rbt.Receptor>
prm/pocket_docking_8.prm

>  <SCORE>
-14.6662

>  <SCORE.INTER>
-15.6133

>  <SCORE.INTER.CONST>
1

>  <SCORE.INTER.POLAR>
-2.83927

>  <SCORE.INTER.ROT>
6

>  <SCORE.INTER.SOLV>
15.5689

>  <SCORE.INTER.VDW>
-13.7343

>  <SCORE.INTER.norm>
-0.503656

>  <SCORE.INTRA>
0.947158

>  <SCORE.INTRA.DIHEDRAL>
-1.22763

>  <SCORE.INTRA.DIHEDRAL.0>
10.8409

>  <SCORE.INTRA.POLAR>
0

>  <SCORE.INTRA.POLAR.0>
0

>  <SCORE.INTRA.REPUL>
0

>  <SCORE.INTRA.REPUL.0>
0

>  <SCORE.INTRA.SOLV>
-0.38312

>  <SCORE.INTRA.SOLV.lig_0>
-80.8302

>  <SCORE.INTRA.VDW>
1.75254

>  <SCORE.INTRA.VDW.0>
-4.23953

>  <SCORE.INTRA.norm>
0.0305535

>  <SCORE.RESTR>
0

>  <SCORE.RESTR.CAVITY>
0

>  <SCORE.RESTR.norm>
0

>  <SCORE.SYSTEM>
0

>  <SCORE.SYSTEM.CONST>
0

>  <SCORE.SYSTEM.DIHEDRAL>
0

>  <SCORE.SYSTEM.SOLV>
0

>  <SCORE.SYSTEM.norm>
0

>  <SCORE.heavy>
31

>  <SCORE.norm>
-0.473103

>  <RMSD>
6.345

$$$$
2fcz_lig
 OpenBabel11021811433D
libRbt.so/2013.1/901 2013/11/27
 31 33  0  0  0  0  0  0  0  0999 V2000
    8.6265   19.1285   31.0206 C   0  0  0  0  0  0  0  0  0  0  0  0
   12.7645   23.0411   34.3558 N   0  0  0  0  0  0  0  0  0  0  0  0
    8.2447   18.2476   29.9606 O   0  0  0  0  0  0  0  0  0  0  0  0
    9.8387   18.5506   31.7590 C   0  0  1  0  0  0  0  0  0  0  0  0
   13.3451   19.4998   37.6828 N   0  0  0  0  0  0  0  0  0  0  0  0
   10.2471   19.3940   32.8551 O   0  0  0  0  0  0  0  0  0  0  0  0
    9.9108   18.7588   34.1045 C   0  0  1  0  0  0  0  0  0  0  0  0
   11.2739   14.0526   37.4877 N   0  0  0  0  0  0  0  0  0  0  0  0
    9.2995   19.6644   35.0391 O   0  0  0  0  0  0  0  0  0  0  0  0
   10.2274   20.5256   35.7205 C   0  0  2  0  0  0  0  0  0  0  0  0
    8.0138   18.9677   38.7755 N   0  0  0  0  0  0  0  0  0  0  0  0
   10.0626   22.2557   34.0372 O   0  0  0  0  0  0  0  0  0  0  0  0
   10.9803   21.3727   34.6870 C   0  0  1  0  0  0  0  0  0  0  0  0
   10.5592   19.0692   37.6782 O   0  0  0  0  0  0  0  0  0  0  0  0
   12.0810   22.2034   35.3509 C   0  0  1  0  0  0  0  0  0  0  0  0
   10.5537   16.7637   37.1707 O   0  0  0  0  0  0  0  0  0  0  0  0
   13.0973   21.2828   36.0301 C   0  0  0  0  0  0  0  0  0  0  0  0
   11.0554   15.6746   40.6535 O   0  0  0  0  0  0  0  0  0  0  0  0
   12.3869   20.4536   37.1018 C   0  0  1  0  0  0  0  0  0  0  0  0
    8.5084   16.9964   40.7914 O   0  0  0  0  0  0  0  0  0  0  0  0
   11.1939   19.6727   36.5399 C   0  0  2  0  0  0  0  0  0  0  0  0
    8.8377   16.6054   34.6757 O   0  0  0  0  0  0  0  0  0  0  0  0
    9.7393   17.9367   37.3547 C   0  0  1  0  0  0  0  0  0  0  0  0
   10.6723   16.4083   32.5913 O   0  0  0  0  0  0  0  0  0  0  0  0
   11.2974   16.3657   38.3354 C   0  0  2  0  0  0  0  0  0  0  0  0
   12.1364   15.1342   37.9854 C   0  0  0  0  0  0  0  0  0  0  0  0
   10.3277   16.0417   39.4774 C   0  0  2  0  0  0  0  0  0  0  0  0
    9.4736   17.2766   39.7723 C   0  0  1  0  0  0  0  0  0  0  0  0
    8.7467   17.7237   38.5020 C   0  0  1  0  0  0  0  0  0  0  0  0
    8.9147   17.6647   33.7169 C   0  0  2  0  0  0  0  0  0  0  0  0
    9.4983   17.1981   32.3846 C   0  0  1  0  0  0  0  0  0  0  0  0
  3  1  1  0  0  0  0
  4  1  1  1  0  0  0
  4  6  1  0  0  0  0
  4 31  1  0  0  0  0
  6  7  1  0  0  0  0
  7  9  1  1  0  0  0
  7 30  1  0  0  0  0
 10  9  1  6  0  0  0
 10 13  1  0  0  0  0
 10 21  1  0  0  0  0
 13 12  1  1  0  0  0
 13 15  1  0  0  0  0
 15  2  1  6  0  0  0
 15 17  1  0  0  0  0
 16 25  1  0  0  0  0
 17 19  1  0  0  0  0
 19  5  1  6  0  0  0
 19 21  1  0  0  0  0
 21 14  1  1  0  0  0
 23 14  1  1  0  0  0
 23 16  1  0  0  0  0
 23 29  1  0  0  0  0
 25 26  1  6  0  0  0
 25 27  1  0  0  0  0
 26  8  1  0  0  0  0
 27 18  1  1  0  0  0
 27 28  1  0  0  0  0
 28 20  1  1  0  0  0
 28 29  1  0  0  0  0
 29 11  1  1  0  0  0
 30 22  1  1  0  0  0
 30 31  1  0  0  0  0
 31 24  1  1  0  0  0
M  END
>  <CHROM.1>
-178.95341719,-78.89828085,59.76055399,76.60368713,79.89876617,-56.85799231
10.35993343,18.48978973,35.90106555,1.69424315,-1.13098706,-1.02678157

>  <Name>
2fcz_lig

>  <RI>
2.29611e+07

>  <Rbt.Current_Directory>
/home/itssahil/PROJECTS/Mol_Feturizer/New_Systems/rnas/2fcz

>  <Rbt.Executable>
rbdock ($Id: //depot/dev/client3/rdock/2013.1/src/exe/rbdock.cxx#4 $)

>  <Rbt.Library>
libRbt.so (2013.1, Build901 2013/11/27)

>  <Rbt.Parameter_File>
/export/apps/rDock/src/rDock_2013.1_src/data/scripts/dock_solv.prm

>  <Rbt.Receptor>
prm/pocket_docking_3.prm

>  <SCORE>
-15.4065

>  <SCORE.INTER>
-13.7699

>  <SCORE.INTER.CONST>
1

>  <SCORE.INTER.POLAR>
-1.76452

>  <SCORE.INTER.ROT>
6

>  <SCORE.INTER.SOLV>
14.1282

>  <SCORE.INTER.VDW>
-15.6076

>  <SCORE.INTER.norm>
-0.44419

>  <SCORE.INTRA>
-1.83799

>  <SCORE.INTRA.DIHEDRAL>
-6.01423

>  <SCORE.INTRA.DIHEDRAL.0>
10.8409

>  <SCORE.INTRA.POLAR>
0

>  <SCORE.INTRA.POLAR.0>
0

>  <SCORE.INTRA.REPUL>
0

>  <SCORE.INTRA.REPUL.0>
0

>  <SCORE.INTRA.SOLV>
-1.05353

>  <SCORE.INTRA.SOLV.lig_0>
-80.8302

>  <SCORE.INTRA.VDW>
1.69589

>  <SCORE.INTRA.VDW.0>
-4.23953

>  <SCORE.INTRA.norm>
-0.0592901

>  <SCORE.RESTR>
0.201366

>  <SCORE.RESTR.CAVITY>
0.201366

>  <SCORE.RESTR.norm>
0.00649567

>  <SCORE.SYSTEM>
0

>  <SCORE.SYSTEM.CONST>
0

>  <SCORE.SYSTEM.DIHEDRAL>
0

>  <SCORE.SYSTEM.SOLV>
0

>  <SCORE.SYSTEM.norm>
0

>  <SCORE.heavy>
31

>  <SCORE.norm>
-0.496985

>  <RMSD>
6.351

$$$$
2fcz_lig
 OpenBabel11021811433D
libRbt.so/2013.1/901 2013/11/27
 31 33  0  0  0  0  0  0  0  0999 V2000
    9.9824   16.2526   31.4725 C   0  0  0  0  0  0  0  0  0  0  0  0
   12.1869   21.4068   33.2471 N   0  0  0  0  0  0  0  0  0  0  0  0
    8.7132   16.9050   31.5676 O   0  0  0  0  0  0  0  0  0  0  0  0
   10.5516   16.0262   32.8772 C   0  0  1  0  0  0  0  0  0  0  0  0
   12.1011   19.8613   37.8895 N   0  0  0  0  0  0  0  0  0  0  0  0
   10.5338   17.2366   33.6611 O   0  0  0  0  0  0  0  0  0  0  0  0
    9.5219   17.1355   34.6826 C   0  0  1  0  0  0  0  0  0  0  0  0
   10.0920   14.3442   39.0452 N   0  0  0  0  0  0  0  0  0  0  0  0
    8.7224   18.3257   34.7895 O   0  0  0  0  0  0  0  0  0  0  0  0
    9.4636   19.5056   35.1435 C   0  0  2  0  0  0  0  0  0  0  0  0
    6.8076   19.3863   38.5593 N   0  0  0  0  0  0  0  0  0  0  0  0
    9.6340   20.2485   32.8472 O   0  0  0  0  0  0  0  0  0  0  0  0
   10.4060   19.8730   33.9905 C   0  0  1  0  0  0  0  0  0  0  0  0
    9.3913   19.1489   37.5789 O   0  0  0  0  0  0  0  0  0  0  0  0
   11.3203   21.0385   34.3752 C   0  0  1  0  0  0  0  0  0  0  0  0
    9.3951   16.8029   37.8417 O   0  0  0  0  0  0  0  0  0  0  0  0
   12.1829   20.6549   35.5795 C   0  0  0  0  0  0  0  0  0  0  0  0
    9.7662   16.8981   41.5052 O   0  0  0  0  0  0  0  0  0  0  0  0
   11.2733   20.3257   36.7650 C   0  0  1  0  0  0  0  0  0  0  0  0
    7.2212   18.1737   41.1192 O   0  0  0  0  0  0  0  0  0  0  0  0
   10.2459   19.2395   36.4281 C   0  0  2  0  0  0  0  0  0  0  0  0
    7.9162   15.3618   35.3076 O   0  0  0  0  0  0  0  0  0  0  0  0
    8.5792   17.9661   37.6088 C   0  0  1  0  0  0  0  0  0  0  0  0
   10.4518   14.3915   34.6925 O   0  0  0  0  0  0  0  0  0  0  0  0
   10.0946   16.8073   39.0982 C   0  0  2  0  0  0  0  0  0  0  0  0
   10.9408   15.5354   39.1937 C   0  0  0  0  0  0  0  0  0  0  0  0
    9.0830   16.8609   40.2485 C   0  0  2  0  0  0  0  0  0  0  0  0
    8.2237   18.1182   40.0992 C   0  0  1  0  0  0  0  0  0  0  0  0
    7.5449   18.1263   38.7276 C   0  0  1  0  0  0  0  0  0  0  0  0
    8.6476   15.9631   34.2348 C   0  0  2  0  0  0  0  0  0  0  0  0
    9.6994   15.0211   33.6521 C   0  0  1  0  0  0  0  0  0  0  0  0
  3  1  1  0  0  0  0
  4  1  1  6  0  0  0
  4  6  1  0  0  0  0
  4 31  1  0  0  0  0
  6  7  1  0  0  0  0
  7  9  1  6  0  0  0
  7 30  1  0  0  0  0
 10  9  1  6  0  0  0
 10 13  1  0  0  0  0
 10 21  1  0  0  0  0
 13 12  1  6  0  0  0
 13 15  1  0  0  0  0
 15  2  1  6  0  0  0
 15 17  1  0  0  0  0
 16 25  1  0  0  0  0
 17 19  1  0  0  0  0
 19  5  1  1  0  0  0
 19 21  1  0  0  0  0
 21 14  1  1  0  0  0
 23 14  1  1  0  0  0
 23 16  1  0  0  0  0
 23 29  1  0  0  0  0
 25 26  1  1  0  0  0
 25 27  1  0  0  0  0
 26  8  1  0  0  0  0
 27 18  1  1  0  0  0
 27 28  1  0  0  0  0
 28 20  1  1  0  0  0
 28 29  1  0  0  0  0
 29 11  1  6  0  0  0
 30 22  1  1  0  0  0
 30 31  1  0  0  0  0
 31 24  1  1  0  0  0
M  END
>  <CHROM.1>
-50.71145262,-61.36190703,67.16407605,70.45531209,69.65435800,-57.03331301
9.67877707,17.80955278,36.24422898,0.93117453,-1.26329447,-2.07975857

>  <Name>
2fcz_lig

>  <RI>
0

>  <Rbt.Current_Directory>
/home/itssahil/PROJECTS/Mol_Feturizer/New_Systems/rnas/2fcz

>  <Rbt.Executable>
rbdock ($Id: //depot/dev/client3/rdock/2013.1/src/exe/rbdock.cxx#4 $)

>  <Rbt.Library>
libRbt.so (2013.1, Build901 2013/11/27)

>  <Rbt.Parameter_File>
/export/apps/rDock/src/rDock_2013.1_src/data/scripts/dock_solv.prm

>  <Rbt.Receptor>
prm/pocket_docking_6.prm

>  <SCORE>
-17.7442

>  <SCORE.INTER>
-14.9865

>  <SCORE.INTER.CONST>
1

>  <SCORE.INTER.POLAR>
-2.56032

>  <SCORE.INTER.ROT>
6

>  <SCORE.INTER.SOLV>
14.2091

>  <SCORE.INTER.VDW>
-13.793

>  <SCORE.INTER.norm>
-0.483436

>  <SCORE.INTRA>
-2.75769

>  <SCORE.INTRA.DIHEDRAL>
-9.11816

>  <SCORE.INTRA.DIHEDRAL.0>
10.8409

>  <SCORE.INTRA.POLAR>
0

>  <SCORE.INTRA.POLAR.0>
0

>  <SCORE.INTRA.REPUL>
0

>  <SCORE.INTRA.REPUL.0>
0

>  <SCORE.INTRA.SOLV>
-0.868729

>  <SCORE.INTRA.SOLV.lig_0>
-80.8302

>  <SCORE.INTRA.VDW>
2.23575

>  <SCORE.INTRA.VDW.0>
-4.23953

>  <SCORE.INTRA.norm>
-0.0889578

>  <SCORE.RESTR>
0

>  <SCORE.RESTR.CAVITY>
0

>  <SCORE.RESTR.norm>
0

>  <SCORE.SYSTEM>
0

>  <SCORE.SYSTEM.CONST>
0

>  <SCORE.SYSTEM.DIHEDRAL>
0

>  <SCORE.SYSTEM.SOLV>
0

>  <SCORE.SYSTEM.norm>
0

>  <SCORE.heavy>
31

>  <SCORE.norm>
-0.572394

>  <RMSD>
6.352

$$$$
2fcz_lig
 OpenBabel11021811433D
libRbt.so/2013.1/901 2013/11/27
 31 33  0  0  0  0  0  0  0  0999 V2000
    7.9564   19.4428   30.2684 C   0  0  0  0  0  0  0  0  0  0  0  0
   13.2173   23.7060   34.1567 N   0  0  0  0  0  0  0  0  0  0  0  0
    8.0944   18.0365   30.0472 O   0  0  0  0  0  0  0  0  0  0  0  0
    7.2441   19.6865   31.6033 C   0  0  1  0  0  0  0  0  0  0  0  0
   12.5794   20.5415   37.8345 N   0  0  0  0  0  0  0  0  0  0  0  0
    8.0116   19.1851   32.7165 O   0  0  0  0  0  0  0  0  0  0  0  0
    8.5549   20.2905   33.4653 C   0  0  1  0  0  0  0  0  0  0  0  0
   13.9690   18.0384   38.1042 N   0  0  0  0  0  0  0  0  0  0  0  0
    9.9383   20.1002   33.8080 O   0  0  0  0  0  0  0  0  0  0  0  0
   10.4704   21.0997   34.6939 C   0  0  2  0  0  0  0  0  0  0  0  0
    7.5511   18.7667   37.2571 N   0  0  0  0  0  0  0  0  0  0  0  0
   10.9139   22.6515   32.8914 O   0  0  0  0  0  0  0  0  0  0  0  0
   11.5337   21.9172   33.9500 C   0  0  1  0  0  0  0  0  0  0  0  0
   10.0556   19.8590   36.7802 O   0  0  0  0  0  0  0  0  0  0  0  0
   12.2323   22.9008   34.8919 C   0  0  1  0  0  0  0  0  0  0  0  0
   11.1393   17.7810   37.0637 O   0  0  0  0  0  0  0  0  0  0  0  0
   12.9322   22.1408   36.0207 C   0  0  0  0  0  0  0  0  0  0  0  0
   10.7934   17.7446   40.7307 O   0  0  0  0  0  0  0  0  0  0  0  0
   11.8915   21.3483   36.8141 C   0  0  1  0  0  0  0  0  0  0  0  0
    8.0556   17.6917   39.8618 O   0  0  0  0  0  0  0  0  0  0  0  0
   11.0651   20.4148   35.9228 C   0  0  2  0  0  0  0  0  0  0  0  0
    8.4057   22.7457   33.2112 O   0  0  0  0  0  0  0  0  0  0  0  0
    9.9184   18.4348   36.6700 C   0  0  1  0  0  0  0  0  0  0  0  0
    5.9900   21.4382   32.7593 O   0  0  0  0  0  0  0  0  0  0  0  0
   11.5269   18.0143   38.4288 C   0  0  2  0  0  0  0  0  0  0  0  0
   12.8493   17.2905   38.6944 C   0  0  0  0  0  0  0  0  0  0  0  0
   10.4355   17.4902   39.3689 C   0  0  2  0  0  0  0  0  0  0  0  0
    9.1180   18.1992   39.0481 C   0  0  1  0  0  0  0  0  0  0  0  0
    8.7617   17.9961   37.5737 C   0  0  1  0  0  0  0  0  0  0  0  0
    8.4144   21.4895   32.5261 C   0  0  2  0  0  0  0  0  0  0  0  0
    7.0736   21.1835   31.8615 C   0  0  1  0  0  0  0  0  0  0  0  0
  3  1  1  0  0  0  0
  4  1  1  6  0  0  0
  4  6  1  0  0  0  0
  4 31  1  0  0  0  0
  6  7  1  0  0  0  0
  7  9  1  6  0  0  0
  7 30  1  0  0  0  0
 10  9  1  6  0  0  0
 10 13  1  0  0  0  0
 10 21  1  0  0  0  0
 13 12  1  6  0  0  0
 13 15  1  0  0  0  0
 15  2  1  6  0  0  0
 15 17  1  0  0  0  0
 16 25  1  0  0  0  0
 17 19  1  0  0  0  0
 19  5  1  1  0  0  0
 19 21  1  0  0  0  0
 21 14  1  1  0  0  0
 23 14  1  1  0  0  0
 23 16  1  0  0  0  0
 23 29  1  0  0  0  0
 25 26  1  1  0  0  0
 25 27  1  0  0  0  0
 26  8  1  0  0  0  0
 27 18  1  1  0  0  0
 27 28  1  0  0  0  0
 28 20  1  1  0  0  0
 28 29  1  0  0  0  0
 29 11  1  6  0  0  0
 30 22  1  1  0  0  0
 30 31  1  0  0  0  0
 31 24  1  1  0  0  0
M  END
>  <CHROM.1>
62.94990541,-172.67530051,-113.69218217,103.11938884,62.29511346,76.65855219
9.98723085,19.91085534,35.43017998,2.00513500,-0.56553635,-0.97239333

>  <Name>
2fcz_lig

>  <RI>
2.26996e+07

>  <Rbt.Current_Directory>
/home/itssahil/PROJECTS/Mol_Feturizer/New_Systems/rnas/2fcz

>  <Rbt.Executable>
rbdock ($Id: //depot/dev/client3/rdock/2013.1/src/exe/rbdock.cxx#4 $)

>  <Rbt.Library>
libRbt.so (2013.1, Build901 2013/11/27)

>  <Rbt.Parameter_File>
/export/apps/rDock/src/rDock_2013.1_src/data/scripts/dock_solv.prm

>  <Rbt.Receptor>
prm/pocket_docking_4.prm

>  <SCORE>
-15.4538

>  <SCORE.INTER>
-19.1573

>  <SCORE.INTER.CONST>
1

>  <SCORE.INTER.POLAR>
-2.2984

>  <SCORE.INTER.ROT>
6

>  <SCORE.INTER.SOLV>
21.7378

>  <SCORE.INTER.VDW>
-19.9561

>  <SCORE.INTER.norm>
-0.617978

>  <SCORE.INTRA>
3.70351

>  <SCORE.INTRA.DIHEDRAL>
3.33049

>  <SCORE.INTRA.DIHEDRAL.0>
10.8409

>  <SCORE.INTRA.POLAR>
0

>  <SCORE.INTRA.POLAR.0>
0

>  <SCORE.INTRA.REPUL>
0

>  <SCORE.INTRA.REPUL.0>
0

>  <SCORE.INTRA.SOLV>
1.58603

>  <SCORE.INTRA.SOLV.lig_0>
-80.8302

>  <SCORE.INTRA.VDW>
1.24525

>  <SCORE.INTRA.VDW.0>
-4.23953

>  <SCORE.INTRA.norm>
0.119468

>  <SCORE.RESTR>
0

>  <SCORE.RESTR.CAVITY>
0

>  <SCORE.RESTR.norm>
0

>  <SCORE.SYSTEM>
0

>  <SCORE.SYSTEM.CONST>
0

>  <SCORE.SYSTEM.DIHEDRAL>
0

>  <SCORE.SYSTEM.SOLV>
0

>  <SCORE.SYSTEM.norm>
0

>  <SCORE.heavy>
31

>  <SCORE.norm>
-0.49851

>  <RMSD>
6.355

$$$$
2fcz_lig
 OpenBabel11021811433D
libRbt.so/2013.1/901 2013/11/27
 31 33  0  0  0  0  0  0  0  0999 V2000
    8.5211   17.8809   30.6182 C   0  0  0  0  0  0  0  0  0  0  0  0
   12.3279   22.5878   33.5521 N   0  0  0  0  0  0  0  0  0  0  0  0
    8.7483   19.0579   29.8381 O   0  0  0  0  0  0  0  0  0  0  0  0
    9.7316   17.6200   31.5211 C   0  0  1  0  0  0  0  0  0  0  0  0
   12.3270   20.0261   37.7217 N   0  0  0  0  0  0  0  0  0  0  0  0
    9.9610   18.7124   32.4342 O   0  0  0  0  0  0  0  0  0  0  0  0
    9.6052   18.3073   33.7710 C   0  0  1  0  0  0  0  0  0  0  0  0
   11.6121   15.4330   39.6896 N   0  0  0  0  0  0  0  0  0  0  0  0
    8.8292   19.3007   34.4624 O   0  0  0  0  0  0  0  0  0  0  0  0
    9.6091   20.3549   35.0517 C   0  0  2  0  0  0  0  0  0  0  0  0
    6.9458   18.7775   37.8223 N   0  0  0  0  0  0  0  0  0  0  0  0
    9.7369   21.5986   32.9804 O   0  0  0  0  0  0  0  0  0  0  0  0
   10.5294   20.9581   33.9833 C   0  0  1  0  0  0  0  0  0  0  0  0
    9.5928   19.4536   37.3433 O   0  0  0  0  0  0  0  0  0  0  0  0
   11.4827   21.9881   34.5937 C   0  0  1  0  0  0  0  0  0  0  0  0
   10.3711   17.3202   37.9882 O   0  0  0  0  0  0  0  0  0  0  0  0
   12.3671   21.3240   35.6513 C   0  0  0  0  0  0  0  0  0  0  0  0
    9.8768   17.8829   41.5947 O   0  0  0  0  0  0  0  0  0  0  0  0
   11.4815   20.7500   36.7590 C   0  0  1  0  0  0  0  0  0  0  0  0
    7.1944   18.0524   40.5804 O   0  0  0  0  0  0  0  0  0  0  0  0
   10.4184   19.7885   36.2168 C   0  0  2  0  0  0  0  0  0  0  0  0
    8.7385   16.1984   34.7283 O   0  0  0  0  0  0  0  0  0  0  0  0
    9.2674   18.0587   37.4319 C   0  0  1  0  0  0  0  0  0  0  0  0
   10.7338   15.8117   32.8261 O   0  0  0  0  0  0  0  0  0  0  0  0
   10.7319   17.7051   39.3260 C   0  0  2  0  0  0  0  0  0  0  0  0
   11.9316   16.8656   39.7719 C   0  0  0  0  0  0  0  0  0  0  0  0
    9.5425   17.4740   40.2649 C   0  0  2  0  0  0  0  0  0  0  0  0
    8.3477   18.2901   39.7668 C   0  0  1  0  0  0  0  0  0  0  0  0
    8.0264   17.9142   38.3186 C   0  0  1  0  0  0  0  0  0  0  0  0
    8.7685   17.0423   33.5731 C   0  0  2  0  0  0  0  0  0  0  0  0
    9.4979   16.3910   32.3996 C   0  0  1  0  0  0  0  0  0  0  0  0
  3  1  1  0  0  0  0
  4  1  1  1  0  0  0
  4  6  1  0  0  0  0
  4 31  1  0  0  0  0
  6  7  1  0  0  0  0
  7  9  1  6  0  0  0
  7 30  1  0  0  0  0
 10  9  1  6  0  0  0
 10 13  1  0  0  0  0
 10 21  1  0  0  0  0
 13 12  1  6  0  0  0
 13 15  1  0  0  0  0
 15  2  1  6  0  0  0
 15 17  1  0  0  0  0
 16 25  1  0  0  0  0
 17 19  1  0  0  0  0
 19  5  1  1  0  0  0
 19 21  1  0  0  0  0
 21 14  1  1  0  0  0
 23 14  1  1  0  0  0
 23 16  1  0  0  0  0
 23 29  1  0  0  0  0
 25 26  1  1  0  0  0
 25 27  1  0  0  0  0
 26  8  1  0  0  0  0
 27 18  1  1  0  0  0
 27 28  1  0  0  0  0
 28 20  1  1  0  0  0
 28 29  1  0  0  0  0
 29 11  1  6  0  0  0
 30 22  1  1  0  0  0
 30 31  1  0  0  0  0
 31 24  1  1  0  0  0
M  END
>  <CHROM.1>
60.75578406,-81.93233729,52.68067540,99.06956143,79.28360608,-57.35469024
9.87862128,18.65715099,35.86980130,1.56016177,-1.09187351,-1.41364371

>  <Name>
2fcz_lig

>  <RI>
2.26996e+07

>  <Rbt.Current_Directory>
/home/itssahil/PROJECTS/Mol_Feturizer/New_Systems/rnas/2fcz

>  <Rbt.Executable>
rbdock ($Id: //depot/dev/client3/rdock/2013.1/src/exe/rbdock.cxx#4 $)

>  <Rbt.Library>
libRbt.so (2013.1, Build901 2013/11/27)

>  <Rbt.Parameter_File>
/export/apps/rDock/src/rDock_2013.1_src/data/scripts/dock_solv.prm

>  <Rbt.Receptor>
prm/pocket_docking_4.prm

>  <SCORE>
-19.3251

>  <SCORE.INTER>
-20.0511

>  <SCORE.INTER.CONST>
1

>  <SCORE.INTER.POLAR>
-2.06171

>  <SCORE.INTER.ROT>
6

>  <SCORE.INTER.SOLV>
15.1499

>  <SCORE.INTER.VDW>
-19.1451

>  <SCORE.INTER.norm>
-0.646811

>  <SCORE.INTRA>
0.726011

>  <SCORE.INTRA.DIHEDRAL>
-1.48091

>  <SCORE.INTRA.DIHEDRAL.0>
10.8409

>  <SCORE.INTRA.POLAR>
0

>  <SCORE.INTRA.POLAR.0>
0

>  <SCORE.INTRA.REPUL>
0

>  <SCORE.INTRA.REPUL.0>
0

>  <SCORE.INTRA.SOLV>
0.0152192

>  <SCORE.INTRA.SOLV.lig_0>
-80.8302

>  <SCORE.INTRA.VDW>
1.45886

>  <SCORE.INTRA.VDW.0>
-4.23953

>  <SCORE.INTRA.norm>
0.0234197

>  <SCORE.RESTR>
0

>  <SCORE.RESTR.CAVITY>
0

>  <SCORE.RESTR.norm>
0

>  <SCORE.SYSTEM>
0

>  <SCORE.SYSTEM.CONST>
0

>  <SCORE.SYSTEM.DIHEDRAL>
0

>  <SCORE.SYSTEM.SOLV>
0

>  <SCORE.SYSTEM.norm>
0

>  <SCORE.heavy>
31

>  <SCORE.norm>
-0.623391

>  <RMSD>
6.365

$$$$
2fcz_lig
 OpenBabel11021811433D
libRbt.so/2013.1/901 2013/11/27
 31 33  0  0  0  0  0  0  0  0999 V2000
   17.1065   17.6514   34.5842 C   0  0  0  0  0  0  0  0  0  0  0  0
   17.0498   24.9710   38.1100 N   0  0  0  0  0  0  0  0  0  0  0  0
   16.3377   16.4457   34.6114 O   0  0  0  0  0  0  0  0  0  0  0  0
   16.7418   18.5218   35.7916 C   0  0  1  0  0  0  0  0  0  0  0  0
   13.3871   25.0635   34.8660 N   0  0  0  0  0  0  0  0  0  0  0  0
   17.3948   19.8065   35.7394 O   0  0  0  0  0  0  0  0  0  0  0  0
   16.4247   20.8295   35.4393 C   0  0  1  0  0  0  0  0  0  0  0  0
   10.8015   22.1243   32.3326 N   0  0  0  0  0  0  0  0  0  0  0  0
   16.8852   21.7523   34.4375 O   0  0  0  0  0  0  0  0  0  0  0  0
   16.6887   23.1362   34.7739 C   0  0  2  0  0  0  0  0  0  0  0  0
   17.1249   23.0682   31.3892 N   0  0  0  0  0  0  0  0  0  0  0  0
   18.4117   23.1052   36.4721 O   0  0  0  0  0  0  0  0  0  0  0  0
   17.0189   23.3456   36.2569 C   0  0  1  0  0  0  0  0  0  0  0  0
   14.9759   23.5889   33.0636 O   0  0  0  0  0  0  0  0  0  0  0  0
   16.6886   24.7730   36.6995 C   0  0  1  0  0  0  0  0  0  0  0  0
   13.6786   21.8559   32.1221 O   0  0  0  0  0  0  0  0  0  0  0  0
   15.1957   25.0502   36.5095 C   0  0  0  0  0  0  0  0  0  0  0  0
   12.9310   23.6788   29.0099 O   0  0  0  0  0  0  0  0  0  0  0  0
   14.8398   24.8948   35.0297 C   0  0  1  0  0  0  0  0  0  0  0  0
   15.7875   23.4017   28.8803 O   0  0  0  0  0  0  0  0  0  0  0  0
   15.2424   23.5247   34.4735 C   0  0  2  0  0  0  0  0  0  0  0  0
   13.9852   20.7856   35.0367 O   0  0  0  0  0  0  0  0  0  0  0  0
   15.0137   22.3141   32.4057 C   0  0  1  0  0  0  0  0  0  0  0  0
   14.7905   19.1369   37.1302 O   0  0  0  0  0  0  0  0  0  0  0  0
   12.9303   22.7095   31.2393 C   0  0  2  0  0  0  0  0  0  0  0  0
   11.5299   22.1194   31.0556 C   0  0  0  0  0  0  0  0  0  0  0  0
   13.6482   22.8063   29.8885 C   0  0  2  0  0  0  0  0  0  0  0  0
   15.0588   23.3558   30.1113 C   0  0  1  0  0  0  0  0  0  0  0  0
   15.8119   22.4713   31.1075 C   0  0  1  0  0  0  0  0  0  0  0  0
   15.2119   20.0590   34.9150 C   0  0  2  0  0  0  0  0  0  0  0  0
   15.2430   18.8220   35.8107 C   0  0  1  0  0  0  0  0  0  0  0  0
  3  1  1  0  0  0  0
  4  1  1  6  0  0  0
  4  6  1  0  0  0  0
  4 31  1  0  0  0  0
  6  7  1  0  0  0  0
  7  9  1  6  0  0  0
  7 30  1  0  0  0  0
 10  9  1  1  0  0  0
 10 13  1  0  0  0  0
 10 21  1  0  0  0  0
 13 12  1  6  0  0  0
 13 15  1  0  0  0  0
 15  2  1  1  0  0  0
 15 17  1  0  0  0  0
 16 25  1  0  0  0  0
 17 19  1  0  0  0  0
 19  5  1  1  0  0  0
 19 21  1  0  0  0  0
 21 14  1  6  0  0  0
 23 14  1  6  0  0  0
 23 16  1  0  0  0  0
 23 29  1  0  0  0  0
 25 26  1  6  0  0  0
 25 27  1  0  0  0  0
 26  8  1  0  0  0  0
 27 18  1  6  0  0  0
 27 28  1  0  0  0  0
 28 20  1  6  0  0  0
 28 29  1  0  0  0  0
 29 11  1  1  0  0  0
 30 22  1  1  0  0  0
 30 31  1  0  0  0  0
 31 24  1  1  0  0  0
M  END
>  <CHROM.1>
-174.36067078,-132.47539062,40.77497474,68.13670822,104.17862807,64.30422767
15.29288854,22.06360361,33.83906980,0.31111625,1.10369753,-3.06004528

>  <Name>
2fcz_lig

>  <RI>
0

>  <Rbt.Current_Directory>
/home/itssahil/PROJECTS/Mol_Feturizer/New_Systems/rnas/2fcz

>  <Rbt.Executable>
rbdock ($Id: //depot/dev/client3/rdock/2013.1/src/exe/rbdock.cxx#4 $)

>  <Rbt.Library>
libRbt.so (2013.1, Build901 2013/11/27)

>  <Rbt.Parameter_File>
/export/apps/rDock/src/rDock_2013.1_src/data/scripts/dock_solv.prm

>  <Rbt.Receptor>
prm/blind_docking_80.prm

>  <SCORE>
-15.7192

>  <SCORE.INTER>
-18.9114

>  <SCORE.INTER.CONST>
1

>  <SCORE.INTER.POLAR>
-2.21551

>  <SCORE.INTER.ROT>
6

>  <SCORE.INTER.SOLV>
18.2227

>  <SCORE.INTER.VDW>
-18.8968

>  <SCORE.INTER.norm>
-0.610044

>  <SCORE.INTRA>
3.14675

>  <SCORE.INTRA.DIHEDRAL>
3.86947

>  <SCORE.INTRA.DIHEDRAL.0>
10.8409

>  <SCORE.INTRA.POLAR>
0

>  <SCORE.INTRA.POLAR.0>
0

>  <SCORE.INTRA.REPUL>
0

>  <SCORE.INTRA.REPUL.0>
0

>  <SCORE.INTRA.SOLV>
-2.0827

>  <SCORE.INTRA.SOLV.lig_0>
-80.8302

>  <SCORE.INTRA.VDW>
2.25336

>  <SCORE.INTRA.VDW.0>
-4.23953

>  <SCORE.INTRA.norm>
0.101508

>  <SCORE.RESTR>
0.045474

>  <SCORE.RESTR.CAVITY>
0.045474

>  <SCORE.RESTR.norm>
0.0014669

>  <SCORE.SYSTEM>
0

>  <SCORE.SYSTEM.CONST>
0

>  <SCORE.SYSTEM.DIHEDRAL>
0

>  <SCORE.SYSTEM.SOLV>
0

>  <SCORE.SYSTEM.norm>
0

>  <SCORE.heavy>
31

>  <SCORE.norm>
-0.50707

>  <RMSD>
6.382

$$$$
2fcz_lig
 OpenBabel11021811433D
libRbt.so/2013.1/901 2013/11/27
 31 33  0  0  0  0  0  0  0  0999 V2000
    8.7121   17.5917   30.7907 C   0  0  0  0  0  0  0  0  0  0  0  0
   12.0334   22.4395   33.5029 N   0  0  0  0  0  0  0  0  0  0  0  0
    8.9898   18.7841   30.0514 O   0  0  0  0  0  0  0  0  0  0  0  0
    9.8541   17.3187   31.7755 C   0  0  1  0  0  0  0  0  0  0  0  0
   12.3131   20.0440   37.7609 N   0  0  0  0  0  0  0  0  0  0  0  0
   10.0272   18.4067   32.7061 O   0  0  0  0  0  0  0  0  0  0  0  0
    9.5752   18.0006   34.0132 C   0  0  1  0  0  0  0  0  0  0  0  0
   11.1339   14.7804   39.2133 N   0  0  0  0  0  0  0  0  0  0  0  0
    8.7602   18.9983   34.6517 O   0  0  0  0  0  0  0  0  0  0  0  0
    9.4967   20.1165   35.1751 C   0  0  2  0  0  0  0  0  0  0  0  0
    6.9316   18.9855   38.1618 N   0  0  0  0  0  0  0  0  0  0  0  0
    9.4865   21.2848   33.0565 O   0  0  0  0  0  0  0  0  0  0  0  0
   10.3461   20.7289   34.0545 C   0  0  1  0  0  0  0  0  0  0  0  0
    9.6056   19.3045   37.4973 O   0  0  0  0  0  0  0  0  0  0  0  0
   11.2577   21.8336   34.5940 C   0  0  1  0  0  0  0  0  0  0  0  0
   10.0797   17.0178   37.8425 O   0  0  0  0  0  0  0  0  0  0  0  0
   12.2123   21.2615   35.6443 C   0  0  0  0  0  0  0  0  0  0  0  0
    9.9751   17.2271   41.5185 O   0  0  0  0  0  0  0  0  0  0  0  0
   11.3970   20.6816   36.8019 C   0  0  1  0  0  0  0  0  0  0  0  0
    7.2820   17.9165   40.7941 O   0  0  0  0  0  0  0  0  0  0  0  0
   10.3741   19.6417   36.3318 C   0  0  2  0  0  0  0  0  0  0  0  0
    8.6272   15.8961   34.9003 O   0  0  0  0  0  0  0  0  0  0  0  0
    9.0681   17.9741   37.4750 C   0  0  1  0  0  0  0  0  0  0  0  0
   10.7482   15.4989   33.1416 O   0  0  0  0  0  0  0  0  0  0  0  0
   10.6045   17.1861   39.1708 C   0  0  2  0  0  0  0  0  0  0  0  0
   11.6855   16.1289   39.4094 C   0  0  0  0  0  0  0  0  0  0  0  0
    9.4731   17.0303   40.1931 C   0  0  2  0  0  0  0  0  0  0  0  0
    8.3891   18.0697   39.9001 C   0  0  1  0  0  0  0  0  0  0  0  0
    7.8957   17.9171   38.4595 C   0  0  1  0  0  0  0  0  0  0  0  0
    8.7448   16.7428   33.7528 C   0  0  2  0  0  0  0  0  0  0  0  0
    9.5499   16.0891   32.6313 C   0  0  1  0  0  0  0  0  0  0  0  0
  3  1  1  0  0  0  0
  4  1  1  6  0  0  0
  4  6  1  0  0  0  0
  4 31  1  0  0  0  0
  6  7  1  0  0  0  0
  7  9  1  6  0  0  0
  7 30  1  0  0  0  0
 10  9  1  6  0  0  0
 10 13  1  0  0  0  0
 10 21  1  0  0  0  0
 13 12  1  6  0  0  0
 13 15  1  0  0  0  0
 15  2  1  6  0  0  0
 15 17  1  0  0  0  0
 16 25  1  0  0  0  0
 17 19  1  0  0  0  0
 19  5  1  1  0  0  0
 19 21  1  0  0  0  0
 21 14  1  1  0  0  0
 23 14  1  1  0  0  0
 23 16  1  0  0  0  0
 23 29  1  0  0  0  0
 25 26  1  1  0  0  0
 25 27  1  0  0  0  0
 26  8  1  0  0  0  0
 27 18  1  1  0  0  0
 27 28  1  0  0  0  0
 28 20  1  1  0  0  0
 28 29  1  0  0  0  0
 29 11  1  6  0  0  0
 30 22  1  1  0  0  0
 30 31  1  0  0  0  0
 31 24  1  1  0  0  0
M  END
>  <CHROM.1>
59.59043734,-75.69903653,54.80679061,83.69097899,79.63354475,-57.35154333
9.80917364,18.39533406,35.94908960,1.44235458,-1.24141418,-1.48761994

>  <Name>
2fcz_lig

>  <RI>
0

>  <Rbt.Current_Directory>
/home/itssahil/PROJECTS/Mol_Feturizer/New_Systems/rnas/2fcz

>  <Rbt.Executable>
rbdock ($Id: //depot/dev/client3/rdock/2013.1/src/exe/rbdock.cxx#4 $)

>  <Rbt.Library>
libRbt.so (2013.1, Build901 2013/11/27)

>  <Rbt.Parameter_File>
/export/apps/rDock/src/rDock_2013.1_src/data/scripts/dock_solv.prm

>  <Rbt.Receptor>
prm/pocket_docking_6.prm

>  <SCORE>
-19.4056

>  <SCORE.INTER>
-18.2287

>  <SCORE.INTER.CONST>
1

>  <SCORE.INTER.POLAR>
-2.22122

>  <SCORE.INTER.ROT>
6

>  <SCORE.INTER.SOLV>
15.3783

>  <SCORE.INTER.VDW>
-17.4745

>  <SCORE.INTER.norm>
-0.588022

>  <SCORE.INTRA>
-1.17693

>  <SCORE.INTRA.DIHEDRAL>
-5.27375

>  <SCORE.INTRA.DIHEDRAL.0>
10.8409

>  <SCORE.INTRA.POLAR>
0

>  <SCORE.INTRA.POLAR.0>
0

>  <SCORE.INTRA.REPUL>
0

>  <SCORE.INTRA.REPUL.0>
0

>  <SCORE.INTRA.SOLV>
-0.701783

>  <SCORE.INTRA.SOLV.lig_0>
-80.8302

>  <SCORE.INTRA.VDW>
1.81084

>  <SCORE.INTRA.VDW.0>
-4.23953

>  <SCORE.INTRA.norm>
-0.0379653

>  <SCORE.RESTR>
0

>  <SCORE.RESTR.CAVITY>
0

>  <SCORE.RESTR.norm>
0

>  <SCORE.SYSTEM>
0

>  <SCORE.SYSTEM.CONST>
0

>  <SCORE.SYSTEM.DIHEDRAL>
0

>  <SCORE.SYSTEM.SOLV>
0

>  <SCORE.SYSTEM.norm>
0

>  <SCORE.heavy>
31

>  <SCORE.norm>
-0.625987

>  <RMSD>
6.391

$$$$
2fcz_lig
 OpenBabel11021811433D
libRbt.so/2013.1/901 2013/11/27
 31 33  0  0  0  0  0  0  0  0999 V2000
    6.5838   20.7936   31.3010 C   0  0  0  0  0  0  0  0  0  0  0  0
    7.9546   14.9396   37.0530 N   0  0  0  0  0  0  0  0  0  0  0  0
    6.6132   20.8946   29.8747 O   0  0  0  0  0  0  0  0  0  0  0  0
    7.9636   21.1407   31.8703 C   0  0  1  0  0  0  0  0  0  0  0  0
   10.3145   18.7241   39.0669 N   0  0  0  0  0  0  0  0  0  0  0  0
    7.9621   21.1356   33.3124 O   0  0  0  0  0  0  0  0  0  0  0  0
    8.6918   19.9888   33.7921 C   0  0  1  0  0  0  0  0  0  0  0  0
   12.1872   24.1018   33.9761 N   0  0  0  0  0  0  0  0  0  0  0  0
    8.0091   19.3036   34.8559 O   0  0  0  0  0  0  0  0  0  0  0  0
    8.8229   18.3542   35.5652 C   0  0  2  0  0  0  0  0  0  0  0  0
   12.5790   18.6641   37.5433 N   0  0  0  0  0  0  0  0  0  0  0  0
    7.6074   16.4557   34.6866 O   0  0  0  0  0  0  0  0  0  0  0  0
    7.9793   17.1174   35.8982 C   0  0  1  0  0  0  0  0  0  0  0  0
   10.3602   20.0035   36.5553 O   0  0  0  0  0  0  0  0  0  0  0  0
    8.7595   16.1378   36.7780 C   0  0  1  0  0  0  0  0  0  0  0  0
   11.4340   20.5075   34.5143 O   0  0  0  0  0  0  0  0  0  0  0  0
    9.1456   16.8092   38.0978 C   0  0  0  0  0  0  0  0  0  0  0  0
   13.5867   23.1380   35.9335 O   0  0  0  0  0  0  0  0  0  0  0  0
   10.0283   18.0240   37.8046 C   0  0  1  0  0  0  0  0  0  0  0  0
   14.4760   20.7987   37.3442 O   0  0  0  0  0  0  0  0  0  0  0  0
    9.3637   19.0078   36.8354 C   0  0  2  0  0  0  0  0  0  0  0  0
    9.8882   18.1458   32.6578 O   0  0  0  0  0  0  0  0  0  0  0  0
   11.3567   19.5805   35.6133 C   0  0  1  0  0  0  0  0  0  0  0  0
   10.3244   20.6334   31.4870 O   0  0  0  0  0  0  0  0  0  0  0  0
   11.8155   21.8431   34.8868 C   0  0  2  0  0  0  0  0  0  0  0  0
   11.8240   22.7195   33.6319 C   0  0  0  0  0  0  0  0  0  0  0  0
   13.2073   21.8191   35.5285 C   0  0  2  0  0  0  0  0  0  0  0  0
   13.1771   20.9002   36.7516 C   0  0  1  0  0  0  0  0  0  0  0  0
   12.7012   19.5041   36.3437 C   0  0  1  0  0  0  0  0  0  0  0  0
    8.8012   19.0724   32.5724 C   0  0  2  0  0  0  0  0  0  0  0  0
    8.9996   20.0958   31.4559 C   0  0  1  0  0  0  0  0  0  0  0  0
  3  1  1  0  0  0  0
  4  1  1  6  0  0  0
  4  6  1  0  0  0  0
  4 31  1  0  0  0  0
  6  7  1  0  0  0  0
  7  9  1  1  0  0  0
  7 30  1  0  0  0  0
 10  9  1  1  0  0  0
 10 13  1  0  0  0  0
 10 21  1  0  0  0  0
 13 12  1  6  0  0  0
 13 15  1  0  0  0  0
 15  2  1  1  0  0  0
 15 17  1  0  0  0  0
 16 25  1  0  0  0  0
 17 19  1  0  0  0  0
 19  5  1  1  0  0  0
 19 21  1  0  0  0  0
 21 14  1  6  0  0  0
 23 14  1  1  0  0  0
 23 16  1  0  0  0  0
 23 29  1  0  0  0  0
 25 26  1  6  0  0  0
 25 27  1  0  0  0  0
 26  8  1  0  0  0  0
 27 18  1  1  0  0  0
 27 28  1  0  0  0  0
 28 20  1  6  0  0  0
 28 29  1  0  0  0  0
 29 11  1  1  0  0  0
 30 22  1  1  0  0  0
 30 31  1  0  0  0  0
 31 24  1  1  0  0  0
M  END
>  <CHROM.1>
176.32985283,-166.44674173,-141.21266818,-46.66055342,124.97441339,179.00355229
10.07741307,19.71443894,34.91146677,-2.55137640,0.64468052,2.27899129

>  <Name>
2fcz_lig

>  <RI>
3.41297e+07

>  <Rbt.Current_Directory>
/home/itssahil/PROJECTS/Mol_Feturizer/New_Systems/rnas/2fcz

>  <Rbt.Executable>
rbdock ($Id: //depot/dev/client3/rdock/2013.1/src/exe/rbdock.cxx#4 $)

>  <Rbt.Library>
libRbt.so (2013.1, Build901 2013/11/27)

>  <Rbt.Parameter_File>
/export/apps/rDock/src/rDock_2013.1_src/data/scripts/dock_solv.prm

>  <Rbt.Receptor>
prm/pocket_docking_2.prm

>  <SCORE>
-5.19631

>  <SCORE.INTER>
-11.7456

>  <SCORE.INTER.CONST>
1

>  <SCORE.INTER.POLAR>
-2.05002

>  <SCORE.INTER.ROT>
6

>  <SCORE.INTER.SOLV>
15.908

>  <SCORE.INTER.VDW>
-13.8997

>  <SCORE.INTER.norm>
-0.37889

>  <SCORE.INTRA>
5.07697

>  <SCORE.INTRA.DIHEDRAL>
3.30482

>  <SCORE.INTRA.DIHEDRAL.0>
10.8409

>  <SCORE.INTRA.POLAR>
0

>  <SCORE.INTRA.POLAR.0>
0

>  <SCORE.INTRA.REPUL>
0

>  <SCORE.INTRA.REPUL.0>
0

>  <SCORE.INTRA.SOLV>
2.86673

>  <SCORE.INTRA.SOLV.lig_0>
-80.8302

>  <SCORE.INTRA.VDW>
1.99119

>  <SCORE.INTRA.VDW.0>
-4.23953

>  <SCORE.INTRA.norm>
0.163773

>  <SCORE.RESTR>
1.47231

>  <SCORE.RESTR.CAVITY>
1.47231

>  <SCORE.RESTR.norm>
0.0474938

>  <SCORE.SYSTEM>
0

>  <SCORE.SYSTEM.CONST>
0

>  <SCORE.SYSTEM.DIHEDRAL>
0

>  <SCORE.SYSTEM.SOLV>
0

>  <SCORE.SYSTEM.norm>
0

>  <SCORE.heavy>
31

>  <SCORE.norm>
-0.167623

>  <RMSD>
6.395

$$$$
2fcz_lig
 OpenBabel11021811433D
libRbt.so/2013.1/901 2013/11/27
 31 33  0  0  0  0  0  0  0  0999 V2000
   17.9672   19.9555   33.0717 C   0  0  0  0  0  0  0  0  0  0  0  0
   11.6831   19.9591   38.3701 N   0  0  0  0  0  0  0  0  0  0  0  0
   16.9289   19.5674   32.1679 O   0  0  0  0  0  0  0  0  0  0  0  0
   17.5939   19.5330   34.4967 C   0  0  1  0  0  0  0  0  0  0  0  0
    9.6834   20.9447   34.0139 N   0  0  0  0  0  0  0  0  0  0  0  0
   16.2631   19.9625   34.8488 O   0  0  0  0  0  0  0  0  0  0  0  0
   15.3846   18.8208   34.8991 C   0  0  1  0  0  0  0  0  0  0  0  0
   16.0642   24.0610   33.9783 N   0  0  0  0  0  0  0  0  0  0  0  0
   14.1302   19.0580   34.2379 O   0  0  0  0  0  0  0  0  0  0  0  0
   13.2861   20.0164   34.8982 C   0  0  2  0  0  0  0  0  0  0  0  0
   11.0605   22.5539   30.9563 N   0  0  0  0  0  0  0  0  0  0  0  0
   14.1616   19.4769   37.0882 O   0  0  0  0  0  0  0  0  0  0  0  0
   12.9625   19.5136   36.3106 C   0  0  1  0  0  0  0  0  0  0  0  0
   12.2525   20.9192   32.8536 O   0  0  0  0  0  0  0  0  0  0  0  0
   11.9506   20.4290   37.0038 C   0  0  1  0  0  0  0  0  0  0  0  0
   13.6480   22.6553   33.6355 O   0  0  0  0  0  0  0  0  0  0  0  0
   10.6432   20.4644   36.2094 C   0  0  0  0  0  0  0  0  0  0  0  0
   15.9157   22.5659   30.7343 O   0  0  0  0  0  0  0  0  0  0  0  0
   10.9221   21.0061   34.8060 C   0  0  1  0  0  0  0  0  0  0  0  0
   13.4201   23.3261   29.5313 O   0  0  0  0  0  0  0  0  0  0  0  0
   12.0115   20.2101   34.0792 C   0  0  2  0  0  0  0  0  0  0  0  0
   15.7288   16.4003   34.5281 O   0  0  0  0  0  0  0  0  0  0  0  0
   12.3860   22.3383   33.0192 C   0  0  1  0  0  0  0  0  0  0  0  0
   17.7787   17.5990   35.9809 O   0  0  0  0  0  0  0  0  0  0  0  0
   14.8004   22.2584   32.8724 C   0  0  2  0  0  0  0  0  0  0  0  0
   16.0609   22.6259   33.6592 C   0  0  0  0  0  0  0  0  0  0  0  0
   14.7908   22.9758   31.5178 C   0  0  2  0  0  0  0  0  0  0  0  0
   13.4991   22.6245   30.7763 C   0  0  1  0  0  0  0  0  0  0  0  0
   12.2876   22.9908   31.6365 C   0  0  1  0  0  0  0  0  0  0  0  0
   16.1542   17.7186   34.1694 C   0  0  2  0  0  0  0  0  0  0  0  0
   17.5827   18.0098   34.6252 C   0  0  1  0  0  0  0  0  0  0  0  0
  3  1  1  0  0  0  0
  4  1  1  6  0  0  0
  4  6  1  0  0  0  0
  4 31  1  0  0  0  0
  6  7  1  0  0  0  0
  7  9  1  6  0  0  0
  7 30  1  0  0  0  0
 10  9  1  6  0  0  0
 10 13  1  0  0  0  0
 10 21  1  0  0  0  0
 13 12  1  1  0  0  0
 13 15  1  0  0  0  0
 15  2  1  1  0  0  0
 15 17  1  0  0  0  0
 16 25  1  0  0  0  0
 17 19  1  0  0  0  0
 19  5  1  6  0  0  0
 19 21  1  0  0  0  0
 21 14  1  6  0  0  0
 23 14  1  6  0  0  0
 23 16  1  0  0  0  0
 23 29  1  0  0  0  0
 25 26  1  1  0  0  0
 25 27  1  0  0  0  0
 26  8  1  0  0  0  0
 27 18  1  6  0  0  0
 27 28  1  0  0  0  0
 28 20  1  6  0  0  0
 28 29  1  0  0  0  0
 29 11  1  6  0  0  0
 30 22  1  1  0  0  0
 30 31  1  0  0  0  0
 31 24  1  1  0  0  0
M  END
>  <CHROM.1>
-50.29718617,-68.20296180,-60.16446891,-78.52572475,72.97328111,-56.17052231
14.20637043,20.64143783,33.88596556,-0.93901196,0.31556831,-0.88842714

>  <Name>
2fcz_lig

>  <RI>
2.6968e+07

>  <Rbt.Current_Directory>
/home/itssahil/PROJECTS/Mol_Feturizer/New_Systems/rnas/2fcz

>  <Rbt.Executable>
rbdock ($Id: //depot/dev/client3/rdock/2013.1/src/exe/rbdock.cxx#4 $)

>  <Rbt.Library>
libRbt.so (2013.1, Build901 2013/11/27)

>  <Rbt.Parameter_File>
/export/apps/rDock/src/rDock_2013.1_src/data/scripts/dock_solv.prm

>  <Rbt.Receptor>
prm/blind_docking_60.prm

>  <SCORE>
-13.2478

>  <SCORE.INTER>
-13.748

>  <SCORE.INTER.CONST>
1

>  <SCORE.INTER.POLAR>
-1.97592

>  <SCORE.INTER.ROT>
6

>  <SCORE.INTER.SOLV>
15.853

>  <SCORE.INTER.VDW>
-15.4633

>  <SCORE.INTER.norm>
-0.443484

>  <SCORE.INTRA>
0.500174

>  <SCORE.INTRA.DIHEDRAL>
-7.63938

>  <SCORE.INTRA.DIHEDRAL.0>
10.8409

>  <SCORE.INTRA.POLAR>
0

>  <SCORE.INTRA.POLAR.0>
0

>  <SCORE.INTRA.REPUL>
0

>  <SCORE.INTRA.REPUL.0>
0

>  <SCORE.INTRA.SOLV>
0.687656

>  <SCORE.INTRA.SOLV.lig_0>
-80.8302

>  <SCORE.INTRA.VDW>
3.97603

>  <SCORE.INTRA.VDW.0>
-4.23953

>  <SCORE.INTRA.norm>
0.0161346

>  <SCORE.RESTR>
0

>  <SCORE.RESTR.CAVITY>
0

>  <SCORE.RESTR.norm>
0

>  <SCORE.SYSTEM>
0

>  <SCORE.SYSTEM.CONST>
0

>  <SCORE.SYSTEM.DIHEDRAL>
0

>  <SCORE.SYSTEM.SOLV>
0

>  <SCORE.SYSTEM.norm>
0

>  <SCORE.heavy>
31

>  <SCORE.norm>
-0.427349

>  <RMSD>
6.398

$$$$
2fcz_lig
 OpenBabel11021811433D
libRbt.so/2013.1/901 2013/11/27
 31 33  0  0  0  0  0  0  0  0999 V2000
    9.6130   19.9998   30.6794 C   0  0  0  0  0  0  0  0  0  0  0  0
   14.1701   19.0069   37.2441 N   0  0  0  0  0  0  0  0  0  0  0  0
   10.2777   21.2623   30.5805 O   0  0  0  0  0  0  0  0  0  0  0  0
    9.4187   19.6344   32.1549 C   0  0  1  0  0  0  0  0  0  0  0  0
   16.7158   21.8937   34.2220 N   0  0  0  0  0  0  0  0  0  0  0  0
   10.6641   19.6687   32.8812 O   0  0  0  0  0  0  0  0  0  0  0  0
   10.6776   20.8089   33.7630 C   0  0  1  0  0  0  0  0  0  0  0  0
   15.8437   25.4327   34.7074 N   0  0  0  0  0  0  0  0  0  0  0  0
   11.9204   21.5303   33.7161 O   0  0  0  0  0  0  0  0  0  0  0  0
   13.0790   20.7311   34.0094 C   0  0  2  0  0  0  0  0  0  0  0  0
   13.8876   21.9167   29.7024 N   0  0  0  0  0  0  0  0  0  0  0  0
   11.8889   19.3527   35.6023 O   0  0  0  0  0  0  0  0  0  0  0  0
   12.9992   20.2423   35.4609 C   0  0  1  0  0  0  0  0  0  0  0  0
   14.5766   21.8220   32.3874 O   0  0  0  0  0  0  0  0  0  0  0  0
   14.2783   19.5061   35.8664 C   0  0  1  0  0  0  0  0  0  0  0  0
   14.4577   24.1686   32.6157 O   0  0  0  0  0  0  0  0  0  0  0  0
   15.4825   20.4437   35.7546 C   0  0  0  0  0  0  0  0  0  0  0  0
   17.6183   24.8173   30.8387 O   0  0  0  0  0  0  0  0  0  0  0  0
   15.6196   20.9155   34.3056 C   0  0  1  0  0  0  0  0  0  0  0  0
   16.0054   23.6125   28.7892 O   0  0  0  0  0  0  0  0  0  0  0  0
   14.3361   21.5678   33.7804 C   0  0  2  0  0  0  0  0  0  0  0  0
    9.0428   22.6020   34.2395 O   0  0  0  0  0  0  0  0  0  0  0  0
   13.9599   23.0227   31.9002 C   0  0  1  0  0  0  0  0  0  0  0  0
    7.8833   20.0821   34.0041 O   0  0  0  0  0  0  0  0  0  0  0  0
   15.8714   24.3914   32.4748 C   0  0  2  0  0  0  0  0  0  0  0  0
   16.2617   25.6136   33.3096 C   0  0  0  0  0  0  0  0  0  0  0  0
   16.2093   24.6258   30.9982 C   0  0  2  0  0  0  0  0  0  0  0  0
   15.7662   23.4074   30.1854 C   0  0  1  0  0  0  0  0  0  0  0  0
   14.2743   23.1475   30.4060 C   0  0  1  0  0  0  0  0  0  0  0  0
    9.5435   21.6977   33.2500 C   0  0  2  0  0  0  0  0  0  0  0  0
    8.5089   20.6477   32.8493 C   0  0  1  0  0  0  0  0  0  0  0  0
  3  1  1  0  0  0  0
  4  1  1  6  0  0  0
  4  6  1  0  0  0  0
  4 31  1  0  0  0  0
  6  7  1  0  0  0  0
  7  9  1  6  0  0  0
  7 30  1  0  0  0  0
 10  9  1  1  0  0  0
 10 13  1  0  0  0  0
 10 21  1  0  0  0  0
 13 12  1  6  0  0  0
 13 15  1  0  0  0  0
 15  2  1  1  0  0  0
 15 17  1  0  0  0  0
 16 25  1  0  0  0  0
 17 19  1  0  0  0  0
 19  5  1  1  0  0  0
 19 21  1  0  0  0  0
 21 14  1  6  0  0  0
 23 14  1  1  0  0  0
 23 16  1  0  0  0  0
 23 29  1  0  0  0  0
 25 26  1  1  0  0  0
 25 27  1  0  0  0  0
 26  8  1  0  0  0  0
 27 18  1  1  0  0  0
 27 28  1  0  0  0  0
 28 20  1  6  0  0  0
 28 29  1  0  0  0  0
 29 11  1  6  0  0  0
 30 22  1  1  0  0  0
 30 31  1  0  0  0  0
 31 24  1  1  0  0  0
M  END
>  <CHROM.1>
-54.20807539,-56.40094727,-64.50273422,90.09445886,60.29544306,55.46638236
13.21849976,21.86246394,32.97149315,2.68074458,0.37029775,2.06182397

>  <Name>
2fcz_lig

>  <RI>
0

>  <Rbt.Current_Directory>
/home/itssahil/PROJECTS/Mol_Feturizer/New_Systems/rnas/2fcz

>  <Rbt.Executable>
rbdock ($Id: //depot/dev/client3/rdock/2013.1/src/exe/rbdock.cxx#4 $)

>  <Rbt.Library>
libRbt.so (2013.1, Build901 2013/11/27)

>  <Rbt.Parameter_File>
/export/apps/rDock/src/rDock_2013.1_src/data/scripts/dock_solv.prm

>  <Rbt.Receptor>
prm/blind_docking_80.prm

>  <SCORE>
-21.0724

>  <SCORE.INTER>
-19.7146

>  <SCORE.INTER.CONST>
1

>  <SCORE.INTER.POLAR>
-2.64149

>  <SCORE.INTER.ROT>
6

>  <SCORE.INTER.SOLV>
15.5739

>  <SCORE.INTER.VDW>
-17.1294

>  <SCORE.INTER.norm>
-0.635954

>  <SCORE.INTRA>
-1.35782

>  <SCORE.INTRA.DIHEDRAL>
-6.77748

>  <SCORE.INTRA.DIHEDRAL.0>
10.8409

>  <SCORE.INTRA.POLAR>
0

>  <SCORE.INTRA.POLAR.0>
0

>  <SCORE.INTRA.REPUL>
0

>  <SCORE.INTRA.REPUL.0>
0

>  <SCORE.INTRA.SOLV>
-0.0710758

>  <SCORE.INTRA.SOLV.lig_0>
-80.8302

>  <SCORE.INTRA.VDW>
2.06646

>  <SCORE.INTRA.VDW.0>
-4.23953

>  <SCORE.INTRA.norm>
-0.0438005

>  <SCORE.RESTR>
0

>  <SCORE.RESTR.CAVITY>
0

>  <SCORE.RESTR.norm>
0

>  <SCORE.SYSTEM>
0

>  <SCORE.SYSTEM.CONST>
0

>  <SCORE.SYSTEM.DIHEDRAL>
0

>  <SCORE.SYSTEM.SOLV>
0

>  <SCORE.SYSTEM.norm>
0

>  <SCORE.heavy>
31

>  <SCORE.norm>
-0.679755

>  <RMSD>
6.411

$$$$
2fcz_lig
 OpenBabel11021811433D
libRbt.so/2013.1/901 2013/11/27
 31 33  0  0  0  0  0  0  0  0999 V2000
    8.1030   19.9901   29.8206 C   0  0  0  0  0  0  0  0  0  0  0  0
    7.0772   14.9001   36.2233 N   0  0  0  0  0  0  0  0  0  0  0  0
    8.4702   18.6802   29.3793 O   0  0  0  0  0  0  0  0  0  0  0  0
    7.1847   19.8831   31.0428 C   0  0  1  0  0  0  0  0  0  0  0  0
    8.0661   19.3905   37.8981 N   0  0  0  0  0  0  0  0  0  0  0  0
    7.4573   18.6942   31.8121 O   0  0  0  0  0  0  0  0  0  0  0  0
    8.1016   19.0569   33.0495 C   0  0  1  0  0  0  0  0  0  0  0  0
   12.2865   23.8894   33.8798 N   0  0  0  0  0  0  0  0  0  0  0  0
    9.2290   18.2179   33.3533 O   0  0  0  0  0  0  0  0  0  0  0  0
    9.2169   17.6704   34.6826 C   0  0  2  0  0  0  0  0  0  0  0  0
   11.8295   18.3951   37.3724 N   0  0  0  0  0  0  0  0  0  0  0  0
    8.6108   15.4594   33.9094 O   0  0  0  0  0  0  0  0  0  0  0  0
    8.1876   16.5354   34.7503 C   0  0  1  0  0  0  0  0  0  0  0  0
    9.9488   19.7244   35.8267 O   0  0  0  0  0  0  0  0  0  0  0  0
    8.0339   16.0146   36.1812 C   0  0  1  0  0  0  0  0  0  0  0  0
   11.5345   20.2671   34.1643 O   0  0  0  0  0  0  0  0  0  0  0  0
    7.5514   17.1385   37.1009 C   0  0  0  0  0  0  0  0  0  0  0  0
   13.1787   22.9006   36.1465 O   0  0  0  0  0  0  0  0  0  0  0  0
    8.5799   18.2711   37.0930 C   0  0  1  0  0  0  0  0  0  0  0  0
   13.6787   20.5519   37.7235 O   0  0  0  0  0  0  0  0  0  0  0  0
    8.8784   18.7784   35.6779 C   0  0  2  0  0  0  0  0  0  0  0  0
    8.7707   21.2213   34.0407 O   0  0  0  0  0  0  0  0  0  0  0  0
   11.1713   19.3246   35.1903 C   0  0  1  0  0  0  0  0  0  0  0  0
    6.2694   21.2897   32.8208 O   0  0  0  0  0  0  0  0  0  0  0  0
   11.7807   21.6015   34.6406 C   0  0  2  0  0  0  0  0  0  0  0  0
   12.1213   22.4947   33.4452 C   0  0  0  0  0  0  0  0  0  0  0  0
   12.9432   21.5834   35.6396 C   0  0  2  0  0  0  0  0  0  0  0  0
   12.5911   20.6478   36.7981 C   0  0  1  0  0  0  0  0  0  0  0  0
   12.2646   19.2524   36.2611 C   0  0  1  0  0  0  0  0  0  0  0  0
    8.5722   20.4947   32.8241 C   0  0  2  0  0  0  0  0  0  0  0  0
    7.4152   21.0539   31.9983 C   0  0  1  0  0  0  0  0  0  0  0  0
  3  1  1  0  0  0  0
  4  1  1  6  0  0  0
  4  6  1  0  0  0  0
  4 31  1  0  0  0  0
  6  7  1  0  0  0  0
  7  9  1  6  0  0  0
  7 30  1  0  0  0  0
 10  9  1  6  0  0  0
 10 13  1  0  0  0  0
 10 21  1  0  0  0  0
 13 12  1  6  0  0  0
 13 15  1  0  0  0  0
 15  2  1  6  0  0  0
 15 17  1  0  0  0  0
 16 25  1  0  0  0  0
 17 19  1  0  0  0  0
 19  5  1  1  0  0  0
 19 21  1  0  0  0  0
 21 14  1  1  0  0  0
 23 14  1  1  0  0  0
 23 16  1  0  0  0  0
 23 29  1  0  0  0  0
 25 26  1  6  0  0  0
 25 27  1  0  0  0  0
 26  8  1  0  0  0  0
 27 18  1  1  0  0  0
 27 28  1  0  0  0  0
 28 20  1  1  0  0  0
 28 29  1  0  0  0  0
 29 11  1  1  0  0  0
 30 22  1  1  0  0  0
 30 31  1  0  0  0  0
 31 24  1  1  0  0  0
M  END
>  <CHROM.1>
29.28782692,-129.56792534,75.19824202,-9.45272051,118.13545162,175.98632423
9.65183508,19.47964822,34.50678709,-3.05843871,0.73773120,2.24005152

>  <Name>
2fcz_lig

>  <RI>
3.41297e+07

>  <Rbt.Current_Directory>
/home/itssahil/PROJECTS/Mol_Feturizer/New_Systems/rnas/2fcz

>  <Rbt.Executable>
rbdock ($Id: //depot/dev/client3/rdock/2013.1/src/exe/rbdock.cxx#4 $)

>  <Rbt.Library>
libRbt.so (2013.1, Build901 2013/11/27)

>  <Rbt.Parameter_File>
/export/apps/rDock/src/rDock_2013.1_src/data/scripts/dock_solv.prm

>  <Rbt.Receptor>
prm/pocket_docking_2.prm

>  <SCORE>
2.47032

>  <SCORE.INTER>
-11.4462

>  <SCORE.INTER.CONST>
1

>  <SCORE.INTER.POLAR>
-1.48008

>  <SCORE.INTER.ROT>
6

>  <SCORE.INTER.SOLV>
22.5407

>  <SCORE.INTER.VDW>
-17.8108

>  <SCORE.INTER.norm>
-0.369234

>  <SCORE.INTRA>
12.0113

>  <SCORE.INTRA.DIHEDRAL>
13.619

>  <SCORE.INTRA.DIHEDRAL.0>
10.8409

>  <SCORE.INTRA.POLAR>
0

>  <SCORE.INTRA.POLAR.0>
0

>  <SCORE.INTRA.REPUL>
0

>  <SCORE.INTRA.REPUL.0>
0

>  <SCORE.INTRA.SOLV>
0.310505

>  <SCORE.INTRA.SOLV.lig_0>
-80.8302

>  <SCORE.INTRA.VDW>
5.04656

>  <SCORE.INTRA.VDW.0>
-4.23953

>  <SCORE.INTRA.norm>
0.387462

>  <SCORE.RESTR>
1.90524

>  <SCORE.RESTR.CAVITY>
1.90524

>  <SCORE.RESTR.norm>
0.0614592

>  <SCORE.SYSTEM>
0

>  <SCORE.SYSTEM.CONST>
0

>  <SCORE.SYSTEM.DIHEDRAL>
0

>  <SCORE.SYSTEM.SOLV>
0

>  <SCORE.SYSTEM.norm>
0

>  <SCORE.heavy>
31

>  <SCORE.norm>
0.0796879

>  <RMSD>
6.412

$$$$
2fcz_lig
 OpenBabel11021811433D
libRbt.so/2013.1/901 2013/11/27
 31 33  0  0  0  0  0  0  0  0999 V2000
    9.4248   17.7989   36.0310 C   0  0  0  0  0  0  0  0  0  0  0  0
   13.8984   25.1887   34.3539 N   0  0  0  0  0  0  0  0  0  0  0  0
    8.3506   16.8667   35.8805 O   0  0  0  0  0  0  0  0  0  0  0  0
    8.9450   19.2034   35.6493 C   0  0  1  0  0  0  0  0  0  0  0  0
   15.7442   21.7806   37.3414 N   0  0  0  0  0  0  0  0  0  0  0  0
    9.9682   20.1950   35.8715 O   0  0  0  0  0  0  0  0  0  0  0  0
   10.4798   20.6534   34.6042 C   0  0  1  0  0  0  0  0  0  0  0  0
   16.8404   16.9311   36.1071 N   0  0  0  0  0  0  0  0  0  0  0  0
   11.9154   20.7287   34.5814 O   0  0  0  0  0  0  0  0  0  0  0  0
   12.4639   21.7940   35.3761 C   0  0  2  0  0  0  0  0  0  0  0  0
   11.3568   19.3117   38.8574 N   0  0  0  0  0  0  0  0  0  0  0  0
   11.6725   23.5083   33.8633 O   0  0  0  0  0  0  0  0  0  0  0  0
   12.8514   22.9593   34.4574 C   0  0  1  0  0  0  0  0  0  0  0  0
   13.3106   20.3654   37.1944 O   0  0  0  0  0  0  0  0  0  0  0  0
   13.5717   24.0613   35.2379 C   0  0  1  0  0  0  0  0  0  0  0  0
   13.4647   18.3778   35.9302 O   0  0  0  0  0  0  0  0  0  0  0  0
   14.8562   23.5105   35.8611 C   0  0  0  0  0  0  0  0  0  0  0  0
   15.3111   16.5070   38.5106 O   0  0  0  0  0  0  0  0  0  0  0  0
   14.5018   22.3732   36.8211 C   0  0  1  0  0  0  0  0  0  0  0  0
   12.8106   17.0415   39.8203 O   0  0  0  0  0  0  0  0  0  0  0  0
   13.6775   21.2731   36.1435 C   0  0  2  0  0  0  0  0  0  0  0  0
    9.9423   20.0920   32.2567 O   0  0  0  0  0  0  0  0  0  0  0  0
   12.6045   19.2023   36.7384 C   0  0  1  0  0  0  0  0  0  0  0  0
    7.6930   20.3332   33.8791 O   0  0  0  0  0  0  0  0  0  0  0  0
   14.6197   17.8674   36.6183 C   0  0  2  0  0  0  0  0  0  0  0  0
   15.4528   17.0423   35.6343 C   0  0  0  0  0  0  0  0  0  0  0  0
   14.1714   16.9960   37.7970 C   0  0  2  0  0  0  0  0  0  0  0  0
   13.3043   17.8361   38.7371 C   0  0  1  0  0  0  0  0  0  0  0  0
   12.1206   18.4262   37.9674 C   0  0  1  0  0  0  0  0  0  0  0  0
   10.0005   19.6035   33.6004 C   0  0  2  0  0  0  0  0  0  0  0  0
    8.6164   19.2775   34.1582 C   0  0  1  0  0  0  0  0  0  0  0  0
  3  1  1  0  0  0  0
  4  1  1  6  0  0  0
  4  6  1  0  0  0  0
  4 31  1  0  0  0  0
  6  7  1  0  0  0  0
  7  9  1  1  0  0  0
  7 30  1  0  0  0  0
 10  9  1  6  0  0  0
 10 13  1  0  0  0  0
 10 21  1  0  0  0  0
 13 12  1  1  0  0  0
 13 15  1  0  0  0  0
 15  2  1  6  0  0  0
 15 17  1  0  0  0  0
 16 25  1  0  0  0  0
 17 19  1  0  0  0  0
 19  5  1  6  0  0  0
 19 21  1  0  0  0  0
 21 14  1  1  0  0  0
 23 14  1  1  0  0  0
 23 16  1  0  0  0  0
 23 29  1  0  0  0  0
 25 26  1  6  0  0  0
 25 27  1  0  0  0  0
 26  8  1  0  0  0  0
 27 18  1  1  0  0  0
 27 28  1  0  0  0  0
 28 20  1  1  0  0  0
 28 29  1  0  0  0  0
 29 11  1  1  0  0  0
 30 22  1  6  0  0  0
 30 31  1  0  0  0  0
 31 24  1  1  0  0  0
M  END
>  <CHROM.1>
176.07171520,-71.05577110,-101.16116903,59.56040728,66.42177496,158.67663179
12.34599510,19.87737019,35.98637584,2.26748536,-0.37610969,-0.44948880

>  <Name>
2fcz_lig

>  <RI>
2.76032e+07

>  <Rbt.Current_Directory>
/home/itssahil/PROJECTS/Mol_Feturizer/New_Systems/rnas/2fcz

>  <Rbt.Executable>
rbdock ($Id: //depot/dev/client3/rdock/2013.1/src/exe/rbdock.cxx#4 $)

>  <Rbt.Library>
libRbt.so (2013.1, Build901 2013/11/27)

>  <Rbt.Parameter_File>
/export/apps/rDock/src/rDock_2013.1_src/data/scripts/dock_solv.prm

>  <Rbt.Receptor>
prm/pocket_docking_8.prm

>  <SCORE>
-16.5633

>  <SCORE.INTER>
-14.9364

>  <SCORE.INTER.CONST>
1

>  <SCORE.INTER.POLAR>
-2.23371

>  <SCORE.INTER.ROT>
6

>  <SCORE.INTER.SOLV>
19.9885

>  <SCORE.INTER.VDW>
-16.7747

>  <SCORE.INTER.norm>
-0.48182

>  <SCORE.INTRA>
-1.62691

>  <SCORE.INTRA.DIHEDRAL>
-2.7986

>  <SCORE.INTRA.DIHEDRAL.0>
10.8409

>  <SCORE.INTRA.POLAR>
0

>  <SCORE.INTRA.POLAR.0>
0

>  <SCORE.INTRA.REPUL>
0

>  <SCORE.INTRA.REPUL.0>
0

>  <SCORE.INTRA.SOLV>
-1.71725

>  <SCORE.INTRA.SOLV.lig_0>
-80.8302

>  <SCORE.INTRA.VDW>
0.631011

>  <SCORE.INTRA.VDW.0>
-4.23953

>  <SCORE.INTRA.norm>
-0.0524811

>  <SCORE.RESTR>
0

>  <SCORE.RESTR.CAVITY>
0

>  <SCORE.RESTR.norm>
0

>  <SCORE.SYSTEM>
0

>  <SCORE.SYSTEM.CONST>
0

>  <SCORE.SYSTEM.DIHEDRAL>
0

>  <SCORE.SYSTEM.SOLV>
0

>  <SCORE.SYSTEM.norm>
0

>  <SCORE.heavy>
31

>  <SCORE.norm>
-0.534301

>  <RMSD>
6.415

$$$$
2fcz_lig
 OpenBabel11021811433D
libRbt.so/2013.1/901 2013/11/27
 31 33  0  0  0  0  0  0  0  0999 V2000
   17.1728   22.4737   33.0608 C   0  0  0  0  0  0  0  0  0  0  0  0
   17.7337   16.8262   34.4244 N   0  0  0  0  0  0  0  0  0  0  0  0
   18.3041   21.6207   33.2555 O   0  0  0  0  0  0  0  0  0  0  0  0
   16.1589   21.7827   32.1426 C   0  0  1  0  0  0  0  0  0  0  0  0
   13.5942   15.9925   31.9512 N   0  0  0  0  0  0  0  0  0  0  0  0
   15.6996   20.5342   32.6995 O   0  0  0  0  0  0  0  0  0  0  0  0
   14.3345   20.6752   33.1403 C   0  0  1  0  0  0  0  0  0  0  0  0
    8.2026   20.0329   31.4972 N   0  0  0  0  0  0  0  0  0  0  0  0
   14.1112   20.1053   34.4413 O   0  0  0  0  0  0  0  0  0  0  0  0
   14.4012   18.6999   34.5284 C   0  0  2  0  0  0  0  0  0  0  0  0
   12.0930   19.1298   36.0231 N   0  0  0  0  0  0  0  0  0  0  0  0
   16.5139   19.0700   35.6478 O   0  0  0  0  0  0  0  0  0  0  0  0
   15.9205   18.4954   34.4809 C   0  0  1  0  0  0  0  0  0  0  0  0
   12.2865   17.9260   33.5317 O   0  0  0  0  0  0  0  0  0  0  0  0
   16.2755   17.0076   34.4262 C   0  0  1  0  0  0  0  0  0  0  0  0
   10.6376   19.3345   32.5990 O   0  0  0  0  0  0  0  0  0  0  0  0
   15.6788   16.3705   33.1694 C   0  0  0  0  0  0  0  0  0  0  0  0
    7.8123   17.6517   34.2585 O   0  0  0  0  0  0  0  0  0  0  0  0
   14.1562   16.5161   33.2063 C   0  0  1  0  0  0  0  0  0  0  0  0
    9.3056   18.6741   36.4896 O   0  0  0  0  0  0  0  0  0  0  0  0
   13.7133   17.9737   33.3740 C   0  0  2  0  0  0  0  0  0  0  0  0
   12.7273   22.5542   33.1030 O   0  0  0  0  0  0  0  0  0  0  0  0
   11.6653   19.2178   33.6006 C   0  0  1  0  0  0  0  0  0  0  0  0
   14.2157   22.3253   30.7617 O   0  0  0  0  0  0  0  0  0  0  0  0
    9.5591   18.3937   32.7393 C   0  0  2  0  0  0  0  0  0  0  0  0
    8.5654   18.6116   31.5956 C   0  0  0  0  0  0  0  0  0  0  0  0
    8.8681   18.6029   34.0914 C   0  0  2  0  0  0  0  0  0  0  0  0
    9.8964   18.4234   35.2103 C   0  0  1  0  0  0  0  0  0  0  0  0
   11.0681   19.3854   35.0014 C   0  0  1  0  0  0  0  0  0  0  0  0
   14.1074   22.1870   33.1915 C   0  0  2  0  0  0  0  0  0  0  0  0
   14.9069   22.6432   31.9725 C   0  0  1  0  0  0  0  0  0  0  0  0
  3  1  1  0  0  0  0
  4  1  1  1  0  0  0
  4  6  1  0  0  0  0
  4 31  1  0  0  0  0
  6  7  1  0  0  0  0
  7  9  1  1  0  0  0
  7 30  1  0  0  0  0
 10  9  1  6  0  0  0
 10 13  1  0  0  0  0
 10 21  1  0  0  0  0
 13 12  1  1  0  0  0
 13 15  1  0  0  0  0
 15  2  1  6  0  0  0
 15 17  1  0  0  0  0
 16 25  1  0  0  0  0
 17 19  1  0  0  0  0
 19  5  1  6  0  0  0
 19 21  1  0  0  0  0
 21 14  1  1  0  0  0
 23 14  1  1  0  0  0
 23 16  1  0  0  0  0
 23 29  1  0  0  0  0
 25 26  1  6  0  0  0
 25 27  1  0  0  0  0
 26  8  1  0  0  0  0
 27 18  1  1  0  0  0
 27 28  1  0  0  0  0
 28 20  1  1  0  0  0
 28 29  1  0  0  0  0
 29 11  1  1  0  0  0
 30 22  1  6  0  0  0
 30 31  1  0  0  0  0
 31 24  1  6  0  0  0
M  END
>  <CHROM.1>
59.72565322,-59.55171036,72.15199598,59.94651141,124.77751458,-50.43848341
13.21325671,19.36097383,33.53871251,0.22468578,-0.04282752,-0.39285543

>  <Name>
2fcz_lig

>  <RI>
2.76032e+07

>  <Rbt.Current_Directory>
/home/itssahil/PROJECTS/Mol_Feturizer/New_Systems/rnas/2fcz

>  <Rbt.Executable>
rbdock ($Id: //depot/dev/client3/rdock/2013.1/src/exe/rbdock.cxx#4 $)

>  <Rbt.Library>
libRbt.so (2013.1, Build901 2013/11/27)

>  <Rbt.Parameter_File>
/export/apps/rDock/src/rDock_2013.1_src/data/scripts/dock_solv.prm

>  <Rbt.Receptor>
prm/pocket_docking_8.prm

>  <SCORE>
-6.94186

>  <SCORE.INTER>
-9.19875

>  <SCORE.INTER.CONST>
1

>  <SCORE.INTER.POLAR>
-0.846339

>  <SCORE.INTER.ROT>
6

>  <SCORE.INTER.SOLV>
16.1537

>  <SCORE.INTER.VDW>
-16.2959

>  <SCORE.INTER.norm>
-0.296734

>  <SCORE.INTRA>
2.2569

>  <SCORE.INTRA.DIHEDRAL>
-2.5758

>  <SCORE.INTRA.DIHEDRAL.0>
10.8409

>  <SCORE.INTRA.POLAR>
0

>  <SCORE.INTRA.POLAR.0>
0

>  <SCORE.INTRA.REPUL>
0

>  <SCORE.INTRA.REPUL.0>
0

>  <SCORE.INTRA.SOLV>
0.331344

>  <SCORE.INTRA.SOLV.lig_0>
-80.8302

>  <SCORE.INTRA.VDW>
3.37912

>  <SCORE.INTRA.VDW.0>
-4.23953

>  <SCORE.INTRA.norm>
0.0728031

>  <SCORE.RESTR>
0

>  <SCORE.RESTR.CAVITY>
0

>  <SCORE.RESTR.norm>
0

>  <SCORE.SYSTEM>
0

>  <SCORE.SYSTEM.CONST>
0

>  <SCORE.SYSTEM.DIHEDRAL>
0

>  <SCORE.SYSTEM.SOLV>
0

>  <SCORE.SYSTEM.norm>
0

>  <SCORE.heavy>
31

>  <SCORE.norm>
-0.223931

>  <RMSD>
6.439

$$$$
2fcz_lig
 OpenBabel11021811433D
libRbt.so/2013.1/901 2013/11/27
 31 33  0  0  0  0  0  0  0  0999 V2000
    8.0638   18.8221   33.5304 C   0  0  0  0  0  0  0  0  0  0  0  0
   15.9716   19.5241   34.4746 N   0  0  0  0  0  0  0  0  0  0  0  0
    8.2225   20.2101   33.8369 O   0  0  0  0  0  0  0  0  0  0  0  0
    9.1049   18.4031   32.4868 C   0  0  1  0  0  0  0  0  0  0  0  0
   13.1220   19.5406   38.4529 N   0  0  0  0  0  0  0  0  0  0  0  0
   10.4495   18.5447   32.9883 O   0  0  0  0  0  0  0  0  0  0  0  0
   11.0145   17.2408   33.2303 C   0  0  1  0  0  0  0  0  0  0  0  0
   12.8994   14.8722   37.6054 N   0  0  0  0  0  0  0  0  0  0  0  0
   11.6961   17.1586   34.4936 O   0  0  0  0  0  0  0  0  0  0  0  0
   12.3475   18.3762   34.8938 C   0  0  2  0  0  0  0  0  0  0  0  0
    8.2402   19.3088   37.3750 N   0  0  0  0  0  0  0  0  0  0  0  0
   13.8581   18.3452   33.0041 O   0  0  0  0  0  0  0  0  0  0  0  0
   13.8100   18.3398   34.4330 C   0  0  1  0  0  0  0  0  0  0  0  0
   10.9188   18.8157   36.8506 O   0  0  0  0  0  0  0  0  0  0  0  0
   14.5846   19.5503   34.9591 C   0  0  1  0  0  0  0  0  0  0  0  0
   10.6327   16.4772   36.9995 O   0  0  0  0  0  0  0  0  0  0  0  0
   14.5768   19.5550   36.4894 C   0  0  0  0  0  0  0  0  0  0  0  0
   10.3515   16.4286   40.6719 O   0  0  0  0  0  0  0  0  0  0  0  0
   13.1315   19.6373   36.9846 C   0  0  1  0  0  0  0  0  0  0  0  0
    8.0622   17.9870   39.9080 O   0  0  0  0  0  0  0  0  0  0  0  0
   12.2538   18.5193   36.4116 C   0  0  2  0  0  0  0  0  0  0  0  0
   10.1525   14.9409   32.9438 O   0  0  0  0  0  0  0  0  0  0  0  0
    9.9964   17.7292   36.6827 C   0  0  1  0  0  0  0  0  0  0  0  0
    9.4933   16.6392   30.8389 O   0  0  0  0  0  0  0  0  0  0  0  0
   11.0932   16.3694   38.3576 C   0  0  2  0  0  0  0  0  0  0  0  0
   11.7725   15.0098   38.5395 C   0  0  0  0  0  0  0  0  0  0  0  0
    9.9035   16.5020   39.3149 C   0  0  2  0  0  0  0  0  0  0  0  0
    9.2195   17.8499   39.0771 C   0  0  1  0  0  0  0  0  0  0  0  0
    8.8012   17.9711   37.6100 C   0  0  1  0  0  0  0  0  0  0  0  0
    9.8086   16.2999   33.2306 C   0  0  2  0  0  0  0  0  0  0  0  0
    8.9514   16.9243   32.1312 C   0  0  1  0  0  0  0  0  0  0  0  0
  3  1  1  0  0  0  0
  4  1  1  1  0  0  0
  4  6  1  0  0  0  0
  4 31  1  0  0  0  0
  6  7  1  0  0  0  0
  7  9  1  1  0  0  0
  7 30  1  0  0  0  0
 10  9  1  1  0  0  0
 10 13  1  0  0  0  0
 10 21  1  0  0  0  0
 13 12  1  6  0  0  0
 13 15  1  0  0  0  0
 15  2  1  1  0  0  0
 15 17  1  0  0  0  0
 16 25  1  0  0  0  0
 17 19  1  0  0  0  0
 19  5  1  1  0  0  0
 19 21  1  0  0  0  0
 21 14  1  6  0  0  0
 23 14  1  1  0  0  0
 23 16  1  0  0  0  0
 23 29  1  0  0  0  0
 25 26  1  6  0  0  0
 25 27  1  0  0  0  0
 26  8  1  0  0  0  0
 27 18  1  1  0  0  0
 27 28  1  0  0  0  0
 28 20  1  1  0  0  0
 28 29  1  0  0  0  0
 29 11  1  1  0  0  0
 30 22  1  6  0  0  0
 30 31  1  0  0  0  0
 31 24  1  6  0  0  0
M  END
>  <CHROM.1>
62.99056897,-33.70075990,-93.63049058,69.08027778,39.16285520,58.86338782
11.01997162,17.79068721,35.74684144,1.52729995,-0.22474189,-1.50082004

>  <Name>
2fcz_lig

>  <RI>
2.76032e+07

>  <Rbt.Current_Directory>
/home/itssahil/PROJECTS/Mol_Feturizer/New_Systems/rnas/2fcz

>  <Rbt.Executable>
rbdock ($Id: //depot/dev/client3/rdock/2013.1/src/exe/rbdock.cxx#4 $)

>  <Rbt.Library>
libRbt.so (2013.1, Build901 2013/11/27)

>  <Rbt.Parameter_File>
/export/apps/rDock/src/rDock_2013.1_src/data/scripts/dock_solv.prm

>  <Rbt.Receptor>
prm/pocket_docking_8.prm

>  <SCORE>
-12.4719

>  <SCORE.INTER>
-11.9728

>  <SCORE.INTER.CONST>
1

>  <SCORE.INTER.POLAR>
-3.00887

>  <SCORE.INTER.ROT>
6

>  <SCORE.INTER.SOLV>
14.6398

>  <SCORE.INTER.VDW>
-10.4323

>  <SCORE.INTER.norm>
-0.38622

>  <SCORE.INTRA>
-0.499068

>  <SCORE.INTRA.DIHEDRAL>
-1.18779

>  <SCORE.INTRA.DIHEDRAL.0>
10.8409

>  <SCORE.INTRA.POLAR>
0

>  <SCORE.INTRA.POLAR.0>
0

>  <SCORE.INTRA.REPUL>
0

>  <SCORE.INTRA.REPUL.0>
0

>  <SCORE.INTRA.SOLV>
-1.70841

>  <SCORE.INTRA.SOLV.lig_0>
-80.8302

>  <SCORE.INTRA.VDW>
0.949033

>  <SCORE.INTRA.VDW.0>
-4.23953

>  <SCORE.INTRA.norm>
-0.016099

>  <SCORE.RESTR>
0

>  <SCORE.RESTR.CAVITY>
0

>  <SCORE.RESTR.norm>
0

>  <SCORE.SYSTEM>
0

>  <SCORE.SYSTEM.CONST>
0

>  <SCORE.SYSTEM.DIHEDRAL>
0

>  <SCORE.SYSTEM.SOLV>
0

>  <SCORE.SYSTEM.norm>
0

>  <SCORE.heavy>
31

>  <SCORE.norm>
-0.402319

>  <RMSD>
6.441

$$$$
2fcz_lig
 OpenBabel11021811433D
libRbt.so/2013.1/901 2013/11/27
 31 33  0  0  0  0  0  0  0  0999 V2000
   13.4102   16.6985   38.6014 C   0  0  0  0  0  0  0  0  0  0  0  0
    5.9821   17.9195   42.8669 N   0  0  0  0  0  0  0  0  0  0  0  0
   13.9081   18.0169   38.3574 O   0  0  0  0  0  0  0  0  0  0  0  0
   12.9342   16.5885   40.0539 C   0  0  1  0  0  0  0  0  0  0  0  0
    6.0386   19.7459   38.3272 N   0  0  0  0  0  0  0  0  0  0  0  0
   11.6771   17.2657   40.2557 O   0  0  0  0  0  0  0  0  0  0  0  0
   10.6300   16.2935   40.4462 C   0  0  1  0  0  0  0  0  0  0  0  0
    9.3017   17.3508   33.3235 N   0  0  0  0  0  0  0  0  0  0  0  0
    9.4478   16.5972   39.6864 O   0  0  0  0  0  0  0  0  0  0  0  0
    8.6988   17.7197   40.1824 C   0  0  2  0  0  0  0  0  0  0  0  0
   11.4561   19.4367   38.5644 N   0  0  0  0  0  0  0  0  0  0  0  0
    8.5429   16.7987   42.4143 O   0  0  0  0  0  0  0  0  0  0  0  0
    7.7638   17.2459   41.3020 C   0  0  1  0  0  0  0  0  0  0  0  0
    8.7538   19.0242   38.0946 O   0  0  0  0  0  0  0  0  0  0  0  0
    6.8416   18.3758   41.7659 C   0  0  1  0  0  0  0  0  0  0  0  0
    9.1705   17.7802   36.1321 O   0  0  0  0  0  0  0  0  0  0  0  0
    5.9714   18.8555   40.6021 C   0  0  0  0  0  0  0  0  0  0  0  0
   10.0616   20.7106   34.0861 O   0  0  0  0  0  0  0  0  0  0  0  0
    6.8731   19.3791   39.4825 C   0  0  1  0  0  0  0  0  0  0  0  0
   12.1156   20.7249   36.0945 O   0  0  0  0  0  0  0  0  0  0  0  0
    7.9077   18.3416   39.0332 C   0  0  2  0  0  0  0  0  0  0  0  0
   10.6026   13.8214   40.5016 O   0  0  0  0  0  0  0  0  0  0  0  0
    9.6854   18.1661   37.4200 C   0  0  1  0  0  0  0  0  0  0  0  0
   12.7713   14.9339   41.8464 O   0  0  0  0  0  0  0  0  0  0  0  0
    8.9483   18.8750   35.2265 C   0  0  2  0  0  0  0  0  0  0  0  0
    8.3736   18.3226   33.9197 C   0  0  0  0  0  0  0  0  0  0  0  0
   10.2732   19.5985   34.9611 C   0  0  2  0  0  0  0  0  0  0  0  0
   10.8438   20.0982   36.2901 C   0  0  1  0  0  0  0  0  0  0  0  0
   11.0057   18.9269   37.2617 C   0  0  1  0  0  0  0  0  0  0  0  0
   11.2389   14.9798   39.9532 C   0  0  2  0  0  0  0  0  0  0  0  0
   12.6815   15.1293   40.4327 C   0  0  1  0  0  0  0  0  0  0  0  0
  3  1  1  0  0  0  0
  4  1  1  6  0  0  0
  4  6  1  0  0  0  0
  4 31  1  0  0  0  0
  6  7  1  0  0  0  0
  7  9  1  6  0  0  0
  7 30  1  0  0  0  0
 10  9  1  6  0  0  0
 10 13  1  0  0  0  0
 10 21  1  0  0  0  0
 13 12  1  1  0  0  0
 13 15  1  0  0  0  0
 15  2  1  1  0  0  0
 15 17  1  0  0  0  0
 16 25  1  0  0  0  0
 17 19  1  0  0  0  0
 19  5  1  6  0  0  0
 19 21  1  0  0  0  0
 21 14  1  6  0  0  0
 23 14  1  6  0  0  0
 23 16  1  0  0  0  0
 23 29  1  0  0  0  0
 25 26  1  6  0  0  0
 25 27  1  0  0  0  0
 26  8  1  0  0  0  0
 27 18  1  6  0  0  0
 27 28  1  0  0  0  0
 28 20  1  6  0  0  0
 28 29  1  0  0  0  0
 29 11  1  1  0  0  0
 30 22  1  1  0  0  0
 30 31  1  0  0  0  0
 31 24  1  1  0  0  0
M  END
>  <CHROM.1>
74.78414650,-71.94299176,-84.35548736,63.27618712,97.05515585,-59.02686673
9.84637700,17.84943820,38.62704207,-1.58278995,0.34739664,-1.11074711

>  <Name>
2fcz_lig

>  <RI>
2.76032e+07

>  <Rbt.Current_Directory>
/home/itssahil/PROJECTS/Mol_Feturizer/New_Systems/rnas/2fcz

>  <Rbt.Executable>
rbdock ($Id: //depot/dev/client3/rdock/2013.1/src/exe/rbdock.cxx#4 $)

>  <Rbt.Library>
libRbt.so (2013.1, Build901 2013/11/27)

>  <Rbt.Parameter_File>
/export/apps/rDock/src/rDock_2013.1_src/data/scripts/dock_solv.prm

>  <Rbt.Receptor>
prm/pocket_docking_8.prm

>  <SCORE>
-19.7284

>  <SCORE.INTER>
-20.2677

>  <SCORE.INTER.CONST>
1

>  <SCORE.INTER.POLAR>
-3.57527

>  <SCORE.INTER.ROT>
6

>  <SCORE.INTER.SOLV>
17.8309

>  <SCORE.INTER.VDW>
-15.1378

>  <SCORE.INTER.norm>
-0.653796

>  <SCORE.INTRA>
0.539285

>  <SCORE.INTRA.DIHEDRAL>
-1.75975

>  <SCORE.INTRA.DIHEDRAL.0>
10.8409

>  <SCORE.INTRA.POLAR>
0

>  <SCORE.INTRA.POLAR.0>
0

>  <SCORE.INTRA.REPUL>
0

>  <SCORE.INTRA.REPUL.0>
0

>  <SCORE.INTRA.SOLV>
1.80223

>  <SCORE.INTRA.SOLV.lig_0>
-80.8302

>  <SCORE.INTRA.VDW>
0.518046

>  <SCORE.INTRA.VDW.0>
-4.23953

>  <SCORE.INTRA.norm>
0.0173963

>  <SCORE.RESTR>
0

>  <SCORE.RESTR.CAVITY>
0

>  <SCORE.RESTR.norm>
0

>  <SCORE.SYSTEM>
0

>  <SCORE.SYSTEM.CONST>
0

>  <SCORE.SYSTEM.DIHEDRAL>
0

>  <SCORE.SYSTEM.SOLV>
0

>  <SCORE.SYSTEM.norm>
0

>  <SCORE.heavy>
31

>  <SCORE.norm>
-0.6364

>  <RMSD>
6.461

$$$$
2fcz_lig
 OpenBabel11021811433D
libRbt.so/2013.1/901 2013/11/27
 31 33  0  0  0  0  0  0  0  0999 V2000
    8.6964   18.6217   31.2733 C   0  0  0  0  0  0  0  0  0  0  0  0
   12.7918   22.4482   34.2620 N   0  0  0  0  0  0  0  0  0  0  0  0
    7.6623   19.1379   32.1156 O   0  0  0  0  0  0  0  0  0  0  0  0
    9.7695   17.9437   32.1319 C   0  0  1  0  0  0  0  0  0  0  0  0
   13.2541   19.1797   37.8746 N   0  0  0  0  0  0  0  0  0  0  0  0
   10.2135   18.7995   33.2044 O   0  0  0  0  0  0  0  0  0  0  0  0
    9.7139   18.2986   34.4603 C   0  0  1  0  0  0  0  0  0  0  0  0
   10.3581   14.0780   39.5712 N   0  0  0  0  0  0  0  0  0  0  0  0
    9.1684   19.3363   35.2926 O   0  0  0  0  0  0  0  0  0  0  0  0
   10.1545   20.2011   35.8813 C   0  0  2  0  0  0  0  0  0  0  0  0
    7.7183   19.3277   38.1798 N   0  0  0  0  0  0  0  0  0  0  0  0
   10.0461   21.7865   34.0569 O   0  0  0  0  0  0  0  0  0  0  0  0
   10.9293   20.9140   34.7660 C   0  0  1  0  0  0  0  0  0  0  0  0
   10.4498   18.9026   37.9526 O   0  0  0  0  0  0  0  0  0  0  0  0
   12.0859   21.7377   35.3372 C   0  0  1  0  0  0  0  0  0  0  0  0
   10.2184   16.5649   38.1859 O   0  0  0  0  0  0  0  0  0  0  0  0
   13.0662   20.8249   36.0772 C   0  0  0  0  0  0  0  0  0  0  0  0
    9.5646   16.6742   41.8092 O   0  0  0  0  0  0  0  0  0  0  0  0
   12.3356   20.1307   37.2284 C   0  0  1  0  0  0  0  0  0  0  0  0
    7.3209   18.1174   40.7434 O   0  0  0  0  0  0  0  0  0  0  0  0
   11.0916   19.3705   36.7560 C   0  0  2  0  0  0  0  0  0  0  0  0
    8.3284   16.3447   35.0747 O   0  0  0  0  0  0  0  0  0  0  0  0
    9.5816   17.7788   37.7459 C   0  0  1  0  0  0  0  0  0  0  0  0
   10.2539   15.7730   33.1472 O   0  0  0  0  0  0  0  0  0  0  0  0
   10.5406   16.5348   39.5871 C   0  0  2  0  0  0  0  0  0  0  0  0
   11.2371   15.2088   39.9026 C   0  0  0  0  0  0  0  0  0  0  0  0
    9.2558   16.6703   40.4120 C   0  0  2  0  0  0  0  0  0  0  0  0
    8.5606   17.9820   40.0410 C   0  0  1  0  0  0  0  0  0  0  0  0
    8.2912   18.0219   38.5351 C   0  0  1  0  0  0  0  0  0  0  0  0
    8.6088   17.3182   34.0641 C   0  0  2  0  0  0  0  0  0  0  0  0
    9.2116   16.6915   32.8083 C   0  0  1  0  0  0  0  0  0  0  0  0
  3  1  1  0  0  0  0
  4  1  1  1  0  0  0
  4  6  1  0  0  0  0
  4 31  1  0  0  0  0
  6  7  1  0  0  0  0
  7  9  1  1  0  0  0
  7 30  1  0  0  0  0
 10  9  1  6  0  0  0
 10 13  1  0  0  0  0
 10 21  1  0  0  0  0
 13 12  1  1  0  0  0
 13 15  1  0  0  0  0
 15  2  1  6  0  0  0
 15 17  1  0  0  0  0
 16 25  1  0  0  0  0
 17 19  1  0  0  0  0
 19  5  1  6  0  0  0
 19 21  1  0  0  0  0
 21 14  1  1  0  0  0
 23 14  1  1  0  0  0
 23 16  1  0  0  0  0
 23 29  1  0  0  0  0
 25 26  1  1  0  0  0
 25 27  1  0  0  0  0
 26  8  1  0  0  0  0
 27 18  1  1  0  0  0
 27 28  1  0  0  0  0
 28 20  1  1  0  0  0
 28 29  1  0  0  0  0
 29 11  1  6  0  0  0
 30 22  1  1  0  0  0
 30 31  1  0  0  0  0
 31 24  1  1  0  0  0
M  END
>  <CHROM.1>
-50.73618489,-72.84252345,61.41386942,77.57068017,102.83767876,-59.61772252
9.98441834,18.39407999,36.39110098,1.46810315,-0.96828513,-1.28199202

>  <Name>
2fcz_lig

>  <RI>
0

>  <Rbt.Current_Directory>
/home/itssahil/PROJECTS/Mol_Feturizer/New_Systems/rnas/2fcz

>  <Rbt.Executable>
rbdock ($Id: //depot/dev/client3/rdock/2013.1/src/exe/rbdock.cxx#4 $)

>  <Rbt.Library>
libRbt.so (2013.1, Build901 2013/11/27)

>  <Rbt.Parameter_File>
/export/apps/rDock/src/rDock_2013.1_src/data/scripts/dock_solv.prm

>  <Rbt.Receptor>
prm/pocket_docking_5.prm

>  <SCORE>
-17.299

>  <SCORE.INTER>
-18.0742

>  <SCORE.INTER.CONST>
1

>  <SCORE.INTER.POLAR>
-2.64076

>  <SCORE.INTER.ROT>
6

>  <SCORE.INTER.SOLV>
13.146

>  <SCORE.INTER.VDW>
-15.2289

>  <SCORE.INTER.norm>
-0.583038

>  <SCORE.INTRA>
0.77513

>  <SCORE.INTRA.DIHEDRAL>
-2.36573

>  <SCORE.INTRA.DIHEDRAL.0>
10.8409

>  <SCORE.INTRA.POLAR>
0

>  <SCORE.INTRA.POLAR.0>
0

>  <SCORE.INTRA.REPUL>
0

>  <SCORE.INTRA.REPUL.0>
0

>  <SCORE.INTRA.SOLV>
0.215538

>  <SCORE.INTRA.SOLV.lig_0>
-80.8302

>  <SCORE.INTRA.VDW>
1.85023

>  <SCORE.INTRA.VDW.0>
-4.23953

>  <SCORE.INTRA.norm>
0.0250042

>  <SCORE.RESTR>
0

>  <SCORE.RESTR.CAVITY>
0

>  <SCORE.RESTR.norm>
0

>  <SCORE.SYSTEM>
0

>  <SCORE.SYSTEM.CONST>
0

>  <SCORE.SYSTEM.DIHEDRAL>
0

>  <SCORE.SYSTEM.SOLV>
0

>  <SCORE.SYSTEM.norm>
0

>  <SCORE.heavy>
31

>  <SCORE.norm>
-0.558033

>  <RMSD>
6.468

$$$$
2fcz_lig
 OpenBabel11021811433D
libRbt.so/2013.1/901 2013/11/27
 31 33  0  0  0  0  0  0  0  0999 V2000
    8.3863   13.5540   36.7015 C   0  0  0  0  0  0  0  0  0  0  0  0
    8.2568   18.4920   29.9044 N   0  0  0  0  0  0  0  0  0  0  0  0
    7.1781   14.2132   37.0904 O   0  0  0  0  0  0  0  0  0  0  0  0
    8.3252   13.2046   35.2106 C   0  0  1  0  0  0  0  0  0  0  0  0
    8.6724   20.6054   34.2985 N   0  0  0  0  0  0  0  0  0  0  0  0
    8.2301   14.3862   34.3895 O   0  0  0  0  0  0  0  0  0  0  0  0
    9.4774   14.5953   33.6978 C   0  0  1  0  0  0  0  0  0  0  0  0
   13.1646   18.3999   35.2010 N   0  0  0  0  0  0  0  0  0  0  0  0
    9.9133   15.9646   33.7441 O   0  0  0  0  0  0  0  0  0  0  0  0
    8.9197   16.9155   33.3253 C   0  0  2  0  0  0  0  0  0  0  0  0
    7.3674   16.9303   37.6529 N   0  0  0  0  0  0  0  0  0  0  0  0
    8.7678   15.9767   31.1006 O   0  0  0  0  0  0  0  0  0  0  0  0
    9.0721   17.1735   31.8211 C   0  0  1  0  0  0  0  0  0  0  0  0
    8.7036   18.0544   35.4979 O   0  0  0  0  0  0  0  0  0  0  0  0
    8.1304   18.2858   31.3538 C   0  0  1  0  0  0  0  0  0  0  0  0
   10.7571   17.0649   36.1117 O   0  0  0  0  0  0  0  0  0  0  0  0
    8.4527   19.5900   32.0865 C   0  0  0  0  0  0  0  0  0  0  0  0
   11.3810   19.3575   38.9265 O   0  0  0  0  0  0  0  0  0  0  0  0
    8.2658   19.3810   33.5906 C   0  0  1  0  0  0  0  0  0  0  0  0
    8.9775   18.0192   39.7544 O   0  0  0  0  0  0  0  0  0  0  0  0
    9.0929   18.2061   34.1237 C   0  0  2  0  0  0  0  0  0  0  0  0
   11.6189   13.3596   33.6546 O   0  0  0  0  0  0  0  0  0  0  0  0
    9.3234   16.9415   36.1587 C   0  0  1  0  0  0  0  0  0  0  0  0
    9.3838   11.7012   33.5991 O   0  0  0  0  0  0  0  0  0  0  0  0
   11.2772   18.2300   36.7753 C   0  0  2  0  0  0  0  0  0  0  0  0
   12.7995   18.2469   36.6169 C   0  0  0  0  0  0  0  0  0  0  0  0
   10.8972   18.1876   38.2596 C   0  0  2  0  0  0  0  0  0  0  0  0
    9.3733   18.1253   38.3830 C   0  0  1  0  0  0  0  0  0  0  0  0
    8.8362   16.9179   37.6110 C   0  0  1  0  0  0  0  0  0  0  0  0
   10.4765   13.7085   34.4425 C   0  0  2  0  0  0  0  0  0  0  0  0
    9.6052   12.4965   34.7668 C   0  0  1  0  0  0  0  0  0  0  0  0
  3  1  1  0  0  0  0
  4  1  1  1  0  0  0
  4  6  1  0  0  0  0
  4 31  1  0  0  0  0
  6  7  1  0  0  0  0
  7  9  1  1  0  0  0
  7 30  1  0  0  0  0
 10  9  1  1  0  0  0
 10 13  1  0  0  0  0
 10 21  1  0  0  0  0
 13 12  1  6  0  0  0
 13 15  1  0  0  0  0
 15  2  1  6  0  0  0
 15 17  1  0  0  0  0
 16 25  1  0  0  0  0
 17 19  1  0  0  0  0
 19  5  1  1  0  0  0
 19 21  1  0  0  0  0
 21 14  1  1  0  0  0
 23 14  1  6  0  0  0
 23 16  1  0  0  0  0
 23 29  1  0  0  0  0
 25 26  1  1  0  0  0
 25 27  1  0  0  0  0
 26  8  1  0  0  0  0
 27 18  1  1  0  0  0
 27 28  1  0  0  0  0
 28 20  1  1  0  0  0
 28 29  1  0  0  0  0
 29 11  1  6  0  0  0
 30 22  1  6  0  0  0
 30 31  1  0  0  0  0
 31 24  1  6  0  0  0
M  END
>  <CHROM.1>
62.59888669,-51.78412555,-91.58023539,52.07579994,58.19968984,64.53067599
9.45891047,16.61797410,35.04564236,-2.99832827,-1.37496328,-0.42249732

>  <Name>
2fcz_lig

>  <RI>
0

>  <Rbt.Current_Directory>
/home/itssahil/PROJECTS/Mol_Feturizer/New_Systems/rnas/2fcz

>  <Rbt.Executable>
rbdock ($Id: //depot/dev/client3/rdock/2013.1/src/exe/rbdock.cxx#4 $)

>  <Rbt.Library>
libRbt.so (2013.1, Build901 2013/11/27)

>  <Rbt.Parameter_File>
/export/apps/rDock/src/rDock_2013.1_src/data/scripts/dock_solv.prm

>  <Rbt.Receptor>
prm/pocket_docking_5.prm

>  <SCORE>
-16.6194

>  <SCORE.INTER>
-13.9801

>  <SCORE.INTER.CONST>
1

>  <SCORE.INTER.POLAR>
-1.35195

>  <SCORE.INTER.ROT>
6

>  <SCORE.INTER.SOLV>
17.4511

>  <SCORE.INTER.VDW>
-18.2306

>  <SCORE.INTER.norm>
-0.450971

>  <SCORE.INTRA>
-2.87845

>  <SCORE.INTRA.DIHEDRAL>
-6.05891

>  <SCORE.INTRA.DIHEDRAL.0>
10.8409

>  <SCORE.INTRA.POLAR>
0

>  <SCORE.INTRA.POLAR.0>
0

>  <SCORE.INTRA.REPUL>
0

>  <SCORE.INTRA.REPUL.0>
0

>  <SCORE.INTRA.SOLV>
-1.85247

>  <SCORE.INTRA.SOLV.lig_0>
-80.8302

>  <SCORE.INTRA.VDW>
1.07724

>  <SCORE.INTRA.VDW.0>
-4.23953

>  <SCORE.INTRA.norm>
-0.0928531

>  <SCORE.RESTR>
0.239183

>  <SCORE.RESTR.CAVITY>
0.239183

>  <SCORE.RESTR.norm>
0.00771557

>  <SCORE.SYSTEM>
0

>  <SCORE.SYSTEM.CONST>
0

>  <SCORE.SYSTEM.DIHEDRAL>
0

>  <SCORE.SYSTEM.SOLV>
0

>  <SCORE.SYSTEM.norm>
0

>  <SCORE.heavy>
31

>  <SCORE.norm>
-0.536108

>  <RMSD>
6.468

$$$$
2fcz_lig
 OpenBabel11021811433D
libRbt.so/2013.1/901 2013/11/27
 31 33  0  0  0  0  0  0  0  0999 V2000
   17.7021   20.9277   33.0434 C   0  0  0  0  0  0  0  0  0  0  0  0
   15.7665   23.6226   28.4627 N   0  0  0  0  0  0  0  0  0  0  0  0
   18.1333   19.7099   33.6571 O   0  0  0  0  0  0  0  0  0  0  0  0
   17.8381   22.0832   34.0409 C   0  0  1  0  0  0  0  0  0  0  0  0
   11.5642   22.1524   30.4940 N   0  0  0  0  0  0  0  0  0  0  0  0
   17.3055   23.3129   33.5081 O   0  0  0  0  0  0  0  0  0  0  0  0
   16.0742   23.6384   34.1831 C   0  0  1  0  0  0  0  0  0  0  0  0
    7.9851   22.3733   31.3383 N   0  0  0  0  0  0  0  0  0  0  0  0
   15.0366   24.0469   33.2754 O   0  0  0  0  0  0  0  0  0  0  0  0
   14.8573   23.1706   32.1500 C   0  0  2  0  0  0  0  0  0  0  0  0
   12.7674   20.9987   35.5730 N   0  0  0  0  0  0  0  0  0  0  0  0
   16.8657   23.9535   31.0513 O   0  0  0  0  0  0  0  0  0  0  0  0
   15.4495   23.8305   30.8985 C   0  0  1  0  0  0  0  0  0  0  0  0
   12.8417   22.0433   33.0046 O   0  0  0  0  0  0  0  0  0  0  0  0
   15.1569   23.0007   29.6462 C   0  0  1  0  0  0  0  0  0  0  0  0
   10.9240   23.3709   33.3689 O   0  0  0  0  0  0  0  0  0  0  0  0
   13.6458   22.8771   29.4386 C   0  0  0  0  0  0  0  0  0  0  0  0
    8.5549   20.5561   33.1894 O   0  0  0  0  0  0  0  0  0  0  0  0
   13.0270   22.1797   30.6517 C   0  0  1  0  0  0  0  0  0  0  0  0
   10.1368   19.8729   35.4881 O   0  0  0  0  0  0  0  0  0  0  0  0
   13.3675   22.8869   31.9679 C   0  0  2  0  0  0  0  0  0  0  0  0
   14.7930   22.5433   35.9926 O   0  0  0  0  0  0  0  0  0  0  0  0
   12.0636   22.7438   33.9861 C   0  0  1  0  0  0  0  0  0  0  0  0
   17.5430   22.5378   36.4249 O   0  0  0  0  0  0  0  0  0  0  0  0
   10.0047   22.4566   32.7468 C   0  0  2  0  0  0  0  0  0  0  0  0
    8.8690   23.2603   32.1084 C   0  0  0  0  0  0  0  0  0  0  0  0
    9.4475   21.4929   33.8004 C   0  0  2  0  0  0  0  0  0  0  0  0
   10.6092   20.7388   34.4510 C   0  0  1  0  0  0  0  0  0  0  0  0
   11.6097   21.7333   35.0443 C   0  0  1  0  0  0  0  0  0  0  0  0
   15.6696   22.3385   34.8804 C   0  0  2  0  0  0  0  0  0  0  0  0
   17.0336   21.8015   35.3098 C   0  0  1  0  0  0  0  0  0  0  0  0
  3  1  1  0  0  0  0
  4  1  1  6  0  0  0
  4  6  1  0  0  0  0
  4 31  1  0  0  0  0
  6  7  1  0  0  0  0
  7  9  1  6  0  0  0
  7 30  1  0  0  0  0
 10  9  1  1  0  0  0
 10 13  1  0  0  0  0
 10 21  1  0  0  0  0
 13 12  1  1  0  0  0
 13 15  1  0  0  0  0
 15  2  1  6  0  0  0
 15 17  1  0  0  0  0
 16 25  1  0  0  0  0
 17 19  1  0  0  0  0
 19  5  1  6  0  0  0
 19 21  1  0  0  0  0
 21 14  1  1  0  0  0
 23 14  1  6  0  0  0
 23 16  1  0  0  0  0
 23 29  1  0  0  0  0
 25 26  1  1  0  0  0
 25 27  1  0  0  0  0
 26  8  1  0  0  0  0
 27 18  1  6  0  0  0
 27 28  1  0  0  0  0
 28 20  1  1  0  0  0
 28 29  1  0  0  0  0
 29 11  1  6  0  0  0
 30 22  1  1  0  0  0
 30 31  1  0  0  0  0
 31 24  1  1  0  0  0
M  END
>  <CHROM.1>
-174.92899996,48.64660861,-105.06247962,103.86150871,60.89008775,173.91220456
13.65685572,22.32136848,33.04200089,0.01792795,0.10080010,1.89602572

>  <Name>
2fcz_lig

>  <RI>
2.6968e+07

>  <Rbt.Current_Directory>
/home/itssahil/PROJECTS/Mol_Feturizer/New_Systems/rnas/2fcz

>  <Rbt.Executable>
rbdock ($Id: //depot/dev/client3/rdock/2013.1/src/exe/rbdock.cxx#4 $)

>  <Rbt.Library>
libRbt.so (2013.1, Build901 2013/11/27)

>  <Rbt.Parameter_File>
/export/apps/rDock/src/rDock_2013.1_src/data/scripts/dock_solv.prm

>  <Rbt.Receptor>
prm/blind_docking_60.prm

>  <SCORE>
-7.59126

>  <SCORE.INTER>
-11.527

>  <SCORE.INTER.CONST>
1

>  <SCORE.INTER.POLAR>
-0.912848

>  <SCORE.INTER.ROT>
6

>  <SCORE.INTER.SOLV>
13.735

>  <SCORE.INTER.VDW>
-16.8202

>  <SCORE.INTER.norm>
-0.37184

>  <SCORE.INTRA>
3.90872

>  <SCORE.INTRA.DIHEDRAL>
2.16775

>  <SCORE.INTRA.DIHEDRAL.0>
10.8409

>  <SCORE.INTRA.POLAR>
0

>  <SCORE.INTRA.POLAR.0>
0

>  <SCORE.INTRA.REPUL>
0

>  <SCORE.INTRA.REPUL.0>
0

>  <SCORE.INTRA.SOLV>
3.83275

>  <SCORE.INTRA.SOLV.lig_0>
-80.8302

>  <SCORE.INTRA.VDW>
0.908474

>  <SCORE.INTRA.VDW.0>
-4.23953

>  <SCORE.INTRA.norm>
0.126088

>  <SCORE.RESTR>
0.027067

>  <SCORE.RESTR.CAVITY>
0.027067

>  <SCORE.RESTR.norm>
0.00087313

>  <SCORE.SYSTEM>
0

>  <SCORE.SYSTEM.CONST>
0

>  <SCORE.SYSTEM.DIHEDRAL>
0

>  <SCORE.SYSTEM.SOLV>
0

>  <SCORE.SYSTEM.norm>
0

>  <SCORE.heavy>
31

>  <SCORE.norm>
-0.244879

>  <RMSD>
6.476

$$$$
2fcz_lig
 OpenBabel11021811433D
libRbt.so/2013.1/901 2013/11/27
 31 33  0  0  0  0  0  0  0  0999 V2000
    8.8242   19.2686   30.7696 C   0  0  0  0  0  0  0  0  0  0  0  0
   13.6566   22.0447   34.3609 N   0  0  0  0  0  0  0  0  0  0  0  0
    8.2723   18.4244   29.7556 O   0  0  0  0  0  0  0  0  0  0  0  0
    9.7253   18.4420   31.6934 C   0  0  1  0  0  0  0  0  0  0  0  0
   12.6853   18.9198   37.9994 N   0  0  0  0  0  0  0  0  0  0  0  0
   10.2628   19.2401   32.7676 O   0  0  0  0  0  0  0  0  0  0  0  0
    9.6295   18.8693   34.0082 C   0  0  1  0  0  0  0  0  0  0  0  0
   11.3240   15.6087   40.7563 N   0  0  0  0  0  0  0  0  0  0  0  0
    9.2354   20.0092   34.7909 O   0  0  0  0  0  0  0  0  0  0  0  0
   10.3074   20.6166   35.5316 C   0  0  2  0  0  0  0  0  0  0  0  0
    7.2245   18.7553   37.6320 N   0  0  0  0  0  0  0  0  0  0  0  0
   10.9002   22.0997   33.7143 O   0  0  0  0  0  0  0  0  0  0  0  0
   11.4049   21.0605   34.5565 C   0  0  1  0  0  0  0  0  0  0  0  0
    9.9286   19.3729   37.6230 O   0  0  0  0  0  0  0  0  0  0  0  0
   12.6316   21.5837   35.3075 C   0  0  1  0  0  0  0  0  0  0  0  0
   10.5168   17.3121   38.6128 O   0  0  0  0  0  0  0  0  0  0  0  0
   13.2136   20.4821   36.1959 C   0  0  0  0  0  0  0  0  0  0  0  0
    9.3360   18.2321   41.9784 O   0  0  0  0  0  0  0  0  0  0  0  0
   12.1575   20.0464   37.2136 C   0  0  1  0  0  0  0  0  0  0  0  0
    6.9098   18.3074   40.4418 O   0  0  0  0  0  0  0  0  0  0  0  0
   10.8485   19.6109   36.5460 C   0  0  2  0  0  0  0  0  0  0  0  0
    7.9017   17.2009   34.5964 O   0  0  0  0  0  0  0  0  0  0  0  0
    9.5609   17.9947   37.7802 C   0  0  1  0  0  0  0  0  0  0  0  0
    9.7824   16.2511   32.7769 O   0  0  0  0  0  0  0  0  0  0  0  0
   10.6161   17.8271   39.9518 C   0  0  2  0  0  0  0  0  0  0  0  0
   11.6857   17.0327   40.7055 C   0  0  0  0  0  0  0  0  0  0  0  0
    9.2605   17.6939   40.6547 C   0  0  2  0  0  0  0  0  0  0  0  0
    8.2056   18.4598   39.8534 C   0  0  1  0  0  0  0  0  0  0  0  0
    8.1669   17.9426   38.4136 C   0  0  1  0  0  0  0  0  0  0  0  0
    8.3902   18.0818   33.5801 C   0  0  2  0  0  0  0  0  0  0  0  0
    8.9303   17.3245   32.3685 C   0  0  1  0  0  0  0  0  0  0  0  0
  3  1  1  0  0  0  0
  4  1  1  6  0  0  0
  4  6  1  0  0  0  0
  4 31  1  0  0  0  0
  6  7  1  0  0  0  0
  7  9  1  6  0  0  0
  7 30  1  0  0  0  0
 10  9  1  6  0  0  0
 10 13  1  0  0  0  0
 10 21  1  0  0  0  0
 13 12  1  6  0  0  0
 13 15  1  0  0  0  0
 15  2  1  6  0  0  0
 15 17  1  0  0  0  0
 16 25  1  0  0  0  0
 17 19  1  0  0  0  0
 19  5  1  6  0  0  0
 19 21  1  0  0  0  0
 21 14  1  1  0  0  0
 23 14  1  1  0  0  0
 23 16  1  0  0  0  0
 23 29  1  0  0  0  0
 25 26  1  1  0  0  0
 25 27  1  0  0  0  0
 26  8  1  0  0  0  0
 27 18  1  1  0  0  0
 27 28  1  0  0  0  0
 28 20  1  1  0  0  0
 28 29  1  0  0  0  0
 29 11  1  6  0  0  0
 30 22  1  1  0  0  0
 30 31  1  0  0  0  0
 31 24  1  1  0  0  0
M  END
>  <CHROM.1>
-177.61224266,-79.65704595,58.67548163,122.97643829,86.35630371,-60.05061063
10.01662303,18.82956114,36.19953456,1.57325453,-0.65336182,-1.39327673

>  <Name>
2fcz_lig

>  <RI>
0

>  <Rbt.Current_Directory>
/home/itssahil/PROJECTS/Mol_Feturizer/New_Systems/rnas/2fcz

>  <Rbt.Executable>
rbdock ($Id: //depot/dev/client3/rdock/2013.1/src/exe/rbdock.cxx#4 $)

>  <Rbt.Library>
libRbt.so (2013.1, Build901 2013/11/27)

>  <Rbt.Parameter_File>
/export/apps/rDock/src/rDock_2013.1_src/data/scripts/dock_solv.prm

>  <Rbt.Receptor>
prm/pocket_docking_5.prm

>  <SCORE>
-14.5199

>  <SCORE.INTER>
-17.4663

>  <SCORE.INTER.CONST>
1

>  <SCORE.INTER.POLAR>
-1.64637

>  <SCORE.INTER.ROT>
6

>  <SCORE.INTER.SOLV>
13.3651

>  <SCORE.INTER.VDW>
-18.2113

>  <SCORE.INTER.norm>
-0.563428

>  <SCORE.INTRA>
2.94634

>  <SCORE.INTRA.DIHEDRAL>
0.993331

>  <SCORE.INTRA.DIHEDRAL.0>
10.8409

>  <SCORE.INTRA.POLAR>
0

>  <SCORE.INTRA.POLAR.0>
0

>  <SCORE.INTRA.REPUL>
0

>  <SCORE.INTRA.REPUL.0>
0

>  <SCORE.INTRA.SOLV>
1.80608

>  <SCORE.INTRA.SOLV.lig_0>
-80.8302

>  <SCORE.INTRA.VDW>
1.54663

>  <SCORE.INTRA.VDW.0>
-4.23953

>  <SCORE.INTRA.norm>
0.0950433

>  <SCORE.RESTR>
0

>  <SCORE.RESTR.CAVITY>
0

>  <SCORE.RESTR.norm>
0

>  <SCORE.SYSTEM>
0

>  <SCORE.SYSTEM.CONST>
0

>  <SCORE.SYSTEM.DIHEDRAL>
0

>  <SCORE.SYSTEM.SOLV>
0

>  <SCORE.SYSTEM.norm>
0

>  <SCORE.heavy>
31

>  <SCORE.norm>
-0.468385

>  <RMSD>
6.480

$$$$
2fcz_lig
 OpenBabel11021811433D
libRbt.so/2013.1/901 2013/11/27
 31 33  0  0  0  0  0  0  0  0999 V2000
   16.1492   17.4872   34.8132 C   0  0  0  0  0  0  0  0  0  0  0  0
   16.1836   24.7675   38.2442 N   0  0  0  0  0  0  0  0  0  0  0  0
   14.9277   16.7935   34.5449 O   0  0  0  0  0  0  0  0  0  0  0  0
   16.4828   18.4150   33.6400 C   0  0  1  0  0  0  0  0  0  0  0  0
   13.7621   26.0670   34.1951 N   0  0  0  0  0  0  0  0  0  0  0  0
   15.5077   19.4680   33.4989 O   0  0  0  0  0  0  0  0  0  0  0  0
   16.0896   20.7227   33.9049 C   0  0  1  0  0  0  0  0  0  0  0  0
   10.3064   23.2294   30.3846 N   0  0  0  0  0  0  0  0  0  0  0  0
   15.2170   21.4892   34.7523 O   0  0  0  0  0  0  0  0  0  0  0  0
   15.6543   22.8389   34.9843 C   0  0  2  0  0  0  0  0  0  0  0  0
   16.7951   23.0340   31.1584 N   0  0  0  0  0  0  0  0  0  0  0  0
   16.7650   22.2640   37.0554 O   0  0  0  0  0  0  0  0  0  0  0  0
   15.7397   23.0880   36.4952 C   0  0  1  0  0  0  0  0  0  0  0  0
   14.7594   23.7758   32.8902 O   0  0  0  0  0  0  0  0  0  0  0  0
   16.0629   24.5535   36.7955 C   0  0  1  0  0  0  0  0  0  0  0  0
   13.3432   22.0391   32.1478 O   0  0  0  0  0  0  0  0  0  0  0  0
   14.9652   25.4598   36.2338 C   0  0  0  0  0  0  0  0  0  0  0  0
   12.5133   23.6584   28.9451 O   0  0  0  0  0  0  0  0  0  0  0  0
   14.8836   25.2703   34.7178 C   0  0  1  0  0  0  0  0  0  0  0  0
   15.3450   23.2414   28.6990 O   0  0  0  0  0  0  0  0  0  0  0  0
   14.6724   23.8045   34.3235 C   0  0  2  0  0  0  0  0  0  0  0  0
   18.3293   21.3617   34.7357 O   0  0  0  0  0  0  0  0  0  0  0  0
   14.7094   22.4553   32.3305 C   0  0  1  0  0  0  0  0  0  0  0  0
   18.4082   19.5373   32.6345 O   0  0  0  0  0  0  0  0  0  0  0  0
   12.5870   22.8584   31.2395 C   0  0  2  0  0  0  0  0  0  0  0  0
   11.1553   22.3213   31.1695 C   0  0  0  0  0  0  0  0  0  0  0  0
   13.2375   22.8215   29.8521 C   0  0  2  0  0  0  0  0  0  0  0  0
   14.6797   23.3206   29.9637 C   0  0  1  0  0  0  0  0  0  0  0  0
   15.4453   22.4788   30.9871 C   0  0  1  0  0  0  0  0  0  0  0  0
   17.3459   20.3238   34.6809 C   0  0  2  0  0  0  0  0  0  0  0  0
   17.8198   19.1197   33.8692 C   0  0  1  0  0  0  0  0  0  0  0  0
  3  1  1  0  0  0  0
  4  1  1  1  0  0  0
  4  6  1  0  0  0  0
  4 31  1  0  0  0  0
  6  7  1  0  0  0  0
  7  9  1  1  0  0  0
  7 30  1  0  0  0  0
 10  9  1  1  0  0  0
 10 13  1  0  0  0  0
 10 21  1  0  0  0  0
 13 12  1  6  0  0  0
 13 15  1  0  0  0  0
 15  2  1  1  0  0  0
 15 17  1  0  0  0  0
 16 25  1  0  0  0  0
 17 19  1  0  0  0  0
 19  5  1  1  0  0  0
 19 21  1  0  0  0  0
 21 14  1  6  0  0  0
 23 14  1  6  0  0  0
 23 16  1  0  0  0  0
 23 29  1  0  0  0  0
 25 26  1  6  0  0  0
 25 27  1  0  0  0  0
 26  8  1  0  0  0  0
 27 18  1  6  0  0  0
 27 28  1  0  0  0  0
 28 20  1  6  0  0  0
 28 29  1  0  0  0  0
 29 11  1  1  0  0  0
 30 22  1  6  0  0  0
 30 31  1  0  0  0  0
 31 24  1  6  0  0  0
M  END
>  <CHROM.1>
65.28227082,-169.48334875,-125.37800343,49.89182385,85.55910797,172.87872404
15.16491558,22.15492981,33.33300425,-0.17147145,0.97999751,-2.45324384

>  <Name>
2fcz_lig

>  <RI>
1.40544e+07

>  <Rbt.Current_Directory>
/home/itssahil/PROJECTS/Mol_Feturizer/New_Systems/rnas/2fcz

>  <Rbt.Executable>
rbdock ($Id: //depot/dev/client3/rdock/2013.1/src/exe/rbdock.cxx#4 $)

>  <Rbt.Library>
libRbt.so (2013.1, Build901 2013/11/27)

>  <Rbt.Parameter_File>
/export/apps/rDock/src/rDock_2013.1_src/data/scripts/dock_solv.prm

>  <Rbt.Receptor>
prm/blind_docking_100.prm

>  <SCORE>
-6.13524

>  <SCORE.INTER>
-9.31705

>  <SCORE.INTER.CONST>
1

>  <SCORE.INTER.POLAR>
-0.527414

>  <SCORE.INTER.ROT>
6

>  <SCORE.INTER.SOLV>
20.2277

>  <SCORE.INTER.VDW>
-18.7959

>  <SCORE.INTER.norm>
-0.30055

>  <SCORE.INTRA>
3.18181

>  <SCORE.INTRA.DIHEDRAL>
0.417163

>  <SCORE.INTRA.DIHEDRAL.0>
10.8409

>  <SCORE.INTRA.POLAR>
0

>  <SCORE.INTRA.POLAR.0>
0

>  <SCORE.INTRA.REPUL>
0.00130669

>  <SCORE.INTRA.REPUL.0>
0

>  <SCORE.INTRA.SOLV>
-1.50029

>  <SCORE.INTRA.SOLV.lig_0>
-80.8302

>  <SCORE.INTRA.VDW>
3.71684

>  <SCORE.INTRA.VDW.0>
-4.23953

>  <SCORE.INTRA.norm>
0.102639

>  <SCORE.RESTR>
0

>  <SCORE.RESTR.CAVITY>
0

>  <SCORE.RESTR.norm>
0

>  <SCORE.SYSTEM>
0

>  <SCORE.SYSTEM.CONST>
0

>  <SCORE.SYSTEM.DIHEDRAL>
0

>  <SCORE.SYSTEM.SOLV>
0

>  <SCORE.SYSTEM.norm>
0

>  <SCORE.heavy>
31

>  <SCORE.norm>
-0.197911

>  <RMSD>
6.486

$$$$
2fcz_lig
 OpenBabel11021811433D
libRbt.so/2013.1/901 2013/11/27
 31 33  0  0  0  0  0  0  0  0999 V2000
   10.8930   15.0361   41.2675 C   0  0  0  0  0  0  0  0  0  0  0  0
   14.5108   20.9086   36.3138 N   0  0  0  0  0  0  0  0  0  0  0  0
   10.3531   14.7018   39.9860 O   0  0  0  0  0  0  0  0  0  0  0  0
   11.2171   16.5332   41.3149 C   0  0  1  0  0  0  0  0  0  0  0  0
   14.6289   16.4903   34.2134 N   0  0  0  0  0  0  0  0  0  0  0  0
   12.0953   16.9230   40.2396 O   0  0  0  0  0  0  0  0  0  0  0  0
   11.3607   17.7017   39.2743 C   0  0  1  0  0  0  0  0  0  0  0  0
    8.9654   13.9876   34.5636 N   0  0  0  0  0  0  0  0  0  0  0  0
   11.6312   17.3026   37.9198 O   0  0  0  0  0  0  0  0  0  0  0  0
   12.9614   17.6080   37.4682 C   0  0  2  0  0  0  0  0  0  0  0  0
   13.7767   13.1406   38.1115 N   0  0  0  0  0  0  0  0  0  0  0  0
   12.9029   19.8451   38.3880 O   0  0  0  0  0  0  0  0  0  0  0  0
   13.0603   19.1097   37.1721 C   0  0  1  0  0  0  0  0  0  0  0  0
   13.4407   15.3868   36.5194 O   0  0  0  0  0  0  0  0  0  0  0  0
   14.4145   19.4619   36.5521 C   0  0  1  0  0  0  0  0  0  0  0  0
   11.1709   14.8897   36.1029 O   0  0  0  0  0  0  0  0  0  0  0  0
   14.5990   18.7120   35.2310 C   0  0  0  0  0  0  0  0  0  0  0  0
   11.8773   12.1453   33.7498 O   0  0  0  0  0  0  0  0  0  0  0  0
   14.5517   17.2060   35.4969 C   0  0  1  0  0  0  0  0  0  0  0  0
   13.0126   11.1552   36.1960 O   0  0  0  0  0  0  0  0  0  0  0  0
   13.2697   16.7814   36.2214 C   0  0  2  0  0  0  0  0  0  0  0  0
    9.0103   18.4588   39.1434 O   0  0  0  0  0  0  0  0  0  0  0  0
   12.2606   14.7528   37.0339 C   0  0  1  0  0  0  0  0  0  0  0  0
   10.1014   18.6752   41.6953 O   0  0  0  0  0  0  0  0  0  0  0  0
   11.3986   14.2729   34.8239 C   0  0  2  0  0  0  0  0  0  0  0  0
   10.1797   14.5253   33.9330 C   0  0  0  0  0  0  0  0  0  0  0  0
   11.6176   12.7675   35.0119 C   0  0  2  0  0  0  0  0  0  0  0  0
   12.8128   12.5495   35.9421 C   0  0  1  0  0  0  0  0  0  0  0  0
   12.5791   13.2730   37.2703 C   0  0  1  0  0  0  0  0  0  0  0  0
    9.8927   17.4335   39.6098 C   0  0  2  0  0  0  0  0  0  0  0  0
    9.9495   17.3684   41.1348 C   0  0  1  0  0  0  0  0  0  0  0  0
  3  1  1  0  0  0  0
  4  1  1  6  0  0  0
  4  6  1  0  0  0  0
  4 31  1  0  0  0  0
  6  7  1  0  0  0  0
  7  9  1  6  0  0  0
  7 30  1  0  0  0  0
 10  9  1  6  0  0  0
 10 13  1  0  0  0  0
 10 21  1  0  0  0  0
 13 12  1  1  0  0  0
 13 15  1  0  0  0  0
 15  2  1  6  0  0  0
 15 17  1  0  0  0  0
 16 25  1  0  0  0  0
 17 19  1  0  0  0  0
 19  5  1  6  0  0  0
 19 21  1  0  0  0  0
 21 14  1  1  0  0  0
 23 14  1  6  0  0  0
 23 16  1  0  0  0  0
 23 29  1  0  0  0  0
 25 26  1  6  0  0  0
 25 27  1  0  0  0  0
 26  8  1  0  0  0  0
 27 18  1  6  0  0  0
 27 28  1  0  0  0  0
 28 20  1  1  0  0  0
 28 29  1  0  0  0  0
 29 11  1  1  0  0  0
 30 22  1  1  0  0  0
 30 31  1  0  0  0  0
 31 24  1  1  0  0  0
M  END
>  <CHROM.1>
-55.21202953,-68.77390419,-75.69659544,63.77279125,57.69059415,-58.27147016
12.05191923,16.09006339,37.37748445,1.75559625,0.94402942,0.58093097

>  <Name>
2fcz_lig

>  <RI>
1.32928e+07

>  <Rbt.Current_Directory>
/home/itssahil/PROJECTS/Mol_Feturizer/New_Systems/rnas/2fcz

>  <Rbt.Executable>
rbdock ($Id: //depot/dev/client3/rdock/2013.1/src/exe/rbdock.cxx#4 $)

>  <Rbt.Library>
libRbt.so (2013.1, Build901 2013/11/27)

>  <Rbt.Parameter_File>
/export/apps/rDock/src/rDock_2013.1_src/data/scripts/dock_solv.prm

>  <Rbt.Receptor>
prm/pocket_docking_7.prm

>  <SCORE>
-11.3601

>  <SCORE.INTER>
-7.77643

>  <SCORE.INTER.CONST>
1

>  <SCORE.INTER.POLAR>
-1.89158

>  <SCORE.INTER.ROT>
6

>  <SCORE.INTER.SOLV>
6.96691

>  <SCORE.INTER.VDW>
-8.80131

>  <SCORE.INTER.norm>
-0.250853

>  <SCORE.INTRA>
-3.58514

>  <SCORE.INTRA.DIHEDRAL>
-8.98083

>  <SCORE.INTRA.DIHEDRAL.0>
10.8409

>  <SCORE.INTRA.POLAR>
0

>  <SCORE.INTRA.POLAR.0>
0

>  <SCORE.INTRA.REPUL>
0

>  <SCORE.INTRA.REPUL.0>
0

>  <SCORE.INTRA.SOLV>
-1.73225

>  <SCORE.INTRA.SOLV.lig_0>
-80.8302

>  <SCORE.INTRA.VDW>
1.77139

>  <SCORE.INTRA.VDW.0>
-4.23953

>  <SCORE.INTRA.norm>
-0.11565

>  <SCORE.RESTR>
0.00143843

>  <SCORE.RESTR.CAVITY>
0.00143843

>  <SCORE.RESTR.norm>
4.6401e-05

>  <SCORE.SYSTEM>
0

>  <SCORE.SYSTEM.CONST>
0

>  <SCORE.SYSTEM.DIHEDRAL>
0

>  <SCORE.SYSTEM.SOLV>
0

>  <SCORE.SYSTEM.norm>
0

>  <SCORE.heavy>
31

>  <SCORE.norm>
-0.366456

>  <RMSD>
6.491

$$$$
2fcz_lig
 OpenBabel11021811433D
libRbt.so/2013.1/901 2013/11/27
 31 33  0  0  0  0  0  0  0  0999 V2000
    9.7784   23.6430   31.4739 C   0  0  0  0  0  0  0  0  0  0  0  0
   15.1274   19.1020   37.0666 N   0  0  0  0  0  0  0  0  0  0  0  0
    8.5015   24.1039   31.0238 O   0  0  0  0  0  0  0  0  0  0  0  0
    9.7295   22.1275   31.6967 C   0  0  1  0  0  0  0  0  0  0  0  0
   16.7811   21.6464   33.2274 N   0  0  0  0  0  0  0  0  0  0  0  0
   11.0046   21.6107   32.1288 O   0  0  0  0  0  0  0  0  0  0  0  0
   10.9278   21.2355   33.5184 C   0  0  1  0  0  0  0  0  0  0  0  0
   17.4154   24.6590   33.0318 N   0  0  0  0  0  0  0  0  0  0  0  0
   12.0611   21.6896   34.2778 O   0  0  0  0  0  0  0  0  0  0  0  0
   13.1915   20.8021   34.2401 C   0  0  2  0  0  0  0  0  0  0  0  0
   12.3606   21.9820   30.0830 N   0  0  0  0  0  0  0  0  0  0  0  0
   12.4737   19.5901   36.2072 O   0  0  0  0  0  0  0  0  0  0  0  0
   13.5427   20.3730   35.6701 C   0  0  1  0  0  0  0  0  0  0  0  0
   14.1699   21.6997   32.1663 O   0  0  0  0  0  0  0  0  0  0  0  0
   14.8273   19.5415   35.6969 C   0  0  1  0  0  0  0  0  0  0  0  0
   14.8606   23.9524   32.0200 O   0  0  0  0  0  0  0  0  0  0  0  0
   15.9980   20.3649   35.1554 C   0  0  0  0  0  0  0  0  0  0  0  0
   16.8470   23.4732   28.9553 O   0  0  0  0  0  0  0  0  0  0  0  0
   15.7006   20.7721   33.7109 C   0  0  1  0  0  0  0  0  0  0  0  0
   14.1889   22.8523   28.0595 O   0  0  0  0  0  0  0  0  0  0  0  0
   14.3676   21.5163   33.5770 C   0  0  2  0  0  0  0  0  0  0  0  0
    9.1092   21.2993   35.1928 O   0  0  0  0  0  0  0  0  0  0  0  0
   13.7760   23.0308   31.8022 C   0  0  1  0  0  0  0  0  0  0  0  0
    8.2727   20.4303   32.6839 O   0  0  0  0  0  0  0  0  0  0  0  0
   16.0370   23.6841   31.2377 C   0  0  2  0  0  0  0  0  0  0  0  0
   17.1102   24.7155   31.5948 C   0  0  0  0  0  0  0  0  0  0  0  0
   15.6922   23.7696   29.7466 C   0  0  2  0  0  0  0  0  0  0  0  0
   14.5865   22.7600   29.4313 C   0  0  1  0  0  0  0  0  0  0  0  0
   13.3716   23.0208   30.3246 C   0  0  1  0  0  0  0  0  0  0  0  0
    9.6572   21.9196   34.0255 C   0  0  2  0  0  0  0  0  0  0  0  0
    8.7433   21.7748   32.8101 C   0  0  1  0  0  0  0  0  0  0  0  0
  3  1  1  0  0  0  0
  4  1  1  1  0  0  0
  4  6  1  0  0  0  0
  4 31  1  0  0  0  0
  6  7  1  0  0  0  0
  7  9  1  1  0  0  0
  7 30  1  0  0  0  0
 10  9  1  1  0  0  0
 10 13  1  0  0  0  0
 10 21  1  0  0  0  0
 13 12  1  6  0  0  0
 13 15  1  0  0  0  0
 15  2  1  1  0  0  0
 15 17  1  0  0  0  0
 16 25  1  0  0  0  0
 17 19  1  0  0  0  0
 19  5  1  1  0  0  0
 19 21  1  0  0  0  0
 21 14  1  6  0  0  0
 23 14  1  6  0  0  0
 23 16  1  0  0  0  0
 23 29  1  0  0  0  0
 25 26  1  1  0  0  0
 25 27  1  0  0  0  0
 26  8  1  0  0  0  0
 27 18  1  6  0  0  0
 27 28  1  0  0  0  0
 28 20  1  6  0  0  0
 28 29  1  0  0  0  0
 29 11  1  1  0  0  0
 30 22  1  1  0  0  0
 30 31  1  0  0  0  0
 31 24  1  6  0  0  0
M  END
>  <CHROM.1>
178.93655030,-85.58761308,-121.47827912,102.17913634,68.65873753,58.32112715
13.18619801,22.04336950,32.62203440,2.67584384,0.05424185,2.10142402

>  <Name>
2fcz_lig

>  <RI>
1.40544e+07

>  <Rbt.Current_Directory>
/home/itssahil/PROJECTS/Mol_Feturizer/New_Systems/rnas/2fcz

>  <Rbt.Executable>
rbdock ($Id: //depot/dev/client3/rdock/2013.1/src/exe/rbdock.cxx#4 $)

>  <Rbt.Library>
libRbt.so (2013.1, Build901 2013/11/27)

>  <Rbt.Parameter_File>
/export/apps/rDock/src/rDock_2013.1_src/data/scripts/dock_solv.prm

>  <Rbt.Receptor>
prm/blind_docking_100.prm

>  <SCORE>
-11.7947

>  <SCORE.INTER>
-15.9559

>  <SCORE.INTER.CONST>
1

>  <SCORE.INTER.POLAR>
-1.59129

>  <SCORE.INTER.ROT>
6

>  <SCORE.INTER.SOLV>
14.8632

>  <SCORE.INTER.VDW>
-17.8874

>  <SCORE.INTER.norm>
-0.514707

>  <SCORE.INTRA>
4.16119

>  <SCORE.INTRA.DIHEDRAL>
5.2262

>  <SCORE.INTRA.DIHEDRAL.0>
10.8409

>  <SCORE.INTRA.POLAR>
0

>  <SCORE.INTRA.POLAR.0>
0

>  <SCORE.INTRA.REPUL>
0

>  <SCORE.INTRA.REPUL.0>
0

>  <SCORE.INTRA.SOLV>
3.50283

>  <SCORE.INTRA.SOLV.lig_0>
-80.8302

>  <SCORE.INTRA.VDW>
-0.203324

>  <SCORE.INTRA.VDW.0>
-4.23953

>  <SCORE.INTRA.norm>
0.134232

>  <SCORE.RESTR>
0

>  <SCORE.RESTR.CAVITY>
0

>  <SCORE.RESTR.norm>
0

>  <SCORE.SYSTEM>
0

>  <SCORE.SYSTEM.CONST>
0

>  <SCORE.SYSTEM.DIHEDRAL>
0

>  <SCORE.SYSTEM.SOLV>
0

>  <SCORE.SYSTEM.norm>
0

>  <SCORE.heavy>
31

>  <SCORE.norm>
-0.380475

>  <RMSD>
6.497

$$$$
2fcz_lig
 OpenBabel11021811433D
libRbt.so/2013.1/901 2013/11/27
 31 33  0  0  0  0  0  0  0  0999 V2000
    9.7384   20.8725   33.3930 C   0  0  0  0  0  0  0  0  0  0  0  0
   16.5773   17.0849   35.8320 N   0  0  0  0  0  0  0  0  0  0  0  0
    8.3524   21.1616   33.5958 O   0  0  0  0  0  0  0  0  0  0  0  0
   10.2460   19.9678   34.5209 C   0  0  1  0  0  0  0  0  0  0  0  0
   17.9741   20.4345   32.5491 N   0  0  0  0  0  0  0  0  0  0  0  0
   11.6207   19.5823   34.3174 O   0  0  0  0  0  0  0  0  0  0  0  0
   12.4599   20.2656   35.2696 C   0  0  1  0  0  0  0  0  0  0  0  0
   18.9104   23.7810   32.5493 N   0  0  0  0  0  0  0  0  0  0  0  0
   13.6445   20.8159   34.6687 O   0  0  0  0  0  0  0  0  0  0  0  0
   14.5407   19.8336   34.1221 C   0  0  2  0  0  0  0  0  0  0  0  0
   12.8939   22.0127   31.0515 N   0  0  0  0  0  0  0  0  0  0  0  0
   13.9683   18.1853   35.7981 O   0  0  0  0  0  0  0  0  0  0  0  0
   15.0562   18.9369   35.2545 C   0  0  1  0  0  0  0  0  0  0  0  0
   15.2788   21.1827   32.1988 O   0  0  0  0  0  0  0  0  0  0  0  0
   16.1242   17.9655   34.7464 C   0  0  1  0  0  0  0  0  0  0  0  0
   16.0768   23.3945   32.4093 O   0  0  0  0  0  0  0  0  0  0  0  0
   17.3174   18.7422   34.1854 C   0  0  0  0  0  0  0  0  0  0  0  0
   16.8281   23.7993   28.8260 O   0  0  0  0  0  0  0  0  0  0  0  0
   16.8463   19.6152   33.0206 C   0  0  1  0  0  0  0  0  0  0  0  0
   13.9797   23.4252   28.8109 O   0  0  0  0  0  0  0  0  0  0  0  0
   15.6939   20.5447   33.4168 C   0  0  2  0  0  0  0  0  0  0  0  0
   11.9955   21.8722   37.0912 O   0  0  0  0  0  0  0  0  0  0  0  0
   14.9053   22.5588   32.3610 C   0  0  1  0  0  0  0  0  0  0  0  0
   10.1537   19.7891   36.9575 O   0  0  0  0  0  0  0  0  0  0  0  0
   16.8805   23.3637   31.2171 C   0  0  2  0  0  0  0  0  0  0  0  0
   18.0995   24.2663   31.4232 C   0  0  0  0  0  0  0  0  0  0  0  0
   16.0503   23.8547   30.0258 C   0  0  2  0  0  0  0  0  0  0  0  0
   14.8174   22.9612   29.8747 C   0  0  1  0  0  0  0  0  0  0  0  0
   14.0155   22.9537   31.1781 C   0  0  1  0  0  0  0  0  0  0  0  0
   11.5799   21.3950   35.8078 C   0  0  2  0  0  0  0  0  0  0  0  0
   10.2187   20.7040   35.8604 C   0  0  1  0  0  0  0  0  0  0  0  0
  3  1  1  0  0  0  0
  4  1  1  6  0  0  0
  4  6  1  0  0  0  0
  4 31  1  0  0  0  0
  6  7  1  0  0  0  0
  7  9  1  6  0  0  0
  7 30  1  0  0  0  0
 10  9  1  1  0  0  0
 10 13  1  0  0  0  0
 10 21  1  0  0  0  0
 13 12  1  6  0  0  0
 13 15  1  0  0  0  0
 15  2  1  1  0  0  0
 15 17  1  0  0  0  0
 16 25  1  0  0  0  0
 17 19  1  0  0  0  0
 19  5  1  1  0  0  0
 19 21  1  0  0  0  0
 21 14  1  6  0  0  0
 23 14  1  6  0  0  0
 23 16  1  0  0  0  0
 23 29  1  0  0  0  0
 25 26  1  1  0  0  0
 25 27  1  0  0  0  0
 26  8  1  0  0  0  0
 27 18  1  6  0  0  0
 27 28  1  0  0  0  0
 28 20  1  6  0  0  0
 28 29  1  0  0  0  0
 29 11  1  6  0  0  0
 30 22  1  1  0  0  0
 30 31  1  0  0  0  0
 31 24  1  1  0  0  0
M  END
>  <CHROM.1>
176.53798628,-63.88589181,-63.04418757,92.95495873,80.11553308,60.94112597
14.23708214,21.14998156,33.30751393,2.36361160,-0.15461804,2.30857604

>  <Name>
2fcz_lig

>  <RI>
2.6968e+07

>  <Rbt.Current_Directory>
/home/itssahil/PROJECTS/Mol_Feturizer/New_Systems/rnas/2fcz

>  <Rbt.Executable>
rbdock ($Id: //depot/dev/client3/rdock/2013.1/src/exe/rbdock.cxx#4 $)

>  <Rbt.Library>
libRbt.so (2013.1, Build901 2013/11/27)

>  <Rbt.Parameter_File>
/export/apps/rDock/src/rDock_2013.1_src/data/scripts/dock_solv.prm

>  <Rbt.Receptor>
prm/blind_docking_60.prm

>  <SCORE>
-21.3826

>  <SCORE.INTER>
-21.2116

>  <SCORE.INTER.CONST>
1

>  <SCORE.INTER.POLAR>
-2.48147

>  <SCORE.INTER.ROT>
6

>  <SCORE.INTER.SOLV>
17.682

>  <SCORE.INTER.VDW>
-19.3635

>  <SCORE.INTER.norm>
-0.684246

>  <SCORE.INTRA>
-0.786875

>  <SCORE.INTRA.DIHEDRAL>
-4.63279

>  <SCORE.INTRA.DIHEDRAL.0>
10.8409

>  <SCORE.INTRA.POLAR>
0

>  <SCORE.INTRA.POLAR.0>
0

>  <SCORE.INTRA.REPUL>
0

>  <SCORE.INTRA.REPUL.0>
0

>  <SCORE.INTRA.SOLV>
-0.75259

>  <SCORE.INTRA.SOLV.lig_0>
-80.8302

>  <SCORE.INTRA.VDW>
1.90581

>  <SCORE.INTRA.VDW.0>
-4.23953

>  <SCORE.INTRA.norm>
-0.0253831

>  <SCORE.RESTR>
0.615944

>  <SCORE.RESTR.CAVITY>
0.615944

>  <SCORE.RESTR.norm>
0.0198692

>  <SCORE.SYSTEM>
0

>  <SCORE.SYSTEM.CONST>
0

>  <SCORE.SYSTEM.DIHEDRAL>
0

>  <SCORE.SYSTEM.SOLV>
0

>  <SCORE.SYSTEM.norm>
0

>  <SCORE.heavy>
31

>  <SCORE.norm>
-0.68976

>  <RMSD>
6.510

$$$$
2fcz_lig
 OpenBabel11021811433D
libRbt.so/2013.1/901 2013/11/27
 31 33  0  0  0  0  0  0  0  0999 V2000
    8.5690   18.8554   31.3114 C   0  0  0  0  0  0  0  0  0  0  0  0
   12.8407   22.5652   34.3725 N   0  0  0  0  0  0  0  0  0  0  0  0
    8.1375   17.9947   30.2538 O   0  0  0  0  0  0  0  0  0  0  0  0
    9.6646   18.1600   32.1266 C   0  0  1  0  0  0  0  0  0  0  0  0
   13.2566   19.1721   37.8741 N   0  0  0  0  0  0  0  0  0  0  0  0
   10.1417   18.9957   33.2006 O   0  0  0  0  0  0  0  0  0  0  0  0
    9.6772   18.4739   34.4615 C   0  0  1  0  0  0  0  0  0  0  0  0
   11.7865   15.2101   41.2117 N   0  0  0  0  0  0  0  0  0  0  0  0
    9.1589   19.4981   35.3273 O   0  0  0  0  0  0  0  0  0  0  0  0
   10.1668   20.3225   35.9367 C   0  0  2  0  0  0  0  0  0  0  0  0
    7.7125   19.3466   38.1992 N   0  0  0  0  0  0  0  0  0  0  0  0
   10.0804   21.9682   34.1653 O   0  0  0  0  0  0  0  0  0  0  0  0
   10.9494   21.0548   34.8397 C   0  0  1  0  0  0  0  0  0  0  0  0
   10.4477   18.9514   37.9628 O   0  0  0  0  0  0  0  0  0  0  0  0
   12.1268   21.8350   35.4290 C   0  0  1  0  0  0  0  0  0  0  0  0
   10.2378   16.6073   38.1475 O   0  0  0  0  0  0  0  0  0  0  0  0
   13.0922   20.8784   36.1322 C   0  0  0  0  0  0  0  0  0  0  0  0
    9.5843   16.6354   41.7724 O   0  0  0  0  0  0  0  0  0  0  0  0
   12.3544   20.1626   37.2655 C   0  0  1  0  0  0  0  0  0  0  0  0
    7.3271   18.0798   40.7371 O   0  0  0  0  0  0  0  0  0  0  0  0
   11.0916   19.4444   36.7775 C   0  0  2  0  0  0  0  0  0  0  0  0
    8.3046   16.5126   35.0813 O   0  0  0  0  0  0  0  0  0  0  0  0
    9.5897   17.8243   37.7329 C   0  0  1  0  0  0  0  0  0  0  0  0
   10.1720   15.9706   33.0892 O   0  0  0  0  0  0  0  0  0  0  0  0
   10.5607   16.5511   39.5478 C   0  0  2  0  0  0  0  0  0  0  0  0
   11.2695   15.2253   39.8356 C   0  0  0  0  0  0  0  0  0  0  0  0
    9.2751   16.6577   40.3756 C   0  0  2  0  0  0  0  0  0  0  0  0
    8.5678   17.9704   40.0319 C   0  0  1  0  0  0  0  0  0  0  0  0
    8.2974   18.0391   38.5272 C   0  0  1  0  0  0  0  0  0  0  0  0
    8.5584   17.5031   34.0804 C   0  0  2  0  0  0  0  0  0  0  0  0
    9.1229   16.8973   32.7968 C   0  0  1  0  0  0  0  0  0  0  0  0
  3  1  1  0  0  0  0
  4  1  1  1  0  0  0
  4  6  1  0  0  0  0
  4 31  1  0  0  0  0
  6  7  1  0  0  0  0
  7  9  1  1  0  0  0
  7 30  1  0  0  0  0
 10  9  1  6  0  0  0
 10 13  1  0  0  0  0
 10 21  1  0  0  0  0
 13 12  1  1  0  0  0
 13 15  1  0  0  0  0
 15  2  1  6  0  0  0
 15 17  1  0  0  0  0
 16 25  1  0  0  0  0
 17 19  1  0  0  0  0
 19  5  1  6  0  0  0
 19 21  1  0  0  0  0
 21 14  1  1  0  0  0
 23 14  1  1  0  0  0
 23 16  1  0  0  0  0
 23 29  1  0  0  0  0
 25 26  1  6  0  0  0
 25 27  1  0  0  0  0
 26  8  1  0  0  0  0
 27 18  1  1  0  0  0
 27 28  1  0  0  0  0
 28 20  1  1  0  0  0
 28 29  1  0  0  0  0
 29 11  1  1  0  0  0
 30 22  1  1  0  0  0
 30 31  1  0  0  0  0
 31 24  1  1  0  0  0
M  END
>  <CHROM.1>
179.47946733,-74.77786292,61.60828084,79.58840774,102.44731659,171.93116420
10.03861466,18.47423617,36.38635038,1.58530604,-0.91913073,-1.26031059

>  <Name>
2fcz_lig

>  <RI>
0

>  <Rbt.Current_Directory>
/home/itssahil/PROJECTS/Mol_Feturizer/New_Systems/rnas/2fcz

>  <Rbt.Executable>
rbdock ($Id: //depot/dev/client3/rdock/2013.1/src/exe/rbdock.cxx#4 $)

>  <Rbt.Library>
libRbt.so (2013.1, Build901 2013/11/27)

>  <Rbt.Parameter_File>
/export/apps/rDock/src/rDock_2013.1_src/data/scripts/dock_solv.prm

>  <Rbt.Receptor>
prm/pocket_docking_6.prm

>  <SCORE>
-18.1788

>  <SCORE.INTER>
-18.7834

>  <SCORE.INTER.CONST>
1

>  <SCORE.INTER.POLAR>
-2.62639

>  <SCORE.INTER.ROT>
6

>  <SCORE.INTER.SOLV>
15.8565

>  <SCORE.INTER.VDW>
-16.6531

>  <SCORE.INTER.norm>
-0.605917

>  <SCORE.INTRA>
0.604599

>  <SCORE.INTRA.DIHEDRAL>
-1.95294

>  <SCORE.INTRA.DIHEDRAL.0>
10.8409

>  <SCORE.INTRA.POLAR>
0

>  <SCORE.INTRA.POLAR.0>
0

>  <SCORE.INTRA.REPUL>
0

>  <SCORE.INTRA.REPUL.0>
0

>  <SCORE.INTRA.SOLV>
-0.671766

>  <SCORE.INTRA.SOLV.lig_0>
-80.8302

>  <SCORE.INTRA.VDW>
1.91695

>  <SCORE.INTRA.VDW.0>
-4.23953

>  <SCORE.INTRA.norm>
0.0195032

>  <SCORE.RESTR>
0

>  <SCORE.RESTR.CAVITY>
0

>  <SCORE.RESTR.norm>
0

>  <SCORE.SYSTEM>
0

>  <SCORE.SYSTEM.CONST>
0

>  <SCORE.SYSTEM.DIHEDRAL>
0

>  <SCORE.SYSTEM.SOLV>
0

>  <SCORE.SYSTEM.norm>
0

>  <SCORE.heavy>
31

>  <SCORE.norm>
-0.586414

>  <RMSD>
6.515

$$$$
2fcz_lig
 OpenBabel11021811433D
libRbt.so/2013.1/901 2013/11/27
 31 33  0  0  0  0  0  0  0  0999 V2000
    7.9398   18.7451   33.8247 C   0  0  0  0  0  0  0  0  0  0  0  0
   13.2224   23.7279   28.8486 N   0  0  0  0  0  0  0  0  0  0  0  0
    8.1819   18.9534   35.2188 O   0  0  0  0  0  0  0  0  0  0  0  0
    7.7936   20.0980   33.1197 C   0  0  1  0  0  0  0  0  0  0  0  0
   15.5172   22.3946   32.9600 N   0  0  0  0  0  0  0  0  0  0  0  0
    8.9945   20.8889   33.2294 O   0  0  0  0  0  0  0  0  0  0  0  0
    9.6545   20.9449   31.9492 C   0  0  1  0  0  0  0  0  0  0  0  0
   14.6476   17.7824   32.5420 N   0  0  0  0  0  0  0  0  0  0  0  0
   11.0719   20.7245   32.0469 O   0  0  0  0  0  0  0  0  0  0  0  0
   11.8648   21.9183   31.9322 C   0  0  2  0  0  0  0  0  0  0  0  0
   11.7742   21.9757   36.5365 N   0  0  0  0  0  0  0  0  0  0  0  0
   10.8407   22.5560   29.8350 O   0  0  0  0  0  0  0  0  0  0  0  0
   12.0910   22.2318   30.4480 C   0  0  1  0  0  0  0  0  0  0  0  0
   13.0352   21.6725   34.0848 O   0  0  0  0  0  0  0  0  0  0  0  0
   13.0491   23.4123   30.2732 C   0  0  1  0  0  0  0  0  0  0  0  0
   12.7506   19.3291   34.1022 O   0  0  0  0  0  0  0  0  0  0  0  0
   14.4086   23.0825   30.8936 C   0  0  0  0  0  0  0  0  0  0  0  0
   15.3756   18.7128   36.6116 O   0  0  0  0  0  0  0  0  0  0  0  0
   14.2262   22.8086   32.3877 C   0  0  1  0  0  0  0  0  0  0  0  0
   13.4759   20.2789   38.0920 O   0  0  0  0  0  0  0  0  0  0  0  0
   13.1926   21.7097   32.6576 C   0  0  2  0  0  0  0  0  0  0  0  0
    9.1242   19.9995   29.7266 O   0  0  0  0  0  0  0  0  0  0  0  0
   12.2183   20.5890   34.5519 C   0  0  1  0  0  0  0  0  0  0  0  0
    6.9032   21.0373   31.0456 O   0  0  0  0  0  0  0  0  0  0  0  0
   14.0729   19.0345   34.5845 C   0  0  2  0  0  0  0  0  0  0  0  0
   14.5195   17.6905   34.0037 C   0  0  0  0  0  0  0  0  0  0  0  0
   14.0589   18.9738   36.1160 C   0  0  2  0  0  0  0  0  0  0  0  0
   13.5655   20.3146   36.6640 C   0  0  1  0  0  0  0  0  0  0  0  0
   12.1879   20.6407   36.0827 C   0  0  1  0  0  0  0  0  0  0  0  0
    9.0098   19.8175   31.1412 C   0  0  2  0  0  0  0  0  0  0  0  0
    7.5622   19.9061   31.6209 C   0  0  1  0  0  0  0  0  0  0  0  0
  3  1  1  0  0  0  0
  4  1  1  1  0  0  0
  4  6  1  0  0  0  0
  4 31  1  0  0  0  0
  6  7  1  0  0  0  0
  7  9  1  1  0  0  0
  7 30  1  0  0  0  0
 10  9  1  6  0  0  0
 10 13  1  0  0  0  0
 10 21  1  0  0  0  0
 13 12  1  1  0  0  0
 13 15  1  0  0  0  0
 15  2  1  6  0  0  0
 15 17  1  0  0  0  0
 16 25  1  0  0  0  0
 17 19  1  0  0  0  0
 19  5  1  6  0  0  0
 19 21  1  0  0  0  0
 21 14  1  1  0  0  0
 23 14  1  1  0  0  0
 23 16  1  0  0  0  0
 23 29  1  0  0  0  0
 25 26  1  6  0  0  0
 25 27  1  0  0  0  0
 26  8  1  0  0  0  0
 27 18  1  1  0  0  0
 27 28  1  0  0  0  0
 28 20  1  1  0  0  0
 28 29  1  0  0  0  0
 29 11  1  6  0  0  0
 30 22  1  6  0  0  0
 30 31  1  0  0  0  0
 31 24  1  6  0  0  0
M  END
>  <CHROM.1>
61.37643700,-103.57417027,-84.22528660,62.43236569,56.77211632,64.82760057
11.78107381,20.68916776,33.14601671,2.41094568,-0.23292250,-1.06378112

>  <Name>
2fcz_lig

>  <RI>
2.76032e+07

>  <Rbt.Current_Directory>
/home/itssahil/PROJECTS/Mol_Feturizer/New_Systems/rnas/2fcz

>  <Rbt.Executable>
rbdock ($Id: //depot/dev/client3/rdock/2013.1/src/exe/rbdock.cxx#4 $)

>  <Rbt.Library>
libRbt.so (2013.1, Build901 2013/11/27)

>  <Rbt.Parameter_File>
/export/apps/rDock/src/rDock_2013.1_src/data/scripts/dock_solv.prm

>  <Rbt.Receptor>
prm/pocket_docking_8.prm

>  <SCORE>
-9.06632

>  <SCORE.INTER>
-7.47589

>  <SCORE.INTER.CONST>
1

>  <SCORE.INTER.POLAR>
-1.50013

>  <SCORE.INTER.ROT>
6

>  <SCORE.INTER.SOLV>
21.6772

>  <SCORE.INTER.VDW>
-14.8092

>  <SCORE.INTER.norm>
-0.241158

>  <SCORE.INTRA>
-1.74005

>  <SCORE.INTRA.DIHEDRAL>
-2.13966

>  <SCORE.INTRA.DIHEDRAL.0>
10.8409

>  <SCORE.INTRA.POLAR>
0

>  <SCORE.INTRA.POLAR.0>
0

>  <SCORE.INTRA.REPUL>
0

>  <SCORE.INTRA.REPUL.0>
0

>  <SCORE.INTRA.SOLV>
-3.61255

>  <SCORE.INTRA.SOLV.lig_0>
-80.8302

>  <SCORE.INTRA.VDW>
1.13605

>  <SCORE.INTRA.VDW.0>
-4.23953

>  <SCORE.INTRA.norm>
-0.0561307

>  <SCORE.RESTR>
0.149618

>  <SCORE.RESTR.CAVITY>
0.149618

>  <SCORE.RESTR.norm>
0.00482638

>  <SCORE.SYSTEM>
0

>  <SCORE.SYSTEM.CONST>
0

>  <SCORE.SYSTEM.DIHEDRAL>
0

>  <SCORE.SYSTEM.SOLV>
0

>  <SCORE.SYSTEM.norm>
0

>  <SCORE.heavy>
31

>  <SCORE.norm>
-0.292462

>  <RMSD>
6.515

$$$$
2fcz_lig
 OpenBabel11021811433D
libRbt.so/2013.1/901 2013/11/27
 31 33  0  0  0  0  0  0  0  0999 V2000
    7.1349   19.6522   30.5817 C   0  0  0  0  0  0  0  0  0  0  0  0
   13.6900   23.7103   29.2879 N   0  0  0  0  0  0  0  0  0  0  0  0
    7.4423   18.2579   30.4983 O   0  0  0  0  0  0  0  0  0  0  0  0
    7.4128   20.1566   32.0018 C   0  0  1  0  0  0  0  0  0  0  0  0
   15.2769   21.8807   33.5401 N   0  0  0  0  0  0  0  0  0  0  0  0
    8.7299   19.7805   32.4530 O   0  0  0  0  0  0  0  0  0  0  0  0
    9.5773   20.9459   32.4943 C   0  0  1  0  0  0  0  0  0  0  0  0
   15.2196   17.8632   33.1172 N   0  0  0  0  0  0  0  0  0  0  0  0
   10.8740   20.7080   31.9206 O   0  0  0  0  0  0  0  0  0  0  0  0
   11.7733   21.8262   32.0088 C   0  0  2  0  0  0  0  0  0  0  0  0
   10.8821   21.3009   36.4364 N   0  0  0  0  0  0  0  0  0  0  0  0
   11.1048   22.7035   29.8554 O   0  0  0  0  0  0  0  0  0  0  0  0
   12.2270   22.2200   30.5976 C   0  0  1  0  0  0  0  0  0  0  0  0
   12.6118   21.3204   34.2682 O   0  0  0  0  0  0  0  0  0  0  0  0
   13.2965   23.3136   30.6469 C   0  0  1  0  0  0  0  0  0  0  0  0
   12.8330   18.9701   34.2811 O   0  0  0  0  0  0  0  0  0  0  0  0
   14.5249   22.8137   31.4103 C   0  0  0  0  0  0  0  0  0  0  0  0
   15.0161   18.8766   37.2464 O   0  0  0  0  0  0  0  0  0  0  0  0
   14.1165   22.4544   32.8403 C   0  0  1  0  0  0  0  0  0  0  0  0
   12.5860   19.9742   38.3156 O   0  0  0  0  0  0  0  0  0  0  0  0
   12.9664   21.4423   32.8818 C   0  0  2  0  0  0  0  0  0  0  0  0
    9.2001   23.3344   31.9770 O   0  0  0  0  0  0  0  0  0  0  0  0
   11.9713   20.0792   34.5979 C   0  0  1  0  0  0  0  0  0  0  0  0
    7.0956   22.1585   33.3690 O   0  0  0  0  0  0  0  0  0  0  0  0
   14.0746   18.9537   35.0065 C   0  0  2  0  0  0  0  0  0  0  0  0
   14.8962   17.7469   34.5466 C   0  0  0  0  0  0  0  0  0  0  0  0
   13.7895   18.8616   36.5097 C   0  0  2  0  0  0  0  0  0  0  0  0
   12.9297   20.0560   36.9286 C   0  0  1  0  0  0  0  0  0  0  0  0
   11.6468   20.0933   36.0951 C   0  0  1  0  0  0  0  0  0  0  0  0
    8.8273   21.9888   31.6640 C   0  0  2  0  0  0  0  0  0  0  0  0
    7.3813   21.6841   32.0505 C   0  0  1  0  0  0  0  0  0  0  0  0
  3  1  1  0  0  0  0
  4  1  1  6  0  0  0
  4  6  1  0  0  0  0
  4 31  1  0  0  0  0
  6  7  1  0  0  0  0
  7  9  1  6  0  0  0
  7 30  1  0  0  0  0
 10  9  1  6  0  0  0
 10 13  1  0  0  0  0
 10 21  1  0  0  0  0
 13 12  1  6  0  0  0
 13 15  1  0  0  0  0
 15  2  1  6  0  0  0
 15 17  1  0  0  0  0
 16 25  1  0  0  0  0
 17 19  1  0  0  0  0
 19  5  1  1  0  0  0
 19 21  1  0  0  0  0
 21 14  1  1  0  0  0
 23 14  1  1  0  0  0
 23 16  1  0  0  0  0
 23 29  1  0  0  0  0
 25 26  1  6  0  0  0
 25 27  1  0  0  0  0
 26  8  1  0  0  0  0
 27 18  1  1  0  0  0
 27 28  1  0  0  0  0
 28 20  1  1  0  0  0
 28 29  1  0  0  0  0
 29 11  1  6  0  0  0
 30 22  1  1  0  0  0
 30 31  1  0  0  0  0
 31 24  1  1  0  0  0
M  END
>  <CHROM.1>
50.51400015,-176.80112931,-122.01463341,79.50038936,59.40227173,62.28498825
11.61046871,20.79520773,33.21360452,2.42684518,-0.15217200,-1.01988306

>  <Name>
2fcz_lig

>  <RI>
2.6968e+07

>  <Rbt.Current_Directory>
/home/itssahil/PROJECTS/Mol_Feturizer/New_Systems/rnas/2fcz

>  <Rbt.Executable>
rbdock ($Id: //depot/dev/client3/rdock/2013.1/src/exe/rbdock.cxx#4 $)

>  <Rbt.Library>
libRbt.so (2013.1, Build901 2013/11/27)

>  <Rbt.Parameter_File>
/export/apps/rDock/src/rDock_2013.1_src/data/scripts/dock_solv.prm

>  <Rbt.Receptor>
prm/blind_docking_60.prm

>  <SCORE>
-20.0477

>  <SCORE.INTER>
-19.1919

>  <SCORE.INTER.CONST>
1

>  <SCORE.INTER.POLAR>
-3.40614

>  <SCORE.INTER.ROT>
6

>  <SCORE.INTER.SOLV>
20.4395

>  <SCORE.INTER.VDW>
-15.854

>  <SCORE.INTER.norm>
-0.619093

>  <SCORE.INTRA>
-0.855777

>  <SCORE.INTRA.DIHEDRAL>
-1.45691

>  <SCORE.INTRA.DIHEDRAL.0>
10.8409

>  <SCORE.INTRA.POLAR>
0

>  <SCORE.INTRA.POLAR.0>
0

>  <SCORE.INTRA.REPUL>
0

>  <SCORE.INTRA.REPUL.0>
0

>  <SCORE.INTRA.SOLV>
-1.63584

>  <SCORE.INTRA.SOLV.lig_0>
-80.8302

>  <SCORE.INTRA.VDW>
0.690597

>  <SCORE.INTRA.VDW.0>
-4.23953

>  <SCORE.INTRA.norm>
-0.0276057

>  <SCORE.RESTR>
0

>  <SCORE.RESTR.CAVITY>
0

>  <SCORE.RESTR.norm>
0

>  <SCORE.SYSTEM>
0

>  <SCORE.SYSTEM.CONST>
0

>  <SCORE.SYSTEM.DIHEDRAL>
0

>  <SCORE.SYSTEM.SOLV>
0

>  <SCORE.SYSTEM.norm>
0

>  <SCORE.heavy>
31

>  <SCORE.norm>
-0.646699

>  <RMSD>
6.519

$$$$
2fcz_lig
 OpenBabel11021811433D
libRbt.so/2013.1/901 2013/11/27
 31 33  0  0  0  0  0  0  0  0999 V2000
    8.6366   18.4610   31.2579 C   0  0  0  0  0  0  0  0  0  0  0  0
   12.8320   22.4480   34.2396 N   0  0  0  0  0  0  0  0  0  0  0  0
    9.1291   19.6106   30.5642 O   0  0  0  0  0  0  0  0  0  0  0  0
    9.7582   17.8515   32.1057 C   0  0  1  0  0  0  0  0  0  0  0  0
   13.2562   19.1881   37.8646 N   0  0  0  0  0  0  0  0  0  0  0  0
   10.2027   18.7595   33.1341 O   0  0  0  0  0  0  0  0  0  0  0  0
    9.7588   18.2860   34.4212 C   0  0  1  0  0  0  0  0  0  0  0  0
   11.8359   15.1910   41.1495 N   0  0  0  0  0  0  0  0  0  0  0  0
    9.2013   19.3328   35.2340 O   0  0  0  0  0  0  0  0  0  0  0  0
   10.1791   20.2004   35.8324 C   0  0  2  0  0  0  0  0  0  0  0  0
    7.7218   19.3227   38.1709 N   0  0  0  0  0  0  0  0  0  0  0  0
   10.0899   21.7816   34.0034 O   0  0  0  0  0  0  0  0  0  0  0  0
   10.9659   20.9120   34.7249 C   0  0  1  0  0  0  0  0  0  0  0  0
   10.4516   18.9068   37.9100 O   0  0  0  0  0  0  0  0  0  0  0  0
   12.1145   21.7387   35.3079 C   0  0  1  0  0  0  0  0  0  0  0  0
   10.2272   16.5653   38.1093 O   0  0  0  0  0  0  0  0  0  0  0  0
   13.0872   20.8291   36.0615 C   0  0  0  0  0  0  0  0  0  0  0  0
    9.6094   16.6171   41.7402 O   0  0  0  0  0  0  0  0  0  0  0  0
   12.3441   20.1363   37.2055 C   0  0  1  0  0  0  0  0  0  0  0  0
    7.3523   18.0720   40.7192 O   0  0  0  0  0  0  0  0  0  0  0  0
   11.1069   19.3731   36.7200 C   0  0  2  0  0  0  0  0  0  0  0  0
    8.4631   16.3079   35.1444 O   0  0  0  0  0  0  0  0  0  0  0  0
    9.5836   17.7846   37.6945 C   0  0  1  0  0  0  0  0  0  0  0  0
   10.3499   15.7360   33.1792 O   0  0  0  0  0  0  0  0  0  0  0  0
   10.5634   16.5143   39.5065 C   0  0  2  0  0  0  0  0  0  0  0  0
   11.2656   15.1850   39.7945 C   0  0  0  0  0  0  0  0  0  0  0  0
    9.2867   16.6343   40.3463 C   0  0  2  0  0  0  0  0  0  0  0  0
    8.5853   17.9501   40.0026 C   0  0  1  0  0  0  0  0  0  0  0  0
    8.3007   18.0127   38.5002 C   0  0  1  0  0  0  0  0  0  0  0  0
    8.6783   17.2544   34.0930 C   0  0  2  0  0  0  0  0  0  0  0  0
    9.2658   16.6052   32.8413 C   0  0  1  0  0  0  0  0  0  0  0  0
  3  1  1  0  0  0  0
  4  1  1  1  0  0  0
  4  6  1  0  0  0  0
  4 31  1  0  0  0  0
  6  7  1  0  0  0  0
  7  9  1  1  0  0  0
  7 30  1  0  0  0  0
 10  9  1  6  0  0  0
 10 13  1  0  0  0  0
 10 21  1  0  0  0  0
 13 12  1  1  0  0  0
 13 15  1  0  0  0  0
 15  2  1  6  0  0  0
 15 17  1  0  0  0  0
 16 25  1  0  0  0  0
 17 19  1  0  0  0  0
 19  5  1  6  0  0  0
 19 21  1  0  0  0  0
 21 14  1  1  0  0  0
 23 14  1  1  0  0  0
 23 16  1  0  0  0  0
 23 29  1  0  0  0  0
 25 26  1  6  0  0  0
 25 27  1  0  0  0  0
 26  8  1  0  0  0  0
 27 18  1  1  0  0  0
 27 28  1  0  0  0  0
 28 20  1  1  0  0  0
 28 29  1  0  0  0  0
 29 11  1  1  0  0  0
 30 22  1  1  0  0  0
 30 31  1  0  0  0  0
 31 24  1  1  0  0  0
M  END
>  <CHROM.1>
63.49190736,-76.65633482,62.00023823,77.33975967,101.33331846,169.99827396
10.11044042,18.42295650,36.35515283,1.51055593,-0.96058609,-1.28568421

>  <Name>
2fcz_lig

>  <RI>
0

>  <Rbt.Current_Directory>
/home/itssahil/PROJECTS/Mol_Feturizer/New_Systems/rnas/2fcz

>  <Rbt.Executable>
rbdock ($Id: //depot/dev/client3/rdock/2013.1/src/exe/rbdock.cxx#4 $)

>  <Rbt.Library>
libRbt.so (2013.1, Build901 2013/11/27)

>  <Rbt.Parameter_File>
/export/apps/rDock/src/rDock_2013.1_src/data/scripts/dock_solv.prm

>  <Rbt.Receptor>
prm/pocket_docking_6.prm

>  <SCORE>
-17.779

>  <SCORE.INTER>
-17.9866

>  <SCORE.INTER.CONST>
1

>  <SCORE.INTER.POLAR>
-2.63362

>  <SCORE.INTER.ROT>
6

>  <SCORE.INTER.SOLV>
14.0836

>  <SCORE.INTER.VDW>
-15.5069

>  <SCORE.INTER.norm>
-0.580214

>  <SCORE.INTRA>
0.207651

>  <SCORE.INTRA.DIHEDRAL>
-2.03513

>  <SCORE.INTRA.DIHEDRAL.0>
10.8409

>  <SCORE.INTRA.POLAR>
0

>  <SCORE.INTRA.POLAR.0>
0

>  <SCORE.INTRA.REPUL>
0

>  <SCORE.INTRA.REPUL.0>
0

>  <SCORE.INTRA.SOLV>
-0.920529

>  <SCORE.INTRA.SOLV.lig_0>
-80.8302

>  <SCORE.INTRA.VDW>
1.68548

>  <SCORE.INTRA.VDW.0>
-4.23953

>  <SCORE.INTRA.norm>
0.00669842

>  <SCORE.RESTR>
0

>  <SCORE.RESTR.CAVITY>
0

>  <SCORE.RESTR.norm>
0

>  <SCORE.SYSTEM>
0

>  <SCORE.SYSTEM.CONST>
0

>  <SCORE.SYSTEM.DIHEDRAL>
0

>  <SCORE.SYSTEM.SOLV>
0

>  <SCORE.SYSTEM.norm>
0

>  <SCORE.heavy>
31

>  <SCORE.norm>
-0.573515

>  <RMSD>
6.520

$$$$
2fcz_lig
 OpenBabel11021811433D
libRbt.so/2013.1/901 2013/11/27
 31 33  0  0  0  0  0  0  0  0999 V2000
    9.7172   20.9021   33.3630 C   0  0  0  0  0  0  0  0  0  0  0  0
   16.5630   17.0620   35.7518 N   0  0  0  0  0  0  0  0  0  0  0  0
    8.3388   21.2117   33.5856 O   0  0  0  0  0  0  0  0  0  0  0  0
   10.2256   19.9842   34.4799 C   0  0  1  0  0  0  0  0  0  0  0  0
   17.9411   20.3992   32.4486 N   0  0  0  0  0  0  0  0  0  0  0  0
   11.5950   19.5880   34.2625 O   0  0  0  0  0  0  0  0  0  0  0  0
   12.4478   20.2563   35.2132 C   0  0  1  0  0  0  0  0  0  0  0  0
   18.9469   24.2746   30.2713 N   0  0  0  0  0  0  0  0  0  0  0  0
   13.6326   20.8006   34.6072 O   0  0  0  0  0  0  0  0  0  0  0  0
   14.5203   19.8140   34.0546 C   0  0  2  0  0  0  0  0  0  0  0  0
   12.8864   21.9850   30.9209 N   0  0  0  0  0  0  0  0  0  0  0  0
   13.9577   18.1714   35.7396 O   0  0  0  0  0  0  0  0  0  0  0  0
   15.0431   18.9180   35.1842 C   0  0  1  0  0  0  0  0  0  0  0  0
   15.2453   21.1562   32.1215 O   0  0  0  0  0  0  0  0  0  0  0  0
   16.1030   17.9417   34.6685 C   0  0  1  0  0  0  0  0  0  0  0  0
   16.0254   23.3698   32.3744 O   0  0  0  0  0  0  0  0  0  0  0  0
   17.2936   18.7130   34.0947 C   0  0  0  0  0  0  0  0  0  0  0  0
   16.8671   23.8144   28.8161 O   0  0  0  0  0  0  0  0  0  0  0  0
   16.8148   19.5850   32.9323 C   0  0  1  0  0  0  0  0  0  0  0  0
   14.0222   23.4256   28.7233 O   0  0  0  0  0  0  0  0  0  0  0  0
   15.6694   20.5194   33.3370 C   0  0  2  0  0  0  0  0  0  0  0  0
   12.0123   21.8528   37.0507 O   0  0  0  0  0  0  0  0  0  0  0  0
   14.8602   22.5286   32.2875 C   0  0  1  0  0  0  0  0  0  0  0  0
   10.1508   19.7874   36.9157 O   0  0  0  0  0  0  0  0  0  0  0  0
   16.8599   23.3552   31.2033 C   0  0  2  0  0  0  0  0  0  0  0  0
   18.0682   24.2620   31.4498 C   0  0  0  0  0  0  0  0  0  0  0  0
   16.0582   23.8538   29.9957 C   0  0  2  0  0  0  0  0  0  0  0  0
   14.8345   22.9553   29.8038 C   0  0  1  0  0  0  0  0  0  0  0  0
   13.9991   22.9306   31.0858 C   0  0  1  0  0  0  0  0  0  0  0  0
   11.5824   21.3893   35.7671 C   0  0  2  0  0  0  0  0  0  0  0  0
   10.2154   20.7101   35.8251 C   0  0  1  0  0  0  0  0  0  0  0  0
  3  1  1  0  0  0  0
  4  1  1  6  0  0  0
  4  6  1  0  0  0  0
  4 31  1  0  0  0  0
  6  7  1  0  0  0  0
  7  9  1  6  0  0  0
  7 30  1  0  0  0  0
 10  9  1  1  0  0  0
 10 13  1  0  0  0  0
 10 21  1  0  0  0  0
 13 12  1  6  0  0  0
 13 15  1  0  0  0  0
 15  2  1  1  0  0  0
 15 17  1  0  0  0  0
 16 25  1  0  0  0  0
 17 19  1  0  0  0  0
 19  5  1  1  0  0  0
 19 21  1  0  0  0  0
 21 14  1  6  0  0  0
 23 14  1  6  0  0  0
 23 16  1  0  0  0  0
 23 29  1  0  0  0  0
 25 26  1  1  0  0  0
 25 27  1  0  0  0  0
 26  8  1  0  0  0  0
 27 18  1  6  0  0  0
 27 28  1  0  0  0  0
 28 20  1  6  0  0  0
 28 29  1  0  0  0  0
 29 11  1  6  0  0  0
 30 22  1  1  0  0  0
 30 31  1  0  0  0  0
 31 24  1  1  0  0  0
M  END
>  <CHROM.1>
177.05270120,-64.31593845,-63.39475052,92.12316738,78.39556162,-179.94006707
14.22625872,21.15643185,33.18006114,2.33681012,-0.18796407,2.32172275

>  <Name>
2fcz_lig

>  <RI>
2.6968e+07

>  <Rbt.Current_Directory>
/home/itssahil/PROJECTS/Mol_Feturizer/New_Systems/rnas/2fcz

>  <Rbt.Executable>
rbdock ($Id: //depot/dev/client3/rdock/2013.1/src/exe/rbdock.cxx#4 $)

>  <Rbt.Library>
libRbt.so (2013.1, Build901 2013/11/27)

>  <Rbt.Parameter_File>
/export/apps/rDock/src/rDock_2013.1_src/data/scripts/dock_solv.prm

>  <Rbt.Receptor>
prm/blind_docking_60.prm

>  <SCORE>
-20.0686

>  <SCORE.INTER>
-20.2118

>  <SCORE.INTER.CONST>
1

>  <SCORE.INTER.POLAR>
-2.36605

>  <SCORE.INTER.ROT>
6

>  <SCORE.INTER.SOLV>
20.2706

>  <SCORE.INTER.VDW>
-19.9446

>  <SCORE.INTER.norm>
-0.651994

>  <SCORE.INTRA>
-0.441394

>  <SCORE.INTRA.DIHEDRAL>
-5.04558

>  <SCORE.INTRA.DIHEDRAL.0>
10.8409

>  <SCORE.INTRA.POLAR>
0

>  <SCORE.INTRA.POLAR.0>
0

>  <SCORE.INTRA.REPUL>
0

>  <SCORE.INTRA.REPUL.0>
0

>  <SCORE.INTRA.SOLV>
-0.721973

>  <SCORE.INTRA.SOLV.lig_0>
-80.8302

>  <SCORE.INTRA.VDW>
2.44238

>  <SCORE.INTRA.VDW.0>
-4.23953

>  <SCORE.INTRA.norm>
-0.0142385

>  <SCORE.RESTR>
0.584628

>  <SCORE.RESTR.CAVITY>
0.584628

>  <SCORE.RESTR.norm>
0.018859

>  <SCORE.SYSTEM>
0

>  <SCORE.SYSTEM.CONST>
0

>  <SCORE.SYSTEM.DIHEDRAL>
0

>  <SCORE.SYSTEM.SOLV>
0

>  <SCORE.SYSTEM.norm>
0

>  <SCORE.heavy>
31

>  <SCORE.norm>
-0.647374

>  <RMSD>
6.531

$$$$
2fcz_lig
 OpenBabel11021811433D
libRbt.so/2013.1/901 2013/11/27
 31 33  0  0  0  0  0  0  0  0999 V2000
    8.6703   18.4779   31.2471 C   0  0  0  0  0  0  0  0  0  0  0  0
   12.8234   22.4202   34.2207 N   0  0  0  0  0  0  0  0  0  0  0  0
    9.1847   19.6148   30.5485 O   0  0  0  0  0  0  0  0  0  0  0  0
    9.7786   17.8540   32.1020 C   0  0  1  0  0  0  0  0  0  0  0  0
   13.2417   19.1998   37.8814 N   0  0  0  0  0  0  0  0  0  0  0  0
   10.2166   18.7499   33.1437 O   0  0  0  0  0  0  0  0  0  0  0  0
    9.7552   18.2674   34.4213 C   0  0  1  0  0  0  0  0  0  0  0  0
   11.7615   15.2035   41.2305 N   0  0  0  0  0  0  0  0  0  0  0  0
    9.1946   19.3100   35.2372 O   0  0  0  0  0  0  0  0  0  0  0  0
   10.1692   20.1855   35.8293 C   0  0  2  0  0  0  0  0  0  0  0  0
    7.7047   19.3150   38.1762 N   0  0  0  0  0  0  0  0  0  0  0  0
   10.0831   21.7470   33.9833 O   0  0  0  0  0  0  0  0  0  0  0  0
   10.9582   20.8866   34.7166 C   0  0  1  0  0  0  0  0  0  0  0  0
   10.4374   18.9146   37.9214 O   0  0  0  0  0  0  0  0  0  0  0  0
   12.1037   21.7212   35.2943 C   0  0  1  0  0  0  0  0  0  0  0  0
   10.2282   16.5737   38.1438 O   0  0  0  0  0  0  0  0  0  0  0  0
   13.0756   20.8212   36.0605 C   0  0  0  0  0  0  0  0  0  0  0  0
    9.6074   16.6577   41.7736 O   0  0  0  0  0  0  0  0  0  0  0  0
   12.3301   20.1394   37.2095 C   0  0  1  0  0  0  0  0  0  0  0  0
    7.3416   18.0874   40.7367 O   0  0  0  0  0  0  0  0  0  0  0  0
   11.0956   19.3692   36.7285 C   0  0  2  0  0  0  0  0  0  0  0  0
    8.4398   16.2905   35.1114 O   0  0  0  0  0  0  0  0  0  0  0  0
    9.5769   17.7846   37.7164 C   0  0  1  0  0  0  0  0  0  0  0  0
   10.3457   15.7254   33.1627 O   0  0  0  0  0  0  0  0  0  0  0  0
   10.5637   16.5388   39.5418 C   0  0  2  0  0  0  0  0  0  0  0  0
   11.2745   15.2171   39.8435 C   0  0  0  0  0  0  0  0  0  0  0  0
    9.2856   16.6588   40.3794 C   0  0  2  0  0  0  0  0  0  0  0  0
    8.5758   17.9665   40.0221 C   0  0  1  0  0  0  0  0  0  0  0  0
    8.2920   18.0122   38.5190 C   0  0  1  0  0  0  0  0  0  0  0  0
    8.6726   17.2452   34.0713 C   0  0  2  0  0  0  0  0  0  0  0  0
    9.2705   16.6040   32.8205 C   0  0  1  0  0  0  0  0  0  0  0  0
  3  1  1  0  0  0  0
  4  1  1  1  0  0  0
  4  6  1  0  0  0  0
  4 31  1  0  0  0  0
  6  7  1  0  0  0  0
  7  9  1  1  0  0  0
  7 30  1  0  0  0  0
 10  9  1  6  0  0  0
 10 13  1  0  0  0  0
 10 21  1  0  0  0  0
 13 12  1  1  0  0  0
 13 15  1  0  0  0  0
 15  2  1  6  0  0  0
 15 17  1  0  0  0  0
 16 25  1  0  0  0  0
 17 19  1  0  0  0  0
 19  5  1  6  0  0  0
 19 21  1  0  0  0  0
 21 14  1  1  0  0  0
 23 14  1  1  0  0  0
 23 16  1  0  0  0  0
 23 29  1  0  0  0  0
 25 26  1  6  0  0  0
 25 27  1  0  0  0  0
 26  8  1  0  0  0  0
 27 18  1  1  0  0  0
 27 28  1  0  0  0  0
 28 20  1  1  0  0  0
 28 29  1  0  0  0  0
 29 11  1  6  0  0  0
 30 22  1  1  0  0  0
 30 31  1  0  0  0  0
 31 24  1  1  0  0  0
M  END
>  <CHROM.1>
64.66120053,-75.26528586,61.12616745,77.63553004,101.04457201,173.96903468
10.10599227,18.42263051,36.36196480,1.50651900,-0.96072108,-1.29684056

>  <Name>
2fcz_lig

>  <RI>
1.32928e+07

>  <Rbt.Current_Directory>
/home/itssahil/PROJECTS/Mol_Feturizer/New_Systems/rnas/2fcz

>  <Rbt.Executable>
rbdock ($Id: //depot/dev/client3/rdock/2013.1/src/exe/rbdock.cxx#4 $)

>  <Rbt.Library>
libRbt.so (2013.1, Build901 2013/11/27)

>  <Rbt.Parameter_File>
/export/apps/rDock/src/rDock_2013.1_src/data/scripts/dock_solv.prm

>  <Rbt.Receptor>
prm/pocket_docking_7.prm

>  <SCORE>
-17.7594

>  <SCORE.INTER>
-17.9794

>  <SCORE.INTER.CONST>
1

>  <SCORE.INTER.POLAR>
-2.62247

>  <SCORE.INTER.ROT>
6

>  <SCORE.INTER.SOLV>
14.117

>  <SCORE.INTER.VDW>
-15.5503

>  <SCORE.INTER.norm>
-0.57998

>  <SCORE.INTRA>
0.21997

>  <SCORE.INTRA.DIHEDRAL>
-2.43033

>  <SCORE.INTRA.DIHEDRAL.0>
10.8409

>  <SCORE.INTRA.POLAR>
0

>  <SCORE.INTRA.POLAR.0>
0

>  <SCORE.INTRA.REPUL>
0

>  <SCORE.INTRA.REPUL.0>
0

>  <SCORE.INTRA.SOLV>
-0.844919

>  <SCORE.INTRA.SOLV.lig_0>
-80.8302

>  <SCORE.INTRA.VDW>
1.85759

>  <SCORE.INTRA.VDW.0>
-4.23953

>  <SCORE.INTRA.norm>
0.0070958

>  <SCORE.RESTR>
0

>  <SCORE.RESTR.CAVITY>
0

>  <SCORE.RESTR.norm>
0

>  <SCORE.SYSTEM>
0

>  <SCORE.SYSTEM.CONST>
0

>  <SCORE.SYSTEM.DIHEDRAL>
0

>  <SCORE.SYSTEM.SOLV>
0

>  <SCORE.SYSTEM.norm>
0

>  <SCORE.heavy>
31

>  <SCORE.norm>
-0.572884

>  <RMSD>
6.534

$$$$
2fcz_lig
 OpenBabel11021811433D
libRbt.so/2013.1/901 2013/11/27
 31 33  0  0  0  0  0  0  0  0999 V2000
    8.4507   18.7572   31.5111 C   0  0  0  0  0  0  0  0  0  0  0  0
   12.3491   22.8334   33.8605 N   0  0  0  0  0  0  0  0  0  0  0  0
    8.0577   17.9114   30.4268 O   0  0  0  0  0  0  0  0  0  0  0  0
    9.6097   18.1089   32.2759 C   0  0  1  0  0  0  0  0  0  0  0  0
   13.6262   19.7565   37.4451 N   0  0  0  0  0  0  0  0  0  0  0  0
   10.1087   18.9709   33.3188 O   0  0  0  0  0  0  0  0  0  0  0  0
    9.7263   18.4442   34.6049 C   0  0  1  0  0  0  0  0  0  0  0  0
   14.1621   16.2724   37.1701 N   0  0  0  0  0  0  0  0  0  0  0  0
    9.2145   19.4568   35.4879 O   0  0  0  0  0  0  0  0  0  0  0  0
   10.1911   20.4264   35.9041 C   0  0  2  0  0  0  0  0  0  0  0  0
    8.6705   18.6696   39.4898 N   0  0  0  0  0  0  0  0  0  0  0  0
    9.6754   21.9262   34.0770 O   0  0  0  0  0  0  0  0  0  0  0  0
   10.7281   21.1619   34.6700 C   0  0  1  0  0  0  0  0  0  0  0  0
   10.9001   19.2377   37.9408 O   0  0  0  0  0  0  0  0  0  0  0  0
   11.8740   22.1047   35.0448 C   0  0  1  0  0  0  0  0  0  0  0  0
   11.4955   16.9603   37.7633 O   0  0  0  0  0  0  0  0  0  0  0  0
   13.0306   21.3099   35.6550 C   0  0  0  0  0  0  0  0  0  0  0  0
   12.7663   16.6985   41.2107 O   0  0  0  0  0  0  0  0  0  0  0  0
   12.5406   20.5983   36.9177 C   0  0  1  0  0  0  0  0  0  0  0  0
    9.9893   17.3023   41.6313 O   0  0  0  0  0  0  0  0  0  0  0  0
   11.3170   19.7147   36.6518 C   0  0  2  0  0  0  0  0  0  0  0  0
    8.4580   16.4406   35.3063 O   0  0  0  0  0  0  0  0  0  0  0  0
   10.4086   17.8895   37.9313 C   0  0  1  0  0  0  0  0  0  0  0  0
   10.2431   15.9479   33.2278 O   0  0  0  0  0  0  0  0  0  0  0  0
   12.4756   16.9929   38.8152 C   0  0  2  0  0  0  0  0  0  0  0  0
   13.5800   15.9844   38.4890 C   0  0  0  0  0  0  0  0  0  0  0  0
   11.8088   16.6387   40.1491 C   0  0  2  0  0  0  0  0  0  0  0  0
   10.6815   17.6363   40.4238 C   0  0  1  0  0  0  0  0  0  0  0  0
    9.6885   17.6352   39.2594 C   0  0  1  0  0  0  0  0  0  0  0  0
    8.6259   17.4305   34.2868 C   0  0  2  0  0  0  0  0  0  0  0  0
    9.1480   16.8338   32.9812 C   0  0  1  0  0  0  0  0  0  0  0  0
  3  1  1  0  0  0  0
  4  1  1  1  0  0  0
  4  6  1  0  0  0  0
  4 31  1  0  0  0  0
  6  7  1  0  0  0  0
  7  9  1  1  0  0  0
  7 30  1  0  0  0  0
 10  9  1  6  0  0  0
 10 13  1  0  0  0  0
 10 21  1  0  0  0  0
 13 12  1  1  0  0  0
 13 15  1  0  0  0  0
 15  2  1  6  0  0  0
 15 17  1  0  0  0  0
 16 25  1  0  0  0  0
 17 19  1  0  0  0  0
 19  5  1  6  0  0  0
 19 21  1  0  0  0  0
 21 14  1  1  0  0  0
 23 14  1  1  0  0  0
 23 16  1  0  0  0  0
 23 29  1  0  0  0  0
 25 26  1  6  0  0  0
 25 27  1  0  0  0  0
 26  8  1  0  0  0  0
 27 18  1  1  0  0  0
 27 28  1  0  0  0  0
 28 20  1  1  0  0  0
 28 29  1  0  0  0  0
 29 11  1  1  0  0  0
 30 22  1  1  0  0  0
 30 31  1  0  0  0  0
 31 24  1  1  0  0  0
M  END
>  <CHROM.1>
175.65551144,-67.15880630,61.11511634,91.89516669,72.97713592,56.23821459
10.73524278,18.55655310,36.24052779,2.12264732,-0.97844543,-0.84876092

>  <Name>
2fcz_lig

>  <RI>
0

>  <Rbt.Current_Directory>
/home/itssahil/PROJECTS/Mol_Feturizer/New_Systems/rnas/2fcz

>  <Rbt.Executable>
rbdock ($Id: //depot/dev/client3/rdock/2013.1/src/exe/rbdock.cxx#4 $)

>  <Rbt.Library>
libRbt.so (2013.1, Build901 2013/11/27)

>  <Rbt.Parameter_File>
/export/apps/rDock/src/rDock_2013.1_src/data/scripts/dock_solv.prm

>  <Rbt.Receptor>
prm/pocket_docking_5.prm

>  <SCORE>
-19.7538

>  <SCORE.INTER>
-18.4316

>  <SCORE.INTER.CONST>
1

>  <SCORE.INTER.POLAR>
-1.85714

>  <SCORE.INTER.ROT>
6

>  <SCORE.INTER.SOLV>
14.0041

>  <SCORE.INTER.VDW>
-18.3653

>  <SCORE.INTER.norm>
-0.594569

>  <SCORE.INTRA>
-1.32221

>  <SCORE.INTRA.DIHEDRAL>
-5.64024

>  <SCORE.INTRA.DIHEDRAL.0>
10.8409

>  <SCORE.INTRA.POLAR>
0

>  <SCORE.INTRA.POLAR.0>
0

>  <SCORE.INTRA.REPUL>
0

>  <SCORE.INTRA.REPUL.0>
0

>  <SCORE.INTRA.SOLV>
-0.752094

>  <SCORE.INTRA.SOLV.lig_0>
-80.8302

>  <SCORE.INTRA.VDW>
1.87396

>  <SCORE.INTRA.VDW.0>
-4.23953

>  <SCORE.INTRA.norm>
-0.0426518

>  <SCORE.RESTR>
0

>  <SCORE.RESTR.CAVITY>
0

>  <SCORE.RESTR.norm>
0

>  <SCORE.SYSTEM>
0

>  <SCORE.SYSTEM.CONST>
0

>  <SCORE.SYSTEM.DIHEDRAL>
0

>  <SCORE.SYSTEM.SOLV>
0

>  <SCORE.SYSTEM.norm>
0

>  <SCORE.heavy>
31

>  <SCORE.norm>
-0.637221

>  <RMSD>
6.553

$$$$
2fcz_lig
 OpenBabel11021811433D
libRbt.so/2013.1/901 2013/11/27
 31 33  0  0  0  0  0  0  0  0999 V2000
   15.1719   17.0271   37.5656 C   0  0  0  0  0  0  0  0  0  0  0  0
    8.9611   15.0805   42.3422 N   0  0  0  0  0  0  0  0  0  0  0  0
   16.4680   16.8567   36.9855 O   0  0  0  0  0  0  0  0  0  0  0  0
   14.7727   15.7528   38.3174 C   0  0  1  0  0  0  0  0  0  0  0  0
    7.8459   18.9349   39.5408 N   0  0  0  0  0  0  0  0  0  0  0  0
   13.5028   15.9028   38.9842 O   0  0  0  0  0  0  0  0  0  0  0  0
   12.5032   15.1207   38.3009 C   0  0  1  0  0  0  0  0  0  0  0  0
    9.1433   17.7613   33.3675 N   0  0  0  0  0  0  0  0  0  0  0  0
   11.2744   15.8413   38.1060 O   0  0  0  0  0  0  0  0  0  0  0  0
   10.7778   16.4930   39.2874 C   0  0  2  0  0  0  0  0  0  0  0  0
   12.6270   20.1221   37.6970 N   0  0  0  0  0  0  0  0  0  0  0  0
   11.2021   14.5670   40.6890 O   0  0  0  0  0  0  0  0  0  0  0  0
   10.1708   15.4417   40.2249 C   0  0  1  0  0  0  0  0  0  0  0  0
   10.3249   18.6680   38.2254 O   0  0  0  0  0  0  0  0  0  0  0  0
    9.5000   16.1008   41.4323 C   0  0  1  0  0  0  0  0  0  0  0  0
   10.1811   17.8766   36.0059 O   0  0  0  0  0  0  0  0  0  0  0  0
    8.3692   17.0214   40.9681 C   0  0  0  0  0  0  0  0  0  0  0  0
    8.9956   21.0723   34.6095 O   0  0  0  0  0  0  0  0  0  0  0  0
    8.9479   18.1126   40.0652 C   0  0  1  0  0  0  0  0  0  0  0  0
   11.6044   21.7688   35.5905 O   0  0  0  0  0  0  0  0  0  0  0  0
    9.7368   17.5356   38.8847 C   0  0  2  0  0  0  0  0  0  0  0  0
   12.5702   13.6436   36.3189 O   0  0  0  0  0  0  0  0  0  0  0  0
   11.0680   18.3324   37.0445 C   0  0  1  0  0  0  0  0  0  0  0  0
   14.7600   13.3275   38.0084 O   0  0  0  0  0  0  0  0  0  0  0  0
    9.2165   18.8523   35.5752 C   0  0  2  0  0  0  0  0  0  0  0  0
    8.3273   18.2225   34.5001 C   0  0  0  0  0  0  0  0  0  0  0  0
    9.9433   20.0791   35.0129 C   0  0  2  0  0  0  0  0  0  0  0  0
   10.8569   20.6575   36.0956 C   0  0  1  0  0  0  0  0  0  0  0  0
   11.8278   19.5821   36.5883 C   0  0  1  0  0  0  0  0  0  0  0  0
   13.1353   14.7991   36.9457 C   0  0  2  0  0  0  0  0  0  0  0  0
   14.5933   14.5848   37.3477 C   0  0  1  0  0  0  0  0  0  0  0  0
  3  1  1  0  0  0  0
  4  1  1  6  0  0  0
  4  6  1  0  0  0  0
  4 31  1  0  0  0  0
  6  7  1  0  0  0  0
  7  9  1  6  0  0  0
  7 30  1  0  0  0  0
 10  9  1  6  0  0  0
 10 13  1  0  0  0  0
 10 21  1  0  0  0  0
 13 12  1  1  0  0  0
 13 15  1  0  0  0  0
 15  2  1  1  0  0  0
 15 17  1  0  0  0  0
 16 25  1  0  0  0  0
 17 19  1  0  0  0  0
 19  5  1  6  0  0  0
 19 21  1  0  0  0  0
 21 14  1  1  0  0  0
 23 14  1  1  0  0  0
 23 16  1  0  0  0  0
 23 29  1  0  0  0  0
 25 26  1  6  0  0  0
 25 27  1  0  0  0  0
 26  8  1  0  0  0  0
 27 18  1  1  0  0  0
 27 28  1  0  0  0  0
 28 20  1  6  0  0  0
 28 29  1  0  0  0  0
 29 11  1  1  0  0  0
 30 22  1  1  0  0  0
 30 31  1  0  0  0  0
 31 24  1  1  0  0  0
M  END
>  <CHROM.1>
176.74977931,-48.80620560,-74.98554003,57.86250373,68.64480011,-58.34522868
11.27707863,17.24905896,37.73811209,-0.97381318,0.47131460,-0.86258529

>  <Name>
2fcz_lig

>  <RI>
0

>  <Rbt.Current_Directory>
/home/itssahil/PROJECTS/Mol_Feturizer/New_Systems/rnas/2fcz

>  <Rbt.Executable>
rbdock ($Id: //depot/dev/client3/rdock/2013.1/src/exe/rbdock.cxx#4 $)

>  <Rbt.Library>
libRbt.so (2013.1, Build901 2013/11/27)

>  <Rbt.Parameter_File>
/export/apps/rDock/src/rDock_2013.1_src/data/scripts/dock_solv.prm

>  <Rbt.Receptor>
prm/pocket_docking_6.prm

>  <SCORE>
-15.5036

>  <SCORE.INTER>
-12.3299

>  <SCORE.INTER.CONST>
1

>  <SCORE.INTER.POLAR>
-2.05172

>  <SCORE.INTER.ROT>
6

>  <SCORE.INTER.SOLV>
15.2555

>  <SCORE.INTER.VDW>
-14.066

>  <SCORE.INTER.norm>
-0.39774

>  <SCORE.INTRA>
-3.17372

>  <SCORE.INTRA.DIHEDRAL>
-8.61537

>  <SCORE.INTRA.DIHEDRAL.0>
10.8409

>  <SCORE.INTRA.POLAR>
0

>  <SCORE.INTRA.POLAR.0>
0

>  <SCORE.INTRA.REPUL>
0

>  <SCORE.INTRA.REPUL.0>
0

>  <SCORE.INTRA.SOLV>
-2.29083

>  <SCORE.INTRA.SOLV.lig_0>
-80.8302

>  <SCORE.INTRA.VDW>
2.27938

>  <SCORE.INTRA.VDW.0>
-4.23953

>  <SCORE.INTRA.norm>
-0.102378

>  <SCORE.RESTR>
0

>  <SCORE.RESTR.CAVITY>
0

>  <SCORE.RESTR.norm>
0

>  <SCORE.SYSTEM>
0

>  <SCORE.SYSTEM.CONST>
0

>  <SCORE.SYSTEM.DIHEDRAL>
0

>  <SCORE.SYSTEM.SOLV>
0

>  <SCORE.SYSTEM.norm>
0

>  <SCORE.heavy>
31

>  <SCORE.norm>
-0.500118

>  <RMSD>
6.557

$$$$
2fcz_lig
 OpenBabel11021811433D
libRbt.so/2013.1/901 2013/11/27
 31 33  0  0  0  0  0  0  0  0999 V2000
    7.3965   19.5102   30.4391 C   0  0  0  0  0  0  0  0  0  0  0  0
    9.3661   15.1938   34.3885 N   0  0  0  0  0  0  0  0  0  0  0  0
    8.7494   19.7280   30.0294 O   0  0  0  0  0  0  0  0  0  0  0  0
    7.2236   19.9472   31.8977 C   0  0  1  0  0  0  0  0  0  0  0  0
   10.0282   18.6484   37.7906 N   0  0  0  0  0  0  0  0  0  0  0  0
    8.1829   19.3069   32.7634 O   0  0  0  0  0  0  0  0  0  0  0  0
    9.1630   20.2715   33.1953 C   0  0  1  0  0  0  0  0  0  0  0  0
   12.9190   22.0822   32.1215 N   0  0  0  0  0  0  0  0  0  0  0  0
   10.5078   19.7699   33.1113 O   0  0  0  0  0  0  0  0  0  0  0  0
   10.8065   18.7203   34.0473 C   0  0  2  0  0  0  0  0  0  0  0  0
   13.0525   19.7072   38.1209 N   0  0  0  0  0  0  0  0  0  0  0  0
   10.3735   16.9737   32.4299 O   0  0  0  0  0  0  0  0  0  0  0  0
    9.9670   17.4839   33.7021 C   0  0  1  0  0  0  0  0  0  0  0  0
   11.4493   20.1958   35.9109 O   0  0  0  0  0  0  0  0  0  0  0  0
   10.1421   16.3867   34.7546 C   0  0  1  0  0  0  0  0  0  0  0  0
   13.3090   20.4919   34.4874 O   0  0  0  0  0  0  0  0  0  0  0  0
    9.6855   16.8940   36.1242 C   0  0  0  0  0  0  0  0  0  0  0  0
   14.1780   23.8239   35.7953 O   0  0  0  0  0  0  0  0  0  0  0  0
   10.5352   18.1027   36.5215 C   0  0  1  0  0  0  0  0  0  0  0  0
   14.5418   22.1519   38.1029 O   0  0  0  0  0  0  0  0  0  0  0  0
   10.5058   19.2101   35.4624 C   0  0  2  0  0  0  0  0  0  0  0  0
    9.4710   22.6860   32.7590 O   0  0  0  0  0  0  0  0  0  0  0  0
   12.8192   19.8401   35.6741 C   0  0  1  0  0  0  0  0  0  0  0  0
    6.8176   21.9724   33.2058 O   0  0  0  0  0  0  0  0  0  0  0  0
   13.3019   21.9286   34.5504 C   0  0  2  0  0  0  0  0  0  0  0  0
   13.8136   22.4811   33.2177 C   0  0  0  0  0  0  0  0  0  0  0  0
   14.2007   22.3964   35.7005 C   0  0  2  0  0  0  0  0  0  0  0  0
   13.6907   21.7913   37.0102 C   0  0  1  0  0  0  0  0  0  0  0  0
   13.6402   20.2661   36.8955 C   0  0  1  0  0  0  0  0  0  0  0  0
    8.9878   21.4466   32.2319 C   0  0  2  0  0  0  0  0  0  0  0  0
    7.4715   21.4482   32.0471 C   0  0  1  0  0  0  0  0  0  0  0  0
  3  1  1  0  0  0  0
  4  1  1  6  0  0  0
  4  6  1  0  0  0  0
  4 31  1  0  0  0  0
  6  7  1  0  0  0  0
  7  9  1  6  0  0  0
  7 30  1  0  0  0  0
 10  9  1  6  0  0  0
 10 13  1  0  0  0  0
 10 21  1  0  0  0  0
 13 12  1  6  0  0  0
 13 15  1  0  0  0  0
 15  2  1  6  0  0  0
 15 17  1  0  0  0  0
 16 25  1  0  0  0  0
 17 19  1  0  0  0  0
 19  5  1  1  0  0  0
 19 21  1  0  0  0  0
 21 14  1  1  0  0  0
 23 14  1  1  0  0  0
 23 16  1  0  0  0  0
 23 29  1  0  0  0  0
 25 26  1  6  0  0  0
 25 27  1  0  0  0  0
 26  8  1  0  0  0  0
 27 18  1  1  0  0  0
 27 28  1  0  0  0  0
 28 20  1  1  0  0  0
 28 29  1  0  0  0  0
 29 11  1  1  0  0  0
 30 22  1  1  0  0  0
 30 31  1  0  0  0  0
 31 24  1  1  0  0  0
M  END
>  <CHROM.1>
-54.04335938,-68.34181219,65.83790268,-47.20703500,99.09516808,62.33472854
10.84282230,20.06104882,34.30988821,-3.06419673,0.72114320,2.55101123

>  <Name>
2fcz_lig

>  <RI>
2.29611e+07

>  <Rbt.Current_Directory>
/home/itssahil/PROJECTS/Mol_Feturizer/New_Systems/rnas/2fcz

>  <Rbt.Executable>
rbdock ($Id: //depot/dev/client3/rdock/2013.1/src/exe/rbdock.cxx#4 $)

>  <Rbt.Library>
libRbt.so (2013.1, Build901 2013/11/27)

>  <Rbt.Parameter_File>
/export/apps/rDock/src/rDock_2013.1_src/data/scripts/dock_solv.prm

>  <Rbt.Receptor>
prm/pocket_docking_3.prm

>  <SCORE>
-14.8894

>  <SCORE.INTER>
-16.3439

>  <SCORE.INTER.CONST>
1

>  <SCORE.INTER.POLAR>
-2.61821

>  <SCORE.INTER.ROT>
6

>  <SCORE.INTER.SOLV>
15.1363

>  <SCORE.INTER.VDW>
-14.814

>  <SCORE.INTER.norm>
-0.527224

>  <SCORE.INTRA>
1.45455

>  <SCORE.INTRA.DIHEDRAL>
-4.02674

>  <SCORE.INTRA.DIHEDRAL.0>
10.8409

>  <SCORE.INTRA.POLAR>
0

>  <SCORE.INTRA.POLAR.0>
0

>  <SCORE.INTRA.REPUL>
0

>  <SCORE.INTRA.REPUL.0>
0

>  <SCORE.INTRA.SOLV>
1.11261

>  <SCORE.INTRA.SOLV.lig_0>
-80.8302

>  <SCORE.INTRA.VDW>
2.91162

>  <SCORE.INTRA.VDW.0>
-4.23953

>  <SCORE.INTRA.norm>
0.046921

>  <SCORE.RESTR>
0

>  <SCORE.RESTR.CAVITY>
0

>  <SCORE.RESTR.norm>
0

>  <SCORE.SYSTEM>
0

>  <SCORE.SYSTEM.CONST>
0

>  <SCORE.SYSTEM.DIHEDRAL>
0

>  <SCORE.SYSTEM.SOLV>
0

>  <SCORE.SYSTEM.norm>
0

>  <SCORE.heavy>
31

>  <SCORE.norm>
-0.480303

>  <RMSD>
6.563

$$$$
2fcz_lig
 OpenBabel11021811433D
libRbt.so/2013.1/901 2013/11/27
 31 33  0  0  0  0  0  0  0  0999 V2000
    8.4636   18.7390   31.5005 C   0  0  0  0  0  0  0  0  0  0  0  0
   12.2837   22.8607   33.8579 N   0  0  0  0  0  0  0  0  0  0  0  0
    8.0916   17.8987   30.4047 O   0  0  0  0  0  0  0  0  0  0  0  0
    9.6312   18.1037   32.2632 C   0  0  1  0  0  0  0  0  0  0  0  0
   13.6179   19.8027   37.4378 N   0  0  0  0  0  0  0  0  0  0  0  0
   10.1156   18.9669   33.3120 O   0  0  0  0  0  0  0  0  0  0  0  0
    9.7394   18.4267   34.5943 C   0  0  1  0  0  0  0  0  0  0  0  0
   14.3183   16.4064   37.3113 N   0  0  0  0  0  0  0  0  0  0  0  0
    9.2112   19.4263   35.4826 O   0  0  0  0  0  0  0  0  0  0  0  0
   10.1705   20.4127   35.8995 C   0  0  2  0  0  0  0  0  0  0  0  0
    8.6519   18.6229   39.4367 N   0  0  0  0  0  0  0  0  0  0  0  0
    9.6268   21.9053   34.0747 O   0  0  0  0  0  0  0  0  0  0  0  0
   10.6934   21.1593   34.6661 C   0  0  1  0  0  0  0  0  0  0  0  0
   10.9018   19.2343   37.9343 O   0  0  0  0  0  0  0  0  0  0  0  0
   11.8224   22.1220   35.0414 C   0  0  1  0  0  0  0  0  0  0  0  0
   11.5578   16.9712   37.7901 O   0  0  0  0  0  0  0  0  0  0  0  0
   12.9934   21.3474   35.6500 C   0  0  0  0  0  0  0  0  0  0  0  0
   12.7547   16.7692   41.2678 O   0  0  0  0  0  0  0  0  0  0  0  0
   12.5170   20.6255   36.9120 C   0  0  1  0  0  0  0  0  0  0  0  0
    9.9546   17.3064   41.6195 O   0  0  0  0  0  0  0  0  0  0  0  0
   11.3093   19.7203   36.6457 C   0  0  2  0  0  0  0  0  0  0  0  0
    8.5005   16.4001   35.2820 O   0  0  0  0  0  0  0  0  0  0  0  0
   10.4445   17.8741   37.9252 C   0  0  1  0  0  0  0  0  0  0  0  0
   10.2958   15.9468   33.2033 O   0  0  0  0  0  0  0  0  0  0  0  0
   12.5122   17.0369   38.8638 C   0  0  2  0  0  0  0  0  0  0  0  0
   13.6486   16.0539   38.5717 C   0  0  0  0  0  0  0  0  0  0  0  0
   11.8238   16.6768   40.1851 C   0  0  2  0  0  0  0  0  0  0  0  0
   10.6659   17.6480   40.4254 C   0  0  1  0  0  0  0  0  0  0  0  0
    9.7004   17.6126   39.2386 C   0  0  1  0  0  0  0  0  0  0  0  0
    8.6549   17.3985   34.2686 C   0  0  2  0  0  0  0  0  0  0  0  0
    9.1878   16.8175   32.9602 C   0  0  1  0  0  0  0  0  0  0  0  0
  3  1  1  0  0  0  0
  4  1  1  1  0  0  0
  4  6  1  0  0  0  0
  4 31  1  0  0  0  0
  6  7  1  0  0  0  0
  7  9  1  1  0  0  0
  7 30  1  0  0  0  0
 10  9  1  6  0  0  0
 10 13  1  0  0  0  0
 10 21  1  0  0  0  0
 13 12  1  1  0  0  0
 13 15  1  0  0  0  0
 15  2  1  6  0  0  0
 15 17  1  0  0  0  0
 16 25  1  0  0  0  0
 17 19  1  0  0  0  0
 19  5  1  6  0  0  0
 19 21  1  0  0  0  0
 21 14  1  1  0  0  0
 23 14  1  1  0  0  0
 23 16  1  0  0  0  0
 23 29  1  0  0  0  0
 25 26  1  6  0  0  0
 25 27  1  0  0  0  0
 26  8  1  0  0  0  0
 27 18  1  1  0  0  0
 27 28  1  0  0  0  0
 28 20  1  1  0  0  0
 28 29  1  0  0  0  0
 29 11  1  1  0  0  0
 30 22  1  1  0  0  0
 30 31  1  0  0  0  0
 31 24  1  1  0  0  0
M  END
>  <CHROM.1>
175.22333392,-66.79651975,60.91246254,92.35669008,74.24421747,60.41147367
10.74383984,18.56405284,36.24365396,2.13028548,-0.97922663,-0.84820836

>  <Name>
2fcz_lig

>  <RI>
2.76032e+07

>  <Rbt.Current_Directory>
/home/itssahil/PROJECTS/Mol_Feturizer/New_Systems/rnas/2fcz

>  <Rbt.Executable>
rbdock ($Id: //depot/dev/client3/rdock/2013.1/src/exe/rbdock.cxx#4 $)

>  <Rbt.Library>
libRbt.so (2013.1, Build901 2013/11/27)

>  <Rbt.Parameter_File>
/export/apps/rDock/src/rDock_2013.1_src/data/scripts/dock_solv.prm

>  <Rbt.Receptor>
prm/pocket_docking_8.prm

>  <SCORE>
-19.8759

>  <SCORE.INTER>
-18.6981

>  <SCORE.INTER.CONST>
1

>  <SCORE.INTER.POLAR>
-1.8466

>  <SCORE.INTER.ROT>
6

>  <SCORE.INTER.SOLV>
14.3277

>  <SCORE.INTER.VDW>
-18.686

>  <SCORE.INTER.norm>
-0.603164

>  <SCORE.INTRA>
-1.17783

>  <SCORE.INTRA.DIHEDRAL>
-5.46242

>  <SCORE.INTRA.DIHEDRAL.0>
10.8409

>  <SCORE.INTRA.POLAR>
0

>  <SCORE.INTRA.POLAR.0>
0

>  <SCORE.INTRA.REPUL>
0

>  <SCORE.INTRA.REPUL.0>
0

>  <SCORE.INTRA.SOLV>
-0.703347

>  <SCORE.INTRA.SOLV.lig_0>
-80.8302

>  <SCORE.INTRA.VDW>
1.90505

>  <SCORE.INTRA.VDW.0>
-4.23953

>  <SCORE.INTRA.norm>
-0.0379944

>  <SCORE.RESTR>
0

>  <SCORE.RESTR.CAVITY>
0

>  <SCORE.RESTR.norm>
0

>  <SCORE.SYSTEM>
0

>  <SCORE.SYSTEM.CONST>
0

>  <SCORE.SYSTEM.DIHEDRAL>
0

>  <SCORE.SYSTEM.SOLV>
0

>  <SCORE.SYSTEM.norm>
0

>  <SCORE.heavy>
31

>  <SCORE.norm>
-0.641158

>  <RMSD>
6.565

$$$$
2fcz_lig
 OpenBabel11021811433D
libRbt.so/2013.1/901 2013/11/27
 31 33  0  0  0  0  0  0  0  0999 V2000
    8.4623   18.7061   31.5137 C   0  0  0  0  0  0  0  0  0  0  0  0
   12.3100   22.8840   33.8616 N   0  0  0  0  0  0  0  0  0  0  0  0
    8.0677   17.8323   30.4524 O   0  0  0  0  0  0  0  0  0  0  0  0
    9.6417   18.0914   32.2751 C   0  0  1  0  0  0  0  0  0  0  0  0
   13.6398   19.8214   37.4392 N   0  0  0  0  0  0  0  0  0  0  0  0
   10.1260   18.9722   33.3092 O   0  0  0  0  0  0  0  0  0  0  0  0
    9.7648   18.4446   34.6011 C   0  0  1  0  0  0  0  0  0  0  0  0
   14.4564   16.5299   37.4659 N   0  0  0  0  0  0  0  0  0  0  0  0
    9.2340   19.4502   35.4810 O   0  0  0  0  0  0  0  0  0  0  0  0
   10.1937   20.4355   35.8995 C   0  0  2  0  0  0  0  0  0  0  0  0
    8.6510   18.6312   39.3974 N   0  0  0  0  0  0  0  0  0  0  0  0
    9.6522   21.9304   34.0758 O   0  0  0  0  0  0  0  0  0  0  0  0
   10.7180   21.1830   34.6671 C   0  0  1  0  0  0  0  0  0  0  0  0
   10.9230   19.2545   37.9335 O   0  0  0  0  0  0  0  0  0  0  0  0
   11.8474   22.1445   35.0441 C   0  0  1  0  0  0  0  0  0  0  0  0
   11.6038   16.9971   37.8181 O   0  0  0  0  0  0  0  0  0  0  0  0
   13.0175   21.3684   35.6527 C   0  0  0  0  0  0  0  0  0  0  0  0
   12.7363   16.8315   41.3192 O   0  0  0  0  0  0  0  0  0  0  0  0
   12.5398   20.6455   36.9136 C   0  0  1  0  0  0  0  0  0  0  0  0
    9.9248   17.3431   41.6138 O   0  0  0  0  0  0  0  0  0  0  0  0
   11.3316   19.7415   36.6456 C   0  0  2  0  0  0  0  0  0  0  0  0
    8.5506   16.4152   35.3236 O   0  0  0  0  0  0  0  0  0  0  0  0
   10.4793   17.8898   37.9255 C   0  0  1  0  0  0  0  0  0  0  0  0
   10.3340   15.9528   33.2367 O   0  0  0  0  0  0  0  0  0  0  0  0
   12.5370   17.0799   38.9092 C   0  0  2  0  0  0  0  0  0  0  0  0
   13.6883   16.1062   38.6457 C   0  0  0  0  0  0  0  0  0  0  0  0
   11.8271   16.7222   40.2198 C   0  0  2  0  0  0  0  0  0  0  0  0
   10.6554   17.6834   40.4310 C   0  0  1  0  0  0  0  0  0  0  0  0
    9.7130   17.6300   39.2264 C   0  0  1  0  0  0  0  0  0  0  0  0
    8.6877   17.4022   34.2967 C   0  0  2  0  0  0  0  0  0  0  0  0
    9.2159   16.8099   32.9915 C   0  0  1  0  0  0  0  0  0  0  0  0
  3  1  1  0  0  0  0
  4  1  1  1  0  0  0
  4  6  1  0  0  0  0
  4 31  1  0  0  0  0
  6  7  1  0  0  0  0
  7  9  1  1  0  0  0
  7 30  1  0  0  0  0
 10  9  1  6  0  0  0
 10 13  1  0  0  0  0
 10 21  1  0  0  0  0
 13 12  1  1  0  0  0
 13 15  1  0  0  0  0
 15  2  1  6  0  0  0
 15 17  1  0  0  0  0
 16 25  1  0  0  0  0
 17 19  1  0  0  0  0
 19  5  1  6  0  0  0
 19 21  1  0  0  0  0
 21 14  1  1  0  0  0
 23 14  1  1  0  0  0
 23 16  1  0  0  0  0
 23 29  1  0  0  0  0
 25 26  1  6  0  0  0
 25 27  1  0  0  0  0
 26  8  1  0  0  0  0
 27 18  1  1  0  0  0
 27 28  1  0  0  0  0
 28 20  1  1  0  0  0
 28 29  1  0  0  0  0
 29 11  1  1  0  0  0
 30 22  1  1  0  0  0
 30 31  1  0  0  0  0
 31 24  1  1  0  0  0
M  END
>  <CHROM.1>
176.69451503,-67.98348183,61.41770988,93.04211456,75.10805355,65.73657086
10.76514371,18.58441615,36.26197259,2.12605155,-0.96709721,-0.86164902

>  <Name>
2fcz_lig

>  <RI>
0

>  <Rbt.Current_Directory>
/home/itssahil/PROJECTS/Mol_Feturizer/New_Systems/rnas/2fcz

>  <Rbt.Executable>
rbdock ($Id: //depot/dev/client3/rdock/2013.1/src/exe/rbdock.cxx#4 $)

>  <Rbt.Library>
libRbt.so (2013.1, Build901 2013/11/27)

>  <Rbt.Parameter_File>
/export/apps/rDock/src/rDock_2013.1_src/data/scripts/dock_solv.prm

>  <Rbt.Receptor>
prm/pocket_docking_6.prm

>  <SCORE>
-19.7971

>  <SCORE.INTER>
-18.713

>  <SCORE.INTER.CONST>
1

>  <SCORE.INTER.POLAR>
-1.83613

>  <SCORE.INTER.ROT>
6

>  <SCORE.INTER.SOLV>
14.686

>  <SCORE.INTER.VDW>
-18.8503

>  <SCORE.INTER.norm>
-0.603646

>  <SCORE.INTRA>
-1.08406

>  <SCORE.INTRA.DIHEDRAL>
-5.059

>  <SCORE.INTRA.DIHEDRAL.0>
10.8409

>  <SCORE.INTRA.POLAR>
0

>  <SCORE.INTRA.POLAR.0>
0

>  <SCORE.INTRA.REPUL>
0

>  <SCORE.INTRA.REPUL.0>
0

>  <SCORE.INTRA.SOLV>
-0.596809

>  <SCORE.INTRA.SOLV.lig_0>
-80.8302

>  <SCORE.INTRA.VDW>
1.74385

>  <SCORE.INTRA.VDW.0>
-4.23953

>  <SCORE.INTRA.norm>
-0.0349697

>  <SCORE.RESTR>
0

>  <SCORE.RESTR.CAVITY>
0

>  <SCORE.RESTR.norm>
0

>  <SCORE.SYSTEM>
0

>  <SCORE.SYSTEM.CONST>
0

>  <SCORE.SYSTEM.DIHEDRAL>
0

>  <SCORE.SYSTEM.SOLV>
0

>  <SCORE.SYSTEM.norm>
0

>  <SCORE.heavy>
31

>  <SCORE.norm>
-0.638616

>  <RMSD>
6.566

$$$$
2fcz_lig
 OpenBabel11021811433D
libRbt.so/2013.1/901 2013/11/27
 31 33  0  0  0  0  0  0  0  0999 V2000
   17.3290   19.7180   36.3486 C   0  0  0  0  0  0  0  0  0  0  0  0
    9.4657   20.5020   35.5542 N   0  0  0  0  0  0  0  0  0  0  0  0
   17.1140   21.0349   36.8632 O   0  0  0  0  0  0  0  0  0  0  0  0
   16.1645   18.8092   36.7568 C   0  0  1  0  0  0  0  0  0  0  0  0
   11.7983   23.0778   32.1088 N   0  0  0  0  0  0  0  0  0  0  0  0
   14.9024   19.3084   36.2694 O   0  0  0  0  0  0  0  0  0  0  0  0
   14.4293   18.4642   35.2011 C   0  0  1  0  0  0  0  0  0  0  0  0
   12.4642   22.2154   28.8245 N   0  0  0  0  0  0  0  0  0  0  0  0
   13.9418   19.2155   34.0763 O   0  0  0  0  0  0  0  0  0  0  0  0
   13.1173   20.3392   34.4290 C   0  0  2  0  0  0  0  0  0  0  0  0
   16.9570   22.0412   33.5402 N   0  0  0  0  0  0  0  0  0  0  0  0
   11.8569   19.0717   36.0595 O   0  0  0  0  0  0  0  0  0  0  0  0
   11.7336   19.8340   34.8563 C   0  0  1  0  0  0  0  0  0  0  0  0
   14.2440   21.9696   32.9674 O   0  0  0  0  0  0  0  0  0  0  0  0
   10.7732   20.9995   35.1046 C   0  0  1  0  0  0  0  0  0  0  0  0
   14.6186   21.2839   30.7398 O   0  0  0  0  0  0  0  0  0  0  0  0
   10.5968   21.8176   33.8235 C   0  0  0  0  0  0  0  0  0  0  0  0
   15.7549   24.5903   29.5805 O   0  0  0  0  0  0  0  0  0  0  0  0
   11.9544   22.3767   33.3931 C   0  0  1  0  0  0  0  0  0  0  0  0
   17.7591   23.9055   31.5214 O   0  0  0  0  0  0  0  0  0  0  0  0
   13.0120   21.2796   33.2300 C   0  0  2  0  0  0  0  0  0  0  0  0
   15.3287   16.4268   34.1265 O   0  0  0  0  0  0  0  0  0  0  0  0
   15.1295   21.2641   32.0857 C   0  0  1  0  0  0  0  0  0  0  0  0
   15.6095   16.4322   36.8960 O   0  0  0  0  0  0  0  0  0  0  0  0
   14.4926   22.5979   30.1694 C   0  0  2  0  0  0  0  0  0  0  0  0
   13.9110   22.4676   28.7594 C   0  0  0  0  0  0  0  0  0  0  0  0
   15.8698   23.2688   30.1168 C   0  0  2  0  0  0  0  0  0  0  0  0
   16.4432   23.3427   31.5336 C   0  0  1  0  0  0  0  0  0  0  0  0
   16.5022   21.9416   32.1464 C   0  0  1  0  0  0  0  0  0  0  0  0
   15.6579   17.6522   34.7879 C   0  0  2  0  0  0  0  0  0  0  0  0
   16.3217   17.4179   36.1435 C   0  0  1  0  0  0  0  0  0  0  0  0
  3  1  1  0  0  0  0
  4  1  1  6  0  0  0
  4  6  1  0  0  0  0
  4 31  1  0  0  0  0
  6  7  1  0  0  0  0
  7  9  1  6  0  0  0
  7 30  1  0  0  0  0
 10  9  1  6  0  0  0
 10 13  1  0  0  0  0
 10 21  1  0  0  0  0
 13 12  1  1  0  0  0
 13 15  1  0  0  0  0
 15  2  1  6  0  0  0
 15 17  1  0  0  0  0
 16 25  1  0  0  0  0
 17 19  1  0  0  0  0
 19  5  1  6  0  0  0
 19 21  1  0  0  0  0
 21 14  1  1  0  0  0
 23 14  1  1  0  0  0
 23 16  1  0  0  0  0
 23 29  1  0  0  0  0
 25 26  1  6  0  0  0
 25 27  1  0  0  0  0
 26  8  1  0  0  0  0
 27 18  1  1  0  0  0
 27 28  1  0  0  0  0
 28 20  1  6  0  0  0
 28 29  1  0  0  0  0
 29 11  1  1  0  0  0
 30 22  1  1  0  0  0
 30 31  1  0  0  0  0
 31 24  1  1  0  0  0
M  END
>  <CHROM.1>
58.83718727,-43.57369951,-75.25926704,88.84504570,71.75505138,77.00209032
14.39573520,20.77788429,33.50087682,-1.56943202,0.03960290,-0.87310033

>  <Name>
2fcz_lig

>  <RI>
2.6968e+07

>  <Rbt.Current_Directory>
/home/itssahil/PROJECTS/Mol_Feturizer/New_Systems/rnas/2fcz

>  <Rbt.Executable>
rbdock ($Id: //depot/dev/client3/rdock/2013.1/src/exe/rbdock.cxx#4 $)

>  <Rbt.Library>
libRbt.so (2013.1, Build901 2013/11/27)

>  <Rbt.Parameter_File>
/export/apps/rDock/src/rDock_2013.1_src/data/scripts/dock_solv.prm

>  <Rbt.Receptor>
prm/blind_docking_60.prm

>  <SCORE>
-9.48586

>  <SCORE.INTER>
-8.56045

>  <SCORE.INTER.CONST>
1

>  <SCORE.INTER.POLAR>
-0.364744

>  <SCORE.INTER.ROT>
6

>  <SCORE.INTER.SOLV>
17.497

>  <SCORE.INTER.VDW>
-17.9235

>  <SCORE.INTER.norm>
-0.276143

>  <SCORE.INTRA>
-0.992877

>  <SCORE.INTRA.DIHEDRAL>
-3.40941

>  <SCORE.INTRA.DIHEDRAL.0>
10.8409

>  <SCORE.INTRA.POLAR>
0

>  <SCORE.INTRA.POLAR.0>
0

>  <SCORE.INTRA.REPUL>
0

>  <SCORE.INTRA.REPUL.0>
0

>  <SCORE.INTRA.SOLV>
-0.311105

>  <SCORE.INTRA.SOLV.lig_0>
-80.8302

>  <SCORE.INTRA.VDW>
0.86738

>  <SCORE.INTRA.VDW.0>
-4.23953

>  <SCORE.INTRA.norm>
-0.0320283

>  <SCORE.RESTR>
0.0674606

>  <SCORE.RESTR.CAVITY>
0.0674606

>  <SCORE.RESTR.norm>
0.00217615

>  <SCORE.SYSTEM>
0

>  <SCORE.SYSTEM.CONST>
0

>  <SCORE.SYSTEM.DIHEDRAL>
0

>  <SCORE.SYSTEM.SOLV>
0

>  <SCORE.SYSTEM.norm>
0

>  <SCORE.heavy>
31

>  <SCORE.norm>
-0.305996

>  <RMSD>
6.575

$$$$
2fcz_lig
 OpenBabel11021811433D
libRbt.so/2013.1/901 2013/11/27
 31 33  0  0  0  0  0  0  0  0999 V2000
    9.9217   17.2785   42.4209 C   0  0  0  0  0  0  0  0  0  0  0  0
    5.2910   15.2333   40.0441 N   0  0  0  0  0  0  0  0  0  0  0  0
    9.3795   18.5913   42.2533 O   0  0  0  0  0  0  0  0  0  0  0  0
   10.4845   16.7796   41.0857 C   0  0  1  0  0  0  0  0  0  0  0  0
    7.6551   14.9214   35.7708 N   0  0  0  0  0  0  0  0  0  0  0  0
    9.4820   16.7855   40.0490 O   0  0  0  0  0  0  0  0  0  0  0  0
    9.7630   17.8437   39.1115 C   0  0  1  0  0  0  0  0  0  0  0  0
   11.9026   15.1838   36.9330 N   0  0  0  0  0  0  0  0  0  0  0  0
    8.5915   18.6015   38.7646 O   0  0  0  0  0  0  0  0  0  0  0  0
    7.4978   17.8074   38.2746 C   0  0  2  0  0  0  0  0  0  0  0  0
    8.3423   19.9625   34.3995 N   0  0  0  0  0  0  0  0  0  0  0  0
    6.3501   17.8348   40.4044 O   0  0  0  0  0  0  0  0  0  0  0  0
    6.9294   16.9683   39.4258 C   0  0  1  0  0  0  0  0  0  0  0  0
    8.2913   17.6619   35.9481 O   0  0  0  0  0  0  0  0  0  0  0  0
    5.8559   15.9994   38.9247 C   0  0  1  0  0  0  0  0  0  0  0  0
   10.6159   17.7471   36.3507 O   0  0  0  0  0  0  0  0  0  0  0  0
    6.4547   15.0372   37.8964 C   0  0  0  0  0  0  0  0  0  0  0  0
   11.5605   16.6095   32.9770 O   0  0  0  0  0  0  0  0  0  0  0  0
    6.9915   15.8399   36.7096 C   0  0  1  0  0  0  0  0  0  0  0  0
   10.2293   19.0956   32.4291 O   0  0  0  0  0  0  0  0  0  0  0  0
    7.9953   16.9155   37.1389 C   0  0  2  0  0  0  0  0  0  0  0  0
   11.5551   19.5408   38.9590 O   0  0  0  0  0  0  0  0  0  0  0  0
    9.4347   18.5207   36.0689 C   0  0  1  0  0  0  0  0  0  0  0  0
   12.4792   17.0194   39.6925 O   0  0  0  0  0  0  0  0  0  0  0  0
   10.9667   16.8003   35.3266 C   0  0  2  0  0  0  0  0  0  0  0  0
   12.2132   16.0327   35.7736 C   0  0  0  0  0  0  0  0  0  0  0  0
   11.2412   17.5425   34.0139 C   0  0  2  0  0  0  0  0  0  0  0  0
    9.9935   18.3351   33.6185 C   0  0  1  0  0  0  0  0  0  0  0  0
    9.5980   19.2851   34.7513 C   0  0  1  0  0  0  0  0  0  0  0  0
   10.7626   18.7415   39.8425 C   0  0  2  0  0  0  0  0  0  0  0  0
   11.5973   17.7017   40.5878 C   0  0  1  0  0  0  0  0  0  0  0  0
  3  1  1  0  0  0  0
  4  1  1  1  0  0  0
  4  6  1  0  0  0  0
  4 31  1  0  0  0  0
  6  7  1  0  0  0  0
  7  9  1  1  0  0  0
  7 30  1  0  0  0  0
 10  9  1  1  0  0  0
 10 13  1  0  0  0  0
 10 21  1  0  0  0  0
 13 12  1  1  0  0  0
 13 15  1  0  0  0  0
 15  2  1  1  0  0  0
 15 17  1  0  0  0  0
 16 25  1  0  0  0  0
 17 19  1  0  0  0  0
 19  5  1  6  0  0  0
 19 21  1  0  0  0  0
 21 14  1  6  0  0  0
 23 14  1  6  0  0  0
 23 16  1  0  0  0  0
 23 29  1  0  0  0  0
 25 26  1  1  0  0  0
 25 27  1  0  0  0  0
 26  8  1  0  0  0  0
 27 18  1  6  0  0  0
 27 28  1  0  0  0  0
 28 20  1  6  0  0  0
 28 29  1  0  0  0  0
 29 11  1  6  0  0  0
 30 22  1  6  0  0  0
 30 31  1  0  0  0  0
 31 24  1  6  0  0  0
M  END
>  <CHROM.1>
-57.07181773,-54.34805404,69.43610027,68.73359284,61.12840609,67.16877733
9.36334849,17.38371671,37.62284428,-1.85323936,-0.26842555,-1.55819434

>  <Name>
2fcz_lig

>  <RI>
0

>  <Rbt.Current_Directory>
/home/itssahil/PROJECTS/Mol_Feturizer/New_Systems/rnas/2fcz

>  <Rbt.Executable>
rbdock ($Id: //depot/dev/client3/rdock/2013.1/src/exe/rbdock.cxx#4 $)

>  <Rbt.Library>
libRbt.so (2013.1, Build901 2013/11/27)

>  <Rbt.Parameter_File>
/export/apps/rDock/src/rDock_2013.1_src/data/scripts/dock_solv.prm

>  <Rbt.Receptor>
prm/pocket_docking_6.prm

>  <SCORE>
-18.4732

>  <SCORE.INTER>
-15.6141

>  <SCORE.INTER.CONST>
1

>  <SCORE.INTER.POLAR>
-2.52756

>  <SCORE.INTER.ROT>
6

>  <SCORE.INTER.SOLV>
10.9656

>  <SCORE.INTER.VDW>
-13.2394

>  <SCORE.INTER.norm>
-0.503682

>  <SCORE.INTRA>
-2.85904

>  <SCORE.INTRA.DIHEDRAL>
-9.51688

>  <SCORE.INTRA.DIHEDRAL.0>
10.8409

>  <SCORE.INTRA.POLAR>
0

>  <SCORE.INTRA.POLAR.0>
0

>  <SCORE.INTRA.REPUL>
0

>  <SCORE.INTRA.REPUL.0>
0

>  <SCORE.INTRA.SOLV>
-0.770788

>  <SCORE.INTRA.SOLV.lig_0>
-80.8302

>  <SCORE.INTRA.VDW>
2.2848

>  <SCORE.INTRA.VDW.0>
-4.23953

>  <SCORE.INTRA.norm>
-0.092227

>  <SCORE.RESTR>
0

>  <SCORE.RESTR.CAVITY>
0

>  <SCORE.RESTR.norm>
0

>  <SCORE.SYSTEM>
0

>  <SCORE.SYSTEM.CONST>
0

>  <SCORE.SYSTEM.DIHEDRAL>
0

>  <SCORE.SYSTEM.SOLV>
0

>  <SCORE.SYSTEM.norm>
0

>  <SCORE.heavy>
31

>  <SCORE.norm>
-0.595909

>  <RMSD>
6.580

$$$$
2fcz_lig
 OpenBabel11021811433D
libRbt.so/2013.1/901 2013/11/27
 31 33  0  0  0  0  0  0  0  0999 V2000
   13.9700   15.2016   35.3091 C   0  0  0  0  0  0  0  0  0  0  0  0
   11.2077   19.9336   37.8912 N   0  0  0  0  0  0  0  0  0  0  0  0
   14.0852   13.8684   34.8042 O   0  0  0  0  0  0  0  0  0  0  0  0
   13.3745   16.1114   34.2293 C   0  0  1  0  0  0  0  0  0  0  0  0
   11.6249   22.4516   33.7159 N   0  0  0  0  0  0  0  0  0  0  0  0
   13.2816   17.4793   34.6764 O   0  0  0  0  0  0  0  0  0  0  0  0
   14.2655   18.2793   33.9910 C   0  0  1  0  0  0  0  0  0  0  0  0
   14.1096   23.5997   29.4253 N   0  0  0  0  0  0  0  0  0  0  0  0
   14.9747   19.1628   34.8761 O   0  0  0  0  0  0  0  0  0  0  0  0
   14.1573   20.1857   35.4698 C   0  0  2  0  0  0  0  0  0  0  0  0
   16.7236   21.0573   34.8825 N   0  0  0  0  0  0  0  0  0  0  0  0
   13.8253   18.9237   37.5071 O   0  0  0  0  0  0  0  0  0  0  0  0
   13.1379   19.5324   36.4112 C   0  0  1  0  0  0  0  0  0  0  0  0
   14.3667   21.8029   33.6246 O   0  0  0  0  0  0  0  0  0  0  0  0
   12.1507   20.5660   36.9584 C   0  0  1  0  0  0  0  0  0  0  0  0
   15.2796   21.4722   31.4728 O   0  0  0  0  0  0  0  0  0  0  0  0
   11.3765   21.2140   35.8085 C   0  0  0  0  0  0  0  0  0  0  0  0
   17.3398   24.5250   31.5332 O   0  0  0  0  0  0  0  0  0  0  0  0
   12.3615   21.9162   34.8718 C   0  0  1  0  0  0  0  0  0  0  0  0
   18.4628   22.9917   33.6875 O   0  0  0  0  0  0  0  0  0  0  0  0
   13.4571   20.9727   34.3636 C   0  0  2  0  0  0  0  0  0  0  0  0
   15.9726   17.7648   32.2775 O   0  0  0  0  0  0  0  0  0  0  0  0
   15.3294   21.0688   32.8540 C   0  0  1  0  0  0  0  0  0  0  0  0
   13.5328   16.5043   31.8214 O   0  0  0  0  0  0  0  0  0  0  0  0
   15.5957   22.8563   31.2443 C   0  0  2  0  0  0  0  0  0  0  0  0
   15.4712   23.1478   29.7467 C   0  0  0  0  0  0  0  0  0  0  0  0
   17.0226   23.1430   31.7252 C   0  0  2  0  0  0  0  0  0  0  0  0
   17.1264   22.7989   33.2126 C   0  0  1  0  0  0  0  0  0  0  0  0
   16.7179   21.3419   33.4409 C   0  0  1  0  0  0  0  0  0  0  0  0
   15.2345   17.2577   33.3935 C   0  0  2  0  0  0  0  0  0  0  0  0
   14.2710   16.1426   32.9915 C   0  0  1  0  0  0  0  0  0  0  0  0
  3  1  1  0  0  0  0
  4  1  1  1  0  0  0
  4  6  1  0  0  0  0
  4 31  1  0  0  0  0
  6  7  1  0  0  0  0
  7  9  1  1  0  0  0
  7 30  1  0  0  0  0
 10  9  1  6  0  0  0
 10 13  1  0  0  0  0
 10 21  1  0  0  0  0
 13 12  1  1  0  0  0
 13 15  1  0  0  0  0
 15  2  1  1  0  0  0
 15 17  1  0  0  0  0
 16 25  1  0  0  0  0
 17 19  1  0  0  0  0
 19  5  1  6  0  0  0
 19 21  1  0  0  0  0
 21 14  1  1  0  0  0
 23 14  1  1  0  0  0
 23 16  1  0  0  0  0
 23 29  1  0  0  0  0
 25 26  1  6  0  0  0
 25 27  1  0  0  0  0
 26  8  1  0  0  0  0
 27 18  1  1  0  0  0
 27 28  1  0  0  0  0
 28 20  1  6  0  0  0
 28 29  1  0  0  0  0
 29 11  1  1  0  0  0
 30 22  1  6  0  0  0
 30 31  1  0  0  0  0
 31 24  1  6  0  0  0
M  END
>  <CHROM.1>
-177.99183921,-65.57953888,66.25818939,66.55960797,125.07485519,90.99323912
14.53463597,20.07431424,33.80106435,-2.18900798,0.90689494,0.01037329

>  <Name>
2fcz_lig

>  <RI>
2.6968e+07

>  <Rbt.Current_Directory>
/home/itssahil/PROJECTS/Mol_Feturizer/New_Systems/rnas/2fcz

>  <Rbt.Executable>
rbdock ($Id: //depot/dev/client3/rdock/2013.1/src/exe/rbdock.cxx#4 $)

>  <Rbt.Library>
libRbt.so (2013.1, Build901 2013/11/27)

>  <Rbt.Parameter_File>
/export/apps/rDock/src/rDock_2013.1_src/data/scripts/dock_solv.prm

>  <Rbt.Receptor>
prm/blind_docking_60.prm

>  <SCORE>
-9.11861

>  <SCORE.INTER>
-11.796

>  <SCORE.INTER.CONST>
1

>  <SCORE.INTER.POLAR>
-2.14524

>  <SCORE.INTER.ROT>
6

>  <SCORE.INTER.SOLV>
18.0206

>  <SCORE.INTER.VDW>
-14.3201

>  <SCORE.INTER.norm>
-0.380517

>  <SCORE.INTRA>
2.65951

>  <SCORE.INTRA.DIHEDRAL>
-0.277805

>  <SCORE.INTRA.DIHEDRAL.0>
10.8409

>  <SCORE.INTRA.POLAR>
0

>  <SCORE.INTRA.POLAR.0>
0

>  <SCORE.INTRA.REPUL>
0

>  <SCORE.INTRA.REPUL.0>
0

>  <SCORE.INTRA.SOLV>
-0.89088

>  <SCORE.INTRA.SOLV.lig_0>
-80.8302

>  <SCORE.INTRA.VDW>
3.24385

>  <SCORE.INTRA.VDW.0>
-4.23953

>  <SCORE.INTRA.norm>
0.0857906

>  <SCORE.RESTR>
0.0179182

>  <SCORE.RESTR.CAVITY>
0.0179182

>  <SCORE.RESTR.norm>
0.000578006

>  <SCORE.SYSTEM>
0

>  <SCORE.SYSTEM.CONST>
0

>  <SCORE.SYSTEM.DIHEDRAL>
0

>  <SCORE.SYSTEM.SOLV>
0

>  <SCORE.SYSTEM.norm>
0

>  <SCORE.heavy>
31

>  <SCORE.norm>
-0.294149

>  <RMSD>
6.595

$$$$
2fcz_lig
 OpenBabel11021811433D
libRbt.so/2013.1/901 2013/11/27
 31 33  0  0  0  0  0  0  0  0999 V2000
    7.3898   20.2734   29.5611 C   0  0  0  0  0  0  0  0  0  0  0  0
   11.6268   23.2180   27.3943 N   0  0  0  0  0  0  0  0  0  0  0  0
    7.8948   20.6611   28.2804 O   0  0  0  0  0  0  0  0  0  0  0  0
    8.5377   19.7469   30.4292 C   0  0  1  0  0  0  0  0  0  0  0  0
   14.4307   21.6756   31.0966 N   0  0  0  0  0  0  0  0  0  0  0  0
    9.6048   20.7101   30.5435 O   0  0  0  0  0  0  0  0  0  0  0  0
    9.6180   21.2604   31.8757 C   0  0  1  0  0  0  0  0  0  0  0  0
   13.7572   17.8943   34.0744 N   0  0  0  0  0  0  0  0  0  0  0  0
    9.7685   22.6903   31.8825 O   0  0  0  0  0  0  0  0  0  0  0  0
   10.9102   23.1678   31.1508 C   0  0  2  0  0  0  0  0  0  0  0  0
   12.4719   24.2007   35.2782 N   0  0  0  0  0  0  0  0  0  0  0  0
    9.5763   23.8374   29.2466 O   0  0  0  0  0  0  0  0  0  0  0  0
   10.6558   22.9906   29.6487 C   0  0  1  0  0  0  0  0  0  0  0  0
   12.5650   22.7385   32.9231 O   0  0  0  0  0  0  0  0  0  0  0  0
   11.8989   23.3514   28.8322 C   0  0  1  0  0  0  0  0  0  0  0  0
   11.5417   20.8585   33.9188 O   0  0  0  0  0  0  0  0  0  0  0  0
   13.0652   22.4395   29.2193 C   0  0  0  0  0  0  0  0  0  0  0  0
   14.5363   19.8318   35.8019 O   0  0  0  0  0  0  0  0  0  0  0  0
   13.3768   22.6253   30.7056 C   0  0  1  0  0  0  0  0  0  0  0  0
   13.9538   22.4035   36.9423 O   0  0  0  0  0  0  0  0  0  0  0  0
   12.1492   22.3916   31.5928 C   0  0  2  0  0  0  0  0  0  0  0  0
    8.2341   20.8646   33.8864 O   0  0  0  0  0  0  0  0  0  0  0  0
   11.6656   22.2926   33.9486 C   0  0  1  0  0  0  0  0  0  0  0  0
    8.8927   18.5304   32.5201 O   0  0  0  0  0  0  0  0  0  0  0  0
   12.7684   20.1490   34.1638 C   0  0  2  0  0  0  0  0  0  0  0  0
   12.4939   18.6461   34.0692 C   0  0  0  0  0  0  0  0  0  0  0  0
   13.2984   20.5064   35.5569 C   0  0  2  0  0  0  0  0  0  0  0  0
   13.5191   22.0186   35.6340 C   0  0  1  0  0  0  0  0  0  0  0  0
   12.2186   22.7533   35.3010 C   0  0  1  0  0  0  0  0  0  0  0  0
    8.2547   20.8806   32.4557 C   0  0  2  0  0  0  0  0  0  0  0  0
    8.0617   19.4879   31.8586 C   0  0  1  0  0  0  0  0  0  0  0  0
  3  1  1  0  0  0  0
  4  1  1  6  0  0  0
  4  6  1  0  0  0  0
  4 31  1  0  0  0  0
  6  7  1  0  0  0  0
  7  9  1  6  0  0  0
  7 30  1  0  0  0  0
 10  9  1  1  0  0  0
 10 13  1  0  0  0  0
 10 21  1  0  0  0  0
 13 12  1  6  0  0  0
 13 15  1  0  0  0  0
 15  2  1  6  0  0  0
 15 17  1  0  0  0  0
 16 25  1  0  0  0  0
 17 19  1  0  0  0  0
 19  5  1  1  0  0  0
 19 21  1  0  0  0  0
 21 14  1  1  0  0  0
 23 14  1  6  0  0  0
 23 16  1  0  0  0  0
 23 29  1  0  0  0  0
 25 26  1  1  0  0  0
 25 27  1  0  0  0  0
 26  8  1  0  0  0  0
 27 18  1  6  0  0  0
 27 28  1  0  0  0  0
 28 20  1  1  0  0  0
 28 29  1  0  0  0  0
 29 11  1  6  0  0  0
 30 22  1  1  0  0  0
 30 31  1  0  0  0  0
 31 24  1  1  0  0  0
M  END
>  <CHROM.1>
55.50375756,-54.00296639,71.60163857,69.37314382,60.18751741,169.92308607
11.22396653,21.44085027,32.26305419,2.31233205,-0.55035515,-1.03960546

>  <Name>
2fcz_lig

>  <RI>
1.40544e+07

>  <Rbt.Current_Directory>
/home/itssahil/PROJECTS/Mol_Feturizer/New_Systems/rnas/2fcz

>  <Rbt.Executable>
rbdock ($Id: //depot/dev/client3/rdock/2013.1/src/exe/rbdock.cxx#4 $)

>  <Rbt.Library>
libRbt.so (2013.1, Build901 2013/11/27)

>  <Rbt.Parameter_File>
/export/apps/rDock/src/rDock_2013.1_src/data/scripts/dock_solv.prm

>  <Rbt.Receptor>
prm/blind_docking_100.prm

>  <SCORE>
-18.8418

>  <SCORE.INTER>
-15.9048

>  <SCORE.INTER.CONST>
1

>  <SCORE.INTER.POLAR>
-0.939759

>  <SCORE.INTER.ROT>
6

>  <SCORE.INTER.SOLV>
16.9632

>  <SCORE.INTER.VDW>
-20.7251

>  <SCORE.INTER.norm>
-0.513059

>  <SCORE.INTRA>
-2.94476

>  <SCORE.INTRA.DIHEDRAL>
-9.02527

>  <SCORE.INTRA.DIHEDRAL.0>
10.8409

>  <SCORE.INTRA.POLAR>
0

>  <SCORE.INTRA.POLAR.0>
0

>  <SCORE.INTRA.REPUL>
0

>  <SCORE.INTRA.REPUL.0>
0

>  <SCORE.INTRA.SOLV>
-1.69187

>  <SCORE.INTRA.SOLV.lig_0>
-80.8302

>  <SCORE.INTRA.VDW>
2.41381

>  <SCORE.INTRA.VDW.0>
-4.23953

>  <SCORE.INTRA.norm>
-0.0949922

>  <SCORE.RESTR>
0.00775033

>  <SCORE.RESTR.CAVITY>
0.00775033

>  <SCORE.RESTR.norm>
0.000250011

>  <SCORE.SYSTEM>
0

>  <SCORE.SYSTEM.CONST>
0

>  <SCORE.SYSTEM.DIHEDRAL>
0

>  <SCORE.SYSTEM.SOLV>
0

>  <SCORE.SYSTEM.norm>
0

>  <SCORE.heavy>
31

>  <SCORE.norm>
-0.607801

>  <RMSD>
6.596

$$$$
2fcz_lig
 OpenBabel11021811433D
libRbt.so/2013.1/901 2013/11/27
 31 33  0  0  0  0  0  0  0  0999 V2000
    8.5367   18.3207   31.5617 C   0  0  0  0  0  0  0  0  0  0  0  0
   12.3296   22.6148   33.7968 N   0  0  0  0  0  0  0  0  0  0  0  0
    8.9796   19.5159   30.9130 O   0  0  0  0  0  0  0  0  0  0  0  0
    9.6819   17.7307   32.3917 C   0  0  1  0  0  0  0  0  0  0  0  0
   13.5872   19.6755   37.5016 N   0  0  0  0  0  0  0  0  0  0  0  0
   10.1502   18.6597   33.3903 O   0  0  0  0  0  0  0  0  0  0  0  0
    9.7414   18.2103   34.6975 C   0  0  1  0  0  0  0  0  0  0  0  0
   14.1932   16.2192   37.3768 N   0  0  0  0  0  0  0  0  0  0  0  0
    9.2020   19.2714   35.5040 O   0  0  0  0  0  0  0  0  0  0  0  0
   10.1659   20.2628   35.8976 C   0  0  2  0  0  0  0  0  0  0  0  0
    8.6190   18.6518   39.5397 N   0  0  0  0  0  0  0  0  0  0  0  0
    9.6606   21.6937   34.0132 O   0  0  0  0  0  0  0  0  0  0  0  0
   10.7120   20.9593   34.6450 C   0  0  1  0  0  0  0  0  0  0  0  0
   10.8594   19.1518   37.9829 O   0  0  0  0  0  0  0  0  0  0  0  0
   11.8459   21.9240   35.0000 C   0  0  1  0  0  0  0  0  0  0  0  0
   11.4301   16.8639   37.8709 O   0  0  0  0  0  0  0  0  0  0  0  0
   13.0011   21.1606   35.6514 C   0  0  0  0  0  0  0  0  0  0  0  0
   12.6876   16.6846   41.3285 O   0  0  0  0  0  0  0  0  0  0  0  0
   12.5015   20.4894   36.9323 C   0  0  1  0  0  0  0  0  0  0  0  0
    9.9162   17.3304   41.7228 O   0  0  0  0  0  0  0  0  0  0  0  0
   11.2881   19.5870   36.6830 C   0  0  2  0  0  0  0  0  0  0  0  0
    8.4709   16.2434   35.4925 O   0  0  0  0  0  0  0  0  0  0  0  0
   10.3531   17.8093   38.0093 C   0  0  1  0  0  0  0  0  0  0  0  0
   10.3077   15.6381   33.4902 O   0  0  0  0  0  0  0  0  0  0  0  0
   12.4074   16.9152   38.9247 C   0  0  2  0  0  0  0  0  0  0  0  0
   13.5014   15.8859   38.6304 C   0  0  0  0  0  0  0  0  0  0  0  0
   11.7326   16.6057   40.2658 C   0  0  2  0  0  0  0  0  0  0  0  0
   10.6157   17.6229   40.5089 C   0  0  1  0  0  0  0  0  0  0  0  0
    9.6262   17.6002   39.3416 C   0  0  1  0  0  0  0  0  0  0  0  0
    8.6559   17.1697   34.4177 C   0  0  2  0  0  0  0  0  0  0  0  0
    9.2125   16.4978   33.1640 C   0  0  1  0  0  0  0  0  0  0  0  0
  3  1  1  0  0  0  0
  4  1  1  1  0  0  0
  4  6  1  0  0  0  0
  4 31  1  0  0  0  0
  6  7  1  0  0  0  0
  7  9  1  1  0  0  0
  7 30  1  0  0  0  0
 10  9  1  6  0  0  0
 10 13  1  0  0  0  0
 10 21  1  0  0  0  0
 13 12  1  1  0  0  0
 13 15  1  0  0  0  0
 15  2  1  6  0  0  0
 15 17  1  0  0  0  0
 16 25  1  0  0  0  0
 17 19  1  0  0  0  0
 19  5  1  6  0  0  0
 19 21  1  0  0  0  0
 21 14  1  1  0  0  0
 23 14  1  1  0  0  0
 23 16  1  0  0  0  0
 23 29  1  0  0  0  0
 25 26  1  6  0  0  0
 25 27  1  0  0  0  0
 26  8  1  0  0  0  0
 27 18  1  1  0  0  0
 27 28  1  0  0  0  0
 28 20  1  1  0  0  0
 28 29  1  0  0  0  0
 29 11  1  1  0  0  0
 30 22  1  1  0  0  0
 30 31  1  0  0  0  0
 31 24  1  1  0  0  0
M  END
>  <CHROM.1>
59.12590777,-68.00331890,62.95501875,90.68402059,72.84757458,62.59977376
10.75109207,18.46427989,36.33081483,2.03156888,-0.98723682,-0.88416317

>  <Name>
2fcz_lig

>  <RI>
1.32928e+07

>  <Rbt.Current_Directory>
/home/itssahil/PROJECTS/Mol_Feturizer/New_Systems/rnas/2fcz

>  <Rbt.Executable>
rbdock ($Id: //depot/dev/client3/rdock/2013.1/src/exe/rbdock.cxx#4 $)

>  <Rbt.Library>
libRbt.so (2013.1, Build901 2013/11/27)

>  <Rbt.Parameter_File>
/export/apps/rDock/src/rDock_2013.1_src/data/scripts/dock_solv.prm

>  <Rbt.Receptor>
prm/pocket_docking_7.prm

>  <SCORE>
-19.067

>  <SCORE.INTER>
-17.2956

>  <SCORE.INTER.CONST>
1

>  <SCORE.INTER.POLAR>
-1.89561

>  <SCORE.INTER.ROT>
6

>  <SCORE.INTER.SOLV>
12.2692

>  <SCORE.INTER.VDW>
-16.9014

>  <SCORE.INTER.norm>
-0.557923

>  <SCORE.INTRA>
-1.77142

>  <SCORE.INTRA.DIHEDRAL>
-5.87041

>  <SCORE.INTRA.DIHEDRAL.0>
10.8409

>  <SCORE.INTRA.POLAR>
0

>  <SCORE.INTRA.POLAR.0>
0

>  <SCORE.INTRA.REPUL>
0

>  <SCORE.INTRA.REPUL.0>
0

>  <SCORE.INTRA.SOLV>
-0.724646

>  <SCORE.INTRA.SOLV.lig_0>
-80.8302

>  <SCORE.INTRA.VDW>
1.52611

>  <SCORE.INTRA.VDW.0>
-4.23953

>  <SCORE.INTRA.norm>
-0.0571426

>  <SCORE.RESTR>
0

>  <SCORE.RESTR.CAVITY>
0

>  <SCORE.RESTR.norm>
0

>  <SCORE.SYSTEM>
0

>  <SCORE.SYSTEM.CONST>
0

>  <SCORE.SYSTEM.DIHEDRAL>
0

>  <SCORE.SYSTEM.SOLV>
0

>  <SCORE.SYSTEM.norm>
0

>  <SCORE.heavy>
31

>  <SCORE.norm>
-0.615065

>  <RMSD>
6.596

$$$$
2fcz_lig
 OpenBabel11021811433D
libRbt.so/2013.1/901 2013/11/27
 31 33  0  0  0  0  0  0  0  0999 V2000
    7.3635   19.5967   30.4500 C   0  0  0  0  0  0  0  0  0  0  0  0
    8.8719   15.0812   34.5021 N   0  0  0  0  0  0  0  0  0  0  0  0
    8.7551   19.6189   30.1209 O   0  0  0  0  0  0  0  0  0  0  0  0
    7.1724   20.0260   31.9086 C   0  0  1  0  0  0  0  0  0  0  0  0
    9.6351   18.5161   37.9029 N   0  0  0  0  0  0  0  0  0  0  0  0
    8.0405   19.2944   32.7978 O   0  0  0  0  0  0  0  0  0  0  0  0
    9.0812   20.1662   33.2822 C   0  0  1  0  0  0  0  0  0  0  0  0
   13.8065   22.9611   32.8022 N   0  0  0  0  0  0  0  0  0  0  0  0
   10.3812   19.5535   33.2392 O   0  0  0  0  0  0  0  0  0  0  0  0
   10.5676   18.4954   34.1944 C   0  0  2  0  0  0  0  0  0  0  0  0
   12.7304   19.7644   38.4018 N   0  0  0  0  0  0  0  0  0  0  0  0
   10.0797   16.7667   32.5735 O   0  0  0  0  0  0  0  0  0  0  0  0
    9.6586   17.3169   33.8241 C   0  0  1  0  0  0  0  0  0  0  0  0
   11.2358   19.9417   36.0720 O   0  0  0  0  0  0  0  0  0  0  0  0
    9.7139   16.2209   34.8910 C   0  0  1  0  0  0  0  0  0  0  0  0
   13.1550   19.8434   34.7008 O   0  0  0  0  0  0  0  0  0  0  0  0
    9.2386   16.7728   36.2368 C   0  0  0  0  0  0  0  0  0  0  0  0
   14.2279   23.2941   35.4149 O   0  0  0  0  0  0  0  0  0  0  0  0
   10.1538   17.9236   36.6598 C   0  0  1  0  0  0  0  0  0  0  0  0
   14.3964   22.0578   38.0026 O   0  0  0  0  0  0  0  0  0  0  0  0
   10.2448   19.0194   35.5923 C   0  0  2  0  0  0  0  0  0  0  0  0
    9.6079   22.5518   32.8996 O   0  0  0  0  0  0  0  0  0  0  0  0
   12.5823   19.4572   35.9641 C   0  0  1  0  0  0  0  0  0  0  0  0
    6.8887   22.0596   33.2358 O   0  0  0  0  0  0  0  0  0  0  0  0
   13.2522   21.2641   34.5000 C   0  0  2  0  0  0  0  0  0  0  0  0
   13.8438   21.5246   33.1125 C   0  0  0  0  0  0  0  0  0  0  0  0
   14.1477   21.8754   35.5834 C   0  0  2  0  0  0  0  0  0  0  0  0
   13.5546   21.5590   36.9580 C   0  0  1  0  0  0  0  0  0  0  0  0
   13.3949   20.0459   37.1217 C   0  0  1  0  0  0  0  0  0  0  0  0
    9.0425   21.3654   32.3336 C   0  0  2  0  0  0  0  0  0  0  0  0
    7.5399   21.4983   32.0931 C   0  0  1  0  0  0  0  0  0  0  0  0
  3  1  1  0  0  0  0
  4  1  1  6  0  0  0
  4  6  1  0  0  0  0
  4 31  1  0  0  0  0
  6  7  1  0  0  0  0
  7  9  1  6  0  0  0
  7 30  1  0  0  0  0
 10  9  1  6  0  0  0
 10 13  1  0  0  0  0
 10 21  1  0  0  0  0
 13 12  1  6  0  0  0
 13 15  1  0  0  0  0
 15  2  1  6  0  0  0
 15 17  1  0  0  0  0
 16 25  1  0  0  0  0
 17 19  1  0  0  0  0
 19  5  1  1  0  0  0
 19 21  1  0  0  0  0
 21 14  1  1  0  0  0
 23 14  1  6  0  0  0
 23 16  1  0  0  0  0
 23 29  1  0  0  0  0
 25 26  1  6  0  0  0
 25 27  1  0  0  0  0
 26  8  1  0  0  0  0
 27 18  1  6  0  0  0
 27 28  1  0  0  0  0
 28 20  1  1  0  0  0
 28 29  1  0  0  0  0
 29 11  1  1  0  0  0
 30 22  1  1  0  0  0
 30 31  1  0  0  0  0
 31 24  1  1  0  0  0
M  END
>  <CHROM.1>
-50.19658011,-70.09054038,67.02065964,-50.56313430,90.82811623,173.04827293
10.71932234,19.88563175,34.40095890,-3.02115819,0.68380538,2.45609292

>  <Name>
2fcz_lig

>  <RI>
0

>  <Rbt.Current_Directory>
/home/itssahil/PROJECTS/Mol_Feturizer/New_Systems/rnas/2fcz

>  <Rbt.Executable>
rbdock ($Id: //depot/dev/client3/rdock/2013.1/src/exe/rbdock.cxx#4 $)

>  <Rbt.Library>
libRbt.so (2013.1, Build901 2013/11/27)

>  <Rbt.Parameter_File>
/export/apps/rDock/src/rDock_2013.1_src/data/scripts/dock_solv.prm

>  <Rbt.Receptor>
prm/pocket_docking_5.prm

>  <SCORE>
-14.4257

>  <SCORE.INTER>
-15.0752

>  <SCORE.INTER.CONST>
1

>  <SCORE.INTER.POLAR>
-2.37876

>  <SCORE.INTER.ROT>
6

>  <SCORE.INTER.SOLV>
15.2418

>  <SCORE.INTER.VDW>
-14.8015

>  <SCORE.INTER.norm>
-0.486297

>  <SCORE.INTRA>
0.649465

>  <SCORE.INTRA.DIHEDRAL>
-5.26831

>  <SCORE.INTRA.DIHEDRAL.0>
10.8409

>  <SCORE.INTRA.POLAR>
0

>  <SCORE.INTRA.POLAR.0>
0

>  <SCORE.INTRA.REPUL>
0

>  <SCORE.INTRA.REPUL.0>
0

>  <SCORE.INTRA.SOLV>
0.0939017

>  <SCORE.INTRA.SOLV.lig_0>
-80.8302

>  <SCORE.INTRA.VDW>
3.23667

>  <SCORE.INTRA.VDW.0>
-4.23953

>  <SCORE.INTRA.norm>
0.0209505

>  <SCORE.RESTR>
0

>  <SCORE.RESTR.CAVITY>
0

>  <SCORE.RESTR.norm>
0

>  <SCORE.SYSTEM>
0

>  <SCORE.SYSTEM.CONST>
0

>  <SCORE.SYSTEM.DIHEDRAL>
0

>  <SCORE.SYSTEM.SOLV>
0

>  <SCORE.SYSTEM.norm>
0

>  <SCORE.heavy>
31

>  <SCORE.norm>
-0.465346

>  <RMSD>
6.600

$$$$
2fcz_lig
 OpenBabel11021811433D
libRbt.so/2013.1/901 2013/11/27
 31 33  0  0  0  0  0  0  0  0999 V2000
    6.4232   19.7748   40.2414 C   0  0  0  0  0  0  0  0  0  0  0  0
    8.0952   13.1102   34.9651 N   0  0  0  0  0  0  0  0  0  0  0  0
    5.6290   20.0376   41.4014 O   0  0  0  0  0  0  0  0  0  0  0  0
    5.5752   19.0511   39.1899 C   0  0  1  0  0  0  0  0  0  0  0  0
   11.2706   16.6424   33.7872 N   0  0  0  0  0  0  0  0  0  0  0  0
    6.2757   18.9233   37.9359 O   0  0  0  0  0  0  0  0  0  0  0  0
    6.6587   17.5484   37.7345 C   0  0  1  0  0  0  0  0  0  0  0  0
   13.7302   18.7566   38.0301 N   0  0  0  0  0  0  0  0  0  0  0  0
    8.0159   17.4128   37.2796 O   0  0  0  0  0  0  0  0  0  0  0  0
    8.1471   16.7950   35.9880 C   0  0  2  0  0  0  0  0  0  0  0  0
    8.9186   21.1479   34.3162 N   0  0  0  0  0  0  0  0  0  0  0  0
    6.6754   14.9640   36.5671 O   0  0  0  0  0  0  0  0  0  0  0  0
    8.0037   15.2755   36.1397 C   0  0  1  0  0  0  0  0  0  0  0  0
    9.5743   18.5406   34.9980 O   0  0  0  0  0  0  0  0  0  0  0  0
    8.2781   14.5604   34.8147 C   0  0  1  0  0  0  0  0  0  0  0  0
   10.1327   19.1413   37.2116 O   0  0  0  0  0  0  0  0  0  0  0  0
    9.7057   14.8505   34.3464 C   0  0  0  0  0  0  0  0  0  0  0  0
   13.3319   20.7280   36.3085 O   0  0  0  0  0  0  0  0  0  0  0  0
    9.8707   16.3575   34.1402 C   0  0  1  0  0  0  0  0  0  0  0  0
   11.4249   22.3832   34.9384 O   0  0  0  0  0  0  0  0  0  0  0  0
    9.5053   17.1613   35.3928 C   0  0  2  0  0  0  0  0  0  0  0  0
    6.3381   15.4880   39.0637 O   0  0  0  0  0  0  0  0  0  0  0  0
    9.3223   19.4649   36.0664 C   0  0  1  0  0  0  0  0  0  0  0  0
    4.0855   17.1222   38.9960 O   0  0  0  0  0  0  0  0  0  0  0  0
   11.5499   19.2167   36.9793 C   0  0  2  0  0  0  0  0  0  0  0  0
   12.2801   18.8178   38.2641 C   0  0  0  0  0  0  0  0  0  0  0  0
   11.9283   20.6457   36.5741 C   0  0  2  0  0  0  0  0  0  0  0  0
   11.1487   21.0302   35.3147 C   0  0  1  0  0  0  0  0  0  0  0  0
    9.6467   20.8750   35.5632 C   0  0  1  0  0  0  0  0  0  0  0  0
    6.5092   16.9077   39.1153 C   0  0  2  0  0  0  0  0  0  0  0  0
    5.2631   17.6223   39.6348 C   0  0  1  0  0  0  0  0  0  0  0  0
  3  1  1  0  0  0  0
  4  1  1  1  0  0  0
  4  6  1  0  0  0  0
  4 31  1  0  0  0  0
  6  7  1  0  0  0  0
  7  9  1  1  0  0  0
  7 30  1  0  0  0  0
 10  9  1  1  0  0  0
 10 13  1  0  0  0  0
 10 21  1  0  0  0  0
 13 12  1  6  0  0  0
 13 15  1  0  0  0  0
 15  2  1  1  0  0  0
 15 17  1  0  0  0  0
 16 25  1  0  0  0  0
 17 19  1  0  0  0  0
 19  5  1  1  0  0  0
 19 21  1  0  0  0  0
 21 14  1  6  0  0  0
 23 14  1  6  0  0  0
 23 16  1  0  0  0  0
 23 29  1  0  0  0  0
 25 26  1  1  0  0  0
 25 27  1  0  0  0  0
 26  8  1  0  0  0  0
 27 18  1  6  0  0  0
 27 28  1  0  0  0  0
 28 20  1  1  0  0  0
 28 29  1  0  0  0  0
 29 11  1  6  0  0  0
 30 22  1  6  0  0  0
 30 31  1  0  0  0  0
 31 24  1  6  0  0  0
M  END
>  <CHROM.1>
172.24104628,-118.49313376,-79.22262915,58.17179668,50.17786098,174.55009037
8.79096950,18.09512542,36.85201497,3.00820407,-0.60013370,-2.60108975

>  <Name>
2fcz_lig

>  <RI>
2.76032e+07

>  <Rbt.Current_Directory>
/home/itssahil/PROJECTS/Mol_Feturizer/New_Systems/rnas/2fcz

>  <Rbt.Executable>
rbdock ($Id: //depot/dev/client3/rdock/2013.1/src/exe/rbdock.cxx#4 $)

>  <Rbt.Library>
libRbt.so (2013.1, Build901 2013/11/27)

>  <Rbt.Parameter_File>
/export/apps/rDock/src/rDock_2013.1_src/data/scripts/dock_solv.prm

>  <Rbt.Receptor>
prm/pocket_docking_8.prm

>  <SCORE>
-15.4503

>  <SCORE.INTER>
-16.0981

>  <SCORE.INTER.CONST>
1

>  <SCORE.INTER.POLAR>
-2.61413

>  <SCORE.INTER.ROT>
6

>  <SCORE.INTER.SOLV>
18.4673

>  <SCORE.INTER.VDW>
-15.7741

>  <SCORE.INTER.norm>
-0.519295

>  <SCORE.INTRA>
0.647846

>  <SCORE.INTRA.DIHEDRAL>
-1.14662

>  <SCORE.INTRA.DIHEDRAL.0>
10.8409

>  <SCORE.INTRA.POLAR>
0

>  <SCORE.INTRA.POLAR.0>
0

>  <SCORE.INTRA.REPUL>
0

>  <SCORE.INTRA.REPUL.0>
0

>  <SCORE.INTRA.SOLV>
-2.53198

>  <SCORE.INTRA.SOLV.lig_0>
-80.8302

>  <SCORE.INTRA.VDW>
2.48715

>  <SCORE.INTRA.VDW.0>
-4.23953

>  <SCORE.INTRA.norm>
0.0208983

>  <SCORE.RESTR>
0

>  <SCORE.RESTR.CAVITY>
0

>  <SCORE.RESTR.norm>
0

>  <SCORE.SYSTEM>
0

>  <SCORE.SYSTEM.CONST>
0

>  <SCORE.SYSTEM.DIHEDRAL>
0

>  <SCORE.SYSTEM.SOLV>
0

>  <SCORE.SYSTEM.norm>
0

>  <SCORE.heavy>
31

>  <SCORE.norm>
-0.498397

>  <RMSD>
6.604

$$$$
2fcz_lig
 OpenBabel11021811433D
libRbt.so/2013.1/901 2013/11/27
 31 33  0  0  0  0  0  0  0  0999 V2000
   14.2876   15.4950   35.4851 C   0  0  0  0  0  0  0  0  0  0  0  0
    8.6855   20.9291   33.9388 N   0  0  0  0  0  0  0  0  0  0  0  0
   14.3078   14.5761   36.5808 O   0  0  0  0  0  0  0  0  0  0  0  0
   15.1019   16.7425   35.8442 C   0  0  1  0  0  0  0  0  0  0  0  0
   12.4643   24.0371   33.8506 N   0  0  0  0  0  0  0  0  0  0  0  0
   15.0270   17.7442   34.8095 O   0  0  0  0  0  0  0  0  0  0  0  0
   14.2188   18.8480   35.2636 C   0  0  1  0  0  0  0  0  0  0  0  0
   16.8221   23.2959   30.9087 N   0  0  0  0  0  0  0  0  0  0  0  0
   13.2760   19.2887   34.2715 O   0  0  0  0  0  0  0  0  0  0  0  0
   12.3776   20.3154   34.7250 C   0  0  2  0  0  0  0  0  0  0  0  0
   16.2683   21.7185   36.7118 N   0  0  0  0  0  0  0  0  0  0  0  0
   10.4574   18.8446   34.6696 O   0  0  0  0  0  0  0  0  0  0  0  0
   10.9845   20.0617   34.1358 C   0  0  1  0  0  0  0  0  0  0  0  0
   14.0907   22.0582   35.0277 O   0  0  0  0  0  0  0  0  0  0  0  0
   10.0260   21.2063   34.4728 C   0  0  1  0  0  0  0  0  0  0  0  0
   15.4460   22.0733   33.0949 O   0  0  0  0  0  0  0  0  0  0  0  0
   10.5490   22.5197   33.8870 C   0  0  0  0  0  0  0  0  0  0  0  0
   16.7590   25.4683   33.6588 O   0  0  0  0  0  0  0  0  0  0  0  0
   11.9211   22.8279   34.4896 C   0  0  1  0  0  0  0  0  0  0  0  0
   17.7509   24.0454   35.9489 O   0  0  0  0  0  0  0  0  0  0  0  0
   12.9157   21.6785   34.2942 C   0  0  2  0  0  0  0  0  0  0  0  0
   13.0209   19.3148   37.3759 O   0  0  0  0  0  0  0  0  0  0  0  0
   15.3164   21.5913   34.4454 C   0  0  1  0  0  0  0  0  0  0  0  0
   15.5425   18.1991   37.7578 O   0  0  0  0  0  0  0  0  0  0  0  0
   15.4979   23.5055   32.9756 C   0  0  2  0  0  0  0  0  0  0  0  0
   15.6020   23.8714   31.4929 C   0  0  0  0  0  0  0  0  0  0  0  0
   16.7126   24.0406   33.7421 C   0  0  2  0  0  0  0  0  0  0  0  0
   16.6018   23.6199   35.2092 C   0  0  1  0  0  0  0  0  0  0  0  0
   16.4770   22.0978   35.3075 C   0  0  1  0  0  0  0  0  0  0  0  0
   13.4716   18.2956   36.4784 C   0  0  2  0  0  0  0  0  0  0  0  0
   14.5468   17.4085   37.1032 C   0  0  1  0  0  0  0  0  0  0  0  0
  3  1  1  0  0  0  0
  4  1  1  6  0  0  0
  4  6  1  0  0  0  0
  4 31  1  0  0  0  0
  6  7  1  0  0  0  0
  7  9  1  6  0  0  0
  7 30  1  0  0  0  0
 10  9  1  6  0  0  0
 10 13  1  0  0  0  0
 10 21  1  0  0  0  0
 13 12  1  1  0  0  0
 13 15  1  0  0  0  0
 15  2  1  6  0  0  0
 15 17  1  0  0  0  0
 16 25  1  0  0  0  0
 17 19  1  0  0  0  0
 19  5  1  6  0  0  0
 19 21  1  0  0  0  0
 21 14  1  1  0  0  0
 23 14  1  1  0  0  0
 23 16  1  0  0  0  0
 23 29  1  0  0  0  0
 25 26  1  6  0  0  0
 25 27  1  0  0  0  0
 26  8  1  0  0  0  0
 27 18  1  1  0  0  0
 27 28  1  0  0  0  0
 28 20  1  1  0  0  0
 28 29  1  0  0  0  0
 29 11  1  1  0  0  0
 30 22  1  1  0  0  0
 30 31  1  0  0  0  0
 31 24  1  6  0  0  0
M  END
>  <CHROM.1>
-175.57817940,175.16511839,-141.62017222,88.02223350,57.67427368,-60.40867864
14.10562325,20.79796775,34.79365338,-1.90879330,-0.17106446,-0.41397816

>  <Name>
2fcz_lig

>  <RI>
2.6968e+07

>  <Rbt.Current_Directory>
/home/itssahil/PROJECTS/Mol_Feturizer/New_Systems/rnas/2fcz

>  <Rbt.Executable>
rbdock ($Id: //depot/dev/client3/rdock/2013.1/src/exe/rbdock.cxx#4 $)

>  <Rbt.Library>
libRbt.so (2013.1, Build901 2013/11/27)

>  <Rbt.Parameter_File>
/export/apps/rDock/src/rDock_2013.1_src/data/scripts/dock_solv.prm

>  <Rbt.Receptor>
prm/blind_docking_60.prm

>  <SCORE>
-6.01865

>  <SCORE.INTER>
-6.67978

>  <SCORE.INTER.CONST>
1

>  <SCORE.INTER.POLAR>
-1.67754

>  <SCORE.INTER.ROT>
6

>  <SCORE.INTER.SOLV>
12.0513

>  <SCORE.INTER.VDW>
-10.4785

>  <SCORE.INTER.norm>
-0.215477

>  <SCORE.INTRA>
0.126153

>  <SCORE.INTRA.DIHEDRAL>
-2.18933

>  <SCORE.INTRA.DIHEDRAL.0>
10.8409

>  <SCORE.INTRA.POLAR>
0

>  <SCORE.INTRA.POLAR.0>
0

>  <SCORE.INTRA.REPUL>
0.00417252

>  <SCORE.INTRA.REPUL.0>
0

>  <SCORE.INTRA.SOLV>
0.59379

>  <SCORE.INTRA.SOLV.lig_0>
-80.8302

>  <SCORE.INTRA.VDW>
0.90306

>  <SCORE.INTRA.VDW.0>
-4.23953

>  <SCORE.INTRA.norm>
0.00406944

>  <SCORE.RESTR>
0.534981

>  <SCORE.RESTR.CAVITY>
0.534981

>  <SCORE.RESTR.norm>
0.0172574

>  <SCORE.SYSTEM>
0

>  <SCORE.SYSTEM.CONST>
0

>  <SCORE.SYSTEM.DIHEDRAL>
0

>  <SCORE.SYSTEM.SOLV>
0

>  <SCORE.SYSTEM.norm>
0

>  <SCORE.heavy>
31

>  <SCORE.norm>
-0.19415

>  <RMSD>
6.605

$$$$
2fcz_lig
 OpenBabel11021811433D
libRbt.so/2013.1/901 2013/11/27
 31 33  0  0  0  0  0  0  0  0999 V2000
    8.6868   18.1946   30.9763 C   0  0  0  0  0  0  0  0  0  0  0  0
   14.7837   22.7307   33.2527 N   0  0  0  0  0  0  0  0  0  0  0  0
    7.6403   18.6116   30.0952 O   0  0  0  0  0  0  0  0  0  0  0  0
    8.3207   18.5587   32.4192 C   0  0  1  0  0  0  0  0  0  0  0  0
   14.8366   19.8831   37.2321 N   0  0  0  0  0  0  0  0  0  0  0  0
    9.3543   18.1686   33.3461 O   0  0  0  0  0  0  0  0  0  0  0  0
   10.0340   19.3425   33.8336 C   0  0  1  0  0  0  0  0  0  0  0  0
   15.4768   15.8117   38.6442 N   0  0  0  0  0  0  0  0  0  0  0  0
   11.4640   19.1932   33.8361 O   0  0  0  0  0  0  0  0  0  0  0  0
   12.1668   20.2455   34.5185 C   0  0  2  0  0  0  0  0  0  0  0  0
    9.6354   18.6592   37.7859 N   0  0  0  0  0  0  0  0  0  0  0  0
   12.2693   21.6386   32.5430 O   0  0  0  0  0  0  0  0  0  0  0  0
   13.0745   20.9746   33.5201 C   0  0  1  0  0  0  0  0  0  0  0  0
   12.1503   19.1840   36.7404 O   0  0  0  0  0  0  0  0  0  0  0  0
   13.9513   22.0112   34.2266 C   0  0  1  0  0  0  0  0  0  0  0  0
   12.6551   16.8897   36.5074 O   0  0  0  0  0  0  0  0  0  0  0  0
   14.8484   21.3250   35.2591 C   0  0  0  0  0  0  0  0  0  0  0  0
   13.2125   16.3242   40.1042 O   0  0  0  0  0  0  0  0  0  0  0  0
   13.9726   20.6242   36.2996 C   0  0  1  0  0  0  0  0  0  0  0  0
   10.4404   17.0746   40.0299 O   0  0  0  0  0  0  0  0  0  0  0  0
   12.9807   19.6447   35.6628 C   0  0  2  0  0  0  0  0  0  0  0  0
    9.7556   21.7621   33.4057 O   0  0  0  0  0  0  0  0  0  0  0  0
   11.6038   17.8732   36.5343 C   0  0  1  0  0  0  0  0  0  0  0  0
    7.3421   20.4042   33.6895 O   0  0  0  0  0  0  0  0  0  0  0  0
   13.4109   16.7916   37.7269 C   0  0  2  0  0  0  0  0  0  0  0  0
   14.5062   15.7384   37.5425 C   0  0  0  0  0  0  0  0  0  0  0  0
   12.4793   16.3945   38.8775 C   0  0  2  0  0  0  0  0  0  0  0  0
   11.3711   17.4417   39.0064 C   0  0  1  0  0  0  0  0  0  0  0  0
   10.6261   17.5794   37.6766 C   0  0  1  0  0  0  0  0  0  0  0  0
    9.6306   20.4471   32.8555 C   0  0  2  0  0  0  0  0  0  0  0  0
    8.1763   20.0724   32.5764 C   0  0  1  0  0  0  0  0  0  0  0  0
  3  1  1  0  0  0  0
  4  1  1  6  0  0  0
  4  6  1  0  0  0  0
  4 31  1  0  0  0  0
  6  7  1  0  0  0  0
  7  9  1  6  0  0  0
  7 30  1  0  0  0  0
 10  9  1  6  0  0  0
 10 13  1  0  0  0  0
 10 21  1  0  0  0  0
 13 12  1  6  0  0  0
 13 15  1  0  0  0  0
 15  2  1  6  0  0  0
 15 17  1  0  0  0  0
 16 25  1  0  0  0  0
 17 19  1  0  0  0  0
 19  5  1  1  0  0  0
 19 21  1  0  0  0  0
 21 14  1  1  0  0  0
 23 14  1  1  0  0  0
 23 16  1  0  0  0  0
 23 29  1  0  0  0  0
 25 26  1  6  0  0  0
 25 27  1  0  0  0  0
 26  8  1  0  0  0  0
 27 18  1  1  0  0  0
 27 28  1  0  0  0  0
 28 20  1  1  0  0  0
 28 29  1  0  0  0  0
 29 11  1  1  0  0  0
 30 22  1  1  0  0  0
 30 31  1  0  0  0  0
 31 24  1  1  0  0  0
M  END
>  <CHROM.1>
-179.44874818,-170.12854653,-117.92088822,82.84496522,65.27207490,167.66976041
11.59748738,19.01095750,35.36133394,2.13291844,-0.42154331,-0.88376342

>  <Name>
2fcz_lig

>  <RI>
1.32928e+07

>  <Rbt.Current_Directory>
/home/itssahil/PROJECTS/Mol_Feturizer/New_Systems/rnas/2fcz

>  <Rbt.Executable>
rbdock ($Id: //depot/dev/client3/rdock/2013.1/src/exe/rbdock.cxx#4 $)

>  <Rbt.Library>
libRbt.so (2013.1, Build901 2013/11/27)

>  <Rbt.Parameter_File>
/export/apps/rDock/src/rDock_2013.1_src/data/scripts/dock_solv.prm

>  <Rbt.Receptor>
prm/pocket_docking_7.prm

>  <SCORE>
-15.8271

>  <SCORE.INTER>
-16.1237

>  <SCORE.INTER.CONST>
1

>  <SCORE.INTER.POLAR>
-2.60975

>  <SCORE.INTER.ROT>
6

>  <SCORE.INTER.SOLV>
15.6174

>  <SCORE.INTER.VDW>
-14.8558

>  <SCORE.INTER.norm>
-0.520119

>  <SCORE.INTRA>
0.296598

>  <SCORE.INTRA.DIHEDRAL>
-0.152885

>  <SCORE.INTRA.DIHEDRAL.0>
10.8409

>  <SCORE.INTRA.POLAR>
0

>  <SCORE.INTRA.POLAR.0>
0

>  <SCORE.INTRA.REPUL>
0

>  <SCORE.INTRA.REPUL.0>
0

>  <SCORE.INTRA.SOLV>
-1.01454

>  <SCORE.INTRA.SOLV.lig_0>
-80.8302

>  <SCORE.INTRA.VDW>
0.880313

>  <SCORE.INTRA.VDW.0>
-4.23953

>  <SCORE.INTRA.norm>
0.00956769

>  <SCORE.RESTR>
0

>  <SCORE.RESTR.CAVITY>
0

>  <SCORE.RESTR.norm>
0

>  <SCORE.SYSTEM>
0

>  <SCORE.SYSTEM.CONST>
0

>  <SCORE.SYSTEM.DIHEDRAL>
0

>  <SCORE.SYSTEM.SOLV>
0

>  <SCORE.SYSTEM.norm>
0

>  <SCORE.heavy>
31

>  <SCORE.norm>
-0.510551

>  <RMSD>
6.608

$$$$
2fcz_lig
 OpenBabel11021811433D
libRbt.so/2013.1/901 2013/11/27
 31 33  0  0  0  0  0  0  0  0999 V2000
    8.0387   18.3878   30.8814 C   0  0  0  0  0  0  0  0  0  0  0  0
    8.7656   17.3038   38.8835 N   0  0  0  0  0  0  0  0  0  0  0  0
    8.0190   19.7174   30.3547 O   0  0  0  0  0  0  0  0  0  0  0  0
    9.4891   17.9249   31.0568 C   0  0  1  0  0  0  0  0  0  0  0  0
   13.0123   19.6306   38.1773 N   0  0  0  0  0  0  0  0  0  0  0  0
   10.1960   18.7378   32.0155 O   0  0  0  0  0  0  0  0  0  0  0  0
   10.4164   17.9801   33.2218 C   0  0  1  0  0  0  0  0  0  0  0  0
   16.9845   17.3118   36.3322 N   0  0  0  0  0  0  0  0  0  0  0  0
   10.1167   18.7318   34.4102 O   0  0  0  0  0  0  0  0  0  0  0  0
   10.5916   18.1291   35.6260 C   0  0  2  0  0  0  0  0  0  0  0  0
   12.4530   21.3877   34.2108 N   0  0  0  0  0  0  0  0  0  0  0  0
    8.4714   17.0549   36.0781 O   0  0  0  0  0  0  0  0  0  0  0  0
    9.4212   17.9837   36.6065 C   0  0  1  0  0  0  0  0  0  0  0  0
   12.9077   18.9457   35.4448 O   0  0  0  0  0  0  0  0  0  0  0  0
    9.9023   17.4788   37.9689 C   0  0  1  0  0  0  0  0  0  0  0  0
   15.1473   19.4926   35.9523 O   0  0  0  0  0  0  0  0  0  0  0  0
   10.8990   18.4694   38.5747 C   0  0  0  0  0  0  0  0  0  0  0  0
   16.3648   19.0634   32.5025 O   0  0  0  0  0  0  0  0  0  0  0  0
   12.1042   18.6040   37.6418 C   0  0  1  0  0  0  0  0  0  0  0  0
   14.5103   21.2400   32.2257 O   0  0  0  0  0  0  0  0  0  0  0  0
   11.6984   18.9996   36.2178 C   0  0  2  0  0  0  0  0  0  0  0  0
    9.8492   15.6706   33.8996 O   0  0  0  0  0  0  0  0  0  0  0  0
   13.8247   20.0136   35.7238 C   0  0  1  0  0  0  0  0  0  0  0  0
   10.7766   15.8587   31.2816 O   0  0  0  0  0  0  0  0  0  0  0  0
   15.7158   18.7961   34.8299 C   0  0  2  0  0  0  0  0  0  0  0  0
   17.0988   18.2730   35.2257 C   0  0  0  0  0  0  0  0  0  0  0  0
   15.8299   19.7519   33.6371 C   0  0  2  0  0  0  0  0  0  0  0  0
   14.4395   20.2919   33.2956 C   0  0  1  0  0  0  0  0  0  0  0  0
   13.8256   20.9667   34.5243 C   0  0  1  0  0  0  0  0  0  0  0  0
    9.4580   16.7938   33.1042 C   0  0  2  0  0  0  0  0  0  0  0  0
    9.5406   16.4999   31.6075 C   0  0  1  0  0  0  0  0  0  0  0  0
  3  1  1  0  0  0  0
  4  1  1  1  0  0  0
  4  6  1  0  0  0  0
  4 31  1  0  0  0  0
  6  7  1  0  0  0  0
  7  9  1  1  0  0  0
  7 30  1  0  0  0  0
 10  9  1  6  0  0  0
 10 13  1  0  0  0  0
 10 21  1  0  0  0  0
 13 12  1  6  0  0  0
 13 15  1  0  0  0  0
 15  2  1  1  0  0  0
 15 17  1  0  0  0  0
 16 25  1  0  0  0  0
 17 19  1  0  0  0  0
 19  5  1  1  0  0  0
 19 21  1  0  0  0  0
 21 14  1  6  0  0  0
 23 14  1  6  0  0  0
 23 16  1  0  0  0  0
 23 29  1  0  0  0  0
 25 26  1  1  0  0  0
 25 27  1  0  0  0  0
 26  8  1  0  0  0  0
 27 18  1  6  0  0  0
 27 28  1  0  0  0  0
 28 20  1  6  0  0  0
 28 29  1  0  0  0  0
 29 11  1  6  0  0  0
 30 22  1  1  0  0  0
 30 31  1  0  0  0  0
 31 24  1  1  0  0  0
M  END
>  <CHROM.1>
63.05319997,-167.15704115,-125.74122193,162.96096802,130.83488119,62.27557535
11.91962230,18.55838985,34.51041103,-2.85556409,0.29393278,1.65890389

>  <Name>
2fcz_lig

>  <RI>
2.76032e+07

>  <Rbt.Current_Directory>
/home/itssahil/PROJECTS/Mol_Feturizer/New_Systems/rnas/2fcz

>  <Rbt.Executable>
rbdock ($Id: //depot/dev/client3/rdock/2013.1/src/exe/rbdock.cxx#4 $)

>  <Rbt.Library>
libRbt.so (2013.1, Build901 2013/11/27)

>  <Rbt.Parameter_File>
/export/apps/rDock/src/rDock_2013.1_src/data/scripts/dock_solv.prm

>  <Rbt.Receptor>
prm/pocket_docking_8.prm

>  <SCORE>
-9.92452

>  <SCORE.INTER>
-14.3767

>  <SCORE.INTER.CONST>
1

>  <SCORE.INTER.POLAR>
-1.43694

>  <SCORE.INTER.ROT>
6

>  <SCORE.INTER.SOLV>
14.1894

>  <SCORE.INTER.VDW>
-17.1245

>  <SCORE.INTER.norm>
-0.463764

>  <SCORE.INTRA>
4.45218

>  <SCORE.INTRA.DIHEDRAL>
5.10777

>  <SCORE.INTRA.DIHEDRAL.0>
10.8409

>  <SCORE.INTRA.POLAR>
0

>  <SCORE.INTRA.POLAR.0>
0

>  <SCORE.INTRA.REPUL>
0

>  <SCORE.INTRA.REPUL.0>
0

>  <SCORE.INTRA.SOLV>
-0.522927

>  <SCORE.INTRA.SOLV.lig_0>
-80.8302

>  <SCORE.INTRA.VDW>
2.15976

>  <SCORE.INTRA.VDW.0>
-4.23953

>  <SCORE.INTRA.norm>
0.143619

>  <SCORE.RESTR>
0

>  <SCORE.RESTR.CAVITY>
0

>  <SCORE.RESTR.norm>
0

>  <SCORE.SYSTEM>
0

>  <SCORE.SYSTEM.CONST>
0

>  <SCORE.SYSTEM.DIHEDRAL>
0

>  <SCORE.SYSTEM.SOLV>
0

>  <SCORE.SYSTEM.norm>
0

>  <SCORE.heavy>
31

>  <SCORE.norm>
-0.320146

>  <RMSD>
6.611

$$$$
2fcz_lig
 OpenBabel11021811433D
libRbt.so/2013.1/901 2013/11/27
 31 33  0  0  0  0  0  0  0  0999 V2000
    8.4255   18.7806   31.4765 C   0  0  0  0  0  0  0  0  0  0  0  0
   12.3979   22.8303   33.8457 N   0  0  0  0  0  0  0  0  0  0  0  0
    8.0083   17.9235   30.4103 O   0  0  0  0  0  0  0  0  0  0  0  0
    9.5945   18.1353   32.2285 C   0  0  1  0  0  0  0  0  0  0  0  0
   13.6281   19.7361   37.4317 N   0  0  0  0  0  0  0  0  0  0  0  0
   10.1006   18.9973   33.2680 O   0  0  0  0  0  0  0  0  0  0  0  0
    9.7330   18.4667   34.5568 C   0  0  1  0  0  0  0  0  0  0  0  0
   13.1608   14.7246   38.3523 N   0  0  0  0  0  0  0  0  0  0  0  0
    9.2263   19.4759   35.4468 O   0  0  0  0  0  0  0  0  0  0  0  0
   10.2081   20.4366   35.8710 C   0  0  2  0  0  0  0  0  0  0  0  0
    8.6641   18.6053   39.4316 N   0  0  0  0  0  0  0  0  0  0  0  0
    9.7156   21.9443   34.0439 O   0  0  0  0  0  0  0  0  0  0  0  0
   10.7585   21.1703   34.6417 C   0  0  1  0  0  0  0  0  0  0  0  0
   10.8949   19.2382   37.9096 O   0  0  0  0  0  0  0  0  0  0  0  0
   11.9096   22.1031   35.0255 C   0  0  1  0  0  0  0  0  0  0  0  0
   11.5738   16.9820   37.7634 O   0  0  0  0  0  0  0  0  0  0  0  0
   13.0560   21.2978   35.6412 C   0  0  0  0  0  0  0  0  0  0  0  0
   12.8017   16.7985   41.2313 O   0  0  0  0  0  0  0  0  0  0  0  0
   12.5525   20.5876   36.8993 C   0  0  1  0  0  0  0  0  0  0  0  0
    9.9989   17.3064   41.6055 O   0  0  0  0  0  0  0  0  0  0  0  0
   11.3235   19.7144   36.6241 C   0  0  2  0  0  0  0  0  0  0  0  0
    8.4793   16.4571   35.2671 O   0  0  0  0  0  0  0  0  0  0  0  0
   10.4520   17.8732   37.9064 C   0  0  1  0  0  0  0  0  0  0  0  0
   10.2455   15.9750   33.1701 O   0  0  0  0  0  0  0  0  0  0  0  0
   12.5363   17.0597   38.8290 C   0  0  2  0  0  0  0  0  0  0  0  0
   13.6807   16.0884   38.5290 C   0  0  0  0  0  0  0  0  0  0  0  0
   11.8628   16.6944   40.1566 C   0  0  2  0  0  0  0  0  0  0  0  0
   10.6967   17.6535   40.4050 C   0  0  1  0  0  0  0  0  0  0  0  0
    9.7218   17.6059   39.2263 C   0  0  1  0  0  0  0  0  0  0  0  0
    8.6334   17.4495   34.2479 C   0  0  2  0  0  0  0  0  0  0  0  0
    9.1446   16.8571   32.9360 C   0  0  1  0  0  0  0  0  0  0  0  0
  3  1  1  0  0  0  0
  4  1  1  1  0  0  0
  4  6  1  0  0  0  0
  4 31  1  0  0  0  0
  6  7  1  0  0  0  0
  7  9  1  1  0  0  0
  7 30  1  0  0  0  0
 10  9  1  6  0  0  0
 10 13  1  0  0  0  0
 10 21  1  0  0  0  0
 13 12  1  1  0  0  0
 13 15  1  0  0  0  0
 15  2  1  6  0  0  0
 15 17  1  0  0  0  0
 16 25  1  0  0  0  0
 17 19  1  0  0  0  0
 19  5  1  6  0  0  0
 19 21  1  0  0  0  0
 21 14  1  1  0  0  0
 23 14  1  1  0  0  0
 23 16  1  0  0  0  0
 23 29  1  0  0  0  0
 25 26  1  6  0  0  0
 25 27  1  0  0  0  0
 26  8  1  0  0  0  0
 27 18  1  1  0  0  0
 27 28  1  0  0  0  0
 28 20  1  1  0  0  0
 28 29  1  0  0  0  0
 29 11  1  1  0  0  0
 30 22  1  1  0  0  0
 30 31  1  0  0  0  0
 31 24  1  1  0  0  0
M  END
>  <CHROM.1>
176.75072768,-68.04604228,60.66969203,94.69412627,72.51343489,-56.70434331
10.72193962,18.52278798,36.25443800,2.15354326,-1.01680101,-0.78104438

>  <Name>
2fcz_lig

>  <RI>
0

>  <Rbt.Current_Directory>
/home/itssahil/PROJECTS/Mol_Feturizer/New_Systems/rnas/2fcz

>  <Rbt.Executable>
rbdock ($Id: //depot/dev/client3/rdock/2013.1/src/exe/rbdock.cxx#4 $)

>  <Rbt.Library>
libRbt.so (2013.1, Build901 2013/11/27)

>  <Rbt.Parameter_File>
/export/apps/rDock/src/rDock_2013.1_src/data/scripts/dock_solv.prm

>  <Rbt.Receptor>
prm/pocket_docking_6.prm

>  <SCORE>
-19.4611

>  <SCORE.INTER>
-18.6882

>  <SCORE.INTER.CONST>
1

>  <SCORE.INTER.POLAR>
-1.87653

>  <SCORE.INTER.ROT>
6

>  <SCORE.INTER.SOLV>
14.1925

>  <SCORE.INTER.VDW>
-18.5345

>  <SCORE.INTER.norm>
-0.602844

>  <SCORE.INTRA>
-0.772966

>  <SCORE.INTRA.DIHEDRAL>
-5.16626

>  <SCORE.INTRA.DIHEDRAL.0>
10.8409

>  <SCORE.INTRA.POLAR>
0

>  <SCORE.INTRA.POLAR.0>
0

>  <SCORE.INTRA.REPUL>
0

>  <SCORE.INTRA.REPUL.0>
0

>  <SCORE.INTRA.SOLV>
-0.300868

>  <SCORE.INTRA.SOLV.lig_0>
-80.8302

>  <SCORE.INTRA.VDW>
1.9606

>  <SCORE.INTRA.VDW.0>
-4.23953

>  <SCORE.INTRA.norm>
-0.0249344

>  <SCORE.RESTR>
0

>  <SCORE.RESTR.CAVITY>
0

>  <SCORE.RESTR.norm>
0

>  <SCORE.SYSTEM>
0

>  <SCORE.SYSTEM.CONST>
0

>  <SCORE.SYSTEM.DIHEDRAL>
0

>  <SCORE.SYSTEM.SOLV>
0

>  <SCORE.SYSTEM.norm>
0

>  <SCORE.heavy>
31

>  <SCORE.norm>
-0.627779

>  <RMSD>
6.615

$$$$
2fcz_lig
 OpenBabel11021811433D
libRbt.so/2013.1/901 2013/11/27
 31 33  0  0  0  0  0  0  0  0999 V2000
    7.2538   20.7646   32.2871 C   0  0  0  0  0  0  0  0  0  0  0  0
    9.0102   17.1926   38.7898 N   0  0  0  0  0  0  0  0  0  0  0  0
    7.3487   22.1902   32.2243 O   0  0  0  0  0  0  0  0  0  0  0  0
    8.5774   20.1399   31.8326 C   0  0  1  0  0  0  0  0  0  0  0  0
   13.6527   18.5974   38.1411 N   0  0  0  0  0  0  0  0  0  0  0  0
    9.6751   20.5440   32.6760 O   0  0  0  0  0  0  0  0  0  0  0  0
   10.0949   19.4300   33.4888 C   0  0  1  0  0  0  0  0  0  0  0  0
   14.8637   23.6076   36.8020 N   0  0  0  0  0  0  0  0  0  0  0  0
   10.3058   19.7960   34.8632 O   0  0  0  0  0  0  0  0  0  0  0  0
   10.7020   18.7047   35.7111 C   0  0  2  0  0  0  0  0  0  0  0  0
   14.5368   18.9109   33.0109 N   0  0  0  0  0  0  0  0  0  0  0  0
    8.4166   18.0466   36.1560 O   0  0  0  0  0  0  0  0  0  0  0  0
    9.6261   18.4825   36.7814 C   0  0  1  0  0  0  0  0  0  0  0  0
   13.1281   18.9878   35.3989 O   0  0  0  0  0  0  0  0  0  0  0  0
   10.0676   17.4254   37.7963 C   0  0  1  0  0  0  0  0  0  0  0  0
   13.4865   21.3059   35.6650 O   0  0  0  0  0  0  0  0  0  0  0  0
   11.3456   17.8787   38.5055 C   0  0  0  0  0  0  0  0  0  0  0  0
   17.0199   20.9663   36.6484 O   0  0  0  0  0  0  0  0  0  0  0  0
   12.4559   18.0661   37.4697 C   0  0  1  0  0  0  0  0  0  0  0  0
   17.0336   19.9332   33.9678 O   0  0  0  0  0  0  0  0  0  0  0  0
   12.0514   19.0296   36.3486 C   0  0  2  0  0  0  0  0  0  0  0  0
    9.3295   17.0862   33.6771 O   0  0  0  0  0  0  0  0  0  0  0  0
   13.3511   20.2306   34.7171 C   0  0  1  0  0  0  0  0  0  0  0  0
    9.4617   17.9989   31.0505 O   0  0  0  0  0  0  0  0  0  0  0  0
   14.5989   21.1696   36.5662 C   0  0  2  0  0  0  0  0  0  0  0  0
   14.5984   22.3585   37.5304 C   0  0  0  0  0  0  0  0  0  0  0  0
   15.9059   21.1339   35.7663 C   0  0  2  0  0  0  0  0  0  0  0  0
   15.8563   19.9639   34.7813 C   0  0  1  0  0  0  0  0  0  0  0  0
   14.6265   20.0927   33.8796 C   0  0  1  0  0  0  0  0  0  0  0  0
    8.9395   18.4327   33.3902 C   0  0  2  0  0  0  0  0  0  0  0  0
    8.5202   18.6157   31.9328 C   0  0  1  0  0  0  0  0  0  0  0  0
  3  1  1  0  0  0  0
  4  1  1  1  0  0  0
  4  6  1  0  0  0  0
  4 31  1  0  0  0  0
  6  7  1  0  0  0  0
  7  9  1  1  0  0  0
  7 30  1  0  0  0  0
 10  9  1  6  0  0  0
 10 13  1  0  0  0  0
 10 21  1  0  0  0  0
 13 12  1  6  0  0  0
 13 15  1  0  0  0  0
 15  2  1  1  0  0  0
 15 17  1  0  0  0  0
 16 25  1  0  0  0  0
 17 19  1  0  0  0  0
 19  5  1  1  0  0  0
 19 21  1  0  0  0  0
 21 14  1  6  0  0  0
 23 14  1  1  0  0  0
 23 16  1  0  0  0  0
 23 29  1  0  0  0  0
 25 26  1  1  0  0  0
 25 27  1  0  0  0  0
 26  8  1  0  0  0  0
 27 18  1  1  0  0  0
 27 28  1  0  0  0  0
 28 20  1  6  0  0  0
 28 29  1  0  0  0  0
 29 11  1  1  0  0  0
 30 22  1  6  0  0  0
 30 31  1  0  0  0  0
 31 24  1  6  0  0  0
M  END
>  <CHROM.1>
60.70006797,178.90794565,-117.10641171,87.90569739,51.96202405,-65.87424983
11.78815359,19.59533462,35.05522928,-2.87922046,0.35230196,1.97322379

>  <Name>
2fcz_lig

>  <RI>
0

>  <Rbt.Current_Directory>
/home/itssahil/PROJECTS/Mol_Feturizer/New_Systems/rnas/2fcz

>  <Rbt.Executable>
rbdock ($Id: //depot/dev/client3/rdock/2013.1/src/exe/rbdock.cxx#4 $)

>  <Rbt.Library>
libRbt.so (2013.1, Build901 2013/11/27)

>  <Rbt.Parameter_File>
/export/apps/rDock/src/rDock_2013.1_src/data/scripts/dock_solv.prm

>  <Rbt.Receptor>
prm/pocket_docking_5.prm

>  <SCORE>
-5.91464

>  <SCORE.INTER>
-7.08727

>  <SCORE.INTER.CONST>
1

>  <SCORE.INTER.POLAR>
-0.818464

>  <SCORE.INTER.ROT>
6

>  <SCORE.INTER.SOLV>
12.6365

>  <SCORE.INTER.VDW>
-13.8088

>  <SCORE.INTER.norm>
-0.228621

>  <SCORE.INTRA>
1.14633

>  <SCORE.INTRA.DIHEDRAL>
0.0465417

>  <SCORE.INTRA.DIHEDRAL.0>
10.8409

>  <SCORE.INTRA.POLAR>
0

>  <SCORE.INTRA.POLAR.0>
0

>  <SCORE.INTRA.REPUL>
0

>  <SCORE.INTRA.REPUL.0>
0

>  <SCORE.INTRA.SOLV>
-0.115292

>  <SCORE.INTRA.SOLV.lig_0>
-80.8302

>  <SCORE.INTRA.VDW>
1.1807

>  <SCORE.INTRA.VDW.0>
-4.23953

>  <SCORE.INTRA.norm>
0.0369783

>  <SCORE.RESTR>
0.026296

>  <SCORE.RESTR.CAVITY>
0.026296

>  <SCORE.RESTR.norm>
0.000848258

>  <SCORE.SYSTEM>
0

>  <SCORE.SYSTEM.CONST>
0

>  <SCORE.SYSTEM.DIHEDRAL>
0

>  <SCORE.SYSTEM.SOLV>
0

>  <SCORE.SYSTEM.norm>
0

>  <SCORE.heavy>
31

>  <SCORE.norm>
-0.190795

>  <RMSD>
6.616

$$$$
2fcz_lig
 OpenBabel11021811433D
libRbt.so/2013.1/901 2013/11/27
 31 33  0  0  0  0  0  0  0  0999 V2000
   17.3484   17.9000   35.7747 C   0  0  0  0  0  0  0  0  0  0  0  0
   16.7708   25.2019   38.4384 N   0  0  0  0  0  0  0  0  0  0  0  0
   17.4107   18.3871   34.4314 O   0  0  0  0  0  0  0  0  0  0  0  0
   16.5410   18.8747   36.6388 C   0  0  1  0  0  0  0  0  0  0  0  0
   13.7646   25.5769   34.5953 N   0  0  0  0  0  0  0  0  0  0  0  0
   17.0724   20.2135   36.5708 O   0  0  0  0  0  0  0  0  0  0  0  0
   16.1775   21.0503   35.8115 C   0  0  1  0  0  0  0  0  0  0  0  0
   11.3646   22.0851   32.7363 N   0  0  0  0  0  0  0  0  0  0  0  0
   16.8674   21.8773   34.8589 O   0  0  0  0  0  0  0  0  0  0  0  0
   16.7805   23.2869   35.1279 C   0  0  2  0  0  0  0  0  0  0  0  0
   17.5211   23.3837   31.3427 N   0  0  0  0  0  0  0  0  0  0  0  0
   18.1663   23.1299   37.1049 O   0  0  0  0  0  0  0  0  0  0  0  0
   16.8704   23.5172   36.6416 C   0  0  1  0  0  0  0  0  0  0  0  0
   15.4567   23.8610   33.1325 O   0  0  0  0  0  0  0  0  0  0  0  0
   16.6393   24.9893   36.9904 C   0  0  1  0  0  0  0  0  0  0  0  0
   14.1926   22.0340   32.3344 O   0  0  0  0  0  0  0  0  0  0  0  0
   15.2456   25.4255   36.5334 C   0  0  0  0  0  0  0  0  0  0  0  0
   13.1621   23.7034   29.2169 O   0  0  0  0  0  0  0  0  0  0  0  0
   15.1364   25.2519   35.0172 C   0  0  1  0  0  0  0  0  0  0  0  0
   16.0154   23.5600   28.9145 O   0  0  0  0  0  0  0  0  0  0  0  0
   15.4647   23.8238   34.5683 C   0  0  2  0  0  0  0  0  0  0  0  0
   14.0164   20.6347   34.6838 O   0  0  0  0  0  0  0  0  0  0  0  0
   15.5179   22.5663   32.5166 C   0  0  1  0  0  0  0  0  0  0  0  0
   14.2169   19.4107   37.1760 O   0  0  0  0  0  0  0  0  0  0  0  0
   13.3488   22.8176   31.4730 C   0  0  2  0  0  0  0  0  0  0  0  0
   11.9713   22.1542   31.3990 C   0  0  0  0  0  0  0  0  0  0  0  0
   13.9756   22.8994   30.0766 C   0  0  2  0  0  0  0  0  0  0  0  0
   15.3678   23.5241   30.1904 C   0  0  1  0  0  0  0  0  0  0  0  0
   16.2250   22.7141   31.1656 C   0  0  1  0  0  0  0  0  0  0  0  0
   15.2679   20.0637   35.0775 C   0  0  2  0  0  0  0  0  0  0  0  0
   15.1003   18.9774   36.1383 C   0  0  1  0  0  0  0  0  0  0  0  0
  3  1  1  0  0  0  0
  4  1  1  6  0  0  0
  4  6  1  0  0  0  0
  4 31  1  0  0  0  0
  6  7  1  0  0  0  0
  7  9  1  6  0  0  0
  7 30  1  0  0  0  0
 10  9  1  1  0  0  0
 10 13  1  0  0  0  0
 10 21  1  0  0  0  0
 13 12  1  6  0  0  0
 13 15  1  0  0  0  0
 15  2  1  1  0  0  0
 15 17  1  0  0  0  0
 16 25  1  0  0  0  0
 17 19  1  0  0  0  0
 19  5  1  1  0  0  0
 19 21  1  0  0  0  0
 21 14  1  6  0  0  0
 23 14  1  6  0  0  0
 23 16  1  0  0  0  0
 23 29  1  0  0  0  0
 25 26  1  6  0  0  0
 25 27  1  0  0  0  0
 26  8  1  0  0  0  0
 27 18  1  6  0  0  0
 27 28  1  0  0  0  0
 28 20  1  6  0  0  0
 28 29  1  0  0  0  0
 29 11  1  1  0  0  0
 30 22  1  1  0  0  0
 30 31  1  0  0  0  0
 31 24  1  1  0  0  0
M  END
>  <CHROM.1>
-55.10004329,-114.57608137,38.45377757,65.48573960,88.71282679,60.30347449
15.45541089,22.31784567,34.07489205,0.34507828,1.19628516,3.12784196

>  <Name>
2fcz_lig

>  <RI>
0

>  <Rbt.Current_Directory>
/home/itssahil/PROJECTS/Mol_Feturizer/New_Systems/rnas/2fcz

>  <Rbt.Executable>
rbdock ($Id: //depot/dev/client3/rdock/2013.1/src/exe/rbdock.cxx#4 $)

>  <Rbt.Library>
libRbt.so (2013.1, Build901 2013/11/27)

>  <Rbt.Parameter_File>
/export/apps/rDock/src/rDock_2013.1_src/data/scripts/dock_solv.prm

>  <Rbt.Receptor>
prm/blind_docking_80.prm

>  <SCORE>
-16.2375

>  <SCORE.INTER>
-19.7314

>  <SCORE.INTER.CONST>
1

>  <SCORE.INTER.POLAR>
-2.35212

>  <SCORE.INTER.ROT>
6

>  <SCORE.INTER.SOLV>
18.7406

>  <SCORE.INTER.VDW>
-19.1608

>  <SCORE.INTER.norm>
-0.636498

>  <SCORE.INTRA>
3.00781

>  <SCORE.INTRA.DIHEDRAL>
1.89921

>  <SCORE.INTRA.DIHEDRAL.0>
10.8409

>  <SCORE.INTRA.POLAR>
0

>  <SCORE.INTRA.POLAR.0>
0

>  <SCORE.INTRA.REPUL>
0

>  <SCORE.INTRA.REPUL.0>
0

>  <SCORE.INTRA.SOLV>
-1.47272

>  <SCORE.INTRA.SOLV.lig_0>
-80.8302

>  <SCORE.INTRA.VDW>
2.79456

>  <SCORE.INTRA.VDW.0>
-4.23953

>  <SCORE.INTRA.norm>
0.0970261

>  <SCORE.RESTR>
0.486119

>  <SCORE.RESTR.CAVITY>
0.486119

>  <SCORE.RESTR.norm>
0.0156813

>  <SCORE.SYSTEM>
0

>  <SCORE.SYSTEM.CONST>
0

>  <SCORE.SYSTEM.DIHEDRAL>
0

>  <SCORE.SYSTEM.SOLV>
0

>  <SCORE.SYSTEM.norm>
0

>  <SCORE.heavy>
31

>  <SCORE.norm>
-0.523791

>  <RMSD>
6.625

$$$$
2fcz_lig
 OpenBabel11021811433D
libRbt.so/2013.1/901 2013/11/27
 31 33  0  0  0  0  0  0  0  0999 V2000
    8.6236   18.2381   31.6356 C   0  0  0  0  0  0  0  0  0  0  0  0
   14.3542   18.9915   37.3724 N   0  0  0  0  0  0  0  0  0  0  0  0
    9.9426   17.8549   32.0340 O   0  0  0  0  0  0  0  0  0  0  0  0
    7.9784   19.0851   32.7378 C   0  0  1  0  0  0  0  0  0  0  0  0
   10.6591   17.6468   40.2853 N   0  0  0  0  0  0  0  0  0  0  0  0
    8.0525   18.4343   34.0226 O   0  0  0  0  0  0  0  0  0  0  0  0
    9.0086   19.1188   34.8563 C   0  0  1  0  0  0  0  0  0  0  0  0
    9.3886   14.0659   38.0676 N   0  0  0  0  0  0  0  0  0  0  0  0
    9.8895   18.2151   35.5452 O   0  0  0  0  0  0  0  0  0  0  0  0
   10.6045   18.8084   36.6424 C   0  0  2  0  0  0  0  0  0  0  0  0
    6.3496   19.7425   38.2188 N   0  0  0  0  0  0  0  0  0  0  0  0
   12.5064   19.3868   35.2633 O   0  0  0  0  0  0  0  0  0  0  0  0
   12.1112   18.6356   36.4137 C   0  0  1  0  0  0  0  0  0  0  0  0
    8.8279   18.5011   38.3196 O   0  0  0  0  0  0  0  0  0  0  0  0
   12.9123   19.1236   37.6230 C   0  0  1  0  0  0  0  0  0  0  0  0
    7.9668   16.4658   37.4896 O   0  0  0  0  0  0  0  0  0  0  0  0
   12.5327   18.3158   38.8660 C   0  0  0  0  0  0  0  0  0  0  0  0
    6.2965   15.5257   40.6351 O   0  0  0  0  0  0  0  0  0  0  0  0
   11.0411   18.5027   39.1509 C   0  0  1  0  0  0  0  0  0  0  0  0
    4.9097   17.9341   39.9072 O   0  0  0  0  0  0  0  0  0  0  0  0
   10.1670   18.1415   37.9450 C   0  0  2  0  0  0  0  0  0  0  0  0
   10.4485   21.0990   34.5089 O   0  0  0  0  0  0  0  0  0  0  0  0
    7.8135   17.8973   37.5037 C   0  0  1  0  0  0  0  0  0  0  0  0
    7.8765   21.4092   33.4899 O   0  0  0  0  0  0  0  0  0  0  0  0
    7.8324   15.8392   38.7770 C   0  0  2  0  0  0  0  0  0  0  0  0
    8.0506   14.3328   38.6152 C   0  0  0  0  0  0  0  0  0  0  0  0
    6.4337   16.1168   39.3392 C   0  0  2  0  0  0  0  0  0  0  0  0
    6.2299   17.6296   39.4458 C   0  0  1  0  0  0  0  0  0  0  0  0
    6.4469   18.2829   38.0791 C   0  0  1  0  0  0  0  0  0  0  0  0
    9.8115   19.9818   33.8815 C   0  0  2  0  0  0  0  0  0  0  0  0
    8.7185   20.4122   32.9051 C   0  0  1  0  0  0  0  0  0  0  0  0
  3  1  1  0  0  0  0
  4  1  1  6  0  0  0
  4  6  1  0  0  0  0
  4 31  1  0  0  0  0
  6  7  1  0  0  0  0
  7  9  1  6  0  0  0
  7 30  1  0  0  0  0
 10  9  1  6  0  0  0
 10 13  1  0  0  0  0
 10 21  1  0  0  0  0
 13 12  1  6  0  0  0
 13 15  1  0  0  0  0
 15  2  1  6  0  0  0
 15 17  1  0  0  0  0
 16 25  1  0  0  0  0
 17 19  1  0  0  0  0
 19  5  1  1  0  0  0
 19 21  1  0  0  0  0
 21 14  1  1  0  0  0
 23 14  1  1  0  0  0
 23 16  1  0  0  0  0
 23 29  1  0  0  0  0
 25 26  1  6  0  0  0
 25 27  1  0  0  0  0
 26  8  1  0  0  0  0
 27 18  1  1  0  0  0
 27 28  1  0  0  0  0
 28 20  1  6  0  0  0
 28 29  1  0  0  0  0
 29 11  1  1  0  0  0
 30 22  1  1  0  0  0
 30 31  1  0  0  0  0
 31 24  1  1  0  0  0
M  END
>  <CHROM.1>
-51.83827515,-164.05484068,-122.78863554,72.60125696,54.94150784,59.47203841
9.13493580,18.19160490,36.73010072,1.16538509,-0.16729216,-1.15629565

>  <Name>
2fcz_lig

>  <RI>
1.32928e+07

>  <Rbt.Current_Directory>
/home/itssahil/PROJECTS/Mol_Feturizer/New_Systems/rnas/2fcz

>  <Rbt.Executable>
rbdock ($Id: //depot/dev/client3/rdock/2013.1/src/exe/rbdock.cxx#4 $)

>  <Rbt.Library>
libRbt.so (2013.1, Build901 2013/11/27)

>  <Rbt.Parameter_File>
/export/apps/rDock/src/rDock_2013.1_src/data/scripts/dock_solv.prm

>  <Rbt.Receptor>
prm/pocket_docking_7.prm

>  <SCORE>
-17.6274

>  <SCORE.INTER>
-16.7989

>  <SCORE.INTER.CONST>
1

>  <SCORE.INTER.POLAR>
-2.59029

>  <SCORE.INTER.ROT>
6

>  <SCORE.INTER.SOLV>
16.018

>  <SCORE.INTER.VDW>
-15.5043

>  <SCORE.INTER.norm>
-0.541901

>  <SCORE.INTRA>
-0.828502

>  <SCORE.INTRA.DIHEDRAL>
-1.26605

>  <SCORE.INTRA.DIHEDRAL.0>
10.8409

>  <SCORE.INTRA.POLAR>
0

>  <SCORE.INTRA.POLAR.0>
0

>  <SCORE.INTRA.REPUL>
0

>  <SCORE.INTRA.REPUL.0>
0

>  <SCORE.INTRA.SOLV>
-1.96688

>  <SCORE.INTRA.SOLV.lig_0>
-80.8302

>  <SCORE.INTRA.VDW>
0.78796

>  <SCORE.INTRA.VDW.0>
-4.23953

>  <SCORE.INTRA.norm>
-0.0267259

>  <SCORE.RESTR>
0

>  <SCORE.RESTR.CAVITY>
0

>  <SCORE.RESTR.norm>
0

>  <SCORE.SYSTEM>
0

>  <SCORE.SYSTEM.CONST>
0

>  <SCORE.SYSTEM.DIHEDRAL>
0

>  <SCORE.SYSTEM.SOLV>
0

>  <SCORE.SYSTEM.norm>
0

>  <SCORE.heavy>
31

>  <SCORE.norm>
-0.568627

>  <RMSD>
6.631

$$$$
2fcz_lig
 OpenBabel11021811433D
libRbt.so/2013.1/901 2013/11/27
 31 33  0  0  0  0  0  0  0  0999 V2000
    7.4171   19.6427   30.4994 C   0  0  0  0  0  0  0  0  0  0  0  0
   11.9242   22.9438   27.5017 N   0  0  0  0  0  0  0  0  0  0  0  0
    7.1125   20.7135   31.3972 O   0  0  0  0  0  0  0  0  0  0  0  0
    8.8613   19.1802   30.7208 C   0  0  1  0  0  0  0  0  0  0  0  0
   15.0965   21.9221   31.0850 N   0  0  0  0  0  0  0  0  0  0  0  0
    9.7987   20.2644   30.5611 O   0  0  0  0  0  0  0  0  0  0  0  0
   10.3311   20.6360   31.8480 C   0  0  1  0  0  0  0  0  0  0  0  0
   14.0932   18.2291   33.0295 N   0  0  0  0  0  0  0  0  0  0  0  0
   10.3592   22.0598   32.0453 O   0  0  0  0  0  0  0  0  0  0  0  0
   11.3667   22.7427   31.2800 C   0  0  2  0  0  0  0  0  0  0  0  0
   12.5647   24.1170   35.2488 N   0  0  0  0  0  0  0  0  0  0  0  0
    9.8640   23.1664   29.4317 O   0  0  0  0  0  0  0  0  0  0  0  0
   11.0943   22.5299   29.7857 C   0  0  1  0  0  0  0  0  0  0  0  0
   13.1357   22.6147   32.9882 O   0  0  0  0  0  0  0  0  0  0  0  0
   12.2196   23.1171   28.9306 C   0  0  1  0  0  0  0  0  0  0  0  0
   12.7098   20.5757   34.0990 O   0  0  0  0  0  0  0  0  0  0  0  0
   13.5466   22.4326   29.2658 C   0  0  0  0  0  0  0  0  0  0  0  0
   15.8411   20.6149   36.0384 O   0  0  0  0  0  0  0  0  0  0  0  0
   13.8730   22.6644   30.7425 C   0  0  1  0  0  0  0  0  0  0  0  0
   14.4902   22.9531   37.0188 O   0  0  0  0  0  0  0  0  0  0  0  0
   12.7422   22.2047   31.6692 C   0  0  2  0  0  0  0  0  0  0  0  0
    9.9620   19.7912   34.1426 O   0  0  0  0  0  0  0  0  0  0  0  0
   12.3948   21.9794   34.0402 C   0  0  1  0  0  0  0  0  0  0  0  0
   10.1597   17.7702   32.2384 O   0  0  0  0  0  0  0  0  0  0  0  0
   14.0889   20.2858   34.3859 C   0  0  2  0  0  0  0  0  0  0  0  0
   14.2821   18.7674   34.3844 C   0  0  0  0  0  0  0  0  0  0  0  0
   14.4619   20.8683   35.7537 C   0  0  2  0  0  0  0  0  0  0  0  0
   14.2148   22.3783   35.7372 C   0  0  1  0  0  0  0  0  0  0  0  0
   12.7593   22.6648   35.3610 C   0  0  1  0  0  0  0  0  0  0  0  0
    9.3746   19.9928   32.8534 C   0  0  2  0  0  0  0  0  0  0  0  0
    9.0557   18.6748   32.1503 C   0  0  1  0  0  0  0  0  0  0  0  0
  3  1  1  0  0  0  0
  4  1  1  1  0  0  0
  4  6  1  0  0  0  0
  4 31  1  0  0  0  0
  6  7  1  0  0  0  0
  7  9  1  6  0  0  0
  7 30  1  0  0  0  0
 10  9  1  1  0  0  0
 10 13  1  0  0  0  0
 10 21  1  0  0  0  0
 13 12  1  6  0  0  0
 13 15  1  0  0  0  0
 15  2  1  6  0  0  0
 15 17  1  0  0  0  0
 16 25  1  0  0  0  0
 17 19  1  0  0  0  0
 19  5  1  1  0  0  0
 19 21  1  0  0  0  0
 21 14  1  1  0  0  0
 23 14  1  6  0  0  0
 23 16  1  0  0  0  0
 23 29  1  0  0  0  0
 25 26  1  1  0  0  0
 25 27  1  0  0  0  0
 26  8  1  0  0  0  0
 27 18  1  6  0  0  0
 27 28  1  0  0  0  0
 28 20  1  1  0  0  0
 28 29  1  0  0  0  0
 29 11  1  6  0  0  0
 30 22  1  1  0  0  0
 30 31  1  0  0  0  0
 31 24  1  6  0  0  0
M  END
>  <CHROM.1>
-56.80365904,-72.55434068,61.60637421,70.92245949,67.90654669,67.14560205
11.88365318,21.22747808,32.48144700,2.53428185,-0.55719948,-1.03946469

>  <Name>
2fcz_lig

>  <RI>
2.6968e+07

>  <Rbt.Current_Directory>
/home/itssahil/PROJECTS/Mol_Feturizer/New_Systems/rnas/2fcz

>  <Rbt.Executable>
rbdock ($Id: //depot/dev/client3/rdock/2013.1/src/exe/rbdock.cxx#4 $)

>  <Rbt.Library>
libRbt.so (2013.1, Build901 2013/11/27)

>  <Rbt.Parameter_File>
/export/apps/rDock/src/rDock_2013.1_src/data/scripts/dock_solv.prm

>  <Rbt.Receptor>
prm/blind_docking_60.prm

>  <SCORE>
-14.1972

>  <SCORE.INTER>
-10.6377

>  <SCORE.INTER.CONST>
1

>  <SCORE.INTER.POLAR>
0

>  <SCORE.INTER.ROT>
6

>  <SCORE.INTER.SOLV>
18.0184

>  <SCORE.INTER.VDW>
-20.6979

>  <SCORE.INTER.norm>
-0.343152

>  <SCORE.INTRA>
-3.55947

>  <SCORE.INTRA.DIHEDRAL>
-8.84811

>  <SCORE.INTRA.DIHEDRAL.0>
10.8409

>  <SCORE.INTRA.POLAR>
0

>  <SCORE.INTRA.POLAR.0>
0

>  <SCORE.INTRA.REPUL>
0

>  <SCORE.INTRA.REPUL.0>
0

>  <SCORE.INTRA.SOLV>
-1.84458

>  <SCORE.INTRA.SOLV.lig_0>
-80.8302

>  <SCORE.INTRA.VDW>
1.78688

>  <SCORE.INTRA.VDW.0>
-4.23953

>  <SCORE.INTRA.norm>
-0.114821

>  <SCORE.RESTR>
0

>  <SCORE.RESTR.CAVITY>
0

>  <SCORE.RESTR.norm>
0

>  <SCORE.SYSTEM>
0

>  <SCORE.SYSTEM.CONST>
0

>  <SCORE.SYSTEM.DIHEDRAL>
0

>  <SCORE.SYSTEM.SOLV>
0

>  <SCORE.SYSTEM.norm>
0

>  <SCORE.heavy>
31

>  <SCORE.norm>
-0.457974

>  <RMSD>
6.635

$$$$
2fcz_lig
 OpenBabel11021811433D
libRbt.so/2013.1/901 2013/11/27
 31 33  0  0  0  0  0  0  0  0999 V2000
    9.5091   18.5874   30.9552 C   0  0  0  0  0  0  0  0  0  0  0  0
   13.7679   15.2630   34.2761 N   0  0  0  0  0  0  0  0  0  0  0  0
    8.2000   18.6387   30.3815 O   0  0  0  0  0  0  0  0  0  0  0  0
    9.4033   18.6241   32.4835 C   0  0  1  0  0  0  0  0  0  0  0  0
   13.6471   18.5413   37.9072 N   0  0  0  0  0  0  0  0  0  0  0  0
   10.6840   18.4129   33.1119 O   0  0  0  0  0  0  0  0  0  0  0  0
   11.1473   19.6488   33.6913 C   0  0  1  0  0  0  0  0  0  0  0  0
   14.4897   22.8546   31.4405 N   0  0  0  0  0  0  0  0  0  0  0  0
   12.5320   19.9094   33.4052 O   0  0  0  0  0  0  0  0  0  0  0  0
   13.4520   19.0714   34.1252 C   0  0  2  0  0  0  0  0  0  0  0  0
   15.2500   22.0592   37.8891 N   0  0  0  0  0  0  0  0  0  0  0  0
   13.4502   17.3672   32.4078 O   0  0  0  0  0  0  0  0  0  0  0  0
   13.1646   17.6029   33.7887 C   0  0  1  0  0  0  0  0  0  0  0  0
   13.8087   20.6181   36.0078 O   0  0  0  0  0  0  0  0  0  0  0  0
   14.0230   16.6638   34.6393 C   0  0  1  0  0  0  0  0  0  0  0  0
   15.5033   20.8356   34.3787 O   0  0  0  0  0  0  0  0  0  0  0  0
   13.7167   16.8716   36.1241 C   0  0  0  0  0  0  0  0  0  0  0  0
   14.7762   24.3702   33.6397 O   0  0  0  0  0  0  0  0  0  0  0  0
   14.0367   18.3182   36.5058 C   0  0  1  0  0  0  0  0  0  0  0  0
   15.5803   24.4789   36.3956 O   0  0  0  0  0  0  0  0  0  0  0  0
   13.3002   19.3313   35.6226 C   0  0  2  0  0  0  0  0  0  0  0  0
   10.1936   21.9272   33.8096 O   0  0  0  0  0  0  0  0  0  0  0  0
   15.2181   20.7760   35.7888 C   0  0  1  0  0  0  0  0  0  0  0  0
    8.3173   19.9186   34.2506 O   0  0  0  0  0  0  0  0  0  0  0  0
   14.8926   21.9425   33.6933 C   0  0  2  0  0  0  0  0  0  0  0  0
   15.2528   21.8596   32.2080 C   0  0  0  0  0  0  0  0  0  0  0  0
   15.4002   23.2595   34.2912 C   0  0  2  0  0  0  0  0  0  0  0  0
   15.0656   23.2916   35.7840 C   0  0  1  0  0  0  0  0  0  0  0  0
   15.6660   22.0679   36.4797 C   0  0  1  0  0  0  0  0  0  0  0  0
   10.2734   20.7227   33.0414 C   0  0  2  0  0  0  0  0  0  0  0  0
    8.9314   19.9973   32.9615 C   0  0  1  0  0  0  0  0  0  0  0  0
  3  1  1  0  0  0  0
  4  1  1  6  0  0  0
  4  6  1  0  0  0  0
  4 31  1  0  0  0  0
  6  7  1  0  0  0  0
  7  9  1  6  0  0  0
  7 30  1  0  0  0  0
 10  9  1  6  0  0  0
 10 13  1  0  0  0  0
 10 21  1  0  0  0  0
 13 12  1  6  0  0  0
 13 15  1  0  0  0  0
 15  2  1  6  0  0  0
 15 17  1  0  0  0  0
 16 25  1  0  0  0  0
 17 19  1  0  0  0  0
 19  5  1  1  0  0  0
 19 21  1  0  0  0  0
 21 14  1  6  0  0  0
 23 14  1  6  0  0  0
 23 16  1  0  0  0  0
 23 29  1  0  0  0  0
 25 26  1  6  0  0  0
 25 27  1  0  0  0  0
 26  8  1  0  0  0  0
 27 18  1  6  0  0  0
 27 28  1  0  0  0  0
 28 20  1  1  0  0  0
 28 29  1  0  0  0  0
 29 11  1  1  0  0  0
 30 22  1  1  0  0  0
 30 31  1  0  0  0  0
 31 24  1  1  0  0  0
M  END
>  <CHROM.1>
173.04916493,-72.64464800,58.85565540,-63.08488174,69.73308184,171.65485773
12.95304669,20.14810310,34.21247017,2.72366039,0.63662405,2.87130255

>  <Name>
2fcz_lig

>  <RI>
1.40544e+07

>  <Rbt.Current_Directory>
/home/itssahil/PROJECTS/Mol_Feturizer/New_Systems/rnas/2fcz

>  <Rbt.Executable>
rbdock ($Id: //depot/dev/client3/rdock/2013.1/src/exe/rbdock.cxx#4 $)

>  <Rbt.Library>
libRbt.so (2013.1, Build901 2013/11/27)

>  <Rbt.Parameter_File>
/export/apps/rDock/src/rDock_2013.1_src/data/scripts/dock_solv.prm

>  <Rbt.Receptor>
prm/blind_docking_100.prm

>  <SCORE>
-8.7005

>  <SCORE.INTER>
-7.41183

>  <SCORE.INTER.CONST>
1

>  <SCORE.INTER.POLAR>
-1.76526

>  <SCORE.INTER.ROT>
6

>  <SCORE.INTER.SOLV>
14.4935

>  <SCORE.INTER.VDW>
-11.4882

>  <SCORE.INTER.norm>
-0.239091

>  <SCORE.INTRA>
-1.29563

>  <SCORE.INTRA.DIHEDRAL>
-9.01355

>  <SCORE.INTRA.DIHEDRAL.0>
10.8409

>  <SCORE.INTRA.POLAR>
0

>  <SCORE.INTRA.POLAR.0>
0

>  <SCORE.INTRA.REPUL>
0

>  <SCORE.INTRA.REPUL.0>
0

>  <SCORE.INTRA.SOLV>
-1.41094

>  <SCORE.INTRA.SOLV.lig_0>
-80.8302

>  <SCORE.INTRA.VDW>
3.91661

>  <SCORE.INTRA.VDW.0>
-4.23953

>  <SCORE.INTRA.norm>
-0.0417946

>  <SCORE.RESTR>
0.00696581

>  <SCORE.RESTR.CAVITY>
0.00696581

>  <SCORE.RESTR.norm>
0.000224704

>  <SCORE.SYSTEM>
0

>  <SCORE.SYSTEM.CONST>
0

>  <SCORE.SYSTEM.DIHEDRAL>
0

>  <SCORE.SYSTEM.SOLV>
0

>  <SCORE.SYSTEM.norm>
0

>  <SCORE.heavy>
31

>  <SCORE.norm>
-0.280661

>  <RMSD>
6.640

$$$$
2fcz_lig
 OpenBabel11021811433D
libRbt.so/2013.1/901 2013/11/27
 31 33  0  0  0  0  0  0  0  0999 V2000
    7.8428   19.2103   33.7858 C   0  0  0  0  0  0  0  0  0  0  0  0
   12.9240   23.7878   28.3883 N   0  0  0  0  0  0  0  0  0  0  0  0
    8.4447   19.6688   34.9995 O   0  0  0  0  0  0  0  0  0  0  0  0
    7.7243   20.3757   32.7977 C   0  0  1  0  0  0  0  0  0  0  0  0
   15.5374   22.5761   32.3441 N   0  0  0  0  0  0  0  0  0  0  0  0
    8.9059   21.2025   32.8041 O   0  0  0  0  0  0  0  0  0  0  0  0
    9.6443   20.9990   31.5831 C   0  0  1  0  0  0  0  0  0  0  0  0
   13.6593   16.7990   33.6273 N   0  0  0  0  0  0  0  0  0  0  0  0
   11.0554   20.8415   31.8092 O   0  0  0  0  0  0  0  0  0  0  0  0
   11.8236   22.0398   31.6070 C   0  0  2  0  0  0  0  0  0  0  0  0
   12.3631   22.0448   36.3213 N   0  0  0  0  0  0  0  0  0  0  0  0
   10.6371   22.6169   29.5790 O   0  0  0  0  0  0  0  0  0  0  0  0
   11.9337   22.3196   30.1031 C   0  0  1  0  0  0  0  0  0  0  0  0
   13.1558   21.8572   33.6700 O   0  0  0  0  0  0  0  0  0  0  0  0
   12.8623   23.5049   29.8289 C   0  0  1  0  0  0  0  0  0  0  0  0
   12.8376   19.5185   33.6238 O   0  0  0  0  0  0  0  0  0  0  0  0
   14.2683   23.2033   30.3521 C   0  0  0  0  0  0  0  0  0  0  0  0
   15.8608   18.7517   35.5835 O   0  0  0  0  0  0  0  0  0  0  0  0
   14.2023   22.9637   31.8618 C   0  0  1  0  0  0  0  0  0  0  0  0
   14.2871   20.2558   37.4582 O   0  0  0  0  0  0  0  0  0  0  0  0
   13.2048   21.8616   32.2346 C   0  0  2  0  0  0  0  0  0  0  0  0
    9.2668   19.5844   29.5902 O   0  0  0  0  0  0  0  0  0  0  0  0
   12.4175   20.7582   34.2236 C   0  0  1  0  0  0  0  0  0  0  0  0
    6.9544   20.8238   30.5209 O   0  0  0  0  0  0  0  0  0  0  0  0
   14.2199   19.1882   33.8438 C   0  0  2  0  0  0  0  0  0  0  0  0
   14.5305   17.8721   33.1266 C   0  0  0  0  0  0  0  0  0  0  0  0
   14.4812   19.0491   35.3477 C   0  0  2  0  0  0  0  0  0  0  0  0
   14.1184   20.3641   36.0410 C   0  0  1  0  0  0  0  0  0  0  0  0
   12.6646   20.7313   35.7353 C   0  0  1  0  0  0  0  0  0  0  0  0
    9.0659   19.7079   31.0015 C   0  0  2  0  0  0  0  0  0  0  0  0
    7.5901   19.8602   31.3649 C   0  0  1  0  0  0  0  0  0  0  0  0
  3  1  1  0  0  0  0
  4  1  1  1  0  0  0
  4  6  1  0  0  0  0
  4 31  1  0  0  0  0
  6  7  1  0  0  0  0
  7  9  1  1  0  0  0
  7 30  1  0  0  0  0
 10  9  1  6  0  0  0
 10 13  1  0  0  0  0
 10 21  1  0  0  0  0
 13 12  1  1  0  0  0
 13 15  1  0  0  0  0
 15  2  1  6  0  0  0
 15 17  1  0  0  0  0
 16 25  1  0  0  0  0
 17 19  1  0  0  0  0
 19  5  1  6  0  0  0
 19 21  1  0  0  0  0
 21 14  1  1  0  0  0
 23 14  1  6  0  0  0
 23 16  1  0  0  0  0
 23 29  1  0  0  0  0
 25 26  1  6  0  0  0
 25 27  1  0  0  0  0
 26  8  1  0  0  0  0
 27 18  1  6  0  0  0
 27 28  1  0  0  0  0
 28 20  1  1  0  0  0
 28 29  1  0  0  0  0
 29 11  1  6  0  0  0
 30 22  1  6  0  0  0
 30 31  1  0  0  0  0
 31 24  1  6  0  0  0
M  END
>  <CHROM.1>
41.38852745,-97.99060670,-73.90346096,63.93513026,48.74885458,-58.69221807
11.85389994,20.76651118,32.75878560,2.48773973,-0.24426860,-1.00048178

>  <Name>
2fcz_lig

>  <RI>
2.6968e+07

>  <Rbt.Current_Directory>
/home/itssahil/PROJECTS/Mol_Feturizer/New_Systems/rnas/2fcz

>  <Rbt.Executable>
rbdock ($Id: //depot/dev/client3/rdock/2013.1/src/exe/rbdock.cxx#4 $)

>  <Rbt.Library>
libRbt.so (2013.1, Build901 2013/11/27)

>  <Rbt.Parameter_File>
/export/apps/rDock/src/rDock_2013.1_src/data/scripts/dock_solv.prm

>  <Rbt.Receptor>
prm/blind_docking_60.prm

>  <SCORE>
-6.7158

>  <SCORE.INTER>
-6.44049

>  <SCORE.INTER.CONST>
1

>  <SCORE.INTER.POLAR>
-0.826612

>  <SCORE.INTER.ROT>
6

>  <SCORE.INTER.SOLV>
16.3655

>  <SCORE.INTER.VDW>
-14.5935

>  <SCORE.INTER.norm>
-0.207758

>  <SCORE.INTRA>
-0.688371

>  <SCORE.INTRA.DIHEDRAL>
-2.97021

>  <SCORE.INTRA.DIHEDRAL.0>
10.8409

>  <SCORE.INTRA.POLAR>
0

>  <SCORE.INTRA.POLAR.0>
0

>  <SCORE.INTRA.REPUL>
0

>  <SCORE.INTRA.REPUL.0>
0

>  <SCORE.INTRA.SOLV>
-2.21406

>  <SCORE.INTRA.SOLV.lig_0>
-80.8302

>  <SCORE.INTRA.VDW>
1.90376

>  <SCORE.INTRA.VDW.0>
-4.23953

>  <SCORE.INTRA.norm>
-0.0222055

>  <SCORE.RESTR>
0.413063

>  <SCORE.RESTR.CAVITY>
0.413063

>  <SCORE.RESTR.norm>
0.0133246

>  <SCORE.SYSTEM>
0

>  <SCORE.SYSTEM.CONST>
0

>  <SCORE.SYSTEM.DIHEDRAL>
0

>  <SCORE.SYSTEM.SOLV>
0

>  <SCORE.SYSTEM.norm>
0

>  <SCORE.heavy>
31

>  <SCORE.norm>
-0.216639

>  <RMSD>
6.650

$$$$
2fcz_lig
 OpenBabel11021811433D
libRbt.so/2013.1/901 2013/11/27
 31 33  0  0  0  0  0  0  0  0999 V2000
   16.4053   24.0890   37.0196 C   0  0  0  0  0  0  0  0  0  0  0  0
   12.7822   16.7186   37.9275 N   0  0  0  0  0  0  0  0  0  0  0  0
   17.7139   24.5557   36.6802 O   0  0  0  0  0  0  0  0  0  0  0  0
   16.4861   22.6376   37.5048 C   0  0  1  0  0  0  0  0  0  0  0  0
   13.0959   17.8705   33.1817 N   0  0  0  0  0  0  0  0  0  0  0  0
   15.1902   22.1277   37.8795 O   0  0  0  0  0  0  0  0  0  0  0  0
   14.7472   21.1679   36.8997 C   0  0  1  0  0  0  0  0  0  0  0  0
   16.6141   20.8589   32.2269 N   0  0  0  0  0  0  0  0  0  0  0  0
   13.3742   21.3596   36.5183 O   0  0  0  0  0  0  0  0  0  0  0  0
   12.6663   20.1426   36.2275 C   0  0  2  0  0  0  0  0  0  0  0  0
   10.5252   22.5368   33.5669 N   0  0  0  0  0  0  0  0  0  0  0  0
   12.5922   19.4742   38.5516 O   0  0  0  0  0  0  0  0  0  0  0  0
   13.0544   19.0756   37.2587 C   0  0  1  0  0  0  0  0  0  0  0  0
   12.4329   20.5379   33.8082 O   0  0  0  0  0  0  0  0  0  0  0  0
   12.4372   17.7196   36.9086 C   0  0  1  0  0  0  0  0  0  0  0  0
   14.2057   22.0153   33.3110 O   0  0  0  0  0  0  0  0  0  0  0  0
   12.9382   17.2513   35.5406 C   0  0  0  0  0  0  0  0  0  0  0  0
   13.4609   22.1980   29.7082 O   0  0  0  0  0  0  0  0  0  0  0  0
   12.5272   18.2726   34.4780 C   0  0  1  0  0  0  0  0  0  0  0  0
   11.0934   23.3313   30.8761 O   0  0  0  0  0  0  0  0  0  0  0  0
   13.0118   19.6879   34.8108 C   0  0  2  0  0  0  0  0  0  0  0  0
   15.7536   20.2781   34.8235 O   0  0  0  0  0  0  0  0  0  0  0  0
   12.8834   21.8991   33.8686 C   0  0  1  0  0  0  0  0  0  0  0  0
   17.5730   20.5284   36.9155 O   0  0  0  0  0  0  0  0  0  0  0  0
   14.3014   21.6517   31.9229 C   0  0  2  0  0  0  0  0  0  0  0  0
   15.7593   21.7914   31.4779 C   0  0  0  0  0  0  0  0  0  0  0  0
   13.4003   22.5692   31.0888 C   0  0  2  0  0  0  0  0  0  0  0  0
   11.9593   22.4409   31.5874 C   0  0  1  0  0  0  0  0  0  0  0  0
   11.8935   22.7641   33.0818 C   0  0  1  0  0  0  0  0  0  0  0  0
   15.6577   21.4092   35.6946 C   0  0  2  0  0  0  0  0  0  0  0  0
   16.9829   21.7194   36.3882 C   0  0  1  0  0  0  0  0  0  0  0  0
  3  1  1  0  0  0  0
  4  1  1  6  0  0  0
  4  6  1  0  0  0  0
  4 31  1  0  0  0  0
  6  7  1  0  0  0  0
  7  9  1  6  0  0  0
  7 30  1  0  0  0  0
 10  9  1  1  0  0  0
 10 13  1  0  0  0  0
 10 21  1  0  0  0  0
 13 12  1  1  0  0  0
 13 15  1  0  0  0  0
 15  2  1  1  0  0  0
 15 17  1  0  0  0  0
 16 25  1  0  0  0  0
 17 19  1  0  0  0  0
 19  5  1  6  0  0  0
 19 21  1  0  0  0  0
 21 14  1  6  0  0  0
 23 14  1  6  0  0  0
 23 16  1  0  0  0  0
 23 29  1  0  0  0  0
 25 26  1  6  0  0  0
 25 27  1  0  0  0  0
 26  8  1  0  0  0  0
 27 18  1  6  0  0  0
 27 28  1  0  0  0  0
 28 20  1  6  0  0  0
 28 29  1  0  0  0  0
 29 11  1  1  0  0  0
 30 22  1  6  0  0  0
 30 31  1  0  0  0  0
 31 24  1  1  0  0  0
M  END
>  <CHROM.1>
179.10925772,-145.61235721,41.22487089,61.41979410,76.95795716,62.92004411
14.00914197,21.02069817,34.76974447,-1.16464032,-0.70401485,-0.98766075

>  <Name>
2fcz_lig

>  <RI>
1.32928e+07

>  <Rbt.Current_Directory>
/home/itssahil/PROJECTS/Mol_Feturizer/New_Systems/rnas/2fcz

>  <Rbt.Executable>
rbdock ($Id: //depot/dev/client3/rdock/2013.1/src/exe/rbdock.cxx#4 $)

>  <Rbt.Library>
libRbt.so (2013.1, Build901 2013/11/27)

>  <Rbt.Parameter_File>
/export/apps/rDock/src/rDock_2013.1_src/data/scripts/dock_solv.prm

>  <Rbt.Receptor>
prm/pocket_docking_7.prm

>  <SCORE>
-10.7461

>  <SCORE.INTER>
-11.3566

>  <SCORE.INTER.CONST>
1

>  <SCORE.INTER.POLAR>
-1.11693

>  <SCORE.INTER.ROT>
6

>  <SCORE.INTER.SOLV>
15.6319

>  <SCORE.INTER.VDW>
-16.6586

>  <SCORE.INTER.norm>
-0.366342

>  <SCORE.INTRA>
0.610552

>  <SCORE.INTRA.DIHEDRAL>
-3.36748

>  <SCORE.INTRA.DIHEDRAL.0>
10.8409

>  <SCORE.INTRA.POLAR>
0

>  <SCORE.INTRA.POLAR.0>
0

>  <SCORE.INTRA.REPUL>
0

>  <SCORE.INTRA.REPUL.0>
0

>  <SCORE.INTRA.SOLV>
-0.419998

>  <SCORE.INTRA.SOLV.lig_0>
-80.8302

>  <SCORE.INTRA.VDW>
2.50429

>  <SCORE.INTRA.VDW.0>
-4.23953

>  <SCORE.INTRA.norm>
0.0196952

>  <SCORE.RESTR>
0

>  <SCORE.RESTR.CAVITY>
0

>  <SCORE.RESTR.norm>
0

>  <SCORE.SYSTEM>
0

>  <SCORE.SYSTEM.CONST>
0

>  <SCORE.SYSTEM.DIHEDRAL>
0

>  <SCORE.SYSTEM.SOLV>
0

>  <SCORE.SYSTEM.norm>
0

>  <SCORE.heavy>
31

>  <SCORE.norm>
-0.346647

>  <RMSD>
6.651

$$$$
2fcz_lig
 OpenBabel11021811433D
libRbt.so/2013.1/901 2013/11/27
 31 33  0  0  0  0  0  0  0  0999 V2000
    7.0266   12.2594   38.8397 C   0  0  0  0  0  0  0  0  0  0  0  0
    4.9749   16.8978   41.8405 N   0  0  0  0  0  0  0  0  0  0  0  0
    5.9350   12.2915   39.7631 O   0  0  0  0  0  0  0  0  0  0  0  0
    6.9094   13.4343   37.8628 C   0  0  1  0  0  0  0  0  0  0  0  0
    6.6959   19.9633   38.4363 N   0  0  0  0  0  0  0  0  0  0  0  0
    7.0560   14.7023   38.5339 O   0  0  0  0  0  0  0  0  0  0  0  0
    8.3254   15.2894   38.1850 C   0  0  1  0  0  0  0  0  0  0  0  0
    9.3226   17.6866   33.6304 N   0  0  0  0  0  0  0  0  0  0  0  0
    9.0228   15.8186   39.3255 O   0  0  0  0  0  0  0  0  0  0  0  0
    8.3286   16.8802   40.0023 C   0  0  2  0  0  0  0  0  0  0  0  0
   11.9477   19.1024   38.8808 N   0  0  0  0  0  0  0  0  0  0  0  0
    7.3588   15.3831   41.6369 O   0  0  0  0  0  0  0  0  0  0  0  0
    7.0351   16.3270   40.6130 C   0  0  1  0  0  0  0  0  0  0  0  0
    9.2149   18.7102   38.6132 O   0  0  0  0  0  0  0  0  0  0  0  0
    6.1892   17.4477   41.2221 C   0  0  1  0  0  0  0  0  0  0  0  0
    9.4507   17.7386   36.4747 O   0  0  0  0  0  0  0  0  0  0  0  0
    5.8005   18.4595   40.1419 C   0  0  0  0  0  0  0  0  0  0  0  0
   10.1334   20.9243   34.7562 O   0  0  0  0  0  0  0  0  0  0  0  0
    7.0700   19.0666   39.5415 C   0  0  1  0  0  0  0  0  0  0  0  0
   12.3670   20.7113   36.5505 O   0  0  0  0  0  0  0  0  0  0  0  0
    8.0306   17.9991   39.0061 C   0  0  2  0  0  0  0  0  0  0  0  0
   10.1809   14.5666   36.7189 O   0  0  0  0  0  0  0  0  0  0  0  0
   10.0827   17.9624   37.7489 C   0  0  1  0  0  0  0  0  0  0  0  0
    7.6628   14.0912   35.6316 O   0  0  0  0  0  0  0  0  0  0  0  0
    9.1399   18.9380   35.7447 C   0  0  2  0  0  0  0  0  0  0  0  0
    8.4473   18.5507   34.4357 C   0  0  0  0  0  0  0  0  0  0  0  0
   10.4310   19.7115   35.4548 C   0  0  2  0  0  0  0  0  0  0  0  0
   11.1218   20.0436   36.7792 C   0  0  1  0  0  0  0  0  0  0  0  0
   11.3791   18.7589   37.5700 C   0  0  1  0  0  0  0  0  0  0  0  0
    9.1239   14.1334   37.5805 C   0  0  2  0  0  0  0  0  0  0  0  0
    8.0278   13.3875   36.8218 C   0  0  1  0  0  0  0  0  0  0  0  0
  3  1  1  0  0  0  0
  4  1  1  1  0  0  0
  4  6  1  0  0  0  0
  4 31  1  0  0  0  0
  6  7  1  0  0  0  0
  7  9  1  1  0  0  0
  7 30  1  0  0  0  0
 10  9  1  6  0  0  0
 10 13  1  0  0  0  0
 10 21  1  0  0  0  0
 13 12  1  1  0  0  0
 13 15  1  0  0  0  0
 15  2  1  6  0  0  0
 15 17  1  0  0  0  0
 16 25  1  0  0  0  0
 17 19  1  0  0  0  0
 19  5  1  6  0  0  0
 19 21  1  0  0  0  0
 21 14  1  1  0  0  0
 23 14  1  1  0  0  0
 23 16  1  0  0  0  0
 23 29  1  0  0  0  0
 25 26  1  6  0  0  0
 25 27  1  0  0  0  0
 26  8  1  0  0  0  0
 27 18  1  1  0  0  0
 27 28  1  0  0  0  0
 28 20  1  6  0  0  0
 28 29  1  0  0  0  0
 29 11  1  1  0  0  0
 30 22  1  6  0  0  0
 30 31  1  0  0  0  0
 31 24  1  6  0  0  0
M  END
>  <CHROM.1>
65.21713951,-61.87898245,65.22304058,72.01510478,66.75443751,-59.37143765
8.51949443,16.98144765,37.99704565,-2.70448895,0.97344651,0.46454892

>  <Name>
2fcz_lig

>  <RI>
1.32928e+07

>  <Rbt.Current_Directory>
/home/itssahil/PROJECTS/Mol_Feturizer/New_Systems/rnas/2fcz

>  <Rbt.Executable>
rbdock ($Id: //depot/dev/client3/rdock/2013.1/src/exe/rbdock.cxx#4 $)

>  <Rbt.Library>
libRbt.so (2013.1, Build901 2013/11/27)

>  <Rbt.Parameter_File>
/export/apps/rDock/src/rDock_2013.1_src/data/scripts/dock_solv.prm

>  <Rbt.Receptor>
prm/pocket_docking_7.prm

>  <SCORE>
-18.406

>  <SCORE.INTER>
-15.0542

>  <SCORE.INTER.CONST>
1

>  <SCORE.INTER.POLAR>
-2.85075

>  <SCORE.INTER.ROT>
6

>  <SCORE.INTER.SOLV>
17.0737

>  <SCORE.INTER.VDW>
-13.8249

>  <SCORE.INTER.norm>
-0.485619

>  <SCORE.INTRA>
-3.35184

>  <SCORE.INTRA.DIHEDRAL>
-9.53401

>  <SCORE.INTRA.DIHEDRAL.0>
10.8409

>  <SCORE.INTRA.POLAR>
0

>  <SCORE.INTRA.POLAR.0>
0

>  <SCORE.INTRA.REPUL>
0

>  <SCORE.INTRA.REPUL.0>
0

>  <SCORE.INTRA.SOLV>
-1.48058

>  <SCORE.INTRA.SOLV.lig_0>
-80.8302

>  <SCORE.INTRA.VDW>
2.15546

>  <SCORE.INTRA.VDW.0>
-4.23953

>  <SCORE.INTRA.norm>
-0.108124

>  <SCORE.RESTR>
0

>  <SCORE.RESTR.CAVITY>
0

>  <SCORE.RESTR.norm>
0

>  <SCORE.SYSTEM>
0

>  <SCORE.SYSTEM.CONST>
0

>  <SCORE.SYSTEM.DIHEDRAL>
0

>  <SCORE.SYSTEM.SOLV>
0

>  <SCORE.SYSTEM.norm>
0

>  <SCORE.heavy>
31

>  <SCORE.norm>
-0.593743

>  <RMSD>
6.666

$$$$
2fcz_lig
 OpenBabel11021811433D
libRbt.so/2013.1/901 2013/11/27
 31 33  0  0  0  0  0  0  0  0999 V2000
    8.4370   18.8597   30.6552 C   0  0  0  0  0  0  0  0  0  0  0  0
    8.1951   15.8791   37.5056 N   0  0  0  0  0  0  0  0  0  0  0  0
    8.0759   17.4832   30.5121 O   0  0  0  0  0  0  0  0  0  0  0  0
    8.0760   19.3429   32.0640 C   0  0  1  0  0  0  0  0  0  0  0  0
   11.3406   19.4739   38.5688 N   0  0  0  0  0  0  0  0  0  0  0  0
    8.5421   18.4286   33.0771 O   0  0  0  0  0  0  0  0  0  0  0  0
    9.6510   19.0172   33.7854 C   0  0  1  0  0  0  0  0  0  0  0  0
   14.3873   15.6583   32.8250 N   0  0  0  0  0  0  0  0  0  0  0  0
   10.7395   18.0967   33.9725 O   0  0  0  0  0  0  0  0  0  0  0  0
   10.8330   17.5543   35.3007 C   0  0  2  0  0  0  0  0  0  0  0  0
   14.9975   19.5202   37.4234 N   0  0  0  0  0  0  0  0  0  0  0  0
    9.1927   15.8323   34.8558 O   0  0  0  0  0  0  0  0  0  0  0  0
    9.4782   16.9535   35.6957 C   0  0  1  0  0  0  0  0  0  0  0  0
   12.6107   19.0669   36.0852 O   0  0  0  0  0  0  0  0  0  0  0  0
    9.4842   16.4907   37.1545 C   0  0  1  0  0  0  0  0  0  0  0  0
   13.4665   17.1703   34.9702 O   0  0  0  0  0  0  0  0  0  0  0  0
    9.7573   17.6772   38.0815 C   0  0  0  0  0  0  0  0  0  0  0  0
   15.5351   19.1001   32.6112 O   0  0  0  0  0  0  0  0  0  0  0  0
   11.1253   18.2739   37.7447 C   0  0  1  0  0  0  0  0  0  0  0  0
   16.7099   19.7775   35.1438 O   0  0  0  0  0  0  0  0  0  0  0  0
   11.2444   18.6631   36.2672 C   0  0  2  0  0  0  0  0  0  0  0  0
   10.8200   21.1883   33.5997 O   0  0  0  0  0  0  0  0  0  0  0  0
   13.5512   17.9853   36.1542 C   0  0  1  0  0  0  0  0  0  0  0  0
    8.0527   21.4003   33.3847 O   0  0  0  0  0  0  0  0  0  0  0  0
   13.7801   17.8603   33.7480 C   0  0  2  0  0  0  0  0  0  0  0  0
   13.6174   16.8862   32.5785 C   0  0  0  0  0  0  0  0  0  0  0  0
   15.2196   18.3831   33.8087 C   0  0  2  0  0  0  0  0  0  0  0  0
   15.3612   19.3166   35.0128 C   0  0  1  0  0  0  0  0  0  0  0  0
   14.9552   18.5825   36.2927 C   0  0  1  0  0  0  0  0  0  0  0  0
   10.0995   20.1746   32.8919 C   0  0  2  0  0  0  0  0  0  0  0  0
    8.7550   20.6778   32.3699 C   0  0  1  0  0  0  0  0  0  0  0  0
  3  1  1  0  0  0  0
  4  1  1  6  0  0  0
  4  6  1  0  0  0  0
  4 31  1  0  0  0  0
  6  7  1  0  0  0  0
  7  9  1  6  0  0  0
  7 30  1  0  0  0  0
 10  9  1  6  0  0  0
 10 13  1  0  0  0  0
 10 21  1  0  0  0  0
 13 12  1  6  0  0  0
 13 15  1  0  0  0  0
 15  2  1  1  0  0  0
 15 17  1  0  0  0  0
 16 25  1  0  0  0  0
 17 19  1  0  0  0  0
 19  5  1  1  0  0  0
 19 21  1  0  0  0  0
 21 14  1  6  0  0  0
 23 14  1  6  0  0  0
 23 16  1  0  0  0  0
 23 29  1  0  0  0  0
 25 26  1  6  0  0  0
 25 27  1  0  0  0  0
 26  8  1  0  0  0  0
 27 18  1  6  0  0  0
 27 28  1  0  0  0  0
 28 20  1  1  0  0  0
 28 29  1  0  0  0  0
 29 11  1  1  0  0  0
 30 22  1  1  0  0  0
 30 31  1  0  0  0  0
 31 24  1  1  0  0  0
M  END
>  <CHROM.1>
48.27040613,-103.16944756,52.89885991,-54.21560249,72.88197669,-52.49349569
11.47981832,18.42411409,34.60491917,-2.81616347,0.07019160,1.81473431

>  <Name>
2fcz_lig

>  <RI>
1.32928e+07

>  <Rbt.Current_Directory>
/home/itssahil/PROJECTS/Mol_Feturizer/New_Systems/rnas/2fcz

>  <Rbt.Executable>
rbdock ($Id: //depot/dev/client3/rdock/2013.1/src/exe/rbdock.cxx#4 $)

>  <Rbt.Library>
libRbt.so (2013.1, Build901 2013/11/27)

>  <Rbt.Parameter_File>
/export/apps/rDock/src/rDock_2013.1_src/data/scripts/dock_solv.prm

>  <Rbt.Receptor>
prm/pocket_docking_7.prm

>  <SCORE>
-16.3432

>  <SCORE.INTER>
-17.3676

>  <SCORE.INTER.CONST>
1

>  <SCORE.INTER.POLAR>
-3.04496

>  <SCORE.INTER.ROT>
6

>  <SCORE.INTER.SOLV>
14.5734

>  <SCORE.INTER.VDW>
-13.8863

>  <SCORE.INTER.norm>
-0.560245

>  <SCORE.INTRA>
1.02438

>  <SCORE.INTRA.DIHEDRAL>
-3.02572

>  <SCORE.INTRA.DIHEDRAL.0>
10.8409

>  <SCORE.INTRA.POLAR>
0

>  <SCORE.INTRA.POLAR.0>
0

>  <SCORE.INTRA.REPUL>
0

>  <SCORE.INTRA.REPUL.0>
0

>  <SCORE.INTRA.SOLV>
-1.20245

>  <SCORE.INTRA.SOLV.lig_0>
-80.8302

>  <SCORE.INTRA.VDW>
3.13847

>  <SCORE.INTRA.VDW.0>
-4.23953

>  <SCORE.INTRA.norm>
0.0330446

>  <SCORE.RESTR>
0

>  <SCORE.RESTR.CAVITY>
0

>  <SCORE.RESTR.norm>
0

>  <SCORE.SYSTEM>
0

>  <SCORE.SYSTEM.CONST>
0

>  <SCORE.SYSTEM.DIHEDRAL>
0

>  <SCORE.SYSTEM.SOLV>
0

>  <SCORE.SYSTEM.norm>
0

>  <SCORE.heavy>
31

>  <SCORE.norm>
-0.5272

>  <RMSD>
6.684

$$$$
2fcz_lig
 OpenBabel11021811433D
libRbt.so/2013.1/901 2013/11/27
 31 33  0  0  0  0  0  0  0  0999 V2000
    7.1112   20.3556   31.3280 C   0  0  0  0  0  0  0  0  0  0  0  0
   14.0175   23.4952   28.8873 N   0  0  0  0  0  0  0  0  0  0  0  0
    8.1294   20.3099   30.3246 O   0  0  0  0  0  0  0  0  0  0  0  0
    7.5885   21.2097   32.5074 C   0  0  1  0  0  0  0  0  0  0  0  0
   15.7937   21.5317   33.0027 N   0  0  0  0  0  0  0  0  0  0  0  0
    8.8925   20.8012   32.9683 O   0  0  0  0  0  0  0  0  0  0  0  0
    9.8683   21.7964   32.6005 C   0  0  1  0  0  0  0  0  0  0  0  0
   12.9884   16.4993   33.5509 N   0  0  0  0  0  0  0  0  0  0  0  0
   11.0638   21.2212   32.0463 O   0  0  0  0  0  0  0  0  0  0  0  0
   12.1684   22.1360   31.9467 C   0  0  2  0  0  0  0  0  0  0  0  0
   12.5398   21.5696   36.7990 N   0  0  0  0  0  0  0  0  0  0  0  0
   11.3903   23.0547   29.8481 O   0  0  0  0  0  0  0  0  0  0  0  0
   12.4884   22.3797   30.4667 C   0  0  1  0  0  0  0  0  0  0  0  0
   13.1992   21.5499   34.1049 O   0  0  0  0  0  0  0  0  0  0  0  0
   13.7480   23.2345   30.3080 C   0  0  1  0  0  0  0  0  0  0  0  0
   12.5536   19.2937   33.8487 O   0  0  0  0  0  0  0  0  0  0  0  0
   14.9489   22.5227   30.9347 C   0  0  0  0  0  0  0  0  0  0  0  0
   15.5095   17.9243   35.5678 O   0  0  0  0  0  0  0  0  0  0  0  0
   14.6822   22.3041   32.4253 C   0  0  1  0  0  0  0  0  0  0  0  0
   14.2338   19.4276   37.6573 O   0  0  0  0  0  0  0  0  0  0  0  0
   13.3732   21.5487   32.6792 C   0  0  2  0  0  0  0  0  0  0  0  0
    9.7182   23.9567   31.4066 O   0  0  0  0  0  0  0  0  0  0  0  0
   12.3347   20.5106   34.5864 C   0  0  1  0  0  0  0  0  0  0  0  0
    7.6449   23.5481   33.2187 O   0  0  0  0  0  0  0  0  0  0  0  0
   13.8828   18.7573   33.9647 C   0  0  2  0  0  0  0  0  0  0  0  0
   13.9783   17.4921   33.1085 C   0  0  0  0  0  0  0  0  0  0  0  0
   14.1776   18.4296   35.4328 C   0  0  2  0  0  0  0  0  0  0  0  0
   14.0295   19.7033   36.2678 C   0  0  1  0  0  0  0  0  0  0  0  0
   12.6315   20.2947   36.0738 C   0  0  1  0  0  0  0  0  0  0  0  0
    9.1629   22.6448   31.5412 C   0  0  2  0  0  0  0  0  0  0  0  0
    7.7383   22.6730   32.0916 C   0  0  1  0  0  0  0  0  0  0  0  0
  3  1  1  0  0  0  0
  4  1  1  6  0  0  0
  4  6  1  0  0  0  0
  4 31  1  0  0  0  0
  6  7  1  0  0  0  0
  7  9  1  6  0  0  0
  7 30  1  0  0  0  0
 10  9  1  6  0  0  0
 10 13  1  0  0  0  0
 10 21  1  0  0  0  0
 13 12  1  1  0  0  0
 13 15  1  0  0  0  0
 15  2  1  6  0  0  0
 15 17  1  0  0  0  0
 16 25  1  0  0  0  0
 17 19  1  0  0  0  0
 19  5  1  6  0  0  0
 19 21  1  0  0  0  0
 21 14  1  1  0  0  0
 23 14  1  6  0  0  0
 23 16  1  0  0  0  0
 23 29  1  0  0  0  0
 25 26  1  6  0  0  0
 25 27  1  0  0  0  0
 26  8  1  0  0  0  0
 27 18  1  6  0  0  0
 27 28  1  0  0  0  0
 28 20  1  1  0  0  0
 28 29  1  0  0  0  0
 29 11  1  1  0  0  0
 30 22  1  1  0  0  0
 30 31  1  0  0  0  0
 31 24  1  1  0  0  0
M  END
>  <CHROM.1>
-50.82514308,-166.71554152,-113.75894048,77.01764837,38.65599752,-58.96580329
11.95247743,21.03407993,32.95443058,2.37921083,0.01830265,-0.90173420

>  <Name>
2fcz_lig

>  <RI>
2.6968e+07

>  <Rbt.Current_Directory>
/home/itssahil/PROJECTS/Mol_Feturizer/New_Systems/rnas/2fcz

>  <Rbt.Executable>
rbdock ($Id: //depot/dev/client3/rdock/2013.1/src/exe/rbdock.cxx#4 $)

>  <Rbt.Library>
libRbt.so (2013.1, Build901 2013/11/27)

>  <Rbt.Parameter_File>
/export/apps/rDock/src/rDock_2013.1_src/data/scripts/dock_solv.prm

>  <Rbt.Receptor>
prm/blind_docking_60.prm

>  <SCORE>
-12.3893

>  <SCORE.INTER>
-14.8592

>  <SCORE.INTER.CONST>
1

>  <SCORE.INTER.POLAR>
-1.7007

>  <SCORE.INTER.ROT>
6

>  <SCORE.INTER.SOLV>
16.2263

>  <SCORE.INTER.VDW>
-17.2459

>  <SCORE.INTER.norm>
-0.479328

>  <SCORE.INTRA>
2.46987

>  <SCORE.INTRA.DIHEDRAL>
0.771998

>  <SCORE.INTRA.DIHEDRAL.0>
10.8409

>  <SCORE.INTRA.POLAR>
0

>  <SCORE.INTRA.POLAR.0>
0

>  <SCORE.INTRA.REPUL>
0.0212944

>  <SCORE.INTRA.REPUL.0>
0

>  <SCORE.INTRA.SOLV>
-0.169045

>  <SCORE.INTRA.SOLV.lig_0>
-80.8302

>  <SCORE.INTRA.VDW>
2.06192

>  <SCORE.INTRA.VDW.0>
-4.23953

>  <SCORE.INTRA.norm>
0.0796733

>  <SCORE.RESTR>
0

>  <SCORE.RESTR.CAVITY>
0

>  <SCORE.RESTR.norm>
0

>  <SCORE.SYSTEM>
0

>  <SCORE.SYSTEM.CONST>
0

>  <SCORE.SYSTEM.DIHEDRAL>
0

>  <SCORE.SYSTEM.SOLV>
0

>  <SCORE.SYSTEM.norm>
0

>  <SCORE.heavy>
31

>  <SCORE.norm>
-0.399655

>  <RMSD>
6.686

$$$$
2fcz_lig
 OpenBabel11021811433D
libRbt.so/2013.1/901 2013/11/27
 31 33  0  0  0  0  0  0  0  0999 V2000
   15.8045   16.5981   37.6215 C   0  0  0  0  0  0  0  0  0  0  0  0
   10.7921   20.6872   36.8648 N   0  0  0  0  0  0  0  0  0  0  0  0
   14.7011   16.5419   38.5297 O   0  0  0  0  0  0  0  0  0  0  0  0
   15.2898   16.8575   36.2015 C   0  0  1  0  0  0  0  0  0  0  0  0
   12.5885   21.9172   32.4822 N   0  0  0  0  0  0  0  0  0  0  0  0
   14.6419   18.1414   36.0954 O   0  0  0  0  0  0  0  0  0  0  0  0
   15.4742   19.0412   35.3369 C   0  0  1  0  0  0  0  0  0  0  0  0
   13.3180   23.3041   28.9975 N   0  0  0  0  0  0  0  0  0  0  0  0
   15.5778   20.3417   35.9413 O   0  0  0  0  0  0  0  0  0  0  0  0
   14.4198   21.1733   35.7557 C   0  0  2  0  0  0  0  0  0  0  0  0
   17.8794   22.6705   33.6609 N   0  0  0  0  0  0  0  0  0  0  0  0
   13.4361   20.5020   37.8617 O   0  0  0  0  0  0  0  0  0  0  0  0
   13.2164   20.5228   36.4492 C   0  0  1  0  0  0  0  0  0  0  0  0
   15.1494   22.1811   33.6306 O   0  0  0  0  0  0  0  0  0  0  0  0
   11.9281   21.2968   36.1598 C   0  0  1  0  0  0  0  0  0  0  0  0
   15.2209   21.2863   31.4473 O   0  0  0  0  0  0  0  0  0  0  0  0
   11.6494   21.3102   34.6552 C   0  0  0  0  0  0  0  0  0  0  0  0
   15.6272   24.5479   29.7846 O   0  0  0  0  0  0  0  0  0  0  0  0
   12.8122   21.9953   33.9345 C   0  0  1  0  0  0  0  0  0  0  0  0
   18.0234   24.3660   31.3589 O   0  0  0  0  0  0  0  0  0  0  0  0
   14.1629   21.3485   34.2603 C   0  0  2  0  0  0  0  0  0  0  0  0
   17.6748   18.7926   34.2366 O   0  0  0  0  0  0  0  0  0  0  0  0
   15.9597   21.4947   32.6654 C   0  0  1  0  0  0  0  0  0  0  0  0
   16.0044   16.5947   33.8781 O   0  0  0  0  0  0  0  0  0  0  0  0
   14.8011   22.4948   30.7906 C   0  0  2  0  0  0  0  0  0  0  0  0
   14.0047   22.1218   29.5377 C   0  0  0  0  0  0  0  0  0  0  0  0
   16.0314   23.3264   30.4108 C   0  0  2  0  0  0  0  0  0  0  0  0
   16.8294   23.6438   31.6773 C   0  0  1  0  0  0  0  0  0  0  0  0
   17.2046   22.3460   32.3964 C   0  0  1  0  0  0  0  0  0  0  0  0
   16.8467   18.3662   35.3228 C   0  0  2  0  0  0  0  0  0  0  0  0
   16.4474   16.8966   35.2039 C   0  0  1  0  0  0  0  0  0  0  0  0
  3  1  1  0  0  0  0
  4  1  1  1  0  0  0
  4  6  1  0  0  0  0
  4 31  1  0  0  0  0
  6  7  1  0  0  0  0
  7  9  1  1  0  0  0
  7 30  1  0  0  0  0
 10  9  1  6  0  0  0
 10 13  1  0  0  0  0
 10 21  1  0  0  0  0
 13 12  1  1  0  0  0
 13 15  1  0  0  0  0
 15  2  1  1  0  0  0
 15 17  1  0  0  0  0
 16 25  1  0  0  0  0
 17 19  1  0  0  0  0
 19  5  1  6  0  0  0
 19 21  1  0  0  0  0
 21 14  1  1  0  0  0
 23 14  1  1  0  0  0
 23 16  1  0  0  0  0
 23 29  1  0  0  0  0
 25 26  1  6  0  0  0
 25 27  1  0  0  0  0
 26  8  1  0  0  0  0
 27 18  1  1  0  0  0
 27 28  1  0  0  0  0
 28 20  1  6  0  0  0
 28 29  1  0  0  0  0
 29 11  1  1  0  0  0
 30 22  1  6  0  0  0
 30 31  1  0  0  0  0
 31 24  1  6  0  0  0
M  END
>  <CHROM.1>
63.59963544,-76.64589093,63.44213881,114.79653552,76.03282575,167.95226222
14.97689689,20.71295596,33.98416526,-1.67592733,0.41145379,-0.81083044

>  <Name>
2fcz_lig

>  <RI>
0

>  <Rbt.Current_Directory>
/home/itssahil/PROJECTS/Mol_Feturizer/New_Systems/rnas/2fcz

>  <Rbt.Executable>
rbdock ($Id: //depot/dev/client3/rdock/2013.1/src/exe/rbdock.cxx#4 $)

>  <Rbt.Library>
libRbt.so (2013.1, Build901 2013/11/27)

>  <Rbt.Parameter_File>
/export/apps/rDock/src/rDock_2013.1_src/data/scripts/dock_solv.prm

>  <Rbt.Receptor>
prm/blind_docking_80.prm

>  <SCORE>
-12.9165

>  <SCORE.INTER>
-14.6748

>  <SCORE.INTER.CONST>
1

>  <SCORE.INTER.POLAR>
-1.61073

>  <SCORE.INTER.ROT>
6

>  <SCORE.INTER.SOLV>
18.3924

>  <SCORE.INTER.VDW>
-18.1449

>  <SCORE.INTER.norm>
-0.473382

>  <SCORE.INTRA>
1.75831

>  <SCORE.INTRA.DIHEDRAL>
-0.683184

>  <SCORE.INTRA.DIHEDRAL.0>
10.8409

>  <SCORE.INTRA.POLAR>
0

>  <SCORE.INTRA.POLAR.0>
0

>  <SCORE.INTRA.REPUL>
0

>  <SCORE.INTRA.REPUL.0>
0

>  <SCORE.INTRA.SOLV>
1.18704

>  <SCORE.INTRA.SOLV.lig_0>
-80.8302

>  <SCORE.INTRA.VDW>
1.50639

>  <SCORE.INTRA.VDW.0>
-4.23953

>  <SCORE.INTRA.norm>
0.0567198

>  <SCORE.RESTR>
0

>  <SCORE.RESTR.CAVITY>
0

>  <SCORE.RESTR.norm>
0

>  <SCORE.SYSTEM>
0

>  <SCORE.SYSTEM.CONST>
0

>  <SCORE.SYSTEM.DIHEDRAL>
0

>  <SCORE.SYSTEM.SOLV>
0

>  <SCORE.SYSTEM.norm>
0

>  <SCORE.heavy>
31

>  <SCORE.norm>
-0.416662

>  <RMSD>
6.694

$$$$
2fcz_lig
 OpenBabel11021811433D
libRbt.so/2013.1/901 2013/11/27
 31 33  0  0  0  0  0  0  0  0999 V2000
    7.4971   20.5068   29.5452 C   0  0  0  0  0  0  0  0  0  0  0  0
   11.4009   23.4029   27.3997 N   0  0  0  0  0  0  0  0  0  0  0  0
    6.3790   19.6149   29.5366 O   0  0  0  0  0  0  0  0  0  0  0  0
    8.6159   19.9216   30.4138 C   0  0  1  0  0  0  0  0  0  0  0  0
   14.4732   21.7879   30.8492 N   0  0  0  0  0  0  0  0  0  0  0  0
    9.7016   20.8551   30.5849 O   0  0  0  0  0  0  0  0  0  0  0  0
    9.7009   21.3540   31.9373 C   0  0  1  0  0  0  0  0  0  0  0  0
   12.8111   18.1908   34.9303 N   0  0  0  0  0  0  0  0  0  0  0  0
    9.8827   22.7787   32.0019 O   0  0  0  0  0  0  0  0  0  0  0  0
   10.9666   23.2732   31.1972 C   0  0  2  0  0  0  0  0  0  0  0  0
   12.4890   24.2129   35.2100 N   0  0  0  0  0  0  0  0  0  0  0  0
    9.4943   23.9803   29.4123 O   0  0  0  0  0  0  0  0  0  0  0  0
   10.6008   23.1270   29.7150 C   0  0  1  0  0  0  0  0  0  0  0  0
   12.7491   22.8095   32.8318 O   0  0  0  0  0  0  0  0  0  0  0  0
   11.7795   23.5067   28.8157 C   0  0  1  0  0  0  0  0  0  0  0  0
   12.2459   20.7469   33.8639 O   0  0  0  0  0  0  0  0  0  0  0  0
   12.9715   22.5888   29.0955 C   0  0  0  0  0  0  0  0  0  0  0  0
   15.5156   20.4233   35.5290 O   0  0  0  0  0  0  0  0  0  0  0  0
   13.3932   22.7440   30.5580 C   0  0  1  0  0  0  0  0  0  0  0  0
   14.4472   22.7969   36.7447 O   0  0  0  0  0  0  0  0  0  0  0  0
   12.2352   22.4899   31.5292 C   0  0  2  0  0  0  0  0  0  0  0  0
    8.2696   20.9136   33.9051 O   0  0  0  0  0  0  0  0  0  0  0  0
   12.0451   22.1720   33.9075 C   0  0  1  0  0  0  0  0  0  0  0  0
    8.9030   18.6186   32.4625 O   0  0  0  0  0  0  0  0  0  0  0  0
   13.6146   20.3329   34.0164 C   0  0  2  0  0  0  0  0  0  0  0  0
   13.6802   18.8069   33.9171 C   0  0  0  0  0  0  0  0  0  0  0  0
   14.1438   20.8008   35.3767 C   0  0  2  0  0  0  0  0  0  0  0  0
   14.0227   22.3238   35.4623 C   0  0  1  0  0  0  0  0  0  0  0  0
   12.5705   22.7457   35.2273 C   0  0  1  0  0  0  0  0  0  0  0  0
    8.3184   20.9835   32.4767 C   0  0  2  0  0  0  0  0  0  0  0  0
    8.1065   19.6193   31.8230 C   0  0  1  0  0  0  0  0  0  0  0  0
  3  1  1  0  0  0  0
  4  1  1  6  0  0  0
  4  6  1  0  0  0  0
  4 31  1  0  0  0  0
  6  7  1  0  0  0  0
  7  9  1  6  0  0  0
  7 30  1  0  0  0  0
 10  9  1  1  0  0  0
 10 13  1  0  0  0  0
 10 21  1  0  0  0  0
 13 12  1  6  0  0  0
 13 15  1  0  0  0  0
 15  2  1  6  0  0  0
 15 17  1  0  0  0  0
 16 25  1  0  0  0  0
 17 19  1  0  0  0  0
 19  5  1  1  0  0  0
 19 21  1  0  0  0  0
 21 14  1  1  0  0  0
 23 14  1  6  0  0  0
 23 16  1  0  0  0  0
 23 29  1  0  0  0  0
 25 26  1  1  0  0  0
 25 27  1  0  0  0  0
 26  8  1  0  0  0  0
 27 18  1  6  0  0  0
 27 28  1  0  0  0  0
 28 20  1  1  0  0  0
 28 29  1  0  0  0  0
 29 11  1  6  0  0  0
 30 22  1  1  0  0  0
 30 31  1  0  0  0  0
 31 24  1  1  0  0  0
M  END
>  <CHROM.1>
-173.06873699,-47.84234370,69.40107678,78.34361489,66.68257348,-57.23830980
11.35788584,21.54477131,32.28417947,2.50549911,-0.50414450,-1.00175339

>  <Name>
2fcz_lig

>  <RI>
1.40544e+07

>  <Rbt.Current_Directory>
/home/itssahil/PROJECTS/Mol_Feturizer/New_Systems/rnas/2fcz

>  <Rbt.Executable>
rbdock ($Id: //depot/dev/client3/rdock/2013.1/src/exe/rbdock.cxx#4 $)

>  <Rbt.Library>
libRbt.so (2013.1, Build901 2013/11/27)

>  <Rbt.Parameter_File>
/export/apps/rDock/src/rDock_2013.1_src/data/scripts/dock_solv.prm

>  <Rbt.Receptor>
prm/blind_docking_100.prm

>  <SCORE>
-16.9114

>  <SCORE.INTER>
-15.3952

>  <SCORE.INTER.CONST>
1

>  <SCORE.INTER.POLAR>
-0.94357

>  <SCORE.INTER.ROT>
6

>  <SCORE.INTER.SOLV>
17.0658

>  <SCORE.INTER.VDW>
-20.4069

>  <SCORE.INTER.norm>
-0.496621

>  <SCORE.INTRA>
-1.51697

>  <SCORE.INTRA.DIHEDRAL>
-7.63715

>  <SCORE.INTRA.DIHEDRAL.0>
10.8409

>  <SCORE.INTRA.POLAR>
0

>  <SCORE.INTRA.POLAR.0>
0

>  <SCORE.INTRA.REPUL>
0

>  <SCORE.INTRA.REPUL.0>
0

>  <SCORE.INTRA.SOLV>
-1.24319

>  <SCORE.INTRA.SOLV.lig_0>
-80.8302

>  <SCORE.INTRA.VDW>
2.9232

>  <SCORE.INTRA.VDW.0>
-4.23953

>  <SCORE.INTRA.norm>
-0.0489345

>  <SCORE.RESTR>
0.000851624

>  <SCORE.RESTR.CAVITY>
0.000851624

>  <SCORE.RESTR.norm>
2.74717e-05

>  <SCORE.SYSTEM>
0

>  <SCORE.SYSTEM.CONST>
0

>  <SCORE.SYSTEM.DIHEDRAL>
0

>  <SCORE.SYSTEM.SOLV>
0

>  <SCORE.SYSTEM.norm>
0

>  <SCORE.heavy>
31

>  <SCORE.norm>
-0.545528

>  <RMSD>
6.700

$$$$
2fcz_lig
 OpenBabel11021811433D
libRbt.so/2013.1/901 2013/11/27
 31 33  0  0  0  0  0  0  0  0999 V2000
    7.5091   20.1221   31.9059 C   0  0  0  0  0  0  0  0  0  0  0  0
   12.9727   22.8923   34.0610 N   0  0  0  0  0  0  0  0  0  0  0  0
    6.9532   20.5621   33.1480 O   0  0  0  0  0  0  0  0  0  0  0  0
    8.8263   19.3828   32.1644 C   0  0  1  0  0  0  0  0  0  0  0  0
   13.7882   19.4182   37.4096 N   0  0  0  0  0  0  0  0  0  0  0  0
    9.6039   20.0239   33.1959 O   0  0  0  0  0  0  0  0  0  0  0  0
    9.5851   19.2144   34.3884 C   0  0  1  0  0  0  0  0  0  0  0  0
   13.2286   14.7946   38.4438 N   0  0  0  0  0  0  0  0  0  0  0  0
    9.3490   19.9866   35.5780 O   0  0  0  0  0  0  0  0  0  0  0  0
   10.4834   20.7505   36.0214 C   0  0  2  0  0  0  0  0  0  0  0  0
    8.7343   18.7107   39.3955 N   0  0  0  0  0  0  0  0  0  0  0  0
   10.1895   22.4314   34.3062 O   0  0  0  0  0  0  0  0  0  0  0  0
   11.1107   21.4652   34.8180 C   0  0  1  0  0  0  0  0  0  0  0  0
   11.0245   19.3299   37.9586 O   0  0  0  0  0  0  0  0  0  0  0  0
   12.4065   22.1773   35.2131 C   0  0  1  0  0  0  0  0  0  0  0  0
   11.6866   17.0680   37.8243 O   0  0  0  0  0  0  0  0  0  0  0  0
   13.4253   21.1628   35.7371 C   0  0  0  0  0  0  0  0  0  0  0  0
   12.7866   16.8541   41.3332 O   0  0  0  0  0  0  0  0  0  0  0  0
   12.8489   20.4618   36.9689 C   0  0  1  0  0  0  0  0  0  0  0  0
    9.9771   17.3873   41.6088 O   0  0  0  0  0  0  0  0  0  0  0  0
   11.4887   19.8138   36.6885 C   0  0  2  0  0  0  0  0  0  0  0  0
    8.5359   17.0463   34.9483 O   0  0  0  0  0  0  0  0  0  0  0  0
   10.5691   17.9693   37.9317 C   0  0  1  0  0  0  0  0  0  0  0  0
    9.6721   17.1018   32.4076 O   0  0  0  0  0  0  0  0  0  0  0  0
   12.6107   17.1306   38.9244 C   0  0  2  0  0  0  0  0  0  0  0  0
   13.7558   16.1497   38.6604 C   0  0  0  0  0  0  0  0  0  0  0  0
   11.8862   16.7648   40.2247 C   0  0  2  0  0  0  0  0  0  0  0  0
   10.7211   17.7340   40.4363 C   0  0  1  0  0  0  0  0  0  0  0  0
    9.7890   17.7022   39.2229 C   0  0  1  0  0  0  0  0  0  0  0  0
    8.4277   18.2395   34.1659 C   0  0  2  0  0  0  0  0  0  0  0  0
    8.5620   17.9644   32.6694 C   0  0  1  0  0  0  0  0  0  0  0  0
  3  1  1  0  0  0  0
  4  1  1  1  0  0  0
  4  6  1  0  0  0  0
  4 31  1  0  0  0  0
  6  7  1  0  0  0  0
  7  9  1  1  0  0  0
  7 30  1  0  0  0  0
 10  9  1  6  0  0  0
 10 13  1  0  0  0  0
 10 21  1  0  0  0  0
 13 12  1  1  0  0  0
 13 15  1  0  0  0  0
 15  2  1  6  0  0  0
 15 17  1  0  0  0  0
 16 25  1  0  0  0  0
 17 19  1  0  0  0  0
 19  5  1  6  0  0  0
 19 21  1  0  0  0  0
 21 14  1  1  0  0  0
 23 14  1  1  0  0  0
 23 16  1  0  0  0  0
 23 29  1  0  0  0  0
 25 26  1  6  0  0  0
 25 27  1  0  0  0  0
 26  8  1  0  0  0  0
 27 18  1  1  0  0  0
 27 28  1  0  0  0  0
 28 20  1  1  0  0  0
 28 29  1  0  0  0  0
 29 11  1  1  0  0  0
 30 22  1  1  0  0  0
 30 31  1  0  0  0  0
 31 24  1  1  0  0  0
M  END
>  <CHROM.1>
-39.77179156,-75.42086465,45.74124556,104.39614296,73.22998757,-56.13350725
10.69422381,18.95052355,36.37133875,2.03630870,-0.67218486,-0.83687966

>  <Name>
2fcz_lig

>  <RI>
0

>  <Rbt.Current_Directory>
/home/itssahil/PROJECTS/Mol_Feturizer/New_Systems/rnas/2fcz

>  <Rbt.Executable>
rbdock ($Id: //depot/dev/client3/rdock/2013.1/src/exe/rbdock.cxx#4 $)

>  <Rbt.Library>
libRbt.so (2013.1, Build901 2013/11/27)

>  <Rbt.Parameter_File>
/export/apps/rDock/src/rDock_2013.1_src/data/scripts/dock_solv.prm

>  <Rbt.Receptor>
prm/pocket_docking_6.prm

>  <SCORE>
-20.2502

>  <SCORE.INTER>
-23.1191

>  <SCORE.INTER.CONST>
1

>  <SCORE.INTER.POLAR>
-2.94185

>  <SCORE.INTER.ROT>
6

>  <SCORE.INTER.SOLV>
14.2887

>  <SCORE.INTER.VDW>
-17.9695

>  <SCORE.INTER.norm>
-0.745777

>  <SCORE.INTRA>
2.86886

>  <SCORE.INTRA.DIHEDRAL>
-0.455713

>  <SCORE.INTRA.DIHEDRAL.0>
10.8409

>  <SCORE.INTRA.POLAR>
0

>  <SCORE.INTRA.POLAR.0>
0

>  <SCORE.INTRA.REPUL>
0

>  <SCORE.INTRA.REPUL.0>
0

>  <SCORE.INTRA.SOLV>
0.935519

>  <SCORE.INTRA.SOLV.lig_0>
-80.8302

>  <SCORE.INTRA.VDW>
2.62896

>  <SCORE.INTRA.VDW.0>
-4.23953

>  <SCORE.INTRA.norm>
0.092544

>  <SCORE.RESTR>
0

>  <SCORE.RESTR.CAVITY>
0

>  <SCORE.RESTR.norm>
0

>  <SCORE.SYSTEM>
0

>  <SCORE.SYSTEM.CONST>
0

>  <SCORE.SYSTEM.DIHEDRAL>
0

>  <SCORE.SYSTEM.SOLV>
0

>  <SCORE.SYSTEM.norm>
0

>  <SCORE.heavy>
31

>  <SCORE.norm>
-0.653233

>  <RMSD>
6.709

$$$$
2fcz_lig
 OpenBabel11021811433D
libRbt.so/2013.1/901 2013/11/27
 31 33  0  0  0  0  0  0  0  0999 V2000
    8.8956   17.5570   32.4665 C   0  0  0  0  0  0  0  0  0  0  0  0
   12.4368   17.9918   40.6234 N   0  0  0  0  0  0  0  0  0  0  0  0
    8.4289   18.0317   31.2007 O   0  0  0  0  0  0  0  0  0  0  0  0
    8.4227   18.5014   33.5769 C   0  0  1  0  0  0  0  0  0  0  0  0
   11.0212   13.9214   38.3049 N   0  0  0  0  0  0  0  0  0  0  0  0
    8.8312   18.0389   34.8802 O   0  0  0  0  0  0  0  0  0  0  0  0
    9.8732   18.8938   35.3913 C   0  0  1  0  0  0  0  0  0  0  0  0
   13.5204   13.4309   35.4315 N   0  0  0  0  0  0  0  0  0  0  0  0
   10.9632   18.1542   35.9675 O   0  0  0  0  0  0  0  0  0  0  0  0
   10.6740   17.5818   37.2542 C   0  0  2  0  0  0  0  0  0  0  0  0
    7.4313   15.4701   34.7621 N   0  0  0  0  0  0  0  0  0  0  0  0
   11.4749   19.5281   38.4477 O   0  0  0  0  0  0  0  0  0  0  0  0
   11.6756   18.1222   38.2823 C   0  0  1  0  0  0  0  0  0  0  0  0
    9.6667   15.5019   36.4038 O   0  0  0  0  0  0  0  0  0  0  0  0
   11.5001   17.4341   39.6381 C   0  0  1  0  0  0  0  0  0  0  0  0
   11.0921   14.7824   34.6650 O   0  0  0  0  0  0  0  0  0  0  0  0
   11.7394   15.9291   39.4989 C   0  0  0  0  0  0  0  0  0  0  0  0
    9.9148   11.2925   34.7182 O   0  0  0  0  0  0  0  0  0  0  0  0
   10.7247   15.3478   38.5124 C   0  0  1  0  0  0  0  0  0  0  0  0
    7.5403   12.7230   33.9644 O   0  0  0  0  0  0  0  0  0  0  0  0
   10.7559   16.0598   37.1556 C   0  0  2  0  0  0  0  0  0  0  0  0
   11.0094   20.9002   34.4977 O   0  0  0  0  0  0  0  0  0  0  0  0
    9.8825   15.4948   34.9851 C   0  0  1  0  0  0  0  0  0  0  0  0
    8.2616   20.8944   34.0515 O   0  0  0  0  0  0  0  0  0  0  0  0
   11.0869   13.3965   35.0488 C   0  0  2  0  0  0  0  0  0  0  0  0
   12.4381   12.7795   34.6794 C   0  0  0  0  0  0  0  0  0  0  0  0
    9.9522   12.6667   34.3212 C   0  0  2  0  0  0  0  0  0  0  0  0
    8.6217   13.3348   34.6749 C   0  0  1  0  0  0  0  0  0  0  0  0
    8.6754   14.8231   34.3227 C   0  0  1  0  0  0  0  0  0  0  0  0
   10.3631   19.6675   34.1661 C   0  0  2  0  0  0  0  0  0  0  0  0
    9.0508   19.8857   33.4154 C   0  0  1  0  0  0  0  0  0  0  0  0
  3  1  1  0  0  0  0
  4  1  1  6  0  0  0
  4  6  1  0  0  0  0
  4 31  1  0  0  0  0
  6  7  1  0  0  0  0
  7  9  1  6  0  0  0
  7 30  1  0  0  0  0
 10  9  1  6  0  0  0
 10 13  1  0  0  0  0
 10 21  1  0  0  0  0
 13 12  1  1  0  0  0
 13 15  1  0  0  0  0
 15  2  1  1  0  0  0
 15 17  1  0  0  0  0
 16 25  1  0  0  0  0
 17 19  1  0  0  0  0
 19  5  1  6  0  0  0
 19 21  1  0  0  0  0
 21 14  1  6  0  0  0
 23 14  1  1  0  0  0
 23 16  1  0  0  0  0
 23 29  1  0  0  0  0
 25 26  1  6  0  0  0
 25 27  1  0  0  0  0
 26  8  1  0  0  0  0
 27 18  1  1  0  0  0
 27 28  1  0  0  0  0
 28 20  1  6  0  0  0
 28 29  1  0  0  0  0
 29 11  1  1  0  0  0
 30 22  1  1  0  0  0
 30 31  1  0  0  0  0
 31 24  1  1  0  0  0
M  END
>  <CHROM.1>
178.04055155,-74.66582186,-121.31931575,84.75558018,56.74468942,62.88396528
10.17301399,16.41435580,35.61648024,1.70456876,-1.06284712,0.09854969

>  <Name>
2fcz_lig

>  <RI>
0

>  <Rbt.Current_Directory>
/home/itssahil/PROJECTS/Mol_Feturizer/New_Systems/rnas/2fcz

>  <Rbt.Executable>
rbdock ($Id: //depot/dev/client3/rdock/2013.1/src/exe/rbdock.cxx#4 $)

>  <Rbt.Library>
libRbt.so (2013.1, Build901 2013/11/27)

>  <Rbt.Parameter_File>
/export/apps/rDock/src/rDock_2013.1_src/data/scripts/dock_solv.prm

>  <Rbt.Receptor>
prm/pocket_docking_6.prm

>  <SCORE>
-11.1243

>  <SCORE.INTER>
-11.248

>  <SCORE.INTER.CONST>
1

>  <SCORE.INTER.POLAR>
-1.90761

>  <SCORE.INTER.ROT>
6

>  <SCORE.INTER.SOLV>
16.3198

>  <SCORE.INTER.VDW>
-14.1799

>  <SCORE.INTER.norm>
-0.362838

>  <SCORE.INTRA>
0.117657

>  <SCORE.INTRA.DIHEDRAL>
0.15018

>  <SCORE.INTRA.DIHEDRAL.0>
10.8409

>  <SCORE.INTRA.POLAR>
0

>  <SCORE.INTRA.POLAR.0>
0

>  <SCORE.INTRA.REPUL>
0

>  <SCORE.INTRA.REPUL.0>
0

>  <SCORE.INTRA.SOLV>
0.958477

>  <SCORE.INTRA.SOLV.lig_0>
-80.8302

>  <SCORE.INTRA.VDW>
-0.436671

>  <SCORE.INTRA.VDW.0>
-4.23953

>  <SCORE.INTRA.norm>
0.00379539

>  <SCORE.RESTR>
0.00602153

>  <SCORE.RESTR.CAVITY>
0.00602153

>  <SCORE.RESTR.norm>
0.000194243

>  <SCORE.SYSTEM>
0

>  <SCORE.SYSTEM.CONST>
0

>  <SCORE.SYSTEM.DIHEDRAL>
0

>  <SCORE.SYSTEM.SOLV>
0

>  <SCORE.SYSTEM.norm>
0

>  <SCORE.heavy>
31

>  <SCORE.norm>
-0.358848

>  <RMSD>
6.709

$$$$
2fcz_lig
 OpenBabel11021811433D
libRbt.so/2013.1/901 2013/11/27
 31 33  0  0  0  0  0  0  0  0999 V2000
   16.5250   17.1739   34.9803 C   0  0  0  0  0  0  0  0  0  0  0  0
    8.2200   18.2413   32.1362 N   0  0  0  0  0  0  0  0  0  0  0  0
   16.4806   18.1594   33.9448 O   0  0  0  0  0  0  0  0  0  0  0  0
   15.3045   16.2539   34.8681 C   0  0  1  0  0  0  0  0  0  0  0  0
   10.1948   22.0953   34.4153 N   0  0  0  0  0  0  0  0  0  0  0  0
   14.0699   16.9968   34.9244 O   0  0  0  0  0  0  0  0  0  0  0  0
   13.4555   17.0121   33.6205 C   0  0  1  0  0  0  0  0  0  0  0  0
   14.0044   23.2043   32.0513 N   0  0  0  0  0  0  0  0  0  0  0  0
   12.9772   18.3161   33.2492 O   0  0  0  0  0  0  0  0  0  0  0  0
   11.6661   18.6290   33.7491 C   0  0  2  0  0  0  0  0  0  0  0  0
   13.8917   19.6555   37.3717 N   0  0  0  0  0  0  0  0  0  0  0  0
   10.6268   16.8062   32.5445 O   0  0  0  0  0  0  0  0  0  0  0  0
   10.6191   18.2271   32.7028 C   0  0  1  0  0  0  0  0  0  0  0  0
   12.3692   20.4850   35.2067 O   0  0  0  0  0  0  0  0  0  0  0  0
    9.2169   18.6705   33.1267 C   0  0  1  0  0  0  0  0  0  0  0  0
   14.2534   21.3300   34.0628 O   0  0  0  0  0  0  0  0  0  0  0  0
    9.1691   20.1928   33.2747 C   0  0  0  0  0  0  0  0  0  0  0  0
   14.5990   24.3167   36.1906 O   0  0  0  0  0  0  0  0  0  0  0  0
   10.1715   20.6255   34.3466 C   0  0  1  0  0  0  0  0  0  0  0  0
   15.0449   22.1830   38.0618 O   0  0  0  0  0  0  0  0  0  0  0  0
   11.5900   20.1234   34.0557 C   0  0  2  0  0  0  0  0  0  0  0  0
   14.0897   16.0397   31.4371 O   0  0  0  0  0  0  0  0  0  0  0  0
   13.7854   20.3562   35.0144 C   0  0  1  0  0  0  0  0  0  0  0  0
   14.5324   14.3226   33.5830 O   0  0  0  0  0  0  0  0  0  0  0  0
   14.0537   22.6971   34.4617 C   0  0  2  0  0  0  0  0  0  0  0  0
   14.5648   23.6136   33.3473 C   0  0  0  0  0  0  0  0  0  0  0  0
   14.8148   22.9680   35.7643 C   0  0  2  0  0  0  0  0  0  0  0  0
   14.3136   22.0067   36.8442 C   0  0  1  0  0  0  0  0  0  0  0  0
   14.4709   20.5605   36.3692 C   0  0  1  0  0  0  0  0  0  0  0  0
   14.5737   16.5809   32.6702 C   0  0  2  0  0  0  0  0  0  0  0  0
   15.2907   15.5334   33.5200 C   0  0  1  0  0  0  0  0  0  0  0  0
  3  1  1  0  0  0  0
  4  1  1  6  0  0  0
  4  6  1  0  0  0  0
  4 31  1  0  0  0  0
  6  7  1  0  0  0  0
  7  9  1  6  0  0  0
  7 30  1  0  0  0  0
 10  9  1  6  0  0  0
 10 13  1  0  0  0  0
 10 21  1  0  0  0  0
 13 12  1  1  0  0  0
 13 15  1  0  0  0  0
 15  2  1  6  0  0  0
 15 17  1  0  0  0  0
 16 25  1  0  0  0  0
 17 19  1  0  0  0  0
 19  5  1  6  0  0  0
 19 21  1  0  0  0  0
 21 14  1  1  0  0  0
 23 14  1  1  0  0  0
 23 16  1  0  0  0  0
 23 29  1  0  0  0  0
 25 26  1  6  0  0  0
 25 27  1  0  0  0  0
 26  8  1  0  0  0  0
 27 18  1  1  0  0  0
 27 28  1  0  0  0  0
 28 20  1  1  0  0  0
 28 29  1  0  0  0  0
 29 11  1  1  0  0  0
 30 22  1  6  0  0  0
 30 31  1  0  0  0  0
 31 24  1  1  0  0  0
M  END
>  <CHROM.1>
-56.92610396,-84.42044504,-92.04207625,67.90356203,67.74814161,50.24281360
13.22692174,19.44320100,34.25414044,-1.71118397,-0.36664028,0.31699524

>  <Name>
2fcz_lig

>  <RI>
0

>  <Rbt.Current_Directory>
/home/itssahil/PROJECTS/Mol_Feturizer/New_Systems/rnas/2fcz

>  <Rbt.Executable>
rbdock ($Id: //depot/dev/client3/rdock/2013.1/src/exe/rbdock.cxx#4 $)

>  <Rbt.Library>
libRbt.so (2013.1, Build901 2013/11/27)

>  <Rbt.Parameter_File>
/export/apps/rDock/src/rDock_2013.1_src/data/scripts/dock_solv.prm

>  <Rbt.Receptor>
prm/blind_docking_80.prm

>  <SCORE>
-10.9607

>  <SCORE.INTER>
-9.04622

>  <SCORE.INTER.CONST>
1

>  <SCORE.INTER.POLAR>
-1.6782

>  <SCORE.INTER.ROT>
6

>  <SCORE.INTER.SOLV>
18.2166

>  <SCORE.INTER.VDW>
-14.109

>  <SCORE.INTER.norm>
-0.291814

>  <SCORE.INTRA>
-1.9379

>  <SCORE.INTRA.DIHEDRAL>
-3.22497

>  <SCORE.INTRA.DIHEDRAL.0>
10.8409

>  <SCORE.INTRA.POLAR>
0

>  <SCORE.INTRA.POLAR.0>
0

>  <SCORE.INTRA.REPUL>
0

>  <SCORE.INTRA.REPUL.0>
0

>  <SCORE.INTRA.SOLV>
-1.94013

>  <SCORE.INTRA.SOLV.lig_0>
-80.8302

>  <SCORE.INTRA.VDW>
0.644647

>  <SCORE.INTRA.VDW.0>
-4.23953

>  <SCORE.INTRA.norm>
-0.062513

>  <SCORE.RESTR>
0.0234361

>  <SCORE.RESTR.CAVITY>
0.0234361

>  <SCORE.RESTR.norm>
0.000756005

>  <SCORE.SYSTEM>
0

>  <SCORE.SYSTEM.CONST>
0

>  <SCORE.SYSTEM.DIHEDRAL>
0

>  <SCORE.SYSTEM.SOLV>
0

>  <SCORE.SYSTEM.norm>
0

>  <SCORE.heavy>
31

>  <SCORE.norm>
-0.353571

>  <RMSD>
6.732

$$$$
2fcz_lig
 OpenBabel11021811433D
libRbt.so/2013.1/901 2013/11/27
 31 33  0  0  0  0  0  0  0  0999 V2000
   10.2075   22.1354   32.5356 C   0  0  0  0  0  0  0  0  0  0  0  0
   15.9215   16.6347   35.6654 N   0  0  0  0  0  0  0  0  0  0  0  0
   11.2618   22.9824   33.0008 O   0  0  0  0  0  0  0  0  0  0  0  0
   10.1875   20.8407   33.3553 C   0  0  1  0  0  0  0  0  0  0  0  0
   17.9540   20.1523   32.9372 N   0  0  0  0  0  0  0  0  0  0  0  0
   11.4787   20.1986   33.3694 O   0  0  0  0  0  0  0  0  0  0  0  0
   12.0718   20.3354   34.6760 C   0  0  1  0  0  0  0  0  0  0  0  0
   16.7761   25.8174   33.8336 N   0  0  0  0  0  0  0  0  0  0  0  0
   13.4557   20.7210   34.6182 O   0  0  0  0  0  0  0  0  0  0  0  0
   14.3255   19.7193   34.0640 C   0  0  2  0  0  0  0  0  0  0  0  0
   13.4617   21.9793   30.5597 N   0  0  0  0  0  0  0  0  0  0  0  0
   13.4322   17.9715   35.4785 O   0  0  0  0  0  0  0  0  0  0  0  0
   14.6329   18.6691   35.1387 C   0  0  1  0  0  0  0  0  0  0  0  0
   15.3868   21.1801   32.3897 O   0  0  0  0  0  0  0  0  0  0  0  0
   15.6692   17.6583   34.6419 C   0  0  1  0  0  0  0  0  0  0  0  0
   15.5754   23.3473   33.3065 O   0  0  0  0  0  0  0  0  0  0  0  0
   16.9782   18.3728   34.2987 C   0  0  0  0  0  0  0  0  0  0  0  0
   17.4701   24.7264   30.4646 O   0  0  0  0  0  0  0  0  0  0  0  0
   16.7165   19.3985   33.1941 C   0  0  1  0  0  0  0  0  0  0  0  0
   14.9650   24.0291   29.2433 O   0  0  0  0  0  0  0  0  0  0  0  0
   15.6061   20.3869   33.5668 C   0  0  2  0  0  0  0  0  0  0  0  0
   11.3148   21.3956   36.7779 O   0  0  0  0  0  0  0  0  0  0  0  0
   14.7023   22.4163   32.6403 C   0  0  1  0  0  0  0  0  0  0  0  0
    9.3075   19.9802   35.4678 O   0  0  0  0  0  0  0  0  0  0  0  0
   16.7434   23.7137   32.5517 C   0  0  2  0  0  0  0  0  0  0  0  0
   17.5888   24.6751   33.3909 C   0  0  0  0  0  0  0  0  0  0  0  0
   16.3178   24.3850   31.2411 C   0  0  2  0  0  0  0  0  0  0  0  0
   15.4380   23.4167   30.4474 C   0  0  1  0  0  0  0  0  0  0  0  0
   14.2393   22.9859   31.2956 C   0  0  1  0  0  0  0  0  0  0  0  0
   11.2546   21.4394   35.3490 C   0  0  2  0  0  0  0  0  0  0  0  0
    9.8556   21.1307   34.8190 C   0  0  1  0  0  0  0  0  0  0  0  0
  3  1  1  0  0  0  0
  4  1  1  6  0  0  0
  4  6  1  0  0  0  0
  4 31  1  0  0  0  0
  6  7  1  0  0  0  0
  7  9  1  6  0  0  0
  7 30  1  0  0  0  0
 10  9  1  1  0  0  0
 10 13  1  0  0  0  0
 10 21  1  0  0  0  0
 13 12  1  6  0  0  0
 13 15  1  0  0  0  0
 15  2  1  1  0  0  0
 15 17  1  0  0  0  0
 16 25  1  0  0  0  0
 17 19  1  0  0  0  0
 19  5  1  1  0  0  0
 19 21  1  0  0  0  0
 21 14  1  6  0  0  0
 23 14  1  6  0  0  0
 23 16  1  0  0  0  0
 23 29  1  0  0  0  0
 25 26  1  1  0  0  0
 25 27  1  0  0  0  0
 26  8  1  0  0  0  0
 27 18  1  6  0  0  0
 27 28  1  0  0  0  0
 28 20  1  6  0  0  0
 28 29  1  0  0  0  0
 29 11  1  6  0  0  0
 30 22  1  1  0  0  0
 30 31  1  0  0  0  0
 31 24  1  1  0  0  0
M  END
>  <CHROM.1>
-53.23419181,-67.28849763,-79.71329525,73.90535882,72.61718119,-54.10101840
14.16769466,21.39922451,33.36753190,2.31261387,-0.16371004,2.59020229

>  <Name>
2fcz_lig

>  <RI>
1.40544e+07

>  <Rbt.Current_Directory>
/home/itssahil/PROJECTS/Mol_Feturizer/New_Systems/rnas/2fcz

>  <Rbt.Executable>
rbdock ($Id: //depot/dev/client3/rdock/2013.1/src/exe/rbdock.cxx#4 $)

>  <Rbt.Library>
libRbt.so (2013.1, Build901 2013/11/27)

>  <Rbt.Parameter_File>
/export/apps/rDock/src/rDock_2013.1_src/data/scripts/dock_solv.prm

>  <Rbt.Receptor>
prm/blind_docking_100.prm

>  <SCORE>
-13.4556

>  <SCORE.INTER>
-10.9632

>  <SCORE.INTER.CONST>
1

>  <SCORE.INTER.POLAR>
-0.813651

>  <SCORE.INTER.ROT>
6

>  <SCORE.INTER.SOLV>
14.9713

>  <SCORE.INTER.VDW>
-17.187

>  <SCORE.INTER.norm>
-0.35365

>  <SCORE.INTRA>
-2.4924

>  <SCORE.INTRA.DIHEDRAL>
-6.73678

>  <SCORE.INTRA.DIHEDRAL.0>
10.8409

>  <SCORE.INTRA.POLAR>
0

>  <SCORE.INTRA.POLAR.0>
0

>  <SCORE.INTRA.REPUL>
0

>  <SCORE.INTRA.REPUL.0>
0

>  <SCORE.INTRA.SOLV>
0.145461

>  <SCORE.INTRA.SOLV.lig_0>
-80.8302

>  <SCORE.INTRA.VDW>
0.803264

>  <SCORE.INTRA.VDW.0>
-4.23953

>  <SCORE.INTRA.norm>
-0.0803999

>  <SCORE.RESTR>
0

>  <SCORE.RESTR.CAVITY>
0

>  <SCORE.RESTR.norm>
0

>  <SCORE.SYSTEM>
0

>  <SCORE.SYSTEM.CONST>
0

>  <SCORE.SYSTEM.DIHEDRAL>
0

>  <SCORE.SYSTEM.SOLV>
0

>  <SCORE.SYSTEM.norm>
0

>  <SCORE.heavy>
31

>  <SCORE.norm>
-0.43405

>  <RMSD>
6.733

$$$$
2fcz_lig
 OpenBabel11021811433D
libRbt.so/2013.1/901 2013/11/27
 31 33  0  0  0  0  0  0  0  0999 V2000
   14.5515   21.6203   37.0744 C   0  0  0  0  0  0  0  0  0  0  0  0
    8.7232   19.9383   30.7709 N   0  0  0  0  0  0  0  0  0  0  0  0
   14.8313   20.2527   37.3854 O   0  0  0  0  0  0  0  0  0  0  0  0
   14.4667   21.7957   35.5544 C   0  0  1  0  0  0  0  0  0  0  0  0
    8.2227   17.0865   34.7159 N   0  0  0  0  0  0  0  0  0  0  0  0
   13.5223   20.8797   34.9638 O   0  0  0  0  0  0  0  0  0  0  0  0
   12.3527   21.6034   34.5324 C   0  0  1  0  0  0  0  0  0  0  0  0
    6.7996   18.8742   37.9558 N   0  0  0  0  0  0  0  0  0  0  0  0
   11.1281   20.9475   34.9028 O   0  0  0  0  0  0  0  0  0  0  0  0
   10.7386   19.8811   34.0207 C   0  0  2  0  0  0  0  0  0  0  0  0
   13.0774   17.6897   36.9770 N   0  0  0  0  0  0  0  0  0  0  0  0
   10.8574   21.2860   32.0545 O   0  0  0  0  0  0  0  0  0  0  0  0
    9.9751   20.4684   32.8272 C   0  0  1  0  0  0  0  0  0  0  0  0
   10.6303   18.1289   35.7475 O   0  0  0  0  0  0  0  0  0  0  0  0
    9.4147   19.3610   31.9317 C   0  0  1  0  0  0  0  0  0  0  0  0
    9.6825   19.0402   37.7081 O   0  0  0  0  0  0  0  0  0  0  0  0
    8.4412   18.4859   32.7244 C   0  0  0  0  0  0  0  0  0  0  0  0
    9.3256   15.7984   39.4202 O   0  0  0  0  0  0  0  0  0  0  0  0
    9.1830   17.8459   33.8996 C   0  0  1  0  0  0  0  0  0  0  0  0
   12.1740   16.0134   39.1144 O   0  0  0  0  0  0  0  0  0  0  0  0
    9.8728   18.8853   34.7899 C   0  0  2  0  0  0  0  0  0  0  0  0
   11.7161   23.9918   34.6031 O   0  0  0  0  0  0  0  0  0  0  0  0
   10.8996   18.8368   36.9663 C   0  0  1  0  0  0  0  0  0  0  0  0
   14.3723   23.5762   33.8815 O   0  0  0  0  0  0  0  0  0  0  0  0
    9.0246   17.8288   38.1176 C   0  0  2  0  0  0  0  0  0  0  0  0
    7.7382   18.1958   38.8615 C   0  0  0  0  0  0  0  0  0  0  0  0
    9.9554   17.0226   39.0304 C   0  0  2  0  0  0  0  0  0  0  0  0
   11.2488   16.7112   38.2744 C   0  0  1  0  0  0  0  0  0  0  0  0
   11.8944   18.0105   37.7876 C   0  0  1  0  0  0  0  0  0  0  0  0
   12.4556   22.9508   35.2488 C   0  0  2  0  0  0  0  0  0  0  0  0
   13.9627   23.1940   35.1972 C   0  0  1  0  0  0  0  0  0  0  0  0
  3  1  1  0  0  0  0
  4  1  1  1  0  0  0
  4  6  1  0  0  0  0
  4 31  1  0  0  0  0
  6  7  1  0  0  0  0
  7  9  1  1  0  0  0
  7 30  1  0  0  0  0
 10  9  1  1  0  0  0
 10 13  1  0  0  0  0
 10 21  1  0  0  0  0
 13 12  1  6  0  0  0
 13 15  1  0  0  0  0
 15  2  1  6  0  0  0
 15 17  1  0  0  0  0
 16 25  1  0  0  0  0
 17 19  1  0  0  0  0
 19  5  1  1  0  0  0
 19 21  1  0  0  0  0
 21 14  1  1  0  0  0
 23 14  1  6  0  0  0
 23 16  1  0  0  0  0
 23 29  1  0  0  0  0
 25 26  1  1  0  0  0
 25 27  1  0  0  0  0
 26  8  1  0  0  0  0
 27 18  1  6  0  0  0
 27 28  1  0  0  0  0
 28 20  1  1  0  0  0
 28 29  1  0  0  0  0
 29 11  1  6  0  0  0
 30 22  1  6  0  0  0
 30 31  1  0  0  0  0
 31 24  1  6  0  0  0
M  END
>  <CHROM.1>
53.99318247,-81.30744694,-84.26599895,79.47271651,68.21081764,64.39902874
11.04153352,19.57320499,35.72709213,-1.01875095,0.57614369,2.15308235

>  <Name>
2fcz_lig

>  <RI>
2.26996e+07

>  <Rbt.Current_Directory>
/home/itssahil/PROJECTS/Mol_Feturizer/New_Systems/rnas/2fcz

>  <Rbt.Executable>
rbdock ($Id: //depot/dev/client3/rdock/2013.1/src/exe/rbdock.cxx#4 $)

>  <Rbt.Library>
libRbt.so (2013.1, Build901 2013/11/27)

>  <Rbt.Parameter_File>
/export/apps/rDock/src/rDock_2013.1_src/data/scripts/dock_solv.prm

>  <Rbt.Receptor>
prm/pocket_docking_4.prm

>  <SCORE>
-15.0229

>  <SCORE.INTER>
-12.8443

>  <SCORE.INTER.CONST>
1

>  <SCORE.INTER.POLAR>
-2.40115

>  <SCORE.INTER.ROT>
6

>  <SCORE.INTER.SOLV>
12.9837

>  <SCORE.INTER.VDW>
-12.4869

>  <SCORE.INTER.norm>
-0.414333

>  <SCORE.INTRA>
-2.17857

>  <SCORE.INTRA.DIHEDRAL>
-3.96959

>  <SCORE.INTRA.DIHEDRAL.0>
10.8409

>  <SCORE.INTRA.POLAR>
0

>  <SCORE.INTRA.POLAR.0>
0

>  <SCORE.INTRA.REPUL>
0

>  <SCORE.INTRA.REPUL.0>
0

>  <SCORE.INTRA.SOLV>
-0.990966

>  <SCORE.INTRA.SOLV.lig_0>
-80.8302

>  <SCORE.INTRA.VDW>
0.301714

>  <SCORE.INTRA.VDW.0>
-4.23953

>  <SCORE.INTRA.norm>
-0.0702763

>  <SCORE.RESTR>
0

>  <SCORE.RESTR.CAVITY>
0

>  <SCORE.RESTR.norm>
0

>  <SCORE.SYSTEM>
0

>  <SCORE.SYSTEM.CONST>
0

>  <SCORE.SYSTEM.DIHEDRAL>
0

>  <SCORE.SYSTEM.SOLV>
0

>  <SCORE.SYSTEM.norm>
0

>  <SCORE.heavy>
31

>  <SCORE.norm>
-0.484609

>  <RMSD>
6.751

$$$$
2fcz_lig
 OpenBabel11021811433D
libRbt.so/2013.1/901 2013/11/27
 31 33  0  0  0  0  0  0  0  0999 V2000
   11.4810   20.5044   33.9018 C   0  0  0  0  0  0  0  0  0  0  0  0
    6.3857   16.8087   38.8640 N   0  0  0  0  0  0  0  0  0  0  0  0
   12.2891   21.5003   33.2689 O   0  0  0  0  0  0  0  0  0  0  0  0
   11.1618   20.9362   35.3372 C   0  0  1  0  0  0  0  0  0  0  0  0
    8.1290   14.2696   35.0612 N   0  0  0  0  0  0  0  0  0  0  0  0
   10.2887   19.9958   35.9951 O   0  0  0  0  0  0  0  0  0  0  0  0
   11.0292   19.2663   36.9937 C   0  0  1  0  0  0  0  0  0  0  0  0
   13.2394   12.6142   35.5727 N   0  0  0  0  0  0  0  0  0  0  0  0
   10.7622   17.8540   36.9591 O   0  0  0  0  0  0  0  0  0  0  0  0
    9.4048   17.5173   36.6258 C   0  0  2  0  0  0  0  0  0  0  0  0
   10.7417   17.6152   32.1675 N   0  0  0  0  0  0  0  0  0  0  0  0
    8.5064   18.6604   38.5597 O   0  0  0  0  0  0  0  0  0  0  0  0
    8.5871   17.3860   37.9167 C   0  0  1  0  0  0  0  0  0  0  0  0
    9.9232   16.3724   34.5082 O   0  0  0  0  0  0  0  0  0  0  0  0
    7.1696   16.8885   37.6238 C   0  0  1  0  0  0  0  0  0  0  0  0
   12.1381   16.1403   35.2914 O   0  0  0  0  0  0  0  0  0  0  0  0
    7.2225   15.5099   36.9618 C   0  0  0  0  0  0  0  0  0  0  0  0
   12.9958   13.3897   32.9965 O   0  0  0  0  0  0  0  0  0  0  0  0
    7.9939   15.6138   35.6447 C   0  0  1  0  0  0  0  0  0  0  0  0
   12.4631   15.5516   31.1811 O   0  0  0  0  0  0  0  0  0  0  0  0
    9.3924   16.2118   35.8331 C   0  0  2  0  0  0  0  0  0  0  0  0
   13.3827   19.3413   37.7491 O   0  0  0  0  0  0  0  0  0  0  0  0
   11.2477   16.9238   34.4750 C   0  0  1  0  0  0  0  0  0  0  0  0
   12.2834   21.8597   37.3035 O   0  0  0  0  0  0  0  0  0  0  0  0
   12.2912   14.7753   34.8656 C   0  0  2  0  0  0  0  0  0  0  0  0
   13.2324   14.0601   35.8381 C   0  0  0  0  0  0  0  0  0  0  0  0
   12.8678   14.7422   33.4458 C   0  0  2  0  0  0  0  0  0  0  0  0
   11.9284   15.5032   32.5078 C   0  0  1  0  0  0  0  0  0  0  0  0
   11.7246   16.9311   33.0192 C   0  0  1  0  0  0  0  0  0  0  0  0
   12.4951   19.5247   36.6418 C   0  0  2  0  0  0  0  0  0  0  0  0
   12.4328   20.9811   36.1852 C   0  0  1  0  0  0  0  0  0  0  0  0
  3  1  1  0  0  0  0
  4  1  1  6  0  0  0
  4  6  1  0  0  0  0
  4 31  1  0  0  0  0
  6  7  1  0  0  0  0
  7  9  1  6  0  0  0
  7 30  1  0  0  0  0
 10  9  1  1  0  0  0
 10 13  1  0  0  0  0
 10 21  1  0  0  0  0
 13 12  1  6  0  0  0
 13 15  1  0  0  0  0
 15  2  1  1  0  0  0
 15 17  1  0  0  0  0
 16 25  1  0  0  0  0
 17 19  1  0  0  0  0
 19  5  1  1  0  0  0
 19 21  1  0  0  0  0
 21 14  1  6  0  0  0
 23 14  1  6  0  0  0
 23 16  1  0  0  0  0
 23 29  1  0  0  0  0
 25 26  1  1  0  0  0
 25 27  1  0  0  0  0
 26  8  1  0  0  0  0
 27 18  1  6  0  0  0
 27 28  1  0  0  0  0
 28 20  1  6  0  0  0
 28 29  1  0  0  0  0
 29 11  1  6  0  0  0
 30 22  1  1  0  0  0
 30 31  1  0  0  0  0
 31 24  1  1  0  0  0
M  END
>  <CHROM.1>
176.94730666,-35.44807398,-91.86160984,55.57035009,54.57629567,170.55819226
10.84754557,17.29893364,35.45605603,-1.89945079,-0.69190434,-2.80520717

>  <Name>
2fcz_lig

>  <RI>
0

>  <Rbt.Current_Directory>
/home/itssahil/PROJECTS/Mol_Feturizer/New_Systems/rnas/2fcz

>  <Rbt.Executable>
rbdock ($Id: //depot/dev/client3/rdock/2013.1/src/exe/rbdock.cxx#4 $)

>  <Rbt.Library>
libRbt.so (2013.1, Build901 2013/11/27)

>  <Rbt.Parameter_File>
/export/apps/rDock/src/rDock_2013.1_src/data/scripts/dock_solv.prm

>  <Rbt.Receptor>
prm/pocket_docking_6.prm

>  <SCORE>
-11.7718

>  <SCORE.INTER>
-10.5305

>  <SCORE.INTER.CONST>
1

>  <SCORE.INTER.POLAR>
-2.51255

>  <SCORE.INTER.ROT>
6

>  <SCORE.INTER.SOLV>
11.5095

>  <SCORE.INTER.VDW>
-10.0817

>  <SCORE.INTER.norm>
-0.339695

>  <SCORE.INTRA>
-1.25455

>  <SCORE.INTRA.DIHEDRAL>
-3.61328

>  <SCORE.INTRA.DIHEDRAL.0>
10.8409

>  <SCORE.INTRA.POLAR>
0

>  <SCORE.INTRA.POLAR.0>
0

>  <SCORE.INTRA.REPUL>
0

>  <SCORE.INTRA.REPUL.0>
0

>  <SCORE.INTRA.SOLV>
-2.23762

>  <SCORE.INTRA.SOLV.lig_0>
-80.8302

>  <SCORE.INTRA.VDW>
1.6709

>  <SCORE.INTRA.VDW.0>
-4.23953

>  <SCORE.INTRA.norm>
-0.0404693

>  <SCORE.RESTR>
0.0132591

>  <SCORE.RESTR.CAVITY>
0.0132591

>  <SCORE.RESTR.norm>
0.000427713

>  <SCORE.SYSTEM>
0

>  <SCORE.SYSTEM.CONST>
0

>  <SCORE.SYSTEM.DIHEDRAL>
0

>  <SCORE.SYSTEM.SOLV>
0

>  <SCORE.SYSTEM.norm>
0

>  <SCORE.heavy>
31

>  <SCORE.norm>
-0.379736

>  <RMSD>
6.753

$$$$
2fcz_lig
 OpenBabel11021811433D
libRbt.so/2013.1/901 2013/11/27
 31 33  0  0  0  0  0  0  0  0999 V2000
   17.3938   17.5349   34.6419 C   0  0  0  0  0  0  0  0  0  0  0  0
   10.3659   20.9382   36.2238 N   0  0  0  0  0  0  0  0  0  0  0  0
   17.3628   18.6227   33.7139 O   0  0  0  0  0  0  0  0  0  0  0  0
   15.9720   17.0089   34.8663 C   0  0  1  0  0  0  0  0  0  0  0  0
   13.1704   24.2084   33.9027 N   0  0  0  0  0  0  0  0  0  0  0  0
   15.0202   18.0842   34.9975 O   0  0  0  0  0  0  0  0  0  0  0  0
   14.1922   18.1428   33.8191 C   0  0  1  0  0  0  0  0  0  0  0  0
   13.2706   23.4109   28.9553 N   0  0  0  0  0  0  0  0  0  0  0  0
   14.0226   19.4833   33.3278 O   0  0  0  0  0  0  0  0  0  0  0  0
   13.6544   20.4399   34.3358 C   0  0  2  0  0  0  0  0  0  0  0  0
   17.9184   22.4442   33.4667 N   0  0  0  0  0  0  0  0  0  0  0  0
   12.1640   18.8925   35.4484 O   0  0  0  0  0  0  0  0  0  0  0  0
   12.2170   20.1619   34.7927 C   0  0  1  0  0  0  0  0  0  0  0  0
   15.1544   22.2344   33.5653 O   0  0  0  0  0  0  0  0  0  0  0  0
   11.7276   21.2406   35.7619 C   0  0  1  0  0  0  0  0  0  0  0  0
   15.0385   21.2760   31.4110 O   0  0  0  0  0  0  0  0  0  0  0  0
   11.7439   22.6091   35.0773 C   0  0  0  0  0  0  0  0  0  0  0  0
   15.6962   24.4314   29.6280 O   0  0  0  0  0  0  0  0  0  0  0  0
   13.1748   22.9397   34.6483 C   0  0  1  0  0  0  0  0  0  0  0  0
   18.1295   24.0509   31.1070 O   0  0  0  0  0  0  0  0  0  0  0  0
   13.7847   21.8491   33.7610 C   0  0  2  0  0  0  0  0  0  0  0  0
   14.1030   16.8031   31.7426 O   0  0  0  0  0  0  0  0  0  0  0  0
   15.8479   21.4423   32.5901 C   0  0  1  0  0  0  0  0  0  0  0  0
   14.4714   15.2670   34.0348 O   0  0  0  0  0  0  0  0  0  0  0  0
   14.7135   22.5021   30.7333 C   0  0  2  0  0  0  0  0  0  0  0  0
   13.8288   22.1770   29.5273 C   0  0  0  0  0  0  0  0  0  0  0  0
   16.0030   23.1933   30.2763 C   0  0  2  0  0  0  0  0  0  0  0  0
   16.8844   23.4632   31.4977 C   0  0  1  0  0  0  0  0  0  0  0  0
   17.1589   22.1547   32.2424 C   0  0  1  0  0  0  0  0  0  0  0  0
   14.9452   17.3039   32.7853 C   0  0  2  0  0  0  0  0  0  0  0  0
   15.5022   16.1871   33.6661 C   0  0  1  0  0  0  0  0  0  0  0  0
  3  1  1  0  0  0  0
  4  1  1  6  0  0  0
  4  6  1  0  0  0  0
  4 31  1  0  0  0  0
  6  7  1  0  0  0  0
  7  9  1  6  0  0  0
  7 30  1  0  0  0  0
 10  9  1  6  0  0  0
 10 13  1  0  0  0  0
 10 21  1  0  0  0  0
 13 12  1  1  0  0  0
 13 15  1  0  0  0  0
 15  2  1  6  0  0  0
 15 17  1  0  0  0  0
 16 25  1  0  0  0  0
 17 19  1  0  0  0  0
 19  5  1  6  0  0  0
 19 21  1  0  0  0  0
 21 14  1  1  0  0  0
 23 14  1  1  0  0  0
 23 16  1  0  0  0  0
 23 29  1  0  0  0  0
 25 26  1  6  0  0  0
 25 27  1  0  0  0  0
 26  8  1  0  0  0  0
 27 18  1  1  0  0  0
 27 28  1  0  0  0  0
 28 20  1  6  0  0  0
 28 29  1  0  0  0  0
 29 11  1  1  0  0  0
 30 22  1  6  0  0  0
 30 31  1  0  0  0  0
 31 24  1  1  0  0  0
M  END
>  <CHROM.1>
-42.35686473,-48.51493313,-69.95214695,64.32037816,45.85175124,169.50257973
14.68487466,20.63019800,33.09973839,-1.77946989,0.58183686,-0.40291885

>  <Name>
2fcz_lig

>  <RI>
2.6968e+07

>  <Rbt.Current_Directory>
/home/itssahil/PROJECTS/Mol_Feturizer/New_Systems/rnas/2fcz

>  <Rbt.Executable>
rbdock ($Id: //depot/dev/client3/rdock/2013.1/src/exe/rbdock.cxx#4 $)

>  <Rbt.Library>
libRbt.so (2013.1, Build901 2013/11/27)

>  <Rbt.Parameter_File>
/export/apps/rDock/src/rDock_2013.1_src/data/scripts/dock_solv.prm

>  <Rbt.Receptor>
prm/blind_docking_60.prm

>  <SCORE>
-19.6277

>  <SCORE.INTER>
-17.6126

>  <SCORE.INTER.CONST>
1

>  <SCORE.INTER.POLAR>
-2.05046

>  <SCORE.INTER.ROT>
6

>  <SCORE.INTER.SOLV>
19.2252

>  <SCORE.INTER.VDW>
-18.9152

>  <SCORE.INTER.norm>
-0.568147

>  <SCORE.INTRA>
-2.01901

>  <SCORE.INTRA.DIHEDRAL>
-7.11092

>  <SCORE.INTRA.DIHEDRAL.0>
10.8409

>  <SCORE.INTRA.POLAR>
0

>  <SCORE.INTRA.POLAR.0>
0

>  <SCORE.INTRA.REPUL>
0

>  <SCORE.INTRA.REPUL.0>
0

>  <SCORE.INTRA.SOLV>
-1.65452

>  <SCORE.INTRA.SOLV.lig_0>
-80.8302

>  <SCORE.INTRA.VDW>
2.36371

>  <SCORE.INTRA.VDW.0>
-4.23953

>  <SCORE.INTRA.norm>
-0.0651293

>  <SCORE.RESTR>
0.00384575

>  <SCORE.RESTR.CAVITY>
0.00384575

>  <SCORE.RESTR.norm>
0.000124057

>  <SCORE.SYSTEM>
0

>  <SCORE.SYSTEM.CONST>
0

>  <SCORE.SYSTEM.DIHEDRAL>
0

>  <SCORE.SYSTEM.SOLV>
0

>  <SCORE.SYSTEM.norm>
0

>  <SCORE.heavy>
31

>  <SCORE.norm>
-0.633152

>  <RMSD>
6.755

$$$$
2fcz_lig
 OpenBabel11021811433D
libRbt.so/2013.1/901 2013/11/27
 31 33  0  0  0  0  0  0  0  0999 V2000
   14.8784   17.7533   36.9795 C   0  0  0  0  0  0  0  0  0  0  0  0
   11.6377   21.9062   37.1228 N   0  0  0  0  0  0  0  0  0  0  0  0
   15.3366   19.0488   37.3762 O   0  0  0  0  0  0  0  0  0  0  0  0
   14.7639   17.6930   35.4525 C   0  0  1  0  0  0  0  0  0  0  0  0
   11.3767   21.1841   32.2898 N   0  0  0  0  0  0  0  0  0  0  0  0
   14.3745   18.9653   34.8963 O   0  0  0  0  0  0  0  0  0  0  0  0
   15.4965   19.5566   34.2112 C   0  0  1  0  0  0  0  0  0  0  0  0
   16.2820   24.2868   35.0736 N   0  0  0  0  0  0  0  0  0  0  0  0
   15.6611   20.9512   34.5199 O   0  0  0  0  0  0  0  0  0  0  0  0
   14.4364   21.7040   34.5240 C   0  0  2  0  0  0  0  0  0  0  0  0
   13.6821   22.4907   29.4492 N   0  0  0  0  0  0  0  0  0  0  0  0
   14.4616   21.9844   36.9270 O   0  0  0  0  0  0  0  0  0  0  0  0
   13.6955   21.4530   35.8432 C   0  0  1  0  0  0  0  0  0  0  0  0
   14.1328   21.7384   32.0805 O   0  0  0  0  0  0  0  0  0  0  0  0
   12.3175   22.1190   35.8376 C   0  0  1  0  0  0  0  0  0  0  0  0
   14.6394   23.9470   32.7426 O   0  0  0  0  0  0  0  0  0  0  0  0
   11.4618   21.5474   34.7050 C   0  0  0  0  0  0  0  0  0  0  0  0
   17.9721   23.9880   31.1745 O   0  0  0  0  0  0  0  0  0  0  0  0
   12.1508   21.8216   33.3667 C   0  0  1  0  0  0  0  0  0  0  0  0
   16.2382   23.6602   28.9075 O   0  0  0  0  0  0  0  0  0  0  0  0
   13.5851   21.2830   33.3277 C   0  0  2  0  0  0  0  0  0  0  0  0
   17.8259   18.8214   33.8263 O   0  0  0  0  0  0  0  0  0  0  0  0
   13.9000   23.1296   31.8163 C   0  0  1  0  0  0  0  0  0  0  0  0
   15.9576   16.7800   33.5240 O   0  0  0  0  0  0  0  0  0  0  0  0
   16.0668   23.7871   32.6708 C   0  0  2  0  0  0  0  0  0  0  0  0
   16.7154   24.6857   33.7266 C   0  0  0  0  0  0  0  0  0  0  0  0
   16.5565   24.1728   31.2705 C   0  0  2  0  0  0  0  0  0  0  0  0
   15.8567   23.2887   30.2360 C   0  0  1  0  0  0  0  0  0  0  0  0
   14.3387   23.4214   30.3778 C   0  0  1  0  0  0  0  0  0  0  0  0
   16.7063   18.7684   34.7158 C   0  0  2  0  0  0  0  0  0  0  0  0
   16.1159   17.3634   34.8199 C   0  0  1  0  0  0  0  0  0  0  0  0
  3  1  1  0  0  0  0
  4  1  1  1  0  0  0
  4  6  1  0  0  0  0
  4 31  1  0  0  0  0
  6  7  1  0  0  0  0
  7  9  1  1  0  0  0
  7 30  1  0  0  0  0
 10  9  1  1  0  0  0
 10 13  1  0  0  0  0
 10 21  1  0  0  0  0
 13 12  1  1  0  0  0
 13 15  1  0  0  0  0
 15  2  1  1  0  0  0
 15 17  1  0  0  0  0
 16 25  1  0  0  0  0
 17 19  1  0  0  0  0
 19  5  1  6  0  0  0
 19 21  1  0  0  0  0
 21 14  1  6  0  0  0
 23 14  1  1  0  0  0
 23 16  1  0  0  0  0
 23 29  1  0  0  0  0
 25 26  1  1  0  0  0
 25 27  1  0  0  0  0
 26  8  1  0  0  0  0
 27 18  1  1  0  0  0
 27 28  1  0  0  0  0
 28 20  1  6  0  0  0
 28 29  1  0  0  0  0
 29 11  1  6  0  0  0
 30 22  1  6  0  0  0
 30 31  1  0  0  0  0
 31 24  1  6  0  0  0
M  END
>  <CHROM.1>
-33.48729265,-43.73902093,78.99327117,-77.23931846,67.77115821,61.78160757
14.83587843,21.37827943,33.67412064,-1.70243915,0.61491509,-0.71353095

>  <Name>
2fcz_lig

>  <RI>
0

>  <Rbt.Current_Directory>
/home/itssahil/PROJECTS/Mol_Feturizer/New_Systems/rnas/2fcz

>  <Rbt.Executable>
rbdock ($Id: //depot/dev/client3/rdock/2013.1/src/exe/rbdock.cxx#4 $)

>  <Rbt.Library>
libRbt.so (2013.1, Build901 2013/11/27)

>  <Rbt.Parameter_File>
/export/apps/rDock/src/rDock_2013.1_src/data/scripts/dock_solv.prm

>  <Rbt.Receptor>
prm/blind_docking_80.prm

>  <SCORE>
-9.3138

>  <SCORE.INTER>
-12.3803

>  <SCORE.INTER.CONST>
1

>  <SCORE.INTER.POLAR>
-1.80531

>  <SCORE.INTER.ROT>
6

>  <SCORE.INTER.SOLV>
19.2818

>  <SCORE.INTER.VDW>
-16.2631

>  <SCORE.INTER.norm>
-0.399365

>  <SCORE.INTRA>
3.0665

>  <SCORE.INTRA.DIHEDRAL>
-4.03202

>  <SCORE.INTRA.DIHEDRAL.0>
10.8409

>  <SCORE.INTRA.POLAR>
0

>  <SCORE.INTRA.POLAR.0>
0

>  <SCORE.INTRA.REPUL>
0

>  <SCORE.INTRA.REPUL.0>
0

>  <SCORE.INTRA.SOLV>
1.3169

>  <SCORE.INTRA.SOLV.lig_0>
-80.8302

>  <SCORE.INTRA.VDW>
4.42406

>  <SCORE.INTRA.VDW.0>
-4.23953

>  <SCORE.INTRA.norm>
0.0989194

>  <SCORE.RESTR>
0

>  <SCORE.RESTR.CAVITY>
0

>  <SCORE.RESTR.norm>
0

>  <SCORE.SYSTEM>
0

>  <SCORE.SYSTEM.CONST>
0

>  <SCORE.SYSTEM.DIHEDRAL>
0

>  <SCORE.SYSTEM.SOLV>
0

>  <SCORE.SYSTEM.norm>
0

>  <SCORE.heavy>
31

>  <SCORE.norm>
-0.300445

>  <RMSD>
6.757

$$$$
2fcz_lig
 OpenBabel11021811433D
libRbt.so/2013.1/901 2013/11/27
 31 33  0  0  0  0  0  0  0  0999 V2000
    6.7612   21.3193   29.9555 C   0  0  0  0  0  0  0  0  0  0  0  0
    8.5520   15.5658   30.9280 N   0  0  0  0  0  0  0  0  0  0  0  0
    6.6041   20.2427   29.0272 O   0  0  0  0  0  0  0  0  0  0  0  0
    6.5039   20.8135   31.3790 C   0  0  1  0  0  0  0  0  0  0  0  0
    9.4606   16.4121   35.6614 N   0  0  0  0  0  0  0  0  0  0  0  0
    7.4650   19.8123   31.7709 O   0  0  0  0  0  0  0  0  0  0  0  0
    8.3667   20.3656   32.7500 C   0  0  1  0  0  0  0  0  0  0  0  0
   14.0964   22.0321   32.9071 N   0  0  0  0  0  0  0  0  0  0  0  0
    9.7418   20.0434   32.4805 O   0  0  0  0  0  0  0  0  0  0  0  0
   10.0595   18.6480   32.6175 C   0  0  2  0  0  0  0  0  0  0  0  0
   12.6788   17.3662   36.4642 N   0  0  0  0  0  0  0  0  0  0  0  0
    9.5070   18.1598   30.3131 O   0  0  0  0  0  0  0  0  0  0  0  0
    9.1746   17.8343   31.6650 C   0  0  1  0  0  0  0  0  0  0  0  0
   10.8268   18.7742   34.9540 O   0  0  0  0  0  0  0  0  0  0  0  0
    9.3735   16.3314   31.8757 C   0  0  1  0  0  0  0  0  0  0  0  0
   12.5077   19.8847   33.7235 O   0  0  0  0  0  0  0  0  0  0  0  0
    8.9956   15.9467   33.3078 C   0  0  0  0  0  0  0  0  0  0  0  0
   13.4445   22.1658   36.4598 O   0  0  0  0  0  0  0  0  0  0  0  0
    9.8926   16.7077   34.2861 C   0  0  1  0  0  0  0  0  0  0  0  0
   14.1022   19.5949   37.5602 O   0  0  0  0  0  0  0  0  0  0  0  0
    9.8393   18.2238   34.0682 C   0  0  2  0  0  0  0  0  0  0  0  0
    8.5446   22.5843   33.8272 O   0  0  0  0  0  0  0  0  0  0  0  0
   12.1689   18.6905   34.4530 C   0  0  1  0  0  0  0  0  0  0  0  0
    5.9237   21.6760   33.5919 O   0  0  0  0  0  0  0  0  0  0  0  0
   12.4760   21.0906   34.5064 C   0  0  2  0  0  0  0  0  0  0  0  0
   12.8223   22.2742   33.5996 C   0  0  0  0  0  0  0  0  0  0  0  0
   13.4879   20.9849   35.6529 C   0  0  2  0  0  0  0  0  0  0  0  0
   13.1418   19.7678   36.5132 C   0  0  1  0  0  0  0  0  0  0  0  0
   13.1125   18.5072   35.6460 C   0  0  1  0  0  0  0  0  0  0  0  0
    8.1590   21.8773   32.6444 C   0  0  2  0  0  0  0  0  0  0  0  0
    6.6540   21.9477   32.3928 C   0  0  1  0  0  0  0  0  0  0  0  0
  3  1  1  0  0  0  0
  4  1  1  6  0  0  0
  4  6  1  0  0  0  0
  4 31  1  0  0  0  0
  6  7  1  0  0  0  0
  7  9  1  6  0  0  0
  7 30  1  0  0  0  0
 10  9  1  1  0  0  0
 10 13  1  0  0  0  0
 10 21  1  0  0  0  0
 13 12  1  6  0  0  0
 13 15  1  0  0  0  0
 15  2  1  6  0  0  0
 15 17  1  0  0  0  0
 16 25  1  0  0  0  0
 17 19  1  0  0  0  0
 19  5  1  1  0  0  0
 19 21  1  0  0  0  0
 21 14  1  1  0  0  0
 23 14  1  1  0  0  0
 23 16  1  0  0  0  0
 23 29  1  0  0  0  0
 25 26  1  6  0  0  0
 25 27  1  0  0  0  0
 26  8  1  0  0  0  0
 27 18  1  1  0  0  0
 27 28  1  0  0  0  0
 28 20  1  1  0  0  0
 28 29  1  0  0  0  0
 29 11  1  1  0  0  0
 30 22  1  1  0  0  0
 30 31  1  0  0  0  0
 31 24  1  1  0  0  0
M  END
>  <CHROM.1>
63.00136750,-67.06845725,58.38106738,-44.37204198,91.73115008,-53.74004289
10.12986632,19.57509448,33.44245801,3.13868129,0.66000104,3.13485226

>  <Name>
2fcz_lig

>  <RI>
2.29611e+07

>  <Rbt.Current_Directory>
/home/itssahil/PROJECTS/Mol_Feturizer/New_Systems/rnas/2fcz

>  <Rbt.Executable>
rbdock ($Id: //depot/dev/client3/rdock/2013.1/src/exe/rbdock.cxx#4 $)

>  <Rbt.Library>
libRbt.so (2013.1, Build901 2013/11/27)

>  <Rbt.Parameter_File>
/export/apps/rDock/src/rDock_2013.1_src/data/scripts/dock_solv.prm

>  <Rbt.Receptor>
prm/pocket_docking_3.prm

>  <SCORE>
-10.9305

>  <SCORE.INTER>
-11.8048

>  <SCORE.INTER.CONST>
1

>  <SCORE.INTER.POLAR>
-0.902307

>  <SCORE.INTER.ROT>
6

>  <SCORE.INTER.SOLV>
19.307

>  <SCORE.INTER.VDW>
-18.8978

>  <SCORE.INTER.norm>
-0.380799

>  <SCORE.INTRA>
0.873073

>  <SCORE.INTRA.DIHEDRAL>
-5.21799

>  <SCORE.INTRA.DIHEDRAL.0>
10.8409

>  <SCORE.INTRA.POLAR>
0

>  <SCORE.INTRA.POLAR.0>
0

>  <SCORE.INTRA.REPUL>
0

>  <SCORE.INTRA.REPUL.0>
0

>  <SCORE.INTRA.SOLV>
-0.364736

>  <SCORE.INTRA.SOLV.lig_0>
-80.8302

>  <SCORE.INTRA.VDW>
3.66443

>  <SCORE.INTRA.VDW.0>
-4.23953

>  <SCORE.INTRA.norm>
0.0281636

>  <SCORE.RESTR>
0.00124266

>  <SCORE.RESTR.CAVITY>
0.00124266

>  <SCORE.RESTR.norm>
4.00858e-05

>  <SCORE.SYSTEM>
0

>  <SCORE.SYSTEM.CONST>
0

>  <SCORE.SYSTEM.DIHEDRAL>
0

>  <SCORE.SYSTEM.SOLV>
0

>  <SCORE.SYSTEM.norm>
0

>  <SCORE.heavy>
31

>  <SCORE.norm>
-0.352595

>  <RMSD>
6.757

$$$$
2fcz_lig
 OpenBabel11021811433D
libRbt.so/2013.1/901 2013/11/27
 31 33  0  0  0  0  0  0  0  0999 V2000
   11.2901   16.1162   32.4608 C   0  0  0  0  0  0  0  0  0  0  0  0
   13.7106   18.5652   37.9481 N   0  0  0  0  0  0  0  0  0  0  0  0
   10.3301   17.1737   32.3861 O   0  0  0  0  0  0  0  0  0  0  0  0
   11.0990   15.3388   33.7676 C   0  0  1  0  0  0  0  0  0  0  0  0
    9.9950   16.6004   40.4543 N   0  0  0  0  0  0  0  0  0  0  0  0
   11.1166   16.2121   34.9150 O   0  0  0  0  0  0  0  0  0  0  0  0
    9.7865   16.3204   35.4599 C   0  0  1  0  0  0  0  0  0  0  0  0
    7.6561   13.0925   38.4717 N   0  0  0  0  0  0  0  0  0  0  0  0
    9.4258   17.6762   35.7743 O   0  0  0  0  0  0  0  0  0  0  0  0
   10.0317   18.1856   36.9745 C   0  0  2  0  0  0  0  0  0  0  0  0
    6.2246   19.3600   37.8006 N   0  0  0  0  0  0  0  0  0  0  0  0
   11.9474   19.0698   35.7905 O   0  0  0  0  0  0  0  0  0  0  0  0
   11.5573   18.1572   36.8196 C   0  0  1  0  0  0  0  0  0  0  0  0
    8.2028   17.5433   38.4932 O   0  0  0  0  0  0  0  0  0  0  0  0
   12.2518   18.5555   38.1240 C   0  0  1  0  0  0  0  0  0  0  0  0
    7.0703   15.7469   37.4622 O   0  0  0  0  0  0  0  0  0  0  0  0
   11.8771   17.5769   39.2392 C   0  0  0  0  0  0  0  0  0  0  0  0
    4.5161   15.4321   40.0975 O   0  0  0  0  0  0  0  0  0  0  0  0
   10.3625   17.6136   39.4524 C   0  0  1  0  0  0  0  0  0  0  0  0
    4.0095   18.0676   39.0723 O   0  0  0  0  0  0  0  0  0  0  0  0
    9.5846   17.3348   38.1617 C   0  0  2  0  0  0  0  0  0  0  0  0
    7.6114   15.3268   34.8304 O   0  0  0  0  0  0  0  0  0  0  0  0
    7.2914   17.1695   37.4497 C   0  0  1  0  0  0  0  0  0  0  0  0
    9.7323   13.5298   34.6826 O   0  0  0  0  0  0  0  0  0  0  0  0
    6.4771   15.2464   38.6728 C   0  0  2  0  0  0  0  0  0  0  0  0
    6.3327   13.7269   38.5573 C   0  0  0  0  0  0  0  0  0  0  0  0
    5.1047   15.8971   38.8790 C   0  0  2  0  0  0  0  0  0  0  0  0
    5.2775   17.4161   38.9446 C   0  0  1  0  0  0  0  0  0  0  0  0
    5.9737   17.9173   37.6773 C   0  0  1  0  0  0  0  0  0  0  0  0
    8.8784   15.7871   34.3507 C   0  0  2  0  0  0  0  0  0  0  0  0
    9.7343   14.6506   33.7945 C   0  0  1  0  0  0  0  0  0  0  0  0
  3  1  1  0  0  0  0
  4  1  1  6  0  0  0
  4  6  1  0  0  0  0
  4 31  1  0  0  0  0
  6  7  1  0  0  0  0
  7  9  1  6  0  0  0
  7 30  1  0  0  0  0
 10  9  1  6  0  0  0
 10 13  1  0  0  0  0
 10 21  1  0  0  0  0
 13 12  1  6  0  0  0
 13 15  1  0  0  0  0
 15  2  1  6  0  0  0
 15 17  1  0  0  0  0
 16 25  1  0  0  0  0
 17 19  1  0  0  0  0
 19  5  1  1  0  0  0
 19 21  1  0  0  0  0
 21 14  1  1  0  0  0
 23 14  1  1  0  0  0
 23 16  1  0  0  0  0
 23 29  1  0  0  0  0
 25 26  1  6  0  0  0
 25 27  1  0  0  0  0
 26  8  1  0  0  0  0
 27 18  1  1  0  0  0
 27 28  1  0  0  0  0
 28 20  1  6  0  0  0
 28 29  1  0  0  0  0
 29 11  1  1  0  0  0
 30 22  1  1  0  0  0
 30 31  1  0  0  0  0
 31 24  1  1  0  0  0
M  END
>  <CHROM.1>
-53.35952619,-75.90717328,60.50246177,62.65438304,80.93640523,64.53765264
8.83416376,16.64919067,36.96826614,0.48459112,-0.40910137,-2.08791368

>  <Name>
2fcz_lig

>  <RI>
0

>  <Rbt.Current_Directory>
/home/itssahil/PROJECTS/Mol_Feturizer/New_Systems/rnas/2fcz

>  <Rbt.Executable>
rbdock ($Id: //depot/dev/client3/rdock/2013.1/src/exe/rbdock.cxx#4 $)

>  <Rbt.Library>
libRbt.so (2013.1, Build901 2013/11/27)

>  <Rbt.Parameter_File>
/export/apps/rDock/src/rDock_2013.1_src/data/scripts/dock_solv.prm

>  <Rbt.Receptor>
prm/pocket_docking_6.prm

>  <SCORE>
-15.0114

>  <SCORE.INTER>
-12.431

>  <SCORE.INTER.CONST>
1

>  <SCORE.INTER.POLAR>
-2.183

>  <SCORE.INTER.ROT>
6

>  <SCORE.INTER.SOLV>
14.5869

>  <SCORE.INTER.VDW>
-13.473

>  <SCORE.INTER.norm>
-0.401001

>  <SCORE.INTRA>
-2.58031

>  <SCORE.INTRA.DIHEDRAL>
-7.30171

>  <SCORE.INTRA.DIHEDRAL.0>
10.8409

>  <SCORE.INTRA.POLAR>
0

>  <SCORE.INTRA.POLAR.0>
0

>  <SCORE.INTRA.REPUL>
0

>  <SCORE.INTRA.REPUL.0>
0

>  <SCORE.INTRA.SOLV>
-2.34417

>  <SCORE.INTRA.SOLV.lig_0>
-80.8302

>  <SCORE.INTRA.VDW>
2.24263

>  <SCORE.INTRA.VDW.0>
-4.23953

>  <SCORE.INTRA.norm>
-0.0832359

>  <SCORE.RESTR>
0

>  <SCORE.RESTR.CAVITY>
0

>  <SCORE.RESTR.norm>
0

>  <SCORE.SYSTEM>
0

>  <SCORE.SYSTEM.CONST>
0

>  <SCORE.SYSTEM.DIHEDRAL>
0

>  <SCORE.SYSTEM.SOLV>
0

>  <SCORE.SYSTEM.norm>
0

>  <SCORE.heavy>
31

>  <SCORE.norm>
-0.484237

>  <RMSD>
6.757

$$$$
2fcz_lig
 OpenBabel11021811433D
libRbt.so/2013.1/901 2013/11/27
 31 33  0  0  0  0  0  0  0  0999 V2000
    8.7907   18.1662   31.8383 C   0  0  0  0  0  0  0  0  0  0  0  0
   14.3202   18.7053   37.7437 N   0  0  0  0  0  0  0  0  0  0  0  0
   10.1110   17.8110   32.2579 O   0  0  0  0  0  0  0  0  0  0  0  0
    8.1274   19.0389   32.9092 C   0  0  1  0  0  0  0  0  0  0  0  0
   10.4861   17.5819   40.5695 N   0  0  0  0  0  0  0  0  0  0  0  0
    8.1196   18.3893   34.1967 O   0  0  0  0  0  0  0  0  0  0  0  0
    9.0611   19.0411   35.0722 C   0  0  1  0  0  0  0  0  0  0  0  0
    9.1425   14.0270   38.5846 N   0  0  0  0  0  0  0  0  0  0  0  0
    9.8766   18.1081   35.8013 O   0  0  0  0  0  0  0  0  0  0  0  0
   10.5878   18.6852   36.9095 C   0  0  2  0  0  0  0  0  0  0  0  0
    6.3302   19.8202   38.3133 N   0  0  0  0  0  0  0  0  0  0  0  0
   12.5526   19.1518   35.5769 O   0  0  0  0  0  0  0  0  0  0  0  0
   12.0905   18.4387   36.7267 C   0  0  1  0  0  0  0  0  0  0  0  0
    8.7527   18.4884   38.5396 O   0  0  0  0  0  0  0  0  0  0  0  0
   12.8797   18.9084   37.9509 C   0  0  1  0  0  0  0  0  0  0  0  0
    7.8238   16.4435   37.8126 O   0  0  0  0  0  0  0  0  0  0  0  0
   12.4279   18.1396   39.1945 C   0  0  0  0  0  0  0  0  0  0  0  0
    6.0571   15.7606   40.9717 O   0  0  0  0  0  0  0  0  0  0  0  0
   10.9395   18.4004   39.4337 C   0  0  1  0  0  0  0  0  0  0  0  0
    4.7851   18.1751   40.0742 O   0  0  0  0  0  0  0  0  0  0  0  0
   10.0833   18.0607   38.2089 C   0  0  2  0  0  0  0  0  0  0  0  0
   10.5858   20.9671   34.7884 O   0  0  0  0  0  0  0  0  0  0  0  0
    7.7297   17.8783   37.7392 C   0  0  1  0  0  0  0  0  0  0  0  0
    8.0755   21.3671   33.6535 O   0  0  0  0  0  0  0  0  0  0  0  0
    7.6393   15.9007   39.1315 C   0  0  2  0  0  0  0  0  0  0  0  0
    7.7981   14.3798   39.0633 C   0  0  0  0  0  0  0  0  0  0  0  0
    6.2430   16.2673   39.6466 C   0  0  2  0  0  0  0  0  0  0  0  0
    6.1001   17.7907   39.6596 C   0  0  1  0  0  0  0  0  0  0  0  0
    6.3697   18.3521   38.2617 C   0  0  1  0  0  0  0  0  0  0  0  0
    9.9379   19.8720   34.1340 C   0  0  2  0  0  0  0  0  0  0  0  0
    8.9065   20.3389   33.1085 C   0  0  1  0  0  0  0  0  0  0  0  0
  3  1  1  0  0  0  0
  4  1  1  6  0  0  0
  4  6  1  0  0  0  0
  4 31  1  0  0  0  0
  6  7  1  0  0  0  0
  7  9  1  6  0  0  0
  7 30  1  0  0  0  0
 10  9  1  6  0  0  0
 10 13  1  0  0  0  0
 10 21  1  0  0  0  0
 13 12  1  6  0  0  0
 13 15  1  0  0  0  0
 15  2  1  6  0  0  0
 15 17  1  0  0  0  0
 16 25  1  0  0  0  0
 17 19  1  0  0  0  0
 19  5  1  1  0  0  0
 19 21  1  0  0  0  0
 21 14  1  1  0  0  0
 23 14  1  1  0  0  0
 23 16  1  0  0  0  0
 23 29  1  0  0  0  0
 25 26  1  6  0  0  0
 25 27  1  0  0  0  0
 26  8  1  0  0  0  0
 27 18  1  1  0  0  0
 27 28  1  0  0  0  0
 28 20  1  6  0  0  0
 28 29  1  0  0  0  0
 29 11  1  1  0  0  0
 30 22  1  1  0  0  0
 30 31  1  0  0  0  0
 31 24  1  1  0  0  0
M  END
>  <CHROM.1>
-55.70167179,-165.50330920,-122.65798964,74.96718745,55.36535999,60.51962626
9.10244696,18.15150062,36.99706485,1.13407607,-0.11750610,-1.17439463

>  <Name>
2fcz_lig

>  <RI>
1.32928e+07

>  <Rbt.Current_Directory>
/home/itssahil/PROJECTS/Mol_Feturizer/New_Systems/rnas/2fcz

>  <Rbt.Executable>
rbdock ($Id: //depot/dev/client3/rdock/2013.1/src/exe/rbdock.cxx#4 $)

>  <Rbt.Library>
libRbt.so (2013.1, Build901 2013/11/27)

>  <Rbt.Parameter_File>
/export/apps/rDock/src/rDock_2013.1_src/data/scripts/dock_solv.prm

>  <Rbt.Receptor>
prm/pocket_docking_7.prm

>  <SCORE>
-17.9163

>  <SCORE.INTER>
-17.1967

>  <SCORE.INTER.CONST>
1

>  <SCORE.INTER.POLAR>
-2.75562

>  <SCORE.INTER.ROT>
6

>  <SCORE.INTER.SOLV>
16.5807

>  <SCORE.INTER.VDW>
-15.406

>  <SCORE.INTER.norm>
-0.554734

>  <SCORE.INTRA>
-0.719509

>  <SCORE.INTRA.DIHEDRAL>
-1.3589

>  <SCORE.INTRA.DIHEDRAL.0>
10.8409

>  <SCORE.INTRA.POLAR>
0

>  <SCORE.INTRA.POLAR.0>
0

>  <SCORE.INTRA.REPUL>
0

>  <SCORE.INTRA.REPUL.0>
0

>  <SCORE.INTRA.SOLV>
-1.65889

>  <SCORE.INTRA.SOLV.lig_0>
-80.8302

>  <SCORE.INTRA.VDW>
0.789383

>  <SCORE.INTRA.VDW.0>
-4.23953

>  <SCORE.INTRA.norm>
-0.02321

>  <SCORE.RESTR>
0

>  <SCORE.RESTR.CAVITY>
0

>  <SCORE.RESTR.norm>
0

>  <SCORE.SYSTEM>
0

>  <SCORE.SYSTEM.CONST>
0

>  <SCORE.SYSTEM.DIHEDRAL>
0

>  <SCORE.SYSTEM.SOLV>
0

>  <SCORE.SYSTEM.norm>
0

>  <SCORE.heavy>
31

>  <SCORE.norm>
-0.577944

>  <RMSD>
6.757

$$$$
2fcz_lig
 OpenBabel11021811433D
libRbt.so/2013.1/901 2013/11/27
 31 33  0  0  0  0  0  0  0  0999 V2000
   12.8088   17.5975   39.1537 C   0  0  0  0  0  0  0  0  0  0  0  0
    9.3022   21.9614   32.5443 N   0  0  0  0  0  0  0  0  0  0  0  0
   12.3956   16.5093   39.9848 O   0  0  0  0  0  0  0  0  0  0  0  0
   11.6534   18.5917   38.9950 C   0  0  1  0  0  0  0  0  0  0  0  0
   14.1006   22.9159   32.4396 N   0  0  0  0  0  0  0  0  0  0  0  0
   12.0422   19.7409   38.2154 O   0  0  0  0  0  0  0  0  0  0  0  0
   11.4078   19.6843   36.9223 C   0  0  1  0  0  0  0  0  0  0  0  0
   18.2086   19.9829   32.5330 N   0  0  0  0  0  0  0  0  0  0  0  0
   12.3134   19.9876   35.8476 O   0  0  0  0  0  0  0  0  0  0  0  0
   12.0058   21.2008   35.1403 C   0  0  2  0  0  0  0  0  0  0  0  0
   15.2711   22.8523   37.6147 N   0  0  0  0  0  0  0  0  0  0  0  0
    9.6374   20.7121   35.0635 O   0  0  0  0  0  0  0  0  0  0  0  0
   10.7824   20.9657   34.2456 C   0  0  1  0  0  0  0  0  0  0  0  0
   14.2999   22.0956   35.1293 O   0  0  0  0  0  0  0  0  0  0  0  0
   10.5011   22.1847   33.3640 C   0  0  1  0  0  0  0  0  0  0  0  0
   15.5559   20.0967   35.1228 O   0  0  0  0  0  0  0  0  0  0  0  0
   11.6991   22.4630   32.4536 C   0  0  0  0  0  0  0  0  0  0  0  0
   18.7737   21.7503   34.4303 O   0  0  0  0  0  0  0  0  0  0  0  0
   12.9304   22.7479   33.3159 C   0  0  1  0  0  0  0  0  0  0  0  0
   18.0644   22.8489   36.9883 O   0  0  0  0  0  0  0  0  0  0  0  0
   13.2190   21.6196   34.3121 C   0  0  2  0  0  0  0  0  0  0  0  0
    9.8533   18.0769   35.8664 O   0  0  0  0  0  0  0  0  0  0  0  0
   14.9025   21.0809   35.9458 C   0  0  1  0  0  0  0  0  0  0  0  0
    9.2528   18.6079   38.5323 O   0  0  0  0  0  0  0  0  0  0  0  0
   16.6287   20.6121   34.3156 C   0  0  2  0  0  0  0  0  0  0  0  0
   17.2039   19.4692   33.4753 C   0  0  0  0  0  0  0  0  0  0  0  0
   17.7138   21.2046   35.2217 C   0  0  2  0  0  0  0  0  0  0  0  0
   17.0977   22.3115   36.0798 C   0  0  1  0  0  0  0  0  0  0  0  0
   15.9146   21.7567   36.8764 C   0  0  1  0  0  0  0  0  0  0  0  0
   10.9255   18.2379   36.8003 C   0  0  2  0  0  0  0  0  0  0  0  0
   10.4896   17.9539   38.2364 C   0  0  1  0  0  0  0  0  0  0  0  0
  3  1  1  0  0  0  0
  4  1  1  6  0  0  0
  4  6  1  0  0  0  0
  4 31  1  0  0  0  0
  6  7  1  0  0  0  0
  7  9  1  6  0  0  0
  7 30  1  0  0  0  0
 10  9  1  6  0  0  0
 10 13  1  0  0  0  0
 10 21  1  0  0  0  0
 13 12  1  1  0  0  0
 13 15  1  0  0  0  0
 15  2  1  6  0  0  0
 15 17  1  0  0  0  0
 16 25  1  0  0  0  0
 17 19  1  0  0  0  0
 19  5  1  6  0  0  0
 19 21  1  0  0  0  0
 21 14  1  1  0  0  0
 23 14  1  6  0  0  0
 23 16  1  0  0  0  0
 23 29  1  0  0  0  0
 25 26  1  1  0  0  0
 25 27  1  0  0  0  0
 26  8  1  0  0  0  0
 27 18  1  6  0  0  0
 27 28  1  0  0  0  0
 28 20  1  1  0  0  0
 28 29  1  0  0  0  0
 29 11  1  6  0  0  0
 30 22  1  6  0  0  0
 30 31  1  0  0  0  0
 31 24  1  1  0  0  0
M  END
>  <CHROM.1>
177.25766380,-114.14505144,-74.25400199,67.53953987,65.77913024,174.06390737
13.44454313,20.54595693,35.68820339,-2.62021302,-0.12967988,-0.98381907

>  <Name>
2fcz_lig

>  <RI>
1.32928e+07

>  <Rbt.Current_Directory>
/home/itssahil/PROJECTS/Mol_Feturizer/New_Systems/rnas/2fcz

>  <Rbt.Executable>
rbdock ($Id: //depot/dev/client3/rdock/2013.1/src/exe/rbdock.cxx#4 $)

>  <Rbt.Library>
libRbt.so (2013.1, Build901 2013/11/27)

>  <Rbt.Parameter_File>
/export/apps/rDock/src/rDock_2013.1_src/data/scripts/dock_solv.prm

>  <Rbt.Receptor>
prm/pocket_docking_7.prm

>  <SCORE>
-13.0172

>  <SCORE.INTER>
-12.616

>  <SCORE.INTER.CONST>
1

>  <SCORE.INTER.POLAR>
-1.57127

>  <SCORE.INTER.ROT>
6

>  <SCORE.INTER.SOLV>
15.5067

>  <SCORE.INTER.VDW>
-15.942

>  <SCORE.INTER.norm>
-0.406967

>  <SCORE.INTRA>
-0.401185

>  <SCORE.INTRA.DIHEDRAL>
-2.22619

>  <SCORE.INTRA.DIHEDRAL.0>
10.8409

>  <SCORE.INTRA.POLAR>
0

>  <SCORE.INTRA.POLAR.0>
0

>  <SCORE.INTRA.REPUL>
0

>  <SCORE.INTRA.REPUL.0>
0

>  <SCORE.INTRA.SOLV>
-2.34068

>  <SCORE.INTRA.SOLV.lig_0>
-80.8302

>  <SCORE.INTRA.VDW>
1.88225

>  <SCORE.INTRA.VDW.0>
-4.23953

>  <SCORE.INTRA.norm>
-0.0129415

>  <SCORE.RESTR>
0

>  <SCORE.RESTR.CAVITY>
0

>  <SCORE.RESTR.norm>
0

>  <SCORE.SYSTEM>
0

>  <SCORE.SYSTEM.CONST>
0

>  <SCORE.SYSTEM.DIHEDRAL>
0

>  <SCORE.SYSTEM.SOLV>
0

>  <SCORE.SYSTEM.norm>
0

>  <SCORE.heavy>
31

>  <SCORE.norm>
-0.419909

>  <RMSD>
6.767

$$$$
2fcz_lig
 OpenBabel11021811433D
libRbt.so/2013.1/901 2013/11/27
 31 33  0  0  0  0  0  0  0  0999 V2000
    9.2301   17.5097   31.4848 C   0  0  0  0  0  0  0  0  0  0  0  0
    9.7985   18.8970   39.5423 N   0  0  0  0  0  0  0  0  0  0  0  0
    8.4485   17.7239   30.3064 O   0  0  0  0  0  0  0  0  0  0  0  0
    8.5159   18.1217   32.6947 C   0  0  1  0  0  0  0  0  0  0  0  0
   14.3967   17.7504   38.3219 N   0  0  0  0  0  0  0  0  0  0  0  0
    9.2072   17.8294   33.9261 O   0  0  0  0  0  0  0  0  0  0  0  0
    9.8381   19.0269   34.4217 C   0  0  1  0  0  0  0  0  0  0  0  0
   17.2396   20.1571   34.0059 N   0  0  0  0  0  0  0  0  0  0  0  0
   11.1889   18.8005   34.8591 O   0  0  0  0  0  0  0  0  0  0  0  0
   11.2953   18.1054   36.1131 C   0  0  2  0  0  0  0  0  0  0  0  0
   13.4793   15.4608   33.5109 N   0  0  0  0  0  0  0  0  0  0  0  0
    9.0695   18.7486   36.8100 O   0  0  0  0  0  0  0  0  0  0  0  0
   10.4515   18.8344   37.1661 C   0  0  1  0  0  0  0  0  0  0  0  0
   13.5305   17.1556   35.7060 O   0  0  0  0  0  0  0  0  0  0  0  0
   10.6449   18.2162   38.5527 C   0  0  1  0  0  0  0  0  0  0  0  0
   14.8777   18.7413   34.5909 O   0  0  0  0  0  0  0  0  0  0  0  0
   12.1120   18.3211   38.9752 C   0  0  0  0  0  0  0  0  0  0  0  0
   17.9707   16.7567   34.8414 O   0  0  0  0  0  0  0  0  0  0  0  0
   12.9804   17.5635   37.9688 C   0  0  1  0  0  0  0  0  0  0  0  0
   16.3006   15.0761   33.2167 O   0  0  0  0  0  0  0  0  0  0  0  0
   12.7634   18.0468   36.5307 C   0  0  2  0  0  0  0  0  0  0  0  0
    9.9317   21.3573   33.6001 O   0  0  0  0  0  0  0  0  0  0  0  0
   13.8891   17.7070   34.4305 C   0  0  1  0  0  0  0  0  0  0  0  0
    7.4116   20.1997   33.3582 O   0  0  0  0  0  0  0  0  0  0  0  0
   16.1179   18.2963   35.1672 C   0  0  2  0  0  0  0  0  0  0  0  0
   17.0539   19.4993   35.3075 C   0  0  0  0  0  0  0  0  0  0  0  0
   16.7510   17.2321   34.2638 C   0  0  2  0  0  0  0  0  0  0  0  0
   15.7736   16.0653   34.1069 C   0  0  1  0  0  0  0  0  0  0  0  0
   14.4382   16.5733   33.5586 C   0  0  1  0  0  0  0  0  0  0  0  0
    9.8342   19.9798   33.2253 C   0  0  2  0  0  0  0  0  0  0  0  0
    8.4848   19.6466   32.5918 C   0  0  1  0  0  0  0  0  0  0  0  0
  3  1  1  0  0  0  0
  4  1  1  6  0  0  0
  4  6  1  0  0  0  0
  4 31  1  0  0  0  0
  6  7  1  0  0  0  0
  7  9  1  6  0  0  0
  7 30  1  0  0  0  0
 10  9  1  6  0  0  0
 10 13  1  0  0  0  0
 10 21  1  0  0  0  0
 13 12  1  6  0  0  0
 13 15  1  0  0  0  0
 15  2  1  1  0  0  0
 15 17  1  0  0  0  0
 16 25  1  0  0  0  0
 17 19  1  0  0  0  0
 19  5  1  1  0  0  0
 19 21  1  0  0  0  0
 21 14  1  6  0  0  0
 23 14  1  1  0  0  0
 23 16  1  0  0  0  0
 23 29  1  0  0  0  0
 25 26  1  6  0  0  0
 25 27  1  0  0  0  0
 26  8  1  0  0  0  0
 27 18  1  1  0  0  0
 27 28  1  0  0  0  0
 28 20  1  6  0  0  0
 28 29  1  0  0  0  0
 29 11  1  1  0  0  0
 30 22  1  1  0  0  0
 30 31  1  0  0  0  0
 31 24  1  1  0  0  0
M  END
>  <CHROM.1>
174.90979328,-74.30776866,-53.03418289,78.28373618,70.62136489,-56.04750065
12.33297142,18.17944304,34.89981559,-3.02016739,-0.23039663,1.45282121

>  <Name>
2fcz_lig

>  <RI>
2.76032e+07

>  <Rbt.Current_Directory>
/home/itssahil/PROJECTS/Mol_Feturizer/New_Systems/rnas/2fcz

>  <Rbt.Executable>
rbdock ($Id: //depot/dev/client3/rdock/2013.1/src/exe/rbdock.cxx#4 $)

>  <Rbt.Library>
libRbt.so (2013.1, Build901 2013/11/27)

>  <Rbt.Parameter_File>
/export/apps/rDock/src/rDock_2013.1_src/data/scripts/dock_solv.prm

>  <Rbt.Receptor>
prm/pocket_docking_8.prm

>  <SCORE>
-16.6209

>  <SCORE.INTER>
-15.8864

>  <SCORE.INTER.CONST>
1

>  <SCORE.INTER.POLAR>
-1.83685

>  <SCORE.INTER.ROT>
6

>  <SCORE.INTER.SOLV>
17.954

>  <SCORE.INTER.VDW>
-18.0528

>  <SCORE.INTER.norm>
-0.512464

>  <SCORE.INTRA>
-0.734493

>  <SCORE.INTRA.DIHEDRAL>
-7.31707

>  <SCORE.INTRA.DIHEDRAL.0>
10.8409

>  <SCORE.INTRA.POLAR>
0

>  <SCORE.INTRA.POLAR.0>
0

>  <SCORE.INTRA.REPUL>
0

>  <SCORE.INTRA.REPUL.0>
0

>  <SCORE.INTRA.SOLV>
-1.77229

>  <SCORE.INTRA.SOLV.lig_0>
-80.8302

>  <SCORE.INTRA.VDW>
3.81019

>  <SCORE.INTRA.VDW.0>
-4.23953

>  <SCORE.INTRA.norm>
-0.0236933

>  <SCORE.RESTR>
0

>  <SCORE.RESTR.CAVITY>
0

>  <SCORE.RESTR.norm>
0

>  <SCORE.SYSTEM>
0

>  <SCORE.SYSTEM.CONST>
0

>  <SCORE.SYSTEM.DIHEDRAL>
0

>  <SCORE.SYSTEM.SOLV>
0

>  <SCORE.SYSTEM.norm>
0

>  <SCORE.heavy>
31

>  <SCORE.norm>
-0.536158

>  <RMSD>
6.798

$$$$
2fcz_lig
 OpenBabel11021811433D
libRbt.so/2013.1/901 2013/11/27
 31 33  0  0  0  0  0  0  0  0999 V2000
    8.6690   19.5248   32.1733 C   0  0  0  0  0  0  0  0  0  0  0  0
   13.0067   18.0716   36.7604 N   0  0  0  0  0  0  0  0  0  0  0  0
    7.3043   19.7195   31.7924 O   0  0  0  0  0  0  0  0  0  0  0  0
    9.0054   20.4294   33.3637 C   0  0  1  0  0  0  0  0  0  0  0  0
   15.0340   22.5249   36.6828 N   0  0  0  0  0  0  0  0  0  0  0  0
   10.3598   20.2317   33.8176 O   0  0  0  0  0  0  0  0  0  0  0  0
   11.1602   21.3766   33.4623 C   0  0  1  0  0  0  0  0  0  0  0  0
   15.1201   26.0513   36.8335 N   0  0  0  0  0  0  0  0  0  0  0  0
   12.4314   21.0101   32.8992 O   0  0  0  0  0  0  0  0  0  0  0  0
   13.3891   20.5361   33.8610 C   0  0  2  0  0  0  0  0  0  0  0  0
   15.0533   22.8024   31.1248 N   0  0  0  0  0  0  0  0  0  0  0  0
   12.3485   18.3577   34.0211 O   0  0  0  0  0  0  0  0  0  0  0  0
   12.7136   19.5121   34.7815 C   0  0  1  0  0  0  0  0  0  0  0  0
   14.7839   22.5654   33.8752 O   0  0  0  0  0  0  0  0  0  0  0  0
   13.6516   19.0837   35.9125 C   0  0  1  0  0  0  0  0  0  0  0  0
   14.0328   24.7915   34.1057 O   0  0  0  0  0  0  0  0  0  0  0  0
   14.0361   20.2955   36.7642 C   0  0  0  0  0  0  0  0  0  0  0  0
   17.3551   26.2981   33.5955 O   0  0  0  0  0  0  0  0  0  0  0  0
   14.7552   21.3204   35.8847 C   0  0  1  0  0  0  0  0  0  0  0  0
   16.8809   25.0051   31.0743 O   0  0  0  0  0  0  0  0  0  0  0  0
   13.9262   21.7220   34.6599 C   0  0  2  0  0  0  0  0  0  0  0  0
   10.6582   23.4995   32.2977 O   0  0  0  0  0  0  0  0  0  0  0  0
   14.1012   23.6505   33.2303 C   0  0  1  0  0  0  0  0  0  0  0  0
    8.6843   22.7365   34.1063 O   0  0  0  0  0  0  0  0  0  0  0  0
   15.3115   25.3284   34.4861 C   0  0  2  0  0  0  0  0  0  0  0  0
   15.0863   26.5072   35.4362 C   0  0  0  0  0  0  0  0  0  0  0  0
   16.0668   25.7905   33.2349 C   0  0  2  0  0  0  0  0  0  0  0  0
   16.2356   24.6016   32.2864 C   0  0  1  0  0  0  0  0  0  0  0  0
   14.8676   24.0030   31.9515 C   0  0  1  0  0  0  0  0  0  0  0  0
   10.3233   22.1133   32.4152 C   0  0  2  0  0  0  0  0  0  0  0  0
    8.9147   21.9030   32.9674 C   0  0  1  0  0  0  0  0  0  0  0  0
  3  1  1  0  0  0  0
  4  1  1  6  0  0  0
  4  6  1  0  0  0  0
  4 31  1  0  0  0  0
  6  7  1  0  0  0  0
  7  9  1  6  0  0  0
  7 30  1  0  0  0  0
 10  9  1  6  0  0  0
 10 13  1  0  0  0  0
 10 21  1  0  0  0  0
 13 12  1  6  0  0  0
 13 15  1  0  0  0  0
 15  2  1  1  0  0  0
 15 17  1  0  0  0  0
 16 25  1  0  0  0  0
 17 19  1  0  0  0  0
 19  5  1  1  0  0  0
 19 21  1  0  0  0  0
 21 14  1  6  0  0  0
 23 14  1  1  0  0  0
 23 16  1  0  0  0  0
 23 29  1  0  0  0  0
 25 26  1  1  0  0  0
 25 27  1  0  0  0  0
 26  8  1  0  0  0  0
 27 18  1  1  0  0  0
 27 28  1  0  0  0  0
 28 20  1  6  0  0  0
 28 29  1  0  0  0  0
 29 11  1  6  0  0  0
 30 22  1  1  0  0  0
 30 31  1  0  0  0  0
 31 24  1  1  0  0  0
M  END
>  <CHROM.1>
177.81738684,-75.18460527,46.82810368,92.07342675,87.55891721,92.87020028
13.04324818,22.30935867,33.83811844,2.63273931,0.49176624,2.51394543

>  <Name>
2fcz_lig

>  <RI>
1.40544e+07

>  <Rbt.Current_Directory>
/home/itssahil/PROJECTS/Mol_Feturizer/New_Systems/rnas/2fcz

>  <Rbt.Executable>
rbdock ($Id: //depot/dev/client3/rdock/2013.1/src/exe/rbdock.cxx#4 $)

>  <Rbt.Library>
libRbt.so (2013.1, Build901 2013/11/27)

>  <Rbt.Parameter_File>
/export/apps/rDock/src/rDock_2013.1_src/data/scripts/dock_solv.prm

>  <Rbt.Receptor>
prm/blind_docking_100.prm

>  <SCORE>
-1.43255

>  <SCORE.INTER>
-4.1591

>  <SCORE.INTER.CONST>
1

>  <SCORE.INTER.POLAR>
0

>  <SCORE.INTER.ROT>
6

>  <SCORE.INTER.SOLV>
12.7804

>  <SCORE.INTER.VDW>
-14.6329

>  <SCORE.INTER.norm>
-0.134164

>  <SCORE.INTRA>
2.72655

>  <SCORE.INTRA.DIHEDRAL>
1.2973

>  <SCORE.INTRA.DIHEDRAL.0>
10.8409

>  <SCORE.INTRA.POLAR>
0

>  <SCORE.INTRA.POLAR.0>
0

>  <SCORE.INTRA.REPUL>
0

>  <SCORE.INTRA.REPUL.0>
0

>  <SCORE.INTRA.SOLV>
-0.777383

>  <SCORE.INTRA.SOLV.lig_0>
-80.8302

>  <SCORE.INTRA.VDW>
2.46659

>  <SCORE.INTRA.VDW.0>
-4.23953

>  <SCORE.INTRA.norm>
0.0879533

>  <SCORE.RESTR>
0

>  <SCORE.RESTR.CAVITY>
0

>  <SCORE.RESTR.norm>
0

>  <SCORE.SYSTEM>
0

>  <SCORE.SYSTEM.CONST>
0

>  <SCORE.SYSTEM.DIHEDRAL>
0

>  <SCORE.SYSTEM.SOLV>
0

>  <SCORE.SYSTEM.norm>
0

>  <SCORE.heavy>
31

>  <SCORE.norm>
-0.0462112

>  <RMSD>
6.814

$$$$
2fcz_lig
 OpenBabel11021811433D
libRbt.so/2013.1/901 2013/11/27
 31 33  0  0  0  0  0  0  0  0999 V2000
   17.2336   20.8218   36.0034 C   0  0  0  0  0  0  0  0  0  0  0  0
   14.9766   23.3231   28.4204 N   0  0  0  0  0  0  0  0  0  0  0  0
   16.7592   19.4950   35.7586 O   0  0  0  0  0  0  0  0  0  0  0  0
   17.9017   21.3713   34.7384 C   0  0  1  0  0  0  0  0  0  0  0  0
   10.9936   22.6861   31.1911 N   0  0  0  0  0  0  0  0  0  0  0  0
   16.9542   21.5367   33.6639 O   0  0  0  0  0  0  0  0  0  0  0  0
   16.7097   22.9407   33.4475 C   0  0  1  0  0  0  0  0  0  0  0  0
    7.4087   21.5002   33.2739 N   0  0  0  0  0  0  0  0  0  0  0  0
   15.3123   23.2421   33.2944 O   0  0  0  0  0  0  0  0  0  0  0  0
   14.6904   22.6044   32.1658 C   0  0  2  0  0  0  0  0  0  0  0  0
   13.2733   21.2348   35.9577 N   0  0  0  0  0  0  0  0  0  0  0  0
   16.5920   23.0036   30.7242 O   0  0  0  0  0  0  0  0  0  0  0  0
   15.1940   23.2623   30.8752 C   0  0  1  0  0  0  0  0  0  0  0  0
   12.6416   21.9112   33.3430 O   0  0  0  0  0  0  0  0  0  0  0  0
   14.4543   22.7154   29.6521 C   0  0  1  0  0  0  0  0  0  0  0  0
   10.6841   23.0586   33.9946 O   0  0  0  0  0  0  0  0  0  0  0  0
   12.9564   23.0050   29.7705 C   0  0  0  0  0  0  0  0  0  0  0  0
    8.7461   20.0039   34.6880 O   0  0  0  0  0  0  0  0  0  0  0  0
   12.4102   22.3232   31.0265 C   0  0  1  0  0  0  0  0  0  0  0  0
   10.8692   19.8268   36.6153 O   0  0  0  0  0  0  0  0  0  0  0  0
   13.1735   22.7318   32.2911 C   0  0  2  0  0  0  0  0  0  0  0  0
   17.5807   24.9960   34.5114 O   0  0  0  0  0  0  0  0  0  0  0  0
   12.0063   22.6527   34.3946 C   0  0  1  0  0  0  0  0  0  0  0  0
   19.5360   23.0637   34.0732 O   0  0  0  0  0  0  0  0  0  0  0  0
    9.7873   21.9710   33.7102 C   0  0  2  0  0  0  0  0  0  0  0  0
    8.4398   22.5480   33.2691 C   0  0  0  0  0  0  0  0  0  0  0  0
    9.6116   21.1091   34.9654 C   0  0  2  0  0  0  0  0  0  0  0  0
   10.9800   20.5854   35.4067 C   0  0  1  0  0  0  0  0  0  0  0  0
   11.9379   21.7567   35.6354 C   0  0  1  0  0  0  0  0  0  0  0  0
   17.2502   23.6178   34.7080 C   0  0  2  0  0  0  0  0  0  0  0  0
   18.4831   22.7620   34.9926 C   0  0  1  0  0  0  0  0  0  0  0  0
  3  1  1  0  0  0  0
  4  1  1  1  0  0  0
  4  6  1  0  0  0  0
  4 31  1  0  0  0  0
  6  7  1  0  0  0  0
  7  9  1  1  0  0  0
  7 30  1  0  0  0  0
 10  9  1  1  0  0  0
 10 13  1  0  0  0  0
 10 21  1  0  0  0  0
 13 12  1  6  0  0  0
 13 15  1  0  0  0  0
 15  2  1  6  0  0  0
 15 17  1  0  0  0  0
 16 25  1  0  0  0  0
 17 19  1  0  0  0  0
 19  5  1  1  0  0  0
 19 21  1  0  0  0  0
 21 14  1  1  0  0  0
 23 14  1  6  0  0  0
 23 16  1  0  0  0  0
 23 29  1  0  0  0  0
 25 26  1  1  0  0  0
 25 27  1  0  0  0  0
 26  8  1  0  0  0  0
 27 18  1  6  0  0  0
 27 28  1  0  0  0  0
 28 20  1  1  0  0  0
 28 29  1  0  0  0  0
 29 11  1  6  0  0  0
 30 22  1  6  0  0  0
 30 31  1  0  0  0  0
 31 24  1  6  0  0  0
M  END
>  <CHROM.1>
65.47426535,-61.68435265,-71.41061025,117.37297211,78.84025831,-166.71516292
13.75984795,22.17080059,33.46616409,-0.09525702,0.12495652,1.94724450

>  <Name>
2fcz_lig

>  <RI>
2.6968e+07

>  <Rbt.Current_Directory>
/home/itssahil/PROJECTS/Mol_Feturizer/New_Systems/rnas/2fcz

>  <Rbt.Executable>
rbdock ($Id: //depot/dev/client3/rdock/2013.1/src/exe/rbdock.cxx#4 $)

>  <Rbt.Library>
libRbt.so (2013.1, Build901 2013/11/27)

>  <Rbt.Parameter_File>
/export/apps/rDock/src/rDock_2013.1_src/data/scripts/dock_solv.prm

>  <Rbt.Receptor>
prm/blind_docking_60.prm

>  <SCORE>
-12.6861

>  <SCORE.INTER>
-15.5237

>  <SCORE.INTER.CONST>
1

>  <SCORE.INTER.POLAR>
-1.57154

>  <SCORE.INTER.ROT>
6

>  <SCORE.INTER.SOLV>
19.3236

>  <SCORE.INTER.VDW>
-19.1519

>  <SCORE.INTER.norm>
-0.500765

>  <SCORE.INTRA>
2.74037

>  <SCORE.INTRA.DIHEDRAL>
-0.686468

>  <SCORE.INTRA.DIHEDRAL.0>
10.8409

>  <SCORE.INTRA.POLAR>
0

>  <SCORE.INTRA.POLAR.0>
0

>  <SCORE.INTRA.REPUL>
0

>  <SCORE.INTRA.REPUL.0>
0

>  <SCORE.INTRA.SOLV>
1.27525

>  <SCORE.INTRA.SOLV.lig_0>
-80.8302

>  <SCORE.INTRA.VDW>
2.44598

>  <SCORE.INTRA.VDW.0>
-4.23953

>  <SCORE.INTRA.norm>
0.0883991

>  <SCORE.RESTR>
0.0972365

>  <SCORE.RESTR.CAVITY>
0.0972365

>  <SCORE.RESTR.norm>
0.00313666

>  <SCORE.SYSTEM>
0

>  <SCORE.SYSTEM.CONST>
0

>  <SCORE.SYSTEM.DIHEDRAL>
0

>  <SCORE.SYSTEM.SOLV>
0

>  <SCORE.SYSTEM.norm>
0

>  <SCORE.heavy>
31

>  <SCORE.norm>
-0.409229

>  <RMSD>
6.825

$$$$
2fcz_lig
 OpenBabel11021811433D
libRbt.so/2013.1/901 2013/11/27
 31 33  0  0  0  0  0  0  0  0999 V2000
   12.8280   13.3575   35.1249 C   0  0  0  0  0  0  0  0  0  0  0  0
    7.9774   18.4783   30.3962 N   0  0  0  0  0  0  0  0  0  0  0  0
   13.6830   12.2146   35.2158 O   0  0  0  0  0  0  0  0  0  0  0  0
   12.1466   13.3829   33.7525 C   0  0  1  0  0  0  0  0  0  0  0  0
    8.8180   20.5331   34.7572 N   0  0  0  0  0  0  0  0  0  0  0  0
   11.1918   14.4589   33.6511 O   0  0  0  0  0  0  0  0  0  0  0  0
   11.7057   15.4793   32.7722 C   0  0  1  0  0  0  0  0  0  0  0  0
    8.3967   17.3616   39.5935 N   0  0  0  0  0  0  0  0  0  0  0  0
   11.5317   16.8048   33.3015 O   0  0  0  0  0  0  0  0  0  0  0  0
   10.1726   17.2733   33.2868 C   0  0  2  0  0  0  0  0  0  0  0  0
   12.3774   19.8474   35.1461 N   0  0  0  0  0  0  0  0  0  0  0  0
    9.7476   16.3765   31.0803 O   0  0  0  0  0  0  0  0  0  0  0  0
    9.7635   17.5862   31.8422 C   0  0  1  0  0  0  0  0  0  0  0  0
   10.1834   18.2035   35.5668 O   0  0  0  0  0  0  0  0  0  0  0  0
    8.3732   18.2237   31.7882 C   0  0  1  0  0  0  0  0  0  0  0  0
    9.7941   19.0865   37.7213 O   0  0  0  0  0  0  0  0  0  0  0  0
    8.3670   19.5387   32.5709 C   0  0  0  0  0  0  0  0  0  0  0  0
   12.6227   17.3297   39.2963 O   0  0  0  0  0  0  0  0  0  0  0  0
    8.7270   19.2565   34.0309 C   0  0  1  0  0  0  0  0  0  0  0  0
   13.9461   19.0315   37.3974 O   0  0  0  0  0  0  0  0  0  0  0  0
   10.0607   18.5144   34.1700 C   0  0  2  0  0  0  0  0  0  0  0  0
   13.7972   15.6994   31.4716 O   0  0  0  0  0  0  0  0  0  0  0  0
   10.3228   19.3566   36.4095 C   0  0  1  0  0  0  0  0  0  0  0  0
   12.7048   13.1404   31.3846 O   0  0  0  0  0  0  0  0  0  0  0  0
   10.4621   18.0260   38.4263 C   0  0  2  0  0  0  0  0  0  0  0  0
    9.7777   17.8296   39.7813 C   0  0  0  0  0  0  0  0  0  0  0  0
   11.9378   18.3908   38.6237 C   0  0  2  0  0  0  0  0  0  0  0  0
   12.5812   18.6248   37.2552 C   0  0  1  0  0  0  0  0  0  0  0  0
   11.8116   19.7074   36.4951 C   0  0  1  0  0  0  0  0  0  0  0  0
   13.1970   15.1609   32.6536 C   0  0  2  0  0  0  0  0  0  0  0  0
   13.1690   13.6336   32.6441 C   0  0  1  0  0  0  0  0  0  0  0  0
  3  1  1  0  0  0  0
  4  1  1  1  0  0  0
  4  6  1  0  0  0  0
  4 31  1  0  0  0  0
  6  7  1  0  0  0  0
  7  9  1  1  0  0  0
  7 30  1  0  0  0  0
 10  9  1  6  0  0  0
 10 13  1  0  0  0  0
 10 21  1  0  0  0  0
 13 12  1  6  0  0  0
 13 15  1  0  0  0  0
 15  2  1  6  0  0  0
 15 17  1  0  0  0  0
 16 25  1  0  0  0  0
 17 19  1  0  0  0  0
 19  5  1  1  0  0  0
 19 21  1  0  0  0  0
 21 14  1  1  0  0  0
 23 14  1  6  0  0  0
 23 16  1  0  0  0  0
 23 29  1  0  0  0  0
 25 26  1  1  0  0  0
 25 27  1  0  0  0  0
 26  8  1  0  0  0  0
 27 18  1  6  0  0  0
 27 28  1  0  0  0  0
 28 20  1  1  0  0  0
 28 29  1  0  0  0  0
 29 11  1  6  0  0  0
 30 22  1  6  0  0  0
 30 31  1  0  0  0  0
 31 24  1  6  0  0  0
M  END
>  <CHROM.1>
175.38231258,-72.11923343,-72.33233436,169.47699826,151.63688069,64.96411838
11.07797411,17.11110768,34.76037040,-1.28753504,-0.88122638,1.17748526

>  <Name>
2fcz_lig

>  <RI>
2.76032e+07

>  <Rbt.Current_Directory>
/home/itssahil/PROJECTS/Mol_Feturizer/New_Systems/rnas/2fcz

>  <Rbt.Executable>
rbdock ($Id: //depot/dev/client3/rdock/2013.1/src/exe/rbdock.cxx#4 $)

>  <Rbt.Library>
libRbt.so (2013.1, Build901 2013/11/27)

>  <Rbt.Parameter_File>
/export/apps/rDock/src/rDock_2013.1_src/data/scripts/dock_solv.prm

>  <Rbt.Receptor>
prm/pocket_docking_8.prm

>  <SCORE>
-17.6061

>  <SCORE.INTER>
-19.6417

>  <SCORE.INTER.CONST>
1

>  <SCORE.INTER.POLAR>
-2.85456

>  <SCORE.INTER.ROT>
6

>  <SCORE.INTER.SOLV>
15.754

>  <SCORE.INTER.VDW>
-16.4306

>  <SCORE.INTER.norm>
-0.633604

>  <SCORE.INTRA>
2.03562

>  <SCORE.INTRA.DIHEDRAL>
-5.30061

>  <SCORE.INTRA.DIHEDRAL.0>
10.8409

>  <SCORE.INTRA.POLAR>
0

>  <SCORE.INTRA.POLAR.0>
0

>  <SCORE.INTRA.REPUL>
0

>  <SCORE.INTRA.REPUL.0>
0

>  <SCORE.INTRA.SOLV>
-0.0879863

>  <SCORE.INTRA.SOLV.lig_0>
-80.8302

>  <SCORE.INTRA.VDW>
4.72992

>  <SCORE.INTRA.VDW.0>
-4.23953

>  <SCORE.INTRA.norm>
0.0656652

>  <SCORE.RESTR>
0

>  <SCORE.RESTR.CAVITY>
0

>  <SCORE.RESTR.norm>
0

>  <SCORE.SYSTEM>
0

>  <SCORE.SYSTEM.CONST>
0

>  <SCORE.SYSTEM.DIHEDRAL>
0

>  <SCORE.SYSTEM.SOLV>
0

>  <SCORE.SYSTEM.norm>
0

>  <SCORE.heavy>
31

>  <SCORE.norm>
-0.567939

>  <RMSD>
6.826

$$$$
2fcz_lig
 OpenBabel11021811433D
libRbt.so/2013.1/901 2013/11/27
 31 33  0  0  0  0  0  0  0  0999 V2000
   13.9341   14.2244   35.9179 C   0  0  0  0  0  0  0  0  0  0  0  0
    8.3472   17.6743   30.3032 N   0  0  0  0  0  0  0  0  0  0  0  0
   12.9867   14.0769   36.9791 O   0  0  0  0  0  0  0  0  0  0  0  0
   13.2814   13.8354   34.5871 C   0  0  1  0  0  0  0  0  0  0  0  0
    8.4496   20.0277   34.5926 N   0  0  0  0  0  0  0  0  0  0  0  0
   12.1228   14.6462   34.3045 O   0  0  0  0  0  0  0  0  0  0  0  0
   12.4220   15.5577   33.2286 C   0  0  1  0  0  0  0  0  0  0  0  0
    8.5173   17.2854   39.6814 N   0  0  0  0  0  0  0  0  0  0  0  0
   11.9656   16.8952   33.4931 O   0  0  0  0  0  0  0  0  0  0  0  0
   10.5433   17.0683   33.3752 C   0  0  2  0  0  0  0  0  0  0  0  0
   12.2548   19.8649   35.0745 N   0  0  0  0  0  0  0  0  0  0  0  0
   10.4622   16.0173   31.1975 O   0  0  0  0  0  0  0  0  0  0  0  0
   10.1770   17.2323   31.8949 C   0  0  1  0  0  0  0  0  0  0  0  0
   10.2080   18.0683   35.6004 O   0  0  0  0  0  0  0  0  0  0  0  0
    8.6920   17.5626   31.7273 C   0  0  1  0  0  0  0  0  0  0  0  0
    9.7523   19.0321   37.7066 O   0  0  0  0  0  0  0  0  0  0  0  0
    8.3620   18.8766   32.4386 C   0  0  0  0  0  0  0  0  0  0  0  0
   12.7232   17.6074   39.3532 O   0  0  0  0  0  0  0  0  0  0  0  0
    8.6730   18.7330   33.9297 C   0  0  1  0  0  0  0  0  0  0  0  0
   13.8932   19.3077   37.3549 O   0  0  0  0  0  0  0  0  0  0  0  0
   10.1185   18.2921   34.1845 C   0  0  2  0  0  0  0  0  0  0  0  0
   14.4377   15.9494   31.8508 O   0  0  0  0  0  0  0  0  0  0  0  0
   10.2524   19.2735   36.3782 C   0  0  1  0  0  0  0  0  0  0  0  0
   13.9102   13.2528   32.2975 O   0  0  0  0  0  0  0  0  0  0  0  0
   10.5092   18.0715   38.4631 C   0  0  2  0  0  0  0  0  0  0  0  0
    9.8476   17.8929   39.8319 C   0  0  0  0  0  0  0  0  0  0  0  0
   11.9495   18.5689   38.6292 C   0  0  2  0  0  0  0  0  0  0  0  0
   12.5669   18.7809   37.2453 C   0  0  1  0  0  0  0  0  0  0  0  0
   11.7067   19.7519   36.4333 C   0  0  1  0  0  0  0  0  0  0  0  0
   13.9484   15.5412   33.1320 C   0  0  2  0  0  0  0  0  0  0  0  0
   14.2429   14.0707   33.4223 C   0  0  1  0  0  0  0  0  0  0  0  0
  3  1  1  0  0  0  0
  4  1  1  1  0  0  0
  4  6  1  0  0  0  0
  4 31  1  0  0  0  0
  6  7  1  0  0  0  0
  7  9  1  1  0  0  0
  7 30  1  0  0  0  0
 10  9  1  6  0  0  0
 10 13  1  0  0  0  0
 10 21  1  0  0  0  0
 13 12  1  6  0  0  0
 13 15  1  0  0  0  0
 15  2  1  6  0  0  0
 15 17  1  0  0  0  0
 16 25  1  0  0  0  0
 17 19  1  0  0  0  0
 19  5  1  1  0  0  0
 19 21  1  0  0  0  0
 21 14  1  1  0  0  0
 23 14  1  6  0  0  0
 23 16  1  0  0  0  0
 23 29  1  0  0  0  0
 25 26  1  1  0  0  0
 25 27  1  0  0  0  0
 26  8  1  0  0  0  0
 27 18  1  1  0  0  0
 27 28  1  0  0  0  0
 28 20  1  1  0  0  0
 28 29  1  0  0  0  0
 29 11  1  6  0  0  0
 30 22  1  6  0  0  0
 30 31  1  0  0  0  0
 31 24  1  6  0  0  0
M  END
>  <CHROM.1>
58.82242130,-74.39994394,-80.83136602,160.56280110,154.39788351,65.68355715
11.37122555,17.15907375,34.99587248,-1.28796033,-0.71180594,1.26766296

>  <Name>
2fcz_lig

>  <RI>
2.76032e+07

>  <Rbt.Current_Directory>
/home/itssahil/PROJECTS/Mol_Feturizer/New_Systems/rnas/2fcz

>  <Rbt.Executable>
rbdock ($Id: //depot/dev/client3/rdock/2013.1/src/exe/rbdock.cxx#4 $)

>  <Rbt.Library>
libRbt.so (2013.1, Build901 2013/11/27)

>  <Rbt.Parameter_File>
/export/apps/rDock/src/rDock_2013.1_src/data/scripts/dock_solv.prm

>  <Rbt.Receptor>
prm/pocket_docking_8.prm

>  <SCORE>
-19.0404

>  <SCORE.INTER>
-20.0111

>  <SCORE.INTER.CONST>
1

>  <SCORE.INTER.POLAR>
-2.87059

>  <SCORE.INTER.ROT>
6

>  <SCORE.INTER.SOLV>
16.8743

>  <SCORE.INTER.VDW>
-16.9969

>  <SCORE.INTER.norm>
-0.645519

>  <SCORE.INTRA>
0.970631

>  <SCORE.INTRA.DIHEDRAL>
-3.22135

>  <SCORE.INTRA.DIHEDRAL.0>
10.8409

>  <SCORE.INTRA.POLAR>
0

>  <SCORE.INTRA.POLAR.0>
0

>  <SCORE.INTRA.REPUL>
0.00140434

>  <SCORE.INTRA.REPUL.0>
0

>  <SCORE.INTRA.SOLV>
-0.290572

>  <SCORE.INTRA.SOLV.lig_0>
-80.8302

>  <SCORE.INTRA.VDW>
2.71957

>  <SCORE.INTRA.VDW.0>
-4.23953

>  <SCORE.INTRA.norm>
0.0313107

>  <SCORE.RESTR>
0

>  <SCORE.RESTR.CAVITY>
0

>  <SCORE.RESTR.norm>
0

>  <SCORE.SYSTEM>
0

>  <SCORE.SYSTEM.CONST>
0

>  <SCORE.SYSTEM.DIHEDRAL>
0

>  <SCORE.SYSTEM.SOLV>
0

>  <SCORE.SYSTEM.norm>
0

>  <SCORE.heavy>
31

>  <SCORE.norm>
-0.614208

>  <RMSD>
6.836

$$$$
2fcz_lig
 OpenBabel11021811433D
libRbt.so/2013.1/901 2013/11/27
 31 33  0  0  0  0  0  0  0  0999 V2000
    9.1673   23.6541   31.4544 C   0  0  0  0  0  0  0  0  0  0  0  0
    7.4103   15.9126   35.0367 N   0  0  0  0  0  0  0  0  0  0  0  0
    8.1698   23.6847   32.4789 O   0  0  0  0  0  0  0  0  0  0  0  0
    9.4810   22.2004   31.0845 C   0  0  1  0  0  0  0  0  0  0  0  0
    9.5655   18.6633   38.4625 N   0  0  0  0  0  0  0  0  0  0  0  0
    9.9549   21.4512   32.2219 O   0  0  0  0  0  0  0  0  0  0  0  0
    8.9397   20.5183   32.6426 C   0  0  1  0  0  0  0  0  0  0  0  0
   13.0796   23.2843   32.9576 N   0  0  0  0  0  0  0  0  0  0  0  0
    8.7520   20.5101   34.0680 O   0  0  0  0  0  0  0  0  0  0  0  0
    9.1679   19.2937   34.7118 C   0  0  2  0  0  0  0  0  0  0  0  0
   12.4206   19.8369   38.4246 N   0  0  0  0  0  0  0  0  0  0  0  0
    8.0171   17.8950   33.1077 O   0  0  0  0  0  0  0  0  0  0  0  0
    8.0952   18.2186   34.4982 C   0  0  1  0  0  0  0  0  0  0  0  0
   10.5526   20.3651   36.4434 O   0  0  0  0  0  0  0  0  0  0  0  0
    8.4235   16.9475   35.2848 C   0  0  1  0  0  0  0  0  0  0  0  0
   12.1536   20.1537   34.7216 O   0  0  0  0  0  0  0  0  0  0  0  0
    8.4836   17.2566   36.7823 C   0  0  0  0  0  0  0  0  0  0  0  0
   13.7724   23.3923   35.3990 O   0  0  0  0  0  0  0  0  0  0  0  0
    9.5780   18.2948   37.0379 C   0  0  1  0  0  0  0  0  0  0  0  0
   14.2617   21.9477   37.8335 O   0  0  0  0  0  0  0  0  0  0  0  0
    9.3863   19.5632   36.1993 C   0  0  2  0  0  0  0  0  0  0  0  0
    6.6729   19.9902   31.8074 O   0  0  0  0  0  0  0  0  0  0  0  0
   11.7822   19.7389   36.0493 C   0  0  1  0  0  0  0  0  0  0  0  0
    8.5410   20.3607   29.7772 O   0  0  0  0  0  0  0  0  0  0  0  0
   12.3922   21.5650   34.5829 C   0  0  2  0  0  0  0  0  0  0  0  0
   12.7428   21.8628   33.1229 C   0  0  0  0  0  0  0  0  0  0  0  0
   13.5447   21.9834   35.5028 C   0  0  2  0  0  0  0  0  0  0  0  0
   13.1831   21.6316   36.9474 C   0  0  1  0  0  0  0  0  0  0  0  0
   12.8649   20.1386   37.0567 C   0  0  1  0  0  0  0  0  0  0  0  0
    7.6650   21.0106   31.9554 C   0  0  2  0  0  0  0  0  0  0  0  0
    8.2203   21.4772   30.6111 C   0  0  1  0  0  0  0  0  0  0  0  0
  3  1  1  0  0  0  0
  4  1  1  1  0  0  0
  4  6  1  0  0  0  0
  4 31  1  0  0  0  0
  6  7  1  0  0  0  0
  7  9  1  1  0  0  0
  7 30  1  0  0  0  0
 10  9  1  6  0  0  0
 10 13  1  0  0  0  0
 10 21  1  0  0  0  0
 13 12  1  6  0  0  0
 13 15  1  0  0  0  0
 15  2  1  1  0  0  0
 15 17  1  0  0  0  0
 16 25  1  0  0  0  0
 17 19  1  0  0  0  0
 19  5  1  1  0  0  0
 19 21  1  0  0  0  0
 21 14  1  6  0  0  0
 23 14  1  1  0  0  0
 23 16  1  0  0  0  0
 23 29  1  0  0  0  0
 25 26  1  6  0  0  0
 25 27  1  0  0  0  0
 26  8  1  0  0  0  0
 27 18  1  1  0  0  0
 27 28  1  0  0  0  0
 28 20  1  1  0  0  0
 28 29  1  0  0  0  0
 29 11  1  1  0  0  0
 30 22  1  6  0  0  0
 30 31  1  0  0  0  0
 31 24  1  6  0  0  0
M  END
>  <CHROM.1>
-59.13810274,-112.07512216,-78.09440530,-63.58937702,94.83632913,-176.33384886
10.20263289,20.44568855,34.42566113,-2.57767166,0.63787971,2.24997028

>  <Name>
2fcz_lig

>  <RI>
2.29611e+07

>  <Rbt.Current_Directory>
/home/itssahil/PROJECTS/Mol_Feturizer/New_Systems/rnas/2fcz

>  <Rbt.Executable>
rbdock ($Id: //depot/dev/client3/rdock/2013.1/src/exe/rbdock.cxx#4 $)

>  <Rbt.Library>
libRbt.so (2013.1, Build901 2013/11/27)

>  <Rbt.Parameter_File>
/export/apps/rDock/src/rDock_2013.1_src/data/scripts/dock_solv.prm

>  <Rbt.Receptor>
prm/pocket_docking_3.prm

>  <SCORE>
-8.66239

>  <SCORE.INTER>
-13.1457

>  <SCORE.INTER.CONST>
1

>  <SCORE.INTER.POLAR>
-2.26195

>  <SCORE.INTER.ROT>
6

>  <SCORE.INTER.SOLV>
20.8638

>  <SCORE.INTER.VDW>
-15.7785

>  <SCORE.INTER.norm>
-0.424055

>  <SCORE.INTRA>
4.4833

>  <SCORE.INTRA.DIHEDRAL>
2.20465

>  <SCORE.INTRA.DIHEDRAL.0>
10.8409

>  <SCORE.INTRA.POLAR>
0

>  <SCORE.INTRA.POLAR.0>
0

>  <SCORE.INTRA.REPUL>
0

>  <SCORE.INTRA.REPUL.0>
0

>  <SCORE.INTRA.SOLV>
2.35188

>  <SCORE.INTRA.SOLV.lig_0>
-80.8302

>  <SCORE.INTRA.VDW>
2.20504

>  <SCORE.INTRA.VDW.0>
-4.23953

>  <SCORE.INTRA.norm>
0.144623

>  <SCORE.RESTR>
0

>  <SCORE.RESTR.CAVITY>
0

>  <SCORE.RESTR.norm>
0

>  <SCORE.SYSTEM>
0

>  <SCORE.SYSTEM.CONST>
0

>  <SCORE.SYSTEM.DIHEDRAL>
0

>  <SCORE.SYSTEM.SOLV>
0

>  <SCORE.SYSTEM.norm>
0

>  <SCORE.heavy>
31

>  <SCORE.norm>
-0.279432

>  <RMSD>
6.843

$$$$
2fcz_lig
 OpenBabel11021811433D
libRbt.so/2013.1/901 2013/11/27
 31 33  0  0  0  0  0  0  0  0999 V2000
    8.1242   20.1814   31.2425 C   0  0  0  0  0  0  0  0  0  0  0  0
   15.8564   23.6923   28.8705 N   0  0  0  0  0  0  0  0  0  0  0  0
    8.4373   18.7967   31.0692 O   0  0  0  0  0  0  0  0  0  0  0  0
    8.8890   20.7350   32.4496 C   0  0  1  0  0  0  0  0  0  0  0  0
   16.2625   21.2431   33.0875 N   0  0  0  0  0  0  0  0  0  0  0  0
   10.3111   20.5365   32.3164 O   0  0  0  0  0  0  0  0  0  0  0  0
   10.9534   21.8012   32.0600 C   0  0  1  0  0  0  0  0  0  0  0  0
   16.0381   17.9340   33.1237 N   0  0  0  0  0  0  0  0  0  0  0  0
   11.9256   21.7242   31.0036 O   0  0  0  0  0  0  0  0  0  0  0  0
   13.1336   22.4612   31.2574 C   0  0  2  0  0  0  0  0  0  0  0  0
   11.3885   21.7945   35.3200 N   0  0  0  0  0  0  0  0  0  0  0  0
   13.0378   23.6089   29.1297 O   0  0  0  0  0  0  0  0  0  0  0  0
   13.8439   22.7375   29.9265 C   0  0  1  0  0  0  0  0  0  0  0  0
   13.5020   21.5990   33.5344 O   0  0  0  0  0  0  0  0  0  0  0  0
   15.2071   23.3948   30.1546 C   0  0  1  0  0  0  0  0  0  0  0  0
   13.6192   19.2517   33.7570 O   0  0  0  0  0  0  0  0  0  0  0  0
   16.1049   22.4707   30.9803 C   0  0  0  0  0  0  0  0  0  0  0  0
   15.1858   19.3304   37.0898 O   0  0  0  0  0  0  0  0  0  0  0  0
   15.4464   22.2103   32.3366 C   0  0  1  0  0  0  0  0  0  0  0  0
   12.6430   20.5726   37.5845 O   0  0  0  0  0  0  0  0  0  0  0  0
   14.0255   21.6532   32.1980 C   0  0  2  0  0  0  0  0  0  0  0  0
   10.1104   24.1150   31.8356 O   0  0  0  0  0  0  0  0  0  0  0  0
   12.7593   20.4048   33.8203 C   0  0  1  0  0  0  0  0  0  0  0  0
    8.9100   22.6968   33.9085 O   0  0  0  0  0  0  0  0  0  0  0  0
   14.6964   19.2585   34.7097 C   0  0  2  0  0  0  0  0  0  0  0  0
   15.5404   17.9979   34.5056 C   0  0  0  0  0  0  0  0  0  0  0  0
   14.1241   19.2911   36.1312 C   0  0  2  0  0  0  0  0  0  0  0  0
   13.2500   20.5371   36.2888 C   0  0  1  0  0  0  0  0  0  0  0  0
   12.1539   20.5439   35.2208 C   0  0  1  0  0  0  0  0  0  0  0  0
    9.8104   22.7290   31.6451 C   0  0  2  0  0  0  0  0  0  0  0  0
    8.6935   22.2464   32.5686 C   0  0  1  0  0  0  0  0  0  0  0  0
  3  1  1  0  0  0  0
  4  1  1  6  0  0  0
  4  6  1  0  0  0  0
  4 31  1  0  0  0  0
  6  7  1  0  0  0  0
  7  9  1  6  0  0  0
  7 30  1  0  0  0  0
 10  9  1  6  0  0  0
 10 13  1  0  0  0  0
 10 21  1  0  0  0  0
 13 12  1  6  0  0  0
 13 15  1  0  0  0  0
 15  2  1  6  0  0  0
 15 17  1  0  0  0  0
 16 25  1  0  0  0  0
 17 19  1  0  0  0  0
 19  5  1  6  0  0  0
 19 21  1  0  0  0  0
 21 14  1  1  0  0  0
 23 14  1  1  0  0  0
 23 16  1  0  0  0  0
 23 29  1  0  0  0  0
 25 26  1  1  0  0  0
 25 27  1  0  0  0  0
 26  8  1  0  0  0  0
 27 18  1  1  0  0  0
 27 28  1  0  0  0  0
 28 20  1  1  0  0  0
 28 29  1  0  0  0  0
 29 11  1  6  0  0  0
 30 22  1  1  0  0  0
 30 31  1  0  0  0  0
 31 24  1  1  0  0  0
M  END
>  <CHROM.1>
56.37295034,-138.95270672,-159.43220103,97.24256532,64.43885698,57.21172310
12.66875827,21.20484087,32.88499337,2.40066562,0.02696305,-1.02993391

>  <Name>
2fcz_lig

>  <RI>
0

>  <Rbt.Current_Directory>
/home/itssahil/PROJECTS/Mol_Feturizer/New_Systems/rnas/2fcz

>  <Rbt.Executable>
rbdock ($Id: //depot/dev/client3/rdock/2013.1/src/exe/rbdock.cxx#4 $)

>  <Rbt.Library>
libRbt.so (2013.1, Build901 2013/11/27)

>  <Rbt.Parameter_File>
/export/apps/rDock/src/rDock_2013.1_src/data/scripts/dock_solv.prm

>  <Rbt.Receptor>
prm/blind_docking_80.prm

>  <SCORE>
-17.0146

>  <SCORE.INTER>
-19.6504

>  <SCORE.INTER.CONST>
1

>  <SCORE.INTER.POLAR>
-2.53863

>  <SCORE.INTER.ROT>
6

>  <SCORE.INTER.SOLV>
19.2217

>  <SCORE.INTER.VDW>
-18.6454

>  <SCORE.INTER.norm>
-0.633885

>  <SCORE.INTRA>
2.63583

>  <SCORE.INTRA.DIHEDRAL>
1.68716

>  <SCORE.INTRA.DIHEDRAL.0>
10.8409

>  <SCORE.INTRA.POLAR>
0

>  <SCORE.INTRA.POLAR.0>
0

>  <SCORE.INTRA.REPUL>
0

>  <SCORE.INTRA.REPUL.0>
0

>  <SCORE.INTRA.SOLV>
3.16152

>  <SCORE.INTRA.SOLV.lig_0>
-80.8302

>  <SCORE.INTRA.VDW>
0.211487

>  <SCORE.INTRA.VDW.0>
-4.23953

>  <SCORE.INTRA.norm>
0.0850267

>  <SCORE.RESTR>
0

>  <SCORE.RESTR.CAVITY>
0

>  <SCORE.RESTR.norm>
0

>  <SCORE.SYSTEM>
0

>  <SCORE.SYSTEM.CONST>
0

>  <SCORE.SYSTEM.DIHEDRAL>
0

>  <SCORE.SYSTEM.SOLV>
0

>  <SCORE.SYSTEM.norm>
0

>  <SCORE.heavy>
31

>  <SCORE.norm>
-0.548859

>  <RMSD>
6.847

$$$$
2fcz_lig
 OpenBabel11021811433D
libRbt.so/2013.1/901 2013/11/27
 31 33  0  0  0  0  0  0  0  0999 V2000
    8.8640   19.3397   30.2790 C   0  0  0  0  0  0  0  0  0  0  0  0
    7.5965   14.1910   36.4680 N   0  0  0  0  0  0  0  0  0  0  0  0
    8.4879   20.5244   29.5715 O   0  0  0  0  0  0  0  0  0  0  0  0
    7.9443   19.1494   31.4900 C   0  0  1  0  0  0  0  0  0  0  0  0
    9.2295   18.3797   38.4008 N   0  0  0  0  0  0  0  0  0  0  0  0
    8.2452   17.9319   32.2018 O   0  0  0  0  0  0  0  0  0  0  0  0
    8.8752   18.2504   33.4586 C   0  0  1  0  0  0  0  0  0  0  0  0
   14.4321   16.1905   33.4119 N   0  0  0  0  0  0  0  0  0  0  0  0
   10.0230   17.4272   33.7268 O   0  0  0  0  0  0  0  0  0  0  0  0
   10.0016   16.7841   35.0124 C   0  0  2  0  0  0  0  0  0  0  0  0
   12.8502   19.6376   38.1077 N   0  0  0  0  0  0  0  0  0  0  0  0
    9.0818   14.7325   34.1186 O   0  0  0  0  0  0  0  0  0  0  0  0
    8.8392   15.7844   35.0560 C   0  0  1  0  0  0  0  0  0  0  0  0
   11.0428   18.6359   36.2576 O   0  0  0  0  0  0  0  0  0  0  0  0
    8.6855   15.1774   36.4525 C   0  0  1  0  0  0  0  0  0  0  0  0
   12.6363   17.1598   35.3330 O   0  0  0  0  0  0  0  0  0  0  0  0
    8.3939   16.2780   37.4750 C   0  0  0  0  0  0  0  0  0  0  0  0
   14.4905   19.7860   33.5349 O   0  0  0  0  0  0  0  0  0  0  0  0
    9.5580   17.2707   37.4909 C   0  0  1  0  0  0  0  0  0  0  0  0
   14.8503   20.5585   36.2785 O   0  0  0  0  0  0  0  0  0  0  0  0
    9.8541   17.8451   36.1012 C   0  0  2  0  0  0  0  0  0  0  0  0
    9.4836   20.3805   34.5572 O   0  0  0  0  0  0  0  0  0  0  0  0
   12.2244   17.8647   36.5190 C   0  0  1  0  0  0  0  0  0  0  0  0
    6.9859   20.4432   33.3298 O   0  0  0  0  0  0  0  0  0  0  0  0
   12.9822   18.0088   34.2250 C   0  0  2  0  0  0  0  0  0  0  0  0
   13.3655   17.1286   33.0328 C   0  0  0  0  0  0  0  0  0  0  0  0
   14.1560   18.9128   34.6180 C   0  0  2  0  0  0  0  0  0  0  0  0
   13.7577   19.7454   35.8385 C   0  0  1  0  0  0  0  0  0  0  0  0
   13.3266   18.8231   36.9811 C   0  0  1  0  0  0  0  0  0  0  0  0
    9.3087   19.7092   33.3058 C   0  0  2  0  0  0  0  0  0  0  0  0
    8.1405   20.2777   32.5024 C   0  0  1  0  0  0  0  0  0  0  0  0
  3  1  1  0  0  0  0
  4  1  1  6  0  0  0
  4  6  1  0  0  0  0
  4 31  1  0  0  0  0
  6  7  1  0  0  0  0
  7  9  1  6  0  0  0
  7 30  1  0  0  0  0
 10  9  1  6  0  0  0
 10 13  1  0  0  0  0
 10 21  1  0  0  0  0
 13 12  1  6  0  0  0
 13 15  1  0  0  0  0
 15  2  1  6  0  0  0
 15 17  1  0  0  0  0
 16 25  1  0  0  0  0
 17 19  1  0  0  0  0
 19  5  1  1  0  0  0
 19 21  1  0  0  0  0
 21 14  1  1  0  0  0
 23 14  1  6  0  0  0
 23 16  1  0  0  0  0
 23 29  1  0  0  0  0
 25 26  1  6  0  0  0
 25 27  1  0  0  0  0
 26  8  1  0  0  0  0
 27 18  1  6  0  0  0
 27 28  1  0  0  0  0
 28 20  1  1  0  0  0
 28 29  1  0  0  0  0
 29 11  1  1  0  0  0
 30 22  1  1  0  0  0
 30 31  1  0  0  0  0
 31 24  1  1  0  0  0
M  END
>  <CHROM.1>
177.32642177,-127.83363866,65.17567781,-55.64980929,72.07064160,-54.75264231
10.57037154,18.16831776,34.63801253,-2.64361149,0.34086280,2.13772658

>  <Name>
2fcz_lig

>  <RI>
0

>  <Rbt.Current_Directory>
/home/itssahil/PROJECTS/Mol_Feturizer/New_Systems/rnas/2fcz

>  <Rbt.Executable>
rbdock ($Id: //depot/dev/client3/rdock/2013.1/src/exe/rbdock.cxx#4 $)

>  <Rbt.Library>
libRbt.so (2013.1, Build901 2013/11/27)

>  <Rbt.Parameter_File>
/export/apps/rDock/src/rDock_2013.1_src/data/scripts/dock_solv.prm

>  <Rbt.Receptor>
prm/pocket_docking_6.prm

>  <SCORE>
-15.565

>  <SCORE.INTER>
-16.5488

>  <SCORE.INTER.CONST>
1

>  <SCORE.INTER.POLAR>
-2.91235

>  <SCORE.INTER.ROT>
6

>  <SCORE.INTER.SOLV>
13.177

>  <SCORE.INTER.VDW>
-13.3171

>  <SCORE.INTER.norm>
-0.533834

>  <SCORE.INTRA>
0.983809

>  <SCORE.INTRA.DIHEDRAL>
-2.85675

>  <SCORE.INTRA.DIHEDRAL.0>
10.8409

>  <SCORE.INTRA.POLAR>
0

>  <SCORE.INTRA.POLAR.0>
0

>  <SCORE.INTRA.REPUL>
0

>  <SCORE.INTRA.REPUL.0>
0

>  <SCORE.INTRA.SOLV>
-0.96388

>  <SCORE.INTRA.SOLV.lig_0>
-80.8302

>  <SCORE.INTRA.VDW>
2.89413

>  <SCORE.INTRA.VDW.0>
-4.23953

>  <SCORE.INTRA.norm>
0.0317358

>  <SCORE.RESTR>
0

>  <SCORE.RESTR.CAVITY>
0

>  <SCORE.RESTR.norm>
0

>  <SCORE.SYSTEM>
0

>  <SCORE.SYSTEM.CONST>
0

>  <SCORE.SYSTEM.DIHEDRAL>
0

>  <SCORE.SYSTEM.SOLV>
0

>  <SCORE.SYSTEM.norm>
0

>  <SCORE.heavy>
31

>  <SCORE.norm>
-0.502098

>  <RMSD>
6.847

$$$$
2fcz_lig
 OpenBabel11021811433D
libRbt.so/2013.1/901 2013/11/27
 31 33  0  0  0  0  0  0  0  0999 V2000
   16.3633   23.4904   36.9896 C   0  0  0  0  0  0  0  0  0  0  0  0
    9.8758   22.4605   32.0838 N   0  0  0  0  0  0  0  0  0  0  0  0
   17.7885   23.3938   36.9185 O   0  0  0  0  0  0  0  0  0  0  0  0
   15.7876   22.1937   37.5689 C   0  0  1  0  0  0  0  0  0  0  0  0
    9.0011   18.9514   35.3805 N   0  0  0  0  0  0  0  0  0  0  0  0
   14.3580   22.2746   37.7399 O   0  0  0  0  0  0  0  0  0  0  0  0
   13.7064   21.4450   36.7576 C   0  0  1  0  0  0  0  0  0  0  0  0
    8.0359   17.5646   39.5960 N   0  0  0  0  0  0  0  0  0  0  0  0
   12.5923   22.1019   36.1294 O   0  0  0  0  0  0  0  0  0  0  0  0
   11.9723   21.3398   35.0798 C   0  0  2  0  0  0  0  0  0  0  0  0
   13.7609   18.6908   38.0410 N   0  0  0  0  0  0  0  0  0  0  0  0
   12.2770   23.0961   33.4438 O   0  0  0  0  0  0  0  0  0  0  0  0
   11.2870   22.2990   34.0986 C   0  0  1  0  0  0  0  0  0  0  0  0
   11.6022   19.3006   36.4096 O   0  0  0  0  0  0  0  0  0  0  0  0
   10.4910   21.5307   33.0410 C   0  0  1  0  0  0  0  0  0  0  0  0
   10.0473   18.9741   38.1556 O   0  0  0  0  0  0  0  0  0  0  0  0
    9.4015   20.6903   33.7107 C   0  0  0  0  0  0  0  0  0  0  0  0
   10.2808   15.2985   38.1004 O   0  0  0  0  0  0  0  0  0  0  0  0
   10.0547   19.6884   34.6648 C   0  0  1  0  0  0  0  0  0  0  0  0
   12.9483   16.0654   38.8418 O   0  0  0  0  0  0  0  0  0  0  0  0
   10.9645   20.3695   35.6929 C   0  0  2  0  0  0  0  0  0  0  0  0
   14.5463   19.9824   34.9492 O   0  0  0  0  0  0  0  0  0  0  0  0
   11.3986   19.3492   37.8292 C   0  0  1  0  0  0  0  0  0  0  0  0
   16.0069   19.7725   37.3096 O   0  0  0  0  0  0  0  0  0  0  0  0
    9.6918   17.6342   37.7731 C   0  0  2  0  0  0  0  0  0  0  0  0
    8.2286   17.3879   38.1493 C   0  0  0  0  0  0  0  0  0  0  0  0
   10.6023   16.6354   38.4961 C   0  0  2  0  0  0  0  0  0  0  0  0
   12.0587   16.9364   38.1357 C   0  0  1  0  0  0  0  0  0  0  0  0
   12.3938   18.3878   38.4867 C   0  0  1  0  0  0  0  0  0  0  0  0
   14.7935   21.1628   35.7193 C   0  0  2  0  0  0  0  0  0  0  0  0
   16.0227   21.0224   36.6151 C   0  0  1  0  0  0  0  0  0  0  0  0
  3  1  1  0  0  0  0
  4  1  1  6  0  0  0
  4  6  1  0  0  0  0
  4 31  1  0  0  0  0
  6  7  1  0  0  0  0
  7  9  1  6  0  0  0
  7 30  1  0  0  0  0
 10  9  1  1  0  0  0
 10 13  1  0  0  0  0
 10 21  1  0  0  0  0
 13 12  1  6  0  0  0
 13 15  1  0  0  0  0
 15  2  1  6  0  0  0
 15 17  1  0  0  0  0
 16 25  1  0  0  0  0
 17 19  1  0  0  0  0
 19  5  1  1  0  0  0
 19 21  1  0  0  0  0
 21 14  1  6  0  0  0
 23 14  1  6  0  0  0
 23 16  1  0  0  0  0
 23 29  1  0  0  0  0
 25 26  1  1  0  0  0
 25 27  1  0  0  0  0
 26  8  1  0  0  0  0
 27 18  1  6  0  0  0
 27 28  1  0  0  0  0
 28 20  1  1  0  0  0
 28 29  1  0  0  0  0
 29 11  1  6  0  0  0
 30 22  1  1  0  0  0
 30 31  1  0  0  0  0
 31 24  1  1  0  0  0
M  END
>  <CHROM.1>
176.32809993,176.01391965,-154.38570234,111.88278444,72.96430594,-59.33422615
12.25065288,19.98504048,36.52883361,-0.71074125,0.38182080,2.37670223

>  <Name>
2fcz_lig

>  <RI>
0

>  <Rbt.Current_Directory>
/home/itssahil/PROJECTS/Mol_Feturizer/New_Systems/rnas/2fcz

>  <Rbt.Executable>
rbdock ($Id: //depot/dev/client3/rdock/2013.1/src/exe/rbdock.cxx#4 $)

>  <Rbt.Library>
libRbt.so (2013.1, Build901 2013/11/27)

>  <Rbt.Parameter_File>
/export/apps/rDock/src/rDock_2013.1_src/data/scripts/dock_solv.prm

>  <Rbt.Receptor>
prm/pocket_docking_6.prm

>  <SCORE>
-12.0426

>  <SCORE.INTER>
-15.1089

>  <SCORE.INTER.CONST>
1

>  <SCORE.INTER.POLAR>
-2.25886

>  <SCORE.INTER.ROT>
6

>  <SCORE.INTER.SOLV>
11.7969

>  <SCORE.INTER.VDW>
-14.0753

>  <SCORE.INTER.norm>
-0.487382

>  <SCORE.INTRA>
3.06623

>  <SCORE.INTRA.DIHEDRAL>
-0.244827

>  <SCORE.INTRA.DIHEDRAL.0>
10.8409

>  <SCORE.INTRA.POLAR>
0

>  <SCORE.INTRA.POLAR.0>
0

>  <SCORE.INTRA.REPUL>
0.0225532

>  <SCORE.INTRA.REPUL.0>
0

>  <SCORE.INTRA.SOLV>
4.91367

>  <SCORE.INTRA.SOLV.lig_0>
-80.8302

>  <SCORE.INTRA.VDW>
0.619046

>  <SCORE.INTRA.VDW.0>
-4.23953

>  <SCORE.INTRA.norm>
0.0989107

>  <SCORE.RESTR>
0

>  <SCORE.RESTR.CAVITY>
0

>  <SCORE.RESTR.norm>
0

>  <SCORE.SYSTEM>
0

>  <SCORE.SYSTEM.CONST>
0

>  <SCORE.SYSTEM.DIHEDRAL>
0

>  <SCORE.SYSTEM.SOLV>
0

>  <SCORE.SYSTEM.norm>
0

>  <SCORE.heavy>
31

>  <SCORE.norm>
-0.388472

>  <RMSD>
6.853

$$$$
2fcz_lig
 OpenBabel11021811433D
libRbt.so/2013.1/901 2013/11/27
 31 33  0  0  0  0  0  0  0  0999 V2000
   14.6108   22.9313   36.2439 C   0  0  0  0  0  0  0  0  0  0  0  0
    8.8320   19.3726   31.8297 N   0  0  0  0  0  0  0  0  0  0  0  0
   13.8363   22.8381   35.0452 O   0  0  0  0  0  0  0  0  0  0  0  0
   14.3666   21.6924   37.1123 C   0  0  1  0  0  0  0  0  0  0  0  0
    8.3144   16.7232   35.9114 N   0  0  0  0  0  0  0  0  0  0  0  0
   12.9598   21.4659   37.3345 O   0  0  0  0  0  0  0  0  0  0  0  0
   12.5319   20.3122   36.5838 C   0  0  1  0  0  0  0  0  0  0  0  0
    6.8205   19.2361   38.4480 N   0  0  0  0  0  0  0  0  0  0  0  0
   11.2930   20.5325   35.8884 O   0  0  0  0  0  0  0  0  0  0  0  0
   10.8756   19.4327   35.0618 C   0  0  2  0  0  0  0  0  0  0  0  0
   12.8842   17.0197   38.4782 N   0  0  0  0  0  0  0  0  0  0  0  0
   11.0026   20.7392   33.0294 O   0  0  0  0  0  0  0  0  0  0  0  0
   10.1123   19.9766   33.8478 C   0  0  1  0  0  0  0  0  0  0  0  0
   10.7503   17.7677   36.8717 O   0  0  0  0  0  0  0  0  0  0  0  0
    9.5231   18.8384   33.0113 C   0  0  1  0  0  0  0  0  0  0  0  0
    9.6784   18.9123   38.6362 O   0  0  0  0  0  0  0  0  0  0  0  0
    8.5408   18.0211   33.8531 C   0  0  0  0  0  0  0  0  0  0  0  0
    8.5556   15.8552   40.3571 O   0  0  0  0  0  0  0  0  0  0  0  0
    9.2812   17.4241   35.0515 C   0  0  1  0  0  0  0  0  0  0  0  0
   11.4150   15.6131   40.4925 O   0  0  0  0  0  0  0  0  0  0  0  0
    9.9984   18.4916   35.8851 C   0  0  2  0  0  0  0  0  0  0  0  0
   13.7066   18.7349   35.0847 O   0  0  0  0  0  0  0  0  0  0  0  0
   10.9443   18.4866   38.0984 C   0  0  1  0  0  0  0  0  0  0  0  0
   15.1690   19.3962   37.3592 O   0  0  0  0  0  0  0  0  0  0  0  0
    8.7814   17.8390   38.9703 C   0  0  2  0  0  0  0  0  0  0  0  0
    7.4737   18.4371   39.4950 C   0  0  0  0  0  0  0  0  0  0  0  0
    9.4243   16.9465   40.0378 C   0  0  2  0  0  0  0  0  0  0  0  0
   10.7495   16.4016   39.5007 C   0  0  1  0  0  0  0  0  0  0  0  0
   11.6600   17.5596   39.0861 C   0  0  1  0  0  0  0  0  0  0  0  0
   13.6574   20.0784   35.5748 C   0  0  2  0  0  0  0  0  0  0  0  0
   14.8818   20.4325   36.4166 C   0  0  1  0  0  0  0  0  0  0  0  0
  3  1  1  0  0  0  0
  4  1  1  6  0  0  0
  4  6  1  0  0  0  0
  4 31  1  0  0  0  0
  6  7  1  0  0  0  0
  7  9  1  6  0  0  0
  7 30  1  0  0  0  0
 10  9  1  1  0  0  0
 10 13  1  0  0  0  0
 10 21  1  0  0  0  0
 13 12  1  6  0  0  0
 13 15  1  0  0  0  0
 15  2  1  6  0  0  0
 15 17  1  0  0  0  0
 16 25  1  0  0  0  0
 17 19  1  0  0  0  0
 19  5  1  1  0  0  0
 19 21  1  0  0  0  0
 21 14  1  1  0  0  0
 23 14  1  6  0  0  0
 23 16  1  0  0  0  0
 23 29  1  0  0  0  0
 25 26  1  1  0  0  0
 25 27  1  0  0  0  0
 26  8  1  0  0  0  0
 27 18  1  6  0  0  0
 27 28  1  0  0  0  0
 28 20  1  1  0  0  0
 28 29  1  0  0  0  0
 29 11  1  6  0  0  0
 30 22  1  1  0  0  0
 30 31  1  0  0  0  0
 31 24  1  1  0  0  0
M  END
>  <CHROM.1>
-52.43111997,176.34259892,-148.11105509,84.59430730,54.78057834,62.82539471
11.08337576,18.96575135,36.74154041,-0.84966099,0.45391336,2.01395513

>  <Name>
2fcz_lig

>  <RI>
0

>  <Rbt.Current_Directory>
/home/itssahil/PROJECTS/Mol_Feturizer/New_Systems/rnas/2fcz

>  <Rbt.Executable>
rbdock ($Id: //depot/dev/client3/rdock/2013.1/src/exe/rbdock.cxx#4 $)

>  <Rbt.Library>
libRbt.so (2013.1, Build901 2013/11/27)

>  <Rbt.Parameter_File>
/export/apps/rDock/src/rDock_2013.1_src/data/scripts/dock_solv.prm

>  <Rbt.Receptor>
prm/pocket_docking_5.prm

>  <SCORE>
-14.628

>  <SCORE.INTER>
-14.4956

>  <SCORE.INTER.CONST>
1

>  <SCORE.INTER.POLAR>
-2.72394

>  <SCORE.INTER.ROT>
6

>  <SCORE.INTER.SOLV>
11.8589

>  <SCORE.INTER.VDW>
-12.1369

>  <SCORE.INTER.norm>
-0.467599

>  <SCORE.INTRA>
-0.132416

>  <SCORE.INTRA.DIHEDRAL>
-3.75887

>  <SCORE.INTRA.DIHEDRAL.0>
10.8409

>  <SCORE.INTRA.POLAR>
0

>  <SCORE.INTRA.POLAR.0>
0

>  <SCORE.INTRA.REPUL>
0

>  <SCORE.INTRA.REPUL.0>
0

>  <SCORE.INTRA.SOLV>
1.07296

>  <SCORE.INTRA.SOLV.lig_0>
-80.8302

>  <SCORE.INTRA.VDW>
1.21054

>  <SCORE.INTRA.VDW.0>
-4.23953

>  <SCORE.INTRA.norm>
-0.0042715

>  <SCORE.RESTR>
0

>  <SCORE.RESTR.CAVITY>
0

>  <SCORE.RESTR.norm>
0

>  <SCORE.SYSTEM>
0

>  <SCORE.SYSTEM.CONST>
0

>  <SCORE.SYSTEM.DIHEDRAL>
0

>  <SCORE.SYSTEM.SOLV>
0

>  <SCORE.SYSTEM.norm>
0

>  <SCORE.heavy>
31

>  <SCORE.norm>
-0.47187

>  <RMSD>
6.854

$$$$
2fcz_lig
 OpenBabel11021811433D
libRbt.so/2013.1/901 2013/11/27
 31 33  0  0  0  0  0  0  0  0999 V2000
    9.9595   20.6788   31.6773 C   0  0  0  0  0  0  0  0  0  0  0  0
   14.7682   26.7264   34.4515 N   0  0  0  0  0  0  0  0  0  0  0  0
    8.5923   20.6835   32.0971 O   0  0  0  0  0  0  0  0  0  0  0  0
   10.4426   22.1198   31.4804 C   0  0  1  0  0  0  0  0  0  0  0  0
   16.4750   22.2284   35.3470 N   0  0  0  0  0  0  0  0  0  0  0  0
   10.3409   22.8872   32.6971 O   0  0  0  0  0  0  0  0  0  0  0  0
   11.6594   23.1295   33.2268 C   0  0  1  0  0  0  0  0  0  0  0  0
   16.1018   19.8212   32.5236 N   0  0  0  0  0  0  0  0  0  0  0  0
   11.7378   22.8983   34.6437 O   0  0  0  0  0  0  0  0  0  0  0  0
   12.8726   23.5098   35.2803 C   0  0  2  0  0  0  0  0  0  0  0  0
   12.3422   19.8841   37.8225 N   0  0  0  0  0  0  0  0  0  0  0  0
   12.1272   25.7508   34.7548 O   0  0  0  0  0  0  0  0  0  0  0  0
   13.2016   24.8266   34.5660 C   0  0  1  0  0  0  0  0  0  0  0  0
   13.8818   21.4183   36.0994 O   0  0  0  0  0  0  0  0  0  0  0  0
   14.4893   25.4454   35.1150 C   0  0  1  0  0  0  0  0  0  0  0  0
   13.7708   19.8023   34.3821 O   0  0  0  0  0  0  0  0  0  0  0  0
   15.6652   24.4903   34.8992 C   0  0  0  0  0  0  0  0  0  0  0  0
   16.1451   17.4832   35.9797 O   0  0  0  0  0  0  0  0  0  0  0  0
   15.3904   23.1793   35.6385 C   0  0  1  0  0  0  0  0  0  0  0  0
   13.9849   17.5402   37.8727 O   0  0  0  0  0  0  0  0  0  0  0  0
   14.0566   22.5462   35.2276 C   0  0  2  0  0  0  0  0  0  0  0  0
   13.9307   22.5175   32.4644 O   0  0  0  0  0  0  0  0  0  0  0  0
   13.1011   20.3577   35.5293 C   0  0  1  0  0  0  0  0  0  0  0  0
   12.2584   23.3505   30.4008 O   0  0  0  0  0  0  0  0  0  0  0  0
   15.0509   19.2121   34.6670 C   0  0  2  0  0  0  0  0  0  0  0  0
   15.6561   18.6966   33.3590 C   0  0  0  0  0  0  0  0  0  0  0  0
   14.8746   18.0597   35.6622 C   0  0  2  0  0  0  0  0  0  0  0  0
   14.2267   18.5982   36.9395 C   0  0  1  0  0  0  0  0  0  0  0  0
   12.9004   19.2835   36.6030 C   0  0  1  0  0  0  0  0  0  0  0  0
   12.5531   22.1313   32.4891 C   0  0  2  0  0  0  0  0  0  0  0  0
   11.9224   22.1481   31.0981 C   0  0  1  0  0  0  0  0  0  0  0  0
  3  1  1  0  0  0  0
  4  1  1  1  0  0  0
  4  6  1  0  0  0  0
  4 31  1  0  0  0  0
  6  7  1  0  0  0  0
  7  9  1  1  0  0  0
  7 30  1  0  0  0  0
 10  9  1  6  0  0  0
 10 13  1  0  0  0  0
 10 21  1  0  0  0  0
 13 12  1  1  0  0  0
 13 15  1  0  0  0  0
 15  2  1  6  0  0  0
 15 17  1  0  0  0  0
 16 25  1  0  0  0  0
 17 19  1  0  0  0  0
 19  5  1  6  0  0  0
 19 21  1  0  0  0  0
 21 14  1  1  0  0  0
 23 14  1  1  0  0  0
 23 16  1  0  0  0  0
 23 29  1  0  0  0  0
 25 26  1  6  0  0  0
 25 27  1  0  0  0  0
 26  8  1  0  0  0  0
 27 18  1  1  0  0  0
 27 28  1  0  0  0  0
 28 20  1  1  0  0  0
 28 29  1  0  0  0  0
 29 11  1  1  0  0  0
 30 22  1  6  0  0  0
 30 31  1  0  0  0  0
 31 24  1  1  0  0  0
M  END
>  <CHROM.1>
59.73690436,-161.52271236,33.23416789,83.49415894,63.76797715,72.41697165
13.33997992,21.64499756,34.33902935,2.16261937,-0.70568541,-0.16700141

>  <Name>
2fcz_lig

>  <RI>
1.40544e+07

>  <Rbt.Current_Directory>
/home/itssahil/PROJECTS/Mol_Feturizer/New_Systems/rnas/2fcz

>  <Rbt.Executable>
rbdock ($Id: //depot/dev/client3/rdock/2013.1/src/exe/rbdock.cxx#4 $)

>  <Rbt.Library>
libRbt.so (2013.1, Build901 2013/11/27)

>  <Rbt.Parameter_File>
/export/apps/rDock/src/rDock_2013.1_src/data/scripts/dock_solv.prm

>  <Rbt.Receptor>
prm/blind_docking_100.prm

>  <SCORE>
-7.55485

>  <SCORE.INTER>
-8.44002

>  <SCORE.INTER.CONST>
1

>  <SCORE.INTER.POLAR>
-0.858239

>  <SCORE.INTER.ROT>
6

>  <SCORE.INTER.SOLV>
14.6337

>  <SCORE.INTER.VDW>
-15.2438

>  <SCORE.INTER.norm>
-0.272259

>  <SCORE.INTRA>
0.885167

>  <SCORE.INTRA.DIHEDRAL>
-3.20882

>  <SCORE.INTRA.DIHEDRAL.0>
10.8409

>  <SCORE.INTRA.POLAR>
0

>  <SCORE.INTRA.POLAR.0>
0

>  <SCORE.INTRA.REPUL>
0

>  <SCORE.INTRA.REPUL.0>
0

>  <SCORE.INTRA.SOLV>
0.350263

>  <SCORE.INTRA.SOLV.lig_0>
-80.8302

>  <SCORE.INTRA.VDW>
2.31445

>  <SCORE.INTRA.VDW.0>
-4.23953

>  <SCORE.INTRA.norm>
0.0285538

>  <SCORE.RESTR>
0

>  <SCORE.RESTR.CAVITY>
0

>  <SCORE.RESTR.norm>
0

>  <SCORE.SYSTEM>
0

>  <SCORE.SYSTEM.CONST>
0

>  <SCORE.SYSTEM.DIHEDRAL>
0

>  <SCORE.SYSTEM.SOLV>
0

>  <SCORE.SYSTEM.norm>
0

>  <SCORE.heavy>
31

>  <SCORE.norm>
-0.243705

>  <RMSD>
6.856

$$$$
2fcz_lig
 OpenBabel11021811433D
libRbt.so/2013.1/901 2013/11/27
 31 33  0  0  0  0  0  0  0  0999 V2000
    6.5265   12.4353   39.3258 C   0  0  0  0  0  0  0  0  0  0  0  0
    5.0410   17.2398   42.1470 N   0  0  0  0  0  0  0  0  0  0  0  0
    6.1655   11.1811   38.7408 O   0  0  0  0  0  0  0  0  0  0  0  0
    6.5787   13.5144   38.2389 C   0  0  1  0  0  0  0  0  0  0  0  0
    6.6622   19.8786   38.3581 N   0  0  0  0  0  0  0  0  0  0  0  0
    6.8546   14.8167   38.7933 O   0  0  0  0  0  0  0  0  0  0  0  0
    8.1945   15.2167   38.4434 C   0  0  1  0  0  0  0  0  0  0  0  0
    8.2679   19.7719   34.3119 N   0  0  0  0  0  0  0  0  0  0  0  0
    8.9153   15.7713   39.5570 O   0  0  0  0  0  0  0  0  0  0  0  0
    8.2890   16.9198   40.1533 C   0  0  2  0  0  0  0  0  0  0  0  0
   11.5944   17.5674   39.3881 N   0  0  0  0  0  0  0  0  0  0  0  0
    7.3667   15.6326   41.9825 O   0  0  0  0  0  0  0  0  0  0  0  0
    7.0151   16.4764   40.8832 C   0  0  1  0  0  0  0  0  0  0  0  0
    9.1506   18.5660   38.5373 O   0  0  0  0  0  0  0  0  0  0  0  0
    6.2353   17.6817   41.4138 C   0  0  1  0  0  0  0  0  0  0  0  0
    9.6498   18.1617   36.2657 O   0  0  0  0  0  0  0  0  0  0  0  0
    5.8178   18.5895   40.2548 C   0  0  0  0  0  0  0  0  0  0  0  0
   11.9978   20.9825   35.9534 O   0  0  0  0  0  0  0  0  0  0  0  0
    7.0698   19.0884   39.5307 C   0  0  1  0  0  0  0  0  0  0  0  0
   13.3004   19.3208   37.9016 O   0  0  0  0  0  0  0  0  0  0  0  0
    7.9694   17.9396   39.0619 C   0  0  2  0  0  0  0  0  0  0  0  0
    9.9942   14.1446   37.1294 O   0  0  0  0  0  0  0  0  0  0  0  0
    9.8884   17.7427   37.6224 C   0  0  1  0  0  0  0  0  0  0  0  0
    7.4711   13.8580   35.9887 O   0  0  0  0  0  0  0  0  0  0  0  0
   10.0657   19.5074   35.9756 C   0  0  2  0  0  0  0  0  0  0  0  0
    9.7227   19.8240   34.5178 C   0  0  0  0  0  0  0  0  0  0  0  0
   11.5750   19.6394   36.2077 C   0  0  2  0  0  0  0  0  0  0  0  0
   11.8906   19.2728   37.6594 C   0  0  1  0  0  0  0  0  0  0  0  0
   11.3765   17.8642   37.9654 C   0  0  1  0  0  0  0  0  0  0  0  0
    8.8679   13.9226   37.9836 C   0  0  2  0  0  0  0  0  0  0  0  0
    7.7143   13.2372   37.2538 C   0  0  1  0  0  0  0  0  0  0  0  0
  3  1  1  0  0  0  0
  4  1  1  1  0  0  0
  4  6  1  0  0  0  0
  4 31  1  0  0  0  0
  6  7  1  0  0  0  0
  7  9  1  1  0  0  0
  7 30  1  0  0  0  0
 10  9  1  6  0  0  0
 10 13  1  0  0  0  0
 10 21  1  0  0  0  0
 13 12  1  1  0  0  0
 13 15  1  0  0  0  0
 15  2  1  6  0  0  0
 15 17  1  0  0  0  0
 16 25  1  0  0  0  0
 17 19  1  0  0  0  0
 19  5  1  6  0  0  0
 19 21  1  0  0  0  0
 21 14  1  1  0  0  0
 23 14  1  1  0  0  0
 23 16  1  0  0  0  0
 23 29  1  0  0  0  0
 25 26  1  6  0  0  0
 25 27  1  0  0  0  0
 26  8  1  0  0  0  0
 27 18  1  1  0  0  0
 27 28  1  0  0  0  0
 28 20  1  6  0  0  0
 28 29  1  0  0  0  0
 29 11  1  1  0  0  0
 30 22  1  6  0  0  0
 30 31  1  0  0  0  0
 31 24  1  6  0  0  0
M  END
>  <CHROM.1>
176.26509605,-58.29127397,70.02154557,77.06820731,103.05273126,63.03442561
8.63662157,16.92642712,38.29315105,-2.56201969,0.83308847,0.35587525

>  <Name>
2fcz_lig

>  <RI>
2.76032e+07

>  <Rbt.Current_Directory>
/home/itssahil/PROJECTS/Mol_Feturizer/New_Systems/rnas/2fcz

>  <Rbt.Executable>
rbdock ($Id: //depot/dev/client3/rdock/2013.1/src/exe/rbdock.cxx#4 $)

>  <Rbt.Library>
libRbt.so (2013.1, Build901 2013/11/27)

>  <Rbt.Parameter_File>
/export/apps/rDock/src/rDock_2013.1_src/data/scripts/dock_solv.prm

>  <Rbt.Receptor>
prm/pocket_docking_8.prm

>  <SCORE>
-16.9082

>  <SCORE.INTER>
-16.8125

>  <SCORE.INTER.CONST>
1

>  <SCORE.INTER.POLAR>
-3.16627

>  <SCORE.INTER.ROT>
6

>  <SCORE.INTER.SOLV>
17.6048

>  <SCORE.INTER.VDW>
-14.1223

>  <SCORE.INTER.norm>
-0.542337

>  <SCORE.INTRA>
-0.09575

>  <SCORE.INTRA.DIHEDRAL>
-2.92135

>  <SCORE.INTRA.DIHEDRAL.0>
10.8409

>  <SCORE.INTRA.POLAR>
0

>  <SCORE.INTRA.POLAR.0>
0

>  <SCORE.INTRA.REPUL>
0

>  <SCORE.INTRA.REPUL.0>
0

>  <SCORE.INTRA.SOLV>
-1.92696

>  <SCORE.INTRA.SOLV.lig_0>
-80.8302

>  <SCORE.INTRA.VDW>
2.32841

>  <SCORE.INTRA.VDW.0>
-4.23953

>  <SCORE.INTRA.norm>
-0.00308871

>  <SCORE.RESTR>
0

>  <SCORE.RESTR.CAVITY>
0

>  <SCORE.RESTR.norm>
0

>  <SCORE.SYSTEM>
0

>  <SCORE.SYSTEM.CONST>
0

>  <SCORE.SYSTEM.DIHEDRAL>
0

>  <SCORE.SYSTEM.SOLV>
0

>  <SCORE.SYSTEM.norm>
0

>  <SCORE.heavy>
31

>  <SCORE.norm>
-0.545426

>  <RMSD>
6.860

$$$$
2fcz_lig
 OpenBabel11021811433D
libRbt.so/2013.1/901 2013/11/27
 31 33  0  0  0  0  0  0  0  0999 V2000
    8.3598   19.9340   31.4001 C   0  0  0  0  0  0  0  0  0  0  0  0
   15.9629   23.9596   29.3742 N   0  0  0  0  0  0  0  0  0  0  0  0
    8.6892   18.5424   31.3786 O   0  0  0  0  0  0  0  0  0  0  0  0
    9.0146   20.5994   32.6154 C   0  0  1  0  0  0  0  0  0  0  0  0
   16.3550   21.2317   33.4180 N   0  0  0  0  0  0  0  0  0  0  0  0
   10.4525   20.5014   32.5666 O   0  0  0  0  0  0  0  0  0  0  0  0
   11.0154   21.7970   32.2797 C   0  0  1  0  0  0  0  0  0  0  0  0
   17.0387   18.0132   35.3249 N   0  0  0  0  0  0  0  0  0  0  0  0
   12.0478   21.7431   31.2804 O   0  0  0  0  0  0  0  0  0  0  0  0
   13.2296   22.4922   31.6108 C   0  0  2  0  0  0  0  0  0  0  0  0
   11.4672   21.4359   35.6289 N   0  0  0  0  0  0  0  0  0  0  0  0
   13.1432   23.7836   29.5667 O   0  0  0  0  0  0  0  0  0  0  0  0
   13.9577   22.8800   30.3178 C   0  0  1  0  0  0  0  0  0  0  0  0
   13.5775   21.4821   33.8295 O   0  0  0  0  0  0  0  0  0  0  0  0
   15.2973   23.5555   30.6203 C   0  0  1  0  0  0  0  0  0  0  0  0
   13.8173   19.1342   33.8787 O   0  0  0  0  0  0  0  0  0  0  0  0
   16.2042   22.5998   31.3986 C   0  0  0  0  0  0  0  0  0  0  0  0
   15.3973   19.0498   37.2050 O   0  0  0  0  0  0  0  0  0  0  0  0
   15.5270   22.2274   32.7190 C   0  0  1  0  0  0  0  0  0  0  0  0
   12.7966   20.1182   37.7949 O   0  0  0  0  0  0  0  0  0  0  0  0
   14.1251   21.6439   32.5116 C   0  0  2  0  0  0  0  0  0  0  0  0
   10.0219   24.0284   31.8939 O   0  0  0  0  0  0  0  0  0  0  0  0
   12.8993   20.2332   34.0284 C   0  0  1  0  0  0  0  0  0  0  0  0
    8.8134   22.6239   33.9714 O   0  0  0  0  0  0  0  0  0  0  0  0
   14.8984   19.1272   34.8270 C   0  0  2  0  0  0  0  0  0  0  0  0
   15.8053   17.9306   34.5291 C   0  0  0  0  0  0  0  0  0  0  0  0
   14.3335   19.0256   36.2483 C   0  0  2  0  0  0  0  0  0  0  0  0
   13.3970   20.2095   36.4988 C   0  0  1  0  0  0  0  0  0  0  0  0
   12.2957   20.2375   35.4365 C   0  0  1  0  0  0  0  0  0  0  0  0
    9.8334   22.6164   31.7591 C   0  0  2  0  0  0  0  0  0  0  0  0
    8.7045   22.0959   32.6468 C   0  0  1  0  0  0  0  0  0  0  0  0
  3  1  1  0  0  0  0
  4  1  1  6  0  0  0
  4  6  1  0  0  0  0
  4 31  1  0  0  0  0
  6  7  1  0  0  0  0
  7  9  1  6  0  0  0
  7 30  1  0  0  0  0
 10  9  1  6  0  0  0
 10 13  1  0  0  0  0
 10 21  1  0  0  0  0
 13 12  1  1  0  0  0
 13 15  1  0  0  0  0
 15  2  1  6  0  0  0
 15 17  1  0  0  0  0
 16 25  1  0  0  0  0
 17 19  1  0  0  0  0
 19  5  1  6  0  0  0
 19 21  1  0  0  0  0
 21 14  1  1  0  0  0
 23 14  1  1  0  0  0
 23 16  1  0  0  0  0
 23 29  1  0  0  0  0
 25 26  1  6  0  0  0
 25 27  1  0  0  0  0
 26  8  1  0  0  0  0
 27 18  1  1  0  0  0
 27 28  1  0  0  0  0
 28 20  1  1  0  0  0
 28 29  1  0  0  0  0
 29 11  1  1  0  0  0
 30 22  1  1  0  0  0
 30 31  1  0  0  0  0
 31 24  1  1  0  0  0
M  END
>  <CHROM.1>
61.28044457,-134.08043473,-155.30376514,99.10854381,62.63187594,170.47830182
12.81314978,21.11635153,33.18721539,2.38172515,-0.03036445,-0.94468641

>  <Name>
2fcz_lig

>  <RI>
0

>  <Rbt.Current_Directory>
/home/itssahil/PROJECTS/Mol_Feturizer/New_Systems/rnas/2fcz

>  <Rbt.Executable>
rbdock ($Id: //depot/dev/client3/rdock/2013.1/src/exe/rbdock.cxx#4 $)

>  <Rbt.Library>
libRbt.so (2013.1, Build901 2013/11/27)

>  <Rbt.Parameter_File>
/export/apps/rDock/src/rDock_2013.1_src/data/scripts/dock_solv.prm

>  <Rbt.Receptor>
prm/blind_docking_80.prm

>  <SCORE>
-15.9637

>  <SCORE.INTER>
-19.4183

>  <SCORE.INTER.CONST>
1

>  <SCORE.INTER.POLAR>
-2.28493

>  <SCORE.INTER.ROT>
6

>  <SCORE.INTER.SOLV>
17.557

>  <SCORE.INTER.VDW>
-18.7815

>  <SCORE.INTER.norm>
-0.626397

>  <SCORE.INTRA>
3.45464

>  <SCORE.INTRA.DIHEDRAL>
3.59825

>  <SCORE.INTRA.DIHEDRAL.0>
10.8409

>  <SCORE.INTRA.POLAR>
0

>  <SCORE.INTRA.POLAR.0>
0

>  <SCORE.INTRA.REPUL>
0

>  <SCORE.INTRA.REPUL.0>
0

>  <SCORE.INTRA.SOLV>
2.88381

>  <SCORE.INTRA.SOLV.lig_0>
-80.8302

>  <SCORE.INTRA.VDW>
0.213608

>  <SCORE.INTRA.VDW.0>
-4.23953

>  <SCORE.INTRA.norm>
0.11144

>  <SCORE.RESTR>
0

>  <SCORE.RESTR.CAVITY>
0

>  <SCORE.RESTR.norm>
0

>  <SCORE.SYSTEM>
0

>  <SCORE.SYSTEM.CONST>
0

>  <SCORE.SYSTEM.DIHEDRAL>
0

>  <SCORE.SYSTEM.SOLV>
0

>  <SCORE.SYSTEM.norm>
0

>  <SCORE.heavy>
31

>  <SCORE.norm>
-0.514957

>  <RMSD>
6.869

$$$$
2fcz_lig
 OpenBabel11021811433D
libRbt.so/2013.1/901 2013/11/27
 31 33  0  0  0  0  0  0  0  0999 V2000
   15.4769   24.8178   32.5577 C   0  0  0  0  0  0  0  0  0  0  0  0
   17.6971   16.8563   34.7971 N   0  0  0  0  0  0  0  0  0  0  0  0
   15.2657   23.8283   31.5468 O   0  0  0  0  0  0  0  0  0  0  0  0
   16.0681   24.1582   33.8082 C   0  0  1  0  0  0  0  0  0  0  0  0
   13.0705   16.4514   33.2550 N   0  0  0  0  0  0  0  0  0  0  0  0
   15.2894   23.0199   34.2294 O   0  0  0  0  0  0  0  0  0  0  0  0
   16.0172   21.8072   33.9510 C   0  0  1  0  0  0  0  0  0  0  0  0
   10.1895   22.9197   31.3966 N   0  0  0  0  0  0  0  0  0  0  0  0
   15.1948   20.7945   33.3464 O   0  0  0  0  0  0  0  0  0  0  0  0
   15.1005   19.5782   34.1070 C   0  0  2  0  0  0  0  0  0  0  0  0
   12.5411   20.2664   36.2816 N   0  0  0  0  0  0  0  0  0  0  0  0
   17.4173   19.6742   34.7978 O   0  0  0  0  0  0  0  0  0  0  0  0
   16.4621   18.8723   34.0988 C   0  0  1  0  0  0  0  0  0  0  0  0
   12.6967   19.2060   33.7234 O   0  0  0  0  0  0  0  0  0  0  0  0
   16.3772   17.5017   34.7745 C   0  0  1  0  0  0  0  0  0  0  0  0
   11.9565   21.2133   32.7255 O   0  0  0  0  0  0  0  0  0  0  0  0
   15.3833   16.6085   34.0288 C   0  0  0  0  0  0  0  0  0  0  0  0
    8.4382   20.7830   33.7278 O   0  0  0  0  0  0  0  0  0  0  0  0
   14.0003   17.2622   34.0573 C   0  0  1  0  0  0  0  0  0  0  0  0
    9.7714   20.9895   36.2642 O   0  0  0  0  0  0  0  0  0  0  0  0
   14.0178   18.6891   33.4985 C   0  0  2  0  0  0  0  0  0  0  0  0
   18.2344   21.3524   32.9550 O   0  0  0  0  0  0  0  0  0  0  0  0
   12.6447   20.6345   33.8500 C   0  0  1  0  0  0  0  0  0  0  0  0
   18.2369   23.5005   34.7255 O   0  0  0  0  0  0  0  0  0  0  0  0
   10.5857   20.8004   32.5887 C   0  0  2  0  0  0  0  0  0  0  0  0
    9.9952   21.4635   31.3419 C   0  0  0  0  0  0  0  0  0  0  0  0
    9.7977   21.2159   33.8361 C   0  0  2  0  0  0  0  0  0  0  0  0
   10.4393   20.5745   35.0683 C   0  0  1  0  0  0  0  0  0  0  0  0
   11.9149   20.9711   35.1543 C   0  0  1  0  0  0  0  0  0  0  0  0
   17.1108   22.2383   32.9724 C   0  0  2  0  0  0  0  0  0  0  0  0
   17.4692   23.6166   33.5246 C   0  0  1  0  0  0  0  0  0  0  0  0
  3  1  1  0  0  0  0
  4  1  1  6  0  0  0
  4  6  1  0  0  0  0
  4 31  1  0  0  0  0
  6  7  1  0  0  0  0
  7  9  1  6  0  0  0
  7 30  1  0  0  0  0
 10  9  1  6  0  0  0
 10 13  1  0  0  0  0
 10 21  1  0  0  0  0
 13 12  1  1  0  0  0
 13 15  1  0  0  0  0
 15  2  1  6  0  0  0
 15 17  1  0  0  0  0
 16 25  1  0  0  0  0
 17 19  1  0  0  0  0
 19  5  1  6  0  0  0
 19 21  1  0  0  0  0
 21 14  1  1  0  0  0
 23 14  1  6  0  0  0
 23 16  1  0  0  0  0
 23 29  1  0  0  0  0
 25 26  1  6  0  0  0
 25 27  1  0  0  0  0
 26  8  1  0  0  0  0
 27 18  1  6  0  0  0
 27 28  1  0  0  0  0
 28 20  1  1  0  0  0
 28 29  1  0  0  0  0
 29 11  1  1  0  0  0
 30 22  1  1  0  0  0
 30 31  1  0  0  0  0
 31 24  1  1  0  0  0
M  END
>  <CHROM.1>
-51.59950063,-119.80724327,-68.45379793,28.51384430,111.98066660,-53.71869537
14.03413705,20.73647281,33.76958716,0.05137656,-0.03944750,-0.23022124

>  <Name>
2fcz_lig

>  <RI>
1.40544e+07

>  <Rbt.Current_Directory>
/home/itssahil/PROJECTS/Mol_Feturizer/New_Systems/rnas/2fcz

>  <Rbt.Executable>
rbdock ($Id: //depot/dev/client3/rdock/2013.1/src/exe/rbdock.cxx#4 $)

>  <Rbt.Library>
libRbt.so (2013.1, Build901 2013/11/27)

>  <Rbt.Parameter_File>
/export/apps/rDock/src/rDock_2013.1_src/data/scripts/dock_solv.prm

>  <Rbt.Receptor>
prm/blind_docking_100.prm

>  <SCORE>
1.30502

>  <SCORE.INTER>
-7.28409

>  <SCORE.INTER.CONST>
1

>  <SCORE.INTER.POLAR>
-1.21286

>  <SCORE.INTER.ROT>
6

>  <SCORE.INTER.SOLV>
14.2401

>  <SCORE.INTER.VDW>
-13.1599

>  <SCORE.INTER.norm>
-0.234971

>  <SCORE.INTRA>
8.56529

>  <SCORE.INTRA.DIHEDRAL>
7.82791

>  <SCORE.INTRA.DIHEDRAL.0>
10.8409

>  <SCORE.INTRA.POLAR>
0

>  <SCORE.INTRA.POLAR.0>
0

>  <SCORE.INTRA.REPUL>
0

>  <SCORE.INTRA.REPUL.0>
0

>  <SCORE.INTRA.SOLV>
-0.350293

>  <SCORE.INTRA.SOLV.lig_0>
-80.8302

>  <SCORE.INTRA.VDW>
4.82648

>  <SCORE.INTRA.VDW.0>
-4.23953

>  <SCORE.INTRA.norm>
0.2763

>  <SCORE.RESTR>
0.0238215

>  <SCORE.RESTR.CAVITY>
0.0238215

>  <SCORE.RESTR.norm>
0.000768436

>  <SCORE.SYSTEM>
0

>  <SCORE.SYSTEM.CONST>
0

>  <SCORE.SYSTEM.DIHEDRAL>
0

>  <SCORE.SYSTEM.SOLV>
0

>  <SCORE.SYSTEM.norm>
0

>  <SCORE.heavy>
31

>  <SCORE.norm>
0.0420975

>  <RMSD>
6.877

$$$$
2fcz_lig
 OpenBabel11021811433D
libRbt.so/2013.1/901 2013/11/27
 31 33  0  0  0  0  0  0  0  0999 V2000
    9.0174   13.4282   35.3612 C   0  0  0  0  0  0  0  0  0  0  0  0
   10.3978   21.3426   33.4022 N   0  0  0  0  0  0  0  0  0  0  0  0
    7.6596   13.0671   35.0940 O   0  0  0  0  0  0  0  0  0  0  0  0
    9.4889   14.4583   34.3292 C   0  0  1  0  0  0  0  0  0  0  0  0
   12.4798   20.1489   37.6668 N   0  0  0  0  0  0  0  0  0  0  0  0
    8.7167   15.6742   34.3983 O   0  0  0  0  0  0  0  0  0  0  0  0
    9.5232   16.7270   34.9630 C   0  0  1  0  0  0  0  0  0  0  0  0
   13.9852   16.3111   37.8749 N   0  0  0  0  0  0  0  0  0  0  0  0
    8.8201   17.4892   35.9590 O   0  0  0  0  0  0  0  0  0  0  0  0
    9.2536   18.8553   36.0725 C   0  0  2  0  0  0  0  0  0  0  0  0
    8.2027   18.0658   40.1887 N   0  0  0  0  0  0  0  0  0  0  0  0
    8.3431   19.4627   33.9148 O   0  0  0  0  0  0  0  0  0  0  0  0
    9.5539   19.4062   34.6730 C   0  0  1  0  0  0  0  0  0  0  0  0
   10.1871   18.6541   38.3423 O   0  0  0  0  0  0  0  0  0  0  0  0
   10.1555   20.8114   34.7506 C   0  0  1  0  0  0  0  0  0  0  0  0
   11.1495   16.5063   38.5250 O   0  0  0  0  0  0  0  0  0  0  0  0
   11.4710   20.7778   35.5316 C   0  0  0  0  0  0  0  0  0  0  0  0
   12.6866   17.1298   41.8139 O   0  0  0  0  0  0  0  0  0  0  0  0
   11.2003   20.2750   36.9510 C   0  0  1  0  0  0  0  0  0  0  0  0
    9.8839   17.3686   42.3982 O   0  0  0  0  0  0  0  0  0  0  0  0
   10.4928   18.9155   36.9635 C   0  0  2  0  0  0  0  0  0  0  0  0
   11.8576   16.8244   35.7727 O   0  0  0  0  0  0  0  0  0  0  0  0
    9.9343   17.2712   38.6301 C   0  0  1  0  0  0  0  0  0  0  0  0
   11.5642   15.3726   33.4157 O   0  0  0  0  0  0  0  0  0  0  0  0
   12.1814   16.8969   39.4474 C   0  0  2  0  0  0  0  0  0  0  0  0
   13.4162   16.0268   39.2003 C   0  0  0  0  0  0  0  0  0  0  0  0
   11.6809   16.7145   40.8846 C   0  0  2  0  0  0  0  0  0  0  0  0
   10.4218   17.5604   41.0857 C   0  0  1  0  0  0  0  0  0  0  0  0
    9.3639   17.1761   40.0488 C   0  0  1  0  0  0  0  0  0  0  0  0
   10.7024   15.9964   35.6072 C   0  0  2  0  0  0  0  0  0  0  0  0
   10.9353   14.8730   34.5988 C   0  0  1  0  0  0  0  0  0  0  0  0
  3  1  1  0  0  0  0
  4  1  1  1  0  0  0
  4  6  1  0  0  0  0
  4 31  1  0  0  0  0
  6  7  1  0  0  0  0
  7  9  1  1  0  0  0
  7 30  1  0  0  0  0
 10  9  1  6  0  0  0
 10 13  1  0  0  0  0
 10 21  1  0  0  0  0
 13 12  1  6  0  0  0
 13 15  1  0  0  0  0
 15  2  1  6  0  0  0
 15 17  1  0  0  0  0
 16 25  1  0  0  0  0
 17 19  1  0  0  0  0
 19  5  1  1  0  0  0
 19 21  1  0  0  0  0
 21 14  1  1  0  0  0
 23 14  1  1  0  0  0
 23 16  1  0  0  0  0
 23 29  1  0  0  0  0
 25 26  1  1  0  0  0
 25 27  1  0  0  0  0
 26  8  1  0  0  0  0
 27 18  1  1  0  0  0
 27 28  1  0  0  0  0
 28 20  1  1  0  0  0
 28 29  1  0  0  0  0
 29 11  1  6  0  0  0
 30 22  1  6  0  0  0
 30 31  1  0  0  0  0
 31 24  1  6  0  0  0
M  END
>  <CHROM.1>
62.00459561,-150.93547251,38.66965695,75.04994490,69.90647996,66.10762989
10.46154251,17.37143245,37.02357529,2.72189063,-1.28560080,-0.48406702

>  <Name>
2fcz_lig

>  <RI>
2.76032e+07

>  <Rbt.Current_Directory>
/home/itssahil/PROJECTS/Mol_Feturizer/New_Systems/rnas/2fcz

>  <Rbt.Executable>
rbdock ($Id: //depot/dev/client3/rdock/2013.1/src/exe/rbdock.cxx#4 $)

>  <Rbt.Library>
libRbt.so (2013.1, Build901 2013/11/27)

>  <Rbt.Parameter_File>
/export/apps/rDock/src/rDock_2013.1_src/data/scripts/dock_solv.prm

>  <Rbt.Receptor>
prm/pocket_docking_8.prm

>  <SCORE>
-10.9497

>  <SCORE.INTER>
-10.9003

>  <SCORE.INTER.CONST>
1

>  <SCORE.INTER.POLAR>
-1.38624

>  <SCORE.INTER.ROT>
6

>  <SCORE.INTER.SOLV>
12.4704

>  <SCORE.INTER.VDW>
-14.4029

>  <SCORE.INTER.norm>
-0.351623

>  <SCORE.INTRA>
-0.0494092

>  <SCORE.INTRA.DIHEDRAL>
-3.6375

>  <SCORE.INTRA.DIHEDRAL.0>
10.8409

>  <SCORE.INTRA.POLAR>
0

>  <SCORE.INTRA.POLAR.0>
0

>  <SCORE.INTRA.REPUL>
0

>  <SCORE.INTRA.REPUL.0>
0

>  <SCORE.INTRA.SOLV>
-0.19469

>  <SCORE.INTRA.SOLV.lig_0>
-80.8302

>  <SCORE.INTRA.VDW>
1.86669

>  <SCORE.INTRA.VDW.0>
-4.23953

>  <SCORE.INTRA.norm>
-0.00159385

>  <SCORE.RESTR>
0

>  <SCORE.RESTR.CAVITY>
0

>  <SCORE.RESTR.norm>
0

>  <SCORE.SYSTEM>
0

>  <SCORE.SYSTEM.CONST>
0

>  <SCORE.SYSTEM.DIHEDRAL>
0

>  <SCORE.SYSTEM.SOLV>
0

>  <SCORE.SYSTEM.norm>
0

>  <SCORE.heavy>
31

>  <SCORE.norm>
-0.353217

>  <RMSD>
6.877

$$$$
2fcz_lig
 OpenBabel11021811433D
libRbt.so/2013.1/901 2013/11/27
 31 33  0  0  0  0  0  0  0  0999 V2000
   16.1402   24.1617   30.1722 C   0  0  0  0  0  0  0  0  0  0  0  0
   16.0115   26.6313   36.9495 N   0  0  0  0  0  0  0  0  0  0  0  0
   16.6440   23.6003   28.9571 O   0  0  0  0  0  0  0  0  0  0  0  0
   16.7104   23.3937   31.3695 C   0  0  1  0  0  0  0  0  0  0  0  0
   15.6430   21.8478   37.9139 N   0  0  0  0  0  0  0  0  0  0  0  0
   16.1998   23.8997   32.6197 O   0  0  0  0  0  0  0  0  0  0  0  0
   15.2769   22.9477   33.1851 C   0  0  1  0  0  0  0  0  0  0  0  0
    9.7201   22.8864   32.9159 N   0  0  0  0  0  0  0  0  0  0  0  0
   14.0745   23.5657   33.6746 O   0  0  0  0  0  0  0  0  0  0  0  0
   14.1073   23.8962   35.0734 C   0  0  2  0  0  0  0  0  0  0  0  0
   12.1818   20.1352   37.7003 N   0  0  0  0  0  0  0  0  0  0  0  0
   14.4101   26.2579   34.6441 O   0  0  0  0  0  0  0  0  0  0  0  0
   15.0038   25.1233   35.2800 C   0  0  1  0  0  0  0  0  0  0  0  0
   13.6850   21.6151   35.8993 O   0  0  0  0  0  0  0  0  0  0  0  0
   15.1863   25.4290   36.7685 C   0  0  1  0  0  0  0  0  0  0  0  0
   11.7688   22.6152   34.9502 O   0  0  0  0  0  0  0  0  0  0  0  0
   15.8491   24.2424   37.4716 C   0  0  0  0  0  0  0  0  0  0  0  0
   10.7341   19.6087   33.0906 O   0  0  0  0  0  0  0  0  0  0  0  0
   14.9568   23.0084   37.3243 C   0  0  1  0  0  0  0  0  0  0  0  0
   10.5438   18.7305   35.8193 O   0  0  0  0  0  0  0  0  0  0  0  0
   14.6302   22.6958   35.8599 C   0  0  2  0  0  0  0  0  0  0  0  0
   14.4699   20.7284   32.4512 O   0  0  0  0  0  0  0  0  0  0  0  0
   12.3333   22.0328   36.1398 C   0  0  1  0  0  0  0  0  0  0  0  0
   17.2004   21.0988   32.0555 O   0  0  0  0  0  0  0  0  0  0  0  0
   11.6886   21.7193   33.8282 C   0  0  2  0  0  0  0  0  0  0  0  0
   11.1041   22.4783   32.6343 C   0  0  0  0  0  0  0  0  0  0  0  0
   10.7973   20.5252   34.1876 C   0  0  2  0  0  0  0  0  0  0  0  0
   11.3827   19.8157   35.4104 C   0  0  1  0  0  0  0  0  0  0  0  0
   11.5243   20.8048   36.5695 C   0  0  1  0  0  0  0  0  0  0  0  0
   14.9414   22.0101   32.0241 C   0  0  2  0  0  0  0  0  0  0  0  0
   16.2937   21.9238   31.3191 C   0  0  1  0  0  0  0  0  0  0  0  0
  3  1  1  0  0  0  0
  4  1  1  6  0  0  0
  4  6  1  0  0  0  0
  4 31  1  0  0  0  0
  6  7  1  0  0  0  0
  7  9  1  6  0  0  0
  7 30  1  0  0  0  0
 10  9  1  6  0  0  0
 10 13  1  0  0  0  0
 10 21  1  0  0  0  0
 13 12  1  6  0  0  0
 13 15  1  0  0  0  0
 15  2  1  6  0  0  0
 15 17  1  0  0  0  0
 16 25  1  0  0  0  0
 17 19  1  0  0  0  0
 19  5  1  6  0  0  0
 19 21  1  0  0  0  0
 21 14  1  1  0  0  0
 23 14  1  6  0  0  0
 23 16  1  0  0  0  0
 23 29  1  0  0  0  0
 25 26  1  6  0  0  0
 25 27  1  0  0  0  0
 26  8  1  0  0  0  0
 27 18  1  6  0  0  0
 27 28  1  0  0  0  0
 28 20  1  1  0  0  0
 28 29  1  0  0  0  0
 29 11  1  1  0  0  0
 30 22  1  1  0  0  0
 30 31  1  0  0  0  0
 31 24  1  1  0  0  0
M  END
>  <CHROM.1>
-178.33219692,-93.88602330,74.23363362,-42.93364225,75.79117667,-64.55671342
13.91280394,22.54594646,34.28108295,0.36778422,-0.69389943,-1.84895170

>  <Name>
2fcz_lig

>  <RI>
0

>  <Rbt.Current_Directory>
/home/itssahil/PROJECTS/Mol_Feturizer/New_Systems/rnas/2fcz

>  <Rbt.Executable>
rbdock ($Id: //depot/dev/client3/rdock/2013.1/src/exe/rbdock.cxx#4 $)

>  <Rbt.Library>
libRbt.so (2013.1, Build901 2013/11/27)

>  <Rbt.Parameter_File>
/export/apps/rDock/src/rDock_2013.1_src/data/scripts/dock_solv.prm

>  <Rbt.Receptor>
prm/blind_docking_80.prm

>  <SCORE>
-10.8794

>  <SCORE.INTER>
-13.813

>  <SCORE.INTER.CONST>
1

>  <SCORE.INTER.POLAR>
-1.57871

>  <SCORE.INTER.ROT>
6

>  <SCORE.INTER.SOLV>
19.6352

>  <SCORE.INTER.VDW>
-18.0914

>  <SCORE.INTER.norm>
-0.445579

>  <SCORE.INTRA>
1.36226

>  <SCORE.INTRA.DIHEDRAL>
-2.9107

>  <SCORE.INTRA.DIHEDRAL.0>
10.8409

>  <SCORE.INTRA.POLAR>
0

>  <SCORE.INTRA.POLAR.0>
0

>  <SCORE.INTRA.REPUL>
0

>  <SCORE.INTRA.REPUL.0>
0

>  <SCORE.INTRA.SOLV>
-0.761623

>  <SCORE.INTRA.SOLV.lig_0>
-80.8302

>  <SCORE.INTRA.VDW>
3.19842

>  <SCORE.INTRA.VDW.0>
-4.23953

>  <SCORE.INTRA.norm>
0.0439439

>  <SCORE.RESTR>
1.57131

>  <SCORE.RESTR.CAVITY>
1.57131

>  <SCORE.RESTR.norm>
0.0506875

>  <SCORE.SYSTEM>
0

>  <SCORE.SYSTEM.CONST>
0

>  <SCORE.SYSTEM.DIHEDRAL>
0

>  <SCORE.SYSTEM.SOLV>
0

>  <SCORE.SYSTEM.norm>
0

>  <SCORE.heavy>
31

>  <SCORE.norm>
-0.350948

>  <RMSD>
6.881

$$$$
2fcz_lig
 OpenBabel11021811433D
libRbt.so/2013.1/901 2013/11/27
 31 33  0  0  0  0  0  0  0  0999 V2000
   16.5051   17.6488   35.4514 C   0  0  0  0  0  0  0  0  0  0  0  0
    8.6121   16.8427   31.7440 N   0  0  0  0  0  0  0  0  0  0  0  0
   17.8418   17.2772   35.7988 O   0  0  0  0  0  0  0  0  0  0  0  0
   15.7148   16.4023   35.0391 C   0  0  1  0  0  0  0  0  0  0  0  0
    9.8079   20.8417   34.2985 N   0  0  0  0  0  0  0  0  0  0  0  0
   14.3251   16.7062   34.8024 O   0  0  0  0  0  0  0  0  0  0  0  0
   14.0503   16.6405   33.3889 C   0  0  1  0  0  0  0  0  0  0  0  0
   15.2317   22.7722   32.3739 N   0  0  0  0  0  0  0  0  0  0  0  0
   13.2653   17.7523   32.9254 O   0  0  0  0  0  0  0  0  0  0  0  0
   11.9180   17.7740   33.4265 C   0  0  2  0  0  0  0  0  0  0  0  0
   13.8488   19.5329   37.2771 N   0  0  0  0  0  0  0  0  0  0  0  0
   11.2492   15.8710   32.0905 O   0  0  0  0  0  0  0  0  0  0  0  0
   10.9687   17.2502   32.3417 C   0  0  1  0  0  0  0  0  0  0  0  0
   12.2502   19.6282   35.0125 O   0  0  0  0  0  0  0  0  0  0  0  0
    9.5071   17.3874   32.7743 C   0  0  1  0  0  0  0  0  0  0  0  0
   13.9440   20.6490   33.7234 O   0  0  0  0  0  0  0  0  0  0  0  0
    9.1677   18.8590   33.0213 C   0  0  0  0  0  0  0  0  0  0  0  0
   13.5795   23.9615   35.2926 O   0  0  0  0  0  0  0  0  0  0  0  0
   10.0673   19.4027   34.1331 C   0  0  1  0  0  0  0  0  0  0  0  0
   14.4143   22.3299   37.5049 O   0  0  0  0  0  0  0  0  0  0  0  0
   11.5561   19.2022   33.8295 C   0  0  2  0  0  0  0  0  0  0  0  0
   15.4438   16.1170   31.4144 O   0  0  0  0  0  0  0  0  0  0  0  0
   13.6664   19.7765   34.8345 C   0  0  1  0  0  0  0  0  0  0  0  0
   15.9331   14.4472   33.5873 O   0  0  0  0  0  0  0  0  0  0  0  0
   13.4449   21.9888   33.8783 C   0  0  2  0  0  0  0  0  0  0  0  0
   13.7818   22.7874   32.6167 C   0  0  0  0  0  0  0  0  0  0  0  0
   14.0911   22.6381   35.1073 C   0  0  2  0  0  0  0  0  0  0  0  0
   13.7745   21.7926   36.3428 C   0  0  1  0  0  0  0  0  0  0  0  0
   14.2513   20.3545   36.1271 C   0  0  1  0  0  0  0  0  0  0  0  0
   15.4316   16.6728   32.7329 C   0  0  2  0  0  0  0  0  0  0  0  0
   16.2431   15.8369   33.7208 C   0  0  1  0  0  0  0  0  0  0  0  0
  3  1  1  0  0  0  0
  4  1  1  6  0  0  0
  4  6  1  0  0  0  0
  4 31  1  0  0  0  0
  6  7  1  0  0  0  0
  7  9  1  6  0  0  0
  7 30  1  0  0  0  0
 10  9  1  6  0  0  0
 10 13  1  0  0  0  0
 10 21  1  0  0  0  0
 13 12  1  1  0  0  0
 13 15  1  0  0  0  0
 15  2  1  6  0  0  0
 15 17  1  0  0  0  0
 16 25  1  0  0  0  0
 17 19  1  0  0  0  0
 19  5  1  6  0  0  0
 19 21  1  0  0  0  0
 21 14  1  1  0  0  0
 23 14  1  1  0  0  0
 23 16  1  0  0  0  0
 23 29  1  0  0  0  0
 25 26  1  6  0  0  0
 25 27  1  0  0  0  0
 26  8  1  0  0  0  0
 27 18  1  1  0  0  0
 27 28  1  0  0  0  0
 28 20  1  1  0  0  0
 28 29  1  0  0  0  0
 29 11  1  1  0  0  0
 30 22  1  6  0  0  0
 30 31  1  0  0  0  0
 31 24  1  1  0  0  0
M  END
>  <CHROM.1>
174.46735140,-67.49104863,-101.18073164,67.46131284,53.96098656,-57.18168740
13.39568780,18.92371556,34.08901422,-1.53457929,-0.32965630,0.33499080

>  <Name>
2fcz_lig

>  <RI>
0

>  <Rbt.Current_Directory>
/home/itssahil/PROJECTS/Mol_Feturizer/New_Systems/rnas/2fcz

>  <Rbt.Executable>
rbdock ($Id: //depot/dev/client3/rdock/2013.1/src/exe/rbdock.cxx#4 $)

>  <Rbt.Library>
libRbt.so (2013.1, Build901 2013/11/27)

>  <Rbt.Parameter_File>
/export/apps/rDock/src/rDock_2013.1_src/data/scripts/dock_solv.prm

>  <Rbt.Receptor>
prm/blind_docking_80.prm

>  <SCORE>
-12.0205

>  <SCORE.INTER>
-9.62879

>  <SCORE.INTER.CONST>
1

>  <SCORE.INTER.POLAR>
-0.933766

>  <SCORE.INTER.ROT>
6

>  <SCORE.INTER.SOLV>
17.2709

>  <SCORE.INTER.VDW>
-16.6636

>  <SCORE.INTER.norm>
-0.310606

>  <SCORE.INTRA>
-2.45197

>  <SCORE.INTRA.DIHEDRAL>
-4.26269

>  <SCORE.INTRA.DIHEDRAL.0>
10.8409

>  <SCORE.INTRA.POLAR>
0

>  <SCORE.INTRA.POLAR.0>
0

>  <SCORE.INTRA.REPUL>
0

>  <SCORE.INTRA.REPUL.0>
0

>  <SCORE.INTRA.SOLV>
-1.37037

>  <SCORE.INTRA.SOLV.lig_0>
-80.8302

>  <SCORE.INTRA.VDW>
0.364557

>  <SCORE.INTRA.VDW.0>
-4.23953

>  <SCORE.INTRA.norm>
-0.0790959

>  <SCORE.RESTR>
0.0602982

>  <SCORE.RESTR.CAVITY>
0.0602982

>  <SCORE.RESTR.norm>
0.0019451

>  <SCORE.SYSTEM>
0

>  <SCORE.SYSTEM.CONST>
0

>  <SCORE.SYSTEM.DIHEDRAL>
0

>  <SCORE.SYSTEM.SOLV>
0

>  <SCORE.SYSTEM.norm>
0

>  <SCORE.heavy>
31

>  <SCORE.norm>
-0.387757

>  <RMSD>
6.890

$$$$
2fcz_lig
 OpenBabel11021811433D
libRbt.so/2013.1/901 2013/11/27
 31 33  0  0  0  0  0  0  0  0999 V2000
    9.8761   23.3882   30.3111 C   0  0  0  0  0  0  0  0  0  0  0  0
   13.4960   18.1642   36.5389 N   0  0  0  0  0  0  0  0  0  0  0  0
   10.9769   23.5305   29.4092 O   0  0  0  0  0  0  0  0  0  0  0  0
    9.6865   21.9088   30.6629 C   0  0  1  0  0  0  0  0  0  0  0  0
   16.5867   21.0675   34.0963 N   0  0  0  0  0  0  0  0  0  0  0  0
   10.8865   21.3353   31.2203 O   0  0  0  0  0  0  0  0  0  0  0  0
   10.6989   21.0984   32.6297 C   0  0  1  0  0  0  0  0  0  0  0  0
   15.2470   26.4630   33.3146 N   0  0  0  0  0  0  0  0  0  0  0  0
   11.8213   21.5302   33.4179 O   0  0  0  0  0  0  0  0  0  0  0  0
   12.8332   20.5262   33.6048 C   0  0  2  0  0  0  0  0  0  0  0  0
   13.9171   21.9424   29.5421 N   0  0  0  0  0  0  0  0  0  0  0  0
   11.3751   19.1122   34.9195 O   0  0  0  0  0  0  0  0  0  0  0  0
   12.6102   19.8316   34.9539 C   0  0  1  0  0  0  0  0  0  0  0  0
   14.5540   21.6171   32.2219 O   0  0  0  0  0  0  0  0  0  0  0  0
   13.7449   18.8528   35.2649 C   0  0  1  0  0  0  0  0  0  0  0  0
   14.3967   23.9322   32.6556 O   0  0  0  0  0  0  0  0  0  0  0  0
   15.0783   19.5999   35.3387 C   0  0  0  0  0  0  0  0  0  0  0  0
   17.5821   24.7770   31.0102 O   0  0  0  0  0  0  0  0  0  0  0  0
   15.3553   20.2686   33.9908 C   0  0  1  0  0  0  0  0  0  0  0  0
   16.0277   23.7396   28.8282 O   0  0  0  0  0  0  0  0  0  0  0  0
   14.2099   21.1853   33.5478 C   0  0  2  0  0  0  0  0  0  0  0  0
    8.7995   21.4613   34.1709 O   0  0  0  0  0  0  0  0  0  0  0  0
   13.9298   22.8485   31.8306 C   0  0  1  0  0  0  0  0  0  0  0  0
    8.0373   20.4313   31.6996 O   0  0  0  0  0  0  0  0  0  0  0  0
   15.8095   24.1846   32.5648 C   0  0  2  0  0  0  0  0  0  0  0  0
   16.1654   25.3323   33.5131 C   0  0  0  0  0  0  0  0  0  0  0  0
   16.1731   24.5542   31.1223 C   0  0  2  0  0  0  0  0  0  0  0  0
   15.7639   23.4077   30.1952 C   0  0  1  0  0  0  0  0  0  0  0  0
   14.2718   23.1102   30.3604 C   0  0  1  0  0  0  0  0  0  0  0  0
    9.4638   21.9249   32.9914 C   0  0  2  0  0  0  0  0  0  0  0  0
    8.6120   21.7402   31.7370 C   0  0  1  0  0  0  0  0  0  0  0  0
  3  1  1  0  0  0  0
  4  1  1  1  0  0  0
  4  6  1  0  0  0  0
  4 31  1  0  0  0  0
  6  7  1  0  0  0  0
  7  9  1  1  0  0  0
  7 30  1  0  0  0  0
 10  9  1  1  0  0  0
 10 13  1  0  0  0  0
 10 21  1  0  0  0  0
 13 12  1  6  0  0  0
 13 15  1  0  0  0  0
 15  2  1  1  0  0  0
 15 17  1  0  0  0  0
 16 25  1  0  0  0  0
 17 19  1  0  0  0  0
 19  5  1  1  0  0  0
 19 21  1  0  0  0  0
 21 14  1  6  0  0  0
 23 14  1  1  0  0  0
 23 16  1  0  0  0  0
 23 29  1  0  0  0  0
 25 26  1  1  0  0  0
 25 27  1  0  0  0  0
 26  8  1  0  0  0  0
 27 18  1  1  0  0  0
 27 28  1  0  0  0  0
 28 20  1  6  0  0  0
 28 29  1  0  0  0  0
 29 11  1  6  0  0  0
 30 22  1  1  0  0  0
 30 31  1  0  0  0  0
 31 24  1  1  0  0  0
M  END
>  <CHROM.1>
56.62302310,-89.46174024,-96.51830710,78.69701895,64.68868348,-49.06160960
13.13100734,22.04002813,32.47963598,2.61793039,0.24832410,2.30115090

>  <Name>
2fcz_lig

>  <RI>
2.6968e+07

>  <Rbt.Current_Directory>
/home/itssahil/PROJECTS/Mol_Feturizer/New_Systems/rnas/2fcz

>  <Rbt.Executable>
rbdock ($Id: //depot/dev/client3/rdock/2013.1/src/exe/rbdock.cxx#4 $)

>  <Rbt.Library>
libRbt.so (2013.1, Build901 2013/11/27)

>  <Rbt.Parameter_File>
/export/apps/rDock/src/rDock_2013.1_src/data/scripts/dock_solv.prm

>  <Rbt.Receptor>
prm/blind_docking_60.prm

>  <SCORE>
-13.1498

>  <SCORE.INTER>
-12.9045

>  <SCORE.INTER.CONST>
1

>  <SCORE.INTER.POLAR>
-1.35452

>  <SCORE.INTER.ROT>
6

>  <SCORE.INTER.SOLV>
15.6638

>  <SCORE.INTER.VDW>
-16.9092

>  <SCORE.INTER.norm>
-0.416274

>  <SCORE.INTRA>
-0.245349

>  <SCORE.INTRA.DIHEDRAL>
-0.322374

>  <SCORE.INTRA.DIHEDRAL.0>
10.8409

>  <SCORE.INTRA.POLAR>
0

>  <SCORE.INTRA.POLAR.0>
0

>  <SCORE.INTRA.REPUL>
0

>  <SCORE.INTRA.REPUL.0>
0

>  <SCORE.INTRA.SOLV>
-0.112949

>  <SCORE.INTRA.SOLV.lig_0>
-80.8302

>  <SCORE.INTRA.VDW>
-0.0276867

>  <SCORE.INTRA.VDW.0>
-4.23953

>  <SCORE.INTRA.norm>
-0.00791447

>  <SCORE.RESTR>
0

>  <SCORE.RESTR.CAVITY>
0

>  <SCORE.RESTR.norm>
0

>  <SCORE.SYSTEM>
0

>  <SCORE.SYSTEM.CONST>
0

>  <SCORE.SYSTEM.DIHEDRAL>
0

>  <SCORE.SYSTEM.SOLV>
0

>  <SCORE.SYSTEM.norm>
0

>  <SCORE.heavy>
31

>  <SCORE.norm>
-0.424188

>  <RMSD>
6.891

$$$$
2fcz_lig
 OpenBabel11021811433D
libRbt.so/2013.1/901 2013/11/27
 31 33  0  0  0  0  0  0  0  0999 V2000
   13.3141   13.9190   34.9099 C   0  0  0  0  0  0  0  0  0  0  0  0
    9.2494   15.1679   38.6388 N   0  0  0  0  0  0  0  0  0  0  0  0
   12.3471   12.9697   35.3675 O   0  0  0  0  0  0  0  0  0  0  0  0
   12.8208   14.5728   33.6146 C   0  0  1  0  0  0  0  0  0  0  0  0
   12.2377   18.9886   39.2862 N   0  0  0  0  0  0  0  0  0  0  0  0
   11.5986   15.3097   33.8212 O   0  0  0  0  0  0  0  0  0  0  0  0
   11.8695   16.7238   33.7509 C   0  0  1  0  0  0  0  0  0  0  0  0
   17.3008   21.7302   36.6790 N   0  0  0  0  0  0  0  0  0  0  0  0
   11.2348   17.4622   34.8087 O   0  0  0  0  0  0  0  0  0  0  0  0
   11.5096   16.9599   36.1275 C   0  0  2  0  0  0  0  0  0  0  0  0
   11.4647   20.4949   35.7238 N   0  0  0  0  0  0  0  0  0  0  0  0
    9.9528   15.1224   35.8961 O   0  0  0  0  0  0  0  0  0  0  0  0
   10.2506   16.2804   36.6800 C   0  0  1  0  0  0  0  0  0  0  0  0
   13.2542   18.6061   36.6848 O   0  0  0  0  0  0  0  0  0  0  0  0
   10.4474   15.8549   38.1369 C   0  0  1  0  0  0  0  0  0  0  0  0
   14.8835   20.2399   37.1836 O   0  0  0  0  0  0  0  0  0  0  0  0
   10.7379   17.0794   39.0076 C   0  0  0  0  0  0  0  0  0  0  0  0
   15.8623   20.7882   33.6752 O   0  0  0  0  0  0  0  0  0  0  0  0
   12.0167   17.7571   38.5116 C   0  0  1  0  0  0  0  0  0  0  0  0
   13.1149   21.6278   33.6775 O   0  0  0  0  0  0  0  0  0  0  0  0
   11.9469   18.1170   37.0235 C   0  0  2  0  0  0  0  0  0  0  0  0
   13.9257   18.0372   33.3488 O   0  0  0  0  0  0  0  0  0  0  0  0
   13.4744   19.9770   37.0473 C   0  0  1  0  0  0  0  0  0  0  0  0
   13.6953   15.8095   31.6954 O   0  0  0  0  0  0  0  0  0  0  0  0
   15.6454   20.0451   35.9796 C   0  0  2  0  0  0  0  0  0  0  0  0
   17.1195   20.3269   36.2802 C   0  0  0  0  0  0  0  0  0  0  0  0
   15.1340   20.9936   34.8895 C   0  0  2  0  0  0  0  0  0  0  0  0
   13.6488   20.7180   34.6448 C   0  0  1  0  0  0  0  0  0  0  0  0
   12.8688   20.8624   35.9536 C   0  0  1  0  0  0  0  0  0  0  0  0
   13.3894   16.8253   33.8885 C   0  0  2  0  0  0  0  0  0  0  0  0
   13.8361   15.5943   33.1021 C   0  0  1  0  0  0  0  0  0  0  0  0
  3  1  1  0  0  0  0
  4  1  1  1  0  0  0
  4  6  1  0  0  0  0
  4 31  1  0  0  0  0
  6  7  1  0  0  0  0
  7  9  1  1  0  0  0
  7 30  1  0  0  0  0
 10  9  1  6  0  0  0
 10 13  1  0  0  0  0
 10 21  1  0  0  0  0
 13 12  1  6  0  0  0
 13 15  1  0  0  0  0
 15  2  1  1  0  0  0
 15 17  1  0  0  0  0
 16 25  1  0  0  0  0
 17 19  1  0  0  0  0
 19  5  1  1  0  0  0
 19 21  1  0  0  0  0
 21 14  1  6  0  0  0
 23 14  1  6  0  0  0
 23 16  1  0  0  0  0
 23 29  1  0  0  0  0
 25 26  1  1  0  0  0
 25 27  1  0  0  0  0
 26  8  1  0  0  0  0
 27 18  1  6  0  0  0
 27 28  1  0  0  0  0
 28 20  1  6  0  0  0
 28 29  1  0  0  0  0
 29 11  1  6  0  0  0
 30 22  1  6  0  0  0
 30 31  1  0  0  0  0
 31 24  1  6  0  0  0
M  END
>  <CHROM.1>
62.51352587,52.70592102,-107.92122026,154.27639552,157.09698552,-63.03155267
12.91595959,17.88661493,35.63092837,-2.57767434,0.83957284,0.81146621

>  <Name>
2fcz_lig

>  <RI>
0

>  <Rbt.Current_Directory>
/home/itssahil/PROJECTS/Mol_Feturizer/New_Systems/rnas/2fcz

>  <Rbt.Executable>
rbdock ($Id: //depot/dev/client3/rdock/2013.1/src/exe/rbdock.cxx#4 $)

>  <Rbt.Library>
libRbt.so (2013.1, Build901 2013/11/27)

>  <Rbt.Parameter_File>
/export/apps/rDock/src/rDock_2013.1_src/data/scripts/dock_solv.prm

>  <Rbt.Receptor>
prm/pocket_docking_6.prm

>  <SCORE>
-6.19255

>  <SCORE.INTER>
-9.27383

>  <SCORE.INTER.CONST>
1

>  <SCORE.INTER.POLAR>
-2.47074

>  <SCORE.INTER.ROT>
6

>  <SCORE.INTER.SOLV>
11.1182

>  <SCORE.INTER.VDW>
-9.25283

>  <SCORE.INTER.norm>
-0.299156

>  <SCORE.INTRA>
3.08127

>  <SCORE.INTRA.DIHEDRAL>
1.15368

>  <SCORE.INTRA.DIHEDRAL.0>
10.8409

>  <SCORE.INTRA.POLAR>
0

>  <SCORE.INTRA.POLAR.0>
0

>  <SCORE.INTRA.REPUL>
0

>  <SCORE.INTRA.REPUL.0>
0

>  <SCORE.INTRA.SOLV>
3.50724

>  <SCORE.INTRA.SOLV.lig_0>
-80.8302

>  <SCORE.INTRA.VDW>
0.750814

>  <SCORE.INTRA.VDW.0>
-4.23953

>  <SCORE.INTRA.norm>
0.0993959

>  <SCORE.RESTR>
0

>  <SCORE.RESTR.CAVITY>
0

>  <SCORE.RESTR.norm>
0

>  <SCORE.SYSTEM>
0

>  <SCORE.SYSTEM.CONST>
0

>  <SCORE.SYSTEM.DIHEDRAL>
0

>  <SCORE.SYSTEM.SOLV>
0

>  <SCORE.SYSTEM.norm>
0

>  <SCORE.heavy>
31

>  <SCORE.norm>
-0.19976

>  <RMSD>
6.897

$$$$
2fcz_lig
 OpenBabel11021811433D
libRbt.so/2013.1/901 2013/11/27
 31 33  0  0  0  0  0  0  0  0999 V2000
    8.1807   20.1164   31.4035 C   0  0  0  0  0  0  0  0  0  0  0  0
   15.8597   23.6816   28.9002 N   0  0  0  0  0  0  0  0  0  0  0  0
    8.4715   18.7213   31.2823 O   0  0  0  0  0  0  0  0  0  0  0  0
    8.9556   20.7028   32.5886 C   0  0  1  0  0  0  0  0  0  0  0  0
   16.3252   21.1591   33.0676 N   0  0  0  0  0  0  0  0  0  0  0  0
   10.3784   20.5241   32.4361 O   0  0  0  0  0  0  0  0  0  0  0  0
   10.9965   21.7940   32.1479 C   0  0  1  0  0  0  0  0  0  0  0  0
   16.8483   17.9898   35.4035 N   0  0  0  0  0  0  0  0  0  0  0  0
   11.9530   21.7138   31.0775 O   0  0  0  0  0  0  0  0  0  0  0  0
   13.1726   22.4355   31.3196 C   0  0  2  0  0  0  0  0  0  0  0  0
   11.4750   21.6952   35.3764 N   0  0  0  0  0  0  0  0  0  0  0  0
   13.0460   23.6193   29.2134 O   0  0  0  0  0  0  0  0  0  0  0  0
   13.8594   22.7276   29.9797 C   0  0  1  0  0  0  0  0  0  0  0  0
   13.5773   21.5323   33.5744 O   0  0  0  0  0  0  0  0  0  0  0  0
   15.2328   23.3687   30.1918 C   0  0  1  0  0  0  0  0  0  0  0  0
   13.7281   19.1864   33.7911 O   0  0  0  0  0  0  0  0  0  0  0  0
   16.1378   22.4229   30.9843 C   0  0  0  0  0  0  0  0  0  0  0  0
   15.3189   19.2796   37.1120 O   0  0  0  0  0  0  0  0  0  0  0  0
   15.5036   22.1459   32.3488 C   0  0  1  0  0  0  0  0  0  0  0  0
   12.7633   20.4859   37.6287 O   0  0  0  0  0  0  0  0  0  0  0  0
   14.0751   21.6040   32.2291 C   0  0  2  0  0  0  0  0  0  0  0  0
   10.1136   24.0902   31.8973 O   0  0  0  0  0  0  0  0  0  0  0  0
   12.8531   20.3275   33.8634 C   0  0  1  0  0  0  0  0  0  0  0  0
    8.9684   22.6897   34.0131 O   0  0  0  0  0  0  0  0  0  0  0  0
   14.8124   19.2059   34.7355 C   0  0  2  0  0  0  0  0  0  0  0  0
   15.6720   17.9574   34.5223 C   0  0  0  0  0  0  0  0  0  0  0  0
   14.2506   19.2277   36.1615 C   0  0  2  0  0  0  0  0  0  0  0  0
   13.3608   20.4614   36.3283 C   0  0  1  0  0  0  0  0  0  0  0  0
   12.2566   20.4554   35.2687 C   0  0  1  0  0  0  0  0  0  0  0  0
    9.8326   22.6965   31.7354 C   0  0  2  0  0  0  0  0  0  0  0  0
    8.7381   22.2128   32.6848 C   0  0  1  0  0  0  0  0  0  0  0  0
  3  1  1  0  0  0  0
  4  1  1  6  0  0  0
  4  6  1  0  0  0  0
  4 31  1  0  0  0  0
  6  7  1  0  0  0  0
  7  9  1  6  0  0  0
  7 30  1  0  0  0  0
 10  9  1  6  0  0  0
 10 13  1  0  0  0  0
 10 21  1  0  0  0  0
 13 12  1  6  0  0  0
 13 15  1  0  0  0  0
 15  2  1  6  0  0  0
 15 17  1  0  0  0  0
 16 25  1  0  0  0  0
 17 19  1  0  0  0  0
 19  5  1  6  0  0  0
 19 21  1  0  0  0  0
 21 14  1  1  0  0  0
 23 14  1  1  0  0  0
 23 16  1  0  0  0  0
 23 29  1  0  0  0  0
 25 26  1  1  0  0  0
 25 27  1  0  0  0  0
 26  8  1  0  0  0  0
 27 18  1  1  0  0  0
 27 28  1  0  0  0  0
 28 20  1  1  0  0  0
 28 29  1  0  0  0  0
 29 11  1  6  0  0  0
 30 22  1  1  0  0  0
 30 31  1  0  0  0  0
 31 24  1  1  0  0  0
M  END
>  <CHROM.1>
58.69757834,-136.87877391,-158.78672159,98.47866981,65.19532888,175.84334187
12.75652750,21.16255810,33.01849390,2.35887208,0.01547103,-1.01299872

>  <Name>
2fcz_lig

>  <RI>
0

>  <Rbt.Current_Directory>
/home/itssahil/PROJECTS/Mol_Feturizer/New_Systems/rnas/2fcz

>  <Rbt.Executable>
rbdock ($Id: //depot/dev/client3/rdock/2013.1/src/exe/rbdock.cxx#4 $)

>  <Rbt.Library>
libRbt.so (2013.1, Build901 2013/11/27)

>  <Rbt.Parameter_File>
/export/apps/rDock/src/rDock_2013.1_src/data/scripts/dock_solv.prm

>  <Rbt.Receptor>
prm/blind_docking_80.prm

>  <SCORE>
-16.9772

>  <SCORE.INTER>
-20.3152

>  <SCORE.INTER.CONST>
1

>  <SCORE.INTER.POLAR>
-2.60789

>  <SCORE.INTER.ROT>
6

>  <SCORE.INTER.SOLV>
18.6047

>  <SCORE.INTER.VDW>
-18.6521

>  <SCORE.INTER.norm>
-0.655328

>  <SCORE.INTRA>
3.33795

>  <SCORE.INTRA.DIHEDRAL>
2.34501

>  <SCORE.INTRA.DIHEDRAL.0>
10.8409

>  <SCORE.INTRA.POLAR>
0

>  <SCORE.INTRA.POLAR.0>
0

>  <SCORE.INTRA.REPUL>
0

>  <SCORE.INTRA.REPUL.0>
0

>  <SCORE.INTRA.SOLV>
3.3066

>  <SCORE.INTRA.SOLV.lig_0>
-80.8302

>  <SCORE.INTRA.VDW>
0.512147

>  <SCORE.INTRA.VDW.0>
-4.23953

>  <SCORE.INTRA.norm>
0.107676

>  <SCORE.RESTR>
0

>  <SCORE.RESTR.CAVITY>
0

>  <SCORE.RESTR.norm>
0

>  <SCORE.SYSTEM>
0

>  <SCORE.SYSTEM.CONST>
0

>  <SCORE.SYSTEM.DIHEDRAL>
0

>  <SCORE.SYSTEM.SOLV>
0

>  <SCORE.SYSTEM.norm>
0

>  <SCORE.heavy>
31

>  <SCORE.norm>
-0.547652

>  <RMSD>
6.902

$$$$
2fcz_lig
 OpenBabel11021811433D
libRbt.so/2013.1/901 2013/11/27
 31 33  0  0  0  0  0  0  0  0999 V2000
   12.0433   12.6968   34.4857 C   0  0  0  0  0  0  0  0  0  0  0  0
    8.1216   19.1166   30.3095 N   0  0  0  0  0  0  0  0  0  0  0  0
   12.8396   11.5089   34.4813 O   0  0  0  0  0  0  0  0  0  0  0  0
   11.5188   12.9704   33.0720 C   0  0  1  0  0  0  0  0  0  0  0  0
    8.3195   19.8167   35.1487 N   0  0  0  0  0  0  0  0  0  0  0  0
   10.6343   14.1090   33.0425 O   0  0  0  0  0  0  0  0  0  0  0  0
   11.2904   15.2135   32.3890 C   0  0  1  0  0  0  0  0  0  0  0  0
   13.7028   19.1886   37.4705 N   0  0  0  0  0  0  0  0  0  0  0  0
   11.1239   16.4538   33.0970 O   0  0  0  0  0  0  0  0  0  0  0  0
    9.7978   17.0039   33.0212 C   0  0  2  0  0  0  0  0  0  0  0  0
    9.3589   15.0157   37.0709 N   0  0  0  0  0  0  0  0  0  0  0  0
    9.7019   16.7866   30.6135 O   0  0  0  0  0  0  0  0  0  0  0  0
    9.6310   17.7334   31.6824 C   0  0  1  0  0  0  0  0  0  0  0  0
    9.4741   17.2625   35.4486 O   0  0  0  0  0  0  0  0  0  0  0  0
    8.2851   18.4586   31.6131 C   0  0  1  0  0  0  0  0  0  0  0  0
   11.6820   17.7674   36.1142 O   0  0  0  0  0  0  0  0  0  0  0  0
    8.1920   19.5021   32.7286 C   0  0  0  0  0  0  0  0  0  0  0  0
   10.7259   19.0345   39.4380 O   0  0  0  0  0  0  0  0  0  0  0  0
    8.3087   18.8014   34.0836 C   0  0  1  0  0  0  0  0  0  0  0  0
    9.9070   16.2843   39.5778 O   0  0  0  0  0  0  0  0  0  0  0  0
    9.5824   17.9564   34.1957 C   0  0  2  0  0  0  0  0  0  0  0  0
   13.5205   15.4892   31.3566 O   0  0  0  0  0  0  0  0  0  0  0  0
   10.7149   16.7183   35.9214 C   0  0  1  0  0  0  0  0  0  0  0  0
   12.3215   13.0478   30.7639 O   0  0  0  0  0  0  0  0  0  0  0  0
   11.3077   18.7503   37.0949 C   0  0  2  0  0  0  0  0  0  0  0  0
   12.4066   19.8133   37.1691 C   0  0  0  0  0  0  0  0  0  0  0  0
   11.1299   18.0730   38.4584 C   0  0  2  0  0  0  0  0  0  0  0  0
   10.0589   16.9865   38.3399 C   0  0  1  0  0  0  0  0  0  0  0  0
   10.4440   15.9917   37.2426 C   0  0  1  0  0  0  0  0  0  0  0  0
   12.7686   14.8205   32.3739 C   0  0  2  0  0  0  0  0  0  0  0  0
   12.6678   13.3168   32.1250 C   0  0  1  0  0  0  0  0  0  0  0  0
  3  1  1  0  0  0  0
  4  1  1  1  0  0  0
  4  6  1  0  0  0  0
  4 31  1  0  0  0  0
  6  7  1  0  0  0  0
  7  9  1  1  0  0  0
  7 30  1  0  0  0  0
 10  9  1  6  0  0  0
 10 13  1  0  0  0  0
 10 21  1  0  0  0  0
 13 12  1  6  0  0  0
 13 15  1  0  0  0  0
 15  2  1  6  0  0  0
 15 17  1  0  0  0  0
 16 25  1  0  0  0  0
 17 19  1  0  0  0  0
 19  5  1  1  0  0  0
 19 21  1  0  0  0  0
 21 14  1  1  0  0  0
 23 14  1  1  0  0  0
 23 16  1  0  0  0  0
 23 29  1  0  0  0  0
 25 26  1  1  0  0  0
 25 27  1  0  0  0  0
 26  8  1  0  0  0  0
 27 18  1  1  0  0  0
 27 28  1  0  0  0  0
 28 20  1  1  0  0  0
 28 29  1  0  0  0  0
 29 11  1  6  0  0  0
 30 22  1  6  0  0  0
 30 31  1  0  0  0  0
 31 24  1  6  0  0  0
M  END
>  <CHROM.1>
176.05521591,-71.92767095,-80.51505682,72.14805854,60.09529120,-56.37405465
10.72371165,16.59647491,34.51198863,-1.31875036,-1.02614158,1.21305533

>  <Name>
2fcz_lig

>  <RI>
2.76032e+07

>  <Rbt.Current_Directory>
/home/itssahil/PROJECTS/Mol_Feturizer/New_Systems/rnas/2fcz

>  <Rbt.Executable>
rbdock ($Id: //depot/dev/client3/rdock/2013.1/src/exe/rbdock.cxx#4 $)

>  <Rbt.Library>
libRbt.so (2013.1, Build901 2013/11/27)

>  <Rbt.Parameter_File>
/export/apps/rDock/src/rDock_2013.1_src/data/scripts/dock_solv.prm

>  <Rbt.Receptor>
prm/pocket_docking_8.prm

>  <SCORE>
-17.6362

>  <SCORE.INTER>
-14.0928

>  <SCORE.INTER.CONST>
1

>  <SCORE.INTER.POLAR>
-2.42697

>  <SCORE.INTER.ROT>
6

>  <SCORE.INTER.SOLV>
17.5167

>  <SCORE.INTER.VDW>
-14.7442

>  <SCORE.INTER.norm>
-0.454608

>  <SCORE.INTRA>
-3.54336

>  <SCORE.INTRA.DIHEDRAL>
-7.34682

>  <SCORE.INTRA.DIHEDRAL.0>
10.8409

>  <SCORE.INTRA.POLAR>
0

>  <SCORE.INTRA.POLAR.0>
0

>  <SCORE.INTRA.REPUL>
0

>  <SCORE.INTRA.REPUL.0>
0

>  <SCORE.INTRA.SOLV>
-2.20917

>  <SCORE.INTRA.SOLV.lig_0>
-80.8302

>  <SCORE.INTRA.VDW>
1.23463

>  <SCORE.INTRA.VDW.0>
-4.23953

>  <SCORE.INTRA.norm>
-0.114302

>  <SCORE.RESTR>
0

>  <SCORE.RESTR.CAVITY>
0

>  <SCORE.RESTR.norm>
0

>  <SCORE.SYSTEM>
0

>  <SCORE.SYSTEM.CONST>
0

>  <SCORE.SYSTEM.DIHEDRAL>
0

>  <SCORE.SYSTEM.SOLV>
0

>  <SCORE.SYSTEM.norm>
0

>  <SCORE.heavy>
31

>  <SCORE.norm>
-0.56891

>  <RMSD>
6.904

$$$$
2fcz_lig
 OpenBabel11021811433D
libRbt.so/2013.1/901 2013/11/27
 31 33  0  0  0  0  0  0  0  0999 V2000
    7.4776   19.3856   30.8046 C   0  0  0  0  0  0  0  0  0  0  0  0
    6.9936   14.9771   35.6320 N   0  0  0  0  0  0  0  0  0  0  0  0
    6.8841   20.3009   29.8798 O   0  0  0  0  0  0  0  0  0  0  0  0
    7.3786   19.9522   32.2251 C   0  0  1  0  0  0  0  0  0  0  0  0
    8.9390   18.3901   38.5497 N   0  0  0  0  0  0  0  0  0  0  0  0
    7.8261   18.9999   33.2113 O   0  0  0  0  0  0  0  0  0  0  0  0
    9.0936   19.4237   33.7514 C   0  0  1  0  0  0  0  0  0  0  0  0
   14.1040   16.4842   33.5284 N   0  0  0  0  0  0  0  0  0  0  0  0
   10.0439   18.3486   33.8422 O   0  0  0  0  0  0  0  0  0  0  0  0
    9.8236   17.4570   34.9483 C   0  0  2  0  0  0  0  0  0  0  0  0
   12.7270   19.1788   38.7518 N   0  0  0  0  0  0  0  0  0  0  0  0
    8.7472   15.7909   33.5629 O   0  0  0  0  0  0  0  0  0  0  0  0
    8.5486   16.6436   34.6932 C   0  0  1  0  0  0  0  0  0  0  0  0
   10.9626   18.8385   36.6390 O   0  0  0  0  0  0  0  0  0  0  0  0
    8.1918   15.7820   35.9068 C   0  0  1  0  0  0  0  0  0  0  0  0
   12.4269   17.3740   35.5058 O   0  0  0  0  0  0  0  0  0  0  0  0
    7.9427   16.6706   37.1275 C   0  0  0  0  0  0  0  0  0  0  0  0
   14.7353   20.0260   34.4077 O   0  0  0  0  0  0  0  0  0  0  0  0
    9.2129   17.4645   37.4391 C   0  0  1  0  0  0  0  0  0  0  0  0
   14.9677   20.1645   37.2677 O   0  0  0  0  0  0  0  0  0  0  0  0
    9.7059   18.2731   36.2341 C   0  0  2  0  0  0  0  0  0  0  0  0
   10.5465   21.3797   33.3297 O   0  0  0  0  0  0  0  0  0  0  0  0
   12.0129   17.8726   36.7915 C   0  0  1  0  0  0  0  0  0  0  0  0
    7.8395   22.0179   33.4489 O   0  0  0  0  0  0  0  0  0  0  0  0
   12.9648   18.3743   34.6236 C   0  0  2  0  0  0  0  0  0  0  0  0
   13.3289   17.7110   33.2930 C   0  0  0  0  0  0  0  0  0  0  0  0
   14.2076   19.0058   35.2609 C   0  0  2  0  0  0  0  0  0  0  0  0
   13.8204   19.6192   36.6082 C   0  0  1  0  0  0  0  0  0  0  0  0
   13.1862   18.5528   37.5041 C   0  0  1  0  0  0  0  0  0  0  0  0
    9.5949   20.4754   32.7604 C   0  0  2  0  0  0  0  0  0  0  0  0
    8.2871   21.1708   32.3872 C   0  0  1  0  0  0  0  0  0  0  0  0
  3  1  1  0  0  0  0
  4  1  1  6  0  0  0
  4  6  1  0  0  0  0
  4 31  1  0  0  0  0
  6  7  1  0  0  0  0
  7  9  1  6  0  0  0
  7 30  1  0  0  0  0
 10  9  1  6  0  0  0
 10 13  1  0  0  0  0
 10 21  1  0  0  0  0
 13 12  1  6  0  0  0
 13 15  1  0  0  0  0
 15  2  1  6  0  0  0
 15 17  1  0  0  0  0
 16 25  1  0  0  0  0
 17 19  1  0  0  0  0
 19  5  1  1  0  0  0
 19 21  1  0  0  0  0
 21 14  1  1  0  0  0
 23 14  1  6  0  0  0
 23 16  1  0  0  0  0
 23 29  1  0  0  0  0
 25 26  1  6  0  0  0
 25 27  1  0  0  0  0
 26  8  1  0  0  0  0
 27 18  1  6  0  0  0
 27 28  1  0  0  0  0
 28 20  1  1  0  0  0
 28 29  1  0  0  0  0
 29 11  1  1  0  0  0
 30 22  1  1  0  0  0
 30 31  1  0  0  0  0
 31 24  1  1  0  0  0
M  END
>  <CHROM.1>
173.44385351,-77.16165838,69.73191314,-55.35587727,71.08344161,-48.09495679
10.40722092,18.61768787,34.79527644,-2.62053674,0.32662023,2.22688325

>  <Name>
2fcz_lig

>  <RI>
0

>  <Rbt.Current_Directory>
/home/itssahil/PROJECTS/Mol_Feturizer/New_Systems/rnas/2fcz

>  <Rbt.Executable>
rbdock ($Id: //depot/dev/client3/rdock/2013.1/src/exe/rbdock.cxx#4 $)

>  <Rbt.Library>
libRbt.so (2013.1, Build901 2013/11/27)

>  <Rbt.Parameter_File>
/export/apps/rDock/src/rDock_2013.1_src/data/scripts/dock_solv.prm

>  <Rbt.Receptor>
prm/pocket_docking_5.prm

>  <SCORE>
-16.1738

>  <SCORE.INTER>
-15.0816

>  <SCORE.INTER.CONST>
1

>  <SCORE.INTER.POLAR>
-2.78173

>  <SCORE.INTER.ROT>
6

>  <SCORE.INTER.SOLV>
16.8082

>  <SCORE.INTER.VDW>
-13.9847

>  <SCORE.INTER.norm>
-0.486503

>  <SCORE.INTRA>
-1.1101

>  <SCORE.INTRA.DIHEDRAL>
-7.55695

>  <SCORE.INTRA.DIHEDRAL.0>
10.8409

>  <SCORE.INTRA.POLAR>
0

>  <SCORE.INTRA.POLAR.0>
0

>  <SCORE.INTRA.REPUL>
0

>  <SCORE.INTRA.REPUL.0>
0

>  <SCORE.INTRA.SOLV>
-1.47868

>  <SCORE.INTRA.SOLV.lig_0>
-80.8302

>  <SCORE.INTRA.VDW>
3.40772

>  <SCORE.INTRA.VDW.0>
-4.23953

>  <SCORE.INTRA.norm>
-0.0358095

>  <SCORE.RESTR>
0.0178657

>  <SCORE.RESTR.CAVITY>
0.0178657

>  <SCORE.RESTR.norm>
0.000576314

>  <SCORE.SYSTEM>
0

>  <SCORE.SYSTEM.CONST>
0

>  <SCORE.SYSTEM.DIHEDRAL>
0

>  <SCORE.SYSTEM.SOLV>
0

>  <SCORE.SYSTEM.norm>
0

>  <SCORE.heavy>
31

>  <SCORE.norm>
-0.521737

>  <RMSD>
6.909

$$$$
2fcz_lig
 OpenBabel11021811433D
libRbt.so/2013.1/901 2013/11/27
 31 33  0  0  0  0  0  0  0  0999 V2000
    7.4019   20.7021   32.5255 C   0  0  0  0  0  0  0  0  0  0  0  0
   12.9213   13.8374   33.0269 N   0  0  0  0  0  0  0  0  0  0  0  0
    6.1587   21.1730   31.9983 O   0  0  0  0  0  0  0  0  0  0  0  0
    8.3196   20.2736   31.3754 C   0  0  1  0  0  0  0  0  0  0  0  0
   15.0118   17.8620   34.8652 N   0  0  0  0  0  0  0  0  0  0  0  0
    9.6616   20.0113   31.8334 O   0  0  0  0  0  0  0  0  0  0  0  0
    9.9155   18.5929   31.7976 C   0  0  1  0  0  0  0  0  0  0  0  0
   15.0778   19.7144   37.4487 N   0  0  0  0  0  0  0  0  0  0  0  0
   10.5617   18.1159   32.9901 O   0  0  0  0  0  0  0  0  0  0  0  0
   11.8387   17.4959   32.7626 C   0  0  2  0  0  0  0  0  0  0  0  0
   11.9946   21.6136   32.1545 N   0  0  0  0  0  0  0  0  0  0  0  0
   10.8466   15.4411   31.9581 O   0  0  0  0  0  0  0  0  0  0  0  0
   11.7063   15.9813   32.9647 C   0  0  1  0  0  0  0  0  0  0  0  0
   13.2020   19.4466   33.3953 O   0  0  0  0  0  0  0  0  0  0  0  0
   13.0694   15.2913   32.8742 C   0  0  1  0  0  0  0  0  0  0  0  0
   13.2642   20.5370   35.4881 O   0  0  0  0  0  0  0  0  0  0  0  0
   14.0035   15.8278   33.9610 C   0  0  0  0  0  0  0  0  0  0  0  0
   16.0353   22.7897   34.5860 O   0  0  0  0  0  0  0  0  0  0  0  0
   14.1950   17.3326   33.7616 C   0  0  1  0  0  0  0  0  0  0  0  0
   13.9785   23.5904   32.7471 O   0  0  0  0  0  0  0  0  0  0  0  0
   12.8635   18.0906   33.7265 C   0  0  2  0  0  0  0  0  0  0  0  0
    8.5530   16.6442   31.1187 O   0  0  0  0  0  0  0  0  0  0  0  0
   12.5689   20.4253   34.2322 C   0  0  1  0  0  0  0  0  0  0  0  0
    8.2955   18.8241   29.4067 O   0  0  0  0  0  0  0  0  0  0  0  0
   14.6311   20.9694   35.3763 C   0  0  2  0  0  0  0  0  0  0  0  0
   15.2494   21.0103   36.7759 C   0  0  0  0  0  0  0  0  0  0  0  0
   14.6784   22.3599   34.7330 C   0  0  2  0  0  0  0  0  0  0  0  0
   14.0131   22.2958   33.3565 C   0  0  1  0  0  0  0  0  0  0  0  0
   12.5836   21.7666   33.4921 C   0  0  1  0  0  0  0  0  0  0  0  0
    8.5273   17.9628   31.6737 C   0  0  2  0  0  0  0  0  0  0  0  0
    7.8337   18.9649   30.7528 C   0  0  1  0  0  0  0  0  0  0  0  0
  3  1  1  0  0  0  0
  4  1  1  1  0  0  0
  4  6  1  0  0  0  0
  4 31  1  0  0  0  0
  6  7  1  0  0  0  0
  7  9  1  1  0  0  0
  7 30  1  0  0  0  0
 10  9  1  1  0  0  0
 10 13  1  0  0  0  0
 10 21  1  0  0  0  0
 13 12  1  6  0  0  0
 13 15  1  0  0  0  0
 15  2  1  1  0  0  0
 15 17  1  0  0  0  0
 16 25  1  0  0  0  0
 17 19  1  0  0  0  0
 19  5  1  1  0  0  0
 19 21  1  0  0  0  0
 21 14  1  6  0  0  0
 23 14  1  6  0  0  0
 23 16  1  0  0  0  0
 23 29  1  0  0  0  0
 25 26  1  1  0  0  0
 25 27  1  0  0  0  0
 26  8  1  0  0  0  0
 27 18  1  6  0  0  0
 27 28  1  0  0  0  0
 28 20  1  1  0  0  0
 28 29  1  0  0  0  0
 29 11  1  6  0  0  0
 30 22  1  6  0  0  0
 30 31  1  0  0  0  0
 31 24  1  6  0  0  0
M  END
>  <CHROM.1>
169.96530872,-120.46062648,-107.79479517,102.53663992,79.54273176,53.90133768
11.86347139,19.21478355,33.17383795,2.76973793,0.50962161,-3.06336048

>  <Name>
2fcz_lig

>  <RI>
0

>  <Rbt.Current_Directory>
/home/itssahil/PROJECTS/Mol_Feturizer/New_Systems/rnas/2fcz

>  <Rbt.Executable>
rbdock ($Id: //depot/dev/client3/rdock/2013.1/src/exe/rbdock.cxx#4 $)

>  <Rbt.Library>
libRbt.so (2013.1, Build901 2013/11/27)

>  <Rbt.Parameter_File>
/export/apps/rDock/src/rDock_2013.1_src/data/scripts/dock_solv.prm

>  <Rbt.Receptor>
prm/blind_docking_80.prm

>  <SCORE>
-2.98239

>  <SCORE.INTER>
-9.04088

>  <SCORE.INTER.CONST>
1

>  <SCORE.INTER.POLAR>
-0.785338

>  <SCORE.INTER.ROT>
6

>  <SCORE.INTER.SOLV>
13.4313

>  <SCORE.INTER.VDW>
-15.4866

>  <SCORE.INTER.norm>
-0.291641

>  <SCORE.INTRA>
6.05849

>  <SCORE.INTRA.DIHEDRAL>
10.7601

>  <SCORE.INTRA.DIHEDRAL.0>
10.8409

>  <SCORE.INTRA.POLAR>
0

>  <SCORE.INTRA.POLAR.0>
0

>  <SCORE.INTRA.REPUL>
0

>  <SCORE.INTRA.REPUL.0>
0

>  <SCORE.INTRA.SOLV>
1.95065

>  <SCORE.INTRA.SOLV.lig_0>
-80.8302

>  <SCORE.INTRA.VDW>
-0.296901

>  <SCORE.INTRA.VDW.0>
-4.23953

>  <SCORE.INTRA.norm>
0.195435

>  <SCORE.RESTR>
0

>  <SCORE.RESTR.CAVITY>
0

>  <SCORE.RESTR.norm>
0

>  <SCORE.SYSTEM>
0

>  <SCORE.SYSTEM.CONST>
0

>  <SCORE.SYSTEM.DIHEDRAL>
0

>  <SCORE.SYSTEM.SOLV>
0

>  <SCORE.SYSTEM.norm>
0

>  <SCORE.heavy>
31

>  <SCORE.norm>
-0.0962062

>  <RMSD>
6.926

$$$$
2fcz_lig
 OpenBabel11021811433D
libRbt.so/2013.1/901 2013/11/27
 31 33  0  0  0  0  0  0  0  0999 V2000
   10.2433   23.3953   30.5258 C   0  0  0  0  0  0  0  0  0  0  0  0
   14.2227   19.0196   37.2405 N   0  0  0  0  0  0  0  0  0  0  0  0
   11.3384   23.5279   29.6156 O   0  0  0  0  0  0  0  0  0  0  0  0
   10.0828   21.9252   30.9276 C   0  0  1  0  0  0  0  0  0  0  0  0
   16.8149   21.6627   34.0402 N   0  0  0  0  0  0  0  0  0  0  0  0
   11.2516   21.4286   31.6108 O   0  0  0  0  0  0  0  0  0  0  0  0
   10.9518   21.2434   33.0085 C   0  0  1  0  0  0  0  0  0  0  0  0
   17.7437   25.6036   33.5193 N   0  0  0  0  0  0  0  0  0  0  0  0
   11.9833   21.7565   33.8687 O   0  0  0  0  0  0  0  0  0  0  0  0
   13.0785   20.8503   34.0836 C   0  0  2  0  0  0  0  0  0  0  0  0
   13.8737   21.9613   29.6750 N   0  0  0  0  0  0  0  0  0  0  0  0
   11.8764   19.5852   35.7594 O   0  0  0  0  0  0  0  0  0  0  0  0
   13.0534   20.3662   35.5387 C   0  0  1  0  0  0  0  0  0  0  0  0
   14.5568   21.8000   32.3584 O   0  0  0  0  0  0  0  0  0  0  0  0
   14.2821   19.5110   35.8569 C   0  0  1  0  0  0  0  0  0  0  0  0
   14.4637   24.1423   32.6380 O   0  0  0  0  0  0  0  0  0  0  0  0
   15.5590   20.3308   35.6591 C   0  0  0  0  0  0  0  0  0  0  0  0
   17.6345   24.7943   30.8805 O   0  0  0  0  0  0  0  0  0  0  0  0
   15.6395   20.7923   34.2026 C   0  0  1  0  0  0  0  0  0  0  0  0
   16.0119   23.6529   28.8026 O   0  0  0  0  0  0  0  0  0  0  0  0
   14.3903   21.5650   33.7654 C   0  0  2  0  0  0  0  0  0  0  0  0
    8.9126   21.5879   34.3642 O   0  0  0  0  0  0  0  0  0  0  0  0
   13.9544   23.0179   31.8967 C   0  0  1  0  0  0  0  0  0  0  0  0
    8.4097   20.4224   31.8867 O   0  0  0  0  0  0  0  0  0  0  0  0
   15.8800   24.3522   32.5041 C   0  0  2  0  0  0  0  0  0  0  0  0
   16.2825   25.5514   33.3662 C   0  0  0  0  0  0  0  0  0  0  0  0
   16.2231   24.6152   31.0335 C   0  0  2  0  0  0  0  0  0  0  0  0
   15.7679   23.4199   30.1935 C   0  0  1  0  0  0  0  0  0  0  0  0
   14.2728   23.1720   30.4061 C   0  0  1  0  0  0  0  0  0  0  0  0
    9.6580   22.0299   33.2255 C   0  0  2  0  0  0  0  0  0  0  0  0
    8.9265   21.7555   31.9129 C   0  0  1  0  0  0  0  0  0  0  0  0
  3  1  1  0  0  0  0
  4  1  1  1  0  0  0
  4  6  1  0  0  0  0
  4 31  1  0  0  0  0
  6  7  1  0  0  0  0
  7  9  1  1  0  0  0
  7 30  1  0  0  0  0
 10  9  1  1  0  0  0
 10 13  1  0  0  0  0
 10 21  1  0  0  0  0
 13 12  1  6  0  0  0
 13 15  1  0  0  0  0
 15  2  1  1  0  0  0
 15 17  1  0  0  0  0
 16 25  1  0  0  0  0
 17 19  1  0  0  0  0
 19  5  1  1  0  0  0
 19 21  1  0  0  0  0
 21 14  1  6  0  0  0
 23 14  1  1  0  0  0
 23 16  1  0  0  0  0
 23 29  1  0  0  0  0
 25 26  1  1  0  0  0
 25 27  1  0  0  0  0
 26  8  1  0  0  0  0
 27 18  1  1  0  0  0
 27 28  1  0  0  0  0
 28 20  1  6  0  0  0
 28 29  1  0  0  0  0
 29 11  1  6  0  0  0
 30 22  1  1  0  0  0
 30 31  1  0  0  0  0
 31 24  1  1  0  0  0
M  END
>  <CHROM.1>
61.95827546,-83.80420956,-110.98244104,86.57530472,56.17432354,166.31925673
13.43078648,22.22849698,32.69596768,2.69262415,0.27281461,2.14902577

>  <Name>
2fcz_lig

>  <RI>
1.40544e+07

>  <Rbt.Current_Directory>
/home/itssahil/PROJECTS/Mol_Feturizer/New_Systems/rnas/2fcz

>  <Rbt.Executable>
rbdock ($Id: //depot/dev/client3/rdock/2013.1/src/exe/rbdock.cxx#4 $)

>  <Rbt.Library>
libRbt.so (2013.1, Build901 2013/11/27)

>  <Rbt.Parameter_File>
/export/apps/rDock/src/rDock_2013.1_src/data/scripts/dock_solv.prm

>  <Rbt.Receptor>
prm/blind_docking_100.prm

>  <SCORE>
-15.9101

>  <SCORE.INTER>
-17.1805

>  <SCORE.INTER.CONST>
1

>  <SCORE.INTER.POLAR>
-2.07529

>  <SCORE.INTER.ROT>
6

>  <SCORE.INTER.SOLV>
15.4614

>  <SCORE.INTER.VDW>
-17.2899

>  <SCORE.INTER.norm>
-0.554211

>  <SCORE.INTRA>
1.26789

>  <SCORE.INTRA.DIHEDRAL>
2.15486

>  <SCORE.INTRA.DIHEDRAL.0>
10.8409

>  <SCORE.INTRA.POLAR>
0

>  <SCORE.INTRA.POLAR.0>
0

>  <SCORE.INTRA.REPUL>
0

>  <SCORE.INTRA.REPUL.0>
0

>  <SCORE.INTRA.SOLV>
1.57444

>  <SCORE.INTRA.SOLV.lig_0>
-80.8302

>  <SCORE.INTRA.VDW>
-0.596757

>  <SCORE.INTRA.VDW.0>
-4.23953

>  <SCORE.INTRA.norm>
0.0408998

>  <SCORE.RESTR>
0.00254862

>  <SCORE.RESTR.CAVITY>
0.00254862

>  <SCORE.RESTR.norm>
8.22137e-05

>  <SCORE.SYSTEM>
0

>  <SCORE.SYSTEM.CONST>
0

>  <SCORE.SYSTEM.DIHEDRAL>
0

>  <SCORE.SYSTEM.SOLV>
0

>  <SCORE.SYSTEM.norm>
0

>  <SCORE.heavy>
31

>  <SCORE.norm>
-0.513229

>  <RMSD>
6.930

$$$$
2fcz_lig
 OpenBabel11021811433D
libRbt.so/2013.1/901 2013/11/27
 31 33  0  0  0  0  0  0  0  0999 V2000
   13.4754   16.7341   38.0158 C   0  0  0  0  0  0  0  0  0  0  0  0
   10.1523   21.3947   31.7127 N   0  0  0  0  0  0  0  0  0  0  0  0
   13.1660   16.5267   36.6350 O   0  0  0  0  0  0  0  0  0  0  0  0
   13.1288   18.1738   38.4105 C   0  0  1  0  0  0  0  0  0  0  0  0
   14.6143   23.2975   32.3590 N   0  0  0  0  0  0  0  0  0  0  0  0
   13.7177   19.1309   37.5067 O   0  0  0  0  0  0  0  0  0  0  0  0
   12.6874   19.7198   36.6884 C   0  0  1  0  0  0  0  0  0  0  0  0
   16.8769   19.4780   32.3486 N   0  0  0  0  0  0  0  0  0  0  0  0
   13.0556   19.7900   35.3003 O   0  0  0  0  0  0  0  0  0  0  0  0
   12.5942   20.9728   34.6258 C   0  0  2  0  0  0  0  0  0  0  0  0
   15.5310   23.1425   37.4849 N   0  0  0  0  0  0  0  0  0  0  0  0
   10.4123   20.0275   34.1789 O   0  0  0  0  0  0  0  0  0  0  0  0
   11.5748   20.5745   33.5514 C   0  0  1  0  0  0  0  0  0  0  0  0
   14.6301   22.3071   34.9983 O   0  0  0  0  0  0  0  0  0  0  0  0
   11.1603   21.7831   32.7089 C   0  0  1  0  0  0  0  0  0  0  0  0
   16.1468   20.4993   34.9319 O   0  0  0  0  0  0  0  0  0  0  0  0
   12.3810   22.3727   31.9990 C   0  0  0  0  0  0  0  0  0  0  0  0
   19.0966   22.5901   34.2285 O   0  0  0  0  0  0  0  0  0  0  0  0
   13.4018   22.8240   33.0455 C   0  0  1  0  0  0  0  0  0  0  0  0
   18.2876   23.5330   36.8188 O   0  0  0  0  0  0  0  0  0  0  0  0
   13.7893   21.6956   34.0074 C   0  0  2  0  0  0  0  0  0  0  0  0
   10.2362   19.4156   36.5708 O   0  0  0  0  0  0  0  0  0  0  0  0
   15.3792   21.3691   35.7847 C   0  0  1  0  0  0  0  0  0  0  0  0
   11.2174   19.4929   39.1748 O   0  0  0  0  0  0  0  0  0  0  0  0
   17.1253   21.1716   34.1205 C   0  0  2  0  0  0  0  0  0  0  0  0
   17.8367   20.1342   33.2483 C   0  0  0  0  0  0  0  0  0  0  0  0
   18.1347   21.8897   35.0233 C   0  0  2  0  0  0  0  0  0  0  0  0
   17.3879   22.8856   35.9132 C   0  0  1  0  0  0  0  0  0  0  0  0
   16.3053   22.1593   36.7147 C   0  0  1  0  0  0  0  0  0  0  0  0
   11.4882   18.7858   36.8593 C   0  0  2  0  0  0  0  0  0  0  0  0
   11.6203   18.4088   38.3336 C   0  0  1  0  0  0  0  0  0  0  0  0
  3  1  1  0  0  0  0
  4  1  1  6  0  0  0
  4  6  1  0  0  0  0
  4 31  1  0  0  0  0
  6  7  1  0  0  0  0
  7  9  1  6  0  0  0
  7 30  1  0  0  0  0
 10  9  1  6  0  0  0
 10 13  1  0  0  0  0
 10 21  1  0  0  0  0
 13 12  1  1  0  0  0
 13 15  1  0  0  0  0
 15  2  1  6  0  0  0
 15 17  1  0  0  0  0
 16 25  1  0  0  0  0
 17 19  1  0  0  0  0
 19  5  1  6  0  0  0
 19 21  1  0  0  0  0
 21 14  1  1  0  0  0
 23 14  1  6  0  0  0
 23 16  1  0  0  0  0
 23 29  1  0  0  0  0
 25 26  1  1  0  0  0
 25 27  1  0  0  0  0
 26  8  1  0  0  0  0
 27 18  1  6  0  0  0
 27 28  1  0  0  0  0
 28 20  1  1  0  0  0
 28 29  1  0  0  0  0
 29 11  1  6  0  0  0
 30 22  1  1  0  0  0
 30 31  1  0  0  0  0
 31 24  1  1  0  0  0
M  END
>  <CHROM.1>
-51.51114663,-143.18651839,-114.60342522,70.88661915,54.70206682,61.83340843
14.08348563,20.69578073,35.29773377,-2.61692539,-0.29123384,-1.01475221

>  <Name>
2fcz_lig

>  <RI>
2.76032e+07

>  <Rbt.Current_Directory>
/home/itssahil/PROJECTS/Mol_Feturizer/New_Systems/rnas/2fcz

>  <Rbt.Executable>
rbdock ($Id: //depot/dev/client3/rdock/2013.1/src/exe/rbdock.cxx#4 $)

>  <Rbt.Library>
libRbt.so (2013.1, Build901 2013/11/27)

>  <Rbt.Parameter_File>
/export/apps/rDock/src/rDock_2013.1_src/data/scripts/dock_solv.prm

>  <Rbt.Receptor>
prm/pocket_docking_8.prm

>  <SCORE>
-10.9025

>  <SCORE.INTER>
-12.0985

>  <SCORE.INTER.CONST>
1

>  <SCORE.INTER.POLAR>
-2.046

>  <SCORE.INTER.ROT>
6

>  <SCORE.INTER.SOLV>
14.1216

>  <SCORE.INTER.VDW>
-13.5528

>  <SCORE.INTER.norm>
-0.390273

>  <SCORE.INTRA>
1.19591

>  <SCORE.INTRA.DIHEDRAL>
2.10376

>  <SCORE.INTRA.DIHEDRAL.0>
10.8409

>  <SCORE.INTRA.POLAR>
0

>  <SCORE.INTRA.POLAR.0>
0

>  <SCORE.INTRA.REPUL>
0

>  <SCORE.INTRA.REPUL.0>
0

>  <SCORE.INTRA.SOLV>
-2.14593

>  <SCORE.INTRA.SOLV.lig_0>
-80.8302

>  <SCORE.INTRA.VDW>
1.217

>  <SCORE.INTRA.VDW.0>
-4.23953

>  <SCORE.INTRA.norm>
0.0385778

>  <SCORE.RESTR>
0

>  <SCORE.RESTR.CAVITY>
0

>  <SCORE.RESTR.norm>
0

>  <SCORE.SYSTEM>
0

>  <SCORE.SYSTEM.CONST>
0

>  <SCORE.SYSTEM.DIHEDRAL>
0

>  <SCORE.SYSTEM.SOLV>
0

>  <SCORE.SYSTEM.norm>
0

>  <SCORE.heavy>
31

>  <SCORE.norm>
-0.351695

>  <RMSD>
6.933

$$$$
2fcz_lig
 OpenBabel11021811433D
libRbt.so/2013.1/901 2013/11/27
 31 33  0  0  0  0  0  0  0  0999 V2000
   14.3548   15.7740   35.7071 C   0  0  0  0  0  0  0  0  0  0  0  0
   11.0023   19.8987   37.4590 N   0  0  0  0  0  0  0  0  0  0  0  0
   15.2169   16.2672   36.7362 O   0  0  0  0  0  0  0  0  0  0  0  0
   14.3953   16.7217   34.5034 C   0  0  1  0  0  0  0  0  0  0  0  0
   12.5726   22.7416   33.7985 N   0  0  0  0  0  0  0  0  0  0  0  0
   14.1673   18.0908   34.8949 O   0  0  0  0  0  0  0  0  0  0  0  0
   15.3975   18.8345   34.7891 C   0  0  1  0  0  0  0  0  0  0  0  0
   14.2410   23.4114   29.7357 N   0  0  0  0  0  0  0  0  0  0  0  0
   15.6386   19.6713   35.9332 O   0  0  0  0  0  0  0  0  0  0  0  0
   14.5639   20.5754   36.2410 C   0  0  2  0  0  0  0  0  0  0  0  0
   17.8135   23.1698   35.2122 N   0  0  0  0  0  0  0  0  0  0  0  0
   13.6814   19.1442   37.9807 O   0  0  0  0  0  0  0  0  0  0  0  0
   13.3561   19.7712   36.7377 C   0  0  1  0  0  0  0  0  0  0  0  0
   15.2285   22.3351   34.6518 O   0  0  0  0  0  0  0  0  0  0  0  0
   12.1381   20.6750   36.9428 C   0  0  1  0  0  0  0  0  0  0  0  0
   15.8297   21.5400   32.5119 O   0  0  0  0  0  0  0  0  0  0  0  0
   11.7464   21.3376   35.6202 C   0  0  0  0  0  0  0  0  0  0  0  0
   16.1040   24.8872   30.9990 O   0  0  0  0  0  0  0  0  0  0  0  0
   12.9155   22.1871   35.1178 C   0  0  1  0  0  0  0  0  0  0  0  0
   18.1622   24.9555   33.0021 O   0  0  0  0  0  0  0  0  0  0  0  0
   14.2116   21.3792   34.9909 C   0  0  2  0  0  0  0  0  0  0  0  0
   17.6891   18.2280   34.0851 O   0  0  0  0  0  0  0  0  0  0  0  0
   16.2906   21.7955   33.8517 C   0  0  1  0  0  0  0  0  0  0  0  0
   15.7074   17.1147   32.4782 O   0  0  0  0  0  0  0  0  0  0  0  0
   15.3841   22.7084   31.8018 C   0  0  2  0  0  0  0  0  0  0  0  0
   14.8956   22.2837   30.4147 C   0  0  0  0  0  0  0  0  0  0  0  0
   16.5419   23.7050   31.6760 C   0  0  2  0  0  0  0  0  0  0  0  0
   17.0368   24.0743   33.0760 C   0  0  1  0  0  0  0  0  0  0  0  0
   17.4391   22.8093   33.8377 C   0  0  1  0  0  0  0  0  0  0  0  0
   16.4824   17.7604   34.6956 C   0  0  2  0  0  0  0  0  0  0  0  0
   15.7756   16.7054   33.8467 C   0  0  1  0  0  0  0  0  0  0  0  0
  3  1  1  0  0  0  0
  4  1  1  1  0  0  0
  4  6  1  0  0  0  0
  4 31  1  0  0  0  0
  6  7  1  0  0  0  0
  7  9  1  1  0  0  0
  7 30  1  0  0  0  0
 10  9  1  6  0  0  0
 10 13  1  0  0  0  0
 10 21  1  0  0  0  0
 13 12  1  1  0  0  0
 13 15  1  0  0  0  0
 15  2  1  6  0  0  0
 15 17  1  0  0  0  0
 16 25  1  0  0  0  0
 17 19  1  0  0  0  0
 19  5  1  6  0  0  0
 19 21  1  0  0  0  0
 21 14  1  1  0  0  0
 23 14  1  1  0  0  0
 23 16  1  0  0  0  0
 23 29  1  0  0  0  0
 25 26  1  6  0  0  0
 25 27  1  0  0  0  0
 26  8  1  0  0  0  0
 27 18  1  1  0  0  0
 27 28  1  0  0  0  0
 28 20  1  6  0  0  0
 28 29  1  0  0  0  0
 29 11  1  1  0  0  0
 30 22  1  6  0  0  0
 30 31  1  0  0  0  0
 31 24  1  6  0  0  0
M  END
>  <CHROM.1>
-50.92638447,-54.59515592,68.58345072,85.48970608,71.88652904,171.26236495
15.06026799,20.64204658,34.29781616,-1.93378479,0.71533340,-0.33350915

>  <Name>
2fcz_lig

>  <RI>
0

>  <Rbt.Current_Directory>
/home/itssahil/PROJECTS/Mol_Feturizer/New_Systems/rnas/2fcz

>  <Rbt.Executable>
rbdock ($Id: //depot/dev/client3/rdock/2013.1/src/exe/rbdock.cxx#4 $)

>  <Rbt.Library>
libRbt.so (2013.1, Build901 2013/11/27)

>  <Rbt.Parameter_File>
/export/apps/rDock/src/rDock_2013.1_src/data/scripts/dock_solv.prm

>  <Rbt.Receptor>
prm/blind_docking_80.prm

>  <SCORE>
-13.7367

>  <SCORE.INTER>
-12.8493

>  <SCORE.INTER.CONST>
1

>  <SCORE.INTER.POLAR>
-1.88765

>  <SCORE.INTER.ROT>
6

>  <SCORE.INTER.SOLV>
15.7023

>  <SCORE.INTER.VDW>
-15.1081

>  <SCORE.INTER.norm>
-0.414493

>  <SCORE.INTRA>
-0.888794

>  <SCORE.INTRA.DIHEDRAL>
-6.24015

>  <SCORE.INTRA.DIHEDRAL.0>
10.8409

>  <SCORE.INTRA.POLAR>
0

>  <SCORE.INTRA.POLAR.0>
0

>  <SCORE.INTRA.REPUL>
0

>  <SCORE.INTRA.REPUL.0>
0

>  <SCORE.INTRA.SOLV>
-0.378826

>  <SCORE.INTRA.SOLV.lig_0>
-80.8302

>  <SCORE.INTRA.VDW>
2.42069

>  <SCORE.INTRA.VDW.0>
-4.23953

>  <SCORE.INTRA.norm>
-0.0286708

>  <SCORE.RESTR>
0.00134637

>  <SCORE.RESTR.CAVITY>
0.00134637

>  <SCORE.RESTR.norm>
4.34312e-05

>  <SCORE.SYSTEM>
0

>  <SCORE.SYSTEM.CONST>
0

>  <SCORE.SYSTEM.DIHEDRAL>
0

>  <SCORE.SYSTEM.SOLV>
0

>  <SCORE.SYSTEM.norm>
0

>  <SCORE.heavy>
31

>  <SCORE.norm>
-0.44312

>  <RMSD>
6.935

$$$$
2fcz_lig
 OpenBabel11021811433D
libRbt.so/2013.1/901 2013/11/27
 31 33  0  0  0  0  0  0  0  0999 V2000
   14.4103   15.7694   35.7413 C   0  0  0  0  0  0  0  0  0  0  0  0
   10.9875   19.9005   37.4346 N   0  0  0  0  0  0  0  0  0  0  0  0
   15.2531   16.3014   36.7670 O   0  0  0  0  0  0  0  0  0  0  0  0
   14.4114   16.7126   34.5333 C   0  0  1  0  0  0  0  0  0  0  0  0
   12.5744   22.7823   33.8119 N   0  0  0  0  0  0  0  0  0  0  0  0
   14.1673   18.0792   34.9237 O   0  0  0  0  0  0  0  0  0  0  0  0
   15.3822   18.8435   34.7915 C   0  0  1  0  0  0  0  0  0  0  0  0
   14.2097   23.4328   29.7619 N   0  0  0  0  0  0  0  0  0  0  0  0
   15.6306   19.6892   35.9274 O   0  0  0  0  0  0  0  0  0  0  0  0
   14.5546   20.5900   36.2400 C   0  0  2  0  0  0  0  0  0  0  0  0
   17.8058   23.2235   35.2253 N   0  0  0  0  0  0  0  0  0  0  0  0
   13.6642   19.1404   37.9603 O   0  0  0  0  0  0  0  0  0  0  0  0
   13.3445   19.7806   36.7226 C   0  0  1  0  0  0  0  0  0  0  0  0
   15.2264   22.3665   34.6726 O   0  0  0  0  0  0  0  0  0  0  0  0
   12.1256   20.6822   36.9318 C   0  0  1  0  0  0  0  0  0  0  0  0
   15.8279   21.5767   32.5309 O   0  0  0  0  0  0  0  0  0  0  0  0
   11.7399   21.3590   35.6147 C   0  0  0  0  0  0  0  0  0  0  0  0
   16.0688   24.9261   31.0174 O   0  0  0  0  0  0  0  0  0  0  0  0
   12.9112   22.2137   35.1267 C   0  0  1  0  0  0  0  0  0  0  0  0
   18.1324   25.0122   33.0143 O   0  0  0  0  0  0  0  0  0  0  0  0
   14.2079   21.4071   34.9969 C   0  0  2  0  0  0  0  0  0  0  0  0
   17.6701   18.2735   34.0460 O   0  0  0  0  0  0  0  0  0  0  0  0
   16.2907   21.8361   33.8694 C   0  0  1  0  0  0  0  0  0  0  0  0
   15.6775   17.1194   32.4818 O   0  0  0  0  0  0  0  0  0  0  0  0
   15.3701   22.7412   31.8222 C   0  0  2  0  0  0  0  0  0  0  0  0
   14.8811   22.3124   30.4366 C   0  0  0  0  0  0  0  0  0  0  0  0
   16.5189   23.7478   31.6930 C   0  0  2  0  0  0  0  0  0  0  0  0
   17.0148   24.1213   33.0915 C   0  0  1  0  0  0  0  0  0  0  0  0
   17.4303   22.8598   33.8519 C   0  0  1  0  0  0  0  0  0  0  0  0
   16.4835   17.7878   34.6813 C   0  0  2  0  0  0  0  0  0  0  0  0
   15.7789   16.7172   33.8503 C   0  0  1  0  0  0  0  0  0  0  0  0
  3  1  1  0  0  0  0
  4  1  1  1  0  0  0
  4  6  1  0  0  0  0
  4 31  1  0  0  0  0
  6  7  1  0  0  0  0
  7  9  1  1  0  0  0
  7 30  1  0  0  0  0
 10  9  1  6  0  0  0
 10 13  1  0  0  0  0
 10 21  1  0  0  0  0
 13 12  1  1  0  0  0
 13 15  1  0  0  0  0
 15  2  1  6  0  0  0
 15 17  1  0  0  0  0
 16 25  1  0  0  0  0
 17 19  1  0  0  0  0
 19  5  1  6  0  0  0
 19 21  1  0  0  0  0
 21 14  1  1  0  0  0
 23 14  1  1  0  0  0
 23 16  1  0  0  0  0
 23 29  1  0  0  0  0
 25 26  1  6  0  0  0
 25 27  1  0  0  0  0
 26  8  1  0  0  0  0
 27 18  1  1  0  0  0
 27 28  1  0  0  0  0
 28 20  1  6  0  0  0
 28 29  1  0  0  0  0
 29 11  1  1  0  0  0
 30 22  1  6  0  0  0
 30 31  1  0  0  0  0
 31 24  1  6  0  0  0
M  END
>  <CHROM.1>
-49.26188825,-55.48120232,67.24906429,85.61105545,70.94676418,171.02450006
15.05275854,20.66635472,34.30559057,-1.92445525,0.71132276,-0.33318888

>  <Name>
2fcz_lig

>  <RI>
2.6968e+07

>  <Rbt.Current_Directory>
/home/itssahil/PROJECTS/Mol_Feturizer/New_Systems/rnas/2fcz

>  <Rbt.Executable>
rbdock ($Id: //depot/dev/client3/rdock/2013.1/src/exe/rbdock.cxx#4 $)

>  <Rbt.Library>
libRbt.so (2013.1, Build901 2013/11/27)

>  <Rbt.Parameter_File>
/export/apps/rDock/src/rDock_2013.1_src/data/scripts/dock_solv.prm

>  <Rbt.Receptor>
prm/blind_docking_60.prm

>  <SCORE>
-13.813

>  <SCORE.INTER>
-12.864

>  <SCORE.INTER.CONST>
1

>  <SCORE.INTER.POLAR>
-1.88644

>  <SCORE.INTER.ROT>
6

>  <SCORE.INTER.SOLV>
15.7033

>  <SCORE.INTER.VDW>
-15.1223

>  <SCORE.INTER.norm>
-0.414967

>  <SCORE.INTRA>
-0.959524

>  <SCORE.INTRA.DIHEDRAL>
-6.33194

>  <SCORE.INTRA.DIHEDRAL.0>
10.8409

>  <SCORE.INTRA.POLAR>
0

>  <SCORE.INTRA.POLAR.0>
0

>  <SCORE.INTRA.REPUL>
0

>  <SCORE.INTRA.REPUL.0>
0

>  <SCORE.INTRA.SOLV>
-0.369252

>  <SCORE.INTRA.SOLV.lig_0>
-80.8302

>  <SCORE.INTRA.VDW>
2.39107

>  <SCORE.INTRA.VDW.0>
-4.23953

>  <SCORE.INTRA.norm>
-0.0309524

>  <SCORE.RESTR>
0.0104996

>  <SCORE.RESTR.CAVITY>
0.0104996

>  <SCORE.RESTR.norm>
0.000338697

>  <SCORE.SYSTEM>
0

>  <SCORE.SYSTEM.CONST>
0

>  <SCORE.SYSTEM.DIHEDRAL>
0

>  <SCORE.SYSTEM.SOLV>
0

>  <SCORE.SYSTEM.norm>
0

>  <SCORE.heavy>
31

>  <SCORE.norm>
-0.44558

>  <RMSD>
6.936

$$$$
2fcz_lig
 OpenBabel11021811433D
libRbt.so/2013.1/901 2013/11/27
 31 33  0  0  0  0  0  0  0  0999 V2000
   10.8884   12.4365   36.1576 C   0  0  0  0  0  0  0  0  0  0  0  0
   10.4833   15.5509   41.5980 N   0  0  0  0  0  0  0  0  0  0  0  0
   10.2233   11.9733   37.3360 O   0  0  0  0  0  0  0  0  0  0  0  0
   10.6070   13.9301   35.9611 C   0  0  1  0  0  0  0  0  0  0  0  0
   11.5933   19.6543   39.1737 N   0  0  0  0  0  0  0  0  0  0  0  0
   11.0916   14.7144   37.0700 O   0  0  0  0  0  0  0  0  0  0  0  0
   12.2489   15.4688   36.6587 C   0  0  1  0  0  0  0  0  0  0  0  0
   12.8111   22.7077   35.4329 N   0  0  0  0  0  0  0  0  0  0  0  0
   13.3169   15.4119   37.6197 O   0  0  0  0  0  0  0  0  0  0  0  0
   13.0594   16.1390   38.8330 C   0  0  2  0  0  0  0  0  0  0  0  0
   16.3435   17.5376   37.2725 N   0  0  0  0  0  0  0  0  0  0  0  0
   12.3877   14.1514   40.0380 O   0  0  0  0  0  0  0  0  0  0  0  0
   11.9377   15.4394   39.6107 C   0  0  1  0  0  0  0  0  0  0  0  0
   13.7860   18.3357   37.9903 O   0  0  0  0  0  0  0  0  0  0  0  0
   11.5278   16.2537   40.8401 C   0  0  1  0  0  0  0  0  0  0  0  0
   13.2709   19.0440   35.7981 O   0  0  0  0  0  0  0  0  0  0  0  0
   11.0118   17.6291   40.4116 C   0  0  0  0  0  0  0  0  0  0  0  0
   15.3126   22.1051   35.9695 O   0  0  0  0  0  0  0  0  0  0  0  0
   12.1235   18.3748   39.6708 C   0  0  1  0  0  0  0  0  0  0  0  0
   17.2893   20.0399   36.2534 O   0  0  0  0  0  0  0  0  0  0  0  0
   12.6725   17.5749   38.4844 C   0  0  2  0  0  0  0  0  0  0  0  0
   13.4727   15.6624   34.5187 O   0  0  0  0  0  0  0  0  0  0  0  0
   14.0540   18.1356   36.5948 C   0  0  1  0  0  0  0  0  0  0  0  0
   10.7060   15.6356   34.2121 O   0  0  0  0  0  0  0  0  0  0  0  0
   13.5471   20.4352   36.0356 C   0  0  2  0  0  0  0  0  0  0  0  0
   12.6250   21.2771   35.1502 C   0  0  0  0  0  0  0  0  0  0  0  0
   15.0150   20.7303   35.7072 C   0  0  2  0  0  0  0  0  0  0  0  0
   15.9088   19.8417   36.5749 C   0  0  1  0  0  0  0  0  0  0  0  0
   15.5493   18.3700   36.3582 C   0  0  1  0  0  0  0  0  0  0  0  0
   12.6905   14.8035   35.3541 C   0  0  2  0  0  0  0  0  0  0  0  0
   11.3391   14.4622   34.7292 C   0  0  1  0  0  0  0  0  0  0  0  0
  3  1  1  0  0  0  0
  4  1  1  1  0  0  0
  4  6  1  0  0  0  0
  4 31  1  0  0  0  0
  6  7  1  0  0  0  0
  7  9  1  1  0  0  0
  7 30  1  0  0  0  0
 10  9  1  6  0  0  0
 10 13  1  0  0  0  0
 10 21  1  0  0  0  0
 13 12  1  1  0  0  0
 13 15  1  0  0  0  0
 15  2  1  6  0  0  0
 15 17  1  0  0  0  0
 16 25  1  0  0  0  0
 17 19  1  0  0  0  0
 19  5  1  6  0  0  0
 19 21  1  0  0  0  0
 21 14  1  1  0  0  0
 23 14  1  1  0  0  0
 23 16  1  0  0  0  0
 23 29  1  0  0  0  0
 25 26  1  6  0  0  0
 25 27  1  0  0  0  0
 26  8  1  0  0  0  0
 27 18  1  1  0  0  0
 27 28  1  0  0  0  0
 28 20  1  6  0  0  0
 28 29  1  0  0  0  0
 29 11  1  1  0  0  0
 30 22  1  6  0  0  0
 30 31  1  0  0  0  0
 31 24  1  1  0  0  0
M  END
>  <CHROM.1>
60.91791525,-70.69205329,68.10020623,82.48596283,87.42956948,176.03809934
12.87244687,17.19948958,37.18195631,-2.95506037,1.07562433,1.11574912

>  <Name>
2fcz_lig

>  <RI>
2.76032e+07

>  <Rbt.Current_Directory>
/home/itssahil/PROJECTS/Mol_Feturizer/New_Systems/rnas/2fcz

>  <Rbt.Executable>
rbdock ($Id: //depot/dev/client3/rdock/2013.1/src/exe/rbdock.cxx#4 $)

>  <Rbt.Library>
libRbt.so (2013.1, Build901 2013/11/27)

>  <Rbt.Parameter_File>
/export/apps/rDock/src/rDock_2013.1_src/data/scripts/dock_solv.prm

>  <Rbt.Receptor>
prm/pocket_docking_8.prm

>  <SCORE>
-9.94991

>  <SCORE.INTER>
-9.11236

>  <SCORE.INTER.CONST>
1

>  <SCORE.INTER.POLAR>
-2.01656

>  <SCORE.INTER.ROT>
6

>  <SCORE.INTER.SOLV>
15.0328

>  <SCORE.INTER.VDW>
-11.9639

>  <SCORE.INTER.norm>
-0.293947

>  <SCORE.INTRA>
-0.837554

>  <SCORE.INTRA.DIHEDRAL>
-4.4752

>  <SCORE.INTRA.DIHEDRAL.0>
10.8409

>  <SCORE.INTRA.POLAR>
0

>  <SCORE.INTRA.POLAR.0>
0

>  <SCORE.INTRA.REPUL>
0

>  <SCORE.INTRA.REPUL.0>
0

>  <SCORE.INTRA.SOLV>
-0.969747

>  <SCORE.INTRA.SOLV.lig_0>
-80.8302

>  <SCORE.INTRA.VDW>
1.88492

>  <SCORE.INTRA.VDW.0>
-4.23953

>  <SCORE.INTRA.norm>
-0.0270179

>  <SCORE.RESTR>
0

>  <SCORE.RESTR.CAVITY>
0

>  <SCORE.RESTR.norm>
0

>  <SCORE.SYSTEM>
0

>  <SCORE.SYSTEM.CONST>
0

>  <SCORE.SYSTEM.DIHEDRAL>
0

>  <SCORE.SYSTEM.SOLV>
0

>  <SCORE.SYSTEM.norm>
0

>  <SCORE.heavy>
31

>  <SCORE.norm>
-0.320965

>  <RMSD>
6.949

$$$$
2fcz_lig
 OpenBabel11021811433D
libRbt.so/2013.1/901 2013/11/27
 31 33  0  0  0  0  0  0  0  0999 V2000
    8.5517   18.5923   30.9843 C   0  0  0  0  0  0  0  0  0  0  0  0
    6.7889   16.2959   38.5252 N   0  0  0  0  0  0  0  0  0  0  0  0
    8.0603   18.2753   29.6791 O   0  0  0  0  0  0  0  0  0  0  0  0
    9.7301   17.6746   31.3277 C   0  0  1  0  0  0  0  0  0  0  0  0
   11.6285   16.6809   39.1393 N   0  0  0  0  0  0  0  0  0  0  0  0
   10.3593   18.0563   32.5678 O   0  0  0  0  0  0  0  0  0  0  0  0
   10.0526   17.0820   33.5849 C   0  0  1  0  0  0  0  0  0  0  0  0
   11.8447   20.8687   37.4896 N   0  0  0  0  0  0  0  0  0  0  0  0
    9.6717   17.6857   34.8329 O   0  0  0  0  0  0  0  0  0  0  0  0
    9.5563   16.7595   35.9264 C   0  0  2  0  0  0  0  0  0  0  0  0
   13.8721   15.4213   34.6582 N   0  0  0  0  0  0  0  0  0  0  0  0
    7.1478   16.6301   35.7362 O   0  0  0  0  0  0  0  0  0  0  0  0
    8.2100   16.9750   36.6288 C   0  0  1  0  0  0  0  0  0  0  0  0
   11.9724   16.5342   36.3452 O   0  0  0  0  0  0  0  0  0  0  0  0
    8.0996   16.1110   37.8872 C   0  0  1  0  0  0  0  0  0  0  0  0
   12.4553   18.7295   35.6239 O   0  0  0  0  0  0  0  0  0  0  0  0
    9.2072   16.4793   38.8768 C   0  0  0  0  0  0  0  0  0  0  0  0
   15.6342   18.9737   37.4684 O   0  0  0  0  0  0  0  0  0  0  0  0
   10.5682   16.2320   38.2230 C   0  0  1  0  0  0  0  0  0  0  0  0
   16.1654   16.8369   35.6231 O   0  0  0  0  0  0  0  0  0  0  0  0
   10.7199   16.9761   36.8918 C   0  0  2  0  0  0  0  0  0  0  0  0
    8.7338   14.9902   33.5848 O   0  0  0  0  0  0  0  0  0  0  0  0
   12.4473   17.3377   35.2552 C   0  0  1  0  0  0  0  0  0  0  0  0
   10.3150   15.3008   31.3149 O   0  0  0  0  0  0  0  0  0  0  0  0
   13.3201   19.0488   36.7276 C   0  0  2  0  0  0  0  0  0  0  0  0
   13.2021   20.5453   37.0270 C   0  0  0  0  0  0  0  0  0  0  0  0
   14.7662   18.6908   36.3667 C   0  0  2  0  0  0  0  0  0  0  0  0
   14.8419   17.2003   36.0290 C   0  0  1  0  0  0  0  0  0  0  0  0
   13.8626   16.8707   34.9001 C   0  0  1  0  0  0  0  0  0  0  0  0
    8.8747   16.2932   33.0106 C   0  0  2  0  0  0  0  0  0  0  0  0
    9.2553   16.2361   31.5323 C   0  0  1  0  0  0  0  0  0  0  0  0
  3  1  1  0  0  0  0
  4  1  1  1  0  0  0
  4  6  1  0  0  0  0
  4 31  1  0  0  0  0
  6  7  1  0  0  0  0
  7  9  1  1  0  0  0
  7 30  1  0  0  0  0
 10  9  1  6  0  0  0
 10 13  1  0  0  0  0
 10 21  1  0  0  0  0
 13 12  1  6  0  0  0
 13 15  1  0  0  0  0
 15  2  1  1  0  0  0
 15 17  1  0  0  0  0
 16 25  1  0  0  0  0
 17 19  1  0  0  0  0
 19  5  1  1  0  0  0
 19 21  1  0  0  0  0
 21 14  1  6  0  0  0
 23 14  1  1  0  0  0
 23 16  1  0  0  0  0
 23 29  1  0  0  0  0
 25 26  1  6  0  0  0
 25 27  1  0  0  0  0
 26  8  1  0  0  0  0
 27 18  1  1  0  0  0
 27 28  1  0  0  0  0
 28 20  1  6  0  0  0
 28 29  1  0  0  0  0
 29 11  1  1  0  0  0
 30 22  1  1  0  0  0
 30 31  1  0  0  0  0
 31 24  1  1  0  0  0
M  END
>  <CHROM.1>
173.30992278,-170.98844543,-130.05946692,69.02401780,51.66843710,64.91034136
10.96705643,17.30446464,35.23664988,-2.43826270,0.24101873,1.58736348

>  <Name>
2fcz_lig

>  <RI>
2.76032e+07

>  <Rbt.Current_Directory>
/home/itssahil/PROJECTS/Mol_Feturizer/New_Systems/rnas/2fcz

>  <Rbt.Executable>
rbdock ($Id: //depot/dev/client3/rdock/2013.1/src/exe/rbdock.cxx#4 $)

>  <Rbt.Library>
libRbt.so (2013.1, Build901 2013/11/27)

>  <Rbt.Parameter_File>
/export/apps/rDock/src/rDock_2013.1_src/data/scripts/dock_solv.prm

>  <Rbt.Receptor>
prm/pocket_docking_8.prm

>  <SCORE>
-10.2672

>  <SCORE.INTER>
-8.889

>  <SCORE.INTER.CONST>
1

>  <SCORE.INTER.POLAR>
-0.99616

>  <SCORE.INTER.ROT>
6

>  <SCORE.INTER.SOLV>
14.827

>  <SCORE.INTER.VDW>
-15.1478

>  <SCORE.INTER.norm>
-0.286742

>  <SCORE.INTRA>
-1.37816

>  <SCORE.INTRA.DIHEDRAL>
-2.63784

>  <SCORE.INTRA.DIHEDRAL.0>
10.8409

>  <SCORE.INTRA.POLAR>
0

>  <SCORE.INTRA.POLAR.0>
0

>  <SCORE.INTRA.REPUL>
0.0170942

>  <SCORE.INTRA.REPUL.0>
0

>  <SCORE.INTRA.SOLV>
-2.83026

>  <SCORE.INTRA.SOLV.lig_0>
-80.8302

>  <SCORE.INTRA.VDW>
1.27043

>  <SCORE.INTRA.VDW.0>
-4.23953

>  <SCORE.INTRA.norm>
-0.0444567

>  <SCORE.RESTR>
0

>  <SCORE.RESTR.CAVITY>
0

>  <SCORE.RESTR.norm>
0

>  <SCORE.SYSTEM>
0

>  <SCORE.SYSTEM.CONST>
0

>  <SCORE.SYSTEM.DIHEDRAL>
0

>  <SCORE.SYSTEM.SOLV>
0

>  <SCORE.SYSTEM.norm>
0

>  <SCORE.heavy>
31

>  <SCORE.norm>
-0.331198

>  <RMSD>
6.969

$$$$
2fcz_lig
 OpenBabel11021811433D
libRbt.so/2013.1/901 2013/11/27
 31 33  0  0  0  0  0  0  0  0999 V2000
   10.7398   21.8944   30.7968 C   0  0  0  0  0  0  0  0  0  0  0  0
    8.9460   17.0433   37.6391 N   0  0  0  0  0  0  0  0  0  0  0  0
   10.3651   22.4614   29.5384 O   0  0  0  0  0  0  0  0  0  0  0  0
    9.7663   20.7696   31.1650 C   0  0  1  0  0  0  0  0  0  0  0  0
   12.9616   19.7700   38.2615 N   0  0  0  0  0  0  0  0  0  0  0  0
   10.1507   20.1111   32.3890 O   0  0  0  0  0  0  0  0  0  0  0  0
    9.2299   20.4678   33.4391 C   0  0  1  0  0  0  0  0  0  0  0  0
   17.5815   21.8638   36.6332 N   0  0  0  0  0  0  0  0  0  0  0  0
    9.8954   20.8047   34.6682 O   0  0  0  0  0  0  0  0  0  0  0  0
   10.4908   19.6841   35.3441 C   0  0  2  0  0  0  0  0  0  0  0  0
   11.9569   23.2621   34.9332 N   0  0  0  0  0  0  0  0  0  0  0  0
    8.4862   18.3412   35.1646 O   0  0  0  0  0  0  0  0  0  0  0  0
    9.4007   18.9158   36.1015 C   0  0  1  0  0  0  0  0  0  0  0  0
   12.7263   20.6833   35.6049 O   0  0  0  0  0  0  0  0  0  0  0  0
   10.0048   17.7971   36.9535 C   0  0  1  0  0  0  0  0  0  0  0  0
   14.7492   21.4193   36.5738 O   0  0  0  0  0  0  0  0  0  0  0  0
   10.9666   18.3852   37.9883 C   0  0  0  0  0  0  0  0  0  0  0  0
   16.4066   22.1056   33.3567 O   0  0  0  0  0  0  0  0  0  0  0  0
   12.0952   19.1219   37.2641 C   0  0  1  0  0  0  0  0  0  0  0  0
   14.2149   23.9625   33.3190 O   0  0  0  0  0  0  0  0  0  0  0  0
   11.5697   20.1905   36.2994 C   0  0  2  0  0  0  0  0  0  0  0  0
    7.2203   21.9068   33.5141 O   0  0  0  0  0  0  0  0  0  0  0  0
   13.3859   21.7697   36.2711 C   0  0  1  0  0  0  0  0  0  0  0  0
    7.3630   20.3247   31.2280 O   0  0  0  0  0  0  0  0  0  0  0  0
   15.5625   21.1391   35.4214 C   0  0  2  0  0  0  0  0  0  0  0  0
   16.9663   20.7522   35.8934 C   0  0  0  0  0  0  0  0  0  0  0  0
   15.6262   22.3802   34.5241 C   0  0  2  0  0  0  0  0  0  0  0  0
   14.2058   22.7677   34.1071 C   0  0  1  0  0  0  0  0  0  0  0  0
   13.3403   22.9923   35.3491 C   0  0  1  0  0  0  0  0  0  0  0  0
    8.4933   21.6935   32.8964 C   0  0  2  0  0  0  0  0  0  0  0  0
    8.3655   21.3264   31.4192 C   0  0  1  0  0  0  0  0  0  0  0  0
  3  1  1  0  0  0  0
  4  1  1  1  0  0  0
  4  6  1  0  0  0  0
  4 31  1  0  0  0  0
  6  7  1  0  0  0  0
  7  9  1  1  0  0  0
  7 30  1  0  0  0  0
 10  9  1  1  0  0  0
 10 13  1  0  0  0  0
 10 21  1  0  0  0  0
 13 12  1  6  0  0  0
 13 15  1  0  0  0  0
 15  2  1  1  0  0  0
 15 17  1  0  0  0  0
 16 25  1  0  0  0  0
 17 19  1  0  0  0  0
 19  5  1  1  0  0  0
 19 21  1  0  0  0  0
 21 14  1  6  0  0  0
 23 14  1  6  0  0  0
 23 16  1  0  0  0  0
 23 29  1  0  0  0  0
 25 26  1  1  0  0  0
 25 27  1  0  0  0  0
 26  8  1  0  0  0  0
 27 18  1  6  0  0  0
 27 28  1  0  0  0  0
 28 20  1  1  0  0  0
 28 29  1  0  0  0  0
 29 11  1  6  0  0  0
 30 22  1  1  0  0  0
 30 31  1  0  0  0  0
 31 24  1  1  0  0  0
M  END
>  <CHROM.1>
176.47769063,-71.05719259,-79.34853022,147.34928395,120.58939231,-61.36444821
11.69765758,20.86057988,34.59339732,-2.90546863,0.35601429,2.12495303

>  <Name>
2fcz_lig

>  <RI>
0

>  <Rbt.Current_Directory>
/home/itssahil/PROJECTS/Mol_Feturizer/New_Systems/rnas/2fcz

>  <Rbt.Executable>
rbdock ($Id: //depot/dev/client3/rdock/2013.1/src/exe/rbdock.cxx#4 $)

>  <Rbt.Library>
libRbt.so (2013.1, Build901 2013/11/27)

>  <Rbt.Parameter_File>
/export/apps/rDock/src/rDock_2013.1_src/data/scripts/dock_solv.prm

>  <Rbt.Receptor>
prm/pocket_docking_6.prm

>  <SCORE>
-9.30902

>  <SCORE.INTER>
-12.3724

>  <SCORE.INTER.CONST>
1

>  <SCORE.INTER.POLAR>
-2.17013

>  <SCORE.INTER.ROT>
6

>  <SCORE.INTER.SOLV>
16.8005

>  <SCORE.INTER.VDW>
-14.2146

>  <SCORE.INTER.norm>
-0.39911

>  <SCORE.INTRA>
3.06338

>  <SCORE.INTRA.DIHEDRAL>
2.8417

>  <SCORE.INTRA.DIHEDRAL.0>
10.8409

>  <SCORE.INTRA.POLAR>
0

>  <SCORE.INTRA.POLAR.0>
0

>  <SCORE.INTRA.REPUL>
0

>  <SCORE.INTRA.REPUL.0>
0

>  <SCORE.INTRA.SOLV>
0.515152

>  <SCORE.INTRA.SOLV.lig_0>
-80.8302

>  <SCORE.INTRA.VDW>
1.38495

>  <SCORE.INTRA.VDW.0>
-4.23953

>  <SCORE.INTRA.norm>
0.0988186

>  <SCORE.RESTR>
0

>  <SCORE.RESTR.CAVITY>
0

>  <SCORE.RESTR.norm>
0

>  <SCORE.SYSTEM>
0

>  <SCORE.SYSTEM.CONST>
0

>  <SCORE.SYSTEM.DIHEDRAL>
0

>  <SCORE.SYSTEM.SOLV>
0

>  <SCORE.SYSTEM.norm>
0

>  <SCORE.heavy>
31

>  <SCORE.norm>
-0.300291

>  <RMSD>
6.988

$$$$
2fcz_lig
 OpenBabel11021811433D
libRbt.so/2013.1/901 2013/11/27
 31 33  0  0  0  0  0  0  0  0999 V2000
    8.2754   20.1060   32.7780 C   0  0  0  0  0  0  0  0  0  0  0  0
   14.6662   13.9188   32.3986 N   0  0  0  0  0  0  0  0  0  0  0  0
    6.9217   20.4699   32.4938 O   0  0  0  0  0  0  0  0  0  0  0  0
    8.8621   19.3369   31.5894 C   0  0  1  0  0  0  0  0  0  0  0  0
   16.1247   18.1528   34.3716 N   0  0  0  0  0  0  0  0  0  0  0  0
   10.2830   19.1366   31.7330 O   0  0  0  0  0  0  0  0  0  0  0  0
   10.5485   17.7492   32.0198 C   0  0  1  0  0  0  0  0  0  0  0  0
   15.5452   19.4326   37.4600 N   0  0  0  0  0  0  0  0  0  0  0  0
   11.4994   17.5761   33.0843 O   0  0  0  0  0  0  0  0  0  0  0  0
   12.8316   17.2657   32.6419 C   0  0  2  0  0  0  0  0  0  0  0  0
   12.3122   21.5688   32.4610 N   0  0  0  0  0  0  0  0  0  0  0  0
   12.1785   15.1103   31.7579 O   0  0  0  0  0  0  0  0  0  0  0  0
   13.0415   15.7476   32.7029 C   0  0  1  0  0  0  0  0  0  0  0  0
   13.8416   19.4127   33.3008 O   0  0  0  0  0  0  0  0  0  0  0  0
   14.4907   15.3775   32.3783 C   0  0  1  0  0  0  0  0  0  0  0  0
   13.8953   20.1772   35.5336 O   0  0  0  0  0  0  0  0  0  0  0  0
   15.4378   16.0213   33.3932 C   0  0  0  0  0  0  0  0  0  0  0  0
   16.3183   22.8743   34.8836 O   0  0  0  0  0  0  0  0  0  0  0  0
   15.2875   17.5425   33.3267 C   0  0  1  0  0  0  0  0  0  0  0  0
   14.0758   23.6717   33.2746 O   0  0  0  0  0  0  0  0  0  0  0  0
   13.8375   17.9950   33.5304 C   0  0  2  0  0  0  0  0  0  0  0  0
    9.0965   15.7645   32.2798 O   0  0  0  0  0  0  0  0  0  0  0  0
   13.1459   20.1667   34.3042 C   0  0  1  0  0  0  0  0  0  0  0  0
    8.3451   17.4158   30.1683 O   0  0  0  0  0  0  0  0  0  0  0  0
   15.1915   20.7924   35.4363 C   0  0  2  0  0  0  0  0  0  0  0  0
   15.8815   20.7023   36.7996 C   0  0  0  0  0  0  0  0  0  0  0  0
   15.0338   22.2579   35.0157 C   0  0  2  0  0  0  0  0  0  0  0  0
   14.3013   22.3157   33.6734 C   0  0  1  0  0  0  0  0  0  0  0  0
   12.9560   21.5942   33.7817 C   0  0  1  0  0  0  0  0  0  0  0  0
    9.1914   17.1831   32.4409 C   0  0  2  0  0  0  0  0  0  0  0  0
    8.2560   17.9366   31.4972 C   0  0  1  0  0  0  0  0  0  0  0  0
  3  1  1  0  0  0  0
  4  1  1  1  0  0  0
  4  6  1  0  0  0  0
  4 31  1  0  0  0  0
  6  7  1  0  0  0  0
  7  9  1  1  0  0  0
  7 30  1  0  0  0  0
 10  9  1  1  0  0  0
 10 13  1  0  0  0  0
 10 21  1  0  0  0  0
 13 12  1  6  0  0  0
 13 15  1  0  0  0  0
 15  2  1  1  0  0  0
 15 17  1  0  0  0  0
 16 25  1  0  0  0  0
 17 19  1  0  0  0  0
 19  5  1  1  0  0  0
 19 21  1  0  0  0  0
 21 14  1  6  0  0  0
 23 14  1  6  0  0  0
 23 16  1  0  0  0  0
 23 29  1  0  0  0  0
 25 26  1  1  0  0  0
 25 27  1  0  0  0  0
 26  8  1  0  0  0  0
 27 18  1  6  0  0  0
 27 28  1  0  0  0  0
 28 20  1  1  0  0  0
 28 29  1  0  0  0  0
 29 11  1  6  0  0  0
 30 22  1  6  0  0  0
 30 31  1  0  0  0  0
 31 24  1  6  0  0  0
M  END
>  <CHROM.1>
170.62394112,-100.89867929,-96.94817610,102.58393477,71.69307157,36.08288489
12.58973020,18.87896293,33.29069950,2.57646276,0.37785743,-2.90328551

>  <Name>
2fcz_lig

>  <RI>
2.6968e+07

>  <Rbt.Current_Directory>
/home/itssahil/PROJECTS/Mol_Feturizer/New_Systems/rnas/2fcz

>  <Rbt.Executable>
rbdock ($Id: //depot/dev/client3/rdock/2013.1/src/exe/rbdock.cxx#4 $)

>  <Rbt.Library>
libRbt.so (2013.1, Build901 2013/11/27)

>  <Rbt.Parameter_File>
/export/apps/rDock/src/rDock_2013.1_src/data/scripts/dock_solv.prm

>  <Rbt.Receptor>
prm/blind_docking_60.prm

>  <SCORE>
-5.30182

>  <SCORE.INTER>
-10.0342

>  <SCORE.INTER.CONST>
1

>  <SCORE.INTER.POLAR>
-0.627401

>  <SCORE.INTER.ROT>
6

>  <SCORE.INTER.SOLV>
16.2915

>  <SCORE.INTER.VDW>
-17.6286

>  <SCORE.INTER.norm>
-0.323683

>  <SCORE.INTRA>
4.72602

>  <SCORE.INTRA.DIHEDRAL>
8.10017

>  <SCORE.INTRA.DIHEDRAL.0>
10.8409

>  <SCORE.INTRA.POLAR>
0

>  <SCORE.INTRA.POLAR.0>
0

>  <SCORE.INTRA.REPUL>
0

>  <SCORE.INTRA.REPUL.0>
0

>  <SCORE.INTRA.SOLV>
1.30467

>  <SCORE.INTRA.SOLV.lig_0>
-80.8302

>  <SCORE.INTRA.VDW>
0.0236037

>  <SCORE.INTRA.VDW.0>
-4.23953

>  <SCORE.INTRA.norm>
0.152452

>  <SCORE.RESTR>
0.00633032

>  <SCORE.RESTR.CAVITY>
0.00633032

>  <SCORE.RESTR.norm>
0.000204204

>  <SCORE.SYSTEM>
0

>  <SCORE.SYSTEM.CONST>
0

>  <SCORE.SYSTEM.DIHEDRAL>
0

>  <SCORE.SYSTEM.SOLV>
0

>  <SCORE.SYSTEM.norm>
0

>  <SCORE.heavy>
31

>  <SCORE.norm>
-0.171026

>  <RMSD>
6.991

$$$$
2fcz_lig
 OpenBabel11021811433D
libRbt.so/2013.1/901 2013/11/27
 31 33  0  0  0  0  0  0  0  0999 V2000
    9.9601   18.2700   40.1974 C   0  0  0  0  0  0  0  0  0  0  0  0
    9.6753   18.4761   31.7130 N   0  0  0  0  0  0  0  0  0  0  0  0
    8.6084   17.8317   40.0356 O   0  0  0  0  0  0  0  0  0  0  0  0
   10.9145   17.2200   39.6185 C   0  0  1  0  0  0  0  0  0  0  0  0
    8.9845   14.5029   34.4848 N   0  0  0  0  0  0  0  0  0  0  0  0
   10.6805   17.0045   38.2119 O   0  0  0  0  0  0  0  0  0  0  0  0
   11.7650   17.5706   37.4496 C   0  0  1  0  0  0  0  0  0  0  0  0
   14.4395   17.9119   34.7360 N   0  0  0  0  0  0  0  0  0  0  0  0
   11.3085   18.3277   36.3157 O   0  0  0  0  0  0  0  0  0  0  0  0
   11.1915   17.5638   35.1035 C   0  0  2  0  0  0  0  0  0  0  0  0
   11.3570   12.6866   36.8795 N   0  0  0  0  0  0  0  0  0  0  0  0
   11.4098   19.5182   33.6940 O   0  0  0  0  0  0  0  0  0  0  0  0
   10.5385   18.4330   34.0216 C   0  0  1  0  0  0  0  0  0  0  0  0
   11.0629   15.3564   36.1872 O   0  0  0  0  0  0  0  0  0  0  0  0
   10.2610   17.6209   32.7544 C   0  0  1  0  0  0  0  0  0  0  0  0
   13.1440   15.4127   35.0743 O   0  0  0  0  0  0  0  0  0  0  0  0
    9.3049   16.4679   33.0676 C   0  0  0  0  0  0  0  0  0  0  0  0
   15.1510   15.4401   38.1628 O   0  0  0  0  0  0  0  0  0  0  0  0
    9.9461   15.5528   34.1128 C   0  0  1  0  0  0  0  0  0  0  0  0
   13.8168   12.9012   38.3279 O   0  0  0  0  0  0  0  0  0  0  0  0
   10.3600   16.3123   35.3779 C   0  0  2  0  0  0  0  0  0  0  0  0
   13.8391   18.7604   38.0798 O   0  0  0  0  0  0  0  0  0  0  0  0
   12.0332   14.5842   35.4650 C   0  0  1  0  0  0  0  0  0  0  0  0
   13.2726   16.5818   39.7176 O   0  0  0  0  0  0  0  0  0  0  0  0
   13.8702   15.9925   36.1718 C   0  0  2  0  0  0  0  0  0  0  0  0
   14.9935   16.8675   35.6099 C   0  0  0  0  0  0  0  0  0  0  0  0
   14.4521   14.8776   37.0481 C   0  0  2  0  0  0  0  0  0  0  0  0
   13.3101   13.9950   37.5563 C   0  0  1  0  0  0  0  0  0  0  0  0
   12.5088   13.4462   36.3736 C   0  0  1  0  0  0  0  0  0  0  0  0
   12.4789   18.4958   38.4364 C   0  0  2  0  0  0  0  0  0  0  0  0
   12.3658   17.6876   39.7276 C   0  0  1  0  0  0  0  0  0  0  0  0
  3  1  1  0  0  0  0
  4  1  1  6  0  0  0
  4  6  1  0  0  0  0
  4 31  1  0  0  0  0
  6  7  1  0  0  0  0
  7  9  1  6  0  0  0
  7 30  1  0  0  0  0
 10  9  1  1  0  0  0
 10 13  1  0  0  0  0
 10 21  1  0  0  0  0
 13 12  1  6  0  0  0
 13 15  1  0  0  0  0
 15  2  1  6  0  0  0
 15 17  1  0  0  0  0
 16 25  1  0  0  0  0
 17 19  1  0  0  0  0
 19  5  1  1  0  0  0
 19 21  1  0  0  0  0
 21 14  1  1  0  0  0
 23 14  1  1  0  0  0
 23 16  1  0  0  0  0
 23 29  1  0  0  0  0
 25 26  1  6  0  0  0
 25 27  1  0  0  0  0
 26  8  1  0  0  0  0
 27 18  1  1  0  0  0
 27 28  1  0  0  0  0
 28 20  1  6  0  0  0
 28 29  1  0  0  0  0
 29 11  1  1  0  0  0
 30 22  1  6  0  0  0
 30 31  1  0  0  0  0
 31 24  1  6  0  0  0
M  END
>  <CHROM.1>
60.29225365,-91.21167750,173.13582219,-78.27706247,69.52781008,58.10612102
11.85589367,16.51885290,36.48697195,0.82675064,-0.86873376,1.21278544

>  <Name>
2fcz_lig

>  <RI>
2.76032e+07

>  <Rbt.Current_Directory>
/home/itssahil/PROJECTS/Mol_Feturizer/New_Systems/rnas/2fcz

>  <Rbt.Executable>
rbdock ($Id: //depot/dev/client3/rdock/2013.1/src/exe/rbdock.cxx#4 $)

>  <Rbt.Library>
libRbt.so (2013.1, Build901 2013/11/27)

>  <Rbt.Parameter_File>
/export/apps/rDock/src/rDock_2013.1_src/data/scripts/dock_solv.prm

>  <Rbt.Receptor>
prm/pocket_docking_8.prm

>  <SCORE>
-4.89246

>  <SCORE.INTER>
-6.80148

>  <SCORE.INTER.CONST>
1

>  <SCORE.INTER.POLAR>
-0.894427

>  <SCORE.INTER.ROT>
6

>  <SCORE.INTER.SOLV>
6.67771

>  <SCORE.INTER.VDW>
-11.3788

>  <SCORE.INTER.norm>
-0.219403

>  <SCORE.INTRA>
1.90902

>  <SCORE.INTRA.DIHEDRAL>
-4.74136

>  <SCORE.INTRA.DIHEDRAL.0>
10.8409

>  <SCORE.INTRA.POLAR>
0

>  <SCORE.INTRA.POLAR.0>
0

>  <SCORE.INTRA.REPUL>
0

>  <SCORE.INTRA.REPUL.0>
0

>  <SCORE.INTRA.SOLV>
3.05959

>  <SCORE.INTRA.SOLV.lig_0>
-80.8302

>  <SCORE.INTRA.VDW>
2.74991

>  <SCORE.INTRA.VDW.0>
-4.23953

>  <SCORE.INTRA.norm>
0.0615813

>  <SCORE.RESTR>
0

>  <SCORE.RESTR.CAVITY>
0

>  <SCORE.RESTR.norm>
0

>  <SCORE.SYSTEM>
0

>  <SCORE.SYSTEM.CONST>
0

>  <SCORE.SYSTEM.DIHEDRAL>
0

>  <SCORE.SYSTEM.SOLV>
0

>  <SCORE.SYSTEM.norm>
0

>  <SCORE.heavy>
31

>  <SCORE.norm>
-0.157821

>  <RMSD>
7.010

$$$$
2fcz_lig
 OpenBabel11021811433D
libRbt.so/2013.1/901 2013/11/27
 31 33  0  0  0  0  0  0  0  0999 V2000
    9.5231   22.0344   30.5102 C   0  0  0  0  0  0  0  0  0  0  0  0
    8.0552   22.8124   33.3657 N   0  0  0  0  0  0  0  0  0  0  0  0
    9.2129   23.3339   29.9997 O   0  0  0  0  0  0  0  0  0  0  0  0
    9.2564   20.9800   29.4306 C   0  0  1  0  0  0  0  0  0  0  0  0
   11.8789   19.7585   33.3953 N   0  0  0  0  0  0  0  0  0  0  0  0
    9.3292   19.6417   29.9628 O   0  0  0  0  0  0  0  0  0  0  0  0
    8.0055   19.0747   30.0267 C   0  0  1  0  0  0  0  0  0  0  0  0
   14.5893   17.9058   32.5753 N   0  0  0  0  0  0  0  0  0  0  0  0
    7.7489   18.4071   31.2740 O   0  0  0  0  0  0  0  0  0  0  0  0
    8.2361   19.1083   32.4306 C   0  0  2  0  0  0  0  0  0  0  0  0
    8.7456   15.3530   32.0461 N   0  0  0  0  0  0  0  0  0  0  0  0
    6.4269   20.7140   32.3837 O   0  0  0  0  0  0  0  0  0  0  0  0
    7.8497   20.5886   32.3219 C   0  0  1  0  0  0  0  0  0  0  0  0
   10.1348   17.6052   32.8771 O   0  0  0  0  0  0  0  0  0  0  0  0
    8.4687   21.4054   33.4586 C   0  0  1  0  0  0  0  0  0  0  0  0
   12.1251   16.9057   31.8176 O   0  0  0  0  0  0  0  0  0  0  0  0
    9.9951   21.3154   33.4001 C   0  0  0  0  0  0  0  0  0  0  0  0
   12.9169   14.3168   34.3152 O   0  0  0  0  0  0  0  0  0  0  0  0
   10.4188   19.8531   33.5522 C   0  0  1  0  0  0  0  0  0  0  0  0
   10.4387   13.3642   33.2179 O   0  0  0  0  0  0  0  0  0  0  0  0
    9.7520   18.9416   32.5161 C   0  0  2  0  0  0  0  0  0  0  0  0
    5.7665   19.9247   29.4111 O   0  0  0  0  0  0  0  0  0  0  0  0
   10.6868   16.8451   31.7922 C   0  0  1  0  0  0  0  0  0  0  0  0
    7.7413   20.5662   27.5569 O   0  0  0  0  0  0  0  0  0  0  0  0
   12.7241   16.3540   33.0028 C   0  0  2  0  0  0  0  0  0  0  0  0
   14.2432   16.5158   32.9063 C   0  0  0  0  0  0  0  0  0  0  0  0
   12.3536   14.8714   33.1225 C   0  0  2  0  0  0  0  0  0  0  0  0
   10.8299   14.7402   33.1708 C   0  0  1  0  0  0  0  0  0  0  0  0
   10.2103   15.3960   31.9346 C   0  0  1  0  0  0  0  0  0  0  0  0
    7.0713   20.2769   29.8812 C   0  0  2  0  0  0  0  0  0  0  0  0
    7.8416   21.1239   28.8699 C   0  0  1  0  0  0  0  0  0  0  0  0
  3  1  1  0  0  0  0
  4  1  1  1  0  0  0
  4  6  1  0  0  0  0
  4 31  1  0  0  0  0
  6  7  1  0  0  0  0
  7  9  1  1  0  0  0
  7 30  1  0  0  0  0
 10  9  1  6  0  0  0
 10 13  1  0  0  0  0
 10 21  1  0  0  0  0
 13 12  1  1  0  0  0
 13 15  1  0  0  0  0
 15  2  1  6  0  0  0
 15 17  1  0  0  0  0
 16 25  1  0  0  0  0
 17 19  1  0  0  0  0
 19  5  1  6  0  0  0
 19 21  1  0  0  0  0
 21 14  1  1  0  0  0
 23 14  1  1  0  0  0
 23 16  1  0  0  0  0
 23 29  1  0  0  0  0
 25 26  1  6  0  0  0
 25 27  1  0  0  0  0
 26  8  1  0  0  0  0
 27 18  1  1  0  0  0
 27 28  1  0  0  0  0
 28 20  1  6  0  0  0
 28 29  1  0  0  0  0
 29 11  1  1  0  0  0
 30 22  1  6  0  0  0
 30 31  1  0  0  0  0
 31 24  1  6  0  0  0
M  END
>  <CHROM.1>
-169.94414849,41.95683566,45.87071390,106.70709618,96.04226607,50.74972241
9.74124234,18.70578262,31.79899100,-2.29391755,0.56607328,-3.12937962

>  <Name>
2fcz_lig

>  <RI>
0

>  <Rbt.Current_Directory>
/home/itssahil/PROJECTS/Mol_Feturizer/New_Systems/rnas/2fcz

>  <Rbt.Executable>
rbdock ($Id: //depot/dev/client3/rdock/2013.1/src/exe/rbdock.cxx#4 $)

>  <Rbt.Library>
libRbt.so (2013.1, Build901 2013/11/27)

>  <Rbt.Parameter_File>
/export/apps/rDock/src/rDock_2013.1_src/data/scripts/dock_solv.prm

>  <Rbt.Receptor>
prm/blind_docking_40.prm

>  <SCORE>
18.481

>  <SCORE.INTER>
-3.26939

>  <SCORE.INTER.CONST>
1

>  <SCORE.INTER.POLAR>
0

>  <SCORE.INTER.ROT>
6

>  <SCORE.INTER.SOLV>
22.9737

>  <SCORE.INTER.VDW>
-17.4375

>  <SCORE.INTER.norm>
-0.105464

>  <SCORE.INTRA>
12.5971

>  <SCORE.INTRA.DIHEDRAL>
3.34214

>  <SCORE.INTRA.DIHEDRAL.0>
10.8409

>  <SCORE.INTRA.POLAR>
0

>  <SCORE.INTRA.POLAR.0>
0

>  <SCORE.INTRA.REPUL>
0

>  <SCORE.INTRA.REPUL.0>
0

>  <SCORE.INTRA.SOLV>
3.71407

>  <SCORE.INTRA.SOLV.lig_0>
-80.8302

>  <SCORE.INTRA.VDW>
9.06901

>  <SCORE.INTRA.VDW.0>
-4.23953

>  <SCORE.INTRA.norm>
0.406359

>  <SCORE.RESTR>
9.15332

>  <SCORE.RESTR.CAVITY>
9.15332

>  <SCORE.RESTR.norm>
0.295268

>  <SCORE.SYSTEM>
0

>  <SCORE.SYSTEM.CONST>
0

>  <SCORE.SYSTEM.DIHEDRAL>
0

>  <SCORE.SYSTEM.SOLV>
0

>  <SCORE.SYSTEM.norm>
0

>  <SCORE.heavy>
31

>  <SCORE.norm>
0.596162

>  <RMSD>
7.020

$$$$
2fcz_lig
 OpenBabel11021811433D
libRbt.so/2013.1/901 2013/11/27
 31 33  0  0  0  0  0  0  0  0999 V2000
    9.6136   20.5306   34.5326 C   0  0  0  0  0  0  0  0  0  0  0  0
   14.9774   26.6921   35.4158 N   0  0  0  0  0  0  0  0  0  0  0  0
    9.4382   20.4614   35.9503 O   0  0  0  0  0  0  0  0  0  0  0  0
    9.7956   21.9915   34.1070 C   0  0  1  0  0  0  0  0  0  0  0  0
   17.2665   22.5917   36.7919 N   0  0  0  0  0  0  0  0  0  0  0  0
   10.9861   22.5695   34.6799 O   0  0  0  0  0  0  0  0  0  0  0  0
   11.9789   22.7497   33.6506 C   0  0  1  0  0  0  0  0  0  0  0  0
   16.8129   20.9176   32.2103 N   0  0  0  0  0  0  0  0  0  0  0  0
   13.2862   22.3131   34.0599 O   0  0  0  0  0  0  0  0  0  0  0  0
   13.8365   23.0505   35.1647 C   0  0  2  0  0  0  0  0  0  0  0  0
   13.7400   18.9532   37.5176 N   0  0  0  0  0  0  0  0  0  0  0  0
   12.8205   25.1286   34.4555 O   0  0  0  0  0  0  0  0  0  0  0  0
   14.0757   24.5022   34.7317 C   0  0  1  0  0  0  0  0  0  0  0  0
   14.9165   21.1280   36.2608 O   0  0  0  0  0  0  0  0  0  0  0  0
   14.7936   25.2936   35.8275 C   0  0  1  0  0  0  0  0  0  0  0  0
   14.9311   20.0488   34.1613 O   0  0  0  0  0  0  0  0  0  0  0  0
   16.1563   24.6638   36.1240 C   0  0  0  0  0  0  0  0  0  0  0  0
   17.7243   17.7940   34.9868 O   0  0  0  0  0  0  0  0  0  0  0  0
   15.9518   23.2255   36.6039 C   0  0  1  0  0  0  0  0  0  0  0  0
   15.7113   16.9815   36.8686 O   0  0  0  0  0  0  0  0  0  0  0  0
   15.1391   22.3887   35.6098 C   0  0  2  0  0  0  0  0  0  0  0  0
   12.0040   22.2890   31.2212 O   0  0  0  0  0  0  0  0  0  0  0  0
   14.2650   20.1531   35.4334 C   0  0  1  0  0  0  0  0  0  0  0  0
    9.6093   23.3937   32.1128 O   0  0  0  0  0  0  0  0  0  0  0  0
   16.3006   19.6171   34.2391 C   0  0  2  0  0  0  0  0  0  0  0  0
   16.8864   19.5843   32.8253 C   0  0  0  0  0  0  0  0  0  0  0  0
   16.3640   18.2233   34.8736 C   0  0  2  0  0  0  0  0  0  0  0  0
   15.7307   18.2794   36.2655 C   0  0  1  0  0  0  0  0  0  0  0  0
   14.2980   18.8079   36.1659 C   0  0  1  0  0  0  0  0  0  0  0  0
   11.4835   21.8840   32.4911 C   0  0  2  0  0  0  0  0  0  0  0  0
    9.9743   22.0969   32.5925 C   0  0  1  0  0  0  0  0  0  0  0  0
  3  1  1  0  0  0  0
  4  1  1  6  0  0  0
  4  6  1  0  0  0  0
  4 31  1  0  0  0  0
  6  7  1  0  0  0  0
  7  9  1  1  0  0  0
  7 30  1  0  0  0  0
 10  9  1  6  0  0  0
 10 13  1  0  0  0  0
 10 21  1  0  0  0  0
 13 12  1  1  0  0  0
 13 15  1  0  0  0  0
 15  2  1  6  0  0  0
 15 17  1  0  0  0  0
 16 25  1  0  0  0  0
 17 19  1  0  0  0  0
 19  5  1  6  0  0  0
 19 21  1  0  0  0  0
 21 14  1  1  0  0  0
 23 14  1  1  0  0  0
 23 16  1  0  0  0  0
 23 29  1  0  0  0  0
 25 26  1  6  0  0  0
 25 27  1  0  0  0  0
 26  8  1  0  0  0  0
 27 18  1  1  0  0  0
 27 28  1  0  0  0  0
 28 20  1  6  0  0  0
 28 29  1  0  0  0  0
 29 11  1  1  0  0  0
 30 22  1  6  0  0  0
 30 31  1  0  0  0  0
 31 24  1  1  0  0  0
M  END
>  <CHROM.1>
62.99477064,-63.21086605,-65.22085547,60.60300190,50.06737914,59.24269425
13.86612515,21.54147436,34.75638485,2.51212491,-0.31588970,-0.03802703

>  <Name>
2fcz_lig

>  <RI>
1.40544e+07

>  <Rbt.Current_Directory>
/home/itssahil/PROJECTS/Mol_Feturizer/New_Systems/rnas/2fcz

>  <Rbt.Executable>
rbdock ($Id: //depot/dev/client3/rdock/2013.1/src/exe/rbdock.cxx#4 $)

>  <Rbt.Library>
libRbt.so (2013.1, Build901 2013/11/27)

>  <Rbt.Parameter_File>
/export/apps/rDock/src/rDock_2013.1_src/data/scripts/dock_solv.prm

>  <Rbt.Receptor>
prm/blind_docking_100.prm

>  <SCORE>
-14.0829

>  <SCORE.INTER>
-10.1997

>  <SCORE.INTER.CONST>
1

>  <SCORE.INTER.POLAR>
-0.894427

>  <SCORE.INTER.ROT>
6

>  <SCORE.INTER.SOLV>
16.4066

>  <SCORE.INTER.VDW>
-16.8873

>  <SCORE.INTER.norm>
-0.329024

>  <SCORE.INTRA>
-3.93573

>  <SCORE.INTRA.DIHEDRAL>
-9.98855

>  <SCORE.INTRA.DIHEDRAL.0>
10.8409

>  <SCORE.INTRA.POLAR>
0

>  <SCORE.INTRA.POLAR.0>
0

>  <SCORE.INTRA.REPUL>
0

>  <SCORE.INTRA.REPUL.0>
0

>  <SCORE.INTRA.SOLV>
-3.70168

>  <SCORE.INTRA.SOLV.lig_0>
-80.8302

>  <SCORE.INTRA.VDW>
2.90938

>  <SCORE.INTRA.VDW.0>
-4.23953

>  <SCORE.INTRA.norm>
-0.126959

>  <SCORE.RESTR>
0.0525846

>  <SCORE.RESTR.CAVITY>
0.0525846

>  <SCORE.RESTR.norm>
0.00169628

>  <SCORE.SYSTEM>
0

>  <SCORE.SYSTEM.CONST>
0

>  <SCORE.SYSTEM.DIHEDRAL>
0

>  <SCORE.SYSTEM.SOLV>
0

>  <SCORE.SYSTEM.norm>
0

>  <SCORE.heavy>
31

>  <SCORE.norm>
-0.454287

>  <RMSD>
7.031

$$$$
2fcz_lig
 OpenBabel11021811433D
libRbt.so/2013.1/901 2013/11/27
 31 33  0  0  0  0  0  0  0  0999 V2000
    8.0142   13.9527   34.3622 C   0  0  0  0  0  0  0  0  0  0  0  0
   13.6790   18.8142   37.9394 N   0  0  0  0  0  0  0  0  0  0  0  0
    7.6785   12.5645   34.2873 O   0  0  0  0  0  0  0  0  0  0  0  0
    9.4387   14.1094   34.9052 C   0  0  1  0  0  0  0  0  0  0  0  0
   10.2079   17.6240   41.1769 N   0  0  0  0  0  0  0  0  0  0  0  0
    9.8537   15.4903   34.9227 O   0  0  0  0  0  0  0  0  0  0  0  0
    9.9022   15.9628   36.2836 C   0  0  1  0  0  0  0  0  0  0  0  0
    7.7124   14.2743   41.7091 N   0  0  0  0  0  0  0  0  0  0  0  0
    9.2963   17.2570   36.4422 O   0  0  0  0  0  0  0  0  0  0  0  0
    9.9604   18.1080   37.3917 C   0  0  2  0  0  0  0  0  0  0  0  0
    6.2517   19.0125   37.5917 N   0  0  0  0  0  0  0  0  0  0  0  0
   11.7618   18.6307   35.8635 O   0  0  0  0  0  0  0  0  0  0  0  0
   11.4727   18.0580   37.1412 C   0  0  1  0  0  0  0  0  0  0  0  0
    8.2588   17.9168   39.1614 O   0  0  0  0  0  0  0  0  0  0  0  0
   12.2361   18.8350   38.2163 C   0  0  1  0  0  0  0  0  0  0  0  0
    7.0927   15.8818   39.4287 O   0  0  0  0  0  0  0  0  0  0  0  0
   11.9704   18.2251   39.5943 C   0  0  0  0  0  0  0  0  0  0  0  0
    4.6400   17.2372   41.8193 O   0  0  0  0  0  0  0  0  0  0  0  0
   10.4726   18.3005   39.8972 C   0  0  1  0  0  0  0  0  0  0  0  0
    4.0889   18.7668   39.4508 O   0  0  0  0  0  0  0  0  0  0  0  0
    9.6227   17.6404   38.8060 C   0  0  2  0  0  0  0  0  0  0  0  0
    9.4445   14.8936   38.4659 O   0  0  0  0  0  0  0  0  0  0  0  0
    7.3098   17.0172   38.5704 C   0  0  1  0  0  0  0  0  0  0  0  0
   10.8550   13.2598   36.7078 O   0  0  0  0  0  0  0  0  0  0  0  0
    6.5466   16.2057   40.7190 C   0  0  2  0  0  0  0  0  0  0  0  0
    6.4015   14.9150   41.5291 C   0  0  0  0  0  0  0  0  0  0  0  0
    5.1813   16.8801   40.5438 C   0  0  2  0  0  0  0  0  0  0  0  0
    5.3528   18.1403   39.6930 C   0  0  1  0  0  0  0  0  0  0  0  0
    5.9998   17.7814   38.3534 C   0  0  1  0  0  0  0  0  0  0  0  0
    9.1106   14.9202   37.0747 C   0  0  2  0  0  0  0  0  0  0  0  0
    9.5209   13.6361   36.3564 C   0  0  1  0  0  0  0  0  0  0  0  0
  3  1  1  0  0  0  0
  4  1  1  1  0  0  0
  4  6  1  0  0  0  0
  4 31  1  0  0  0  0
  6  7  1  0  0  0  0
  7  9  1  6  0  0  0
  7 30  1  0  0  0  0
 10  9  1  6  0  0  0
 10 13  1  0  0  0  0
 10 21  1  0  0  0  0
 13 12  1  6  0  0  0
 13 15  1  0  0  0  0
 15  2  1  6  0  0  0
 15 17  1  0  0  0  0
 16 25  1  0  0  0  0
 17 19  1  0  0  0  0
 19  5  1  1  0  0  0
 19 21  1  0  0  0  0
 21 14  1  1  0  0  0
 23 14  1  1  0  0  0
 23 16  1  0  0  0  0
 23 29  1  0  0  0  0
 25 26  1  1  0  0  0
 25 27  1  0  0  0  0
 26  8  1  0  0  0  0
 27 18  1  1  0  0  0
 27 28  1  0  0  0  0
 28 20  1  6  0  0  0
 28 29  1  0  0  0  0
 29 11  1  1  0  0  0
 30 22  1  1  0  0  0
 30 31  1  0  0  0  0
 31 24  1  1  0  0  0
M  END
>  <CHROM.1>
176.47775666,-143.33610596,46.03165745,76.50734805,89.83619933,60.40649880
8.66940458,16.56497042,38.18378115,0.63289915,-0.41625560,-2.34999272

>  <Name>
2fcz_lig

>  <RI>
2.76032e+07

>  <Rbt.Current_Directory>
/home/itssahil/PROJECTS/Mol_Feturizer/New_Systems/rnas/2fcz

>  <Rbt.Executable>
rbdock ($Id: //depot/dev/client3/rdock/2013.1/src/exe/rbdock.cxx#4 $)

>  <Rbt.Library>
libRbt.so (2013.1, Build901 2013/11/27)

>  <Rbt.Parameter_File>
/export/apps/rDock/src/rDock_2013.1_src/data/scripts/dock_solv.prm

>  <Rbt.Receptor>
prm/pocket_docking_8.prm

>  <SCORE>
-12.7153

>  <SCORE.INTER>
-14.0899

>  <SCORE.INTER.CONST>
1

>  <SCORE.INTER.POLAR>
-2.72126

>  <SCORE.INTER.ROT>
6

>  <SCORE.INTER.SOLV>
15.0016

>  <SCORE.INTER.VDW>
-12.923

>  <SCORE.INTER.norm>
-0.454514

>  <SCORE.INTRA>
1.3746

>  <SCORE.INTRA.DIHEDRAL>
-0.167532

>  <SCORE.INTRA.DIHEDRAL.0>
10.8409

>  <SCORE.INTRA.POLAR>
0

>  <SCORE.INTRA.POLAR.0>
0

>  <SCORE.INTRA.REPUL>
0

>  <SCORE.INTRA.REPUL.0>
0

>  <SCORE.INTRA.SOLV>
-0.911619

>  <SCORE.INTRA.SOLV.lig_0>
-80.8302

>  <SCORE.INTRA.VDW>
1.91418

>  <SCORE.INTRA.VDW.0>
-4.23953

>  <SCORE.INTRA.norm>
0.0443421

>  <SCORE.RESTR>
0

>  <SCORE.RESTR.CAVITY>
0

>  <SCORE.RESTR.norm>
0

>  <SCORE.SYSTEM>
0

>  <SCORE.SYSTEM.CONST>
0

>  <SCORE.SYSTEM.DIHEDRAL>
0

>  <SCORE.SYSTEM.SOLV>
0

>  <SCORE.SYSTEM.norm>
0

>  <SCORE.heavy>
31

>  <SCORE.norm>
-0.410172

>  <RMSD>
7.039

$$$$
2fcz_lig
 OpenBabel11021811433D
libRbt.so/2013.1/901 2013/11/27
 31 33  0  0  0  0  0  0  0  0999 V2000
    9.9314   18.3150   40.4546 C   0  0  0  0  0  0  0  0  0  0  0  0
   13.6557   12.2257   35.8686 N   0  0  0  0  0  0  0  0  0  0  0  0
    9.2703   18.7577   39.2662 O   0  0  0  0  0  0  0  0  0  0  0  0
    9.9666   16.7832   40.4841 C   0  0  1  0  0  0  0  0  0  0  0  0
   14.5946   16.7596   34.2846 N   0  0  0  0  0  0  0  0  0  0  0  0
   10.6207   16.2424   39.3183 O   0  0  0  0  0  0  0  0  0  0  0  0
   11.9044   15.7032   39.6914 C   0  0  1  0  0  0  0  0  0  0  0  0
   17.0787   20.7550   35.6337 N   0  0  0  0  0  0  0  0  0  0  0  0
   12.9506   16.0846   38.7818 O   0  0  0  0  0  0  0  0  0  0  0  0
   12.7733   15.5988   37.4404 C   0  0  2  0  0  0  0  0  0  0  0  0
   10.8225   19.4249   37.0204 N   0  0  0  0  0  0  0  0  0  0  0  0
   12.4214   13.3192   38.1707 O   0  0  0  0  0  0  0  0  0  0  0  0
   13.2612   14.1468   37.3621 C   0  0  1  0  0  0  0  0  0  0  0  0
   12.9559   17.7909   36.3335 O   0  0  0  0  0  0  0  0  0  0  0  0
   13.2267   13.6301   35.9219 C   0  0  1  0  0  0  0  0  0  0  0  0
   14.4768   19.0394   37.6377 O   0  0  0  0  0  0  0  0  0  0  0  0
   14.1419   14.4789   35.0366 C   0  0  0  0  0  0  0  0  0  0  0  0
   14.6482   21.8742   35.2920 O   0  0  0  0  0  0  0  0  0  0  0  0
   13.6552   15.9293   35.0550 C   0  0  1  0  0  0  0  0  0  0  0  0
   11.8893   21.9138   36.0920 O   0  0  0  0  0  0  0  0  0  0  0  0
   13.5521   16.4921   36.4768 C   0  0  2  0  0  0  0  0  0  0  0  0
   13.1105   15.5338   41.8435 O   0  0  0  0  0  0  0  0  0  0  0  0
   13.1046   18.6299   37.4882 C   0  0  1  0  0  0  0  0  0  0  0  0
   10.3955   14.9540   42.0486 O   0  0  0  0  0  0  0  0  0  0  0  0
   14.9894   19.8175   36.5423 C   0  0  2  0  0  0  0  0  0  0  0  0
   16.4571   20.1510   36.8212 C   0  0  0  0  0  0  0  0  0  0  0  0
   14.1693   21.1046   36.3991 C   0  0  2  0  0  0  0  0  0  0  0  0
   12.7019   20.7380   36.1671 C   0  0  1  0  0  0  0  0  0  0  0  0
   12.1985   19.8522   37.3091 C   0  0  1  0  0  0  0  0  0  0  0  0
   12.1778   16.2985   41.0736 C   0  0  2  0  0  0  0  0  0  0  0  0
   10.7760   16.2824   41.6802 C   0  0  1  0  0  0  0  0  0  0  0  0
  3  1  1  0  0  0  0
  4  1  1  6  0  0  0
  4  6  1  0  0  0  0
  4 31  1  0  0  0  0
  6  7  1  0  0  0  0
  7  9  1  6  0  0  0
  7 30  1  0  0  0  0
 10  9  1  1  0  0  0
 10 13  1  0  0  0  0
 10 21  1  0  0  0  0
 13 12  1  1  0  0  0
 13 15  1  0  0  0  0
 15  2  1  1  0  0  0
 15 17  1  0  0  0  0
 16 25  1  0  0  0  0
 17 19  1  0  0  0  0
 19  5  1  6  0  0  0
 19 21  1  0  0  0  0
 21 14  1  6  0  0  0
 23 14  1  6  0  0  0
 23 16  1  0  0  0  0
 23 29  1  0  0  0  0
 25 26  1  1  0  0  0
 25 27  1  0  0  0  0
 26  8  1  0  0  0  0
 27 18  1  6  0  0  0
 27 28  1  0  0  0  0
 28 20  1  1  0  0  0
 28 29  1  0  0  0  0
 29 11  1  6  0  0  0
 30 22  1  1  0  0  0
 30 31  1  0  0  0  0
 31 24  1  6  0  0  0
M  END
>  <CHROM.1>
57.50079907,-62.90983796,-81.83493438,71.59449922,70.20580262,170.83426326
12.81224524,17.38809461,37.74169743,2.29747168,-0.90521969,3.09262530

>  <Name>
2fcz_lig

>  <RI>
2.76032e+07

>  <Rbt.Current_Directory>
/home/itssahil/PROJECTS/Mol_Feturizer/New_Systems/rnas/2fcz

>  <Rbt.Executable>
rbdock ($Id: //depot/dev/client3/rdock/2013.1/src/exe/rbdock.cxx#4 $)

>  <Rbt.Library>
libRbt.so (2013.1, Build901 2013/11/27)

>  <Rbt.Parameter_File>
/export/apps/rDock/src/rDock_2013.1_src/data/scripts/dock_solv.prm

>  <Rbt.Receptor>
prm/pocket_docking_8.prm

>  <SCORE>
-15.0989

>  <SCORE.INTER>
-12.164

>  <SCORE.INTER.CONST>
1

>  <SCORE.INTER.POLAR>
-1.81264

>  <SCORE.INTER.ROT>
6

>  <SCORE.INTER.SOLV>
10.5867

>  <SCORE.INTER.VDW>
-13.1961

>  <SCORE.INTER.norm>
-0.392387

>  <SCORE.INTRA>
-2.93794

>  <SCORE.INTRA.DIHEDRAL>
-7.09105

>  <SCORE.INTRA.DIHEDRAL.0>
10.8409

>  <SCORE.INTRA.POLAR>
0

>  <SCORE.INTRA.POLAR.0>
0

>  <SCORE.INTRA.REPUL>
0

>  <SCORE.INTRA.REPUL.0>
0

>  <SCORE.INTRA.SOLV>
-0.620659

>  <SCORE.INTRA.SOLV.lig_0>
-80.8302

>  <SCORE.INTRA.VDW>
0.917914

>  <SCORE.INTRA.VDW.0>
-4.23953

>  <SCORE.INTRA.norm>
-0.0947723

>  <SCORE.RESTR>
0.00300998

>  <SCORE.RESTR.CAVITY>
0.00300998

>  <SCORE.RESTR.norm>
9.70961e-05

>  <SCORE.SYSTEM>
0

>  <SCORE.SYSTEM.CONST>
0

>  <SCORE.SYSTEM.DIHEDRAL>
0

>  <SCORE.SYSTEM.SOLV>
0

>  <SCORE.SYSTEM.norm>
0

>  <SCORE.heavy>
31

>  <SCORE.norm>
-0.487063

>  <RMSD>
7.054

$$$$
2fcz_lig
 OpenBabel11021811433D
libRbt.so/2013.1/901 2013/11/27
 31 33  0  0  0  0  0  0  0  0999 V2000
   10.5576   23.0914   32.0033 C   0  0  0  0  0  0  0  0  0  0  0  0
   14.6238   16.0513   34.8963 N   0  0  0  0  0  0  0  0  0  0  0  0
    9.3895   23.8908   31.7991 O   0  0  0  0  0  0  0  0  0  0  0  0
   10.1479   21.6918   32.4742 C   0  0  1  0  0  0  0  0  0  0  0  0
   17.5643   19.4435   32.9487 N   0  0  0  0  0  0  0  0  0  0  0  0
   11.2767   20.7961   32.5298 O   0  0  0  0  0  0  0  0  0  0  0  0
   11.6147   20.5299   33.9055 C   0  0  1  0  0  0  0  0  0  0  0  0
   18.5159   23.3457   34.2833 N   0  0  0  0  0  0  0  0  0  0  0  0
   13.0287   20.6097   34.1536 O   0  0  0  0  0  0  0  0  0  0  0  0
   13.7923   19.5406   33.5697 C   0  0  2  0  0  0  0  0  0  0  0  0
   13.3384   22.0909   30.6437 N   0  0  0  0  0  0  0  0  0  0  0  0
   12.4368   17.8271   34.6090 O   0  0  0  0  0  0  0  0  0  0  0  0
   13.7709   18.3324   34.5141 C   0  0  1  0  0  0  0  0  0  0  0  0
   15.3014   20.9745   32.2542 O   0  0  0  0  0  0  0  0  0  0  0  0
   14.6876   17.2176   34.0048 C   0  0  1  0  0  0  0  0  0  0  0  0
   15.8703   23.0615   33.1994 O   0  0  0  0  0  0  0  0  0  0  0  0
   16.1305   17.7202   33.9217 C   0  0  0  0  0  0  0  0  0  0  0  0
   17.6569   24.2799   30.2176 O   0  0  0  0  0  0  0  0  0  0  0  0
   16.1969   18.8999   32.9498 C   0  0  1  0  0  0  0  0  0  0  0  0
   14.9755   23.9692   29.2343 O   0  0  0  0  0  0  0  0  0  0  0  0
   15.2215   20.0209   33.3252 C   0  0  2  0  0  0  0  0  0  0  0  0
   10.6569   21.2743   36.0603 O   0  0  0  0  0  0  0  0  0  0  0  0
   14.8190   22.2807   32.6010 C   0  0  1  0  0  0  0  0  0  0  0  0
    8.7301   20.6277   34.1580 O   0  0  0  0  0  0  0  0  0  0  0  0
   17.0004   23.2965   32.3416 C   0  0  2  0  0  0  0  0  0  0  0  0
   18.0449   24.1045   33.1155 C   0  0  0  0  0  0  0  0  0  0  0  0
   16.5478   24.0668   31.0961 C   0  0  2  0  0  0  0  0  0  0  0  0
   15.4727   23.2548   30.3705 C   0  0  1  0  0  0  0  0  0  0  0  0
   14.3125   22.9566   31.3229 C   0  0  1  0  0  0  0  0  0  0  0  0
   10.8888   21.6226   34.6919 C   0  0  2  0  0  0  0  0  0  0  0  0
    9.5899   21.7400   33.8966 C   0  0  1  0  0  0  0  0  0  0  0  0
  3  1  1  0  0  0  0
  4  1  1  1  0  0  0
  4  6  1  0  0  0  0
  4 31  1  0  0  0  0
  6  7  1  0  0  0  0
  7  9  1  6  0  0  0
  7 30  1  0  0  0  0
 10  9  1  1  0  0  0
 10 13  1  0  0  0  0
 10 21  1  0  0  0  0
 13 12  1  6  0  0  0
 13 15  1  0  0  0  0
 15  2  1  1  0  0  0
 15 17  1  0  0  0  0
 16 25  1  0  0  0  0
 17 19  1  0  0  0  0
 19  5  1  1  0  0  0
 19 21  1  0  0  0  0
 21 14  1  6  0  0  0
 23 14  1  6  0  0  0
 23 16  1  0  0  0  0
 23 29  1  0  0  0  0
 25 26  1  1  0  0  0
 25 27  1  0  0  0  0
 26  8  1  0  0  0  0
 27 18  1  6  0  0  0
 27 28  1  0  0  0  0
 28 20  1  6  0  0  0
 28 29  1  0  0  0  0
 29 11  1  6  0  0  0
 30 22  1  1  0  0  0
 30 31  1  0  0  0  0
 31 24  1  6  0  0  0
M  END
>  <CHROM.1>
172.59998734,-70.27379560,-84.25956450,74.83584948,86.61514355,61.91936301
13.89766290,21.27195113,32.93331931,2.64542717,-0.11023049,2.64104425

>  <Name>
2fcz_lig

>  <RI>
2.6968e+07

>  <Rbt.Current_Directory>
/home/itssahil/PROJECTS/Mol_Feturizer/New_Systems/rnas/2fcz

>  <Rbt.Executable>
rbdock ($Id: //depot/dev/client3/rdock/2013.1/src/exe/rbdock.cxx#4 $)

>  <Rbt.Library>
libRbt.so (2013.1, Build901 2013/11/27)

>  <Rbt.Parameter_File>
/export/apps/rDock/src/rDock_2013.1_src/data/scripts/dock_solv.prm

>  <Rbt.Receptor>
prm/blind_docking_60.prm

>  <SCORE>
-14.055

>  <SCORE.INTER>
-12.5057

>  <SCORE.INTER.CONST>
1

>  <SCORE.INTER.POLAR>
-1.22449

>  <SCORE.INTER.ROT>
6

>  <SCORE.INTER.SOLV>
13.1135

>  <SCORE.INTER.VDW>
-16.2267

>  <SCORE.INTER.norm>
-0.40341

>  <SCORE.INTRA>
-1.61337

>  <SCORE.INTRA.DIHEDRAL>
-3.47991

>  <SCORE.INTRA.DIHEDRAL.0>
10.8409

>  <SCORE.INTRA.POLAR>
0

>  <SCORE.INTRA.POLAR.0>
0

>  <SCORE.INTRA.REPUL>
0

>  <SCORE.INTRA.REPUL.0>
0

>  <SCORE.INTRA.SOLV>
-0.717822

>  <SCORE.INTRA.SOLV.lig_0>
-80.8302

>  <SCORE.INTRA.VDW>
0.485492

>  <SCORE.INTRA.VDW.0>
-4.23953

>  <SCORE.INTRA.norm>
-0.0520443

>  <SCORE.RESTR>
0.064107

>  <SCORE.RESTR.CAVITY>
0.064107

>  <SCORE.RESTR.norm>
0.00206797

>  <SCORE.SYSTEM>
0

>  <SCORE.SYSTEM.CONST>
0

>  <SCORE.SYSTEM.DIHEDRAL>
0

>  <SCORE.SYSTEM.SOLV>
0

>  <SCORE.SYSTEM.norm>
0

>  <SCORE.heavy>
31

>  <SCORE.norm>
-0.453386

>  <RMSD>
7.063

$$$$
2fcz_lig
 OpenBabel11021811433D
libRbt.so/2013.1/901 2013/11/27
 31 33  0  0  0  0  0  0  0  0999 V2000
    8.1378   19.2261   33.4295 C   0  0  0  0  0  0  0  0  0  0  0  0
   13.8217   12.6986   31.9703 N   0  0  0  0  0  0  0  0  0  0  0  0
    8.2473   20.5665   33.9161 O   0  0  0  0  0  0  0  0  0  0  0  0
    8.8623   19.1057   32.0845 C   0  0  1  0  0  0  0  0  0  0  0  0
   16.2379   16.6283   33.6032 N   0  0  0  0  0  0  0  0  0  0  0  0
   10.2762   18.8817   32.2587 O   0  0  0  0  0  0  0  0  0  0  0  0
   10.5981   17.5238   31.8979 C   0  0  1  0  0  0  0  0  0  0  0  0
   17.1461   22.2873   32.9324 N   0  0  0  0  0  0  0  0  0  0  0  0
   11.4683   16.8894   32.8505 O   0  0  0  0  0  0  0  0  0  0  0  0
   12.6630   16.3303   32.2785 C   0  0  2  0  0  0  0  0  0  0  0  0
   12.7487   18.7667   35.1002 N   0  0  0  0  0  0  0  0  0  0  0  0
   11.5341   14.3157   31.5571 O   0  0  0  0  0  0  0  0  0  0  0  0
   12.6004   14.8011   32.3766 C   0  0  1  0  0  0  0  0  0  0  0  0
   14.1134   18.2667   32.7378 O   0  0  0  0  0  0  0  0  0  0  0  0
   13.9119   14.1641   31.9113 C   0  0  1  0  0  0  0  0  0  0  0  0
   15.7556   19.8952   33.2110 O   0  0  0  0  0  0  0  0  0  0  0  0
   15.0695   14.6416   32.7908 C   0  0  0  0  0  0  0  0  0  0  0  0
   13.5730   22.7674   32.4664 O   0  0  0  0  0  0  0  0  0  0  0  0
   15.1903   16.1629   32.6806 C   0  0  1  0  0  0  0  0  0  0  0  0
   12.2400   21.5558   34.7043 O   0  0  0  0  0  0  0  0  0  0  0  0
   13.8790   16.8786   33.0227 C   0  0  2  0  0  0  0  0  0  0  0  0
    9.2478   15.6253   31.0688 O   0  0  0  0  0  0  0  0  0  0  0  0
   14.8152   18.9636   33.7775 C   0  0  1  0  0  0  0  0  0  0  0  0
    8.5744   18.0578   29.8944 O   0  0  0  0  0  0  0  0  0  0  0  0
   15.1605   20.9273   32.4057 C   0  0  2  0  0  0  0  0  0  0  0  0
   16.2735   21.8171   31.8467 C   0  0  0  0  0  0  0  0  0  0  0  0
   14.1971   21.7558   33.2630 C   0  0  2  0  0  0  0  0  0  0  0  0
   13.1247   20.8315   33.8433 C   0  0  1  0  0  0  0  0  0  0  0  0
   13.7839   19.7013   34.6372 C   0  0  1  0  0  0  0  0  0  0  0  0
    9.2467   16.8079   31.8745 C   0  0  2  0  0  0  0  0  0  0  0  0
    8.3482   17.9002   31.2976 C   0  0  1  0  0  0  0  0  0  0  0  0
  3  1  1  0  0  0  0
  4  1  1  1  0  0  0
  4  6  1  0  0  0  0
  4 31  1  0  0  0  0
  6  7  1  0  0  0  0
  7  9  1  1  0  0  0
  7 30  1  0  0  0  0
 10  9  1  1  0  0  0
 10 13  1  0  0  0  0
 10 21  1  0  0  0  0
 13 12  1  6  0  0  0
 13 15  1  0  0  0  0
 15  2  1  1  0  0  0
 15 17  1  0  0  0  0
 16 25  1  0  0  0  0
 17 19  1  0  0  0  0
 19  5  1  1  0  0  0
 19 21  1  0  0  0  0
 21 14  1  6  0  0  0
 23 14  1  6  0  0  0
 23 16  1  0  0  0  0
 23 29  1  0  0  0  0
 25 26  1  1  0  0  0
 25 27  1  0  0  0  0
 26  8  1  0  0  0  0
 27 18  1  6  0  0  0
 27 28  1  0  0  0  0
 28 20  1  1  0  0  0
 28 29  1  0  0  0  0
 29 11  1  6  0  0  0
 30 22  1  6  0  0  0
 30 31  1  0  0  0  0
 31 24  1  6  0  0  0
M  END
>  <CHROM.1>
83.77947217,-125.88670788,-112.00738794,154.41123081,141.29210545,-52.44417098
12.55831582,18.24570512,32.69010041,2.36082881,0.12956231,-2.97039866

>  <Name>
2fcz_lig

>  <RI>
0

>  <Rbt.Current_Directory>
/home/itssahil/PROJECTS/Mol_Feturizer/New_Systems/rnas/2fcz

>  <Rbt.Executable>
rbdock ($Id: //depot/dev/client3/rdock/2013.1/src/exe/rbdock.cxx#4 $)

>  <Rbt.Library>
libRbt.so (2013.1, Build901 2013/11/27)

>  <Rbt.Parameter_File>
/export/apps/rDock/src/rDock_2013.1_src/data/scripts/dock_solv.prm

>  <Rbt.Receptor>
prm/blind_docking_80.prm

>  <SCORE>
-10.9516

>  <SCORE.INTER>
-19.032

>  <SCORE.INTER.CONST>
1

>  <SCORE.INTER.POLAR>
-0.959166

>  <SCORE.INTER.ROT>
6

>  <SCORE.INTER.SOLV>
13.2113

>  <SCORE.INTER.VDW>
-21.4945

>  <SCORE.INTER.norm>
-0.613935

>  <SCORE.INTRA>
8.06138

>  <SCORE.INTRA.DIHEDRAL>
13.0109

>  <SCORE.INTRA.DIHEDRAL.0>
10.8409

>  <SCORE.INTRA.POLAR>
0

>  <SCORE.INTRA.POLAR.0>
0

>  <SCORE.INTRA.REPUL>
0

>  <SCORE.INTRA.REPUL.0>
0

>  <SCORE.INTRA.SOLV>
1.17535

>  <SCORE.INTRA.SOLV.lig_0>
-80.8302

>  <SCORE.INTRA.VDW>
0.968246

>  <SCORE.INTRA.VDW.0>
-4.23953

>  <SCORE.INTRA.norm>
0.260045

>  <SCORE.RESTR>
0.0189837

>  <SCORE.RESTR.CAVITY>
0.0189837

>  <SCORE.RESTR.norm>
0.000612378

>  <SCORE.SYSTEM>
0

>  <SCORE.SYSTEM.CONST>
0

>  <SCORE.SYSTEM.DIHEDRAL>
0

>  <SCORE.SYSTEM.SOLV>
0

>  <SCORE.SYSTEM.norm>
0

>  <SCORE.heavy>
31

>  <SCORE.norm>
-0.353278

>  <RMSD>
7.066

$$$$
2fcz_lig
 OpenBabel11021811433D
libRbt.so/2013.1/901 2013/11/27
 31 33  0  0  0  0  0  0  0  0999 V2000
   15.0982   22.9481   36.3644 C   0  0  0  0  0  0  0  0  0  0  0  0
    8.2456   20.8974   31.9745 N   0  0  0  0  0  0  0  0  0  0  0  0
   15.0186   24.1460   37.1417 O   0  0  0  0  0  0  0  0  0  0  0  0
   14.5231   21.7752   37.1658 C   0  0  1  0  0  0  0  0  0  0  0  0
    8.2776   17.6470   35.6326 N   0  0  0  0  0  0  0  0  0  0  0  0
   13.0895   21.8676   37.2919 O   0  0  0  0  0  0  0  0  0  0  0  0
   12.4666   20.8599   36.4706 C   0  0  1  0  0  0  0  0  0  0  0  0
   10.2050   13.6148   37.3778 N   0  0  0  0  0  0  0  0  0  0  0  0
   11.3595   21.3725   35.7098 O   0  0  0  0  0  0  0  0  0  0  0  0
   10.7749   20.4219   34.8035 C   0  0  2  0  0  0  0  0  0  0  0  0
   11.2350   19.3515   38.9469 N   0  0  0  0  0  0  0  0  0  0  0  0
   10.6294   22.0295   33.0013 O   0  0  0  0  0  0  0  0  0  0  0  0
    9.8509   21.1598   33.8268 C   0  0  1  0  0  0  0  0  0  0  0  0
   10.8730   18.4950   36.3338 O   0  0  0  0  0  0  0  0  0  0  0  0
    9.0936   20.1751   32.9328 C   0  0  1  0  0  0  0  0  0  0  0  0
   10.1203   16.3648   37.0180 O   0  0  0  0  0  0  0  0  0  0  0  0
    8.2258   19.2489   33.7877 C   0  0  0  0  0  0  0  0  0  0  0  0
   13.4616   15.1427   37.9718 O   0  0  0  0  0  0  0  0  0  0  0  0
    9.1227   18.4613   34.7448 C   0  0  1  0  0  0  0  0  0  0  0  0
   13.0688   17.3250   39.7984 O   0  0  0  0  0  0  0  0  0  0  0  0
   10.0031   19.3749   35.6044 C   0  0  2  0  0  0  0  0  0  0  0  0
   13.3581   19.0960   34.9846 O   0  0  0  0  0  0  0  0  0  0  0  0
   10.2150   17.7567   37.3736 C   0  0  1  0  0  0  0  0  0  0  0  0
   14.7712   19.3515   37.3694 O   0  0  0  0  0  0  0  0  0  0  0  0
   11.3869   15.7080   36.8379 C   0  0  2  0  0  0  0  0  0  0  0  0
   11.1329   14.2537   36.4334 C   0  0  0  0  0  0  0  0  0  0  0  0
   12.1848   15.7649   38.1454 C   0  0  2  0  0  0  0  0  0  0  0  0
   12.3823   17.2283   38.5463 C   0  0  1  0  0  0  0  0  0  0  0  0
   11.0247   17.9250   38.6632 C   0  0  1  0  0  0  0  0  0  0  0  0
   13.5778   20.4029   35.5241 C   0  0  2  0  0  0  0  0  0  0  0  0
   14.7894   20.4493   36.4532 C   0  0  1  0  0  0  0  0  0  0  0  0
  3  1  1  0  0  0  0
  4  1  1  6  0  0  0
  4  6  1  0  0  0  0
  4 31  1  0  0  0  0
  6  7  1  0  0  0  0
  7  9  1  6  0  0  0
  7 30  1  0  0  0  0
 10  9  1  1  0  0  0
 10 13  1  0  0  0  0
 10 21  1  0  0  0  0
 13 12  1  6  0  0  0
 13 15  1  0  0  0  0
 15  2  1  6  0  0  0
 15 17  1  0  0  0  0
 16 25  1  0  0  0  0
 17 19  1  0  0  0  0
 19  5  1  1  0  0  0
 19 21  1  0  0  0  0
 21 14  1  6  0  0  0
 23 14  1  6  0  0  0
 23 16  1  0  0  0  0
 23 29  1  0  0  0  0
 25 26  1  1  0  0  0
 25 27  1  0  0  0  0
 26  8  1  0  0  0  0
 27 18  1  6  0  0  0
 27 28  1  0  0  0  0
 28 20  1  1  0  0  0
 28 29  1  0  0  0  0
 29 11  1  6  0  0  0
 30 22  1  1  0  0  0
 30 31  1  0  0  0  0
 31 24  1  1  0  0  0
M  END
>  <CHROM.1>
71.29104886,175.60218842,-166.54545035,163.36769234,109.47673926,-51.77357656
11.64527763,19.07156537,36.28474991,-1.27192006,0.62071378,2.65498903

>  <Name>
2fcz_lig

>  <RI>
2.76032e+07

>  <Rbt.Current_Directory>
/home/itssahil/PROJECTS/Mol_Feturizer/New_Systems/rnas/2fcz

>  <Rbt.Executable>
rbdock ($Id: //depot/dev/client3/rdock/2013.1/src/exe/rbdock.cxx#4 $)

>  <Rbt.Library>
libRbt.so (2013.1, Build901 2013/11/27)

>  <Rbt.Parameter_File>
/export/apps/rDock/src/rDock_2013.1_src/data/scripts/dock_solv.prm

>  <Rbt.Receptor>
prm/pocket_docking_8.prm

>  <SCORE>
-8.81643

>  <SCORE.INTER>
-11.8277

>  <SCORE.INTER.CONST>
1

>  <SCORE.INTER.POLAR>
-2.23538

>  <SCORE.INTER.ROT>
6

>  <SCORE.INTER.SOLV>
11.6166

>  <SCORE.INTER.VDW>
-11.9061

>  <SCORE.INTER.norm>
-0.38154

>  <SCORE.INTRA>
3.01131

>  <SCORE.INTRA.DIHEDRAL>
-1.12411

>  <SCORE.INTRA.DIHEDRAL.0>
10.8409

>  <SCORE.INTRA.POLAR>
0

>  <SCORE.INTRA.POLAR.0>
0

>  <SCORE.INTRA.REPUL>
0

>  <SCORE.INTRA.REPUL.0>
0

>  <SCORE.INTRA.SOLV>
2.72272

>  <SCORE.INTRA.SOLV.lig_0>
-80.8302

>  <SCORE.INTRA.VDW>
2.21201

>  <SCORE.INTRA.VDW.0>
-4.23953

>  <SCORE.INTRA.norm>
0.0971392

>  <SCORE.RESTR>
0

>  <SCORE.RESTR.CAVITY>
0

>  <SCORE.RESTR.norm>
0

>  <SCORE.SYSTEM>
0

>  <SCORE.SYSTEM.CONST>
0

>  <SCORE.SYSTEM.DIHEDRAL>
0

>  <SCORE.SYSTEM.SOLV>
0

>  <SCORE.SYSTEM.norm>
0

>  <SCORE.heavy>
31

>  <SCORE.norm>
-0.284401

>  <RMSD>
7.079

$$$$
2fcz_lig
 OpenBabel11021811433D
libRbt.so/2013.1/901 2013/11/27
 31 33  0  0  0  0  0  0  0  0999 V2000
   11.3577   21.7362   32.1634 C   0  0  0  0  0  0  0  0  0  0  0  0
   10.5781   15.1079   31.7025 N   0  0  0  0  0  0  0  0  0  0  0  0
   10.9748   23.0635   31.7931 O   0  0  0  0  0  0  0  0  0  0  0  0
   10.1146   20.9349   32.5651 C   0  0  1  0  0  0  0  0  0  0  0  0
    8.7150   14.8969   36.2227 N   0  0  0  0  0  0  0  0  0  0  0  0
   10.4468   19.5766   32.9176 O   0  0  0  0  0  0  0  0  0  0  0  0
   10.3112   19.4003   34.3418 C   0  0  1  0  0  0  0  0  0  0  0  0
    6.6972   18.8075   37.7546 N   0  0  0  0  0  0  0  0  0  0  0  0
   11.4187   18.6884   34.9195 O   0  0  0  0  0  0  0  0  0  0  0  0
   11.3464   17.2604   34.7690 C   0  0  2  0  0  0  0  0  0  0  0  0
   12.8813   17.3878   38.5775 N   0  0  0  0  0  0  0  0  0  0  0  0
   12.1521   17.3268   32.4886 O   0  0  0  0  0  0  0  0  0  0  0  0
   11.0484   16.9231   33.3028 C   0  0  1  0  0  0  0  0  0  0  0  0
   10.6293   16.7823   37.0757 O   0  0  0  0  0  0  0  0  0  0  0  0
   10.8198   15.4211   33.1177 C   0  0  1  0  0  0  0  0  0  0  0  0
    9.4552   18.6702   37.8694 O   0  0  0  0  0  0  0  0  0  0  0  0
    9.6231   14.9643   33.9548 C   0  0  0  0  0  0  0  0  0  0  0  0
    8.7933   17.2496   41.2029 O   0  0  0  0  0  0  0  0  0  0  0  0
    9.9064   15.2446   35.4319 C   0  0  1  0  0  0  0  0  0  0  0  0
   11.6618   17.4046   41.1673 O   0  0  0  0  0  0  0  0  0  0  0  0
   10.2574   16.7139   35.6901 C   0  0  2  0  0  0  0  0  0  0  0  0
    9.6371   20.9112   36.1797 O   0  0  0  0  0  0  0  0  0  0  0  0
   10.7538   18.1203   37.5793 C   0  0  1  0  0  0  0  0  0  0  0  0
    8.0764   21.1884   33.8913 O   0  0  0  0  0  0  0  0  0  0  0  0
    8.7184   17.9585   38.8787 C   0  0  2  0  0  0  0  0  0  0  0  0
    7.3550   18.6310   39.0575 C   0  0  0  0  0  0  0  0  0  0  0  0
    9.5001   17.9819   40.1970 C   0  0  2  0  0  0  0  0  0  0  0  0
   10.8734   17.3449   39.9743 C   0  0  1  0  0  0  0  0  0  0  0  0
   11.6104   18.0741   38.8486 C   0  0  1  0  0  0  0  0  0  0  0  0
   10.2653   20.8248   34.8969 C   0  0  2  0  0  0  0  0  0  0  0  0
    9.4613   21.5354   33.8098 C   0  0  1  0  0  0  0  0  0  0  0  0
  3  1  1  0  0  0  0
  4  1  1  1  0  0  0
  4  6  1  0  0  0  0
  4 31  1  0  0  0  0
  6  7  1  0  0  0  0
  7  9  1  1  0  0  0
  7 30  1  0  0  0  0
 10  9  1  6  0  0  0
 10 13  1  0  0  0  0
 10 21  1  0  0  0  0
 13 12  1  6  0  0  0
 13 15  1  0  0  0  0
 15  2  1  6  0  0  0
 15 17  1  0  0  0  0
 16 25  1  0  0  0  0
 17 19  1  0  0  0  0
 19  5  1  1  0  0  0
 19 21  1  0  0  0  0
 21 14  1  1  0  0  0
 23 14  1  1  0  0  0
 23 16  1  0  0  0  0
 23 29  1  0  0  0  0
 25 26  1  1  0  0  0
 25 27  1  0  0  0  0
 26  8  1  0  0  0  0
 27 18  1  1  0  0  0
 27 28  1  0  0  0  0
 28 20  1  1  0  0  0
 28 29  1  0  0  0  0
 29 11  1  6  0  0  0
 30 22  1  1  0  0  0
 30 31  1  0  0  0  0
 31 24  1  1  0  0  0
M  END
>  <CHROM.1>
178.63501794,-80.73719182,49.45662569,66.43917401,79.08177339,50.59111818
10.17644642,18.30395516,35.88260153,1.12660644,1.33720452,-0.79945918

>  <Name>
2fcz_lig

>  <RI>
0

>  <Rbt.Current_Directory>
/home/itssahil/PROJECTS/Mol_Feturizer/New_Systems/rnas/2fcz

>  <Rbt.Executable>
rbdock ($Id: //depot/dev/client3/rdock/2013.1/src/exe/rbdock.cxx#4 $)

>  <Rbt.Library>
libRbt.so (2013.1, Build901 2013/11/27)

>  <Rbt.Parameter_File>
/export/apps/rDock/src/rDock_2013.1_src/data/scripts/dock_solv.prm

>  <Rbt.Receptor>
prm/pocket_docking_6.prm

>  <SCORE>
-17.013

>  <SCORE.INTER>
-15.3963

>  <SCORE.INTER.CONST>
1

>  <SCORE.INTER.POLAR>
-3.00196

>  <SCORE.INTER.ROT>
6

>  <SCORE.INTER.SOLV>
17.0281

>  <SCORE.INTER.VDW>
-13.5337

>  <SCORE.INTER.norm>
-0.496655

>  <SCORE.INTRA>
-1.6239

>  <SCORE.INTRA.DIHEDRAL>
-6.09212

>  <SCORE.INTRA.DIHEDRAL.0>
10.8409

>  <SCORE.INTRA.POLAR>
0

>  <SCORE.INTRA.POLAR.0>
0

>  <SCORE.INTRA.REPUL>
0.0419057

>  <SCORE.INTRA.REPUL.0>
0

>  <SCORE.INTRA.SOLV>
-2.53582

>  <SCORE.INTRA.SOLV.lig_0>
-80.8302

>  <SCORE.INTRA.VDW>
2.48054

>  <SCORE.INTRA.VDW.0>
-4.23953

>  <SCORE.INTRA.norm>
-0.0523839

>  <SCORE.RESTR>
0.00722687

>  <SCORE.RESTR.CAVITY>
0.00722687

>  <SCORE.RESTR.norm>
0.000233125

>  <SCORE.SYSTEM>
0

>  <SCORE.SYSTEM.CONST>
0

>  <SCORE.SYSTEM.DIHEDRAL>
0

>  <SCORE.SYSTEM.SOLV>
0

>  <SCORE.SYSTEM.norm>
0

>  <SCORE.heavy>
31

>  <SCORE.norm>
-0.548806

>  <RMSD>
7.101

$$$$
2fcz_lig
 OpenBabel11021811433D
libRbt.so/2013.1/901 2013/11/27
 31 33  0  0  0  0  0  0  0  0999 V2000
    9.5275   20.7661   35.0514 C   0  0  0  0  0  0  0  0  0  0  0  0
   15.2107   23.8987   29.0390 N   0  0  0  0  0  0  0  0  0  0  0  0
   10.3698   20.8512   36.2041 O   0  0  0  0  0  0  0  0  0  0  0  0
    9.6262   22.0653   34.2445 C   0  0  1  0  0  0  0  0  0  0  0  0
   17.2004   21.2426   32.6353 N   0  0  0  0  0  0  0  0  0  0  0  0
   10.9902   22.3694   33.8884 O   0  0  0  0  0  0  0  0  0  0  0  0
   11.1793   22.1563   32.4753 C   0  0  1  0  0  0  0  0  0  0  0  0
   14.1891   16.2805   33.3842 N   0  0  0  0  0  0  0  0  0  0  0  0
   12.3902   21.4393   32.1808 O   0  0  0  0  0  0  0  0  0  0  0  0
   13.5592   22.2702   32.0799 C   0  0  2  0  0  0  0  0  0  0  0  0
   14.0120   21.3323   36.6890 N   0  0  0  0  0  0  0  0  0  0  0  0
   12.6634   23.5332   30.2208 O   0  0  0  0  0  0  0  0  0  0  0  0
   13.7507   22.6943   30.6185 C   0  0  1  0  0  0  0  0  0  0  0  0
   14.7420   21.3074   34.0132 O   0  0  0  0  0  0  0  0  0  0  0  0
   15.0617   23.4623   30.4341 C   0  0  1  0  0  0  0  0  0  0  0  0
   13.9347   19.1115   33.6979 O   0  0  0  0  0  0  0  0  0  0  0  0
   16.2483   22.5779   30.8234 C   0  0  0  0  0  0  0  0  0  0  0  0
   16.7299   17.4924   35.4679 O   0  0  0  0  0  0  0  0  0  0  0  0
   16.1130   22.1729   32.2926 C   0  0  1  0  0  0  0  0  0  0  0  0
   15.5147   19.0534   37.5511 O   0  0  0  0  0  0  0  0  0  0  0  0
   14.7717   21.4935   32.5894 C   0  0  2  0  0  0  0  0  0  0  0  0
    9.6740   21.4221   30.6560 O   0  0  0  0  0  0  0  0  0  0  0  0
   13.7883   20.3291   34.4523 C   0  0  1  0  0  0  0  0  0  0  0  0
    8.4852   23.2208   32.4169 O   0  0  0  0  0  0  0  0  0  0  0  0
   15.2158   18.4735   33.8387 C   0  0  2  0  0  0  0  0  0  0  0  0
   15.2388   17.2192   32.9617 C   0  0  0  0  0  0  0  0  0  0  0  0
   15.4444   18.0999   35.3076 C   0  0  2  0  0  0  0  0  0  0  0  0
   15.3702   19.3670   36.1621 C   0  0  1  0  0  0  0  0  0  0  0  0
   14.0268   20.0664   35.9427 C   0  0  1  0  0  0  0  0  0  0  0  0
    9.9684   21.3228   32.0528 C   0  0  2  0  0  0  0  0  0  0  0  0
    8.8729   21.9397   32.9203 C   0  0  1  0  0  0  0  0  0  0  0  0
  3  1  1  0  0  0  0
  4  1  1  6  0  0  0
  4  6  1  0  0  0  0
  4 31  1  0  0  0  0
  6  7  1  0  0  0  0
  7  9  1  1  0  0  0
  7 30  1  0  0  0  0
 10  9  1  6  0  0  0
 10 13  1  0  0  0  0
 10 21  1  0  0  0  0
 13 12  1  1  0  0  0
 13 15  1  0  0  0  0
 15  2  1  6  0  0  0
 15 17  1  0  0  0  0
 16 25  1  0  0  0  0
 17 19  1  0  0  0  0
 19  5  1  6  0  0  0
 19 21  1  0  0  0  0
 21 14  1  1  0  0  0
 23 14  1  6  0  0  0
 23 16  1  0  0  0  0
 23 29  1  0  0  0  0
 25 26  1  6  0  0  0
 25 27  1  0  0  0  0
 26  8  1  0  0  0  0
 27 18  1  6  0  0  0
 27 28  1  0  0  0  0
 28 20  1  1  0  0  0
 28 29  1  0  0  0  0
 29 11  1  1  0  0  0
 30 22  1  6  0  0  0
 30 31  1  0  0  0  0
 31 24  1  6  0  0  0
M  END
>  <CHROM.1>
55.57515663,-85.35323506,-91.83409916,74.00604207,49.77638410,-60.57915709
13.31477914,20.93207259,33.31638078,2.38044358,0.22802491,-0.91656929

>  <Name>
2fcz_lig

>  <RI>
0

>  <Rbt.Current_Directory>
/home/itssahil/PROJECTS/Mol_Feturizer/New_Systems/rnas/2fcz

>  <Rbt.Executable>
rbdock ($Id: //depot/dev/client3/rdock/2013.1/src/exe/rbdock.cxx#4 $)

>  <Rbt.Library>
libRbt.so (2013.1, Build901 2013/11/27)

>  <Rbt.Parameter_File>
/export/apps/rDock/src/rDock_2013.1_src/data/scripts/dock_solv.prm

>  <Rbt.Receptor>
prm/blind_docking_80.prm

>  <SCORE>
-15.4103

>  <SCORE.INTER>
-14.0881

>  <SCORE.INTER.CONST>
1

>  <SCORE.INTER.POLAR>
-1.64397

>  <SCORE.INTER.ROT>
6

>  <SCORE.INTER.SOLV>
17.0695

>  <SCORE.INTER.VDW>
-17.202

>  <SCORE.INTER.norm>
-0.454455

>  <SCORE.INTRA>
-1.32223

>  <SCORE.INTRA.DIHEDRAL>
-2.58272

>  <SCORE.INTRA.DIHEDRAL.0>
10.8409

>  <SCORE.INTRA.POLAR>
0

>  <SCORE.INTRA.POLAR.0>
0

>  <SCORE.INTRA.REPUL>
0

>  <SCORE.INTRA.REPUL.0>
0

>  <SCORE.INTRA.SOLV>
-1.20622

>  <SCORE.INTRA.SOLV.lig_0>
-80.8302

>  <SCORE.INTRA.VDW>
0.572244

>  <SCORE.INTRA.VDW.0>
-4.23953

>  <SCORE.INTRA.norm>
-0.0426524

>  <SCORE.RESTR>
0

>  <SCORE.RESTR.CAVITY>
0

>  <SCORE.RESTR.norm>
0

>  <SCORE.SYSTEM>
0

>  <SCORE.SYSTEM.CONST>
0

>  <SCORE.SYSTEM.DIHEDRAL>
0

>  <SCORE.SYSTEM.SOLV>
0

>  <SCORE.SYSTEM.norm>
0

>  <SCORE.heavy>
31

>  <SCORE.norm>
-0.497107

>  <RMSD>
7.111

$$$$
2fcz_lig
 OpenBabel11021811433D
libRbt.so/2013.1/901 2013/11/27
 31 33  0  0  0  0  0  0  0  0999 V2000
    6.8947   19.9392   29.3841 C   0  0  0  0  0  0  0  0  0  0  0  0
   11.4701   22.9434   26.5012 N   0  0  0  0  0  0  0  0  0  0  0  0
    6.6081   21.0586   30.2269 O   0  0  0  0  0  0  0  0  0  0  0  0
    8.3018   19.4133   29.6874 C   0  0  1  0  0  0  0  0  0  0  0  0
   14.5994   21.9685   30.1350 N   0  0  0  0  0  0  0  0  0  0  0  0
    9.2962   20.4507   29.5670 O   0  0  0  0  0  0  0  0  0  0  0  0
    9.7764   20.8138   30.8768 C   0  0  1  0  0  0  0  0  0  0  0  0
   16.5200   24.9727   32.3548 N   0  0  0  0  0  0  0  0  0  0  0  0
    9.8607   22.2373   31.0605 O   0  0  0  0  0  0  0  0  0  0  0  0
   10.8869   22.8740   30.2804 C   0  0  2  0  0  0  0  0  0  0  0  0
   11.8244   20.8181   33.8035 N   0  0  0  0  0  0  0  0  0  0  0  0
    9.4042   23.2708   28.4101 O   0  0  0  0  0  0  0  0  0  0  0  0
   10.6185   22.6198   28.7919 C   0  0  1  0  0  0  0  0  0  0  0  0
   12.6431   22.7626   32.0030 O   0  0  0  0  0  0  0  0  0  0  0  0
   11.7610   23.1556   27.9258 C   0  0  1  0  0  0  0  0  0  0  0  0
   14.8709   22.7046   32.7817 O   0  0  0  0  0  0  0  0  0  0  0  0
   13.0711   22.4540   28.2909 C   0  0  0  0  0  0  0  0  0  0  0  0
   14.1601   24.5279   35.9023 O   0  0  0  0  0  0  0  0  0  0  0  0
   13.3940   22.7255   29.7615 C   0  0  1  0  0  0  0  0  0  0  0  0
   12.5929   22.1416   36.2227 O   0  0  0  0  0  0  0  0  0  0  0  0
   12.2484   22.3194   30.6951 C   0  0  2  0  0  0  0  0  0  0  0  0
    9.2465   20.0167   33.1569 O   0  0  0  0  0  0  0  0  0  0  0  0
   13.6569   21.9494   32.6114 C   0  0  1  0  0  0  0  0  0  0  0  0
    9.4501   17.9643   31.2872 O   0  0  0  0  0  0  0  0  0  0  0  0
   14.7447   23.8499   33.6421 C   0  0  2  0  0  0  0  0  0  0  0  0
   16.0943   24.5696   33.7030 C   0  0  0  0  0  0  0  0  0  0  0  0
   14.3207   23.3950   35.0431 C   0  0  2  0  0  0  0  0  0  0  0  0
   12.9932   22.6406   34.9424 C   0  0  1  0  0  0  0  0  0  0  0  0
   13.1318   21.4687   33.9680 C   0  0  1  0  0  0  0  0  0  0  0  0
    8.7386   20.2287   31.8360 C   0  0  2  0  0  0  0  0  0  0  0  0
    8.3960   18.9179   31.1305 C   0  0  1  0  0  0  0  0  0  0  0  0
  3  1  1  0  0  0  0
  4  1  1  1  0  0  0
  4  6  1  0  0  0  0
  4 31  1  0  0  0  0
  6  7  1  0  0  0  0
  7  9  1  6  0  0  0
  7 30  1  0  0  0  0
 10  9  1  1  0  0  0
 10 13  1  0  0  0  0
 10 21  1  0  0  0  0
 13 12  1  6  0  0  0
 13 15  1  0  0  0  0
 15  2  1  6  0  0  0
 15 17  1  0  0  0  0
 16 25  1  0  0  0  0
 17 19  1  0  0  0  0
 19  5  1  1  0  0  0
 19 21  1  0  0  0  0
 21 14  1  1  0  0  0
 23 14  1  1  0  0  0
 23 16  1  0  0  0  0
 23 29  1  0  0  0  0
 25 26  1  1  0  0  0
 25 27  1  0  0  0  0
 26  8  1  0  0  0  0
 27 18  1  1  0  0  0
 27 28  1  0  0  0  0
 28 20  1  1  0  0  0
 28 29  1  0  0  0  0
 29 11  1  6  0  0  0
 30 22  1  1  0  0  0
 30 31  1  0  0  0  0
 31 24  1  6  0  0  0
M  END
>  <CHROM.1>
-55.16954205,-68.96829464,59.79233659,160.38229828,114.83793892,58.24795856
11.62601907,21.96440562,31.50841831,2.68546210,-0.56224308,-1.35581060

>  <Name>
2fcz_lig

>  <RI>
0

>  <Rbt.Current_Directory>
/home/itssahil/PROJECTS/Mol_Feturizer/New_Systems/rnas/2fcz

>  <Rbt.Executable>
rbdock ($Id: //depot/dev/client3/rdock/2013.1/src/exe/rbdock.cxx#4 $)

>  <Rbt.Library>
libRbt.so (2013.1, Build901 2013/11/27)

>  <Rbt.Parameter_File>
/export/apps/rDock/src/rDock_2013.1_src/data/scripts/dock_solv.prm

>  <Rbt.Receptor>
prm/pocket_docking_6.prm

>  <SCORE>
-10.2205

>  <SCORE.INTER>
-14.0575

>  <SCORE.INTER.CONST>
1

>  <SCORE.INTER.POLAR>
0

>  <SCORE.INTER.ROT>
6

>  <SCORE.INTER.SOLV>
14.5262

>  <SCORE.INTER.VDW>
-21.8137

>  <SCORE.INTER.norm>
-0.453467

>  <SCORE.INTRA>
3.83693

>  <SCORE.INTRA.DIHEDRAL>
-1.43557

>  <SCORE.INTRA.DIHEDRAL.0>
10.8409

>  <SCORE.INTRA.POLAR>
0

>  <SCORE.INTRA.POLAR.0>
0

>  <SCORE.INTRA.REPUL>
0.00418748

>  <SCORE.INTRA.REPUL.0>
0

>  <SCORE.INTRA.SOLV>
1.85467

>  <SCORE.INTRA.SOLV.lig_0>
-80.8302

>  <SCORE.INTRA.VDW>
3.60644

>  <SCORE.INTRA.VDW.0>
-4.23953

>  <SCORE.INTRA.norm>
0.123772

>  <SCORE.RESTR>
0

>  <SCORE.RESTR.CAVITY>
0

>  <SCORE.RESTR.norm>
0

>  <SCORE.SYSTEM>
0

>  <SCORE.SYSTEM.CONST>
0

>  <SCORE.SYSTEM.DIHEDRAL>
0

>  <SCORE.SYSTEM.SOLV>
0

>  <SCORE.SYSTEM.norm>
0

>  <SCORE.heavy>
31

>  <SCORE.norm>
-0.329695

>  <RMSD>
7.111

$$$$
2fcz_lig
 OpenBabel11021811433D
libRbt.so/2013.1/901 2013/11/27
 31 33  0  0  0  0  0  0  0  0999 V2000
    9.0896   22.1384   30.1866 C   0  0  0  0  0  0  0  0  0  0  0  0
    7.7523   22.9986   33.0288 N   0  0  0  0  0  0  0  0  0  0  0  0
   10.4893   22.1970   30.4747 O   0  0  0  0  0  0  0  0  0  0  0  0
    8.8227   21.0412   29.1506 C   0  0  1  0  0  0  0  0  0  0  0  0
   11.5456   19.9081   33.1099 N   0  0  0  0  0  0  0  0  0  0  0  0
    8.9177   19.7248   29.7317 O   0  0  0  0  0  0  0  0  0  0  0  0
    7.6017   19.1455   29.8330 C   0  0  1  0  0  0  0  0  0  0  0  0
   14.5805   16.4148   31.8386 N   0  0  0  0  0  0  0  0  0  0  0  0
    7.3678   18.5224   31.1075 O   0  0  0  0  0  0  0  0  0  0  0  0
    7.8811   19.2608   32.2293 C   0  0  2  0  0  0  0  0  0  0  0  0
    8.6372   15.3587   31.8875 N   0  0  0  0  0  0  0  0  0  0  0  0
    6.0872   20.8825   32.1520 O   0  0  0  0  0  0  0  0  0  0  0  0
    7.5076   20.7400   32.0718 C   0  0  1  0  0  0  0  0  0  0  0  0
    9.7721   17.7555   32.7004 O   0  0  0  0  0  0  0  0  0  0  0  0
    8.1533   21.5917   33.1673 C   0  0  1  0  0  0  0  0  0  0  0  0
   11.8763   17.1977   31.7871 O   0  0  0  0  0  0  0  0  0  0  0  0
    9.6776   21.4837   33.0874 C   0  0  0  0  0  0  0  0  0  0  0  0
   12.7374   14.7846   34.4334 O   0  0  0  0  0  0  0  0  0  0  0  0
   10.0893   20.0237   33.2868 C   0  0  1  0  0  0  0  0  0  0  0  0
   10.4226   13.5742   33.2376 O   0  0  0  0  0  0  0  0  0  0  0  0
    9.3965   19.0815   32.2963 C   0  0  2  0  0  0  0  0  0  0  0  0
    5.3456   19.9461   29.2137 O   0  0  0  0  0  0  0  0  0  0  0  0
   10.4529   17.0079   31.6821 C   0  0  1  0  0  0  0  0  0  0  0  0
    7.2904   20.5400   27.3126 O   0  0  0  0  0  0  0  0  0  0  0  0
   12.4480   16.7462   33.0269 C   0  0  2  0  0  0  0  0  0  0  0  0
   13.9503   17.0395   33.0107 C   0  0  0  0  0  0  0  0  0  0  0  0
   12.2014   15.2420   33.1881 C   0  0  2  0  0  0  0  0  0  0  0  0
   10.6947   14.9770   33.1546 C   0  0  1  0  0  0  0  0  0  0  0  0
   10.0966   15.5283   31.8583 C   0  0  1  0  0  0  0  0  0  0  0  0
    6.6516   20.3306   29.6541 C   0  0  2  0  0  0  0  0  0  0  0  0
    7.3997   21.1477   28.6024 C   0  0  1  0  0  0  0  0  0  0  0  0
  3  1  1  0  0  0  0
  4  1  1  1  0  0  0
  4  6  1  0  0  0  0
  4 31  1  0  0  0  0
  6  7  1  0  0  0  0
  7  9  1  1  0  0  0
  7 30  1  0  0  0  0
 10  9  1  6  0  0  0
 10 13  1  0  0  0  0
 10 21  1  0  0  0  0
 13 12  1  1  0  0  0
 13 15  1  0  0  0  0
 15  2  1  6  0  0  0
 15 17  1  0  0  0  0
 16 25  1  0  0  0  0
 17 19  1  0  0  0  0
 19  5  1  6  0  0  0
 19 21  1  0  0  0  0
 21 14  1  1  0  0  0
 23 14  1  1  0  0  0
 23 16  1  0  0  0  0
 23 29  1  0  0  0  0
 25 26  1  6  0  0  0
 25 27  1  0  0  0  0
 26  8  1  0  0  0  0
 27 18  1  1  0  0  0
 27 28  1  0  0  0  0
 28 20  1  6  0  0  0
 28 29  1  0  0  0  0
 29 11  1  1  0  0  0
 30 22  1  6  0  0  0
 30 31  1  0  0  0  0
 31 24  1  6  0  0  0
M  END
>  <CHROM.1>
74.59269796,40.92337035,45.43817192,114.19910074,91.06770831,-56.11116044
9.50092820,18.77524940,31.64133186,-2.36316942,0.56161885,-3.11450445

>  <Name>
2fcz_lig

>  <RI>
0

>  <Rbt.Current_Directory>
/home/itssahil/PROJECTS/Mol_Feturizer/New_Systems/rnas/2fcz

>  <Rbt.Executable>
rbdock ($Id: //depot/dev/client3/rdock/2013.1/src/exe/rbdock.cxx#4 $)

>  <Rbt.Library>
libRbt.so (2013.1, Build901 2013/11/27)

>  <Rbt.Parameter_File>
/export/apps/rDock/src/rDock_2013.1_src/data/scripts/dock_solv.prm

>  <Rbt.Receptor>
prm/blind_docking_40.prm

>  <SCORE>
16.6128

>  <SCORE.INTER>
-4.56196

>  <SCORE.INTER.CONST>
1

>  <SCORE.INTER.POLAR>
-0.524953

>  <SCORE.INTER.ROT>
6

>  <SCORE.INTER.SOLV>
25.4264

>  <SCORE.INTER.VDW>
-17.3669

>  <SCORE.INTER.norm>
-0.14716

>  <SCORE.INTRA>
13.0008

>  <SCORE.INTRA.DIHEDRAL>
3.42447

>  <SCORE.INTRA.DIHEDRAL.0>
10.8409

>  <SCORE.INTRA.POLAR>
0

>  <SCORE.INTRA.POLAR.0>
0

>  <SCORE.INTRA.REPUL>
0

>  <SCORE.INTRA.REPUL.0>
0

>  <SCORE.INTRA.SOLV>
4.5958

>  <SCORE.INTRA.SOLV.lig_0>
-80.8302

>  <SCORE.INTRA.VDW>
8.99066

>  <SCORE.INTRA.VDW.0>
-4.23953

>  <SCORE.INTRA.norm>
0.41938

>  <SCORE.RESTR>
8.174

>  <SCORE.RESTR.CAVITY>
8.174

>  <SCORE.RESTR.norm>
0.263677

>  <SCORE.SYSTEM>
0

>  <SCORE.SYSTEM.CONST>
0

>  <SCORE.SYSTEM.DIHEDRAL>
0

>  <SCORE.SYSTEM.SOLV>
0

>  <SCORE.SYSTEM.norm>
0

>  <SCORE.heavy>
31

>  <SCORE.norm>
0.535898

>  <RMSD>
7.116

$$$$
2fcz_lig
 OpenBabel11021811433D
libRbt.so/2013.1/901 2013/11/27
 31 33  0  0  0  0  0  0  0  0999 V2000
   13.5814   26.4365   34.2916 C   0  0  0  0  0  0  0  0  0  0  0  0
    9.1866   21.1855   29.5180 N   0  0  0  0  0  0  0  0  0  0  0  0
   12.4110   27.1584   34.6846 O   0  0  0  0  0  0  0  0  0  0  0  0
   13.6599   25.1195   35.0713 C   0  0  1  0  0  0  0  0  0  0  0  0
    9.4205   18.6939   33.7234 N   0  0  0  0  0  0  0  0  0  0  0  0
   12.3768   24.4653   35.1435 O   0  0  0  0  0  0  0  0  0  0  0  0
   12.3824   23.2965   34.2999 C   0  0  1  0  0  0  0  0  0  0  0  0
    8.5724   18.6328   38.3752 N   0  0  0  0  0  0  0  0  0  0  0  0
   11.1941   23.1869   33.4979 O   0  0  0  0  0  0  0  0  0  0  0  0
   11.1110   21.9762   32.7271 C   0  0  2  0  0  0  0  0  0  0  0  0
   13.5097   21.3621   36.2267 N   0  0  0  0  0  0  0  0  0  0  0  0
   10.8729   23.1675   30.6348 O   0  0  0  0  0  0  0  0  0  0  0  0
   10.2314   22.2229   31.4952 C   0  0  1  0  0  0  0  0  0  0  0  0
   11.4540   20.4314   34.6140 O   0  0  0  0  0  0  0  0  0  0  0  0
    9.9945   20.9261   30.7177 C   0  0  1  0  0  0  0  0  0  0  0  0
   10.0066   20.1126   36.4514 O   0  0  0  0  0  0  0  0  0  0  0  0
    9.2802   19.9041   31.6048 C   0  0  0  0  0  0  0  0  0  0  0  0
   11.7115   17.0842   37.6720 O   0  0  0  0  0  0  0  0  0  0  0  0
   10.1531   19.5993   32.8238 C   0  0  1  0  0  0  0  0  0  0  0  0
   13.7572   19.0832   37.9414 O   0  0  0  0  0  0  0  0  0  0  0  0
   10.5328   20.8646   33.6007 C   0  0  2  0  0  0  0  0  0  0  0  0
   14.0971   22.2624   32.8489 O   0  0  0  0  0  0  0  0  0  0  0  0
   11.1147   20.8739   35.9362 C   0  0  1  0  0  0  0  0  0  0  0  0
   15.1036   23.1580   35.2848 O   0  0  0  0  0  0  0  0  0  0  0  0
   10.2616   18.7034   36.5832 C   0  0  2  0  0  0  0  0  0  0  0  0
    8.9948   18.0219   37.1065 C   0  0  0  0  0  0  0  0  0  0  0  0
   11.4255   18.4814   37.5556 C   0  0  2  0  0  0  0  0  0  0  0  0
   12.6625   19.2117   37.0284 C   0  0  1  0  0  0  0  0  0  0  0  0
   12.3467   20.6959   36.8292 C   0  0  1  0  0  0  0  0  0  0  0  0
   13.6012   23.4881   33.3958 C   0  0  2  0  0  0  0  0  0  0  0  0
   14.5886   24.1285   34.3696 C   0  0  1  0  0  0  0  0  0  0  0  0
  3  1  1  0  0  0  0
  4  1  1  6  0  0  0
  4  6  1  0  0  0  0
  4 31  1  0  0  0  0
  6  7  1  0  0  0  0
  7  9  1  6  0  0  0
  7 30  1  0  0  0  0
 10  9  1  1  0  0  0
 10 13  1  0  0  0  0
 10 21  1  0  0  0  0
 13 12  1  6  0  0  0
 13 15  1  0  0  0  0
 15  2  1  6  0  0  0
 15 17  1  0  0  0  0
 16 25  1  0  0  0  0
 17 19  1  0  0  0  0
 19  5  1  1  0  0  0
 19 21  1  0  0  0  0
 21 14  1  1  0  0  0
 23 14  1  6  0  0  0
 23 16  1  0  0  0  0
 23 29  1  0  0  0  0
 25 26  1  1  0  0  0
 25 27  1  0  0  0  0
 26  8  1  0  0  0  0
 27 18  1  6  0  0  0
 27 28  1  0  0  0  0
 28 20  1  1  0  0  0
 28 29  1  0  0  0  0
 29 11  1  6  0  0  0
 30 22  1  1  0  0  0
 30 31  1  0  0  0  0
 31 24  1  1  0  0  0
M  END
>  <CHROM.1>
43.27899348,-174.99877482,-154.13728363,106.34465693,74.91144239,-56.46392364
11.62762027,21.44468566,34.59953715,-1.12301291,0.85270764,2.24891530

>  <Name>
2fcz_lig

>  <RI>
0

>  <Rbt.Current_Directory>
/home/itssahil/PROJECTS/Mol_Feturizer/New_Systems/rnas/2fcz

>  <Rbt.Executable>
rbdock ($Id: //depot/dev/client3/rdock/2013.1/src/exe/rbdock.cxx#4 $)

>  <Rbt.Library>
libRbt.so (2013.1, Build901 2013/11/27)

>  <Rbt.Parameter_File>
/export/apps/rDock/src/rDock_2013.1_src/data/scripts/dock_solv.prm

>  <Rbt.Receptor>
prm/pocket_docking_6.prm

>  <SCORE>
-13.5708

>  <SCORE.INTER>
-16.3637

>  <SCORE.INTER.CONST>
1

>  <SCORE.INTER.POLAR>
-1.55005

>  <SCORE.INTER.ROT>
6

>  <SCORE.INTER.SOLV>
13.7537

>  <SCORE.INTER.VDW>
-17.9269

>  <SCORE.INTER.norm>
-0.527861

>  <SCORE.INTRA>
2.79292

>  <SCORE.INTRA.DIHEDRAL>
0.467553

>  <SCORE.INTRA.DIHEDRAL.0>
10.8409

>  <SCORE.INTRA.POLAR>
0

>  <SCORE.INTRA.POLAR.0>
0

>  <SCORE.INTRA.REPUL>
0

>  <SCORE.INTRA.REPUL.0>
0

>  <SCORE.INTRA.SOLV>
4.7168

>  <SCORE.INTRA.SOLV.lig_0>
-80.8302

>  <SCORE.INTRA.VDW>
0.200741

>  <SCORE.INTRA.VDW.0>
-4.23953

>  <SCORE.INTRA.norm>
0.0900942

>  <SCORE.RESTR>
0

>  <SCORE.RESTR.CAVITY>
0

>  <SCORE.RESTR.norm>
0

>  <SCORE.SYSTEM>
0

>  <SCORE.SYSTEM.CONST>
0

>  <SCORE.SYSTEM.DIHEDRAL>
0

>  <SCORE.SYSTEM.SOLV>
0

>  <SCORE.SYSTEM.norm>
0

>  <SCORE.heavy>
31

>  <SCORE.norm>
-0.437767

>  <RMSD>
7.118

$$$$
2fcz_lig
 OpenBabel11021811433D
libRbt.so/2013.1/901 2013/11/27
 31 33  0  0  0  0  0  0  0  0999 V2000
    9.3859   21.1180   34.1779 C   0  0  0  0  0  0  0  0  0  0  0  0
   15.9702   23.7822   28.8409 N   0  0  0  0  0  0  0  0  0  0  0  0
    9.9524   20.0669   33.3907 O   0  0  0  0  0  0  0  0  0  0  0  0
    9.5336   22.4521   33.4383 C   0  0  1  0  0  0  0  0  0  0  0  0
   16.7450   21.2497   32.9558 N   0  0  0  0  0  0  0  0  0  0  0  0
   10.9051   22.7120   33.0761 O   0  0  0  0  0  0  0  0  0  0  0  0
   11.0644   22.5653   31.6510 C   0  0  1  0  0  0  0  0  0  0  0  0
   14.2083   16.6484   34.7279 N   0  0  0  0  0  0  0  0  0  0  0  0
   12.2365   21.8104   31.2998 O   0  0  0  0  0  0  0  0  0  0  0  0
   13.4711   22.5312   31.4517 C   0  0  2  0  0  0  0  0  0  0  0  0
   12.0270   22.2295   35.4735 N   0  0  0  0  0  0  0  0  0  0  0  0
   13.1878   23.7200   29.3636 O   0  0  0  0  0  0  0  0  0  0  0  0
   14.0558   22.8262   30.0648 C   0  0  1  0  0  0  0  0  0  0  0  0
   14.0430   21.6225   33.6678 O   0  0  0  0  0  0  0  0  0  0  0  0
   15.4416   23.4664   30.1750 C   0  0  1  0  0  0  0  0  0  0  0  0
   13.6573   19.3004   33.8466 O   0  0  0  0  0  0  0  0  0  0  0  0
   16.4029   22.5185   30.8954 C   0  0  0  0  0  0  0  0  0  0  0  0
   15.2177   18.9779   37.1676 O   0  0  0  0  0  0  0  0  0  0  0  0
   15.8724   22.2385   32.3029 C   0  0  1  0  0  0  0  0  0  0  0  0
   13.0006   20.7241   37.7052 O   0  0  0  0  0  0  0  0  0  0  0  0
   14.4387   21.6973   32.2891 C   0  0  2  0  0  0  0  0  0  0  0  0
    9.5014   21.9976   29.8208 O   0  0  0  0  0  0  0  0  0  0  0  0
   13.0636   20.6090   33.9378 C   0  0  1  0  0  0  0  0  0  0  0  0
    8.4221   23.7533   31.6922 O   0  0  0  0  0  0  0  0  0  0  0  0
   14.7149   19.0586   34.7905 C   0  0  2  0  0  0  0  0  0  0  0  0
   15.2695   17.6512   34.5567 C   0  0  0  0  0  0  0  0  0  0  0  0
   14.1683   19.1848   36.2170 C   0  0  2  0  0  0  0  0  0  0  0  0
   13.5809   20.5852   36.4042 C   0  0  1  0  0  0  0  0  0  0  0  0
   12.5074   20.8466   35.3454 C   0  0  1  0  0  0  0  0  0  0  0  0
    9.8103   21.8115   31.2055 C   0  0  2  0  0  0  0  0  0  0  0  0
    8.7569   22.4311   32.1218 C   0  0  1  0  0  0  0  0  0  0  0  0
  3  1  1  0  0  0  0
  4  1  1  6  0  0  0
  4  6  1  0  0  0  0
  4 31  1  0  0  0  0
  6  7  1  0  0  0  0
  7  9  1  1  0  0  0
  7 30  1  0  0  0  0
 10  9  1  6  0  0  0
 10 13  1  0  0  0  0
 10 21  1  0  0  0  0
 13 12  1  1  0  0  0
 13 15  1  0  0  0  0
 15  2  1  6  0  0  0
 15 17  1  0  0  0  0
 16 25  1  0  0  0  0
 17 19  1  0  0  0  0
 19  5  1  6  0  0  0
 19 21  1  0  0  0  0
 21 14  1  1  0  0  0
 23 14  1  1  0  0  0
 23 16  1  0  0  0  0
 23 29  1  0  0  0  0
 25 26  1  1  0  0  0
 25 27  1  0  0  0  0
 26  8  1  0  0  0  0
 27 18  1  1  0  0  0
 27 28  1  0  0  0  0
 28 20  1  1  0  0  0
 28 29  1  0  0  0  0
 29 11  1  6  0  0  0
 30 22  1  6  0  0  0
 30 31  1  0  0  0  0
 31 24  1  6  0  0  0
M  END
>  <CHROM.1>
-54.62123411,-74.92845567,-110.08742592,83.36742904,71.73977546,-59.45241888
12.88287172,21.35830109,33.03955846,2.03343810,0.13445833,-0.99835575

>  <Name>
2fcz_lig

>  <RI>
1.40544e+07

>  <Rbt.Current_Directory>
/home/itssahil/PROJECTS/Mol_Feturizer/New_Systems/rnas/2fcz

>  <Rbt.Executable>
rbdock ($Id: //depot/dev/client3/rdock/2013.1/src/exe/rbdock.cxx#4 $)

>  <Rbt.Library>
libRbt.so (2013.1, Build901 2013/11/27)

>  <Rbt.Parameter_File>
/export/apps/rDock/src/rDock_2013.1_src/data/scripts/dock_solv.prm

>  <Rbt.Receptor>
prm/blind_docking_100.prm

>  <SCORE>
-19.5613

>  <SCORE.INTER>
-20.492

>  <SCORE.INTER.CONST>
1

>  <SCORE.INTER.POLAR>
-2.64425

>  <SCORE.INTER.ROT>
6

>  <SCORE.INTER.SOLV>
15.2298

>  <SCORE.INTER.VDW>
-17.5238

>  <SCORE.INTER.norm>
-0.661033

>  <SCORE.INTRA>
0.93078

>  <SCORE.INTRA.DIHEDRAL>
0.148731

>  <SCORE.INTRA.DIHEDRAL.0>
10.8409

>  <SCORE.INTRA.POLAR>
0

>  <SCORE.INTRA.POLAR.0>
0

>  <SCORE.INTRA.REPUL>
0

>  <SCORE.INTRA.REPUL.0>
0

>  <SCORE.INTRA.SOLV>
2.9435

>  <SCORE.INTRA.SOLV.lig_0>
-80.8302

>  <SCORE.INTRA.VDW>
-0.615334

>  <SCORE.INTRA.VDW.0>
-4.23953

>  <SCORE.INTRA.norm>
0.0300252

>  <SCORE.RESTR>
0

>  <SCORE.RESTR.CAVITY>
0

>  <SCORE.RESTR.norm>
0

>  <SCORE.SYSTEM>
0

>  <SCORE.SYSTEM.CONST>
0

>  <SCORE.SYSTEM.DIHEDRAL>
0

>  <SCORE.SYSTEM.SOLV>
0

>  <SCORE.SYSTEM.norm>
0

>  <SCORE.heavy>
31

>  <SCORE.norm>
-0.631008

>  <RMSD>
7.127

$$$$
2fcz_lig
 OpenBabel11021811433D
libRbt.so/2013.1/901 2013/11/27
 31 33  0  0  0  0  0  0  0  0999 V2000
    8.1927   21.4380   32.2891 C   0  0  0  0  0  0  0  0  0  0  0  0
   16.2300   23.7735   29.6068 N   0  0  0  0  0  0  0  0  0  0  0  0
    7.9732   21.4573   33.7022 O   0  0  0  0  0  0  0  0  0  0  0  0
    8.8549   22.7494   31.8530 C   0  0  1  0  0  0  0  0  0  0  0  0
   16.5449   21.0829   33.6823 N   0  0  0  0  0  0  0  0  0  0  0  0
   10.1983   22.8642   32.3646 O   0  0  0  0  0  0  0  0  0  0  0  0
   11.1412   22.7021   31.2864 C   0  0  1  0  0  0  0  0  0  0  0  0
   12.7267   16.5746   33.8510 N   0  0  0  0  0  0  0  0  0  0  0  0
   12.2302   21.8285   31.6301 O   0  0  0  0  0  0  0  0  0  0  0  0
   13.4627   22.5080   31.9236 C   0  0  2  0  0  0  0  0  0  0  0  0
   12.0224   22.0904   36.1998 N   0  0  0  0  0  0  0  0  0  0  0  0
   13.4098   23.7739   29.8624 O   0  0  0  0  0  0  0  0  0  0  0  0
   14.1841   22.8324   30.6096 C   0  0  1  0  0  0  0  0  0  0  0  0
   13.7977   21.5093   34.1494 O   0  0  0  0  0  0  0  0  0  0  0  0
   15.5689   23.4284   30.8730 C   0  0  1  0  0  0  0  0  0  0  0  0
   12.8531   19.3767   33.7853 O   0  0  0  0  0  0  0  0  0  0  0  0
   16.4329   22.4296   31.6460 C   0  0  0  0  0  0  0  0  0  0  0  0
   14.3368   17.8582   36.7953 O   0  0  0  0  0  0  0  0  0  0  0  0
   15.7639   22.1178   32.9862 C   0  0  1  0  0  0  0  0  0  0  0  0
   12.6285   19.8791   37.9137 O   0  0  0  0  0  0  0  0  0  0  0  0
   14.3246   21.6189   32.8178 C   0  0  2  0  0  0  0  0  0  0  0  0
   10.8876   22.3017   28.8595 O   0  0  0  0  0  0  0  0  0  0  0  0
   12.6026   20.7200   34.2391 C   0  0  1  0  0  0  0  0  0  0  0  0
    9.0777   24.1604   29.8688 O   0  0  0  0  0  0  0  0  0  0  0  0
   13.8327   18.6599   34.5564 C   0  0  2  0  0  0  0  0  0  0  0  0
   14.0189   17.2697   33.9436 C   0  0  0  0  0  0  0  0  0  0  0  0
   13.3565   18.5419   36.0086 C   0  0  2  0  0  0  0  0  0  0  0  0
   13.1363   19.9453   36.5772 C   0  0  1  0  0  0  0  0  0  0  0  0
   12.1443   20.7135   35.7009 C   0  0  1  0  0  0  0  0  0  0  0  0
   10.3191   22.0839   30.1544 C   0  0  2  0  0  0  0  0  0  0  0  0
    8.9871   22.8103   30.3313 C   0  0  1  0  0  0  0  0  0  0  0  0
  3  1  1  0  0  0  0
  4  1  1  6  0  0  0
  4  6  1  0  0  0  0
  4 31  1  0  0  0  0
  6  7  1  0  0  0  0
  7  9  1  1  0  0  0
  7 30  1  0  0  0  0
 10  9  1  6  0  0  0
 10 13  1  0  0  0  0
 10 21  1  0  0  0  0
 13 12  1  1  0  0  0
 13 15  1  0  0  0  0
 15  2  1  6  0  0  0
 15 17  1  0  0  0  0
 16 25  1  0  0  0  0
 17 19  1  0  0  0  0
 19  5  1  6  0  0  0
 19 21  1  0  0  0  0
 21 14  1  1  0  0  0
 23 14  1  1  0  0  0
 23 16  1  0  0  0  0
 23 29  1  0  0  0  0
 25 26  1  6  0  0  0
 25 27  1  0  0  0  0
 26  8  1  0  0  0  0
 27 18  1  1  0  0  0
 27 28  1  0  0  0  0
 28 20  1  1  0  0  0
 28 29  1  0  0  0  0
 29 11  1  1  0  0  0
 30 22  1  6  0  0  0
 30 31  1  0  0  0  0
 31 24  1  1  0  0  0
M  END
>  <CHROM.1>
67.64458140,-103.51889212,-82.52758795,71.57170605,60.16589696,-55.07111973
12.57858222,21.32715849,32.90650151,1.96712832,0.02339127,-0.92943921

>  <Name>
2fcz_lig

>  <RI>
1.40544e+07

>  <Rbt.Current_Directory>
/home/itssahil/PROJECTS/Mol_Feturizer/New_Systems/rnas/2fcz

>  <Rbt.Executable>
rbdock ($Id: //depot/dev/client3/rdock/2013.1/src/exe/rbdock.cxx#4 $)

>  <Rbt.Library>
libRbt.so (2013.1, Build901 2013/11/27)

>  <Rbt.Parameter_File>
/export/apps/rDock/src/rDock_2013.1_src/data/scripts/dock_solv.prm

>  <Rbt.Receptor>
prm/blind_docking_100.prm

>  <SCORE>
-19.6561

>  <SCORE.INTER>
-18.7048

>  <SCORE.INTER.CONST>
1

>  <SCORE.INTER.POLAR>
-2.65211

>  <SCORE.INTER.ROT>
6

>  <SCORE.INTER.SOLV>
15.1453

>  <SCORE.INTER.VDW>
-16.2779

>  <SCORE.INTER.norm>
-0.603381

>  <SCORE.INTRA>
-0.951245

>  <SCORE.INTRA.DIHEDRAL>
-1.68981

>  <SCORE.INTRA.DIHEDRAL.0>
10.8409

>  <SCORE.INTRA.POLAR>
0

>  <SCORE.INTRA.POLAR.0>
0

>  <SCORE.INTRA.REPUL>
0

>  <SCORE.INTRA.REPUL.0>
0

>  <SCORE.INTRA.SOLV>
-2.19487

>  <SCORE.INTRA.SOLV.lig_0>
-80.8302

>  <SCORE.INTRA.VDW>
0.991093

>  <SCORE.INTRA.VDW.0>
-4.23953

>  <SCORE.INTRA.norm>
-0.0306853

>  <SCORE.RESTR>
0

>  <SCORE.RESTR.CAVITY>
0

>  <SCORE.RESTR.norm>
0

>  <SCORE.SYSTEM>
0

>  <SCORE.SYSTEM.CONST>
0

>  <SCORE.SYSTEM.DIHEDRAL>
0

>  <SCORE.SYSTEM.SOLV>
0

>  <SCORE.SYSTEM.norm>
0

>  <SCORE.heavy>
31

>  <SCORE.norm>
-0.634067

>  <RMSD>
7.128

$$$$
2fcz_lig
 OpenBabel11021811433D
libRbt.so/2013.1/901 2013/11/27
 31 33  0  0  0  0  0  0  0  0999 V2000
   15.7574   23.9721   37.2640 C   0  0  0  0  0  0  0  0  0  0  0  0
    9.7106   21.9259   32.7853 N   0  0  0  0  0  0  0  0  0  0  0  0
   14.6862   24.2502   36.3581 O   0  0  0  0  0  0  0  0  0  0  0  0
   15.7167   22.4955   37.6718 C   0  0  1  0  0  0  0  0  0  0  0  0
    8.9384   18.3480   36.0333 N   0  0  0  0  0  0  0  0  0  0  0  0
   14.3996   22.0977   38.1037 O   0  0  0  0  0  0  0  0  0  0  0  0
   13.8030   21.2421   37.1088 C   0  0  1  0  0  0  0  0  0  0  0  0
    7.5268   18.4738   39.0783 N   0  0  0  0  0  0  0  0  0  0  0  0
   12.4370   21.5906   36.8263 O   0  0  0  0  0  0  0  0  0  0  0  0
   11.8391   20.8254   35.7661 C   0  0  2  0  0  0  0  0  0  0  0  0
   13.9281   18.0159   38.2442 N   0  0  0  0  0  0  0  0  0  0  0  0
   12.0925   22.6121   34.1544 O   0  0  0  0  0  0  0  0  0  0  0  0
   11.1262   21.7777   34.7980 C   0  0  1  0  0  0  0  0  0  0  0  0
   11.5285   18.7583   37.0677 O   0  0  0  0  0  0  0  0  0  0  0  0
   10.3526   21.0013   33.7298 C   0  0  1  0  0  0  0  0  0  0  0  0
   10.4163   18.8743   39.1467 O   0  0  0  0  0  0  0  0  0  0  0  0
    9.2881   20.1205   34.3876 C   0  0  0  0  0  0  0  0  0  0  0  0
   10.1808   15.2241   39.5807 O   0  0  0  0  0  0  0  0  0  0  0  0
    9.9701   19.1249   35.3281 C   0  0  1  0  0  0  0  0  0  0  0  0
   13.0213   15.6540   39.5836 O   0  0  0  0  0  0  0  0  0  0  0  0
   10.8600   19.8180   36.3656 C   0  0  2  0  0  0  0  0  0  0  0  0
   14.5880   20.3718   34.9315 O   0  0  0  0  0  0  0  0  0  0  0  0
   11.6831   18.9989   38.4739 C   0  0  1  0  0  0  0  0  0  0  0  0
   16.5438   20.3239   36.9118 O   0  0  0  0  0  0  0  0  0  0  0  0
    9.8184   17.5696   39.0548 C   0  0  2  0  0  0  0  0  0  0  0  0
    8.4716   17.5942   39.7818 C   0  0  0  0  0  0  0  0  0  0  0  0
   10.7489   16.5325   39.6935 C   0  0  2  0  0  0  0  0  0  0  0  0
   12.0996   16.5645   38.9752 C   0  0  1  0  0  0  0  0  0  0  0  0
   12.6838   17.9781   39.0250 C   0  0  1  0  0  0  0  0  0  0  0  0
   14.6608   21.4572   35.8609 C   0  0  2  0  0  0  0  0  0  0  0  0
   16.0495   21.5951   36.4821 C   0  0  1  0  0  0  0  0  0  0  0  0
  3  1  1  0  0  0  0
  4  1  1  6  0  0  0
  4  6  1  0  0  0  0
  4 31  1  0  0  0  0
  6  7  1  0  0  0  0
  7  9  1  6  0  0  0
  7 30  1  0  0  0  0
 10  9  1  1  0  0  0
 10 13  1  0  0  0  0
 10 21  1  0  0  0  0
 13 12  1  6  0  0  0
 13 15  1  0  0  0  0
 15  2  1  6  0  0  0
 15 17  1  0  0  0  0
 16 25  1  0  0  0  0
 17 19  1  0  0  0  0
 19  5  1  1  0  0  0
 19 21  1  0  0  0  0
 21 14  1  6  0  0  0
 23 14  1  6  0  0  0
 23 16  1  0  0  0  0
 23 29  1  0  0  0  0
 25 26  1  1  0  0  0
 25 27  1  0  0  0  0
 26  8  1  0  0  0  0
 27 18  1  6  0  0  0
 27 28  1  0  0  0  0
 28 20  1  1  0  0  0
 28 29  1  0  0  0  0
 29 11  1  6  0  0  0
 30 22  1  6  0  0  0
 30 31  1  0  0  0  0
 31 24  1  1  0  0  0
M  END
>  <CHROM.1>
-49.78701836,175.49907905,-132.45334490,93.44784583,72.43509457,66.32422359
12.13010767,19.85270348,37.06135170,-0.90859717,0.35674220,2.37145813

>  <Name>
2fcz_lig

>  <RI>
0

>  <Rbt.Current_Directory>
/home/itssahil/PROJECTS/Mol_Feturizer/New_Systems/rnas/2fcz

>  <Rbt.Executable>
rbdock ($Id: //depot/dev/client3/rdock/2013.1/src/exe/rbdock.cxx#4 $)

>  <Rbt.Library>
libRbt.so (2013.1, Build901 2013/11/27)

>  <Rbt.Parameter_File>
/export/apps/rDock/src/rDock_2013.1_src/data/scripts/dock_solv.prm

>  <Rbt.Receptor>
prm/pocket_docking_6.prm

>  <SCORE>
-10.6131

>  <SCORE.INTER>
-12.3378

>  <SCORE.INTER.CONST>
1

>  <SCORE.INTER.POLAR>
-1.52781

>  <SCORE.INTER.ROT>
6

>  <SCORE.INTER.SOLV>
13.9931

>  <SCORE.INTER.VDW>
-15.3969

>  <SCORE.INTER.norm>
-0.397994

>  <SCORE.INTRA>
1.7247

>  <SCORE.INTRA.DIHEDRAL>
1.27601

>  <SCORE.INTRA.DIHEDRAL.0>
10.8409

>  <SCORE.INTRA.POLAR>
0

>  <SCORE.INTRA.POLAR.0>
0

>  <SCORE.INTRA.REPUL>
0

>  <SCORE.INTRA.REPUL.0>
0

>  <SCORE.INTRA.SOLV>
1.77837

>  <SCORE.INTRA.SOLV.lig_0>
-80.8302

>  <SCORE.INTRA.VDW>
0.197508

>  <SCORE.INTRA.VDW.0>
-4.23953

>  <SCORE.INTRA.norm>
0.0556354

>  <SCORE.RESTR>
0

>  <SCORE.RESTR.CAVITY>
0

>  <SCORE.RESTR.norm>
0

>  <SCORE.SYSTEM>
0

>  <SCORE.SYSTEM.CONST>
0

>  <SCORE.SYSTEM.DIHEDRAL>
0

>  <SCORE.SYSTEM.SOLV>
0

>  <SCORE.SYSTEM.norm>
0

>  <SCORE.heavy>
31

>  <SCORE.norm>
-0.342358

>  <RMSD>
7.136

$$$$
2fcz_lig
 OpenBabel11021811433D
libRbt.so/2013.1/901 2013/11/27
 31 33  0  0  0  0  0  0  0  0999 V2000
    7.7129   20.6443   32.4569 C   0  0  0  0  0  0  0  0  0  0  0  0
   15.1778   23.7354   29.3036 N   0  0  0  0  0  0  0  0  0  0  0  0
    7.3959   20.2862   33.8047 O   0  0  0  0  0  0  0  0  0  0  0  0
    8.2589   22.0758   32.4193 C   0  0  1  0  0  0  0  0  0  0  0  0
   16.3311   20.8811   33.1076 N   0  0  0  0  0  0  0  0  0  0  0  0
    9.6026   22.1478   32.9378 O   0  0  0  0  0  0  0  0  0  0  0  0
   10.5257   22.3834   31.8561 C   0  0  1  0  0  0  0  0  0  0  0  0
   15.7196   17.2110   33.5540 N   0  0  0  0  0  0  0  0  0  0  0  0
   11.6884   21.5407   31.9270 O   0  0  0  0  0  0  0  0  0  0  0  0
   12.9317   22.2562   32.0227 C   0  0  2  0  0  0  0  0  0  0  0  0
   11.6845   21.6286   35.9375 N   0  0  0  0  0  0  0  0  0  0  0  0
   12.4559   23.6094   30.0744 O   0  0  0  0  0  0  0  0  0  0  0  0
   13.3852   22.6679   30.6167 C   0  0  1  0  0  0  0  0  0  0  0  0
   13.7067   21.1739   34.0944 O   0  0  0  0  0  0  0  0  0  0  0  0
   14.7752   23.3076   30.6504 C   0  0  1  0  0  0  0  0  0  0  0  0
   13.4860   18.8296   34.2629 O   0  0  0  0  0  0  0  0  0  0  0  0
   15.7993   22.3114   31.1987 C   0  0  0  0  0  0  0  0  0  0  0  0
   15.1211   18.5962   37.5553 O   0  0  0  0  0  0  0  0  0  0  0  0
   15.4017   21.9133   32.6214 C   0  0  1  0  0  0  0  0  0  0  0  0
   12.7979   20.1810   38.1420 O   0  0  0  0  0  0  0  0  0  0  0  0
   13.9729   21.3640   32.6959 C   0  0  2  0  0  0  0  0  0  0  0  0
   10.2384   22.6842   29.4185 O   0  0  0  0  0  0  0  0  0  0  0  0
   12.8047   20.0932   34.3733 C   0  0  1  0  0  0  0  0  0  0  0  0
    8.3171   24.0147   30.9311 O   0  0  0  0  0  0  0  0  0  0  0  0
   14.5737   18.6560   35.1875 C   0  0  2  0  0  0  0  0  0  0  0  0
   15.2205   17.2920   34.9345 C   0  0  0  0  0  0  0  0  0  0  0  0
   14.0440   18.7354   36.6237 C   0  0  2  0  0  0  0  0  0  0  0  0
   13.3642   20.0906   36.8306 C   0  0  1  0  0  0  0  0  0  0  0  0
   12.2573   20.2832   35.7916 C   0  0  1  0  0  0  0  0  0  0  0  0
    9.7239   22.0543   30.5958 C   0  0  2  0  0  0  0  0  0  0  0  0
    8.3446   22.5858   30.9808 C   0  0  1  0  0  0  0  0  0  0  0  0
  3  1  1  0  0  0  0
  4  1  1  6  0  0  0
  4  6  1  0  0  0  0
  4 31  1  0  0  0  0
  6  7  1  0  0  0  0
  7  9  1  1  0  0  0
  7 30  1  0  0  0  0
 10  9  1  6  0  0  0
 10 13  1  0  0  0  0
 10 21  1  0  0  0  0
 13 12  1  1  0  0  0
 13 15  1  0  0  0  0
 15  2  1  6  0  0  0
 15 17  1  0  0  0  0
 16 25  1  0  0  0  0
 17 19  1  0  0  0  0
 19  5  1  6  0  0  0
 19 21  1  0  0  0  0
 21 14  1  1  0  0  0
 23 14  1  1  0  0  0
 23 16  1  0  0  0  0
 23 29  1  0  0  0  0
 25 26  1  6  0  0  0
 25 27  1  0  0  0  0
 26  8  1  0  0  0  0
 27 18  1  1  0  0  0
 27 28  1  0  0  0  0
 28 20  1  1  0  0  0
 28 29  1  0  0  0  0
 29 11  1  6  0  0  0
 30 22  1  6  0  0  0
 30 31  1  0  0  0  0
 31 24  1  1  0  0  0
M  END
>  <CHROM.1>
73.80760525,-120.49740311,-83.43770272,86.12968594,77.35942586,59.41102215
12.43371594,21.13839005,33.13564249,2.25002726,0.09891478,-1.00004258

>  <Name>
2fcz_lig

>  <RI>
0

>  <Rbt.Current_Directory>
/home/itssahil/PROJECTS/Mol_Feturizer/New_Systems/rnas/2fcz

>  <Rbt.Executable>
rbdock ($Id: //depot/dev/client3/rdock/2013.1/src/exe/rbdock.cxx#4 $)

>  <Rbt.Library>
libRbt.so (2013.1, Build901 2013/11/27)

>  <Rbt.Parameter_File>
/export/apps/rDock/src/rDock_2013.1_src/data/scripts/dock_solv.prm

>  <Rbt.Receptor>
prm/blind_docking_80.prm

>  <SCORE>
-18.4513

>  <SCORE.INTER>
-21.4122

>  <SCORE.INTER.CONST>
1

>  <SCORE.INTER.POLAR>
-3.18731

>  <SCORE.INTER.ROT>
6

>  <SCORE.INTER.SOLV>
17.92

>  <SCORE.INTER.VDW>
-17.2238

>  <SCORE.INTER.norm>
-0.690717

>  <SCORE.INTRA>
2.29514

>  <SCORE.INTRA.DIHEDRAL>
3.65252

>  <SCORE.INTRA.DIHEDRAL.0>
10.8409

>  <SCORE.INTRA.POLAR>
0

>  <SCORE.INTRA.POLAR.0>
0

>  <SCORE.INTRA.REPUL>
0

>  <SCORE.INTRA.REPUL.0>
0

>  <SCORE.INTRA.SOLV>
-0.930866

>  <SCORE.INTRA.SOLV.lig_0>
-80.8302

>  <SCORE.INTRA.VDW>
0.934309

>  <SCORE.INTRA.VDW.0>
-4.23953

>  <SCORE.INTRA.norm>
0.0740366

>  <SCORE.RESTR>
0.665845

>  <SCORE.RESTR.CAVITY>
0.665845

>  <SCORE.RESTR.norm>
0.0214789

>  <SCORE.SYSTEM>
0

>  <SCORE.SYSTEM.CONST>
0

>  <SCORE.SYSTEM.DIHEDRAL>
0

>  <SCORE.SYSTEM.SOLV>
0

>  <SCORE.SYSTEM.norm>
0

>  <SCORE.heavy>
31

>  <SCORE.norm>
-0.595202

>  <RMSD>
7.141

$$$$
2fcz_lig
 OpenBabel11021811433D
libRbt.so/2013.1/901 2013/11/27
 31 33  0  0  0  0  0  0  0  0999 V2000
   12.4390   23.4286   34.5485 C   0  0  0  0  0  0  0  0  0  0  0  0
    7.7024   19.9843   33.6461 N   0  0  0  0  0  0  0  0  0  0  0  0
   13.0403   22.7280   33.4562 O   0  0  0  0  0  0  0  0  0  0  0  0
   12.3194   22.4934   35.7567 C   0  0  1  0  0  0  0  0  0  0  0  0
    9.3913   16.8022   36.9581 N   0  0  0  0  0  0  0  0  0  0  0  0
   11.6662   21.2553   35.4100 O   0  0  0  0  0  0  0  0  0  0  0  0
   12.6312   20.1846   35.4067 C   0  0  1  0  0  0  0  0  0  0  0  0
   11.6328   19.0843   39.4305 N   0  0  0  0  0  0  0  0  0  0  0  0
   12.5059   19.3299   34.2574 O   0  0  0  0  0  0  0  0  0  0  0  0
   11.2461   18.6432   34.1663 C   0  0  2  0  0  0  0  0  0  0  0  0
   13.9257   14.9999   34.9793 N   0  0  0  0  0  0  0  0  0  0  0  0
   10.3266   20.2587   32.6177 O   0  0  0  0  0  0  0  0  0  0  0  0
   10.1332   19.6654   33.9041 C   0  0  1  0  0  0  0  0  0  0  0  0
   11.8671   16.7481   35.6110 O   0  0  0  0  0  0  0  0  0  0  0  0
    8.7545   19.0019   33.9411 C   0  0  1  0  0  0  0  0  0  0  0  0
   13.1257   17.7917   37.3137 O   0  0  0  0  0  0  0  0  0  0  0  0
    8.5056   18.3832   35.3184 C   0  0  0  0  0  0  0  0  0  0  0  0
   12.7867   15.0099   39.7043 O   0  0  0  0  0  0  0  0  0  0  0  0
    9.5740   17.3232   35.5940 C   0  0  1  0  0  0  0  0  0  0  0  0
   14.2457   13.7873   37.5526 O   0  0  0  0  0  0  0  0  0  0  0  0
   10.9958   17.8807   35.4659 C   0  0  2  0  0  0  0  0  0  0  0  0
   15.0574   20.0887   35.8752 O   0  0  0  0  0  0  0  0  0  0  0  0
   13.1875   17.0838   36.0615 C   0  0  1  0  0  0  0  0  0  0  0  0
   13.6514   21.7078   37.6503 O   0  0  0  0  0  0  0  0  0  0  0  0
   12.5420   17.0427   38.3937 C   0  0  2  0  0  0  0  0  0  0  0  0
   12.5120   17.9255   39.6438 C   0  0  0  0  0  0  0  0  0  0  0  0
   13.3744   15.7819   38.6526 C   0  0  2  0  0  0  0  0  0  0  0  0
   13.4229   14.9445   37.3728 C   0  0  1  0  0  0  0  0  0  0  0  0
   13.9816   15.7834   36.2212 C   0  0  1  0  0  0  0  0  0  0  0  0
   13.9853   20.8954   35.3780 C   0  0  2  0  0  0  0  0  0  0  0  0
   13.7019   22.0985   36.2756 C   0  0  1  0  0  0  0  0  0  0  0  0
  3  1  1  0  0  0  0
  4  1  1  6  0  0  0
  4  6  1  0  0  0  0
  4 31  1  0  0  0  0
  6  7  1  0  0  0  0
  7  9  1  6  0  0  0
  7 30  1  0  0  0  0
 10  9  1  1  0  0  0
 10 13  1  0  0  0  0
 10 21  1  0  0  0  0
 13 12  1  6  0  0  0
 13 15  1  0  0  0  0
 15  2  1  1  0  0  0
 15 17  1  0  0  0  0
 16 25  1  0  0  0  0
 17 19  1  0  0  0  0
 19  5  1  1  0  0  0
 19 21  1  0  0  0  0
 21 14  1  6  0  0  0
 23 14  1  1  0  0  0
 23 16  1  0  0  0  0
 23 29  1  0  0  0  0
 25 26  1  1  0  0  0
 25 27  1  0  0  0  0
 26  8  1  0  0  0  0
 27 18  1  1  0  0  0
 27 28  1  0  0  0  0
 28 20  1  1  0  0  0
 28 29  1  0  0  0  0
 29 11  1  6  0  0  0
 30 22  1  1  0  0  0
 30 31  1  0  0  0  0
 31 24  1  1  0  0  0
M  END
>  <CHROM.1>
-52.06843198,-62.39018167,67.38014989,79.46514556,56.95289277,64.06527047
12.10415358,18.66481612,36.01865562,-1.84211539,0.57038399,2.75724985

>  <Name>
2fcz_lig

>  <RI>
1.32928e+07

>  <Rbt.Current_Directory>
/home/itssahil/PROJECTS/Mol_Feturizer/New_Systems/rnas/2fcz

>  <Rbt.Executable>
rbdock ($Id: //depot/dev/client3/rdock/2013.1/src/exe/rbdock.cxx#4 $)

>  <Rbt.Library>
libRbt.so (2013.1, Build901 2013/11/27)

>  <Rbt.Parameter_File>
/export/apps/rDock/src/rDock_2013.1_src/data/scripts/dock_solv.prm

>  <Rbt.Receptor>
prm/pocket_docking_7.prm

>  <SCORE>
-12.6439

>  <SCORE.INTER>
-9.90697

>  <SCORE.INTER.CONST>
1

>  <SCORE.INTER.POLAR>
-1.973

>  <SCORE.INTER.ROT>
6

>  <SCORE.INTER.SOLV>
15.3662

>  <SCORE.INTER.VDW>
-12.75

>  <SCORE.INTER.norm>
-0.31958

>  <SCORE.INTRA>
-2.73695

>  <SCORE.INTRA.DIHEDRAL>
-8.37892

>  <SCORE.INTRA.DIHEDRAL.0>
10.8409

>  <SCORE.INTRA.POLAR>
0

>  <SCORE.INTRA.POLAR.0>
0

>  <SCORE.INTRA.REPUL>
0

>  <SCORE.INTRA.REPUL.0>
0

>  <SCORE.INTRA.SOLV>
-0.297442

>  <SCORE.INTRA.SOLV.lig_0>
-80.8302

>  <SCORE.INTRA.VDW>
1.60123

>  <SCORE.INTRA.VDW.0>
-4.23953

>  <SCORE.INTRA.norm>
-0.0882887

>  <SCORE.RESTR>
0

>  <SCORE.RESTR.CAVITY>
0

>  <SCORE.RESTR.norm>
0

>  <SCORE.SYSTEM>
0

>  <SCORE.SYSTEM.CONST>
0

>  <SCORE.SYSTEM.DIHEDRAL>
0

>  <SCORE.SYSTEM.SOLV>
0

>  <SCORE.SYSTEM.norm>
0

>  <SCORE.heavy>
31

>  <SCORE.norm>
-0.407869

>  <RMSD>
7.177

$$$$
2fcz_lig
 OpenBabel11021811433D
libRbt.so/2013.1/901 2013/11/27
 31 33  0  0  0  0  0  0  0  0999 V2000
   18.7313   19.7141   32.4689 C   0  0  0  0  0  0  0  0  0  0  0  0
   11.7052   20.0063   38.0163 N   0  0  0  0  0  0  0  0  0  0  0  0
   20.1539   19.8286   32.3770 O   0  0  0  0  0  0  0  0  0  0  0  0
   18.1307   21.0659   32.8695 C   0  0  1  0  0  0  0  0  0  0  0  0
   10.7320   20.1105   33.2216 N   0  0  0  0  0  0  0  0  0  0  0  0
   16.6951   20.9976   32.9874 O   0  0  0  0  0  0  0  0  0  0  0  0
   16.3207   21.0718   34.3774 C   0  0  1  0  0  0  0  0  0  0  0  0
   15.6541   25.5127   33.3149 N   0  0  0  0  0  0  0  0  0  0  0  0
   15.3247   20.0986   34.7351 O   0  0  0  0  0  0  0  0  0  0  0  0
   14.0407   20.6586   35.0588 C   0  0  2  0  0  0  0  0  0  0  0  0
   11.4709   21.9176   30.8637 N   0  0  0  0  0  0  0  0  0  0  0  0
   14.4311   20.5153   37.4422 O   0  0  0  0  0  0  0  0  0  0  0  0
   13.5609   20.0788   36.3952 C   0  0  1  0  0  0  0  0  0  0  0  0
   13.3356   21.0763   32.7367 O   0  0  0  0  0  0  0  0  0  0  0  0
   12.1350   20.5343   36.7141 C   0  0  1  0  0  0  0  0  0  0  0  0
   13.9903   23.2871   33.2430 O   0  0  0  0  0  0  0  0  0  0  0  0
   11.1736   20.0545   35.6245 C   0  0  0  0  0  0  0  0  0  0  0  0
   15.9058   23.7671   30.1337 O   0  0  0  0  0  0  0  0  0  0  0  0
   11.5968   20.6528   34.2815 C   0  0  1  0  0  0  0  0  0  0  0  0
   13.2353   23.3799   29.1481 O   0  0  0  0  0  0  0  0  0  0  0  0
   13.0562   20.3372   33.9360 C   0  0  2  0  0  0  0  0  0  0  0  0
   17.6162   21.2971   36.4716 O   0  0  0  0  0  0  0  0  0  0  0  0
   12.9139   22.4470   32.7863 C   0  0  1  0  0  0  0  0  0  0  0  0
   18.5552   22.9158   34.4107 O   0  0  0  0  0  0  0  0  0  0  0  0
   15.1504   23.2841   32.3933 C   0  0  2  0  0  0  0  0  0  0  0  0
   16.2174   24.1881   33.0156 C   0  0  0  0  0  0  0  0  0  0  0  0
   14.7672   23.7949   30.9998 C   0  0  2  0  0  0  0  0  0  0  0  0
   13.6684   22.8986   30.4246 C   0  0  1  0  0  0  0  0  0  0  0  0
   12.4727   22.8613   31.3789 C   0  0  1  0  0  0  0  0  0  0  0  0
   17.6185   20.7867   35.1348 C   0  0  2  0  0  0  0  0  0  0  0  0
   18.6370   21.4977   34.2457 C   0  0  1  0  0  0  0  0  0  0  0  0
  3  1  1  0  0  0  0
  4  1  1  1  0  0  0
  4  6  1  0  0  0  0
  4 31  1  0  0  0  0
  6  7  1  0  0  0  0
  7  9  1  6  0  0  0
  7 30  1  0  0  0  0
 10  9  1  6  0  0  0
 10 13  1  0  0  0  0
 10 21  1  0  0  0  0
 13 12  1  1  0  0  0
 13 15  1  0  0  0  0
 15  2  1  1  0  0  0
 15 17  1  0  0  0  0
 16 25  1  0  0  0  0
 17 19  1  0  0  0  0
 19  5  1  6  0  0  0
 19 21  1  0  0  0  0
 21 14  1  6  0  0  0
 23 14  1  6  0  0  0
 23 16  1  0  0  0  0
 23 29  1  0  0  0  0
 25 26  1  1  0  0  0
 25 27  1  0  0  0  0
 26  8  1  0  0  0  0
 27 18  1  6  0  0  0
 27 28  1  0  0  0  0
 28 20  1  6  0  0  0
 28 29  1  0  0  0  0
 29 11  1  6  0  0  0
 30 22  1  1  0  0  0
 30 31  1  0  0  0  0
 31 24  1  6  0  0  0
M  END
>  <CHROM.1>
-179.46451062,-111.68580831,-130.08249875,-76.93540356,92.64235582,-52.31197847
14.86424471,21.63917782,33.57569748,-0.32345054,0.00947940,2.07473323

>  <Name>
2fcz_lig

>  <RI>
1.40544e+07

>  <Rbt.Current_Directory>
/home/itssahil/PROJECTS/Mol_Feturizer/New_Systems/rnas/2fcz

>  <Rbt.Executable>
rbdock ($Id: //depot/dev/client3/rdock/2013.1/src/exe/rbdock.cxx#4 $)

>  <Rbt.Library>
libRbt.so (2013.1, Build901 2013/11/27)

>  <Rbt.Parameter_File>
/export/apps/rDock/src/rDock_2013.1_src/data/scripts/dock_solv.prm

>  <Rbt.Receptor>
prm/blind_docking_100.prm

>  <SCORE>
-7.67058

>  <SCORE.INTER>
-14.2926

>  <SCORE.INTER.CONST>
1

>  <SCORE.INTER.POLAR>
-1.93012

>  <SCORE.INTER.ROT>
6

>  <SCORE.INTER.SOLV>
19.4614

>  <SCORE.INTER.VDW>
-17.1818

>  <SCORE.INTER.norm>
-0.461052

>  <SCORE.INTRA>
6.41657

>  <SCORE.INTRA.DIHEDRAL>
8.36705

>  <SCORE.INTRA.DIHEDRAL.0>
10.8409

>  <SCORE.INTRA.POLAR>
0

>  <SCORE.INTRA.POLAR.0>
0

>  <SCORE.INTRA.REPUL>
0

>  <SCORE.INTRA.REPUL.0>
0

>  <SCORE.INTRA.SOLV>
1.29585

>  <SCORE.INTRA.SOLV.lig_0>
-80.8302

>  <SCORE.INTRA.VDW>
1.58512

>  <SCORE.INTRA.VDW.0>
-4.23953

>  <SCORE.INTRA.norm>
0.206986

>  <SCORE.RESTR>
0.205454

>  <SCORE.RESTR.CAVITY>
0.205454

>  <SCORE.RESTR.norm>
0.00662754

>  <SCORE.SYSTEM>
0

>  <SCORE.SYSTEM.CONST>
0

>  <SCORE.SYSTEM.DIHEDRAL>
0

>  <SCORE.SYSTEM.SOLV>
0

>  <SCORE.SYSTEM.norm>
0

>  <SCORE.heavy>
31

>  <SCORE.norm>
-0.247438

>  <RMSD>
7.178

$$$$
2fcz_lig
 OpenBabel11021811433D
libRbt.so/2013.1/901 2013/11/27
 31 33  0  0  0  0  0  0  0  0999 V2000
   10.0039   21.0180   31.9932 C   0  0  0  0  0  0  0  0  0  0  0  0
    9.0181   20.6338   34.9258 N   0  0  0  0  0  0  0  0  0  0  0  0
   11.3642   21.3491   32.2851 O   0  0  0  0  0  0  0  0  0  0  0  0
    9.9267   20.3047   30.6390 C   0  0  1  0  0  0  0  0  0  0  0  0
   13.0096   18.0105   33.8608 N   0  0  0  0  0  0  0  0  0  0  0  0
   10.2183   18.8976   30.7602 O   0  0  0  0  0  0  0  0  0  0  0  0
    9.0078   18.1362   30.5789 C   0  0  1  0  0  0  0  0  0  0  0  0
   16.2400   17.0544   33.8393 N   0  0  0  0  0  0  0  0  0  0  0  0
    8.8561   17.0959   31.5596 O   0  0  0  0  0  0  0  0  0  0  0  0
    9.3638   17.4327   32.8618 C   0  0  2  0  0  0  0  0  0  0  0  0
   11.2095   13.4671   31.6445 N   0  0  0  0  0  0  0  0  0  0  0  0
    7.4641   18.8365   33.3853 O   0  0  0  0  0  0  0  0  0  0  0  0
    8.8863   18.8404   33.2397 C   0  0  1  0  0  0  0  0  0  0  0  0
   11.3686   16.0075   32.7464 O   0  0  0  0  0  0  0  0  0  0  0  0
    9.5175   19.3025   34.5552 C   0  0  1  0  0  0  0  0  0  0  0  0
   13.3604   16.5091   31.5828 O   0  0  0  0  0  0  0  0  0  0  0  0
   11.0412   19.3464   34.4204 C   0  0  0  0  0  0  0  0  0  0  0  0
   15.5065   14.4055   33.7128 O   0  0  0  0  0  0  0  0  0  0  0  0
   11.5571   17.9449   34.0880 C   0  0  1  0  0  0  0  0  0  0  0  0
   13.7436   12.4710   32.5283 O   0  0  0  0  0  0  0  0  0  0  0  0
   10.8893   17.3582   32.8397 C   0  0  2  0  0  0  0  0  0  0  0  0
    6.6633   18.7673   30.1101 O   0  0  0  0  0  0  0  0  0  0  0  0
   12.1406   15.7443   31.5657 C   0  0  1  0  0  0  0  0  0  0  0  0
    8.5182   20.2345   28.6418 O   0  0  0  0  0  0  0  0  0  0  0  0
   14.2396   16.2045   32.6793 C   0  0  2  0  0  0  0  0  0  0  0  0
   15.4705   17.1097   32.5878 C   0  0  0  0  0  0  0  0  0  0  0  0
   14.6563   14.7311   32.6089 C   0  0  2  0  0  0  0  0  0  0  0  0
   13.4026   13.8552   32.6566 C   0  0  1  0  0  0  0  0  0  0  0  0
   12.4506   14.2446   31.5234 C   0  0  1  0  0  0  0  0  0  0  0  0
    7.8866   19.1644   30.7372 C   0  0  2  0  0  0  0  0  0  0  0  0
    8.5126   20.3843   30.0640 C   0  0  1  0  0  0  0  0  0  0  0  0
  3  1  1  0  0  0  0
  4  1  1  1  0  0  0
  4  6  1  0  0  0  0
  4 31  1  0  0  0  0
  6  7  1  0  0  0  0
  7  9  1  1  0  0  0
  7 30  1  0  0  0  0
 10  9  1  6  0  0  0
 10 13  1  0  0  0  0
 10 21  1  0  0  0  0
 13 12  1  1  0  0  0
 13 15  1  0  0  0  0
 15  2  1  6  0  0  0
 15 17  1  0  0  0  0
 16 25  1  0  0  0  0
 17 19  1  0  0  0  0
 19  5  1  6  0  0  0
 19 21  1  0  0  0  0
 21 14  1  1  0  0  0
 23 14  1  1  0  0  0
 23 16  1  0  0  0  0
 23 29  1  0  0  0  0
 25 26  1  6  0  0  0
 25 27  1  0  0  0  0
 26  8  1  0  0  0  0
 27 18  1  1  0  0  0
 27 28  1  0  0  0  0
 28 20  1  6  0  0  0
 28 29  1  0  0  0  0
 29 11  1  1  0  0  0
 30 22  1  6  0  0  0
 30 31  1  0  0  0  0
 31 24  1  6  0  0  0
M  END
>  <CHROM.1>
82.92611876,34.60569627,46.00690030,118.54374961,65.23494132,167.05537606
11.13330074,17.57644899,32.27535678,-2.59732810,0.51105937,-2.72879154

>  <Name>
2fcz_lig

>  <RI>
0

>  <Rbt.Current_Directory>
/home/itssahil/PROJECTS/Mol_Feturizer/New_Systems/rnas/2fcz

>  <Rbt.Executable>
rbdock ($Id: //depot/dev/client3/rdock/2013.1/src/exe/rbdock.cxx#4 $)

>  <Rbt.Library>
libRbt.so (2013.1, Build901 2013/11/27)

>  <Rbt.Parameter_File>
/export/apps/rDock/src/rDock_2013.1_src/data/scripts/dock_solv.prm

>  <Rbt.Receptor>
prm/blind_docking_40.prm

>  <SCORE>
19.805

>  <SCORE.INTER>
-4.70821

>  <SCORE.INTER.CONST>
1

>  <SCORE.INTER.POLAR>
-1.1391

>  <SCORE.INTER.ROT>
6

>  <SCORE.INTER.SOLV>
20.6862

>  <SCORE.INTER.VDW>
-13.8372

>  <SCORE.INTER.norm>
-0.151878

>  <SCORE.INTRA>
14.5145

>  <SCORE.INTRA.DIHEDRAL>
2.3886

>  <SCORE.INTRA.DIHEDRAL.0>
10.8409

>  <SCORE.INTRA.POLAR>
0

>  <SCORE.INTRA.POLAR.0>
0

>  <SCORE.INTRA.REPUL>
0

>  <SCORE.INTRA.REPUL.0>
0

>  <SCORE.INTRA.SOLV>
5.61025

>  <SCORE.INTRA.SOLV.lig_0>
-80.8302

>  <SCORE.INTRA.VDW>
10.5151

>  <SCORE.INTRA.VDW.0>
-4.23953

>  <SCORE.INTRA.norm>
0.468209

>  <SCORE.RESTR>
9.99877

>  <SCORE.RESTR.CAVITY>
9.99877

>  <SCORE.RESTR.norm>
0.322541

>  <SCORE.SYSTEM>
0

>  <SCORE.SYSTEM.CONST>
0

>  <SCORE.SYSTEM.DIHEDRAL>
0

>  <SCORE.SYSTEM.SOLV>
0

>  <SCORE.SYSTEM.norm>
0

>  <SCORE.heavy>
31

>  <SCORE.norm>
0.638872

>  <RMSD>
7.183

$$$$
2fcz_lig
 OpenBabel11021811433D
libRbt.so/2013.1/901 2013/11/27
 31 33  0  0  0  0  0  0  0  0999 V2000
    8.2848   19.9600   32.9533 C   0  0  0  0  0  0  0  0  0  0  0  0
   13.6752   19.1685   34.9948 N   0  0  0  0  0  0  0  0  0  0  0  0
    7.9259   18.7788   33.6754 O   0  0  0  0  0  0  0  0  0  0  0  0
    9.2047   19.5897   31.7849 C   0  0  1  0  0  0  0  0  0  0  0  0
   14.9474   16.2761   31.2581 N   0  0  0  0  0  0  0  0  0  0  0  0
   10.2963   18.7493   32.2113 O   0  0  0  0  0  0  0  0  0  0  0  0
   10.0935   17.4088   31.7217 C   0  0  1  0  0  0  0  0  0  0  0  0
    9.5919   13.0113   35.4520 N   0  0  0  0  0  0  0  0  0  0  0  0
   10.3416   16.4095   32.7253 O   0  0  0  0  0  0  0  0  0  0  0  0
   11.6824   16.4133   33.2441 C   0  0  2  0  0  0  0  0  0  0  0  0
   13.6818   12.5576   30.3852 N   0  0  0  0  0  0  0  0  0  0  0  0
   11.1254   17.9374   35.0387 O   0  0  0  0  0  0  0  0  0  0  0  0
   11.9668   17.7728   33.8946 C   0  0  1  0  0  0  0  0  0  0  0  0
   12.5937   14.7744   31.6481 O   0  0  0  0  0  0  0  0  0  0  0  0
   13.4285   17.8786   34.3356 C   0  0  1  0  0  0  0  0  0  0  0  0
   12.8126   13.8021   33.7880 O   0  0  0  0  0  0  0  0  0  0  0  0
   14.3544   17.7368   33.1255 C   0  0  0  0  0  0  0  0  0  0  0  0
    9.9971   11.4658   33.3606 O   0  0  0  0  0  0  0  0  0  0  0  0
   14.1293   16.3691   32.4778 C   0  0  1  0  0  0  0  0  0  0  0  0
   11.8266   10.5909   31.3257 O   0  0  0  0  0  0  0  0  0  0  0  0
   12.6614   16.1343   32.1053 C   0  0  2  0  0  0  0  0  0  0  0  0
    8.3256   16.3547   30.3513 O   0  0  0  0  0  0  0  0  0  0  0  0
   13.3449   13.8525   32.4512 C   0  0  1  0  0  0  0  0  0  0  0  0
    9.0651   18.8821   29.4488 O   0  0  0  0  0  0  0  0  0  0  0  0
   11.4513   13.3459   33.8707 C   0  0  2  0  0  0  0  0  0  0  0  0
   11.0116   13.3752   35.3366 C   0  0  0  0  0  0  0  0  0  0  0  0
   11.3528   11.9211   33.3141 C   0  0  2  0  0  0  0  0  0  0  0  0
   11.8415   11.9170   31.8641 C   0  0  1  0  0  0  0  0  0  0  0  0
   13.2659   12.4718   31.7920 C   0  0  1  0  0  0  0  0  0  0  0  0
    8.6208   17.3748   31.3103 C   0  0  2  0  0  0  0  0  0  0  0  0
    8.4467   18.7787   30.7340 C   0  0  1  0  0  0  0  0  0  0  0  0
  3  1  1  0  0  0  0
  4  1  1  1  0  0  0
  4  6  1  0  0  0  0
  4 31  1  0  0  0  0
  6  7  1  0  0  0  0
  7  9  1  1  0  0  0
  7 30  1  0  0  0  0
 10  9  1  6  0  0  0
 10 13  1  0  0  0  0
 10 21  1  0  0  0  0
 13 12  1  1  0  0  0
 13 15  1  0  0  0  0
 15  2  1  6  0  0  0
 15 17  1  0  0  0  0
 16 25  1  0  0  0  0
 17 19  1  0  0  0  0
 19  5  1  6  0  0  0
 19 21  1  0  0  0  0
 21 14  1  1  0  0  0
 23 14  1  6  0  0  0
 23 16  1  0  0  0  0
 23 29  1  0  0  0  0
 25 26  1  1  0  0  0
 25 27  1  0  0  0  0
 26  8  1  0  0  0  0
 27 18  1  6  0  0  0
 27 28  1  0  0  0  0
 28 20  1  1  0  0  0
 28 29  1  0  0  0  0
 29 11  1  6  0  0  0
 30 22  1  6  0  0  0
 30 31  1  0  0  0  0
 31 24  1  6  0  0  0
M  END
>  <CHROM.1>
-49.79970786,-60.48832954,60.57621812,-81.94166548,63.19644398,175.76772843
11.28659818,15.83898410,32.63641357,1.97352521,-0.28294869,0.06310308

>  <Name>
2fcz_lig

>  <RI>
0

>  <Rbt.Current_Directory>
/home/itssahil/PROJECTS/Mol_Feturizer/New_Systems/rnas/2fcz

>  <Rbt.Executable>
rbdock ($Id: //depot/dev/client3/rdock/2013.1/src/exe/rbdock.cxx#4 $)

>  <Rbt.Library>
libRbt.so (2013.1, Build901 2013/11/27)

>  <Rbt.Parameter_File>
/export/apps/rDock/src/rDock_2013.1_src/data/scripts/dock_solv.prm

>  <Rbt.Receptor>
prm/blind_docking_40.prm

>  <SCORE>
7.67461

>  <SCORE.INTER>
-7.33746

>  <SCORE.INTER.CONST>
1

>  <SCORE.INTER.POLAR>
-0.201911

>  <SCORE.INTER.ROT>
6

>  <SCORE.INTER.SOLV>
19.3621

>  <SCORE.INTER.VDW>
-18.2727

>  <SCORE.INTER.norm>
-0.236692

>  <SCORE.INTRA>
1.923

>  <SCORE.INTRA.DIHEDRAL>
-8.11039

>  <SCORE.INTRA.DIHEDRAL.0>
10.8409

>  <SCORE.INTRA.POLAR>
0

>  <SCORE.INTRA.POLAR.0>
0

>  <SCORE.INTRA.REPUL>
0

>  <SCORE.INTRA.REPUL.0>
0

>  <SCORE.INTRA.SOLV>
-0.501268

>  <SCORE.INTRA.SOLV.lig_0>
-80.8302

>  <SCORE.INTRA.VDW>
6.22883

>  <SCORE.INTRA.VDW.0>
-4.23953

>  <SCORE.INTRA.norm>
0.0620322

>  <SCORE.RESTR>
13.0891

>  <SCORE.RESTR.CAVITY>
13.0891

>  <SCORE.RESTR.norm>
0.422228

>  <SCORE.SYSTEM>
0

>  <SCORE.SYSTEM.CONST>
0

>  <SCORE.SYSTEM.DIHEDRAL>
0

>  <SCORE.SYSTEM.SOLV>
0

>  <SCORE.SYSTEM.norm>
0

>  <SCORE.heavy>
31

>  <SCORE.norm>
0.247568

>  <RMSD>
7.191

$$$$
2fcz_lig
 OpenBabel11021811433D
libRbt.so/2013.1/901 2013/11/27
 31 33  0  0  0  0  0  0  0  0999 V2000
    7.9028   18.7884   30.6925 C   0  0  0  0  0  0  0  0  0  0  0  0
    7.5578   14.2955   35.2842 N   0  0  0  0  0  0  0  0  0  0  0  0
    7.1986   19.7262   29.8737 O   0  0  0  0  0  0  0  0  0  0  0  0
    7.8382   19.2336   32.1574 C   0  0  1  0  0  0  0  0  0  0  0  0
   10.1585   17.1260   38.3128 N   0  0  0  0  0  0  0  0  0  0  0  0
    8.3752   18.2307   33.0437 O   0  0  0  0  0  0  0  0  0  0  0  0
    9.6425   18.6766   33.5661 C   0  0  1  0  0  0  0  0  0  0  0  0
   13.8838   16.3278   31.6745 N   0  0  0  0  0  0  0  0  0  0  0  0
   10.6481   17.6496   33.5306 O   0  0  0  0  0  0  0  0  0  0  0  0
   10.4905   16.6333   34.5352 C   0  0  2  0  0  0  0  0  0  0  0  0
   14.0532   18.0883   37.9816 N   0  0  0  0  0  0  0  0  0  0  0  0
    9.1008   15.2555   33.1124 O   0  0  0  0  0  0  0  0  0  0  0  0
    9.1252   15.9574   34.3578 C   0  0  1  0  0  0  0  0  0  0  0  0
   11.9551   17.6835   36.2132 O   0  0  0  0  0  0  0  0  0  0  0  0
    8.8490   14.9659   35.4905 C   0  0  1  0  0  0  0  0  0  0  0  0
   12.9974   15.8067   35.2314 O   0  0  0  0  0  0  0  0  0  0  0  0
    8.8384   15.6946   36.8361 C   0  0  0  0  0  0  0  0  0  0  0  0
   15.4741   17.7746   33.3442 O   0  0  0  0  0  0  0  0  0  0  0  0
   10.2043   16.3438   37.0672 C   0  0  1  0  0  0  0  0  0  0  0  0
   16.1599   18.3851   36.0664 O   0  0  0  0  0  0  0  0  0  0  0  0
   10.6113   17.2719   35.9174 C   0  0  2  0  0  0  0  0  0  0  0  0
   10.9766   20.7344   33.2490 O   0  0  0  0  0  0  0  0  0  0  0  0
   12.8632   16.5936   36.4297 C   0  0  1  0  0  0  0  0  0  0  0  0
    8.2491   21.2165   33.5274 O   0  0  0  0  0  0  0  0  0  0  0  0
   13.5346   16.5221   34.1056 C   0  0  2  0  0  0  0  0  0  0  0  0
   13.5892   15.5764   32.9032 C   0  0  0  0  0  0  0  0  0  0  0  0
   14.9395   17.0328   34.4449 C   0  0  2  0  0  0  0  0  0  0  0  0
   14.8577   17.9374   35.6763 C   0  0  1  0  0  0  0  0  0  0  0  0
   14.2188   17.1771   36.8407 C   0  0  1  0  0  0  0  0  0  0  0  0
   10.0470   19.8292   32.6456 C   0  0  2  0  0  0  0  0  0  0  0  0
    8.6912   20.4819   32.3829 C   0  0  1  0  0  0  0  0  0  0  0  0
  3  1  1  0  0  0  0
  4  1  1  6  0  0  0
  4  6  1  0  0  0  0
  4 31  1  0  0  0  0
  6  7  1  0  0  0  0
  7  9  1  6  0  0  0
  7 30  1  0  0  0  0
 10  9  1  6  0  0  0
 10 13  1  0  0  0  0
 10 21  1  0  0  0  0
 13 12  1  6  0  0  0
 13 15  1  0  0  0  0
 15  2  1  6  0  0  0
 15 17  1  0  0  0  0
 16 25  1  0  0  0  0
 17 19  1  0  0  0  0
 19  5  1  1  0  0  0
 19 21  1  0  0  0  0
 21 14  1  1  0  0  0
 23 14  1  6  0  0  0
 23 16  1  0  0  0  0
 23 29  1  0  0  0  0
 25 26  1  6  0  0  0
 25 27  1  0  0  0  0
 26  8  1  0  0  0  0
 27 18  1  6  0  0  0
 27 28  1  0  0  0  0
 28 20  1  1  0  0  0
 28 29  1  0  0  0  0
 29 11  1  1  0  0  0
 30 22  1  1  0  0  0
 30 31  1  0  0  0  0
 31 24  1  1  0  0  0
M  END
>  <CHROM.1>
172.14035627,-74.84043054,59.28116657,-70.29390477,63.51661703,169.08189569
11.06534450,17.55086495,34.36304111,-2.59156149,0.13129088,2.24620652

>  <Name>
2fcz_lig

>  <RI>
1.32928e+07

>  <Rbt.Current_Directory>
/home/itssahil/PROJECTS/Mol_Feturizer/New_Systems/rnas/2fcz

>  <Rbt.Executable>
rbdock ($Id: //depot/dev/client3/rdock/2013.1/src/exe/rbdock.cxx#4 $)

>  <Rbt.Library>
libRbt.so (2013.1, Build901 2013/11/27)

>  <Rbt.Parameter_File>
/export/apps/rDock/src/rDock_2013.1_src/data/scripts/dock_solv.prm

>  <Rbt.Receptor>
prm/pocket_docking_7.prm

>  <SCORE>
-16.1176

>  <SCORE.INTER>
-15.3647

>  <SCORE.INTER.CONST>
1

>  <SCORE.INTER.POLAR>
-2.69903

>  <SCORE.INTER.ROT>
6

>  <SCORE.INTER.SOLV>
15.5357

>  <SCORE.INTER.VDW>
-14.025

>  <SCORE.INTER.norm>
-0.495637

>  <SCORE.INTRA>
-0.75288

>  <SCORE.INTRA.DIHEDRAL>
-8.47271

>  <SCORE.INTRA.DIHEDRAL.0>
10.8409

>  <SCORE.INTRA.POLAR>
0

>  <SCORE.INTRA.POLAR.0>
0

>  <SCORE.INTRA.REPUL>
0

>  <SCORE.INTRA.REPUL.0>
0

>  <SCORE.INTRA.SOLV>
-1.51111

>  <SCORE.INTRA.SOLV.lig_0>
-80.8302

>  <SCORE.INTRA.VDW>
4.23903

>  <SCORE.INTRA.VDW.0>
-4.23953

>  <SCORE.INTRA.norm>
-0.0242864

>  <SCORE.RESTR>
0

>  <SCORE.RESTR.CAVITY>
0

>  <SCORE.RESTR.norm>
0

>  <SCORE.SYSTEM>
0

>  <SCORE.SYSTEM.CONST>
0

>  <SCORE.SYSTEM.DIHEDRAL>
0

>  <SCORE.SYSTEM.SOLV>
0

>  <SCORE.SYSTEM.norm>
0

>  <SCORE.heavy>
31

>  <SCORE.norm>
-0.519923

>  <RMSD>
7.194

$$$$
2fcz_lig
 OpenBabel11021811433D
libRbt.so/2013.1/901 2013/11/27
 31 33  0  0  0  0  0  0  0  0999 V2000
    6.8613   20.4377   31.8729 C   0  0  0  0  0  0  0  0  0  0  0  0
   12.1300   21.1942   34.8445 N   0  0  0  0  0  0  0  0  0  0  0  0
    7.1834   21.0445   33.1273 O   0  0  0  0  0  0  0  0  0  0  0  0
    8.1492   20.1550   31.0919 C   0  0  1  0  0  0  0  0  0  0  0  0
   14.3812   17.4317   32.6713 N   0  0  0  0  0  0  0  0  0  0  0  0
    9.2021   19.6785   31.9545 O   0  0  0  0  0  0  0  0  0  0  0  0
    9.4302   18.2766   31.7090 C   0  0  1  0  0  0  0  0  0  0  0  0
   16.1729   12.8860   32.4341 N   0  0  0  0  0  0  0  0  0  0  0  0
    9.5528   17.5148   32.9222 O   0  0  0  0  0  0  0  0  0  0  0  0
   10.7199   17.8280   33.7012 C   0  0  2  0  0  0  0  0  0  0  0  0
   10.5486   14.6033   31.0384 N   0  0  0  0  0  0  0  0  0  0  0  0
    9.6870   19.7683   34.7124 O   0  0  0  0  0  0  0  0  0  0  0  0
   10.7929   19.3456   33.9109 C   0  0  1  0  0  0  0  0  0  0  0  0
   12.0489   15.8807   32.9905 O   0  0  0  0  0  0  0  0  0  0  0  0
   12.0936   19.7437   34.6123 C   0  0  1  0  0  0  0  0  0  0  0  0
   14.0565   14.8720   32.2658 O   0  0  0  0  0  0  0  0  0  0  0  0
   13.2972   19.3310   33.7620 C   0  0  0  0  0  0  0  0  0  0  0  0
   13.2710   11.5611   33.6759 O   0  0  0  0  0  0  0  0  0  0  0  0
   13.2810   17.8131   33.5711 C   0  0  1  0  0  0  0  0  0  0  0  0
   11.1903   11.8991   31.7240 O   0  0  0  0  0  0  0  0  0  0  0  0
   11.9608   17.3141   32.9738 C   0  0  2  0  0  0  0  0  0  0  0  0
    8.4143   16.6407   30.1577 O   0  0  0  0  0  0  0  0  0  0  0  0
   12.7502   15.3278   31.8671 C   0  0  1  0  0  0  0  0  0  0  0  0
    8.8758   19.1279   28.9956 O   0  0  0  0  0  0  0  0  0  0  0  0
   14.0473   13.8255   33.2520 C   0  0  2  0  0  0  0  0  0  0  0  0
   15.4939   13.4671   33.6014 C   0  0  0  0  0  0  0  0  0  0  0  0
   13.3158   12.5999   32.6929 C   0  0  2  0  0  0  0  0  0  0  0  0
   11.8894   13.0013   32.3114 C   0  0  1  0  0  0  0  0  0  0  0  0
   11.9229   14.1625   31.3152 C   0  0  1  0  0  0  0  0  0  0  0  0
    8.1921   17.8214   30.9348 C   0  0  2  0  0  0  0  0  0  0  0  0
    7.9270   19.0470   30.0625 C   0  0  1  0  0  0  0  0  0  0  0  0
  3  1  1  0  0  0  0
  4  1  1  1  0  0  0
  4  6  1  0  0  0  0
  4 31  1  0  0  0  0
  6  7  1  0  0  0  0
  7  9  1  1  0  0  0
  7 30  1  0  0  0  0
 10  9  1  6  0  0  0
 10 13  1  0  0  0  0
 10 21  1  0  0  0  0
 13 12  1  1  0  0  0
 13 15  1  0  0  0  0
 15  2  1  6  0  0  0
 15 17  1  0  0  0  0
 16 25  1  0  0  0  0
 17 19  1  0  0  0  0
 19  5  1  6  0  0  0
 19 21  1  0  0  0  0
 21 14  1  1  0  0  0
 23 14  1  1  0  0  0
 23 16  1  0  0  0  0
 23 29  1  0  0  0  0
 25 26  1  6  0  0  0
 25 27  1  0  0  0  0
 26  8  1  0  0  0  0
 27 18  1  1  0  0  0
 27 28  1  0  0  0  0
 28 20  1  6  0  0  0
 28 29  1  0  0  0  0
 29 11  1  1  0  0  0
 30 22  1  6  0  0  0
 30 31  1  0  0  0  0
 31 24  1  6  0  0  0
M  END
>  <CHROM.1>
39.72443307,-66.61623466,51.18684810,151.82091361,105.81843026,-65.27627473
11.21442651,16.88675934,32.46746472,2.36324569,-0.53618202,0.39003549

>  <Name>
2fcz_lig

>  <RI>
0

>  <Rbt.Current_Directory>
/home/itssahil/PROJECTS/Mol_Feturizer/New_Systems/rnas/2fcz

>  <Rbt.Executable>
rbdock ($Id: //depot/dev/client3/rdock/2013.1/src/exe/rbdock.cxx#4 $)

>  <Rbt.Library>
libRbt.so (2013.1, Build901 2013/11/27)

>  <Rbt.Parameter_File>
/export/apps/rDock/src/rDock_2013.1_src/data/scripts/dock_solv.prm

>  <Rbt.Receptor>
prm/blind_docking_40.prm

>  <SCORE>
12.3475

>  <SCORE.INTER>
-5.50542

>  <SCORE.INTER.CONST>
1

>  <SCORE.INTER.POLAR>
-0.948721

>  <SCORE.INTER.ROT>
6

>  <SCORE.INTER.SOLV>
20.0204

>  <SCORE.INTER.VDW>
-14.7814

>  <SCORE.INTER.norm>
-0.177594

>  <SCORE.INTRA>
5.71198

>  <SCORE.INTRA.DIHEDRAL>
0.773077

>  <SCORE.INTRA.DIHEDRAL.0>
10.8409

>  <SCORE.INTRA.POLAR>
0

>  <SCORE.INTRA.POLAR.0>
0

>  <SCORE.INTRA.REPUL>
0

>  <SCORE.INTRA.REPUL.0>
0

>  <SCORE.INTRA.SOLV>
2.69847

>  <SCORE.INTRA.SOLV.lig_0>
-80.8302

>  <SCORE.INTRA.VDW>
3.97621

>  <SCORE.INTRA.VDW.0>
-4.23953

>  <SCORE.INTRA.norm>
0.184257

>  <SCORE.RESTR>
12.1409

>  <SCORE.RESTR.CAVITY>
12.1409

>  <SCORE.RESTR.norm>
0.391644

>  <SCORE.SYSTEM>
0

>  <SCORE.SYSTEM.CONST>
0

>  <SCORE.SYSTEM.DIHEDRAL>
0

>  <SCORE.SYSTEM.SOLV>
0

>  <SCORE.SYSTEM.norm>
0

>  <SCORE.heavy>
31

>  <SCORE.norm>
0.398307

>  <RMSD>
7.201

$$$$
2fcz_lig
 OpenBabel11021811433D
libRbt.so/2013.1/901 2013/11/27
 31 33  0  0  0  0  0  0  0  0999 V2000
    8.7712   20.7621   33.2609 C   0  0  0  0  0  0  0  0  0  0  0  0
   15.9627   23.8052   28.8494 N   0  0  0  0  0  0  0  0  0  0  0  0
    7.3455   20.6535   33.2919 O   0  0  0  0  0  0  0  0  0  0  0  0
    9.1711   22.2183   32.9995 C   0  0  1  0  0  0  0  0  0  0  0  0
   16.7268   21.2097   32.9270 N   0  0  0  0  0  0  0  0  0  0  0  0
   10.6035   22.3847   32.9920 O   0  0  0  0  0  0  0  0  0  0  0  0
   11.0548   22.6245   31.6441 C   0  0  1  0  0  0  0  0  0  0  0  0
   14.2538   16.6470   34.6716 N   0  0  0  0  0  0  0  0  0  0  0  0
   12.2171   21.8498   31.3034 O   0  0  0  0  0  0  0  0  0  0  0  0
   13.4617   22.5526   31.4577 C   0  0  2  0  0  0  0  0  0  0  0  0
   11.9967   22.1918   35.4484 N   0  0  0  0  0  0  0  0  0  0  0  0
   13.1825   23.7720   29.3868 O   0  0  0  0  0  0  0  0  0  0  0  0
   14.0427   22.8581   30.0716 C   0  0  1  0  0  0  0  0  0  0  0  0
   14.0337   21.6080   33.6587 O   0  0  0  0  0  0  0  0  0  0  0  0
   15.4372   23.4789   30.1823 C   0  0  1  0  0  0  0  0  0  0  0  0
   13.6823   19.2811   33.8453 O   0  0  0  0  0  0  0  0  0  0  0  0
   16.3901   22.5094   30.8851 C   0  0  0  0  0  0  0  0  0  0  0  0
   15.2253   18.9969   37.1779 O   0  0  0  0  0  0  0  0  0  0  0  0
   15.8636   22.2180   32.2918 C   0  0  1  0  0  0  0  0  0  0  0  0
   12.9784   20.7112   37.6931 O   0  0  0  0  0  0  0  0  0  0  0  0
   14.4229   21.6955   32.2790 C   0  0  2  0  0  0  0  0  0  0  0  0
    9.8855   22.8067   29.4729 O   0  0  0  0  0  0  0  0  0  0  0  0
   13.0682   20.5808   33.9268 C   0  0  1  0  0  0  0  0  0  0  0  0
    8.5590   24.0933   31.5548 O   0  0  0  0  0  0  0  0  0  0  0  0
   14.7372   19.0595   34.7972 C   0  0  2  0  0  0  0  0  0  0  0  0
   15.3149   17.6598   34.5733 C   0  0  0  0  0  0  0  0  0  0  0  0
   14.1793   19.1835   36.2195 C   0  0  2  0  0  0  0  0  0  0  0  0
   13.5694   20.5756   36.3966 C   0  0  1  0  0  0  0  0  0  0  0  0
   12.4990   20.8159   35.3296 C   0  0  1  0  0  0  0  0  0  0  0  0
    9.8747   22.1998   30.7686 C   0  0  2  0  0  0  0  0  0  0  0  0
    8.6965   22.6714   31.6188 C   0  0  1  0  0  0  0  0  0  0  0  0
  3  1  1  0  0  0  0
  4  1  1  6  0  0  0
  4  6  1  0  0  0  0
  4 31  1  0  0  0  0
  6  7  1  0  0  0  0
  7  9  1  6  0  0  0
  7 30  1  0  0  0  0
 10  9  1  6  0  0  0
 10 13  1  0  0  0  0
 10 21  1  0  0  0  0
 13 12  1  1  0  0  0
 13 15  1  0  0  0  0
 15  2  1  6  0  0  0
 15 17  1  0  0  0  0
 16 25  1  0  0  0  0
 17 19  1  0  0  0  0
 19  5  1  6  0  0  0
 19 21  1  0  0  0  0
 21 14  1  1  0  0  0
 23 14  1  1  0  0  0
 23 16  1  0  0  0  0
 23 29  1  0  0  0  0
 25 26  1  1  0  0  0
 25 27  1  0  0  0  0
 26  8  1  0  0  0  0
 27 18  1  1  0  0  0
 27 28  1  0  0  0  0
 28 20  1  1  0  0  0
 28 29  1  0  0  0  0
 29 11  1  6  0  0  0
 30 22  1  6  0  0  0
 30 31  1  0  0  0  0
 31 24  1  1  0  0  0
M  END
>  <CHROM.1>
178.57515886,-96.39774625,-108.84626567,84.88348134,72.59335040,-56.45881306
12.76452154,21.41132717,32.94182429,2.19304570,0.10328028,-0.98483604

>  <Name>
2fcz_lig

>  <RI>
2.6968e+07

>  <Rbt.Current_Directory>
/home/itssahil/PROJECTS/Mol_Feturizer/New_Systems/rnas/2fcz

>  <Rbt.Executable>
rbdock ($Id: //depot/dev/client3/rdock/2013.1/src/exe/rbdock.cxx#4 $)

>  <Rbt.Library>
libRbt.so (2013.1, Build901 2013/11/27)

>  <Rbt.Parameter_File>
/export/apps/rDock/src/rDock_2013.1_src/data/scripts/dock_solv.prm

>  <Rbt.Receptor>
prm/blind_docking_60.prm

>  <SCORE>
-18.571

>  <SCORE.INTER>
-20.8438

>  <SCORE.INTER.CONST>
1

>  <SCORE.INTER.POLAR>
-2.65177

>  <SCORE.INTER.ROT>
6

>  <SCORE.INTER.SOLV>
16.5234

>  <SCORE.INTER.VDW>
-18.1645

>  <SCORE.INTER.norm>
-0.672382

>  <SCORE.INTRA>
2.27281

>  <SCORE.INTRA.DIHEDRAL>
4.00961

>  <SCORE.INTRA.DIHEDRAL.0>
10.8409

>  <SCORE.INTRA.POLAR>
0

>  <SCORE.INTRA.POLAR.0>
0

>  <SCORE.INTRA.REPUL>
0

>  <SCORE.INTRA.REPUL.0>
0

>  <SCORE.INTRA.SOLV>
0.87987

>  <SCORE.INTRA.SOLV.lig_0>
-80.8302

>  <SCORE.INTRA.VDW>
-0.171935

>  <SCORE.INTRA.VDW.0>
-4.23953

>  <SCORE.INTRA.norm>
0.0733163

>  <SCORE.RESTR>
0

>  <SCORE.RESTR.CAVITY>
0

>  <SCORE.RESTR.norm>
0

>  <SCORE.SYSTEM>
0

>  <SCORE.SYSTEM.CONST>
0

>  <SCORE.SYSTEM.DIHEDRAL>
0

>  <SCORE.SYSTEM.SOLV>
0

>  <SCORE.SYSTEM.norm>
0

>  <SCORE.heavy>
31

>  <SCORE.norm>
-0.599065

>  <RMSD>
7.206

$$$$
2fcz_lig
 OpenBabel11021811433D
libRbt.so/2013.1/901 2013/11/27
 31 33  0  0  0  0  0  0  0  0999 V2000
    9.7582   20.6793   34.4612 C   0  0  0  0  0  0  0  0  0  0  0  0
   15.0588   26.8452   35.6016 N   0  0  0  0  0  0  0  0  0  0  0  0
   10.9559   19.9548   34.1677 O   0  0  0  0  0  0  0  0  0  0  0  0
    9.9308   22.1464   34.0532 C   0  0  1  0  0  0  0  0  0  0  0  0
   17.2917   22.7060   36.9537 N   0  0  0  0  0  0  0  0  0  0  0  0
   11.1054   22.7314   34.6512 O   0  0  0  0  0  0  0  0  0  0  0  0
   12.1128   22.9328   33.6400 C   0  0  1  0  0  0  0  0  0  0  0  0
   18.4882   19.6911   32.9894 N   0  0  0  0  0  0  0  0  0  0  0  0
   13.4180   22.5063   34.0662 O   0  0  0  0  0  0  0  0  0  0  0  0
   13.9263   23.2132   35.2103 C   0  0  2  0  0  0  0  0  0  0  0  0
   13.7190   19.0718   37.4592 N   0  0  0  0  0  0  0  0  0  0  0  0
   12.9392   25.3111   34.5187 O   0  0  0  0  0  0  0  0  0  0  0  0
   14.1826   24.6756   34.8256 C   0  0  1  0  0  0  0  0  0  0  0  0
   14.9628   21.2606   36.2950 O   0  0  0  0  0  0  0  0  0  0  0  0
   14.8587   25.4365   35.9685 C   0  0  1  0  0  0  0  0  0  0  0  0
   15.0322   20.2326   34.1711 O   0  0  0  0  0  0  0  0  0  0  0  0
   16.2089   24.7969   36.2997 C   0  0  0  0  0  0  0  0  0  0  0  0
   17.7687   17.9215   35.0303 O   0  0  0  0  0  0  0  0  0  0  0  0
   15.9855   23.3466   36.7329 C   0  0  1  0  0  0  0  0  0  0  0  0
   15.6856   17.0904   36.8256 O   0  0  0  0  0  0  0  0  0  0  0  0
   15.2108   22.5379   35.6868 C   0  0  2  0  0  0  0  0  0  0  0  0
   12.1822   22.4971   31.2069 O   0  0  0  0  0  0  0  0  0  0  0  0
   14.3265   20.3148   35.4233 C   0  0  1  0  0  0  0  0  0  0  0  0
    9.7614   23.5665   32.0703 O   0  0  0  0  0  0  0  0  0  0  0  0
   16.3930   19.7809   34.2823 C   0  0  2  0  0  0  0  0  0  0  0  0
   17.0240   19.7747   32.8877 C   0  0  0  0  0  0  0  0  0  0  0  0
   16.4183   18.3714   34.8840 C   0  0  2  0  0  0  0  0  0  0  0  0
   15.7408   18.4021   36.2556 C   0  0  1  0  0  0  0  0  0  0  0  0
   14.3188   18.9519   36.1230 C   0  0  1  0  0  0  0  0  0  0  0  0
   11.6458   22.0736   32.4640 C   0  0  2  0  0  0  0  0  0  0  0  0
   10.1329   22.2690   32.5429 C   0  0  1  0  0  0  0  0  0  0  0  0
  3  1  1  0  0  0  0
  4  1  1  6  0  0  0
  4  6  1  0  0  0  0
  4 31  1  0  0  0  0
  6  7  1  0  0  0  0
  7  9  1  1  0  0  0
  7 30  1  0  0  0  0
 10  9  1  6  0  0  0
 10 13  1  0  0  0  0
 10 21  1  0  0  0  0
 13 12  1  1  0  0  0
 13 15  1  0  0  0  0
 15  2  1  6  0  0  0
 15 17  1  0  0  0  0
 16 25  1  0  0  0  0
 17 19  1  0  0  0  0
 19  5  1  6  0  0  0
 19 21  1  0  0  0  0
 21 14  1  1  0  0  0
 23 14  1  1  0  0  0
 23 16  1  0  0  0  0
 23 29  1  0  0  0  0
 25 26  1  6  0  0  0
 25 27  1  0  0  0  0
 26  8  1  0  0  0  0
 27 18  1  1  0  0  0
 27 28  1  0  0  0  0
 28 20  1  6  0  0  0
 28 29  1  0  0  0  0
 29 11  1  1  0  0  0
 30 22  1  6  0  0  0
 30 31  1  0  0  0  0
 31 24  1  1  0  0  0
M  END
>  <CHROM.1>
-53.89059403,-61.56045097,-66.71395968,59.81370909,50.62967842,164.10790943
14.05478247,21.62954911,34.74188862,2.51147197,-0.39815977,0.06952151

>  <Name>
2fcz_lig

>  <RI>
0

>  <Rbt.Current_Directory>
/home/itssahil/PROJECTS/Mol_Feturizer/New_Systems/rnas/2fcz

>  <Rbt.Executable>
rbdock ($Id: //depot/dev/client3/rdock/2013.1/src/exe/rbdock.cxx#4 $)

>  <Rbt.Library>
libRbt.so (2013.1, Build901 2013/11/27)

>  <Rbt.Parameter_File>
/export/apps/rDock/src/rDock_2013.1_src/data/scripts/dock_solv.prm

>  <Rbt.Receptor>
prm/blind_docking_80.prm

>  <SCORE>
-13.1702

>  <SCORE.INTER>
-10.3929

>  <SCORE.INTER.CONST>
1

>  <SCORE.INTER.POLAR>
-0.888554

>  <SCORE.INTER.ROT>
6

>  <SCORE.INTER.SOLV>
17.0856

>  <SCORE.INTER.VDW>
-17.2619

>  <SCORE.INTER.norm>
-0.335254

>  <SCORE.INTRA>
-2.77983

>  <SCORE.INTRA.DIHEDRAL>
-9.02878

>  <SCORE.INTRA.DIHEDRAL.0>
10.8409

>  <SCORE.INTRA.POLAR>
0

>  <SCORE.INTRA.POLAR.0>
0

>  <SCORE.INTRA.REPUL>
0

>  <SCORE.INTRA.REPUL.0>
0

>  <SCORE.INTRA.SOLV>
-2.38237

>  <SCORE.INTRA.SOLV.lig_0>
-80.8302

>  <SCORE.INTRA.VDW>
2.92574

>  <SCORE.INTRA.VDW.0>
-4.23953

>  <SCORE.INTRA.norm>
-0.0896721

>  <SCORE.RESTR>
0.00247878

>  <SCORE.RESTR.CAVITY>
0.00247878

>  <SCORE.RESTR.norm>
7.99605e-05

>  <SCORE.SYSTEM>
0

>  <SCORE.SYSTEM.CONST>
0

>  <SCORE.SYSTEM.DIHEDRAL>
0

>  <SCORE.SYSTEM.SOLV>
0

>  <SCORE.SYSTEM.norm>
0

>  <SCORE.heavy>
31

>  <SCORE.norm>
-0.424846

>  <RMSD>
7.213

$$$$
2fcz_lig
 OpenBabel11021811433D
libRbt.so/2013.1/901 2013/11/27
 31 33  0  0  0  0  0  0  0  0999 V2000
   16.0614   24.1879   29.9538 C   0  0  0  0  0  0  0  0  0  0  0  0
   18.8641   20.3182   33.1447 N   0  0  0  0  0  0  0  0  0  0  0  0
   17.4650   23.9754   30.1274 O   0  0  0  0  0  0  0  0  0  0  0  0
   15.3463   22.8372   29.8407 C   0  0  1  0  0  0  0  0  0  0  0  0
   14.9341   17.4912   33.8592 N   0  0  0  0  0  0  0  0  0  0  0  0
   15.4897   22.0556   31.0441 O   0  0  0  0  0  0  0  0  0  0  0  0
   14.2302   22.0108   31.7438 C   0  0  1  0  0  0  0  0  0  0  0  0
    8.5104   21.1748   33.6636 N   0  0  0  0  0  0  0  0  0  0  0  0
   14.3727   22.2423   33.1556 O   0  0  0  0  0  0  0  0  0  0  0  0
   15.2318   21.3035   33.8246 C   0  0  2  0  0  0  0  0  0  0  0  0
   13.6704   19.7076   37.3240 N   0  0  0  0  0  0  0  0  0  0  0  0
   17.2205   22.6111   33.3899 O   0  0  0  0  0  0  0  0  0  0  0  0
   16.6179   21.3335   33.1688 C   0  0  1  0  0  0  0  0  0  0  0  0
   13.4436   19.7788   34.5606 O   0  0  0  0  0  0  0  0  0  0  0  0
   17.5276   20.2494   33.7516 C   0  0  1  0  0  0  0  0  0  0  0  0
   12.0603   21.6911   34.6116 O   0  0  0  0  0  0  0  0  0  0  0  0
   16.9229   18.8659   33.5027 C   0  0  0  0  0  0  0  0  0  0  0  0
    9.0681   19.8830   35.7714 O   0  0  0  0  0  0  0  0  0  0  0  0
   15.5554   18.7850   34.1841 C   0  0  1  0  0  0  0  0  0  0  0  0
   10.8869   19.5173   37.9649 O   0  0  0  0  0  0  0  0  0  0  0  0
   14.6140   19.9092   33.7384 C   0  0  2  0  0  0  0  0  0  0  0  0
   11.9964   22.9621   31.2746 O   0  0  0  0  0  0  0  0  0  0  0  0
   13.1073   20.9698   35.2871 C   0  0  1  0  0  0  0  0  0  0  0  0
   13.2415   21.9002   29.0226 O   0  0  0  0  0  0  0  0  0  0  0  0
   10.8234   20.9683   34.4866 C   0  0  2  0  0  0  0  0  0  0  0  0
    9.8208   21.8386   33.7247 C   0  0  0  0  0  0  0  0  0  0  0  0
   10.2831   20.6307   35.8807 C   0  0  2  0  0  0  0  0  0  0  0  0
   11.3257   19.8002   36.6322 C   0  0  1  0  0  0  0  0  0  0  0  0
   12.6533   20.5591   36.6915 C   0  0  1  0  0  0  0  0  0  0  0  0
   13.4076   23.1367   31.1151 C   0  0  2  0  0  0  0  0  0  0  0  0
   13.8419   23.0340   29.6542 C   0  0  1  0  0  0  0  0  0  0  0  0
  3  1  1  0  0  0  0
  4  1  1  1  0  0  0
  4  6  1  0  0  0  0
  4 31  1  0  0  0  0
  6  7  1  0  0  0  0
  7  9  1  1  0  0  0
  7 30  1  0  0  0  0
 10  9  1  6  0  0  0
 10 13  1  0  0  0  0
 10 21  1  0  0  0  0
 13 12  1  1  0  0  0
 13 15  1  0  0  0  0
 15  2  1  6  0  0  0
 15 17  1  0  0  0  0
 16 25  1  0  0  0  0
 17 19  1  0  0  0  0
 19  5  1  6  0  0  0
 19 21  1  0  0  0  0
 21 14  1  1  0  0  0
 23 14  1  6  0  0  0
 23 16  1  0  0  0  0
 23 29  1  0  0  0  0
 25 26  1  1  0  0  0
 25 27  1  0  0  0  0
 26  8  1  0  0  0  0
 27 18  1  6  0  0  0
 27 28  1  0  0  0  0
 28 20  1  1  0  0  0
 28 29  1  0  0  0  0
 29 11  1  6  0  0  0
 30 22  1  6  0  0  0
 30 31  1  0  0  0  0
 31 24  1  1  0  0  0
M  END
>  <CHROM.1>
62.53920102,-58.93135309,57.55074724,-0.27808110,99.21536913,-175.77453371
13.80979550,21.17700109,33.40265488,0.76630955,0.15443070,-0.98613250

>  <Name>
2fcz_lig

>  <RI>
1.40544e+07

>  <Rbt.Current_Directory>
/home/itssahil/PROJECTS/Mol_Feturizer/New_Systems/rnas/2fcz

>  <Rbt.Executable>
rbdock ($Id: //depot/dev/client3/rdock/2013.1/src/exe/rbdock.cxx#4 $)

>  <Rbt.Library>
libRbt.so (2013.1, Build901 2013/11/27)

>  <Rbt.Parameter_File>
/export/apps/rDock/src/rDock_2013.1_src/data/scripts/dock_solv.prm

>  <Rbt.Receptor>
prm/blind_docking_100.prm

>  <SCORE>
-7.8625

>  <SCORE.INTER>
-16.6288

>  <SCORE.INTER.CONST>
1

>  <SCORE.INTER.POLAR>
-2.01643

>  <SCORE.INTER.ROT>
6

>  <SCORE.INTER.SOLV>
18.9889

>  <SCORE.INTER.VDW>
-18.2941

>  <SCORE.INTER.norm>
-0.536413

>  <SCORE.INTRA>
7.88919

>  <SCORE.INTRA.DIHEDRAL>
1.76431

>  <SCORE.INTRA.DIHEDRAL.0>
10.8409

>  <SCORE.INTRA.POLAR>
0

>  <SCORE.INTRA.POLAR.0>
0

>  <SCORE.INTRA.REPUL>
0

>  <SCORE.INTRA.REPUL.0>
0

>  <SCORE.INTRA.SOLV>
-1.17172

>  <SCORE.INTRA.SOLV.lig_0>
-80.8302

>  <SCORE.INTRA.VDW>
7.59289

>  <SCORE.INTRA.VDW.0>
-4.23953

>  <SCORE.INTRA.norm>
0.25449

>  <SCORE.RESTR>
0.877127

>  <SCORE.RESTR.CAVITY>
0.877127

>  <SCORE.RESTR.norm>
0.0282944

>  <SCORE.SYSTEM>
0

>  <SCORE.SYSTEM.CONST>
0

>  <SCORE.SYSTEM.DIHEDRAL>
0

>  <SCORE.SYSTEM.SOLV>
0

>  <SCORE.SYSTEM.norm>
0

>  <SCORE.heavy>
31

>  <SCORE.norm>
-0.253629

>  <RMSD>
7.215

$$$$
2fcz_lig
 OpenBabel11021811433D
libRbt.so/2013.1/901 2013/11/27
 31 33  0  0  0  0  0  0  0  0999 V2000
   13.0885   22.6223   35.2692 C   0  0  0  0  0  0  0  0  0  0  0  0
    9.3189   16.0203   31.5530 N   0  0  0  0  0  0  0  0  0  0  0  0
   14.3004   21.9272   35.5752 O   0  0  0  0  0  0  0  0  0  0  0  0
   12.5855   22.1957   33.8859 C   0  0  1  0  0  0  0  0  0  0  0  0
   10.0160   15.0891   36.3064 N   0  0  0  0  0  0  0  0  0  0  0  0
   12.2531   20.7930   33.8487 O   0  0  0  0  0  0  0  0  0  0  0  0
   10.8217   20.6376   33.7796 C   0  0  1  0  0  0  0  0  0  0  0  0
    7.1365   18.7215   37.6047 N   0  0  0  0  0  0  0  0  0  0  0  0
   10.3296   19.6334   34.6833 O   0  0  0  0  0  0  0  0  0  0  0  0
   10.6776   18.2874   34.3172 C   0  0  2  0  0  0  0  0  0  0  0  0
   13.4453   18.4537   38.1514 N   0  0  0  0  0  0  0  0  0  0  0  0
   10.2301   18.6688   31.9703 O   0  0  0  0  0  0  0  0  0  0  0  0
    9.8527   17.8691   33.0938 C   0  0  1  0  0  0  0  0  0  0  0  0
   11.3477   17.5595   36.5722 O   0  0  0  0  0  0  0  0  0  0  0  0
   10.0818   16.3950   32.7516 C   0  0  1  0  0  0  0  0  0  0  0  0
    9.7877   18.9625   37.6542 O   0  0  0  0  0  0  0  0  0  0  0  0
    9.6573   15.5105   33.9260 C   0  0  0  0  0  0  0  0  0  0  0  0
    9.6115   16.9298   40.7209 O   0  0  0  0  0  0  0  0  0  0  0  0
   10.4946   15.8705   35.1549 C   0  0  1  0  0  0  0  0  0  0  0  0
   12.3564   17.7774   40.7110 O   0  0  0  0  0  0  0  0  0  0  0  0
   10.4108   17.3609   35.5019 C   0  0  2  0  0  0  0  0  0  0  0  0
    8.9445   22.2453   33.7022 O   0  0  0  0  0  0  0  0  0  0  0  0
   11.1681   18.7942   37.2811 C   0  0  1  0  0  0  0  0  0  0  0  0
   11.1038   22.9888   32.1103 O   0  0  0  0  0  0  0  0  0  0  0  0
    9.2812   17.9475   38.5381 C   0  0  2  0  0  0  0  0  0  0  0  0
    7.8044   18.2347   38.8206 C   0  0  0  0  0  0  0  0  0  0  0  0
   10.0841   17.9567   39.8437 C   0  0  2  0  0  0  0  0  0  0  0  0
   11.5603   17.7126   39.5233 C   0  0  1  0  0  0  0  0  0  0  0  0
   12.0586   18.7622   38.5273 C   0  0  1  0  0  0  0  0  0  0  0  0
   10.2724   22.0079   34.1795 C   0  0  2  0  0  0  0  0  0  0  0  0
   11.2964   22.9342   33.5263 C   0  0  1  0  0  0  0  0  0  0  0  0
  3  1  1  0  0  0  0
  4  1  1  1  0  0  0
  4  6  1  0  0  0  0
  4 31  1  0  0  0  0
  6  7  1  0  0  0  0
  7  9  1  1  0  0  0
  7 30  1  0  0  0  0
 10  9  1  1  0  0  0
 10 13  1  0  0  0  0
 10 21  1  0  0  0  0
 13 12  1  6  0  0  0
 13 15  1  0  0  0  0
 15  2  1  6  0  0  0
 15 17  1  0  0  0  0
 16 25  1  0  0  0  0
 17 19  1  0  0  0  0
 19  5  1  1  0  0  0
 19 21  1  0  0  0  0
 21 14  1  1  0  0  0
 23 14  1  1  0  0  0
 23 16  1  0  0  0  0
 23 29  1  0  0  0  0
 25 26  1  1  0  0  0
 25 27  1  0  0  0  0
 26  8  1  0  0  0  0
 27 18  1  1  0  0  0
 27 28  1  0  0  0  0
 28 20  1  1  0  0  0
 28 29  1  0  0  0  0
 29 11  1  6  0  0  0
 30 22  1  6  0  0  0
 30 31  1  0  0  0  0
 31 24  1  6  0  0  0
M  END
>  <CHROM.1>
63.08720863,-70.16906269,-72.30240261,71.29985417,49.40882141,38.64293284
10.70255799,18.96892489,35.77810974,-1.30460275,1.09769370,1.91801505

>  <Name>
2fcz_lig

>  <RI>
2.26996e+07

>  <Rbt.Current_Directory>
/home/itssahil/PROJECTS/Mol_Feturizer/New_Systems/rnas/2fcz

>  <Rbt.Executable>
rbdock ($Id: //depot/dev/client3/rdock/2013.1/src/exe/rbdock.cxx#4 $)

>  <Rbt.Library>
libRbt.so (2013.1, Build901 2013/11/27)

>  <Rbt.Parameter_File>
/export/apps/rDock/src/rDock_2013.1_src/data/scripts/dock_solv.prm

>  <Rbt.Receptor>
prm/pocket_docking_4.prm

>  <SCORE>
-18.0621

>  <SCORE.INTER>
-14.9166

>  <SCORE.INTER.CONST>
1

>  <SCORE.INTER.POLAR>
-2.45397

>  <SCORE.INTER.ROT>
6

>  <SCORE.INTER.SOLV>
17.1185

>  <SCORE.INTER.VDW>
-15.0707

>  <SCORE.INTER.norm>
-0.481181

>  <SCORE.INTRA>
-3.14544

>  <SCORE.INTRA.DIHEDRAL>
-6.81355

>  <SCORE.INTRA.DIHEDRAL.0>
10.8409

>  <SCORE.INTRA.POLAR>
0

>  <SCORE.INTRA.POLAR.0>
0

>  <SCORE.INTRA.REPUL>
0

>  <SCORE.INTRA.REPUL.0>
0

>  <SCORE.INTRA.SOLV>
-3.16421

>  <SCORE.INTRA.SOLV.lig_0>
-80.8302

>  <SCORE.INTRA.VDW>
1.84344

>  <SCORE.INTRA.VDW.0>
-4.23953

>  <SCORE.INTRA.norm>
-0.101466

>  <SCORE.RESTR>
0

>  <SCORE.RESTR.CAVITY>
0

>  <SCORE.RESTR.norm>
0

>  <SCORE.SYSTEM>
0

>  <SCORE.SYSTEM.CONST>
0

>  <SCORE.SYSTEM.DIHEDRAL>
0

>  <SCORE.SYSTEM.SOLV>
0

>  <SCORE.SYSTEM.norm>
0

>  <SCORE.heavy>
31

>  <SCORE.norm>
-0.582647

>  <RMSD>
7.229

$$$$
2fcz_lig
 OpenBabel11021811433D
libRbt.so/2013.1/901 2013/11/27
 31 33  0  0  0  0  0  0  0  0999 V2000
   11.8893   11.8088   34.6074 C   0  0  0  0  0  0  0  0  0  0  0  0
    9.0837   16.3164   40.5341 N   0  0  0  0  0  0  0  0  0  0  0  0
   11.9660   10.3841   34.5089 O   0  0  0  0  0  0  0  0  0  0  0  0
   13.1799   12.3521   35.2300 C   0  0  1  0  0  0  0  0  0  0  0  0
   12.4608   19.5365   39.0599 N   0  0  0  0  0  0  0  0  0  0  0  0
   13.1776   13.7930   35.2898 O   0  0  0  0  0  0  0  0  0  0  0  0
   13.0214   14.2193   36.6579 C   0  0  1  0  0  0  0  0  0  0  0  0
   11.6112   19.8963   34.7771 N   0  0  0  0  0  0  0  0  0  0  0  0
   12.0610   15.2796   36.8011 O   0  0  0  0  0  0  0  0  0  0  0  0
   12.0113   15.8581   38.1163 C   0  0  2  0  0  0  0  0  0  0  0  0
   16.4423   16.5182   37.3869 N   0  0  0  0  0  0  0  0  0  0  0  0
   10.2564   14.3637   38.8518 O   0  0  0  0  0  0  0  0  0  0  0  0
   10.5832   15.7428   38.6635 C   0  0  1  0  0  0  0  0  0  0  0  0
   13.8598   17.4501   37.7806 O   0  0  0  0  0  0  0  0  0  0  0  0
   10.4445   16.4717   40.0020 C   0  0  1  0  0  0  0  0  0  0  0  0
   13.5626   17.9268   35.4878 O   0  0  0  0  0  0  0  0  0  0  0  0
   10.7587   17.9590   39.8258 C   0  0  0  0  0  0  0  0  0  0  0  0
   15.6821   20.9392   35.5163 O   0  0  0  0  0  0  0  0  0  0  0  0
   12.1956   18.1133   39.3234 C   0  0  1  0  0  0  0  0  0  0  0  0
   17.5565   18.8713   36.1969 O   0  0  0  0  0  0  0  0  0  0  0  0
   12.4530   17.3182   38.0387 C   0  0  2  0  0  0  0  0  0  0  0  0
   12.7862   13.0000   38.7963 O   0  0  0  0  0  0  0  0  0  0  0  0
   14.2422   17.0926   36.4445 C   0  0  1  0  0  0  0  0  0  0  0  0
   14.6917   11.8927   37.0957 O   0  0  0  0  0  0  0  0  0  0  0  0
   13.8630   19.3287   35.5997 C   0  0  2  0  0  0  0  0  0  0  0  0
   13.0506   20.0905   34.5496 C   0  0  0  0  0  0  0  0  0  0  0  0
   15.3630   19.5514   35.3762 C   0  0  2  0  0  0  0  0  0  0  0  0
   16.1473   18.7420   36.4112 C   0  0  1  0  0  0  0  0  0  0  0  0
   15.7595   17.2644   36.3209 C   0  0  1  0  0  0  0  0  0  0  0  0
   12.5268   12.9704   37.3894 C   0  0  2  0  0  0  0  0  0  0  0  0
   13.3245   11.8800   36.6767 C   0  0  1  0  0  0  0  0  0  0  0  0
  3  1  1  0  0  0  0
  4  1  1  1  0  0  0
  4  6  1  0  0  0  0
  4 31  1  0  0  0  0
  6  7  1  0  0  0  0
  7  9  1  6  0  0  0
  7 30  1  0  0  0  0
 10  9  1  6  0  0  0
 10 13  1  0  0  0  0
 10 21  1  0  0  0  0
 13 12  1  1  0  0  0
 13 15  1  0  0  0  0
 15  2  1  6  0  0  0
 15 17  1  0  0  0  0
 16 25  1  0  0  0  0
 17 19  1  0  0  0  0
 19  5  1  6  0  0  0
 19 21  1  0  0  0  0
 21 14  1  1  0  0  0
 23 14  1  1  0  0  0
 23 16  1  0  0  0  0
 23 29  1  0  0  0  0
 25 26  1  6  0  0  0
 25 27  1  0  0  0  0
 26  8  1  0  0  0  0
 27 18  1  1  0  0  0
 27 28  1  0  0  0  0
 28 20  1  6  0  0  0
 28 29  1  0  0  0  0
 29 11  1  1  0  0  0
 30 22  1  1  0  0  0
 30 31  1  0  0  0  0
 31 24  1  1  0  0  0
M  END
>  <CHROM.1>
177.15123634,-171.80583284,-122.85602780,71.52916424,59.79711431,60.82727142
13.11399485,16.18641981,36.98829102,-2.00601436,0.70034637,0.21889822

>  <Name>
2fcz_lig

>  <RI>
1.32928e+07

>  <Rbt.Current_Directory>
/home/itssahil/PROJECTS/Mol_Feturizer/New_Systems/rnas/2fcz

>  <Rbt.Executable>
rbdock ($Id: //depot/dev/client3/rdock/2013.1/src/exe/rbdock.cxx#4 $)

>  <Rbt.Library>
libRbt.so (2013.1, Build901 2013/11/27)

>  <Rbt.Parameter_File>
/export/apps/rDock/src/rDock_2013.1_src/data/scripts/dock_solv.prm

>  <Rbt.Receptor>
prm/pocket_docking_7.prm

>  <SCORE>
-4.34258

>  <SCORE.INTER>
-2.6805

>  <SCORE.INTER.CONST>
1

>  <SCORE.INTER.POLAR>
-1.02598

>  <SCORE.INTER.ROT>
6

>  <SCORE.INTER.SOLV>
12.9804

>  <SCORE.INTER.VDW>
-10.2939

>  <SCORE.INTER.norm>
-0.0864677

>  <SCORE.INTRA>
-1.67803

>  <SCORE.INTRA.DIHEDRAL>
-2.56789

>  <SCORE.INTRA.DIHEDRAL.0>
10.8409

>  <SCORE.INTRA.POLAR>
0

>  <SCORE.INTRA.POLAR.0>
0

>  <SCORE.INTRA.REPUL>
0

>  <SCORE.INTRA.REPUL.0>
0

>  <SCORE.INTRA.SOLV>
-2.67904

>  <SCORE.INTRA.SOLV.lig_0>
-80.8302

>  <SCORE.INTRA.VDW>
0.945435

>  <SCORE.INTRA.VDW.0>
-4.23953

>  <SCORE.INTRA.norm>
-0.0541298

>  <SCORE.RESTR>
0.0159437

>  <SCORE.RESTR.CAVITY>
0.0159437

>  <SCORE.RESTR.norm>
0.000514313

>  <SCORE.SYSTEM>
0

>  <SCORE.SYSTEM.CONST>
0

>  <SCORE.SYSTEM.DIHEDRAL>
0

>  <SCORE.SYSTEM.SOLV>
0

>  <SCORE.SYSTEM.norm>
0

>  <SCORE.heavy>
31

>  <SCORE.norm>
-0.140083

>  <RMSD>
7.231

$$$$
2fcz_lig
 OpenBabel11021811433D
libRbt.so/2013.1/901 2013/11/27
 31 33  0  0  0  0  0  0  0  0999 V2000
   13.0018   22.1676   35.4131 C   0  0  0  0  0  0  0  0  0  0  0  0
    8.8316   16.2713   31.1448 N   0  0  0  0  0  0  0  0  0  0  0  0
   11.9979   21.8054   36.3651 O   0  0  0  0  0  0  0  0  0  0  0  0
   12.4744   21.9317   33.9937 C   0  0  1  0  0  0  0  0  0  0  0  0
    9.1317   15.0298   35.8688 N   0  0  0  0  0  0  0  0  0  0  0  0
   11.9689   20.5912   33.8286 O   0  0  0  0  0  0  0  0  0  0  0  0
   10.5309   20.6254   33.7360 C   0  0  1  0  0  0  0  0  0  0  0  0
    7.0684   17.1579   40.0388 N   0  0  0  0  0  0  0  0  0  0  0  0
    9.9000   19.6162   34.5427 O   0  0  0  0  0  0  0  0  0  0  0  0
   10.1685   18.2686   34.1198 C   0  0  2  0  0  0  0  0  0  0  0  0
   13.0012   18.2532   37.4926 N   0  0  0  0  0  0  0  0  0  0  0  0
    9.9116   18.8118   31.7762 O   0  0  0  0  0  0  0  0  0  0  0  0
    9.3990   17.9848   32.8238 C   0  0  1  0  0  0  0  0  0  0  0  0
   10.6267   17.3677   36.3653 O   0  0  0  0  0  0  0  0  0  0  0  0
    9.5378   16.5180   32.4096 C   0  0  1  0  0  0  0  0  0  0  0  0
    9.3287   18.8627   37.6510 O   0  0  0  0  0  0  0  0  0  0  0  0
    8.9685   15.6076   33.4999 C   0  0  0  0  0  0  0  0  0  0  0  0
    9.6691   16.9582   40.7855 O   0  0  0  0  0  0  0  0  0  0  0  0
    9.7455   15.8320   34.7986 C   0  0  1  0  0  0  0  0  0  0  0  0
   12.3858   17.7137   40.2357 O   0  0  0  0  0  0  0  0  0  0  0  0
    9.7521   17.3032   35.2279 C   0  0  2  0  0  0  0  0  0  0  0  0
    8.8724   22.4588   33.7900 O   0  0  0  0  0  0  0  0  0  0  0  0
   10.6120   18.6344   37.0394 C   0  0  1  0  0  0  0  0  0  0  0  0
   11.1367   23.0596   32.2861 O   0  0  0  0  0  0  0  0  0  0  0  0
    8.9681   17.9003   38.6569 C   0  0  2  0  0  0  0  0  0  0  0  0
    7.5764   18.2469   39.1918 C   0  0  0  0  0  0  0  0  0  0  0  0
    9.9978   17.9339   39.7918 C   0  0  2  0  0  0  0  0  0  0  0  0
   11.3831   17.6289   39.2179 C   0  0  1  0  0  0  0  0  0  0  0  0
   11.7157   18.6218   38.1018 C   0  0  1  0  0  0  0  0  0  0  0  0
   10.1510   22.0138   34.2532 C   0  0  2  0  0  0  0  0  0  0  0  0
   11.2951   22.8566   33.6928 C   0  0  1  0  0  0  0  0  0  0  0  0
  3  1  1  0  0  0  0
  4  1  1  1  0  0  0
  4  6  1  0  0  0  0
  4 31  1  0  0  0  0
  6  7  1  0  0  0  0
  7  9  1  1  0  0  0
  7 30  1  0  0  0  0
 10  9  1  1  0  0  0
 10 13  1  0  0  0  0
 10 21  1  0  0  0  0
 13 12  1  6  0  0  0
 13 15  1  0  0  0  0
 15  2  1  6  0  0  0
 15 17  1  0  0  0  0
 16 25  1  0  0  0  0
 17 19  1  0  0  0  0
 19  5  1  1  0  0  0
 19 21  1  0  0  0  0
 21 14  1  1  0  0  0
 23 14  1  1  0  0  0
 23 16  1  0  0  0  0
 23 29  1  0  0  0  0
 25 26  1  1  0  0  0
 25 27  1  0  0  0  0
 26  8  1  0  0  0  0
 27 18  1  1  0  0  0
 27 28  1  0  0  0  0
 28 20  1  1  0  0  0
 28 29  1  0  0  0  0
 29 11  1  6  0  0  0
 30 22  1  6  0  0  0
 30 31  1  0  0  0  0
 31 24  1  6  0  0  0
M  END
>  <CHROM.1>
-52.77001981,-65.58144837,-72.49155691,64.16375728,66.57813924,169.72039443
10.30307174,18.87911073,35.75300170,-1.27389684,1.12265170,1.82687903

>  <Name>
2fcz_lig

>  <RI>
2.26996e+07

>  <Rbt.Current_Directory>
/home/itssahil/PROJECTS/Mol_Feturizer/New_Systems/rnas/2fcz

>  <Rbt.Executable>
rbdock ($Id: //depot/dev/client3/rdock/2013.1/src/exe/rbdock.cxx#4 $)

>  <Rbt.Library>
libRbt.so (2013.1, Build901 2013/11/27)

>  <Rbt.Parameter_File>
/export/apps/rDock/src/rDock_2013.1_src/data/scripts/dock_solv.prm

>  <Rbt.Receptor>
prm/pocket_docking_4.prm

>  <SCORE>
-13.3896

>  <SCORE.INTER>
-10.014

>  <SCORE.INTER.CONST>
1

>  <SCORE.INTER.POLAR>
-0.854525

>  <SCORE.INTER.ROT>
6

>  <SCORE.INTER.SOLV>
13.3729

>  <SCORE.INTER.VDW>
-15.8852

>  <SCORE.INTER.norm>
-0.323032

>  <SCORE.INTRA>
-3.37558

>  <SCORE.INTRA.DIHEDRAL>
-8.93431

>  <SCORE.INTRA.DIHEDRAL.0>
10.8409

>  <SCORE.INTRA.POLAR>
0

>  <SCORE.INTRA.POLAR.0>
0

>  <SCORE.INTRA.REPUL>
0

>  <SCORE.INTRA.REPUL.0>
0

>  <SCORE.INTRA.SOLV>
-1.68396

>  <SCORE.INTRA.SOLV.lig_0>
-80.8302

>  <SCORE.INTRA.VDW>
1.93356

>  <SCORE.INTRA.VDW.0>
-4.23953

>  <SCORE.INTRA.norm>
-0.10889

>  <SCORE.RESTR>
0

>  <SCORE.RESTR.CAVITY>
0

>  <SCORE.RESTR.norm>
0

>  <SCORE.SYSTEM>
0

>  <SCORE.SYSTEM.CONST>
0

>  <SCORE.SYSTEM.DIHEDRAL>
0

>  <SCORE.SYSTEM.SOLV>
0

>  <SCORE.SYSTEM.norm>
0

>  <SCORE.heavy>
31

>  <SCORE.norm>
-0.431922

>  <RMSD>
7.242

$$$$
2fcz_lig
 OpenBabel11021811433D
libRbt.so/2013.1/901 2013/11/27
 31 33  0  0  0  0  0  0  0  0999 V2000
   15.0909   16.6081   38.2319 C   0  0  0  0  0  0  0  0  0  0  0  0
    9.9825   19.9241   36.0363 N   0  0  0  0  0  0  0  0  0  0  0  0
   13.7279   16.3541   38.5827 O   0  0  0  0  0  0  0  0  0  0  0  0
   15.1637   17.1293   36.7927 C   0  0  1  0  0  0  0  0  0  0  0  0
   13.0004   22.3911   33.0776 N   0  0  0  0  0  0  0  0  0  0  0  0
   14.3264   18.2879   36.6023 O   0  0  0  0  0  0  0  0  0  0  0  0
   15.1511   19.4610   36.4560 C   0  0  1  0  0  0  0  0  0  0  0  0
   16.1150   19.3632   32.7079 N   0  0  0  0  0  0  0  0  0  0  0  0
   14.6752   20.5728   37.2336 O   0  0  0  0  0  0  0  0  0  0  0  0
   13.5195   21.2273   36.6831 C   0  0  2  0  0  0  0  0  0  0  0  0
   16.4496   24.7904   36.1675 N   0  0  0  0  0  0  0  0  0  0  0  0
   11.9818   19.9453   38.0416 O   0  0  0  0  0  0  0  0  0  0  0  0
   12.3366   20.2511   36.6908 C   0  0  1  0  0  0  0  0  0  0  0  0
   14.7579   22.7957   35.2442 O   0  0  0  0  0  0  0  0  0  0  0  0
   11.1201   20.8528   35.9834 C   0  0  1  0  0  0  0  0  0  0  0  0
   16.5570   21.3697   34.6940 O   0  0  0  0  0  0  0  0  0  0  0  0
   11.4605   21.1628   34.5241 C   0  0  0  0  0  0  0  0  0  0  0  0
   17.5439   23.2555   31.6877 O   0  0  0  0  0  0  0  0  0  0  0  0
   12.6097   22.1718   34.4793 C   0  0  1  0  0  0  0  0  0  0  0  0
   17.9806   25.1755   33.7795 O   0  0  0  0  0  0  0  0  0  0  0  0
   13.8365   21.6941   35.2637 C   0  0  2  0  0  0  0  0  0  0  0  0
   17.5972   19.8235   36.4570 O   0  0  0  0  0  0  0  0  0  0  0  0
   16.1092   22.4296   35.5595 C   0  0  1  0  0  0  0  0  0  0  0  0
   16.8156   17.5573   35.0418 O   0  0  0  0  0  0  0  0  0  0  0  0
   16.5787   21.7100   33.2969 C   0  0  2  0  0  0  0  0  0  0  0  0
   17.0400   20.4869   32.5005 C   0  0  0  0  0  0  0  0  0  0  0  0
   17.5365   22.8850   33.0697 C   0  0  2  0  0  0  0  0  0  0  0  0
   17.0749   24.0753   33.9131 C   0  0  1  0  0  0  0  0  0  0  0  0
   16.9917   23.6699   35.3865 C   0  0  1  0  0  0  0  0  0  0  0  0
   16.5253   19.0235   36.9655 C   0  0  2  0  0  0  0  0  0  0  0  0
   16.5823   17.5859   36.4524 C   0  0  1  0  0  0  0  0  0  0  0  0
  3  1  1  0  0  0  0
  4  1  1  1  0  0  0
  4  6  1  0  0  0  0
  4 31  1  0  0  0  0
  6  7  1  0  0  0  0
  7  9  1  1  0  0  0
  7 30  1  0  0  0  0
 10  9  1  6  0  0  0
 10 13  1  0  0  0  0
 10 21  1  0  0  0  0
 13 12  1  1  0  0  0
 13 15  1  0  0  0  0
 15  2  1  6  0  0  0
 15 17  1  0  0  0  0
 16 25  1  0  0  0  0
 17 19  1  0  0  0  0
 19  5  1  6  0  0  0
 19 21  1  0  0  0  0
 21 14  1  1  0  0  0
 23 14  1  6  0  0  0
 23 16  1  0  0  0  0
 23 29  1  0  0  0  0
 25 26  1  6  0  0  0
 25 27  1  0  0  0  0
 26  8  1  0  0  0  0
 27 18  1  6  0  0  0
 27 28  1  0  0  0  0
 28 20  1  1  0  0  0
 28 29  1  0  0  0  0
 29 11  1  1  0  0  0
 30 22  1  6  0  0  0
 30 31  1  0  0  0  0
 31 24  1  6  0  0  0
M  END
>  <CHROM.1>
54.95585936,-75.62938518,64.62591195,73.45311117,54.43900835,60.37183710
15.06375391,20.75572851,35.41851038,-2.08346686,0.24117974,-0.47883243

>  <Name>
2fcz_lig

>  <RI>
0

>  <Rbt.Current_Directory>
/home/itssahil/PROJECTS/Mol_Feturizer/New_Systems/rnas/2fcz

>  <Rbt.Executable>
rbdock ($Id: //depot/dev/client3/rdock/2013.1/src/exe/rbdock.cxx#4 $)

>  <Rbt.Library>
libRbt.so (2013.1, Build901 2013/11/27)

>  <Rbt.Parameter_File>
/export/apps/rDock/src/rDock_2013.1_src/data/scripts/dock_solv.prm

>  <Rbt.Receptor>
prm/blind_docking_80.prm

>  <SCORE>
-15.5224

>  <SCORE.INTER>
-12.5352

>  <SCORE.INTER.CONST>
1

>  <SCORE.INTER.POLAR>
-1.28654

>  <SCORE.INTER.ROT>
6

>  <SCORE.INTER.SOLV>
11.2789

>  <SCORE.INTER.VDW>
-15.428

>  <SCORE.INTER.norm>
-0.404363

>  <SCORE.INTRA>
-2.99607

>  <SCORE.INTRA.DIHEDRAL>
-8.38107

>  <SCORE.INTRA.DIHEDRAL.0>
10.8409

>  <SCORE.INTRA.POLAR>
0

>  <SCORE.INTRA.POLAR.0>
0

>  <SCORE.INTRA.REPUL>
0

>  <SCORE.INTRA.REPUL.0>
0

>  <SCORE.INTRA.SOLV>
0.176314

>  <SCORE.INTRA.SOLV.lig_0>
-80.8302

>  <SCORE.INTRA.VDW>
1.10631

>  <SCORE.INTRA.VDW.0>
-4.23953

>  <SCORE.INTRA.norm>
-0.0966475

>  <SCORE.RESTR>
0.00895814

>  <SCORE.RESTR.CAVITY>
0.00895814

>  <SCORE.RESTR.norm>
0.000288972

>  <SCORE.SYSTEM>
0

>  <SCORE.SYSTEM.CONST>
0

>  <SCORE.SYSTEM.DIHEDRAL>
0

>  <SCORE.SYSTEM.SOLV>
0

>  <SCORE.SYSTEM.norm>
0

>  <SCORE.heavy>
31

>  <SCORE.norm>
-0.500721

>  <RMSD>
7.243

$$$$
2fcz_lig
 OpenBabel11021811433D
libRbt.so/2013.1/901 2013/11/27
 31 33  0  0  0  0  0  0  0  0999 V2000
   15.5983   16.9513   37.9980 C   0  0  0  0  0  0  0  0  0  0  0  0
   10.4143   20.5573   36.2655 N   0  0  0  0  0  0  0  0  0  0  0  0
   16.2046   15.6723   38.2035 O   0  0  0  0  0  0  0  0  0  0  0  0
   15.1671   17.0874   36.5338 C   0  0  1  0  0  0  0  0  0  0  0  0
   12.7395   22.0511   32.2271 N   0  0  0  0  0  0  0  0  0  0  0  0
   14.4637   18.3240   36.2979 O   0  0  0  0  0  0  0  0  0  0  0  0
   15.2984   19.2159   35.5326 C   0  0  1  0  0  0  0  0  0  0  0  0
   15.0121   23.4328   29.3334 N   0  0  0  0  0  0  0  0  0  0  0  0
   15.2957   20.5573   36.0503 O   0  0  0  0  0  0  0  0  0  0  0  0
   14.1220   21.3173   35.7161 C   0  0  2  0  0  0  0  0  0  0  0  0
   17.3715   22.2449   35.2990 N   0  0  0  0  0  0  0  0  0  0  0  0
   12.8913   20.5115   37.6370 O   0  0  0  0  0  0  0  0  0  0  0  0
   12.8787   20.5662   36.2084 C   0  0  1  0  0  0  0  0  0  0  0  0
   15.0812   22.4425   33.7469 O   0  0  0  0  0  0  0  0  0  0  0  0
   11.5955   21.2636   35.7508 C   0  0  1  0  0  0  0  0  0  0  0  0
   16.2682   22.0446   31.7456 O   0  0  0  0  0  0  0  0  0  0  0  0
   11.5386   21.3101   34.2223 C   0  0  0  0  0  0  0  0  0  0  0  0
   17.8018   25.3913   31.6196 O   0  0  0  0  0  0  0  0  0  0  0  0
   12.7434   22.0940   33.6980 C   0  0  1  0  0  0  0  0  0  0  0  0
   18.9059   24.3080   34.0405 O   0  0  0  0  0  0  0  0  0  0  0  0
   14.0740   21.5262   34.2038 C   0  0  2  0  0  0  0  0  0  0  0  0
   17.5772   19.0161   34.5934 O   0  0  0  0  0  0  0  0  0  0  0  0
   16.2271   21.8045   33.1646 C   0  0  1  0  0  0  0  0  0  0  0  0
   16.0473   16.7110   34.2841 O   0  0  0  0  0  0  0  0  0  0  0  0
   16.3857   23.4301   31.3786 C   0  0  2  0  0  0  0  0  0  0  0  0
   16.3840   23.5356   29.8516 C   0  0  0  0  0  0  0  0  0  0  0  0
   17.6871   24.0038   31.9501 C   0  0  2  0  0  0  0  0  0  0  0  0
   17.6778   23.8423   33.4717 C   0  0  1  0  0  0  0  0  0  0  0  0
   17.4813   22.3697   33.8389 C   0  0  1  0  0  0  0  0  0  0  0  0
   16.7010   18.6177   35.6522 C   0  0  2  0  0  0  0  0  0  0  0  0
   16.3852   17.1238   35.6109 C   0  0  1  0  0  0  0  0  0  0  0  0
  3  1  1  0  0  0  0
  4  1  1  1  0  0  0
  4  6  1  0  0  0  0
  4 31  1  0  0  0  0
  6  7  1  0  0  0  0
  7  9  1  1  0  0  0
  7 30  1  0  0  0  0
 10  9  1  6  0  0  0
 10 13  1  0  0  0  0
 10 21  1  0  0  0  0
 13 12  1  1  0  0  0
 13 15  1  0  0  0  0
 15  2  1  6  0  0  0
 15 17  1  0  0  0  0
 16 25  1  0  0  0  0
 17 19  1  0  0  0  0
 19  5  1  6  0  0  0
 19 21  1  0  0  0  0
 21 14  1  1  0  0  0
 23 14  1  1  0  0  0
 23 16  1  0  0  0  0
 23 29  1  0  0  0  0
 25 26  1  6  0  0  0
 25 27  1  0  0  0  0
 26  8  1  0  0  0  0
 27 18  1  1  0  0  0
 27 28  1  0  0  0  0
 28 20  1  6  0  0  0
 28 29  1  0  0  0  0
 29 11  1  1  0  0  0
 30 22  1  6  0  0  0
 30 31  1  0  0  0  0
 31 24  1  6  0  0  0
M  END
>  <CHROM.1>
175.88446079,-77.61475599,56.54520893,101.02716659,110.39449829,79.27703726
15.32458389,20.92333322,34.40784318,-1.82747310,0.16341029,-0.66826726

>  <Name>
2fcz_lig

>  <RI>
2.6968e+07

>  <Rbt.Current_Directory>
/home/itssahil/PROJECTS/Mol_Feturizer/New_Systems/rnas/2fcz

>  <Rbt.Executable>
rbdock ($Id: //depot/dev/client3/rdock/2013.1/src/exe/rbdock.cxx#4 $)

>  <Rbt.Library>
libRbt.so (2013.1, Build901 2013/11/27)

>  <Rbt.Parameter_File>
/export/apps/rDock/src/rDock_2013.1_src/data/scripts/dock_solv.prm

>  <Rbt.Receptor>
prm/blind_docking_60.prm

>  <SCORE>
-8.38685

>  <SCORE.INTER>
-12.2512

>  <SCORE.INTER.CONST>
1

>  <SCORE.INTER.POLAR>
-1.26692

>  <SCORE.INTER.ROT>
6

>  <SCORE.INTER.SOLV>
17.4011

>  <SCORE.INTER.VDW>
-17.3448

>  <SCORE.INTER.norm>
-0.395201

>  <SCORE.INTRA>
3.86439

>  <SCORE.INTRA.DIHEDRAL>
4.2719

>  <SCORE.INTRA.DIHEDRAL.0>
10.8409

>  <SCORE.INTRA.POLAR>
0

>  <SCORE.INTRA.POLAR.0>
0

>  <SCORE.INTRA.REPUL>
0

>  <SCORE.INTRA.REPUL.0>
0

>  <SCORE.INTRA.SOLV>
0.844265

>  <SCORE.INTRA.SOLV.lig_0>
-80.8302

>  <SCORE.INTRA.VDW>
1.30631

>  <SCORE.INTRA.VDW.0>
-4.23953

>  <SCORE.INTRA.norm>
0.124658

>  <SCORE.RESTR>
0

>  <SCORE.RESTR.CAVITY>
0

>  <SCORE.RESTR.norm>
0

>  <SCORE.SYSTEM>
0

>  <SCORE.SYSTEM.CONST>
0

>  <SCORE.SYSTEM.DIHEDRAL>
0

>  <SCORE.SYSTEM.SOLV>
0

>  <SCORE.SYSTEM.norm>
0

>  <SCORE.heavy>
31

>  <SCORE.norm>
-0.270543

>  <RMSD>
7.266

$$$$
2fcz_lig
 OpenBabel11021811433D
libRbt.so/2013.1/901 2013/11/27
 31 33  0  0  0  0  0  0  0  0999 V2000
    9.1551   20.9831   32.6064 C   0  0  0  0  0  0  0  0  0  0  0  0
    8.7424   19.8009   35.3268 N   0  0  0  0  0  0  0  0  0  0  0  0
    7.7388   20.9035   32.4247 O   0  0  0  0  0  0  0  0  0  0  0  0
    9.8648   20.5199   31.3295 C   0  0  1  0  0  0  0  0  0  0  0  0
   12.7369   17.1032   34.4820 N   0  0  0  0  0  0  0  0  0  0  0  0
   10.3254   19.1578   31.4397 O   0  0  0  0  0  0  0  0  0  0  0  0
    9.5143   18.3049   30.6076 C   0  0  1  0  0  0  0  0  0  0  0  0
   15.9110   17.2137   33.8198 N   0  0  0  0  0  0  0  0  0  0  0  0
    9.1173   17.0952   31.2755 O   0  0  0  0  0  0  0  0  0  0  0  0
    9.3571   17.0969   32.6930 C   0  0  2  0  0  0  0  0  0  0  0  0
   11.4183   13.0675   31.4112 N   0  0  0  0  0  0  0  0  0  0  0  0
    7.4599   18.5283   33.1464 O   0  0  0  0  0  0  0  0  0  0  0  0
    8.8797   18.4297   33.2829 C   0  0  1  0  0  0  0  0  0  0  0  0
   11.2705   15.5475   32.6445 O   0  0  0  0  0  0  0  0  0  0  0  0
    9.2433   18.5387   34.7655 C   0  0  1  0  0  0  0  0  0  0  0  0
   13.1737   16.3530   31.5035 O   0  0  0  0  0  0  0  0  0  0  0  0
   10.7618   18.4673   34.9411 C   0  0  0  0  0  0  0  0  0  0  0  0
   15.5841   14.4259   33.5145 O   0  0  0  0  0  0  0  0  0  0  0  0
   11.2676   17.1271   34.4035 C   0  0  1  0  0  0  0  0  0  0  0  0
   14.0646   12.3507   32.2348 O   0  0  0  0  0  0  0  0  0  0  0  0
   10.8480   16.8860   32.9493 C   0  0  2  0  0  0  0  0  0  0  0  0
    7.5992   18.7311   29.1024 O   0  0  0  0  0  0  0  0  0  0  0  0
   12.0584   15.4440   31.4496 C   0  0  1  0  0  0  0  0  0  0  0  0
    9.6112   20.6444   28.9010 O   0  0  0  0  0  0  0  0  0  0  0  0
   14.0939   16.1041   32.5802 C   0  0  2  0  0  0  0  0  0  0  0  0
   15.2019   17.1591   32.5331 C   0  0  0  0  0  0  0  0  0  0  0  0
   14.6899   14.6997   32.4315 C   0  0  2  0  0  0  0  0  0  0  0  0
   13.5553   13.6730   32.4365 C   0  0  1  0  0  0  0  0  0  0  0  0
   12.5520   13.9989   31.3278 C   0  0  1  0  0  0  0  0  0  0  0  0
    8.2796   19.1498   30.2895 C   0  0  2  0  0  0  0  0  0  0  0  0
    8.9051   20.5353   30.1398 C   0  0  1  0  0  0  0  0  0  0  0  0
  3  1  1  0  0  0  0
  4  1  1  1  0  0  0
  4  6  1  0  0  0  0
  4 31  1  0  0  0  0
  6  7  1  0  0  0  0
  7  9  1  1  0  0  0
  7 30  1  0  0  0  0
 10  9  1  6  0  0  0
 10 13  1  0  0  0  0
 10 21  1  0  0  0  0
 13 12  1  1  0  0  0
 13 15  1  0  0  0  0
 15  2  1  6  0  0  0
 15 17  1  0  0  0  0
 16 25  1  0  0  0  0
 17 19  1  0  0  0  0
 19  5  1  6  0  0  0
 19 21  1  0  0  0  0
 21 14  1  1  0  0  0
 23 14  1  1  0  0  0
 23 16  1  0  0  0  0
 23 29  1  0  0  0  0
 25 26  1  6  0  0  0
 25 27  1  0  0  0  0
 26  8  1  0  0  0  0
 27 18  1  1  0  0  0
 27 28  1  0  0  0  0
 28 20  1  6  0  0  0
 28 29  1  0  0  0  0
 29 11  1  1  0  0  0
 30 22  1  6  0  0  0
 30 31  1  0  0  0  0
 31 24  1  6  0  0  0
M  END
>  <CHROM.1>
-99.81805282,12.30621076,45.69451665,107.34025772,53.49068136,162.28490202
11.04674632,17.36269296,32.29476648,-2.88763472,0.71745002,-2.14370467

>  <Name>
2fcz_lig

>  <RI>
0

>  <Rbt.Current_Directory>
/home/itssahil/PROJECTS/Mol_Feturizer/New_Systems/rnas/2fcz

>  <Rbt.Executable>
rbdock ($Id: //depot/dev/client3/rdock/2013.1/src/exe/rbdock.cxx#4 $)

>  <Rbt.Library>
libRbt.so (2013.1, Build901 2013/11/27)

>  <Rbt.Parameter_File>
/export/apps/rDock/src/rDock_2013.1_src/data/scripts/dock_solv.prm

>  <Rbt.Receptor>
prm/blind_docking_40.prm

>  <SCORE>
26.0795

>  <SCORE.INTER>
-3.84732

>  <SCORE.INTER.CONST>
1

>  <SCORE.INTER.POLAR>
-0.921635

>  <SCORE.INTER.ROT>
6

>  <SCORE.INTER.SOLV>
19.2267

>  <SCORE.INTER.VDW>
-13.5017

>  <SCORE.INTER.norm>
-0.124107

>  <SCORE.INTRA>
20.6065

>  <SCORE.INTRA.DIHEDRAL>
8.12592

>  <SCORE.INTRA.DIHEDRAL.0>
10.8409

>  <SCORE.INTRA.POLAR>
0

>  <SCORE.INTRA.POLAR.0>
0

>  <SCORE.INTRA.REPUL>
0

>  <SCORE.INTRA.REPUL.0>
0

>  <SCORE.INTRA.SOLV>
6.29756

>  <SCORE.INTRA.SOLV.lig_0>
-80.8302

>  <SCORE.INTRA.VDW>
13.3947

>  <SCORE.INTRA.VDW.0>
-4.23953

>  <SCORE.INTRA.norm>
0.664725

>  <SCORE.RESTR>
9.32033

>  <SCORE.RESTR.CAVITY>
9.32033

>  <SCORE.RESTR.norm>
0.300656

>  <SCORE.SYSTEM>
0

>  <SCORE.SYSTEM.CONST>
0

>  <SCORE.SYSTEM.DIHEDRAL>
0

>  <SCORE.SYSTEM.SOLV>
0

>  <SCORE.SYSTEM.norm>
0

>  <SCORE.heavy>
31

>  <SCORE.norm>
0.841274

>  <RMSD>
7.270

$$$$
2fcz_lig
 OpenBabel11021811433D
libRbt.so/2013.1/901 2013/11/27
 31 33  0  0  0  0  0  0  0  0999 V2000
    9.8614   20.7308   34.1957 C   0  0  0  0  0  0  0  0  0  0  0  0
   15.2653   26.9031   35.6154 N   0  0  0  0  0  0  0  0  0  0  0  0
    9.6630   20.5528   35.6008 O   0  0  0  0  0  0  0  0  0  0  0  0
   10.0531   22.2197   33.8873 C   0  0  1  0  0  0  0  0  0  0  0  0
   17.2980   22.7314   37.1685 N   0  0  0  0  0  0  0  0  0  0  0  0
   11.1856   22.7685   34.5915 O   0  0  0  0  0  0  0  0  0  0  0  0
   12.2533   23.0304   33.6591 C   0  0  1  0  0  0  0  0  0  0  0  0
   16.6129   18.9963   32.3901 N   0  0  0  0  0  0  0  0  0  0  0  0
   13.5311   22.5798   34.1401 O   0  0  0  0  0  0  0  0  0  0  0  0
   14.0206   23.3022   35.2827 C   0  0  2  0  0  0  0  0  0  0  0  0
   13.5217   19.2425   37.5710 N   0  0  0  0  0  0  0  0  0  0  0  0
   13.1350   25.4114   34.4949 O   0  0  0  0  0  0  0  0  0  0  0  0
   14.3428   24.7430   34.8673 C   0  0  1  0  0  0  0  0  0  0  0  0
   14.9459   21.3479   36.4611 O   0  0  0  0  0  0  0  0  0  0  0  0
   15.0018   25.5135   36.0137 C   0  0  1  0  0  0  0  0  0  0  0  0
   15.2736   20.1995   34.4247 O   0  0  0  0  0  0  0  0  0  0  0  0
   16.3151   24.8381   36.4146 C   0  0  0  0  0  0  0  0  0  0  0  0
   17.8325   17.9125   35.7625 O   0  0  0  0  0  0  0  0  0  0  0  0
   16.0245   23.4097   36.8795 C   0  0  1  0  0  0  0  0  0  0  0  0
   15.5182   17.2075   37.3117 O   0  0  0  0  0  0  0  0  0  0  0  0
   15.2616   22.5975   35.8273 C   0  0  2  0  0  0  0  0  0  0  0  0
   12.4765   22.7405   31.2135 O   0  0  0  0  0  0  0  0  0  0  0  0
   14.4120   20.3606   35.5669 C   0  0  1  0  0  0  0  0  0  0  0  0
   10.0020   23.7555   31.9857 O   0  0  0  0  0  0  0  0  0  0  0  0
   16.5999   19.7406   34.7386 C   0  0  2  0  0  0  0  0  0  0  0  0
   17.4074   19.6480   33.4415 C   0  0  0  0  0  0  0  0  0  0  0  0
   16.5211   18.3676   35.4154 C   0  0  2  0  0  0  0  0  0  0  0  0
   15.6709   18.4838   36.6823 C   0  0  1  0  0  0  0  0  0  0  0  0
   14.2885   19.0401   36.3338 C   0  0  1  0  0  0  0  0  0  0  0  0
   11.8643   22.2425   32.4071 C   0  0  2  0  0  0  0  0  0  0  0  0
   10.3486   22.4322   32.4027 C   0  0  1  0  0  0  0  0  0  0  0  0
  3  1  1  0  0  0  0
  4  1  1  6  0  0  0
  4  6  1  0  0  0  0
  4 31  1  0  0  0  0
  6  7  1  0  0  0  0
  7  9  1  1  0  0  0
  7 30  1  0  0  0  0
 10  9  1  6  0  0  0
 10 13  1  0  0  0  0
 10 21  1  0  0  0  0
 13 12  1  1  0  0  0
 13 15  1  0  0  0  0
 15  2  1  6  0  0  0
 15 17  1  0  0  0  0
 16 25  1  0  0  0  0
 17 19  1  0  0  0  0
 19  5  1  6  0  0  0
 19 21  1  0  0  0  0
 21 14  1  1  0  0  0
 23 14  1  1  0  0  0
 23 16  1  0  0  0  0
 23 29  1  0  0  0  0
 25 26  1  6  0  0  0
 25 27  1  0  0  0  0
 26  8  1  0  0  0  0
 27 18  1  1  0  0  0
 27 28  1  0  0  0  0
 28 20  1  6  0  0  0
 28 29  1  0  0  0  0
 29 11  1  1  0  0  0
 30 22  1  6  0  0  0
 30 31  1  0  0  0  0
 31 24  1  1  0  0  0
M  END
>  <CHROM.1>
59.24086743,-66.99532819,-67.23073646,64.71189508,52.16376302,-45.30175852
14.04924547,21.69593095,34.91021992,2.46290285,-0.43507785,-0.00760443

>  <Name>
2fcz_lig

>  <RI>
2.6968e+07

>  <Rbt.Current_Directory>
/home/itssahil/PROJECTS/Mol_Feturizer/New_Systems/rnas/2fcz

>  <Rbt.Executable>
rbdock ($Id: //depot/dev/client3/rdock/2013.1/src/exe/rbdock.cxx#4 $)

>  <Rbt.Library>
libRbt.so (2013.1, Build901 2013/11/27)

>  <Rbt.Parameter_File>
/export/apps/rDock/src/rDock_2013.1_src/data/scripts/dock_solv.prm

>  <Rbt.Receptor>
prm/blind_docking_60.prm

>  <SCORE>
-11.6098

>  <SCORE.INTER>
-8.22398

>  <SCORE.INTER.CONST>
1

>  <SCORE.INTER.POLAR>
-0.575309

>  <SCORE.INTER.ROT>
6

>  <SCORE.INTER.SOLV>
18.3792

>  <SCORE.INTER.VDW>
-17.2914

>  <SCORE.INTER.norm>
-0.26529

>  <SCORE.INTRA>
-3.40113

>  <SCORE.INTRA.DIHEDRAL>
-9.04652

>  <SCORE.INTRA.DIHEDRAL.0>
10.8409

>  <SCORE.INTRA.POLAR>
0

>  <SCORE.INTRA.POLAR.0>
0

>  <SCORE.INTRA.REPUL>
0

>  <SCORE.INTRA.REPUL.0>
0

>  <SCORE.INTRA.SOLV>
-2.83157

>  <SCORE.INTRA.SOLV.lig_0>
-80.8302

>  <SCORE.INTRA.VDW>
2.53791

>  <SCORE.INTRA.VDW.0>
-4.23953

>  <SCORE.INTRA.norm>
-0.109714

>  <SCORE.RESTR>
0.0153636

>  <SCORE.RESTR.CAVITY>
0.0153636

>  <SCORE.RESTR.norm>
0.000495601

>  <SCORE.SYSTEM>
0

>  <SCORE.SYSTEM.CONST>
0

>  <SCORE.SYSTEM.DIHEDRAL>
0

>  <SCORE.SYSTEM.SOLV>
0

>  <SCORE.SYSTEM.norm>
0

>  <SCORE.heavy>
31

>  <SCORE.norm>
-0.374508

>  <RMSD>
7.308

$$$$
2fcz_lig
 OpenBabel11021811433D
libRbt.so/2013.1/901 2013/11/27
 31 33  0  0  0  0  0  0  0  0999 V2000
   17.7605   20.5304   33.2083 C   0  0  0  0  0  0  0  0  0  0  0  0
   15.7412   23.7127   28.3966 N   0  0  0  0  0  0  0  0  0  0  0  0
   17.9051   19.2730   33.8742 O   0  0  0  0  0  0  0  0  0  0  0  0
   18.0945   21.6684   34.1789 C   0  0  1  0  0  0  0  0  0  0  0  0
   11.9089   22.2176   31.0471 N   0  0  0  0  0  0  0  0  0  0  0  0
   17.8319   22.9609   33.5957 O   0  0  0  0  0  0  0  0  0  0  0  0
   16.6708   23.5450   34.2190 C   0  0  1  0  0  0  0  0  0  0  0  0
   12.7300   17.2576   34.6318 N   0  0  0  0  0  0  0  0  0  0  0  0
   15.7613   24.1204   33.2657 O   0  0  0  0  0  0  0  0  0  0  0  0
   15.4140   23.2463   32.1784 C   0  0  2  0  0  0  0  0  0  0  0  0
   12.3091   23.7856   35.1506 N   0  0  0  0  0  0  0  0  0  0  0  0
   17.2255   24.0415   30.7856 O   0  0  0  0  0  0  0  0  0  0  0  0
   15.8032   23.9123   30.8528 C   0  0  1  0  0  0  0  0  0  0  0  0
   13.5591   22.1074   33.3300 O   0  0  0  0  0  0  0  0  0  0  0  0
   15.3242   23.0847   29.6579 C   0  0  1  0  0  0  0  0  0  0  0  0
   11.7602   20.5788   33.3343 O   0  0  0  0  0  0  0  0  0  0  0  0
   13.7997   22.9548   29.6855 C   0  0  0  0  0  0  0  0  0  0  0  0
   12.5565   19.1662   36.6416 O   0  0  0  0  0  0  0  0  0  0  0  0
   13.3784   22.2511   30.9772 C   0  0  1  0  0  0  0  0  0  0  0  0
   11.9577   21.9029   37.2782 O   0  0  0  0  0  0  0  0  0  0  0  0
   13.9151   22.9563   32.2275 C   0  0  2  0  0  0  0  0  0  0  0  0
   15.1468   22.7844   36.0117 O   0  0  0  0  0  0  0  0  0  0  0  0
   12.1440   21.9549   33.5135 C   0  0  1  0  0  0  0  0  0  0  0  0
   17.8276   22.2503   36.5385 O   0  0  0  0  0  0  0  0  0  0  0  0
   12.3586   19.6662   34.2708 C   0  0  2  0  0  0  0  0  0  0  0  0
   11.8894   18.2469   33.9417 C   0  0  0  0  0  0  0  0  0  0  0  0
   11.9423   20.0471   35.6960 C   0  0  2  0  0  0  0  0  0  0  0  0
   12.3846   21.4846   35.9777 C   0  0  1  0  0  0  0  0  0  0  0  0
   11.7931   22.4278   34.9278 C   0  0  1  0  0  0  0  0  0  0  0  0
   15.9968   22.3742   34.9362 C   0  0  2  0  0  0  0  0  0  0  0  0
   17.2143   21.5929   35.4264 C   0  0  1  0  0  0  0  0  0  0  0  0
  3  1  1  0  0  0  0
  4  1  1  6  0  0  0
  4  6  1  0  0  0  0
  4 31  1  0  0  0  0
  6  7  1  0  0  0  0
  7  9  1  6  0  0  0
  7 30  1  0  0  0  0
 10  9  1  1  0  0  0
 10 13  1  0  0  0  0
 10 21  1  0  0  0  0
 13 12  1  1  0  0  0
 13 15  1  0  0  0  0
 15  2  1  6  0  0  0
 15 17  1  0  0  0  0
 16 25  1  0  0  0  0
 17 19  1  0  0  0  0
 19  5  1  1  0  0  0
 19 21  1  0  0  0  0
 21 14  1  1  0  0  0
 23 14  1  1  0  0  0
 23 16  1  0  0  0  0
 23 29  1  0  0  0  0
 25 26  1  6  0  0  0
 25 27  1  0  0  0  0
 26  8  1  0  0  0  0
 27 18  1  1  0  0  0
 27 28  1  0  0  0  0
 28 20  1  1  0  0  0
 28 29  1  0  0  0  0
 29 11  1  1  0  0  0
 30 22  1  1  0  0  0
 30 31  1  0  0  0  0
 31 24  1  1  0  0  0
M  END
>  <CHROM.1>
-174.09297353,50.33365995,-121.61414013,172.26140215,117.38229481,165.32459870
14.55005853,21.86721122,33.58344058,-0.86132603,0.25484056,2.00086258

>  <Name>
2fcz_lig

>  <RI>
1.40544e+07

>  <Rbt.Current_Directory>
/home/itssahil/PROJECTS/Mol_Feturizer/New_Systems/rnas/2fcz

>  <Rbt.Executable>
rbdock ($Id: //depot/dev/client3/rdock/2013.1/src/exe/rbdock.cxx#4 $)

>  <Rbt.Library>
libRbt.so (2013.1, Build901 2013/11/27)

>  <Rbt.Parameter_File>
/export/apps/rDock/src/rDock_2013.1_src/data/scripts/dock_solv.prm

>  <Rbt.Receptor>
prm/blind_docking_100.prm

>  <SCORE>
-3.58755

>  <SCORE.INTER>
-10.5664

>  <SCORE.INTER.CONST>
1

>  <SCORE.INTER.POLAR>
-1.12829

>  <SCORE.INTER.ROT>
6

>  <SCORE.INTER.SOLV>
17.9703

>  <SCORE.INTER.VDW>
-16.8734

>  <SCORE.INTER.norm>
-0.340852

>  <SCORE.INTRA>
6.72771

>  <SCORE.INTRA.DIHEDRAL>
5.24775

>  <SCORE.INTRA.DIHEDRAL.0>
10.8409

>  <SCORE.INTRA.POLAR>
0

>  <SCORE.INTRA.POLAR.0>
0

>  <SCORE.INTRA.REPUL>
0

>  <SCORE.INTRA.REPUL.0>
0

>  <SCORE.INTRA.SOLV>
1.86414

>  <SCORE.INTRA.SOLV.lig_0>
-80.8302

>  <SCORE.INTRA.VDW>
3.17176

>  <SCORE.INTRA.VDW.0>
-4.23953

>  <SCORE.INTRA.norm>
0.217023

>  <SCORE.RESTR>
0.251169

>  <SCORE.RESTR.CAVITY>
0.251169

>  <SCORE.RESTR.norm>
0.00810223

>  <SCORE.SYSTEM>
0

>  <SCORE.SYSTEM.CONST>
0

>  <SCORE.SYSTEM.DIHEDRAL>
0

>  <SCORE.SYSTEM.SOLV>
0

>  <SCORE.SYSTEM.norm>
0

>  <SCORE.heavy>
31

>  <SCORE.norm>
-0.115727

>  <RMSD>
7.316

$$$$
2fcz_lig
 OpenBabel11021811433D
libRbt.so/2013.1/901 2013/11/27
 31 33  0  0  0  0  0  0  0  0999 V2000
    8.3175   22.6705   32.9463 C   0  0  0  0  0  0  0  0  0  0  0  0
   15.8987   23.6673   28.8873 N   0  0  0  0  0  0  0  0  0  0  0  0
    6.8950   22.6860   32.7990 O   0  0  0  0  0  0  0  0  0  0  0  0
    8.9559   23.5596   31.8738 C   0  0  1  0  0  0  0  0  0  0  0  0
   16.4713   21.0900   33.0076 N   0  0  0  0  0  0  0  0  0  0  0  0
   10.3936   23.5802   31.9848 O   0  0  0  0  0  0  0  0  0  0  0  0
   10.9730   22.8388   30.8929 C   0  0  1  0  0  0  0  0  0  0  0  0
   12.8600   16.6835   33.9840 N   0  0  0  0  0  0  0  0  0  0  0  0
   12.0229   21.9541   31.3199 O   0  0  0  0  0  0  0  0  0  0  0  0
   13.3024   22.5897   31.4804 C   0  0  2  0  0  0  0  0  0  0  0  0
   12.1008   22.4020   35.7615 N   0  0  0  0  0  0  0  0  0  0  0  0
   13.1149   23.7940   29.3904 O   0  0  0  0  0  0  0  0  0  0  0  0
   13.9154   22.8438   30.0977 C   0  0  1  0  0  0  0  0  0  0  0  0
   13.7958   21.6454   33.7005 O   0  0  0  0  0  0  0  0  0  0  0  0
   15.3406   23.3887   30.2177 C   0  0  1  0  0  0  0  0  0  0  0  0
   12.8998   19.4630   33.6148 O   0  0  0  0  0  0  0  0  0  0  0  0
   16.2304   22.3781   30.9448 C   0  0  0  0  0  0  0  0  0  0  0  0
   14.5663   18.3186   36.6939 O   0  0  0  0  0  0  0  0  0  0  0  0
   15.6723   22.1353   32.3485 C   0  0  1  0  0  0  0  0  0  0  0  0
   12.8517   20.4062   37.6713 O   0  0  0  0  0  0  0  0  0  0  0  0
   14.2053   21.6925   32.3246 C   0  0  2  0  0  0  0  0  0  0  0  0
   10.0065   21.6228   28.9688 O   0  0  0  0  0  0  0  0  0  0  0  0
   12.6304   20.8411   33.9334 C   0  0  1  0  0  0  0  0  0  0  0  0
    8.7480   24.0510   29.4878 O   0  0  0  0  0  0  0  0  0  0  0  0
   13.9351   18.8590   34.4094 C   0  0  2  0  0  0  0  0  0  0  0  0
   14.1343   17.4153   33.9413 C   0  0  0  0  0  0  0  0  0  0  0  0
   13.5305   18.8879   35.8875 C   0  0  2  0  0  0  0  0  0  0  0  0
   13.2948   20.3390   36.3120 C   0  0  1  0  0  0  0  0  0  0  0  0
   12.2406   20.9824   35.4082 C   0  0  1  0  0  0  0  0  0  0  0  0
    9.8080   22.0248   30.3277 C   0  0  2  0  0  0  0  0  0  0  0  0
    8.6586   23.0200   30.4748 C   0  0  1  0  0  0  0  0  0  0  0  0
  3  1  1  0  0  0  0
  4  1  1  1  0  0  0
  4  6  1  0  0  0  0
  4 31  1  0  0  0  0
  6  7  1  0  0  0  0
  7  9  1  1  0  0  0
  7 30  1  0  0  0  0
 10  9  1  6  0  0  0
 10 13  1  0  0  0  0
 10 21  1  0  0  0  0
 13 12  1  1  0  0  0
 13 15  1  0  0  0  0
 15  2  1  6  0  0  0
 15 17  1  0  0  0  0
 16 25  1  0  0  0  0
 17 19  1  0  0  0  0
 19  5  1  6  0  0  0
 19 21  1  0  0  0  0
 21 14  1  1  0  0  0
 23 14  1  1  0  0  0
 23 16  1  0  0  0  0
 23 29  1  0  0  0  0
 25 26  1  6  0  0  0
 25 27  1  0  0  0  0
 26  8  1  0  0  0  0
 27 18  1  1  0  0  0
 27 28  1  0  0  0  0
 28 20  1  1  0  0  0
 28 29  1  0  0  0  0
 29 11  1  1  0  0  0
 30 22  1  6  0  0  0
 30 31  1  0  0  0  0
 31 24  1  6  0  0  0
M  END
>  <CHROM.1>
179.78109098,-82.31654901,-75.69779138,75.24961582,64.02821953,-54.90702279
12.46144523,21.54690765,32.61491338,2.13038776,0.14604741,-0.99000309

>  <Name>
2fcz_lig

>  <RI>
1.40544e+07

>  <Rbt.Current_Directory>
/home/itssahil/PROJECTS/Mol_Feturizer/New_Systems/rnas/2fcz

>  <Rbt.Executable>
rbdock ($Id: //depot/dev/client3/rdock/2013.1/src/exe/rbdock.cxx#4 $)

>  <Rbt.Library>
libRbt.so (2013.1, Build901 2013/11/27)

>  <Rbt.Parameter_File>
/export/apps/rDock/src/rDock_2013.1_src/data/scripts/dock_solv.prm

>  <Rbt.Receptor>
prm/blind_docking_100.prm

>  <SCORE>
-19.5853

>  <SCORE.INTER>
-16.8564

>  <SCORE.INTER.CONST>
1

>  <SCORE.INTER.POLAR>
-1.89911

>  <SCORE.INTER.ROT>
6

>  <SCORE.INTER.SOLV>
17.3644

>  <SCORE.INTER.VDW>
-18.2953

>  <SCORE.INTER.norm>
-0.543754

>  <SCORE.INTRA>
-2.72892

>  <SCORE.INTRA.DIHEDRAL>
-6.14495

>  <SCORE.INTRA.DIHEDRAL.0>
10.8409

>  <SCORE.INTRA.POLAR>
0

>  <SCORE.INTRA.POLAR.0>
0

>  <SCORE.INTRA.REPUL>
0

>  <SCORE.INTRA.REPUL.0>
0

>  <SCORE.INTRA.SOLV>
-2.10357

>  <SCORE.INTRA.SOLV.lig_0>
-80.8302

>  <SCORE.INTRA.VDW>
1.39534

>  <SCORE.INTRA.VDW.0>
-4.23953

>  <SCORE.INTRA.norm>
-0.0880296

>  <SCORE.RESTR>
0

>  <SCORE.RESTR.CAVITY>
0

>  <SCORE.RESTR.norm>
0

>  <SCORE.SYSTEM>
0

>  <SCORE.SYSTEM.CONST>
0

>  <SCORE.SYSTEM.DIHEDRAL>
0

>  <SCORE.SYSTEM.SOLV>
0

>  <SCORE.SYSTEM.norm>
0

>  <SCORE.heavy>
31

>  <SCORE.norm>
-0.631783

>  <RMSD>
7.318

$$$$
2fcz_lig
 OpenBabel11021811433D
libRbt.so/2013.1/901 2013/11/27
 31 33  0  0  0  0  0  0  0  0999 V2000
    9.4446   21.4666   33.9893 C   0  0  0  0  0  0  0  0  0  0  0  0
   16.3342   24.2857   29.3711 N   0  0  0  0  0  0  0  0  0  0  0  0
   10.2044   20.3461   33.5281 O   0  0  0  0  0  0  0  0  0  0  0  0
    9.6000   22.6332   33.0079 C   0  0  1  0  0  0  0  0  0  0  0  0
   16.9991   21.6741   33.4558 N   0  0  0  0  0  0  0  0  0  0  0  0
   10.9869   22.9518   32.7737 O   0  0  0  0  0  0  0  0  0  0  0  0
   11.3591   22.5393   31.4436 C   0  0  1  0  0  0  0  0  0  0  0  0
   16.7634   17.5900   35.6286 N   0  0  0  0  0  0  0  0  0  0  0  0
   12.6210   21.8509   31.4103 O   0  0  0  0  0  0  0  0  0  0  0  0
   13.7564   22.6843   31.6986 C   0  0  2  0  0  0  0  0  0  0  0  0
   12.0449   22.0967   35.6114 N   0  0  0  0  0  0  0  0  0  0  0  0
   13.5378   23.9247   29.6329 O   0  0  0  0  0  0  0  0  0  0  0  0
   14.4279   23.0935   30.3818 C   0  0  1  0  0  0  0  0  0  0  0  0
   14.2208   21.7458   33.9274 O   0  0  0  0  0  0  0  0  0  0  0  0
   15.7251   23.8636   30.6399 C   0  0  1  0  0  0  0  0  0  0  0  0
   13.9951   19.3960   33.9420 O   0  0  0  0  0  0  0  0  0  0  0  0
   16.7116   22.9871   31.4148 C   0  0  0  0  0  0  0  0  0  0  0  0
   15.3401   18.9727   37.3449 O   0  0  0  0  0  0  0  0  0  0  0  0
   16.0905   22.5973   32.7576 C   0  0  1  0  0  0  0  0  0  0  0  0
   12.9689   20.5241   37.8177 O   0  0  0  0  0  0  0  0  0  0  0  0
   14.7270   21.9169   32.5942 C   0  0  2  0  0  0  0  0  0  0  0  0
   10.1200   21.4621   29.5945 O   0  0  0  0  0  0  0  0  0  0  0  0
   13.3021   20.6520   34.0650 C   0  0  1  0  0  0  0  0  0  0  0  0
    8.6594   23.4397   30.9002 O   0  0  0  0  0  0  0  0  0  0  0  0
   14.9994   19.1685   34.9459 C   0  0  2  0  0  0  0  0  0  0  0  0
   15.6708   17.8204   34.6723 C   0  0  0  0  0  0  0  0  0  0  0  0
   14.3472   19.1663   36.3330 C   0  0  2  0  0  0  0  0  0  0  0  0
   13.6469   20.5082   36.5573 C   0  0  1  0  0  0  0  0  0  0  0  0
   12.6333   20.7612   35.4390 C   0  0  1  0  0  0  0  0  0  0  0  0
   10.2398   21.5893   31.0147 C   0  0  2  0  0  0  0  0  0  0  0  0
    9.0238   22.2709   31.6392 C   0  0  1  0  0  0  0  0  0  0  0  0
  3  1  1  0  0  0  0
  4  1  1  1  0  0  0
  4  6  1  0  0  0  0
  4 31  1  0  0  0  0
  6  7  1  0  0  0  0
  7  9  1  1  0  0  0
  7 30  1  0  0  0  0
 10  9  1  6  0  0  0
 10 13  1  0  0  0  0
 10 21  1  0  0  0  0
 13 12  1  1  0  0  0
 13 15  1  0  0  0  0
 15  2  1  6  0  0  0
 15 17  1  0  0  0  0
 16 25  1  0  0  0  0
 17 19  1  0  0  0  0
 19  5  1  6  0  0  0
 19 21  1  0  0  0  0
 21 14  1  1  0  0  0
 23 14  1  1  0  0  0
 23 16  1  0  0  0  0
 23 29  1  0  0  0  0
 25 26  1  6  0  0  0
 25 27  1  0  0  0  0
 26  8  1  0  0  0  0
 27 18  1  1  0  0  0
 27 28  1  0  0  0  0
 28 20  1  1  0  0  0
 28 29  1  0  0  0  0
 29 11  1  1  0  0  0
 30 22  1  6  0  0  0
 30 31  1  0  0  0  0
 31 24  1  6  0  0  0
M  END
>  <CHROM.1>
-53.99210943,-68.73345504,-99.45379453,81.72192754,70.47473862,176.42114029
13.20127437,21.47609346,33.14699412,2.13691456,0.03517576,-0.98991381

>  <Name>
2fcz_lig

>  <RI>
0

>  <Rbt.Current_Directory>
/home/itssahil/PROJECTS/Mol_Feturizer/New_Systems/rnas/2fcz

>  <Rbt.Executable>
rbdock ($Id: //depot/dev/client3/rdock/2013.1/src/exe/rbdock.cxx#4 $)

>  <Rbt.Library>
libRbt.so (2013.1, Build901 2013/11/27)

>  <Rbt.Parameter_File>
/export/apps/rDock/src/rDock_2013.1_src/data/scripts/dock_solv.prm

>  <Rbt.Receptor>
prm/blind_docking_80.prm

>  <SCORE>
-17.8443

>  <SCORE.INTER>
-17.6479

>  <SCORE.INTER.CONST>
1

>  <SCORE.INTER.POLAR>
-2.17742

>  <SCORE.INTER.ROT>
6

>  <SCORE.INTER.SOLV>
15.8449

>  <SCORE.INTER.VDW>
-17.3889

>  <SCORE.INTER.norm>
-0.569288

>  <SCORE.INTRA>
-0.196421

>  <SCORE.INTRA.DIHEDRAL>
-2.26882

>  <SCORE.INTRA.DIHEDRAL.0>
10.8409

>  <SCORE.INTRA.POLAR>
0

>  <SCORE.INTRA.POLAR.0>
0

>  <SCORE.INTRA.REPUL>
0

>  <SCORE.INTRA.REPUL.0>
0

>  <SCORE.INTRA.SOLV>
2.10627

>  <SCORE.INTRA.SOLV.lig_0>
-80.8302

>  <SCORE.INTRA.VDW>
-0.115143

>  <SCORE.INTRA.VDW.0>
-4.23953

>  <SCORE.INTRA.norm>
-0.00633615

>  <SCORE.RESTR>
0

>  <SCORE.RESTR.CAVITY>
0

>  <SCORE.RESTR.norm>
0

>  <SCORE.SYSTEM>
0

>  <SCORE.SYSTEM.CONST>
0

>  <SCORE.SYSTEM.DIHEDRAL>
0

>  <SCORE.SYSTEM.SOLV>
0

>  <SCORE.SYSTEM.norm>
0

>  <SCORE.heavy>
31

>  <SCORE.norm>
-0.575624

>  <RMSD>
7.324

$$$$
2fcz_lig
 OpenBabel11021811433D
libRbt.so/2013.1/901 2013/11/27
 31 33  0  0  0  0  0  0  0  0999 V2000
   14.9885   23.2598   36.4428 C   0  0  0  0  0  0  0  0  0  0  0  0
    8.6372   19.7529   32.6380 N   0  0  0  0  0  0  0  0  0  0  0  0
   14.0923   23.2250   35.3287 O   0  0  0  0  0  0  0  0  0  0  0  0
   14.8124   21.9917   37.2851 C   0  0  1  0  0  0  0  0  0  0  0  0
    8.4889   17.2628   36.8480 N   0  0  0  0  0  0  0  0  0  0  0  0
   13.4314   21.7740   37.6388 O   0  0  0  0  0  0  0  0  0  0  0  0
   12.9124   20.6552   36.8928 C   0  0  1  0  0  0  0  0  0  0  0  0
    7.2696   18.1212   39.8621 N   0  0  0  0  0  0  0  0  0  0  0  0
   11.6139   20.9170   36.3338 O   0  0  0  0  0  0  0  0  0  0  0  0
   11.0515   19.8137   35.6035 C   0  0  2  0  0  0  0  0  0  0  0  0
   13.6088   18.1302   38.5827 N   0  0  0  0  0  0  0  0  0  0  0  0
   10.9951   21.0475   33.5230 O   0  0  0  0  0  0  0  0  0  0  0  0
   10.1747   20.3562   34.4680 C   0  0  1  0  0  0  0  0  0  0  0  0
   11.0668   18.2149   37.4763 O   0  0  0  0  0  0  0  0  0  0  0  0
    9.4390   19.2227   33.7494 C   0  0  1  0  0  0  0  0  0  0  0  0
   10.0718   18.8209   39.5295 O   0  0  0  0  0  0  0  0  0  0  0  0
    8.5276   18.4822   34.7305 C   0  0  0  0  0  0  0  0  0  0  0  0
   10.3563   15.4640   41.0189 O   0  0  0  0  0  0  0  0  0  0  0  0
    9.3775   17.8874   35.8552 C   0  0  1  0  0  0  0  0  0  0  0  0
   13.1082   16.1897   40.6268 O   0  0  0  0  0  0  0  0  0  0  0  0
   10.2366   18.9438   36.5585 C   0  0  2  0  0  0  0  0  0  0  0  0
   13.9063   19.1222   35.2264 O   0  0  0  0  0  0  0  0  0  0  0  0
   11.2690   18.8798   38.7318 C   0  0  1  0  0  0  0  0  0  0  0  0
   15.5987   19.6781   37.3655 O   0  0  0  0  0  0  0  0  0  0  0  0
    9.6509   17.4900   39.8754 C   0  0  2  0  0  0  0  0  0  0  0  0
    8.3577   17.5798   40.6893 C   0  0  0  0  0  0  0  0  0  0  0  0
   10.7483   16.8014   40.6946 C   0  0  2  0  0  0  0  0  0  0  0  0
   12.0383   16.7682   39.8723 C   0  0  1  0  0  0  0  0  0  0  0  0
   12.4285   18.1883   39.4561 C   0  0  1  0  0  0  0  0  0  0  0  0
   13.9277   20.4464   35.7680 C   0  0  2  0  0  0  0  0  0  0  0  0
   15.2354   20.7531   36.4953 C   0  0  1  0  0  0  0  0  0  0  0  0
  3  1  1  0  0  0  0
  4  1  1  6  0  0  0
  4  6  1  0  0  0  0
  4 31  1  0  0  0  0
  6  7  1  0  0  0  0
  7  9  1  6  0  0  0
  7 30  1  0  0  0  0
 10  9  1  1  0  0  0
 10 13  1  0  0  0  0
 10 21  1  0  0  0  0
 13 12  1  6  0  0  0
 13 15  1  0  0  0  0
 15  2  1  6  0  0  0
 15 17  1  0  0  0  0
 16 25  1  0  0  0  0
 17 19  1  0  0  0  0
 19  5  1  1  0  0  0
 19 21  1  0  0  0  0
 21 14  1  1  0  0  0
 23 14  1  6  0  0  0
 23 16  1  0  0  0  0
 23 29  1  0  0  0  0
 25 26  1  1  0  0  0
 25 27  1  0  0  0  0
 26  8  1  0  0  0  0
 27 18  1  6  0  0  0
 27 28  1  0  0  0  0
 28 20  1  1  0  0  0
 28 29  1  0  0  0  0
 29 11  1  6  0  0  0
 30 22  1  1  0  0  0
 30 31  1  0  0  0  0
 31 24  1  1  0  0  0
M  END
>  <CHROM.1>
-52.15781047,-178.86158770,-148.42664620,93.65091402,73.23157141,65.29519160
11.56584445,19.21380323,37.27080917,-1.00320101,0.40714958,2.11465267

>  <Name>
2fcz_lig

>  <RI>
2.76032e+07

>  <Rbt.Current_Directory>
/home/itssahil/PROJECTS/Mol_Feturizer/New_Systems/rnas/2fcz

>  <Rbt.Executable>
rbdock ($Id: //depot/dev/client3/rdock/2013.1/src/exe/rbdock.cxx#4 $)

>  <Rbt.Library>
libRbt.so (2013.1, Build901 2013/11/27)

>  <Rbt.Parameter_File>
/export/apps/rDock/src/rDock_2013.1_src/data/scripts/dock_solv.prm

>  <Rbt.Receptor>
prm/pocket_docking_8.prm

>  <SCORE>
-13.9218

>  <SCORE.INTER>
-15.1589

>  <SCORE.INTER.CONST>
1

>  <SCORE.INTER.POLAR>
-1.96982

>  <SCORE.INTER.ROT>
6

>  <SCORE.INTER.SOLV>
11.1768

>  <SCORE.INTER.VDW>
-14.8655

>  <SCORE.INTER.norm>
-0.488997

>  <SCORE.INTRA>
1.23713

>  <SCORE.INTRA.DIHEDRAL>
-1.43731

>  <SCORE.INTRA.DIHEDRAL.0>
10.8409

>  <SCORE.INTRA.POLAR>
0

>  <SCORE.INTRA.POLAR.0>
0

>  <SCORE.INTRA.REPUL>
0

>  <SCORE.INTRA.REPUL.0>
0

>  <SCORE.INTRA.SOLV>
3.84988

>  <SCORE.INTRA.SOLV.lig_0>
-80.8302

>  <SCORE.INTRA.VDW>
0.0308464

>  <SCORE.INTRA.VDW.0>
-4.23953

>  <SCORE.INTRA.norm>
0.0399075

>  <SCORE.RESTR>
0

>  <SCORE.RESTR.CAVITY>
0

>  <SCORE.RESTR.norm>
0

>  <SCORE.SYSTEM>
0

>  <SCORE.SYSTEM.CONST>
0

>  <SCORE.SYSTEM.DIHEDRAL>
0

>  <SCORE.SYSTEM.SOLV>
0

>  <SCORE.SYSTEM.norm>
0

>  <SCORE.heavy>
31

>  <SCORE.norm>
-0.449089

>  <RMSD>
7.329

$$$$
2fcz_lig
 OpenBabel11021811433D
libRbt.so/2013.1/901 2013/11/27
 31 33  0  0  0  0  0  0  0  0999 V2000
    8.1218   19.0134   33.1319 C   0  0  0  0  0  0  0  0  0  0  0  0
   13.6754   16.1409   38.4220 N   0  0  0  0  0  0  0  0  0  0  0  0
    8.0551   20.1744   33.9644 O   0  0  0  0  0  0  0  0  0  0  0  0
    9.5482   18.4530   33.1430 C   0  0  1  0  0  0  0  0  0  0  0  0
    9.3746   16.0990   40.7561 N   0  0  0  0  0  0  0  0  0  0  0  0
    9.9968   18.1634   34.4826 O   0  0  0  0  0  0  0  0  0  0  0  0
   10.0528   16.7360   34.6751 C   0  0  1  0  0  0  0  0  0  0  0  0
    5.4685   13.2174   40.3270 N   0  0  0  0  0  0  0  0  0  0  0  0
    9.4783   16.3232   35.9268 O   0  0  0  0  0  0  0  0  0  0  0  0
   10.1592   16.8326   37.0861 C   0  0  2  0  0  0  0  0  0  0  0  0
    6.3491   19.1201   37.6385 N   0  0  0  0  0  0  0  0  0  0  0  0
   12.3251   16.7579   36.0105 O   0  0  0  0  0  0  0  0  0  0  0  0
   11.5818   16.2609   37.1261 C   0  0  1  0  0  0  0  0  0  0  0  0
    8.1419   17.1687   38.4577 O   0  0  0  0  0  0  0  0  0  0  0  0
   12.3005   16.6594   38.4172 C   0  0  1  0  0  0  0  0  0  0  0  0
    6.7783   15.4188   37.6504 O   0  0  0  0  0  0  0  0  0  0  0  0
   11.5435   16.1142   39.6302 C   0  0  0  0  0  0  0  0  0  0  0  0
    4.3129   15.6590   40.3765 O   0  0  0  0  0  0  0  0  0  0  0  0
   10.1310   16.7017   39.6471 C   0  0  1  0  0  0  0  0  0  0  0  0
    4.0582   18.2200   39.0999 O   0  0  0  0  0  0  0  0  0  0  0  0
    9.3761   16.4438   38.3385 C   0  0  2  0  0  0  0  0  0  0  0  0
    9.5629   14.8076   33.2067 O   0  0  0  0  0  0  0  0  0  0  0  0
    7.1537   16.7990   37.4849 C   0  0  1  0  0  0  0  0  0  0  0  0
   10.9381   16.8570   31.9190 O   0  0  0  0  0  0  0  0  0  0  0  0
    6.1828   15.1116   38.9228 C   0  0  2  0  0  0  0  0  0  0  0  0
    5.8678   13.6143   38.9689 C   0  0  0  0  0  0  0  0  0  0  0  0
    4.8996   15.9309   39.1001 C   0  0  2  0  0  0  0  0  0  0  0  0
    5.2407   17.4195   39.0037 C   0  0  1  0  0  0  0  0  0  0  0  0
    5.9365   17.7101   37.6720 C   0  0  1  0  0  0  0  0  0  0  0  0
    9.2337   16.1653   33.5163 C   0  0  2  0  0  0  0  0  0  0  0  0
    9.6146   17.1244   32.3901 C   0  0  1  0  0  0  0  0  0  0  0  0
  3  1  1  0  0  0  0
  4  1  1  1  0  0  0
  4  6  1  0  0  0  0
  4 31  1  0  0  0  0
  6  7  1  0  0  0  0
  7  9  1  1  0  0  0
  7 30  1  0  0  0  0
 10  9  1  6  0  0  0
 10 13  1  0  0  0  0
 10 21  1  0  0  0  0
 13 12  1  6  0  0  0
 13 15  1  0  0  0  0
 15  2  1  6  0  0  0
 15 17  1  0  0  0  0
 16 25  1  0  0  0  0
 17 19  1  0  0  0  0
 19  5  1  1  0  0  0
 19 21  1  0  0  0  0
 21 14  1  1  0  0  0
 23 14  1  1  0  0  0
 23 16  1  0  0  0  0
 23 29  1  0  0  0  0
 25 26  1  6  0  0  0
 25 27  1  0  0  0  0
 26  8  1  0  0  0  0
 27 18  1  1  0  0  0
 27 28  1  0  0  0  0
 28 20  1  6  0  0  0
 28 29  1  0  0  0  0
 29 11  1  1  0  0  0
 30 22  1  6  0  0  0
 30 31  1  0  0  0  0
 31 24  1  1  0  0  0
M  END
>  <CHROM.1>
56.15272653,-62.92461134,-64.11951938,69.84388502,62.81080796,170.53653297
8.55080080,16.69490642,36.94689799,0.86564361,0.12517302,-1.22339291

>  <Name>
2fcz_lig

>  <RI>
1.32928e+07

>  <Rbt.Current_Directory>
/home/itssahil/PROJECTS/Mol_Feturizer/New_Systems/rnas/2fcz

>  <Rbt.Executable>
rbdock ($Id: //depot/dev/client3/rdock/2013.1/src/exe/rbdock.cxx#4 $)

>  <Rbt.Library>
libRbt.so (2013.1, Build901 2013/11/27)

>  <Rbt.Parameter_File>
/export/apps/rDock/src/rDock_2013.1_src/data/scripts/dock_solv.prm

>  <Rbt.Receptor>
prm/pocket_docking_7.prm

>  <SCORE>
-16.34

>  <SCORE.INTER>
-12.7491

>  <SCORE.INTER.CONST>
1

>  <SCORE.INTER.POLAR>
-2.32916

>  <SCORE.INTER.ROT>
6

>  <SCORE.INTER.SOLV>
13.7448

>  <SCORE.INTER.VDW>
-12.9171

>  <SCORE.INTER.norm>
-0.41126

>  <SCORE.INTRA>
-3.59091

>  <SCORE.INTRA.DIHEDRAL>
-9.69604

>  <SCORE.INTRA.DIHEDRAL.0>
10.8409

>  <SCORE.INTRA.POLAR>
0

>  <SCORE.INTRA.POLAR.0>
0

>  <SCORE.INTRA.REPUL>
0

>  <SCORE.INTRA.REPUL.0>
0

>  <SCORE.INTRA.SOLV>
-2.69105

>  <SCORE.INTRA.SOLV.lig_0>
-80.8302

>  <SCORE.INTRA.VDW>
2.60263

>  <SCORE.INTRA.VDW.0>
-4.23953

>  <SCORE.INTRA.norm>
-0.115836

>  <SCORE.RESTR>
0

>  <SCORE.RESTR.CAVITY>
0

>  <SCORE.RESTR.norm>
0

>  <SCORE.SYSTEM>
0

>  <SCORE.SYSTEM.CONST>
0

>  <SCORE.SYSTEM.DIHEDRAL>
0

>  <SCORE.SYSTEM.SOLV>
0

>  <SCORE.SYSTEM.norm>
0

>  <SCORE.heavy>
31

>  <SCORE.norm>
-0.527096

>  <RMSD>
7.333

$$$$
2fcz_lig
 OpenBabel11021811433D
libRbt.so/2013.1/901 2013/11/27
 31 33  0  0  0  0  0  0  0  0999 V2000
   12.2372   22.8462   34.1627 C   0  0  0  0  0  0  0  0  0  0  0  0
    8.5349   16.0766   30.7760 N   0  0  0  0  0  0  0  0  0  0  0  0
   13.4751   22.1862   34.4415 O   0  0  0  0  0  0  0  0  0  0  0  0
   11.6781   22.3484   32.8255 C   0  0  1  0  0  0  0  0  0  0  0  0
    9.2888   15.2224   35.5351 N   0  0  0  0  0  0  0  0  0  0  0  0
   11.3961   20.9346   32.8586 O   0  0  0  0  0  0  0  0  0  0  0  0
    9.9698   20.7268   32.8728 C   0  0  1  0  0  0  0  0  0  0  0  0
    8.3296   17.3319   39.5877 N   0  0  0  0  0  0  0  0  0  0  0  0
    9.5633   19.7424   33.8386 O   0  0  0  0  0  0  0  0  0  0  0  0
    9.9135   18.3924   33.4895 C   0  0  2  0  0  0  0  0  0  0  0  0
   12.6466   19.5387   35.3217 N   0  0  0  0  0  0  0  0  0  0  0  0
    9.4383   18.7353   31.1421 O   0  0  0  0  0  0  0  0  0  0  0  0
    9.0771   17.9514   32.2820 C   0  0  1  0  0  0  0  0  0  0  0  0
   10.6119   17.7026   35.7479 O   0  0  0  0  0  0  0  0  0  0  0  0
    9.3093   16.4733   31.9601 C   0  0  1  0  0  0  0  0  0  0  0  0
    9.8073   18.8648   37.6386 O   0  0  0  0  0  0  0  0  0  0  0  0
    8.9020   15.6052   33.1527 C   0  0  0  0  0  0  0  0  0  0  0  0
   12.5457   17.7911   39.8558 O   0  0  0  0  0  0  0  0  0  0  0  0
    9.7511   15.9880   34.3665 C   0  0  1  0  0  0  0  0  0  0  0  0
   13.9407   19.3235   37.8660 O   0  0  0  0  0  0  0  0  0  0  0  0
    9.6641   17.4832   34.6913 C   0  0  2  0  0  0  0  0  0  0  0  0
    8.0331   22.2640   32.8370 O   0  0  0  0  0  0  0  0  0  0  0  0
   10.4934   18.9861   36.3786 C   0  0  1  0  0  0  0  0  0  0  0  0
   10.0767   23.0193   31.1042 O   0  0  0  0  0  0  0  0  0  0  0  0
   10.4761   18.0349   38.6039 C   0  0  2  0  0  0  0  0  0  0  0  0
    9.6222   17.9715   39.8727 C   0  0  0  0  0  0  0  0  0  0  0  0
   11.8553   18.6246   38.9198 C   0  0  2  0  0  0  0  0  0  0  0  0
   12.6667   18.7170   37.6258 C   0  0  1  0  0  0  0  0  0  0  0  0
   11.9039   19.5456   36.5897 C   0  0  1  0  0  0  0  0  0  0  0  0
    9.3921   22.0918   33.2504 C   0  0  2  0  0  0  0  0  0  0  0  0
   10.3455   23.0269   32.5087 C   0  0  1  0  0  0  0  0  0  0  0  0
  3  1  1  0  0  0  0
  4  1  1  1  0  0  0
  4  6  1  0  0  0  0
  4 31  1  0  0  0  0
  6  7  1  0  0  0  0
  7  9  1  1  0  0  0
  7 30  1  0  0  0  0
 10  9  1  1  0  0  0
 10 13  1  0  0  0  0
 10 21  1  0  0  0  0
 13 12  1  6  0  0  0
 13 15  1  0  0  0  0
 15  2  1  6  0  0  0
 15 17  1  0  0  0  0
 16 25  1  0  0  0  0
 17 19  1  0  0  0  0
 19  5  1  1  0  0  0
 19 21  1  0  0  0  0
 21 14  1  1  0  0  0
 23 14  1  1  0  0  0
 23 16  1  0  0  0  0
 23 29  1  0  0  0  0
 25 26  1  1  0  0  0
 25 27  1  0  0  0  0
 26  8  1  0  0  0  0
 27 18  1  1  0  0  0
 27 28  1  0  0  0  0
 28 20  1  1  0  0  0
 28 29  1  0  0  0  0
 29 11  1  6  0  0  0
 30 22  1  6  0  0  0
 30 31  1  0  0  0  0
 31 24  1  6  0  0  0
M  END
>  <CHROM.1>
61.92777245,-71.54642750,-68.70072036,67.22540593,101.79782240,63.25579491
10.50105008,19.18703361,34.90404268,-1.86513456,1.02632799,2.26037977

>  <Name>
2fcz_lig

>  <RI>
2.26996e+07

>  <Rbt.Current_Directory>
/home/itssahil/PROJECTS/Mol_Feturizer/New_Systems/rnas/2fcz

>  <Rbt.Executable>
rbdock ($Id: //depot/dev/client3/rdock/2013.1/src/exe/rbdock.cxx#4 $)

>  <Rbt.Library>
libRbt.so (2013.1, Build901 2013/11/27)

>  <Rbt.Parameter_File>
/export/apps/rDock/src/rDock_2013.1_src/data/scripts/dock_solv.prm

>  <Rbt.Receptor>
prm/pocket_docking_4.prm

>  <SCORE>
-16.1122

>  <SCORE.INTER>
-15.5482

>  <SCORE.INTER.CONST>
1

>  <SCORE.INTER.POLAR>
-1.76288

>  <SCORE.INTER.ROT>
6

>  <SCORE.INTER.SOLV>
14.9975

>  <SCORE.INTER.VDW>
-17.0884

>  <SCORE.INTER.norm>
-0.501555

>  <SCORE.INTRA>
-0.563988

>  <SCORE.INTRA.DIHEDRAL>
-3.70829

>  <SCORE.INTRA.DIHEDRAL.0>
10.8409

>  <SCORE.INTRA.POLAR>
0

>  <SCORE.INTRA.POLAR.0>
0

>  <SCORE.INTRA.REPUL>
0

>  <SCORE.INTRA.REPUL.0>
0

>  <SCORE.INTRA.SOLV>
-0.093405

>  <SCORE.INTRA.SOLV.lig_0>
-80.8302

>  <SCORE.INTRA.VDW>
1.33686

>  <SCORE.INTRA.VDW.0>
-4.23953

>  <SCORE.INTRA.norm>
-0.0181932

>  <SCORE.RESTR>
0

>  <SCORE.RESTR.CAVITY>
0

>  <SCORE.RESTR.norm>
0

>  <SCORE.SYSTEM>
0

>  <SCORE.SYSTEM.CONST>
0

>  <SCORE.SYSTEM.DIHEDRAL>
0

>  <SCORE.SYSTEM.SOLV>
0

>  <SCORE.SYSTEM.norm>
0

>  <SCORE.heavy>
31

>  <SCORE.norm>
-0.519749

>  <RMSD>
7.343

$$$$
2fcz_lig
 OpenBabel11021811433D
libRbt.so/2013.1/901 2013/11/27
 31 33  0  0  0  0  0  0  0  0999 V2000
    9.0582   22.0438   33.7109 C   0  0  0  0  0  0  0  0  0  0  0  0
   16.0611   23.8582   28.8422 N   0  0  0  0  0  0  0  0  0  0  0  0
    7.6595   21.7470   33.7419 O   0  0  0  0  0  0  0  0  0  0  0  0
    9.3481   23.0411   32.5841 C   0  0  1  0  0  0  0  0  0  0  0  0
   16.8276   21.4726   33.0456 N   0  0  0  0  0  0  0  0  0  0  0  0
   10.7646   23.2112   32.3739 O   0  0  0  0  0  0  0  0  0  0  0  0
   11.1477   22.5834   31.1342 C   0  0  1  0  0  0  0  0  0  0  0  0
   15.6881   17.5977   33.1706 N   0  0  0  0  0  0  0  0  0  0  0  0
   12.3464   21.7991   31.2581 O   0  0  0  0  0  0  0  0  0  0  0  0
   13.5458   22.5749   31.4215 C   0  0  2  0  0  0  0  0  0  0  0  0
   12.0860   22.4155   35.4705 N   0  0  0  0  0  0  0  0  0  0  0  0
   13.2705   23.6938   29.2941 O   0  0  0  0  0  0  0  0  0  0  0  0
   14.1552   22.8564   30.0426 C   0  0  1  0  0  0  0  0  0  0  0  0
   14.0943   21.7512   33.6765 O   0  0  0  0  0  0  0  0  0  0  0  0
   15.5100   23.5568   30.1706 C   0  0  1  0  0  0  0  0  0  0  0  0
   13.6223   19.4433   33.8305 O   0  0  0  0  0  0  0  0  0  0  0  0
   16.4896   22.6698   30.9421 C   0  0  0  0  0  0  0  0  0  0  0  0
   15.1406   19.0342   37.1615 O   0  0  0  0  0  0  0  0  0  0  0  0
   15.9332   22.4060   32.3427 C   0  0  1  0  0  0  0  0  0  0  0  0
   12.9842   20.8555   37.6964 O   0  0  0  0  0  0  0  0  0  0  0  0
   14.5238   21.8051   32.3070 C   0  0  2  0  0  0  0  0  0  0  0  0
    9.8882   21.3536   29.3975 O   0  0  0  0  0  0  0  0  0  0  0  0
   13.0762   20.7719   33.9288 C   0  0  1  0  0  0  0  0  0  0  0  0
    8.5563   23.6084   30.3416 O   0  0  0  0  0  0  0  0  0  0  0  0
   14.6620   19.1544   34.7811 C   0  0  2  0  0  0  0  0  0  0  0  0
   15.1669   17.7298   34.5389 C   0  0  0  0  0  0  0  0  0  0  0  0
   14.1079   19.2878   36.2040 C   0  0  2  0  0  0  0  0  0  0  0  0
   13.5705   20.7072   36.3992 C   0  0  1  0  0  0  0  0  0  0  0  0
   12.5166   21.0171   35.3337 C   0  0  1  0  0  0  0  0  0  0  0  0
    9.9673   21.6738   30.7899 C   0  0  2  0  0  0  0  0  0  0  0  0
    8.7925   22.5328   31.2538 C   0  0  1  0  0  0  0  0  0  0  0  0
  3  1  1  0  0  0  0
  4  1  1  1  0  0  0
  4  6  1  0  0  0  0
  4 31  1  0  0  0  0
  6  7  1  0  0  0  0
  7  9  1  1  0  0  0
  7 30  1  0  0  0  0
 10  9  1  6  0  0  0
 10 13  1  0  0  0  0
 10 21  1  0  0  0  0
 13 12  1  6  0  0  0
 13 15  1  0  0  0  0
 15  2  1  6  0  0  0
 15 17  1  0  0  0  0
 16 25  1  0  0  0  0
 17 19  1  0  0  0  0
 19  5  1  6  0  0  0
 19 21  1  0  0  0  0
 21 14  1  1  0  0  0
 23 14  1  1  0  0  0
 23 16  1  0  0  0  0
 23 29  1  0  0  0  0
 25 26  1  6  0  0  0
 25 27  1  0  0  0  0
 26  8  1  0  0  0  0
 27 18  1  1  0  0  0
 27 28  1  0  0  0  0
 28 20  1  1  0  0  0
 28 29  1  0  0  0  0
 29 11  1  6  0  0  0
 30 22  1  6  0  0  0
 30 31  1  0  0  0  0
 31 24  1  6  0  0  0
M  END
>  <CHROM.1>
-170.87841575,-71.33146058,-91.24675510,78.91667191,70.55197730,59.36515933
12.87223695,21.55580293,32.81693999,2.27015055,0.14391614,-1.07590699

>  <Name>
2fcz_lig

>  <RI>
0

>  <Rbt.Current_Directory>
/home/itssahil/PROJECTS/Mol_Feturizer/New_Systems/rnas/2fcz

>  <Rbt.Executable>
rbdock ($Id: //depot/dev/client3/rdock/2013.1/src/exe/rbdock.cxx#4 $)

>  <Rbt.Library>
libRbt.so (2013.1, Build901 2013/11/27)

>  <Rbt.Parameter_File>
/export/apps/rDock/src/rDock_2013.1_src/data/scripts/dock_solv.prm

>  <Rbt.Receptor>
prm/blind_docking_80.prm

>  <SCORE>
-23.8541

>  <SCORE.INTER>
-22.2438

>  <SCORE.INTER.CONST>
1

>  <SCORE.INTER.POLAR>
-3.33644

>  <SCORE.INTER.ROT>
6

>  <SCORE.INTER.SOLV>
19.287

>  <SCORE.INTER.VDW>
-17.7367

>  <SCORE.INTER.norm>
-0.717542

>  <SCORE.INTRA>
-2.05216

>  <SCORE.INTRA.DIHEDRAL>
-3.82228

>  <SCORE.INTRA.DIHEDRAL.0>
10.8409

>  <SCORE.INTRA.POLAR>
0

>  <SCORE.INTRA.POLAR.0>
0

>  <SCORE.INTRA.REPUL>
0

>  <SCORE.INTRA.REPUL.0>
0

>  <SCORE.INTRA.SOLV>
-1.01499

>  <SCORE.INTRA.SOLV.lig_0>
-80.8302

>  <SCORE.INTRA.VDW>
0.366471

>  <SCORE.INTRA.VDW.0>
-4.23953

>  <SCORE.INTRA.norm>
-0.0661989

>  <SCORE.RESTR>
0.441896

>  <SCORE.RESTR.CAVITY>
0.441896

>  <SCORE.RESTR.norm>
0.0142547

>  <SCORE.SYSTEM>
0

>  <SCORE.SYSTEM.CONST>
0

>  <SCORE.SYSTEM.DIHEDRAL>
0

>  <SCORE.SYSTEM.SOLV>
0

>  <SCORE.SYSTEM.norm>
0

>  <SCORE.heavy>
31

>  <SCORE.norm>
-0.769486

>  <RMSD>
7.344

$$$$
2fcz_lig
 OpenBabel11021811433D
libRbt.so/2013.1/901 2013/11/27
 31 33  0  0  0  0  0  0  0  0999 V2000
   12.5630   22.9073   35.0539 C   0  0  0  0  0  0  0  0  0  0  0  0
    9.4332   15.8625   31.4492 N   0  0  0  0  0  0  0  0  0  0  0  0
   13.8009   22.3192   35.4629 O   0  0  0  0  0  0  0  0  0  0  0  0
   12.1645   22.3634   33.6777 C   0  0  1  0  0  0  0  0  0  0  0  0
   10.2108   15.0436   36.2107 N   0  0  0  0  0  0  0  0  0  0  0  0
   12.0085   20.9299   33.6957 O   0  0  0  0  0  0  0  0  0  0  0  0
   10.6103   20.5949   33.5922 C   0  0  1  0  0  0  0  0  0  0  0  0
    7.3971   16.6732   39.5117 N   0  0  0  0  0  0  0  0  0  0  0  0
   10.2144   19.5765   34.5266 O   0  0  0  0  0  0  0  0  0  0  0  0
   10.6497   18.2518   34.1765 C   0  0  2  0  0  0  0  0  0  0  0  0
   13.4221   18.7124   37.9445 N   0  0  0  0  0  0  0  0  0  0  0  0
   10.1679   18.5710   31.8271 O   0  0  0  0  0  0  0  0  0  0  0  0
    9.8493   17.7632   32.9628 C   0  0  1  0  0  0  0  0  0  0  0  0
   11.3762   17.6004   36.4374 O   0  0  0  0  0  0  0  0  0  0  0  0
   10.1746   16.3032   32.6389 C   0  0  1  0  0  0  0  0  0  0  0  0
    9.7150   18.8232   37.5853 O   0  0  0  0  0  0  0  0  0  0  0  0
    9.8149   15.4082   33.8269 C   0  0  0  0  0  0  0  0  0  0  0  0
    9.8739   16.7750   40.6426 O   0  0  0  0  0  0  0  0  0  0  0  0
   10.6315   15.8395   35.0467 C   0  0  1  0  0  0  0  0  0  0  0  0
   12.5087   17.9152   40.5377 O   0  0  0  0  0  0  0  0  0  0  0  0
   10.4501   17.3256   35.3746 C   0  0  2  0  0  0  0  0  0  0  0  0
    8.5535   21.9521   33.3858 O   0  0  0  0  0  0  0  0  0  0  0  0
   11.0906   18.8065   37.1606 C   0  0  1  0  0  0  0  0  0  0  0  0
   10.6589   22.8903   31.8249 O   0  0  0  0  0  0  0  0  0  0  0  0
    9.3544   17.7570   38.4803 C   0  0  2  0  0  0  0  0  0  0  0  0
    7.8668   17.8816   38.8187 C   0  0  0  0  0  0  0  0  0  0  0  0
   10.1997   17.8495   39.7556 C   0  0  2  0  0  0  0  0  0  0  0  0
   11.6807   17.7677   39.3796 C   0  0  1  0  0  0  0  0  0  0  0  0
   12.0251   18.8678   38.3731 C   0  0  1  0  0  0  0  0  0  0  0  0
    9.8832   21.9020   33.9121 C   0  0  2  0  0  0  0  0  0  0  0  0
   10.8076   22.9200   33.2469 C   0  0  1  0  0  0  0  0  0  0  0  0
  3  1  1  0  0  0  0
  4  1  1  1  0  0  0
  4  6  1  0  0  0  0
  4 31  1  0  0  0  0
  6  7  1  0  0  0  0
  7  9  1  1  0  0  0
  7 30  1  0  0  0  0
 10  9  1  1  0  0  0
 10 13  1  0  0  0  0
 10 21  1  0  0  0  0
 13 12  1  6  0  0  0
 13 15  1  0  0  0  0
 15  2  1  6  0  0  0
 15 17  1  0  0  0  0
 16 25  1  0  0  0  0
 17 19  1  0  0  0  0
 19  5  1  1  0  0  0
 19 21  1  0  0  0  0
 21 14  1  1  0  0  0
 23 14  1  1  0  0  0
 23 16  1  0  0  0  0
 23 29  1  0  0  0  0
 25 26  1  1  0  0  0
 25 27  1  0  0  0  0
 26  8  1  0  0  0  0
 27 18  1  1  0  0  0
 27 28  1  0  0  0  0
 28 20  1  1  0  0  0
 28 29  1  0  0  0  0
 29 11  1  6  0  0  0
 30 22  1  6  0  0  0
 30 31  1  0  0  0  0
 31 24  1  6  0  0  0
M  END
>  <CHROM.1>
59.59454164,-74.82160240,-71.03468748,73.33569923,51.19280415,168.90407305
10.62804414,18.88288427,35.69395670,-1.35049242,1.16243595,1.95856171

>  <Name>
2fcz_lig

>  <RI>
2.26996e+07

>  <Rbt.Current_Directory>
/home/itssahil/PROJECTS/Mol_Feturizer/New_Systems/rnas/2fcz

>  <Rbt.Executable>
rbdock ($Id: //depot/dev/client3/rdock/2013.1/src/exe/rbdock.cxx#4 $)

>  <Rbt.Library>
libRbt.so (2013.1, Build901 2013/11/27)

>  <Rbt.Parameter_File>
/export/apps/rDock/src/rDock_2013.1_src/data/scripts/dock_solv.prm

>  <Rbt.Receptor>
prm/pocket_docking_4.prm

>  <SCORE>
-15.1147

>  <SCORE.INTER>
-12.0083

>  <SCORE.INTER.CONST>
1

>  <SCORE.INTER.POLAR>
-1.60428

>  <SCORE.INTER.ROT>
6

>  <SCORE.INTER.SOLV>
12.963

>  <SCORE.INTER.VDW>
-14.5789

>  <SCORE.INTER.norm>
-0.387364

>  <SCORE.INTRA>
-3.10636

>  <SCORE.INTRA.DIHEDRAL>
-7.45309

>  <SCORE.INTRA.DIHEDRAL.0>
10.8409

>  <SCORE.INTRA.POLAR>
0

>  <SCORE.INTRA.POLAR.0>
0

>  <SCORE.INTRA.REPUL>
0

>  <SCORE.INTRA.REPUL.0>
0

>  <SCORE.INTRA.SOLV>
-2.53554

>  <SCORE.INTRA.SOLV.lig_0>
-80.8302

>  <SCORE.INTRA.VDW>
1.88795

>  <SCORE.INTRA.VDW.0>
-4.23953

>  <SCORE.INTRA.norm>
-0.100205

>  <SCORE.RESTR>
0

>  <SCORE.RESTR.CAVITY>
0

>  <SCORE.RESTR.norm>
0

>  <SCORE.SYSTEM>
0

>  <SCORE.SYSTEM.CONST>
0

>  <SCORE.SYSTEM.DIHEDRAL>
0

>  <SCORE.SYSTEM.SOLV>
0

>  <SCORE.SYSTEM.norm>
0

>  <SCORE.heavy>
31

>  <SCORE.norm>
-0.48757

>  <RMSD>
7.351

$$$$
2fcz_lig
 OpenBabel11021811433D
libRbt.so/2013.1/901 2013/11/27
 31 33  0  0  0  0  0  0  0  0999 V2000
    8.3760   20.7740   32.4495 C   0  0  0  0  0  0  0  0  0  0  0  0
   15.9501   23.7111   28.8786 N   0  0  0  0  0  0  0  0  0  0  0  0
    7.8593   20.5019   33.7550 O   0  0  0  0  0  0  0  0  0  0  0  0
    8.8971   22.2141   32.3918 C   0  0  1  0  0  0  0  0  0  0  0  0
   16.7226   21.1068   32.9489 N   0  0  0  0  0  0  0  0  0  0  0  0
   10.3055   22.2839   32.6938 O   0  0  0  0  0  0  0  0  0  0  0  0
   11.0430   22.5814   31.4916 C   0  0  1  0  0  0  0  0  0  0  0  0
   16.5615   17.3922   35.3448 N   0  0  0  0  0  0  0  0  0  0  0  0
   12.2092   21.7545   31.3387 O   0  0  0  0  0  0  0  0  0  0  0  0
   13.4549   22.4558   31.4911 C   0  0  2  0  0  0  0  0  0  0  0  0
   11.9971   22.0945   35.4794 N   0  0  0  0  0  0  0  0  0  0  0  0
   13.1714   23.6796   29.4233 O   0  0  0  0  0  0  0  0  0  0  0  0
   14.0325   22.7634   30.1040 C   0  0  1  0  0  0  0  0  0  0  0  0
   14.0319   21.5062   33.6886 O   0  0  0  0  0  0  0  0  0  0  0  0
   15.4279   23.3827   30.2122 C   0  0  1  0  0  0  0  0  0  0  0  0
   13.6748   19.1801   33.8746 O   0  0  0  0  0  0  0  0  0  0  0  0
   16.3817   22.4109   30.9105 C   0  0  0  0  0  0  0  0  0  0  0  0
   15.2186   18.8910   37.2064 O   0  0  0  0  0  0  0  0  0  0  0  0
   15.8587   22.1172   32.3180 C   0  0  1  0  0  0  0  0  0  0  0  0
   12.9761   20.6107   37.7232 O   0  0  0  0  0  0  0  0  0  0  0  0
   14.4175   21.5961   32.3080 C   0  0  2  0  0  0  0  0  0  0  0  0
   10.3696   22.9850   29.1467 O   0  0  0  0  0  0  0  0  0  0  0  0
   13.0639   20.4813   33.9568 C   0  0  1  0  0  0  0  0  0  0  0  0
    8.7020   24.2174   31.0040 O   0  0  0  0  0  0  0  0  0  0  0  0
   14.7296   18.9557   34.8260 C   0  0  2  0  0  0  0  0  0  0  0  0
   15.3037   17.5546   34.6013 C   0  0  0  0  0  0  0  0  0  0  0  0
   14.1726   19.0806   36.2485 C   0  0  2  0  0  0  0  0  0  0  0  0
   13.5662   20.4741   36.4264 C   0  0  1  0  0  0  0  0  0  0  0  0
   12.4960   20.7175   35.3599 C   0  0  1  0  0  0  0  0  0  0  0  0
   10.0540   22.2958   30.3603 C   0  0  2  0  0  0  0  0  0  0  0  0
    8.7489   22.7883   30.9829 C   0  0  1  0  0  0  0  0  0  0  0  0
  3  1  1  0  0  0  0
  4  1  1  6  0  0  0
  4  6  1  0  0  0  0
  4 31  1  0  0  0  0
  6  7  1  0  0  0  0
  7  9  1  6  0  0  0
  7 30  1  0  0  0  0
 10  9  1  6  0  0  0
 10 13  1  0  0  0  0
 10 21  1  0  0  0  0
 13 12  1  1  0  0  0
 13 15  1  0  0  0  0
 15  2  1  6  0  0  0
 15 17  1  0  0  0  0
 16 25  1  0  0  0  0
 17 19  1  0  0  0  0
 19  5  1  6  0  0  0
 19 21  1  0  0  0  0
 21 14  1  1  0  0  0
 23 14  1  1  0  0  0
 23 16  1  0  0  0  0
 23 29  1  0  0  0  0
 25 26  1  1  0  0  0
 25 27  1  0  0  0  0
 26  8  1  0  0  0  0
 27 18  1  1  0  0  0
 27 28  1  0  0  0  0
 28 20  1  1  0  0  0
 28 29  1  0  0  0  0
 29 11  1  6  0  0  0
 30 22  1  6  0  0  0
 30 31  1  0  0  0  0
 31 24  1  1  0  0  0
M  END
>  <CHROM.1>
93.05790272,-110.69884009,-100.12274008,84.75704913,72.78408828,167.74388667
12.85002916,21.37520012,32.87821324,2.21143402,0.10668752,-1.01514285

>  <Name>
2fcz_lig

>  <RI>
2.6968e+07

>  <Rbt.Current_Directory>
/home/itssahil/PROJECTS/Mol_Feturizer/New_Systems/rnas/2fcz

>  <Rbt.Executable>
rbdock ($Id: //depot/dev/client3/rdock/2013.1/src/exe/rbdock.cxx#4 $)

>  <Rbt.Library>
libRbt.so (2013.1, Build901 2013/11/27)

>  <Rbt.Parameter_File>
/export/apps/rDock/src/rDock_2013.1_src/data/scripts/dock_solv.prm

>  <Rbt.Receptor>
prm/blind_docking_60.prm

>  <SCORE>
-20.8332

>  <SCORE.INTER>
-24.8694

>  <SCORE.INTER.CONST>
1

>  <SCORE.INTER.POLAR>
-3.70244

>  <SCORE.INTER.ROT>
6

>  <SCORE.INTER.SOLV>
17.5952

>  <SCORE.INTER.VDW>
-17.7032

>  <SCORE.INTER.norm>
-0.802239

>  <SCORE.INTRA>
3.91878

>  <SCORE.INTRA.DIHEDRAL>
8.32697

>  <SCORE.INTRA.DIHEDRAL.0>
10.8409

>  <SCORE.INTRA.POLAR>
0

>  <SCORE.INTRA.POLAR.0>
0

>  <SCORE.INTRA.REPUL>
0

>  <SCORE.INTRA.REPUL.0>
0

>  <SCORE.INTRA.SOLV>
-0.616229

>  <SCORE.INTRA.SOLV.lig_0>
-80.8302

>  <SCORE.INTRA.VDW>
0.0634123

>  <SCORE.INTRA.VDW.0>
-4.23953

>  <SCORE.INTRA.norm>
0.126412

>  <SCORE.RESTR>
0.117418

>  <SCORE.RESTR.CAVITY>
0.117418

>  <SCORE.RESTR.norm>
0.00378766

>  <SCORE.SYSTEM>
0

>  <SCORE.SYSTEM.CONST>
0

>  <SCORE.SYSTEM.DIHEDRAL>
0

>  <SCORE.SYSTEM.SOLV>
0

>  <SCORE.SYSTEM.norm>
0

>  <SCORE.heavy>
31

>  <SCORE.norm>
-0.672039

>  <RMSD>
7.364

$$$$
2fcz_lig
 OpenBabel11021811433D
libRbt.so/2013.1/901 2013/11/27
 31 33  0  0  0  0  0  0  0  0999 V2000
   14.2687   21.8301   36.6652 C   0  0  0  0  0  0  0  0  0  0  0  0
    8.7169   23.0227   30.3843 N   0  0  0  0  0  0  0  0  0  0  0  0
   14.8112   23.1473   36.5372 O   0  0  0  0  0  0  0  0  0  0  0  0
   12.7495   21.8777   36.4694 C   0  0  1  0  0  0  0  0  0  0  0  0
   13.3155   23.3145   28.7366 N   0  0  0  0  0  0  0  0  0  0  0  0
   12.3957   22.3696   35.1608 O   0  0  0  0  0  0  0  0  0  0  0  0
   11.8845   21.2860   34.3595 C   0  0  1  0  0  0  0  0  0  0  0  0
   17.7957   24.0943   28.1279 N   0  0  0  0  0  0  0  0  0  0  0  0
   12.4333   21.2733   33.0307 O   0  0  0  0  0  0  0  0  0  0  0  0
   12.0156   22.3762   32.2084 C   0  0  2  0  0  0  0  0  0  0  0  0
   15.6301   21.0986   32.9114 N   0  0  0  0  0  0  0  0  0  0  0  0
    9.7058   22.1929   32.9047 O   0  0  0  0  0  0  0  0  0  0  0  0
   10.5653   22.1513   31.7630 C   0  0  1  0  0  0  0  0  0  0  0  0
   14.2580   22.9505   31.3684 O   0  0  0  0  0  0  0  0  0  0  0  0
   10.1204   23.2264   30.7687 C   0  0  1  0  0  0  0  0  0  0  0  0
   15.9758   23.0430   29.7517 O   0  0  0  0  0  0  0  0  0  0  0  0
   11.0042   23.1860   29.5202 C   0  0  0  0  0  0  0  0  0  0  0  0
   18.2621   25.0408   31.8372 O   0  0  0  0  0  0  0  0  0  0  0  0
   12.4559   23.4530   29.9230 C   0  0  1  0  0  0  0  0  0  0  0  0
   18.0166   22.6154   33.3571 O   0  0  0  0  0  0  0  0  0  0  0  0
   12.9489   22.4853   31.0042 C   0  0  2  0  0  0  0  0  0  0  0  0
   11.5118   18.8815   34.8008 O   0  0  0  0  0  0  0  0  0  0  0  0
   15.3276   22.2256   30.7441 C   0  0  1  0  0  0  0  0  0  0  0  0
   10.7643   20.5238   36.9206 O   0  0  0  0  0  0  0  0  0  0  0  0
   16.5867   24.2374   30.2697 C   0  0  2  0  0  0  0  0  0  0  0  0
   17.2033   25.0179   29.1062 C   0  0  0  0  0  0  0  0  0  0  0  0
   17.6672   23.8604   31.2894 C   0  0  2  0  0  0  0  0  0  0  0  0
   17.0283   23.0435   32.4145 C   0  0  1  0  0  0  0  0  0  0  0  0
   16.3245   21.8154   31.8328 C   0  0  1  0  0  0  0  0  0  0  0  0
   12.3154   20.0245   35.1096 C   0  0  2  0  0  0  0  0  0  0  0  0
   12.1471   20.4756   36.5592 C   0  0  1  0  0  0  0  0  0  0  0  0
  3  1  1  0  0  0  0
  4  1  1  6  0  0  0
  4  6  1  0  0  0  0
  4 31  1  0  0  0  0
  6  7  1  0  0  0  0
  7  9  1  6  0  0  0
  7 30  1  0  0  0  0
 10  9  1  1  0  0  0
 10 13  1  0  0  0  0
 10 21  1  0  0  0  0
 13 12  1  1  0  0  0
 13 15  1  0  0  0  0
 15  2  1  6  0  0  0
 15 17  1  0  0  0  0
 16 25  1  0  0  0  0
 17 19  1  0  0  0  0
 19  5  1  6  0  0  0
 19 21  1  0  0  0  0
 21 14  1  1  0  0  0
 23 14  1  1  0  0  0
 23 16  1  0  0  0  0
 23 29  1  0  0  0  0
 25 26  1  6  0  0  0
 25 27  1  0  0  0  0
 26  8  1  0  0  0  0
 27 18  1  1  0  0  0
 27 28  1  0  0  0  0
 28 20  1  1  0  0  0
 28 29  1  0  0  0  0
 29 11  1  1  0  0  0
 30 22  1  6  0  0  0
 30 31  1  0  0  0  0
 31 24  1  6  0  0  0
M  END
>  <CHROM.1>
60.83546745,-68.08982435,-74.77292962,136.00174775,108.94096316,-37.77448019
13.75682398,22.44899794,32.49591664,-2.37236656,-0.18055400,-1.23757461

>  <Name>
2fcz_lig

>  <RI>
1.40544e+07

>  <Rbt.Current_Directory>
/home/itssahil/PROJECTS/Mol_Feturizer/New_Systems/rnas/2fcz

>  <Rbt.Executable>
rbdock ($Id: //depot/dev/client3/rdock/2013.1/src/exe/rbdock.cxx#4 $)

>  <Rbt.Library>
libRbt.so (2013.1, Build901 2013/11/27)

>  <Rbt.Parameter_File>
/export/apps/rDock/src/rDock_2013.1_src/data/scripts/dock_solv.prm

>  <Rbt.Receptor>
prm/blind_docking_100.prm

>  <SCORE>
-14.4099

>  <SCORE.INTER>
-18.3653

>  <SCORE.INTER.CONST>
1

>  <SCORE.INTER.POLAR>
-1.25868

>  <SCORE.INTER.ROT>
6

>  <SCORE.INTER.SOLV>
17.2297

>  <SCORE.INTER.VDW>
-21.3911

>  <SCORE.INTER.norm>
-0.592428

>  <SCORE.INTRA>
3.93687

>  <SCORE.INTRA.DIHEDRAL>
4.74594

>  <SCORE.INTRA.DIHEDRAL.0>
10.8409

>  <SCORE.INTRA.POLAR>
0

>  <SCORE.INTRA.POLAR.0>
0

>  <SCORE.INTRA.REPUL>
0

>  <SCORE.INTRA.REPUL.0>
0

>  <SCORE.INTRA.SOLV>
0.954171

>  <SCORE.INTRA.SOLV.lig_0>
-80.8302

>  <SCORE.INTRA.VDW>
1.08682

>  <SCORE.INTRA.VDW.0>
-4.23953

>  <SCORE.INTRA.norm>
0.126996

>  <SCORE.RESTR>
0.0184735

>  <SCORE.RESTR.CAVITY>
0.0184735

>  <SCORE.RESTR.norm>
0.000595921

>  <SCORE.SYSTEM>
0

>  <SCORE.SYSTEM.CONST>
0

>  <SCORE.SYSTEM.DIHEDRAL>
0

>  <SCORE.SYSTEM.SOLV>
0

>  <SCORE.SYSTEM.norm>
0

>  <SCORE.heavy>
31

>  <SCORE.norm>
-0.464836

>  <RMSD>
7.381

$$$$
2fcz_lig
 OpenBabel11021811433D
libRbt.so/2013.1/901 2013/11/27
 31 33  0  0  0  0  0  0  0  0999 V2000
   12.4759   20.9371   35.0899 C   0  0  0  0  0  0  0  0  0  0  0  0
   13.6678   16.5163   39.5523 N   0  0  0  0  0  0  0  0  0  0  0  0
   11.6774   21.6963   36.0018 O   0  0  0  0  0  0  0  0  0  0  0  0
   11.8705   19.5402   34.9153 C   0  0  1  0  0  0  0  0  0  0  0  0
    9.2437   14.5327   38.8886 N   0  0  0  0  0  0  0  0  0  0  0  0
   11.6683   18.8843   36.1836 O   0  0  0  0  0  0  0  0  0  0  0  0
   10.2584   18.8272   36.4783 C   0  0  1  0  0  0  0  0  0  0  0  0
    5.3209   12.9645   38.7172 N   0  0  0  0  0  0  0  0  0  0  0  0
    9.9611   19.1974   37.8354 O   0  0  0  0  0  0  0  0  0  0  0  0
   10.3161   18.2025   38.8106 C   0  0  2  0  0  0  0  0  0  0  0  0
    6.3253   18.8178   37.6331 N   0  0  0  0  0  0  0  0  0  0  0  0
   12.5551   19.0778   39.0835 O   0  0  0  0  0  0  0  0  0  0  0  0
   11.8184   17.9111   38.7088 C   0  0  1  0  0  0  0  0  0  0  0  0
    8.1093   17.1134   38.9001 O   0  0  0  0  0  0  0  0  0  0  0  0
   12.2199   16.7555   39.6284 C   0  0  1  0  0  0  0  0  0  0  0  0
    6.8519   15.1967   38.3362 O   0  0  0  0  0  0  0  0  0  0  0  0
   11.4692   15.4825   39.2315 C   0  0  0  0  0  0  0  0  0  0  0  0
    4.1996   15.8211   40.8148 O   0  0  0  0  0  0  0  0  0  0  0  0
    9.9643   15.7236   39.3659 C   0  0  1  0  0  0  0  0  0  0  0  0
    3.9645   18.1033   39.0857 O   0  0  0  0  0  0  0  0  0  0  0  0
    9.4940   16.9397   38.5605 C   0  0  2  0  0  0  0  0  0  0  0  0
    8.2419   19.5908   35.2678 O   0  0  0  0  0  0  0  0  0  0  0  0
    7.2006   16.5391   37.9495 C   0  0  1  0  0  0  0  0  0  0  0  0
   10.1407   18.4029   33.6146 O   0  0  0  0  0  0  0  0  0  0  0  0
    6.1789   15.0972   39.6032 C   0  0  2  0  0  0  0  0  0  0  0  0
    5.9017   13.6209   39.8975 C   0  0  0  0  0  0  0  0  0  0  0  0
    4.8650   15.8848   39.5497 C   0  0  2  0  0  0  0  0  0  0  0  0
    5.1719   17.3447   39.2092 C   0  0  1  0  0  0  0  0  0  0  0  0
    5.9493   17.4212   37.8932 C   0  0  1  0  0  0  0  0  0  0  0  0
    9.6294   19.8366   35.5167 C   0  0  2  0  0  0  0  0  0  0  0  0
   10.4872   19.6255   34.2705 C   0  0  1  0  0  0  0  0  0  0  0  0
  3  1  1  0  0  0  0
  4  1  1  1  0  0  0
  4  6  1  0  0  0  0
  4 31  1  0  0  0  0
  6  7  1  0  0  0  0
  7  9  1  1  0  0  0
  7 30  1  0  0  0  0
 10  9  1  6  0  0  0
 10 13  1  0  0  0  0
 10 21  1  0  0  0  0
 13 12  1  1  0  0  0
 13 15  1  0  0  0  0
 15  2  1  6  0  0  0
 15 17  1  0  0  0  0
 16 25  1  0  0  0  0
 17 19  1  0  0  0  0
 19  5  1  6  0  0  0
 19 21  1  0  0  0  0
 21 14  1  1  0  0  0
 23 14  1  1  0  0  0
 23 16  1  0  0  0  0
 23 29  1  0  0  0  0
 25 26  1  6  0  0  0
 25 27  1  0  0  0  0
 26  8  1  0  0  0  0
 27 18  1  1  0  0  0
 27 28  1  0  0  0  0
 28 20  1  6  0  0  0
 28 29  1  0  0  0  0
 29 11  1  1  0  0  0
 30 22  1  6  0  0  0
 30 31  1  0  0  0  0
 31 24  1  1  0  0  0
M  END
>  <CHROM.1>
-53.39695678,-73.88179901,58.56999877,137.77142327,92.87210379,-47.21624099
8.93221503,17.50654513,37.87304695,0.69696388,-0.06480420,-0.75197828

>  <Name>
2fcz_lig

>  <RI>
2.76032e+07

>  <Rbt.Current_Directory>
/home/itssahil/PROJECTS/Mol_Feturizer/New_Systems/rnas/2fcz

>  <Rbt.Executable>
rbdock ($Id: //depot/dev/client3/rdock/2013.1/src/exe/rbdock.cxx#4 $)

>  <Rbt.Library>
libRbt.so (2013.1, Build901 2013/11/27)

>  <Rbt.Parameter_File>
/export/apps/rDock/src/rDock_2013.1_src/data/scripts/dock_solv.prm

>  <Rbt.Receptor>
prm/pocket_docking_8.prm

>  <SCORE>
-10.5604

>  <SCORE.INTER>
-14.7174

>  <SCORE.INTER.CONST>
1

>  <SCORE.INTER.POLAR>
-3.49681

>  <SCORE.INTER.ROT>
6

>  <SCORE.INTER.SOLV>
17.8217

>  <SCORE.INTER.VDW>
-11.6961

>  <SCORE.INTER.norm>
-0.474754

>  <SCORE.INTRA>
4.15696

>  <SCORE.INTRA.DIHEDRAL>
0.723859

>  <SCORE.INTRA.DIHEDRAL.0>
10.8409

>  <SCORE.INTRA.POLAR>
0

>  <SCORE.INTRA.POLAR.0>
0

>  <SCORE.INTRA.REPUL>
0.000341507

>  <SCORE.INTRA.REPUL.0>
0

>  <SCORE.INTRA.SOLV>
2.97824

>  <SCORE.INTRA.SOLV.lig_0>
-80.8302

>  <SCORE.INTRA.VDW>
2.30421

>  <SCORE.INTRA.VDW.0>
-4.23953

>  <SCORE.INTRA.norm>
0.134096

>  <SCORE.RESTR>
0

>  <SCORE.RESTR.CAVITY>
0

>  <SCORE.RESTR.norm>
0

>  <SCORE.SYSTEM>
0

>  <SCORE.SYSTEM.CONST>
0

>  <SCORE.SYSTEM.DIHEDRAL>
0

>  <SCORE.SYSTEM.SOLV>
0

>  <SCORE.SYSTEM.norm>
0

>  <SCORE.heavy>
31

>  <SCORE.norm>
-0.340658

>  <RMSD>
7.381

$$$$
2fcz_lig
 OpenBabel11021811433D
libRbt.so/2013.1/901 2013/11/27
 31 33  0  0  0  0  0  0  0  0999 V2000
    9.1776   21.3246   33.1740 C   0  0  0  0  0  0  0  0  0  0  0  0
   11.6192   12.9599   31.7389 N   0  0  0  0  0  0  0  0  0  0  0  0
    8.2950   20.4470   33.8784 O   0  0  0  0  0  0  0  0  0  0  0  0
    9.8507   20.5651   32.0257 C   0  0  1  0  0  0  0  0  0  0  0  0
   12.4836   14.4480   36.3198 N   0  0  0  0  0  0  0  0  0  0  0  0
   10.6564   19.4714   32.5097 O   0  0  0  0  0  0  0  0  0  0  0  0
   10.0138   18.2207   32.1923 C   0  0  1  0  0  0  0  0  0  0  0  0
    8.5075   15.5770   37.8945 N   0  0  0  0  0  0  0  0  0  0  0  0
   10.0122   17.3026   33.2987 O   0  0  0  0  0  0  0  0  0  0  0  0
   11.1362   16.4065   33.3245 C   0  0  2  0  0  0  0  0  0  0  0  0
   12.9974   19.6822   35.7421 N   0  0  0  0  0  0  0  0  0  0  0  0
   10.6767   15.5544   31.1072 O   0  0  0  0  0  0  0  0  0  0  0  0
   10.8134   15.1694   32.4773 C   0  0  1  0  0  0  0  0  0  0  0  0
   11.9893   17.1073   35.5256 O   0  0  0  0  0  0  0  0  0  0  0  0
   11.9217   14.1199   32.5886 C   0  0  1  0  0  0  0  0  0  0  0  0
    9.9683   17.6883   36.5983 O   0  0  0  0  0  0  0  0  0  0  0  0
   12.0710   13.6649   34.0420 C   0  0  0  0  0  0  0  0  0  0  0  0
   11.4407   17.8596   39.9703 O   0  0  0  0  0  0  0  0  0  0  0  0
   12.4393   14.8693   34.9106 C   0  0  1  0  0  0  0  0  0  0  0  0
   12.8438   19.9509   38.5880 O   0  0  0  0  0  0  0  0  0  0  0  0
   11.4346   16.0182   34.7713 C   0  0  2  0  0  0  0  0  0  0  0  0
    7.9122   17.6442   31.0236 O   0  0  0  0  0  0  0  0  0  0  0  0
   11.0580   18.1671   35.7881 C   0  0  1  0  0  0  0  0  0  0  0  0
    9.3304   19.7023   29.7980 O   0  0  0  0  0  0  0  0  0  0  0  0
   10.3577   17.2038   37.8950 C   0  0  2  0  0  0  0  0  0  0  0  0
    9.1106   16.7005   38.6261 C   0  0  0  0  0  0  0  0  0  0  0  0
   11.0189   18.3361   38.6887 C   0  0  2  0  0  0  0  0  0  0  0  0
   12.2336   18.8473   37.9110 C   0  0  1  0  0  0  0  0  0  0  0  0
   11.8069   19.2918   36.5101 C   0  0  1  0  0  0  0  0  0  0  0  0
    8.5771   18.6115   31.8419 C   0  0  2  0  0  0  0  0  0  0  0  0
    8.8049   19.9317   31.1081 C   0  0  1  0  0  0  0  0  0  0  0  0
  3  1  1  0  0  0  0
  4  1  1  1  0  0  0
  4  6  1  0  0  0  0
  4 31  1  0  0  0  0
  6  7  1  0  0  0  0
  7  9  1  1  0  0  0
  7 30  1  0  0  0  0
 10  9  1  1  0  0  0
 10 13  1  0  0  0  0
 10 21  1  0  0  0  0
 13 12  1  6  0  0  0
 13 15  1  0  0  0  0
 15  2  1  6  0  0  0
 15 17  1  0  0  0  0
 16 25  1  0  0  0  0
 17 19  1  0  0  0  0
 19  5  1  1  0  0  0
 19 21  1  0  0  0  0
 21 14  1  1  0  0  0
 23 14  1  1  0  0  0
 23 16  1  0  0  0  0
 23 29  1  0  0  0  0
 25 26  1  1  0  0  0
 25 27  1  0  0  0  0
 26  8  1  0  0  0  0
 27 18  1  1  0  0  0
 27 28  1  0  0  0  0
 28 20  1  1  0  0  0
 28 29  1  0  0  0  0
 29 11  1  6  0  0  0
 30 22  1  6  0  0  0
 30 31  1  0  0  0  0
 31 24  1  6  0  0  0
M  END
>  <CHROM.1>
-62.05182227,-92.05027831,-87.02245514,69.55354345,62.90362664,62.21934264
10.64234388,17.54416682,34.56537672,2.33762212,1.20076249,-2.23484836

>  <Name>
2fcz_lig

>  <RI>
1.32928e+07

>  <Rbt.Current_Directory>
/home/itssahil/PROJECTS/Mol_Feturizer/New_Systems/rnas/2fcz

>  <Rbt.Executable>
rbdock ($Id: //depot/dev/client3/rdock/2013.1/src/exe/rbdock.cxx#4 $)

>  <Rbt.Library>
libRbt.so (2013.1, Build901 2013/11/27)

>  <Rbt.Parameter_File>
/export/apps/rDock/src/rDock_2013.1_src/data/scripts/dock_solv.prm

>  <Rbt.Receptor>
prm/pocket_docking_7.prm

>  <SCORE>
-14.106

>  <SCORE.INTER>
-12.1782

>  <SCORE.INTER.CONST>
1

>  <SCORE.INTER.POLAR>
-2.01219

>  <SCORE.INTER.ROT>
6

>  <SCORE.INTER.SOLV>
10.5126

>  <SCORE.INTER.VDW>
-12.5157

>  <SCORE.INTER.norm>
-0.392844

>  <SCORE.INTRA>
-1.92787

>  <SCORE.INTRA.DIHEDRAL>
-3.22534

>  <SCORE.INTRA.DIHEDRAL.0>
10.8409

>  <SCORE.INTRA.POLAR>
0

>  <SCORE.INTRA.POLAR.0>
0

>  <SCORE.INTRA.REPUL>
0

>  <SCORE.INTRA.REPUL.0>
0

>  <SCORE.INTRA.SOLV>
-2.62744

>  <SCORE.INTRA.SOLV.lig_0>
-80.8302

>  <SCORE.INTRA.VDW>
0.998522

>  <SCORE.INTRA.VDW.0>
-4.23953

>  <SCORE.INTRA.norm>
-0.0621893

>  <SCORE.RESTR>
0

>  <SCORE.RESTR.CAVITY>
0

>  <SCORE.RESTR.norm>
0

>  <SCORE.SYSTEM>
0

>  <SCORE.SYSTEM.CONST>
0

>  <SCORE.SYSTEM.DIHEDRAL>
0

>  <SCORE.SYSTEM.SOLV>
0

>  <SCORE.SYSTEM.norm>
0

>  <SCORE.heavy>
31

>  <SCORE.norm>
-0.455033

>  <RMSD>
7.403

$$$$
2fcz_lig
 OpenBabel11021811433D
libRbt.so/2013.1/901 2013/11/27
 31 33  0  0  0  0  0  0  0  0999 V2000
    9.0843   22.0181   33.4869 C   0  0  0  0  0  0  0  0  0  0  0  0
   16.3949   24.2655   29.3690 N   0  0  0  0  0  0  0  0  0  0  0  0
    7.6643   21.8773   33.5828 O   0  0  0  0  0  0  0  0  0  0  0  0
    9.4273   23.0612   32.4179 C   0  0  1  0  0  0  0  0  0  0  0  0
   16.8468   21.5919   33.4427 N   0  0  0  0  0  0  0  0  0  0  0  0
   10.8503   23.2710   32.3149 O   0  0  0  0  0  0  0  0  0  0  0  0
   11.3354   22.6967   31.0850 C   0  0  1  0  0  0  0  0  0  0  0  0
   14.8732   16.7879   34.5562 N   0  0  0  0  0  0  0  0  0  0  0  0
   12.5419   21.9362   31.2673 O   0  0  0  0  0  0  0  0  0  0  0  0
   13.6950   22.7280   31.5992 C   0  0  2  0  0  0  0  0  0  0  0  0
   11.8739   21.9372   35.5285 N   0  0  0  0  0  0  0  0  0  0  0  0
   13.5813   23.9959   29.5417 O   0  0  0  0  0  0  0  0  0  0  0  0
   14.4199   23.1278   30.3080 C   0  0  1  0  0  0  0  0  0  0  0  0
   14.0591   21.7520   33.8304 O   0  0  0  0  0  0  0  0  0  0  0  0
   15.7334   23.8512   30.6140 C   0  0  1  0  0  0  0  0  0  0  0  0
   14.0023   19.3920   33.8326 O   0  0  0  0  0  0  0  0  0  0  0  0
   16.6659   22.9343   31.4087 C   0  0  0  0  0  0  0  0  0  0  0  0
   15.3944   19.0477   37.2254 O   0  0  0  0  0  0  0  0  0  0  0  0
   15.9912   22.5521   32.7276 C   0  0  1  0  0  0  0  0  0  0  0  0
   12.9211   20.4228   37.7205 O   0  0  0  0  0  0  0  0  0  0  0  0
   14.6115   21.9195   32.5153 C   0  0  2  0  0  0  0  0  0  0  0  0
   10.2326   21.5009   29.2226 O   0  0  0  0  0  0  0  0  0  0  0  0
   13.2219   20.5945   33.9668 C   0  0  1  0  0  0  0  0  0  0  0  0
    8.7809   23.6896   30.1453 O   0  0  0  0  0  0  0  0  0  0  0  0
   15.0262   19.2316   34.8296 C   0  0  2  0  0  0  0  0  0  0  0  0
   15.7907   17.9365   34.5444 C   0  0  0  0  0  0  0  0  0  0  0  0
   14.3841   19.1751   36.2202 C   0  0  2  0  0  0  0  0  0  0  0  0
   13.5910   20.4623   36.4563 C   0  0  1  0  0  0  0  0  0  0  0  0
   12.5553   20.6481   35.3451 C   0  0  1  0  0  0  0  0  0  0  0  0
   10.2055   21.7730   30.6271 C   0  0  2  0  0  0  0  0  0  0  0  0
    8.9795   22.5878   31.0351 C   0  0  1  0  0  0  0  0  0  0  0  0
  3  1  1  0  0  0  0
  4  1  1  1  0  0  0
  4  6  1  0  0  0  0
  4 31  1  0  0  0  0
  6  7  1  0  0  0  0
  7  9  1  1  0  0  0
  7 30  1  0  0  0  0
 10  9  1  6  0  0  0
 10 13  1  0  0  0  0
 10 21  1  0  0  0  0
 13 12  1  1  0  0  0
 13 15  1  0  0  0  0
 15  2  1  6  0  0  0
 15 17  1  0  0  0  0
 16 25  1  0  0  0  0
 17 19  1  0  0  0  0
 19  5  1  6  0  0  0
 19 21  1  0  0  0  0
 21 14  1  1  0  0  0
 23 14  1  1  0  0  0
 23 16  1  0  0  0  0
 23 29  1  0  0  0  0
 25 26  1  6  0  0  0
 25 27  1  0  0  0  0
 26  8  1  0  0  0  0
 27 18  1  1  0  0  0
 27 28  1  0  0  0  0
 28 20  1  1  0  0  0
 28 29  1  0  0  0  0
 29 11  1  1  0  0  0
 30 22  1  6  0  0  0
 30 31  1  0  0  0  0
 31 24  1  6  0  0  0
M  END
>  <CHROM.1>
178.08992836,-68.76223667,-91.13822416,88.62808439,66.78623552,-58.55159970
13.00751978,21.57288133,32.92809798,2.20158842,0.06482088,-0.98321002

>  <Name>
2fcz_lig

>  <RI>
1.40544e+07

>  <Rbt.Current_Directory>
/home/itssahil/PROJECTS/Mol_Feturizer/New_Systems/rnas/2fcz

>  <Rbt.Executable>
rbdock ($Id: //depot/dev/client3/rdock/2013.1/src/exe/rbdock.cxx#4 $)

>  <Rbt.Library>
libRbt.so (2013.1, Build901 2013/11/27)

>  <Rbt.Parameter_File>
/export/apps/rDock/src/rDock_2013.1_src/data/scripts/dock_solv.prm

>  <Rbt.Receptor>
prm/blind_docking_100.prm

>  <SCORE>
-23.0797

>  <SCORE.INTER>
-22.0418

>  <SCORE.INTER.CONST>
1

>  <SCORE.INTER.POLAR>
-3.0942

>  <SCORE.INTER.ROT>
6

>  <SCORE.INTER.SOLV>
15.4795

>  <SCORE.INTER.VDW>
-17.1404

>  <SCORE.INTER.norm>
-0.711027

>  <SCORE.INTRA>
-1.03789

>  <SCORE.INTRA.DIHEDRAL>
-2.9936

>  <SCORE.INTRA.DIHEDRAL.0>
10.8409

>  <SCORE.INTRA.POLAR>
0

>  <SCORE.INTRA.POLAR.0>
0

>  <SCORE.INTRA.REPUL>
0

>  <SCORE.INTRA.REPUL.0>
0

>  <SCORE.INTRA.SOLV>
0.220557

>  <SCORE.INTRA.SOLV.lig_0>
-80.8302

>  <SCORE.INTRA.VDW>
0.348632

>  <SCORE.INTRA.VDW.0>
-4.23953

>  <SCORE.INTRA.norm>
-0.0334802

>  <SCORE.RESTR>
0

>  <SCORE.RESTR.CAVITY>
0

>  <SCORE.RESTR.norm>
0

>  <SCORE.SYSTEM>
0

>  <SCORE.SYSTEM.CONST>
0

>  <SCORE.SYSTEM.DIHEDRAL>
0

>  <SCORE.SYSTEM.SOLV>
0

>  <SCORE.SYSTEM.norm>
0

>  <SCORE.heavy>
31

>  <SCORE.norm>
-0.744507

>  <RMSD>
7.411

$$$$
2fcz_lig
 OpenBabel11021811433D
libRbt.so/2013.1/901 2013/11/27
 31 33  0  0  0  0  0  0  0  0999 V2000
   11.6997   20.9240   36.8916 C   0  0  0  0  0  0  0  0  0  0  0  0
   16.1977   17.1320   35.5449 N   0  0  0  0  0  0  0  0  0  0  0  0
   12.2731   19.8809   37.6843 O   0  0  0  0  0  0  0  0  0  0  0  0
   12.8088   21.8462   36.3739 C   0  0  1  0  0  0  0  0  0  0  0  0
   18.2880   21.0452   33.4799 N   0  0  0  0  0  0  0  0  0  0  0  0
   13.7257   21.1445   35.5099 O   0  0  0  0  0  0  0  0  0  0  0  0
   13.5292   21.5726   34.1476 C   0  0  1  0  0  0  0  0  0  0  0  0
   16.6456   26.1420   33.4039 N   0  0  0  0  0  0  0  0  0  0  0  0
   13.4933   20.4732   33.2217 O   0  0  0  0  0  0  0  0  0  0  0  0
   14.7160   19.7203   33.1507 C   0  0  2  0  0  0  0  0  0  0  0  0
   14.6451   21.9717   29.5257 N   0  0  0  0  0  0  0  0  0  0  0  0
   13.7572   17.8050   34.2760 O   0  0  0  0  0  0  0  0  0  0  0  0
   14.7993   18.7803   34.3597 C   0  0  1  0  0  0  0  0  0  0  0  0
   15.9934   21.3996   31.8811 O   0  0  0  0  0  0  0  0  0  0  0  0
   16.1489   18.0601   34.4068 C   0  0  1  0  0  0  0  0  0  0  0  0
   15.8069   23.6208   32.6585 O   0  0  0  0  0  0  0  0  0  0  0  0
   17.2845   19.0786   34.5277 C   0  0  0  0  0  0  0  0  0  0  0  0
   18.3761   24.9651   30.3870 O   0  0  0  0  0  0  0  0  0  0  0  0
   17.2594   20.0065   33.3114 C   0  0  1  0  0  0  0  0  0  0  0  0
   16.3672   24.0411   28.5529 O   0  0  0  0  0  0  0  0  0  0  0  0
   15.8988   20.6864   33.1242 C   0  0  2  0  0  0  0  0  0  0  0  0
   12.0053   23.2066   33.0880 O   0  0  0  0  0  0  0  0  0  0  0  0
   15.2086   22.6002   31.8379 C   0  0  1  0  0  0  0  0  0  0  0  0
   13.0970   24.1058   35.4857 O   0  0  0  0  0  0  0  0  0  0  0  0
   17.1248   24.0213   32.2453 C   0  0  2  0  0  0  0  0  0  0  0  0
   17.6452   25.0796   33.2211 C   0  0  0  0  0  0  0  0  0  0  0  0
   17.0657   24.5916   30.8238 C   0  0  2  0  0  0  0  0  0  0  0  0
   16.4997   23.5267   29.8820 C   0  0  1  0  0  0  0  0  0  0  0  0
   15.1284   23.0651   30.3804 C   0  0  1  0  0  0  0  0  0  0  0  0
   12.1728   22.2793   34.1648 C   0  0  2  0  0  0  0  0  0  0  0  0
   12.2235   22.9742   35.5242 C   0  0  1  0  0  0  0  0  0  0  0  0
  3  1  1  0  0  0  0
  4  1  1  6  0  0  0
  4  6  1  0  0  0  0
  4 31  1  0  0  0  0
  6  7  1  0  0  0  0
  7  9  1  6  0  0  0
  7 30  1  0  0  0  0
 10  9  1  1  0  0  0
 10 13  1  0  0  0  0
 10 21  1  0  0  0  0
 13 12  1  6  0  0  0
 13 15  1  0  0  0  0
 15  2  1  1  0  0  0
 15 17  1  0  0  0  0
 16 25  1  0  0  0  0
 17 19  1  0  0  0  0
 19  5  1  1  0  0  0
 19 21  1  0  0  0  0
 21 14  1  6  0  0  0
 23 14  1  6  0  0  0
 23 16  1  0  0  0  0
 23 29  1  0  0  0  0
 25 26  1  1  0  0  0
 25 27  1  0  0  0  0
 26  8  1  0  0  0  0
 27 18  1  6  0  0  0
 27 28  1  0  0  0  0
 28 20  1  6  0  0  0
 28 29  1  0  0  0  0
 29 11  1  6  0  0  0
 30 22  1  6  0  0  0
 30 31  1  0  0  0  0
 31 24  1  6  0  0  0
M  END
>  <CHROM.1>
62.65677312,-62.91324140,78.25259344,86.74896838,72.66956621,-50.13840432
15.06742377,21.81353204,33.32917056,2.19617729,-0.67905680,2.72122499

>  <Name>
2fcz_lig

>  <RI>
0

>  <Rbt.Current_Directory>
/home/itssahil/PROJECTS/Mol_Feturizer/New_Systems/rnas/2fcz

>  <Rbt.Executable>
rbdock ($Id: //depot/dev/client3/rdock/2013.1/src/exe/rbdock.cxx#4 $)

>  <Rbt.Library>
libRbt.so (2013.1, Build901 2013/11/27)

>  <Rbt.Parameter_File>
/export/apps/rDock/src/rDock_2013.1_src/data/scripts/dock_solv.prm

>  <Rbt.Receptor>
prm/blind_docking_80.prm

>  <SCORE>
-14.3686

>  <SCORE.INTER>
-13.3634

>  <SCORE.INTER.CONST>
1

>  <SCORE.INTER.POLAR>
-0.683133

>  <SCORE.INTER.ROT>
6

>  <SCORE.INTER.SOLV>
19.3558

>  <SCORE.INTER.VDW>
-20.6838

>  <SCORE.INTER.norm>
-0.431079

>  <SCORE.INTRA>
-1.00516

>  <SCORE.INTRA.DIHEDRAL>
-5.05955

>  <SCORE.INTRA.DIHEDRAL.0>
10.8409

>  <SCORE.INTRA.POLAR>
0

>  <SCORE.INTRA.POLAR.0>
0

>  <SCORE.INTRA.REPUL>
0

>  <SCORE.INTRA.REPUL.0>
0

>  <SCORE.INTRA.SOLV>
-0.855152

>  <SCORE.INTRA.SOLV.lig_0>
-80.8302

>  <SCORE.INTRA.VDW>
1.95219

>  <SCORE.INTRA.VDW.0>
-4.23953

>  <SCORE.INTRA.norm>
-0.0324246

>  <SCORE.RESTR>
0

>  <SCORE.RESTR.CAVITY>
0

>  <SCORE.RESTR.norm>
0

>  <SCORE.SYSTEM>
0

>  <SCORE.SYSTEM.CONST>
0

>  <SCORE.SYSTEM.DIHEDRAL>
0

>  <SCORE.SYSTEM.SOLV>
0

>  <SCORE.SYSTEM.norm>
0

>  <SCORE.heavy>
31

>  <SCORE.norm>
-0.463503

>  <RMSD>
7.411

$$$$
2fcz_lig
 OpenBabel11021811433D
libRbt.so/2013.1/901 2013/11/27
 31 33  0  0  0  0  0  0  0  0999 V2000
    9.4897   21.5790   31.6265 C   0  0  0  0  0  0  0  0  0  0  0  0
    8.4811   20.7927   34.3856 N   0  0  0  0  0  0  0  0  0  0  0  0
    8.0855   21.8365   31.7127 O   0  0  0  0  0  0  0  0  0  0  0  0
    9.8188   20.9721   30.2584 C   0  0  1  0  0  0  0  0  0  0  0  0
   12.5353   18.1751   33.5737 N   0  0  0  0  0  0  0  0  0  0  0  0
   10.1467   19.5715   30.3613 O   0  0  0  0  0  0  0  0  0  0  0  0
    9.0744   18.7826   29.8087 C   0  0  1  0  0  0  0  0  0  0  0  0
   11.3986   12.1209   34.8454 N   0  0  0  0  0  0  0  0  0  0  0  0
    8.7248   17.6634   30.6408 O   0  0  0  0  0  0  0  0  0  0  0  0
    9.0533   17.8346   32.0299 C   0  0  2  0  0  0  0  0  0  0  0  0
   13.7558   16.6252   31.5818 N   0  0  0  0  0  0  0  0  0  0  0  0
    7.1241   19.2327   32.4507 O   0  0  0  0  0  0  0  0  0  0  0  0
    8.5527   19.2058   32.5005 C   0  0  1  0  0  0  0  0  0  0  0  0
   11.0297   16.3657   32.0225 O   0  0  0  0  0  0  0  0  0  0  0  0
    9.0037   19.4957   33.9340 C   0  0  1  0  0  0  0  0  0  0  0  0
   11.3457   14.7856   33.7477 O   0  0  0  0  0  0  0  0  0  0  0  0
   10.5319   19.5040   34.0128 C   0  0  0  0  0  0  0  0  0  0  0  0
   12.2169   12.0161   31.4808 O   0  0  0  0  0  0  0  0  0  0  0  0
   11.0645   18.1325   33.5930 C   0  0  1  0  0  0  0  0  0  0  0  0
   14.3462   13.8845   31.0032 O   0  0  0  0  0  0  0  0  0  0  0  0
   10.5656   17.7125   32.2061 C   0  0  2  0  0  0  0  0  0  0  0  0
    6.9092   19.3616   28.7638 O   0  0  0  0  0  0  0  0  0  0  0  0
   11.9173   15.9104   33.0541 C   0  0  1  0  0  0  0  0  0  0  0  0
    9.0032   21.0072   27.9538 O   0  0  0  0  0  0  0  0  0  0  0  0
   11.1112   13.6323   32.9213 C   0  0  2  0  0  0  0  0  0  0  0  0
   10.4759   12.5348   33.7785 C   0  0  0  0  0  0  0  0  0  0  0  0
   12.4394   13.1448   32.3316 C   0  0  2  0  0  0  0  0  0  0  0  0
   13.0704   14.2777   31.5193 C   0  0  1  0  0  0  0  0  0  0  0  0
   13.2457   15.5166   32.4005 C   0  0  1  0  0  0  0  0  0  0  0  0
    7.8951   19.7531   29.7241 C   0  0  2  0  0  0  0  0  0  0  0  0
    8.6083   21.0444   29.3277 C   0  0  1  0  0  0  0  0  0  0  0  0
  3  1  1  0  0  0  0
  4  1  1  1  0  0  0
  4  6  1  0  0  0  0
  4 31  1  0  0  0  0
  6  7  1  0  0  0  0
  7  9  1  1  0  0  0
  7 30  1  0  0  0  0
 10  9  1  6  0  0  0
 10 13  1  0  0  0  0
 10 21  1  0  0  0  0
 13 12  1  1  0  0  0
 13 15  1  0  0  0  0
 15  2  1  6  0  0  0
 15 17  1  0  0  0  0
 16 25  1  0  0  0  0
 17 19  1  0  0  0  0
 19  5  1  6  0  0  0
 19 21  1  0  0  0  0
 21 14  1  1  0  0  0
 23 14  1  6  0  0  0
 23 16  1  0  0  0  0
 23 29  1  0  0  0  0
 25 26  1  1  0  0  0
 25 27  1  0  0  0  0
 26  8  1  0  0  0  0
 27 18  1  6  0  0  0
 27 28  1  0  0  0  0
 28 20  1  1  0  0  0
 28 29  1  0  0  0  0
 29 11  1  6  0  0  0
 30 22  1  6  0  0  0
 30 31  1  0  0  0  0
 31 24  1  6  0  0  0
M  END
>  <CHROM.1>
-107.93827429,24.78716162,48.20280829,-132.07294816,117.93841688,-62.84747902
10.33357773,17.50149658,31.88298365,2.81346667,1.04845925,-1.47507922

>  <Name>
2fcz_lig

>  <RI>
0

>  <Rbt.Current_Directory>
/home/itssahil/PROJECTS/Mol_Feturizer/New_Systems/rnas/2fcz

>  <Rbt.Executable>
rbdock ($Id: //depot/dev/client3/rdock/2013.1/src/exe/rbdock.cxx#4 $)

>  <Rbt.Library>
libRbt.so (2013.1, Build901 2013/11/27)

>  <Rbt.Parameter_File>
/export/apps/rDock/src/rDock_2013.1_src/data/scripts/dock_solv.prm

>  <Rbt.Receptor>
prm/blind_docking_40.prm

>  <SCORE>
33.2266

>  <SCORE.INTER>
-4.98264

>  <SCORE.INTER.CONST>
1

>  <SCORE.INTER.POLAR>
-1.23001

>  <SCORE.INTER.ROT>
6

>  <SCORE.INTER.SOLV>
19.53

>  <SCORE.INTER.VDW>
-13.3317

>  <SCORE.INTER.norm>
-0.16073

>  <SCORE.INTRA>
32.1411

>  <SCORE.INTRA.DIHEDRAL>
12.7879

>  <SCORE.INTRA.DIHEDRAL.0>
10.8409

>  <SCORE.INTRA.POLAR>
0

>  <SCORE.INTRA.POLAR.0>
0

>  <SCORE.INTRA.REPUL>
0

>  <SCORE.INTRA.REPUL.0>
0

>  <SCORE.INTRA.SOLV>
6.73262

>  <SCORE.INTRA.SOLV.lig_0>
-80.8302

>  <SCORE.INTRA.VDW>
22.3808

>  <SCORE.INTRA.VDW.0>
-4.23953

>  <SCORE.INTRA.norm>
1.03681

>  <SCORE.RESTR>
6.06816

>  <SCORE.RESTR.CAVITY>
6.06816

>  <SCORE.RESTR.norm>
0.195747

>  <SCORE.SYSTEM>
0

>  <SCORE.SYSTEM.CONST>
0

>  <SCORE.SYSTEM.DIHEDRAL>
0

>  <SCORE.SYSTEM.SOLV>
0

>  <SCORE.SYSTEM.norm>
0

>  <SCORE.heavy>
31

>  <SCORE.norm>
1.07183

>  <RMSD>
7.418

$$$$
2fcz_lig
 OpenBabel11021811433D
libRbt.so/2013.1/901 2013/11/27
 31 33  0  0  0  0  0  0  0  0999 V2000
   17.1464   18.9345   34.3785 C   0  0  0  0  0  0  0  0  0  0  0  0
   13.5773   23.3047   28.5812 N   0  0  0  0  0  0  0  0  0  0  0  0
   16.2942   19.7015   35.2336 O   0  0  0  0  0  0  0  0  0  0  0  0
   17.6539   19.8162   33.2324 C   0  0  1  0  0  0  0  0  0  0  0  0
   10.4378   22.4658   32.2399 N   0  0  0  0  0  0  0  0  0  0  0  0
   16.5671   20.4317   32.5116 O   0  0  0  0  0  0  0  0  0  0  0  0
   16.5275   21.8415   32.8091 C   0  0  1  0  0  0  0  0  0  0  0  0
   10.2188   18.0416   35.9056 N   0  0  0  0  0  0  0  0  0  0  0  0
   15.1969   22.3123   33.0831 O   0  0  0  0  0  0  0  0  0  0  0  0
   14.2224   21.9382   32.0944 C   0  0  2  0  0  0  0  0  0  0  0  0
   13.6129   23.4240   34.8983 N   0  0  0  0  0  0  0  0  0  0  0  0
   15.7009   22.4536   30.2499 O   0  0  0  0  0  0  0  0  0  0  0  0
   14.4368   22.7818   30.8317 C   0  0  1  0  0  0  0  0  0  0  0  0
   12.4966   21.1934   33.6853 O   0  0  0  0  0  0  0  0  0  0  0  0
   13.3353   22.5225   29.8012 C   0  0  1  0  0  0  0  0  0  0  0  0
   11.1344   20.7203   35.5543 O   0  0  0  0  0  0  0  0  0  0  0  0
   11.9707   22.8942   30.3855 C   0  0  0  0  0  0  0  0  0  0  0  0
   13.8850   19.4089   37.6236 O   0  0  0  0  0  0  0  0  0  0  0  0
   11.7034   22.0365   31.6239 C   0  0  1  0  0  0  0  0  0  0  0  0
   14.6722   22.1435   37.2291 O   0  0  0  0  0  0  0  0  0  0  0  0
   12.8218   22.1510   32.6654 C   0  0  2  0  0  0  0  0  0  0  0  0
   17.9129   23.3120   34.2349 O   0  0  0  0  0  0  0  0  0  0  0  0
   11.8063   21.7544   34.8113 C   0  0  1  0  0  0  0  0  0  0  0  0
   19.4001   21.4655   32.7762 O   0  0  0  0  0  0  0  0  0  0  0  0
   12.0079   19.7228   36.1110 C   0  0  2  0  0  0  0  0  0  0  0  0
   11.1591   18.6779   36.8395 C   0  0  0  0  0  0  0  0  0  0  0  0
   12.9880   20.3854   37.0857 C   0  0  2  0  0  0  0  0  0  0  0  0
   13.7883   21.4546   36.3387 C   0  0  1  0  0  0  0  0  0  0  0  0
   12.8357   22.4651   35.6958 C   0  0  1  0  0  0  0  0  0  0  0  0
   17.3965   21.9892   34.0591 C   0  0  2  0  0  0  0  0  0  0  0  0
   18.4983   20.9715   33.7700 C   0  0  1  0  0  0  0  0  0  0  0  0
  3  1  1  0  0  0  0
  4  1  1  1  0  0  0
  4  6  1  0  0  0  0
  4 31  1  0  0  0  0
  6  7  1  0  0  0  0
  7  9  1  1  0  0  0
  7 30  1  0  0  0  0
 10  9  1  1  0  0  0
 10 13  1  0  0  0  0
 10 21  1  0  0  0  0
 13 12  1  6  0  0  0
 13 15  1  0  0  0  0
 15  2  1  6  0  0  0
 15 17  1  0  0  0  0
 16 25  1  0  0  0  0
 17 19  1  0  0  0  0
 19  5  1  1  0  0  0
 19 21  1  0  0  0  0
 21 14  1  1  0  0  0
 23 14  1  6  0  0  0
 23 16  1  0  0  0  0
 23 29  1  0  0  0  0
 25 26  1  1  0  0  0
 25 27  1  0  0  0  0
 26  8  1  0  0  0  0
 27 18  1  6  0  0  0
 27 28  1  0  0  0  0
 28 20  1  1  0  0  0
 28 29  1  0  0  0  0
 29 11  1  6  0  0  0
 30 22  1  6  0  0  0
 30 31  1  0  0  0  0
 31 24  1  6  0  0  0
M  END
>  <CHROM.1>
-54.88713882,-50.41909645,-73.74421443,138.66062583,160.90486268,59.85923052
14.28645536,21.36920009,33.77758350,-0.79737065,-0.01499910,1.99455458

>  <Name>
2fcz_lig

>  <RI>
2.76032e+07

>  <Rbt.Current_Directory>
/home/itssahil/PROJECTS/Mol_Feturizer/New_Systems/rnas/2fcz

>  <Rbt.Executable>
rbdock ($Id: //depot/dev/client3/rdock/2013.1/src/exe/rbdock.cxx#4 $)

>  <Rbt.Library>
libRbt.so (2013.1, Build901 2013/11/27)

>  <Rbt.Parameter_File>
/export/apps/rDock/src/rDock_2013.1_src/data/scripts/dock_solv.prm

>  <Rbt.Receptor>
prm/pocket_docking_8.prm

>  <SCORE>
-17.3175

>  <SCORE.INTER>
-18.8155

>  <SCORE.INTER.CONST>
1

>  <SCORE.INTER.POLAR>
-1.7057

>  <SCORE.INTER.ROT>
6

>  <SCORE.INTER.SOLV>
13.3611

>  <SCORE.INTER.VDW>
-18.9117

>  <SCORE.INTER.norm>
-0.606951

>  <SCORE.INTRA>
1.49798

>  <SCORE.INTRA.DIHEDRAL>
-2.10342

>  <SCORE.INTRA.DIHEDRAL.0>
10.8409

>  <SCORE.INTRA.POLAR>
0

>  <SCORE.INTRA.POLAR.0>
0

>  <SCORE.INTRA.REPUL>
0

>  <SCORE.INTRA.REPUL.0>
0

>  <SCORE.INTRA.SOLV>
1.58837

>  <SCORE.INTRA.SOLV.lig_0>
-80.8302

>  <SCORE.INTRA.VDW>
1.75551

>  <SCORE.INTRA.VDW.0>
-4.23953

>  <SCORE.INTRA.norm>
0.048322

>  <SCORE.RESTR>
0

>  <SCORE.RESTR.CAVITY>
0

>  <SCORE.RESTR.norm>
0

>  <SCORE.SYSTEM>
0

>  <SCORE.SYSTEM.CONST>
0

>  <SCORE.SYSTEM.DIHEDRAL>
0

>  <SCORE.SYSTEM.SOLV>
0

>  <SCORE.SYSTEM.norm>
0

>  <SCORE.heavy>
31

>  <SCORE.norm>
-0.558629

>  <RMSD>
7.418

$$$$
2fcz_lig
 OpenBabel11021811433D
libRbt.so/2013.1/901 2013/11/27
 31 33  0  0  0  0  0  0  0  0999 V2000
    8.4840   22.6572   33.0975 C   0  0  0  0  0  0  0  0  0  0  0  0
   15.9099   23.7290   28.8574 N   0  0  0  0  0  0  0  0  0  0  0  0
    9.1513   21.3929   33.1394 O   0  0  0  0  0  0  0  0  0  0  0  0
    9.0450   23.4976   31.9454 C   0  0  1  0  0  0  0  0  0  0  0  0
   16.5522   21.1542   32.9689 N   0  0  0  0  0  0  0  0  0  0  0  0
   10.4866   23.5311   31.9626 O   0  0  0  0  0  0  0  0  0  0  0  0
   11.0010   22.7416   30.8718 C   0  0  1  0  0  0  0  0  0  0  0  0
   15.5874   17.5124   33.2083 N   0  0  0  0  0  0  0  0  0  0  0  0
   12.0834   21.8838   31.2716 O   0  0  0  0  0  0  0  0  0  0  0  0
   13.3417   22.5590   31.4385 C   0  0  2  0  0  0  0  0  0  0  0  0
   11.8383   22.2645   35.4446 N   0  0  0  0  0  0  0  0  0  0  0  0
   13.1221   23.7654   29.3527 O   0  0  0  0  0  0  0  0  0  0  0  0
   13.9503   22.8381   30.0586 C   0  0  1  0  0  0  0  0  0  0  0  0
   13.8585   21.6217   33.6561 O   0  0  0  0  0  0  0  0  0  0  0  0
   15.3571   23.4273   30.1850 C   0  0  1  0  0  0  0  0  0  0  0  0
   13.4287   19.3070   33.8299 O   0  0  0  0  0  0  0  0  0  0  0  0
   16.2765   22.4425   30.9107 C   0  0  0  0  0  0  0  0  0  0  0  0
   14.9538   18.9540   37.1642 O   0  0  0  0  0  0  0  0  0  0  0  0
   15.7224   22.1764   32.3117 C   0  0  1  0  0  0  0  0  0  0  0  0
   12.7646   20.7402   37.6837 O   0  0  0  0  0  0  0  0  0  0  0  0
   14.2702   21.6874   32.2817 C   0  0  2  0  0  0  0  0  0  0  0  0
    9.9234   21.4303   29.0734 O   0  0  0  0  0  0  0  0  0  0  0  0
   12.8584   20.6261   33.9169 C   0  0  1  0  0  0  0  0  0  0  0  0
    8.6805   23.8737   29.5572 O   0  0  0  0  0  0  0  0  0  0  0  0
   14.4734   19.0452   34.7829 C   0  0  2  0  0  0  0  0  0  0  0  0
   15.0041   17.6280   34.5529 C   0  0  0  0  0  0  0  0  0  0  0  0
   13.9168   19.1806   36.2046 C   0  0  2  0  0  0  0  0  0  0  0  0
   13.3536   20.5915   36.3877 C   0  0  1  0  0  0  0  0  0  0  0  0
   12.2943   20.8731   35.3197 C   0  0  1  0  0  0  0  0  0  0  0  0
    9.8090   21.8954   30.4218 C   0  0  2  0  0  0  0  0  0  0  0  0
    8.6632   22.8904   30.5954 C   0  0  1  0  0  0  0  0  0  0  0  0
  3  1  1  0  0  0  0
  4  1  1  1  0  0  0
  4  6  1  0  0  0  0
  4 31  1  0  0  0  0
  6  7  1  0  0  0  0
  7  9  1  1  0  0  0
  7 30  1  0  0  0  0
 10  9  1  6  0  0  0
 10 13  1  0  0  0  0
 10 21  1  0  0  0  0
 13 12  1  1  0  0  0
 13 15  1  0  0  0  0
 15  2  1  6  0  0  0
 15 17  1  0  0  0  0
 16 25  1  0  0  0  0
 17 19  1  0  0  0  0
 19  5  1  6  0  0  0
 19 21  1  0  0  0  0
 21 14  1  1  0  0  0
 23 14  1  1  0  0  0
 23 16  1  0  0  0  0
 23 29  1  0  0  0  0
 25 26  1  6  0  0  0
 25 27  1  0  0  0  0
 26  8  1  0  0  0  0
 27 18  1  1  0  0  0
 27 28  1  0  0  0  0
 28 20  1  1  0  0  0
 28 29  1  0  0  0  0
 29 11  1  6  0  0  0
 30 22  1  6  0  0  0
 30 31  1  0  0  0  0
 31 24  1  6  0  0  0
M  END
>  <CHROM.1>
-49.31823423,-76.88376182,-76.91847402,84.46110267,71.57695844,62.12888830
12.73911633,21.54499946,32.66136780,2.16270597,0.17705813,-1.07397091

>  <Name>
2fcz_lig

>  <RI>
1.40544e+07

>  <Rbt.Current_Directory>
/home/itssahil/PROJECTS/Mol_Feturizer/New_Systems/rnas/2fcz

>  <Rbt.Executable>
rbdock ($Id: //depot/dev/client3/rdock/2013.1/src/exe/rbdock.cxx#4 $)

>  <Rbt.Library>
libRbt.so (2013.1, Build901 2013/11/27)

>  <Rbt.Parameter_File>
/export/apps/rDock/src/rDock_2013.1_src/data/scripts/dock_solv.prm

>  <Rbt.Receptor>
prm/blind_docking_100.prm

>  <SCORE>
-21.6816

>  <SCORE.INTER>
-19.9608

>  <SCORE.INTER.CONST>
1

>  <SCORE.INTER.POLAR>
-2.64025

>  <SCORE.INTER.ROT>
6

>  <SCORE.INTER.SOLV>
18.4464

>  <SCORE.INTER.VDW>
-18.2552

>  <SCORE.INTER.norm>
-0.643896

>  <SCORE.INTRA>
-1.72079

>  <SCORE.INTRA.DIHEDRAL>
-4.48438

>  <SCORE.INTRA.DIHEDRAL.0>
10.8409

>  <SCORE.INTRA.POLAR>
0

>  <SCORE.INTRA.POLAR.0>
0

>  <SCORE.INTRA.REPUL>
0

>  <SCORE.INTRA.REPUL.0>
0

>  <SCORE.INTRA.SOLV>
-0.278056

>  <SCORE.INTRA.SOLV.lig_0>
-80.8302

>  <SCORE.INTRA.VDW>
0.660432

>  <SCORE.INTRA.VDW.0>
-4.23953

>  <SCORE.INTRA.norm>
-0.0555092

>  <SCORE.RESTR>
0

>  <SCORE.RESTR.CAVITY>
0

>  <SCORE.RESTR.norm>
0

>  <SCORE.SYSTEM>
0

>  <SCORE.SYSTEM.CONST>
0

>  <SCORE.SYSTEM.DIHEDRAL>
0

>  <SCORE.SYSTEM.SOLV>
0

>  <SCORE.SYSTEM.norm>
0

>  <SCORE.heavy>
31

>  <SCORE.norm>
-0.699405

>  <RMSD>
7.422

$$$$
2fcz_lig
 OpenBabel11021811433D
libRbt.so/2013.1/901 2013/11/27
 31 33  0  0  0  0  0  0  0  0999 V2000
   15.8423   16.3604   37.9046 C   0  0  0  0  0  0  0  0  0  0  0  0
   10.3573   21.0481   33.1251 N   0  0  0  0  0  0  0  0  0  0  0  0
   15.0406   15.1801   38.0033 O   0  0  0  0  0  0  0  0  0  0  0  0
   15.7778   16.9085   36.4749 C   0  0  1  0  0  0  0  0  0  0  0  0
    8.3457   19.2987   37.2288 N   0  0  0  0  0  0  0  0  0  0  0  0
   14.4345   17.2832   36.1076 O   0  0  0  0  0  0  0  0  0  0  0  0
   14.3336   18.7198   36.0461 C   0  0  1  0  0  0  0  0  0  0  0  0
    9.1067   13.3570   39.6248 N   0  0  0  0  0  0  0  0  0  0  0  0
   13.1509   19.2198   36.6929 O   0  0  0  0  0  0  0  0  0  0  0  0
   11.9380   19.0110   35.9498 C   0  0  2  0  0  0  0  0  0  0  0  0
   12.2825   19.0728   39.6898 N   0  0  0  0  0  0  0  0  0  0  0  0
   12.8527   19.9778   33.9293 O   0  0  0  0  0  0  0  0  0  0  0  0
   11.8015   20.1105   34.8893 C   0  0  1  0  0  0  0  0  0  0  0  0
   10.7136   17.8606   37.7501 O   0  0  0  0  0  0  0  0  0  0  0  0
   10.4559   20.0160   34.1664 C   0  0  1  0  0  0  0  0  0  0  0  0
    9.1704   17.0531   39.3437 O   0  0  0  0  0  0  0  0  0  0  0  0
    9.3092   20.1855   35.1654 C   0  0  0  0  0  0  0  0  0  0  0  0
   11.3789   14.3837   40.5946 O   0  0  0  0  0  0  0  0  0  0  0  0
    9.3879   19.0746   36.2145 C   0  0  1  0  0  0  0  0  0  0  0  0
   12.8494   16.7564   41.2734 O   0  0  0  0  0  0  0  0  0  0  0  0
   10.7518   19.0263   36.9119 C   0  0  2  0  0  0  0  0  0  0  0  0
   15.9543   20.5498   36.4191 O   0  0  0  0  0  0  0  0  0  0  0  0
   10.1225   18.0890   39.0377 C   0  0  1  0  0  0  0  0  0  0  0  0
   17.0140   18.4079   34.9913 O   0  0  0  0  0  0  0  0  0  0  0  0
    9.7316   15.7313   39.4197 C   0  0  2  0  0  0  0  0  0  0  0  0
    8.6068   14.7365   39.7167 C   0  0  0  0  0  0  0  0  0  0  0  0
   10.7887   15.6855   40.5287 C   0  0  2  0  0  0  0  0  0  0  0  0
   11.8738   16.7214   40.2267 C   0  0  1  0  0  0  0  0  0  0  0  0
   11.2446   18.1087   40.0806 C   0  0  1  0  0  0  0  0  0  0  0  0
   15.5772   19.2186   36.7838 C   0  0  2  0  0  0  0  0  0  0  0  0
   16.6112   18.1834   36.3449 C   0  0  1  0  0  0  0  0  0  0  0  0
  3  1  1  0  0  0  0
  4  1  1  1  0  0  0
  4  6  1  0  0  0  0
  4 31  1  0  0  0  0
  6  7  1  0  0  0  0
  7  9  1  1  0  0  0
  7 30  1  0  0  0  0
 10  9  1  1  0  0  0
 10 13  1  0  0  0  0
 10 21  1  0  0  0  0
 13 12  1  6  0  0  0
 13 15  1  0  0  0  0
 15  2  1  6  0  0  0
 15 17  1  0  0  0  0
 16 25  1  0  0  0  0
 17 19  1  0  0  0  0
 19  5  1  1  0  0  0
 19 21  1  0  0  0  0
 21 14  1  6  0  0  0
 23 14  1  6  0  0  0
 23 16  1  0  0  0  0
 23 29  1  0  0  0  0
 25 26  1  1  0  0  0
 25 27  1  0  0  0  0
 26  8  1  0  0  0  0
 27 18  1  6  0  0  0
 27 28  1  0  0  0  0
 28 20  1  1  0  0  0
 28 29  1  0  0  0  0
 29 11  1  6  0  0  0
 30 22  1  6  0  0  0
 30 31  1  0  0  0  0
 31 24  1  6  0  0  0
M  END
>  <CHROM.1>
61.73828058,-74.71013432,-81.75774973,150.04072769,132.98742822,172.45613874
12.20421305,17.89423495,37.44550426,-0.92314616,-0.10079892,2.29955740

>  <Name>
2fcz_lig

>  <RI>
0

>  <Rbt.Current_Directory>
/home/itssahil/PROJECTS/Mol_Feturizer/New_Systems/rnas/2fcz

>  <Rbt.Executable>
rbdock ($Id: //depot/dev/client3/rdock/2013.1/src/exe/rbdock.cxx#4 $)

>  <Rbt.Library>
libRbt.so (2013.1, Build901 2013/11/27)

>  <Rbt.Parameter_File>
/export/apps/rDock/src/rDock_2013.1_src/data/scripts/dock_solv.prm

>  <Rbt.Receptor>
prm/pocket_docking_6.prm

>  <SCORE>
-8.09765

>  <SCORE.INTER>
-10.8718

>  <SCORE.INTER.CONST>
1

>  <SCORE.INTER.POLAR>
-1.63006

>  <SCORE.INTER.ROT>
6

>  <SCORE.INTER.SOLV>
14.6552

>  <SCORE.INTER.VDW>
-14.2994

>  <SCORE.INTER.norm>
-0.350703

>  <SCORE.INTRA>
2.76972

>  <SCORE.INTRA.DIHEDRAL>
2.53593

>  <SCORE.INTRA.DIHEDRAL.0>
10.8409

>  <SCORE.INTRA.POLAR>
0

>  <SCORE.INTRA.POLAR.0>
0

>  <SCORE.INTRA.REPUL>
0.0013804

>  <SCORE.INTRA.REPUL.0>
0

>  <SCORE.INTRA.SOLV>
0.128937

>  <SCORE.INTRA.SOLV.lig_0>
-80.8302

>  <SCORE.INTRA.VDW>
1.43038

>  <SCORE.INTRA.VDW.0>
-4.23953

>  <SCORE.INTRA.norm>
0.0893457

>  <SCORE.RESTR>
0.00441494

>  <SCORE.RESTR.CAVITY>
0.00441494

>  <SCORE.RESTR.norm>
0.000142417

>  <SCORE.SYSTEM>
0

>  <SCORE.SYSTEM.CONST>
0

>  <SCORE.SYSTEM.DIHEDRAL>
0

>  <SCORE.SYSTEM.SOLV>
0

>  <SCORE.SYSTEM.norm>
0

>  <SCORE.heavy>
31

>  <SCORE.norm>
-0.261215

>  <RMSD>
7.424

$$$$
2fcz_lig
 OpenBabel11021811433D
libRbt.so/2013.1/901 2013/11/27
 31 33  0  0  0  0  0  0  0  0999 V2000
   17.2575   25.3272   33.0071 C   0  0  0  0  0  0  0  0  0  0  0  0
   13.8958   22.9424   28.7386 N   0  0  0  0  0  0  0  0  0  0  0  0
   17.5185   25.1976   31.6069 O   0  0  0  0  0  0  0  0  0  0  0  0
   15.8079   25.7759   33.2213 C   0  0  1  0  0  0  0  0  0  0  0  0
    9.8801   23.5178   31.4754 N   0  0  0  0  0  0  0  0  0  0  0  0
   14.8692   24.8106   32.7049 O   0  0  0  0  0  0  0  0  0  0  0  0
   14.2149   24.1397   33.8001 C   0  0  1  0  0  0  0  0  0  0  0  0
   14.0431   18.5052   35.5399 N   0  0  0  0  0  0  0  0  0  0  0  0
   14.1427   22.7159   33.6133 O   0  0  0  0  0  0  0  0  0  0  0  0
   13.3679   22.3081   32.4730 C   0  0  2  0  0  0  0  0  0  0  0  0
    8.7580   20.9833   33.9955 N   0  0  0  0  0  0  0  0  0  0  0  0
   15.3151   22.1252   31.0487 O   0  0  0  0  0  0  0  0  0  0  0  0
   14.0602   22.7946   31.1938 C   0  0  1  0  0  0  0  0  0  0  0  0
   11.1938   22.2582   33.6282 O   0  0  0  0  0  0  0  0  0  0  0  0
   13.2015   22.5100   29.9593 C   0  0  1  0  0  0  0  0  0  0  0  0
   12.4167   20.2783   34.0246 O   0  0  0  0  0  0  0  0  0  0  0  0
   11.8610   23.2396   30.0716 C   0  0  0  0  0  0  0  0  0  0  0  0
   11.8675   20.2941   37.6669 O   0  0  0  0  0  0  0  0  0  0  0  0
   11.1212   22.7436   31.3156 C   0  0  1  0  0  0  0  0  0  0  0  0
    9.1955   20.0078   36.6510 O   0  0  0  0  0  0  0  0  0  0  0  0
   11.9600   22.8889   32.5900 C   0  0  2  0  0  0  0  0  0  0  0  0
   14.3888   24.3425   36.2585 O   0  0  0  0  0  0  0  0  0  0  0  0
   11.1733   20.8256   33.5478 C   0  0  1  0  0  0  0  0  0  0  0  0
   14.4027   26.7956   34.9426 O   0  0  0  0  0  0  0  0  0  0  0  0
   12.7072   20.5707   35.4024 C   0  0  2  0  0  0  0  0  0  0  0  0
   14.0643   19.9588   35.7587 C   0  0  0  0  0  0  0  0  0  0  0  0
   11.6080   19.9831   36.2945 C   0  0  2  0  0  0  0  0  0  0  0  0
   10.2600   20.5794   35.8837 C   0  0  1  0  0  0  0  0  0  0  0  0
   10.0045   20.3171   34.3978 C   0  0  1  0  0  0  0  0  0  0  0  0
   15.0874   24.4588   35.0151 C   0  0  2  0  0  0  0  0  0  0  0  0
   15.4933   25.8998   34.7120 C   0  0  1  0  0  0  0  0  0  0  0  0
  3  1  1  0  0  0  0
  4  1  1  1  0  0  0
  4  6  1  0  0  0  0
  4 31  1  0  0  0  0
  6  7  1  0  0  0  0
  7  9  1  6  0  0  0
  7 30  1  0  0  0  0
 10  9  1  1  0  0  0
 10 13  1  0  0  0  0
 10 21  1  0  0  0  0
 13 12  1  6  0  0  0
 13 15  1  0  0  0  0
 15  2  1  6  0  0  0
 15 17  1  0  0  0  0
 16 25  1  0  0  0  0
 17 19  1  0  0  0  0
 19  5  1  1  0  0  0
 19 21  1  0  0  0  0
 21 14  1  1  0  0  0
 23 14  1  1  0  0  0
 23 16  1  0  0  0  0
 23 29  1  0  0  0  0
 25 26  1  1  0  0  0
 25 27  1  0  0  0  0
 26  8  1  0  0  0  0
 27 18  1  1  0  0  0
 27 28  1  0  0  0  0
 28 20  1  1  0  0  0
 28 29  1  0  0  0  0
 29 11  1  6  0  0  0
 30 22  1  1  0  0  0
 30 31  1  0  0  0  0
 31 24  1  6  0  0  0
M  END
>  <CHROM.1>
61.57118435,-62.82960288,65.04304278,-51.63000221,76.79373128,-58.94127795
13.09655321,22.56632440,33.59530544,-0.61050197,0.66202216,1.82742513

>  <Name>
2fcz_lig

>  <RI>
0

>  <Rbt.Current_Directory>
/home/itssahil/PROJECTS/Mol_Feturizer/New_Systems/rnas/2fcz

>  <Rbt.Executable>
rbdock ($Id: //depot/dev/client3/rdock/2013.1/src/exe/rbdock.cxx#4 $)

>  <Rbt.Library>
libRbt.so (2013.1, Build901 2013/11/27)

>  <Rbt.Parameter_File>
/export/apps/rDock/src/rDock_2013.1_src/data/scripts/dock_solv.prm

>  <Rbt.Receptor>
prm/blind_docking_80.prm

>  <SCORE>
-18.3775

>  <SCORE.INTER>
-17.8415

>  <SCORE.INTER.CONST>
1

>  <SCORE.INTER.POLAR>
-2.07208

>  <SCORE.INTER.ROT>
6

>  <SCORE.INTER.SOLV>
19.0733

>  <SCORE.INTER.VDW>
-18.9451

>  <SCORE.INTER.norm>
-0.575532

>  <SCORE.INTRA>
-1.22336

>  <SCORE.INTRA.DIHEDRAL>
-8.87156

>  <SCORE.INTRA.DIHEDRAL.0>
10.8409

>  <SCORE.INTRA.POLAR>
0

>  <SCORE.INTRA.POLAR.0>
0

>  <SCORE.INTRA.REPUL>
0

>  <SCORE.INTRA.REPUL.0>
0

>  <SCORE.INTRA.SOLV>
-0.839742

>  <SCORE.INTRA.SOLV.lig_0>
-80.8302

>  <SCORE.INTRA.VDW>
3.63228

>  <SCORE.INTRA.VDW.0>
-4.23953

>  <SCORE.INTRA.norm>
-0.0394633

>  <SCORE.RESTR>
0.687391

>  <SCORE.RESTR.CAVITY>
0.687391

>  <SCORE.RESTR.norm>
0.0221739

>  <SCORE.SYSTEM>
0

>  <SCORE.SYSTEM.CONST>
0

>  <SCORE.SYSTEM.DIHEDRAL>
0

>  <SCORE.SYSTEM.SOLV>
0

>  <SCORE.SYSTEM.norm>
0

>  <SCORE.heavy>
31

>  <SCORE.norm>
-0.592821

>  <RMSD>
7.425

$$$$
2fcz_lig
 OpenBabel11021811433D
libRbt.so/2013.1/901 2013/11/27
 31 33  0  0  0  0  0  0  0  0999 V2000
   15.8388   16.4207   37.6491 C   0  0  0  0  0  0  0  0  0  0  0  0
   11.0032   21.1568   36.5959 N   0  0  0  0  0  0  0  0  0  0  0  0
   14.7647   16.3943   38.5931 O   0  0  0  0  0  0  0  0  0  0  0  0
   15.3014   16.8122   36.2684 C   0  0  1  0  0  0  0  0  0  0  0  0
   13.5040   22.4972   32.6089 N   0  0  0  0  0  0  0  0  0  0  0  0
   14.7317   18.1370   36.2740 O   0  0  0  0  0  0  0  0  0  0  0  0
   15.5966   19.0376   35.5539 C   0  0  1  0  0  0  0  0  0  0  0  0
   16.5342   23.4494   29.0755 N   0  0  0  0  0  0  0  0  0  0  0  0
   15.7977   20.2825   36.2445 O   0  0  0  0  0  0  0  0  0  0  0  0
   14.7790   21.2665   35.9975 C   0  0  2  0  0  0  0  0  0  0  0  0
   18.5789   21.7699   34.5218 N   0  0  0  0  0  0  0  0  0  0  0  0
   13.4495   20.5583   37.8908 O   0  0  0  0  0  0  0  0  0  0  0  0
   13.4262   20.7203   36.4705 C   0  0  1  0  0  0  0  0  0  0  0  0
   15.8998   22.3410   34.0862 O   0  0  0  0  0  0  0  0  0  0  0  0
   12.2866   21.6721   36.0993 C   0  0  1  0  0  0  0  0  0  0  0  0
   16.1309   22.1785   31.7425 O   0  0  0  0  0  0  0  0  0  0  0  0
   12.2168   21.8415   34.5800 C   0  0  0  0  0  0  0  0  0  0  0  0
   17.8697   25.4048   31.3742 O   0  0  0  0  0  0  0  0  0  0  0  0
   13.5373   22.4293   34.0785 C   0  0  1  0  0  0  0  0  0  0  0  0
   19.7137   23.9014   32.9844 O   0  0  0  0  0  0  0  0  0  0  0  0
   14.7481   21.5924   34.5056 C   0  0  2  0  0  0  0  0  0  0  0  0
   17.7455   18.7376   34.3677 O   0  0  0  0  0  0  0  0  0  0  0  0
   16.6329   21.7293   33.0150 C   0  0  1  0  0  0  0  0  0  0  0  0
   15.9323   16.6754   33.9103 O   0  0  0  0  0  0  0  0  0  0  0  0
   16.2545   23.5937   31.5190 C   0  0  2  0  0  0  0  0  0  0  0  0
   15.6546   23.9292   30.1513 C   0  0  0  0  0  0  0  0  0  0  0  0
   17.7337   23.9930   31.5634 C   0  0  2  0  0  0  0  0  0  0  0  0
   18.3150   23.6038   32.9243 C   0  0  1  0  0  0  0  0  0  0  0  0
   18.1093   22.1075   33.1708 C   0  0  1  0  0  0  0  0  0  0  0  0
   16.9235   18.2843   35.4477 C   0  0  2  0  0  0  0  0  0  0  0  0
   16.4305   16.8537   35.2388 C   0  0  1  0  0  0  0  0  0  0  0  0
  3  1  1  0  0  0  0
  4  1  1  1  0  0  0
  4  6  1  0  0  0  0
  4 31  1  0  0  0  0
  6  7  1  0  0  0  0
  7  9  1  1  0  0  0
  7 30  1  0  0  0  0
 10  9  1  6  0  0  0
 10 13  1  0  0  0  0
 10 21  1  0  0  0  0
 13 12  1  1  0  0  0
 13 15  1  0  0  0  0
 15  2  1  6  0  0  0
 15 17  1  0  0  0  0
 16 25  1  0  0  0  0
 17 19  1  0  0  0  0
 19  5  1  6  0  0  0
 19 21  1  0  0  0  0
 21 14  1  1  0  0  0
 23 14  1  1  0  0  0
 23 16  1  0  0  0  0
 23 29  1  0  0  0  0
 25 26  1  6  0  0  0
 25 27  1  0  0  0  0
 26  8  1  0  0  0  0
 27 18  1  1  0  0  0
 27 28  1  0  0  0  0
 28 20  1  6  0  0  0
 28 29  1  0  0  0  0
 29 11  1  1  0  0  0
 30 22  1  6  0  0  0
 30 31  1  0  0  0  0
 31 24  1  6  0  0  0
M  END
>  <CHROM.1>
62.32143030,-85.23115248,60.91570475,124.07561965,89.98452644,-72.46397161
15.68196359,20.92445345,34.35473744,-1.90433850,0.39385896,-0.60936297

>  <Name>
2fcz_lig

>  <RI>
0

>  <Rbt.Current_Directory>
/home/itssahil/PROJECTS/Mol_Feturizer/New_Systems/rnas/2fcz

>  <Rbt.Executable>
rbdock ($Id: //depot/dev/client3/rdock/2013.1/src/exe/rbdock.cxx#4 $)

>  <Rbt.Library>
libRbt.so (2013.1, Build901 2013/11/27)

>  <Rbt.Parameter_File>
/export/apps/rDock/src/rDock_2013.1_src/data/scripts/dock_solv.prm

>  <Rbt.Receptor>
prm/blind_docking_80.prm

>  <SCORE>
-7.05568

>  <SCORE.INTER>
-10.9767

>  <SCORE.INTER.CONST>
1

>  <SCORE.INTER.POLAR>
-1.31622

>  <SCORE.INTER.ROT>
6

>  <SCORE.INTER.SOLV>
19.8453

>  <SCORE.INTER.VDW>
-17.1455

>  <SCORE.INTER.norm>
-0.354088

>  <SCORE.INTRA>
3.91917

>  <SCORE.INTRA.DIHEDRAL>
3.12318

>  <SCORE.INTRA.DIHEDRAL.0>
10.8409

>  <SCORE.INTRA.POLAR>
0

>  <SCORE.INTRA.POLAR.0>
0

>  <SCORE.INTRA.REPUL>
0

>  <SCORE.INTRA.REPUL.0>
0

>  <SCORE.INTRA.SOLV>
2.35824

>  <SCORE.INTRA.SOLV.lig_0>
-80.8302

>  <SCORE.INTRA.VDW>
1.17846

>  <SCORE.INTRA.VDW.0>
-4.23953

>  <SCORE.INTRA.norm>
0.126425

>  <SCORE.RESTR>
0.00187407

>  <SCORE.RESTR.CAVITY>
0.00187407

>  <SCORE.RESTR.norm>
6.04539e-05

>  <SCORE.SYSTEM>
0

>  <SCORE.SYSTEM.CONST>
0

>  <SCORE.SYSTEM.DIHEDRAL>
0

>  <SCORE.SYSTEM.SOLV>
0

>  <SCORE.SYSTEM.norm>
0

>  <SCORE.heavy>
31

>  <SCORE.norm>
-0.227603

>  <RMSD>
7.426

$$$$
2fcz_lig
 OpenBabel11021811433D
libRbt.so/2013.1/901 2013/11/27
 31 33  0  0  0  0  0  0  0  0999 V2000
    7.9033   13.9243   35.3641 C   0  0  0  0  0  0  0  0  0  0  0  0
   14.6772   18.1938   33.9273 N   0  0  0  0  0  0  0  0  0  0  0  0
    7.2069   15.1485   35.1153 O   0  0  0  0  0  0  0  0  0  0  0  0
    9.1166   13.8239   34.4333 C   0  0  1  0  0  0  0  0  0  0  0  0
   12.9405   19.4861   38.3160 N   0  0  0  0  0  0  0  0  0  0  0  0
   10.0447   14.9064   34.6485 O   0  0  0  0  0  0  0  0  0  0  0  0
   11.2292   14.4049   35.2992 C   0  0  1  0  0  0  0  0  0  0  0  0
   12.1858   14.2734   41.5590 N   0  0  0  0  0  0  0  0  0  0  0  0
   11.6594   15.2410   36.3868 O   0  0  0  0  0  0  0  0  0  0  0  0
   11.8954   16.6113   36.0211 C   0  0  2  0  0  0  0  0  0  0  0  0
    8.1265   17.5091   38.4794 N   0  0  0  0  0  0  0  0  0  0  0  0
   12.8711   16.0130   33.8895 O   0  0  0  0  0  0  0  0  0  0  0  0
   13.1362   16.6861   35.1227 C   0  0  1  0  0  0  0  0  0  0  0  0
   10.8604   17.6063   38.0218 O   0  0  0  0  0  0  0  0  0  0  0  0
   13.5136   18.1387   34.8229 C   0  0  1  0  0  0  0  0  0  0  0  0
   11.2658   15.7083   39.3656 O   0  0  0  0  0  0  0  0  0  0  0  0
   13.8334   18.8781   36.1239 C   0  0  0  0  0  0  0  0  0  0  0  0
   10.7666   17.4730   42.5600 O   0  0  0  0  0  0  0  0  0  0  0  0
   12.5989   18.8627   37.0276 C   0  0  1  0  0  0  0  0  0  0  0  0
    8.1765   17.6882   41.3360 O   0  0  0  0  0  0  0  0  0  0  0  0
   12.0845   17.4428   37.2884 C   0  0  2  0  0  0  0  0  0  0  0  0
   11.9236   12.1551   36.0548 O   0  0  0  0  0  0  0  0  0  0  0  0
   10.3120   16.3773   38.5197 C   0  0  1  0  0  0  0  0  0  0  0  0
   10.6736   12.1494   33.5675 O   0  0  0  0  0  0  0  0  0  0  0  0
   11.6458   16.4495   40.5379 C   0  0  2  0  0  0  0  0  0  0  0  0
   12.6813   15.6365   41.3188 C   0  0  0  0  0  0  0  0  0  0  0  0
   10.4086   16.7081   41.4050 C   0  0  2  0  0  0  0  0  0  0  0  0
    9.3757   17.4816   40.5826 C   0  0  1  0  0  0  0  0  0  0  0  0
    9.0393   16.7073   39.3061 C   0  0  1  0  0  0  0  0  0  0  0  0
   10.8154   13.0327   35.8334 C   0  0  2  0  0  0  0  0  0  0  0  0
    9.9059   12.5439   34.7077 C   0  0  1  0  0  0  0  0  0  0  0  0
  3  1  1  0  0  0  0
  4  1  1  1  0  0  0
  4  6  1  0  0  0  0
  4 31  1  0  0  0  0
  6  7  1  0  0  0  0
  7  9  1  1  0  0  0
  7 30  1  0  0  0  0
 10  9  1  1  0  0  0
 10 13  1  0  0  0  0
 10 21  1  0  0  0  0
 13 12  1  6  0  0  0
 13 15  1  0  0  0  0
 15  2  1  6  0  0  0
 15 17  1  0  0  0  0
 16 25  1  0  0  0  0
 17 19  1  0  0  0  0
 19  5  1  1  0  0  0
 19 21  1  0  0  0  0
 21 14  1  6  0  0  0
 23 14  1  1  0  0  0
 23 16  1  0  0  0  0
 23 29  1  0  0  0  0
 25 26  1  1  0  0  0
 25 27  1  0  0  0  0
 26  8  1  0  0  0  0
 27 18  1  1  0  0  0
 27 28  1  0  0  0  0
 28 20  1  1  0  0  0
 28 29  1  0  0  0  0
 29 11  1  6  0  0  0
 30 22  1  6  0  0  0
 30 31  1  0  0  0  0
 31 24  1  6  0  0  0
M  END
>  <CHROM.1>
60.75961907,-56.06228171,-69.07121372,63.30674616,57.62185360,-52.10575189
11.03664793,16.01054497,37.31406628,1.50794205,-0.73598209,-2.02927441

>  <Name>
2fcz_lig

>  <RI>
2.76032e+07

>  <Rbt.Current_Directory>
/home/itssahil/PROJECTS/Mol_Feturizer/New_Systems/rnas/2fcz

>  <Rbt.Executable>
rbdock ($Id: //depot/dev/client3/rdock/2013.1/src/exe/rbdock.cxx#4 $)

>  <Rbt.Library>
libRbt.so (2013.1, Build901 2013/11/27)

>  <Rbt.Parameter_File>
/export/apps/rDock/src/rDock_2013.1_src/data/scripts/dock_solv.prm

>  <Rbt.Receptor>
prm/pocket_docking_8.prm

>  <SCORE>
-11.3316

>  <SCORE.INTER>
-7.38778

>  <SCORE.INTER.CONST>
1

>  <SCORE.INTER.POLAR>
-1.41409

>  <SCORE.INTER.ROT>
6

>  <SCORE.INTER.SOLV>
12.3974

>  <SCORE.INTER.VDW>
-11.944

>  <SCORE.INTER.norm>
-0.238316

>  <SCORE.INTRA>
-3.94386

>  <SCORE.INTRA.DIHEDRAL>
-9.90814

>  <SCORE.INTRA.DIHEDRAL.0>
10.8409

>  <SCORE.INTRA.POLAR>
0

>  <SCORE.INTRA.POLAR.0>
0

>  <SCORE.INTRA.REPUL>
0

>  <SCORE.INTRA.REPUL.0>
0

>  <SCORE.INTRA.SOLV>
-2.70676

>  <SCORE.INTRA.SOLV.lig_0>
-80.8302

>  <SCORE.INTRA.VDW>
2.36359

>  <SCORE.INTRA.VDW.0>
-4.23953

>  <SCORE.INTRA.norm>
-0.127221

>  <SCORE.RESTR>
0

>  <SCORE.RESTR.CAVITY>
0

>  <SCORE.RESTR.norm>
0

>  <SCORE.SYSTEM>
0

>  <SCORE.SYSTEM.CONST>
0

>  <SCORE.SYSTEM.DIHEDRAL>
0

>  <SCORE.SYSTEM.SOLV>
0

>  <SCORE.SYSTEM.norm>
0

>  <SCORE.heavy>
31

>  <SCORE.norm>
-0.365537

>  <RMSD>
7.448

$$$$
2fcz_lig
 OpenBabel11021811433D
libRbt.so/2013.1/901 2013/11/27
 31 33  0  0  0  0  0  0  0  0999 V2000
    8.4712   22.5849   33.0859 C   0  0  0  0  0  0  0  0  0  0  0  0
   15.9249   23.7125   28.8717 N   0  0  0  0  0  0  0  0  0  0  0  0
    9.1014   21.3012   33.0667 O   0  0  0  0  0  0  0  0  0  0  0  0
    9.0471   23.4580   31.9659 C   0  0  1  0  0  0  0  0  0  0  0  0
   16.5775   21.1160   32.9680 N   0  0  0  0  0  0  0  0  0  0  0  0
   10.4880   23.4966   32.0074 O   0  0  0  0  0  0  0  0  0  0  0  0
   11.0235   22.7387   30.9044 C   0  0  1  0  0  0  0  0  0  0  0  0
   15.7464   17.5465   33.1955 N   0  0  0  0  0  0  0  0  0  0  0  0
   12.1029   21.8747   31.2987 O   0  0  0  0  0  0  0  0  0  0  0  0
   13.3653   22.5431   31.4617 C   0  0  2  0  0  0  0  0  0  0  0  0
   11.8629   22.1488   35.4822 N   0  0  0  0  0  0  0  0  0  0  0  0
   13.1400   23.7599   29.3827 O   0  0  0  0  0  0  0  0  0  0  0  0
   13.9677   22.8255   30.0797 C   0  0  1  0  0  0  0  0  0  0  0  0
   13.8899   21.5932   33.6722 O   0  0  0  0  0  0  0  0  0  0  0  0
   15.3780   23.4075   30.2010 C   0  0  1  0  0  0  0  0  0  0  0  0
   13.5685   19.2619   33.8571 O   0  0  0  0  0  0  0  0  0  0  0  0
   16.2966   22.4150   30.9171 C   0  0  0  0  0  0  0  0  0  0  0  0
   15.1461   18.9897   37.1745 O   0  0  0  0  0  0  0  0  0  0  0  0
   15.7490   22.1452   32.3200 C   0  0  1  0  0  0  0  0  0  0  0  0
   12.8835   20.6756   37.7144 O   0  0  0  0  0  0  0  0  0  0  0  0
   14.2943   21.6632   32.2959 C   0  0  2  0  0  0  0  0  0  0  0  0
    9.9807   21.4719   29.0544 O   0  0  0  0  0  0  0  0  0  0  0  0
   12.9394   20.5539   33.9472 C   0  0  1  0  0  0  0  0  0  0  0  0
    8.7196   23.8966   29.5831 O   0  0  0  0  0  0  0  0  0  0  0  0
   14.6349   19.0512   34.7986 C   0  0  2  0  0  0  0  0  0  0  0  0
   15.2273   17.6590   34.5663 C   0  0  0  0  0  0  0  0  0  0  0  0
   14.0889   19.1656   36.2264 C   0  0  2  0  0  0  0  0  0  0  0  0
   13.4639   20.5498   36.4122 C   0  0  1  0  0  0  0  0  0  0  0  0
   12.3807   20.7793   35.3557 C   0  0  1  0  0  0  0  0  0  0  0  0
    9.8425   21.9002   30.4127 C   0  0  2  0  0  0  0  0  0  0  0  0
    8.6897   22.8858   30.5942 C   0  0  1  0  0  0  0  0  0  0  0  0
  3  1  1  0  0  0  0
  4  1  1  1  0  0  0
  4  6  1  0  0  0  0
  4 31  1  0  0  0  0
  6  7  1  0  0  0  0
  7  9  1  1  0  0  0
  7 30  1  0  0  0  0
 10  9  1  6  0  0  0
 10 13  1  0  0  0  0
 10 21  1  0  0  0  0
 13 12  1  1  0  0  0
 13 15  1  0  0  0  0
 15  2  1  6  0  0  0
 15 17  1  0  0  0  0
 16 25  1  0  0  0  0
 17 19  1  0  0  0  0
 19  5  1  6  0  0  0
 19 21  1  0  0  0  0
 21 14  1  1  0  0  0
 23 14  1  1  0  0  0
 23 16  1  0  0  0  0
 23 29  1  0  0  0  0
 25 26  1  1  0  0  0
 25 27  1  0  0  0  0
 26  8  1  0  0  0  0
 27 18  1  1  0  0  0
 27 28  1  0  0  0  0
 28 20  1  1  0  0  0
 28 29  1  0  0  0  0
 29 11  1  6  0  0  0
 30 22  1  6  0  0  0
 30 31  1  0  0  0  0
 31 24  1  6  0  0  0
M  END
>  <CHROM.1>
-51.89083999,-78.81010086,-76.72048295,87.62103825,70.88498211,59.62810578
12.79811023,21.52125839,32.67472532,2.18659379,0.17629721,-1.07774261

>  <Name>
2fcz_lig

>  <RI>
1.40544e+07

>  <Rbt.Current_Directory>
/home/itssahil/PROJECTS/Mol_Feturizer/New_Systems/rnas/2fcz

>  <Rbt.Executable>
rbdock ($Id: //depot/dev/client3/rdock/2013.1/src/exe/rbdock.cxx#4 $)

>  <Rbt.Library>
libRbt.so (2013.1, Build901 2013/11/27)

>  <Rbt.Parameter_File>
/export/apps/rDock/src/rDock_2013.1_src/data/scripts/dock_solv.prm

>  <Rbt.Receptor>
prm/blind_docking_100.prm

>  <SCORE>
-21.6903

>  <SCORE.INTER>
-20.4016

>  <SCORE.INTER.CONST>
1

>  <SCORE.INTER.POLAR>
-2.69078

>  <SCORE.INTER.ROT>
6

>  <SCORE.INTER.SOLV>
18.407

>  <SCORE.INTER.VDW>
-18.3675

>  <SCORE.INTER.norm>
-0.658117

>  <SCORE.INTRA>
-1.28869

>  <SCORE.INTRA.DIHEDRAL>
-3.9118

>  <SCORE.INTRA.DIHEDRAL.0>
10.8409

>  <SCORE.INTRA.POLAR>
0

>  <SCORE.INTRA.POLAR.0>
0

>  <SCORE.INTRA.REPUL>
0

>  <SCORE.INTRA.REPUL.0>
0

>  <SCORE.INTRA.SOLV>
-0.0686333

>  <SCORE.INTRA.SOLV.lig_0>
-80.8302

>  <SCORE.INTRA.VDW>
0.701527

>  <SCORE.INTRA.VDW.0>
-4.23953

>  <SCORE.INTRA.norm>
-0.0415707

>  <SCORE.RESTR>
0

>  <SCORE.RESTR.CAVITY>
0

>  <SCORE.RESTR.norm>
0

>  <SCORE.SYSTEM>
0

>  <SCORE.SYSTEM.CONST>
0

>  <SCORE.SYSTEM.DIHEDRAL>
0

>  <SCORE.SYSTEM.SOLV>
0

>  <SCORE.SYSTEM.norm>
0

>  <SCORE.heavy>
31

>  <SCORE.norm>
-0.699688

>  <RMSD>
7.454

$$$$
2fcz_lig
 OpenBabel11021811433D
libRbt.so/2013.1/901 2013/11/27
 31 33  0  0  0  0  0  0  0  0999 V2000
    8.4342   22.7023   33.0124 C   0  0  0  0  0  0  0  0  0  0  0  0
   15.9241   23.7192   28.8868 N   0  0  0  0  0  0  0  0  0  0  0  0
    9.0367   21.4052   33.0182 O   0  0  0  0  0  0  0  0  0  0  0  0
    9.0416   23.5471   31.8872 C   0  0  1  0  0  0  0  0  0  0  0  0
   16.5428   21.0585   32.9470 N   0  0  0  0  0  0  0  0  0  0  0  0
   10.4823   23.5613   31.9494 O   0  0  0  0  0  0  0  0  0  0  0  0
   11.0202   22.7764   30.8666 C   0  0  1  0  0  0  0  0  0  0  0  0
   14.2513   16.6091   34.6397 N   0  0  0  0  0  0  0  0  0  0  0  0
   12.0784   21.9003   31.2904 O   0  0  0  0  0  0  0  0  0  0  0  0
   13.3498   22.5493   31.4619 C   0  0  2  0  0  0  0  0  0  0  0  0
   11.8173   22.0716   35.4624 N   0  0  0  0  0  0  0  0  0  0  0  0
   13.1403   23.7973   29.3998 O   0  0  0  0  0  0  0  0  0  0  0  0
   13.9555   22.8423   30.0836 C   0  0  1  0  0  0  0  0  0  0  0  0
   13.8622   21.5623   33.6590 O   0  0  0  0  0  0  0  0  0  0  0  0
   15.3736   23.4034   30.2120 C   0  0  1  0  0  0  0  0  0  0  0  0
   13.5897   19.2244   33.8390 O   0  0  0  0  0  0  0  0  0  0  0  0
   16.2789   22.3890   30.9141 C   0  0  0  0  0  0  0  0  0  0  0  0
   15.1607   18.9803   37.1617 O   0  0  0  0  0  0  0  0  0  0  0  0
   15.7281   22.1075   32.3135 C   0  0  1  0  0  0  0  0  0  0  0  0
   12.8608   20.6168   37.6960 O   0  0  0  0  0  0  0  0  0  0  0  0
   14.2671   21.6456   32.2835 C   0  0  2  0  0  0  0  0  0  0  0  0
    9.9822   21.4982   29.0218 O   0  0  0  0  0  0  0  0  0  0  0  0
   12.9330   20.5025   33.9288 C   0  0  1  0  0  0  0  0  0  0  0  0
    8.7565   23.9527   29.4931 O   0  0  0  0  0  0  0  0  0  0  0  0
   14.6569   19.0348   34.7841 C   0  0  2  0  0  0  0  0  0  0  0  0
   15.2797   17.6560   34.5518 C   0  0  0  0  0  0  0  0  0  0  0  0
   14.1035   19.1352   36.2100 C   0  0  2  0  0  0  0  0  0  0  0  0
   13.4485   20.5056   36.3957 C   0  0  1  0  0  0  0  0  0  0  0  0
   12.3645   20.7137   35.3357 C   0  0  1  0  0  0  0  0  0  0  0  0
    9.8319   21.9508   30.3708 C   0  0  2  0  0  0  0  0  0  0  0  0
    8.6941   22.9591   30.5196 C   0  0  1  0  0  0  0  0  0  0  0  0
  3  1  1  0  0  0  0
  4  1  1  1  0  0  0
  4  6  1  0  0  0  0
  4 31  1  0  0  0  0
  6  7  1  0  0  0  0
  7  9  1  1  0  0  0
  7 30  1  0  0  0  0
 10  9  1  6  0  0  0
 10 13  1  0  0  0  0
 10 21  1  0  0  0  0
 13 12  1  1  0  0  0
 13 15  1  0  0  0  0
 15  2  1  6  0  0  0
 15 17  1  0  0  0  0
 16 25  1  0  0  0  0
 17 19  1  0  0  0  0
 19  5  1  6  0  0  0
 19 21  1  0  0  0  0
 21 14  1  1  0  0  0
 23 14  1  1  0  0  0
 23 16  1  0  0  0  0
 23 29  1  0  0  0  0
 25 26  1  1  0  0  0
 25 27  1  0  0  0  0
 26  8  1  0  0  0  0
 27 18  1  1  0  0  0
 27 28  1  0  0  0  0
 28 20  1  1  0  0  0
 28 29  1  0  0  0  0
 29 11  1  6  0  0  0
 30 22  1  6  0  0  0
 30 31  1  0  0  0  0
 31 24  1  6  0  0  0
M  END
>  <CHROM.1>
-52.20641704,-78.78744099,-74.81091512,89.66852486,71.05474502,-55.92370807
12.74247208,21.49681224,32.69713568,2.12191819,0.14817038,-1.03288763

>  <Name>
2fcz_lig

>  <RI>
1.40544e+07

>  <Rbt.Current_Directory>
/home/itssahil/PROJECTS/Mol_Feturizer/New_Systems/rnas/2fcz

>  <Rbt.Executable>
rbdock ($Id: //depot/dev/client3/rdock/2013.1/src/exe/rbdock.cxx#4 $)

>  <Rbt.Library>
libRbt.so (2013.1, Build901 2013/11/27)

>  <Rbt.Parameter_File>
/export/apps/rDock/src/rDock_2013.1_src/data/scripts/dock_solv.prm

>  <Rbt.Receptor>
prm/blind_docking_100.prm

>  <SCORE>
-21.5201

>  <SCORE.INTER>
-20.8069

>  <SCORE.INTER.CONST>
1

>  <SCORE.INTER.POLAR>
-2.7075

>  <SCORE.INTER.ROT>
6

>  <SCORE.INTER.SOLV>
16.2374

>  <SCORE.INTER.VDW>
-17.8587

>  <SCORE.INTER.norm>
-0.671191

>  <SCORE.INTRA>
-0.713227

>  <SCORE.INTRA.DIHEDRAL>
-3.74305

>  <SCORE.INTRA.DIHEDRAL.0>
10.8409

>  <SCORE.INTRA.POLAR>
0

>  <SCORE.INTRA.POLAR.0>
0

>  <SCORE.INTRA.REPUL>
0

>  <SCORE.INTRA.REPUL.0>
0

>  <SCORE.INTRA.SOLV>
0.415236

>  <SCORE.INTRA.SOLV.lig_0>
-80.8302

>  <SCORE.INTRA.VDW>
0.950681

>  <SCORE.INTRA.VDW.0>
-4.23953

>  <SCORE.INTRA.norm>
-0.0230073

>  <SCORE.RESTR>
0

>  <SCORE.RESTR.CAVITY>
0

>  <SCORE.RESTR.norm>
0

>  <SCORE.SYSTEM>
0

>  <SCORE.SYSTEM.CONST>
0

>  <SCORE.SYSTEM.DIHEDRAL>
0

>  <SCORE.SYSTEM.SOLV>
0

>  <SCORE.SYSTEM.norm>
0

>  <SCORE.heavy>
31

>  <SCORE.norm>
-0.694198

>  <RMSD>
7.460

$$$$
2fcz_lig
 OpenBabel11021811433D
libRbt.so/2013.1/901 2013/11/27
 31 33  0  0  0  0  0  0  0  0999 V2000
   17.3405   17.0526   34.6880 C   0  0  0  0  0  0  0  0  0  0  0  0
   10.1796   21.0942   35.2567 N   0  0  0  0  0  0  0  0  0  0  0  0
   17.7877   17.7378   35.8611 O   0  0  0  0  0  0  0  0  0  0  0  0
   15.8612   16.6824   34.8404 C   0  0  1  0  0  0  0  0  0  0  0  0
   13.7234   24.1253   33.7730 N   0  0  0  0  0  0  0  0  0  0  0  0
   15.0250   17.8538   34.9308 O   0  0  0  0  0  0  0  0  0  0  0  0
   14.2667   18.0009   33.7139 C   0  0  1  0  0  0  0  0  0  0  0  0
   16.7413   23.4669   29.0599 N   0  0  0  0  0  0  0  0  0  0  0  0
   14.2661   19.3519   33.2219 O   0  0  0  0  0  0  0  0  0  0  0  0
   13.7596   20.3206   34.1557 C   0  0  2  0  0  0  0  0  0  0  0  0
   18.1074   21.1140   34.4575 N   0  0  0  0  0  0  0  0  0  0  0  0
   11.9212   18.9016   34.8341 O   0  0  0  0  0  0  0  0  0  0  0  0
   12.2366   20.1720   34.2590 C   0  0  1  0  0  0  0  0  0  0  0  0
   15.5497   21.9783   33.8218 O   0  0  0  0  0  0  0  0  0  0  0  0
   11.6326   21.2744   35.1321 C   0  0  1  0  0  0  0  0  0  0  0  0
   16.0329   22.0677   31.5129 O   0  0  0  0  0  0  0  0  0  0  0  0
   11.9279   22.6474   34.5243 C   0  0  0  0  0  0  0  0  0  0  0  0
   18.0540   25.1392   31.7340 O   0  0  0  0  0  0  0  0  0  0  0  0
   13.4427   22.8485   34.4487 C   0  0  1  0  0  0  0  0  0  0  0  0
   19.5765   23.2945   33.3253 O   0  0  0  0  0  0  0  0  0  0  0  0
   14.1435   21.7213   33.6826 C   0  0  2  0  0  0  0  0  0  0  0  0
   14.1358   16.6784   31.6285 O   0  0  0  0  0  0  0  0  0  0  0  0
   16.3491   21.4293   32.7641 C   0  0  1  0  0  0  0  0  0  0  0  0
   14.2248   15.1118   33.9279 O   0  0  0  0  0  0  0  0  0  0  0  0
   16.2936   23.4817   31.4825 C   0  0  2  0  0  0  0  0  0  0  0  0
   15.8823   24.0277   30.1130 C   0  0  0  0  0  0  0  0  0  0  0  0
   17.7852   23.7338   31.7296 C   0  0  2  0  0  0  0  0  0  0  0  0
   18.1745   23.1372   33.0838 C   0  0  1  0  0  0  0  0  0  0  0  0
   17.8235   21.6480   33.1182 C   0  0  1  0  0  0  0  0  0  0  0  0
   14.9749   17.0860   32.7135 C   0  0  2  0  0  0  0  0  0  0  0  0
   15.3651   15.9158   33.6145 C   0  0  1  0  0  0  0  0  0  0  0  0
  3  1  1  0  0  0  0
  4  1  1  6  0  0  0
  4  6  1  0  0  0  0
  4 31  1  0  0  0  0
  6  7  1  0  0  0  0
  7  9  1  6  0  0  0
  7 30  1  0  0  0  0
 10  9  1  6  0  0  0
 10 13  1  0  0  0  0
 10 21  1  0  0  0  0
 13 12  1  1  0  0  0
 13 15  1  0  0  0  0
 15  2  1  6  0  0  0
 15 17  1  0  0  0  0
 16 25  1  0  0  0  0
 17 19  1  0  0  0  0
 19  5  1  6  0  0  0
 19 21  1  0  0  0  0
 21 14  1  1  0  0  0
 23 14  1  1  0  0  0
 23 16  1  0  0  0  0
 23 29  1  0  0  0  0
 25 26  1  6  0  0  0
 25 27  1  0  0  0  0
 26  8  1  0  0  0  0
 27 18  1  1  0  0  0
 27 28  1  0  0  0  0
 28 20  1  6  0  0  0
 28 29  1  0  0  0  0
 29 11  1  1  0  0  0
 30 22  1  6  0  0  0
 30 31  1  0  0  0  0
 31 24  1  1  0  0  0
M  END
>  <CHROM.1>
64.01062144,-57.46477521,-73.21727321,80.69973553,65.06418647,-65.68959137
15.26628246,20.58227796,33.40131374,-1.98657260,0.25147876,-0.23848562

>  <Name>
2fcz_lig

>  <RI>
2.6968e+07

>  <Rbt.Current_Directory>
/home/itssahil/PROJECTS/Mol_Feturizer/New_Systems/rnas/2fcz

>  <Rbt.Executable>
rbdock ($Id: //depot/dev/client3/rdock/2013.1/src/exe/rbdock.cxx#4 $)

>  <Rbt.Library>
libRbt.so (2013.1, Build901 2013/11/27)

>  <Rbt.Parameter_File>
/export/apps/rDock/src/rDock_2013.1_src/data/scripts/dock_solv.prm

>  <Rbt.Receptor>
prm/blind_docking_60.prm

>  <SCORE>
-17.8013

>  <SCORE.INTER>
-14.868

>  <SCORE.INTER.CONST>
1

>  <SCORE.INTER.POLAR>
-1.40749

>  <SCORE.INTER.ROT>
6

>  <SCORE.INTER.SOLV>
18.8012

>  <SCORE.INTER.VDW>
-19.0874

>  <SCORE.INTER.norm>
-0.479613

>  <SCORE.INTRA>
-2.93334

>  <SCORE.INTRA.DIHEDRAL>
-7.64717

>  <SCORE.INTRA.DIHEDRAL.0>
10.8409

>  <SCORE.INTRA.POLAR>
0

>  <SCORE.INTRA.POLAR.0>
0

>  <SCORE.INTRA.REPUL>
0

>  <SCORE.INTRA.REPUL.0>
0

>  <SCORE.INTRA.SOLV>
-0.957915

>  <SCORE.INTRA.SOLV.lig_0>
-80.8302

>  <SCORE.INTRA.VDW>
1.3692

>  <SCORE.INTRA.VDW.0>
-4.23953

>  <SCORE.INTRA.norm>
-0.0946238

>  <SCORE.RESTR>
0

>  <SCORE.RESTR.CAVITY>
0

>  <SCORE.RESTR.norm>
0

>  <SCORE.SYSTEM>
0

>  <SCORE.SYSTEM.CONST>
0

>  <SCORE.SYSTEM.DIHEDRAL>
0

>  <SCORE.SYSTEM.SOLV>
0

>  <SCORE.SYSTEM.norm>
0

>  <SCORE.heavy>
31

>  <SCORE.norm>
-0.574237

>  <RMSD>
7.467

$$$$
2fcz_lig
 OpenBabel11021811433D
libRbt.so/2013.1/901 2013/11/27
 31 33  0  0  0  0  0  0  0  0999 V2000
    8.4349   22.5604   33.0470 C   0  0  0  0  0  0  0  0  0  0  0  0
   15.9056   23.6999   28.8732 N   0  0  0  0  0  0  0  0  0  0  0  0
    7.0091   22.5328   32.9374 O   0  0  0  0  0  0  0  0  0  0  0  0
    9.0201   23.4357   31.9335 C   0  0  1  0  0  0  0  0  0  0  0  0
   16.5526   21.0784   32.9544 N   0  0  0  0  0  0  0  0  0  0  0  0
   10.4607   23.4733   31.9864 O   0  0  0  0  0  0  0  0  0  0  0  0
   11.0042   22.7174   30.8859 C   0  0  1  0  0  0  0  0  0  0  0  0
   15.6914   17.4903   33.2069 N   0  0  0  0  0  0  0  0  0  0  0  0
   12.0801   21.8519   31.2867 O   0  0  0  0  0  0  0  0  0  0  0  0
   13.3431   22.5179   31.4544 C   0  0  2  0  0  0  0  0  0  0  0  0
   11.8264   22.1350   35.4484 N   0  0  0  0  0  0  0  0  0  0  0  0
   13.1204   23.7474   29.3826 O   0  0  0  0  0  0  0  0  0  0  0  0
   13.9466   22.8079   30.0746 C   0  0  1  0  0  0  0  0  0  0  0  0
   13.8651   21.5543   33.6596 O   0  0  0  0  0  0  0  0  0  0  0  0
   15.3575   23.3876   30.2003 C   0  0  1  0  0  0  0  0  0  0  0  0
   13.5122   19.2272   33.8402 O   0  0  0  0  0  0  0  0  0  0  0  0
   16.2745   22.3899   30.9111 C   0  0  0  0  0  0  0  0  0  0  0  0
   15.0512   18.9342   37.1739 O   0  0  0  0  0  0  0  0  0  0  0  0
   15.7257   22.1123   32.3120 C   0  0  1  0  0  0  0  0  0  0  0  0
   12.8046   20.6485   37.6907 O   0  0  0  0  0  0  0  0  0  0  0  0
   14.2705   21.6321   32.2840 C   0  0  2  0  0  0  0  0  0  0  0  0
    9.9752   21.4554   29.0249 O   0  0  0  0  0  0  0  0  0  0  0  0
   12.8987   20.5270   33.9242 C   0  0  1  0  0  0  0  0  0  0  0  0
    8.7115   23.8798   29.5492 O   0  0  0  0  0  0  0  0  0  0  0  0
   14.5659   19.0027   34.7928 C   0  0  2  0  0  0  0  0  0  0  0  0
   15.1430   17.6032   34.5662 C   0  0  0  0  0  0  0  0  0  0  0  0
   14.0064   19.1236   36.2148 C   0  0  2  0  0  0  0  0  0  0  0  0
   13.3970   20.5157   36.3945 C   0  0  1  0  0  0  0  0  0  0  0  0
   12.3280   20.7592   35.3268 C   0  0  1  0  0  0  0  0  0  0  0  0
    9.8267   21.8808   30.3830 C   0  0  2  0  0  0  0  0  0  0  0  0
    8.6731   22.8668   30.5577 C   0  0  1  0  0  0  0  0  0  0  0  0
  3  1  1  0  0  0  0
  4  1  1  1  0  0  0
  4  6  1  0  0  0  0
  4 31  1  0  0  0  0
  6  7  1  0  0  0  0
  7  9  1  1  0  0  0
  7 30  1  0  0  0  0
 10  9  1  6  0  0  0
 10 13  1  0  0  0  0
 10 21  1  0  0  0  0
 13 12  1  1  0  0  0
 13 15  1  0  0  0  0
 15  2  1  6  0  0  0
 15 17  1  0  0  0  0
 16 25  1  0  0  0  0
 17 19  1  0  0  0  0
 19  5  1  6  0  0  0
 19 21  1  0  0  0  0
 21 14  1  1  0  0  0
 23 14  1  1  0  0  0
 23 16  1  0  0  0  0
 23 29  1  0  0  0  0
 25 26  1  1  0  0  0
 25 27  1  0  0  0  0
 26  8  1  0  0  0  0
 27 18  1  1  0  0  0
 27 28  1  0  0  0  0
 28 20  1  1  0  0  0
 28 29  1  0  0  0  0
 29 11  1  6  0  0  0
 30 22  1  6  0  0  0
 30 31  1  0  0  0  0
 31 24  1  6  0  0  0
M  END
>  <CHROM.1>
-178.85703614,-79.10757642,-76.22386099,86.76140629,71.73152463,60.38704003
12.68612295,21.53855868,32.65502970,2.26748789,0.19289050,-1.07951379

>  <Name>
2fcz_lig

>  <RI>
1.40544e+07

>  <Rbt.Current_Directory>
/home/itssahil/PROJECTS/Mol_Feturizer/New_Systems/rnas/2fcz

>  <Rbt.Executable>
rbdock ($Id: //depot/dev/client3/rdock/2013.1/src/exe/rbdock.cxx#4 $)

>  <Rbt.Library>
libRbt.so (2013.1, Build901 2013/11/27)

>  <Rbt.Parameter_File>
/export/apps/rDock/src/rDock_2013.1_src/data/scripts/dock_solv.prm

>  <Rbt.Receptor>
prm/blind_docking_100.prm

>  <SCORE>
-22.4933

>  <SCORE.INTER>
-20.6283

>  <SCORE.INTER.CONST>
1

>  <SCORE.INTER.POLAR>
-2.70008

>  <SCORE.INTER.ROT>
6

>  <SCORE.INTER.SOLV>
19.1858

>  <SCORE.INTER.VDW>
-18.7472

>  <SCORE.INTER.norm>
-0.665428

>  <SCORE.INTRA>
-1.86506

>  <SCORE.INTRA.DIHEDRAL>
-4.23861

>  <SCORE.INTRA.DIHEDRAL.0>
10.8409

>  <SCORE.INTRA.POLAR>
0

>  <SCORE.INTRA.POLAR.0>
0

>  <SCORE.INTRA.REPUL>
0

>  <SCORE.INTRA.REPUL.0>
0

>  <SCORE.INTRA.SOLV>
-1.2686

>  <SCORE.INTRA.SOLV.lig_0>
-80.8302

>  <SCORE.INTRA.VDW>
0.888545

>  <SCORE.INTRA.VDW.0>
-4.23953

>  <SCORE.INTRA.norm>
-0.0601632

>  <SCORE.RESTR>
0

>  <SCORE.RESTR.CAVITY>
0

>  <SCORE.RESTR.norm>
0

>  <SCORE.SYSTEM>
0

>  <SCORE.SYSTEM.CONST>
0

>  <SCORE.SYSTEM.DIHEDRAL>
0

>  <SCORE.SYSTEM.SOLV>
0

>  <SCORE.SYSTEM.norm>
0

>  <SCORE.heavy>
31

>  <SCORE.norm>
-0.725591

>  <RMSD>
7.468

$$$$
2fcz_lig
 OpenBabel11021811433D
libRbt.so/2013.1/901 2013/11/27
 31 33  0  0  0  0  0  0  0  0999 V2000
    8.1293   21.4992   32.2588 C   0  0  0  0  0  0  0  0  0  0  0  0
   15.9168   23.7169   28.8765 N   0  0  0  0  0  0  0  0  0  0  0  0
    7.9498   21.4908   33.6777 O   0  0  0  0  0  0  0  0  0  0  0  0
    8.7781   22.8196   31.8297 C   0  0  1  0  0  0  0  0  0  0  0  0
   16.6075   21.0157   32.8981 N   0  0  0  0  0  0  0  0  0  0  0  0
   10.1562   22.8970   32.2473 O   0  0  0  0  0  0  0  0  0  0  0  0
   11.0169   22.7687   31.0982 C   0  0  1  0  0  0  0  0  0  0  0  0
   14.3688   16.5659   34.7400 N   0  0  0  0  0  0  0  0  0  0  0  0
   12.1146   21.8686   31.3265 O   0  0  0  0  0  0  0  0  0  0  0  0
   13.3880   22.5174   31.4829 C   0  0  2  0  0  0  0  0  0  0  0  0
   11.8785   22.0204   35.4459 N   0  0  0  0  0  0  0  0  0  0  0  0
   13.1420   23.7861   29.4375 O   0  0  0  0  0  0  0  0  0  0  0  0
   13.9698   22.8253   30.0976 C   0  0  1  0  0  0  0  0  0  0  0  0
   13.9388   21.5088   33.6608 O   0  0  0  0  0  0  0  0  0  0  0  0
   15.3892   23.3869   30.2076 C   0  0  1  0  0  0  0  0  0  0  0  0
   13.6835   19.1707   33.8631 O   0  0  0  0  0  0  0  0  0  0  0  0
   16.3075   22.3665   30.8838 C   0  0  0  0  0  0  0  0  0  0  0  0
   15.2352   18.9731   37.1980 O   0  0  0  0  0  0  0  0  0  0  0  0
   15.7809   22.0700   32.2894 C   0  0  1  0  0  0  0  0  0  0  0  0
   12.9192   20.5968   37.7009 O   0  0  0  0  0  0  0  0  0  0  0  0
   14.3201   21.6066   32.2795 C   0  0  2  0  0  0  0  0  0  0  0  0
   10.5842   22.4728   28.6815 O   0  0  0  0  0  0  0  0  0  0  0  0
   13.0163   20.4445   33.9356 C   0  0  1  0  0  0  0  0  0  0  0  0
    8.8791   24.3093   29.8937 O   0  0  0  0  0  0  0  0  0  0  0  0
   14.7461   18.9993   34.8168 C   0  0  2  0  0  0  0  0  0  0  0  0
   15.3811   17.6231   34.6026 C   0  0  0  0  0  0  0  0  0  0  0  0
   14.1829   19.1099   36.2381 C   0  0  2  0  0  0  0  0  0  0  0  0
   13.5160   20.4769   36.4056 C   0  0  1  0  0  0  0  0  0  0  0  0
   12.4372   20.6656   35.3366 C   0  0  1  0  0  0  0  0  0  0  0  0
   10.1068   22.2080   30.0042 C   0  0  2  0  0  0  0  0  0  0  0  0
    8.8018   22.9423   30.3062 C   0  0  1  0  0  0  0  0  0  0  0  0
  3  1  1  0  0  0  0
  4  1  1  6  0  0  0
  4  6  1  0  0  0  0
  4 31  1  0  0  0  0
  6  7  1  0  0  0  0
  7  9  1  1  0  0  0
  7 30  1  0  0  0  0
 10  9  1  6  0  0  0
 10 13  1  0  0  0  0
 10 21  1  0  0  0  0
 13 12  1  1  0  0  0
 13 15  1  0  0  0  0
 15  2  1  6  0  0  0
 15 17  1  0  0  0  0
 16 25  1  0  0  0  0
 17 19  1  0  0  0  0
 19  5  1  6  0  0  0
 19 21  1  0  0  0  0
 21 14  1  1  0  0  0
 23 14  1  1  0  0  0
 23 16  1  0  0  0  0
 23 29  1  0  0  0  0
 25 26  1  1  0  0  0
 25 27  1  0  0  0  0
 26  8  1  0  0  0  0
 27 18  1  1  0  0  0
 27 28  1  0  0  0  0
 28 20  1  1  0  0  0
 28 29  1  0  0  0  0
 29 11  1  6  0  0  0
 30 22  1  6  0  0  0
 30 31  1  0  0  0  0
 31 24  1  1  0  0  0
M  END
>  <CHROM.1>
70.56470064,-106.83764556,-82.36401642,89.70915136,72.85789897,-57.83289307
12.75195790,21.44858007,32.70705147,2.13109416,0.12674409,-1.02457482

>  <Name>
2fcz_lig

>  <RI>
1.40544e+07

>  <Rbt.Current_Directory>
/home/itssahil/PROJECTS/Mol_Feturizer/New_Systems/rnas/2fcz

>  <Rbt.Executable>
rbdock ($Id: //depot/dev/client3/rdock/2013.1/src/exe/rbdock.cxx#4 $)

>  <Rbt.Library>
libRbt.so (2013.1, Build901 2013/11/27)

>  <Rbt.Parameter_File>
/export/apps/rDock/src/rDock_2013.1_src/data/scripts/dock_solv.prm

>  <Rbt.Receptor>
prm/blind_docking_100.prm

>  <SCORE>
-24.1372

>  <SCORE.INTER>
-25.5488

>  <SCORE.INTER.CONST>
1

>  <SCORE.INTER.POLAR>
-3.71739

>  <SCORE.INTER.ROT>
6

>  <SCORE.INTER.SOLV>
16.4352

>  <SCORE.INTER.VDW>
-17.7196

>  <SCORE.INTER.norm>
-0.824154

>  <SCORE.INTRA>
1.41155

>  <SCORE.INTRA.DIHEDRAL>
2.46069

>  <SCORE.INTRA.DIHEDRAL.0>
10.8409

>  <SCORE.INTRA.POLAR>
0

>  <SCORE.INTRA.POLAR.0>
0

>  <SCORE.INTRA.REPUL>
0

>  <SCORE.INTRA.REPUL.0>
0

>  <SCORE.INTRA.SOLV>
-0.481939

>  <SCORE.INTRA.SOLV.lig_0>
-80.8302

>  <SCORE.INTRA.VDW>
0.422176

>  <SCORE.INTRA.VDW.0>
-4.23953

>  <SCORE.INTRA.norm>
0.045534

>  <SCORE.RESTR>
0

>  <SCORE.RESTR.CAVITY>
0

>  <SCORE.RESTR.norm>
0

>  <SCORE.SYSTEM>
0

>  <SCORE.SYSTEM.CONST>
0

>  <SCORE.SYSTEM.DIHEDRAL>
0

>  <SCORE.SYSTEM.SOLV>
0

>  <SCORE.SYSTEM.norm>
0

>  <SCORE.heavy>
31

>  <SCORE.norm>
-0.77862

>  <RMSD>
7.471

$$$$
2fcz_lig
 OpenBabel11021811433D
libRbt.so/2013.1/901 2013/11/27
 31 33  0  0  0  0  0  0  0  0999 V2000
   17.5802   22.0574   36.5460 C   0  0  0  0  0  0  0  0  0  0  0  0
   10.0593   22.4093   33.4793 N   0  0  0  0  0  0  0  0  0  0  0  0
   16.5723   22.8253   35.8827 O   0  0  0  0  0  0  0  0  0  0  0  0
   17.0802   20.6241   36.7564 C   0  0  1  0  0  0  0  0  0  0  0  0
    9.1679   19.1561   37.0247 N   0  0  0  0  0  0  0  0  0  0  0  0
   15.7960   20.5982   37.4119 O   0  0  0  0  0  0  0  0  0  0  0  0
   14.7809   20.1986   36.4698 C   0  0  1  0  0  0  0  0  0  0  0  0
    8.9875   17.4710   41.2452 N   0  0  0  0  0  0  0  0  0  0  0  0
   13.6035   21.0206   36.5428 O   0  0  0  0  0  0  0  0  0  0  0  0
   12.4990   20.5419   35.7569 C   0  0  2  0  0  0  0  0  0  0  0  0
   14.2625   17.1456   37.3848 N   0  0  0  0  0  0  0  0  0  0  0  0
   12.8287   22.2097   34.0355 O   0  0  0  0  0  0  0  0  0  0  0  0
   11.8824   21.7162   34.9869 C   0  0  1  0  0  0  0  0  0  0  0  0
   11.9329   18.6416   37.2172 O   0  0  0  0  0  0  0  0  0  0  0  0
   10.6143   21.2854   34.2462 C   0  0  1  0  0  0  0  0  0  0  0  0
   11.8847   19.0338   39.5445 O   0  0  0  0  0  0  0  0  0  0  0  0
    9.5691   20.7802   35.2431 C   0  0  0  0  0  0  0  0  0  0  0  0
   10.7763   15.6303   40.4136 O   0  0  0  0  0  0  0  0  0  0  0  0
   10.1355   19.5764   35.9987 C   0  0  1  0  0  0  0  0  0  0  0  0
   13.3418   15.1461   39.2149 O   0  0  0  0  0  0  0  0  0  0  0  0
   11.4712   19.8914   36.6809 C   0  0  2  0  0  0  0  0  0  0  0  0
   14.8408   19.5717   34.0785 O   0  0  0  0  0  0  0  0  0  0  0  0
   12.7264   18.7759   38.4053 C   0  0  1  0  0  0  0  0  0  0  0  0
   16.9418   18.4985   35.5562 O   0  0  0  0  0  0  0  0  0  0  0  0
   10.9444   17.9867   39.8401 C   0  0  2  0  0  0  0  0  0  0  0  0
   10.1013   18.4096   41.0457 C   0  0  0  0  0  0  0  0  0  0  0  0
   11.7008   16.6898   40.1487 C   0  0  2  0  0  0  0  0  0  0  0  0
   12.5678   16.3190   38.9435 C   0  0  1  0  0  0  0  0  0  0  0  0
   13.5111   17.4753   38.6040 C   0  0  1  0  0  0  0  0  0  0  0  0
   15.4458   20.3670   35.1027 C   0  0  2  0  0  0  0  0  0  0  0  0
   16.8726   19.9199   35.4156 C   0  0  1  0  0  0  0  0  0  0  0  0
  3  1  1  0  0  0  0
  4  1  1  6  0  0  0
  4  6  1  0  0  0  0
  4 31  1  0  0  0  0
  6  7  1  0  0  0  0
  7  9  1  6  0  0  0
  7 30  1  0  0  0  0
 10  9  1  1  0  0  0
 10 13  1  0  0  0  0
 10 21  1  0  0  0  0
 13 12  1  6  0  0  0
 13 15  1  0  0  0  0
 15  2  1  1  0  0  0
 15 17  1  0  0  0  0
 16 25  1  0  0  0  0
 17 19  1  0  0  0  0
 19  5  1  1  0  0  0
 19 21  1  0  0  0  0
 21 14  1  6  0  0  0
 23 14  1  6  0  0  0
 23 16  1  0  0  0  0
 23 29  1  0  0  0  0
 25 26  1  1  0  0  0
 25 27  1  0  0  0  0
 26  8  1  0  0  0  0
 27 18  1  6  0  0  0
 27 28  1  0  0  0  0
 28 20  1  1  0  0  0
 28 29  1  0  0  0  0
 29 11  1  6  0  0  0
 30 22  1  6  0  0  0
 30 31  1  0  0  0  0
 31 24  1  1  0  0  0
M  END
>  <CHROM.1>
-52.61969784,-171.64422915,-134.77844885,85.56894344,77.21212642,170.79732739
12.95776905,19.41513558,37.07175047,-0.94284400,-0.03610693,2.32732626

>  <Name>
2fcz_lig

>  <RI>
2.76032e+07

>  <Rbt.Current_Directory>
/home/itssahil/PROJECTS/Mol_Feturizer/New_Systems/rnas/2fcz

>  <Rbt.Executable>
rbdock ($Id: //depot/dev/client3/rdock/2013.1/src/exe/rbdock.cxx#4 $)

>  <Rbt.Library>
libRbt.so (2013.1, Build901 2013/11/27)

>  <Rbt.Parameter_File>
/export/apps/rDock/src/rDock_2013.1_src/data/scripts/dock_solv.prm

>  <Rbt.Receptor>
prm/pocket_docking_8.prm

>  <SCORE>
-12.1222

>  <SCORE.INTER>
-13.332

>  <SCORE.INTER.CONST>
1

>  <SCORE.INTER.POLAR>
-1.65296

>  <SCORE.INTER.ROT>
6

>  <SCORE.INTER.SOLV>
12.5031

>  <SCORE.INTER.VDW>
-15.1458

>  <SCORE.INTER.norm>
-0.430063

>  <SCORE.INTRA>
1.20977

>  <SCORE.INTRA.DIHEDRAL>
0.392142

>  <SCORE.INTRA.DIHEDRAL.0>
10.8409

>  <SCORE.INTRA.POLAR>
0

>  <SCORE.INTRA.POLAR.0>
0

>  <SCORE.INTRA.REPUL>
0

>  <SCORE.INTRA.REPUL.0>
0

>  <SCORE.INTRA.SOLV>
1.58547

>  <SCORE.INTRA.SOLV.lig_0>
-80.8302

>  <SCORE.INTRA.VDW>
0.220963

>  <SCORE.INTRA.VDW.0>
-4.23953

>  <SCORE.INTRA.norm>
0.0390248

>  <SCORE.RESTR>
0

>  <SCORE.RESTR.CAVITY>
0

>  <SCORE.RESTR.norm>
0

>  <SCORE.SYSTEM>
0

>  <SCORE.SYSTEM.CONST>
0

>  <SCORE.SYSTEM.DIHEDRAL>
0

>  <SCORE.SYSTEM.SOLV>
0

>  <SCORE.SYSTEM.norm>
0

>  <SCORE.heavy>
31

>  <SCORE.norm>
-0.391039

>  <RMSD>
7.480

$$$$
2fcz_lig
 OpenBabel11021811433D
libRbt.so/2013.1/901 2013/11/27
 31 33  0  0  0  0  0  0  0  0999 V2000
   10.2006   20.5898   31.9501 C   0  0  0  0  0  0  0  0  0  0  0  0
    9.8280   20.1930   34.9095 N   0  0  0  0  0  0  0  0  0  0  0  0
    8.9680   21.1165   32.4488 O   0  0  0  0  0  0  0  0  0  0  0  0
    9.9582   19.8993   30.6037 C   0  0  1  0  0  0  0  0  0  0  0  0
   12.9222   16.7389   33.3469 N   0  0  0  0  0  0  0  0  0  0  0  0
   10.0250   18.4636   30.7211 O   0  0  0  0  0  0  0  0  0  0  0  0
    8.7021   17.9063   30.5900 C   0  0  1  0  0  0  0  0  0  0  0  0
   12.4851   12.5009   36.5008 N   0  0  0  0  0  0  0  0  0  0  0  0
    8.4234   16.9029   31.5813 O   0  0  0  0  0  0  0  0  0  0  0  0
    9.1503   17.0686   32.8105 C   0  0  2  0  0  0  0  0  0  0  0  0
   11.1868   13.6140   30.2238 N   0  0  0  0  0  0  0  0  0  0  0  0
    7.7165   18.8629   33.5711 O   0  0  0  0  0  0  0  0  0  0  0  0
    9.0706   18.5363   33.2487 C   0  0  1  0  0  0  0  0  0  0  0  0
   10.7296   15.2156   32.4417 O   0  0  0  0  0  0  0  0  0  0  0  0
    9.9479   18.7942   34.4760 C   0  0  1  0  0  0  0  0  0  0  0  0
   12.7720   14.5952   33.4500 O   0  0  0  0  0  0  0  0  0  0  0  0
   11.4105   18.4822   34.1517 C   0  0  0  0  0  0  0  0  0  0  0  0
   11.6256   11.2379   34.4409 O   0  0  0  0  0  0  0  0  0  0  0  0
   11.5343   17.0100   33.7539 C   0  0  1  0  0  0  0  0  0  0  0  0
   11.4815   11.1074   31.5747 O   0  0  0  0  0  0  0  0  0  0  0  0
   10.6001   16.6375   32.5975 C   0  0  2  0  0  0  0  0  0  0  0  0
    6.4727   18.9055   30.2075 O   0  0  0  0  0  0  0  0  0  0  0  0
   12.0749   14.7766   32.2033 C   0  0  1  0  0  0  0  0  0  0  0  0
    8.4810   20.0576   28.6619 O   0  0  0  0  0  0  0  0  0  0  0  0
   12.2006   13.5964   34.3125 C   0  0  2  0  0  0  0  0  0  0  0  0
   13.0195   13.5364   35.6044 C   0  0  0  0  0  0  0  0  0  0  0  0
   12.2207   12.2362   33.6063 C   0  0  2  0  0  0  0  0  0  0  0  0
   11.4334   12.3413   32.2984 C   0  0  1  0  0  0  0  0  0  0  0  0
   12.0152   13.4570   31.4274 C   0  0  1  0  0  0  0  0  0  0  0  0
    7.7670   19.1008   30.7855 C   0  0  2  0  0  0  0  0  0  0  0  0
    8.5541   20.2051   30.0824 C   0  0  1  0  0  0  0  0  0  0  0  0
  3  1  1  0  0  0  0
  4  1  1  1  0  0  0
  4  6  1  0  0  0  0
  4 31  1  0  0  0  0
  6  7  1  0  0  0  0
  7  9  1  1  0  0  0
  7 30  1  0  0  0  0
 10  9  1  6  0  0  0
 10 13  1  0  0  0  0
 10 21  1  0  0  0  0
 13 12  1  1  0  0  0
 13 15  1  0  0  0  0
 15  2  1  6  0  0  0
 15 17  1  0  0  0  0
 16 25  1  0  0  0  0
 17 19  1  0  0  0  0
 19  5  1  6  0  0  0
 19 21  1  0  0  0  0
 21 14  1  1  0  0  0
 23 14  1  1  0  0  0
 23 16  1  0  0  0  0
 23 29  1  0  0  0  0
 25 26  1  1  0  0  0
 25 27  1  0  0  0  0
 26  8  1  0  0  0  0
 27 18  1  1  0  0  0
 27 28  1  0  0  0  0
 28 20  1  6  0  0  0
 28 29  1  0  0  0  0
 29 11  1  6  0  0  0
 30 22  1  6  0  0  0
 30 31  1  0  0  0  0
 31 24  1  6  0  0  0
M  END
>  <CHROM.1>
-106.86677518,27.74353918,46.22872786,178.40947007,85.52331012,-178.60741801
10.38629787,16.57503771,32.51285526,-2.59426454,1.04663327,-2.50071189

>  <Name>
2fcz_lig

>  <RI>
0

>  <Rbt.Current_Directory>
/home/itssahil/PROJECTS/Mol_Feturizer/New_Systems/rnas/2fcz

>  <Rbt.Executable>
rbdock ($Id: //depot/dev/client3/rdock/2013.1/src/exe/rbdock.cxx#4 $)

>  <Rbt.Library>
libRbt.so (2013.1, Build901 2013/11/27)

>  <Rbt.Parameter_File>
/export/apps/rDock/src/rDock_2013.1_src/data/scripts/dock_solv.prm

>  <Rbt.Receptor>
prm/blind_docking_40.prm

>  <SCORE>
37.8599

>  <SCORE.INTER>
4.38385

>  <SCORE.INTER.CONST>
1

>  <SCORE.INTER.POLAR>
0

>  <SCORE.INTER.ROT>
6

>  <SCORE.INTER.SOLV>
16.5763

>  <SCORE.INTER.VDW>
-10.2029

>  <SCORE.INTER.norm>
0.141415

>  <SCORE.INTRA>
25.3985

>  <SCORE.INTRA.DIHEDRAL>
1.59013

>  <SCORE.INTRA.DIHEDRAL.0>
10.8409

>  <SCORE.INTRA.POLAR>
0

>  <SCORE.INTRA.POLAR.0>
0

>  <SCORE.INTRA.REPUL>
0

>  <SCORE.INTRA.REPUL.0>
0

>  <SCORE.INTRA.SOLV>
5.585

>  <SCORE.INTRA.SOLV.lig_0>
-80.8302

>  <SCORE.INTRA.VDW>
21.811

>  <SCORE.INTRA.VDW.0>
-4.23953

>  <SCORE.INTRA.norm>
0.819307

>  <SCORE.RESTR>
8.07748

>  <SCORE.RESTR.CAVITY>
8.07748

>  <SCORE.RESTR.norm>
0.260564

>  <SCORE.SYSTEM>
0

>  <SCORE.SYSTEM.CONST>
0

>  <SCORE.SYSTEM.DIHEDRAL>
0

>  <SCORE.SYSTEM.SOLV>
0

>  <SCORE.SYSTEM.norm>
0

>  <SCORE.heavy>
31

>  <SCORE.norm>
1.22129

>  <RMSD>
7.496

$$$$
2fcz_lig
 OpenBabel11021811433D
libRbt.so/2013.1/901 2013/11/27
 31 33  0  0  0  0  0  0  0  0999 V2000
    8.3641   22.6615   32.9536 C   0  0  0  0  0  0  0  0  0  0  0  0
   15.9111   23.6949   28.8765 N   0  0  0  0  0  0  0  0  0  0  0  0
    8.9377   21.3526   32.8979 O   0  0  0  0  0  0  0  0  0  0  0  0
    8.9960   23.5470   31.8742 C   0  0  1  0  0  0  0  0  0  0  0  0
   16.5043   21.0257   32.9349 N   0  0  0  0  0  0  0  0  0  0  0  0
   10.4349   23.5594   31.9698 O   0  0  0  0  0  0  0  0  0  0  0  0
   10.9983   22.8148   30.8717 C   0  0  1  0  0  0  0  0  0  0  0  0
   16.4456   17.4943   35.3570 N   0  0  0  0  0  0  0  0  0  0  0  0
   12.0476   21.9241   31.2874 O   0  0  0  0  0  0  0  0  0  0  0  0
   13.3274   22.5569   31.4565 C   0  0  2  0  0  0  0  0  0  0  0  0
   11.7902   22.0916   35.4541 N   0  0  0  0  0  0  0  0  0  0  0  0
   13.1296   23.8080   29.3950 O   0  0  0  0  0  0  0  0  0  0  0  0
   13.9340   22.8426   30.0771 C   0  0  1  0  0  0  0  0  0  0  0  0
   13.8317   21.5632   33.6524 O   0  0  0  0  0  0  0  0  0  0  0  0
   15.3593   23.3858   30.2028 C   0  0  1  0  0  0  0  0  0  0  0  0
   13.5432   19.2276   33.8391 O   0  0  0  0  0  0  0  0  0  0  0  0
   16.2531   22.3599   30.9028 C   0  0  0  0  0  0  0  0  0  0  0  0
   15.1123   18.9824   37.1626 O   0  0  0  0  0  0  0  0  0  0  0  0
   15.7016   22.0850   32.3033 C   0  0  1  0  0  0  0  0  0  0  0  0
   12.8237   20.6361   37.6920 O   0  0  0  0  0  0  0  0  0  0  0  0
   14.2349   21.6416   32.2761 C   0  0  2  0  0  0  0  0  0  0  0  0
   10.0042   21.6044   28.9582 O   0  0  0  0  0  0  0  0  0  0  0  0
   12.8953   20.5105   33.9252 C   0  0  1  0  0  0  0  0  0  0  0  0
    8.7652   24.0397   29.4906 O   0  0  0  0  0  0  0  0  0  0  0  0
   14.6091   19.0335   34.7848 C   0  0  2  0  0  0  0  0  0  0  0  0
   15.2224   17.6498   34.5565 C   0  0  0  0  0  0  0  0  0  0  0  0
   14.0563   19.1418   36.2104 C   0  0  2  0  0  0  0  0  0  0  0  0
   13.4106   20.5171   36.3921 C   0  0  1  0  0  0  0  0  0  0  0  0
   12.3282   20.7296   35.3314 C   0  0  1  0  0  0  0  0  0  0  0  0
    9.8226   22.0074   30.3191 C   0  0  2  0  0  0  0  0  0  0  0  0
    8.6806   23.0092   30.4785 C   0  0  1  0  0  0  0  0  0  0  0  0
  3  1  1  0  0  0  0
  4  1  1  1  0  0  0
  4  6  1  0  0  0  0
  4 31  1  0  0  0  0
  6  7  1  0  0  0  0
  7  9  1  1  0  0  0
  7 30  1  0  0  0  0
 10  9  1  6  0  0  0
 10 13  1  0  0  0  0
 10 21  1  0  0  0  0
 13 12  1  1  0  0  0
 13 15  1  0  0  0  0
 15  2  1  6  0  0  0
 15 17  1  0  0  0  0
 16 25  1  0  0  0  0
 17 19  1  0  0  0  0
 19  5  1  6  0  0  0
 19 21  1  0  0  0  0
 21 14  1  1  0  0  0
 23 14  1  1  0  0  0
 23 16  1  0  0  0  0
 23 29  1  0  0  0  0
 25 26  1  1  0  0  0
 25 27  1  0  0  0  0
 26  8  1  0  0  0  0
 27 18  1  1  0  0  0
 27 28  1  0  0  0  0
 28 20  1  1  0  0  0
 28 29  1  0  0  0  0
 29 11  1  6  0  0  0
 30 22  1  6  0  0  0
 30 31  1  0  0  0  0
 31 24  1  6  0  0  0
M  END
>  <CHROM.1>
-54.03533287,-81.30048593,-75.07809343,89.98681057,71.19020062,171.16041511
12.78103394,21.53300548,32.70579900,2.17654342,0.16623772,-1.06346927

>  <Name>
2fcz_lig

>  <RI>
1.40544e+07

>  <Rbt.Current_Directory>
/home/itssahil/PROJECTS/Mol_Feturizer/New_Systems/rnas/2fcz

>  <Rbt.Executable>
rbdock ($Id: //depot/dev/client3/rdock/2013.1/src/exe/rbdock.cxx#4 $)

>  <Rbt.Library>
libRbt.so (2013.1, Build901 2013/11/27)

>  <Rbt.Parameter_File>
/export/apps/rDock/src/rDock_2013.1_src/data/scripts/dock_solv.prm

>  <Rbt.Receptor>
prm/blind_docking_100.prm

>  <SCORE>
-21.6798

>  <SCORE.INTER>
-21.285

>  <SCORE.INTER.CONST>
1

>  <SCORE.INTER.POLAR>
-2.71939

>  <SCORE.INTER.ROT>
6

>  <SCORE.INTER.SOLV>
17.3796

>  <SCORE.INTER.VDW>
-18.5185

>  <SCORE.INTER.norm>
-0.686611

>  <SCORE.INTRA>
-0.394868

>  <SCORE.INTRA.DIHEDRAL>
-3.1024

>  <SCORE.INTRA.DIHEDRAL.0>
10.8409

>  <SCORE.INTRA.POLAR>
0

>  <SCORE.INTRA.POLAR.0>
0

>  <SCORE.INTRA.REPUL>
0

>  <SCORE.INTRA.REPUL.0>
0

>  <SCORE.INTRA.SOLV>
0.137002

>  <SCORE.INTRA.SOLV.lig_0>
-80.8302

>  <SCORE.INTRA.VDW>
1.08783

>  <SCORE.INTRA.VDW.0>
-4.23953

>  <SCORE.INTRA.norm>
-0.0127377

>  <SCORE.RESTR>
0

>  <SCORE.RESTR.CAVITY>
0

>  <SCORE.RESTR.norm>
0

>  <SCORE.SYSTEM>
0

>  <SCORE.SYSTEM.CONST>
0

>  <SCORE.SYSTEM.DIHEDRAL>
0

>  <SCORE.SYSTEM.SOLV>
0

>  <SCORE.SYSTEM.norm>
0

>  <SCORE.heavy>
31

>  <SCORE.norm>
-0.699349

>  <RMSD>
7.522

$$$$
2fcz_lig
 OpenBabel11021811433D
libRbt.so/2013.1/901 2013/11/27
 31 33  0  0  0  0  0  0  0  0999 V2000
    5.4937   14.9701   39.2612 C   0  0  0  0  0  0  0  0  0  0  0  0
   12.9919   19.4379   38.3971 N   0  0  0  0  0  0  0  0  0  0  0  0
    6.0660   14.7204   37.9745 O   0  0  0  0  0  0  0  0  0  0  0  0
    6.1350   16.2185   39.8765 C   0  0  1  0  0  0  0  0  0  0  0  0
   13.5332   14.6637   37.4690 N   0  0  0  0  0  0  0  0  0  0  0  0
    7.5751   16.1510   39.8404 O   0  0  0  0  0  0  0  0  0  0  0  0
    8.0778   17.0818   38.8613 C   0  0  1  0  0  0  0  0  0  0  0  0
   10.9824   14.2715   33.9807 N   0  0  0  0  0  0  0  0  0  0  0  0
    9.0984   16.5092   38.0260 O   0  0  0  0  0  0  0  0  0  0  0  0
   10.4272   16.6059   38.5662 C   0  0  2  0  0  0  0  0  0  0  0  0
    9.5835   12.3055   39.9719 N   0  0  0  0  0  0  0  0  0  0  0  0
   10.2475   18.9906   38.9329 O   0  0  0  0  0  0  0  0  0  0  0  0
   11.0022   17.9907   38.2439 C   0  0  1  0  0  0  0  0  0  0  0  0
   10.9362   14.1988   38.4624 O   0  0  0  0  0  0  0  0  0  0  0  0
   12.4677   18.0931   38.6729 C   0  0  1  0  0  0  0  0  0  0  0  0
    9.7195   13.6737   36.5088 O   0  0  0  0  0  0  0  0  0  0  0  0
   13.3077   17.0535   37.9278 C   0  0  0  0  0  0  0  0  0  0  0  0
   11.4891   10.5051   35.8793 O   0  0  0  0  0  0  0  0  0  0  0  0
   12.7891   15.6538   38.2637 C   0  0  1  0  0  0  0  0  0  0  0  0
   10.2104    9.9960   38.4010 O   0  0  0  0  0  0  0  0  0  0  0  0
   11.2933   15.4992   37.9679 C   0  0  2  0  0  0  0  0  0  0  0  0
    6.9841   18.6894   37.3334 O   0  0  0  0  0  0  0  0  0  0  0  0
    9.6920   13.7023   37.9480 C   0  0  1  0  0  0  0  0  0  0  0  0
    5.8644   18.6484   39.8818 O   0  0  0  0  0  0  0  0  0  0  0  0
   10.7255   12.8119   35.9488 C   0  0  2  0  0  0  0  0  0  0  0  0
   10.6595   12.9070   34.4225 C   0  0  0  0  0  0  0  0  0  0  0  0
   10.4763   11.3694   36.4033 C   0  0  2  0  0  0  0  0  0  0  0  0
   10.5033   11.3163   37.9323 C   0  0  1  0  0  0  0  0  0  0  0  0
    9.4740   12.2924   38.5065 C   0  0  1  0  0  0  0  0  0  0  0  0
    6.8549   17.4375   38.0143 C   0  0  2  0  0  0  0  0  0  0  0  0
    5.7612   17.4686   39.0802 C   0  0  1  0  0  0  0  0  0  0  0  0
  3  1  1  0  0  0  0
  4  1  1  6  0  0  0
  4  6  1  0  0  0  0
  4 31  1  0  0  0  0
  6  7  1  0  0  0  0
  7  9  1  6  0  0  0
  7 30  1  0  0  0  0
 10  9  1  6  0  0  0
 10 13  1  0  0  0  0
 10 21  1  0  0  0  0
 13 12  1  1  0  0  0
 13 15  1  0  0  0  0
 15  2  1  6  0  0  0
 15 17  1  0  0  0  0
 16 25  1  0  0  0  0
 17 19  1  0  0  0  0
 19  5  1  6  0  0  0
 19 21  1  0  0  0  0
 21 14  1  1  0  0  0
 23 14  1  1  0  0  0
 23 16  1  0  0  0  0
 23 29  1  0  0  0  0
 25 26  1  6  0  0  0
 25 27  1  0  0  0  0
 26  8  1  0  0  0  0
 27 18  1  6  0  0  0
 27 28  1  0  0  0  0
 28 20  1  6  0  0  0
 28 29  1  0  0  0  0
 29 11  1  1  0  0  0
 30 22  1  1  0  0  0
 30 31  1  0  0  0  0
 31 24  1  1  0  0  0
M  END
>  <CHROM.1>
-50.67911548,-86.74972526,-82.90966057,72.47162392,56.54979071,63.43495132
9.65157661,15.19973334,37.96718563,2.09510526,0.24498689,0.21813471

>  <Name>
2fcz_lig

>  <RI>
1.32928e+07

>  <Rbt.Current_Directory>
/home/itssahil/PROJECTS/Mol_Feturizer/New_Systems/rnas/2fcz

>  <Rbt.Executable>
rbdock ($Id: //depot/dev/client3/rdock/2013.1/src/exe/rbdock.cxx#4 $)

>  <Rbt.Library>
libRbt.so (2013.1, Build901 2013/11/27)

>  <Rbt.Parameter_File>
/export/apps/rDock/src/rDock_2013.1_src/data/scripts/dock_solv.prm

>  <Rbt.Receptor>
prm/pocket_docking_7.prm

>  <SCORE>
-14.752

>  <SCORE.INTER>
-12.237

>  <SCORE.INTER.CONST>
1

>  <SCORE.INTER.POLAR>
-2.90712

>  <SCORE.INTER.ROT>
6

>  <SCORE.INTER.SOLV>
10.6327

>  <SCORE.INTER.VDW>
-9.61181

>  <SCORE.INTER.norm>
-0.394741

>  <SCORE.INTRA>
-2.515

>  <SCORE.INTRA.DIHEDRAL>
-4.31416

>  <SCORE.INTRA.DIHEDRAL.0>
10.8409

>  <SCORE.INTRA.POLAR>
0

>  <SCORE.INTRA.POLAR.0>
0

>  <SCORE.INTRA.REPUL>
0

>  <SCORE.INTRA.REPUL.0>
0

>  <SCORE.INTRA.SOLV>
-2.498

>  <SCORE.INTRA.SOLV.lig_0>
-80.8302

>  <SCORE.INTRA.VDW>
0.891082

>  <SCORE.INTRA.VDW.0>
-4.23953

>  <SCORE.INTRA.norm>
-0.0811289

>  <SCORE.RESTR>
0

>  <SCORE.RESTR.CAVITY>
0

>  <SCORE.RESTR.norm>
0

>  <SCORE.SYSTEM>
0

>  <SCORE.SYSTEM.CONST>
0

>  <SCORE.SYSTEM.DIHEDRAL>
0

>  <SCORE.SYSTEM.SOLV>
0

>  <SCORE.SYSTEM.norm>
0

>  <SCORE.heavy>
31

>  <SCORE.norm>
-0.475869

>  <RMSD>
7.522

$$$$
2fcz_lig
 OpenBabel11021811433D
libRbt.so/2013.1/901 2013/11/27
 31 33  0  0  0  0  0  0  0  0999 V2000
   17.5068   25.0484   31.3714 C   0  0  0  0  0  0  0  0  0  0  0  0
   17.2170   24.7369   37.9001 N   0  0  0  0  0  0  0  0  0  0  0  0
   18.0834   24.9580   30.0657 O   0  0  0  0  0  0  0  0  0  0  0  0
   17.2239   23.6410   31.9078 C   0  0  1  0  0  0  0  0  0  0  0  0
   14.7149   20.5955   37.1685 N   0  0  0  0  0  0  0  0  0  0  0  0
   16.6500   23.6798   33.2302 O   0  0  0  0  0  0  0  0  0  0  0  0
   15.2590   23.3075   33.1641 C   0  0  1  0  0  0  0  0  0  0  0  0
   15.9426   19.0211   33.6487 N   0  0  0  0  0  0  0  0  0  0  0  0
   14.4154   24.1793   33.9358 O   0  0  0  0  0  0  0  0  0  0  0  0
   14.4725   23.9531   35.3545 C   0  0  2  0  0  0  0  0  0  0  0  0
   10.3988   22.2102   34.5209 N   0  0  0  0  0  0  0  0  0  0  0  0
   15.8122   25.9287   35.7495 O   0  0  0  0  0  0  0  0  0  0  0  0
   15.7946   24.5070   35.8999 C   0  0  1  0  0  0  0  0  0  0  0  0
   13.0280   21.9589   35.3678 O   0  0  0  0  0  0  0  0  0  0  0  0
   15.9675   24.1636   37.3813 C   0  0  1  0  0  0  0  0  0  0  0  0
   13.6525   20.7539   33.4363 O   0  0  0  0  0  0  0  0  0  0  0  0
   15.9834   22.6452   37.5707 C   0  0  0  0  0  0  0  0  0  0  0  0
   12.0093   17.6247   34.4736 O   0  0  0  0  0  0  0  0  0  0  0  0
   14.6571   22.0631   37.0780 C   0  0  1  0  0  0  0  0  0  0  0  0
    9.7859   19.4285   34.2362 O   0  0  0  0  0  0  0  0  0  0  0  0
   14.3502   22.4555   35.6286 C   0  0  2  0  0  0  0  0  0  0  0  0
   13.7702   22.6391   31.3063 O   0  0  0  0  0  0  0  0  0  0  0  0
   12.7528   21.7395   33.9766 C   0  0  1  0  0  0  0  0  0  0  0  0
   16.3073   21.5035   31.1538 O   0  0  0  0  0  0  0  0  0  0  0  0
   13.5504   19.4556   34.0463 C   0  0  2  0  0  0  0  0  0  0  0  0
   14.5808   18.5266   33.3995 C   0  0  0  0  0  0  0  0  0  0  0  0
   12.1350   18.9033   33.8437 C   0  0  2  0  0  0  0  0  0  0  0  0
   11.1270   19.8756   34.4603 C   0  0  1  0  0  0  0  0  0  0  0  0
   11.3014   21.2666   33.8467 C   0  0  1  0  0  0  0  0  0  0  0  0
   14.9057   23.4252   31.6806 C   0  0  2  0  0  0  0  0  0  0  0  0
   16.1953   22.9240   31.0333 C   0  0  1  0  0  0  0  0  0  0  0  0
  3  1  1  0  0  0  0
  4  1  1  6  0  0  0
  4  6  1  0  0  0  0
  4 31  1  0  0  0  0
  6  7  1  0  0  0  0
  7  9  1  1  0  0  0
  7 30  1  0  0  0  0
 10  9  1  6  0  0  0
 10 13  1  0  0  0  0
 10 21  1  0  0  0  0
 13 12  1  1  0  0  0
 13 15  1  0  0  0  0
 15  2  1  6  0  0  0
 15 17  1  0  0  0  0
 16 25  1  0  0  0  0
 17 19  1  0  0  0  0
 19  5  1  6  0  0  0
 19 21  1  0  0  0  0
 21 14  1  1  0  0  0
 23 14  1  1  0  0  0
 23 16  1  0  0  0  0
 23 29  1  0  0  0  0
 25 26  1  6  0  0  0
 25 27  1  0  0  0  0
 26  8  1  0  0  0  0
 27 18  1  1  0  0  0
 27 28  1  0  0  0  0
 28 20  1  6  0  0  0
 28 29  1  0  0  0  0
 29 11  1  1  0  0  0
 30 22  1  1  0  0  0
 30 31  1  0  0  0  0
 31 24  1  1  0  0  0
M  END
>  <CHROM.1>
179.54305703,-76.16720377,74.44732285,78.89162063,61.27412253,62.56579390
14.50252283,22.16658959,34.08275667,-0.02481466,-0.80023240,-1.83175880

>  <Name>
2fcz_lig

>  <RI>
0

>  <Rbt.Current_Directory>
/home/itssahil/PROJECTS/Mol_Feturizer/New_Systems/rnas/2fcz

>  <Rbt.Executable>
rbdock ($Id: //depot/dev/client3/rdock/2013.1/src/exe/rbdock.cxx#4 $)

>  <Rbt.Library>
libRbt.so (2013.1, Build901 2013/11/27)

>  <Rbt.Parameter_File>
/export/apps/rDock/src/rDock_2013.1_src/data/scripts/dock_solv.prm

>  <Rbt.Receptor>
prm/blind_docking_80.prm

>  <SCORE>
-10.3129

>  <SCORE.INTER>
-8.00998

>  <SCORE.INTER.CONST>
1

>  <SCORE.INTER.POLAR>
-0.885974

>  <SCORE.INTER.ROT>
6

>  <SCORE.INTER.SOLV>
15.669

>  <SCORE.INTER.VDW>
-15.2097

>  <SCORE.INTER.norm>
-0.258387

>  <SCORE.INTRA>
-2.60777

>  <SCORE.INTRA.DIHEDRAL>
-6.88876

>  <SCORE.INTRA.DIHEDRAL.0>
10.8409

>  <SCORE.INTRA.POLAR>
0

>  <SCORE.INTRA.POLAR.0>
0

>  <SCORE.INTRA.REPUL>
0

>  <SCORE.INTRA.REPUL.0>
0

>  <SCORE.INTRA.SOLV>
-0.805204

>  <SCORE.INTRA.SOLV.lig_0>
-80.8302

>  <SCORE.INTRA.VDW>
1.23921

>  <SCORE.INTRA.VDW.0>
-4.23953

>  <SCORE.INTRA.norm>
-0.0841215

>  <SCORE.RESTR>
0.304884

>  <SCORE.RESTR.CAVITY>
0.304884

>  <SCORE.RESTR.norm>
0.00983497

>  <SCORE.SYSTEM>
0

>  <SCORE.SYSTEM.CONST>
0

>  <SCORE.SYSTEM.DIHEDRAL>
0

>  <SCORE.SYSTEM.SOLV>
0

>  <SCORE.SYSTEM.norm>
0

>  <SCORE.heavy>
31

>  <SCORE.norm>
-0.332673

>  <RMSD>
7.527

$$$$
2fcz_lig
 OpenBabel11021811433D
libRbt.so/2013.1/901 2013/11/27
 31 33  0  0  0  0  0  0  0  0999 V2000
   13.3269   21.9422   32.0767 C   0  0  0  0  0  0  0  0  0  0  0  0
    9.3105   16.1458   31.5865 N   0  0  0  0  0  0  0  0  0  0  0  0
   14.2803   21.2907   32.9206 O   0  0  0  0  0  0  0  0  0  0  0  0
   12.1051   22.3560   32.9040 C   0  0  1  0  0  0  0  0  0  0  0  0
   14.0928   15.9629   32.6078 N   0  0  0  0  0  0  0  0  0  0  0  0
   11.2017   21.2510   33.1101 O   0  0  0  0  0  0  0  0  0  0  0  0
   11.2665   20.8242   34.4854 C   0  0  1  0  0  0  0  0  0  0  0  0
   18.7300   19.4330   32.9391 N   0  0  0  0  0  0  0  0  0  0  0  0
   11.3424   19.3946   34.6183 O   0  0  0  0  0  0  0  0  0  0  0  0
   11.5298   18.6948   33.3765 C   0  0  2  0  0  0  0  0  0  0  0  0
   13.8577   17.4089   35.9408 N   0  0  0  0  0  0  0  0  0  0  0  0
    9.1606   18.6565   32.8875 O   0  0  0  0  0  0  0  0  0  0  0  0
   10.3004   17.8202   33.1009 C   0  0  1  0  0  0  0  0  0  0  0  0
   13.9903   18.6472   33.4625 O   0  0  0  0  0  0  0  0  0  0  0  0
   10.5117   16.9458   31.8627 C   0  0  1  0  0  0  0  0  0  0  0  0
   16.3504   18.5988   33.4399 O   0  0  0  0  0  0  0  0  0  0  0  0
   11.7087   16.0161   32.0736 C   0  0  0  0  0  0  0  0  0  0  0  0
   16.7436   21.3194   35.8918 O   0  0  0  0  0  0  0  0  0  0  0  0
   12.9646   16.8583   32.3063 C   0  0  1  0  0  0  0  0  0  0  0  0
   15.4020   19.3009   37.4342 O   0  0  0  0  0  0  0  0  0  0  0  0
   12.7975   17.8473   33.4650 C   0  0  2  0  0  0  0  0  0  0  0  0
   12.5582   21.6068   36.4434 O   0  0  0  0  0  0  0  0  0  0  0  0
   15.1582   17.9518   33.9227 C   0  0  1  0  0  0  0  0  0  0  0  0
   11.5501   23.6800   34.8830 O   0  0  0  0  0  0  0  0  0  0  0  0
   16.5192   19.9529   33.8938 C   0  0  2  0  0  0  0  0  0  0  0  0
   17.8013   20.5205   33.2798 C   0  0  0  0  0  0  0  0  0  0  0  0
   16.6075   19.9740   35.4239 C   0  0  2  0  0  0  0  0  0  0  0  0
   15.3327   19.3595   36.0058 C   0  0  1  0  0  0  0  0  0  0  0  0
   15.1364   17.9454   35.4545 C   0  0  1  0  0  0  0  0  0  0  0  0
   12.5496   21.4626   35.0198 C   0  0  2  0  0  0  0  0  0  0  0  0
   12.5253   22.8106   34.3017 C   0  0  1  0  0  0  0  0  0  0  0  0
  3  1  1  0  0  0  0
  4  1  1  6  0  0  0
  4  6  1  0  0  0  0
  4 31  1  0  0  0  0
  6  7  1  0  0  0  0
  7  9  1  6  0  0  0
  7 30  1  0  0  0  0
 10  9  1  1  0  0  0
 10 13  1  0  0  0  0
 10 21  1  0  0  0  0
 13 12  1  6  0  0  0
 13 15  1  0  0  0  0
 15  2  1  1  0  0  0
 15 17  1  0  0  0  0
 16 25  1  0  0  0  0
 17 19  1  0  0  0  0
 19  5  1  1  0  0  0
 19 21  1  0  0  0  0
 21 14  1  6  0  0  0
 23 14  1  6  0  0  0
 23 16  1  0  0  0  0
 23 29  1  0  0  0  0
 25 26  1  6  0  0  0
 25 27  1  0  0  0  0
 26  8  1  0  0  0  0
 27 18  1  1  0  0  0
 27 28  1  0  0  0  0
 28 20  1  1  0  0  0
 28 29  1  0  0  0  0
 29 11  1  6  0  0  0
 30 22  1  1  0  0  0
 30 31  1  0  0  0  0
 31 24  1  1  0  0  0
M  END
>  <CHROM.1>
-80.79798285,8.38764249,-115.67748485,163.05108978,158.51664013,-24.64070108
13.44057003,19.46430414,33.93224836,0.42792127,-0.21519317,0.33130274

>  <Name>
2fcz_lig

>  <RI>
0

>  <Rbt.Current_Directory>
/home/itssahil/PROJECTS/Mol_Feturizer/New_Systems/rnas/2fcz

>  <Rbt.Executable>
rbdock ($Id: //depot/dev/client3/rdock/2013.1/src/exe/rbdock.cxx#4 $)

>  <Rbt.Library>
libRbt.so (2013.1, Build901 2013/11/27)

>  <Rbt.Parameter_File>
/export/apps/rDock/src/rDock_2013.1_src/data/scripts/dock_solv.prm

>  <Rbt.Receptor>
prm/blind_docking_80.prm

>  <SCORE>
1.79138

>  <SCORE.INTER>
-8.76389

>  <SCORE.INTER.CONST>
1

>  <SCORE.INTER.POLAR>
-0.880479

>  <SCORE.INTER.ROT>
6

>  <SCORE.INTER.SOLV>
17.3584

>  <SCORE.INTER.VDW>
-16.2938

>  <SCORE.INTER.norm>
-0.282706

>  <SCORE.INTRA>
10.5361

>  <SCORE.INTRA.DIHEDRAL>
11.265

>  <SCORE.INTRA.DIHEDRAL.0>
10.8409

>  <SCORE.INTRA.POLAR>
0

>  <SCORE.INTRA.POLAR.0>
0

>  <SCORE.INTRA.REPUL>
0

>  <SCORE.INTRA.REPUL.0>
0

>  <SCORE.INTRA.SOLV>
3.72478

>  <SCORE.INTRA.SOLV.lig_0>
-80.8302

>  <SCORE.INTRA.VDW>
3.04121

>  <SCORE.INTRA.VDW.0>
-4.23953

>  <SCORE.INTRA.norm>
0.339875

>  <SCORE.RESTR>
0.0191603

>  <SCORE.RESTR.CAVITY>
0.0191603

>  <SCORE.RESTR.norm>
0.000618074

>  <SCORE.SYSTEM>
0

>  <SCORE.SYSTEM.CONST>
0

>  <SCORE.SYSTEM.DIHEDRAL>
0

>  <SCORE.SYSTEM.SOLV>
0

>  <SCORE.SYSTEM.norm>
0

>  <SCORE.heavy>
31

>  <SCORE.norm>
0.0577864

>  <RMSD>
7.541

$$$$
2fcz_lig
 OpenBabel11021811433D
libRbt.so/2013.1/901 2013/11/27
 31 33  0  0  0  0  0  0  0  0999 V2000
   14.9517   21.3837   31.8839 C   0  0  0  0  0  0  0  0  0  0  0  0
   12.3286   13.9360   31.4362 N   0  0  0  0  0  0  0  0  0  0  0  0
   16.1557   21.8799   31.2926 O   0  0  0  0  0  0  0  0  0  0  0  0
   15.2473   20.8640   33.2950 C   0  0  1  0  0  0  0  0  0  0  0  0
   10.2921   14.8334   35.7945 N   0  0  0  0  0  0  0  0  0  0  0  0
   14.0612   20.3479   33.9325 O   0  0  0  0  0  0  0  0  0  0  0  0
   14.1418   18.9108   34.0114 C   0  0  1  0  0  0  0  0  0  0  0  0
    7.6368   17.2628   35.9695 N   0  0  0  0  0  0  0  0  0  0  0  0
   12.9170   18.2656   33.6234 O   0  0  0  0  0  0  0  0  0  0  0  0
   12.8990   16.8462   33.8512 C   0  0  2  0  0  0  0  0  0  0  0  0
   13.6922   18.4617   37.8862 N   0  0  0  0  0  0  0  0  0  0  0  0
   13.7937   16.3490   31.6590 O   0  0  0  0  0  0  0  0  0  0  0  0
   12.6722   16.1248   32.5169 C   0  0  1  0  0  0  0  0  0  0  0  0
   12.1056   16.9570   36.1798 O   0  0  0  0  0  0  0  0  0  0  0  0
   12.5021   14.6183   32.7260 C   0  0  1  0  0  0  0  0  0  0  0  0
   10.2599   18.4062   36.4368 O   0  0  0  0  0  0  0  0  0  0  0  0
   11.2885   14.3448   33.6171 C   0  0  0  0  0  0  0  0  0  0  0  0
    9.4073   17.2310   39.8220 O   0  0  0  0  0  0  0  0  0  0  0  0
   11.5021   15.0134   34.9766 C   0  0  1  0  0  0  0  0  0  0  0  0
   12.0235   18.3527   40.2096 O   0  0  0  0  0  0  0  0  0  0  0  0
   11.7927   16.5128   34.8502 C   0  0  2  0  0  0  0  0  0  0  0  0
   15.8510   17.2683   33.3074 O   0  0  0  0  0  0  0  0  0  0  0  0
   11.6960   18.3046   36.4545 C   0  0  1  0  0  0  0  0  0  0  0  0
   16.9278   19.5481   34.4874 O   0  0  0  0  0  0  0  0  0  0  0  0
    9.5934   17.6042   37.4271 C   0  0  2  0  0  0  0  0  0  0  0  0
    8.0817   17.7854   37.2696 C   0  0  0  0  0  0  0  0  0  0  0  0
   10.0387   18.0423   38.8268 C   0  0  2  0  0  0  0  0  0  0  0  0
   11.5576   17.8926   38.9369 C   0  0  1  0  0  0  0  0  0  0  0  0
   12.2428   18.6978   37.8305 C   0  0  1  0  0  0  0  0  0  0  0  0
   15.2555   18.5397   33.0309 C   0  0  2  0  0  0  0  0  0  0  0  0
   16.2312   19.6950   33.2472 C   0  0  1  0  0  0  0  0  0  0  0  0
  3  1  1  0  0  0  0
  4  1  1  6  0  0  0
  4  6  1  0  0  0  0
  4 31  1  0  0  0  0
  6  7  1  0  0  0  0
  7  9  1  6  0  0  0
  7 30  1  0  0  0  0
 10  9  1  6  0  0  0
 10 13  1  0  0  0  0
 10 21  1  0  0  0  0
 13 12  1  6  0  0  0
 13 15  1  0  0  0  0
 15  2  1  6  0  0  0
 15 17  1  0  0  0  0
 16 25  1  0  0  0  0
 17 19  1  0  0  0  0
 19  5  1  1  0  0  0
 19 21  1  0  0  0  0
 21 14  1  1  0  0  0
 23 14  1  1  0  0  0
 23 16  1  0  0  0  0
 23 29  1  0  0  0  0
 25 26  1  1  0  0  0
 25 27  1  0  0  0  0
 26  8  1  0  0  0  0
 27 18  1  1  0  0  0
 27 28  1  0  0  0  0
 28 20  1  1  0  0  0
 28 29  1  0  0  0  0
 29 11  1  6  0  0  0
 30 22  1  1  0  0  0
 30 31  1  0  0  0  0
 31 24  1  1  0  0  0
M  END
>  <CHROM.1>
-179.81951715,-172.41238794,-120.48916779,88.16122849,66.02218074,64.51633068
12.58538856,17.78499739,35.05664350,-0.37556646,0.74731385,0.89126686

>  <Name>
2fcz_lig

>  <RI>
2.76032e+07

>  <Rbt.Current_Directory>
/home/itssahil/PROJECTS/Mol_Feturizer/New_Systems/rnas/2fcz

>  <Rbt.Executable>
rbdock ($Id: //depot/dev/client3/rdock/2013.1/src/exe/rbdock.cxx#4 $)

>  <Rbt.Library>
libRbt.so (2013.1, Build901 2013/11/27)

>  <Rbt.Parameter_File>
/export/apps/rDock/src/rDock_2013.1_src/data/scripts/dock_solv.prm

>  <Rbt.Receptor>
prm/pocket_docking_8.prm

>  <SCORE>
-11.0046

>  <SCORE.INTER>
-11.2774

>  <SCORE.INTER.CONST>
1

>  <SCORE.INTER.POLAR>
-1.73889

>  <SCORE.INTER.ROT>
6

>  <SCORE.INTER.SOLV>
13.663

>  <SCORE.INTER.VDW>
-13.8763

>  <SCORE.INTER.norm>
-0.363786

>  <SCORE.INTRA>
0.272721

>  <SCORE.INTRA.DIHEDRAL>
0.213986

>  <SCORE.INTRA.DIHEDRAL.0>
10.8409

>  <SCORE.INTRA.POLAR>
0

>  <SCORE.INTRA.POLAR.0>
0

>  <SCORE.INTRA.REPUL>
0

>  <SCORE.INTRA.REPUL.0>
0

>  <SCORE.INTRA.SOLV>
-0.558949

>  <SCORE.INTRA.SOLV.lig_0>
-80.8302

>  <SCORE.INTRA.VDW>
0.445203

>  <SCORE.INTRA.VDW.0>
-4.23953

>  <SCORE.INTRA.norm>
0.00879746

>  <SCORE.RESTR>
0

>  <SCORE.RESTR.CAVITY>
0

>  <SCORE.RESTR.norm>
0

>  <SCORE.SYSTEM>
0

>  <SCORE.SYSTEM.CONST>
0

>  <SCORE.SYSTEM.DIHEDRAL>
0

>  <SCORE.SYSTEM.SOLV>
0

>  <SCORE.SYSTEM.norm>
0

>  <SCORE.heavy>
31

>  <SCORE.norm>
-0.354989

>  <RMSD>
7.565

$$$$
2fcz_lig
 OpenBabel11021811433D
libRbt.so/2013.1/901 2013/11/27
 31 33  0  0  0  0  0  0  0  0999 V2000
    9.0747   22.0972   31.5954 C   0  0  0  0  0  0  0  0  0  0  0  0
    6.8861   20.7690   33.5377 N   0  0  0  0  0  0  0  0  0  0  0  0
   10.1193   22.0207   32.5692 O   0  0  0  0  0  0  0  0  0  0  0  0
    9.6541   21.8504   30.1983 C   0  0  1  0  0  0  0  0  0  0  0  0
   11.3257   18.7116   33.6043 N   0  0  0  0  0  0  0  0  0  0  0  0
   10.0255   20.4695   30.0115 O   0  0  0  0  0  0  0  0  0  0  0  0
    9.0977   19.8380   29.1070 C   0  0  1  0  0  0  0  0  0  0  0  0
   13.6167   13.0000   31.4043 N   0  0  0  0  0  0  0  0  0  0  0  0
    8.6678   18.5458   29.5681 O   0  0  0  0  0  0  0  0  0  0  0  0
    8.5422   18.4397   30.9963 C   0  0  2  0  0  0  0  0  0  0  0  0
    8.8904   16.9970   33.5185 N   0  0  0  0  0  0  0  0  0  0  0  0
    6.3979   19.5599   31.0241 O   0  0  0  0  0  0  0  0  0  0  0  0
    7.7363   19.6345   31.5211 C   0  0  1  0  0  0  0  0  0  0  0  0
   10.6186   17.1656   31.3556 O   0  0  0  0  0  0  0  0  0  0  0  0
    7.6967   19.6442   33.0510 C   0  0  1  0  0  0  0  0  0  0  0  0
   10.4487   14.8562   30.8969 O   0  0  0  0  0  0  0  0  0  0  0  0
    9.1157   19.7546   33.6131 C   0  0  0  0  0  0  0  0  0  0  0  0
   12.5601   13.8172   33.7307 O   0  0  0  0  0  0  0  0  0  0  0  0
    9.9367   18.5512   33.1457 C   0  0  1  0  0  0  0  0  0  0  0  0
   10.3352   15.0617   35.0553 O   0  0  0  0  0  0  0  0  0  0  0  0
    9.9358   18.4011   31.6205 C   0  0  2  0  0  0  0  0  0  0  0  0
    7.1110   20.6491   27.8782 O   0  0  0  0  0  0  0  0  0  0  0  0
    9.7792   16.0054   31.4483 C   0  0  1  0  0  0  0  0  0  0  0  0
    9.2311   22.4531   27.8669 O   0  0  0  0  0  0  0  0  0  0  0  0
   11.6641   14.4926   31.5741 C   0  0  2  0  0  0  0  0  0  0  0  0
   12.2792   13.2840   30.8643 C   0  0  0  0  0  0  0  0  0  0  0  0
   11.3545   14.1502   33.0358 C   0  0  2  0  0  0  0  0  0  0  0  0
   10.6999   15.3612   33.7040 C   0  0  1  0  0  0  0  0  0  0  0  0
    9.4482   15.7733   32.9260 C   0  0  1  0  0  0  0  0  0  0  0  0
    7.9047   20.7940   29.0599 C   0  0  2  0  0  0  0  0  0  0  0  0
    8.6126   22.1464   29.1193 C   0  0  1  0  0  0  0  0  0  0  0  0
  3  1  1  0  0  0  0
  4  1  1  1  0  0  0
  4  6  1  0  0  0  0
  4 31  1  0  0  0  0
  6  7  1  0  0  0  0
  7  9  1  1  0  0  0
  7 30  1  0  0  0  0
 10  9  1  6  0  0  0
 10 13  1  0  0  0  0
 10 21  1  0  0  0  0
 13 12  1  6  0  0  0
 13 15  1  0  0  0  0
 15  2  1  6  0  0  0
 15 17  1  0  0  0  0
 16 25  1  0  0  0  0
 17 19  1  0  0  0  0
 19  5  1  6  0  0  0
 19 21  1  0  0  0  0
 21 14  1  1  0  0  0
 23 14  1  1  0  0  0
 23 16  1  0  0  0  0
 23 29  1  0  0  0  0
 25 26  1  6  0  0  0
 25 27  1  0  0  0  0
 26  8  1  0  0  0  0
 27 18  1  1  0  0  0
 27 28  1  0  0  0  0
 28 20  1  1  0  0  0
 28 29  1  0  0  0  0
 29 11  1  1  0  0  0
 30 22  1  6  0  0  0
 30 31  1  0  0  0  0
 31 24  1  6  0  0  0
M  END
>  <CHROM.1>
71.65843703,34.53652021,48.70976321,-40.70353157,167.66143408,171.91773819
9.64022006,18.21414914,31.54519267,2.59419372,1.08822410,-1.32975909

>  <Name>
2fcz_lig

>  <RI>
0

>  <Rbt.Current_Directory>
/home/itssahil/PROJECTS/Mol_Feturizer/New_Systems/rnas/2fcz

>  <Rbt.Executable>
rbdock ($Id: //depot/dev/client3/rdock/2013.1/src/exe/rbdock.cxx#4 $)

>  <Rbt.Library>
libRbt.so (2013.1, Build901 2013/11/27)

>  <Rbt.Parameter_File>
/export/apps/rDock/src/rDock_2013.1_src/data/scripts/dock_solv.prm

>  <Rbt.Receptor>
prm/blind_docking_40.prm

>  <SCORE>
28.051

>  <SCORE.INTER>
-9.9517

>  <SCORE.INTER.CONST>
1

>  <SCORE.INTER.POLAR>
-0.952141

>  <SCORE.INTER.ROT>
6

>  <SCORE.INTER.SOLV>
17.7969

>  <SCORE.INTER.VDW>
-16.993

>  <SCORE.INTER.norm>
-0.321023

>  <SCORE.INTRA>
29.0934

>  <SCORE.INTRA.DIHEDRAL>
-4.2732

>  <SCORE.INTRA.DIHEDRAL.0>
10.8409

>  <SCORE.INTRA.POLAR>
0

>  <SCORE.INTRA.POLAR.0>
0

>  <SCORE.INTRA.REPUL>
0

>  <SCORE.INTRA.REPUL.0>
0

>  <SCORE.INTRA.SOLV>
9.49229

>  <SCORE.INTRA.SOLV.lig_0>
-80.8302

>  <SCORE.INTRA.VDW>
26.4838

>  <SCORE.INTRA.VDW.0>
-4.23953

>  <SCORE.INTRA.norm>
0.938496

>  <SCORE.RESTR>
8.90932

>  <SCORE.RESTR.CAVITY>
8.90932

>  <SCORE.RESTR.norm>
0.287398

>  <SCORE.SYSTEM>
0

>  <SCORE.SYSTEM.CONST>
0

>  <SCORE.SYSTEM.DIHEDRAL>
0

>  <SCORE.SYSTEM.SOLV>
0

>  <SCORE.SYSTEM.norm>
0

>  <SCORE.heavy>
31

>  <SCORE.norm>
0.904871

>  <RMSD>
7.571

$$$$
2fcz_lig
 OpenBabel11021811433D
libRbt.so/2013.1/901 2013/11/27
 31 33  0  0  0  0  0  0  0  0999 V2000
   10.4304   19.6935   34.5982 C   0  0  0  0  0  0  0  0  0  0  0  0
    9.7658   17.9813   42.6329 N   0  0  0  0  0  0  0  0  0  0  0  0
   10.8679   20.5886   33.5721 O   0  0  0  0  0  0  0  0  0  0  0  0
   10.6818   20.3234   35.9725 C   0  0  1  0  0  0  0  0  0  0  0  0
    9.2384   13.7246   40.2772 N   0  0  0  0  0  0  0  0  0  0  0  0
   10.2212   19.4722   37.0415 O   0  0  0  0  0  0  0  0  0  0  0  0
   11.3538   18.9102   37.7336 C   0  0  1  0  0  0  0  0  0  0  0  0
   13.2744   12.7526   38.1956 N   0  0  0  0  0  0  0  0  0  0  0  0
   11.2047   17.5030   37.9879 O   0  0  0  0  0  0  0  0  0  0  0  0
   10.1540   17.1780   38.9139 C   0  0  2  0  0  0  0  0  0  0  0  0
    8.1819   15.5626   35.4069 N   0  0  0  0  0  0  0  0  0  0  0  0
   10.4594   19.2165   40.1809 O   0  0  0  0  0  0  0  0  0  0  0  0
   10.4810   17.7905   40.2815 C   0  0  1  0  0  0  0  0  0  0  0  0
    9.4670   15.0828   37.8176 O   0  0  0  0  0  0  0  0  0  0  0  0
    9.4647   17.3532   41.3391 C   0  0  1  0  0  0  0  0  0  0  0  0
   11.4784   14.4609   36.7498 O   0  0  0  0  0  0  0  0  0  0  0  0
    9.4866   15.8308   41.4916 C   0  0  0  0  0  0  0  0  0  0  0  0
   10.2451   11.1687   35.6505 O   0  0  0  0  0  0  0  0  0  0  0  0
    9.1189   15.1860   40.1537 C   0  0  1  0  0  0  0  0  0  0  0  0
    8.5094   12.9701   34.2380 O   0  0  0  0  0  0  0  0  0  0  0  0
   10.0226   15.6593   39.0100 C   0  0  2  0  0  0  0  0  0  0  0  0
   13.7993   19.1396   37.4468 O   0  0  0  0  0  0  0  0  0  0  0  0
   10.2840   15.2588   36.6511 C   0  0  1  0  0  0  0  0  0  0  0  0
   12.4237   21.5447   37.1774 O   0  0  0  0  0  0  0  0  0  0  0  0
   11.2439   13.0444   36.8312 C   0  0  2  0  0  0  0  0  0  0  0  0
   12.5913   12.3303   36.9642 C   0  0  0  0  0  0  0  0  0  0  0  0
   10.5137   12.5718   35.5691 C   0  0  2  0  0  0  0  0  0  0  0  0
    9.1941   13.3358   35.4404 C   0  0  1  0  0  0  0  0  0  0  0  0
    9.4627   14.8423   35.4267 C   0  0  1  0  0  0  0  0  0  0  0  0
   12.5308   19.1428   36.7847 C   0  0  2  0  0  0  0  0  0  0  0  0
   12.1788   20.5157   36.2150 C   0  0  1  0  0  0  0  0  0  0  0  0
  3  1  1  0  0  0  0
  4  1  1  6  0  0  0
  4  6  1  0  0  0  0
  4 31  1  0  0  0  0
  6  7  1  0  0  0  0
  7  9  1  6  0  0  0
  7 30  1  0  0  0  0
 10  9  1  6  0  0  0
 10 13  1  0  0  0  0
 10 21  1  0  0  0  0
 13 12  1  6  0  0  0
 13 15  1  0  0  0  0
 15  2  1  1  0  0  0
 15 17  1  0  0  0  0
 16 25  1  0  0  0  0
 17 19  1  0  0  0  0
 19  5  1  1  0  0  0
 19 21  1  0  0  0  0
 21 14  1  6  0  0  0
 23 14  1  1  0  0  0
 23 16  1  0  0  0  0
 23 29  1  0  0  0  0
 25 26  1  6  0  0  0
 25 27  1  0  0  0  0
 26  8  1  0  0  0  0
 27 18  1  1  0  0  0
 27 28  1  0  0  0  0
 28 20  1  6  0  0  0
 28 29  1  0  0  0  0
 29 11  1  1  0  0  0
 30 22  1  1  0  0  0
 30 31  1  0  0  0  0
 31 24  1  1  0  0  0
M  END
>  <CHROM.1>
178.36451467,-66.52722858,-63.06177825,63.58079291,69.73494316,61.56085921
10.60737810,16.48407660,37.50456639,-0.62727712,-1.37427812,-2.10964492

>  <Name>
2fcz_lig

>  <RI>
1.32928e+07

>  <Rbt.Current_Directory>
/home/itssahil/PROJECTS/Mol_Feturizer/New_Systems/rnas/2fcz

>  <Rbt.Executable>
rbdock ($Id: //depot/dev/client3/rdock/2013.1/src/exe/rbdock.cxx#4 $)

>  <Rbt.Library>
libRbt.so (2013.1, Build901 2013/11/27)

>  <Rbt.Parameter_File>
/export/apps/rDock/src/rDock_2013.1_src/data/scripts/dock_solv.prm

>  <Rbt.Receptor>
prm/pocket_docking_7.prm

>  <SCORE>
-12.2257

>  <SCORE.INTER>
-8.23478

>  <SCORE.INTER.CONST>
1

>  <SCORE.INTER.POLAR>
-1.65229

>  <SCORE.INTER.ROT>
6

>  <SCORE.INTER.SOLV>
12.0383

>  <SCORE.INTER.VDW>
-11.595

>  <SCORE.INTER.norm>
-0.265638

>  <SCORE.INTRA>
-3.99091

>  <SCORE.INTRA.DIHEDRAL>
-9.89899

>  <SCORE.INTRA.DIHEDRAL.0>
10.8409

>  <SCORE.INTRA.POLAR>
0

>  <SCORE.INTRA.POLAR.0>
0

>  <SCORE.INTRA.REPUL>
0

>  <SCORE.INTRA.REPUL.0>
0

>  <SCORE.INTRA.SOLV>
-3.92578

>  <SCORE.INTRA.SOLV.lig_0>
-80.8302

>  <SCORE.INTRA.VDW>
2.92148

>  <SCORE.INTRA.VDW.0>
-4.23953

>  <SCORE.INTRA.norm>
-0.128739

>  <SCORE.RESTR>
0

>  <SCORE.RESTR.CAVITY>
0

>  <SCORE.RESTR.norm>
0

>  <SCORE.SYSTEM>
0

>  <SCORE.SYSTEM.CONST>
0

>  <SCORE.SYSTEM.DIHEDRAL>
0

>  <SCORE.SYSTEM.SOLV>
0

>  <SCORE.SYSTEM.norm>
0

>  <SCORE.heavy>
31

>  <SCORE.norm>
-0.394377

>  <RMSD>
7.581

$$$$
2fcz_lig
 OpenBabel11021811433D
libRbt.so/2013.1/901 2013/11/27
 31 33  0  0  0  0  0  0  0  0999 V2000
   11.1465   22.8885   31.1890 C   0  0  0  0  0  0  0  0  0  0  0  0
   15.5254   17.4676   35.8062 N   0  0  0  0  0  0  0  0  0  0  0  0
   11.4968   22.1434   30.0195 O   0  0  0  0  0  0  0  0  0  0  0  0
   10.8381   21.9251   32.3401 C   0  0  1  0  0  0  0  0  0  0  0  0
   18.3634   20.1205   32.8305 N   0  0  0  0  0  0  0  0  0  0  0  0
   11.9888   21.1309   32.6935 O   0  0  0  0  0  0  0  0  0  0  0  0
   12.5062   21.5696   33.9653 C   0  0  1  0  0  0  0  0  0  0  0  0
   18.2864   24.4138   34.4640 N   0  0  0  0  0  0  0  0  0  0  0  0
   13.9376   21.7054   33.9635 O   0  0  0  0  0  0  0  0  0  0  0  0
   14.6455   20.4959   33.6425 C   0  0  2  0  0  0  0  0  0  0  0  0
   14.7118   22.1509   29.5758 N   0  0  0  0  0  0  0  0  0  0  0  0
   13.3453   19.1668   35.1906 O   0  0  0  0  0  0  0  0  0  0  0  0
   14.6755   19.5871   34.8775 C   0  0  1  0  0  0  0  0  0  0  0  0
   16.0762   21.4769   31.8947 O   0  0  0  0  0  0  0  0  0  0  0  0
   15.5408   18.3490   34.6306 C   0  0  1  0  0  0  0  0  0  0  0  0
   16.1383   23.7153   32.6419 O   0  0  0  0  0  0  0  0  0  0  0  0
   16.9804   18.7666   34.3226 C   0  0  0  0  0  0  0  0  0  0  0  0
   18.7494   24.7669   30.2662 O   0  0  0  0  0  0  0  0  0  0  0  0
   16.9929   19.6392   33.0659 C   0  0  1  0  0  0  0  0  0  0  0  0
   16.5971   24.0252   28.5140 O   0  0  0  0  0  0  0  0  0  0  0  0
   16.0598   20.8490   33.1863 C   0  0  2  0  0  0  0  0  0  0  0  0
   11.8105   23.3231   35.5640 O   0  0  0  0  0  0  0  0  0  0  0  0
   15.4137   22.7493   31.8579 C   0  0  1  0  0  0  0  0  0  0  0  0
    9.6756   21.8950   34.4907 O   0  0  0  0  0  0  0  0  0  0  0  0
   17.4746   23.9767   32.1794 C   0  0  2  0  0  0  0  0  0  0  0  0
   18.1307   24.9900   33.1205 C   0  0  0  0  0  0  0  0  0  0  0  0
   17.4241   24.5320   30.7516 C   0  0  2  0  0  0  0  0  0  0  0  0
   16.7230   23.5171   29.8461 C   0  0  1  0  0  0  0  0  0  0  0  0
   15.3304   23.2013   30.3964 C   0  0  1  0  0  0  0  0  0  0  0  0
   11.8568   22.9365   34.1871 C   0  0  2  0  0  0  0  0  0  0  0  0
   10.4647   22.6954   33.6066 C   0  0  1  0  0  0  0  0  0  0  0  0
  3  1  1  0  0  0  0
  4  1  1  6  0  0  0
  4  6  1  0  0  0  0
  4 31  1  0  0  0  0
  6  7  1  0  0  0  0
  7  9  1  6  0  0  0
  7 30  1  0  0  0  0
 10  9  1  1  0  0  0
 10 13  1  0  0  0  0
 10 21  1  0  0  0  0
 13 12  1  6  0  0  0
 13 15  1  0  0  0  0
 15  2  1  1  0  0  0
 15 17  1  0  0  0  0
 16 25  1  0  0  0  0
 17 19  1  0  0  0  0
 19  5  1  1  0  0  0
 19 21  1  0  0  0  0
 21 14  1  6  0  0  0
 23 14  1  6  0  0  0
 23 16  1  0  0  0  0
 23 29  1  0  0  0  0
 25 26  1  1  0  0  0
 25 27  1  0  0  0  0
 26  8  1  0  0  0  0
 27 18  1  6  0  0  0
 27 28  1  0  0  0  0
 28 20  1  6  0  0  0
 28 29  1  0  0  0  0
 29 11  1  6  0  0  0
 30 22  1  1  0  0  0
 30 31  1  0  0  0  0
 31 24  1  1  0  0  0
M  END
>  <CHROM.1>
62.34103379,-58.90293773,-78.45191911,64.12379229,67.20147028,64.77918966
14.76923692,21.96140914,32.73432432,2.54799209,-0.07307680,2.39988954

>  <Name>
2fcz_lig

>  <RI>
2.6968e+07

>  <Rbt.Current_Directory>
/home/itssahil/PROJECTS/Mol_Feturizer/New_Systems/rnas/2fcz

>  <Rbt.Executable>
rbdock ($Id: //depot/dev/client3/rdock/2013.1/src/exe/rbdock.cxx#4 $)

>  <Rbt.Library>
libRbt.so (2013.1, Build901 2013/11/27)

>  <Rbt.Parameter_File>
/export/apps/rDock/src/rDock_2013.1_src/data/scripts/dock_solv.prm

>  <Rbt.Receptor>
prm/blind_docking_60.prm

>  <SCORE>
-17.9237

>  <SCORE.INTER>
-13.4563

>  <SCORE.INTER.CONST>
1

>  <SCORE.INTER.POLAR>
-0.715187

>  <SCORE.INTER.ROT>
6

>  <SCORE.INTER.SOLV>
16.7255

>  <SCORE.INTER.VDW>
-19.7621

>  <SCORE.INTER.norm>
-0.434074

>  <SCORE.INTRA>
-4.46746

>  <SCORE.INTRA.DIHEDRAL>
-8.69188

>  <SCORE.INTRA.DIHEDRAL.0>
10.8409

>  <SCORE.INTRA.POLAR>
0

>  <SCORE.INTRA.POLAR.0>
0

>  <SCORE.INTRA.REPUL>
0

>  <SCORE.INTRA.REPUL.0>
0

>  <SCORE.INTRA.SOLV>
-2.68224

>  <SCORE.INTRA.SOLV.lig_0>
-80.8302

>  <SCORE.INTRA.VDW>
1.2196

>  <SCORE.INTRA.VDW.0>
-4.23953

>  <SCORE.INTRA.norm>
-0.144111

>  <SCORE.RESTR>
0

>  <SCORE.RESTR.CAVITY>
0

>  <SCORE.RESTR.norm>
0

>  <SCORE.SYSTEM>
0

>  <SCORE.SYSTEM.CONST>
0

>  <SCORE.SYSTEM.DIHEDRAL>
0

>  <SCORE.SYSTEM.SOLV>
0

>  <SCORE.SYSTEM.norm>
0

>  <SCORE.heavy>
31

>  <SCORE.norm>
-0.578185

>  <RMSD>
7.592

$$$$
2fcz_lig
 OpenBabel11021811433D
libRbt.so/2013.1/901 2013/11/27
 31 33  0  0  0  0  0  0  0  0999 V2000
    8.7045   19.2804   34.9641 C   0  0  0  0  0  0  0  0  0  0  0  0
   12.4839   16.8919   42.4196 N   0  0  0  0  0  0  0  0  0  0  0  0
    8.2731   17.9395   35.2116 O   0  0  0  0  0  0  0  0  0  0  0  0
   10.0285   19.5379   35.6916 C   0  0  1  0  0  0  0  0  0  0  0  0
    7.6336   16.2424   42.4219 N   0  0  0  0  0  0  0  0  0  0  0  0
    9.9261   19.2536   37.1017 O   0  0  0  0  0  0  0  0  0  0  0  0
   10.6589   18.0502   37.4062 C   0  0  1  0  0  0  0  0  0  0  0  0
    6.8601   13.1212   39.6376 N   0  0  0  0  0  0  0  0  0  0  0  0
    9.9269   17.1587   38.2644 O   0  0  0  0  0  0  0  0  0  0  0  0
    9.9268   17.5402   39.6505 C   0  0  2  0  0  0  0  0  0  0  0  0
    6.0176   19.4068   38.4795 N   0  0  0  0  0  0  0  0  0  0  0  0
   12.3352   17.7584   39.7278 O   0  0  0  0  0  0  0  0  0  0  0  0
   11.2285   17.0609   40.3048 C   0  0  1  0  0  0  0  0  0  0  0  0
    7.4800   17.5475   39.9279 O   0  0  0  0  0  0  0  0  0  0  0  0
   11.2144   17.3166   41.8137 C   0  0  1  0  0  0  0  0  0  0  0  0
    6.7968   15.7635   38.5410 O   0  0  0  0  0  0  0  0  0  0  0  0
   10.0568   16.5567   42.4650 C   0  0  0  0  0  0  0  0  0  0  0  0
    3.3858   15.5828   39.9196 O   0  0  0  0  0  0  0  0  0  0  0  0
    8.7356   17.0442   41.8668 C   0  0  1  0  0  0  0  0  0  0  0  0
    3.4323   18.2091   38.7562 O   0  0  0  0  0  0  0  0  0  0  0  0
    8.7087   16.9276   40.3389 C   0  0  2  0  0  0  0  0  0  0  0  0
   11.9936   16.4857   36.0330 O   0  0  0  0  0  0  0  0  0  0  0  0
    7.0553   17.1784   38.6078 C   0  0  1  0  0  0  0  0  0  0  0  0
   12.4262   19.1611   35.3969 O   0  0  0  0  0  0  0  0  0  0  0  0
    5.7473   15.3076   39.4119 C   0  0  2  0  0  0  0  0  0  0  0  0
    5.6070   13.7909   39.2599 C   0  0  0  0  0  0  0  0  0  0  0  0
    4.4331   16.0033   39.0399 C   0  0  2  0  0  0  0  0  0  0  0  0
    4.6193   17.5175   39.1577 C   0  0  1  0  0  0  0  0  0  0  0  0
    5.7860   17.9698   38.2767 C   0  0  1  0  0  0  0  0  0  0  0  0
   10.8845   17.3898   36.0452 C   0  0  2  0  0  0  0  0  0  0  0  0
   11.1258   18.6137   35.1637 C   0  0  1  0  0  0  0  0  0  0  0  0
  3  1  1  0  0  0  0
  4  1  1  6  0  0  0
  4  6  1  0  0  0  0
  4 31  1  0  0  0  0
  6  7  1  0  0  0  0
  7  9  1  1  0  0  0
  7 30  1  0  0  0  0
 10  9  1  6  0  0  0
 10 13  1  0  0  0  0
 10 21  1  0  0  0  0
 13 12  1  6  0  0  0
 13 15  1  0  0  0  0
 15  2  1  1  0  0  0
 15 17  1  0  0  0  0
 16 25  1  0  0  0  0
 17 19  1  0  0  0  0
 19  5  1  1  0  0  0
 19 21  1  0  0  0  0
 21 14  1  6  0  0  0
 23 14  1  1  0  0  0
 23 16  1  0  0  0  0
 23 29  1  0  0  0  0
 25 26  1  6  0  0  0
 25 27  1  0  0  0  0
 26  8  1  0  0  0  0
 27 18  1  1  0  0  0
 27 28  1  0  0  0  0
 28 20  1  6  0  0  0
 28 29  1  0  0  0  0
 29 11  1  1  0  0  0
 30 22  1  1  0  0  0
 30 31  1  0  0  0  0
 31 24  1  1  0  0  0
M  END
>  <CHROM.1>
-55.18327886,-77.91679617,-82.08413866,74.24986040,62.27438616,60.76953887
8.50153175,17.21985765,38.71206966,0.47319234,-0.15378106,-1.18978131

>  <Name>
2fcz_lig

>  <RI>
1.32928e+07

>  <Rbt.Current_Directory>
/home/itssahil/PROJECTS/Mol_Feturizer/New_Systems/rnas/2fcz

>  <Rbt.Executable>
rbdock ($Id: //depot/dev/client3/rdock/2013.1/src/exe/rbdock.cxx#4 $)

>  <Rbt.Library>
libRbt.so (2013.1, Build901 2013/11/27)

>  <Rbt.Parameter_File>
/export/apps/rDock/src/rDock_2013.1_src/data/scripts/dock_solv.prm

>  <Rbt.Receptor>
prm/pocket_docking_7.prm

>  <SCORE>
-13.2289

>  <SCORE.INTER>
-10.0066

>  <SCORE.INTER.CONST>
1

>  <SCORE.INTER.POLAR>
-1.96914

>  <SCORE.INTER.ROT>
6

>  <SCORE.INTER.SOLV>
18.8593

>  <SCORE.INTER.VDW>
-13.9937

>  <SCORE.INTER.norm>
-0.322794

>  <SCORE.INTRA>
-3.2223

>  <SCORE.INTRA.DIHEDRAL>
-6.04069

>  <SCORE.INTRA.DIHEDRAL.0>
10.8409

>  <SCORE.INTRA.POLAR>
0

>  <SCORE.INTRA.POLAR.0>
0

>  <SCORE.INTRA.REPUL>
0

>  <SCORE.INTRA.REPUL.0>
0

>  <SCORE.INTRA.SOLV>
-2.06038

>  <SCORE.INTRA.SOLV.lig_0>
-80.8302

>  <SCORE.INTRA.VDW>
0.82823

>  <SCORE.INTRA.VDW.0>
-4.23953

>  <SCORE.INTRA.norm>
-0.103945

>  <SCORE.RESTR>
0

>  <SCORE.RESTR.CAVITY>
0

>  <SCORE.RESTR.norm>
0

>  <SCORE.SYSTEM>
0

>  <SCORE.SYSTEM.CONST>
0

>  <SCORE.SYSTEM.DIHEDRAL>
0

>  <SCORE.SYSTEM.SOLV>
0

>  <SCORE.SYSTEM.norm>
0

>  <SCORE.heavy>
31

>  <SCORE.norm>
-0.426739

>  <RMSD>
7.621

$$$$
2fcz_lig
 OpenBabel11021811433D
libRbt.so/2013.1/901 2013/11/27
 31 33  0  0  0  0  0  0  0  0999 V2000
   11.3594   22.5594   30.9799 C   0  0  0  0  0  0  0  0  0  0  0  0
   15.6989   17.7381   36.0504 N   0  0  0  0  0  0  0  0  0  0  0  0
   10.2033   23.2182   30.4559 O   0  0  0  0  0  0  0  0  0  0  0  0
   10.9858   21.8042   32.2599 C   0  0  1  0  0  0  0  0  0  0  0  0
   18.4132   20.2787   32.8683 N   0  0  0  0  0  0  0  0  0  0  0  0
   12.1104   21.0803   32.7995 O   0  0  0  0  0  0  0  0  0  0  0  0
   12.5682   21.7270   34.0036 C   0  0  1  0  0  0  0  0  0  0  0  0
   18.3368   24.4494   34.5074 N   0  0  0  0  0  0  0  0  0  0  0  0
   13.9990   21.8598   34.0510 O   0  0  0  0  0  0  0  0  0  0  0  0
   14.7148   20.6453   33.7686 C   0  0  2  0  0  0  0  0  0  0  0  0
   14.7801   22.2664   29.5896 N   0  0  0  0  0  0  0  0  0  0  0  0
   13.4782   19.3768   35.4165 O   0  0  0  0  0  0  0  0  0  0  0  0
   14.7928   19.7984   35.0449 C   0  0  1  0  0  0  0  0  0  0  0  0
   16.0812   21.5580   31.9345 O   0  0  0  0  0  0  0  0  0  0  0  0
   15.6684   18.5611   34.8334 C   0  0  1  0  0  0  0  0  0  0  0  0
   16.2480   23.8010   32.6513 O   0  0  0  0  0  0  0  0  0  0  0  0
   17.0926   18.9816   34.4639 C   0  0  0  0  0  0  0  0  0  0  0  0
   18.9369   24.6846   30.2941 O   0  0  0  0  0  0  0  0  0  0  0  0
   17.0569   19.7918   33.1665 C   0  0  1  0  0  0  0  0  0  0  0  0
   16.7705   24.0274   28.5255 O   0  0  0  0  0  0  0  0  0  0  0  0
   16.1104   20.9939   33.2550 C   0  0  2  0  0  0  0  0  0  0  0  0
   11.8101   23.7256   35.2469 O   0  0  0  0  0  0  0  0  0  0  0  0
   15.4846   22.8616   31.8718 C   0  0  1  0  0  0  0  0  0  0  0  0
    9.7181   22.1380   34.3236 O   0  0  0  0  0  0  0  0  0  0  0  0
   17.6012   23.9877   32.2019 C   0  0  2  0  0  0  0  0  0  0  0  0
   18.2968   24.9801   33.1370 C   0  0  0  0  0  0  0  0  0  0  0  0
   17.5957   24.5241   30.7661 C   0  0  2  0  0  0  0  0  0  0  0  0
   16.8548   23.5329   29.8660 C   0  0  1  0  0  0  0  0  0  0  0  0
   15.4415   23.2959   30.4033 C   0  0  1  0  0  0  0  0  0  0  0  0
   11.9210   23.1121   33.9590 C   0  0  2  0  0  0  0  0  0  0  0  0
   10.5571   22.7773   33.3581 C   0  0  1  0  0  0  0  0  0  0  0  0
  3  1  1  0  0  0  0
  4  1  1  6  0  0  0
  4  6  1  0  0  0  0
  4 31  1  0  0  0  0
  6  7  1  0  0  0  0
  7  9  1  6  0  0  0
  7 30  1  0  0  0  0
 10  9  1  1  0  0  0
 10 13  1  0  0  0  0
 10 21  1  0  0  0  0
 13 12  1  6  0  0  0
 13 15  1  0  0  0  0
 15  2  1  1  0  0  0
 15 17  1  0  0  0  0
 16 25  1  0  0  0  0
 17 19  1  0  0  0  0
 19  5  1  1  0  0  0
 19 21  1  0  0  0  0
 21 14  1  6  0  0  0
 23 14  1  6  0  0  0
 23 16  1  0  0  0  0
 23 29  1  0  0  0  0
 25 26  1  1  0  0  0
 25 27  1  0  0  0  0
 26  8  1  0  0  0  0
 27 18  1  6  0  0  0
 27 28  1  0  0  0  0
 28 20  1  6  0  0  0
 28 29  1  0  0  0  0
 29 11  1  6  0  0  0
 30 22  1  1  0  0  0
 30 31  1  0  0  0  0
 31 24  1  1  0  0  0
M  END
>  <CHROM.1>
177.81028393,-49.79081382,-82.80492442,68.34479564,62.64643427,61.46962522
14.82064470,22.09405980,32.76683804,2.67514036,-0.05604334,2.36690177

>  <Name>
2fcz_lig

>  <RI>
0

>  <Rbt.Current_Directory>
/home/itssahil/PROJECTS/Mol_Feturizer/New_Systems/rnas/2fcz

>  <Rbt.Executable>
rbdock ($Id: //depot/dev/client3/rdock/2013.1/src/exe/rbdock.cxx#4 $)

>  <Rbt.Library>
libRbt.so (2013.1, Build901 2013/11/27)

>  <Rbt.Parameter_File>
/export/apps/rDock/src/rDock_2013.1_src/data/scripts/dock_solv.prm

>  <Rbt.Receptor>
prm/blind_docking_80.prm

>  <SCORE>
-18.1049

>  <SCORE.INTER>
-13.9034

>  <SCORE.INTER.CONST>
1

>  <SCORE.INTER.POLAR>
-0.786125

>  <SCORE.INTER.ROT>
6

>  <SCORE.INTER.SOLV>
16.5864

>  <SCORE.INTER.VDW>
-19.7774

>  <SCORE.INTER.norm>
-0.448498

>  <SCORE.INTRA>
-4.20141

>  <SCORE.INTRA.DIHEDRAL>
-7.53216

>  <SCORE.INTRA.DIHEDRAL.0>
10.8409

>  <SCORE.INTRA.POLAR>
0

>  <SCORE.INTRA.POLAR.0>
0

>  <SCORE.INTRA.REPUL>
0

>  <SCORE.INTRA.REPUL.0>
0

>  <SCORE.INTRA.SOLV>
-3.12283

>  <SCORE.INTRA.SOLV.lig_0>
-80.8302

>  <SCORE.INTRA.VDW>
1.12608

>  <SCORE.INTRA.VDW.0>
-4.23953

>  <SCORE.INTRA.norm>
-0.135529

>  <SCORE.RESTR>
0

>  <SCORE.RESTR.CAVITY>
0

>  <SCORE.RESTR.norm>
0

>  <SCORE.SYSTEM>
0

>  <SCORE.SYSTEM.CONST>
0

>  <SCORE.SYSTEM.DIHEDRAL>
0

>  <SCORE.SYSTEM.SOLV>
0

>  <SCORE.SYSTEM.norm>
0

>  <SCORE.heavy>
31

>  <SCORE.norm>
-0.584028

>  <RMSD>
7.678

$$$$
2fcz_lig
 OpenBabel11021811433D
libRbt.so/2013.1/901 2013/11/27
 31 33  0  0  0  0  0  0  0  0999 V2000
    7.8153   20.3549   32.5862 C   0  0  0  0  0  0  0  0  0  0  0  0
   14.0423   19.2652   34.0485 N   0  0  0  0  0  0  0  0  0  0  0  0
    6.8110   21.1471   31.9465 O   0  0  0  0  0  0  0  0  0  0  0  0
    8.8681   19.9292   31.5572 C   0  0  1  0  0  0  0  0  0  0  0  0
   14.2382   15.2154   31.3085 N   0  0  0  0  0  0  0  0  0  0  0  0
    9.9229   19.1545   32.1629 O   0  0  0  0  0  0  0  0  0  0  0  0
    9.8053   17.7769   31.7554 C   0  0  1  0  0  0  0  0  0  0  0  0
   14.0733   11.7833   35.8074 N   0  0  0  0  0  0  0  0  0  0  0  0
    9.9608   16.8600   32.8519 O   0  0  0  0  0  0  0  0  0  0  0  0
   11.3191   16.6889   33.2910 C   0  0  2  0  0  0  0  0  0  0  0  0
   11.6521   12.4831   30.3195 N   0  0  0  0  0  0  0  0  0  0  0  0
   11.3066   18.7463   34.5640 O   0  0  0  0  0  0  0  0  0  0  0  0
   11.9614   18.0674   33.4896 C   0  0  1  0  0  0  0  0  0  0  0  0
   11.6720   14.4962   32.2274 O   0  0  0  0  0  0  0  0  0  0  0  0
   13.4506   17.9399   33.8189 C   0  0  1  0  0  0  0  0  0  0  0  0
   13.2401   13.3570   33.5750 O   0  0  0  0  0  0  0  0  0  0  0  0
   14.1851   17.2431   32.6714 C   0  0  0  0  0  0  0  0  0  0  0  0
   10.8284   10.8720   34.8304 O   0  0  0  0  0  0  0  0  0  0  0  0
   13.5988   15.8436   32.4754 C   0  0  1  0  0  0  0  0  0  0  0  0
   10.8649   10.3133   32.0127 O   0  0  0  0  0  0  0  0  0  0  0  0
   12.0831   15.8722   32.2506 C   0  0  2  0  0  0  0  0  0  0  0  0
    8.2254   16.5749   30.2809 O   0  0  0  0  0  0  0  0  0  0  0  0
   12.7623   13.5632   32.2325 C   0  0  1  0  0  0  0  0  0  0  0  0
    9.0067   19.0520   29.2794 O   0  0  0  0  0  0  0  0  0  0  0  0
   12.2671   12.7991   34.4749 C   0  0  2  0  0  0  0  0  0  0  0  0
   12.8999   12.6674   35.8624 C   0  0  0  0  0  0  0  0  0  0  0  0
   11.8210   11.4256   33.9611 C   0  0  2  0  0  0  0  0  0  0  0  0
   11.2356   11.5843   32.5563 C   0  0  1  0  0  0  0  0  0  0  0  0
   12.2636   12.2440   31.6342 C   0  0  1  0  0  0  0  0  0  0  0  0
    8.3890   17.6696   31.1878 C   0  0  2  0  0  0  0  0  0  0  0  0
    8.2504   19.0227   30.4927 C   0  0  1  0  0  0  0  0  0  0  0  0
  3  1  1  0  0  0  0
  4  1  1  1  0  0  0
  4  6  1  0  0  0  0
  4 31  1  0  0  0  0
  6  7  1  0  0  0  0
  7  9  1  1  0  0  0
  7 30  1  0  0  0  0
 10  9  1  6  0  0  0
 10 13  1  0  0  0  0
 10 21  1  0  0  0  0
 13 12  1  1  0  0  0
 13 15  1  0  0  0  0
 15  2  1  6  0  0  0
 15 17  1  0  0  0  0
 16 25  1  0  0  0  0
 17 19  1  0  0  0  0
 19  5  1  6  0  0  0
 19 21  1  0  0  0  0
 21 14  1  1  0  0  0
 23 14  1  1  0  0  0
 23 16  1  0  0  0  0
 23 29  1  0  0  0  0
 25 26  1  1  0  0  0
 25 27  1  0  0  0  0
 26  8  1  0  0  0  0
 27 18  1  1  0  0  0
 27 28  1  0  0  0  0
 28 20  1  6  0  0  0
 28 29  1  0  0  0  0
 29 11  1  6  0  0  0
 30 22  1  6  0  0  0
 30 31  1  0  0  0  0
 31 24  1  6  0  0  0
M  END
>  <CHROM.1>
178.53091336,-75.69155895,49.08303944,-132.48989930,82.33876654,-60.16680342
11.20275172,15.82025609,32.62164342,2.08724405,-0.57854654,0.05378225

>  <Name>
2fcz_lig

>  <RI>
0

>  <Rbt.Current_Directory>
/home/itssahil/PROJECTS/Mol_Feturizer/New_Systems/rnas/2fcz

>  <Rbt.Executable>
rbdock ($Id: //depot/dev/client3/rdock/2013.1/src/exe/rbdock.cxx#4 $)

>  <Rbt.Library>
libRbt.so (2013.1, Build901 2013/11/27)

>  <Rbt.Parameter_File>
/export/apps/rDock/src/rDock_2013.1_src/data/scripts/dock_solv.prm

>  <Rbt.Receptor>
prm/blind_docking_40.prm

>  <SCORE>
16.6152

>  <SCORE.INTER>
-9.64994

>  <SCORE.INTER.CONST>
1

>  <SCORE.INTER.POLAR>
-0.413551

>  <SCORE.INTER.ROT>
6

>  <SCORE.INTER.SOLV>
19.1834

>  <SCORE.INTER.VDW>
-19.0493

>  <SCORE.INTER.norm>
-0.311288

>  <SCORE.INTRA>
16.2695

>  <SCORE.INTRA.DIHEDRAL>
-0.45458

>  <SCORE.INTRA.DIHEDRAL.0>
10.8409

>  <SCORE.INTRA.POLAR>
0

>  <SCORE.INTRA.POLAR.0>
0

>  <SCORE.INTRA.REPUL>
0

>  <SCORE.INTRA.REPUL.0>
0

>  <SCORE.INTRA.SOLV>
0.262056

>  <SCORE.INTRA.SOLV.lig_0>
-80.8302

>  <SCORE.INTRA.VDW>
16.3657

>  <SCORE.INTRA.VDW.0>
-4.23953

>  <SCORE.INTRA.norm>
0.524821

>  <SCORE.RESTR>
9.99567

>  <SCORE.RESTR.CAVITY>
9.99567

>  <SCORE.RESTR.norm>
0.322441

>  <SCORE.SYSTEM>
0

>  <SCORE.SYSTEM.CONST>
0

>  <SCORE.SYSTEM.DIHEDRAL>
0

>  <SCORE.SYSTEM.SOLV>
0

>  <SCORE.SYSTEM.norm>
0

>  <SCORE.heavy>
31

>  <SCORE.norm>
0.535974

>  <RMSD>
7.706

$$$$
2fcz_lig
 OpenBabel11021811433D
libRbt.so/2013.1/901 2013/11/27
 31 33  0  0  0  0  0  0  0  0999 V2000
   13.4743   16.0155   33.0494 C   0  0  0  0  0  0  0  0  0  0  0  0
    6.6954   12.4812   37.3542 N   0  0  0  0  0  0  0  0  0  0  0  0
   14.0792   16.5074   31.8504 O   0  0  0  0  0  0  0  0  0  0  0  0
   12.6772   14.7438   32.7397 C   0  0  1  0  0  0  0  0  0  0  0  0
   10.0134   15.3254   39.5563 N   0  0  0  0  0  0  0  0  0  0  0  0
   11.8914   14.3182   33.8716 O   0  0  0  0  0  0  0  0  0  0  0  0
   10.4953   14.5636   33.6099 C   0  0  1  0  0  0  0  0  0  0  0  0
    8.4733   19.3219   37.4766 N   0  0  0  0  0  0  0  0  0  0  0  0
    9.8202   15.1663   34.7271 O   0  0  0  0  0  0  0  0  0  0  0  0
    9.7108   14.3151   35.8806 C   0  0  2  0  0  0  0  0  0  0  0  0
   14.2036   16.0694   37.1626 N   0  0  0  0  0  0  0  0  0  0  0  0
    7.9819   12.9528   34.8760 O   0  0  0  0  0  0  0  0  0  0  0  0
    8.2705   13.7997   35.9912 C   0  0  1  0  0  0  0  0  0  0  0  0
   11.5174   15.3783   37.1726 O   0  0  0  0  0  0  0  0  0  0  0  0
    8.0667   13.0043   37.2828 C   0  0  1  0  0  0  0  0  0  0  0  0
   10.9273   17.2049   35.7985 O   0  0  0  0  0  0  0  0  0  0  0  0
    8.3390   13.8947   38.4971 C   0  0  0  0  0  0  0  0  0  0  0  0
   11.2770   19.7263   38.4609 O   0  0  0  0  0  0  0  0  0  0  0  0
    9.7853   14.3906   38.4429 C   0  0  1  0  0  0  0  0  0  0  0  0
   13.9560   18.7158   38.2257 O   0  0  0  0  0  0  0  0  0  0  0  0
   10.1082   15.1050   37.1260 C   0  0  2  0  0  0  0  0  0  0  0  0
    9.2742   15.5117   31.6799 O   0  0  0  0  0  0  0  0  0  0  0  0
   11.9702   16.2760   36.1486 C   0  0  1  0  0  0  0  0  0  0  0  0
   11.3243   13.7768   30.9475 O   0  0  0  0  0  0  0  0  0  0  0  0
   10.4989   18.0543   36.8770 C   0  0  2  0  0  0  0  0  0  0  0  0
    9.3727   18.9595   36.3716 C   0  0  0  0  0  0  0  0  0  0  0  0
   11.6811   18.8987   37.3659 C   0  0  2  0  0  0  0  0  0  0  0  0
   12.8059   17.9662   37.8208 C   0  0  1  0  0  0  0  0  0  0  0  0
   13.1969   17.0247   36.6794 C   0  0  1  0  0  0  0  0  0  0  0  0
   10.4965   15.5291   32.4236 C   0  0  2  0  0  0  0  0  0  0  0  0
   11.6749   14.9931   31.6128 C   0  0  1  0  0  0  0  0  0  0  0  0
  3  1  1  0  0  0  0
  4  1  1  1  0  0  0
  4  6  1  0  0  0  0
  4 31  1  0  0  0  0
  6  7  1  0  0  0  0
  7  9  1  1  0  0  0
  7 30  1  0  0  0  0
 10  9  1  6  0  0  0
 10 13  1  0  0  0  0
 10 21  1  0  0  0  0
 13 12  1  6  0  0  0
 13 15  1  0  0  0  0
 15  2  1  1  0  0  0
 15 17  1  0  0  0  0
 16 25  1  0  0  0  0
 17 19  1  0  0  0  0
 19  5  1  1  0  0  0
 19 21  1  0  0  0  0
 21 14  1  6  0  0  0
 23 14  1  1  0  0  0
 23 16  1  0  0  0  0
 23 29  1  0  0  0  0
 25 26  1  6  0  0  0
 25 27  1  0  0  0  0
 26  8  1  0  0  0  0
 27 18  1  1  0  0  0
 27 28  1  0  0  0  0
 28 20  1  6  0  0  0
 28 29  1  0  0  0  0
 29 11  1  1  0  0  0
 30 22  1  6  0  0  0
 30 31  1  0  0  0  0
 31 24  1  1  0  0  0
M  END
>  <CHROM.1>
-171.58998996,-66.83694720,-104.88407456,67.00192002,30.64432142,151.43899854
10.79416441,15.81750367,35.66914573,-1.55510319,0.70108332,1.07629868

>  <Name>
2fcz_lig

>  <RI>
0

>  <Rbt.Current_Directory>
/home/itssahil/PROJECTS/Mol_Feturizer/New_Systems/rnas/2fcz

>  <Rbt.Executable>
rbdock ($Id: //depot/dev/client3/rdock/2013.1/src/exe/rbdock.cxx#4 $)

>  <Rbt.Library>
libRbt.so (2013.1, Build901 2013/11/27)

>  <Rbt.Parameter_File>
/export/apps/rDock/src/rDock_2013.1_src/data/scripts/dock_solv.prm

>  <Rbt.Receptor>
prm/pocket_docking_6.prm

>  <SCORE>
-13.4071

>  <SCORE.INTER>
-14.7153

>  <SCORE.INTER.CONST>
1

>  <SCORE.INTER.POLAR>
-3.29573

>  <SCORE.INTER.ROT>
6

>  <SCORE.INTER.SOLV>
18.7491

>  <SCORE.INTER.VDW>
-12.6742

>  <SCORE.INTER.norm>
-0.474688

>  <SCORE.INTRA>
1.3082

>  <SCORE.INTRA.DIHEDRAL>
2.0648

>  <SCORE.INTRA.DIHEDRAL.0>
10.8409

>  <SCORE.INTRA.POLAR>
0

>  <SCORE.INTRA.POLAR.0>
0

>  <SCORE.INTRA.REPUL>
0.00573353

>  <SCORE.INTRA.REPUL.0>
0

>  <SCORE.INTRA.SOLV>
-2.32841

>  <SCORE.INTRA.SOLV.lig_0>
-80.8302

>  <SCORE.INTRA.VDW>
1.41134

>  <SCORE.INTRA.VDW.0>
-4.23953

>  <SCORE.INTRA.norm>
0.0422001

>  <SCORE.RESTR>
0

>  <SCORE.RESTR.CAVITY>
0

>  <SCORE.RESTR.norm>
0

>  <SCORE.SYSTEM>
0

>  <SCORE.SYSTEM.CONST>
0

>  <SCORE.SYSTEM.DIHEDRAL>
0

>  <SCORE.SYSTEM.SOLV>
0

>  <SCORE.SYSTEM.norm>
0

>  <SCORE.heavy>
31

>  <SCORE.norm>
-0.432488

>  <RMSD>
7.750

$$$$
2fcz_lig
 OpenBabel11021811433D
libRbt.so/2013.1/901 2013/11/27
 31 33  0  0  0  0  0  0  0  0999 V2000
    8.2184   18.8097   33.7509 C   0  0  0  0  0  0  0  0  0  0  0  0
   12.9119   19.4585   38.3911 N   0  0  0  0  0  0  0  0  0  0  0  0
    8.5291   20.0726   34.3457 O   0  0  0  0  0  0  0  0  0  0  0  0
    9.4641   17.9171   33.7573 C   0  0  1  0  0  0  0  0  0  0  0  0
   13.5756   14.6112   38.2853 N   0  0  0  0  0  0  0  0  0  0  0  0
   10.0266   17.7962   35.0796 O   0  0  0  0  0  0  0  0  0  0  0  0
    9.7820   16.4703   35.5891 C   0  0  1  0  0  0  0  0  0  0  0  0
   11.0005   11.5011   34.0753 N   0  0  0  0  0  0  0  0  0  0  0  0
    9.3189   16.4770   36.9503 O   0  0  0  0  0  0  0  0  0  0  0  0
   10.3593   16.6485   37.9275 C   0  0  2  0  0  0  0  0  0  0  0  0
    8.6105   12.9427   39.4272 N   0  0  0  0  0  0  0  0  0  0  0  0
   10.1476   19.0586   37.9244 O   0  0  0  0  0  0  0  0  0  0  0  0
   11.0642   17.9884   37.6827 C   0  0  1  0  0  0  0  0  0  0  0  0
   10.7798   14.2505   38.2971 O   0  0  0  0  0  0  0  0  0  0  0  0
   12.2728   18.1531   38.6072 C   0  0  1  0  0  0  0  0  0  0  0  0
   10.4537   13.2160   36.2004 O   0  0  0  0  0  0  0  0  0  0  0  0
   13.2877   17.0372   38.3497 C   0  0  0  0  0  0  0  0  0  0  0  0
   11.7581    9.9386   37.2612 O   0  0  0  0  0  0  0  0  0  0  0  0
   12.6297   15.6846   38.6296 C   0  0  1  0  0  0  0  0  0  0  0  0
    9.4525   10.2492   38.9467 O   0  0  0  0  0  0  0  0  0  0  0  0
   11.3422   15.4840   37.8228 C   0  0  2  0  0  0  0  0  0  0  0  0
    8.6527   14.4780   34.6560 O   0  0  0  0  0  0  0  0  0  0  0  0
    9.8143   13.6711   37.4075 C   0  0  1  0  0  0  0  0  0  0  0  0
   10.2557   15.8074   32.8087 O   0  0  0  0  0  0  0  0  0  0  0  0
   11.4410   12.1895   36.3995 C   0  0  2  0  0  0  0  0  0  0  0  0
   12.0558   11.8300   35.0445 C   0  0  0  0  0  0  0  0  0  0  0  0
   10.7806   10.9572   37.0278 C   0  0  2  0  0  0  0  0  0  0  0  0
   10.1371   11.3590   38.3567 C   0  0  1  0  0  0  0  0  0  0  0  0
    9.1423   12.4997   38.1308 C   0  0  1  0  0  0  0  0  0  0  0  0
    8.6925   15.9083   34.6744 C   0  0  2  0  0  0  0  0  0  0  0  0
    9.1128   16.4929   33.3273 C   0  0  1  0  0  0  0  0  0  0  0  0
  3  1  1  0  0  0  0
  4  1  1  1  0  0  0
  4  6  1  0  0  0  0
  4 31  1  0  0  0  0
  6  7  1  0  0  0  0
  7  9  1  1  0  0  0
  7 30  1  0  0  0  0
 10  9  1  6  0  0  0
 10 13  1  0  0  0  0
 10 21  1  0  0  0  0
 13 12  1  1  0  0  0
 13 15  1  0  0  0  0
 15  2  1  6  0  0  0
 15 17  1  0  0  0  0
 16 25  1  0  0  0  0
 17 19  1  0  0  0  0
 19  5  1  6  0  0  0
 19 21  1  0  0  0  0
 21 14  1  1  0  0  0
 23 14  1  1  0  0  0
 23 16  1  0  0  0  0
 23 29  1  0  0  0  0
 25 26  1  6  0  0  0
 25 27  1  0  0  0  0
 26  8  1  0  0  0  0
 27 18  1  1  0  0  0
 27 28  1  0  0  0  0
 28 20  1  6  0  0  0
 28 29  1  0  0  0  0
 29 11  1  1  0  0  0
 30 22  1  6  0  0  0
 30 31  1  0  0  0  0
 31 24  1  1  0  0  0
M  END
>  <CHROM.1>
53.84424142,-79.69589406,60.04066823,73.73358055,68.02931939,-52.87198008
10.46311759,15.12890306,36.59430603,1.76802400,-1.06153445,-0.08089004

>  <Name>
2fcz_lig

>  <RI>
1.32928e+07

>  <Rbt.Current_Directory>
/home/itssahil/PROJECTS/Mol_Feturizer/New_Systems/rnas/2fcz

>  <Rbt.Executable>
rbdock ($Id: //depot/dev/client3/rdock/2013.1/src/exe/rbdock.cxx#4 $)

>  <Rbt.Library>
libRbt.so (2013.1, Build901 2013/11/27)

>  <Rbt.Parameter_File>
/export/apps/rDock/src/rDock_2013.1_src/data/scripts/dock_solv.prm

>  <Rbt.Receptor>
prm/pocket_docking_7.prm

>  <SCORE>
-15.4882

>  <SCORE.INTER>
-12.6799

>  <SCORE.INTER.CONST>
1

>  <SCORE.INTER.POLAR>
-2.83559

>  <SCORE.INTER.ROT>
6

>  <SCORE.INTER.SOLV>
10.3688

>  <SCORE.INTER.VDW>
-10.0576

>  <SCORE.INTER.norm>
-0.40903

>  <SCORE.INTRA>
-2.80828

>  <SCORE.INTRA.DIHEDRAL>
-7.46501

>  <SCORE.INTRA.DIHEDRAL.0>
10.8409

>  <SCORE.INTRA.POLAR>
0

>  <SCORE.INTRA.POLAR.0>
0

>  <SCORE.INTRA.REPUL>
0

>  <SCORE.INTRA.REPUL.0>
0

>  <SCORE.INTRA.SOLV>
-0.937007

>  <SCORE.INTRA.SOLV.lig_0>
-80.8302

>  <SCORE.INTRA.VDW>
1.39273

>  <SCORE.INTRA.VDW.0>
-4.23953

>  <SCORE.INTRA.norm>
-0.0905897

>  <SCORE.RESTR>
0

>  <SCORE.RESTR.CAVITY>
0

>  <SCORE.RESTR.norm>
0

>  <SCORE.SYSTEM>
0

>  <SCORE.SYSTEM.CONST>
0

>  <SCORE.SYSTEM.DIHEDRAL>
0

>  <SCORE.SYSTEM.SOLV>
0

>  <SCORE.SYSTEM.norm>
0

>  <SCORE.heavy>
31

>  <SCORE.norm>
-0.49962

>  <RMSD>
7.806

$$$$
2fcz_lig
 OpenBabel11021811433D
libRbt.so/2013.1/901 2013/11/27
 31 33  0  0  0  0  0  0  0  0999 V2000
   14.0874   22.6761   36.0441 C   0  0  0  0  0  0  0  0  0  0  0  0
    8.4091   17.9435   32.7988 N   0  0  0  0  0  0  0  0  0  0  0  0
   15.4317   23.0633   35.7468 O   0  0  0  0  0  0  0  0  0  0  0  0
   14.0954   21.5132   37.0422 C   0  0  1  0  0  0  0  0  0  0  0  0
    7.9263   16.3913   37.4145 N   0  0  0  0  0  0  0  0  0  0  0  0
   12.7647   21.1886   37.4933 O   0  0  0  0  0  0  0  0  0  0  0  0
   12.3523   19.9331   36.9174 C   0  0  1  0  0  0  0  0  0  0  0  0
    7.2495   14.7899   39.5872 N   0  0  0  0  0  0  0  0  0  0  0  0
   11.0110   19.9748   36.4013 O   0  0  0  0  0  0  0  0  0  0  0  0
   10.5402   18.7214   35.8777 C   0  0  2  0  0  0  0  0  0  0  0  0
   12.1616   18.9608   39.6763 N   0  0  0  0  0  0  0  0  0  0  0  0
   10.6496   19.4864   33.5850 O   0  0  0  0  0  0  0  0  0  0  0  0
    9.7602   18.9780   34.5823 C   0  0  1  0  0  0  0  0  0  0  0  0
   10.4162   17.5544   38.0426 O   0  0  0  0  0  0  0  0  0  0  0  0
    9.1163   17.6908   34.0617 C   0  0  1  0  0  0  0  0  0  0  0  0
    8.9554   17.0687   39.8323 O   0  0  0  0  0  0  0  0  0  0  0  0
    8.1341   17.1383   35.0969 C   0  0  0  0  0  0  0  0  0  0  0  0
   11.1370   14.5075   41.3318 O   0  0  0  0  0  0  0  0  0  0  0  0
    8.8892   16.8272   36.3907 C   0  0  1  0  0  0  0  0  0  0  0  0
   12.7437   16.8787   41.5527 O   0  0  0  0  0  0  0  0  0  0  0  0
    9.6589   18.0407   36.9233 C   0  0  2  0  0  0  0  0  0  0  0  0
   13.4538   18.3227   35.3982 O   0  0  0  0  0  0  0  0  0  0  0  0
    9.9245   17.9995   39.3152 C   0  0  1  0  0  0  0  0  0  0  0  0
   15.1517   19.3313   37.3602 O   0  0  0  0  0  0  0  0  0  0  0  0
    9.4676   15.7465   40.0717 C   0  0  2  0  0  0  0  0  0  0  0  0
    8.3273   14.8634   40.5844 C   0  0  0  0  0  0  0  0  0  0  0  0
   10.5958   15.8129   41.1072 C   0  0  2  0  0  0  0  0  0  0  0  0
   11.6978   16.7377   40.5858 C   0  0  1  0  0  0  0  0  0  0  0  0
   11.1155   18.1176   40.2715 C   0  0  1  0  0  0  0  0  0  0  0  0
   13.3401   19.6988   35.7734 C   0  0  2  0  0  0  0  0  0  0  0  0
   14.6302   20.2399   36.3868 C   0  0  1  0  0  0  0  0  0  0  0  0
  3  1  1  0  0  0  0
  4  1  1  6  0  0  0
  4  6  1  0  0  0  0
  4 31  1  0  0  0  0
  6  7  1  0  0  0  0
  7  9  1  6  0  0  0
  7 30  1  0  0  0  0
 10  9  1  1  0  0  0
 10 13  1  0  0  0  0
 10 21  1  0  0  0  0
 13 12  1  6  0  0  0
 13 15  1  0  0  0  0
 15  2  1  6  0  0  0
 15 17  1  0  0  0  0
 16 25  1  0  0  0  0
 17 19  1  0  0  0  0
 19  5  1  1  0  0  0
 19 21  1  0  0  0  0
 21 14  1  1  0  0  0
 23 14  1  6  0  0  0
 23 16  1  0  0  0  0
 23 29  1  0  0  0  0
 25 26  1  1  0  0  0
 25 27  1  0  0  0  0
 26  8  1  0  0  0  0
 27 18  1  6  0  0  0
 27 28  1  0  0  0  0
 28 20  1  1  0  0  0
 28 29  1  0  0  0  0
 29 11  1  6  0  0  0
 30 22  1  1  0  0  0
 30 31  1  0  0  0  0
 31 24  1  1  0  0  0
M  END
>  <CHROM.1>
173.26227938,-177.09408904,-138.76183754,127.29766321,90.17334146,60.32559757
11.12004004,18.28503200,37.53113273,-0.86464944,0.59148653,2.02774011

>  <Name>
2fcz_lig

>  <RI>
1.32928e+07

>  <Rbt.Current_Directory>
/home/itssahil/PROJECTS/Mol_Feturizer/New_Systems/rnas/2fcz

>  <Rbt.Executable>
rbdock ($Id: //depot/dev/client3/rdock/2013.1/src/exe/rbdock.cxx#4 $)

>  <Rbt.Library>
libRbt.so (2013.1, Build901 2013/11/27)

>  <Rbt.Parameter_File>
/export/apps/rDock/src/rDock_2013.1_src/data/scripts/dock_solv.prm

>  <Rbt.Receptor>
prm/pocket_docking_7.prm

>  <SCORE>
-6.94086

>  <SCORE.INTER>
-11.9384

>  <SCORE.INTER.CONST>
1

>  <SCORE.INTER.POLAR>
-2.04268

>  <SCORE.INTER.ROT>
6

>  <SCORE.INTER.SOLV>
12.6234

>  <SCORE.INTER.VDW>
-12.9578

>  <SCORE.INTER.norm>
-0.385108

>  <SCORE.INTRA>
4.99749

>  <SCORE.INTRA.DIHEDRAL>
5.53222

>  <SCORE.INTRA.DIHEDRAL.0>
10.8409

>  <SCORE.INTRA.POLAR>
0

>  <SCORE.INTRA.POLAR.0>
0

>  <SCORE.INTRA.REPUL>
0

>  <SCORE.INTRA.REPUL.0>
0

>  <SCORE.INTRA.SOLV>
4.05133

>  <SCORE.INTRA.SOLV.lig_0>
-80.8302

>  <SCORE.INTRA.VDW>
0.205715

>  <SCORE.INTRA.VDW.0>
-4.23953

>  <SCORE.INTRA.norm>
0.161209

>  <SCORE.RESTR>
0

>  <SCORE.RESTR.CAVITY>
0

>  <SCORE.RESTR.norm>
0

>  <SCORE.SYSTEM>
0

>  <SCORE.SYSTEM.CONST>
0

>  <SCORE.SYSTEM.DIHEDRAL>
0

>  <SCORE.SYSTEM.SOLV>
0

>  <SCORE.SYSTEM.norm>
0

>  <SCORE.heavy>
31

>  <SCORE.norm>
-0.223899

>  <RMSD>
7.831

$$$$
2fcz_lig
 OpenBabel11021811433D
libRbt.so/2013.1/901 2013/11/27
 31 33  0  0  0  0  0  0  0  0999 V2000
    8.7561   19.8465   33.5402 C   0  0  0  0  0  0  0  0  0  0  0  0
   13.1313   12.6792   31.2988 N   0  0  0  0  0  0  0  0  0  0  0  0
    9.4951   21.0582   33.7161 O   0  0  0  0  0  0  0  0  0  0  0  0
    9.0941   19.2303   32.1784 C   0  0  1  0  0  0  0  0  0  0  0  0
   16.2500   15.5645   33.7270 N   0  0  0  0  0  0  0  0  0  0  0  0
   10.4916   18.8885   32.0800 O   0  0  0  0  0  0  0  0  0  0  0  0
   10.6422   17.4555   32.1181 C   0  0  1  0  0  0  0  0  0  0  0  0
   14.6302   16.0829   37.3375 N   0  0  0  0  0  0  0  0  0  0  0  0
   11.7015   17.0333   32.9938 O   0  0  0  0  0  0  0  0  0  0  0  0
   12.7759   16.3443   32.3320 C   0  0  2  0  0  0  0  0  0  0  0  0
   14.6710   20.4943   32.6494 N   0  0  0  0  0  0  0  0  0  0  0  0
   11.2775   14.8177   31.2015 O   0  0  0  0  0  0  0  0  0  0  0  0
   12.3763   14.8797   32.1142 C   0  0  1  0  0  0  0  0  0  0  0  0
   14.5850   17.7758   33.1933 O   0  0  0  0  0  0  0  0  0  0  0  0
   13.5416   14.0691   31.5420 C   0  0  1  0  0  0  0  0  0  0  0  0
   14.0366   18.1333   35.4613 O   0  0  0  0  0  0  0  0  0  0  0  0
   14.7243   14.0913   32.5128 C   0  0  0  0  0  0  0  0  0  0  0  0
   17.4243   19.1986   36.4392 O   0  0  0  0  0  0  0  0  0  0  0  0
   15.1795   15.5376   32.7177 C   0  0  1  0  0  0  0  0  0  0  0  0
   16.6633   21.2389   34.5654 O   0  0  0  0  0  0  0  0  0  0  0  0
   14.0385   16.4476   33.1854 C   0  0  2  0  0  0  0  0  0  0  0  0
    9.0325   15.5867   32.2958 O   0  0  0  0  0  0  0  0  0  0  0  0
   13.9476   18.6617   34.1250 C   0  0  1  0  0  0  0  0  0  0  0  0
    8.1899   17.6131   30.5832 O   0  0  0  0  0  0  0  0  0  0  0  0
   15.3792   17.9778   35.9527 C   0  0  2  0  0  0  0  0  0  0  0  0
   15.3208   17.3805   37.3608 C   0  0  0  0  0  0  0  0  0  0  0  0
   16.0760   19.3427   35.9823 C   0  0  2  0  0  0  0  0  0  0  0  0
   16.0777   19.9329   34.5705 C   0  0  1  0  0  0  0  0  0  0  0  0
   14.6446   20.0234   34.0412 C   0  0  1  0  0  0  0  0  0  0  0  0
    9.2999   16.9478   32.6472 C   0  0  2  0  0  0  0  0  0  0  0  0
    8.3341   17.9201   31.9725 C   0  0  1  0  0  0  0  0  0  0  0  0
  3  1  1  0  0  0  0
  4  1  1  1  0  0  0
  4  6  1  0  0  0  0
  4 31  1  0  0  0  0
  6  7  1  0  0  0  0
  7  9  1  1  0  0  0
  7 30  1  0  0  0  0
 10  9  1  1  0  0  0
 10 13  1  0  0  0  0
 10 21  1  0  0  0  0
 13 12  1  6  0  0  0
 13 15  1  0  0  0  0
 15  2  1  1  0  0  0
 15 17  1  0  0  0  0
 16 25  1  0  0  0  0
 17 19  1  0  0  0  0
 19  5  1  1  0  0  0
 19 21  1  0  0  0  0
 21 14  1  6  0  0  0
 23 14  1  6  0  0  0
 23 16  1  0  0  0  0
 23 29  1  0  0  0  0
 25 26  1  1  0  0  0
 25 27  1  0  0  0  0
 26  8  1  0  0  0  0
 27 18  1  6  0  0  0
 27 28  1  0  0  0  0
 28 20  1  1  0  0  0
 28 29  1  0  0  0  0
 29 11  1  6  0  0  0
 30 22  1  6  0  0  0
 30 31  1  0  0  0  0
 31 24  1  6  0  0  0
M  END
>  <CHROM.1>
61.63118297,-117.15945590,-81.11742041,82.05956552,58.14854292,58.78926312
12.93063040,17.52133657,33.43118035,2.78978596,0.40508237,-2.77960118

>  <Name>
2fcz_lig

>  <RI>
2.76032e+07

>  <Rbt.Current_Directory>
/home/itssahil/PROJECTS/Mol_Feturizer/New_Systems/rnas/2fcz

>  <Rbt.Executable>
rbdock ($Id: //depot/dev/client3/rdock/2013.1/src/exe/rbdock.cxx#4 $)

>  <Rbt.Library>
libRbt.so (2013.1, Build901 2013/11/27)

>  <Rbt.Parameter_File>
/export/apps/rDock/src/rDock_2013.1_src/data/scripts/dock_solv.prm

>  <Rbt.Receptor>
prm/pocket_docking_8.prm

>  <SCORE>
-11.2267

>  <SCORE.INTER>
-11.4708

>  <SCORE.INTER.CONST>
1

>  <SCORE.INTER.POLAR>
0

>  <SCORE.INTER.ROT>
6

>  <SCORE.INTER.SOLV>
16.2768

>  <SCORE.INTER.VDW>
-20.6728

>  <SCORE.INTER.norm>
-0.370025

>  <SCORE.INTRA>
0.244055

>  <SCORE.INTRA.DIHEDRAL>
0.476904

>  <SCORE.INTRA.DIHEDRAL.0>
10.8409

>  <SCORE.INTRA.POLAR>
0

>  <SCORE.INTRA.POLAR.0>
0

>  <SCORE.INTRA.REPUL>
0

>  <SCORE.INTRA.REPUL.0>
0

>  <SCORE.INTRA.SOLV>
-1.76015

>  <SCORE.INTRA.SOLV.lig_0>
-80.8302

>  <SCORE.INTRA.VDW>
0.885677

>  <SCORE.INTRA.VDW.0>
-4.23953

>  <SCORE.INTRA.norm>
0.00787276

>  <SCORE.RESTR>
0

>  <SCORE.RESTR.CAVITY>
0

>  <SCORE.RESTR.norm>
0

>  <SCORE.SYSTEM>
0

>  <SCORE.SYSTEM.CONST>
0

>  <SCORE.SYSTEM.DIHEDRAL>
0

>  <SCORE.SYSTEM.SOLV>
0

>  <SCORE.SYSTEM.norm>
0

>  <SCORE.heavy>
31

>  <SCORE.norm>
-0.362152

>  <RMSD>
7.840

$$$$
2fcz_lig
 OpenBabel11021811433D
libRbt.so/2013.1/901 2013/11/27
 31 33  0  0  0  0  0  0  0  0999 V2000
    9.6370   17.7178   32.9216 C   0  0  0  0  0  0  0  0  0  0  0  0
    4.5270   17.9000   39.8026 N   0  0  0  0  0  0  0  0  0  0  0  0
    8.8491   16.7924   32.1677 O   0  0  0  0  0  0  0  0  0  0  0  0
    8.7180   18.7193   33.6295 C   0  0  1  0  0  0  0  0  0  0  0  0
    6.2107   13.4055   38.8476 N   0  0  0  0  0  0  0  0  0  0  0  0
    7.8516   18.0679   34.5806 O   0  0  0  0  0  0  0  0  0  0  0  0
    8.2754   18.3908   35.9200 C   0  0  1  0  0  0  0  0  0  0  0  0
   11.0964   14.1232   39.1263 N   0  0  0  0  0  0  0  0  0  0  0  0
    8.3105   17.2405   36.7818 O   0  0  0  0  0  0  0  0  0  0  0  0
    7.0148   16.7327   37.1427 C   0  0  2  0  0  0  0  0  0  0  0  0
    7.4645   13.8862   33.7937 N   0  0  0  0  0  0  0  0  0  0  0  0
    6.1765   18.9222   37.7403 O   0  0  0  0  0  0  0  0  0  0  0  0
    6.4213   17.6099   38.2521 C   0  0  1  0  0  0  0  0  0  0  0  0
    7.4599   14.3919   36.5209 O   0  0  0  0  0  0  0  0  0  0  0  0
    5.1048   17.0273   38.7712 C   0  0  1  0  0  0  0  0  0  0  0  0
    9.8082   14.6206   36.5958 O   0  0  0  0  0  0  0  0  0  0  0  0
    5.3408   15.6323   39.3544 C   0  0  0  0  0  0  0  0  0  0  0  0
   10.4846   11.0125   36.2923 O   0  0  0  0  0  0  0  0  0  0  0  0
    5.8912   14.7162   38.2597 C   0  0  1  0  0  0  0  0  0  0  0  0
    9.1856   11.5988   33.7979 O   0  0  0  0  0  0  0  0  0  0  0  0
    7.1552   15.2836   37.6048 C   0  0  2  0  0  0  0  0  0  0  0  0
   10.1014   19.7888   36.8288 O   0  0  0  0  0  0  0  0  0  0  0  0
    8.6315   14.7585   35.7777 C   0  0  1  0  0  0  0  0  0  0  0  0
    8.8075   20.9396   34.6492 O   0  0  0  0  0  0  0  0  0  0  0  0
   10.0613   13.2815   37.0551 C   0  0  2  0  0  0  0  0  0  0  0  0
   11.3149   13.2922   37.9334 C   0  0  0  0  0  0  0  0  0  0  0  0
   10.2634   12.3554   35.8506 C   0  0  2  0  0  0  0  0  0  0  0  0
    9.0129   12.4019   34.9700 C   0  0  1  0  0  0  0  0  0  0  0  0
    8.7230   13.8450   34.5512 C   0  0  1  0  0  0  0  0  0  0  0  0
    9.6881   18.9503   35.7455 C   0  0  2  0  0  0  0  0  0  0  0  0
    9.5349   19.7264   34.4388 C   0  0  1  0  0  0  0  0  0  0  0  0
  3  1  1  0  0  0  0
  4  1  1  1  0  0  0
  4  6  1  0  0  0  0
  4 31  1  0  0  0  0
  6  7  1  0  0  0  0
  7  9  1  1  0  0  0
  7 30  1  0  0  0  0
 10  9  1  1  0  0  0
 10 13  1  0  0  0  0
 10 21  1  0  0  0  0
 13 12  1  6  0  0  0
 13 15  1  0  0  0  0
 15  2  1  1  0  0  0
 15 17  1  0  0  0  0
 16 25  1  0  0  0  0
 17 19  1  0  0  0  0
 19  5  1  1  0  0  0
 19 21  1  0  0  0  0
 21 14  1  6  0  0  0
 23 14  1  1  0  0  0
 23 16  1  0  0  0  0
 23 29  1  0  0  0  0
 25 26  1  1  0  0  0
 25 27  1  0  0  0  0
 26  8  1  0  0  0  0
 27 18  1  1  0  0  0
 27 28  1  0  0  0  0
 28 20  1  6  0  0  0
 28 29  1  0  0  0  0
 29 11  1  1  0  0  0
 30 22  1  1  0  0  0
 30 31  1  0  0  0  0
 31 24  1  1  0  0  0
M  END
>  <CHROM.1>
62.81779596,-71.34868196,-78.72607280,55.56854834,66.81577211,62.87646669
8.31648090,15.92441107,36.28154129,-1.96855036,-0.90874923,2.80168948

>  <Name>
2fcz_lig

>  <RI>
1.32928e+07

>  <Rbt.Current_Directory>
/home/itssahil/PROJECTS/Mol_Feturizer/New_Systems/rnas/2fcz

>  <Rbt.Executable>
rbdock ($Id: //depot/dev/client3/rdock/2013.1/src/exe/rbdock.cxx#4 $)

>  <Rbt.Library>
libRbt.so (2013.1, Build901 2013/11/27)

>  <Rbt.Parameter_File>
/export/apps/rDock/src/rDock_2013.1_src/data/scripts/dock_solv.prm

>  <Rbt.Receptor>
prm/pocket_docking_7.prm

>  <SCORE>
-17.7315

>  <SCORE.INTER>
-13.7076

>  <SCORE.INTER.CONST>
1

>  <SCORE.INTER.POLAR>
-1.51617

>  <SCORE.INTER.ROT>
6

>  <SCORE.INTER.SOLV>
17.681

>  <SCORE.INTER.VDW>
-17.5781

>  <SCORE.INTER.norm>
-0.442181

>  <SCORE.INTRA>
-4.02392

>  <SCORE.INTRA.DIHEDRAL>
-8.10444

>  <SCORE.INTRA.DIHEDRAL.0>
10.8409

>  <SCORE.INTRA.POLAR>
0

>  <SCORE.INTRA.POLAR.0>
0

>  <SCORE.INTRA.REPUL>
0

>  <SCORE.INTRA.REPUL.0>
0

>  <SCORE.INTRA.SOLV>
-3.31309

>  <SCORE.INTRA.SOLV.lig_0>
-80.8302

>  <SCORE.INTRA.VDW>
1.68485

>  <SCORE.INTRA.VDW.0>
-4.23953

>  <SCORE.INTRA.norm>
-0.129804

>  <SCORE.RESTR>
0

>  <SCORE.RESTR.CAVITY>
0

>  <SCORE.RESTR.norm>
0

>  <SCORE.SYSTEM>
0

>  <SCORE.SYSTEM.CONST>
0

>  <SCORE.SYSTEM.DIHEDRAL>
0

>  <SCORE.SYSTEM.SOLV>
0

>  <SCORE.SYSTEM.norm>
0

>  <SCORE.heavy>
31

>  <SCORE.norm>
-0.571985

>  <RMSD>
7.852

$$$$
2fcz_lig
 OpenBabel11021811433D
libRbt.so/2013.1/901 2013/11/27
 31 33  0  0  0  0  0  0  0  0999 V2000
   10.6737   21.2962   34.7298 C   0  0  0  0  0  0  0  0  0  0  0  0
   16.3012   24.2942   28.4935 N   0  0  0  0  0  0  0  0  0  0  0  0
   11.4396   20.2670   34.0977 O   0  0  0  0  0  0  0  0  0  0  0  0
   10.5904   22.5166   33.8066 C   0  0  1  0  0  0  0  0  0  0  0  0
   18.1120   22.8841   32.8155 N   0  0  0  0  0  0  0  0  0  0  0  0
   11.8992   22.9857   33.4237 O   0  0  0  0  0  0  0  0  0  0  0  0
   12.1368   22.6751   32.0363 C   0  0  1  0  0  0  0  0  0  0  0  0
   17.4835   18.2477   35.1295 N   0  0  0  0  0  0  0  0  0  0  0  0
   13.4441   22.1217   31.8089 O   0  0  0  0  0  0  0  0  0  0  0  0
   14.4801   23.1039   31.6389 C   0  0  2  0  0  0  0  0  0  0  0  0
   14.0639   23.7446   36.0479 N   0  0  0  0  0  0  0  0  0  0  0  0
   13.6902   23.7508   29.4454 O   0  0  0  0  0  0  0  0  0  0  0  0
   14.8191   23.2253   30.1480 C   0  0  1  0  0  0  0  0  0  0  0  0
   15.4959   22.8122   33.8631 O   0  0  0  0  0  0  0  0  0  0  0  0
   16.0155   24.1541   29.9280 C   0  0  1  0  0  0  0  0  0  0  0  0
   14.7675   20.5910   34.1922 O   0  0  0  0  0  0  0  0  0  0  0  0
   17.2494   23.6006   30.6441 C   0  0  0  0  0  0  0  0  0  0  0  0
   16.9452   19.9740   37.0982 O   0  0  0  0  0  0  0  0  0  0  0  0
   16.9615   23.5093   32.1440 C   0  0  1  0  0  0  0  0  0  0  0  0
   15.2347   22.0740   38.0561 O   0  0  0  0  0  0  0  0  0  0  0  0
   15.7060   22.6847   32.4480 C   0  0  2  0  0  0  0  0  0  0  0  0
   10.7811   21.5632   30.2927 O   0  0  0  0  0  0  0  0  0  0  0  0
   14.4418   21.9819   34.3719 C   0  0  1  0  0  0  0  0  0  0  0  0
    9.3162   23.3188   31.8805 O   0  0  0  0  0  0  0  0  0  0  0  0
   15.9503   20.1610   34.8880 C   0  0  2  0  0  0  0  0  0  0  0  0
   16.1901   18.6808   34.5809 C   0  0  0  0  0  0  0  0  0  0  0  0
   15.7629   20.3680   36.3952 C   0  0  2  0  0  0  0  0  0  0  0  0
   15.4802   21.8476   36.6643 C   0  0  1  0  0  0  0  0  0  0  0  0
   14.2600   22.3005   35.8593 C   0  0  1  0  0  0  0  0  0  0  0  0
   11.0680   21.6364   31.6926 C   0  0  2  0  0  0  0  0  0  0  0  0
    9.8818   22.1606   32.4998 C   0  0  1  0  0  0  0  0  0  0  0  0
  3  1  1  0  0  0  0
  4  1  1  1  0  0  0
  4  6  1  0  0  0  0
  4 31  1  0  0  0  0
  6  7  1  0  0  0  0
  7  9  1  1  0  0  0
  7 30  1  0  0  0  0
 10  9  1  6  0  0  0
 10 13  1  0  0  0  0
 10 21  1  0  0  0  0
 13 12  1  6  0  0  0
 13 15  1  0  0  0  0
 15  2  1  6  0  0  0
 15 17  1  0  0  0  0
 16 25  1  0  0  0  0
 17 19  1  0  0  0  0
 19  5  1  1  0  0  0
 19 21  1  0  0  0  0
 21 14  1  1  0  0  0
 23 14  1  1  0  0  0
 23 16  1  0  0  0  0
 23 29  1  0  0  0  0
 25 26  1  1  0  0  0
 25 27  1  0  0  0  0
 26  8  1  0  0  0  0
 27 18  1  1  0  0  0
 27 28  1  0  0  0  0
 28 20  1  1  0  0  0
 28 29  1  0  0  0  0
 29 11  1  6  0  0  0
 30 22  1  6  0  0  0
 30 31  1  0  0  0  0
 31 24  1  6  0  0  0
M  END
>  <CHROM.1>
-55.67477578,-85.03282671,-102.69815449,61.99732515,63.43939201,172.61566830
14.17625451,22.06826784,33.27149450,2.19099695,-0.01299706,-1.13480538

>  <Name>
2fcz_lig

>  <RI>
1.40544e+07

>  <Rbt.Current_Directory>
/home/itssahil/PROJECTS/Mol_Feturizer/New_Systems/rnas/2fcz

>  <Rbt.Executable>
rbdock ($Id: //depot/dev/client3/rdock/2013.1/src/exe/rbdock.cxx#4 $)

>  <Rbt.Library>
libRbt.so (2013.1, Build901 2013/11/27)

>  <Rbt.Parameter_File>
/export/apps/rDock/src/rDock_2013.1_src/data/scripts/dock_solv.prm

>  <Rbt.Receptor>
prm/blind_docking_100.prm

>  <SCORE>
-13.4703

>  <SCORE.INTER>
-12.7718

>  <SCORE.INTER.CONST>
1

>  <SCORE.INTER.POLAR>
-1.45903

>  <SCORE.INTER.ROT>
6

>  <SCORE.INTER.SOLV>
19.6171

>  <SCORE.INTER.VDW>
-17.7901

>  <SCORE.INTER.norm>
-0.411993

>  <SCORE.INTRA>
-0.698463

>  <SCORE.INTRA.DIHEDRAL>
-1.90365

>  <SCORE.INTRA.DIHEDRAL.0>
10.8409

>  <SCORE.INTRA.POLAR>
0

>  <SCORE.INTRA.POLAR.0>
0

>  <SCORE.INTRA.REPUL>
0

>  <SCORE.INTRA.REPUL.0>
0

>  <SCORE.INTRA.SOLV>
-0.85827

>  <SCORE.INTRA.SOLV.lig_0>
-80.8302

>  <SCORE.INTRA.VDW>
0.682496

>  <SCORE.INTRA.VDW.0>
-4.23953

>  <SCORE.INTRA.norm>
-0.0225311

>  <SCORE.RESTR>
0

>  <SCORE.RESTR.CAVITY>
0

>  <SCORE.RESTR.norm>
0

>  <SCORE.SYSTEM>
0

>  <SCORE.SYSTEM.CONST>
0

>  <SCORE.SYSTEM.DIHEDRAL>
0

>  <SCORE.SYSTEM.SOLV>
0

>  <SCORE.SYSTEM.norm>
0

>  <SCORE.heavy>
31

>  <SCORE.norm>
-0.434524

>  <RMSD>
7.869

$$$$
2fcz_lig
 OpenBabel11021811433D
libRbt.so/2013.1/901 2013/11/27
 31 33  0  0  0  0  0  0  0  0999 V2000
    9.6093   20.5374   33.9035 C   0  0  0  0  0  0  0  0  0  0  0  0
    5.8794   18.5317   41.0077 N   0  0  0  0  0  0  0  0  0  0  0  0
   10.3189   21.7648   34.0913 O   0  0  0  0  0  0  0  0  0  0  0  0
   10.4667   19.3665   34.3959 C   0  0  1  0  0  0  0  0  0  0  0  0
   10.2303   16.3996   41.6942 N   0  0  0  0  0  0  0  0  0  0  0  0
   10.7995   19.4997   35.7927 O   0  0  0  0  0  0  0  0  0  0  0  0
   10.0609   18.5283   36.5599 C   0  0  1  0  0  0  0  0  0  0  0  0
   12.6271   12.7344   37.9171 N   0  0  0  0  0  0  0  0  0  0  0  0
    9.4757   19.0895   37.7472 O   0  0  0  0  0  0  0  0  0  0  0  0
    8.8164   18.1303   38.5911 C   0  0  2  0  0  0  0  0  0  0  0  0
   12.2313   18.9424   39.6529 N   0  0  0  0  0  0  0  0  0  0  0  0
    6.6671   19.2204   38.3763 O   0  0  0  0  0  0  0  0  0  0  0  0
    7.6580   18.8173   39.3249 C   0  0  1  0  0  0  0  0  0  0  0  0
   10.7803   16.6872   38.9443 O   0  0  0  0  0  0  0  0  0  0  0  0
    7.0136   17.8744   40.3438 C   0  0  1  0  0  0  0  0  0  0  0  0
   12.6113   15.2494   39.3348 O   0  0  0  0  0  0  0  0  0  0  0  0
    8.0442   17.4494   41.3921 C   0  0  0  0  0  0  0  0  0  0  0  0
   14.4277   16.2178   36.2802 O   0  0  0  0  0  0  0  0  0  0  0  0
    9.1951   16.7181   40.6981 C   0  0  1  0  0  0  0  0  0  0  0  0
   14.3558   18.6841   37.7517 O   0  0  0  0  0  0  0  0  0  0  0  0
    9.8278   17.5540   39.5801 C   0  0  2  0  0  0  0  0  0  0  0  0
    8.4345   16.7685   35.9494 O   0  0  0  0  0  0  0  0  0  0  0  0
   11.9853   16.4936   39.6992 C   0  0  1  0  0  0  0  0  0  0  0  0
   10.5945   16.9327   34.2011 O   0  0  0  0  0  0  0  0  0  0  0  0
   13.0163   15.1668   37.9574 C   0  0  2  0  0  0  0  0  0  0  0  0
   13.6314   13.7875   37.7081 C   0  0  0  0  0  0  0  0  0  0  0  0
   14.0395   16.2678   37.6564 C   0  0  2  0  0  0  0  0  0  0  0  0
   13.4104   17.6296   37.9585 C   0  0  1  0  0  0  0  0  0  0  0  0
   12.9236   17.6693   39.4089 C   0  0  1  0  0  0  0  0  0  0  0  0
    8.9571   18.0570   35.6117 C   0  0  2  0  0  0  0  0  0  0  0  0
    9.7025   18.0478   34.2785 C   0  0  1  0  0  0  0  0  0  0  0  0
  3  1  1  0  0  0  0
  4  1  1  1  0  0  0
  4  6  1  0  0  0  0
  4 31  1  0  0  0  0
  6  7  1  0  0  0  0
  7  9  1  1  0  0  0
  7 30  1  0  0  0  0
 10  9  1  6  0  0  0
 10 13  1  0  0  0  0
 10 21  1  0  0  0  0
 13 12  1  6  0  0  0
 13 15  1  0  0  0  0
 15  2  1  1  0  0  0
 15 17  1  0  0  0  0
 16 25  1  0  0  0  0
 17 19  1  0  0  0  0
 19  5  1  1  0  0  0
 19 21  1  0  0  0  0
 21 14  1  6  0  0  0
 23 14  1  6  0  0  0
 23 16  1  0  0  0  0
 23 29  1  0  0  0  0
 25 26  1  1  0  0  0
 25 27  1  0  0  0  0
 26  8  1  0  0  0  0
 27 18  1  6  0  0  0
 27 28  1  0  0  0  0
 28 20  1  1  0  0  0
 28 29  1  0  0  0  0
 29 11  1  6  0  0  0
 30 22  1  1  0  0  0
 30 31  1  0  0  0  0
 31 24  1  1  0  0  0
M  END
>  <CHROM.1>
59.42286685,-175.51997100,-149.56499439,159.77368806,155.66308593,63.29564839
10.58839961,17.59385717,37.81431496,-2.87769848,-0.48915291,2.06018774

>  <Name>
2fcz_lig

>  <RI>
0

>  <Rbt.Current_Directory>
/home/itssahil/PROJECTS/Mol_Feturizer/New_Systems/rnas/2fcz

>  <Rbt.Executable>
rbdock ($Id: //depot/dev/client3/rdock/2013.1/src/exe/rbdock.cxx#4 $)

>  <Rbt.Library>
libRbt.so (2013.1, Build901 2013/11/27)

>  <Rbt.Parameter_File>
/export/apps/rDock/src/rDock_2013.1_src/data/scripts/dock_solv.prm

>  <Rbt.Receptor>
prm/pocket_docking_5.prm

>  <SCORE>
-12.2237

>  <SCORE.INTER>
-13.3312

>  <SCORE.INTER.CONST>
1

>  <SCORE.INTER.POLAR>
-2.44636

>  <SCORE.INTER.ROT>
6

>  <SCORE.INTER.SOLV>
10.4819

>  <SCORE.INTER.VDW>
-11.8269

>  <SCORE.INTER.norm>
-0.430037

>  <SCORE.INTRA>
1.08642

>  <SCORE.INTRA.DIHEDRAL>
-2.52798

>  <SCORE.INTRA.DIHEDRAL.0>
10.8409

>  <SCORE.INTRA.POLAR>
0

>  <SCORE.INTRA.POLAR.0>
0

>  <SCORE.INTRA.REPUL>
0

>  <SCORE.INTRA.REPUL.0>
0

>  <SCORE.INTRA.SOLV>
0.681707

>  <SCORE.INTRA.SOLV.lig_0>
-80.8302

>  <SCORE.INTRA.VDW>
2.00956

>  <SCORE.INTRA.VDW.0>
-4.23953

>  <SCORE.INTRA.norm>
0.0350458

>  <SCORE.RESTR>
0.0210083

>  <SCORE.RESTR.CAVITY>
0.0210083

>  <SCORE.RESTR.norm>
0.000677687

>  <SCORE.SYSTEM>
0

>  <SCORE.SYSTEM.CONST>
0

>  <SCORE.SYSTEM.DIHEDRAL>
0

>  <SCORE.SYSTEM.SOLV>
0

>  <SCORE.SYSTEM.norm>
0

>  <SCORE.heavy>
31

>  <SCORE.norm>
-0.394314

>  <RMSD>
7.882

$$$$
2fcz_lig
 OpenBabel11021811433D
libRbt.so/2013.1/901 2013/11/27
 31 33  0  0  0  0  0  0  0  0999 V2000
   18.0918   25.0045   32.6353 C   0  0  0  0  0  0  0  0  0  0  0  0
   13.4782   22.9949   28.6225 N   0  0  0  0  0  0  0  0  0  0  0  0
   18.4397   24.6141   31.3041 O   0  0  0  0  0  0  0  0  0  0  0  0
   16.6941   25.6330   32.6390 C   0  0  1  0  0  0  0  0  0  0  0  0
   10.0227   23.3901   32.0649 N   0  0  0  0  0  0  0  0  0  0  0  0
   15.6878   24.6976   32.2006 O   0  0  0  0  0  0  0  0  0  0  0  0
   14.8793   24.2963   33.3244 C   0  0  1  0  0  0  0  0  0  0  0  0
   16.1265   20.3081   35.7848 N   0  0  0  0  0  0  0  0  0  0  0  0
   14.6522   22.8771   33.3642 O   0  0  0  0  0  0  0  0  0  0  0  0
   13.7025   22.4033   32.3943 C   0  0  2  0  0  0  0  0  0  0  0  0
    9.6341   20.9849   35.1387 N   0  0  0  0  0  0  0  0  0  0  0  0
   15.3540   22.3057   30.6289 O   0  0  0  0  0  0  0  0  0  0  0  0
   14.1107   22.9042   31.0034 C   0  0  1  0  0  0  0  0  0  0  0  0
   11.7919   22.2503   33.9404 O   0  0  0  0  0  0  0  0  0  0  0  0
   13.0536   22.5468   29.9560 C   0  0  1  0  0  0  0  0  0  0  0  0
   13.0223   20.2422   33.7778 O   0  0  0  0  0  0  0  0  0  0  0  0
   11.7168   23.1998   30.3139 C   0  0  0  0  0  0  0  0  0  0  0  0
   13.8652   20.0996   37.3606 O   0  0  0  0  0  0  0  0  0  0  0  0
   11.2559   22.6859   31.6793 C   0  0  1  0  0  0  0  0  0  0  0  0
   11.0005   19.8864   37.4016 O   0  0  0  0  0  0  0  0  0  0  0  0
   12.3094   22.9040   32.7709 C   0  0  2  0  0  0  0  0  0  0  0  0
   14.8942   24.8970   35.7231 O   0  0  0  0  0  0  0  0  0  0  0  0
   11.7055   20.8230   33.8189 C   0  0  1  0  0  0  0  0  0  0  0  0
   15.2971   27.0738   34.0353 O   0  0  0  0  0  0  0  0  0  0  0  0
   13.8111   20.4693   34.9585 C   0  0  2  0  0  0  0  0  0  0  0  0
   15.1870   19.8283   34.7609 C   0  0  0  0  0  0  0  0  0  0  0  0
   13.1067   19.8533   36.1726 C   0  0  2  0  0  0  0  0  0  0  0  0
   11.7186   20.4812   36.3157 C   0  0  1  0  0  0  0  0  0  0  0  0
   10.9230   20.2887   35.0227 C   0  0  1  0  0  0  0  0  0  0  0  0
   15.6916   24.7250   34.5475 C   0  0  2  0  0  0  0  0  0  0  0  0
   16.2874   26.0423   34.0545 C   0  0  1  0  0  0  0  0  0  0  0  0
  3  1  1  0  0  0  0
  4  1  1  1  0  0  0
  4  6  1  0  0  0  0
  4 31  1  0  0  0  0
  6  7  1  0  0  0  0
  7  9  1  1  0  0  0
  7 30  1  0  0  0  0
 10  9  1  1  0  0  0
 10 13  1  0  0  0  0
 10 21  1  0  0  0  0
 13 12  1  6  0  0  0
 13 15  1  0  0  0  0
 15  2  1  6  0  0  0
 15 17  1  0  0  0  0
 16 25  1  0  0  0  0
 17 19  1  0  0  0  0
 19  5  1  1  0  0  0
 19 21  1  0  0  0  0
 21 14  1  1  0  0  0
 23 14  1  1  0  0  0
 23 16  1  0  0  0  0
 23 29  1  0  0  0  0
 25 26  1  6  0  0  0
 25 27  1  0  0  0  0
 26  8  1  0  0  0  0
 27 18  1  1  0  0  0
 27 28  1  0  0  0  0
 28 20  1  1  0  0  0
 28 29  1  0  0  0  0
 29 11  1  1  0  0  0
 30 22  1  1  0  0  0
 30 31  1  0  0  0  0
 31 24  1  6  0  0  0
M  END
>  <CHROM.1>
61.72864855,-74.71084689,52.48209718,-58.15744505,68.75186474,166.19435730
13.82702687,22.61761930,33.49712276,-0.78923832,0.52947381,2.02197543

>  <Name>
2fcz_lig

>  <RI>
2.6968e+07

>  <Rbt.Current_Directory>
/home/itssahil/PROJECTS/Mol_Feturizer/New_Systems/rnas/2fcz

>  <Rbt.Executable>
rbdock ($Id: //depot/dev/client3/rdock/2013.1/src/exe/rbdock.cxx#4 $)

>  <Rbt.Library>
libRbt.so (2013.1, Build901 2013/11/27)

>  <Rbt.Parameter_File>
/export/apps/rDock/src/rDock_2013.1_src/data/scripts/dock_solv.prm

>  <Rbt.Receptor>
prm/blind_docking_60.prm

>  <SCORE>
-14.6167

>  <SCORE.INTER>
-13.8804

>  <SCORE.INTER.CONST>
1

>  <SCORE.INTER.POLAR>
-1.63965

>  <SCORE.INTER.ROT>
6

>  <SCORE.INTER.SOLV>
18.0398

>  <SCORE.INTER.VDW>
-17.4014

>  <SCORE.INTER.norm>
-0.447755

>  <SCORE.INTRA>
-0.749847

>  <SCORE.INTRA.DIHEDRAL>
-8.351

>  <SCORE.INTRA.DIHEDRAL.0>
10.8409

>  <SCORE.INTRA.POLAR>
0

>  <SCORE.INTRA.POLAR.0>
0

>  <SCORE.INTRA.REPUL>
0

>  <SCORE.INTRA.REPUL.0>
0

>  <SCORE.INTRA.SOLV>
-1.38722

>  <SCORE.INTRA.SOLV.lig_0>
-80.8302

>  <SCORE.INTRA.VDW>
4.11926

>  <SCORE.INTRA.VDW.0>
-4.23953

>  <SCORE.INTRA.norm>
-0.0241886

>  <SCORE.RESTR>
0.0135562

>  <SCORE.RESTR.CAVITY>
0.0135562

>  <SCORE.RESTR.norm>
0.000437296

>  <SCORE.SYSTEM>
0

>  <SCORE.SYSTEM.CONST>
0

>  <SCORE.SYSTEM.DIHEDRAL>
0

>  <SCORE.SYSTEM.SOLV>
0

>  <SCORE.SYSTEM.norm>
0

>  <SCORE.heavy>
31

>  <SCORE.norm>
-0.471507

>  <RMSD>
7.955

$$$$
2fcz_lig
 OpenBabel11021811433D
libRbt.so/2013.1/901 2013/11/27
 31 33  0  0  0  0  0  0  0  0999 V2000
   13.7431   20.0007   36.3303 C   0  0  0  0  0  0  0  0  0  0  0  0
   10.1892   22.6437   31.7214 N   0  0  0  0  0  0  0  0  0  0  0  0
   14.3237   19.0502   37.2273 O   0  0  0  0  0  0  0  0  0  0  0  0
   13.7634   19.4415   34.9036 C   0  0  1  0  0  0  0  0  0  0  0  0
   13.6957   22.0460   28.3606 N   0  0  0  0  0  0  0  0  0  0  0  0
   13.4769   20.4626   33.9265 O   0  0  0  0  0  0  0  0  0  0  0  0
   14.6786   20.7855   33.1989 C   0  0  1  0  0  0  0  0  0  0  0  0
   16.6160   26.1738   33.9155 N   0  0  0  0  0  0  0  0  0  0  0  0
   14.8709   22.2025   33.0487 O   0  0  0  0  0  0  0  0  0  0  0  0
   13.9914   22.8202   32.0938 C   0  0  2  0  0  0  0  0  0  0  0  0
   16.9009   24.2591   28.1983 N   0  0  0  0  0  0  0  0  0  0  0  0
   12.1865   23.0280   33.6916 O   0  0  0  0  0  0  0  0  0  0  0  0
   12.5417   22.4514   32.4324 C   0  0  1  0  0  0  0  0  0  0  0  0
   15.6139   22.8968   30.2431 O   0  0  0  0  0  0  0  0  0  0  0  0
   11.5768   22.9669   31.3620 C   0  0  1  0  0  0  0  0  0  0  0  0
   15.7746   24.7326   31.7184 O   0  0  0  0  0  0  0  0  0  0  0  0
   11.9133   22.3424   30.0061 C   0  0  0  0  0  0  0  0  0  0  0  0
   19.3696   24.2860   32.3848 O   0  0  0  0  0  0  0  0  0  0  0  0
   13.3409   22.7291   29.6148 C   0  0  1  0  0  0  0  0  0  0  0  0
   19.3404   24.8601   29.5701 O   0  0  0  0  0  0  0  0  0  0  0  0
   14.3643   22.3477   30.6900 C   0  0  2  0  0  0  0  0  0  0  0  0
   17.0016   19.9448   33.3055 O   0  0  0  0  0  0  0  0  0  0  0  0
   15.6890   24.3266   30.3397 C   0  0  1  0  0  0  0  0  0  0  0  0
   15.0873   17.9337   33.5066 O   0  0  0  0  0  0  0  0  0  0  0  0
   16.9390   24.2501   32.4107 C   0  0  2  0  0  0  0  0  0  0  0  0
   16.8801   24.7285   33.8635 C   0  0  0  0  0  0  0  0  0  0  0  0
   18.2017   24.7845   31.7254 C   0  0  2  0  0  0  0  0  0  0  0  0
   18.2080   24.3278   30.2649 C   0  0  1  0  0  0  0  0  0  0  0  0
   16.9275   24.7922   29.5674 C   0  0  1  0  0  0  0  0  0  0  0  0
   15.8057   20.1974   34.0493 C   0  0  2  0  0  0  0  0  0  0  0  0
   15.1523   18.9103   34.5492 C   0  0  1  0  0  0  0  0  0  0  0  0
  3  1  1  0  0  0  0
  4  1  1  1  0  0  0
  4  6  1  0  0  0  0
  4 31  1  0  0  0  0
  6  7  1  0  0  0  0
  7  9  1  1  0  0  0
  7 30  1  0  0  0  0
 10  9  1  1  0  0  0
 10 13  1  0  0  0  0
 10 21  1  0  0  0  0
 13 12  1  1  0  0  0
 13 15  1  0  0  0  0
 15  2  1  1  0  0  0
 15 17  1  0  0  0  0
 16 25  1  0  0  0  0
 17 19  1  0  0  0  0
 19  5  1  6  0  0  0
 19 21  1  0  0  0  0
 21 14  1  6  0  0  0
 23 14  1  1  0  0  0
 23 16  1  0  0  0  0
 23 29  1  0  0  0  0
 25 26  1  1  0  0  0
 25 27  1  0  0  0  0
 26  8  1  0  0  0  0
 27 18  1  1  0  0  0
 27 28  1  0  0  0  0
 28 20  1  6  0  0  0
 28 29  1  0  0  0  0
 29 11  1  6  0  0  0
 30 22  1  6  0  0  0
 30 31  1  0  0  0  0
 31 24  1  6  0  0  0
M  END
>  <CHROM.1>
-166.81962856,-73.66117727,52.73906700,-52.77472647,70.94263577,-50.07483437
15.12976655,22.44960501,32.23885956,-2.11719360,-0.31066885,-0.91466302

>  <Name>
2fcz_lig

>  <RI>
2.6968e+07

>  <Rbt.Current_Directory>
/home/itssahil/PROJECTS/Mol_Feturizer/New_Systems/rnas/2fcz

>  <Rbt.Executable>
rbdock ($Id: //depot/dev/client3/rdock/2013.1/src/exe/rbdock.cxx#4 $)

>  <Rbt.Library>
libRbt.so (2013.1, Build901 2013/11/27)

>  <Rbt.Parameter_File>
/export/apps/rDock/src/rDock_2013.1_src/data/scripts/dock_solv.prm

>  <Rbt.Receptor>
prm/blind_docking_60.prm

>  <SCORE>
-18.5203

>  <SCORE.INTER>
-18.5686

>  <SCORE.INTER.CONST>
1

>  <SCORE.INTER.POLAR>
-1.69443

>  <SCORE.INTER.ROT>
6

>  <SCORE.INTER.SOLV>
19.9468

>  <SCORE.INTER.VDW>
-20.9799

>  <SCORE.INTER.norm>
-0.598989

>  <SCORE.INTRA>
0.032323

>  <SCORE.INTRA.DIHEDRAL>
-7.77869

>  <SCORE.INTRA.DIHEDRAL.0>
10.8409

>  <SCORE.INTRA.POLAR>
0

>  <SCORE.INTRA.POLAR.0>
0

>  <SCORE.INTRA.REPUL>
0

>  <SCORE.INTRA.REPUL.0>
0

>  <SCORE.INTRA.SOLV>
-1.25812

>  <SCORE.INTRA.SOLV.lig_0>
-80.8302

>  <SCORE.INTRA.VDW>
4.55073

>  <SCORE.INTRA.VDW.0>
-4.23953

>  <SCORE.INTRA.norm>
0.00104268

>  <SCORE.RESTR>
0.0160128

>  <SCORE.RESTR.CAVITY>
0.0160128

>  <SCORE.RESTR.norm>
0.000516543

>  <SCORE.SYSTEM>
0

>  <SCORE.SYSTEM.CONST>
0

>  <SCORE.SYSTEM.DIHEDRAL>
0

>  <SCORE.SYSTEM.SOLV>
0

>  <SCORE.SYSTEM.norm>
0

>  <SCORE.heavy>
31

>  <SCORE.norm>
-0.597429

>  <RMSD>
7.989

$$$$
2fcz_lig
 OpenBabel11021811433D
libRbt.so/2013.1/901 2013/11/27
 31 33  0  0  0  0  0  0  0  0999 V2000
   10.0020   17.1275   34.0098 C   0  0  0  0  0  0  0  0  0  0  0  0
    5.8342   18.6151   40.9241 N   0  0  0  0  0  0  0  0  0  0  0  0
   10.3053   17.2978   32.6226 O   0  0  0  0  0  0  0  0  0  0  0  0
    8.8887   18.0990   34.4165 C   0  0  1  0  0  0  0  0  0  0  0  0
    9.8229   15.9150   41.7884 N   0  0  0  0  0  0  0  0  0  0  0  0
    8.5084   17.9264   35.7967 O   0  0  0  0  0  0  0  0  0  0  0  0
    8.9778   19.0481   36.5709 C   0  0  1  0  0  0  0  0  0  0  0  0
   12.1820   12.1314   37.8294 N   0  0  0  0  0  0  0  0  0  0  0  0
    9.5960   18.6484   37.8059 O   0  0  0  0  0  0  0  0  0  0  0  0
    8.7796   17.7956   38.6264 C   0  0  2  0  0  0  0  0  0  0  0  0
   12.0561   18.1845   40.0461 N   0  0  0  0  0  0  0  0  0  0  0  0
    6.8096   19.1670   38.3235 O   0  0  0  0  0  0  0  0  0  0  0  0
    7.6987   18.6407   39.3117 C   0  0  1  0  0  0  0  0  0  0  0  0
   10.5126   16.1010   39.0614 O   0  0  0  0  0  0  0  0  0  0  0  0
    6.8926   17.8035   40.3075 C   0  0  1  0  0  0  0  0  0  0  0  0
   12.2268   14.5166   39.4131 O   0  0  0  0  0  0  0  0  0  0  0  0
    7.8142   17.2507   41.3970 C   0  0  0  0  0  0  0  0  0  0  0  0
   14.2709   15.6266   36.5569 O   0  0  0  0  0  0  0  0  0  0  0  0
    8.8801   16.3632   40.7512 C   0  0  1  0  0  0  0  0  0  0  0  0
   14.2660   17.9539   38.2412 O   0  0  0  0  0  0  0  0  0  0  0  0
    9.6638   17.0952   39.6563 C   0  0  2  0  0  0  0  0  0  0  0  0
   10.2296   21.1008   35.9928 O   0  0  0  0  0  0  0  0  0  0  0  0
   11.6583   15.7628   39.8565 C   0  0  1  0  0  0  0  0  0  0  0  0
    8.2619   20.4454   34.1358 O   0  0  0  0  0  0  0  0  0  0  0  0
   12.7041   14.5283   38.0566 C   0  0  2  0  0  0  0  0  0  0  0  0
   13.2469   13.1385   37.7148 C   0  0  0  0  0  0  0  0  0  0  0  0
   13.8083   15.5814   37.9102 C   0  0  2  0  0  0  0  0  0  0  0  0
   13.2476   16.9501   38.3022 C   0  0  1  0  0  0  0  0  0  0  0  0
   12.6820   16.8948   39.7232 C   0  0  1  0  0  0  0  0  0  0  0  0
   10.0120   19.7240   35.6693 C   0  0  2  0  0  0  0  0  0  0  0  0
    9.3629   19.5474   34.2979 C   0  0  1  0  0  0  0  0  0  0  0  0
  3  1  1  0  0  0  0
  4  1  1  1  0  0  0
  4  6  1  0  0  0  0
  4 31  1  0  0  0  0
  6  7  1  0  0  0  0
  7  9  1  1  0  0  0
  7 30  1  0  0  0  0
 10  9  1  1  0  0  0
 10 13  1  0  0  0  0
 10 21  1  0  0  0  0
 13 12  1  6  0  0  0
 13 15  1  0  0  0  0
 15  2  1  1  0  0  0
 15 17  1  0  0  0  0
 16 25  1  0  0  0  0
 17 19  1  0  0  0  0
 19  5  1  1  0  0  0
 19 21  1  0  0  0  0
 21 14  1  6  0  0  0
 23 14  1  6  0  0  0
 23 16  1  0  0  0  0
 23 29  1  0  0  0  0
 25 26  1  1  0  0  0
 25 27  1  0  0  0  0
 26  8  1  0  0  0  0
 27 18  1  6  0  0  0
 27 28  1  0  0  0  0
 28 20  1  1  0  0  0
 28 29  1  0  0  0  0
 29 11  1  6  0  0  0
 30 22  1  1  0  0  0
 30 31  1  0  0  0  0
 31 24  1  1  0  0  0
M  END
>  <CHROM.1>
177.60341201,-53.68630197,-76.07025191,159.07035359,162.86897289,60.95078906
10.30799306,17.28035344,37.85042166,-2.49645484,-0.59568257,1.95692256

>  <Name>
2fcz_lig

>  <RI>
2.76032e+07

>  <Rbt.Current_Directory>
/home/itssahil/PROJECTS/Mol_Feturizer/New_Systems/rnas/2fcz

>  <Rbt.Executable>
rbdock ($Id: //depot/dev/client3/rdock/2013.1/src/exe/rbdock.cxx#4 $)

>  <Rbt.Library>
libRbt.so (2013.1, Build901 2013/11/27)

>  <Rbt.Parameter_File>
/export/apps/rDock/src/rDock_2013.1_src/data/scripts/dock_solv.prm

>  <Rbt.Receptor>
prm/pocket_docking_8.prm

>  <SCORE>
-13.5093

>  <SCORE.INTER>
-14.3512

>  <SCORE.INTER.CONST>
1

>  <SCORE.INTER.POLAR>
-2.4969

>  <SCORE.INTER.ROT>
6

>  <SCORE.INTER.SOLV>
10.2762

>  <SCORE.INTER.VDW>
-12.2699

>  <SCORE.INTER.norm>
-0.462941

>  <SCORE.INTRA>
0.841829

>  <SCORE.INTRA.DIHEDRAL>
-6.00562

>  <SCORE.INTRA.DIHEDRAL.0>
10.8409

>  <SCORE.INTRA.POLAR>
0

>  <SCORE.INTRA.POLAR.0>
0

>  <SCORE.INTRA.REPUL>
0

>  <SCORE.INTRA.REPUL.0>
0

>  <SCORE.INTRA.SOLV>
0.376616

>  <SCORE.INTRA.SOLV.lig_0>
-80.8302

>  <SCORE.INTRA.VDW>
3.65633

>  <SCORE.INTRA.VDW.0>
-4.23953

>  <SCORE.INTRA.norm>
0.0271558

>  <SCORE.RESTR>
0

>  <SCORE.RESTR.CAVITY>
0

>  <SCORE.RESTR.norm>
0

>  <SCORE.SYSTEM>
0

>  <SCORE.SYSTEM.CONST>
0

>  <SCORE.SYSTEM.DIHEDRAL>
0

>  <SCORE.SYSTEM.SOLV>
0

>  <SCORE.SYSTEM.norm>
0

>  <SCORE.heavy>
31

>  <SCORE.norm>
-0.435785

>  <RMSD>
8.049

$$$$
2fcz_lig
 OpenBabel11021811433D
libRbt.so/2013.1/901 2013/11/27
 31 33  0  0  0  0  0  0  0  0999 V2000
   17.5831   24.2952   29.8798 C   0  0  0  0  0  0  0  0  0  0  0  0
    9.6841   22.1932   27.4045 N   0  0  0  0  0  0  0  0  0  0  0  0
   16.8403   23.7484   28.7868 O   0  0  0  0  0  0  0  0  0  0  0  0
   16.7777   24.1467   31.1751 C   0  0  1  0  0  0  0  0  0  0  0  0
    9.3964   22.7077   32.2625 N   0  0  0  0  0  0  0  0  0  0  0  0
   15.4566   24.7110   31.0492 O   0  0  0  0  0  0  0  0  0  0  0  0
   14.4811   23.6508   31.0020 C   0  0  1  0  0  0  0  0  0  0  0  0
    8.8867   20.5252   34.4621 N   0  0  0  0  0  0  0  0  0  0  0  0
   13.4989   23.8478   29.9705 O   0  0  0  0  0  0  0  0  0  0  0  0
   12.4467   22.8682   29.9617 C   0  0  2  0  0  0  0  0  0  0  0  0
   13.9801   24.3503   33.7685 N   0  0  0  0  0  0  0  0  0  0  0  0
   12.4718   22.6689   27.5506 O   0  0  0  0  0  0  0  0  0  0  0  0
   11.6409   23.0065   28.6641 C   0  0  1  0  0  0  0  0  0  0  0  0
   12.2117   22.7030   32.4074 O   0  0  0  0  0  0  0  0  0  0  0  0
   10.4217   22.0814   28.6705 C   0  0  1  0  0  0  0  0  0  0  0  0
   10.7230   22.6022   34.2367 O   0  0  0  0  0  0  0  0  0  0  0  0
    9.4963   22.4392   29.8355 C   0  0  0  0  0  0  0  0  0  0  0  0
   12.8218   20.3189   36.2240 O   0  0  0  0  0  0  0  0  0  0  0  0
   10.2562   22.2675   31.1523 C   0  0  1  0  0  0  0  0  0  0  0  0
   14.4897   22.6485   36.0133 O   0  0  0  0  0  0  0  0  0  0  0  0
   11.5567   23.0776   31.1853 C   0  0  2  0  0  0  0  0  0  0  0  0
   14.6508   21.1861   31.1069 O   0  0  0  0  0  0  0  0  0  0  0  0
   11.7212   23.3936   33.5657 C   0  0  1  0  0  0  0  0  0  0  0  0
   16.3227   22.4877   32.9124 O   0  0  0  0  0  0  0  0  0  0  0  0
   11.1973   21.3371   34.7293 C   0  0  2  0  0  0  0  0  0  0  0  0
   10.0293   20.5960   35.3846 C   0  0  0  0  0  0  0  0  0  0  0  0
   12.3179   21.5710   35.7487 C   0  0  2  0  0  0  0  0  0  0  0  0
   13.4488   22.3524   35.0765 C   0  0  1  0  0  0  0  0  0  0  0  0
   12.9066   23.6616   34.4985 C   0  0  1  0  0  0  0  0  0  0  0  0
   15.3011   22.3949   30.7028 C   0  0  2  0  0  0  0  0  0  0  0  0
   16.5648   22.6716   31.5151 C   0  0  1  0  0  0  0  0  0  0  0  0
  3  1  1  0  0  0  0
  4  1  1  6  0  0  0
  4  6  1  0  0  0  0
  4 31  1  0  0  0  0
  6  7  1  0  0  0  0
  7  9  1  6  0  0  0
  7 30  1  0  0  0  0
 10  9  1  6  0  0  0
 10 13  1  0  0  0  0
 10 21  1  0  0  0  0
 13 12  1  6  0  0  0
 13 15  1  0  0  0  0
 15  2  1  6  0  0  0
 15 17  1  0  0  0  0
 16 25  1  0  0  0  0
 17 19  1  0  0  0  0
 19  5  1  1  0  0  0
 19 21  1  0  0  0  0
 21 14  1  1  0  0  0
 23 14  1  6  0  0  0
 23 16  1  0  0  0  0
 23 29  1  0  0  0  0
 25 26  1  1  0  0  0
 25 27  1  0  0  0  0
 26  8  1  0  0  0  0
 27 18  1  6  0  0  0
 27 28  1  0  0  0  0
 28 20  1  1  0  0  0
 28 29  1  0  0  0  0
 29 11  1  6  0  0  0
 30 22  1  1  0  0  0
 30 31  1  0  0  0  0
 31 24  1  1  0  0  0
M  END
>  <CHROM.1>
-53.78012688,-175.21020517,-168.31132808,153.64410109,95.51529133,52.50048853
12.93629226,22.66024102,31.96702113,-0.90604713,0.23691387,1.73738867

>  <Name>
2fcz_lig

>  <RI>
1.40544e+07

>  <Rbt.Current_Directory>
/home/itssahil/PROJECTS/Mol_Feturizer/New_Systems/rnas/2fcz

>  <Rbt.Executable>
rbdock ($Id: //depot/dev/client3/rdock/2013.1/src/exe/rbdock.cxx#4 $)

>  <Rbt.Library>
libRbt.so (2013.1, Build901 2013/11/27)

>  <Rbt.Parameter_File>
/export/apps/rDock/src/rDock_2013.1_src/data/scripts/dock_solv.prm

>  <Rbt.Receptor>
prm/blind_docking_100.prm

>  <SCORE>
-18.9282

>  <SCORE.INTER>
-22.9529

>  <SCORE.INTER.CONST>
1

>  <SCORE.INTER.POLAR>
-2.09434

>  <SCORE.INTER.ROT>
6

>  <SCORE.INTER.SOLV>
15.1939

>  <SCORE.INTER.VDW>
-20.9854

>  <SCORE.INTER.norm>
-0.740415

>  <SCORE.INTRA>
4.02472

>  <SCORE.INTRA.DIHEDRAL>
-2.09669

>  <SCORE.INTRA.DIHEDRAL.0>
10.8409

>  <SCORE.INTRA.POLAR>
0

>  <SCORE.INTRA.POLAR.0>
0

>  <SCORE.INTRA.REPUL>
0

>  <SCORE.INTRA.REPUL.0>
0

>  <SCORE.INTRA.SOLV>
5.97729

>  <SCORE.INTRA.SOLV.lig_0>
-80.8302

>  <SCORE.INTRA.VDW>
2.08442

>  <SCORE.INTRA.VDW.0>
-4.23953

>  <SCORE.INTRA.norm>
0.12983

>  <SCORE.RESTR>
0

>  <SCORE.RESTR.CAVITY>
0

>  <SCORE.RESTR.norm>
0

>  <SCORE.SYSTEM>
0

>  <SCORE.SYSTEM.CONST>
0

>  <SCORE.SYSTEM.DIHEDRAL>
0

>  <SCORE.SYSTEM.SOLV>
0

>  <SCORE.SYSTEM.norm>
0

>  <SCORE.heavy>
31

>  <SCORE.norm>
-0.610586

>  <RMSD>
8.050

$$$$
2fcz_lig
 OpenBabel11021811433D
libRbt.so/2013.1/901 2013/11/27
 31 33  0  0  0  0  0  0  0  0999 V2000
   13.9072   20.1551   36.2721 C   0  0  0  0  0  0  0  0  0  0  0  0
   10.2462   22.7344   31.6173 N   0  0  0  0  0  0  0  0  0  0  0  0
   14.3211   19.1461   37.1974 O   0  0  0  0  0  0  0  0  0  0  0  0
   13.8039   19.5534   34.8665 C   0  0  1  0  0  0  0  0  0  0  0  0
   13.6688   22.0250   28.1923 N   0  0  0  0  0  0  0  0  0  0  0  0
   13.5123   20.5600   33.8758 O   0  0  0  0  0  0  0  0  0  0  0  0
   14.6806   20.7910   33.0637 C   0  0  1  0  0  0  0  0  0  0  0  0
   16.2573   24.1440   34.2702 N   0  0  0  0  0  0  0  0  0  0  0  0
   14.9417   22.1893   32.8545 O   0  0  0  0  0  0  0  0  0  0  0  0
   14.0584   22.8209   31.9123 C   0  0  2  0  0  0  0  0  0  0  0  0
   16.6944   24.1867   27.8411 N   0  0  0  0  0  0  0  0  0  0  0  0
   12.2916   23.0852   33.5440 O   0  0  0  0  0  0  0  0  0  0  0  0
   12.6073   22.4903   32.2828 C   0  0  1  0  0  0  0  0  0  0  0  0
   15.6447   22.8433   30.0289 O   0  0  0  0  0  0  0  0  0  0  0  0
   11.6338   23.0208   31.2277 C   0  0  1  0  0  0  0  0  0  0  0  0
   16.0207   24.6721   31.4735 O   0  0  0  0  0  0  0  0  0  0  0  0
   11.9276   22.3777   29.8706 C   0  0  0  0  0  0  0  0  0  0  0  0
   19.6615   24.1572   31.6906 O   0  0  0  0  0  0  0  0  0  0  0  0
   13.3561   22.7264   29.4476 C   0  0  1  0  0  0  0  0  0  0  0  0
   19.2956   24.7388   28.9012 O   0  0  0  0  0  0  0  0  0  0  0  0
   14.3913   22.3284   30.5053 C   0  0  2  0  0  0  0  0  0  0  0  0
   16.9550   19.8206   33.0519 O   0  0  0  0  0  0  0  0  0  0  0  0
   15.7578   24.2712   30.1159 C   0  0  1  0  0  0  0  0  0  0  0  0
   14.9483   17.9307   33.4400 O   0  0  0  0  0  0  0  0  0  0  0  0
   17.2525   24.1663   32.0165 C   0  0  2  0  0  0  0  0  0  0  0  0
   17.3825   24.6421   33.4656 C   0  0  0  0  0  0  0  0  0  0  0  0
   18.4306   24.6789   31.1806 C   0  0  2  0  0  0  0  0  0  0  0  0
   18.2479   24.2258   29.7305 C   0  0  1  0  0  0  0  0  0  0  0  0
   16.9000   24.7157   29.1966 C   0  0  1  0  0  0  0  0  0  0  0  0
   15.8257   20.1641   33.8607 C   0  0  2  0  0  0  0  0  0  0  0  0
   15.1351   18.9325   34.4433 C   0  0  1  0  0  0  0  0  0  0  0  0
  3  1  1  0  0  0  0
  4  1  1  1  0  0  0
  4  6  1  0  0  0  0
  4 31  1  0  0  0  0
  6  7  1  0  0  0  0
  7  9  1  1  0  0  0
  7 30  1  0  0  0  0
 10  9  1  1  0  0  0
 10 13  1  0  0  0  0
 10 21  1  0  0  0  0
 13 12  1  1  0  0  0
 13 15  1  0  0  0  0
 15  2  1  1  0  0  0
 15 17  1  0  0  0  0
 16 25  1  0  0  0  0
 17 19  1  0  0  0  0
 19  5  1  6  0  0  0
 19 21  1  0  0  0  0
 21 14  1  6  0  0  0
 23 14  1  1  0  0  0
 23 16  1  0  0  0  0
 23 29  1  0  0  0  0
 25 26  1  1  0  0  0
 25 27  1  0  0  0  0
 26  8  1  0  0  0  0
 27 18  1  1  0  0  0
 27 28  1  0  0  0  0
 28 20  1  6  0  0  0
 28 29  1  0  0  0  0
 29 11  1  6  0  0  0
 30 22  1  6  0  0  0
 30 31  1  0  0  0  0
 31 24  1  6  0  0  0
M  END
>  <CHROM.1>
-174.53228847,-75.08674342,50.17398337,-52.59957073,76.84948730,60.20023292
15.18093021,22.37175999,32.01898434,-2.09048397,-0.23456287,-0.96335011

>  <Name>
2fcz_lig

>  <RI>
1.40544e+07

>  <Rbt.Current_Directory>
/home/itssahil/PROJECTS/Mol_Feturizer/New_Systems/rnas/2fcz

>  <Rbt.Executable>
rbdock ($Id: //depot/dev/client3/rdock/2013.1/src/exe/rbdock.cxx#4 $)

>  <Rbt.Library>
libRbt.so (2013.1, Build901 2013/11/27)

>  <Rbt.Parameter_File>
/export/apps/rDock/src/rDock_2013.1_src/data/scripts/dock_solv.prm

>  <Rbt.Receptor>
prm/blind_docking_100.prm

>  <SCORE>
-18.9333

>  <SCORE.INTER>
-19.1492

>  <SCORE.INTER.CONST>
1

>  <SCORE.INTER.POLAR>
-1.69443

>  <SCORE.INTER.ROT>
6

>  <SCORE.INTER.SOLV>
19.346

>  <SCORE.INTER.VDW>
-21.1667

>  <SCORE.INTER.norm>
-0.617716

>  <SCORE.INTRA>
0.215917

>  <SCORE.INTRA.DIHEDRAL>
-7.48761

>  <SCORE.INTRA.DIHEDRAL.0>
10.8409

>  <SCORE.INTRA.POLAR>
0

>  <SCORE.INTRA.POLAR.0>
0

>  <SCORE.INTRA.REPUL>
0

>  <SCORE.INTRA.REPUL.0>
0

>  <SCORE.INTRA.SOLV>
0.51073

>  <SCORE.INTRA.SOLV.lig_0>
-80.8302

>  <SCORE.INTRA.VDW>
3.70436

>  <SCORE.INTRA.VDW.0>
-4.23953

>  <SCORE.INTRA.norm>
0.00696506

>  <SCORE.RESTR>
0

>  <SCORE.RESTR.CAVITY>
0

>  <SCORE.RESTR.norm>
0

>  <SCORE.SYSTEM>
0

>  <SCORE.SYSTEM.CONST>
0

>  <SCORE.SYSTEM.DIHEDRAL>
0

>  <SCORE.SYSTEM.SOLV>
0

>  <SCORE.SYSTEM.norm>
0

>  <SCORE.heavy>
31

>  <SCORE.norm>
-0.610751

>  <RMSD>
8.070

$$$$
2fcz_lig
 OpenBabel11021811433D
libRbt.so/2013.1/901 2013/11/27
 31 33  0  0  0  0  0  0  0  0999 V2000
   14.6809   18.7739   35.6814 C   0  0  0  0  0  0  0  0  0  0  0  0
   10.4620   22.4461   32.0821 N   0  0  0  0  0  0  0  0  0  0  0  0
   15.0607   17.5371   36.2909 O   0  0  0  0  0  0  0  0  0  0  0  0
   14.4894   18.5681   34.1749 C   0  0  1  0  0  0  0  0  0  0  0  0
   13.6543   22.3956   28.3735 N   0  0  0  0  0  0  0  0  0  0  0  0
   14.0297   19.7714   33.5266 O   0  0  0  0  0  0  0  0  0  0  0  0
   15.0944   20.3275   32.7298 C   0  0  1  0  0  0  0  0  0  0  0  0
   16.5728   25.9813   34.0614 N   0  0  0  0  0  0  0  0  0  0  0  0
   15.2286   21.7489   32.8997 O   0  0  0  0  0  0  0  0  0  0  0  0
   14.2852   22.5261   32.1429 C   0  0  2  0  0  0  0  0  0  0  0  0
   17.0426   24.3988   28.2551 N   0  0  0  0  0  0  0  0  0  0  0  0
   12.6284   22.4760   33.9054 O   0  0  0  0  0  0  0  0  0  0  0  0
   12.8616   22.1174   32.5412 C   0  0  1  0  0  0  0  0  0  0  0  0
   15.7452   22.9007   30.1956 O   0  0  0  0  0  0  0  0  0  0  0  0
   11.8209   22.8140   31.6613 C   0  0  1  0  0  0  0  0  0  0  0  0
   15.8393   24.6551   31.7722 O   0  0  0  0  0  0  0  0  0  0  0  0
   12.0261   22.4245   30.1957 C   0  0  0  0  0  0  0  0  0  0  0  0
   19.4294   24.2431   32.4861 O   0  0  0  0  0  0  0  0  0  0  0  0
   13.4236   22.8601   29.7506 C   0  0  1  0  0  0  0  0  0  0  0  0
   19.4424   24.9710   29.7070 O   0  0  0  0  0  0  0  0  0  0  0  0
   14.5260   22.2943   30.6525 C   0  0  2  0  0  0  0  0  0  0  0  0
   17.4238   19.6255   32.2870 O   0  0  0  0  0  0  0  0  0  0  0  0
   15.7886   24.3242   30.3719 C   0  0  1  0  0  0  0  0  0  0  0  0
   15.6109   17.5130   32.2759 O   0  0  0  0  0  0  0  0  0  0  0  0
   17.0000   24.1581   32.4605 C   0  0  2  0  0  0  0  0  0  0  0  0
   16.9033   24.5543   33.9359 C   0  0  0  0  0  0  0  0  0  0  0  0
   18.2642   24.7542   31.8313 C   0  0  2  0  0  0  0  0  0  0  0  0
   18.3081   24.3790   30.3485 C   0  0  1  0  0  0  0  0  0  0  0  0
   17.0318   24.8559   29.6516 C   0  0  1  0  0  0  0  0  0  0  0  0
   16.3542   19.6243   33.2375 C   0  0  2  0  0  0  0  0  0  0  0  0
   15.8169   18.2191   33.5023 C   0  0  1  0  0  0  0  0  0  0  0  0
  3  1  1  0  0  0  0
  4  1  1  1  0  0  0
  4  6  1  0  0  0  0
  4 31  1  0  0  0  0
  6  7  1  0  0  0  0
  7  9  1  1  0  0  0
  7 30  1  0  0  0  0
 10  9  1  1  0  0  0
 10 13  1  0  0  0  0
 10 21  1  0  0  0  0
 13 12  1  1  0  0  0
 13 15  1  0  0  0  0
 15  2  1  1  0  0  0
 15 17  1  0  0  0  0
 16 25  1  0  0  0  0
 17 19  1  0  0  0  0
 19  5  1  6  0  0  0
 19 21  1  0  0  0  0
 21 14  1  6  0  0  0
 23 14  1  1  0  0  0
 23 16  1  0  0  0  0
 23 29  1  0  0  0  0
 25 26  1  1  0  0  0
 25 27  1  0  0  0  0
 26  8  1  0  0  0  0
 27 18  1  1  0  0  0
 27 28  1  0  0  0  0
 28 20  1  6  0  0  0
 28 29  1  0  0  0  0
 29 11  1  6  0  0  0
 30 22  1  6  0  0  0
 30 31  1  0  0  0  0
 31 24  1  6  0  0  0
M  END
>  <CHROM.1>
176.64586149,-80.19068303,58.15825756,-60.22932025,67.79553001,-48.56262598
15.41257459,22.16921133,32.06240787,-2.00059221,-0.22321192,-0.64484305

>  <Name>
2fcz_lig

>  <RI>
0

>  <Rbt.Current_Directory>
/home/itssahil/PROJECTS/Mol_Feturizer/New_Systems/rnas/2fcz

>  <Rbt.Executable>
rbdock ($Id: //depot/dev/client3/rdock/2013.1/src/exe/rbdock.cxx#4 $)

>  <Rbt.Library>
libRbt.so (2013.1, Build901 2013/11/27)

>  <Rbt.Parameter_File>
/export/apps/rDock/src/rDock_2013.1_src/data/scripts/dock_solv.prm

>  <Rbt.Receptor>
prm/blind_docking_80.prm

>  <SCORE>
-18.749

>  <SCORE.INTER>
-17.7169

>  <SCORE.INTER.CONST>
1

>  <SCORE.INTER.POLAR>
-0.8

>  <SCORE.INTER.ROT>
6

>  <SCORE.INTER.SOLV>
19.1076

>  <SCORE.INTER.VDW>
-23.1138

>  <SCORE.INTER.norm>
-0.571514

>  <SCORE.INTRA>
-1.03646

>  <SCORE.INTRA.DIHEDRAL>
-8.07547

>  <SCORE.INTRA.DIHEDRAL.0>
10.8409

>  <SCORE.INTRA.POLAR>
0

>  <SCORE.INTRA.POLAR.0>
0

>  <SCORE.INTRA.REPUL>
0

>  <SCORE.INTRA.REPUL.0>
0

>  <SCORE.INTRA.SOLV>
-1.51882

>  <SCORE.INTRA.SOLV.lig_0>
-80.8302

>  <SCORE.INTRA.VDW>
3.76068

>  <SCORE.INTRA.VDW.0>
-4.23953

>  <SCORE.INTRA.norm>
-0.0334342

>  <SCORE.RESTR>
0.00439469

>  <SCORE.RESTR.CAVITY>
0.00439469

>  <SCORE.RESTR.norm>
0.000141764

>  <SCORE.SYSTEM>
0

>  <SCORE.SYSTEM.CONST>
0

>  <SCORE.SYSTEM.DIHEDRAL>
0

>  <SCORE.SYSTEM.SOLV>
0

>  <SCORE.SYSTEM.norm>
0

>  <SCORE.heavy>
31

>  <SCORE.norm>
-0.604806

>  <RMSD>
8.146

$$$$
2fcz_lig
 OpenBabel11021811433D
libRbt.so/2013.1/901 2013/11/27
 31 33  0  0  0  0  0  0  0  0999 V2000
   14.6416   18.7854   35.7444 C   0  0  0  0  0  0  0  0  0  0  0  0
   10.5072   22.4660   32.2002 N   0  0  0  0  0  0  0  0  0  0  0  0
   14.9802   17.5446   36.3701 O   0  0  0  0  0  0  0  0  0  0  0  0
   14.4614   18.5700   34.2379 C   0  0  1  0  0  0  0  0  0  0  0  0
   13.6429   22.4055   28.4437 N   0  0  0  0  0  0  0  0  0  0  0  0
   14.0334   19.7767   33.5742 O   0  0  0  0  0  0  0  0  0  0  0  0
   15.1175   20.3036   32.7838 C   0  0  1  0  0  0  0  0  0  0  0  0
   16.2457   23.9802   34.5496 N   0  0  0  0  0  0  0  0  0  0  0  0
   15.2792   21.7234   32.9427 O   0  0  0  0  0  0  0  0  0  0  0  0
   14.3314   22.5124   32.2038 C   0  0  2  0  0  0  0  0  0  0  0  0
   16.7890   24.4016   28.1530 N   0  0  0  0  0  0  0  0  0  0  0  0
   12.7010   22.4683   33.9908 O   0  0  0  0  0  0  0  0  0  0  0  0
   12.9105   22.1142   32.6216 C   0  0  1  0  0  0  0  0  0  0  0  0
   15.7652   22.8836   30.2365 O   0  0  0  0  0  0  0  0  0  0  0  0
   11.8629   22.8240   31.7607 C   0  0  1  0  0  0  0  0  0  0  0  0
   16.0523   24.6302   31.7984 O   0  0  0  0  0  0  0  0  0  0  0  0
   12.0426   22.4398   30.2904 C   0  0  0  0  0  0  0  0  0  0  0  0
   19.7074   24.2408   32.0363 O   0  0  0  0  0  0  0  0  0  0  0  0
   13.4370   22.8654   29.8263 C   0  0  1  0  0  0  0  0  0  0  0  0
   19.3536   24.9837   29.2838 O   0  0  0  0  0  0  0  0  0  0  0  0
   14.5478   22.2857   30.7088 C   0  0  2  0  0  0  0  0  0  0  0  0
   17.4363   19.5500   32.3716 O   0  0  0  0  0  0  0  0  0  0  0  0
   15.8219   24.3064   30.4146 C   0  0  1  0  0  0  0  0  0  0  0  0
   15.5805   17.4751   32.3600 O   0  0  0  0  0  0  0  0  0  0  0  0
   17.2960   24.1380   32.3267 C   0  0  2  0  0  0  0  0  0  0  0  0
   17.3896   24.5257   33.8045 C   0  0  0  0  0  0  0  0  0  0  0  0
   18.4636   24.7468   31.5420 C   0  0  2  0  0  0  0  0  0  0  0  0
   18.3165   24.3799   30.0638 C   0  0  1  0  0  0  0  0  0  0  0  0
   16.9572   24.8512   29.5420 C   0  0  1  0  0  0  0  0  0  0  0  0
   16.3572   19.5792   33.3109 C   0  0  2  0  0  0  0  0  0  0  0  0
   15.7884   18.1878   33.5822 C   0  0  1  0  0  0  0  0  0  0  0  0
  3  1  1  0  0  0  0
  4  1  1  1  0  0  0
  4  6  1  0  0  0  0
  4 31  1  0  0  0  0
  6  7  1  0  0  0  0
  7  9  1  1  0  0  0
  7 30  1  0  0  0  0
 10  9  1  1  0  0  0
 10 13  1  0  0  0  0
 10 21  1  0  0  0  0
 13 12  1  1  0  0  0
 13 15  1  0  0  0  0
 15  2  1  1  0  0  0
 15 17  1  0  0  0  0
 16 25  1  0  0  0  0
 17 19  1  0  0  0  0
 19  5  1  6  0  0  0
 19 21  1  0  0  0  0
 21 14  1  6  0  0  0
 23 14  1  1  0  0  0
 23 16  1  0  0  0  0
 23 29  1  0  0  0  0
 25 26  1  1  0  0  0
 25 27  1  0  0  0  0
 26  8  1  0  0  0  0
 27 18  1  1  0  0  0
 27 28  1  0  0  0  0
 28 20  1  6  0  0  0
 28 29  1  0  0  0  0
 29 11  1  6  0  0  0
 30 22  1  6  0  0  0
 30 31  1  0  0  0  0
 31 24  1  6  0  0  0
M  END
>  <CHROM.1>
176.23871110,-78.23197856,57.28164255,-60.43211566,74.55513661,57.93868199
15.44419287,22.09588145,32.06374807,-2.00440852,-0.17290187,-0.69692386

>  <Name>
2fcz_lig

>  <RI>
0

>  <Rbt.Current_Directory>
/home/itssahil/PROJECTS/Mol_Feturizer/New_Systems/rnas/2fcz

>  <Rbt.Executable>
rbdock ($Id: //depot/dev/client3/rdock/2013.1/src/exe/rbdock.cxx#4 $)

>  <Rbt.Library>
libRbt.so (2013.1, Build901 2013/11/27)

>  <Rbt.Parameter_File>
/export/apps/rDock/src/rDock_2013.1_src/data/scripts/dock_solv.prm

>  <Rbt.Receptor>
prm/blind_docking_80.prm

>  <SCORE>
-18.631

>  <SCORE.INTER>
-17.6699

>  <SCORE.INTER.CONST>
1

>  <SCORE.INTER.POLAR>
-0.8

>  <SCORE.INTER.ROT>
6

>  <SCORE.INTER.SOLV>
18.1117

>  <SCORE.INTER.VDW>
-22.7505

>  <SCORE.INTER.norm>
-0.569996

>  <SCORE.INTRA>
-0.961163

>  <SCORE.INTRA.DIHEDRAL>
-8.09568

>  <SCORE.INTRA.DIHEDRAL.0>
10.8409

>  <SCORE.INTRA.POLAR>
0

>  <SCORE.INTRA.POLAR.0>
0

>  <SCORE.INTRA.REPUL>
0

>  <SCORE.INTRA.REPUL.0>
0

>  <SCORE.INTRA.SOLV>
0.134805

>  <SCORE.INTRA.SOLV.lig_0>
-80.8302

>  <SCORE.INTRA.VDW>
3.01928

>  <SCORE.INTRA.VDW.0>
-4.23953

>  <SCORE.INTRA.norm>
-0.0310053

>  <SCORE.RESTR>
0

>  <SCORE.RESTR.CAVITY>
0

>  <SCORE.RESTR.norm>
0

>  <SCORE.SYSTEM>
0

>  <SCORE.SYSTEM.CONST>
0

>  <SCORE.SYSTEM.DIHEDRAL>
0

>  <SCORE.SYSTEM.SOLV>
0

>  <SCORE.SYSTEM.norm>
0

>  <SCORE.heavy>
31

>  <SCORE.norm>
-0.601001

>  <RMSD>
8.148

$$$$
2fcz_lig
 OpenBabel11021811433D
libRbt.so/2013.1/901 2013/11/27
 31 33  0  0  0  0  0  0  0  0999 V2000
    7.2513   17.5792   40.9001 C   0  0  0  0  0  0  0  0  0  0  0  0
   13.1885   20.3120   36.1997 N   0  0  0  0  0  0  0  0  0  0  0  0
    5.8895   17.5560   41.3365 O   0  0  0  0  0  0  0  0  0  0  0  0
    7.3950   18.5366   39.7122 C   0  0  1  0  0  0  0  0  0  0  0  0
   14.7010   16.0601   38.0919 N   0  0  0  0  0  0  0  0  0  0  0  0
    8.7527   18.5860   39.2284 O   0  0  0  0  0  0  0  0  0  0  0  0
    8.8364   17.9151   37.9554 C   0  0  1  0  0  0  0  0  0  0  0  0
   12.7303   12.7983   36.0700 N   0  0  0  0  0  0  0  0  0  0  0  0
    9.9700   17.0352   37.8668 O   0  0  0  0  0  0  0  0  0  0  0  0
   11.2310   17.6662   38.1476 C   0  0  2  0  0  0  0  0  0  0  0  0
   10.9351   15.2181   41.7809 N   0  0  0  0  0  0  0  0  0  0  0  0
   10.5681   19.7516   37.1154 O   0  0  0  0  0  0  0  0  0  0  0  0
   11.5325   18.6979   37.0535 C   0  0  1  0  0  0  0  0  0  0  0  0
   12.2106   15.7735   39.3814 O   0  0  0  0  0  0  0  0  0  0  0  0
   12.9306   19.2953   37.2287 C   0  0  1  0  0  0  0  0  0  0  0  0
   11.2870   13.8765   38.3226 O   0  0  0  0  0  0  0  0  0  0  0  0
   13.9886   18.1936   37.1363 C   0  0  0  0  0  0  0  0  0  0  0  0
   13.4793   11.4626   40.0357 O   0  0  0  0  0  0  0  0  0  0  0  0
   13.7448   17.1681   38.2453 C   0  0  1  0  0  0  0  0  0  0  0  0
   12.0010   12.5981   42.2216 O   0  0  0  0  0  0  0  0  0  0  0  0
   12.3221   16.5992   38.2115 C   0  0  2  0  0  0  0  0  0  0  0  0
    7.1696   16.7756   36.5277 O   0  0  0  0  0  0  0  0  0  0  0  0
   11.0983   14.8673   39.3500 C   0  0  1  0  0  0  0  0  0  0  0  0
    6.2302   19.1435   37.6501 O   0  0  0  0  0  0  0  0  0  0  0  0
   12.4437   13.0417   38.5048 C   0  0  2  0  0  0  0  0  0  0  0  0
   12.5350   12.0654   37.3293 C   0  0  0  0  0  0  0  0  0  0  0  0
   12.3195   12.2738   39.8256 C   0  0  2  0  0  0  0  0  0  0  0  0
   12.1844   13.2756   40.9743 C   0  0  1  0  0  0  0  0  0  0  0  0
   10.9896   14.1985   40.7240 C   0  0  1  0  0  0  0  0  0  0  0  0
    7.5430   17.1031   37.8696 C   0  0  2  0  0  0  0  0  0  0  0  0
    6.5528   18.0619   38.5281 C   0  0  1  0  0  0  0  0  0  0  0  0
  3  1  1  0  0  0  0
  4  1  1  1  0  0  0
  4  6  1  0  0  0  0
  4 31  1  0  0  0  0
  6  7  1  0  0  0  0
  7  9  1  1  0  0  0
  7 30  1  0  0  0  0
 10  9  1  6  0  0  0
 10 13  1  0  0  0  0
 10 21  1  0  0  0  0
 13 12  1  1  0  0  0
 13 15  1  0  0  0  0
 15  2  1  6  0  0  0
 15 17  1  0  0  0  0
 16 25  1  0  0  0  0
 17 19  1  0  0  0  0
 19  5  1  6  0  0  0
 19 21  1  0  0  0  0
 21 14  1  1  0  0  0
 23 14  1  1  0  0  0
 23 16  1  0  0  0  0
 23 29  1  0  0  0  0
 25 26  1  6  0  0  0
 25 27  1  0  0  0  0
 26  8  1  0  0  0  0
 27 18  1  1  0  0  0
 27 28  1  0  0  0  0
 28 20  1  1  0  0  0
 28 29  1  0  0  0  0
 29 11  1  1  0  0  0
 30 22  1  6  0  0  0
 30 31  1  0  0  0  0
 31 24  1  6  0  0  0
M  END
>  <CHROM.1>
-179.53236031,-54.87794020,-66.18997130,71.54935125,66.82636903,63.03531448
10.72789946,16.23911837,38.70536200,2.37038554,0.36143788,-0.51399760

>  <Name>
2fcz_lig

>  <RI>
2.76032e+07

>  <Rbt.Current_Directory>
/home/itssahil/PROJECTS/Mol_Feturizer/New_Systems/rnas/2fcz

>  <Rbt.Executable>
rbdock ($Id: //depot/dev/client3/rdock/2013.1/src/exe/rbdock.cxx#4 $)

>  <Rbt.Library>
libRbt.so (2013.1, Build901 2013/11/27)

>  <Rbt.Parameter_File>
/export/apps/rDock/src/rDock_2013.1_src/data/scripts/dock_solv.prm

>  <Rbt.Receptor>
prm/pocket_docking_8.prm

>  <SCORE>
-16.3762

>  <SCORE.INTER>
-12.301

>  <SCORE.INTER.CONST>
1

>  <SCORE.INTER.POLAR>
-2.1491

>  <SCORE.INTER.ROT>
6

>  <SCORE.INTER.SOLV>
9.65353

>  <SCORE.INTER.VDW>
-11.8549

>  <SCORE.INTER.norm>
-0.396807

>  <SCORE.INTRA>
-4.07517

>  <SCORE.INTRA.DIHEDRAL>
-9.48478

>  <SCORE.INTRA.DIHEDRAL.0>
10.8409

>  <SCORE.INTRA.POLAR>
0

>  <SCORE.INTRA.POLAR.0>
0

>  <SCORE.INTRA.REPUL>
0

>  <SCORE.INTRA.REPUL.0>
0

>  <SCORE.INTRA.SOLV>
-3.29676

>  <SCORE.INTRA.SOLV.lig_0>
-80.8302

>  <SCORE.INTRA.VDW>
2.3156

>  <SCORE.INTRA.VDW.0>
-4.23953

>  <SCORE.INTRA.norm>
-0.131457

>  <SCORE.RESTR>
0

>  <SCORE.RESTR.CAVITY>
0

>  <SCORE.RESTR.norm>
0

>  <SCORE.SYSTEM>
0

>  <SCORE.SYSTEM.CONST>
0

>  <SCORE.SYSTEM.DIHEDRAL>
0

>  <SCORE.SYSTEM.SOLV>
0

>  <SCORE.SYSTEM.norm>
0

>  <SCORE.heavy>
31

>  <SCORE.norm>
-0.528265

>  <RMSD>
8.151

$$$$
2fcz_lig
 OpenBabel11021811433D
libRbt.so/2013.1/901 2013/11/27
 31 33  0  0  0  0  0  0  0  0999 V2000
   14.6230   18.8069   35.6898 C   0  0  0  0  0  0  0  0  0  0  0  0
   10.5074   22.4326   32.0523 N   0  0  0  0  0  0  0  0  0  0  0  0
   15.0255   17.5862   36.3170 O   0  0  0  0  0  0  0  0  0  0  0  0
   14.4669   18.5839   34.1817 C   0  0  1  0  0  0  0  0  0  0  0  0
   13.7125   22.3883   28.3546 N   0  0  0  0  0  0  0  0  0  0  0  0
   14.0365   19.7836   33.5071 O   0  0  0  0  0  0  0  0  0  0  0  0
   15.1267   20.3184   32.7304 C   0  0  1  0  0  0  0  0  0  0  0  0
   16.6058   26.0256   34.0365 N   0  0  0  0  0  0  0  0  0  0  0  0
   15.2719   21.7403   32.8858 O   0  0  0  0  0  0  0  0  0  0  0  0
   14.3302   22.5170   32.1263 C   0  0  2  0  0  0  0  0  0  0  0  0
   17.1207   24.3799   28.2521 N   0  0  0  0  0  0  0  0  0  0  0  0
   12.6675   22.4637   33.8830 O   0  0  0  0  0  0  0  0  0  0  0  0
   12.9058   22.1063   32.5194 C   0  0  1  0  0  0  0  0  0  0  0  0
   15.7965   22.8946   30.1843 O   0  0  0  0  0  0  0  0  0  0  0  0
   11.8673   22.8023   31.6364 C   0  0  1  0  0  0  0  0  0  0  0  0
   15.8579   24.6636   31.7462 O   0  0  0  0  0  0  0  0  0  0  0  0
   12.0780   22.4141   30.1713 C   0  0  0  0  0  0  0  0  0  0  0  0
   19.4369   24.2717   32.5237 O   0  0  0  0  0  0  0  0  0  0  0  0
   13.4765   22.8516   29.7313 C   0  0  1  0  0  0  0  0  0  0  0  0
   19.4938   24.9744   29.7387 O   0  0  0  0  0  0  0  0  0  0  0  0
   14.5765   22.2864   30.6365 C   0  0  2  0  0  0  0  0  0  0  0  0
   17.4587   19.5864   32.3549 O   0  0  0  0  0  0  0  0  0  0  0  0
   15.8318   24.3197   30.3483 C   0  0  1  0  0  0  0  0  0  0  0  0
   15.6241   17.4930   32.3248 O   0  0  0  0  0  0  0  0  0  0  0  0
   17.0087   24.1772   32.4583 C   0  0  2  0  0  0  0  0  0  0  0  0
   16.8859   24.5865   33.9282 C   0  0  0  0  0  0  0  0  0  0  0  0
   18.2811   24.7723   31.8449 C   0  0  2  0  0  0  0  0  0  0  0  0
   18.3511   24.3839   30.3665 C   0  0  1  0  0  0  0  0  0  0  0  0
   17.0850   24.8497   29.6441 C   0  0  1  0  0  0  0  0  0  0  0  0
   16.3658   19.6085   33.2783 C   0  0  2  0  0  0  0  0  0  0  0  0
   15.8070   18.2125   33.5470 C   0  0  1  0  0  0  0  0  0  0  0  0
  3  1  1  0  0  0  0
  4  1  1  1  0  0  0
  4  6  1  0  0  0  0
  4 31  1  0  0  0  0
  6  7  1  0  0  0  0
  7  9  1  1  0  0  0
  7 30  1  0  0  0  0
 10  9  1  1  0  0  0
 10 13  1  0  0  0  0
 10 21  1  0  0  0  0
 13 12  1  1  0  0  0
 13 15  1  0  0  0  0
 15  2  1  1  0  0  0
 15 17  1  0  0  0  0
 16 25  1  0  0  0  0
 17 19  1  0  0  0  0
 19  5  1  6  0  0  0
 19 21  1  0  0  0  0
 21 14  1  6  0  0  0
 23 14  1  1  0  0  0
 23 16  1  0  0  0  0
 23 29  1  0  0  0  0
 25 26  1  1  0  0  0
 25 27  1  0  0  0  0
 26  8  1  0  0  0  0
 27 18  1  1  0  0  0
 27 28  1  0  0  0  0
 28 20  1  6  0  0  0
 28 29  1  0  0  0  0
 29 11  1  6  0  0  0
 30 22  1  6  0  0  0
 30 31  1  0  0  0  0
 31 24  1  6  0  0  0
M  END
>  <CHROM.1>
178.91404585,-78.44504886,57.25282675,-60.87469050,67.30379204,-51.01785263
15.43933174,22.17071835,32.06331700,-2.00674209,-0.23519035,-0.65172649

>  <Name>
2fcz_lig

>  <RI>
0

>  <Rbt.Current_Directory>
/home/itssahil/PROJECTS/Mol_Feturizer/New_Systems/rnas/2fcz

>  <Rbt.Executable>
rbdock ($Id: //depot/dev/client3/rdock/2013.1/src/exe/rbdock.cxx#4 $)

>  <Rbt.Library>
libRbt.so (2013.1, Build901 2013/11/27)

>  <Rbt.Parameter_File>
/export/apps/rDock/src/rDock_2013.1_src/data/scripts/dock_solv.prm

>  <Rbt.Receptor>
prm/blind_docking_80.prm

>  <SCORE>
-18.8396

>  <SCORE.INTER>
-17.7383

>  <SCORE.INTER.CONST>
1

>  <SCORE.INTER.POLAR>
-0.8

>  <SCORE.INTER.ROT>
6

>  <SCORE.INTER.SOLV>
19.2349

>  <SCORE.INTER.VDW>
-23.1705

>  <SCORE.INTER.norm>
-0.572204

>  <SCORE.INTRA>
-1.11882

>  <SCORE.INTRA.DIHEDRAL>
-8.56852

>  <SCORE.INTRA.DIHEDRAL.0>
10.8409

>  <SCORE.INTRA.POLAR>
0

>  <SCORE.INTRA.POLAR.0>
0

>  <SCORE.INTRA.REPUL>
0

>  <SCORE.INTRA.REPUL.0>
0

>  <SCORE.INTRA.SOLV>
-1.48506

>  <SCORE.INTRA.SOLV.lig_0>
-80.8302

>  <SCORE.INTRA.VDW>
3.90797

>  <SCORE.INTRA.VDW.0>
-4.23953

>  <SCORE.INTRA.norm>
-0.036091

>  <SCORE.RESTR>
0.0175033

>  <SCORE.RESTR.CAVITY>
0.0175033

>  <SCORE.RESTR.norm>
0.000564622

>  <SCORE.SYSTEM>
0

>  <SCORE.SYSTEM.CONST>
0

>  <SCORE.SYSTEM.DIHEDRAL>
0

>  <SCORE.SYSTEM.SOLV>
0

>  <SCORE.SYSTEM.norm>
0

>  <SCORE.heavy>
31

>  <SCORE.norm>
-0.607731

>  <RMSD>
8.161

$$$$
2fcz_lig
 OpenBabel11021811433D
libRbt.so/2013.1/901 2013/11/27
 31 33  0  0  0  0  0  0  0  0999 V2000
   10.6362   23.3481   30.4072 C   0  0  0  0  0  0  0  0  0  0  0  0
   14.9283   17.7115   34.6018 N   0  0  0  0  0  0  0  0  0  0  0  0
    9.3737   23.9395   30.0882 O   0  0  0  0  0  0  0  0  0  0  0  0
   10.4448   22.2758   31.4853 C   0  0  1  0  0  0  0  0  0  0  0  0
   18.2126   20.6447   32.4670 N   0  0  0  0  0  0  0  0  0  0  0  0
   11.6569   21.5293   31.7159 O   0  0  0  0  0  0  0  0  0  0  0  0
   12.2125   21.8937   32.9951 C   0  0  1  0  0  0  0  0  0  0  0  0
   19.5635   24.7140   33.9790 N   0  0  0  0  0  0  0  0  0  0  0  0
   13.6314   22.1190   32.9384 O   0  0  0  0  0  0  0  0  0  0  0  0
   14.4040   20.9464   32.6302 C   0  0  2  0  0  0  0  0  0  0  0  0
   15.6430   23.4267   28.8877 N   0  0  0  0  0  0  0  0  0  0  0  0
   12.8680   19.4706   33.7777 O   0  0  0  0  0  0  0  0  0  0  0  0
   14.2261   19.9167   33.7529 C   0  0  1  0  0  0  0  0  0  0  0  0
   16.1095   22.0956   31.2759 O   0  0  0  0  0  0  0  0  0  0  0  0
   15.1407   18.7077   33.5427 C   0  0  1  0  0  0  0  0  0  0  0  0
   16.2235   24.1081   32.5047 O   0  0  0  0  0  0  0  0  0  0  0  0
   16.6055   19.1502   33.5423 C   0  0  0  0  0  0  0  0  0  0  0  0
   19.5623   25.0453   31.2630 O   0  0  0  0  0  0  0  0  0  0  0  0
   16.8297   20.1459   32.4025 C   0  0  1  0  0  0  0  0  0  0  0  0
   17.9929   25.0612   28.8568 O   0  0  0  0  0  0  0  0  0  0  0  0
   15.8715   21.3399   32.4738 C   0  0  2  0  0  0  0  0  0  0  0  0
   11.4982   23.4627   34.7678 O   0  0  0  0  0  0  0  0  0  0  0  0
   15.6632   23.4575   31.3489 C   0  0  1  0  0  0  0  0  0  0  0  0
    9.3985   21.9961   33.6772 O   0  0  0  0  0  0  0  0  0  0  0  0
   17.6595   24.1852   32.5077 C   0  0  2  0  0  0  0  0  0  0  0  0
   18.1121   24.8663   33.8016 C   0  0  0  0  0  0  0  0  0  0  0  0
   18.1329   24.9875   31.2904 C   0  0  2  0  0  0  0  0  0  0  0  0
   17.6266   24.3071   30.0168 C   0  0  1  0  0  0  0  0  0  0  0  0
   16.1030   24.1726   30.0673 C   0  0  1  0  0  0  0  0  0  0  0  0
   11.4961   23.1942   33.3624 C   0  0  2  0  0  0  0  0  0  0  0  0
   10.0925   22.9145   32.8287 C   0  0  1  0  0  0  0  0  0  0  0  0
  3  1  1  0  0  0  0
  4  1  1  6  0  0  0
  4  6  1  0  0  0  0
  4 31  1  0  0  0  0
  6  7  1  0  0  0  0
  7  9  1  6  0  0  0
  7 30  1  0  0  0  0
 10  9  1  1  0  0  0
 10 13  1  0  0  0  0
 10 21  1  0  0  0  0
 13 12  1  6  0  0  0
 13 15  1  0  0  0  0
 15  2  1  1  0  0  0
 15 17  1  0  0  0  0
 16 25  1  0  0  0  0
 17 19  1  0  0  0  0
 19  5  1  1  0  0  0
 19 21  1  0  0  0  0
 21 14  1  6  0  0  0
 23 14  1  6  0  0  0
 23 16  1  0  0  0  0
 23 29  1  0  0  0  0
 25 26  1  1  0  0  0
 25 27  1  0  0  0  0
 26  8  1  0  0  0  0
 27 18  1  6  0  0  0
 27 28  1  0  0  0  0
 28 20  1  6  0  0  0
 28 29  1  0  0  0  0
 29 11  1  6  0  0  0
 30 22  1  1  0  0  0
 30 31  1  0  0  0  0
 31 24  1  1  0  0  0
M  END
>  <CHROM.1>
172.41256178,-65.60253469,-63.56057244,75.36048748,53.58340471,168.11039689
14.73110475,22.44776444,32.22875629,2.83730669,0.02143094,2.57419945

>  <Name>
2fcz_lig

>  <RI>
1.40544e+07

>  <Rbt.Current_Directory>
/home/itssahil/PROJECTS/Mol_Feturizer/New_Systems/rnas/2fcz

>  <Rbt.Executable>
rbdock ($Id: //depot/dev/client3/rdock/2013.1/src/exe/rbdock.cxx#4 $)

>  <Rbt.Library>
libRbt.so (2013.1, Build901 2013/11/27)

>  <Rbt.Parameter_File>
/export/apps/rDock/src/rDock_2013.1_src/data/scripts/dock_solv.prm

>  <Rbt.Receptor>
prm/blind_docking_100.prm

>  <SCORE>
-16.8025

>  <SCORE.INTER>
-13.9652

>  <SCORE.INTER.CONST>
1

>  <SCORE.INTER.POLAR>
-0.769978

>  <SCORE.INTER.ROT>
6

>  <SCORE.INTER.SOLV>
16.3346

>  <SCORE.INTER.VDW>
-19.7884

>  <SCORE.INTER.norm>
-0.45049

>  <SCORE.INTRA>
-2.84939

>  <SCORE.INTRA.DIHEDRAL>
-8.49592

>  <SCORE.INTRA.DIHEDRAL.0>
10.8409

>  <SCORE.INTRA.POLAR>
0

>  <SCORE.INTRA.POLAR.0>
0

>  <SCORE.INTRA.REPUL>
0

>  <SCORE.INTRA.REPUL.0>
0

>  <SCORE.INTRA.SOLV>
-2.43662

>  <SCORE.INTRA.SOLV.lig_0>
-80.8302

>  <SCORE.INTRA.VDW>
2.61688

>  <SCORE.INTRA.VDW.0>
-4.23953

>  <SCORE.INTRA.norm>
-0.0919159

>  <SCORE.RESTR>
0.0120565

>  <SCORE.RESTR.CAVITY>
0.0120565

>  <SCORE.RESTR.norm>
0.000388918

>  <SCORE.SYSTEM>
0

>  <SCORE.SYSTEM.CONST>
0

>  <SCORE.SYSTEM.DIHEDRAL>
0

>  <SCORE.SYSTEM.SOLV>
0

>  <SCORE.SYSTEM.norm>
0

>  <SCORE.heavy>
31

>  <SCORE.norm>
-0.542017

>  <RMSD>
8.181

$$$$
2fcz_lig
 OpenBabel11021811433D
libRbt.so/2013.1/901 2013/11/27
 31 33  0  0  0  0  0  0  0  0999 V2000
   10.5677   20.7343   33.4160 C   0  0  0  0  0  0  0  0  0  0  0  0
   16.8893   24.7621   28.7657 N   0  0  0  0  0  0  0  0  0  0  0  0
   10.8602   20.6433   34.8130 O   0  0  0  0  0  0  0  0  0  0  0  0
   10.6893   22.1918   32.9584 C   0  0  1  0  0  0  0  0  0  0  0  0
   18.6559   23.2054   33.0556 N   0  0  0  0  0  0  0  0  0  0  0  0
   12.0194   22.7076   33.1688 O   0  0  0  0  0  0  0  0  0  0  0  0
   12.6853   22.8586   31.8994 C   0  0  1  0  0  0  0  0  0  0  0  0
   15.6271   18.0095   34.7579 N   0  0  0  0  0  0  0  0  0  0  0  0
   14.0330   22.3581   31.9181 O   0  0  0  0  0  0  0  0  0  0  0  0
   15.0428   23.3762   31.8148 C   0  0  2  0  0  0  0  0  0  0  0  0
   14.5832   23.7531   36.2955 N   0  0  0  0  0  0  0  0  0  0  0  0
   14.2773   24.1012   29.6372 O   0  0  0  0  0  0  0  0  0  0  0  0
   15.4071   23.5761   30.3384 C   0  0  1  0  0  0  0  0  0  0  0  0
   16.0231   23.0108   34.0440 O   0  0  0  0  0  0  0  0  0  0  0  0
   16.5798   24.5476   30.1861 C   0  0  1  0  0  0  0  0  0  0  0  0
   15.3355   20.7586   34.2097 O   0  0  0  0  0  0  0  0  0  0  0  0
   17.8152   23.9969   30.9018 C   0  0  0  0  0  0  0  0  0  0  0  0
   17.5351   19.9676   37.0564 O   0  0  0  0  0  0  0  0  0  0  0  0
   17.5009   23.8281   32.3896 C   0  0  1  0  0  0  0  0  0  0  0  0
   15.7913   21.9598   38.1715 O   0  0  0  0  0  0  0  0  0  0  0  0
   16.2644   22.9550   32.6293 C   0  0  2  0  0  0  0  0  0  0  0  0
   11.9956   22.4334   29.5630 O   0  0  0  0  0  0  0  0  0  0  0  0
   14.9859   22.1263   34.4927 C   0  0  1  0  0  0  0  0  0  0  0  0
   10.0088   23.6303   31.1023 O   0  0  0  0  0  0  0  0  0  0  0  0
   16.5285   20.2997   34.8687 C   0  0  2  0  0  0  0  0  0  0  0  0
   16.7934   18.8507   34.4522 C   0  0  0  0  0  0  0  0  0  0  0  0
   16.3433   20.3912   36.3875 C   0  0  2  0  0  0  0  0  0  0  0  0
   16.0354   21.8415   36.7662 C   0  0  1  0  0  0  0  0  0  0  0  0
   14.8042   22.3306   36.0001 C   0  0  1  0  0  0  0  0  0  0  0  0
   11.8400   22.0331   30.9280 C   0  0  2  0  0  0  0  0  0  0  0  0
   10.4340   22.3115   31.4560 C   0  0  1  0  0  0  0  0  0  0  0  0
  3  1  1  0  0  0  0
  4  1  1  6  0  0  0
  4  6  1  0  0  0  0
  4 31  1  0  0  0  0
  6  7  1  0  0  0  0
  7  9  1  1  0  0  0
  7 30  1  0  0  0  0
 10  9  1  6  0  0  0
 10 13  1  0  0  0  0
 10 21  1  0  0  0  0
 13 12  1  6  0  0  0
 13 15  1  0  0  0  0
 15  2  1  6  0  0  0
 15 17  1  0  0  0  0
 16 25  1  0  0  0  0
 17 19  1  0  0  0  0
 19  5  1  1  0  0  0
 19 21  1  0  0  0  0
 21 14  1  1  0  0  0
 23 14  1  1  0  0  0
 23 16  1  0  0  0  0
 23 29  1  0  0  0  0
 25 26  1  1  0  0  0
 25 27  1  0  0  0  0
 26  8  1  0  0  0  0
 27 18  1  1  0  0  0
 27 28  1  0  0  0  0
 28 20  1  1  0  0  0
 28 29  1  0  0  0  0
 29 11  1  6  0  0  0
 30 22  1  6  0  0  0
 30 31  1  0  0  0  0
 31 24  1  1  0  0  0
M  END
>  <CHROM.1>
60.37479601,-111.16049758,-91.98167362,62.11363163,61.20854747,-56.36900689
14.60465073,22.23218094,33.18731282,2.15840987,-0.14886683,-1.06875786

>  <Name>
2fcz_lig

>  <RI>
0

>  <Rbt.Current_Directory>
/home/itssahil/PROJECTS/Mol_Feturizer/New_Systems/rnas/2fcz

>  <Rbt.Executable>
rbdock ($Id: //depot/dev/client3/rdock/2013.1/src/exe/rbdock.cxx#4 $)

>  <Rbt.Library>
libRbt.so (2013.1, Build901 2013/11/27)

>  <Rbt.Parameter_File>
/export/apps/rDock/src/rDock_2013.1_src/data/scripts/dock_solv.prm

>  <Rbt.Receptor>
prm/blind_docking_80.prm

>  <SCORE>
-11.1236

>  <SCORE.INTER>
-11.0457

>  <SCORE.INTER.CONST>
1

>  <SCORE.INTER.POLAR>
-1.01545

>  <SCORE.INTER.ROT>
6

>  <SCORE.INTER.SOLV>
16.0571

>  <SCORE.INTER.VDW>
-16.9313

>  <SCORE.INTER.norm>
-0.356312

>  <SCORE.INTRA>
-0.0835547

>  <SCORE.INTRA.DIHEDRAL>
0.0660477

>  <SCORE.INTRA.DIHEDRAL.0>
10.8409

>  <SCORE.INTRA.POLAR>
0

>  <SCORE.INTRA.POLAR.0>
0

>  <SCORE.INTRA.REPUL>
0

>  <SCORE.INTRA.REPUL.0>
0

>  <SCORE.INTRA.SOLV>
-2.20946

>  <SCORE.INTRA.SOLV.lig_0>
-80.8302

>  <SCORE.INTRA.VDW>
0.988151

>  <SCORE.INTRA.VDW.0>
-4.23953

>  <SCORE.INTRA.norm>
-0.00269531

>  <SCORE.RESTR>
0.00567108

>  <SCORE.RESTR.CAVITY>
0.00567108

>  <SCORE.RESTR.norm>
0.000182938

>  <SCORE.SYSTEM>
0

>  <SCORE.SYSTEM.CONST>
0

>  <SCORE.SYSTEM.DIHEDRAL>
0

>  <SCORE.SYSTEM.SOLV>
0

>  <SCORE.SYSTEM.norm>
0

>  <SCORE.heavy>
31

>  <SCORE.norm>
-0.358824

>  <RMSD>
8.201

$$$$
2fcz_lig
 OpenBabel11021811433D
libRbt.so/2013.1/901 2013/11/27
 31 33  0  0  0  0  0  0  0  0999 V2000
   15.9421   23.8552   30.8813 C   0  0  0  0  0  0  0  0  0  0  0  0
    8.4341   20.4040   33.8603 N   0  0  0  0  0  0  0  0  0  0  0  0
   15.1785   24.5825   31.8475 O   0  0  0  0  0  0  0  0  0  0  0  0
   15.1956   22.5742   30.4935 C   0  0  1  0  0  0  0  0  0  0  0  0
   11.6944   20.5814   37.5054 N   0  0  0  0  0  0  0  0  0  0  0  0
   14.7550   21.8415   31.6549 O   0  0  0  0  0  0  0  0  0  0  0  0
   13.3230   21.9497   31.7795 C   0  0  1  0  0  0  0  0  0  0  0  0
   15.9342   25.4164   35.3700 N   0  0  0  0  0  0  0  0  0  0  0  0
   12.9044   22.2345   33.1252 O   0  0  0  0  0  0  0  0  0  0  0  0
   12.1807   21.1654   33.7576 C   0  0  2  0  0  0  0  0  0  0  0  0
   16.0956   19.3840   35.1697 N   0  0  0  0  0  0  0  0  0  0  0  0
   10.4792   21.1223   32.0381 O   0  0  0  0  0  0  0  0  0  0  0  0
   10.6873   21.3113   33.4399 C   0  0  1  0  0  0  0  0  0  0  0  0
   13.7669   20.8249   35.6101 O   0  0  0  0  0  0  0  0  0  0  0  0
    9.8566   20.2801   34.2073 C   0  0  1  0  0  0  0  0  0  0  0  0
   14.7693   22.8594   34.9552 O   0  0  0  0  0  0  0  0  0  0  0  0
   10.0351   20.4774   35.7142 C   0  0  0  0  0  0  0  0  0  0  0  0
   16.7354   23.2497   38.0455 O   0  0  0  0  0  0  0  0  0  0  0  0
   11.5106   20.2928   36.0742 C   0  0  1  0  0  0  0  0  0  0  0  0
   17.8211   20.8322   36.9361 O   0  0  0  0  0  0  0  0  0  0  0  0
   12.4286   21.2146   35.2640 C   0  0  2  0  0  0  0  0  0  0  0  0
   11.5859   23.0840   30.4339 O   0  0  0  0  0  0  0  0  0  0  0  0
   14.7789   21.4290   34.7914 C   0  0  1  0  0  0  0  0  0  0  0  0
   13.5171   21.8018   28.8925 O   0  0  0  0  0  0  0  0  0  0  0  0
   15.0531   23.3083   36.2916 C   0  0  2  0  0  0  0  0  0  0  0  0
   14.9765   24.8367   36.3230 C   0  0  0  0  0  0  0  0  0  0  0  0
   16.4519   22.8372   36.7050 C   0  0  2  0  0  0  0  0  0  0  0  0
   16.5097   21.3105   36.6194 C   0  0  1  0  0  0  0  0  0  0  0  0
   16.1358   20.8524   35.2079 C   0  0  1  0  0  0  0  0  0  0  0  0
   12.9504   23.1166   30.8635 C   0  0  2  0  0  0  0  0  0  0  0  0
   13.9262   22.9030   29.7079 C   0  0  1  0  0  0  0  0  0  0  0  0
  3  1  1  0  0  0  0
  4  1  1  1  0  0  0
  4  6  1  0  0  0  0
  4 31  1  0  0  0  0
  6  7  1  0  0  0  0
  7  9  1  1  0  0  0
  7 30  1  0  0  0  0
 10  9  1  6  0  0  0
 10 13  1  0  0  0  0
 10 21  1  0  0  0  0
 13 12  1  6  0  0  0
 13 15  1  0  0  0  0
 15  2  1  1  0  0  0
 15 17  1  0  0  0  0
 16 25  1  0  0  0  0
 17 19  1  0  0  0  0
 19  5  1  1  0  0  0
 19 21  1  0  0  0  0
 21 14  1  6  0  0  0
 23 14  1  1  0  0  0
 23 16  1  0  0  0  0
 23 29  1  0  0  0  0
 25 26  1  6  0  0  0
 25 27  1  0  0  0  0
 26  8  1  0  0  0  0
 27 18  1  1  0  0  0
 27 28  1  0  0  0  0
 28 20  1  6  0  0  0
 28 29  1  0  0  0  0
 29 11  1  1  0  0  0
 30 22  1  6  0  0  0
 30 31  1  0  0  0  0
 31 24  1  6  0  0  0
M  END
>  <CHROM.1>
-49.09914079,-112.65766530,-88.23516778,45.86836399,62.94017188,-58.62487868
13.75128101,22.01677964,33.95876671,-2.31069864,0.38674860,1.83037211

>  <Name>
2fcz_lig

>  <RI>
0

>  <Rbt.Current_Directory>
/home/itssahil/PROJECTS/Mol_Feturizer/New_Systems/rnas/2fcz

>  <Rbt.Executable>
rbdock ($Id: //depot/dev/client3/rdock/2013.1/src/exe/rbdock.cxx#4 $)

>  <Rbt.Library>
libRbt.so (2013.1, Build901 2013/11/27)

>  <Rbt.Parameter_File>
/export/apps/rDock/src/rDock_2013.1_src/data/scripts/dock_solv.prm

>  <Rbt.Receptor>
prm/blind_docking_80.prm

>  <SCORE>
-8.66682

>  <SCORE.INTER>
-10.6569

>  <SCORE.INTER.CONST>
1

>  <SCORE.INTER.POLAR>
-1.2209

>  <SCORE.INTER.ROT>
6

>  <SCORE.INTER.SOLV>
17.85

>  <SCORE.INTER.VDW>
-16.5849

>  <SCORE.INTER.norm>
-0.343772

>  <SCORE.INTRA>
1.95382

>  <SCORE.INTRA.DIHEDRAL>
0.796541

>  <SCORE.INTRA.DIHEDRAL.0>
10.8409

>  <SCORE.INTRA.POLAR>
0

>  <SCORE.INTRA.POLAR.0>
0

>  <SCORE.INTRA.REPUL>
0

>  <SCORE.INTRA.REPUL.0>
0

>  <SCORE.INTRA.SOLV>
-1.20654

>  <SCORE.INTRA.SOLV.lig_0>
-80.8302

>  <SCORE.INTRA.VDW>
2.15882

>  <SCORE.INTRA.VDW.0>
-4.23953

>  <SCORE.INTRA.norm>
0.0630265

>  <SCORE.RESTR>
0.0363036

>  <SCORE.RESTR.CAVITY>
0.0363036

>  <SCORE.RESTR.norm>
0.00117108

>  <SCORE.SYSTEM>
0

>  <SCORE.SYSTEM.CONST>
0

>  <SCORE.SYSTEM.DIHEDRAL>
0

>  <SCORE.SYSTEM.SOLV>
0

>  <SCORE.SYSTEM.norm>
0

>  <SCORE.heavy>
31

>  <SCORE.norm>
-0.279575

>  <RMSD>
8.207

$$$$
2fcz_lig
 OpenBabel11021811433D
libRbt.so/2013.1/901 2013/11/27
 31 33  0  0  0  0  0  0  0  0999 V2000
   16.0616   23.0138   36.2424 C   0  0  0  0  0  0  0  0  0  0  0  0
    9.9250   22.6997   31.1038 N   0  0  0  0  0  0  0  0  0  0  0  0
   16.5425   22.9351   37.5871 O   0  0  0  0  0  0  0  0  0  0  0  0
   14.5862   22.6020   36.1984 C   0  0  1  0  0  0  0  0  0  0  0  0
   13.8753   22.4456   28.2267 N   0  0  0  0  0  0  0  0  0  0  0  0
   14.0290   22.7553   34.8771 O   0  0  0  0  0  0  0  0  0  0  0  0
   13.8113   21.4565   34.2911 C   0  0  1  0  0  0  0  0  0  0  0  0
   17.8324   25.1882   34.1632 N   0  0  0  0  0  0  0  0  0  0  0  0
   14.2621   21.3816   32.9279 O   0  0  0  0  0  0  0  0  0  0  0  0
   13.6124   22.3062   32.0391 C   0  0  2  0  0  0  0  0  0  0  0  0
   16.1346   24.3313   28.4348 N   0  0  0  0  0  0  0  0  0  0  0  0
   11.5923   22.3707   33.3689 O   0  0  0  0  0  0  0  0  0  0  0  0
   12.0996   22.0558   32.0699 C   0  0  1  0  0  0  0  0  0  0  0  0
   15.5210   22.5969   30.5104 O   0  0  0  0  0  0  0  0  0  0  0  0
   11.3763   22.9187   31.0332 C   0  0  1  0  0  0  0  0  0  0  0  0
   16.2198   24.1396   32.1550 O   0  0  0  0  0  0  0  0  0  0  0  0
   11.8772   22.5819   29.6271 C   0  0  0  0  0  0  0  0  0  0  0  0
   19.8176   23.6532   31.5328 O   0  0  0  0  0  0  0  0  0  0  0  0
   13.3787   22.8645   29.5470 C   0  0  1  0  0  0  0  0  0  0  0  0
   18.9074   24.7246   29.0274 O   0  0  0  0  0  0  0  0  0  0  0  0
   14.1706   22.1225   30.6292 C   0  0  2  0  0  0  0  0  0  0  0  0
   14.1834   19.1491   35.0988 O   0  0  0  0  0  0  0  0  0  0  0  0
   15.6794   23.9871   30.8292 C   0  0  1  0  0  0  0  0  0  0  0  0
   13.1126   20.8392   37.0344 O   0  0  0  0  0  0  0  0  0  0  0  0
   17.5251   23.5639   32.3365 C   0  0  2  0  0  0  0  0  0  0  0  0
   17.9555   23.7713   33.7907 C   0  0  0  0  0  0  0  0  0  0  0  0
   18.5203   24.2386   31.3857 C   0  0  2  0  0  0  0  0  0  0  0  0
   18.0386   24.0529   29.9453 C   0  0  1  0  0  0  0  0  0  0  0  0
   16.6211   24.6093   29.7932 C   0  0  1  0  0  0  0  0  0  0  0  0
   14.6345   20.5056   35.1615 C   0  0  2  0  0  0  0  0  0  0  0  0
   14.4258   21.1215   36.5437 C   0  0  1  0  0  0  0  0  0  0  0  0
  3  1  1  0  0  0  0
  4  1  1  6  0  0  0
  4  6  1  0  0  0  0
  4 31  1  0  0  0  0
  6  7  1  0  0  0  0
  7  9  1  6  0  0  0
  7 30  1  0  0  0  0
 10  9  1  1  0  0  0
 10 13  1  0  0  0  0
 10 21  1  0  0  0  0
 13 12  1  1  0  0  0
 13 15  1  0  0  0  0
 15  2  1  6  0  0  0
 15 17  1  0  0  0  0
 16 25  1  0  0  0  0
 17 19  1  0  0  0  0
 19  5  1  6  0  0  0
 19 21  1  0  0  0  0
 21 14  1  1  0  0  0
 23 14  1  6  0  0  0
 23 16  1  0  0  0  0
 23 29  1  0  0  0  0
 25 26  1  1  0  0  0
 25 27  1  0  0  0  0
 26  8  1  0  0  0  0
 27 18  1  6  0  0  0
 27 28  1  0  0  0  0
 28 20  1  6  0  0  0
 28 29  1  0  0  0  0
 29 11  1  6  0  0  0
 30 22  1  1  0  0  0
 30 31  1  0  0  0  0
 31 24  1  6  0  0  0
M  END
>  <CHROM.1>
175.92988438,-60.20028084,-58.12483238,-59.00916313,101.47348294,-52.43257843
15.06468427,22.79199527,32.54891320,-2.07757669,-0.33007570,-1.33120196

>  <Name>
2fcz_lig

>  <RI>
0

>  <Rbt.Current_Directory>
/home/itssahil/PROJECTS/Mol_Feturizer/New_Systems/rnas/2fcz

>  <Rbt.Executable>
rbdock ($Id: //depot/dev/client3/rdock/2013.1/src/exe/rbdock.cxx#4 $)

>  <Rbt.Library>
libRbt.so (2013.1, Build901 2013/11/27)

>  <Rbt.Parameter_File>
/export/apps/rDock/src/rDock_2013.1_src/data/scripts/dock_solv.prm

>  <Rbt.Receptor>
prm/blind_docking_80.prm

>  <SCORE>
-12.1811

>  <SCORE.INTER>
-14.204

>  <SCORE.INTER.CONST>
1

>  <SCORE.INTER.POLAR>
-0.939724

>  <SCORE.INTER.ROT>
6

>  <SCORE.INTER.SOLV>
18.7251

>  <SCORE.INTER.VDW>
-20.1786

>  <SCORE.INTER.norm>
-0.458193

>  <SCORE.INTRA>
1.93473

>  <SCORE.INTRA.DIHEDRAL>
-4.7728

>  <SCORE.INTRA.DIHEDRAL.0>
10.8409

>  <SCORE.INTRA.POLAR>
0

>  <SCORE.INTRA.POLAR.0>
0

>  <SCORE.INTRA.REPUL>
0.0131908

>  <SCORE.INTRA.REPUL.0>
0

>  <SCORE.INTRA.SOLV>
1.44063

>  <SCORE.INTRA.SOLV.lig_0>
-80.8302

>  <SCORE.INTRA.VDW>
3.53486

>  <SCORE.INTRA.VDW.0>
-4.23953

>  <SCORE.INTRA.norm>
0.0624108

>  <SCORE.RESTR>
0.0881654

>  <SCORE.RESTR.CAVITY>
0.0881654

>  <SCORE.RESTR.norm>
0.00284405

>  <SCORE.SYSTEM>
0

>  <SCORE.SYSTEM.CONST>
0

>  <SCORE.SYSTEM.DIHEDRAL>
0

>  <SCORE.SYSTEM.SOLV>
0

>  <SCORE.SYSTEM.norm>
0

>  <SCORE.heavy>
31

>  <SCORE.norm>
-0.392938

>  <RMSD>
8.209

$$$$
2fcz_lig
 OpenBabel11021811433D
libRbt.so/2013.1/901 2013/11/27
 31 33  0  0  0  0  0  0  0  0999 V2000
   17.9593   22.1666   35.5657 C   0  0  0  0  0  0  0  0  0  0  0  0
   10.3524   22.4033   32.3800 N   0  0  0  0  0  0  0  0  0  0  0  0
   18.1505   23.5840   35.5591 O   0  0  0  0  0  0  0  0  0  0  0  0
   16.5204   21.8431   35.9821 C   0  0  1  0  0  0  0  0  0  0  0  0
   13.5508   22.9944   28.7238 N   0  0  0  0  0  0  0  0  0  0  0  0
   15.5753   22.1932   34.9507 O   0  0  0  0  0  0  0  0  0  0  0  0
   15.0565   20.9933   34.3435 C   0  0  1  0  0  0  0  0  0  0  0  0
   14.7131   24.8581   34.4424 N   0  0  0  0  0  0  0  0  0  0  0  0
   15.0231   21.0691   32.9081 O   0  0  0  0  0  0  0  0  0  0  0  0
   14.1648   22.0998   32.3907 C   0  0  2  0  0  0  0  0  0  0  0  0
   17.2581   23.9951   28.6335 N   0  0  0  0  0  0  0  0  0  0  0  0
   12.4986   21.7609   34.1120 O   0  0  0  0  0  0  0  0  0  0  0  0
   12.7055   21.7410   32.6974 C   0  0  1  0  0  0  0  0  0  0  0  0
   15.6679   22.8168   30.5767 O   0  0  0  0  0  0  0  0  0  0  0  0
   11.7435   22.7347   32.0422 C   0  0  1  0  0  0  0  0  0  0  0  0
   15.4311   24.8404   31.7690 O   0  0  0  0  0  0  0  0  0  0  0  0
   11.9203   22.7136   30.5224 C   0  0  0  0  0  0  0  0  0  0  0  0
   18.8413   24.7857   33.1602 O   0  0  0  0  0  0  0  0  0  0  0  0
   13.3565   23.1127   30.1776 C   0  0  1  0  0  0  0  0  0  0  0  0
   19.3400   24.9738   30.3372 O   0  0  0  0  0  0  0  0  0  0  0  0
   14.3925   22.2333   30.8862 C   0  0  2  0  0  0  0  0  0  0  0  0
   15.4579   18.5852   34.7369 O   0  0  0  0  0  0  0  0  0  0  0  0
   15.6434   24.2479   30.4741 C   0  0  1  0  0  0  0  0  0  0  0  0
   15.2480   20.0691   37.0828 O   0  0  0  0  0  0  0  0  0  0  0  0
   16.4597   24.5527   32.7320 C   0  0  2  0  0  0  0  0  0  0  0  0
   16.0874   25.2146   34.0610 C   0  0  0  0  0  0  0  0  0  0  0  0
   17.8019   25.0932   32.2261 C   0  0  2  0  0  0  0  0  0  0  0  0
   18.1232   24.4474   30.8766 C   0  0  1  0  0  0  0  0  0  0  0  0
   16.9830   24.7068   29.8894 C   0  0  1  0  0  0  0  0  0  0  0  0
   16.0285   19.8966   34.7815 C   0  0  2  0  0  0  0  0  0  0  0  0
   16.3460   20.3413   36.2080 C   0  0  1  0  0  0  0  0  0  0  0  0
  3  1  1  0  0  0  0
  4  1  1  6  0  0  0
  4  6  1  0  0  0  0
  4 31  1  0  0  0  0
  6  7  1  0  0  0  0
  7  9  1  6  0  0  0
  7 30  1  0  0  0  0
 10  9  1  6  0  0  0
 10 13  1  0  0  0  0
 10 21  1  0  0  0  0
 13 12  1  1  0  0  0
 13 15  1  0  0  0  0
 15  2  1  6  0  0  0
 15 17  1  0  0  0  0
 16 25  1  0  0  0  0
 17 19  1  0  0  0  0
 19  5  1  6  0  0  0
 19 21  1  0  0  0  0
 21 14  1  1  0  0  0
 23 14  1  1  0  0  0
 23 16  1  0  0  0  0
 23 29  1  0  0  0  0
 25 26  1  1  0  0  0
 25 27  1  0  0  0  0
 26  8  1  0  0  0  0
 27 18  1  1  0  0  0
 27 28  1  0  0  0  0
 28 20  1  6  0  0  0
 28 29  1  0  0  0  0
 29 11  1  6  0  0  0
 30 22  1  1  0  0  0
 30 31  1  0  0  0  0
 31 24  1  1  0  0  0
M  END
>  <CHROM.1>
71.30298810,-62.49609226,-67.83542372,-90.06062748,69.58229026,51.06933673
15.46516387,22.79615213,32.79049603,-1.76157327,-0.39118199,-1.03954290

>  <Name>
2fcz_lig

>  <RI>
1.40544e+07

>  <Rbt.Current_Directory>
/home/itssahil/PROJECTS/Mol_Feturizer/New_Systems/rnas/2fcz

>  <Rbt.Executable>
rbdock ($Id: //depot/dev/client3/rdock/2013.1/src/exe/rbdock.cxx#4 $)

>  <Rbt.Library>
libRbt.so (2013.1, Build901 2013/11/27)

>  <Rbt.Parameter_File>
/export/apps/rDock/src/rDock_2013.1_src/data/scripts/dock_solv.prm

>  <Rbt.Receptor>
prm/blind_docking_100.prm

>  <SCORE>
-15.6153

>  <SCORE.INTER>
-18.4272

>  <SCORE.INTER.CONST>
1

>  <SCORE.INTER.POLAR>
-1.43263

>  <SCORE.INTER.ROT>
6

>  <SCORE.INTER.SOLV>
16.3587

>  <SCORE.INTER.VDW>
-20.5622

>  <SCORE.INTER.norm>
-0.594425

>  <SCORE.INTRA>
2.81192

>  <SCORE.INTRA.DIHEDRAL>
-5.63434

>  <SCORE.INTRA.DIHEDRAL.0>
10.8409

>  <SCORE.INTRA.POLAR>
0

>  <SCORE.INTRA.POLAR.0>
0

>  <SCORE.INTRA.REPUL>
0

>  <SCORE.INTRA.REPUL.0>
0

>  <SCORE.INTRA.SOLV>
3.10497

>  <SCORE.INTRA.SOLV.lig_0>
-80.8302

>  <SCORE.INTRA.VDW>
4.07661

>  <SCORE.INTRA.VDW.0>
-4.23953

>  <SCORE.INTRA.norm>
0.0907072

>  <SCORE.RESTR>
0

>  <SCORE.RESTR.CAVITY>
0

>  <SCORE.RESTR.norm>
0

>  <SCORE.SYSTEM>
0

>  <SCORE.SYSTEM.CONST>
0

>  <SCORE.SYSTEM.DIHEDRAL>
0

>  <SCORE.SYSTEM.SOLV>
0

>  <SCORE.SYSTEM.norm>
0

>  <SCORE.heavy>
31

>  <SCORE.norm>
-0.503718

>  <RMSD>
8.210

$$$$
2fcz_lig
 OpenBabel11021811433D
libRbt.so/2013.1/901 2013/11/27
 31 33  0  0  0  0  0  0  0  0999 V2000
   16.9693   19.3536   33.6742 C   0  0  0  0  0  0  0  0  0  0  0  0
   15.4676   26.0936   38.0586 N   0  0  0  0  0  0  0  0  0  0  0  0
   15.9257   18.5103   33.1790 O   0  0  0  0  0  0  0  0  0  0  0  0
   16.6016   19.8604   35.0730 C   0  0  1  0  0  0  0  0  0  0  0  0
   14.7806   26.3410   33.2198 N   0  0  0  0  0  0  0  0  0  0  0  0
   17.5712   20.8052   35.5697 O   0  0  0  0  0  0  0  0  0  0  0  0
   16.9996   22.1285   35.5705 C   0  0  1  0  0  0  0  0  0  0  0  0
   13.9184   23.1660   29.3508 N   0  0  0  0  0  0  0  0  0  0  0  0
   17.8950   23.1186   35.0365 O   0  0  0  0  0  0  0  0  0  0  0  0
   17.4531   24.4745   35.2190 C   0  0  2  0  0  0  0  0  0  0  0  0
   19.7354   25.0805   31.6275 N   0  0  0  0  0  0  0  0  0  0  0  0
   17.6641   24.3594   37.6265 O   0  0  0  0  0  0  0  0  0  0  0  0
   16.7321   24.5920   36.5676 C   0  0  1  0  0  0  0  0  0  0  0  0
   17.2349   25.0114   32.8257 O   0  0  0  0  0  0  0  0  0  0  0  0
   16.1174   25.9823   36.7454 C   0  0  1  0  0  0  0  0  0  0  0  0
   16.6833   22.9512   31.8136 O   0  0  0  0  0  0  0  0  0  0  0  0
   15.0911   26.2484   35.6420 C   0  0  0  0  0  0  0  0  0  0  0  0
   16.1042   24.3884   28.4719 O   0  0  0  0  0  0  0  0  0  0  0  0
   15.7876   26.1843   34.2813 C   0  0  1  0  0  0  0  0  0  0  0  0
   18.8915   24.9403   28.8957 O   0  0  0  0  0  0  0  0  0  0  0  0
   16.5277   24.8596   34.0665 C   0  0  2  0  0  0  0  0  0  0  0  0
   14.7835   23.0174   34.9272 O   0  0  0  0  0  0  0  0  0  0  0  0
   17.7546   23.7822   32.2981 C   0  0  1  0  0  0  0  0  0  0  0  0
   14.6474   20.6178   36.3318 O   0  0  0  0  0  0  0  0  0  0  0  0
   15.9222   23.5270   30.7378 C   0  0  2  0  0  0  0  0  0  0  0  0
   14.8058   22.5540   30.3504 C   0  0  0  0  0  0  0  0  0  0  0  0
   16.8421   23.7856   29.5394 C   0  0  2  0  0  0  0  0  0  0  0  0
   17.9715   24.7237   29.9705 C   0  0  1  0  0  0  0  0  0  0  0  0
   18.7228   24.1232   31.1609 C   0  0  1  0  0  0  0  0  0  0  0  0
   15.7662   22.0086   34.6739 C   0  0  2  0  0  0  0  0  0  0  0  0
   15.2709   20.6121   35.0449 C   0  0  1  0  0  0  0  0  0  0  0  0
  3  1  1  0  0  0  0
  4  1  1  6  0  0  0
  4  6  1  0  0  0  0
  4 31  1  0  0  0  0
  6  7  1  0  0  0  0
  7  9  1  6  0  0  0
  7 30  1  0  0  0  0
 10  9  1  6  0  0  0
 10 13  1  0  0  0  0
 10 21  1  0  0  0  0
 13 12  1  1  0  0  0
 13 15  1  0  0  0  0
 15  2  1  1  0  0  0
 15 17  1  0  0  0  0
 16 25  1  0  0  0  0
 17 19  1  0  0  0  0
 19  5  1  6  0  0  0
 19 21  1  0  0  0  0
 21 14  1  6  0  0  0
 23 14  1  6  0  0  0
 23 16  1  0  0  0  0
 23 29  1  0  0  0  0
 25 26  1  6  0  0  0
 25 27  1  0  0  0  0
 26  8  1  0  0  0  0
 27 18  1  6  0  0  0
 27 28  1  0  0  0  0
 28 20  1  6  0  0  0
 28 29  1  0  0  0  0
 29 11  1  1  0  0  0
 30 22  1  1  0  0  0
 30 31  1  0  0  0  0
 31 24  1  1  0  0  0
M  END
>  <CHROM.1>
-175.14000423,-170.35959566,35.44882789,68.33899098,71.06770678,174.03835847
16.53917580,23.42193704,33.46390394,2.39758628,1.41187761,0.90284550

>  <Name>
2fcz_lig

>  <RI>
0

>  <Rbt.Current_Directory>
/home/itssahil/PROJECTS/Mol_Feturizer/New_Systems/rnas/2fcz

>  <Rbt.Executable>
rbdock ($Id: //depot/dev/client3/rdock/2013.1/src/exe/rbdock.cxx#4 $)

>  <Rbt.Library>
libRbt.so (2013.1, Build901 2013/11/27)

>  <Rbt.Parameter_File>
/export/apps/rDock/src/rDock_2013.1_src/data/scripts/dock_solv.prm

>  <Rbt.Receptor>
prm/blind_docking_80.prm

>  <SCORE>
-12.4973

>  <SCORE.INTER>
-12.6566

>  <SCORE.INTER.CONST>
1

>  <SCORE.INTER.POLAR>
-1.36278

>  <SCORE.INTER.ROT>
6

>  <SCORE.INTER.SOLV>
22.5983

>  <SCORE.INTER.VDW>
-19.0279

>  <SCORE.INTER.norm>
-0.408276

>  <SCORE.INTRA>
0.0534914

>  <SCORE.INTRA.DIHEDRAL>
-6.52843

>  <SCORE.INTRA.DIHEDRAL.0>
10.8409

>  <SCORE.INTRA.POLAR>
0

>  <SCORE.INTRA.POLAR.0>
0

>  <SCORE.INTRA.REPUL>
0

>  <SCORE.INTRA.REPUL.0>
0

>  <SCORE.INTRA.SOLV>
-0.941082

>  <SCORE.INTRA.SOLV.lig_0>
-80.8302

>  <SCORE.INTRA.VDW>
3.78825

>  <SCORE.INTRA.VDW.0>
-4.23953

>  <SCORE.INTRA.norm>
0.00172553

>  <SCORE.RESTR>
0.105814

>  <SCORE.RESTR.CAVITY>
0.105814

>  <SCORE.RESTR.norm>
0.00341336

>  <SCORE.SYSTEM>
0

>  <SCORE.SYSTEM.CONST>
0

>  <SCORE.SYSTEM.DIHEDRAL>
0

>  <SCORE.SYSTEM.SOLV>
0

>  <SCORE.SYSTEM.norm>
0

>  <SCORE.heavy>
31

>  <SCORE.norm>
-0.403138

>  <RMSD>
8.220

$$$$
2fcz_lig
 OpenBabel11021811433D
libRbt.so/2013.1/901 2013/11/27
 31 33  0  0  0  0  0  0  0  0999 V2000
   19.1041   22.6563   34.5093 C   0  0  0  0  0  0  0  0  0  0  0  0
   13.0880   23.2675   28.3655 N   0  0  0  0  0  0  0  0  0  0  0  0
   20.4100   23.1389   34.8368 O   0  0  0  0  0  0  0  0  0  0  0  0
   18.9392   22.6099   32.9865 C   0  0  1  0  0  0  0  0  0  0  0  0
   10.8391   22.2011   32.5789 N   0  0  0  0  0  0  0  0  0  0  0  0
   17.6195   22.1702   32.6062 O   0  0  0  0  0  0  0  0  0  0  0  0
   16.8743   23.2833   32.0738 C   0  0  1  0  0  0  0  0  0  0  0  0
    8.9671   20.9574   34.3498 N   0  0  0  0  0  0  0  0  0  0  0  0
   15.5356   23.3526   32.5936 O   0  0  0  0  0  0  0  0  0  0  0  0
   14.5667   22.6130   31.8314 C   0  0  2  0  0  0  0  0  0  0  0  0
   15.1650   21.9363   35.8443 N   0  0  0  0  0  0  0  0  0  0  0  0
   15.5763   23.2134   29.7162 O   0  0  0  0  0  0  0  0  0  0  0  0
   14.3663   23.2967   30.4731 C   0  0  1  0  0  0  0  0  0  0  0  0
   13.3467   21.6957   33.7637 O   0  0  0  0  0  0  0  0  0  0  0  0
   13.2395   22.6298   29.6806 C   0  0  1  0  0  0  0  0  0  0  0  0
   11.4968   22.0158   35.1949 O   0  0  0  0  0  0  0  0  0  0  0  0
   11.9224   22.7303   30.4532 C   0  0  0  0  0  0  0  0  0  0  0  0
   11.6796   18.6587   36.6996 O   0  0  0  0  0  0  0  0  0  0  0  0
   12.0727   22.0166   31.7981 C   0  0  1  0  0  0  0  0  0  0  0  0
   14.1805   19.8216   37.5036 O   0  0  0  0  0  0  0  0  0  0  0  0
   13.2559   22.5504   32.6130 C   0  0  2  0  0  0  0  0  0  0  0  0
   17.4215   25.6659   31.7019 O   0  0  0  0  0  0  0  0  0  0  0  0
   12.8904   22.3065   34.9795 C   0  0  1  0  0  0  0  0  0  0  0  0
   19.4879   23.9351   31.0065 O   0  0  0  0  0  0  0  0  0  0  0  0
   11.1956   20.6176   35.3437 C   0  0  2  0  0  0  0  0  0  0  0  0
    9.6849   20.4578   35.5315 C   0  0  0  0  0  0  0  0  0  0  0  0
   11.9449   20.0576   36.5581 C   0  0  2  0  0  0  0  0  0  0  0  0
   13.4469   20.2733   36.3606 C   0  0  1  0  0  0  0  0  0  0  0  0
   13.7354   21.7590   36.1342 C   0  0  1  0  0  0  0  0  0  0  0  0
   17.6659   24.5150   32.5161 C   0  0  2  0  0  0  0  0  0  0  0  0
   19.0992   24.0043   32.3810 C   0  0  1  0  0  0  0  0  0  0  0  0
  3  1  1  0  0  0  0
  4  1  1  1  0  0  0
  4  6  1  0  0  0  0
  4 31  1  0  0  0  0
  6  7  1  0  0  0  0
  7  9  1  1  0  0  0
  7 30  1  0  0  0  0
 10  9  1  1  0  0  0
 10 13  1  0  0  0  0
 10 21  1  0  0  0  0
 13 12  1  6  0  0  0
 13 15  1  0  0  0  0
 15  2  1  6  0  0  0
 15 17  1  0  0  0  0
 16 25  1  0  0  0  0
 17 19  1  0  0  0  0
 19  5  1  1  0  0  0
 19 21  1  0  0  0  0
 21 14  1  1  0  0  0
 23 14  1  6  0  0  0
 23 16  1  0  0  0  0
 23 29  1  0  0  0  0
 25 26  1  1  0  0  0
 25 27  1  0  0  0  0
 26  8  1  0  0  0  0
 27 18  1  6  0  0  0
 27 28  1  0  0  0  0
 28 20  1  1  0  0  0
 28 29  1  0  0  0  0
 29 11  1  6  0  0  0
 30 22  1  6  0  0  0
 30 31  1  0  0  0  0
 31 24  1  6  0  0  0
M  END
>  <CHROM.1>
-178.09812274,-89.23501879,-68.75997924,129.23637802,92.50900895,61.55597536
14.53071666,22.27384600,33.33474916,-0.52863937,0.21977110,1.96703945

>  <Name>
2fcz_lig

>  <RI>
2.6968e+07

>  <Rbt.Current_Directory>
/home/itssahil/PROJECTS/Mol_Feturizer/New_Systems/rnas/2fcz

>  <Rbt.Executable>
rbdock ($Id: //depot/dev/client3/rdock/2013.1/src/exe/rbdock.cxx#4 $)

>  <Rbt.Library>
libRbt.so (2013.1, Build901 2013/11/27)

>  <Rbt.Parameter_File>
/export/apps/rDock/src/rDock_2013.1_src/data/scripts/dock_solv.prm

>  <Rbt.Receptor>
prm/blind_docking_60.prm

>  <SCORE>
-11.4855

>  <SCORE.INTER>
-16.4389

>  <SCORE.INTER.CONST>
1

>  <SCORE.INTER.POLAR>
-1.50641

>  <SCORE.INTER.ROT>
6

>  <SCORE.INTER.SOLV>
16.0677

>  <SCORE.INTER.VDW>
-18.8938

>  <SCORE.INTER.norm>
-0.530287

>  <SCORE.INTRA>
4.24347

>  <SCORE.INTRA.DIHEDRAL>
3.83201

>  <SCORE.INTRA.DIHEDRAL.0>
10.8409

>  <SCORE.INTRA.POLAR>
0

>  <SCORE.INTRA.POLAR.0>
0

>  <SCORE.INTRA.REPUL>
0

>  <SCORE.INTRA.REPUL.0>
0

>  <SCORE.INTRA.SOLV>
1.86029

>  <SCORE.INTRA.SOLV.lig_0>
-80.8302

>  <SCORE.INTRA.VDW>
1.39732

>  <SCORE.INTRA.VDW.0>
-4.23953

>  <SCORE.INTRA.norm>
0.136886

>  <SCORE.RESTR>
0.709916

>  <SCORE.RESTR.CAVITY>
0.709916

>  <SCORE.RESTR.norm>
0.0229005

>  <SCORE.SYSTEM>
0

>  <SCORE.SYSTEM.CONST>
0

>  <SCORE.SYSTEM.DIHEDRAL>
0

>  <SCORE.SYSTEM.SOLV>
0

>  <SCORE.SYSTEM.norm>
0

>  <SCORE.heavy>
31

>  <SCORE.norm>
-0.370501

>  <RMSD>
8.250

$$$$
2fcz_lig
 OpenBabel11021811433D
libRbt.so/2013.1/901 2013/11/27
 31 33  0  0  0  0  0  0  0  0999 V2000
   17.6236   24.5852   36.9033 C   0  0  0  0  0  0  0  0  0  0  0  0
   16.0427   23.9834   28.7309 N   0  0  0  0  0  0  0  0  0  0  0  0
   18.2858   25.2179   38.0018 O   0  0  0  0  0  0  0  0  0  0  0  0
   18.2090   25.0995   35.5838 C   0  0  1  0  0  0  0  0  0  0  0  0
   12.4164   21.9195   31.2878 N   0  0  0  0  0  0  0  0  0  0  0  0
   17.5450   24.5180   34.4433 O   0  0  0  0  0  0  0  0  0  0  0  0
   16.7265   25.5154   33.8006 C   0  0  1  0  0  0  0  0  0  0  0  0
    9.4442   22.6442   32.5268 N   0  0  0  0  0  0  0  0  0  0  0  0
   15.4178   25.0244   33.4638 O   0  0  0  0  0  0  0  0  0  0  0  0
   15.4172   23.9542   32.5038 C   0  0  2  0  0  0  0  0  0  0  0  0
   14.6953   22.4521   36.2930 N   0  0  0  0  0  0  0  0  0  0  0  0
   17.1255   24.9960   31.1436 O   0  0  0  0  0  0  0  0  0  0  0  0
   15.7789   24.5161   31.1233 C   0  0  1  0  0  0  0  0  0  0  0  0
   13.7776   22.5404   33.6771 O   0  0  0  0  0  0  0  0  0  0  0  0
   15.6522   23.4424   30.0400 C   0  0  1  0  0  0  0  0  0  0  0  0
   11.6279   23.2583   34.3373 O   0  0  0  0  0  0  0  0  0  0  0  0
   14.2117   22.9302   29.9733 C   0  0  0  0  0  0  0  0  0  0  0  0
   10.5749   19.9662   35.6106 O   0  0  0  0  0  0  0  0  0  0  0  0
   13.8321   22.3197   31.3238 C   0  0  1  0  0  0  0  0  0  0  0  0
   12.7689   20.6159   37.3476 O   0  0  0  0  0  0  0  0  0  0  0  0
   14.0379   23.2983   32.4852 C   0  0  2  0  0  0  0  0  0  0  0  0
   16.2921   27.9055   34.2626 O   0  0  0  0  0  0  0  0  0  0  0  0
   13.0287   23.2564   34.6699 C   0  0  1  0  0  0  0  0  0  0  0  0
   18.9651   27.1889   34.5638 O   0  0  0  0  0  0  0  0  0  0  0  0
   11.0259   21.9533   34.2848 C   0  0  2  0  0  0  0  0  0  0  0  0
    9.5548   22.1064   33.8906 C   0  0  0  0  0  0  0  0  0  0  0  0
   11.1417   21.2792   35.6565 C   0  0  2  0  0  0  0  0  0  0  0  0
   12.6194   21.1823   36.0418 C   0  0  1  0  0  0  0  0  0  0  0  0
   13.2560   22.5739   36.0225 C   0  0  1  0  0  0  0  0  0  0  0  0
   16.6088   26.6339   34.8372 C   0  0  2  0  0  0  0  0  0  0  0  0
   18.0066   26.6090   35.4527 C   0  0  1  0  0  0  0  0  0  0  0  0
  3  1  1  0  0  0  0
  4  1  1  1  0  0  0
  4  6  1  0  0  0  0
  4 31  1  0  0  0  0
  6  7  1  0  0  0  0
  7  9  1  1  0  0  0
  7 30  1  0  0  0  0
 10  9  1  1  0  0  0
 10 13  1  0  0  0  0
 10 21  1  0  0  0  0
 13 12  1  1  0  0  0
 13 15  1  0  0  0  0
 15  2  1  6  0  0  0
 15 17  1  0  0  0  0
 16 25  1  0  0  0  0
 17 19  1  0  0  0  0
 19  5  1  6  0  0  0
 19 21  1  0  0  0  0
 21 14  1  1  0  0  0
 23 14  1  6  0  0  0
 23 16  1  0  0  0  0
 23 29  1  0  0  0  0
 25 26  1  1  0  0  0
 25 27  1  0  0  0  0
 26  8  1  0  0  0  0
 27 18  1  6  0  0  0
 27 28  1  0  0  0  0
 28 20  1  1  0  0  0
 28 29  1  0  0  0  0
 29 11  1  6  0  0  0
 30 22  1  6  0  0  0
 30 31  1  0  0  0  0
 31 24  1  6  0  0  0
M  END
>  <CHROM.1>
-178.31382280,-63.51053254,-72.15732023,96.41390029,79.41405810,64.79454715
14.59836837,23.68084841,33.91760461,-0.02831671,0.59260825,1.64956585

>  <Name>
2fcz_lig

>  <RI>
2.76032e+07

>  <Rbt.Current_Directory>
/home/itssahil/PROJECTS/Mol_Feturizer/New_Systems/rnas/2fcz

>  <Rbt.Executable>
rbdock ($Id: //depot/dev/client3/rdock/2013.1/src/exe/rbdock.cxx#4 $)

>  <Rbt.Library>
libRbt.so (2013.1, Build901 2013/11/27)

>  <Rbt.Parameter_File>
/export/apps/rDock/src/rDock_2013.1_src/data/scripts/dock_solv.prm

>  <Rbt.Receptor>
prm/pocket_docking_8.prm

>  <SCORE>
-17.312

>  <SCORE.INTER>
-16.6451

>  <SCORE.INTER.CONST>
1

>  <SCORE.INTER.POLAR>
-1.94035

>  <SCORE.INTER.ROT>
6

>  <SCORE.INTER.SOLV>
17.817

>  <SCORE.INTER.VDW>
-18.1679

>  <SCORE.INTER.norm>
-0.536938

>  <SCORE.INTRA>
-0.666899

>  <SCORE.INTRA.DIHEDRAL>
-3.43165

>  <SCORE.INTRA.DIHEDRAL.0>
10.8409

>  <SCORE.INTRA.POLAR>
0

>  <SCORE.INTRA.POLAR.0>
0

>  <SCORE.INTRA.REPUL>
0

>  <SCORE.INTRA.REPUL.0>
0

>  <SCORE.INTRA.SOLV>
0.152257

>  <SCORE.INTRA.SOLV.lig_0>
-80.8302

>  <SCORE.INTRA.VDW>
0.972799

>  <SCORE.INTRA.VDW.0>
-4.23953

>  <SCORE.INTRA.norm>
-0.0215129

>  <SCORE.RESTR>
0

>  <SCORE.RESTR.CAVITY>
0

>  <SCORE.RESTR.norm>
0

>  <SCORE.SYSTEM>
0

>  <SCORE.SYSTEM.CONST>
0

>  <SCORE.SYSTEM.DIHEDRAL>
0

>  <SCORE.SYSTEM.SOLV>
0

>  <SCORE.SYSTEM.norm>
0

>  <SCORE.heavy>
31

>  <SCORE.norm>
-0.558451

>  <RMSD>
8.266

$$$$
2fcz_lig
 OpenBabel11021811433D
libRbt.so/2013.1/901 2013/11/27
 31 33  0  0  0  0  0  0  0  0999 V2000
   16.2891   23.4533   31.1983 C   0  0  0  0  0  0  0  0  0  0  0  0
    8.3905   20.4038   33.8738 N   0  0  0  0  0  0  0  0  0  0  0  0
   16.9625   24.0590   30.0914 O   0  0  0  0  0  0  0  0  0  0  0  0
   15.3932   22.3160   30.6961 C   0  0  1  0  0  0  0  0  0  0  0  0
   11.6853   20.6477   37.4838 N   0  0  0  0  0  0  0  0  0  0  0  0
   14.7289   21.6407   31.7835 O   0  0  0  0  0  0  0  0  0  0  0  0
   13.3266   21.9740   31.7744 C   0  0  1  0  0  0  0  0  0  0  0  0
   15.8929   25.5115   35.5200 N   0  0  0  0  0  0  0  0  0  0  0  0
   12.8255   22.2958   33.0830 O   0  0  0  0  0  0  0  0  0  0  0  0
   12.1241   21.2194   33.7283 C   0  0  2  0  0  0  0  0  0  0  0  0
   16.0542   19.4977   35.0075 N   0  0  0  0  0  0  0  0  0  0  0  0
   10.4058   21.1425   32.0268 O   0  0  0  0  0  0  0  0  0  0  0  0
   10.6256   21.3418   33.4254 C   0  0  1  0  0  0  0  0  0  0  0  0
   13.7343   20.9117   35.5658 O   0  0  0  0  0  0  0  0  0  0  0  0
    9.8181   20.3025   34.2065 C   0  0  1  0  0  0  0  0  0  0  0  0
   14.7244   22.9784   34.9989 O   0  0  0  0  0  0  0  0  0  0  0  0
   10.0093   20.5101   35.7106 C   0  0  0  0  0  0  0  0  0  0  0  0
   16.7483   23.2092   38.0679 O   0  0  0  0  0  0  0  0  0  0  0  0
   11.4910   20.3491   36.0560 C   0  0  1  0  0  0  0  0  0  0  0  0
   17.8127   20.8537   36.8141 O   0  0  0  0  0  0  0  0  0  0  0  0
   12.3869   21.2800   35.2317 C   0  0  2  0  0  0  0  0  0  0  0  0
   11.9328   23.3975   30.3095 O   0  0  0  0  0  0  0  0  0  0  0  0
   14.7308   21.5584   34.7608 C   0  0  1  0  0  0  0  0  0  0  0  0
   13.7827   21.8534   28.9157 O   0  0  0  0  0  0  0  0  0  0  0  0
   15.0333   23.3575   36.3513 C   0  0  2  0  0  0  0  0  0  0  0  0
   14.9575   24.8821   36.4636 C   0  0  0  0  0  0  0  0  0  0  0  0
   16.4396   22.8667   36.7133 C   0  0  2  0  0  0  0  0  0  0  0  0
   16.4957   21.3466   36.5474 C   0  0  1  0  0  0  0  0  0  0  0  0
   16.0953   20.9622   35.1212 C   0  0  1  0  0  0  0  0  0  0  0  0
   13.2355   23.2031   30.8685 C   0  0  2  0  0  0  0  0  0  0  0  0
   14.2763   22.8588   29.8047 C   0  0  1  0  0  0  0  0  0  0  0  0
  3  1  1  0  0  0  0
  4  1  1  1  0  0  0
  4  6  1  0  0  0  0
  4 31  1  0  0  0  0
  6  7  1  0  0  0  0
  7  9  1  1  0  0  0
  7 30  1  0  0  0  0
 10  9  1  6  0  0  0
 10 13  1  0  0  0  0
 10 21  1  0  0  0  0
 13 12  1  6  0  0  0
 13 15  1  0  0  0  0
 15  2  1  1  0  0  0
 15 17  1  0  0  0  0
 16 25  1  0  0  0  0
 17 19  1  0  0  0  0
 19  5  1  1  0  0  0
 19 21  1  0  0  0  0
 21 14  1  6  0  0  0
 23 14  1  1  0  0  0
 23 16  1  0  0  0  0
 23 29  1  0  0  0  0
 25 26  1  6  0  0  0
 25 27  1  0  0  0  0
 26  8  1  0  0  0  0
 27 18  1  1  0  0  0
 27 28  1  0  0  0  0
 28 20  1  6  0  0  0
 28 29  1  0  0  0  0
 29 11  1  1  0  0  0
 30 22  1  6  0  0  0
 30 31  1  0  0  0  0
 31 24  1  6  0  0  0
M  END
>  <CHROM.1>
177.87572722,-99.60756838,-92.90582887,47.70725082,65.15787694,-58.37378587
13.84883514,22.02345624,33.90665808,-2.27315896,0.34414774,1.75714266

>  <Name>
2fcz_lig

>  <RI>
0

>  <Rbt.Current_Directory>
/home/itssahil/PROJECTS/Mol_Feturizer/New_Systems/rnas/2fcz

>  <Rbt.Executable>
rbdock ($Id: //depot/dev/client3/rdock/2013.1/src/exe/rbdock.cxx#4 $)

>  <Rbt.Library>
libRbt.so (2013.1, Build901 2013/11/27)

>  <Rbt.Parameter_File>
/export/apps/rDock/src/rDock_2013.1_src/data/scripts/dock_solv.prm

>  <Rbt.Receptor>
prm/blind_docking_80.prm

>  <SCORE>
-9.56474

>  <SCORE.INTER>
-10.2509

>  <SCORE.INTER.CONST>
1

>  <SCORE.INTER.POLAR>
-1.19436

>  <SCORE.INTER.ROT>
6

>  <SCORE.INTER.SOLV>
18.3489

>  <SCORE.INTER.VDW>
-16.569

>  <SCORE.INTER.norm>
-0.330673

>  <SCORE.INTRA>
0.6271

>  <SCORE.INTRA.DIHEDRAL>
-0.439663

>  <SCORE.INTRA.DIHEDRAL.0>
10.8409

>  <SCORE.INTRA.POLAR>
0

>  <SCORE.INTRA.POLAR.0>
0

>  <SCORE.INTRA.REPUL>
0

>  <SCORE.INTRA.REPUL.0>
0

>  <SCORE.INTRA.SOLV>
-2.33953

>  <SCORE.INTRA.SOLV.lig_0>
-80.8302

>  <SCORE.INTRA.VDW>
2.01669

>  <SCORE.INTRA.VDW.0>
-4.23953

>  <SCORE.INTRA.norm>
0.020229

>  <SCORE.RESTR>
0.0590225

>  <SCORE.RESTR.CAVITY>
0.0590225

>  <SCORE.RESTR.norm>
0.00190395

>  <SCORE.SYSTEM>
0

>  <SCORE.SYSTEM.CONST>
0

>  <SCORE.SYSTEM.DIHEDRAL>
0

>  <SCORE.SYSTEM.SOLV>
0

>  <SCORE.SYSTEM.norm>
0

>  <SCORE.heavy>
31

>  <SCORE.norm>
-0.30854

>  <RMSD>
8.272

$$$$
2fcz_lig
 OpenBabel11021811433D
libRbt.so/2013.1/901 2013/11/27
 31 33  0  0  0  0  0  0  0  0999 V2000
   16.3516   21.0109   31.7906 C   0  0  0  0  0  0  0  0  0  0  0  0
    8.4606   21.5385   33.6766 N   0  0  0  0  0  0  0  0  0  0  0  0
   16.4606   21.4717   33.1402 O   0  0  0  0  0  0  0  0  0  0  0  0
   15.2503   21.7930   31.0668 C   0  0  1  0  0  0  0  0  0  0  0  0
   11.4600   19.8393   37.1498 N   0  0  0  0  0  0  0  0  0  0  0  0
   13.9836   21.6839   31.7475 O   0  0  0  0  0  0  0  0  0  0  0  0
   13.6630   22.9411   32.3754 C   0  0  1  0  0  0  0  0  0  0  0  0
   14.1259   16.3388   37.2493 N   0  0  0  0  0  0  0  0  0  0  0  0
   13.1859   22.7815   33.7222 O   0  0  0  0  0  0  0  0  0  0  0  0
   12.2758   21.6828   33.9004 C   0  0  2  0  0  0  0  0  0  0  0  0
   15.3048   22.5755   36.1662 N   0  0  0  0  0  0  0  0  0  0  0  0
   10.7053   22.5473   32.2756 O   0  0  0  0  0  0  0  0  0  0  0  0
   10.8435   22.1694   33.6476 C   0  0  1  0  0  0  0  0  0  0  0  0
   13.6689   20.4360   35.5031 O   0  0  0  0  0  0  0  0  0  0  0  0
    9.8242   21.0725   33.9640 C   0  0  1  0  0  0  0  0  0  0  0  0
   14.3818   19.1699   37.3636 O   0  0  0  0  0  0  0  0  0  0  0  0
    9.9272   20.6678   35.4362 C   0  0  0  0  0  0  0  0  0  0  0  0
   17.6729   18.3374   35.9341 O   0  0  0  0  0  0  0  0  0  0  0  0
   11.3336   20.1331   35.7135 C   0  0  1  0  0  0  0  0  0  0  0  0
   17.8142   21.1980   36.1587 O   0  0  0  0  0  0  0  0  0  0  0  0
   12.4263   21.1319   35.3170 C   0  0  2  0  0  0  0  0  0  0  0  0
   14.8156   25.1265   32.4781 O   0  0  0  0  0  0  0  0  0  0  0  0
   14.1745   20.4968   36.8448 C   0  0  1  0  0  0  0  0  0  0  0  0
   14.9070   23.9453   29.9590 O   0  0  0  0  0  0  0  0  0  0  0  0
   15.3461   18.3894   36.6363 C   0  0  2  0  0  0  0  0  0  0  0  0
   15.4378   17.0017   37.2758 C   0  0  0  0  0  0  0  0  0  0  0  0
   16.7101   19.0872   36.6814 C   0  0  2  0  0  0  0  0  0  0  0  0
   16.5749   20.4866   36.0774 C   0  0  1  0  0  0  0  0  0  0  0  0
   15.4945   21.2741   36.8219 C   0  0  1  0  0  0  0  0  0  0  0  0
   14.9858   23.7090   32.3824 C   0  0  2  0  0  0  0  0  0  0  0  0
   15.5752   23.2864   31.0381 C   0  0  1  0  0  0  0  0  0  0  0  0
  3  1  1  0  0  0  0
  4  1  1  1  0  0  0
  4  6  1  0  0  0  0
  4 31  1  0  0  0  0
  6  7  1  0  0  0  0
  7  9  1  1  0  0  0
  7 30  1  0  0  0  0
 10  9  1  1  0  0  0
 10 13  1  0  0  0  0
 10 21  1  0  0  0  0
 13 12  1  6  0  0  0
 13 15  1  0  0  0  0
 15  2  1  1  0  0  0
 15 17  1  0  0  0  0
 16 25  1  0  0  0  0
 17 19  1  0  0  0  0
 19  5  1  1  0  0  0
 19 21  1  0  0  0  0
 21 14  1  6  0  0  0
 23 14  1  6  0  0  0
 23 16  1  0  0  0  0
 23 29  1  0  0  0  0
 25 26  1  1  0  0  0
 25 27  1  0  0  0  0
 26  8  1  0  0  0  0
 27 18  1  6  0  0  0
 27 28  1  0  0  0  0
 28 20  1  1  0  0  0
 28 29  1  0  0  0  0
 29 11  1  6  0  0  0
 30 22  1  6  0  0  0
 30 31  1  0  0  0  0
 31 24  1  6  0  0  0
M  END
>  <CHROM.1>
-56.86724880,-41.51539044,-89.02504881,150.02720013,123.78813546,59.09176334
14.01046457,21.09581041,34.47063643,-1.89253586,-0.03903729,2.27505054

>  <Name>
2fcz_lig

>  <RI>
2.76032e+07

>  <Rbt.Current_Directory>
/home/itssahil/PROJECTS/Mol_Feturizer/New_Systems/rnas/2fcz

>  <Rbt.Executable>
rbdock ($Id: //depot/dev/client3/rdock/2013.1/src/exe/rbdock.cxx#4 $)

>  <Rbt.Library>
libRbt.so (2013.1, Build901 2013/11/27)

>  <Rbt.Parameter_File>
/export/apps/rDock/src/rDock_2013.1_src/data/scripts/dock_solv.prm

>  <Rbt.Receptor>
prm/pocket_docking_8.prm

>  <SCORE>
-16.1406

>  <SCORE.INTER>
-19.9661

>  <SCORE.INTER.CONST>
1

>  <SCORE.INTER.POLAR>
-2.44189

>  <SCORE.INTER.ROT>
6

>  <SCORE.INTER.SOLV>
14.6868

>  <SCORE.INTER.VDW>
-17.6667

>  <SCORE.INTER.norm>
-0.644069

>  <SCORE.INTRA>
3.82429

>  <SCORE.INTRA.DIHEDRAL>
4.94591

>  <SCORE.INTRA.DIHEDRAL.0>
10.8409

>  <SCORE.INTRA.POLAR>
0

>  <SCORE.INTRA.POLAR.0>
0

>  <SCORE.INTRA.REPUL>
0

>  <SCORE.INTRA.REPUL.0>
0

>  <SCORE.INTRA.SOLV>
0.980851

>  <SCORE.INTRA.SOLV.lig_0>
-80.8302

>  <SCORE.INTRA.VDW>
0.860914

>  <SCORE.INTRA.VDW.0>
-4.23953

>  <SCORE.INTRA.norm>
0.123364

>  <SCORE.RESTR>
0.00127797

>  <SCORE.RESTR.CAVITY>
0.00127797

>  <SCORE.RESTR.norm>
4.12248e-05

>  <SCORE.SYSTEM>
0

>  <SCORE.SYSTEM.CONST>
0

>  <SCORE.SYSTEM.DIHEDRAL>
0

>  <SCORE.SYSTEM.SOLV>
0

>  <SCORE.SYSTEM.norm>
0

>  <SCORE.heavy>
31

>  <SCORE.norm>
-0.520663

>  <RMSD>
8.280

$$$$
2fcz_lig
 OpenBabel11021811433D
libRbt.so/2013.1/901 2013/11/27
 31 33  0  0  0  0  0  0  0  0999 V2000
   15.0668   18.9465   35.8269 C   0  0  0  0  0  0  0  0  0  0  0  0
   10.6002   22.4980   32.1619 N   0  0  0  0  0  0  0  0  0  0  0  0
   15.5420   17.7468   36.4437 O   0  0  0  0  0  0  0  0  0  0  0  0
   14.7420   18.6744   34.3541 C   0  0  1  0  0  0  0  0  0  0  0  0
   13.6806   22.2278   28.3691 N   0  0  0  0  0  0  0  0  0  0  0  0
   14.2330   19.8512   33.6942 O   0  0  0  0  0  0  0  0  0  0  0  0
   15.2259   20.3611   32.7821 C   0  0  1  0  0  0  0  0  0  0  0  0
   16.7284   24.0937   34.2912 N   0  0  0  0  0  0  0  0  0  0  0  0
   15.3817   21.7874   32.8742 O   0  0  0  0  0  0  0  0  0  0  0  0
   14.4241   22.5370   32.1074 C   0  0  2  0  0  0  0  0  0  0  0  0
   16.6287   24.2259   27.8626 N   0  0  0  0  0  0  0  0  0  0  0  0
   12.8199   22.5930   33.9177 O   0  0  0  0  0  0  0  0  0  0  0  0
   13.0089   22.1648   32.5668 C   0  0  1  0  0  0  0  0  0  0  0  0
   15.8294   22.7982   30.1023 O   0  0  0  0  0  0  0  0  0  0  0  0
   11.9497   22.8290   31.6840 C   0  0  1  0  0  0  0  0  0  0  0  0
   16.2620   24.6116   31.5505 O   0  0  0  0  0  0  0  0  0  0  0  0
   12.1074   22.3653   30.2342 C   0  0  0  0  0  0  0  0  0  0  0  0
   19.9247   24.2390   31.4345 O   0  0  0  0  0  0  0  0  0  0  0  0
   13.4954   22.7623   29.7276 C   0  0  1  0  0  0  0  0  0  0  0  0
   19.2907   24.8609   28.7024 O   0  0  0  0  0  0  0  0  0  0  0  0
   14.6183   22.2291   30.6240 C   0  0  2  0  0  0  0  0  0  0  0  0
   17.5036   19.6188   32.1689 O   0  0  0  0  0  0  0  0  0  0  0  0
   15.8952   24.2275   30.2122 C   0  0  1  0  0  0  0  0  0  0  0  0
   15.6863   17.5243   32.4142 O   0  0  0  0  0  0  0  0  0  0  0  0
   17.5556   24.1449   31.9711 C   0  0  2  0  0  0  0  0  0  0  0  0
   17.7954   24.5966   33.4139 C   0  0  0  0  0  0  0  0  0  0  0  0
   18.6344   24.7209   31.0470 C   0  0  2  0  0  0  0  0  0  0  0  0
   18.3412   24.2898   29.6084 C   0  0  1  0  0  0  0  0  0  0  0  0
   16.9334   24.7357   29.2068 C   0  0  1  0  0  0  0  0  0  0  0  0
   16.5221   19.6702   33.2088 C   0  0  2  0  0  0  0  0  0  0  0  0
   16.0033   18.2833   33.5840 C   0  0  1  0  0  0  0  0  0  0  0  0
  3  1  1  0  0  0  0
  4  1  1  1  0  0  0
  4  6  1  0  0  0  0
  4 31  1  0  0  0  0
  6  7  1  0  0  0  0
  7  9  1  1  0  0  0
  7 30  1  0  0  0  0
 10  9  1  1  0  0  0
 10 13  1  0  0  0  0
 10 21  1  0  0  0  0
 13 12  1  1  0  0  0
 13 15  1  0  0  0  0
 15  2  1  1  0  0  0
 15 17  1  0  0  0  0
 16 25  1  0  0  0  0
 17 19  1  0  0  0  0
 19  5  1  6  0  0  0
 19 21  1  0  0  0  0
 21 14  1  6  0  0  0
 23 14  1  1  0  0  0
 23 16  1  0  0  0  0
 23 29  1  0  0  0  0
 25 26  1  1  0  0  0
 25 27  1  0  0  0  0
 26  8  1  0  0  0  0
 27 18  1  1  0  0  0
 27 28  1  0  0  0  0
 28 20  1  6  0  0  0
 28 29  1  0  0  0  0
 29 11  1  6  0  0  0
 30 22  1  6  0  0  0
 30 31  1  0  0  0  0
 31 24  1  6  0  0  0
M  END
>  <CHROM.1>
178.86918472,-83.50533207,57.98928149,-59.94013810,79.34365536,57.35993135
15.59436902,22.10614949,31.90446698,-1.97497653,-0.14784193,-0.74767026

>  <Name>
2fcz_lig

>  <RI>
2.6968e+07

>  <Rbt.Current_Directory>
/home/itssahil/PROJECTS/Mol_Feturizer/New_Systems/rnas/2fcz

>  <Rbt.Executable>
rbdock ($Id: //depot/dev/client3/rdock/2013.1/src/exe/rbdock.cxx#4 $)

>  <Rbt.Library>
libRbt.so (2013.1, Build901 2013/11/27)

>  <Rbt.Parameter_File>
/export/apps/rDock/src/rDock_2013.1_src/data/scripts/dock_solv.prm

>  <Rbt.Receptor>
prm/blind_docking_60.prm

>  <SCORE>
-18.6894

>  <SCORE.INTER>
-18.0272

>  <SCORE.INTER.CONST>
1

>  <SCORE.INTER.POLAR>
-0.8

>  <SCORE.INTER.ROT>
6

>  <SCORE.INTER.SOLV>
19.5257

>  <SCORE.INTER.VDW>
-23.4601

>  <SCORE.INTER.norm>
-0.581523

>  <SCORE.INTRA>
-0.662199

>  <SCORE.INTRA.DIHEDRAL>
-6.58396

>  <SCORE.INTRA.DIHEDRAL.0>
10.8409

>  <SCORE.INTRA.POLAR>
0

>  <SCORE.INTRA.POLAR.0>
0

>  <SCORE.INTRA.REPUL>
0

>  <SCORE.INTRA.REPUL.0>
0

>  <SCORE.INTRA.SOLV>
-0.230907

>  <SCORE.INTRA.SOLV.lig_0>
-80.8302

>  <SCORE.INTRA.VDW>
2.74524

>  <SCORE.INTRA.VDW.0>
-4.23953

>  <SCORE.INTRA.norm>
-0.0213613

>  <SCORE.RESTR>
0

>  <SCORE.RESTR.CAVITY>
0

>  <SCORE.RESTR.norm>
0

>  <SCORE.SYSTEM>
0

>  <SCORE.SYSTEM.CONST>
0

>  <SCORE.SYSTEM.DIHEDRAL>
0

>  <SCORE.SYSTEM.SOLV>
0

>  <SCORE.SYSTEM.norm>
0

>  <SCORE.heavy>
31

>  <SCORE.norm>
-0.602884

>  <RMSD>
8.290

$$$$
2fcz_lig
 OpenBabel11021811433D
libRbt.so/2013.1/901 2013/11/27
 31 33  0  0  0  0  0  0  0  0999 V2000
   16.3335   21.0438   31.8150 C   0  0  0  0  0  0  0  0  0  0  0  0
    8.4657   21.5469   33.6763 N   0  0  0  0  0  0  0  0  0  0  0  0
   16.4357   21.4850   33.1716 O   0  0  0  0  0  0  0  0  0  0  0  0
   15.2322   21.8327   31.0985 C   0  0  1  0  0  0  0  0  0  0  0  0
   11.4315   19.9078   37.2069 N   0  0  0  0  0  0  0  0  0  0  0  0
   13.9679   21.7260   31.7840 O   0  0  0  0  0  0  0  0  0  0  0  0
   13.6547   22.9822   32.4177 C   0  0  1  0  0  0  0  0  0  0  0  0
   14.3809   16.3409   37.1136 N   0  0  0  0  0  0  0  0  0  0  0  0
   13.1825   22.8194   33.7660 O   0  0  0  0  0  0  0  0  0  0  0  0
   12.2769   21.7174   33.9459 C   0  0  2  0  0  0  0  0  0  0  0  0
   15.1651   22.7167   36.2872 N   0  0  0  0  0  0  0  0  0  0  0  0
   10.7217   22.5528   32.2915 O   0  0  0  0  0  0  0  0  0  0  0  0
   10.8449   22.1921   33.6694 C   0  0  1  0  0  0  0  0  0  0  0  0
   13.6572   20.4985   35.5808 O   0  0  0  0  0  0  0  0  0  0  0  0
    9.8284   21.0927   33.9863 C   0  0  1  0  0  0  0  0  0  0  0  0
   14.4149   19.2529   37.4374 O   0  0  0  0  0  0  0  0  0  0  0  0
    9.9154   20.7064   35.4645 C   0  0  0  0  0  0  0  0  0  0  0  0
   17.7644   18.6171   36.0429 O   0  0  0  0  0  0  0  0  0  0  0  0
   11.3214   20.1837   35.7656 C   0  0  1  0  0  0  0  0  0  0  0  0
   17.7461   21.4785   36.2985 O   0  0  0  0  0  0  0  0  0  0  0  0
   12.4129   21.1844   35.3709 C   0  0  2  0  0  0  0  0  0  0  0  0
   14.8160   25.1628   32.5236 O   0  0  0  0  0  0  0  0  0  0  0  0
   14.1418   20.5721   36.9295 C   0  0  1  0  0  0  0  0  0  0  0  0
   14.8926   23.9903   29.9999 O   0  0  0  0  0  0  0  0  0  0  0  0
   15.4296   18.5342   36.7149 C   0  0  2  0  0  0  0  0  0  0  0  0
   15.5892   17.1467   37.3414 C   0  0  0  0  0  0  0  0  0  0  0  0
   16.7527   19.3049   36.7850 C   0  0  2  0  0  0  0  0  0  0  0  0
   16.5487   20.7014   36.1937 C   0  0  1  0  0  0  0  0  0  0  0  0
   15.4174   21.4205   36.9320 C   0  0  1  0  0  0  0  0  0  0  0  0
   14.9804   23.7450   32.4221 C   0  0  2  0  0  0  0  0  0  0  0  0
   15.5627   23.3250   31.0738 C   0  0  1  0  0  0  0  0  0  0  0  0
  3  1  1  0  0  0  0
  4  1  1  1  0  0  0
  4  6  1  0  0  0  0
  4 31  1  0  0  0  0
  6  7  1  0  0  0  0
  7  9  1  1  0  0  0
  7 30  1  0  0  0  0
 10  9  1  1  0  0  0
 10 13  1  0  0  0  0
 10 21  1  0  0  0  0
 13 12  1  6  0  0  0
 13 15  1  0  0  0  0
 15  2  1  1  0  0  0
 15 17  1  0  0  0  0
 16 25  1  0  0  0  0
 17 19  1  0  0  0  0
 19  5  1  1  0  0  0
 19 21  1  0  0  0  0
 21 14  1  6  0  0  0
 23 14  1  6  0  0  0
 23 16  1  0  0  0  0
 23 29  1  0  0  0  0
 25 26  1  1  0  0  0
 25 27  1  0  0  0  0
 26  8  1  0  0  0  0
 27 18  1  6  0  0  0
 27 28  1  0  0  0  0
 28 20  1  1  0  0  0
 28 29  1  0  0  0  0
 29 11  1  6  0  0  0
 30 22  1  6  0  0  0
 30 31  1  0  0  0  0
 31 24  1  6  0  0  0
M  END
>  <CHROM.1>
-55.97981700,-41.06709124,-87.84566661,150.35413510,126.71291452,67.50484131
14.01521881,21.17545032,34.52283437,-1.92157247,-0.02411414,2.26035587

>  <Name>
2fcz_lig

>  <RI>
1.40544e+07

>  <Rbt.Current_Directory>
/home/itssahil/PROJECTS/Mol_Feturizer/New_Systems/rnas/2fcz

>  <Rbt.Executable>
rbdock ($Id: //depot/dev/client3/rdock/2013.1/src/exe/rbdock.cxx#4 $)

>  <Rbt.Library>
libRbt.so (2013.1, Build901 2013/11/27)

>  <Rbt.Parameter_File>
/export/apps/rDock/src/rDock_2013.1_src/data/scripts/dock_solv.prm

>  <Rbt.Receptor>
prm/blind_docking_100.prm

>  <SCORE>
-16.2524

>  <SCORE.INTER>
-19.9954

>  <SCORE.INTER.CONST>
1

>  <SCORE.INTER.POLAR>
-2.40147

>  <SCORE.INTER.ROT>
6

>  <SCORE.INTER.SOLV>
15.5607

>  <SCORE.INTER.VDW>
-18.1122

>  <SCORE.INTER.norm>
-0.645012

>  <SCORE.INTRA>
3.74301

>  <SCORE.INTRA.DIHEDRAL>
4.80531

>  <SCORE.INTRA.DIHEDRAL.0>
10.8409

>  <SCORE.INTRA.POLAR>
0

>  <SCORE.INTRA.POLAR.0>
0

>  <SCORE.INTRA.REPUL>
0

>  <SCORE.INTRA.REPUL.0>
0

>  <SCORE.INTRA.SOLV>
0.779948

>  <SCORE.INTRA.SOLV.lig_0>
-80.8302

>  <SCORE.INTRA.VDW>
0.950376

>  <SCORE.INTRA.VDW.0>
-4.23953

>  <SCORE.INTRA.norm>
0.120742

>  <SCORE.RESTR>
0

>  <SCORE.RESTR.CAVITY>
0

>  <SCORE.RESTR.norm>
0

>  <SCORE.SYSTEM>
0

>  <SCORE.SYSTEM.CONST>
0

>  <SCORE.SYSTEM.DIHEDRAL>
0

>  <SCORE.SYSTEM.SOLV>
0

>  <SCORE.SYSTEM.norm>
0

>  <SCORE.heavy>
31

>  <SCORE.norm>
-0.524269

>  <RMSD>
8.306

$$$$
2fcz_lig
 OpenBabel11021811433D
libRbt.so/2013.1/901 2013/11/27
 31 33  0  0  0  0  0  0  0  0999 V2000
   15.1753   26.8495   34.5444 C   0  0  0  0  0  0  0  0  0  0  0  0
   15.6194   18.7649   37.6667 N   0  0  0  0  0  0  0  0  0  0  0  0
   14.2125   26.7185   33.4949 O   0  0  0  0  0  0  0  0  0  0  0  0
   14.7193   26.0429   35.7650 C   0  0  1  0  0  0  0  0  0  0  0  0
   16.2760   18.7380   32.8174 N   0  0  0  0  0  0  0  0  0  0  0  0
   14.5843   24.6405   35.4573 O   0  0  0  0  0  0  0  0  0  0  0  0
   15.6488   23.9026   36.0898 C   0  0  1  0  0  0  0  0  0  0  0  0
   19.2974   23.8361   32.2644 N   0  0  0  0  0  0  0  0  0  0  0  0
   16.2544   22.9404   35.2097 O   0  0  0  0  0  0  0  0  0  0  0  0
   15.5868   21.6676   35.1767 C   0  0  2  0  0  0  0  0  0  0  0  0
   13.0422   22.3344   31.8745 N   0  0  0  0  0  0  0  0  0  0  0  0
   15.3459   21.5821   37.5826 O   0  0  0  0  0  0  0  0  0  0  0  0
   15.9099   20.8960   36.4622 C   0  0  1  0  0  0  0  0  0  0  0  0
   15.5320   21.4555   32.7240 O   0  0  0  0  0  0  0  0  0  0  0  0
   15.3391   19.4768   36.4122 C   0  0  1  0  0  0  0  0  0  0  0  0
   16.4665   23.6190   32.5870 O   0  0  0  0  0  0  0  0  0  0  0  0
   15.9484   18.7061   35.2390 C   0  0  0  0  0  0  0  0  0  0  0  0
   16.6635   23.6434   28.9089 O   0  0  0  0  0  0  0  0  0  0  0  0
   15.6055   19.4250   33.9327 C   0  0  1  0  0  0  0  0  0  0  0  0
   13.8329   23.4606   29.3643 O   0  0  0  0  0  0  0  0  0  0  0  0
   16.0446   20.8933   33.9422 C   0  0  2  0  0  0  0  0  0  0  0  0
   17.5437   24.5644   37.5343 O   0  0  0  0  0  0  0  0  0  0  0  0
   15.2605   22.8625   32.8016 C   0  0  1  0  0  0  0  0  0  0  0  0
   15.1660   25.8687   38.1625 O   0  0  0  0  0  0  0  0  0  0  0  0
   17.0696   23.4258   31.2958 C   0  0  2  0  0  0  0  0  0  0  0  0
   18.3509   24.2600   31.2224 C   0  0  0  0  0  0  0  0  0  0  0  0
   16.0885   23.8602   30.2011 C   0  0  2  0  0  0  0  0  0  0  0  0
   14.8026   23.0408   30.3297 C   0  0  1  0  0  0  0  0  0  0  0  0
   14.2169   23.2061   31.7339 C   0  0  1  0  0  0  0  0  0  0  0  0
   16.6742   24.9709   36.4731 C   0  0  2  0  0  0  0  0  0  0  0  0
   15.7570   26.1208   36.8849 C   0  0  1  0  0  0  0  0  0  0  0  0
  3  1  1  0  0  0  0
  4  1  1  6  0  0  0
  4  6  1  0  0  0  0
  4 31  1  0  0  0  0
  6  7  1  0  0  0  0
  7  9  1  6  0  0  0
  7 30  1  0  0  0  0
 10  9  1  1  0  0  0
 10 13  1  0  0  0  0
 10 21  1  0  0  0  0
 13 12  1  1  0  0  0
 13 15  1  0  0  0  0
 15  2  1  1  0  0  0
 15 17  1  0  0  0  0
 16 25  1  0  0  0  0
 17 19  1  0  0  0  0
 19  5  1  6  0  0  0
 19 21  1  0  0  0  0
 21 14  1  6  0  0  0
 23 14  1  6  0  0  0
 23 16  1  0  0  0  0
 23 29  1  0  0  0  0
 25 26  1  1  0  0  0
 25 27  1  0  0  0  0
 26  8  1  0  0  0  0
 27 18  1  6  0  0  0
 27 28  1  0  0  0  0
 28 20  1  6  0  0  0
 28 29  1  0  0  0  0
 29 11  1  6  0  0  0
 30 22  1  1  0  0  0
 30 31  1  0  0  0  0
 31 24  1  1  0  0  0
M  END
>  <CHROM.1>
60.35246183,-86.04328687,-75.01924438,27.27065312,82.74267082,60.35223326
15.73865600,23.00441783,34.00616602,1.57486674,-1.54837430,1.69912820

>  <Name>
2fcz_lig

>  <RI>
0

>  <Rbt.Current_Directory>
/home/itssahil/PROJECTS/Mol_Feturizer/New_Systems/rnas/2fcz

>  <Rbt.Executable>
rbdock ($Id: //depot/dev/client3/rdock/2013.1/src/exe/rbdock.cxx#4 $)

>  <Rbt.Library>
libRbt.so (2013.1, Build901 2013/11/27)

>  <Rbt.Parameter_File>
/export/apps/rDock/src/rDock_2013.1_src/data/scripts/dock_solv.prm

>  <Rbt.Receptor>
prm/blind_docking_80.prm

>  <SCORE>
-16.6613

>  <SCORE.INTER>
-18.4104

>  <SCORE.INTER.CONST>
1

>  <SCORE.INTER.POLAR>
-2.40959

>  <SCORE.INTER.ROT>
6

>  <SCORE.INTER.SOLV>
19.4359

>  <SCORE.INTER.VDW>
-18.3203

>  <SCORE.INTER.norm>
-0.593883

>  <SCORE.INTRA>
1.7192

>  <SCORE.INTRA.DIHEDRAL>
-0.521291

>  <SCORE.INTRA.DIHEDRAL.0>
10.8409

>  <SCORE.INTRA.POLAR>
0

>  <SCORE.INTRA.POLAR.0>
0

>  <SCORE.INTRA.REPUL>
0

>  <SCORE.INTRA.REPUL.0>
0

>  <SCORE.INTRA.SOLV>
-3.60685

>  <SCORE.INTRA.SOLV.lig_0>
-80.8302

>  <SCORE.INTRA.VDW>
3.78327

>  <SCORE.INTRA.VDW.0>
-4.23953

>  <SCORE.INTRA.norm>
0.055458

>  <SCORE.RESTR>
0.0298416

>  <SCORE.RESTR.CAVITY>
0.0298416

>  <SCORE.RESTR.norm>
0.000962632

>  <SCORE.SYSTEM>
0

>  <SCORE.SYSTEM.CONST>
0

>  <SCORE.SYSTEM.DIHEDRAL>
0

>  <SCORE.SYSTEM.SOLV>
0

>  <SCORE.SYSTEM.norm>
0

>  <SCORE.heavy>
31

>  <SCORE.norm>
-0.537463

>  <RMSD>
8.309

$$$$
2fcz_lig
 OpenBabel11021811433D
libRbt.so/2013.1/901 2013/11/27
 31 33  0  0  0  0  0  0  0  0999 V2000
   15.7562   19.1904   36.1059 C   0  0  0  0  0  0  0  0  0  0  0  0
   10.6525   22.5087   32.3359 N   0  0  0  0  0  0  0  0  0  0  0  0
   14.7516   19.5853   37.0442 O   0  0  0  0  0  0  0  0  0  0  0  0
   15.1018   18.8553   34.7614 C   0  0  1  0  0  0  0  0  0  0  0  0
   13.6884   22.1816   28.5118 N   0  0  0  0  0  0  0  0  0  0  0  0
   14.4795   20.0130   34.1680 O   0  0  0  0  0  0  0  0  0  0  0  0
   15.2503   20.4452   33.0292 C   0  0  1  0  0  0  0  0  0  0  0  0
   16.8446   24.0658   34.3920 N   0  0  0  0  0  0  0  0  0  0  0  0
   15.4503   21.8688   33.0042 O   0  0  0  0  0  0  0  0  0  0  0  0
   14.4748   22.5891   32.2319 C   0  0  2  0  0  0  0  0  0  0  0  0
   16.6316   24.2186   27.9401 N   0  0  0  0  0  0  0  0  0  0  0  0
   12.8927   22.6708   34.0606 O   0  0  0  0  0  0  0  0  0  0  0  0
   13.0698   22.2123   32.7180 C   0  0  1  0  0  0  0  0  0  0  0  0
   15.8520   22.8175   30.2034 O   0  0  0  0  0  0  0  0  0  0  0  0
   11.9921   22.8432   31.8331 C   0  0  1  0  0  0  0  0  0  0  0  0
   16.2817   24.6531   31.6242 O   0  0  0  0  0  0  0  0  0  0  0  0
   12.1371   22.3465   30.3930 C   0  0  0  0  0  0  0  0  0  0  0  0
   19.9459   24.2995   31.4942 O   0  0  0  0  0  0  0  0  0  0  0  0
   13.5141   22.7466   29.8594 C   0  0  1  0  0  0  0  0  0  0  0  0
   19.2942   24.8800   28.7571 O   0  0  0  0  0  0  0  0  0  0  0  0
   14.6541   22.2477   30.7539 C   0  0  2  0  0  0  0  0  0  0  0  0
   17.3156   19.6020   31.9623 O   0  0  0  0  0  0  0  0  0  0  0  0
   15.9102   24.2485   30.2933 C   0  0  1  0  0  0  0  0  0  0  0  0
   15.5608   17.5806   32.7262 O   0  0  0  0  0  0  0  0  0  0  0  0
   17.5801   24.1995   32.0445 C   0  0  2  0  0  0  0  0  0  0  0  0
   17.8248   24.6725   33.4796 C   0  0  0  0  0  0  0  0  0  0  0  0
   18.6508   24.7687   31.1069 C   0  0  2  0  0  0  0  0  0  0  0  0
   18.3526   24.3162   29.6759 C   0  0  1  0  0  0  0  0  0  0  0  0
   16.9403   24.7486   29.2755 C   0  0  1  0  0  0  0  0  0  0  0  0
   16.5958   19.7362   33.1917 C   0  0  2  0  0  0  0  0  0  0  0  0
   16.1485   18.3868   33.7506 C   0  0  1  0  0  0  0  0  0  0  0  0
  3  1  1  0  0  0  0
  4  1  1  1  0  0  0
  4  6  1  0  0  0  0
  4 31  1  0  0  0  0
  6  7  1  0  0  0  0
  7  9  1  1  0  0  0
  7 30  1  0  0  0  0
 10  9  1  1  0  0  0
 10 13  1  0  0  0  0
 10 21  1  0  0  0  0
 13 12  1  1  0  0  0
 13 15  1  0  0  0  0
 15  2  1  1  0  0  0
 15 17  1  0  0  0  0
 16 25  1  0  0  0  0
 17 19  1  0  0  0  0
 19  5  1  6  0  0  0
 19 21  1  0  0  0  0
 21 14  1  6  0  0  0
 23 14  1  1  0  0  0
 23 16  1  0  0  0  0
 23 29  1  0  0  0  0
 25 26  1  1  0  0  0
 25 27  1  0  0  0  0
 26  8  1  0  0  0  0
 27 18  1  1  0  0  0
 27 28  1  0  0  0  0
 28 20  1  6  0  0  0
 28 29  1  0  0  0  0
 29 11  1  6  0  0  0
 30 22  1  6  0  0  0
 30 31  1  0  0  0  0
 31 24  1  6  0  0  0
M  END
>  <CHROM.1>
64.32956109,-93.64606730,53.58904386,-59.20596587,78.62650828,63.08171526
15.62651243,22.21959078,32.05396210,-2.00889661,-0.17734539,-0.83903658

>  <Name>
2fcz_lig

>  <RI>
2.6968e+07

>  <Rbt.Current_Directory>
/home/itssahil/PROJECTS/Mol_Feturizer/New_Systems/rnas/2fcz

>  <Rbt.Executable>
rbdock ($Id: //depot/dev/client3/rdock/2013.1/src/exe/rbdock.cxx#4 $)

>  <Rbt.Library>
libRbt.so (2013.1, Build901 2013/11/27)

>  <Rbt.Parameter_File>
/export/apps/rDock/src/rDock_2013.1_src/data/scripts/dock_solv.prm

>  <Rbt.Receptor>
prm/blind_docking_60.prm

>  <SCORE>
-22.4039

>  <SCORE.INTER>
-22.6239

>  <SCORE.INTER.CONST>
1

>  <SCORE.INTER.POLAR>
-1.69443

>  <SCORE.INTER.ROT>
6

>  <SCORE.INTER.SOLV>
19.5061

>  <SCORE.INTER.VDW>
-23.5366

>  <SCORE.INTER.norm>
-0.729803

>  <SCORE.INTRA>
0.220039

>  <SCORE.INTRA.DIHEDRAL>
-4.58425

>  <SCORE.INTRA.DIHEDRAL.0>
10.8409

>  <SCORE.INTRA.POLAR>
0

>  <SCORE.INTRA.POLAR.0>
0

>  <SCORE.INTRA.REPUL>
0

>  <SCORE.INTRA.REPUL.0>
0

>  <SCORE.INTRA.SOLV>
-0.169289

>  <SCORE.INTRA.SOLV.lig_0>
-80.8302

>  <SCORE.INTRA.VDW>
2.59681

>  <SCORE.INTRA.VDW.0>
-4.23953

>  <SCORE.INTRA.norm>
0.00709804

>  <SCORE.RESTR>
0

>  <SCORE.RESTR.CAVITY>
0

>  <SCORE.RESTR.norm>
0

>  <SCORE.SYSTEM>
0

>  <SCORE.SYSTEM.CONST>
0

>  <SCORE.SYSTEM.DIHEDRAL>
0

>  <SCORE.SYSTEM.SOLV>
0

>  <SCORE.SYSTEM.norm>
0

>  <SCORE.heavy>
31

>  <SCORE.norm>
-0.722705

>  <RMSD>
8.310

$$$$
2fcz_lig
 OpenBabel11021811433D
libRbt.so/2013.1/901 2013/11/27
 31 33  0  0  0  0  0  0  0  0999 V2000
   12.7127   20.3506   36.3887 C   0  0  0  0  0  0  0  0  0  0  0  0
   16.2472   17.3353   34.4121 N   0  0  0  0  0  0  0  0  0  0  0  0
   12.1921   20.5061   37.7117 O   0  0  0  0  0  0  0  0  0  0  0  0
   13.5292   21.5903   36.0078 C   0  0  1  0  0  0  0  0  0  0  0  0
   18.6988   21.3600   33.0934 N   0  0  0  0  0  0  0  0  0  0  0  0
   14.3953   21.3335   34.8837 O   0  0  0  0  0  0  0  0  0  0  0  0
   13.8920   22.0188   33.7198 C   0  0  1  0  0  0  0  0  0  0  0  0
   19.6753   23.7185   34.2284 N   0  0  0  0  0  0  0  0  0  0  0  0
   13.8974   21.1908   32.5444 O   0  0  0  0  0  0  0  0  0  0  0  0
   15.0697   20.3704   32.4050 C   0  0  2  0  0  0  0  0  0  0  0  0
   15.2216   23.6830   29.5818 N   0  0  0  0  0  0  0  0  0  0  0  0
   13.9278   18.3778   33.1660 O   0  0  0  0  0  0  0  0  0  0  0  0
   15.0260   19.2482   33.4495 C   0  0  1  0  0  0  0  0  0  0  0  0
   16.5213   22.1299   31.4770 O   0  0  0  0  0  0  0  0  0  0  0  0
   16.3207   18.4321   33.4370 C   0  0  1  0  0  0  0  0  0  0  0  0
   17.3568   24.0209   32.6166 O   0  0  0  0  0  0  0  0  0  0  0  0
   17.5130   19.3324   33.7680 C   0  0  0  0  0  0  0  0  0  0  0  0
   19.9243   24.7992   30.0927 O   0  0  0  0  0  0  0  0  0  0  0  0
   17.6142   20.4394   32.7168 C   0  0  1  0  0  0  0  0  0  0  0  0
   17.4895   25.1308   28.6045 O   0  0  0  0  0  0  0  0  0  0  0  0
   16.3134   21.2388   32.5841 C   0  0  2  0  0  0  0  0  0  0  0  0
   11.9366   23.4810   33.3278 O   0  0  0  0  0  0  0  0  0  0  0  0
   16.2928   23.5113   31.7913 C   0  0  1  0  0  0  0  0  0  0  0  0
   13.2438   24.0025   35.7296 O   0  0  0  0  0  0  0  0  0  0  0  0
   18.6563   23.9879   32.0016 C   0  0  2  0  0  0  0  0  0  0  0  0
   19.6857   24.5248   32.9992 C   0  0  0  0  0  0  0  0  0  0  0  0
   18.6457   24.8484   30.7331 C   0  0  2  0  0  0  0  0  0  0  0  0
   17.5769   24.3147   29.7770 C   0  0  1  0  0  0  0  0  0  0  0  0
   16.2156   24.2929   30.4759 C   0  0  1  0  0  0  0  0  0  0  0  0
   12.4534   22.3848   34.0886 C   0  0  2  0  0  0  0  0  0  0  0  0
   12.6107   22.7304   35.5681 C   0  0  1  0  0  0  0  0  0  0  0  0
  3  1  1  0  0  0  0
  4  1  1  6  0  0  0
  4  6  1  0  0  0  0
  4 31  1  0  0  0  0
  6  7  1  0  0  0  0
  7  9  1  6  0  0  0
  7 30  1  0  0  0  0
 10  9  1  1  0  0  0
 10 13  1  0  0  0  0
 10 21  1  0  0  0  0
 13 12  1  6  0  0  0
 13 15  1  0  0  0  0
 15  2  1  1  0  0  0
 15 17  1  0  0  0  0
 16 25  1  0  0  0  0
 17 19  1  0  0  0  0
 19  5  1  1  0  0  0
 19 21  1  0  0  0  0
 21 14  1  6  0  0  0
 23 14  1  6  0  0  0
 23 16  1  0  0  0  0
 23 29  1  0  0  0  0
 25 26  1  1  0  0  0
 25 27  1  0  0  0  0
 26  8  1  0  0  0  0
 27 18  1  6  0  0  0
 27 28  1  0  0  0  0
 28 20  1  6  0  0  0
 28 29  1  0  0  0  0
 29 11  1  6  0  0  0
 30 22  1  6  0  0  0
 30 31  1  0  0  0  0
 31 24  1  6  0  0  0
M  END
>  <CHROM.1>
162.53827836,-40.89487876,71.69865765,110.00480928,72.56774958,58.57151084
15.80369975,22.10467955,33.02028563,2.39168641,-0.46317125,2.70708682

>  <Name>
2fcz_lig

>  <RI>
2.6968e+07

>  <Rbt.Current_Directory>
/home/itssahil/PROJECTS/Mol_Feturizer/New_Systems/rnas/2fcz

>  <Rbt.Executable>
rbdock ($Id: //depot/dev/client3/rdock/2013.1/src/exe/rbdock.cxx#4 $)

>  <Rbt.Library>
libRbt.so (2013.1, Build901 2013/11/27)

>  <Rbt.Parameter_File>
/export/apps/rDock/src/rDock_2013.1_src/data/scripts/dock_solv.prm

>  <Rbt.Receptor>
prm/blind_docking_60.prm

>  <SCORE>
-12.8542

>  <SCORE.INTER>
-16.1927

>  <SCORE.INTER.CONST>
1

>  <SCORE.INTER.POLAR>
-1.23633

>  <SCORE.INTER.ROT>
6

>  <SCORE.INTER.SOLV>
17.3333

>  <SCORE.INTER.VDW>
-20.0518

>  <SCORE.INTER.norm>
-0.522345

>  <SCORE.INTRA>
3.33853

>  <SCORE.INTRA.DIHEDRAL>
-0.0480482

>  <SCORE.INTRA.DIHEDRAL.0>
10.8409

>  <SCORE.INTRA.POLAR>
0

>  <SCORE.INTRA.POLAR.0>
0

>  <SCORE.INTRA.REPUL>
0

>  <SCORE.INTRA.REPUL.0>
0

>  <SCORE.INTRA.SOLV>
1.3629

>  <SCORE.INTRA.SOLV.lig_0>
-80.8302

>  <SCORE.INTRA.VDW>
2.68111

>  <SCORE.INTRA.VDW.0>
-4.23953

>  <SCORE.INTRA.norm>
0.107695

>  <SCORE.RESTR>
0

>  <SCORE.RESTR.CAVITY>
0

>  <SCORE.RESTR.norm>
0

>  <SCORE.SYSTEM>
0

>  <SCORE.SYSTEM.CONST>
0

>  <SCORE.SYSTEM.DIHEDRAL>
0

>  <SCORE.SYSTEM.SOLV>
0

>  <SCORE.SYSTEM.norm>
0

>  <SCORE.heavy>
31

>  <SCORE.norm>
-0.414651

>  <RMSD>
8.314

$$$$
2fcz_lig
 OpenBabel11021811433D
libRbt.so/2013.1/901 2013/11/27
 31 33  0  0  0  0  0  0  0  0999 V2000
   15.9021   17.7895   34.7313 C   0  0  0  0  0  0  0  0  0  0  0  0
   15.1519   23.4671   28.5492 N   0  0  0  0  0  0  0  0  0  0  0  0
   16.0174   18.7360   35.7973 O   0  0  0  0  0  0  0  0  0  0  0  0
   16.6151   18.3273   33.4859 C   0  0  1  0  0  0  0  0  0  0  0  0
   18.1089   24.9766   32.1443 N   0  0  0  0  0  0  0  0  0  0  0  0
   15.7350   19.1292   32.6722 O   0  0  0  0  0  0  0  0  0  0  0  0
   16.1102   20.5169   32.7781 C   0  0  1  0  0  0  0  0  0  0  0  0
   14.3174   20.1435   37.1116 N   0  0  0  0  0  0  0  0  0  0  0  0
   14.9785   21.3837   32.9656 O   0  0  0  0  0  0  0  0  0  0  0  0
   15.0810   22.6452   32.2837 C   0  0  2  0  0  0  0  0  0  0  0  0
   16.2099   26.1435   35.4917 N   0  0  0  0  0  0  0  0  0  0  0  0
   13.7208   21.9021   30.4259 O   0  0  0  0  0  0  0  0  0  0  0  0
   15.0136   22.4064   30.7702 C   0  0  1  0  0  0  0  0  0  0  0  0
   16.3826   23.7915   34.0317 O   0  0  0  0  0  0  0  0  0  0  0  0
   15.2619   23.7027   29.9955 C   0  0  1  0  0  0  0  0  0  0  0  0
   14.2777   23.0362   34.7879 O   0  0  0  0  0  0  0  0  0  0  0  0
   16.6530   24.2513   30.3205 C   0  0  0  0  0  0  0  0  0  0  0  0
   15.4551   22.1553   38.1651 O   0  0  0  0  0  0  0  0  0  0  0  0
   16.7402   24.5447   31.8195 C   0  0  1  0  0  0  0  0  0  0  0  0
   15.8848   24.9949   38.0936 O   0  0  0  0  0  0  0  0  0  0  0  0
   16.3937   23.3211   32.6747 C   0  0  2  0  0  0  0  0  0  0  0  0
   17.8936   21.7003   34.0167 O   0  0  0  0  0  0  0  0  0  0  0  0
   15.0859   24.1920   34.4981 C   0  0  1  0  0  0  0  0  0  0  0  0
   18.7511   19.3270   32.8414 O   0  0  0  0  0  0  0  0  0  0  0  0
   14.8013   22.1873   35.8239 C   0  0  2  0  0  0  0  0  0  0  0  0
   13.8627   20.9911   35.9998 C   0  0  0  0  0  0  0  0  0  0  0  0
   14.9051   22.9790   37.1323 C   0  0  2  0  0  0  0  0  0  0  0  0
   15.8122   24.1914   36.9114 C   0  0  1  0  0  0  0  0  0  0  0  0
   15.2743   25.0421   35.7586 C   0  0  1  0  0  0  0  0  0  0  0  0
   17.0140   20.5717   34.0109 C   0  0  2  0  0  0  0  0  0  0  0  0
   17.7688   19.2504   33.8778 C   0  0  1  0  0  0  0  0  0  0  0  0
  3  1  1  0  0  0  0
  4  1  1  1  0  0  0
  4  6  1  0  0  0  0
  4 31  1  0  0  0  0
  6  7  1  0  0  0  0
  7  9  1  1  0  0  0
  7 30  1  0  0  0  0
 10  9  1  1  0  0  0
 10 13  1  0  0  0  0
 10 21  1  0  0  0  0
 13 12  1  1  0  0  0
 13 15  1  0  0  0  0
 15  2  1  6  0  0  0
 15 17  1  0  0  0  0
 16 25  1  0  0  0  0
 17 19  1  0  0  0  0
 19  5  1  6  0  0  0
 19 21  1  0  0  0  0
 21 14  1  1  0  0  0
 23 14  1  1  0  0  0
 23 16  1  0  0  0  0
 23 29  1  0  0  0  0
 25 26  1  1  0  0  0
 25 27  1  0  0  0  0
 26  8  1  0  0  0  0
 27 18  1  1  0  0  0
 27 28  1  0  0  0  0
 28 20  1  1  0  0  0
 28 29  1  0  0  0  0
 29 11  1  6  0  0  0
 30 22  1  6  0  0  0
 30 31  1  0  0  0  0
 31 24  1  6  0  0  0
M  END
>  <CHROM.1>
-88.52638041,-142.80830670,67.97954946,-31.09292157,75.83092723,-176.32531657
15.84729051,22.15367077,33.89821985,-2.25119467,1.45095867,-0.77451631

>  <Name>
2fcz_lig

>  <RI>
2.6968e+07

>  <Rbt.Current_Directory>
/home/itssahil/PROJECTS/Mol_Feturizer/New_Systems/rnas/2fcz

>  <Rbt.Executable>
rbdock ($Id: //depot/dev/client3/rdock/2013.1/src/exe/rbdock.cxx#4 $)

>  <Rbt.Library>
libRbt.so (2013.1, Build901 2013/11/27)

>  <Rbt.Parameter_File>
/export/apps/rDock/src/rDock_2013.1_src/data/scripts/dock_solv.prm

>  <Rbt.Receptor>
prm/blind_docking_60.prm

>  <SCORE>
-4.07455

>  <SCORE.INTER>
-12.7427

>  <SCORE.INTER.CONST>
1

>  <SCORE.INTER.POLAR>
-1.68148

>  <SCORE.INTER.ROT>
6

>  <SCORE.INTER.SOLV>
18.5115

>  <SCORE.INTER.VDW>
-16.6607

>  <SCORE.INTER.norm>
-0.411054

>  <SCORE.INTRA>
8.60763

>  <SCORE.INTRA.DIHEDRAL>
1.41637

>  <SCORE.INTRA.DIHEDRAL.0>
10.8409

>  <SCORE.INTRA.POLAR>
0

>  <SCORE.INTRA.POLAR.0>
0

>  <SCORE.INTRA.REPUL>
0

>  <SCORE.INTRA.REPUL.0>
0

>  <SCORE.INTRA.SOLV>
2.5672

>  <SCORE.INTRA.SOLV.lig_0>
-80.8302

>  <SCORE.INTRA.VDW>
6.61584

>  <SCORE.INTRA.VDW.0>
-4.23953

>  <SCORE.INTRA.norm>
0.277665

>  <SCORE.RESTR>
0.0605005

>  <SCORE.RESTR.CAVITY>
0.0605005

>  <SCORE.RESTR.norm>
0.00195163

>  <SCORE.SYSTEM>
0

>  <SCORE.SYSTEM.CONST>
0

>  <SCORE.SYSTEM.DIHEDRAL>
0

>  <SCORE.SYSTEM.SOLV>
0

>  <SCORE.SYSTEM.norm>
0

>  <SCORE.heavy>
31

>  <SCORE.norm>
-0.131437

>  <RMSD>
8.325

$$$$
2fcz_lig
 OpenBabel11021811433D
libRbt.so/2013.1/901 2013/11/27
 31 33  0  0  0  0  0  0  0  0999 V2000
   15.6872   24.1819   30.4417 C   0  0  0  0  0  0  0  0  0  0  0  0
    8.3690   21.0997   33.5713 N   0  0  0  0  0  0  0  0  0  0  0  0
   16.7726   23.9262   29.5461 O   0  0  0  0  0  0  0  0  0  0  0  0
   16.0371   23.6562   31.8380 C   0  0  1  0  0  0  0  0  0  0  0  0
   11.6638   20.4541   37.1313 N   0  0  0  0  0  0  0  0  0  0  0  0
   15.0092   23.9709   32.7992 O   0  0  0  0  0  0  0  0  0  0  0  0
   14.2980   22.7691   33.1566 C   0  0  1  0  0  0  0  0  0  0  0  0
   15.1302   17.5315   38.4967 N   0  0  0  0  0  0  0  0  0  0  0  0
   12.8722   22.9535   33.1721 O   0  0  0  0  0  0  0  0  0  0  0  0
   12.1304   21.7912   33.5792 C   0  0  2  0  0  0  0  0  0  0  0  0
   15.2819   23.1359   36.2437 N   0  0  0  0  0  0  0  0  0  0  0  0
   10.4136   22.1387   31.9103 O   0  0  0  0  0  0  0  0  0  0  0  0
   10.6380   22.0294   33.3180 C   0  0  1  0  0  0  0  0  0  0  0  0
   13.7248   21.0433   35.3004 O   0  0  0  0  0  0  0  0  0  0  0  0
    9.7913   20.8784   33.8665 C   0  0  1  0  0  0  0  0  0  0  0  0
   14.2536   19.6701   37.1463 O   0  0  0  0  0  0  0  0  0  0  0  0
    9.9872   20.7559   35.3792 C   0  0  0  0  0  0  0  0  0  0  0  0
   17.6719   18.9106   36.0035 O   0  0  0  0  0  0  0  0  0  0  0  0
   11.4614   20.4716   35.6739 C   0  0  1  0  0  0  0  0  0  0  0  0
   17.7832   21.7531   36.4049 O   0  0  0  0  0  0  0  0  0  0  0  0
   12.3924   21.5227   35.0599 C   0  0  2  0  0  0  0  0  0  0  0  0
   14.5179   20.4030   32.4723 O   0  0  0  0  0  0  0  0  0  0  0  0
   14.0952   21.0253   36.6867 C   0  0  1  0  0  0  0  0  0  0  0  0
   16.9632   21.6610   32.9053 O   0  0  0  0  0  0  0  0  0  0  0  0
   15.2869   18.9296   36.4742 C   0  0  2  0  0  0  0  0  0  0  0  0
   15.3185   17.5072   37.0388 C   0  0  0  0  0  0  0  0  0  0  0  0
   16.6381   19.6193   36.6938 C   0  0  2  0  0  0  0  0  0  0  0  0
   16.5598   21.0515   36.1608 C   0  0  1  0  0  0  0  0  0  0  0  0
   15.4090   21.7984   36.8391 C   0  0  1  0  0  0  0  0  0  0  0  0
   14.6784   21.7658   32.0666 C   0  0  2  0  0  0  0  0  0  0  0  0
   16.1429   22.1312   31.8324 C   0  0  1  0  0  0  0  0  0  0  0  0
  3  1  1  0  0  0  0
  4  1  1  6  0  0  0
  4  6  1  0  0  0  0
  4 31  1  0  0  0  0
  6  7  1  0  0  0  0
  7  9  1  6  0  0  0
  7 30  1  0  0  0  0
 10  9  1  1  0  0  0
 10 13  1  0  0  0  0
 10 21  1  0  0  0  0
 13 12  1  6  0  0  0
 13 15  1  0  0  0  0
 15  2  1  1  0  0  0
 15 17  1  0  0  0  0
 16 25  1  0  0  0  0
 17 19  1  0  0  0  0
 19  5  1  1  0  0  0
 19 21  1  0  0  0  0
 21 14  1  6  0  0  0
 23 14  1  6  0  0  0
 23 16  1  0  0  0  0
 23 29  1  0  0  0  0
 25 26  1  1  0  0  0
 25 27  1  0  0  0  0
 26  8  1  0  0  0  0
 27 18  1  6  0  0  0
 27 28  1  0  0  0  0
 28 20  1  1  0  0  0
 28 29  1  0  0  0  0
 29 11  1  6  0  0  0
 30 22  1  1  0  0  0
 30 31  1  0  0  0  0
 31 24  1  1  0  0  0
M  END
>  <CHROM.1>
176.12483691,-177.50774310,-170.04465448,168.59141616,112.53589423,-40.45806069
14.14086354,21.32019243,34.45693767,-1.80135538,0.03768597,2.16996632

>  <Name>
2fcz_lig

>  <RI>
1.40544e+07

>  <Rbt.Current_Directory>
/home/itssahil/PROJECTS/Mol_Feturizer/New_Systems/rnas/2fcz

>  <Rbt.Executable>
rbdock ($Id: //depot/dev/client3/rdock/2013.1/src/exe/rbdock.cxx#4 $)

>  <Rbt.Library>
libRbt.so (2013.1, Build901 2013/11/27)

>  <Rbt.Parameter_File>
/export/apps/rDock/src/rDock_2013.1_src/data/scripts/dock_solv.prm

>  <Rbt.Receptor>
prm/blind_docking_100.prm

>  <SCORE>
-13.6793

>  <SCORE.INTER>
-17.0305

>  <SCORE.INTER.CONST>
1

>  <SCORE.INTER.POLAR>
-2.19927

>  <SCORE.INTER.ROT>
6

>  <SCORE.INTER.SOLV>
18.32

>  <SCORE.INTER.VDW>
-17.7294

>  <SCORE.INTER.norm>
-0.549372

>  <SCORE.INTRA>
3.35126

>  <SCORE.INTRA.DIHEDRAL>
-1.32878

>  <SCORE.INTRA.DIHEDRAL.0>
10.8409

>  <SCORE.INTRA.POLAR>
0

>  <SCORE.INTRA.POLAR.0>
0

>  <SCORE.INTRA.REPUL>
0

>  <SCORE.INTRA.REPUL.0>
0

>  <SCORE.INTRA.SOLV>
2.07976

>  <SCORE.INTRA.SOLV.lig_0>
-80.8302

>  <SCORE.INTRA.VDW>
2.97577

>  <SCORE.INTRA.VDW.0>
-4.23953

>  <SCORE.INTRA.norm>
0.108105

>  <SCORE.RESTR>
0

>  <SCORE.RESTR.CAVITY>
0

>  <SCORE.RESTR.norm>
0

>  <SCORE.SYSTEM>
0

>  <SCORE.SYSTEM.CONST>
0

>  <SCORE.SYSTEM.DIHEDRAL>
0

>  <SCORE.SYSTEM.SOLV>
0

>  <SCORE.SYSTEM.norm>
0

>  <SCORE.heavy>
31

>  <SCORE.norm>
-0.441267

>  <RMSD>
8.351

$$$$
2fcz_lig
 OpenBabel11021811433D
libRbt.so/2013.1/901 2013/11/27
 31 33  0  0  0  0  0  0  0  0999 V2000
    9.4608   16.1128   34.6535 C   0  0  0  0  0  0  0  0  0  0  0  0
    4.5454   19.5680   39.9636 N   0  0  0  0  0  0  0  0  0  0  0  0
    9.8981   15.8934   33.3095 O   0  0  0  0  0  0  0  0  0  0  0  0
    8.3550   17.1736   34.6685 C   0  0  1  0  0  0  0  0  0  0  0  0
    8.3893   18.0097   42.5603 N   0  0  0  0  0  0  0  0  0  0  0  0
    7.8703   17.4197   36.0042 O   0  0  0  0  0  0  0  0  0  0  0  0
    8.3206   18.7142   36.4506 C   0  0  1  0  0  0  0  0  0  0  0  0
   11.1056   13.2327   41.9417 N   0  0  0  0  0  0  0  0  0  0  0  0
    8.8340   18.6889   37.7933 O   0  0  0  0  0  0  0  0  0  0  0  0
    7.9068   18.1876   38.7711 C   0  0  2  0  0  0  0  0  0  0  0  0
   11.1776   19.2680   39.6124 N   0  0  0  0  0  0  0  0  0  0  0  0
    5.9829   19.0451   37.5806 O   0  0  0  0  0  0  0  0  0  0  0  0
    6.6836   19.1113   38.8251 C   0  0  1  0  0  0  0  0  0  0  0  0
    9.5846   17.0711   40.1861 O   0  0  0  0  0  0  0  0  0  0  0  0
    5.7320   18.7015   39.9515 C   0  0  1  0  0  0  0  0  0  0  0  0
   11.2089   16.1257   41.6145 O   0  0  0  0  0  0  0  0  0  0  0  0
    6.4459   18.7921   41.3020 C   0  0  0  0  0  0  0  0  0  0  0  0
   13.4205   15.0179   38.8852 O   0  0  0  0  0  0  0  0  0  0  0  0
    7.6483   17.8460   41.2995 C   0  0  1  0  0  0  0  0  0  0  0  0
   13.4495   17.8732   38.5695 O   0  0  0  0  0  0  0  0  0  0  0  0
    8.6009   18.1162   40.1298 C   0  0  2  0  0  0  0  0  0  0  0  0
    9.6805   20.4910   35.3977 O   0  0  0  0  0  0  0  0  0  0  0  0
   10.6790   17.3493   41.0715 C   0  0  1  0  0  0  0  0  0  0  0  0
    7.8308   19.3404   33.6644 O   0  0  0  0  0  0  0  0  0  0  0  0
   11.7434   15.2204   40.6333 C   0  0  2  0  0  0  0  0  0  0  0  0
   12.2367   13.9588   41.3462 C   0  0  0  0  0  0  0  0  0  0  0  0
   12.8993   15.8962   39.8873 C   0  0  2  0  0  0  0  0  0  0  0  0
   12.3850   17.1760   39.2246 C   0  0  1  0  0  0  0  0  0  0  0  0
   11.7576   18.0928   40.2772 C   0  0  1  0  0  0  0  0  0  0  0  0
    9.4399   19.0826   35.4753 C   0  0  2  0  0  0  0  0  0  0  0  0
    8.8859   18.5173   34.1689 C   0  0  1  0  0  0  0  0  0  0  0  0
  3  1  1  0  0  0  0
  4  1  1  1  0  0  0
  4  6  1  0  0  0  0
  4 31  1  0  0  0  0
  6  7  1  0  0  0  0
  7  9  1  1  0  0  0
  7 30  1  0  0  0  0
 10  9  1  6  0  0  0
 10 13  1  0  0  0  0
 10 21  1  0  0  0  0
 13 12  1  6  0  0  0
 13 15  1  0  0  0  0
 15  2  1  1  0  0  0
 15 17  1  0  0  0  0
 16 25  1  0  0  0  0
 17 19  1  0  0  0  0
 19  5  1  1  0  0  0
 19 21  1  0  0  0  0
 21 14  1  6  0  0  0
 23 14  1  6  0  0  0
 23 16  1  0  0  0  0
 23 29  1  0  0  0  0
 25 26  1  1  0  0  0
 25 27  1  0  0  0  0
 26  8  1  0  0  0  0
 27 18  1  6  0  0  0
 27 28  1  0  0  0  0
 28 20  1  1  0  0  0
 28 29  1  0  0  0  0
 29 11  1  6  0  0  0
 30 22  1  6  0  0  0
 30 31  1  0  0  0  0
 31 24  1  1  0  0  0
M  END
>  <CHROM.1>
179.37939199,-56.67074333,-62.52066102,150.00875380,150.25345593,65.86747437
9.44239945,17.58182725,38.49636010,-2.20784274,-0.50696688,1.69644696

>  <Name>
2fcz_lig

>  <RI>
1.32928e+07

>  <Rbt.Current_Directory>
/home/itssahil/PROJECTS/Mol_Feturizer/New_Systems/rnas/2fcz

>  <Rbt.Executable>
rbdock ($Id: //depot/dev/client3/rdock/2013.1/src/exe/rbdock.cxx#4 $)

>  <Rbt.Library>
libRbt.so (2013.1, Build901 2013/11/27)

>  <Rbt.Parameter_File>
/export/apps/rDock/src/rDock_2013.1_src/data/scripts/dock_solv.prm

>  <Rbt.Receptor>
prm/pocket_docking_7.prm

>  <SCORE>
-19.1668

>  <SCORE.INTER>
-20.4212

>  <SCORE.INTER.CONST>
1

>  <SCORE.INTER.POLAR>
-2.66557

>  <SCORE.INTER.ROT>
6

>  <SCORE.INTER.SOLV>
18.7651

>  <SCORE.INTER.VDW>
-18.5839

>  <SCORE.INTER.norm>
-0.658748

>  <SCORE.INTRA>
1.25442

>  <SCORE.INTRA.DIHEDRAL>
-3.39907

>  <SCORE.INTRA.DIHEDRAL.0>
10.8409

>  <SCORE.INTRA.POLAR>
0

>  <SCORE.INTRA.POLAR.0>
0

>  <SCORE.INTRA.REPUL>
0

>  <SCORE.INTRA.REPUL.0>
0

>  <SCORE.INTRA.SOLV>
-0.452353

>  <SCORE.INTRA.SOLV.lig_0>
-80.8302

>  <SCORE.INTRA.VDW>
3.18014

>  <SCORE.INTRA.VDW.0>
-4.23953

>  <SCORE.INTRA.norm>
0.0404653

>  <SCORE.RESTR>
0

>  <SCORE.RESTR.CAVITY>
0

>  <SCORE.RESTR.norm>
0

>  <SCORE.SYSTEM>
0

>  <SCORE.SYSTEM.CONST>
0

>  <SCORE.SYSTEM.DIHEDRAL>
0

>  <SCORE.SYSTEM.SOLV>
0

>  <SCORE.SYSTEM.norm>
0

>  <SCORE.heavy>
31

>  <SCORE.norm>
-0.618283

>  <RMSD>
8.351

$$$$
2fcz_lig
 OpenBabel11021811433D
libRbt.so/2013.1/901 2013/11/27
 31 33  0  0  0  0  0  0  0  0999 V2000
    9.7002   16.3161   34.5312 C   0  0  0  0  0  0  0  0  0  0  0  0
    4.5513   19.4953   39.9197 N   0  0  0  0  0  0  0  0  0  0  0  0
    9.2572   15.0086   34.9052 O   0  0  0  0  0  0  0  0  0  0  0  0
    8.5205   17.2930   34.5802 C   0  0  1  0  0  0  0  0  0  0  0  0
    8.3931   17.9419   42.5226 N   0  0  0  0  0  0  0  0  0  0  0  0
    8.0103   17.4460   35.9203 O   0  0  0  0  0  0  0  0  0  0  0  0
    8.3629   18.7492   36.4254 C   0  0  1  0  0  0  0  0  0  0  0  0
   11.1359   13.2231   41.9041 N   0  0  0  0  0  0  0  0  0  0  0  0
    8.8676   18.7034   37.7709 O   0  0  0  0  0  0  0  0  0  0  0  0
    7.9388   18.1752   38.7328 C   0  0  2  0  0  0  0  0  0  0  0  0
   11.2081   19.2737   39.6429 N   0  0  0  0  0  0  0  0  0  0  0  0
    6.0142   19.0283   37.5404 O   0  0  0  0  0  0  0  0  0  0  0  0
    6.7040   19.0829   38.7915 C   0  0  1  0  0  0  0  0  0  0  0  0
    9.6188   17.0564   40.1434 O   0  0  0  0  0  0  0  0  0  0  0  0
    5.7485   18.6435   39.9034 C   0  0  1  0  0  0  0  0  0  0  0  0
   11.2203   16.0950   41.5869 O   0  0  0  0  0  0  0  0  0  0  0  0
    6.4504   18.7209   41.2610 C   0  0  0  0  0  0  0  0  0  0  0  0
   13.4941   15.0524   38.8831 O   0  0  0  0  0  0  0  0  0  0  0  0
    7.6643   17.7897   41.2532 C   0  0  1  0  0  0  0  0  0  0  0  0
   13.5100   17.9132   38.6208 O   0  0  0  0  0  0  0  0  0  0  0  0
    8.6229   18.0902   40.0958 C   0  0  2  0  0  0  0  0  0  0  0  0
    9.5978   20.6628   35.4620 O   0  0  0  0  0  0  0  0  0  0  0  0
   10.6932   17.3251   41.0560 C   0  0  1  0  0  0  0  0  0  0  0  0
    7.8478   19.4574   33.6636 O   0  0  0  0  0  0  0  0  0  0  0  0
   11.7806   15.2115   40.6002 C   0  0  2  0  0  0  0  0  0  0  0  0
   12.2680   13.9401   41.2995 C   0  0  0  0  0  0  0  0  0  0  0  0
   12.9468   15.9086   39.8905 C   0  0  2  0  0  0  0  0  0  0  0  0
   12.4372   17.1971   39.2412 C   0  0  1  0  0  0  0  0  0  0  0  0
   11.7826   18.0901   40.2976 C   0  0  1  0  0  0  0  0  0  0  0  0
    9.4591   19.2387   35.4777 C   0  0  2  0  0  0  0  0  0  0  0  0
    8.9562   18.6915   34.1431 C   0  0  1  0  0  0  0  0  0  0  0  0
  3  1  1  0  0  0  0
  4  1  1  1  0  0  0
  4  6  1  0  0  0  0
  4 31  1  0  0  0  0
  6  7  1  0  0  0  0
  7  9  1  1  0  0  0
  7 30  1  0  0  0  0
 10  9  1  6  0  0  0
 10 13  1  0  0  0  0
 10 21  1  0  0  0  0
 13 12  1  6  0  0  0
 13 15  1  0  0  0  0
 15  2  1  1  0  0  0
 15 17  1  0  0  0  0
 16 25  1  0  0  0  0
 17 19  1  0  0  0  0
 19  5  1  1  0  0  0
 19 21  1  0  0  0  0
 21 14  1  6  0  0  0
 23 14  1  6  0  0  0
 23 16  1  0  0  0  0
 23 29  1  0  0  0  0
 25 26  1  1  0  0  0
 25 27  1  0  0  0  0
 26  8  1  0  0  0  0
 27 18  1  6  0  0  0
 27 28  1  0  0  0  0
 28 20  1  1  0  0  0
 28 29  1  0  0  0  0
 29 11  1  6  0  0  0
 30 22  1  6  0  0  0
 30 31  1  0  0  0  0
 31 24  1  1  0  0  0
M  END
>  <CHROM.1>
64.27906824,-60.52404977,-62.27781696,150.82255190,149.69624518,63.64195424
9.45887374,17.57004451,38.53082999,-2.27572036,-0.50203969,1.72532886

>  <Name>
2fcz_lig

>  <RI>
0

>  <Rbt.Current_Directory>
/home/itssahil/PROJECTS/Mol_Feturizer/New_Systems/rnas/2fcz

>  <Rbt.Executable>
rbdock ($Id: //depot/dev/client3/rdock/2013.1/src/exe/rbdock.cxx#4 $)

>  <Rbt.Library>
libRbt.so (2013.1, Build901 2013/11/27)

>  <Rbt.Parameter_File>
/export/apps/rDock/src/rDock_2013.1_src/data/scripts/dock_solv.prm

>  <Rbt.Receptor>
prm/pocket_docking_6.prm

>  <SCORE>
-19.1199

>  <SCORE.INTER>
-20.1952

>  <SCORE.INTER.CONST>
1

>  <SCORE.INTER.POLAR>
-2.75005

>  <SCORE.INTER.ROT>
6

>  <SCORE.INTER.SOLV>
18.7814

>  <SCORE.INTER.VDW>
-18.1571

>  <SCORE.INTER.norm>
-0.651459

>  <SCORE.INTRA>
1.07532

>  <SCORE.INTRA.DIHEDRAL>
-3.50994

>  <SCORE.INTRA.DIHEDRAL.0>
10.8409

>  <SCORE.INTRA.POLAR>
0

>  <SCORE.INTRA.POLAR.0>
0

>  <SCORE.INTRA.REPUL>
0

>  <SCORE.INTRA.REPUL.0>
0

>  <SCORE.INTRA.SOLV>
-0.554521

>  <SCORE.INTRA.SOLV.lig_0>
-80.8302

>  <SCORE.INTRA.VDW>
3.10756

>  <SCORE.INTRA.VDW.0>
-4.23953

>  <SCORE.INTRA.norm>
0.0346879

>  <SCORE.RESTR>
0

>  <SCORE.RESTR.CAVITY>
0

>  <SCORE.RESTR.norm>
0

>  <SCORE.SYSTEM>
0

>  <SCORE.SYSTEM.CONST>
0

>  <SCORE.SYSTEM.DIHEDRAL>
0

>  <SCORE.SYSTEM.SOLV>
0

>  <SCORE.SYSTEM.norm>
0

>  <SCORE.heavy>
31

>  <SCORE.norm>
-0.616771

>  <RMSD>
8.352

$$$$
2fcz_lig
 OpenBabel11021811433D
libRbt.so/2013.1/901 2013/11/27
 31 33  0  0  0  0  0  0  0  0999 V2000
   15.0150   19.0156   35.8443 C   0  0  0  0  0  0  0  0  0  0  0  0
   10.5975   22.4711   32.2383 N   0  0  0  0  0  0  0  0  0  0  0  0
   15.8907   20.1425   35.9375 O   0  0  0  0  0  0  0  0  0  0  0  0
   14.7140   18.7178   34.3715 C   0  0  1  0  0  0  0  0  0  0  0  0
   13.5965   22.2322   28.3788 N   0  0  0  0  0  0  0  0  0  0  0  0
   14.2239   19.8851   33.6809 O   0  0  0  0  0  0  0  0  0  0  0  0
   15.2358   20.3716   32.7769 C   0  0  1  0  0  0  0  0  0  0  0  0
   18.7567   23.8727   34.1136 N   0  0  0  0  0  0  0  0  0  0  0  0
   15.3990   21.7985   32.8449 O   0  0  0  0  0  0  0  0  0  0  0  0
   14.4189   22.5415   32.1005 C   0  0  2  0  0  0  0  0  0  0  0  0
   16.7234   24.2876   27.9122 N   0  0  0  0  0  0  0  0  0  0  0  0
   12.8541   22.5815   33.9454 O   0  0  0  0  0  0  0  0  0  0  0  0
   13.0171   22.1570   32.5900 C   0  0  1  0  0  0  0  0  0  0  0  0
   15.7780   22.8174   30.0657 O   0  0  0  0  0  0  0  0  0  0  0  0
   11.9335   22.8139   31.7317 C   0  0  1  0  0  0  0  0  0  0  0  0
   16.1462   24.5898   31.5809 O   0  0  0  0  0  0  0  0  0  0  0  0
   12.0634   22.3538   30.2780 C   0  0  0  0  0  0  0  0  0  0  0  0
   19.8049   24.1722   31.6691 O   0  0  0  0  0  0  0  0  0  0  0  0
   13.4367   22.7630   29.7419 C   0  0  1  0  0  0  0  0  0  0  0  0
   19.3390   24.8674   28.9208 O   0  0  0  0  0  0  0  0  0  0  0  0
   14.5832   22.2376   30.6127 C   0  0  2  0  0  0  0  0  0  0  0  0
   17.5189   19.6041   32.2174 O   0  0  0  0  0  0  0  0  0  0  0  0
   15.8538   24.2426   30.2145 C   0  0  1  0  0  0  0  0  0  0  0  0
   15.6843   17.5257   32.4702 O   0  0  0  0  0  0  0  0  0  0  0  0
   17.4074   24.0963   32.0644 C   0  0  2  0  0  0  0  0  0  0  0  0
   17.5677   24.5102   33.5294 C   0  0  0  0  0  0  0  0  0  0  0  0
   18.5451   24.6801   31.2191 C   0  0  2  0  0  0  0  0  0  0  0  0
   18.3315   24.2874   29.7557 C   0  0  1  0  0  0  0  0  0  0  0  0
   16.9549   24.7611   29.2839 C   0  0  1  0  0  0  0  0  0  0  0  0
   16.5199   19.6811   33.2389 C   0  0  2  0  0  0  0  0  0  0  0  0
   15.9858   18.3047   33.6309 C   0  0  1  0  0  0  0  0  0  0  0  0
  3  1  1  0  0  0  0
  4  1  1  1  0  0  0
  4  6  1  0  0  0  0
  4 31  1  0  0  0  0
  6  7  1  0  0  0  0
  7  9  1  1  0  0  0
  7 30  1  0  0  0  0
 10  9  1  1  0  0  0
 10 13  1  0  0  0  0
 10 21  1  0  0  0  0
 13 12  1  1  0  0  0
 13 15  1  0  0  0  0
 15  2  1  1  0  0  0
 15 17  1  0  0  0  0
 16 25  1  0  0  0  0
 17 19  1  0  0  0  0
 19  5  1  6  0  0  0
 19 21  1  0  0  0  0
 21 14  1  6  0  0  0
 23 14  1  1  0  0  0
 23 16  1  0  0  0  0
 23 29  1  0  0  0  0
 25 26  1  1  0  0  0
 25 27  1  0  0  0  0
 26  8  1  0  0  0  0
 27 18  1  1  0  0  0
 27 28  1  0  0  0  0
 28 20  1  6  0  0  0
 28 29  1  0  0  0  0
 29 11  1  6  0  0  0
 30 22  1  6  0  0  0
 30 31  1  0  0  0  0
 31 24  1  6  0  0  0
M  END
>  <CHROM.1>
-53.32576634,-80.58486601,56.73020925,-58.07826031,73.97586742,172.35640433
15.64266771,22.18569178,31.92902461,-2.07829922,-0.21575672,-0.79140283

>  <Name>
2fcz_lig

>  <RI>
1.40544e+07

>  <Rbt.Current_Directory>
/home/itssahil/PROJECTS/Mol_Feturizer/New_Systems/rnas/2fcz

>  <Rbt.Executable>
rbdock ($Id: //depot/dev/client3/rdock/2013.1/src/exe/rbdock.cxx#4 $)

>  <Rbt.Library>
libRbt.so (2013.1, Build901 2013/11/27)

>  <Rbt.Parameter_File>
/export/apps/rDock/src/rDock_2013.1_src/data/scripts/dock_solv.prm

>  <Rbt.Receptor>
prm/blind_docking_100.prm

>  <SCORE>
-18.4688

>  <SCORE.INTER>
-17.8842

>  <SCORE.INTER.CONST>
1

>  <SCORE.INTER.POLAR>
-0.8

>  <SCORE.INTER.ROT>
6

>  <SCORE.INTER.SOLV>
19.0648

>  <SCORE.INTER.VDW>
-23.2111

>  <SCORE.INTER.norm>
-0.576909

>  <SCORE.INTRA>
-0.584647

>  <SCORE.INTRA.DIHEDRAL>
-7.45598

>  <SCORE.INTRA.DIHEDRAL.0>
10.8409

>  <SCORE.INTRA.POLAR>
0

>  <SCORE.INTRA.POLAR.0>
0

>  <SCORE.INTRA.REPUL>
0

>  <SCORE.INTRA.REPUL.0>
0

>  <SCORE.INTRA.SOLV>
-0.706901

>  <SCORE.INTRA.SOLV.lig_0>
-80.8302

>  <SCORE.INTRA.VDW>
3.4968

>  <SCORE.INTRA.VDW.0>
-4.23953

>  <SCORE.INTRA.norm>
-0.0188596

>  <SCORE.RESTR>
0

>  <SCORE.RESTR.CAVITY>
0

>  <SCORE.RESTR.norm>
0

>  <SCORE.SYSTEM>
0

>  <SCORE.SYSTEM.CONST>
0

>  <SCORE.SYSTEM.DIHEDRAL>
0

>  <SCORE.SYSTEM.SOLV>
0

>  <SCORE.SYSTEM.norm>
0

>  <SCORE.heavy>
31

>  <SCORE.norm>
-0.595769

>  <RMSD>
8.371

$$$$
2fcz_lig
 OpenBabel11021811433D
libRbt.so/2013.1/901 2013/11/27
 31 33  0  0  0  0  0  0  0  0999 V2000
   10.9031   23.2322   30.6287 C   0  0  0  0  0  0  0  0  0  0  0  0
   15.1089   17.5285   34.5035 N   0  0  0  0  0  0  0  0  0  0  0  0
   11.2293   22.5620   29.4081 O   0  0  0  0  0  0  0  0  0  0  0  0
   10.7021   22.2010   31.7444 C   0  0  1  0  0  0  0  0  0  0  0  0
   18.4431   20.5798   32.6272 N   0  0  0  0  0  0  0  0  0  0  0  0
   11.9091   21.4565   32.0061 O   0  0  0  0  0  0  0  0  0  0  0  0
   12.4628   21.8640   33.2730 C   0  0  1  0  0  0  0  0  0  0  0  0
   20.9048   24.3213   32.7062 N   0  0  0  0  0  0  0  0  0  0  0  0
   13.8832   22.0791   33.2129 O   0  0  0  0  0  0  0  0  0  0  0  0
   14.6390   20.9247   32.8088 C   0  0  2  0  0  0  0  0  0  0  0  0
   15.2223   23.7002   29.5570 N   0  0  0  0  0  0  0  0  0  0  0  0
   13.0776   19.3817   33.8261 O   0  0  0  0  0  0  0  0  0  0  0  0
   14.4424   19.8076   33.8410 C   0  0  1  0  0  0  0  0  0  0  0  0
   16.3656   22.1572   31.5583 O   0  0  0  0  0  0  0  0  0  0  0  0
   15.3392   18.6066   33.5319 C   0  0  1  0  0  0  0  0  0  0  0  0
   17.2042   24.0499   32.6929 O   0  0  0  0  0  0  0  0  0  0  0  0
   16.8106   19.0252   33.5709 C   0  0  0  0  0  0  0  0  0  0  0  0
   19.9270   24.6740   30.2919 O   0  0  0  0  0  0  0  0  0  0  0  0
   17.0530   20.1093   32.5188 C   0  0  1  0  0  0  0  0  0  0  0  0
   17.5873   25.0453   28.6668 O   0  0  0  0  0  0  0  0  0  0  0  0
   16.1127   21.3075   32.6884 C   0  0  2  0  0  0  0  0  0  0  0  0
   11.7521   23.5006   34.9851 O   0  0  0  0  0  0  0  0  0  0  0  0
   16.1685   23.5535   31.8246 C   0  0  1  0  0  0  0  0  0  0  0  0
    9.6473   22.0071   33.9415 O   0  0  0  0  0  0  0  0  0  0  0  0
   18.5325   23.9573   32.1497 C   0  0  2  0  0  0  0  0  0  0  0  0
   19.5255   24.4869   33.1873 C   0  0  0  0  0  0  0  0  0  0  0  0
   18.6187   24.7828   30.8611 C   0  0  2  0  0  0  0  0  0  0  0  0
   17.5843   24.2589   29.8627 C   0  0  1  0  0  0  0  0  0  0  0  0
   16.1880   24.3011   30.4875 C   0  0  1  0  0  0  0  0  0  0  0  0
   11.7529   23.1811   33.5903 C   0  0  2  0  0  0  0  0  0  0  0  0
   10.3493   22.8901   33.0625 C   0  0  1  0  0  0  0  0  0  0  0  0
  3  1  1  0  0  0  0
  4  1  1  6  0  0  0
  4  6  1  0  0  0  0
  4 31  1  0  0  0  0
  6  7  1  0  0  0  0
  7  9  1  6  0  0  0
  7 30  1  0  0  0  0
 10  9  1  1  0  0  0
 10 13  1  0  0  0  0
 10 21  1  0  0  0  0
 13 12  1  6  0  0  0
 13 15  1  0  0  0  0
 15  2  1  1  0  0  0
 15 17  1  0  0  0  0
 16 25  1  0  0  0  0
 17 19  1  0  0  0  0
 19  5  1  1  0  0  0
 19 21  1  0  0  0  0
 21 14  1  6  0  0  0
 23 14  1  6  0  0  0
 23 16  1  0  0  0  0
 23 29  1  0  0  0  0
 25 26  1  1  0  0  0
 25 27  1  0  0  0  0
 26  8  1  0  0  0  0
 27 18  1  6  0  0  0
 27 28  1  0  0  0  0
 28 20  1  6  0  0  0
 28 29  1  0  0  0  0
 29 11  1  6  0  0  0
 30 22  1  1  0  0  0
 30 31  1  0  0  0  0
 31 24  1  1  0  0  0
M  END
>  <CHROM.1>
62.63982663,-59.23873469,-62.42303392,86.10661656,70.55770592,176.03042368
15.10807919,22.32612890,32.23542685,2.76798440,-0.00711533,2.53832334

>  <Name>
2fcz_lig

>  <RI>
1.40544e+07

>  <Rbt.Current_Directory>
/home/itssahil/PROJECTS/Mol_Feturizer/New_Systems/rnas/2fcz

>  <Rbt.Executable>
rbdock ($Id: //depot/dev/client3/rdock/2013.1/src/exe/rbdock.cxx#4 $)

>  <Rbt.Library>
libRbt.so (2013.1, Build901 2013/11/27)

>  <Rbt.Parameter_File>
/export/apps/rDock/src/rDock_2013.1_src/data/scripts/dock_solv.prm

>  <Rbt.Receptor>
prm/blind_docking_100.prm

>  <SCORE>
-17.4921

>  <SCORE.INTER>
-15.7487

>  <SCORE.INTER.CONST>
1

>  <SCORE.INTER.POLAR>
-0.737491

>  <SCORE.INTER.ROT>
6

>  <SCORE.INTER.SOLV>
16.3066

>  <SCORE.INTER.VDW>
-21.0763

>  <SCORE.INTER.norm>
-0.508022

>  <SCORE.INTRA>
-1.74347

>  <SCORE.INTRA.DIHEDRAL>
-7.21909

>  <SCORE.INTRA.DIHEDRAL.0>
10.8409

>  <SCORE.INTRA.POLAR>
0

>  <SCORE.INTRA.POLAR.0>
0

>  <SCORE.INTRA.REPUL>
0

>  <SCORE.INTRA.REPUL.0>
0

>  <SCORE.INTRA.SOLV>
-1.33786

>  <SCORE.INTRA.SOLV.lig_0>
-80.8302

>  <SCORE.INTRA.VDW>
2.53501

>  <SCORE.INTRA.VDW.0>
-4.23953

>  <SCORE.INTRA.norm>
-0.0562408

>  <SCORE.RESTR>
0

>  <SCORE.RESTR.CAVITY>
0

>  <SCORE.RESTR.norm>
0

>  <SCORE.SYSTEM>
0

>  <SCORE.SYSTEM.CONST>
0

>  <SCORE.SYSTEM.DIHEDRAL>
0

>  <SCORE.SYSTEM.SOLV>
0

>  <SCORE.SYSTEM.norm>
0

>  <SCORE.heavy>
31

>  <SCORE.norm>
-0.564262

>  <RMSD>
8.375

$$$$
2fcz_lig
 OpenBabel11021811433D
libRbt.so/2013.1/901 2013/11/27
 31 33  0  0  0  0  0  0  0  0999 V2000
   18.1901   22.8136   33.2010 C   0  0  0  0  0  0  0  0  0  0  0  0
    9.9914   22.2803   31.2710 N   0  0  0  0  0  0  0  0  0  0  0  0
   19.4797   23.3320   32.8638 O   0  0  0  0  0  0  0  0  0  0  0  0
   17.2091   23.0888   32.0563 C   0  0  1  0  0  0  0  0  0  0  0  0
   10.5577   20.6688   35.8568 N   0  0  0  0  0  0  0  0  0  0  0  0
   15.9272   22.4721   32.2928 O   0  0  0  0  0  0  0  0  0  0  0  0
   14.9523   23.4879   32.6019 C   0  0  1  0  0  0  0  0  0  0  0  0
   17.4999   20.0288   32.5805 N   0  0  0  0  0  0  0  0  0  0  0  0
   14.1273   23.1395   33.7267 O   0  0  0  0  0  0  0  0  0  0  0  0
   13.1352   22.1380   33.4441 C   0  0  2  0  0  0  0  0  0  0  0  0
   13.5269   19.0761   37.6331 N   0  0  0  0  0  0  0  0  0  0  0  0
   12.7360   22.9745   31.2092 O   0  0  0  0  0  0  0  0  0  0  0  0
   12.1043   22.7129   32.4648 C   0  0  1  0  0  0  0  0  0  0  0  0
   13.3506   20.9345   35.5816 O   0  0  0  0  0  0  0  0  0  0  0  0
   10.9484   21.7345   32.2432 C   0  0  1  0  0  0  0  0  0  0  0  0
   14.1175   19.3918   33.9676 O   0  0  0  0  0  0  0  0  0  0  0  0
   10.2321   21.4584   33.5670 C   0  0  0  0  0  0  0  0  0  0  0  0
   17.6314   19.5091   35.0662 O   0  0  0  0  0  0  0  0  0  0  0  0
   11.2229   20.8401   34.5554 C   0  0  1  0  0  0  0  0  0  0  0  0
   16.3067   18.4407   37.3808 O   0  0  0  0  0  0  0  0  0  0  0  0
   12.4709   21.7079   34.7505 C   0  0  2  0  0  0  0  0  0  0  0  0
   15.0691   25.9519   32.7748 O   0  0  0  0  0  0  0  0  0  0  0  0
   13.4235   19.5478   35.2194 C   0  0  1  0  0  0  0  0  0  0  0  0
   16.4908   24.9263   30.6123 O   0  0  0  0  0  0  0  0  0  0  0  0
   15.4819   19.8461   33.9819 C   0  0  2  0  0  0  0  0  0  0  0  0
   16.0793   19.6506   32.5862 C   0  0  0  0  0  0  0  0  0  0  0  0
   16.2785   19.0457   35.0184 C   0  0  2  0  0  0  0  0  0  0  0  0
   15.6303   19.2249   36.3928 C   0  0  1  0  0  0  0  0  0  0  0  0
   14.1608   18.8016   36.3360 C   0  0  1  0  0  0  0  0  0  0  0  0
   15.7875   24.7250   32.9360 C   0  0  2  0  0  0  0  0  0  0  0  0
   16.9289   24.5862   31.9304 C   0  0  1  0  0  0  0  0  0  0  0  0
  3  1  1  0  0  0  0
  4  1  1  1  0  0  0
  4  6  1  0  0  0  0
  4 31  1  0  0  0  0
  6  7  1  0  0  0  0
  7  9  1  1  0  0  0
  7 30  1  0  0  0  0
 10  9  1  1  0  0  0
 10 13  1  0  0  0  0
 10 21  1  0  0  0  0
 13 12  1  6  0  0  0
 13 15  1  0  0  0  0
 15  2  1  6  0  0  0
 15 17  1  0  0  0  0
 16 25  1  0  0  0  0
 17 19  1  0  0  0  0
 19  5  1  1  0  0  0
 19 21  1  0  0  0  0
 21 14  1  1  0  0  0
 23 14  1  1  0  0  0
 23 16  1  0  0  0  0
 23 29  1  0  0  0  0
 25 26  1  6  0  0  0
 25 27  1  0  0  0  0
 26  8  1  0  0  0  0
 27 18  1  1  0  0  0
 27 28  1  0  0  0  0
 28 20  1  1  0  0  0
 28 29  1  0  0  0  0
 29 11  1  1  0  0  0
 30 22  1  6  0  0  0
 30 31  1  0  0  0  0
 31 24  1  6  0  0  0
M  END
>  <CHROM.1>
174.43168730,-74.51958508,-66.77384900,-81.84401158,70.15878631,-176.60071256
14.60294710,21.59113390,33.73285057,-0.97075833,0.00651557,2.44208248

>  <Name>
2fcz_lig

>  <RI>
2.6968e+07

>  <Rbt.Current_Directory>
/home/itssahil/PROJECTS/Mol_Feturizer/New_Systems/rnas/2fcz

>  <Rbt.Executable>
rbdock ($Id: //depot/dev/client3/rdock/2013.1/src/exe/rbdock.cxx#4 $)

>  <Rbt.Library>
libRbt.so (2013.1, Build901 2013/11/27)

>  <Rbt.Parameter_File>
/export/apps/rDock/src/rDock_2013.1_src/data/scripts/dock_solv.prm

>  <Rbt.Receptor>
prm/blind_docking_60.prm

>  <SCORE>
-4.73509

>  <SCORE.INTER>
-7.12236

>  <SCORE.INTER.CONST>
1

>  <SCORE.INTER.POLAR>
-0.71569

>  <SCORE.INTER.ROT>
6

>  <SCORE.INTER.SOLV>
13.6017

>  <SCORE.INTER.VDW>
-14.4965

>  <SCORE.INTER.norm>
-0.229754

>  <SCORE.INTRA>
2.38727

>  <SCORE.INTRA.DIHEDRAL>
-6.77472

>  <SCORE.INTRA.DIHEDRAL.0>
10.8409

>  <SCORE.INTRA.POLAR>
0

>  <SCORE.INTRA.POLAR.0>
0

>  <SCORE.INTRA.REPUL>
0

>  <SCORE.INTRA.REPUL.0>
0

>  <SCORE.INTRA.SOLV>
2.70418

>  <SCORE.INTRA.SOLV.lig_0>
-80.8302

>  <SCORE.INTRA.VDW>
4.42254

>  <SCORE.INTRA.VDW.0>
-4.23953

>  <SCORE.INTRA.norm>
0.0770087

>  <SCORE.RESTR>
0

>  <SCORE.RESTR.CAVITY>
0

>  <SCORE.RESTR.norm>
0

>  <SCORE.SYSTEM>
0

>  <SCORE.SYSTEM.CONST>
0

>  <SCORE.SYSTEM.DIHEDRAL>
0

>  <SCORE.SYSTEM.SOLV>
0

>  <SCORE.SYSTEM.norm>
0

>  <SCORE.heavy>
31

>  <SCORE.norm>
-0.152745

>  <RMSD>
8.377

$$$$
2fcz_lig
 OpenBabel11021811433D
libRbt.so/2013.1/901 2013/11/27
 31 33  0  0  0  0  0  0  0  0999 V2000
   17.5864   22.4349   36.2269 C   0  0  0  0  0  0  0  0  0  0  0  0
   10.1914   22.5278   32.0419 N   0  0  0  0  0  0  0  0  0  0  0  0
   17.8358   21.4899   35.1828 O   0  0  0  0  0  0  0  0  0  0  0  0
   16.0758   22.5782   36.4417 C   0  0  1  0  0  0  0  0  0  0  0  0
   13.7581   22.3400   28.6968 N   0  0  0  0  0  0  0  0  0  0  0  0
   15.3924   22.9121   35.2165 O   0  0  0  0  0  0  0  0  0  0  0  0
   14.6356   21.7734   34.7599 C   0  0  1  0  0  0  0  0  0  0  0  0
   19.4516   23.8942   34.0043 N   0  0  0  0  0  0  0  0  0  0  0  0
   14.7927   21.5332   33.3510 O   0  0  0  0  0  0  0  0  0  0  0  0
   13.9836   22.3768   32.5140 C   0  0  2  0  0  0  0  0  0  0  0  0
   16.0783   24.1345   28.4103 N   0  0  0  0  0  0  0  0  0  0  0  0
   12.1457   22.4005   34.0872 O   0  0  0  0  0  0  0  0  0  0  0  0
   12.5039   22.0486   32.7486 C   0  0  1  0  0  0  0  0  0  0  0  0
   15.6652   22.6915   30.7428 O   0  0  0  0  0  0  0  0  0  0  0  0
   11.6070   22.8194   31.7771 C   0  0  1  0  0  0  0  0  0  0  0  0
   16.3218   24.5001   32.1105 O   0  0  0  0  0  0  0  0  0  0  0  0
   11.9467   22.4400   30.3341 C   0  0  0  0  0  0  0  0  0  0  0  0
   19.9172   24.1484   31.3912 O   0  0  0  0  0  0  0  0  0  0  0  0
   13.4071   22.7972   30.0507 C   0  0  1  0  0  0  0  0  0  0  0  0
   18.8393   24.7801   28.8043 O   0  0  0  0  0  0  0  0  0  0  0  0
   14.3705   22.1529   31.0534 C   0  0  2  0  0  0  0  0  0  0  0  0
   14.3040   19.4911   35.6519 O   0  0  0  0  0  0  0  0  0  0  0  0
   15.7415   24.1206   30.8486 C   0  0  1  0  0  0  0  0  0  0  0  0
   14.2414   21.4651   37.6136 O   0  0  0  0  0  0  0  0  0  0  0  0
   17.6691   24.0386   32.3098 C   0  0  2  0  0  0  0  0  0  0  0  0
   18.1410   24.4846   33.6960 C   0  0  0  0  0  0  0  0  0  0  0  0
   18.5784   24.6251   31.2241 C   0  0  2  0  0  0  0  0  0  0  0  0
   18.0545   24.1994   29.8509 C   0  0  1  0  0  0  0  0  0  0  0  0
   16.5977   24.6394   29.6889 C   0  0  1  0  0  0  0  0  0  0  0  0
   15.2069   20.5967   35.5525 C   0  0  2  0  0  0  0  0  0  0  0  0
   15.4662   21.2555   36.9060 C   0  0  1  0  0  0  0  0  0  0  0  0
  3  1  1  0  0  0  0
  4  1  1  6  0  0  0
  4  6  1  0  0  0  0
  4 31  1  0  0  0  0
  6  7  1  0  0  0  0
  7  9  1  6  0  0  0
  7 30  1  0  0  0  0
 10  9  1  1  0  0  0
 10 13  1  0  0  0  0
 10 21  1  0  0  0  0
 13 12  1  1  0  0  0
 13 15  1  0  0  0  0
 15  2  1  1  0  0  0
 15 17  1  0  0  0  0
 16 25  1  0  0  0  0
 17 19  1  0  0  0  0
 19  5  1  6  0  0  0
 19 21  1  0  0  0  0
 21 14  1  1  0  0  0
 23 14  1  1  0  0  0
 23 16  1  0  0  0  0
 23 29  1  0  0  0  0
 25 26  1  1  0  0  0
 25 27  1  0  0  0  0
 26  8  1  0  0  0  0
 27 18  1  1  0  0  0
 27 28  1  0  0  0  0
 28 20  1  6  0  0  0
 28 29  1  0  0  0  0
 29 11  1  6  0  0  0
 30 22  1  1  0  0  0
 30 31  1  0  0  0  0
 31 24  1  6  0  0  0
M  END
>  <CHROM.1>
-54.44608249,-80.29102316,-65.69038609,-65.01041504,98.81525564,173.11628617
15.52740185,22.81478755,32.72402701,-2.03953278,-0.27922021,-1.25279699

>  <Name>
2fcz_lig

>  <RI>
2.6968e+07

>  <Rbt.Current_Directory>
/home/itssahil/PROJECTS/Mol_Feturizer/New_Systems/rnas/2fcz

>  <Rbt.Executable>
rbdock ($Id: //depot/dev/client3/rdock/2013.1/src/exe/rbdock.cxx#4 $)

>  <Rbt.Library>
libRbt.so (2013.1, Build901 2013/11/27)

>  <Rbt.Parameter_File>
/export/apps/rDock/src/rDock_2013.1_src/data/scripts/dock_solv.prm

>  <Rbt.Receptor>
prm/blind_docking_60.prm

>  <SCORE>
-13.3289

>  <SCORE.INTER>
-15.969

>  <SCORE.INTER.CONST>
1

>  <SCORE.INTER.POLAR>
-0.959064

>  <SCORE.INTER.ROT>
6

>  <SCORE.INTER.SOLV>
18.3524

>  <SCORE.INTER.VDW>
-21.1666

>  <SCORE.INTER.norm>
-0.51513

>  <SCORE.INTRA>
2.64014

>  <SCORE.INTRA.DIHEDRAL>
-3.10496

>  <SCORE.INTRA.DIHEDRAL.0>
10.8409

>  <SCORE.INTRA.POLAR>
0

>  <SCORE.INTRA.POLAR.0>
0

>  <SCORE.INTRA.REPUL>
0

>  <SCORE.INTRA.REPUL.0>
0

>  <SCORE.INTRA.SOLV>
3.2161

>  <SCORE.INTRA.SOLV.lig_0>
-80.8302

>  <SCORE.INTRA.VDW>
2.58457

>  <SCORE.INTRA.VDW.0>
-4.23953

>  <SCORE.INTRA.norm>
0.0851657

>  <SCORE.RESTR>
0

>  <SCORE.RESTR.CAVITY>
0

>  <SCORE.RESTR.norm>
0

>  <SCORE.SYSTEM>
0

>  <SCORE.SYSTEM.CONST>
0

>  <SCORE.SYSTEM.DIHEDRAL>
0

>  <SCORE.SYSTEM.SOLV>
0

>  <SCORE.SYSTEM.norm>
0

>  <SCORE.heavy>
31

>  <SCORE.norm>
-0.429964

>  <RMSD>
8.395

$$$$
2fcz_lig
 OpenBabel11021811433D
libRbt.so/2013.1/901 2013/11/27
 31 33  0  0  0  0  0  0  0  0999 V2000
   14.9973   19.0548   35.8250 C   0  0  0  0  0  0  0  0  0  0  0  0
   10.6121   22.4851   32.1905 N   0  0  0  0  0  0  0  0  0  0  0  0
   15.9013   20.1587   35.9238 O   0  0  0  0  0  0  0  0  0  0  0  0
   14.7177   18.7488   34.3496 C   0  0  1  0  0  0  0  0  0  0  0  0
   13.6242   22.2239   28.3426 N   0  0  0  0  0  0  0  0  0  0  0  0
   14.2330   19.9109   33.6466 O   0  0  0  0  0  0  0  0  0  0  0  0
   15.2555   20.3968   32.7543 C   0  0  1  0  0  0  0  0  0  0  0  0
   18.7909   23.8875   34.0603 N   0  0  0  0  0  0  0  0  0  0  0  0
   15.4127   21.8246   32.8176 O   0  0  0  0  0  0  0  0  0  0  0  0
   14.4338   22.5607   32.0648 C   0  0  2  0  0  0  0  0  0  0  0  0
   16.7258   24.2853   27.8644 N   0  0  0  0  0  0  0  0  0  0  0  0
   12.8629   22.6111   33.9043 O   0  0  0  0  0  0  0  0  0  0  0  0
   13.0311   22.1774   32.5523 C   0  0  1  0  0  0  0  0  0  0  0  0
   15.7992   22.8245   30.0325 O   0  0  0  0  0  0  0  0  0  0  0  0
   11.9492   22.8265   31.6859 C   0  0  1  0  0  0  0  0  0  0  0  0
   16.1748   24.6056   31.5356 O   0  0  0  0  0  0  0  0  0  0  0  0
   12.0846   22.3565   30.2359 C   0  0  0  0  0  0  0  0  0  0  0  0
   19.8349   24.1960   31.5992 O   0  0  0  0  0  0  0  0  0  0  0  0
   13.4591   22.7641   29.7015 C   0  0  1  0  0  0  0  0  0  0  0  0
   19.3474   24.8758   28.8508 O   0  0  0  0  0  0  0  0  0  0  0  0
   14.6035   22.2467   30.5797 C   0  0  2  0  0  0  0  0  0  0  0  0
   17.5488   19.6349   32.2300 O   0  0  0  0  0  0  0  0  0  0  0  0
   15.8731   24.2507   30.1733 C   0  0  1  0  0  0  0  0  0  0  0  0
   15.7183   17.5511   32.4677 O   0  0  0  0  0  0  0  0  0  0  0  0
   17.4406   24.1173   32.0125 C   0  0  2  0  0  0  0  0  0  0  0  0
   17.6107   24.5393   33.4740 C   0  0  0  0  0  0  0  0  0  0  0  0
   18.5707   24.6989   31.1559 C   0  0  2  0  0  0  0  0  0  0  0  0
   18.3473   24.2981   29.6961 C   0  0  1  0  0  0  0  0  0  0  0  0
   16.9663   24.7665   29.2320 C   0  0  1  0  0  0  0  0  0  0  0  0
   16.5356   19.7131   33.2373 C   0  0  2  0  0  0  0  0  0  0  0  0
   16.0011   18.3368   33.6286 C   0  0  1  0  0  0  0  0  0  0  0  0
  3  1  1  0  0  0  0
  4  1  1  1  0  0  0
  4  6  1  0  0  0  0
  4 31  1  0  0  0  0
  6  7  1  0  0  0  0
  7  9  1  1  0  0  0
  7 30  1  0  0  0  0
 10  9  1  1  0  0  0
 10 13  1  0  0  0  0
 10 21  1  0  0  0  0
 13 12  1  1  0  0  0
 13 15  1  0  0  0  0
 15  2  1  1  0  0  0
 15 17  1  0  0  0  0
 16 25  1  0  0  0  0
 17 19  1  0  0  0  0
 19  5  1  6  0  0  0
 19 21  1  0  0  0  0
 21 14  1  6  0  0  0
 23 14  1  1  0  0  0
 23 16  1  0  0  0  0
 23 29  1  0  0  0  0
 25 26  1  1  0  0  0
 25 27  1  0  0  0  0
 26  8  1  0  0  0  0
 27 18  1  1  0  0  0
 27 28  1  0  0  0  0
 28 20  1  6  0  0  0
 28 29  1  0  0  0  0
 29 11  1  6  0  0  0
 30 22  1  6  0  0  0
 30 31  1  0  0  0  0
 31 24  1  6  0  0  0
M  END
>  <CHROM.1>
-55.14896411,-80.11526924,56.98913968,-57.99360850,74.55407361,171.29700102
15.66103036,22.20343261,31.89258530,-2.07959876,-0.21562636,-0.79817965

>  <Name>
2fcz_lig

>  <RI>
2.6968e+07

>  <Rbt.Current_Directory>
/home/itssahil/PROJECTS/Mol_Feturizer/New_Systems/rnas/2fcz

>  <Rbt.Executable>
rbdock ($Id: //depot/dev/client3/rdock/2013.1/src/exe/rbdock.cxx#4 $)

>  <Rbt.Library>
libRbt.so (2013.1, Build901 2013/11/27)

>  <Rbt.Parameter_File>
/export/apps/rDock/src/rDock_2013.1_src/data/scripts/dock_solv.prm

>  <Rbt.Receptor>
prm/blind_docking_60.prm

>  <SCORE>
-18.481

>  <SCORE.INTER>
-17.898

>  <SCORE.INTER.CONST>
1

>  <SCORE.INTER.POLAR>
-0.8

>  <SCORE.INTER.ROT>
6

>  <SCORE.INTER.SOLV>
19.2544

>  <SCORE.INTER.VDW>
-23.2834

>  <SCORE.INTER.norm>
-0.577353

>  <SCORE.INTRA>
-0.58309

>  <SCORE.INTRA.DIHEDRAL>
-7.47961

>  <SCORE.INTRA.DIHEDRAL.0>
10.8409

>  <SCORE.INTRA.POLAR>
0

>  <SCORE.INTRA.POLAR.0>
0

>  <SCORE.INTRA.REPUL>
0

>  <SCORE.INTRA.REPUL.0>
0

>  <SCORE.INTRA.SOLV>
-0.700693

>  <SCORE.INTRA.SOLV.lig_0>
-80.8302

>  <SCORE.INTRA.VDW>
3.50706

>  <SCORE.INTRA.VDW.0>
-4.23953

>  <SCORE.INTRA.norm>
-0.0188094

>  <SCORE.RESTR>
0

>  <SCORE.RESTR.CAVITY>
0

>  <SCORE.RESTR.norm>
0

>  <SCORE.SYSTEM>
0

>  <SCORE.SYSTEM.CONST>
0

>  <SCORE.SYSTEM.DIHEDRAL>
0

>  <SCORE.SYSTEM.SOLV>
0

>  <SCORE.SYSTEM.norm>
0

>  <SCORE.heavy>
31

>  <SCORE.norm>
-0.596163

>  <RMSD>
8.398

$$$$
2fcz_lig
 OpenBabel11021811433D
libRbt.so/2013.1/901 2013/11/27
 31 33  0  0  0  0  0  0  0  0999 V2000
   15.4437   26.8847   34.6550 C   0  0  0  0  0  0  0  0  0  0  0  0
   15.8169   18.7015   37.5867 N   0  0  0  0  0  0  0  0  0  0  0  0
   14.5626   26.7358   33.5383 O   0  0  0  0  0  0  0  0  0  0  0  0
   14.9277   26.0509   35.8328 C   0  0  1  0  0  0  0  0  0  0  0  0
   16.5509   18.8313   32.7502 N   0  0  0  0  0  0  0  0  0  0  0  0
   14.8019   24.6571   35.4847 O   0  0  0  0  0  0  0  0  0  0  0  0
   15.8326   23.8988   36.1483 C   0  0  1  0  0  0  0  0  0  0  0  0
   19.4780   23.9936   32.0220 N   0  0  0  0  0  0  0  0  0  0  0  0
   16.4752   22.9552   35.2742 O   0  0  0  0  0  0  0  0  0  0  0  0
   15.8131   21.6819   35.1900 C   0  0  2  0  0  0  0  0  0  0  0  0
   13.2460   22.4427   32.1160 N   0  0  0  0  0  0  0  0  0  0  0  0
   15.5342   21.5191   37.5878 O   0  0  0  0  0  0  0  0  0  0  0  0
   16.1185   20.8708   36.4554 C   0  0  1  0  0  0  0  0  0  0  0  0
   15.7982   21.5479   32.7312 O   0  0  0  0  0  0  0  0  0  0  0  0
   15.5540   19.4521   36.3511 C   0  0  1  0  0  0  0  0  0  0  0  0
   16.7264   23.7086   32.5255 O   0  0  0  0  0  0  0  0  0  0  0  0
   16.1849   18.7211   35.1639 C   0  0  0  0  0  0  0  0  0  0  0  0
   16.5910   23.7592   28.8449 O   0  0  0  0  0  0  0  0  0  0  0  0
   15.8601   19.4802   33.8759 C   0  0  1  0  0  0  0  0  0  0  0  0
   13.8122   23.5841   29.5525 O   0  0  0  0  0  0  0  0  0  0  0  0
   16.2934   20.9489   33.9390 C   0  0  2  0  0  0  0  0  0  0  0  0
   17.6599   24.5157   37.6959 O   0  0  0  0  0  0  0  0  0  0  0  0
   15.5412   22.9553   32.8428 C   0  0  1  0  0  0  0  0  0  0  0  0
   15.2603   25.8163   38.2435 O   0  0  0  0  0  0  0  0  0  0  0  0
   17.2097   23.5225   31.1839 C   0  0  2  0  0  0  0  0  0  0  0  0
   18.4829   24.3522   31.0009 C   0  0  0  0  0  0  0  0  0  0  0  0
   16.1359   23.9687   30.1852 C   0  0  2  0  0  0  0  0  0  0  0  0
   14.8631   23.1535   30.4236 C   0  0  1  0  0  0  0  0  0  0  0  0
   14.4072   23.3108   31.8760 C   0  0  1  0  0  0  0  0  0  0  0  0
   16.8429   24.9523   36.6053 C   0  0  2  0  0  0  0  0  0  0  0  0
   15.9117   26.0964   37.0017 C   0  0  1  0  0  0  0  0  0  0  0  0
  3  1  1  0  0  0  0
  4  1  1  6  0  0  0
  4  6  1  0  0  0  0
  4 31  1  0  0  0  0
  6  7  1  0  0  0  0
  7  9  1  6  0  0  0
  7 30  1  0  0  0  0
 10  9  1  1  0  0  0
 10 13  1  0  0  0  0
 10 21  1  0  0  0  0
 13 12  1  1  0  0  0
 13 15  1  0  0  0  0
 15  2  1  1  0  0  0
 15 17  1  0  0  0  0
 16 25  1  0  0  0  0
 17 19  1  0  0  0  0
 19  5  1  6  0  0  0
 19 21  1  0  0  0  0
 21 14  1  6  0  0  0
 23 14  1  6  0  0  0
 23 16  1  0  0  0  0
 23 29  1  0  0  0  0
 25 26  1  1  0  0  0
 25 27  1  0  0  0  0
 26  8  1  0  0  0  0
 27 18  1  6  0  0  0
 27 28  1  0  0  0  0
 28 20  1  6  0  0  0
 28 29  1  0  0  0  0
 29 11  1  1  0  0  0
 30 22  1  1  0  0  0
 30 31  1  0  0  0  0
 31 24  1  1  0  0  0
M  END
>  <CHROM.1>
57.74617040,-86.69052690,-76.54234581,28.25278724,88.55128921,55.68822279
15.92156182,23.04576740,34.02411629,1.54930193,-1.53953224,1.70697701

>  <Name>
2fcz_lig

>  <RI>
2.6968e+07

>  <Rbt.Current_Directory>
/home/itssahil/PROJECTS/Mol_Feturizer/New_Systems/rnas/2fcz

>  <Rbt.Executable>
rbdock ($Id: //depot/dev/client3/rdock/2013.1/src/exe/rbdock.cxx#4 $)

>  <Rbt.Library>
libRbt.so (2013.1, Build901 2013/11/27)

>  <Rbt.Parameter_File>
/export/apps/rDock/src/rDock_2013.1_src/data/scripts/dock_solv.prm

>  <Rbt.Receptor>
prm/blind_docking_60.prm

>  <SCORE>
-17.0974

>  <SCORE.INTER>
-19.3371

>  <SCORE.INTER.CONST>
1

>  <SCORE.INTER.POLAR>
-2.52556

>  <SCORE.INTER.ROT>
6

>  <SCORE.INTER.SOLV>
19.2874

>  <SCORE.INTER.VDW>
-18.502

>  <SCORE.INTER.norm>
-0.623779

>  <SCORE.INTRA>
2.23972

>  <SCORE.INTRA.DIHEDRAL>
0.771037

>  <SCORE.INTRA.DIHEDRAL.0>
10.8409

>  <SCORE.INTRA.POLAR>
0

>  <SCORE.INTRA.POLAR.0>
0

>  <SCORE.INTRA.REPUL>
0

>  <SCORE.INTRA.REPUL.0>
0

>  <SCORE.INTRA.SOLV>
-3.39072

>  <SCORE.INTRA.SOLV.lig_0>
-80.8302

>  <SCORE.INTRA.VDW>
3.54956

>  <SCORE.INTRA.VDW.0>
-4.23953

>  <SCORE.INTRA.norm>
0.0722492

>  <SCORE.RESTR>
0

>  <SCORE.RESTR.CAVITY>
0

>  <SCORE.RESTR.norm>
0

>  <SCORE.SYSTEM>
0

>  <SCORE.SYSTEM.CONST>
0

>  <SCORE.SYSTEM.DIHEDRAL>
0

>  <SCORE.SYSTEM.SOLV>
0

>  <SCORE.SYSTEM.norm>
0

>  <SCORE.heavy>
31

>  <SCORE.norm>
-0.55153

>  <RMSD>
8.439

$$$$
2fcz_lig
 OpenBabel11021811433D
libRbt.so/2013.1/901 2013/11/27
 31 33  0  0  0  0  0  0  0  0999 V2000
   11.1343   23.1348   30.6094 C   0  0  0  0  0  0  0  0  0  0  0  0
   15.5420   17.8052   34.8156 N   0  0  0  0  0  0  0  0  0  0  0  0
    9.8815   23.7505   30.2982 O   0  0  0  0  0  0  0  0  0  0  0  0
   10.9541   22.1652   31.7824 C   0  0  1  0  0  0  0  0  0  0  0  0
   18.7258   20.8497   32.6845 N   0  0  0  0  0  0  0  0  0  0  0  0
   12.1797   21.4721   32.0943 O   0  0  0  0  0  0  0  0  0  0  0  0
   12.7121   21.9686   33.3384 C   0  0  1  0  0  0  0  0  0  0  0  0
   21.1759   24.5114   32.1523 N   0  0  0  0  0  0  0  0  0  0  0  0
   14.1262   22.2204   33.2741 O   0  0  0  0  0  0  0  0  0  0  0  0
   14.9158   21.0706   32.9257 C   0  0  2  0  0  0  0  0  0  0  0  0
   15.2225   23.6906   29.5926 N   0  0  0  0  0  0  0  0  0  0  0  0
   13.4317   19.5397   34.0691 O   0  0  0  0  0  0  0  0  0  0  0  0
   14.7800   20.0136   34.0287 C   0  0  1  0  0  0  0  0  0  0  0  0
   16.5719   22.2832   31.5653 O   0  0  0  0  0  0  0  0  0  0  0  0
   15.7141   18.8281   33.7748 C   0  0  1  0  0  0  0  0  0  0  0  0
   17.4917   24.2485   32.4949 O   0  0  0  0  0  0  0  0  0  0  0  0
   17.1697   19.3001   33.7567 C   0  0  0  0  0  0  0  0  0  0  0  0
   19.9633   24.7395   29.8083 O   0  0  0  0  0  0  0  0  0  0  0  0
   17.3521   20.3245   32.6350 C   0  0  1  0  0  0  0  0  0  0  0  0
   17.4739   24.9930   28.3971 O   0  0  0  0  0  0  0  0  0  0  0  0
   16.3720   21.4970   32.7506 C   0  0  2  0  0  0  0  0  0  0  0  0
   11.9424   23.6813   34.9475 O   0  0  0  0  0  0  0  0  0  0  0  0
   16.3838   23.6920   31.7630 C   0  0  1  0  0  0  0  0  0  0  0  0
    9.8887   22.0698   33.9809 O   0  0  0  0  0  0  0  0  0  0  0  0
   18.7628   24.1310   31.8327 C   0  0  2  0  0  0  0  0  0  0  0  0
   19.8441   24.7309   32.7349 C   0  0  0  0  0  0  0  0  0  0  0  0
   18.7145   24.8750   30.4934 C   0  0  2  0  0  0  0  0  0  0  0  0
   17.5956   24.2829   29.6338 C   0  0  1  0  0  0  0  0  0  0  0  0
   16.2653   24.3548   30.3868 C   0  0  1  0  0  0  0  0  0  0  0  0
   11.9628   23.2811   33.5739 C   0  0  2  0  0  0  0  0  0  0  0  0
   10.5720   22.9197   33.0558 C   0  0  1  0  0  0  0  0  0  0  0  0
  3  1  1  0  0  0  0
  4  1  1  6  0  0  0
  4  6  1  0  0  0  0
  4 31  1  0  0  0  0
  6  7  1  0  0  0  0
  7  9  1  6  0  0  0
  7 30  1  0  0  0  0
 10  9  1  1  0  0  0
 10 13  1  0  0  0  0
 10 21  1  0  0  0  0
 13 12  1  6  0  0  0
 13 15  1  0  0  0  0
 15  2  1  1  0  0  0
 15 17  1  0  0  0  0
 16 25  1  0  0  0  0
 17 19  1  0  0  0  0
 19  5  1  1  0  0  0
 19 21  1  0  0  0  0
 21 14  1  6  0  0  0
 23 14  1  6  0  0  0
 23 16  1  0  0  0  0
 23 29  1  0  0  0  0
 25 26  1  1  0  0  0
 25 27  1  0  0  0  0
 26  8  1  0  0  0  0
 27 18  1  6  0  0  0
 27 28  1  0  0  0  0
 28 20  1  6  0  0  0
 28 29  1  0  0  0  0
 29 11  1  6  0  0  0
 30 22  1  1  0  0  0
 30 31  1  0  0  0  0
 31 24  1  1  0  0  0
M  END
>  <CHROM.1>
177.33521301,-58.46895184,-64.19548912,88.58592543,73.58179846,174.44131174
15.27379951,22.48746410,32.22596061,2.78237637,-0.03755317,2.49078471

>  <Name>
2fcz_lig

>  <RI>
2.6968e+07

>  <Rbt.Current_Directory>
/home/itssahil/PROJECTS/Mol_Feturizer/New_Systems/rnas/2fcz

>  <Rbt.Executable>
rbdock ($Id: //depot/dev/client3/rdock/2013.1/src/exe/rbdock.cxx#4 $)

>  <Rbt.Library>
libRbt.so (2013.1, Build901 2013/11/27)

>  <Rbt.Parameter_File>
/export/apps/rDock/src/rDock_2013.1_src/data/scripts/dock_solv.prm

>  <Rbt.Receptor>
prm/blind_docking_60.prm

>  <SCORE>
-16.5754

>  <SCORE.INTER>
-15.1587

>  <SCORE.INTER.CONST>
1

>  <SCORE.INTER.POLAR>
-0.671583

>  <SCORE.INTER.ROT>
6

>  <SCORE.INTER.SOLV>
16.3245

>  <SCORE.INTER.VDW>
-20.9087

>  <SCORE.INTER.norm>
-0.488991

>  <SCORE.INTRA>
-1.41672

>  <SCORE.INTRA.DIHEDRAL>
-6.31308

>  <SCORE.INTRA.DIHEDRAL.0>
10.8409

>  <SCORE.INTRA.POLAR>
0

>  <SCORE.INTRA.POLAR.0>
0

>  <SCORE.INTRA.REPUL>
0

>  <SCORE.INTRA.REPUL.0>
0

>  <SCORE.INTRA.SOLV>
-1.15002

>  <SCORE.INTRA.SOLV.lig_0>
-80.8302

>  <SCORE.INTRA.VDW>
2.31483

>  <SCORE.INTRA.VDW.0>
-4.23953

>  <SCORE.INTRA.norm>
-0.0457007

>  <SCORE.RESTR>
0

>  <SCORE.RESTR.CAVITY>
0

>  <SCORE.RESTR.norm>
0

>  <SCORE.SYSTEM>
0

>  <SCORE.SYSTEM.CONST>
0

>  <SCORE.SYSTEM.DIHEDRAL>
0

>  <SCORE.SYSTEM.SOLV>
0

>  <SCORE.SYSTEM.norm>
0

>  <SCORE.heavy>
31

>  <SCORE.norm>
-0.534692

>  <RMSD>
8.484

$$$$
2fcz_lig
 OpenBabel11021811433D
libRbt.so/2013.1/901 2013/11/27
 31 33  0  0  0  0  0  0  0  0999 V2000
   20.2760   22.8401   33.1849 C   0  0  0  0  0  0  0  0  0  0  0  0
   13.6351   23.1938   27.9384 N   0  0  0  0  0  0  0  0  0  0  0  0
   20.7545   24.1850   33.2726 O   0  0  0  0  0  0  0  0  0  0  0  0
   19.0633   22.6641   34.1052 C   0  0  1  0  0  0  0  0  0  0  0  0
   11.6352   22.7047   32.3777 N   0  0  0  0  0  0  0  0  0  0  0  0
   17.9891   23.5576   33.7484 O   0  0  0  0  0  0  0  0  0  0  0  0
   16.9153   22.8064   33.1481 C   0  0  1  0  0  0  0  0  0  0  0  0
   12.9713   17.9278   36.1988 N   0  0  0  0  0  0  0  0  0  0  0  0
   16.3976   23.4322   31.9617 O   0  0  0  0  0  0  0  0  0  0  0  0
   15.3158   22.7174   31.3406 C   0  0  2  0  0  0  0  0  0  0  0  0
   14.9161   24.0890   35.1986 N   0  0  0  0  0  0  0  0  0  0  0  0
   16.2066   23.0381   29.1140 O   0  0  0  0  0  0  0  0  0  0  0  0
   15.0689   23.2943   29.9411 C   0  0  1  0  0  0  0  0  0  0  0  0
   14.1760   22.0849   33.4298 O   0  0  0  0  0  0  0  0  0  0  0  0
   13.8340   22.6630   29.2940 C   0  0  1  0  0  0  0  0  0  0  0  0
   12.4344   21.3336   34.8351 O   0  0  0  0  0  0  0  0  0  0  0  0
   12.5925   22.9472   30.1423 C   0  0  0  0  0  0  0  0  0  0  0  0
   14.6719   19.6935   37.2583 O   0  0  0  0  0  0  0  0  0  0  0  0
   12.7861   22.3437   31.5349 C   0  0  1  0  0  0  0  0  0  0  0  0
   15.4473   22.4504   37.4850 O   0  0  0  0  0  0  0  0  0  0  0  0
   14.0679   22.8400   32.2128 C   0  0  2  0  0  0  0  0  0  0  0  0
   16.5937   20.4032   32.6618 O   0  0  0  0  0  0  0  0  0  0  0  0
   13.2285   22.4669   34.4375 C   0  0  1  0  0  0  0  0  0  0  0  0
   17.7516   20.8834   35.1474 O   0  0  0  0  0  0  0  0  0  0  0  0
   13.1853   20.2547   35.4184 C   0  0  2  0  0  0  0  0  0  0  0  0
   12.2228   19.1144   35.7594 C   0  0  0  0  0  0  0  0  0  0  0  0
   13.8944   20.7488   36.6844 C   0  0  2  0  0  0  0  0  0  0  0  0
   14.8132   21.9164   36.3182 C   0  0  1  0  0  0  0  0  0  0  0  0
   14.0049   23.0222   35.6358 C   0  0  1  0  0  0  0  0  0  0  0  0
   17.5487   21.4611   32.7895 C   0  0  2  0  0  0  0  0  0  0  0  0
   18.4860   21.2544   33.9778 C   0  0  1  0  0  0  0  0  0  0  0  0
  3  1  1  0  0  0  0
  4  1  1  6  0  0  0
  4  6  1  0  0  0  0
  4 31  1  0  0  0  0
  6  7  1  0  0  0  0
  7  9  1  6  0  0  0
  7 30  1  0  0  0  0
 10  9  1  1  0  0  0
 10 13  1  0  0  0  0
 10 21  1  0  0  0  0
 13 12  1  6  0  0  0
 13 15  1  0  0  0  0
 15  2  1  6  0  0  0
 15 17  1  0  0  0  0
 16 25  1  0  0  0  0
 17 19  1  0  0  0  0
 19  5  1  1  0  0  0
 19 21  1  0  0  0  0
 21 14  1  1  0  0  0
 23 14  1  6  0  0  0
 23 16  1  0  0  0  0
 23 29  1  0  0  0  0
 25 26  1  1  0  0  0
 25 27  1  0  0  0  0
 26  8  1  0  0  0  0
 27 18  1  6  0  0  0
 27 28  1  0  0  0  0
 28 20  1  1  0  0  0
 28 29  1  0  0  0  0
 29 11  1  6  0  0  0
 30 22  1  1  0  0  0
 30 31  1  0  0  0  0
 31 24  1  1  0  0  0
M  END
>  <CHROM.1>
59.63098520,-179.46993910,-167.20047791,162.80443810,122.86359593,172.80159044
15.30203115,22.07343140,33.46054494,-1.12950529,0.21793948,1.92530324

>  <Name>
2fcz_lig

>  <RI>
1.40544e+07

>  <Rbt.Current_Directory>
/home/itssahil/PROJECTS/Mol_Feturizer/New_Systems/rnas/2fcz

>  <Rbt.Executable>
rbdock ($Id: //depot/dev/client3/rdock/2013.1/src/exe/rbdock.cxx#4 $)

>  <Rbt.Library>
libRbt.so (2013.1, Build901 2013/11/27)

>  <Rbt.Parameter_File>
/export/apps/rDock/src/rDock_2013.1_src/data/scripts/dock_solv.prm

>  <Rbt.Receptor>
prm/blind_docking_100.prm

>  <SCORE>
-13.5537

>  <SCORE.INTER>
-15.7825

>  <SCORE.INTER.CONST>
1

>  <SCORE.INTER.POLAR>
-1.55259

>  <SCORE.INTER.ROT>
6

>  <SCORE.INTER.SOLV>
13.5146

>  <SCORE.INTER.VDW>
-17.4512

>  <SCORE.INTER.norm>
-0.509111

>  <SCORE.INTRA>
2.22871

>  <SCORE.INTRA.DIHEDRAL>
-1.23089

>  <SCORE.INTRA.DIHEDRAL.0>
10.8409

>  <SCORE.INTRA.POLAR>
0

>  <SCORE.INTRA.POLAR.0>
0

>  <SCORE.INTRA.REPUL>
0

>  <SCORE.INTRA.REPUL.0>
0

>  <SCORE.INTRA.SOLV>
2.0808

>  <SCORE.INTRA.SOLV.lig_0>
-80.8302

>  <SCORE.INTRA.VDW>
1.80376

>  <SCORE.INTRA.VDW.0>
-4.23953

>  <SCORE.INTRA.norm>
0.0718938

>  <SCORE.RESTR>
0

>  <SCORE.RESTR.CAVITY>
0

>  <SCORE.RESTR.norm>
0

>  <SCORE.SYSTEM>
0

>  <SCORE.SYSTEM.CONST>
0

>  <SCORE.SYSTEM.DIHEDRAL>
0

>  <SCORE.SYSTEM.SOLV>
0

>  <SCORE.SYSTEM.norm>
0

>  <SCORE.heavy>
31

>  <SCORE.norm>
-0.437218

>  <RMSD>
8.511

$$$$
2fcz_lig
 OpenBabel11021811433D
libRbt.so/2013.1/901 2013/11/27
 31 33  0  0  0  0  0  0  0  0999 V2000
    8.5555   13.9268   43.5479 C   0  0  0  0  0  0  0  0  0  0  0  0
    8.7223   12.7608   35.1774 N   0  0  0  0  0  0  0  0  0  0  0  0
    8.9907   13.5571   44.8591 O   0  0  0  0  0  0  0  0  0  0  0  0
    8.9058   12.8125   42.5558 C   0  0  1  0  0  0  0  0  0  0  0  0
    7.2788   17.3004   36.2983 N   0  0  0  0  0  0  0  0  0  0  0  0
    8.5148   13.1541   41.2104 O   0  0  0  0  0  0  0  0  0  0  0  0
    9.6891   13.4332   40.4225 C   0  0  1  0  0  0  0  0  0  0  0  0
    3.7742   19.0507   39.9756 N   0  0  0  0  0  0  0  0  0  0  0  0
    9.5487   14.6183   39.6206 O   0  0  0  0  0  0  0  0  0  0  0  0
    8.5685   14.5112   38.5744 C   0  0  2  0  0  0  0  0  0  0  0  0
   10.0059   17.3415   39.8511 N   0  0  0  0  0  0  0  0  0  0  0  0
    9.3268   12.3126   37.9073 O   0  0  0  0  0  0  0  0  0  0  0  0
    9.1357   13.6499   37.4391 C   0  0  1  0  0  0  0  0  0  0  0  0
    7.4453   16.6532   39.0369 O   0  0  0  0  0  0  0  0  0  0  0  0
    8.1861   13.6235   36.2392 C   0  0  1  0  0  0  0  0  0  0  0  0
    6.6130   18.8255   39.4384 O   0  0  0  0  0  0  0  0  0  0  0  0
    7.9859   15.0400   35.6958 C   0  0  0  0  0  0  0  0  0  0  0  0
    6.5783   18.4756   43.1051 O   0  0  0  0  0  0  0  0  0  0  0  0
    7.3768   15.9173   36.7913 C   0  0  1  0  0  0  0  0  0  0  0  0
    9.3756   18.2309   42.4981 O   0  0  0  0  0  0  0  0  0  0  0  0
    8.2121   15.9104   38.0762 C   0  0  2  0  0  0  0  0  0  0  0  0
   12.1101   13.4186   40.9255 O   0  0  0  0  0  0  0  0  0  0  0  0
    7.7744   18.0490   39.0902 C   0  0  1  0  0  0  0  0  0  0  0  0
   10.7349   11.2728   42.0451 O   0  0  0  0  0  0  0  0  0  0  0  0
    6.0592   18.5230   40.7306 C   0  0  2  0  0  0  0  0  0  0  0  0
    4.8200   19.3943   40.9501 C   0  0  0  0  0  0  0  0  0  0  0  0
    7.1052   18.8028   41.8156 C   0  0  2  0  0  0  0  0  0  0  0  0
    8.3472   17.9517   41.5425 C   0  0  1  0  0  0  0  0  0  0  0  0
    8.8776   18.2390   40.1361 C   0  0  1  0  0  0  0  0  0  0  0  0
   10.7988   13.6356   41.4554 C   0  0  2  0  0  0  0  0  0  0  0  0
   10.4172   12.5902   42.5017 C   0  0  1  0  0  0  0  0  0  0  0  0
  3  1  1  0  0  0  0
  4  1  1  1  0  0  0
  4  6  1  0  0  0  0
  4 31  1  0  0  0  0
  6  7  1  0  0  0  0
  7  9  1  1  0  0  0
  7 30  1  0  0  0  0
 10  9  1  1  0  0  0
 10 13  1  0  0  0  0
 10 21  1  0  0  0  0
 13 12  1  1  0  0  0
 13 15  1  0  0  0  0
 15  2  1  6  0  0  0
 15 17  1  0  0  0  0
 16 25  1  0  0  0  0
 17 19  1  0  0  0  0
 19  5  1  6  0  0  0
 19 21  1  0  0  0  0
 21 14  1  1  0  0  0
 23 14  1  1  0  0  0
 23 16  1  0  0  0  0
 23 29  1  0  0  0  0
 25 26  1  1  0  0  0
 25 27  1  0  0  0  0
 26  8  1  0  0  0  0
 27 18  1  1  0  0  0
 27 28  1  0  0  0  0
 28 20  1  1  0  0  0
 28 29  1  0  0  0  0
 29 11  1  6  0  0  0
 30 22  1  6  0  0  0
 30 31  1  0  0  0  0
 31 24  1  6  0  0  0
M  END
>  <CHROM.1>
-178.59188321,-66.88395409,-75.12331150,142.55280548,148.43598001,64.37379577
8.40138270,15.55731297,40.03860947,-0.14408282,-1.01955121,1.32527513

>  <Name>
2fcz_lig

>  <RI>
2.76032e+07

>  <Rbt.Current_Directory>
/home/itssahil/PROJECTS/Mol_Feturizer/New_Systems/rnas/2fcz

>  <Rbt.Executable>
rbdock ($Id: //depot/dev/client3/rdock/2013.1/src/exe/rbdock.cxx#4 $)

>  <Rbt.Library>
libRbt.so (2013.1, Build901 2013/11/27)

>  <Rbt.Parameter_File>
/export/apps/rDock/src/rDock_2013.1_src/data/scripts/dock_solv.prm

>  <Rbt.Receptor>
prm/pocket_docking_8.prm

>  <SCORE>
-5.57873

>  <SCORE.INTER>
-6.60734

>  <SCORE.INTER.CONST>
1

>  <SCORE.INTER.POLAR>
-0.894427

>  <SCORE.INTER.ROT>
6

>  <SCORE.INTER.SOLV>
12.1236

>  <SCORE.INTER.VDW>
-13.0647

>  <SCORE.INTER.norm>
-0.21314

>  <SCORE.INTRA>
1.02861

>  <SCORE.INTRA.DIHEDRAL>
-0.549639

>  <SCORE.INTRA.DIHEDRAL.0>
10.8409

>  <SCORE.INTRA.POLAR>
0

>  <SCORE.INTRA.POLAR.0>
0

>  <SCORE.INTRA.REPUL>
0

>  <SCORE.INTRA.REPUL.0>
0

>  <SCORE.INTRA.SOLV>
-0.422136

>  <SCORE.INTRA.SOLV.lig_0>
-80.8302

>  <SCORE.INTRA.VDW>
1.5145

>  <SCORE.INTRA.VDW.0>
-4.23953

>  <SCORE.INTRA.norm>
0.0331811

>  <SCORE.RESTR>
0

>  <SCORE.RESTR.CAVITY>
0

>  <SCORE.RESTR.norm>
0

>  <SCORE.SYSTEM>
0

>  <SCORE.SYSTEM.CONST>
0

>  <SCORE.SYSTEM.DIHEDRAL>
0

>  <SCORE.SYSTEM.SOLV>
0

>  <SCORE.SYSTEM.norm>
0

>  <SCORE.heavy>
31

>  <SCORE.norm>
-0.179959

>  <RMSD>
8.651

$$$$
2fcz_lig
 OpenBabel11021811433D
libRbt.so/2013.1/901 2013/11/27
 31 33  0  0  0  0  0  0  0  0999 V2000
   12.6271   18.4688   37.8500 C   0  0  0  0  0  0  0  0  0  0  0  0
   10.9907   12.0589   43.0988 N   0  0  0  0  0  0  0  0  0  0  0  0
   12.1716   19.6177   38.5696 O   0  0  0  0  0  0  0  0  0  0  0  0
   13.3411   17.5102   38.8091 C   0  0  1  0  0  0  0  0  0  0  0  0
    6.7883   13.5129   41.0560 N   0  0  0  0  0  0  0  0  0  0  0  0
   12.4062   16.7957   39.6429 O   0  0  0  0  0  0  0  0  0  0  0  0
   12.3460   15.4164   39.2287 C   0  0  1  0  0  0  0  0  0  0  0  0
    3.0929   15.4206   39.8209 N   0  0  0  0  0  0  0  0  0  0  0  0
   10.9984   14.9232   39.1402 O   0  0  0  0  0  0  0  0  0  0  0  0
   10.3635   14.7073   40.4119 C   0  0  2  0  0  0  0  0  0  0  0  0
    8.3880   16.8944   37.3232 N   0  0  0  0  0  0  0  0  0  0  0  0
   12.3913   13.8690   41.4313 O   0  0  0  0  0  0  0  0  0  0  0  0
   11.0394   13.5253   41.1179 C   0  0  1  0  0  0  0  0  0  0  0  0
    8.1643   15.6120   39.7725 O   0  0  0  0  0  0  0  0  0  0  0  0
   10.3074   13.1640   42.4125 C   0  0  1  0  0  0  0  0  0  0  0  0
    5.8798   15.1231   39.4340 O   0  0  0  0  0  0  0  0  0  0  0  0
    8.8635   12.7612   42.1053 C   0  0  0  0  0  0  0  0  0  0  0  0
    4.7274   18.5673   40.0481 O   0  0  0  0  0  0  0  0  0  0  0  0
    8.1443   13.9364   41.4402 C   0  0  1  0  0  0  0  0  0  0  0  0
    6.3649   18.8827   37.7087 O   0  0  0  0  0  0  0  0  0  0  0  0
    8.8766   14.4369   40.1904 C   0  0  2  0  0  0  0  0  0  0  0  0
   13.4985   14.1258   37.4620 O   0  0  0  0  0  0  0  0  0  0  0  0
    7.1472   15.3580   38.7925 C   0  0  1  0  0  0  0  0  0  0  0  0
   15.1736   15.8918   38.8128 O   0  0  0  0  0  0  0  0  0  0  0  0
    5.3870   16.2327   40.2046 C   0  0  2  0  0  0  0  0  0  0  0  0
    4.0587   15.8308   40.8506 C   0  0  0  0  0  0  0  0  0  0  0  0
    5.1875   17.4454   39.2885 C   0  0  2  0  0  0  0  0  0  0  0  0
    6.5212   17.7933   38.6238 C   0  0  1  0  0  0  0  0  0  0  0  0
    7.0607   16.5768   37.8683 C   0  0  1  0  0  0  0  0  0  0  0  0
   12.9920   15.4089   37.8423 C   0  0  2  0  0  0  0  0  0  0  0  0
   14.1054   16.4370   38.0340 C   0  0  1  0  0  0  0  0  0  0  0  0
  3  1  1  0  0  0  0
  4  1  1  6  0  0  0
  4  6  1  0  0  0  0
  4 31  1  0  0  0  0
  6  7  1  0  0  0  0
  7  9  1  6  0  0  0
  7 30  1  0  0  0  0
 10  9  1  6  0  0  0
 10 13  1  0  0  0  0
 10 21  1  0  0  0  0
 13 12  1  1  0  0  0
 13 15  1  0  0  0  0
 15  2  1  6  0  0  0
 15 17  1  0  0  0  0
 16 25  1  0  0  0  0
 17 19  1  0  0  0  0
 19  5  1  6  0  0  0
 19 21  1  0  0  0  0
 21 14  1  1  0  0  0
 23 14  1  1  0  0  0
 23 16  1  0  0  0  0
 23 29  1  0  0  0  0
 25 26  1  6  0  0  0
 25 27  1  0  0  0  0
 26  8  1  0  0  0  0
 27 18  1  1  0  0  0
 27 28  1  0  0  0  0
 28 20  1  6  0  0  0
 28 29  1  0  0  0  0
 29 11  1  1  0  0  0
 30 22  1  1  0  0  0
 30 31  1  0  0  0  0
 31 24  1  1  0  0  0
M  END
>  <CHROM.1>
75.19975724,-72.69443044,-68.76057331,141.99460729,92.14655497,-57.50804706
9.36887090,15.72058128,39.60757200,-0.01583738,0.10745363,-0.62383912

>  <Name>
2fcz_lig

>  <RI>
1.32928e+07

>  <Rbt.Current_Directory>
/home/itssahil/PROJECTS/Mol_Feturizer/New_Systems/rnas/2fcz

>  <Rbt.Executable>
rbdock ($Id: //depot/dev/client3/rdock/2013.1/src/exe/rbdock.cxx#4 $)

>  <Rbt.Library>
libRbt.so (2013.1, Build901 2013/11/27)

>  <Rbt.Parameter_File>
/export/apps/rDock/src/rDock_2013.1_src/data/scripts/dock_solv.prm

>  <Rbt.Receptor>
prm/pocket_docking_7.prm

>  <SCORE>
-11.8837

>  <SCORE.INTER>
-14.8675

>  <SCORE.INTER.CONST>
1

>  <SCORE.INTER.POLAR>
-2.89243

>  <SCORE.INTER.ROT>
6

>  <SCORE.INTER.SOLV>
10.252

>  <SCORE.INTER.VDW>
-11.2875

>  <SCORE.INTER.norm>
-0.479596

>  <SCORE.INTRA>
2.98374

>  <SCORE.INTRA.DIHEDRAL>
0.228372

>  <SCORE.INTRA.DIHEDRAL.0>
10.8409

>  <SCORE.INTRA.POLAR>
0

>  <SCORE.INTRA.POLAR.0>
0

>  <SCORE.INTRA.REPUL>
0

>  <SCORE.INTRA.REPUL.0>
0

>  <SCORE.INTRA.SOLV>
0.702695

>  <SCORE.INTRA.SOLV.lig_0>
-80.8302

>  <SCORE.INTRA.VDW>
2.51821

>  <SCORE.INTRA.VDW.0>
-4.23953

>  <SCORE.INTRA.norm>
0.0962498

>  <SCORE.RESTR>
0

>  <SCORE.RESTR.CAVITY>
0

>  <SCORE.RESTR.norm>
0

>  <SCORE.SYSTEM>
0

>  <SCORE.SYSTEM.CONST>
0

>  <SCORE.SYSTEM.DIHEDRAL>
0

>  <SCORE.SYSTEM.SOLV>
0

>  <SCORE.SYSTEM.norm>
0

>  <SCORE.heavy>
31

>  <SCORE.norm>
-0.383346

>  <RMSD>
8.676

$$$$
2fcz_lig
 OpenBabel11021811433D
libRbt.so/2013.1/901 2013/11/27
 31 33  0  0  0  0  0  0  0  0999 V2000
   17.5560   24.9754   32.1291 C   0  0  0  0  0  0  0  0  0  0  0  0
    9.3096   22.4247   31.6025 N   0  0  0  0  0  0  0  0  0  0  0  0
   16.3506   25.5189   32.6744 O   0  0  0  0  0  0  0  0  0  0  0  0
   17.2265   23.7465   31.2750 C   0  0  1  0  0  0  0  0  0  0  0  0
   11.4427   19.5539   34.9425 N   0  0  0  0  0  0  0  0  0  0  0  0
   16.4299   22.7896   32.0026 O   0  0  0  0  0  0  0  0  0  0  0  0
   15.0836   22.7909   31.4876 C   0  0  1  0  0  0  0  0  0  0  0  0
   16.3417   22.7860   37.2875 N   0  0  0  0  0  0  0  0  0  0  0  0
   14.0924   22.8001   32.5291 O   0  0  0  0  0  0  0  0  0  0  0  0
   13.0211   21.8615   32.3335 C   0  0  2  0  0  0  0  0  0  0  0  0
   16.1554   18.6577   32.8882 N   0  0  0  0  0  0  0  0  0  0  0  0
   11.8694   23.3003   30.7660 O   0  0  0  0  0  0  0  0  0  0  0  0
   11.7305   22.6287   32.0204 C   0  0  1  0  0  0  0  0  0  0  0  0
   13.9495   20.0896   33.7696 O   0  0  0  0  0  0  0  0  0  0  0  0
   10.5303   21.6819   31.9450 C   0  0  1  0  0  0  0  0  0  0  0  0
   15.2803   21.5862   35.0193 O   0  0  0  0  0  0  0  0  0  0  0  0
   10.3372   20.9699   33.2857 C   0  0  0  0  0  0  0  0  0  0  0  0
   16.0035   19.1852   37.7174 O   0  0  0  0  0  0  0  0  0  0  0  0
   11.5918   20.1558   33.6080 C   0  0  1  0  0  0  0  0  0  0  0  0
   17.2240   17.9269   35.4413 O   0  0  0  0  0  0  0  0  0  0  0  0
   12.8628   21.0120   33.5930 C   0  0  2  0  0  0  0  0  0  0  0  0
   13.9624   24.0509   29.6792 O   0  0  0  0  0  0  0  0  0  0  0  0
   15.2355   20.7183   33.8714 C   0  0  1  0  0  0  0  0  0  0  0  0
   16.5202   23.1854   29.0026 O   0  0  0  0  0  0  0  0  0  0  0  0
   15.0901   20.9190   36.2789 C   0  0  2  0  0  0  0  0  0  0  0  0
   15.1290   21.9624   37.3982 C   0  0  0  0  0  0  0  0  0  0  0  0
   16.1984   19.8798   36.4817 C   0  0  2  0  0  0  0  0  0  0  0  0
   16.1620   18.8793   35.3244 C   0  0  1  0  0  0  0  0  0  0  0  0
   16.2954   19.6186   33.9911 C   0  0  1  0  0  0  0  0  0  0  0  0
   14.9910   24.0824   30.6734 C   0  0  2  0  0  0  0  0  0  0  0  0
   16.3882   24.1403   30.0589 C   0  0  1  0  0  0  0  0  0  0  0  0
  3  1  1  0  0  0  0
  4  1  1  1  0  0  0
  4  6  1  0  0  0  0
  4 31  1  0  0  0  0
  6  7  1  0  0  0  0
  7  9  1  1  0  0  0
  7 30  1  0  0  0  0
 10  9  1  1  0  0  0
 10 13  1  0  0  0  0
 10 21  1  0  0  0  0
 13 12  1  6  0  0  0
 13 15  1  0  0  0  0
 15  2  1  1  0  0  0
 15 17  1  0  0  0  0
 16 25  1  0  0  0  0
 17 19  1  0  0  0  0
 19  5  1  1  0  0  0
 19 21  1  0  0  0  0
 21 14  1  6  0  0  0
 23 14  1  1  0  0  0
 23 16  1  0  0  0  0
 23 29  1  0  0  0  0
 25 26  1  1  0  0  0
 25 27  1  0  0  0  0
 26  8  1  0  0  0  0
 27 18  1  1  0  0  0
 27 28  1  0  0  0  0
 28 20  1  1  0  0  0
 28 29  1  0  0  0  0
 29 11  1  6  0  0  0
 30 22  1  6  0  0  0
 30 31  1  0  0  0  0
 31 24  1  6  0  0  0
M  END
>  <CHROM.1>
-52.72910420,-134.12390729,-110.42604986,59.26466893,61.64556012,-52.00827473
14.55893099,21.75691550,33.24865014,-1.80086817,0.20679368,2.24435107

>  <Name>
2fcz_lig

>  <RI>
1.40544e+07

>  <Rbt.Current_Directory>
/home/itssahil/PROJECTS/Mol_Feturizer/New_Systems/rnas/2fcz

>  <Rbt.Executable>
rbdock ($Id: //depot/dev/client3/rdock/2013.1/src/exe/rbdock.cxx#4 $)

>  <Rbt.Library>
libRbt.so (2013.1, Build901 2013/11/27)

>  <Rbt.Parameter_File>
/export/apps/rDock/src/rDock_2013.1_src/data/scripts/dock_solv.prm

>  <Rbt.Receptor>
prm/blind_docking_100.prm

>  <SCORE>
-15.917

>  <SCORE.INTER>
-18.465

>  <SCORE.INTER.CONST>
1

>  <SCORE.INTER.POLAR>
-2.05284

>  <SCORE.INTER.ROT>
6

>  <SCORE.INTER.SOLV>
14.5632

>  <SCORE.INTER.VDW>
-17.9216

>  <SCORE.INTER.norm>
-0.595645

>  <SCORE.INTRA>
2.54799

>  <SCORE.INTRA.DIHEDRAL>
2.65163

>  <SCORE.INTRA.DIHEDRAL.0>
10.8409

>  <SCORE.INTRA.POLAR>
0

>  <SCORE.INTRA.POLAR.0>
0

>  <SCORE.INTRA.REPUL>
0

>  <SCORE.INTRA.REPUL.0>
0

>  <SCORE.INTRA.SOLV>
-1.40717

>  <SCORE.INTRA.SOLV.lig_0>
-80.8302

>  <SCORE.INTRA.VDW>
1.92576

>  <SCORE.INTRA.VDW.0>
-4.23953

>  <SCORE.INTRA.norm>
0.0821932

>  <SCORE.RESTR>
0

>  <SCORE.RESTR.CAVITY>
0

>  <SCORE.RESTR.norm>
0

>  <SCORE.SYSTEM>
0

>  <SCORE.SYSTEM.CONST>
0

>  <SCORE.SYSTEM.DIHEDRAL>
0

>  <SCORE.SYSTEM.SOLV>
0

>  <SCORE.SYSTEM.norm>
0

>  <SCORE.heavy>
31

>  <SCORE.norm>
-0.513452

>  <RMSD>
8.685

$$$$
2fcz_lig
 OpenBabel11021811433D
libRbt.so/2013.1/901 2013/11/27
 31 33  0  0  0  0  0  0  0  0999 V2000
   15.6311   21.0028   35.9843 C   0  0  0  0  0  0  0  0  0  0  0  0
   13.9715   18.5473   34.3845 N   0  0  0  0  0  0  0  0  0  0  0  0
   15.5027   20.6514   37.3647 O   0  0  0  0  0  0  0  0  0  0  0  0
   15.7905   22.5212   35.8522 C   0  0  1  0  0  0  0  0  0  0  0  0
   18.0350   20.2806   32.2796 N   0  0  0  0  0  0  0  0  0  0  0  0
   15.8890   22.9290   34.4725 O   0  0  0  0  0  0  0  0  0  0  0  0
   14.6767   23.6030   34.0804 C   0  0  1  0  0  0  0  0  0  0  0  0
   19.4485   24.0361   34.0741 N   0  0  0  0  0  0  0  0  0  0  0  0
   14.1887   23.1647   32.8009 O   0  0  0  0  0  0  0  0  0  0  0  0
   14.5350   21.8093   32.4691 C   0  0  2  0  0  0  0  0  0  0  0  0
   15.7312   23.6770   28.8149 N   0  0  0  0  0  0  0  0  0  0  0  0
   12.6005   20.8979   33.6010 O   0  0  0  0  0  0  0  0  0  0  0  0
   14.0298   20.8753   33.5758 C   0  0  1  0  0  0  0  0  0  0  0  0
   16.5228   22.3604   31.1243 O   0  0  0  0  0  0  0  0  0  0  0  0
   14.4982   19.4374   33.3407 C   0  0  1  0  0  0  0  0  0  0  0  0
   17.4087   24.3300   32.0773 O   0  0  0  0  0  0  0  0  0  0  0  0
   16.0273   19.3760   33.3393 C   0  0  0  0  0  0  0  0  0  0  0  0
   20.4056   24.3940   29.9367 O   0  0  0  0  0  0  0  0  0  0  0  0
   16.5650   20.2631   32.2147 C   0  0  1  0  0  0  0  0  0  0  0  0
   18.2852   24.6984   28.0223 O   0  0  0  0  0  0  0  0  0  0  0  0
   16.0505   21.7035   32.3110 C   0  0  2  0  0  0  0  0  0  0  0  0
   12.5881   24.1670   35.2781 O   0  0  0  0  0  0  0  0  0  0  0  0
   16.4259   23.7913   31.1736 C   0  0  1  0  0  0  0  0  0  0  0  0
   14.8823   24.5845   36.7986 O   0  0  0  0  0  0  0  0  0  0  0  0
   18.7715   24.0608   31.7054 C   0  0  2  0  0  0  0  0  0  0  0  0
   19.6978   24.6601   32.7665 C   0  0  0  0  0  0  0  0  0  0  0  0
   19.0615   24.6816   30.3342 C   0  0  2  0  0  0  0  0  0  0  0  0
   18.0906   24.0966   29.3063 C   0  0  1  0  0  0  0  0  0  0  0  0
   16.6476   24.3331   29.7578 C   0  0  1  0  0  0  0  0  0  0  0  0
   13.6697   23.2363   35.1717 C   0  0  2  0  0  0  0  0  0  0  0  0
   14.5650   23.2455   36.4093 C   0  0  1  0  0  0  0  0  0  0  0  0
  3  1  1  0  0  0  0
  4  1  1  6  0  0  0
  4  6  1  0  0  0  0
  4 31  1  0  0  0  0
  6  7  1  0  0  0  0
  7  9  1  6  0  0  0
  7 30  1  0  0  0  0
 10  9  1  1  0  0  0
 10 13  1  0  0  0  0
 10 21  1  0  0  0  0
 13 12  1  6  0  0  0
 13 15  1  0  0  0  0
 15  2  1  1  0  0  0
 15 17  1  0  0  0  0
 16 25  1  0  0  0  0
 17 19  1  0  0  0  0
 19  5  1  1  0  0  0
 19 21  1  0  0  0  0
 21 14  1  6  0  0  0
 23 14  1  6  0  0  0
 23 16  1  0  0  0  0
 23 29  1  0  0  0  0
 25 26  1  1  0  0  0
 25 27  1  0  0  0  0
 26  8  1  0  0  0  0
 27 18  1  6  0  0  0
 27 28  1  0  0  0  0
 28 20  1  6  0  0  0
 28 29  1  0  0  0  0
 29 11  1  6  0  0  0
 30 22  1  1  0  0  0
 30 31  1  0  0  0  0
 31 24  1  6  0  0  0
M  END
>  <CHROM.1>
-178.49383660,28.58835011,56.15124857,69.66625081,72.02925967,61.56491709
16.12712117,22.65093497,32.94717937,-2.67468357,-0.86471962,-2.09154728

>  <Name>
2fcz_lig

>  <RI>
2.6968e+07

>  <Rbt.Current_Directory>
/home/itssahil/PROJECTS/Mol_Feturizer/New_Systems/rnas/2fcz

>  <Rbt.Executable>
rbdock ($Id: //depot/dev/client3/rdock/2013.1/src/exe/rbdock.cxx#4 $)

>  <Rbt.Library>
libRbt.so (2013.1, Build901 2013/11/27)

>  <Rbt.Parameter_File>
/export/apps/rDock/src/rDock_2013.1_src/data/scripts/dock_solv.prm

>  <Rbt.Receptor>
prm/blind_docking_60.prm

>  <SCORE>
-13.5863

>  <SCORE.INTER>
-16.4708

>  <SCORE.INTER.CONST>
1

>  <SCORE.INTER.POLAR>
-1.46827

>  <SCORE.INTER.ROT>
6

>  <SCORE.INTER.SOLV>
16.6214

>  <SCORE.INTER.VDW>
-19.2267

>  <SCORE.INTER.norm>
-0.531315

>  <SCORE.INTRA>
2.88449

>  <SCORE.INTRA.DIHEDRAL>
-5.65893

>  <SCORE.INTRA.DIHEDRAL.0>
10.8409

>  <SCORE.INTRA.POLAR>
0

>  <SCORE.INTRA.POLAR.0>
0

>  <SCORE.INTRA.REPUL>
0.0108449

>  <SCORE.INTRA.REPUL.0>
0

>  <SCORE.INTRA.SOLV>
-0.0140648

>  <SCORE.INTRA.SOLV.lig_0>
-80.8302

>  <SCORE.INTRA.VDW>
5.66677

>  <SCORE.INTRA.VDW.0>
-4.23953

>  <SCORE.INTRA.norm>
0.0930481

>  <SCORE.RESTR>
0

>  <SCORE.RESTR.CAVITY>
0

>  <SCORE.RESTR.norm>
0

>  <SCORE.SYSTEM>
0

>  <SCORE.SYSTEM.CONST>
0

>  <SCORE.SYSTEM.DIHEDRAL>
0

>  <SCORE.SYSTEM.SOLV>
0

>  <SCORE.SYSTEM.norm>
0

>  <SCORE.heavy>
31

>  <SCORE.norm>
-0.438266

>  <RMSD>
8.685

$$$$
2fcz_lig
 OpenBabel11021811433D
libRbt.so/2013.1/901 2013/11/27
 31 33  0  0  0  0  0  0  0  0999 V2000
   19.0980   24.3407   34.5005 C   0  0  0  0  0  0  0  0  0  0  0  0
   13.4265   23.1228   28.5087 N   0  0  0  0  0  0  0  0  0  0  0  0
   19.3960   23.4356   35.5670 O   0  0  0  0  0  0  0  0  0  0  0  0
   18.9823   23.5649   33.1840 C   0  0  1  0  0  0  0  0  0  0  0  0
   10.7363   22.4837   32.5461 N   0  0  0  0  0  0  0  0  0  0  0  0
   17.8638   22.6548   33.1980 O   0  0  0  0  0  0  0  0  0  0  0  0
   16.8273   23.1500   32.3273 C   0  0  1  0  0  0  0  0  0  0  0  0
   17.5138   20.1068   35.9219 N   0  0  0  0  0  0  0  0  0  0  0  0
   15.5209   23.0742   32.9230 O   0  0  0  0  0  0  0  0  0  0  0  0
   14.5341   22.4264   32.1024 C   0  0  2  0  0  0  0  0  0  0  0  0
   11.0529   20.0720   34.9016 N   0  0  0  0  0  0  0  0  0  0  0  0
   15.7743   22.8258   30.0638 O   0  0  0  0  0  0  0  0  0  0  0  0
   14.5265   23.0786   30.7143 C   0  0  1  0  0  0  0  0  0  0  0  0
   13.0621   21.7305   33.9498 O   0  0  0  0  0  0  0  0  0  0  0  0
   13.3947   22.5203   29.8485 C   0  0  1  0  0  0  0  0  0  0  0  0
   14.5693   19.9343   33.6769 O   0  0  0  0  0  0  0  0  0  0  0  0
   12.0418   22.8034   30.5051 C   0  0  0  0  0  0  0  0  0  0  0  0
   15.2632   19.5575   37.2747 O   0  0  0  0  0  0  0  0  0  0  0  0
   11.9971   22.1268   31.8766 C   0  0  1  0  0  0  0  0  0  0  0  0
   12.4583   18.9534   37.1306 O   0  0  0  0  0  0  0  0  0  0  0  0
   13.1670   22.5471   32.7730 C   0  0  2  0  0  0  0  0  0  0  0  0
   16.6367   25.1512   30.8873 O   0  0  0  0  0  0  0  0  0  0  0  0
   13.1833   20.3236   33.6945 C   0  0  1  0  0  0  0  0  0  0  0  0
   19.1412   23.9412   30.7735 O   0  0  0  0  0  0  0  0  0  0  0  0
   15.2648   20.1499   34.9170 C   0  0  2  0  0  0  0  0  0  0  0  0
   16.7247   19.7246   34.7418 C   0  0  0  0  0  0  0  0  0  0  0  0
   14.6008   19.3278   36.0273 C   0  0  2  0  0  0  0  0  0  0  0  0
   13.1331   19.7438   36.1465 C   0  0  1  0  0  0  0  0  0  0  0  0
   12.4310   19.5724   34.7975 C   0  0  1  0  0  0  0  0  0  0  0  0
   17.2023   24.6132   32.0865 C   0  0  2  0  0  0  0  0  0  0  0  0
   18.7250   24.5158   32.0151 C   0  0  1  0  0  0  0  0  0  0  0  0
  3  1  1  0  0  0  0
  4  1  1  1  0  0  0
  4  6  1  0  0  0  0
  4 31  1  0  0  0  0
  6  7  1  0  0  0  0
  7  9  1  1  0  0  0
  7 30  1  0  0  0  0
 10  9  1  1  0  0  0
 10 13  1  0  0  0  0
 10 21  1  0  0  0  0
 13 12  1  6  0  0  0
 13 15  1  0  0  0  0
 15  2  1  6  0  0  0
 15 17  1  0  0  0  0
 16 25  1  0  0  0  0
 17 19  1  0  0  0  0
 19  5  1  1  0  0  0
 19 21  1  0  0  0  0
 21 14  1  1  0  0  0
 23 14  1  1  0  0  0
 23 16  1  0  0  0  0
 23 29  1  0  0  0  0
 25 26  1  6  0  0  0
 25 27  1  0  0  0  0
 26  8  1  0  0  0  0
 27 18  1  1  0  0  0
 27 28  1  0  0  0  0
 28 20  1  1  0  0  0
 28 29  1  0  0  0  0
 29 11  1  1  0  0  0
 30 22  1  6  0  0  0
 30 31  1  0  0  0  0
 31 24  1  6  0  0  0
M  END
>  <CHROM.1>
65.04049468,-128.63267440,-52.19425007,-62.88407643,85.45236123,171.91398987
15.15186792,21.99292078,33.23285015,-0.79441039,0.31459293,2.14485610

>  <Name>
2fcz_lig

>  <RI>
0

>  <Rbt.Current_Directory>
/home/itssahil/PROJECTS/Mol_Feturizer/New_Systems/rnas/2fcz

>  <Rbt.Executable>
rbdock ($Id: //depot/dev/client3/rdock/2013.1/src/exe/rbdock.cxx#4 $)

>  <Rbt.Library>
libRbt.so (2013.1, Build901 2013/11/27)

>  <Rbt.Parameter_File>
/export/apps/rDock/src/rDock_2013.1_src/data/scripts/dock_solv.prm

>  <Rbt.Receptor>
prm/blind_docking_80.prm

>  <SCORE>
-9.55847

>  <SCORE.INTER>
-14.2842

>  <SCORE.INTER.CONST>
1

>  <SCORE.INTER.POLAR>
-1.60668

>  <SCORE.INTER.ROT>
6

>  <SCORE.INTER.SOLV>
14.7615

>  <SCORE.INTER.VDW>
-16.6877

>  <SCORE.INTER.norm>
-0.460779

>  <SCORE.INTRA>
4.67446

>  <SCORE.INTRA.DIHEDRAL>
-0.544638

>  <SCORE.INTRA.DIHEDRAL.0>
10.8409

>  <SCORE.INTRA.POLAR>
0

>  <SCORE.INTRA.POLAR.0>
0

>  <SCORE.INTRA.REPUL>
0

>  <SCORE.INTRA.REPUL.0>
0

>  <SCORE.INTRA.SOLV>
0.869073

>  <SCORE.INTRA.SOLV.lig_0>
-80.8302

>  <SCORE.INTRA.VDW>
4.51224

>  <SCORE.INTRA.VDW.0>
-4.23953

>  <SCORE.INTRA.norm>
0.150789

>  <SCORE.RESTR>
0.0512205

>  <SCORE.RESTR.CAVITY>
0.0512205

>  <SCORE.RESTR.norm>
0.00165227

>  <SCORE.SYSTEM>
0

>  <SCORE.SYSTEM.CONST>
0

>  <SCORE.SYSTEM.DIHEDRAL>
0

>  <SCORE.SYSTEM.SOLV>
0

>  <SCORE.SYSTEM.norm>
0

>  <SCORE.heavy>
31

>  <SCORE.norm>
-0.308338

>  <RMSD>
8.719

$$$$
2fcz_lig
 OpenBabel11021811433D
libRbt.so/2013.1/901 2013/11/27
 31 33  0  0  0  0  0  0  0  0999 V2000
   14.9348   26.5447   34.8608 C   0  0  0  0  0  0  0  0  0  0  0  0
   17.2147   18.3284   36.5637 N   0  0  0  0  0  0  0  0  0  0  0  0
   13.9593   26.4273   33.8215 O   0  0  0  0  0  0  0  0  0  0  0  0
   14.6710   25.4858   35.9367 C   0  0  1  0  0  0  0  0  0  0  0  0
   17.8245   19.4759   31.8459 N   0  0  0  0  0  0  0  0  0  0  0  0
   14.9047   24.1520   35.4406 O   0  0  0  0  0  0  0  0  0  0  0  0
   16.1070   23.6205   36.0321 C   0  0  1  0  0  0  0  0  0  0  0  0
   20.1099   24.1309   30.7230 N   0  0  0  0  0  0  0  0  0  0  0  0
   16.9579   22.9737   35.0704 O   0  0  0  0  0  0  0  0  0  0  0  0
   16.5661   21.6294   34.7445 C   0  0  2  0  0  0  0  0  0  0  0  0
   13.9758   23.0064   32.3429 N   0  0  0  0  0  0  0  0  0  0  0  0
   16.3670   20.9829   37.0675 O   0  0  0  0  0  0  0  0  0  0  0  0
   17.0511   20.6819   35.8487 C   0  0  1  0  0  0  0  0  0  0  0  0
   16.5367   21.9418   32.3021 O   0  0  0  0  0  0  0  0  0  0  0  0
   16.7841   19.2210   35.4788 C   0  0  1  0  0  0  0  0  0  0  0  0
   17.5292   24.0528   31.9398 O   0  0  0  0  0  0  0  0  0  0  0  0
   17.5297   18.8596   34.1922 C   0  0  0  0  0  0  0  0  0  0  0  0
   16.5257   24.2685   28.4023 O   0  0  0  0  0  0  0  0  0  0  0  0
   17.0359   19.7573   33.0559 C   0  0  1  0  0  0  0  0  0  0  0  0
   13.9897   24.2222   29.7513 O   0  0  0  0  0  0  0  0  0  0  0  0
   17.1636   21.2472   33.3918 C   0  0  2  0  0  0  0  0  0  0  0  0
   17.7368   24.5220   37.6587 O   0  0  0  0  0  0  0  0  0  0  0  0
   16.4066   23.3555   32.5112 C   0  0  1  0  0  0  0  0  0  0  0  0
   15.0914   25.0911   38.3126 O   0  0  0  0  0  0  0  0  0  0  0  0
   17.6661   23.8970   30.5168 C   0  0  2  0  0  0  0  0  0  0  0  0
   18.9109   24.6597   30.0567 C   0  0  0  0  0  0  0  0  0  0  0  0
   16.4173   24.4461   29.8179 C   0  0  2  0  0  0  0  0  0  0  0  0
   15.1870   23.6954   30.3322 C   0  0  1  0  0  0  0  0  0  0  0  0
   15.1010   23.8162   31.8553 C   0  0  1  0  0  0  0  0  0  0  0  0
   16.8174   24.8451   36.6110 C   0  0  2  0  0  0  0  0  0  0  0  0
   15.6282   25.6604   37.1156 C   0  0  1  0  0  0  0  0  0  0  0  0
  3  1  1  0  0  0  0
  4  1  1  6  0  0  0
  4  6  1  0  0  0  0
  4 31  1  0  0  0  0
  6  7  1  0  0  0  0
  7  9  1  6  0  0  0
  7 30  1  0  0  0  0
 10  9  1  1  0  0  0
 10 13  1  0  0  0  0
 10 21  1  0  0  0  0
 13 12  1  1  0  0  0
 13 15  1  0  0  0  0
 15  2  1  1  0  0  0
 15 17  1  0  0  0  0
 16 25  1  0  0  0  0
 17 19  1  0  0  0  0
 19  5  1  6  0  0  0
 19 21  1  0  0  0  0
 21 14  1  6  0  0  0
 23 14  1  6  0  0  0
 23 16  1  0  0  0  0
 23 29  1  0  0  0  0
 25 26  1  6  0  0  0
 25 27  1  0  0  0  0
 26  8  1  0  0  0  0
 27 18  1  6  0  0  0
 27 28  1  0  0  0  0
 28 20  1  6  0  0  0
 28 29  1  0  0  0  0
 29 11  1  1  0  0  0
 30 22  1  1  0  0  0
 30 31  1  0  0  0  0
 31 24  1  1  0  0  0
M  END
>  <CHROM.1>
67.16673838,-80.85193277,-79.87223398,48.04860329,93.59349479,60.03446777
16.39199774,23.10413143,33.67420775,1.72093777,-1.20125089,1.89075347

>  <Name>
2fcz_lig

>  <RI>
2.6968e+07

>  <Rbt.Current_Directory>
/home/itssahil/PROJECTS/Mol_Feturizer/New_Systems/rnas/2fcz

>  <Rbt.Executable>
rbdock ($Id: //depot/dev/client3/rdock/2013.1/src/exe/rbdock.cxx#4 $)

>  <Rbt.Library>
libRbt.so (2013.1, Build901 2013/11/27)

>  <Rbt.Parameter_File>
/export/apps/rDock/src/rDock_2013.1_src/data/scripts/dock_solv.prm

>  <Rbt.Receptor>
prm/blind_docking_60.prm

>  <SCORE>
-14.1892

>  <SCORE.INTER>
-14.0166

>  <SCORE.INTER.CONST>
1

>  <SCORE.INTER.POLAR>
-1.68196

>  <SCORE.INTER.ROT>
6

>  <SCORE.INTER.SOLV>
24.3052

>  <SCORE.INTER.VDW>
-19.4396

>  <SCORE.INTER.norm>
-0.452149

>  <SCORE.INTRA>
-0.172574

>  <SCORE.INTRA.DIHEDRAL>
-1.8738

>  <SCORE.INTRA.DIHEDRAL.0>
10.8409

>  <SCORE.INTRA.POLAR>
0

>  <SCORE.INTRA.POLAR.0>
0

>  <SCORE.INTRA.REPUL>
0

>  <SCORE.INTRA.REPUL.0>
0

>  <SCORE.INTRA.SOLV>
-2.20085

>  <SCORE.INTRA.SOLV.lig_0>
-80.8302

>  <SCORE.INTRA.VDW>
1.86475

>  <SCORE.INTRA.VDW.0>
-4.23953

>  <SCORE.INTRA.norm>
-0.00556691

>  <SCORE.RESTR>
0

>  <SCORE.RESTR.CAVITY>
0

>  <SCORE.RESTR.norm>
0

>  <SCORE.SYSTEM>
0

>  <SCORE.SYSTEM.CONST>
0

>  <SCORE.SYSTEM.DIHEDRAL>
0

>  <SCORE.SYSTEM.SOLV>
0

>  <SCORE.SYSTEM.norm>
0

>  <SCORE.heavy>
31

>  <SCORE.norm>
-0.457716

>  <RMSD>
8.726

$$$$
2fcz_lig
 OpenBabel11021811433D
libRbt.so/2013.1/901 2013/11/27
 31 33  0  0  0  0  0  0  0  0999 V2000
   19.6894   24.3466   34.3010 C   0  0  0  0  0  0  0  0  0  0  0  0
   13.2376   23.7094   29.0953 N   0  0  0  0  0  0  0  0  0  0  0  0
   19.0406   23.1441   34.7232 O   0  0  0  0  0  0  0  0  0  0  0  0
   18.8239   25.0591   33.2561 C   0  0  1  0  0  0  0  0  0  0  0  0
   12.6280   21.7839   33.5527 N   0  0  0  0  0  0  0  0  0  0  0  0
   18.5916   24.2287   32.1003 O   0  0  0  0  0  0  0  0  0  0  0  0
   17.2197   23.7865   32.0911 C   0  0  1  0  0  0  0  0  0  0  0  0
   13.1291   19.8456   38.0344 N   0  0  0  0  0  0  0  0  0  0  0  0
   17.0913   22.3861   31.7921 O   0  0  0  0  0  0  0  0  0  0  0  0
   15.7715   21.9874   31.3846 C   0  0  2  0  0  0  0  0  0  0  0  0
   17.8228   20.1391   34.2326 N   0  0  0  0  0  0  0  0  0  0  0  0
   15.9840   23.0288   29.2111 O   0  0  0  0  0  0  0  0  0  0  0  0
   15.2081   23.0309   30.4120 C   0  0  1  0  0  0  0  0  0  0  0  0
   15.2331   20.7146   33.4228 O   0  0  0  0  0  0  0  0  0  0  0  0
   13.7500   22.7266   30.0601 C   0  0  1  0  0  0  0  0  0  0  0  0
   14.4612   20.9056   35.6455 O   0  0  0  0  0  0  0  0  0  0  0  0
   12.8877   22.7523   31.3239 C   0  0  0  0  0  0  0  0  0  0  0  0
   14.4774   17.2800   36.2959 O   0  0  0  0  0  0  0  0  0  0  0  0
   13.3947   21.6889   32.3002 C   0  0  1  0  0  0  0  0  0  0  0  0
   17.2576   17.8239   35.8185 O   0  0  0  0  0  0  0  0  0  0  0  0
   14.8842   21.8539   32.6207 C   0  0  2  0  0  0  0  0  0  0  0  0
   15.3016   24.1830   33.6006 O   0  0  0  0  0  0  0  0  0  0  0  0
   15.5973   21.0422   34.7716 C   0  0  1  0  0  0  0  0  0  0  0  0
   16.8266   26.4634   33.1278 O   0  0  0  0  0  0  0  0  0  0  0  0
   13.9211   19.5747   35.7173 C   0  0  2  0  0  0  0  0  0  0  0  0
   12.7074   19.5868   36.6500 C   0  0  0  0  0  0  0  0  0  0  0  0
   14.9912   18.6147   36.2492 C   0  0  2  0  0  0  0  0  0  0  0  0
   16.2073   18.6596   35.3216 C   0  0  1  0  0  0  0  0  0  0  0  0
   16.7217   20.0962   35.2049 C   0  0  1  0  0  0  0  0  0  0  0  0
   16.7244   24.0599   33.5122 C   0  0  2  0  0  0  0  0  0  0  0  0
   17.4393   25.3737   33.8223 C   0  0  1  0  0  0  0  0  0  0  0  0
  3  1  1  0  0  0  0
  4  1  1  1  0  0  0
  4  6  1  0  0  0  0
  4 31  1  0  0  0  0
  6  7  1  0  0  0  0
  7  9  1  1  0  0  0
  7 30  1  0  0  0  0
 10  9  1  1  0  0  0
 10 13  1  0  0  0  0
 10 21  1  0  0  0  0
 13 12  1  6  0  0  0
 13 15  1  0  0  0  0
 15  2  1  6  0  0  0
 15 17  1  0  0  0  0
 16 25  1  0  0  0  0
 17 19  1  0  0  0  0
 19  5  1  1  0  0  0
 19 21  1  0  0  0  0
 21 14  1  6  0  0  0
 23 14  1  6  0  0  0
 23 16  1  0  0  0  0
 23 29  1  0  0  0  0
 25 26  1  1  0  0  0
 25 27  1  0  0  0  0
 26  8  1  0  0  0  0
 27 18  1  6  0  0  0
 27 28  1  0  0  0  0
 28 20  1  1  0  0  0
 28 29  1  0  0  0  0
 29 11  1  6  0  0  0
 30 22  1  6  0  0  0
 30 31  1  0  0  0  0
 31 24  1  6  0  0  0
M  END
>  <CHROM.1>
-59.44326152,-162.48839348,42.68884538,121.29397348,95.43747210,-67.82702330
15.74110470,21.93420195,33.54515162,-1.25789136,0.47304159,2.29882955

>  <Name>
2fcz_lig

>  <RI>
2.6968e+07

>  <Rbt.Current_Directory>
/home/itssahil/PROJECTS/Mol_Feturizer/New_Systems/rnas/2fcz

>  <Rbt.Executable>
rbdock ($Id: //depot/dev/client3/rdock/2013.1/src/exe/rbdock.cxx#4 $)

>  <Rbt.Library>
libRbt.so (2013.1, Build901 2013/11/27)

>  <Rbt.Parameter_File>
/export/apps/rDock/src/rDock_2013.1_src/data/scripts/dock_solv.prm

>  <Rbt.Receptor>
prm/blind_docking_60.prm

>  <SCORE>
-7.36667

>  <SCORE.INTER>
-14.4471

>  <SCORE.INTER.CONST>
1

>  <SCORE.INTER.POLAR>
-2.41014

>  <SCORE.INTER.ROT>
6

>  <SCORE.INTER.SOLV>
17.6585

>  <SCORE.INTER.VDW>
-15.0837

>  <SCORE.INTER.norm>
-0.466034

>  <SCORE.INTRA>
7.08039

>  <SCORE.INTRA.DIHEDRAL>
3.95857

>  <SCORE.INTRA.DIHEDRAL.0>
10.8409

>  <SCORE.INTRA.POLAR>
0

>  <SCORE.INTRA.POLAR.0>
0

>  <SCORE.INTRA.REPUL>
0

>  <SCORE.INTRA.REPUL.0>
0

>  <SCORE.INTRA.SOLV>
3.8551

>  <SCORE.INTRA.SOLV.lig_0>
-80.8302

>  <SCORE.INTRA.VDW>
3.17355

>  <SCORE.INTRA.VDW.0>
-4.23953

>  <SCORE.INTRA.norm>
0.2284

>  <SCORE.RESTR>
0

>  <SCORE.RESTR.CAVITY>
0

>  <SCORE.RESTR.norm>
0

>  <SCORE.SYSTEM>
0

>  <SCORE.SYSTEM.CONST>
0

>  <SCORE.SYSTEM.DIHEDRAL>
0

>  <SCORE.SYSTEM.SOLV>
0

>  <SCORE.SYSTEM.norm>
0

>  <SCORE.heavy>
31

>  <SCORE.norm>
-0.237635

>  <RMSD>
8.914

$$$$
2fcz_lig
 OpenBabel11021811433D
libRbt.so/2013.1/901 2013/11/27
 31 33  0  0  0  0  0  0  0  0999 V2000
   19.0992   23.4355   34.9409 C   0  0  0  0  0  0  0  0  0  0  0  0
   13.6763   22.9119   27.9568 N   0  0  0  0  0  0  0  0  0  0  0  0
   18.2865   22.5902   35.7597 O   0  0  0  0  0  0  0  0  0  0  0  0
   19.2693   22.8016   33.5560 C   0  0  1  0  0  0  0  0  0  0  0  0
   11.7726   22.7151   32.4606 N   0  0  0  0  0  0  0  0  0  0  0  0
   17.9970   22.4999   32.9478 O   0  0  0  0  0  0  0  0  0  0  0  0
   17.7517   23.4154   31.8618 C   0  0  1  0  0  0  0  0  0  0  0  0
   10.7906   20.0343   34.5581 N   0  0  0  0  0  0  0  0  0  0  0  0
   16.4132   23.9403   31.8718 O   0  0  0  0  0  0  0  0  0  0  0  0
   15.4202   23.0363   31.3583 C   0  0  2  0  0  0  0  0  0  0  0  0
   15.7765   24.0673   35.3572 N   0  0  0  0  0  0  0  0  0  0  0  0
   16.2546   23.1962   29.0929 O   0  0  0  0  0  0  0  0  0  0  0  0
   15.0991   23.4128   29.9066 C   0  0  1  0  0  0  0  0  0  0  0  0
   14.3747   22.5238   33.5281 O   0  0  0  0  0  0  0  0  0  0  0  0
   13.9440   22.5702   29.3607 C   0  0  1  0  0  0  0  0  0  0  0  0
   12.5004   22.3392   34.9515 O   0  0  0  0  0  0  0  0  0  0  0  0
   12.6823   22.8046   30.1942 C   0  0  0  0  0  0  0  0  0  0  0  0
   14.0786   19.9189   37.2361 O   0  0  0  0  0  0  0  0  0  0  0  0
   12.9536   22.3950   31.6431 C   0  0  1  0  0  0  0  0  0  0  0  0
   15.7491   22.2342   37.5557 O   0  0  0  0  0  0  0  0  0  0  0  0
   14.1714   23.1135   32.2344 C   0  0  2  0  0  0  0  0  0  0  0  0
   19.0474   25.2889   30.8995 O   0  0  0  0  0  0  0  0  0  0  0  0
   13.6274   23.1540   34.5787 C   0  0  1  0  0  0  0  0  0  0  0  0
   20.6094   23.0724   31.5291 O   0  0  0  0  0  0  0  0  0  0  0  0
   12.8471   21.0420   35.4664 C   0  0  2  0  0  0  0  0  0  0  0  0
   11.5587   20.2805   35.7873 C   0  0  0  0  0  0  0  0  0  0  0  0
   13.6991   21.2025   36.7304 C   0  0  2  0  0  0  0  0  0  0  0  0
   14.9554   22.0057   36.3868 C   0  0  1  0  0  0  0  0  0  0  0  0
   14.5626   23.3527   35.7758 C   0  0  1  0  0  0  0  0  0  0  0  0
   18.7538   24.5486   32.0882 C   0  0  2  0  0  0  0  0  0  0  0  0
   19.9645   23.7693   32.5984 C   0  0  1  0  0  0  0  0  0  0  0  0
  3  1  1  0  0  0  0
  4  1  1  1  0  0  0
  4  6  1  0  0  0  0
  4 31  1  0  0  0  0
  6  7  1  0  0  0  0
  7  9  1  1  0  0  0
  7 30  1  0  0  0  0
 10  9  1  1  0  0  0
 10 13  1  0  0  0  0
 10 21  1  0  0  0  0
 13 12  1  6  0  0  0
 13 15  1  0  0  0  0
 15  2  1  6  0  0  0
 15 17  1  0  0  0  0
 16 25  1  0  0  0  0
 17 19  1  0  0  0  0
 19  5  1  1  0  0  0
 19 21  1  0  0  0  0
 21 14  1  1  0  0  0
 23 14  1  6  0  0  0
 23 16  1  0  0  0  0
 23 29  1  0  0  0  0
 25 26  1  1  0  0  0
 25 27  1  0  0  0  0
 26  8  1  0  0  0  0
 27 18  1  6  0  0  0
 27 28  1  0  0  0  0
 28 20  1  1  0  0  0
 28 29  1  0  0  0  0
 29 11  1  6  0  0  0
 30 22  1  6  0  0  0
 30 31  1  0  0  0  0
 31 24  1  6  0  0  0
M  END
>  <CHROM.1>
54.53857844,-78.27307463,-99.55901919,147.57823741,104.42526637,64.24280817
15.45697602,22.69726647,33.24908970,-0.67313013,0.25580588,1.78898523

>  <Name>
2fcz_lig

>  <RI>
1.40544e+07

>  <Rbt.Current_Directory>
/home/itssahil/PROJECTS/Mol_Feturizer/New_Systems/rnas/2fcz

>  <Rbt.Executable>
rbdock ($Id: //depot/dev/client3/rdock/2013.1/src/exe/rbdock.cxx#4 $)

>  <Rbt.Library>
libRbt.so (2013.1, Build901 2013/11/27)

>  <Rbt.Parameter_File>
/export/apps/rDock/src/rDock_2013.1_src/data/scripts/dock_solv.prm

>  <Rbt.Receptor>
prm/blind_docking_100.prm

>  <SCORE>
-10.9691

>  <SCORE.INTER>
-16.0147

>  <SCORE.INTER.CONST>
1

>  <SCORE.INTER.POLAR>
-1.50001

>  <SCORE.INTER.ROT>
6

>  <SCORE.INTER.SOLV>
15.5928

>  <SCORE.INTER.VDW>
-18.474

>  <SCORE.INTER.norm>
-0.516602

>  <SCORE.INTRA>
5.04557

>  <SCORE.INTRA.DIHEDRAL>
6.3372

>  <SCORE.INTRA.DIHEDRAL.0>
10.8409

>  <SCORE.INTRA.POLAR>
0

>  <SCORE.INTRA.POLAR.0>
0

>  <SCORE.INTRA.REPUL>
0.0551918

>  <SCORE.INTRA.REPUL.0>
0

>  <SCORE.INTRA.SOLV>
3.11462

>  <SCORE.INTRA.SOLV.lig_0>
-80.8302

>  <SCORE.INTRA.VDW>
0.0437026

>  <SCORE.INTRA.VDW.0>
-4.23953

>  <SCORE.INTRA.norm>
0.16276

>  <SCORE.RESTR>
0

>  <SCORE.RESTR.CAVITY>
0

>  <SCORE.RESTR.norm>
0

>  <SCORE.SYSTEM>
0

>  <SCORE.SYSTEM.CONST>
0

>  <SCORE.SYSTEM.DIHEDRAL>
0

>  <SCORE.SYSTEM.SOLV>
0

>  <SCORE.SYSTEM.norm>
0

>  <SCORE.heavy>
31

>  <SCORE.norm>
-0.353841

>  <RMSD>
8.934

$$$$
2fcz_lig
 OpenBabel11021811433D
libRbt.so/2013.1/901 2013/11/27
 31 33  0  0  0  0  0  0  0  0999 V2000
   11.7804   21.1929   33.3012 C   0  0  0  0  0  0  0  0  0  0  0  0
   17.6908   24.4277   27.6990 N   0  0  0  0  0  0  0  0  0  0  0  0
   10.5064   20.5506   33.2017 O   0  0  0  0  0  0  0  0  0  0  0  0
   11.7400   22.5342   32.5611 C   0  0  1  0  0  0  0  0  0  0  0  0
   19.5348   24.6293   32.2274 N   0  0  0  0  0  0  0  0  0  0  0  0
   12.9910   23.2428   32.6730 O   0  0  0  0  0  0  0  0  0  0  0  0
   13.6738   23.2205   31.4037 C   0  0  1  0  0  0  0  0  0  0  0  0
   17.6366   20.0612   33.6035 N   0  0  0  0  0  0  0  0  0  0  0  0
   15.0707   22.9052   31.5321 O   0  0  0  0  0  0  0  0  0  0  0  0
   15.9550   23.9413   31.0720 C   0  0  2  0  0  0  0  0  0  0  0  0
   15.4659   25.9190   35.1360 N   0  0  0  0  0  0  0  0  0  0  0  0
   15.1569   23.7937   28.7927 O   0  0  0  0  0  0  0  0  0  0  0  0
   16.3253   23.6738   29.6079 C   0  0  1  0  0  0  0  0  0  0  0  0
   16.9224   24.4677   33.2744 O   0  0  0  0  0  0  0  0  0  0  0  0
   17.3778   24.6692   29.1142 C   0  0  1  0  0  0  0  0  0  0  0  0
   16.1222   22.4028   34.0922 O   0  0  0  0  0  0  0  0  0  0  0  0
   18.6537   24.5428   29.9495 C   0  0  0  0  0  0  0  0  0  0  0  0
   18.2105   22.4364   37.1263 O   0  0  0  0  0  0  0  0  0  0  0  0
   18.3290   24.8491   31.4129 C   0  0  1  0  0  0  0  0  0  0  0  0
   16.5390   24.7406   37.5139 O   0  0  0  0  0  0  0  0  0  0  0  0
   17.1996   23.9675   31.9569 C   0  0  2  0  0  0  0  0  0  0  0  0
   13.1150   22.2577   29.1957 O   0  0  0  0  0  0  0  0  0  0  0  0
   15.8328   23.8040   33.9314 C   0  0  1  0  0  0  0  0  0  0  0  0
   10.9506   23.4797   30.4491 O   0  0  0  0  0  0  0  0  0  0  0  0
   17.2749   22.1217   34.9047 C   0  0  2  0  0  0  0  0  0  0  0  0
   17.4790   20.6057   34.9599 C   0  0  0  0  0  0  0  0  0  0  0  0
   17.0573   22.6809   36.3152 C   0  0  2  0  0  0  0  0  0  0  0  0
   16.8113   24.1883   36.2218 C   0  0  1  0  0  0  0  0  0  0  0  0
   15.6245   24.4670   35.2967 C   0  0  1  0  0  0  0  0  0  0  0  0
   12.9654   22.1201   30.6120 C   0  0  2  0  0  0  0  0  0  0  0  0
   11.5200   22.3207   31.0635 C   0  0  1  0  0  0  0  0  0  0  0  0
  3  1  1  0  0  0  0
  4  1  1  1  0  0  0
  4  6  1  0  0  0  0
  4 31  1  0  0  0  0
  6  7  1  0  0  0  0
  7  9  1  1  0  0  0
  7 30  1  0  0  0  0
 10  9  1  1  0  0  0
 10 13  1  0  0  0  0
 10 21  1  0  0  0  0
 13 12  1  6  0  0  0
 13 15  1  0  0  0  0
 15  2  1  6  0  0  0
 15 17  1  0  0  0  0
 16 25  1  0  0  0  0
 17 19  1  0  0  0  0
 19  5  1  1  0  0  0
 19 21  1  0  0  0  0
 21 14  1  1  0  0  0
 23 14  1  1  0  0  0
 23 16  1  0  0  0  0
 23 29  1  0  0  0  0
 25 26  1  1  0  0  0
 25 27  1  0  0  0  0
 26  8  1  0  0  0  0
 27 18  1  1  0  0  0
 27 28  1  0  0  0  0
 28 20  1  1  0  0  0
 28 29  1  0  0  0  0
 29 11  1  6  0  0  0
 30 22  1  6  0  0  0
 30 31  1  0  0  0  0
 31 24  1  6  0  0  0
M  END
>  <CHROM.1>
177.97550458,-118.67793982,-93.50793177,52.42421650,60.90721194,57.69175793
15.48811218,23.21588004,32.59781261,2.35509475,-0.31234347,-1.40833278

>  <Name>
2fcz_lig

>  <RI>
2.6968e+07

>  <Rbt.Current_Directory>
/home/itssahil/PROJECTS/Mol_Feturizer/New_Systems/rnas/2fcz

>  <Rbt.Executable>
rbdock ($Id: //depot/dev/client3/rdock/2013.1/src/exe/rbdock.cxx#4 $)

>  <Rbt.Library>
libRbt.so (2013.1, Build901 2013/11/27)

>  <Rbt.Parameter_File>
/export/apps/rDock/src/rDock_2013.1_src/data/scripts/dock_solv.prm

>  <Rbt.Receptor>
prm/blind_docking_60.prm

>  <SCORE>
-12.2349

>  <SCORE.INTER>
-12.8662

>  <SCORE.INTER.CONST>
1

>  <SCORE.INTER.POLAR>
-0.868868

>  <SCORE.INTER.ROT>
6

>  <SCORE.INTER.SOLV>
16.7713

>  <SCORE.INTER.VDW>
-18.8717

>  <SCORE.INTER.norm>
-0.415038

>  <SCORE.INTRA>
0.631282

>  <SCORE.INTRA.DIHEDRAL>
0.947776

>  <SCORE.INTRA.DIHEDRAL.0>
10.8409

>  <SCORE.INTRA.POLAR>
0

>  <SCORE.INTRA.POLAR.0>
0

>  <SCORE.INTRA.REPUL>
0

>  <SCORE.INTRA.REPUL.0>
0

>  <SCORE.INTRA.SOLV>
-3.4745

>  <SCORE.INTRA.SOLV.lig_0>
-80.8302

>  <SCORE.INTRA.VDW>
1.89465

>  <SCORE.INTRA.VDW.0>
-4.23953

>  <SCORE.INTRA.norm>
0.0203639

>  <SCORE.RESTR>
0

>  <SCORE.RESTR.CAVITY>
0

>  <SCORE.RESTR.norm>
0

>  <SCORE.SYSTEM>
0

>  <SCORE.SYSTEM.CONST>
0

>  <SCORE.SYSTEM.DIHEDRAL>
0

>  <SCORE.SYSTEM.SOLV>
0

>  <SCORE.SYSTEM.norm>
0

>  <SCORE.heavy>
31

>  <SCORE.norm>
-0.394675

>  <RMSD>
9.131

$$$$
2fcz_lig
 OpenBabel11021811433D
libRbt.so/2013.1/901 2013/11/27
 31 33  0  0  0  0  0  0  0  0999 V2000
   20.2360   24.8856   33.3407 C   0  0  0  0  0  0  0  0  0  0  0  0
   13.5616   22.9618   28.0900 N   0  0  0  0  0  0  0  0  0  0  0  0
   20.2556   24.1561   34.5707 O   0  0  0  0  0  0  0  0  0  0  0  0
   19.9976   23.9212   32.1739 C   0  0  1  0  0  0  0  0  0  0  0  0
   11.9050   22.8128   32.6922 N   0  0  0  0  0  0  0  0  0  0  0  0
   18.7301   23.2438   32.2925 O   0  0  0  0  0  0  0  0  0  0  0  0
   17.8153   23.7538   31.3021 C   0  0  1  0  0  0  0  0  0  0  0  0
   11.9100   19.0032   36.0260 N   0  0  0  0  0  0  0  0  0  0  0  0
   16.5091   24.0209   31.8404 O   0  0  0  0  0  0  0  0  0  0  0  0
   15.4879   23.1145   31.3904 C   0  0  2  0  0  0  0  0  0  0  0  0
   16.0633   24.0502   35.4640 N   0  0  0  0  0  0  0  0  0  0  0  0
   16.1983   23.2506   29.0816 O   0  0  0  0  0  0  0  0  0  0  0  0
   15.0892   23.4778   29.9547 C   0  0  1  0  0  0  0  0  0  0  0  0
   14.5608   22.6253   33.6186 O   0  0  0  0  0  0  0  0  0  0  0  0
   13.9045   22.6328   29.4805 C   0  0  1  0  0  0  0  0  0  0  0  0
   12.7051   22.4845   35.0709 O   0  0  0  0  0  0  0  0  0  0  0  0
   12.6904   22.8784   30.3790 C   0  0  0  0  0  0  0  0  0  0  0  0
   14.2103   19.9302   37.2567 O   0  0  0  0  0  0  0  0  0  0  0  0
   13.0392   22.4820   31.8149 C   0  0  1  0  0  0  0  0  0  0  0  0
   15.9902   22.1573   37.6102 O   0  0  0  0  0  0  0  0  0  0  0  0
   14.2887   23.2031   32.3322 C   0  0  2  0  0  0  0  0  0  0  0  0
   18.0182   25.4675   29.5310 O   0  0  0  0  0  0  0  0  0  0  0  0
   13.8615   23.2580   34.7003 C   0  0  1  0  0  0  0  0  0  0  0  0
   20.2573   23.8273   29.7446 O   0  0  0  0  0  0  0  0  0  0  0  0
   13.0010   21.1586   35.5426 C   0  0  2  0  0  0  0  0  0  0  0  0
   11.6848   20.4471   35.8659 C   0  0  0  0  0  0  0  0  0  0  0  0
   13.8812   21.2438   36.7945 C   0  0  2  0  0  0  0  0  0  0  0  0
   15.1668   21.9989   36.4502 C   0  0  1  0  0  0  0  0  0  0  0  0
   14.8254   23.3794   35.8848 C   0  0  1  0  0  0  0  0  0  0  0  0
   18.4576   25.0592   30.8301 C   0  0  2  0  0  0  0  0  0  0  0  0
   19.9370   24.6791   30.8477 C   0  0  1  0  0  0  0  0  0  0  0  0
  3  1  1  0  0  0  0
  4  1  1  1  0  0  0
  4  6  1  0  0  0  0
  4 31  1  0  0  0  0
  6  7  1  0  0  0  0
  7  9  1  1  0  0  0
  7 30  1  0  0  0  0
 10  9  1  1  0  0  0
 10 13  1  0  0  0  0
 10 21  1  0  0  0  0
 13 12  1  6  0  0  0
 13 15  1  0  0  0  0
 15  2  1  6  0  0  0
 15 17  1  0  0  0  0
 16 25  1  0  0  0  0
 17 19  1  0  0  0  0
 19  5  1  1  0  0  0
 19 21  1  0  0  0  0
 21 14  1  1  0  0  0
 23 14  1  6  0  0  0
 23 16  1  0  0  0  0
 23 29  1  0  0  0  0
 25 26  1  1  0  0  0
 25 27  1  0  0  0  0
 26  8  1  0  0  0  0
 27 18  1  6  0  0  0
 27 28  1  0  0  0  0
 28 20  1  1  0  0  0
 28 29  1  0  0  0  0
 29 11  1  6  0  0  0
 30 22  1  6  0  0  0
 30 31  1  0  0  0  0
 31 24  1  6  0  0  0
M  END
>  <CHROM.1>
61.12842326,-109.76459522,-76.21673150,148.22951955,100.29876974,165.89570075
15.67118829,22.95652744,32.97579885,-0.78716259,0.32074042,1.79755475

>  <Name>
2fcz_lig

>  <RI>
0

>  <Rbt.Current_Directory>
/home/itssahil/PROJECTS/Mol_Feturizer/New_Systems/rnas/2fcz

>  <Rbt.Executable>
rbdock ($Id: //depot/dev/client3/rdock/2013.1/src/exe/rbdock.cxx#4 $)

>  <Rbt.Library>
libRbt.so (2013.1, Build901 2013/11/27)

>  <Rbt.Parameter_File>
/export/apps/rDock/src/rDock_2013.1_src/data/scripts/dock_solv.prm

>  <Rbt.Receptor>
prm/blind_docking_80.prm

>  <SCORE>
-12.5504

>  <SCORE.INTER>
-18.1372

>  <SCORE.INTER.CONST>
1

>  <SCORE.INTER.POLAR>
-1.57099

>  <SCORE.INTER.ROT>
6

>  <SCORE.INTER.SOLV>
15.4673

>  <SCORE.INTER.VDW>
-19.6106

>  <SCORE.INTER.norm>
-0.585072

>  <SCORE.INTRA>
5.5737

>  <SCORE.INTRA.DIHEDRAL>
7.11511

>  <SCORE.INTRA.DIHEDRAL.0>
10.8409

>  <SCORE.INTRA.POLAR>
0

>  <SCORE.INTRA.POLAR.0>
0

>  <SCORE.INTRA.REPUL>
0

>  <SCORE.INTRA.REPUL.0>
0

>  <SCORE.INTRA.SOLV>
0.468426

>  <SCORE.INTRA.SOLV.lig_0>
-80.8302

>  <SCORE.INTRA.VDW>
1.78193

>  <SCORE.INTRA.VDW.0>
-4.23953

>  <SCORE.INTRA.norm>
0.179797

>  <SCORE.RESTR>
0.0131242

>  <SCORE.RESTR.CAVITY>
0.0131242

>  <SCORE.RESTR.norm>
0.000423363

>  <SCORE.SYSTEM>
0

>  <SCORE.SYSTEM.CONST>
0

>  <SCORE.SYSTEM.DIHEDRAL>
0

>  <SCORE.SYSTEM.SOLV>
0

>  <SCORE.SYSTEM.norm>
0

>  <SCORE.heavy>
31

>  <SCORE.norm>
-0.404852

>  <RMSD>
9.526

$$$$
2fcz_lig
 OpenBabel11021811433D
libRbt.so/2013.1/901 2013/11/27
 31 33  0  0  0  0  0  0  0  0999 V2000
   20.1028   24.8007   32.9614 C   0  0  0  0  0  0  0  0  0  0  0  0
   12.0727   23.4386   29.3935 N   0  0  0  0  0  0  0  0  0  0  0  0
   18.9261   25.4400   33.4636 O   0  0  0  0  0  0  0  0  0  0  0  0
   19.7369   23.9145   31.7659 C   0  0  1  0  0  0  0  0  0  0  0  0
   12.5400   21.4319   33.8322 N   0  0  0  0  0  0  0  0  0  0  0  0
   18.5197   23.1779   32.0009 O   0  0  0  0  0  0  0  0  0  0  0  0
   17.4620   23.7199   31.1852 C   0  0  1  0  0  0  0  0  0  0  0  0
   14.7401   25.4742   35.7062 N   0  0  0  0  0  0  0  0  0  0  0  0
   16.2343   23.8923   31.9134 O   0  0  0  0  0  0  0  0  0  0  0  0
   15.1963   22.9667   31.5492 C   0  0  2  0  0  0  0  0  0  0  0  0
   17.4683   19.8896   34.1389 N   0  0  0  0  0  0  0  0  0  0  0  0
   14.8480   24.0015   29.3902 O   0  0  0  0  0  0  0  0  0  0  0  0
   14.1987   23.6690   30.6198 C   0  0  1  0  0  0  0  0  0  0  0  0
   15.3438   21.5833   33.5811 O   0  0  0  0  0  0  0  0  0  0  0  0
   12.9979   22.7693   30.3183 C   0  0  1  0  0  0  0  0  0  0  0  0
   16.3165   23.3770   34.7682 O   0  0  0  0  0  0  0  0  0  0  0  0
   12.2632   22.4209   31.6146 C   0  0  0  0  0  0  0  0  0  0  0  0
   15.5819   21.9844   38.0982 O   0  0  0  0  0  0  0  0  0  0  0  0
   13.2186   21.6765   32.5495 C   0  0  1  0  0  0  0  0  0  0  0  0
   17.3626   20.0175   36.9968 O   0  0  0  0  0  0  0  0  0  0  0  0
   14.5062   22.4639   32.8157 C   0  0  2  0  0  0  0  0  0  0  0  0
   17.3658   25.5648   29.5416 O   0  0  0  0  0  0  0  0  0  0  0  0
   16.5759   22.1801   34.0110 C   0  0  1  0  0  0  0  0  0  0  0  0
   19.6635   24.0084   29.3239 O   0  0  0  0  0  0  0  0  0  0  0  0
   15.5623   23.1674   35.9745 C   0  0  2  0  0  0  0  0  0  0  0  0
   15.3356   24.5205   36.6534 C   0  0  0  0  0  0  0  0  0  0  0  0
   16.3355   22.2276   36.9065 C   0  0  2  0  0  0  0  0  0  0  0  0
   16.5856   20.9025   36.1833 C   0  0  1  0  0  0  0  0  0  0  0  0
   17.3272   21.1571   34.8691 C   0  0  1  0  0  0  0  0  0  0  0  0
   17.9920   25.0818   30.7340 C   0  0  2  0  0  0  0  0  0  0  0  0
   19.4710   24.7636   30.5229 C   0  0  1  0  0  0  0  0  0  0  0  0
  3  1  1  0  0  0  0
  4  1  1  1  0  0  0
  4  6  1  0  0  0  0
  4 31  1  0  0  0  0
  6  7  1  0  0  0  0
  7  9  1  1  0  0  0
  7 30  1  0  0  0  0
 10  9  1  1  0  0  0
 10 13  1  0  0  0  0
 10 21  1  0  0  0  0
 13 12  1  6  0  0  0
 13 15  1  0  0  0  0
 15  2  1  6  0  0  0
 15 17  1  0  0  0  0
 16 25  1  0  0  0  0
 17 19  1  0  0  0  0
 19  5  1  1  0  0  0
 19 21  1  0  0  0  0
 21 14  1  6  0  0  0
 23 14  1  1  0  0  0
 23 16  1  0  0  0  0
 23 29  1  0  0  0  0
 25 26  1  1  0  0  0
 25 27  1  0  0  0  0
 26  8  1  0  0  0  0
 27 18  1  1  0  0  0
 27 28  1  0  0  0  0
 28 20  1  1  0  0  0
 28 29  1  0  0  0  0
 29 11  1  6  0  0  0
 30 22  1  6  0  0  0
 30 31  1  0  0  0  0
 31 24  1  6  0  0  0
M  END
>  <CHROM.1>
-42.27227628,-108.91862402,-101.28353423,59.38653128,56.26433657,53.02216294
16.22497800,23.10227222,33.01258679,-1.38084142,0.25275129,1.91024486

>  <Name>
2fcz_lig

>  <RI>
2.6968e+07

>  <Rbt.Current_Directory>
/home/itssahil/PROJECTS/Mol_Feturizer/New_Systems/rnas/2fcz

>  <Rbt.Executable>
rbdock ($Id: //depot/dev/client3/rdock/2013.1/src/exe/rbdock.cxx#4 $)

>  <Rbt.Library>
libRbt.so (2013.1, Build901 2013/11/27)

>  <Rbt.Parameter_File>
/export/apps/rDock/src/rDock_2013.1_src/data/scripts/dock_solv.prm

>  <Rbt.Receptor>
prm/blind_docking_60.prm

>  <SCORE>
-10.682

>  <SCORE.INTER>
-11.6081

>  <SCORE.INTER.CONST>
1

>  <SCORE.INTER.POLAR>
-1.06084

>  <SCORE.INTER.ROT>
6

>  <SCORE.INTER.SOLV>
18.9288

>  <SCORE.INTER.VDW>
-18.1122

>  <SCORE.INTER.norm>
-0.374456

>  <SCORE.INTRA>
0.926095

>  <SCORE.INTRA.DIHEDRAL>
2.72016

>  <SCORE.INTRA.DIHEDRAL.0>
10.8409

>  <SCORE.INTRA.POLAR>
0

>  <SCORE.INTRA.POLAR.0>
0

>  <SCORE.INTRA.REPUL>
0

>  <SCORE.INTRA.REPUL.0>
0

>  <SCORE.INTRA.SOLV>
-2.44173

>  <SCORE.INTRA.SOLV.lig_0>
-80.8302

>  <SCORE.INTRA.VDW>
0.78688

>  <SCORE.INTRA.VDW.0>
-4.23953

>  <SCORE.INTRA.norm>
0.029874

>  <SCORE.RESTR>
0

>  <SCORE.RESTR.CAVITY>
0

>  <SCORE.RESTR.norm>
0

>  <SCORE.SYSTEM>
0

>  <SCORE.SYSTEM.CONST>
0

>  <SCORE.SYSTEM.DIHEDRAL>
0

>  <SCORE.SYSTEM.SOLV>
0

>  <SCORE.SYSTEM.norm>
0

>  <SCORE.heavy>
31

>  <SCORE.norm>
-0.344582

>  <RMSD>
9.839

$$$$
2fcz_lig
 OpenBabel11021811433D
libRbt.so/2013.1/901 2013/11/27
 31 33  0  0  0  0  0  0  0  0999 V2000
   18.1945   24.2018   36.4486 C   0  0  0  0  0  0  0  0  0  0  0  0
   16.1173   24.1733   28.0438 N   0  0  0  0  0  0  0  0  0  0  0  0
   17.7503   24.2400   37.8075 O   0  0  0  0  0  0  0  0  0  0  0  0
   17.0249   24.5322   35.5151 C   0  0  1  0  0  0  0  0  0  0  0  0
   20.9727   24.6684   28.4000 N   0  0  0  0  0  0  0  0  0  0  0  0
   17.4838   24.9908   34.2271 O   0  0  0  0  0  0  0  0  0  0  0  0
   17.2340   23.9747   33.2357 C   0  0  1  0  0  0  0  0  0  0  0  0
   23.6506   27.3564   28.6068 N   0  0  0  0  0  0  0  0  0  0  0  0
   18.3589   23.7615   32.3660 O   0  0  0  0  0  0  0  0  0  0  0  0
   18.3196   24.5281   31.1504 C   0  0  2  0  0  0  0  0  0  0  0  0
   21.4382   23.7028   33.3936 N   0  0  0  0  0  0  0  0  0  0  0  0
   15.9378   24.2090   30.8697 O   0  0  0  0  0  0  0  0  0  0  0  0
   17.2053   23.9841   30.2477 C   0  0  1  0  0  0  0  0  0  0  0  0
   20.6967   25.1708   31.1601 O   0  0  0  0  0  0  0  0  0  0  0  0
   17.2158   24.6738   28.8815 C   0  0  1  0  0  0  0  0  0  0  0  0
   22.9209   25.3236   30.3838 O   0  0  0  0  0  0  0  0  0  0  0  0
   18.5513   24.4248   28.1770 C   0  0  0  0  0  0  0  0  0  0  0  0
   23.9523   27.8302   32.8779 O   0  0  0  0  0  0  0  0  0  0  0  0
   19.6845   24.9975   29.0306 C   0  0  1  0  0  0  0  0  0  0  0  0
   23.2870   25.5725   34.5252 O   0  0  0  0  0  0  0  0  0  0  0  0
   19.6784   24.4404   30.4583 C   0  0  2  0  0  0  0  0  0  0  0  0
   16.2079   21.7270   33.3341 O   0  0  0  0  0  0  0  0  0  0  0  0
   21.9840   24.5368   31.1429 C   0  0  1  0  0  0  0  0  0  0  0  0
   14.8528   23.6287   34.8495 O   0  0  0  0  0  0  0  0  0  0  0  0
   23.1599   26.6395   30.9122 C   0  0  2  0  0  0  0  0  0  0  0  0
   24.1431   27.3672   29.9919 C   0  0  0  0  0  0  0  0  0  0  0  0
   23.7391   26.5270   32.3269 C   0  0  2  0  0  0  0  0  0  0  0  0
   22.7548   25.7563   33.2093 C   0  0  1  0  0  0  0  0  0  0  0  0
   22.4612   24.3875   32.5910 C   0  0  1  0  0  0  0  0  0  0  0  0
   16.9625   22.7092   34.0506 C   0  0  2  0  0  0  0  0  0  0  0  0
   16.1867   23.2852   35.2337 C   0  0  1  0  0  0  0  0  0  0  0  0
  3  1  1  0  0  0  0
  4  1  1  1  0  0  0
  4  6  1  0  0  0  0
  4 31  1  0  0  0  0
  6  7  1  0  0  0  0
  7  9  1  6  0  0  0
  7 30  1  0  0  0  0
 10  9  1  1  0  0  0
 10 13  1  0  0  0  0
 10 21  1  0  0  0  0
 13 12  1  1  0  0  0
 13 15  1  0  0  0  0
 15  2  1  6  0  0  0
 15 17  1  0  0  0  0
 16 25  1  0  0  0  0
 17 19  1  0  0  0  0
 19  5  1  6  0  0  0
 19 21  1  0  0  0  0
 21 14  1  1  0  0  0
 23 14  1  1  0  0  0
 23 16  1  0  0  0  0
 23 29  1  0  0  0  0
 25 26  1  6  0  0  0
 25 27  1  0  0  0  0
 26  8  1  0  0  0  0
 27 18  1  1  0  0  0
 27 28  1  0  0  0  0
 28 20  1  1  0  0  0
 28 29  1  0  0  0  0
 29 11  1  1  0  0  0
 30 22  1  6  0  0  0
 30 31  1  0  0  0  0
 31 24  1  6  0  0  0
M  END
>  <CHROM.1>
158.58297382,-93.55652719,-69.98561640,142.93669258,113.40221434,54.14034146
19.59801798,24.75102950,32.10216488,-2.67815093,-0.36057992,-1.52033725

>  <Name>
2fcz_lig

>  <RI>
2.6968e+07

>  <Rbt.Current_Directory>
/home/itssahil/PROJECTS/Mol_Feturizer/New_Systems/rnas/2fcz

>  <Rbt.Executable>
rbdock ($Id: //depot/dev/client3/rdock/2013.1/src/exe/rbdock.cxx#4 $)

>  <Rbt.Library>
libRbt.so (2013.1, Build901 2013/11/27)

>  <Rbt.Parameter_File>
/export/apps/rDock/src/rDock_2013.1_src/data/scripts/dock_solv.prm

>  <Rbt.Receptor>
prm/blind_docking_60.prm

>  <SCORE>
-10.5286

>  <SCORE.INTER>
-15.8394

>  <SCORE.INTER.CONST>
1

>  <SCORE.INTER.POLAR>
-1.21266

>  <SCORE.INTER.ROT>
6

>  <SCORE.INTER.SOLV>
19.4615

>  <SCORE.INTER.VDW>
-20.6046

>  <SCORE.INTER.norm>
-0.510948

>  <SCORE.INTRA>
5.20901

>  <SCORE.INTRA.DIHEDRAL>
7.37278

>  <SCORE.INTRA.DIHEDRAL.0>
10.8409

>  <SCORE.INTRA.POLAR>
0

>  <SCORE.INTRA.POLAR.0>
0

>  <SCORE.INTRA.REPUL>
0

>  <SCORE.INTRA.REPUL.0>
0

>  <SCORE.INTRA.SOLV>
-0.00290925

>  <SCORE.INTRA.SOLV.lig_0>
-80.8302

>  <SCORE.INTRA.VDW>
1.52408

>  <SCORE.INTRA.VDW.0>
-4.23953

>  <SCORE.INTRA.norm>
0.168033

>  <SCORE.RESTR>
0.101771

>  <SCORE.RESTR.CAVITY>
0.101771

>  <SCORE.RESTR.norm>
0.00328294

>  <SCORE.SYSTEM>
0

>  <SCORE.SYSTEM.CONST>
0

>  <SCORE.SYSTEM.DIHEDRAL>
0

>  <SCORE.SYSTEM.SOLV>
0

>  <SCORE.SYSTEM.norm>
0

>  <SCORE.heavy>
31

>  <SCORE.norm>
-0.339633

>  <RMSD>
12.559

$$$$
