1uud_lig
 OpenBabel11021811413D
libRbt.so/2013.1/901 2013/11/27
 25 25  0  0  0  0  0  0  0  0999 V2000
   -4.9136   -9.5105   -1.6341 C   0  0  0  0  0  0  0  0  0  0  0  0
   -4.2758  -10.5001   -4.3204 O   0  0  0  0  0  0  0  0  0  0  0  0
   -4.9573  -11.7549   -4.4667 C   0  0  0  0  0  0  0  0  0  0  0  0
   -3.7063   -8.7205   -1.2871 N   0  0  0  0  0  0  0  0  0  0  0  0
   -3.9795  -12.9172   -4.2473 C   0  0  0  0  0  0  0  0  0  0  0  0
   -2.6246   -9.6282   -0.8370 C   0  0  0  0  0  0  0  0  0  0  0  0
   -1.3284   -8.8297   -0.6528 C   0  0  0  0  0  0  0  0  0  0  0  0
   -2.8935  -12.7277   -4.9583 N   0  0  0  0  0  0  0  0  0  0  0  0
   -2.2025  -13.7410   -5.4459 C   0  0  0  0  0  0  0  0  0  0  0  0
   -0.1245   -9.6919   -1.0475 C   0  0  0  0  0  0  0  0  0  0  0  0
    1.0400   -9.4123   -0.0931 C   0  0  0  0  0  0  0  0  0  0  0  0
   -0.9449  -14.0319   -4.9938 N   0  0  0  0  0  0  0  0  0  0  0  0
   -2.7525  -14.5114   -6.4197 N   0  0  0  0  0  0  0  0  0  0  0  0
    0.7839   -9.9288    1.0854 N   0  0  0  0  0  0  0  0  0  0  0  0
    1.2559  -11.1092    1.4381 C   0  0  0  0  0  0  0  0  0  0  0  0
    0.4303  -11.9967    2.0500 N   0  0  0  0  0  0  0  0  0  0  0  0
    2.5579  -11.4551    1.2113 N   0  0  0  0  0  0  0  0  0  0  0  0
   -5.2267   -9.4355   -4.1908 C   0  0  0  0  0  0  0  0  0  0  0  0
   -8.0965   -6.2922   -3.8244 O   0  0  0  0  0  0  0  0  0  0  0  0
   -5.5689   -8.9288   -2.9039 C   0  0  0  0  0  0  0  0  0  0  0  0
   -6.5298   -7.8893   -2.7846 C   0  0  0  0  0  0  0  0  0  0  0  0
   -7.1327   -7.3412   -3.9472 C   0  0  0  0  0  0  0  0  0  0  0  0
   -6.7776   -7.8325   -5.2323 C   0  0  0  0  0  0  0  0  0  0  0  0
   -5.8194   -8.8749   -5.3562 C   0  0  0  0  0  0  0  0  0  0  0  0
   -7.4469   -5.0256   -3.9668 C   0  0  0  0  0  0  0  0  0  0  0  0
  1  4  1  0  0  0  0
  2  3  1  0  0  0  0
  3  5  1  0  0  0  0
  4  6  1  0  0  0  0
  5  8  1  0  0  0  0
  6  7  1  0  0  0  0
  7 10  1  0  0  0  0
  8  9  1  0  0  0  0
  9 12  1  0  0  0  0
  9 13  1  0  0  0  0
 10 11  1  0  0  0  0
 11 14  1  0  0  0  0
 14 15  1  0  0  0  0
 15 16  1  0  0  0  0
 15 17  1  0  0  0  0
 18  2  1  0  0  0  0
 18 20  2  0  0  0  0
 18 24  1  0  0  0  0
 19 25  1  0  0  0  0
 20  1  1  0  0  0  0
 20 21  1  0  0  0  0
 21 22  2  0  0  0  0
 22 19  1  0  0  0  0
 22 23  1  0  0  0  0
 23 24  2  0  0  0  0
M  END
>  <CHROM.1>
-139.81125698,-165.60124055,-48.77272613,172.78279471,-148.60407125,-144.99856852
-142.06121031,-112.50456376,-40.98557053,-75.34563318,71.81754463,97.01283740
-134.96115456,79.25127389,-157.50796812,98.18242379,92.40340885,94.44438352
-3.15627579,-10.14085261,-2.63682404,3.07378054,0.63921372,-2.40626116

>  <Name>
1uud_lig

>  <RI>
0

>  <Rbt.Current_Directory>
/home/itssahil/PROJECTS/Mol_Feturizer/New_Systems/rnas/1uud

>  <Rbt.Executable>
rbdock ($Id: //depot/dev/client3/rdock/2013.1/src/exe/rbdock.cxx#4 $)

>  <Rbt.Library>
libRbt.so (2013.1, Build901 2013/11/27)

>  <Rbt.Parameter_File>
/export/apps/rDock/src/rDock_2013.1_src/data/scripts/dock_solv.prm

>  <Rbt.Receptor>
prm/pocket_docking_2.prm

>  <SCORE>
-26.5048

>  <SCORE.INTER>
-21.1529

>  <SCORE.INTER.CONST>
1

>  <SCORE.INTER.POLAR>
-3.15255

>  <SCORE.INTER.ROT>
18

>  <SCORE.INTER.SOLV>
11.3872

>  <SCORE.INTER.VDW>
-22.9892

>  <SCORE.INTER.norm>
-0.846115

>  <SCORE.INTRA>
-5.35193

>  <SCORE.INTRA.DIHEDRAL>
1.72375

>  <SCORE.INTRA.DIHEDRAL.0>
30.6762

>  <SCORE.INTRA.POLAR>
-0.0207021

>  <SCORE.INTRA.POLAR.0>
-0.0288659

>  <SCORE.INTRA.REPUL>
0

>  <SCORE.INTRA.REPUL.0>
0

>  <SCORE.INTRA.SOLV>
-0.850856

>  <SCORE.INTRA.SOLV.lig_0>
-25.2195

>  <SCORE.INTRA.VDW>
-5.71799

>  <SCORE.INTRA.VDW.0>
4.14263

>  <SCORE.INTRA.norm>
-0.214077

>  <SCORE.RESTR>
0

>  <SCORE.RESTR.CAVITY>
0

>  <SCORE.RESTR.norm>
0

>  <SCORE.SYSTEM>
0

>  <SCORE.SYSTEM.CONST>
0

>  <SCORE.SYSTEM.DIHEDRAL>
0

>  <SCORE.SYSTEM.SOLV>
0

>  <SCORE.SYSTEM.norm>
0

>  <SCORE.heavy>
25

>  <SCORE.norm>
-1.06019

>  <RMSD>
1.159

$$$$
1uud_lig
 OpenBabel11021811413D
libRbt.so/2013.1/901 2013/11/27
 25 25  0  0  0  0  0  0  0  0999 V2000
   -3.9115   -8.4485   -2.8084 C   0  0  0  0  0  0  0  0  0  0  0  0
   -4.8878  -10.5888   -4.5601 O   0  0  0  0  0  0  0  0  0  0  0  0
   -3.7805  -10.3780   -5.4487 C   0  0  0  0  0  0  0  0  0  0  0  0
   -4.2093   -8.5423   -1.3577 N   0  0  0  0  0  0  0  0  0  0  0  0
   -2.8583  -11.6047   -5.4457 C   0  0  0  0  0  0  0  0  0  0  0  0
   -3.0805   -7.9837   -0.5763 C   0  0  0  0  0  0  0  0  0  0  0  0
   -1.9409   -9.0082   -0.5174 C   0  0  0  0  0  0  0  0  0  0  0  0
   -3.5385  -12.6758   -5.7783 N   0  0  0  0  0  0  0  0  0  0  0  0
   -3.3458  -13.2845   -6.9335 C   0  0  0  0  0  0  0  0  0  0  0  0
   -1.2084   -8.8965    0.8241 C   0  0  0  0  0  0  0  0  0  0  0  0
    0.2525   -9.3199    0.6461 C   0  0  0  0  0  0  0  0  0  0  0  0
   -3.3121  -14.6487   -7.0257 N   0  0  0  0  0  0  0  0  0  0  0  0
   -3.1756  -12.5390   -8.0557 N   0  0  0  0  0  0  0  0  0  0  0  0
    0.3266  -10.6240    0.5238 N   0  0  0  0  0  0  0  0  0  0  0  0
    0.7167  -11.3893    1.5252 C   0  0  0  0  0  0  0  0  0  0  0  0
   -0.2176  -11.9271    2.3506 N   0  0  0  0  0  0  0  0  0  0  0  0
    2.0386  -11.6445    1.7566 N   0  0  0  0  0  0  0  0  0  0  0  0
   -5.6638   -9.3890   -4.4471 C   0  0  0  0  0  0  0  0  0  0  0  0
   -8.0146   -5.8397   -4.0908 O   0  0  0  0  0  0  0  0  0  0  0  0
   -5.2282   -8.3269   -3.6031 C   0  0  0  0  0  0  0  0  0  0  0  0
   -6.0163   -7.1513   -3.4801 C   0  0  0  0  0  0  0  0  0  0  0  0
   -7.2254   -7.0258   -4.2134 C   0  0  0  0  0  0  0  0  0  0  0  0
   -7.6507   -8.0763   -5.0703 C   0  0  0  0  0  0  0  0  0  0  0  0
   -6.8673   -9.2557   -5.1938 C   0  0  0  0  0  0  0  0  0  0  0  0
   -9.0445   -6.0476   -3.1198 C   0  0  0  0  0  0  0  0  0  0  0  0
  1  4  1  0  0  0  0
  2  3  1  0  0  0  0
  3  5  1  0  0  0  0
  4  6  1  0  0  0  0
  5  8  1  0  0  0  0
  6  7  1  0  0  0  0
  7 10  1  0  0  0  0
  8  9  1  0  0  0  0
  9 12  1  0  0  0  0
  9 13  1  0  0  0  0
 10 11  1  0  0  0  0
 11 14  1  0  0  0  0
 14 15  1  0  0  0  0
 15 16  1  0  0  0  0
 15 17  1  0  0  0  0
 18  2  1  0  0  0  0
 18 20  2  0  0  0  0
 18 24  1  0  0  0  0
 19 25  1  0  0  0  0
 20  1  1  0  0  0  0
 20 21  1  0  0  0  0
 21 22  2  0  0  0  0
 22 19  1  0  0  0  0
 22 23  1  0  0  0  0
 23 24  2  0  0  0  0
M  END
>  <CHROM.1>
-151.39755768,173.45331285,57.01457102,-78.11329449,110.18684644,-146.52606411
-151.03921482,138.65202888,15.01325259,134.60692093,-74.25690815,-102.74283472
93.34103441,13.89674393,57.50989950,-79.18361785,-111.66539725,-95.79681946
-3.60554094,-9.85689950,-2.93202758,2.71404648,0.67055054,-2.22120204

>  <Name>
1uud_lig

>  <RI>
0

>  <Rbt.Current_Directory>
/home/itssahil/PROJECTS/Mol_Feturizer/New_Systems/rnas/1uud

>  <Rbt.Executable>
rbdock ($Id: //depot/dev/client3/rdock/2013.1/src/exe/rbdock.cxx#4 $)

>  <Rbt.Library>
libRbt.so (2013.1, Build901 2013/11/27)

>  <Rbt.Parameter_File>
/export/apps/rDock/src/rDock_2013.1_src/data/scripts/dock_solv.prm

>  <Rbt.Receptor>
prm/pocket_docking_2.prm

>  <SCORE>
-21.7918

>  <SCORE.INTER>
-15.6556

>  <SCORE.INTER.CONST>
1

>  <SCORE.INTER.POLAR>
-2.39538

>  <SCORE.INTER.ROT>
18

>  <SCORE.INTER.SOLV>
11.2251

>  <SCORE.INTER.VDW>
-21.7942

>  <SCORE.INTER.norm>
-0.626225

>  <SCORE.INTRA>
-6.1682

>  <SCORE.INTRA.DIHEDRAL>
-1.41732

>  <SCORE.INTRA.DIHEDRAL.0>
30.6762

>  <SCORE.INTRA.POLAR>
0.0288659

>  <SCORE.INTRA.POLAR.0>
-0.0288659

>  <SCORE.INTRA.REPUL>
0

>  <SCORE.INTRA.REPUL.0>
0

>  <SCORE.INTRA.SOLV>
-0.880921

>  <SCORE.INTRA.SOLV.lig_0>
-25.2195

>  <SCORE.INTRA.VDW>
-5.11722

>  <SCORE.INTRA.VDW.0>
4.14263

>  <SCORE.INTRA.norm>
-0.246728

>  <SCORE.RESTR>
0.0320613

>  <SCORE.RESTR.CAVITY>
0.0320613

>  <SCORE.RESTR.norm>
0.00128245

>  <SCORE.SYSTEM>
0

>  <SCORE.SYSTEM.CONST>
0

>  <SCORE.SYSTEM.DIHEDRAL>
0

>  <SCORE.SYSTEM.SOLV>
0

>  <SCORE.SYSTEM.norm>
0

>  <SCORE.heavy>
25

>  <SCORE.norm>
-0.871671

>  <RMSD>
1.205

$$$$
1uud_lig
 OpenBabel11021811413D
libRbt.so/2013.1/901 2013/11/27
 25 25  0  0  0  0  0  0  0  0999 V2000
   -4.8876   -9.4025   -1.9804 C   0  0  0  0  0  0  0  0  0  0  0  0
   -5.5053  -11.1021   -4.2896 O   0  0  0  0  0  0  0  0  0  0  0  0
   -4.5049  -11.1056   -5.3189 C   0  0  0  0  0  0  0  0  0  0  0  0
   -3.5325   -8.8568   -2.2409 N   0  0  0  0  0  0  0  0  0  0  0  0
   -3.1139  -11.3122   -4.7044 C   0  0  0  0  0  0  0  0  0  0  0  0
   -2.6307   -9.1931   -1.1137 C   0  0  0  0  0  0  0  0  0  0  0  0
   -1.5209   -8.1396   -1.0130 C   0  0  0  0  0  0  0  0  0  0  0  0
   -2.9577  -12.5697   -4.3649 N   0  0  0  0  0  0  0  0  0  0  0  0
   -2.4211  -13.4464   -5.1928 C   0  0  0  0  0  0  0  0  0  0  0  0
   -0.7393   -8.3290    0.2916 C   0  0  0  0  0  0  0  0  0  0  0  0
    0.6002   -9.0080   -0.0083 C   0  0  0  0  0  0  0  0  0  0  0  0
   -2.3735  -14.7793   -4.8900 N   0  0  0  0  0  0  0  0  0  0  0  0
   -1.9031  -13.0146   -6.3716 N   0  0  0  0  0  0  0  0  0  0  0  0
    0.4295  -10.3049   -0.1090 N   0  0  0  0  0  0  0  0  0  0  0  0
    0.6469  -11.1102    0.9131 C   0  0  0  0  0  0  0  0  0  0  0  0
    1.9199  -11.4829    1.2035 N   0  0  0  0  0  0  0  0  0  0  0  0
   -0.3793  -11.5856    1.6792 N   0  0  0  0  0  0  0  0  0  0  0  0
   -6.1211   -9.8104   -4.2059 C   0  0  0  0  0  0  0  0  0  0  0  0
   -8.0016   -5.9828   -3.9540 O   0  0  0  0  0  0  0  0  0  0  0  0
   -5.8523   -8.9554   -3.0983 C   0  0  0  0  0  0  0  0  0  0  0  0
   -6.4857   -7.6866   -3.0130 C   0  0  0  0  0  0  0  0  0  0  0  0
   -7.3686   -7.2621   -4.0404 C   0  0  0  0  0  0  0  0  0  0  0  0
   -7.6221   -8.1060   -5.1551 C   0  0  0  0  0  0  0  0  0  0  0  0
   -6.9935   -9.3776   -5.2428 C   0  0  0  0  0  0  0  0  0  0  0  0
   -9.0272   -6.0219   -2.9574 C   0  0  0  0  0  0  0  0  0  0  0  0
  1  4  1  0  0  0  0
  2  3  1  0  0  0  0
  3  5  1  0  0  0  0
  4  6  1  0  0  0  0
  5  8  1  0  0  0  0
  6  7  1  0  0  0  0
  7 10  1  0  0  0  0
  8  9  1  0  0  0  0
  9 12  1  0  0  0  0
  9 13  1  0  0  0  0
 10 11  1  0  0  0  0
 11 14  1  0  0  0  0
 14 15  1  0  0  0  0
 15 16  1  0  0  0  0
 15 17  1  0  0  0  0
 18  2  1  0  0  0  0
 18 20  2  0  0  0  0
 18 24  1  0  0  0  0
 19 25  1  0  0  0  0
 20  1  1  0  0  0  0
 20 21  1  0  0  0  0
 21 22  2  0  0  0  0
 22 19  1  0  0  0  0
 22 23  1  0  0  0  0
 23 24  2  0  0  0  0
M  END
>  <CHROM.1>
175.47347295,114.73258973,75.71657408,-152.81112671,92.05375695,169.69988524
103.17230534,-173.70580489,88.99869196,132.20477348,-82.03197592,-96.12756804
-80.57491733,-116.01923187,100.65304741,-108.25537158,96.04184004,-73.36873025
-3.52219845,-9.98111739,-2.73581939,3.06188865,0.59106226,-2.37871418

>  <Name>
1uud_lig

>  <RI>
0

>  <Rbt.Current_Directory>
/home/itssahil/PROJECTS/Mol_Feturizer/New_Systems/rnas/1uud

>  <Rbt.Executable>
rbdock ($Id: //depot/dev/client3/rdock/2013.1/src/exe/rbdock.cxx#4 $)

>  <Rbt.Library>
libRbt.so (2013.1, Build901 2013/11/27)

>  <Rbt.Parameter_File>
/export/apps/rDock/src/rDock_2013.1_src/data/scripts/dock_solv.prm

>  <Rbt.Receptor>
prm/pocket_docking_2.prm

>  <SCORE>
-23.5761

>  <SCORE.INTER>
-21.3893

>  <SCORE.INTER.CONST>
1

>  <SCORE.INTER.POLAR>
-3.30826

>  <SCORE.INTER.ROT>
18

>  <SCORE.INTER.SOLV>
9.71525

>  <SCORE.INTER.VDW>
-22.0704

>  <SCORE.INTER.norm>
-0.855571

>  <SCORE.INTRA>
-2.6913

>  <SCORE.INTRA.DIHEDRAL>
4.90608

>  <SCORE.INTRA.DIHEDRAL.0>
30.6762

>  <SCORE.INTRA.POLAR>
0.0288659

>  <SCORE.INTRA.POLAR.0>
-0.0288659

>  <SCORE.INTRA.REPUL>
0

>  <SCORE.INTRA.REPUL.0>
0

>  <SCORE.INTRA.SOLV>
-0.41389

>  <SCORE.INTRA.SOLV.lig_0>
-25.2195

>  <SCORE.INTRA.VDW>
-5.03554

>  <SCORE.INTRA.VDW.0>
4.14263

>  <SCORE.INTRA.norm>
-0.107652

>  <SCORE.RESTR>
0.504419

>  <SCORE.RESTR.CAVITY>
0.504419

>  <SCORE.RESTR.norm>
0.0201767

>  <SCORE.SYSTEM>
0

>  <SCORE.SYSTEM.CONST>
0

>  <SCORE.SYSTEM.DIHEDRAL>
0

>  <SCORE.SYSTEM.SOLV>
0

>  <SCORE.SYSTEM.norm>
0

>  <SCORE.heavy>
25

>  <SCORE.norm>
-0.943046

>  <RMSD>
1.321

$$$$
1uud_lig
 OpenBabel11021811413D
libRbt.so/2013.1/901 2013/11/27
 25 25  0  0  0  0  0  0  0  0999 V2000
   -3.5433   -7.9548   -2.5411 C   0  0  0  0  0  0  0  0  0  0  0  0
   -3.6445   -9.9697   -4.6700 O   0  0  0  0  0  0  0  0  0  0  0  0
   -4.1594  -11.2501   -5.0647 C   0  0  0  0  0  0  0  0  0  0  0  0
   -3.8234   -8.8567   -1.3965 N   0  0  0  0  0  0  0  0  0  0  0  0
   -3.0160  -12.2667   -5.1838 C   0  0  0  0  0  0  0  0  0  0  0  0
   -2.5561   -9.4381   -0.8937 C   0  0  0  0  0  0  0  0  0  0  0  0
   -2.6623   -9.6691    0.6186 C   0  0  0  0  0  0  0  0  0  0  0  0
   -3.4525  -13.3657   -5.7518 N   0  0  0  0  0  0  0  0  0  0  0  0
   -3.4770  -13.5011   -7.0644 C   0  0  0  0  0  0  0  0  0  0  0  0
   -1.7155  -10.7976    1.0412 C   0  0  0  0  0  0  0  0  0  0  0  0
   -0.2656  -10.3173    0.9310 C   0  0  0  0  0  0  0  0  0  0  0  0
   -2.9828  -12.5312   -7.8924 N   0  0  0  0  0  0  0  0  0  0  0  0
   -4.0064  -14.6288   -7.6051 N   0  0  0  0  0  0  0  0  0  0  0  0
    0.5491  -11.3444    0.9830 N   0  0  0  0  0  0  0  0  0  0  0  0
    1.8522  -11.1848    1.1126 C   0  0  0  0  0  0  0  0  0  0  0  0
    2.5075  -11.8578    2.0931 N   0  0  0  0  0  0  0  0  0  0  0  0
    2.5554  -10.3508    0.2904 N   0  0  0  0  0  0  0  0  0  0  0  0
   -4.7116   -9.0172   -4.5775 C   0  0  0  0  0  0  0  0  0  0  0  0
   -7.9243   -6.2158   -4.2929 O   0  0  0  0  0  0  0  0  0  0  0  0
   -4.7040   -8.0249   -3.5551 C   0  0  0  0  0  0  0  0  0  0  0  0
   -5.7779   -7.1000   -3.4577 C   0  0  0  0  0  0  0  0  0  0  0  0
   -6.8467   -7.1505   -4.3907 C   0  0  0  0  0  0  0  0  0  0  0  0
   -6.8455   -8.1274   -5.4226 C   0  0  0  0  0  0  0  0  0  0  0  0
   -5.7749   -9.0570   -5.5217 C   0  0  0  0  0  0  0  0  0  0  0  0
   -8.6394   -6.4348   -3.0733 C   0  0  0  0  0  0  0  0  0  0  0  0
  1  4  1  0  0  0  0
  2  3  1  0  0  0  0
  3  5  1  0  0  0  0
  4  6  1  0  0  0  0
  5  8  1  0  0  0  0
  6  7  1  0  0  0  0
  7 10  1  0  0  0  0
  8  9  1  0  0  0  0
  9 12  1  0  0  0  0
  9 13  1  0  0  0  0
 10 11  1  0  0  0  0
 11 14  1  0  0  0  0
 14 15  1  0  0  0  0
 15 16  1  0  0  0  0
 15 17  1  0  0  0  0
 18  2  1  0  0  0  0
 18 20  2  0  0  0  0
 18 24  1  0  0  0  0
 19 25  1  0  0  0  0
 20  1  1  0  0  0  0
 20 21  1  0  0  0  0
 21 22  2  0  0  0  0
 22 19  1  0  0  0  0
 22 23  1  0  0  0  0
 23 24  2  0  0  0  0
M  END
>  <CHROM.1>
145.97630976,179.19659583,-169.67612737,148.00174454,86.65736676,154.05057168
70.39561536,3.53207002,-118.84865358,97.70744060,-165.31918068,-169.56366774
128.31644982,-128.80236693,-166.32078873,142.95865560,-87.03671403,-64.95089015
-3.25069830,-10.08521110,-2.98633006,2.73003214,0.66081049,-2.24923279

>  <Name>
1uud_lig

>  <RI>
0

>  <Rbt.Current_Directory>
/home/itssahil/PROJECTS/Mol_Feturizer/New_Systems/rnas/1uud

>  <Rbt.Executable>
rbdock ($Id: //depot/dev/client3/rdock/2013.1/src/exe/rbdock.cxx#4 $)

>  <Rbt.Library>
libRbt.so (2013.1, Build901 2013/11/27)

>  <Rbt.Parameter_File>
/export/apps/rDock/src/rDock_2013.1_src/data/scripts/dock_solv.prm

>  <Rbt.Receptor>
prm/pocket_docking_2.prm

>  <SCORE>
-33.809

>  <SCORE.INTER>
-29.6401

>  <SCORE.INTER.CONST>
1

>  <SCORE.INTER.POLAR>
-4.73901

>  <SCORE.INTER.ROT>
18

>  <SCORE.INTER.SOLV>
13.2492

>  <SCORE.INTER.VDW>
-23.9798

>  <SCORE.INTER.norm>
-1.18561

>  <SCORE.INTRA>
-4.61609

>  <SCORE.INTRA.DIHEDRAL>
-6.65609

>  <SCORE.INTRA.DIHEDRAL.0>
30.6762

>  <SCORE.INTRA.POLAR>
0.0288659

>  <SCORE.INTRA.POLAR.0>
-0.0288659

>  <SCORE.INTRA.REPUL>
0

>  <SCORE.INTRA.REPUL.0>
0

>  <SCORE.INTRA.SOLV>
-1.21674

>  <SCORE.INTRA.SOLV.lig_0>
-25.2195

>  <SCORE.INTRA.VDW>
-0.777814

>  <SCORE.INTRA.VDW.0>
4.14263

>  <SCORE.INTRA.norm>
-0.184643

>  <SCORE.RESTR>
0.44722

>  <SCORE.RESTR.CAVITY>
0.44722

>  <SCORE.RESTR.norm>
0.0178888

>  <SCORE.SYSTEM>
0

>  <SCORE.SYSTEM.CONST>
0

>  <SCORE.SYSTEM.DIHEDRAL>
0

>  <SCORE.SYSTEM.SOLV>
0

>  <SCORE.SYSTEM.norm>
0

>  <SCORE.heavy>
25

>  <SCORE.norm>
-1.35236

>  <RMSD>
1.367

$$$$
1uud_lig
 OpenBabel11021811413D
libRbt.so/2013.1/901 2013/11/27
 25 25  0  0  0  0  0  0  0  0999 V2000
   -5.2746   -9.2885   -0.8815 C   0  0  0  0  0  0  0  0  0  0  0  0
   -4.5518  -11.1151   -3.0596 O   0  0  0  0  0  0  0  0  0  0  0  0
   -3.5285  -11.2533   -4.0566 C   0  0  0  0  0  0  0  0  0  0  0  0
   -4.3159   -8.2170   -0.5144 N   0  0  0  0  0  0  0  0  0  0  0  0
   -4.0764  -12.0059   -5.2767 C   0  0  0  0  0  0  0  0  0  0  0  0
   -3.0177   -8.4516   -1.1900 C   0  0  0  0  0  0  0  0  0  0  0  0
   -1.9811   -8.9185   -0.1609 C   0  0  0  0  0  0  0  0  0  0  0  0
   -3.1132  -12.2147   -6.1424 N   0  0  0  0  0  0  0  0  0  0  0  0
   -3.0258  -13.3451   -6.8181 C   0  0  0  0  0  0  0  0  0  0  0  0
   -2.1447  -10.4199    0.0994 C   0  0  0  0  0  0  0  0  0  0  0  0
   -0.9314  -10.9398    0.8758 C   0  0  0  0  0  0  0  0  0  0  0  0
   -3.2817  -13.3969   -8.1606 N   0  0  0  0  0  0  0  0  0  0  0  0
   -2.6749  -14.4828   -6.1648 N   0  0  0  0  0  0  0  0  0  0  0  0
    0.1461  -10.8462    0.1332 N   0  0  0  0  0  0  0  0  0  0  0  0
    1.3396  -10.6745    0.6686 C   0  0  0  0  0  0  0  0  0  0  0  0
    2.0230   -9.5301    0.4099 N   0  0  0  0  0  0  0  0  0  0  0  0
    1.9075  -11.6252    1.4684 N   0  0  0  0  0  0  0  0  0  0  0  0
   -5.3825   -9.9863   -3.3598 C   0  0  0  0  0  0  0  0  0  0  0  0
   -7.8958   -6.6534   -4.2684 O   0  0  0  0  0  0  0  0  0  0  0  0
   -5.7614   -9.0773   -2.3302 C   0  0  0  0  0  0  0  0  0  0  0  0
   -6.6042   -7.9746   -2.6337 C   0  0  0  0  0  0  0  0  0  0  0  0
   -7.0510   -7.7664   -3.9650 C   0  0  0  0  0  0  0  0  0  0  0  0
   -6.6578   -8.6613   -4.9962 C   0  0  0  0  0  0  0  0  0  0  0  0
   -5.8176   -9.7678   -4.6965 C   0  0  0  0  0  0  0  0  0  0  0  0
   -7.2219   -5.4358   -3.9369 C   0  0  0  0  0  0  0  0  0  0  0  0
  1  4  1  0  0  0  0
  2  3  1  0  0  0  0
  3  5  1  0  0  0  0
  4  6  1  0  0  0  0
  5  8  1  0  0  0  0
  6  7  1  0  0  0  0
  7 10  1  0  0  0  0
  8  9  1  0  0  0  0
  9 12  1  0  0  0  0
  9 13  1  0  0  0  0
 10 11  1  0  0  0  0
 11 14  1  0  0  0  0
 14 15  1  0  0  0  0
 15 16  1  0  0  0  0
 15 17  1  0  0  0  0
 18  2  1  0  0  0  0
 18 20  2  0  0  0  0
 18 24  1  0  0  0  0
 19 25  1  0  0  0  0
 20  1  1  0  0  0  0
 20 21  1  0  0  0  0
 21 22  2  0  0  0  0
 22 19  1  0  0  0  0
 22 23  1  0  0  0  0
 23 24  2  0  0  0  0
M  END
>  <CHROM.1>
-73.99580613,-83.10698885,-175.43711885,-107.70204054,141.27317047,81.59503641
167.55964013,109.54953782,133.36223977,106.83802243,-65.53428527,150.92264080
-116.02192938,-85.91042256,-117.40240073,-135.63779709,111.44433324,60.02342413
-3.46540235,-10.11879435,-2.74872770,2.73108502,0.59537492,-2.24252684

>  <Name>
1uud_lig

>  <RI>
0

>  <Rbt.Current_Directory>
/home/itssahil/PROJECTS/Mol_Feturizer/New_Systems/rnas/1uud

>  <Rbt.Executable>
rbdock ($Id: //depot/dev/client3/rdock/2013.1/src/exe/rbdock.cxx#4 $)

>  <Rbt.Library>
libRbt.so (2013.1, Build901 2013/11/27)

>  <Rbt.Parameter_File>
/export/apps/rDock/src/rDock_2013.1_src/data/scripts/dock_solv.prm

>  <Rbt.Receptor>
prm/pocket_docking_2.prm

>  <SCORE>
-23.0733

>  <SCORE.INTER>
-18.8289

>  <SCORE.INTER.CONST>
1

>  <SCORE.INTER.POLAR>
-2.92114

>  <SCORE.INTER.ROT>
18

>  <SCORE.INTER.SOLV>
9.48814

>  <SCORE.INTER.VDW>
-21.5782

>  <SCORE.INTER.norm>
-0.753157

>  <SCORE.INTRA>
-4.89633

>  <SCORE.INTRA.DIHEDRAL>
-6.04457

>  <SCORE.INTRA.DIHEDRAL.0>
30.6762

>  <SCORE.INTRA.POLAR>
0.0288659

>  <SCORE.INTRA.POLAR.0>
-0.0288659

>  <SCORE.INTRA.REPUL>
0

>  <SCORE.INTRA.REPUL.0>
0

>  <SCORE.INTRA.SOLV>
-1.0937

>  <SCORE.INTRA.SOLV.lig_0>
-25.2195

>  <SCORE.INTRA.VDW>
-1.42534

>  <SCORE.INTRA.VDW.0>
4.14263

>  <SCORE.INTRA.norm>
-0.195853

>  <SCORE.RESTR>
0.651949

>  <SCORE.RESTR.CAVITY>
0.651949

>  <SCORE.RESTR.norm>
0.026078

>  <SCORE.SYSTEM>
0

>  <SCORE.SYSTEM.CONST>
0

>  <SCORE.SYSTEM.DIHEDRAL>
0

>  <SCORE.SYSTEM.SOLV>
0

>  <SCORE.SYSTEM.norm>
0

>  <SCORE.heavy>
25

>  <SCORE.norm>
-0.922932

>  <RMSD>
1.374

$$$$
1uud_lig
 OpenBabel11021811413D
libRbt.so/2013.1/901 2013/11/27
 25 25  0  0  0  0  0  0  0  0999 V2000
   -3.9449   -8.4104   -2.7860 C   0  0  0  0  0  0  0  0  0  0  0  0
   -5.3273  -10.6337   -4.1082 O   0  0  0  0  0  0  0  0  0  0  0  0
   -4.7296  -10.8841   -5.3889 C   0  0  0  0  0  0  0  0  0  0  0  0
   -3.9718   -9.5958   -1.8937 N   0  0  0  0  0  0  0  0  0  0  0  0
   -3.7492  -12.0610   -5.2946 C   0  0  0  0  0  0  0  0  0  0  0  0
   -2.6765   -9.7193   -1.1840 C   0  0  0  0  0  0  0  0  0  0  0  0
   -2.9287   -9.8692    0.3212 C   0  0  0  0  0  0  0  0  0  0  0  0
   -3.2913  -12.3577   -6.4876 N   0  0  0  0  0  0  0  0  0  0  0  0
   -3.3423  -13.5892   -6.9596 C   0  0  0  0  0  0  0  0  0  0  0  0
   -1.6882   -9.4255    1.1042 C   0  0  0  0  0  0  0  0  0  0  0  0
   -0.6837  -10.5796    1.1684 C   0  0  0  0  0  0  0  0  0  0  0  0
   -3.9958  -13.8815   -8.1250 N   0  0  0  0  0  0  0  0  0  0  0  0
   -2.7332  -14.5891   -6.2714 N   0  0  0  0  0  0  0  0  0  0  0  0
    0.3994  -10.2652    0.4981 N   0  0  0  0  0  0  0  0  0  0  0  0
    1.5839  -10.7321    0.8438 C   0  0  0  0  0  0  0  0  0  0  0  0
    1.6594  -11.7427    1.7474 N   0  0  0  0  0  0  0  0  0  0  0  0
    2.7357  -10.2156    0.3218 N   0  0  0  0  0  0  0  0  0  0  0  0
   -5.9544   -9.3448   -4.1010 C   0  0  0  0  0  0  0  0  0  0  0  0
   -7.8618   -5.5225   -4.0528 O   0  0  0  0  0  0  0  0  0  0  0  0
   -5.3195   -8.2391   -3.4652 C   0  0  0  0  0  0  0  0  0  0  0  0
   -5.9600   -6.9712   -3.4434 C   0  0  0  0  0  0  0  0  0  0  0  0
   -7.2212   -6.8007   -4.0727 C   0  0  0  0  0  0  0  0  0  0  0  0
   -7.8461   -7.8982   -4.7238 C   0  0  0  0  0  0  0  0  0  0  0  0
   -7.2106   -9.1693   -4.7451 C   0  0  0  0  0  0  0  0  0  0  0  0
   -6.9436   -4.5194   -4.4971 C   0  0  0  0  0  0  0  0  0  0  0  0
  1  4  1  0  0  0  0
  2  3  1  0  0  0  0
  3  5  1  0  0  0  0
  4  6  1  0  0  0  0
  5  8  1  0  0  0  0
  6  7  1  0  0  0  0
  7 10  1  0  0  0  0
  8  9  1  0  0  0  0
  9 12  1  0  0  0  0
  9 13  1  0  0  0  0
 10 11  1  0  0  0  0
 11 14  1  0  0  0  0
 14 15  1  0  0  0  0
 15 16  1  0  0  0  0
 15 17  1  0  0  0  0
 18  2  1  0  0  0  0
 18 20  2  0  0  0  0
 18 24  1  0  0  0  0
 19 25  1  0  0  0  0
 20  1  1  0  0  0  0
 20 21  1  0  0  0  0
 21 22  2  0  0  0  0
 22 19  1  0  0  0  0
 22 23  1  0  0  0  0
 23 24  2  0  0  0  0
M  END
>  <CHROM.1>
-176.93161685,164.69933145,174.72012386,128.99358589,-127.75729172,-156.72727351
-83.08498238,121.82410254,-102.70495487,94.38135708,114.17814524,149.24486158
12.28011797,-53.68730870,-176.86684150,-102.42991614,-49.13031939,50.85006365
-3.54686810,-9.94773680,-3.01252888,2.85806480,0.67068664,-2.35207266

>  <Name>
1uud_lig

>  <RI>
0

>  <Rbt.Current_Directory>
/home/itssahil/PROJECTS/Mol_Feturizer/New_Systems/rnas/1uud

>  <Rbt.Executable>
rbdock ($Id: //depot/dev/client3/rdock/2013.1/src/exe/rbdock.cxx#4 $)

>  <Rbt.Library>
libRbt.so (2013.1, Build901 2013/11/27)

>  <Rbt.Parameter_File>
/export/apps/rDock/src/rDock_2013.1_src/data/scripts/dock_solv.prm

>  <Rbt.Receptor>
prm/pocket_docking_2.prm

>  <SCORE>
-32.0396

>  <SCORE.INTER>
-28.4703

>  <SCORE.INTER.CONST>
1

>  <SCORE.INTER.POLAR>
-4.24612

>  <SCORE.INTER.ROT>
18

>  <SCORE.INTER.SOLV>
12.0989

>  <SCORE.INTER.VDW>
-24.4594

>  <SCORE.INTER.norm>
-1.13881

>  <SCORE.INTRA>
-4.1024

>  <SCORE.INTRA.DIHEDRAL>
0.868359

>  <SCORE.INTRA.DIHEDRAL.0>
30.6762

>  <SCORE.INTRA.POLAR>
-0.521571

>  <SCORE.INTRA.POLAR.0>
-0.0288659

>  <SCORE.INTRA.REPUL>
0

>  <SCORE.INTRA.REPUL.0>
0

>  <SCORE.INTRA.SOLV>
-1.05585

>  <SCORE.INTRA.SOLV.lig_0>
-25.2195

>  <SCORE.INTRA.VDW>
-2.23531

>  <SCORE.INTRA.VDW.0>
4.14263

>  <SCORE.INTRA.norm>
-0.164096

>  <SCORE.RESTR>
0.533071

>  <SCORE.RESTR.CAVITY>
0.533071

>  <SCORE.RESTR.norm>
0.0213228

>  <SCORE.SYSTEM>
0

>  <SCORE.SYSTEM.CONST>
0

>  <SCORE.SYSTEM.DIHEDRAL>
0

>  <SCORE.SYSTEM.SOLV>
0

>  <SCORE.SYSTEM.norm>
0

>  <SCORE.heavy>
25

>  <SCORE.norm>
-1.28159

>  <RMSD>
1.390

$$$$
1uud_lig
 OpenBabel11021811413D
libRbt.so/2013.1/901 2013/11/27
 25 25  0  0  0  0  0  0  0  0999 V2000
   -4.0401   -8.1160   -2.1583 C   0  0  0  0  0  0  0  0  0  0  0  0
   -3.7129   -9.1158   -4.8962 O   0  0  0  0  0  0  0  0  0  0  0  0
   -3.6120  -10.3866   -4.2366 C   0  0  0  0  0  0  0  0  0  0  0  0
   -4.4297   -9.1422   -1.1596 N   0  0  0  0  0  0  0  0  0  0  0  0
   -2.4106  -11.1714   -4.7805 C   0  0  0  0  0  0  0  0  0  0  0  0
   -3.2958   -9.4061   -0.2425 C   0  0  0  0  0  0  0  0  0  0  0  0
   -2.3724  -10.4636   -0.8596 C   0  0  0  0  0  0  0  0  0  0  0  0
   -2.4176  -12.3909   -4.2971 N   0  0  0  0  0  0  0  0  0  0  0  0
   -3.3133  -13.2806   -4.6819 C   0  0  0  0  0  0  0  0  0  0  0  0
   -1.0471   -9.8179   -1.2782 C   0  0  0  0  0  0  0  0  0  0  0  0
   -0.1208   -9.7169   -0.0628 C   0  0  0  0  0  0  0  0  0  0  0  0
   -3.0344  -14.2008   -5.6546 N   0  0  0  0  0  0  0  0  0  0  0  0
   -4.5401  -13.2813   -4.0996 N   0  0  0  0  0  0  0  0  0  0  0  0
    0.4333  -10.8826    0.1729 N   0  0  0  0  0  0  0  0  0  0  0  0
    1.5463  -10.9878    0.8733 C   0  0  0  0  0  0  0  0  0  0  0  0
    1.5816  -11.8295    1.9381 N   0  0  0  0  0  0  0  0  0  0  0  0
    2.6601  -10.2623    0.5584 N   0  0  0  0  0  0  0  0  0  0  0  0
   -4.9457   -8.4748   -4.5440 C   0  0  0  0  0  0  0  0  0  0  0  0
   -8.6446   -6.6077   -3.5036 O   0  0  0  0  0  0  0  0  0  0  0  0
   -5.1478   -7.9796   -3.2235 C   0  0  0  0  0  0  0  0  0  0  0  0
   -6.3820   -7.3667   -2.8780 C   0  0  0  0  0  0  0  0  0  0  0  0
   -7.4048   -7.2286   -3.8529 C   0  0  0  0  0  0  0  0  0  0  0  0
   -7.1968   -7.7047   -5.1754 C   0  0  0  0  0  0  0  0  0  0  0  0
   -5.9650   -8.3217   -5.5245 C   0  0  0  0  0  0  0  0  0  0  0  0
   -8.4471   -5.1998   -3.3436 C   0  0  0  0  0  0  0  0  0  0  0  0
  1  4  1  0  0  0  0
  2  3  1  0  0  0  0
  3  5  1  0  0  0  0
  4  6  1  0  0  0  0
  5  8  1  0  0  0  0
  6  7  1  0  0  0  0
  7 10  1  0  0  0  0
  8  9  1  0  0  0  0
  9 12  1  0  0  0  0
  9 13  1  0  0  0  0
 10 11  1  0  0  0  0
 11 14  1  0  0  0  0
 14 15  1  0  0  0  0
 15 16  1  0  0  0  0
 15 17  1  0  0  0  0
 18  2  1  0  0  0  0
 18 20  2  0  0  0  0
 18 24  1  0  0  0  0
 19 25  1  0  0  0  0
 20  1  1  0  0  0  0
 20 21  1  0  0  0  0
 21 22  2  0  0  0  0
 22 19  1  0  0  0  0
 22 23  1  0  0  0  0
 23 24  2  0  0  0  0
M  END
>  <CHROM.1>
172.44454701,170.95691234,-172.29363042,-85.77476869,70.97606303,110.05236115
82.59485824,97.03893513,161.77564014,-122.04769459,78.83644168,159.05281994
126.98753754,-70.27435967,-120.91307150,69.66354358,-107.90898419,72.33659737
-3.37791905,-9.80741082,-2.63054021,3.13527055,0.62436986,-2.41341953

>  <Name>
1uud_lig

>  <RI>
0

>  <Rbt.Current_Directory>
/home/itssahil/PROJECTS/Mol_Feturizer/New_Systems/rnas/1uud

>  <Rbt.Executable>
rbdock ($Id: //depot/dev/client3/rdock/2013.1/src/exe/rbdock.cxx#4 $)

>  <Rbt.Library>
libRbt.so (2013.1, Build901 2013/11/27)

>  <Rbt.Parameter_File>
/export/apps/rDock/src/rDock_2013.1_src/data/scripts/dock_solv.prm

>  <Rbt.Receptor>
prm/pocket_docking_2.prm

>  <SCORE>
-23.2452

>  <SCORE.INTER>
-18.4164

>  <SCORE.INTER.CONST>
1

>  <SCORE.INTER.POLAR>
-2.78956

>  <SCORE.INTER.ROT>
18

>  <SCORE.INTER.SOLV>
13.744

>  <SCORE.INTER.VDW>
-23.1604

>  <SCORE.INTER.norm>
-0.736656

>  <SCORE.INTRA>
-5.10094

>  <SCORE.INTRA.DIHEDRAL>
-1.34498

>  <SCORE.INTRA.DIHEDRAL.0>
30.6762

>  <SCORE.INTRA.POLAR>
0.0288659

>  <SCORE.INTRA.POLAR.0>
-0.0288659

>  <SCORE.INTRA.REPUL>
0

>  <SCORE.INTRA.REPUL.0>
0

>  <SCORE.INTRA.SOLV>
-0.831396

>  <SCORE.INTRA.SOLV.lig_0>
-25.2195

>  <SCORE.INTRA.VDW>
-4.1109

>  <SCORE.INTRA.VDW.0>
4.14263

>  <SCORE.INTRA.norm>
-0.204038

>  <SCORE.RESTR>
0.272096

>  <SCORE.RESTR.CAVITY>
0.272096

>  <SCORE.RESTR.norm>
0.0108838

>  <SCORE.SYSTEM>
0

>  <SCORE.SYSTEM.CONST>
0

>  <SCORE.SYSTEM.DIHEDRAL>
0

>  <SCORE.SYSTEM.SOLV>
0

>  <SCORE.SYSTEM.norm>
0

>  <SCORE.heavy>
25

>  <SCORE.norm>
-0.92981

>  <RMSD>
1.399

$$$$
1uud_lig
 OpenBabel11021811413D
libRbt.so/2013.1/901 2013/11/27
 25 25  0  0  0  0  0  0  0  0999 V2000
   -4.0894   -9.4269   -2.0971 C   0  0  0  0  0  0  0  0  0  0  0  0
   -5.4091  -11.1944   -4.0303 O   0  0  0  0  0  0  0  0  0  0  0  0
   -4.0921  -11.3916   -4.5659 C   0  0  0  0  0  0  0  0  0  0  0  0
   -4.5974   -9.2262   -0.7174 N   0  0  0  0  0  0  0  0  0  0  0  0
   -3.7672  -12.8899   -4.6341 C   0  0  0  0  0  0  0  0  0  0  0  0
   -3.5076   -8.7197    0.1501 C   0  0  0  0  0  0  0  0  0  0  0  0
   -2.7865   -9.9012    0.8102 C   0  0  0  0  0  0  0  0  0  0  0  0
   -2.6363  -13.0732   -5.2730 N   0  0  0  0  0  0  0  0  0  0  0  0
   -2.6116  -13.4281   -6.5440 C   0  0  0  0  0  0  0  0  0  0  0  0
   -1.6447  -10.3842   -0.0908 C   0  0  0  0  0  0  0  0  0  0  0  0
   -0.4838   -9.3878   -0.0241 C   0  0  0  0  0  0  0  0  0  0  0  0
   -3.1812  -12.6505   -7.5144 N   0  0  0  0  0  0  0  0  0  0  0  0
   -2.0079  -14.5925   -6.8959 N   0  0  0  0  0  0  0  0  0  0  0  0
    0.2891   -9.6720    0.9972 N   0  0  0  0  0  0  0  0  0  0  0  0
    1.2319  -10.5910    0.9135 C   0  0  0  0  0  0  0  0  0  0  0  0
    0.9162  -11.8882    1.1610 N   0  0  0  0  0  0  0  0  0  0  0  0
    2.5198  -10.2665    0.5939 N   0  0  0  0  0  0  0  0  0  0  0  0
   -5.7408   -9.7999   -4.0399 C   0  0  0  0  0  0  0  0  0  0  0  0
   -6.7772   -5.6555   -4.0564 O   0  0  0  0  0  0  0  0  0  0  0  0
   -5.1268   -8.9077   -3.1143 C   0  0  0  0  0  0  0  0  0  0  0  0
   -5.4796   -7.5315   -3.1164 C   0  0  0  0  0  0  0  0  0  0  0  0
   -6.4269   -7.0418   -4.0537 C   0  0  0  0  0  0  0  0  0  0  0  0
   -7.0253   -7.9273   -4.9900 C   0  0  0  0  0  0  0  0  0  0  0  0
   -6.6779   -9.3055   -4.9891 C   0  0  0  0  0  0  0  0  0  0  0  0
   -7.7231   -5.3982   -3.0146 C   0  0  0  0  0  0  0  0  0  0  0  0
  1  4  1  0  0  0  0
  2  3  1  0  0  0  0
  3  5  1  0  0  0  0
  4  6  1  0  0  0  0
  5  8  1  0  0  0  0
  6  7  1  0  0  0  0
  7 10  1  0  0  0  0
  8  9  1  0  0  0  0
  9 12  1  0  0  0  0
  9 13  1  0  0  0  0
 10 11  1  0  0  0  0
 11 14  1  0  0  0  0
 14 15  1  0  0  0  0
 15 16  1  0  0  0  0
 15 17  1  0  0  0  0
 18  2  1  0  0  0  0
 18 20  2  0  0  0  0
 18 24  1  0  0  0  0
 19 25  1  0  0  0  0
 20  1  1  0  0  0  0
 20 21  1  0  0  0  0
 21 22  2  0  0  0  0
 22 19  1  0  0  0  0
 22 23  1  0  0  0  0
 23 24  2  0  0  0  0
M  END
>  <CHROM.1>
-137.30726767,-176.65226756,172.27138960,-91.40620698,-99.41832748,88.85250258
74.30988527,59.75202699,57.67089495,-15.89852125,85.86004269,83.44223225
-86.69248492,16.27996313,-43.44831823,-72.74151302,-117.14363136,-79.78746665
-3.39113610,-10.06443494,-2.74205420,2.80832187,0.63668429,-2.27633473

>  <Name>
1uud_lig

>  <RI>
0

>  <Rbt.Current_Directory>
/home/itssahil/PROJECTS/Mol_Feturizer/New_Systems/rnas/1uud

>  <Rbt.Executable>
rbdock ($Id: //depot/dev/client3/rdock/2013.1/src/exe/rbdock.cxx#4 $)

>  <Rbt.Library>
libRbt.so (2013.1, Build901 2013/11/27)

>  <Rbt.Parameter_File>
/export/apps/rDock/src/rDock_2013.1_src/data/scripts/dock_solv.prm

>  <Rbt.Receptor>
prm/pocket_docking_2.prm

>  <SCORE>
-22.3292

>  <SCORE.INTER>
-17.4402

>  <SCORE.INTER.CONST>
1

>  <SCORE.INTER.POLAR>
-2.40317

>  <SCORE.INTER.ROT>
18

>  <SCORE.INTER.SOLV>
8.9117

>  <SCORE.INTER.VDW>
-22.1868

>  <SCORE.INTER.norm>
-0.69761

>  <SCORE.INTRA>
-5.04983

>  <SCORE.INTRA.DIHEDRAL>
-0.610469

>  <SCORE.INTRA.DIHEDRAL.0>
30.6762

>  <SCORE.INTRA.POLAR>
0.0288659

>  <SCORE.INTRA.POLAR.0>
-0.0288659

>  <SCORE.INTRA.REPUL>
0

>  <SCORE.INTRA.REPUL.0>
0

>  <SCORE.INTRA.SOLV>
-0.948346

>  <SCORE.INTRA.SOLV.lig_0>
-25.2195

>  <SCORE.INTRA.VDW>
-4.36856

>  <SCORE.INTRA.VDW.0>
4.14263

>  <SCORE.INTRA.norm>
-0.201993

>  <SCORE.RESTR>
0.16088

>  <SCORE.RESTR.CAVITY>
0.16088

>  <SCORE.RESTR.norm>
0.00643518

>  <SCORE.SYSTEM>
0

>  <SCORE.SYSTEM.CONST>
0

>  <SCORE.SYSTEM.DIHEDRAL>
0

>  <SCORE.SYSTEM.SOLV>
0

>  <SCORE.SYSTEM.norm>
0

>  <SCORE.heavy>
25

>  <SCORE.norm>
-0.893168

>  <RMSD>
1.467

$$$$
1uud_lig
 OpenBabel11021811413D
libRbt.so/2013.1/901 2013/11/27
 25 25  0  0  0  0  0  0  0  0999 V2000
   -3.6429   -8.4996   -3.0664 C   0  0  0  0  0  0  0  0  0  0  0  0
   -5.0703  -10.4556   -4.7214 O   0  0  0  0  0  0  0  0  0  0  0  0
   -4.2532  -10.1195   -5.8526 C   0  0  0  0  0  0  0  0  0  0  0  0
   -3.5170   -8.5683   -1.5894 N   0  0  0  0  0  0  0  0  0  0  0  0
   -3.7020  -11.3945   -6.5051 C   0  0  0  0  0  0  0  0  0  0  0  0
   -3.4873   -9.9845   -1.1533 C   0  0  0  0  0  0  0  0  0  0  0  0
   -3.2015  -10.0518    0.3518 C   0  0  0  0  0  0  0  0  0  0  0  0
   -2.8682  -11.9907   -5.6864 N   0  0  0  0  0  0  0  0  0  0  0  0
   -2.4093  -13.2037   -5.9316 C   0  0  0  0  0  0  0  0  0  0  0  0
   -1.7796   -9.5553    0.6350 C   0  0  0  0  0  0  0  0  0  0  0  0
   -0.7730  -10.6500    0.2695 C   0  0  0  0  0  0  0  0  0  0  0  0
   -2.7363  -14.2661   -5.1347 N   0  0  0  0  0  0  0  0  0  0  0  0
   -1.5928  -13.4009   -6.9986 N   0  0  0  0  0  0  0  0  0  0  0  0
    0.1687  -10.7116    1.1809 N   0  0  0  0  0  0  0  0  0  0  0  0
    1.4415  -10.5616    0.8682 C   0  0  0  0  0  0  0  0  0  0  0  0
    1.8136   -9.5107    0.0930 N   0  0  0  0  0  0  0  0  0  0  0  0
    2.3917  -11.4442    1.2974 N   0  0  0  0  0  0  0  0  0  0  0  0
   -5.7801   -9.2970   -4.2651 C   0  0  0  0  0  0  0  0  0  0  0  0
   -7.9271   -5.8735   -2.8791 O   0  0  0  0  0  0  0  0  0  0  0  0
   -5.1258   -8.3249   -3.4547 C   0  0  0  0  0  0  0  0  0  0  0  0
   -5.8446   -7.1918   -2.9882 C   0  0  0  0  0  0  0  0  0  0  0  0
   -7.2071   -7.0170   -3.3466 C   0  0  0  0  0  0  0  0  0  0  0  0
   -7.8551   -7.9760   -4.1709 C   0  0  0  0  0  0  0  0  0  0  0  0
   -7.1409   -9.1130   -4.6369 C   0  0  0  0  0  0  0  0  0  0  0  0
   -7.9136   -4.8552   -3.8837 C   0  0  0  0  0  0  0  0  0  0  0  0
  1  4  1  0  0  0  0
  2  3  1  0  0  0  0
  3  5  1  0  0  0  0
  4  6  1  0  0  0  0
  5  8  1  0  0  0  0
  6  7  1  0  0  0  0
  7 10  1  0  0  0  0
  8  9  1  0  0  0  0
  9 12  1  0  0  0  0
  9 13  1  0  0  0  0
 10 11  1  0  0  0  0
 11 14  1  0  0  0  0
 14 15  1  0  0  0  0
 15 16  1  0  0  0  0
 15 17  1  0  0  0  0
 18  2  1  0  0  0  0
 18 20  2  0  0  0  0
 18 24  1  0  0  0  0
 19 25  1  0  0  0  0
 20  1  1  0  0  0  0
 20 21  1  0  0  0  0
 21 22  2  0  0  0  0
 22 19  1  0  0  0  0
 22 23  1  0  0  0  0
 23 24  2  0  0  0  0
M  END
>  <CHROM.1>
95.65736520,-169.34291573,-66.35732127,173.76854107,170.00294393,-66.71622878
-77.35201043,-113.64527638,-81.26787023,93.66788537,-138.67138192,-122.59673970
48.72255462,31.96324261,55.77880673,-79.58651729,-119.73850086,96.23138940
-3.41708301,-9.81200008,-2.83462339,2.96911578,0.61146205,-2.22198980

>  <Name>
1uud_lig

>  <RI>
0

>  <Rbt.Current_Directory>
/home/itssahil/PROJECTS/Mol_Feturizer/New_Systems/rnas/1uud

>  <Rbt.Executable>
rbdock ($Id: //depot/dev/client3/rdock/2013.1/src/exe/rbdock.cxx#4 $)

>  <Rbt.Library>
libRbt.so (2013.1, Build901 2013/11/27)

>  <Rbt.Parameter_File>
/export/apps/rDock/src/rDock_2013.1_src/data/scripts/dock_solv.prm

>  <Rbt.Receptor>
prm/pocket_docking_2.prm

>  <SCORE>
-23.8623

>  <SCORE.INTER>
-18.2463

>  <SCORE.INTER.CONST>
1

>  <SCORE.INTER.POLAR>
-2.91914

>  <SCORE.INTER.ROT>
18

>  <SCORE.INTER.SOLV>
8.0281

>  <SCORE.INTER.VDW>
-20.7098

>  <SCORE.INTER.norm>
-0.729852

>  <SCORE.INTRA>
-5.89745

>  <SCORE.INTRA.DIHEDRAL>
-2.20362

>  <SCORE.INTRA.DIHEDRAL.0>
30.6762

>  <SCORE.INTRA.POLAR>
0.0288659

>  <SCORE.INTRA.POLAR.0>
-0.0288659

>  <SCORE.INTRA.REPUL>
0

>  <SCORE.INTRA.REPUL.0>
0

>  <SCORE.INTRA.SOLV>
-1.12217

>  <SCORE.INTRA.SOLV.lig_0>
-25.2195

>  <SCORE.INTRA.VDW>
-4.3327

>  <SCORE.INTRA.VDW.0>
4.14263

>  <SCORE.INTRA.norm>
-0.235898

>  <SCORE.RESTR>
0.281468

>  <SCORE.RESTR.CAVITY>
0.281468

>  <SCORE.RESTR.norm>
0.0112587

>  <SCORE.SYSTEM>
0

>  <SCORE.SYSTEM.CONST>
0

>  <SCORE.SYSTEM.DIHEDRAL>
0

>  <SCORE.SYSTEM.SOLV>
0

>  <SCORE.SYSTEM.norm>
0

>  <SCORE.heavy>
25

>  <SCORE.norm>
-0.954491

>  <RMSD>
1.508

$$$$
1uud_lig
 OpenBabel11021811413D
libRbt.so/2013.1/901 2013/11/27
 25 25  0  0  0  0  0  0  0  0999 V2000
   -2.9905   -9.0504   -3.0648 C   0  0  0  0  0  0  0  0  0  0  0  0
   -4.0359  -11.6716   -3.8642 O   0  0  0  0  0  0  0  0  0  0  0  0
   -4.0807  -12.6185   -4.9420 C   0  0  0  0  0  0  0  0  0  0  0  0
   -2.8137   -7.6347   -2.6566 N   0  0  0  0  0  0  0  0  0  0  0  0
   -3.3208  -12.0724   -6.1584 C   0  0  0  0  0  0  0  0  0  0  0  0
   -1.4831   -7.4557   -2.0288 C   0  0  0  0  0  0  0  0  0  0  0  0
   -1.3961   -8.3106   -0.7587 C   0  0  0  0  0  0  0  0  0  0  0  0
   -3.5516  -12.8280   -7.2055 N   0  0  0  0  0  0  0  0  0  0  0  0
   -2.7618  -13.8394   -7.5142 C   0  0  0  0  0  0  0  0  0  0  0  0
    0.0228   -8.8680   -0.6017 C   0  0  0  0  0  0  0  0  0  0  0  0
    0.2362   -9.3244    0.8444 C   0  0  0  0  0  0  0  0  0  0  0  0
   -1.7147  -13.6898   -8.3813 N   0  0  0  0  0  0  0  0  0  0  0  0
   -2.9953  -15.0566   -6.9592 N   0  0  0  0  0  0  0  0  0  0  0  0
    1.4632   -9.7632    0.9965 N   0  0  0  0  0  0  0  0  0  0  0  0
    1.7145  -11.0329    1.2519 C   0  0  0  0  0  0  0  0  0  0  0  0
    2.9289  -11.5460    0.9268 N   0  0  0  0  0  0  0  0  0  0  0  0
    0.7784  -11.8453    1.8261 N   0  0  0  0  0  0  0  0  0  0  0  0
   -4.7891  -10.5009   -4.2057 C   0  0  0  0  0  0  0  0  0  0  0  0
   -7.0722   -7.0282   -5.1948 O   0  0  0  0  0  0  0  0  0  0  0  0
   -4.3198   -9.2087   -3.8318 C   0  0  0  0  0  0  0  0  0  0  0  0
   -5.0853   -8.0563   -4.1546 C   0  0  0  0  0  0  0  0  0  0  0  0
   -6.3057   -8.1901   -4.8675 C   0  0  0  0  0  0  0  0  0  0  0  0
   -6.7648   -9.4768   -5.2579 C   0  0  0  0  0  0  0  0  0  0  0  0
   -6.0040  -10.6328   -4.9339 C   0  0  0  0  0  0  0  0  0  0  0  0
   -7.6010   -6.4502   -3.9978 C   0  0  0  0  0  0  0  0  0  0  0  0
  1  4  1  0  0  0  0
  2  3  1  0  0  0  0
  3  5  1  0  0  0  0
  4  6  1  0  0  0  0
  5  8  1  0  0  0  0
  6  7  1  0  0  0  0
  7 10  1  0  0  0  0
  8  9  1  0  0  0  0
  9 12  1  0  0  0  0
  9 13  1  0  0  0  0
 10 11  1  0  0  0  0
 11 14  1  0  0  0  0
 14 15  1  0  0  0  0
 15 16  1  0  0  0  0
 15 17  1  0  0  0  0
 18  2  1  0  0  0  0
 18 20  2  0  0  0  0
 18 24  1  0  0  0  0
 19 25  1  0  0  0  0
 20  1  1  0  0  0  0
 20 21  1  0  0  0  0
 21 22  2  0  0  0  0
 22 19  1  0  0  0  0
 22 23  1  0  0  0  0
 23 24  2  0  0  0  0
M  END
>  <CHROM.1>
-174.88633723,67.46991501,-169.38819689,-62.41777111,-92.21022818,143.99537016
161.91573818,-92.77102847,-18.38259176,165.69708697,-177.99095395,-113.42447107
156.04466086,-173.91977240,87.34760520,-141.25090475,-173.22768082,-67.86328658
-2.80033641,-10.29015032,-3.36915308,0.57200527,-0.64100419,0.74536583

>  <Name>
1uud_lig

>  <RI>
0

>  <Rbt.Current_Directory>
/home/itssahil/PROJECTS/Mol_Feturizer/New_Systems/rnas/1uud

>  <Rbt.Executable>
rbdock ($Id: //depot/dev/client3/rdock/2013.1/src/exe/rbdock.cxx#4 $)

>  <Rbt.Library>
libRbt.so (2013.1, Build901 2013/11/27)

>  <Rbt.Parameter_File>
/export/apps/rDock/src/rDock_2013.1_src/data/scripts/dock_solv.prm

>  <Rbt.Receptor>
prm/pocket_docking_2.prm

>  <SCORE>
-28.5202

>  <SCORE.INTER>
-23.8775

>  <SCORE.INTER.CONST>
1

>  <SCORE.INTER.POLAR>
-3.84846

>  <SCORE.INTER.ROT>
18

>  <SCORE.INTER.SOLV>
11.8227

>  <SCORE.INTER.VDW>
-22.631

>  <SCORE.INTER.norm>
-0.955099

>  <SCORE.INTRA>
-5.40254

>  <SCORE.INTRA.DIHEDRAL>
-8.76599

>  <SCORE.INTRA.DIHEDRAL.0>
30.6762

>  <SCORE.INTRA.POLAR>
0.0288659

>  <SCORE.INTRA.POLAR.0>
-0.0288659

>  <SCORE.INTRA.REPUL>
0

>  <SCORE.INTRA.REPUL.0>
0

>  <SCORE.INTRA.SOLV>
-1.21705

>  <SCORE.INTRA.SOLV.lig_0>
-25.2195

>  <SCORE.INTRA.VDW>
-0.509158

>  <SCORE.INTRA.VDW.0>
4.14263

>  <SCORE.INTRA.norm>
-0.216102

>  <SCORE.RESTR>
0.759806

>  <SCORE.RESTR.CAVITY>
0.759806

>  <SCORE.RESTR.norm>
0.0303922

>  <SCORE.SYSTEM>
0

>  <SCORE.SYSTEM.CONST>
0

>  <SCORE.SYSTEM.DIHEDRAL>
0

>  <SCORE.SYSTEM.SOLV>
0

>  <SCORE.SYSTEM.norm>
0

>  <SCORE.heavy>
25

>  <SCORE.norm>
-1.14081

>  <RMSD>
1.582

$$$$
1uud_lig
 OpenBabel11021811413D
libRbt.so/2013.1/901 2013/11/27
 25 25  0  0  0  0  0  0  0  0999 V2000
   -3.6749   -8.3358   -2.0827 C   0  0  0  0  0  0  0  0  0  0  0  0
   -4.7731  -10.8882   -3.0215 O   0  0  0  0  0  0  0  0  0  0  0  0
   -3.9328  -11.2167   -4.1379 C   0  0  0  0  0  0  0  0  0  0  0  0
   -3.7106   -9.2420   -0.9081 N   0  0  0  0  0  0  0  0  0  0  0  0
   -3.9579  -12.7299   -4.3922 C   0  0  0  0  0  0  0  0  0  0  0  0
   -2.3683   -9.3069   -0.2831 C   0  0  0  0  0  0  0  0  0  0  0  0
   -2.4463  -10.1173    1.0164 C   0  0  0  0  0  0  0  0  0  0  0  0
   -3.2599  -13.0142   -5.4659 N   0  0  0  0  0  0  0  0  0  0  0  0
   -2.2046  -13.8052   -5.4135 C   0  0  0  0  0  0  0  0  0  0  0  0
   -1.0565  -10.2131    1.6552 C   0  0  0  0  0  0  0  0  0  0  0  0
   -0.2670  -11.3472    0.9951 C   0  0  0  0  0  0  0  0  0  0  0  0
   -2.3151  -15.1215   -5.0589 N   0  0  0  0  0  0  0  0  0  0  0  0
   -0.9813  -13.3000   -5.7174 N   0  0  0  0  0  0  0  0  0  0  0  0
    0.5564  -10.8546    0.1003 N   0  0  0  0  0  0  0  0  0  0  0  0
    1.7608  -10.4303    0.4316 C   0  0  0  0  0  0  0  0  0  0  0  0
    2.0306   -9.1004    0.3848 N   0  0  0  0  0  0  0  0  0  0  0  0
    2.7452  -11.2984    0.8104 N   0  0  0  0  0  0  0  0  0  0  0  0
   -5.5054   -9.6864   -3.2933 C   0  0  0  0  0  0  0  0  0  0  0  0
   -7.7263   -6.1217   -4.0753 O   0  0  0  0  0  0  0  0  0  0  0  0
   -5.0101   -8.4260   -2.8504 C   0  0  0  0  0  0  0  0  0  0  0  0
   -5.7549   -7.2433   -3.1045 C   0  0  0  0  0  0  0  0  0  0  0  0
   -6.9806   -7.3142   -3.8173 C   0  0  0  0  0  0  0  0  0  0  0  0
   -7.4657   -8.5683   -4.2764 C   0  0  0  0  0  0  0  0  0  0  0  0
   -6.7256   -9.7546   -4.0214 C   0  0  0  0  0  0  0  0  0  0  0  0
   -8.7234   -5.9519   -3.0636 C   0  0  0  0  0  0  0  0  0  0  0  0
  1  4  1  0  0  0  0
  2  3  1  0  0  0  0
  3  5  1  0  0  0  0
  4  6  1  0  0  0  0
  5  8  1  0  0  0  0
  6  7  1  0  0  0  0
  7 10  1  0  0  0  0
  8  9  1  0  0  0  0
  9 12  1  0  0  0  0
  9 13  1  0  0  0  0
 10 11  1  0  0  0  0
 11 14  1  0  0  0  0
 14 15  1  0  0  0  0
 15 16  1  0  0  0  0
 15 17  1  0  0  0  0
 18  2  1  0  0  0  0
 18 20  2  0  0  0  0
 18 24  1  0  0  0  0
 19 25  1  0  0  0  0
 20  1  1  0  0  0  0
 20 21  1  0  0  0  0
 21 22  2  0  0  0  0
 22 19  1  0  0  0  0
 22 23  1  0  0  0  0
 23 24  2  0  0  0  0
M  END
>  <CHROM.1>
171.86165751,-139.32224048,175.85014913,173.73833802,119.38515286,178.87801089
-82.62590709,63.89360276,-151.05432337,120.92733833,99.61156283,86.20280223
-110.53488115,-62.54409267,-29.25943166,-94.75234981,-54.27724726,-95.16999647
-3.17321287,-10.18879445,-2.36676310,3.10276645,0.56077426,-2.37934764

>  <Name>
1uud_lig

>  <RI>
0

>  <Rbt.Current_Directory>
/home/itssahil/PROJECTS/Mol_Feturizer/New_Systems/rnas/1uud

>  <Rbt.Executable>
rbdock ($Id: //depot/dev/client3/rdock/2013.1/src/exe/rbdock.cxx#4 $)

>  <Rbt.Library>
libRbt.so (2013.1, Build901 2013/11/27)

>  <Rbt.Parameter_File>
/export/apps/rDock/src/rDock_2013.1_src/data/scripts/dock_solv.prm

>  <Rbt.Receptor>
prm/pocket_docking_2.prm

>  <SCORE>
-29.385

>  <SCORE.INTER>
-22.4005

>  <SCORE.INTER.CONST>
1

>  <SCORE.INTER.POLAR>
-3.0938

>  <SCORE.INTER.ROT>
18

>  <SCORE.INTER.SOLV>
10.6553

>  <SCORE.INTER.VDW>
-23.7727

>  <SCORE.INTER.norm>
-0.89602

>  <SCORE.INTRA>
-8.44298

>  <SCORE.INTRA.DIHEDRAL>
1.02484

>  <SCORE.INTRA.DIHEDRAL.0>
30.6762

>  <SCORE.INTRA.POLAR>
-0.602894

>  <SCORE.INTRA.POLAR.0>
-0.0288659

>  <SCORE.INTRA.REPUL>
0

>  <SCORE.INTRA.REPUL.0>
0

>  <SCORE.INTRA.SOLV>
-0.793802

>  <SCORE.INTRA.SOLV.lig_0>
-25.2195

>  <SCORE.INTRA.VDW>
-6.50866

>  <SCORE.INTRA.VDW.0>
4.14263

>  <SCORE.INTRA.norm>
-0.337719

>  <SCORE.RESTR>
1.45852

>  <SCORE.RESTR.CAVITY>
1.45852

>  <SCORE.RESTR.norm>
0.0583408

>  <SCORE.SYSTEM>
0

>  <SCORE.SYSTEM.CONST>
0

>  <SCORE.SYSTEM.DIHEDRAL>
0

>  <SCORE.SYSTEM.SOLV>
0

>  <SCORE.SYSTEM.norm>
0

>  <SCORE.heavy>
25

>  <SCORE.norm>
-1.1754

>  <RMSD>
1.591

$$$$
1uud_lig
 OpenBabel11021811413D
libRbt.so/2013.1/901 2013/11/27
 25 25  0  0  0  0  0  0  0  0999 V2000
   -3.8553   -7.5083   -3.3693 C   0  0  0  0  0  0  0  0  0  0  0  0
   -4.3935  -10.0222   -4.7811 O   0  0  0  0  0  0  0  0  0  0  0  0
   -4.8874  -11.3469   -4.5334 C   0  0  0  0  0  0  0  0  0  0  0  0
   -3.2038   -8.7561   -2.8996 N   0  0  0  0  0  0  0  0  0  0  0  0
   -3.7249  -12.3484   -4.5037 C   0  0  0  0  0  0  0  0  0  0  0  0
   -1.7915   -8.4818   -2.5435 C   0  0  0  0  0  0  0  0  0  0  0  0
   -1.1202   -9.7778   -2.0730 C   0  0  0  0  0  0  0  0  0  0  0  0
   -2.9874  -12.2089   -5.5795 N   0  0  0  0  0  0  0  0  0  0  0  0
   -3.1261  -13.0093   -6.6197 C   0  0  0  0  0  0  0  0  0  0  0  0
    0.0114   -9.4523   -1.0922 C   0  0  0  0  0  0  0  0  0  0  0  0
   -0.5841   -8.9959    0.2429 C   0  0  0  0  0  0  0  0  0  0  0  0
   -3.5398  -12.5371   -7.8348 N   0  0  0  0  0  0  0  0  0  0  0  0
   -2.8530  -14.3322   -6.4797 N   0  0  0  0  0  0  0  0  0  0  0  0
   -1.3900   -9.9197    0.7101 N   0  0  0  0  0  0  0  0  0  0  0  0
   -0.9938  -11.1693    0.8585 C   0  0  0  0  0  0  0  0  0  0  0  0
   -1.5146  -12.1293    0.0517 N   0  0  0  0  0  0  0  0  0  0  0  0
   -0.0802  -11.5210    1.8111 N   0  0  0  0  0  0  0  0  0  0  0  0
   -5.4557   -9.0685   -4.6518 C   0  0  0  0  0  0  0  0  0  0  0  0
   -8.6479   -6.2596   -4.2395 O   0  0  0  0  0  0  0  0  0  0  0  0
   -5.2382   -7.8371   -3.9690 C   0  0  0  0  0  0  0  0  0  0  0  0
   -6.3039   -6.9086   -3.8260 C   0  0  0  0  0  0  0  0  0  0  0  0
   -7.5781   -7.1977   -4.3812 C   0  0  0  0  0  0  0  0  0  0  0  0
   -7.7906   -8.4168   -5.0794 C   0  0  0  0  0  0  0  0  0  0  0  0
   -6.7283   -9.3502   -5.2217 C   0  0  0  0  0  0  0  0  0  0  0  0
   -8.8019   -5.9133   -2.8600 C   0  0  0  0  0  0  0  0  0  0  0  0
  1  4  1  0  0  0  0
  2  3  1  0  0  0  0
  3  5  1  0  0  0  0
  4  6  1  0  0  0  0
  5  8  1  0  0  0  0
  6  7  1  0  0  0  0
  7 10  1  0  0  0  0
  8  9  1  0  0  0  0
  9 12  1  0  0  0  0
  9 13  1  0  0  0  0
 10 11  1  0  0  0  0
 11 14  1  0  0  0  0
 14 15  1  0  0  0  0
 15 16  1  0  0  0  0
 15 17  1  0  0  0  0
 18  2  1  0  0  0  0
 18 20  2  0  0  0  0
 18 24  1  0  0  0  0
 19 25  1  0  0  0  0
 20  1  1  0  0  0  0
 20 21  1  0  0  0  0
 21 22  2  0  0  0  0
 22 19  1  0  0  0  0
 22 23  1  0  0  0  0
 23 24  2  0  0  0  0
M  END
>  <CHROM.1>
170.17078551,-173.19202630,-51.39386777,-179.41385374,-98.81619064,-152.06644748
72.38158964,116.30539087,-37.66167824,-114.51891883,56.55088958,53.37710385
-111.01967781,-21.60078198,-16.24003388,137.12111150,-33.15314658,-52.49979330
-3.79971539,-9.84929610,-3.28916073,2.94068691,0.67981107,-2.26230496

>  <Name>
1uud_lig

>  <RI>
0

>  <Rbt.Current_Directory>
/home/itssahil/PROJECTS/Mol_Feturizer/New_Systems/rnas/1uud

>  <Rbt.Executable>
rbdock ($Id: //depot/dev/client3/rdock/2013.1/src/exe/rbdock.cxx#4 $)

>  <Rbt.Library>
libRbt.so (2013.1, Build901 2013/11/27)

>  <Rbt.Parameter_File>
/export/apps/rDock/src/rDock_2013.1_src/data/scripts/dock_solv.prm

>  <Rbt.Receptor>
prm/pocket_docking_2.prm

>  <SCORE>
-18.1938

>  <SCORE.INTER>
-10.6184

>  <SCORE.INTER.CONST>
1

>  <SCORE.INTER.POLAR>
-2.19179

>  <SCORE.INTER.ROT>
18

>  <SCORE.INTER.SOLV>
9.58501

>  <SCORE.INTER.VDW>
-18.568

>  <SCORE.INTER.norm>
-0.424737

>  <SCORE.INTRA>
-8.65218

>  <SCORE.INTRA.DIHEDRAL>
-11.2678

>  <SCORE.INTRA.DIHEDRAL.0>
30.6762

>  <SCORE.INTRA.POLAR>
-0.70154

>  <SCORE.INTRA.POLAR.0>
-0.0288659

>  <SCORE.INTRA.REPUL>
0

>  <SCORE.INTRA.REPUL.0>
0

>  <SCORE.INTRA.SOLV>
0.410826

>  <SCORE.INTRA.SOLV.lig_0>
-25.2195

>  <SCORE.INTRA.VDW>
-0.838453

>  <SCORE.INTRA.VDW.0>
4.14263

>  <SCORE.INTRA.norm>
-0.346087

>  <SCORE.RESTR>
1.07677

>  <SCORE.RESTR.CAVITY>
1.07677

>  <SCORE.RESTR.norm>
0.0430708

>  <SCORE.SYSTEM>
0

>  <SCORE.SYSTEM.CONST>
0

>  <SCORE.SYSTEM.DIHEDRAL>
0

>  <SCORE.SYSTEM.SOLV>
0

>  <SCORE.SYSTEM.norm>
0

>  <SCORE.heavy>
25

>  <SCORE.norm>
-0.727754

>  <RMSD>
1.593

$$$$
1uud_lig
 OpenBabel11021811413D
libRbt.so/2013.1/901 2013/11/27
 25 25  0  0  0  0  0  0  0  0999 V2000
   -4.5559  -10.2121   -2.4313 C   0  0  0  0  0  0  0  0  0  0  0  0
   -2.8321   -9.9741   -4.7923 O   0  0  0  0  0  0  0  0  0  0  0  0
   -2.6976  -10.7373   -6.0005 C   0  0  0  0  0  0  0  0  0  0  0  0
   -3.2932   -9.6876   -1.8547 N   0  0  0  0  0  0  0  0  0  0  0  0
   -2.4661  -12.2176   -5.6686 C   0  0  0  0  0  0  0  0  0  0  0  0
   -3.0018  -10.3758   -0.5748 C   0  0  0  0  0  0  0  0  0  0  0  0
   -2.8258   -9.3357    0.5383 C   0  0  0  0  0  0  0  0  0  0  0  0
   -2.5039  -12.9331   -6.7674 N   0  0  0  0  0  0  0  0  0  0  0  0
   -3.6462  -13.2324   -7.3569 C   0  0  0  0  0  0  0  0  0  0  0  0
   -1.4017   -8.7704    0.5029 C   0  0  0  0  0  0  0  0  0  0  0  0
   -0.4466   -9.7461    1.1964 C   0  0  0  0  0  0  0  0  0  0  0  0
   -4.4256  -12.2691   -7.9360 N   0  0  0  0  0  0  0  0  0  0  0  0
   -4.0576  -14.5262   -7.3880 N   0  0  0  0  0  0  0  0  0  0  0  0
    0.5092  -10.0975    0.3692 N   0  0  0  0  0  0  0  0  0  0  0  0
    1.6013  -10.7029    0.7949 C   0  0  0  0  0  0  0  0  0  0  0  0
    1.4902  -11.7143    1.6940 N   0  0  0  0  0  0  0  0  0  0  0  0
    2.8412  -10.3292    0.3601 N   0  0  0  0  0  0  0  0  0  0  0  0
   -4.0852   -9.2783   -4.7865 C   0  0  0  0  0  0  0  0  0  0  0  0
   -7.8353   -7.2321   -4.8085 O   0  0  0  0  0  0  0  0  0  0  0  0
   -4.9549   -9.3712   -3.6618 C   0  0  0  0  0  0  0  0  0  0  0  0
   -6.2050   -8.6966   -3.6754 C   0  0  0  0  0  0  0  0  0  0  0  0
   -6.5782   -7.9134   -4.7991 C   0  0  0  0  0  0  0  0  0  0  0  0
   -5.7030   -7.8043   -5.9132 C   0  0  0  0  0  0  0  0  0  0  0  0
   -4.4529   -8.4804   -5.9054 C   0  0  0  0  0  0  0  0  0  0  0  0
   -7.8279   -6.1992   -3.8188 C   0  0  0  0  0  0  0  0  0  0  0  0
  1  4  1  0  0  0  0
  2  3  1  0  0  0  0
  3  5  1  0  0  0  0
  4  6  1  0  0  0  0
  5  8  1  0  0  0  0
  6  7  1  0  0  0  0
  7 10  1  0  0  0  0
  8  9  1  0  0  0  0
  9 12  1  0  0  0  0
  9 13  1  0  0  0  0
 10 11  1  0  0  0  0
 11 14  1  0  0  0  0
 14 15  1  0  0  0  0
 15 16  1  0  0  0  0
 15 17  1  0  0  0  0
 18  2  1  0  0  0  0
 18 20  2  0  0  0  0
 18 24  1  0  0  0  0
 19 25  1  0  0  0  0
 20  1  1  0  0  0  0
 20 21  1  0  0  0  0
 21 22  2  0  0  0  0
 22 19  1  0  0  0  0
 22 23  1  0  0  0  0
 23 24  2  0  0  0  0
M  END
>  <CHROM.1>
172.60928379,-123.05059860,172.47234369,-124.80550759,-76.54359452,-82.07179635
-80.55329531,66.80137155,163.28114164,22.74779460,122.72186153,165.78249154
44.32784965,137.81076734,5.43684462,129.30906816,59.90036178,67.08592382
-3.10650059,-10.12464087,-3.28788223,2.51002742,0.62235586,-2.19111252

>  <Name>
1uud_lig

>  <RI>
0

>  <Rbt.Current_Directory>
/home/itssahil/PROJECTS/Mol_Feturizer/New_Systems/rnas/1uud

>  <Rbt.Executable>
rbdock ($Id: //depot/dev/client3/rdock/2013.1/src/exe/rbdock.cxx#4 $)

>  <Rbt.Library>
libRbt.so (2013.1, Build901 2013/11/27)

>  <Rbt.Parameter_File>
/export/apps/rDock/src/rDock_2013.1_src/data/scripts/dock_solv.prm

>  <Rbt.Receptor>
prm/pocket_docking_2.prm

>  <SCORE>
-24.9485

>  <SCORE.INTER>
-26.3181

>  <SCORE.INTER.CONST>
1

>  <SCORE.INTER.POLAR>
-4.38465

>  <SCORE.INTER.ROT>
18

>  <SCORE.INTER.SOLV>
13.43

>  <SCORE.INTER.VDW>
-23.0066

>  <SCORE.INTER.norm>
-1.05272

>  <SCORE.INTRA>
0.0954585

>  <SCORE.INTRA.DIHEDRAL>
6.37259

>  <SCORE.INTRA.DIHEDRAL.0>
30.6762

>  <SCORE.INTRA.POLAR>
-0.227043

>  <SCORE.INTRA.POLAR.0>
-0.0288659

>  <SCORE.INTRA.REPUL>
0

>  <SCORE.INTRA.REPUL.0>
0

>  <SCORE.INTRA.SOLV>
-0.780041

>  <SCORE.INTRA.SOLV.lig_0>
-25.2195

>  <SCORE.INTRA.VDW>
-1.92887

>  <SCORE.INTRA.VDW.0>
4.14263

>  <SCORE.INTRA.norm>
0.00381834

>  <SCORE.RESTR>
1.27415

>  <SCORE.RESTR.CAVITY>
1.27415

>  <SCORE.RESTR.norm>
0.0509658

>  <SCORE.SYSTEM>
0

>  <SCORE.SYSTEM.CONST>
0

>  <SCORE.SYSTEM.DIHEDRAL>
0

>  <SCORE.SYSTEM.SOLV>
0

>  <SCORE.SYSTEM.norm>
0

>  <SCORE.heavy>
25

>  <SCORE.norm>
-0.99794

>  <RMSD>
1.597

$$$$
1uud_lig
 OpenBabel11021811413D
libRbt.so/2013.1/901 2013/11/27
 25 25  0  0  0  0  0  0  0  0999 V2000
   -4.6225  -10.4348   -2.9293 C   0  0  0  0  0  0  0  0  0  0  0  0
   -3.7767   -9.1663   -5.4349 O   0  0  0  0  0  0  0  0  0  0  0  0
   -3.8201  -10.1985   -6.4314 C   0  0  0  0  0  0  0  0  0  0  0  0
   -4.3816   -9.8624   -1.5815 N   0  0  0  0  0  0  0  0  0  0  0  0
   -3.9699  -11.5724   -5.7644 C   0  0  0  0  0  0  0  0  0  0  0  0
   -3.2197   -8.9433   -1.6268 C   0  0  0  0  0  0  0  0  0  0  0  0
   -2.2407   -9.2984   -0.5011 C   0  0  0  0  0  0  0  0  0  0  0  0
   -2.9488  -11.7983   -4.9725 N   0  0  0  0  0  0  0  0  0  0  0  0
   -2.5408  -13.0248   -4.7054 C   0  0  0  0  0  0  0  0  0  0  0  0
   -1.5435  -10.6262   -0.8164 C   0  0  0  0  0  0  0  0  0  0  0  0
   -0.6935  -11.0552    0.3831 C   0  0  0  0  0  0  0  0  0  0  0  0
   -1.3041  -13.4659   -5.0883 N   0  0  0  0  0  0  0  0  0  0  0  0
   -3.3686  -13.8682   -4.0364 N   0  0  0  0  0  0  0  0  0  0  0  0
    0.3560  -10.2749    0.4872 N   0  0  0  0  0  0  0  0  0  0  0  0
    1.5446  -10.7559    0.7975 C   0  0  0  0  0  0  0  0  0  0  0  0
    1.6377  -11.7454    1.7226 N   0  0  0  0  0  0  0  0  0  0  0  0
    2.6840  -10.2747    0.2174 N   0  0  0  0  0  0  0  0  0  0  0  0
   -5.0968   -8.8999   -4.9441 C   0  0  0  0  0  0  0  0  0  0  0  0
   -9.0507   -8.1274   -3.5228 O   0  0  0  0  0  0  0  0  0  0  0  0
   -5.5493   -9.4999   -3.7336 C   0  0  0  0  0  0  0  0  0  0  0  0
   -6.8676   -9.2479   -3.2679 C   0  0  0  0  0  0  0  0  0  0  0  0
   -7.7258   -8.3826   -3.9960 C   0  0  0  0  0  0  0  0  0  0  0  0
   -7.2687   -7.7684   -5.1930 C   0  0  0  0  0  0  0  0  0  0  0  0
   -5.9519   -8.0204   -5.6646 C   0  0  0  0  0  0  0  0  0  0  0  0
   -9.1117   -6.8169   -2.9523 C   0  0  0  0  0  0  0  0  0  0  0  0
  1  4  1  0  0  0  0
  2  3  1  0  0  0  0
  3  5  1  0  0  0  0
  4  6  1  0  0  0  0
  5  8  1  0  0  0  0
  6  7  1  0  0  0  0
  7 10  1  0  0  0  0
  8  9  1  0  0  0  0
  9 12  1  0  0  0  0
  9 13  1  0  0  0  0
 10 11  1  0  0  0  0
 11 14  1  0  0  0  0
 14 15  1  0  0  0  0
 15 16  1  0  0  0  0
 15 17  1  0  0  0  0
 18  2  1  0  0  0  0
 18 20  2  0  0  0  0
 18 24  1  0  0  0  0
 19 25  1  0  0  0  0
 20  1  1  0  0  0  0
 20 21  1  0  0  0  0
 21 22  2  0  0  0  0
 22 19  1  0  0  0  0
 22 23  1  0  0  0  0
 23 24  2  0  0  0  0
M  END
>  <CHROM.1>
-87.73314902,-77.49892646,-60.36930268,-129.81009352,-152.61676588,71.03018730
-173.41496464,115.88077928,-59.30916280,-17.15144783,-71.51145809,-139.41036099
-38.88368191,-52.17592226,-170.35237566,97.36565796,118.45263679,105.08186261
-3.45952995,-10.17752294,-2.88621548,2.87640485,0.52974748,-2.13533547

>  <Name>
1uud_lig

>  <RI>
0

>  <Rbt.Current_Directory>
/home/itssahil/PROJECTS/Mol_Feturizer/New_Systems/rnas/1uud

>  <Rbt.Executable>
rbdock ($Id: //depot/dev/client3/rdock/2013.1/src/exe/rbdock.cxx#4 $)

>  <Rbt.Library>
libRbt.so (2013.1, Build901 2013/11/27)

>  <Rbt.Parameter_File>
/export/apps/rDock/src/rDock_2013.1_src/data/scripts/dock_solv.prm

>  <Rbt.Receptor>
prm/pocket_docking_3.prm

>  <SCORE>
-26.1802

>  <SCORE.INTER>
-20.6625

>  <SCORE.INTER.CONST>
1

>  <SCORE.INTER.POLAR>
-2.49962

>  <SCORE.INTER.ROT>
18

>  <SCORE.INTER.SOLV>
13.4498

>  <SCORE.INTER.VDW>
-25.5262

>  <SCORE.INTER.norm>
-0.826501

>  <SCORE.INTRA>
-5.64304

>  <SCORE.INTRA.DIHEDRAL>
-3.62801

>  <SCORE.INTRA.DIHEDRAL.0>
30.6762

>  <SCORE.INTRA.POLAR>
0.0269013

>  <SCORE.INTRA.POLAR.0>
-0.0288659

>  <SCORE.INTRA.REPUL>
0

>  <SCORE.INTRA.REPUL.0>
0

>  <SCORE.INTRA.SOLV>
-0.336515

>  <SCORE.INTRA.SOLV.lig_0>
-25.2195

>  <SCORE.INTRA.VDW>
-3.75224

>  <SCORE.INTRA.VDW.0>
4.14263

>  <SCORE.INTRA.norm>
-0.225722

>  <SCORE.RESTR>
0.125337

>  <SCORE.RESTR.CAVITY>
0.125337

>  <SCORE.RESTR.norm>
0.00501348

>  <SCORE.SYSTEM>
0

>  <SCORE.SYSTEM.CONST>
0

>  <SCORE.SYSTEM.DIHEDRAL>
0

>  <SCORE.SYSTEM.SOLV>
0

>  <SCORE.SYSTEM.norm>
0

>  <SCORE.heavy>
25

>  <SCORE.norm>
-1.04721

>  <RMSD>
1.607

$$$$
1uud_lig
 OpenBabel11021811413D
libRbt.so/2013.1/901 2013/11/27
 25 25  0  0  0  0  0  0  0  0999 V2000
   -4.1227   -8.9156   -2.2949 C   0  0  0  0  0  0  0  0  0  0  0  0
   -4.2210   -9.5131   -5.1647 O   0  0  0  0  0  0  0  0  0  0  0  0
   -4.8611  -10.7118   -5.6267 C   0  0  0  0  0  0  0  0  0  0  0  0
   -4.7510   -9.3020   -1.0072 N   0  0  0  0  0  0  0  0  0  0  0  0
   -3.8093  -11.7296   -6.0882 C   0  0  0  0  0  0  0  0  0  0  0  0
   -3.8536  -10.2197   -0.2661 C   0  0  0  0  0  0  0  0  0  0  0  0
   -2.6392   -9.4407    0.2535 C   0  0  0  0  0  0  0  0  0  0  0  0
   -3.4877  -12.5219   -5.0935 N   0  0  0  0  0  0  0  0  0  0  0  0
   -2.3538  -12.3761   -4.4340 C   0  0  0  0  0  0  0  0  0  0  0  0
   -1.8096  -10.3300    1.1861 C   0  0  0  0  0  0  0  0  0  0  0  0
   -0.4824   -9.6368    1.5073 C   0  0  0  0  0  0  0  0  0  0  0  0
   -1.1938  -12.9551   -4.8698 N   0  0  0  0  0  0  0  0  0  0  0  0
   -2.3389  -11.6352   -3.2960 N   0  0  0  0  0  0  0  0  0  0  0  0
    0.3626   -9.8128    0.5192 N   0  0  0  0  0  0  0  0  0  0  0  0
    1.3015  -10.7381    0.5715 C   0  0  0  0  0  0  0  0  0  0  0  0
    2.5950  -10.3815    0.3636 N   0  0  0  0  0  0  0  0  0  0  0  0
    1.0014  -12.0475    0.8198 N   0  0  0  0  0  0  0  0  0  0  0  0
   -5.1946   -8.6140   -4.6187 C   0  0  0  0  0  0  0  0  0  0  0  0
   -8.1333   -5.9665   -3.0045 O   0  0  0  0  0  0  0  0  0  0  0  0
   -5.1857   -8.3009   -3.2288 C   0  0  0  0  0  0  0  0  0  0  0  0
   -6.1693   -7.4268   -2.6933 C   0  0  0  0  0  0  0  0  0  0  0  0
   -7.1469   -6.8491   -3.5454 C   0  0  0  0  0  0  0  0  0  0  0  0
   -7.1447   -7.1454   -4.9351 C   0  0  0  0  0  0  0  0  0  0  0  0
   -6.1647   -8.0222   -5.4745 C   0  0  0  0  0  0  0  0  0  0  0  0
   -9.3543   -6.6823   -2.7962 C   0  0  0  0  0  0  0  0  0  0  0  0
  1  4  1  0  0  0  0
  2  3  1  0  0  0  0
  3  5  1  0  0  0  0
  4  6  1  0  0  0  0
  5  8  1  0  0  0  0
  6  7  1  0  0  0  0
  7 10  1  0  0  0  0
  8  9  1  0  0  0  0
  9 12  1  0  0  0  0
  9 13  1  0  0  0  0
 10 11  1  0  0  0  0
 11 14  1  0  0  0  0
 14 15  1  0  0  0  0
 15 16  1  0  0  0  0
 15 17  1  0  0  0  0
 18  2  1  0  0  0  0
 18 20  2  0  0  0  0
 18 24  1  0  0  0  0
 19 25  1  0  0  0  0
 20  1  1  0  0  0  0
 20 21  1  0  0  0  0
 21 22  2  0  0  0  0
 22 19  1  0  0  0  0
 22 23  1  0  0  0  0
 23 24  2  0  0  0  0
M  END
>  <CHROM.1>
164.22011720,-174.62532365,92.17673825,71.12433323,-103.50689029,171.97481125
170.31114972,-85.96335604,-126.35926414,74.25638211,-80.56809346,-99.35057834
-126.12307024,-42.25767914,0.62650019,113.77905627,-139.34665419,-99.12826960
-3.48118787,-9.71252296,-2.48442380,2.91478385,0.58690622,-2.09760533

>  <Name>
1uud_lig

>  <RI>
0

>  <Rbt.Current_Directory>
/home/itssahil/PROJECTS/Mol_Feturizer/New_Systems/rnas/1uud

>  <Rbt.Executable>
rbdock ($Id: //depot/dev/client3/rdock/2013.1/src/exe/rbdock.cxx#4 $)

>  <Rbt.Library>
libRbt.so (2013.1, Build901 2013/11/27)

>  <Rbt.Parameter_File>
/export/apps/rDock/src/rDock_2013.1_src/data/scripts/dock_solv.prm

>  <Rbt.Receptor>
prm/pocket_docking_3.prm

>  <SCORE>
-28.5687

>  <SCORE.INTER>
-19.9747

>  <SCORE.INTER.CONST>
1

>  <SCORE.INTER.POLAR>
-3.26499

>  <SCORE.INTER.ROT>
18

>  <SCORE.INTER.SOLV>
11.3547

>  <SCORE.INTER.VDW>
-21.8181

>  <SCORE.INTER.norm>
-0.798987

>  <SCORE.INTRA>
-8.61251

>  <SCORE.INTRA.DIHEDRAL>
-5.51865

>  <SCORE.INTRA.DIHEDRAL.0>
30.6762

>  <SCORE.INTRA.POLAR>
0.0288659

>  <SCORE.INTRA.POLAR.0>
-0.0288659

>  <SCORE.INTRA.REPUL>
0

>  <SCORE.INTRA.REPUL.0>
0

>  <SCORE.INTRA.SOLV>
-0.236883

>  <SCORE.INTRA.SOLV.lig_0>
-25.2195

>  <SCORE.INTRA.VDW>
-5.83289

>  <SCORE.INTRA.VDW.0>
4.14263

>  <SCORE.INTRA.norm>
-0.3445

>  <SCORE.RESTR>
0.0185253

>  <SCORE.RESTR.CAVITY>
0.0185253

>  <SCORE.RESTR.norm>
0.000741011

>  <SCORE.SYSTEM>
0

>  <SCORE.SYSTEM.CONST>
0

>  <SCORE.SYSTEM.DIHEDRAL>
0

>  <SCORE.SYSTEM.SOLV>
0

>  <SCORE.SYSTEM.norm>
0

>  <SCORE.heavy>
25

>  <SCORE.norm>
-1.14275

>  <RMSD>
1.671

$$$$
1uud_lig
 OpenBabel11021811413D
libRbt.so/2013.1/901 2013/11/27
 25 25  0  0  0  0  0  0  0  0999 V2000
   -3.8610   -8.7848   -1.7269 C   0  0  0  0  0  0  0  0  0  0  0  0
   -4.2541  -11.2479   -3.2701 O   0  0  0  0  0  0  0  0  0  0  0  0
   -3.0251  -11.1381   -4.0034 C   0  0  0  0  0  0  0  0  0  0  0  0
   -4.4637   -9.0406   -0.3951 N   0  0  0  0  0  0  0  0  0  0  0  0
   -3.1937  -11.7276   -5.4103 C   0  0  0  0  0  0  0  0  0  0  0  0
   -4.0146  -10.3579    0.1145 C   0  0  0  0  0  0  0  0  0  0  0  0
   -2.8412  -10.1607    1.0819 C   0  0  0  0  0  0  0  0  0  0  0  0
   -3.3002  -13.0330   -5.3380 N   0  0  0  0  0  0  0  0  0  0  0  0
   -2.2548  -13.7977   -5.0844 C   0  0  0  0  0  0  0  0  0  0  0  0
   -1.5226  -10.4977    0.3773 C   0  0  0  0  0  0  0  0  0  0  0  0
   -0.3708  -10.4218    1.3836 C   0  0  0  0  0  0  0  0  0  0  0  0
   -1.0745  -13.2697   -4.6385 N   0  0  0  0  0  0  0  0  0  0  0  0
   -2.3531  -15.1391   -5.2718 N   0  0  0  0  0  0  0  0  0  0  0  0
    0.5899  -11.2395    1.0235 N   0  0  0  0  0  0  0  0  0  0  0  0
    1.8196  -10.8094    0.8158 C   0  0  0  0  0  0  0  0  0  0  0  0
    2.0135   -9.5275    0.4121 N   0  0  0  0  0  0  0  0  0  0  0  0
    2.9010  -11.6262    0.9873 N   0  0  0  0  0  0  0  0  0  0  0  0
   -5.0967  -10.1227   -3.5500 C   0  0  0  0  0  0  0  0  0  0  0  0
   -7.6484   -6.7960   -4.3701 O   0  0  0  0  0  0  0  0  0  0  0  0
   -4.9427   -8.9089   -2.8200 C   0  0  0  0  0  0  0  0  0  0  0  0
   -5.7982   -7.8071   -3.0890 C   0  0  0  0  0  0  0  0  0  0  0  0
   -6.7913   -7.9079   -4.0985 C   0  0  0  0  0  0  0  0  0  0  0  0
   -6.9328   -9.1114   -4.8405 C   0  0  0  0  0  0  0  0  0  0  0  0
   -6.0814  -10.2174   -4.5723 C   0  0  0  0  0  0  0  0  0  0  0  0
   -6.8776   -5.5910   -4.3923 C   0  0  0  0  0  0  0  0  0  0  0  0
  1  4  1  0  0  0  0
  2  3  1  0  0  0  0
  3  5  1  0  0  0  0
  4  6  1  0  0  0  0
  5  8  1  0  0  0  0
  6  7  1  0  0  0  0
  7 10  1  0  0  0  0
  8  9  1  0  0  0  0
  9 12  1  0  0  0  0
  9 13  1  0  0  0  0
 10 11  1  0  0  0  0
 11 14  1  0  0  0  0
 14 15  1  0  0  0  0
 15 16  1  0  0  0  0
 15 17  1  0  0  0  0
 18  2  1  0  0  0  0
 18 20  2  0  0  0  0
 18 24  1  0  0  0  0
 19 25  1  0  0  0  0
 20  1  1  0  0  0  0
 20 21  1  0  0  0  0
 21 22  2  0  0  0  0
 22 19  1  0  0  0  0
 22 23  1  0  0  0  0
 23 24  2  0  0  0  0
M  END
>  <CHROM.1>
107.76922430,-86.05669740,-70.72391486,97.77422378,-74.16294132,-102.00155535
-174.87749410,12.53403846,-92.76488227,168.80623339,151.59620620,122.96274581
-28.01317605,-127.75346684,171.80366285,-85.08275464,-96.93720154,43.43765061
-3.08335228,-10.37744076,-2.39625241,2.96592503,0.61995807,-2.32846477

>  <Name>
1uud_lig

>  <RI>
0

>  <Rbt.Current_Directory>
/home/itssahil/PROJECTS/Mol_Feturizer/New_Systems/rnas/1uud

>  <Rbt.Executable>
rbdock ($Id: //depot/dev/client3/rdock/2013.1/src/exe/rbdock.cxx#4 $)

>  <Rbt.Library>
libRbt.so (2013.1, Build901 2013/11/27)

>  <Rbt.Parameter_File>
/export/apps/rDock/src/rDock_2013.1_src/data/scripts/dock_solv.prm

>  <Rbt.Receptor>
prm/pocket_docking_2.prm

>  <SCORE>
-29.3825

>  <SCORE.INTER>
-30.3241

>  <SCORE.INTER.CONST>
1

>  <SCORE.INTER.POLAR>
-4.64005

>  <SCORE.INTER.ROT>
18

>  <SCORE.INTER.SOLV>
12.7345

>  <SCORE.INTER.VDW>
-24.5941

>  <SCORE.INTER.norm>
-1.21297

>  <SCORE.INTRA>
-0.22413

>  <SCORE.INTRA.DIHEDRAL>
2.75064

>  <SCORE.INTRA.DIHEDRAL.0>
30.6762

>  <SCORE.INTRA.POLAR>
0.0288659

>  <SCORE.INTRA.POLAR.0>
-0.0288659

>  <SCORE.INTRA.REPUL>
0

>  <SCORE.INTRA.REPUL.0>
0

>  <SCORE.INTRA.SOLV>
-0.699389

>  <SCORE.INTRA.SOLV.lig_0>
-25.2195

>  <SCORE.INTRA.VDW>
-1.3479

>  <SCORE.INTRA.VDW.0>
4.14263

>  <SCORE.INTRA.norm>
-0.00896519

>  <SCORE.RESTR>
1.16581

>  <SCORE.RESTR.CAVITY>
1.16581

>  <SCORE.RESTR.norm>
0.0466322

>  <SCORE.SYSTEM>
0

>  <SCORE.SYSTEM.CONST>
0

>  <SCORE.SYSTEM.DIHEDRAL>
0

>  <SCORE.SYSTEM.SOLV>
0

>  <SCORE.SYSTEM.norm>
0

>  <SCORE.heavy>
25

>  <SCORE.norm>
-1.1753

>  <RMSD>
1.699

$$$$
1uud_lig
 OpenBabel11021811413D
libRbt.so/2013.1/901 2013/11/27
 25 25  0  0  0  0  0  0  0  0999 V2000
   -3.8548   -8.7237   -2.9193 C   0  0  0  0  0  0  0  0  0  0  0  0
   -4.8980  -10.6398   -4.8796 O   0  0  0  0  0  0  0  0  0  0  0  0
   -4.4777  -10.5235   -6.2471 C   0  0  0  0  0  0  0  0  0  0  0  0
   -2.8697   -7.8801   -3.6403 N   0  0  0  0  0  0  0  0  0  0  0  0
   -3.5306  -11.6753   -6.6096 C   0  0  0  0  0  0  0  0  0  0  0  0
   -1.5114   -8.4537   -3.4890 C   0  0  0  0  0  0  0  0  0  0  0  0
   -1.0092   -8.2126   -2.0603 C   0  0  0  0  0  0  0  0  0  0  0  0
   -2.3945  -11.5383   -5.9683 N   0  0  0  0  0  0  0  0  0  0  0  0
   -2.1567  -12.1815   -4.8406 C   0  0  0  0  0  0  0  0  0  0  0  0
    0.2466   -9.0519   -1.8007 C   0  0  0  0  0  0  0  0  0  0  0  0
    0.6898   -8.8731   -0.3458 C   0  0  0  0  0  0  0  0  0  0  0  0
   -2.0236  -11.5165   -3.6529 N   0  0  0  0  0  0  0  0  0  0  0  0
   -2.0403  -13.5344   -4.8605 N   0  0  0  0  0  0  0  0  0  0  0  0
    1.6746   -9.6968   -0.0758 N   0  0  0  0  0  0  0  0  0  0  0  0
    1.4817  -10.7935    0.6318 C   0  0  0  0  0  0  0  0  0  0  0  0
    2.5365  -11.3657    1.2671 N   0  0  0  0  0  0  0  0  0  0  0  0
    0.2482  -11.3719    0.7314 N   0  0  0  0  0  0  0  0  0  0  0  0
   -5.7133   -9.5177   -4.5180 C   0  0  0  0  0  0  0  0  0  0  0  0
   -8.1781   -6.2051   -3.4216 O   0  0  0  0  0  0  0  0  0  0  0  0
   -5.2468   -8.5662   -3.5657 C   0  0  0  0  0  0  0  0  0  0  0  0
   -6.0720   -7.4703   -3.1967 C   0  0  0  0  0  0  0  0  0  0  0  0
   -7.3511   -7.3113   -3.7917 C   0  0  0  0  0  0  0  0  0  0  0  0
   -7.8093   -8.2490   -4.7560 C   0  0  0  0  0  0  0  0  0  0  0  0
   -6.9885   -9.3489   -5.1255 C   0  0  0  0  0  0  0  0  0  0  0  0
   -7.6051   -4.9916   -3.9173 C   0  0  0  0  0  0  0  0  0  0  0  0
  1  4  1  0  0  0  0
  2  3  1  0  0  0  0
  3  5  1  0  0  0  0
  4  6  1  0  0  0  0
  5  8  1  0  0  0  0
  6  7  1  0  0  0  0
  7 10  1  0  0  0  0
  8  9  1  0  0  0  0
  9 12  1  0  0  0  0
  9 13  1  0  0  0  0
 10 11  1  0  0  0  0
 11 14  1  0  0  0  0
 14 15  1  0  0  0  0
 15 16  1  0  0  0  0
 15 17  1  0  0  0  0
 18  2  1  0  0  0  0
 18 20  2  0  0  0  0
 18 24  1  0  0  0  0
 19 25  1  0  0  0  0
 20  1  1  0  0  0  0
 20 21  1  0  0  0  0
 21 22  2  0  0  0  0
 22 19  1  0  0  0  0
 22 23  1  0  0  0  0
 23 24  2  0  0  0  0
M  END
>  <CHROM.1>
-153.81406562,176.31907413,-68.65365083,-73.00242305,96.95634190,167.85096053
-176.45980920,-113.21286467,64.48550012,-67.87030214,173.20497912,-103.90944025
-157.79806880,-132.90464122,-7.69519097,-112.73821857,97.16568732,69.35381875
-3.05333501,-9.54958688,-3.20359956,3.05961585,0.55707064,-2.40894033

>  <Name>
1uud_lig

>  <RI>
0

>  <Rbt.Current_Directory>
/home/itssahil/PROJECTS/Mol_Feturizer/New_Systems/rnas/1uud

>  <Rbt.Executable>
rbdock ($Id: //depot/dev/client3/rdock/2013.1/src/exe/rbdock.cxx#4 $)

>  <Rbt.Library>
libRbt.so (2013.1, Build901 2013/11/27)

>  <Rbt.Parameter_File>
/export/apps/rDock/src/rDock_2013.1_src/data/scripts/dock_solv.prm

>  <Rbt.Receptor>
prm/pocket_docking_3.prm

>  <SCORE>
-30.0517

>  <SCORE.INTER>
-20.6508

>  <SCORE.INTER.CONST>
1

>  <SCORE.INTER.POLAR>
-3.64052

>  <SCORE.INTER.ROT>
18

>  <SCORE.INTER.SOLV>
8.3816

>  <SCORE.INTER.VDW>
-20.026

>  <SCORE.INTER.norm>
-0.826032

>  <SCORE.INTRA>
-9.49072

>  <SCORE.INTRA.DIHEDRAL>
-9.14274

>  <SCORE.INTRA.DIHEDRAL.0>
30.6762

>  <SCORE.INTRA.POLAR>
0.0288659

>  <SCORE.INTRA.POLAR.0>
-0.0288659

>  <SCORE.INTRA.REPUL>
0

>  <SCORE.INTRA.REPUL.0>
0

>  <SCORE.INTRA.SOLV>
0.413815

>  <SCORE.INTRA.SOLV.lig_0>
-25.2195

>  <SCORE.INTRA.VDW>
-5.2244

>  <SCORE.INTRA.VDW.0>
4.14263

>  <SCORE.INTRA.norm>
-0.379629

>  <SCORE.RESTR>
0.0897844

>  <SCORE.RESTR.CAVITY>
0.0897844

>  <SCORE.RESTR.norm>
0.00359138

>  <SCORE.SYSTEM>
0

>  <SCORE.SYSTEM.CONST>
0

>  <SCORE.SYSTEM.DIHEDRAL>
0

>  <SCORE.SYSTEM.SOLV>
0

>  <SCORE.SYSTEM.norm>
0

>  <SCORE.heavy>
25

>  <SCORE.norm>
-1.20207

>  <RMSD>
1.741

$$$$
1uud_lig
 OpenBabel11021811413D
libRbt.so/2013.1/901 2013/11/27
 25 25  0  0  0  0  0  0  0  0999 V2000
   -3.6931   -9.8204   -3.6823 C   0  0  0  0  0  0  0  0  0  0  0  0
   -5.3010  -11.2417   -5.6816 O   0  0  0  0  0  0  0  0  0  0  0  0
   -4.3908  -10.8283   -6.7116 C   0  0  0  0  0  0  0  0  0  0  0  0
   -3.7404  -10.7338   -2.5138 N   0  0  0  0  0  0  0  0  0  0  0  0
   -3.0400  -11.5361   -6.5398 C   0  0  0  0  0  0  0  0  0  0  0  0
   -2.6046  -10.4467   -1.6058 C   0  0  0  0  0  0  0  0  0  0  0  0
   -2.9083   -9.1859   -0.7875 C   0  0  0  0  0  0  0  0  0  0  0  0
   -3.2308  -12.8145   -6.3160 N   0  0  0  0  0  0  0  0  0  0  0  0
   -2.5766  -13.4536   -5.3644 C   0  0  0  0  0  0  0  0  0  0  0  0
   -1.6781   -8.7907    0.0367 C   0  0  0  0  0  0  0  0  0  0  0  0
   -1.2867   -9.9488    0.9591 C   0  0  0  0  0  0  0  0  0  0  0  0
   -2.3623  -14.8030   -5.4266 N   0  0  0  0  0  0  0  0  0  0  0  0
   -2.1067  -12.7553   -4.2986 N   0  0  0  0  0  0  0  0  0  0  0  0
   -0.1342   -9.6925    1.5312 N   0  0  0  0  0  0  0  0  0  0  0  0
    0.9541  -10.3722    1.2243 C   0  0  0  0  0  0  0  0  0  0  0  0
    0.9497  -11.7236    1.3551 N   0  0  0  0  0  0  0  0  0  0  0  0
    2.0877   -9.7472    0.7880 N   0  0  0  0  0  0  0  0  0  0  0  0
   -5.8684  -10.0944   -5.0364 C   0  0  0  0  0  0  0  0  0  0  0  0
   -7.5956   -6.7043   -3.0936 O   0  0  0  0  0  0  0  0  0  0  0  0
   -5.1233   -9.3783   -4.0555 C   0  0  0  0  0  0  0  0  0  0  0  0
   -5.7034   -8.2565   -3.4050 C   0  0  0  0  0  0  0  0  0  0  0  0
   -7.0157   -7.8363   -3.7469 C   0  0  0  0  0  0  0  0  0  0  0  0
   -7.7521   -8.5380   -4.7390 C   0  0  0  0  0  0  0  0  0  0  0  0
   -7.1771   -9.6630   -5.3898 C   0  0  0  0  0  0  0  0  0  0  0  0
   -7.3933   -5.5346   -3.8920 C   0  0  0  0  0  0  0  0  0  0  0  0
  1  4  1  0  0  0  0
  2  3  1  0  0  0  0
  3  5  1  0  0  0  0
  4  6  1  0  0  0  0
  5  8  1  0  0  0  0
  6  7  1  0  0  0  0
  7 10  1  0  0  0  0
  8  9  1  0  0  0  0
  9 12  1  0  0  0  0
  9 13  1  0  0  0  0
 10 11  1  0  0  0  0
 11 14  1  0  0  0  0
 14 15  1  0  0  0  0
 15 16  1  0  0  0  0
 15 17  1  0  0  0  0
 18  2  1  0  0  0  0
 18 20  2  0  0  0  0
 18 24  1  0  0  0  0
 19 25  1  0  0  0  0
 20  1  1  0  0  0  0
 20 21  1  0  0  0  0
 21 22  2  0  0  0  0
 22 19  1  0  0  0  0
 22 23  1  0  0  0  0
 23 24  2  0  0  0  0
M  END
>  <CHROM.1>
-141.04999970,128.49638116,46.02091148,77.44329786,-134.54970455,-173.61594972
-58.39176230,-154.82587092,-70.61969288,-176.70473452,171.39304633,-110.65774847
-56.56793822,-159.79149835,6.59297124,-78.91210720,-93.17878264,95.51831572
-3.45580732,-10.20996352,-3.01027351,2.73507723,0.62866256,-2.30650708

>  <Name>
1uud_lig

>  <RI>
0

>  <Rbt.Current_Directory>
/home/itssahil/PROJECTS/Mol_Feturizer/New_Systems/rnas/1uud

>  <Rbt.Executable>
rbdock ($Id: //depot/dev/client3/rdock/2013.1/src/exe/rbdock.cxx#4 $)

>  <Rbt.Library>
libRbt.so (2013.1, Build901 2013/11/27)

>  <Rbt.Parameter_File>
/export/apps/rDock/src/rDock_2013.1_src/data/scripts/dock_solv.prm

>  <Rbt.Receptor>
prm/pocket_docking_3.prm

>  <SCORE>
-28.4269

>  <SCORE.INTER>
-25.1454

>  <SCORE.INTER.CONST>
1

>  <SCORE.INTER.POLAR>
-4.20016

>  <SCORE.INTER.ROT>
18

>  <SCORE.INTER.SOLV>
11.3498

>  <SCORE.INTER.VDW>
-22.1464

>  <SCORE.INTER.norm>
-1.00582

>  <SCORE.INTRA>
-3.28149

>  <SCORE.INTRA.DIHEDRAL>
0.355948

>  <SCORE.INTRA.DIHEDRAL.0>
30.6762

>  <SCORE.INTRA.POLAR>
-0.242901

>  <SCORE.INTRA.POLAR.0>
-0.0288659

>  <SCORE.INTRA.REPUL>
0

>  <SCORE.INTRA.REPUL.0>
0

>  <SCORE.INTRA.SOLV>
0.251564

>  <SCORE.INTRA.SOLV.lig_0>
-25.2195

>  <SCORE.INTRA.VDW>
-2.75938

>  <SCORE.INTRA.VDW.0>
4.14263

>  <SCORE.INTRA.norm>
-0.131259

>  <SCORE.RESTR>
0

>  <SCORE.RESTR.CAVITY>
0

>  <SCORE.RESTR.norm>
0

>  <SCORE.SYSTEM>
0

>  <SCORE.SYSTEM.CONST>
0

>  <SCORE.SYSTEM.DIHEDRAL>
0

>  <SCORE.SYSTEM.SOLV>
0

>  <SCORE.SYSTEM.norm>
0

>  <SCORE.heavy>
25

>  <SCORE.norm>
-1.13708

>  <RMSD>
1.778

$$$$
1uud_lig
 OpenBabel11021811413D
libRbt.so/2013.1/901 2013/11/27
 25 25  0  0  0  0  0  0  0  0999 V2000
   -3.8141   -8.9755   -3.1465 C   0  0  0  0  0  0  0  0  0  0  0  0
   -5.2061  -10.8862   -4.8825 O   0  0  0  0  0  0  0  0  0  0  0  0
   -4.7618  -11.6963   -3.7840 C   0  0  0  0  0  0  0  0  0  0  0  0
   -3.7273   -9.5135   -1.7662 N   0  0  0  0  0  0  0  0  0  0  0  0
   -4.2817  -13.0619   -4.2936 C   0  0  0  0  0  0  0  0  0  0  0  0
   -2.5385  -10.3900   -1.6428 C   0  0  0  0  0  0  0  0  0  0  0  0
   -2.0958  -10.4503   -0.1759 C   0  0  0  0  0  0  0  0  0  0  0  0
   -3.2958  -12.9002   -5.1436 N   0  0  0  0  0  0  0  0  0  0  0  0
   -2.1490  -13.5375   -4.9996 C   0  0  0  0  0  0  0  0  0  0  0  0
   -0.8225  -11.2939   -0.0499 C   0  0  0  0  0  0  0  0  0  0  0  0
   -0.0789  -10.9096    1.2325 C   0  0  0  0  0  0  0  0  0  0  0  0
   -2.0882  -14.9037   -4.9785 N   0  0  0  0  0  0  0  0  0  0  0  0
   -1.0035  -12.8200   -4.8680 N   0  0  0  0  0  0  0  0  0  0  0  0
    1.1060  -11.4727    1.2460 N   0  0  0  0  0  0  0  0  0  0  0  0
    2.2111  -10.7551    1.1809 C   0  0  0  0  0  0  0  0  0  0  0  0
    3.3537  -11.2480    1.7240 N   0  0  0  0  0  0  0  0  0  0  0  0
    2.2299   -9.5240    0.5891 N   0  0  0  0  0  0  0  0  0  0  0  0
   -5.9312   -9.7500   -4.3948 C   0  0  0  0  0  0  0  0  0  0  0  0
   -8.1237   -6.3948   -2.9164 O   0  0  0  0  0  0  0  0  0  0  0  0
   -5.2943   -8.8005   -3.5447 C   0  0  0  0  0  0  0  0  0  0  0  0
   -6.0283   -7.6903   -3.0477 C   0  0  0  0  0  0  0  0  0  0  0  0
   -7.3885   -7.5153   -3.4147 C   0  0  0  0  0  0  0  0  0  0  0  0
   -8.0190   -8.4512   -4.2782 C   0  0  0  0  0  0  0  0  0  0  0  0
   -7.2896   -9.5653   -4.7748 C   0  0  0  0  0  0  0  0  0  0  0  0
   -8.2394   -6.4918   -1.4938 C   0  0  0  0  0  0  0  0  0  0  0  0
  1  4  1  0  0  0  0
  2  3  1  0  0  0  0
  3  5  1  0  0  0  0
  4  6  1  0  0  0  0
  5  8  1  0  0  0  0
  6  7  1  0  0  0  0
  7 10  1  0  0  0  0
  8  9  1  0  0  0  0
  9 12  1  0  0  0  0
  9 13  1  0  0  0  0
 10 11  1  0  0  0  0
 11 14  1  0  0  0  0
 14 15  1  0  0  0  0
 15 16  1  0  0  0  0
 15 17  1  0  0  0  0
 18  2  1  0  0  0  0
 18 20  2  0  0  0  0
 18 24  1  0  0  0  0
 19 25  1  0  0  0  0
 20  1  1  0  0  0  0
 20 21  1  0  0  0  0
 21 22  2  0  0  0  0
 22 19  1  0  0  0  0
 22 23  1  0  0  0  0
 23 24  2  0  0  0  0
M  END
>  <CHROM.1>
147.12218302,166.77441595,59.31414550,155.61862214,127.43769808,-176.98003001
157.30849774,59.12558784,6.29018914,90.21411707,-170.35774886,113.87045510
153.32799057,119.88217960,72.13084380,61.04452361,-101.97546718,-64.21812087
-3.21876704,-10.40846154,-2.42496852,3.04891259,0.52909763,-2.37317532

>  <Name>
1uud_lig

>  <RI>
0

>  <Rbt.Current_Directory>
/home/itssahil/PROJECTS/Mol_Feturizer/New_Systems/rnas/1uud

>  <Rbt.Executable>
rbdock ($Id: //depot/dev/client3/rdock/2013.1/src/exe/rbdock.cxx#4 $)

>  <Rbt.Library>
libRbt.so (2013.1, Build901 2013/11/27)

>  <Rbt.Parameter_File>
/export/apps/rDock/src/rDock_2013.1_src/data/scripts/dock_solv.prm

>  <Rbt.Receptor>
prm/pocket_docking_4.prm

>  <SCORE>
-40.6307

>  <SCORE.INTER>
-33.3248

>  <SCORE.INTER.CONST>
1

>  <SCORE.INTER.POLAR>
-4.48982

>  <SCORE.INTER.ROT>
18

>  <SCORE.INTER.SOLV>
14.3817

>  <SCORE.INTER.VDW>
-27.6443

>  <SCORE.INTER.norm>
-1.33299

>  <SCORE.INTRA>
-7.30593

>  <SCORE.INTRA.DIHEDRAL>
-6.33748

>  <SCORE.INTRA.DIHEDRAL.0>
30.6762

>  <SCORE.INTRA.POLAR>
0.0288659

>  <SCORE.INTRA.POLAR.0>
-0.0288659

>  <SCORE.INTRA.REPUL>
0

>  <SCORE.INTRA.REPUL.0>
0

>  <SCORE.INTRA.SOLV>
-0.864502

>  <SCORE.INTRA.SOLV.lig_0>
-25.2195

>  <SCORE.INTRA.VDW>
-3.80308

>  <SCORE.INTRA.VDW.0>
4.14263

>  <SCORE.INTRA.norm>
-0.292237

>  <SCORE.RESTR>
0

>  <SCORE.RESTR.CAVITY>
0

>  <SCORE.RESTR.norm>
0

>  <SCORE.SYSTEM>
0

>  <SCORE.SYSTEM.CONST>
0

>  <SCORE.SYSTEM.DIHEDRAL>
0

>  <SCORE.SYSTEM.SOLV>
0

>  <SCORE.SYSTEM.norm>
0

>  <SCORE.heavy>
25

>  <SCORE.norm>
-1.62523

>  <RMSD>
1.791

$$$$
1uud_lig
 OpenBabel11021811413D
libRbt.so/2013.1/901 2013/11/27
 25 25  0  0  0  0  0  0  0  0999 V2000
   -3.0813   -8.2315   -3.9345 C   0  0  0  0  0  0  0  0  0  0  0  0
   -4.1783  -10.9448   -3.7404 O   0  0  0  0  0  0  0  0  0  0  0  0
   -4.6556  -11.9778   -4.6151 C   0  0  0  0  0  0  0  0  0  0  0  0
   -2.3799   -8.8714   -2.7940 N   0  0  0  0  0  0  0  0  0  0  0  0
   -3.4769  -12.6552   -5.3271 C   0  0  0  0  0  0  0  0  0  0  0  0
   -0.9173   -8.8595   -3.0336 C   0  0  0  0  0  0  0  0  0  0  0  0
   -0.2004   -9.5456   -1.8644 C   0  0  0  0  0  0  0  0  0  0  0  0
   -3.0938  -11.9271   -6.3487 N   0  0  0  0  0  0  0  0  0  0  0  0
   -3.3607  -12.2859   -7.5905 C   0  0  0  0  0  0  0  0  0  0  0  0
   -0.1289   -8.5933   -0.6658 C   0  0  0  0  0  0  0  0  0  0  0  0
    0.0550   -9.4031    0.6209 C   0  0  0  0  0  0  0  0  0  0  0  0
   -2.7383  -13.3543   -8.1751 N   0  0  0  0  0  0  0  0  0  0  0  0
   -4.2730  -11.5771   -8.3042 N   0  0  0  0  0  0  0  0  0  0  0  0
    1.3177   -9.7287    0.7656 N   0  0  0  0  0  0  0  0  0  0  0  0
    1.6776  -10.9348    1.1607 C   0  0  0  0  0  0  0  0  0  0  0  0
    2.8838  -11.4253    0.7758 N   0  0  0  0  0  0  0  0  0  0  0  0
    0.8611  -11.7052    1.9391 N   0  0  0  0  0  0  0  0  0  0  0  0
   -5.0879   -9.8371   -3.7442 C   0  0  0  0  0  0  0  0  0  0  0  0
   -7.8144   -6.5483   -3.7090 O   0  0  0  0  0  0  0  0  0  0  0  0
   -4.5966   -8.5025   -3.8316 C   0  0  0  0  0  0  0  0  0  0  0  0
   -5.5051   -7.4105   -3.8112 C   0  0  0  0  0  0  0  0  0  0  0  0
   -6.9019   -7.6491   -3.7252 C   0  0  0  0  0  0  0  0  0  0  0  0
   -7.3940   -8.9804   -3.6576 C   0  0  0  0  0  0  0  0  0  0  0  0
   -6.4886  -10.0758   -3.6742 C   0  0  0  0  0  0  0  0  0  0  0  0
   -8.6021   -6.5965   -2.5158 C   0  0  0  0  0  0  0  0  0  0  0  0
  1  4  1  0  0  0  0
  2  3  1  0  0  0  0
  3  5  1  0  0  0  0
  4  6  1  0  0  0  0
  5  8  1  0  0  0  0
  6  7  1  0  0  0  0
  7 10  1  0  0  0  0
  8  9  1  0  0  0  0
  9 12  1  0  0  0  0
  9 13  1  0  0  0  0
 10 11  1  0  0  0  0
 11 14  1  0  0  0  0
 14 15  1  0  0  0  0
 15 16  1  0  0  0  0
 15 17  1  0  0  0  0
 18  2  1  0  0  0  0
 18 20  2  0  0  0  0
 18 24  1  0  0  0  0
 19 25  1  0  0  0  0
 20  1  1  0  0  0  0
 20 21  1  0  0  0  0
 21 22  2  0  0  0  0
 22 19  1  0  0  0  0
 22 23  1  0  0  0  0
 23 24  2  0  0  0  0
M  END
>  <CHROM.1>
168.24475454,143.52795514,-80.90425242,-178.93104133,-106.16464442,-77.67945426
157.64023543,-70.63480450,-126.74856970,-98.54041566,81.14510297,-137.41573198
152.21120734,23.94279394,167.63158443,-135.47670245,-55.52854892,-121.84070405
-3.04399101,-9.95023382,-3.18201620,2.66788105,0.50647571,-2.17824854

>  <Name>
1uud_lig

>  <RI>
0

>  <Rbt.Current_Directory>
/home/itssahil/PROJECTS/Mol_Feturizer/New_Systems/rnas/1uud

>  <Rbt.Executable>
rbdock ($Id: //depot/dev/client3/rdock/2013.1/src/exe/rbdock.cxx#4 $)

>  <Rbt.Library>
libRbt.so (2013.1, Build901 2013/11/27)

>  <Rbt.Parameter_File>
/export/apps/rDock/src/rDock_2013.1_src/data/scripts/dock_solv.prm

>  <Rbt.Receptor>
prm/pocket_docking_3.prm

>  <SCORE>
-35.1923

>  <SCORE.INTER>
-27.7577

>  <SCORE.INTER.CONST>
1

>  <SCORE.INTER.POLAR>
-3.82519

>  <SCORE.INTER.ROT>
18

>  <SCORE.INTER.SOLV>
10.48

>  <SCORE.INTER.VDW>
-24.8478

>  <SCORE.INTER.norm>
-1.11031

>  <SCORE.INTRA>
-7.60763

>  <SCORE.INTRA.DIHEDRAL>
-3.43736

>  <SCORE.INTRA.DIHEDRAL.0>
30.6762

>  <SCORE.INTRA.POLAR>
-0.599995

>  <SCORE.INTRA.POLAR.0>
-0.0288659

>  <SCORE.INTRA.REPUL>
0

>  <SCORE.INTRA.REPUL.0>
0

>  <SCORE.INTRA.SOLV>
-0.710847

>  <SCORE.INTRA.SOLV.lig_0>
-25.2195

>  <SCORE.INTRA.VDW>
-3.49355

>  <SCORE.INTRA.VDW.0>
4.14263

>  <SCORE.INTRA.norm>
-0.304305

>  <SCORE.RESTR>
0.173022

>  <SCORE.RESTR.CAVITY>
0.173022

>  <SCORE.RESTR.norm>
0.00692088

>  <SCORE.SYSTEM>
0

>  <SCORE.SYSTEM.CONST>
0

>  <SCORE.SYSTEM.DIHEDRAL>
0

>  <SCORE.SYSTEM.SOLV>
0

>  <SCORE.SYSTEM.norm>
0

>  <SCORE.heavy>
25

>  <SCORE.norm>
-1.40769

>  <RMSD>
1.825

$$$$
1uud_lig
 OpenBabel11021811413D
libRbt.so/2013.1/901 2013/11/27
 25 25  0  0  0  0  0  0  0  0999 V2000
   -4.3789   -9.5594   -2.1609 C   0  0  0  0  0  0  0  0  0  0  0  0
   -5.7894  -11.0667   -4.2444 O   0  0  0  0  0  0  0  0  0  0  0  0
   -4.8592  -10.5601   -5.2131 C   0  0  0  0  0  0  0  0  0  0  0  0
   -3.7620   -8.3757   -1.5125 N   0  0  0  0  0  0  0  0  0  0  0  0
   -4.0201  -11.7074   -5.7918 C   0  0  0  0  0  0  0  0  0  0  0  0
   -2.3268   -8.6374   -1.2511 C   0  0  0  0  0  0  0  0  0  0  0  0
   -2.1883   -9.5902   -0.0576 C   0  0  0  0  0  0  0  0  0  0  0  0
   -3.5882  -12.4782   -4.8222 N   0  0  0  0  0  0  0  0  0  0  0  0
   -2.3175  -12.4918   -4.4655 C   0  0  0  0  0  0  0  0  0  0  0  0
   -0.9307   -9.2404    0.7454 C   0  0  0  0  0  0  0  0  0  0  0  0
    0.3122   -9.6859   -0.0305 C   0  0  0  0  0  0  0  0  0  0  0  0
   -1.7514  -11.4410   -3.7977 N   0  0  0  0  0  0  0  0  0  0  0  0
   -1.5547  -13.5733   -4.7699 N   0  0  0  0  0  0  0  0  0  0  0  0
    1.3259   -9.8204    0.7915 N   0  0  0  0  0  0  0  0  0  0  0  0
    1.7156  -11.0068    1.2171 C   0  0  0  0  0  0  0  0  0  0  0  0
    0.8778  -11.7393    1.9950 N   0  0  0  0  0  0  0  0  0  0  0  0
    2.9456  -11.5105    0.9019 N   0  0  0  0  0  0  0  0  0  0  0  0
   -6.4722   -9.9818   -3.6032 C   0  0  0  0  0  0  0  0  0  0  0  0
   -8.5416   -6.7808   -1.6740 O   0  0  0  0  0  0  0  0  0  0  0  0
   -5.8253   -9.2271   -2.5824 C   0  0  0  0  0  0  0  0  0  0  0  0
   -6.5189   -8.1687   -1.9367 C   0  0  0  0  0  0  0  0  0  0  0  0
   -7.8472   -7.8493   -2.3227 C   0  0  0  0  0  0  0  0  0  0  0  0
   -8.4863   -8.5887   -3.3541 C   0  0  0  0  0  0  0  0  0  0  0  0
   -7.7975   -9.6507   -4.0003 C   0  0  0  0  0  0  0  0  0  0  0  0
   -8.6895   -5.6848   -2.5815 C   0  0  0  0  0  0  0  0  0  0  0  0
  1  4  1  0  0  0  0
  2  3  1  0  0  0  0
  3  5  1  0  0  0  0
  4  6  1  0  0  0  0
  5  8  1  0  0  0  0
  6  7  1  0  0  0  0
  7 10  1  0  0  0  0
  8  9  1  0  0  0  0
  9 12  1  0  0  0  0
  9 13  1  0  0  0  0
 10 11  1  0  0  0  0
 11 14  1  0  0  0  0
 14 15  1  0  0  0  0
 15 16  1  0  0  0  0
 15 17  1  0  0  0  0
 18  2  1  0  0  0  0
 18 20  2  0  0  0  0
 18 24  1  0  0  0  0
 19 25  1  0  0  0  0
 20  1  1  0  0  0  0
 20 21  1  0  0  0  0
 21 22  2  0  0  0  0
 22 19  1  0  0  0  0
 22 23  1  0  0  0  0
 23 24  2  0  0  0  0
M  END
>  <CHROM.1>
-173.37556247,173.89918583,-46.24446355,-74.88015998,-108.48476942,-145.79838424
-73.35395642,71.76583501,145.95974511,-158.11642948,-158.60458751,101.54546394
-64.76714534,164.30699438,-160.36717405,-77.80780321,158.18673321,109.63604141
-3.50640362,-9.97313172,-2.14847796,3.01319828,0.46093818,-2.25288271

>  <Name>
1uud_lig

>  <RI>
0

>  <Rbt.Current_Directory>
/home/itssahil/PROJECTS/Mol_Feturizer/New_Systems/rnas/1uud

>  <Rbt.Executable>
rbdock ($Id: //depot/dev/client3/rdock/2013.1/src/exe/rbdock.cxx#4 $)

>  <Rbt.Library>
libRbt.so (2013.1, Build901 2013/11/27)

>  <Rbt.Parameter_File>
/export/apps/rDock/src/rDock_2013.1_src/data/scripts/dock_solv.prm

>  <Rbt.Receptor>
prm/pocket_docking_4.prm

>  <SCORE>
-33.8614

>  <SCORE.INTER>
-26.7087

>  <SCORE.INTER.CONST>
1

>  <SCORE.INTER.POLAR>
-3.60037

>  <SCORE.INTER.ROT>
18

>  <SCORE.INTER.SOLV>
11.4943

>  <SCORE.INTER.VDW>
-25.236

>  <SCORE.INTER.norm>
-1.06835

>  <SCORE.INTRA>
-7.15271

>  <SCORE.INTRA.DIHEDRAL>
-4.34415

>  <SCORE.INTRA.DIHEDRAL.0>
30.6762

>  <SCORE.INTRA.POLAR>
0.0288659

>  <SCORE.INTRA.POLAR.0>
-0.0288659

>  <SCORE.INTRA.REPUL>
0

>  <SCORE.INTRA.REPUL.0>
0

>  <SCORE.INTRA.SOLV>
-0.294472

>  <SCORE.INTRA.SOLV.lig_0>
-25.2195

>  <SCORE.INTRA.VDW>
-4.93154

>  <SCORE.INTRA.VDW.0>
4.14263

>  <SCORE.INTRA.norm>
-0.286108

>  <SCORE.RESTR>
0

>  <SCORE.RESTR.CAVITY>
0

>  <SCORE.RESTR.norm>
0

>  <SCORE.SYSTEM>
0

>  <SCORE.SYSTEM.CONST>
0

>  <SCORE.SYSTEM.DIHEDRAL>
0

>  <SCORE.SYSTEM.SOLV>
0

>  <SCORE.SYSTEM.norm>
0

>  <SCORE.heavy>
25

>  <SCORE.norm>
-1.35446

>  <RMSD>
1.827

$$$$
1uud_lig
 OpenBabel11021811413D
libRbt.so/2013.1/901 2013/11/27
 25 25  0  0  0  0  0  0  0  0999 V2000
   -3.0789  -10.6868   -2.7795 C   0  0  0  0  0  0  0  0  0  0  0  0
   -3.2529  -11.4848   -5.5965 O   0  0  0  0  0  0  0  0  0  0  0  0
   -3.4164  -12.5732   -4.6750 C   0  0  0  0  0  0  0  0  0  0  0  0
   -2.7226   -9.7823   -1.6582 N   0  0  0  0  0  0  0  0  0  0  0  0
   -2.5834  -13.7799   -5.1278 C   0  0  0  0  0  0  0  0  0  0  0  0
   -1.9687  -10.5340   -0.6270 C   0  0  0  0  0  0  0  0  0  0  0  0
   -1.3605   -9.5517    0.3814 C   0  0  0  0  0  0  0  0  0  0  0  0
   -3.1605  -14.3622   -6.1519 N   0  0  0  0  0  0  0  0  0  0  0  0
   -3.0081  -13.9061   -7.3810 C   0  0  0  0  0  0  0  0  0  0  0  0
   -0.2707   -8.7154   -0.2980 C   0  0  0  0  0  0  0  0  0  0  0  0
    1.0156   -9.5398   -0.4039 C   0  0  0  0  0  0  0  0  0  0  0  0
   -1.9561  -13.1001   -7.7190 N   0  0  0  0  0  0  0  0  0  0  0  0
   -3.9177  -14.2437   -8.3313 N   0  0  0  0  0  0  0  0  0  0  0  0
    1.4960   -9.7714    0.7948 N   0  0  0  0  0  0  0  0  0  0  0  0
    1.8113  -10.9909    1.1872 C   0  0  0  0  0  0  0  0  0  0  0  0
    0.8827  -11.7380    1.8377 N   0  0  0  0  0  0  0  0  0  0  0  0
    3.0528  -11.5151    0.9636 N   0  0  0  0  0  0  0  0  0  0  0  0
   -4.0114  -10.3504   -5.1581 C   0  0  0  0  0  0  0  0  0  0  0  0
   -6.3147   -6.9935   -3.8633 O   0  0  0  0  0  0  0  0  0  0  0  0
   -3.9595   -9.9322   -3.7970 C   0  0  0  0  0  0  0  0  0  0  0  0
   -4.7331   -8.8208   -3.3675 C   0  0  0  0  0  0  0  0  0  0  0  0
   -5.5403   -8.1143   -4.2974 C   0  0  0  0  0  0  0  0  0  0  0  0
   -5.5776   -8.5186   -5.6591 C   0  0  0  0  0  0  0  0  0  0  0  0
   -4.8081   -9.6321   -6.0925 C   0  0  0  0  0  0  0  0  0  0  0  0
   -7.3946   -7.4465   -3.0417 C   0  0  0  0  0  0  0  0  0  0  0  0
  1  4  1  0  0  0  0
  2  3  1  0  0  0  0
  3  5  1  0  0  0  0
  4  6  1  0  0  0  0
  5  8  1  0  0  0  0
  6  7  1  0  0  0  0
  7 10  1  0  0  0  0
  8  9  1  0  0  0  0
  9 12  1  0  0  0  0
  9 13  1  0  0  0  0
 10 11  1  0  0  0  0
 11 14  1  0  0  0  0
 14 15  1  0  0  0  0
 15 16  1  0  0  0  0
 15 17  1  0  0  0  0
 18  2  1  0  0  0  0
 18 20  2  0  0  0  0
 18 24  1  0  0  0  0
 19 25  1  0  0  0  0
 20  1  1  0  0  0  0
 20 21  1  0  0  0  0
 21 22  2  0  0  0  0
 22 19  1  0  0  0  0
 22 23  1  0  0  0  0
 23 24  2  0  0  0  0
M  END
>  <CHROM.1>
175.48791421,-178.89601559,-74.76314150,168.58966156,81.93780231,-67.63864089
-78.89019623,20.61773205,44.23716832,32.68595190,-66.43831739,128.59929465
-92.27483535,169.53630896,-168.12695935,46.28847770,155.51224231,-70.55726007
-2.53185179,-10.68904958,-3.20510544,2.43415212,0.63587619,-2.31212791

>  <Name>
1uud_lig

>  <RI>
0

>  <Rbt.Current_Directory>
/home/itssahil/PROJECTS/Mol_Feturizer/New_Systems/rnas/1uud

>  <Rbt.Executable>
rbdock ($Id: //depot/dev/client3/rdock/2013.1/src/exe/rbdock.cxx#4 $)

>  <Rbt.Library>
libRbt.so (2013.1, Build901 2013/11/27)

>  <Rbt.Parameter_File>
/export/apps/rDock/src/rDock_2013.1_src/data/scripts/dock_solv.prm

>  <Rbt.Receptor>
prm/pocket_docking_2.prm

>  <SCORE>
-34.4986

>  <SCORE.INTER>
-31.2912

>  <SCORE.INTER.CONST>
1

>  <SCORE.INTER.POLAR>
-4.73552

>  <SCORE.INTER.ROT>
18

>  <SCORE.INTER.SOLV>
12.4422

>  <SCORE.INTER.VDW>
-24.8231

>  <SCORE.INTER.norm>
-1.25165

>  <SCORE.INTRA>
-3.96394

>  <SCORE.INTRA.DIHEDRAL>
-10.7045

>  <SCORE.INTRA.DIHEDRAL.0>
30.6762

>  <SCORE.INTRA.POLAR>
0.0288659

>  <SCORE.INTRA.POLAR.0>
-0.0288659

>  <SCORE.INTRA.REPUL>
0

>  <SCORE.INTRA.REPUL.0>
0

>  <SCORE.INTRA.SOLV>
0.0359754

>  <SCORE.INTRA.SOLV.lig_0>
-25.2195

>  <SCORE.INTRA.VDW>
1.27215

>  <SCORE.INTRA.VDW.0>
4.14263

>  <SCORE.INTRA.norm>
-0.158558

>  <SCORE.RESTR>
0.756579

>  <SCORE.RESTR.CAVITY>
0.756579

>  <SCORE.RESTR.norm>
0.0302631

>  <SCORE.SYSTEM>
0

>  <SCORE.SYSTEM.CONST>
0

>  <SCORE.SYSTEM.DIHEDRAL>
0

>  <SCORE.SYSTEM.SOLV>
0

>  <SCORE.SYSTEM.norm>
0

>  <SCORE.heavy>
25

>  <SCORE.norm>
-1.37994

>  <RMSD>
1.908

$$$$
1uud_lig
 OpenBabel11021811413D
libRbt.so/2013.1/901 2013/11/27
 25 25  0  0  0  0  0  0  0  0999 V2000
   -4.6133   -8.6103   -2.3027 C   0  0  0  0  0  0  0  0  0  0  0  0
   -5.5409  -10.5973   -4.2505 O   0  0  0  0  0  0  0  0  0  0  0  0
   -5.1923  -10.3417   -5.6193 C   0  0  0  0  0  0  0  0  0  0  0  0
   -4.4227   -9.7183   -1.3341 N   0  0  0  0  0  0  0  0  0  0  0  0
   -4.0417  -11.2599   -6.0529 C   0  0  0  0  0  0  0  0  0  0  0  0
   -3.4913   -9.2936   -0.2623 C   0  0  0  0  0  0  0  0  0  0  0  0
   -2.4889  -10.4188    0.0217 C   0  0  0  0  0  0  0  0  0  0  0  0
   -2.9871  -11.0383   -5.3049 N   0  0  0  0  0  0  0  0  0  0  0  0
   -2.5678  -11.9263   -4.4231 C   0  0  0  0  0  0  0  0  0  0  0  0
   -1.4143   -9.9257    0.9969 C   0  0  0  0  0  0  0  0  0  0  0  0
   -0.1989  -10.8551    0.9316 C   0  0  0  0  0  0  0  0  0  0  0  0
   -2.6278  -11.6819   -3.0787 N   0  0  0  0  0  0  0  0  0  0  0  0
   -2.0639  -13.1089   -4.8608 N   0  0  0  0  0  0  0  0  0  0  0  0
    0.8684  -10.2232    1.3591 N   0  0  0  0  0  0  0  0  0  0  0  0
    2.0715  -10.7547    1.2565 C   0  0  0  0  0  0  0  0  0  0  0  0
    2.9187  -10.2961    0.2996 N   0  0  0  0  0  0  0  0  0  0  0  0
    2.4806  -11.7621    2.0835 N   0  0  0  0  0  0  0  0  0  0  0  0
   -6.4690   -9.6087   -3.7859 C   0  0  0  0  0  0  0  0  0  0  0  0
   -9.2638   -6.6990   -2.3812 O   0  0  0  0  0  0  0  0  0  0  0  0
   -6.0609   -8.6285   -2.8359 C   0  0  0  0  0  0  0  0  0  0  0  0
   -6.9947   -7.6674   -2.3642 C   0  0  0  0  0  0  0  0  0  0  0  0
   -8.3270   -7.6700   -2.8546 C   0  0  0  0  0  0  0  0  0  0  0  0
   -8.7296   -8.6351   -3.8167 C   0  0  0  0  0  0  0  0  0  0  0  0
   -7.7997   -9.6007   -4.2887 C   0  0  0  0  0  0  0  0  0  0  0  0
   -9.1777   -5.5186   -3.1849 C   0  0  0  0  0  0  0  0  0  0  0  0
  1  4  1  0  0  0  0
  2  3  1  0  0  0  0
  3  5  1  0  0  0  0
  4  6  1  0  0  0  0
  5  8  1  0  0  0  0
  6  7  1  0  0  0  0
  7 10  1  0  0  0  0
  8  9  1  0  0  0  0
  9 12  1  0  0  0  0
  9 13  1  0  0  0  0
 10 11  1  0  0  0  0
 11 14  1  0  0  0  0
 14 15  1  0  0  0  0
 15 16  1  0  0  0  0
 15 17  1  0  0  0  0
 18  2  1  0  0  0  0
 18 20  2  0  0  0  0
 18 24  1  0  0  0  0
 19 25  1  0  0  0  0
 20  1  1  0  0  0  0
 20 21  1  0  0  0  0
 21 22  2  0  0  0  0
 22 19  1  0  0  0  0
 22 23  1  0  0  0  0
 23 24  2  0  0  0  0
M  END
>  <CHROM.1>
-145.35820018,171.24721031,-60.39453943,-136.14723555,109.98184625,172.78430533
-161.91698223,-112.84359069,119.77203800,170.64617112,157.53684260,-172.00170109
104.45527254,-172.66784403,74.01549818,-109.47895853,-74.79360763,87.81600119
-3.72814457,-9.87725426,-2.20637822,2.91241287,0.47579644,-2.10900775

>  <Name>
1uud_lig

>  <RI>
0

>  <Rbt.Current_Directory>
/home/itssahil/PROJECTS/Mol_Feturizer/New_Systems/rnas/1uud

>  <Rbt.Executable>
rbdock ($Id: //depot/dev/client3/rdock/2013.1/src/exe/rbdock.cxx#4 $)

>  <Rbt.Library>
libRbt.so (2013.1, Build901 2013/11/27)

>  <Rbt.Parameter_File>
/export/apps/rDock/src/rDock_2013.1_src/data/scripts/dock_solv.prm

>  <Rbt.Receptor>
prm/pocket_docking_4.prm

>  <SCORE>
-36.9564

>  <SCORE.INTER>
-26.3401

>  <SCORE.INTER.CONST>
1

>  <SCORE.INTER.POLAR>
-3.44034

>  <SCORE.INTER.ROT>
18

>  <SCORE.INTER.SOLV>
12.5499

>  <SCORE.INTER.VDW>
-25.8756

>  <SCORE.INTER.norm>
-1.0536

>  <SCORE.INTRA>
-10.6163

>  <SCORE.INTRA.DIHEDRAL>
-2.51734

>  <SCORE.INTRA.DIHEDRAL.0>
30.6762

>  <SCORE.INTRA.POLAR>
-0.957818

>  <SCORE.INTRA.POLAR.0>
-0.0288659

>  <SCORE.INTRA.REPUL>
0

>  <SCORE.INTRA.REPUL.0>
0

>  <SCORE.INTRA.SOLV>
0.18986

>  <SCORE.INTRA.SOLV.lig_0>
-25.2195

>  <SCORE.INTRA.VDW>
-6.196

>  <SCORE.INTRA.VDW.0>
4.14263

>  <SCORE.INTRA.norm>
-0.424653

>  <SCORE.RESTR>
0

>  <SCORE.RESTR.CAVITY>
0

>  <SCORE.RESTR.norm>
0

>  <SCORE.SYSTEM>
0

>  <SCORE.SYSTEM.CONST>
0

>  <SCORE.SYSTEM.DIHEDRAL>
0

>  <SCORE.SYSTEM.SOLV>
0

>  <SCORE.SYSTEM.norm>
0

>  <SCORE.heavy>
25

>  <SCORE.norm>
-1.47826

>  <RMSD>
1.937

$$$$
1uud_lig
 OpenBabel11021811413D
libRbt.so/2013.1/901 2013/11/27
 25 25  0  0  0  0  0  0  0  0999 V2000
   -4.9659   -7.6691   -2.1931 C   0  0  0  0  0  0  0  0  0  0  0  0
   -5.2906  -10.2020   -3.6360 O   0  0  0  0  0  0  0  0  0  0  0  0
   -5.0998  -10.4316   -5.0399 C   0  0  0  0  0  0  0  0  0  0  0  0
   -4.3199   -8.7599   -1.4217 N   0  0  0  0  0  0  0  0  0  0  0  0
   -4.3052  -11.7257   -5.2616 C   0  0  0  0  0  0  0  0  0  0  0  0
   -3.1568   -8.2256   -0.6744 C   0  0  0  0  0  0  0  0  0  0  0  0
   -2.3766   -9.3849   -0.0427 C   0  0  0  0  0  0  0  0  0  0  0  0
   -3.3797  -11.5316   -6.1707 N   0  0  0  0  0  0  0  0  0  0  0  0
   -3.5408  -11.9362   -7.4167 C   0  0  0  0  0  0  0  0  0  0  0  0
   -1.6277   -8.8928    1.2006 C   0  0  0  0  0  0  0  0  0  0  0  0
   -0.5660   -9.9220    1.5990 C   0  0  0  0  0  0  0  0  0  0  0  0
   -2.7959  -12.9578   -7.9383 N   0  0  0  0  0  0  0  0  0  0  0  0
   -4.4663  -11.3230   -8.1987 N   0  0  0  0  0  0  0  0  0  0  0  0
    0.5443   -9.6955    0.9378 N   0  0  0  0  0  0  0  0  0  0  0  0
    1.4109  -10.6600    0.6947 C   0  0  0  0  0  0  0  0  0  0  0  0
    2.6538  -10.3377    0.2530 N   0  0  0  0  0  0  0  0  0  0  0  0
    1.0837  -11.9750    0.8672 N   0  0  0  0  0  0  0  0  0  0  0  0
   -6.4467   -9.3817   -3.4239 C   0  0  0  0  0  0  0  0  0  0  0  0
   -9.9132   -6.9737   -2.7640 O   0  0  0  0  0  0  0  0  0  0  0  0
   -6.3339   -8.1463   -2.7232 C   0  0  0  0  0  0  0  0  0  0  0  0
   -7.4898   -7.3517   -2.4978 C   0  0  0  0  0  0  0  0  0  0  0  0
   -8.7521   -7.7774   -2.9886 C   0  0  0  0  0  0  0  0  0  0  0  0
   -8.8622   -8.9998   -3.7045 C   0  0  0  0  0  0  0  0  0  0  0  0
   -7.7091   -9.7997   -3.9292 C   0  0  0  0  0  0  0  0  0  0  0  0
   -9.6804   -5.6488   -3.2506 C   0  0  0  0  0  0  0  0  0  0  0  0
  1  4  1  0  0  0  0
  2  3  1  0  0  0  0
  3  5  1  0  0  0  0
  4  6  1  0  0  0  0
  5  8  1  0  0  0  0
  6  7  1  0  0  0  0
  7 10  1  0  0  0  0
  8  9  1  0  0  0  0
  9 12  1  0  0  0  0
  9 13  1  0  0  0  0
 10 11  1  0  0  0  0
 11 14  1  0  0  0  0
 14 15  1  0  0  0  0
 15 16  1  0  0  0  0
 15 17  1  0  0  0  0
 18  2  1  0  0  0  0
 18 20  2  0  0  0  0
 18 24  1  0  0  0  0
 19 25  1  0  0  0  0
 20  1  1  0  0  0  0
 20 21  1  0  0  0  0
 21 22  2  0  0  0  0
 22 19  1  0  0  0  0
 22 23  1  0  0  0  0
 23 24  2  0  0  0  0
M  END
>  <CHROM.1>
-167.98405439,-155.64860501,-135.60130991,-171.95118340,-101.04537310,-153.70063400
-164.55035830,-111.36826582,3.06934106,99.91511083,86.55031446,-154.09876905
-166.81246090,143.23767125,-157.31099129,-122.51820587,-50.28509044,54.67638525
-4.11071816,-9.63282277,-2.71994781,2.76832316,0.42716675,-2.05003443

>  <Name>
1uud_lig

>  <RI>
0

>  <Rbt.Current_Directory>
/home/itssahil/PROJECTS/Mol_Feturizer/New_Systems/rnas/1uud

>  <Rbt.Executable>
rbdock ($Id: //depot/dev/client3/rdock/2013.1/src/exe/rbdock.cxx#4 $)

>  <Rbt.Library>
libRbt.so (2013.1, Build901 2013/11/27)

>  <Rbt.Parameter_File>
/export/apps/rDock/src/rDock_2013.1_src/data/scripts/dock_solv.prm

>  <Rbt.Receptor>
prm/pocket_docking_4.prm

>  <SCORE>
-31.1819

>  <SCORE.INTER>
-26.0432

>  <SCORE.INTER.CONST>
1

>  <SCORE.INTER.POLAR>
-3.57109

>  <SCORE.INTER.ROT>
18

>  <SCORE.INTER.SOLV>
11.3929

>  <SCORE.INTER.VDW>
-24.8562

>  <SCORE.INTER.norm>
-1.04173

>  <SCORE.INTRA>
-5.13866

>  <SCORE.INTRA.DIHEDRAL>
-0.614205

>  <SCORE.INTRA.DIHEDRAL.0>
30.6762

>  <SCORE.INTRA.POLAR>
-0.380796

>  <SCORE.INTRA.POLAR.0>
-0.0288659

>  <SCORE.INTRA.REPUL>
0

>  <SCORE.INTRA.REPUL.0>
0

>  <SCORE.INTRA.SOLV>
-1.00361

>  <SCORE.INTRA.SOLV.lig_0>
-25.2195

>  <SCORE.INTRA.VDW>
-3.03505

>  <SCORE.INTRA.VDW.0>
4.14263

>  <SCORE.INTRA.norm>
-0.205546

>  <SCORE.RESTR>
0

>  <SCORE.RESTR.CAVITY>
0

>  <SCORE.RESTR.norm>
0

>  <SCORE.SYSTEM>
0

>  <SCORE.SYSTEM.CONST>
0

>  <SCORE.SYSTEM.DIHEDRAL>
0

>  <SCORE.SYSTEM.SOLV>
0

>  <SCORE.SYSTEM.norm>
0

>  <SCORE.heavy>
25

>  <SCORE.norm>
-1.24728

>  <RMSD>
1.938

$$$$
1uud_lig
 OpenBabel11021811413D
libRbt.so/2013.1/901 2013/11/27
 25 25  0  0  0  0  0  0  0  0999 V2000
   -4.1472   -8.9971   -2.3092 C   0  0  0  0  0  0  0  0  0  0  0  0
   -5.3622  -11.3819   -3.5089 O   0  0  0  0  0  0  0  0  0  0  0  0
   -4.6423  -11.1464   -4.7282 C   0  0  0  0  0  0  0  0  0  0  0  0
   -3.7005  -10.2456   -1.6430 N   0  0  0  0  0  0  0  0  0  0  0  0
   -3.9563  -12.4372   -5.1957 C   0  0  0  0  0  0  0  0  0  0  0  0
   -2.2471  -10.4384   -1.8606 C   0  0  0  0  0  0  0  0  0  0  0  0
   -1.4608   -9.5779   -0.8641 C   0  0  0  0  0  0  0  0  0  0  0  0
   -3.0734  -12.8218   -4.3050 N   0  0  0  0  0  0  0  0  0  0  0  0
   -1.9759  -13.4661   -4.6549 C   0  0  0  0  0  0  0  0  0  0  0  0
    0.0422   -9.7142   -1.1304 C   0  0  0  0  0  0  0  0  0  0  0  0
    0.8230   -8.9410   -0.0638 C   0  0  0  0  0  0  0  0  0  0  0  0
   -0.7823  -12.8154   -4.8051 N   0  0  0  0  0  0  0  0  0  0  0  0
   -2.0337  -14.8054   -4.8721 N   0  0  0  0  0  0  0  0  0  0  0  0
    0.5903   -9.4566    1.1199 N   0  0  0  0  0  0  0  0  0  0  0  0
    0.7865  -10.7381    1.3643 C   0  0  0  0  0  0  0  0  0  0  0  0
    2.0550  -11.2220    1.3831 N   0  0  0  0  0  0  0  0  0  0  0  0
   -0.2569  -11.5909    1.5885 N   0  0  0  0  0  0  0  0  0  0  0  0
   -6.2042  -10.2611   -3.2100 C   0  0  0  0  0  0  0  0  0  0  0  0
   -8.7398   -6.9493   -2.2864 O   0  0  0  0  0  0  0  0  0  0  0  0
   -5.6554   -9.0851   -2.6221 C   0  0  0  0  0  0  0  0  0  0  0  0
   -6.5024   -7.9886   -2.3082 C   0  0  0  0  0  0  0  0  0  0  0  0
   -7.8902   -8.0559   -2.5996 C   0  0  0  0  0  0  0  0  0  0  0  0
   -8.4351   -9.2208   -3.2038 C   0  0  0  0  0  0  0  0  0  0  0  0
   -7.5921  -10.3215   -3.5163 C   0  0  0  0  0  0  0  0  0  0  0  0
   -8.5747   -5.9248   -3.2712 C   0  0  0  0  0  0  0  0  0  0  0  0
  1  4  1  0  0  0  0
  2  3  1  0  0  0  0
  3  5  1  0  0  0  0
  4  6  1  0  0  0  0
  5  8  1  0  0  0  0
  6  7  1  0  0  0  0
  7 10  1  0  0  0  0
  8  9  1  0  0  0  0
  9 12  1  0  0  0  0
  9 13  1  0  0  0  0
 10 11  1  0  0  0  0
 11 14  1  0  0  0  0
 14 15  1  0  0  0  0
 15 16  1  0  0  0  0
 15 17  1  0  0  0  0
 18  2  1  0  0  0  0
 18 20  2  0  0  0  0
 18 24  1  0  0  0  0
 19 25  1  0  0  0  0
 20  1  1  0  0  0  0
 20 21  1  0  0  0  0
 21 22  2  0  0  0  0
 22 19  1  0  0  0  0
 22 23  1  0  0  0  0
 23 24  2  0  0  0  0
M  END
>  <CHROM.1>
155.68088489,-168.98510138,-62.69971424,80.95920641,-148.70938903,-177.02770792
-175.56343216,97.91930817,-24.05186364,27.68150801,62.50947266,54.73819591
68.89706921,27.29536989,157.87656176,-79.22038755,-45.92181884,77.78897646
-3.45668639,-10.35833551,-2.27072090,3.10870245,0.45319058,-2.36494648

>  <Name>
1uud_lig

>  <RI>
0

>  <Rbt.Current_Directory>
/home/itssahil/PROJECTS/Mol_Feturizer/New_Systems/rnas/1uud

>  <Rbt.Executable>
rbdock ($Id: //depot/dev/client3/rdock/2013.1/src/exe/rbdock.cxx#4 $)

>  <Rbt.Library>
libRbt.so (2013.1, Build901 2013/11/27)

>  <Rbt.Parameter_File>
/export/apps/rDock/src/rDock_2013.1_src/data/scripts/dock_solv.prm

>  <Rbt.Receptor>
prm/pocket_docking_5.prm

>  <SCORE>
-38.1087

>  <SCORE.INTER>
-28.4081

>  <SCORE.INTER.CONST>
1

>  <SCORE.INTER.POLAR>
-3.9723

>  <SCORE.INTER.ROT>
18

>  <SCORE.INTER.SOLV>
11.4953

>  <SCORE.INTER.VDW>
-25.1295

>  <SCORE.INTER.norm>
-1.13632

>  <SCORE.INTRA>
-9.70059

>  <SCORE.INTRA.DIHEDRAL>
-8.11349

>  <SCORE.INTRA.DIHEDRAL.0>
30.6762

>  <SCORE.INTRA.POLAR>
-0.522985

>  <SCORE.INTRA.POLAR.0>
-0.0288659

>  <SCORE.INTRA.REPUL>
0.0322511

>  <SCORE.INTRA.REPUL.0>
0

>  <SCORE.INTRA.SOLV>
0.411098

>  <SCORE.INTRA.SOLV.lig_0>
-25.2195

>  <SCORE.INTRA.VDW>
-4.2325

>  <SCORE.INTRA.VDW.0>
4.14263

>  <SCORE.INTRA.norm>
-0.388024

>  <SCORE.RESTR>
0

>  <SCORE.RESTR.CAVITY>
0

>  <SCORE.RESTR.norm>
0

>  <SCORE.SYSTEM>
0

>  <SCORE.SYSTEM.CONST>
0

>  <SCORE.SYSTEM.DIHEDRAL>
0

>  <SCORE.SYSTEM.SOLV>
0

>  <SCORE.SYSTEM.norm>
0

>  <SCORE.heavy>
25

>  <SCORE.norm>
-1.52435

>  <RMSD>
1.942

$$$$
1uud_lig
 OpenBabel11021811413D
libRbt.so/2013.1/901 2013/11/27
 25 25  0  0  0  0  0  0  0  0999 V2000
   -3.5602  -10.6586   -2.5389 C   0  0  0  0  0  0  0  0  0  0  0  0
   -4.3764  -11.7594   -5.1321 O   0  0  0  0  0  0  0  0  0  0  0  0
   -3.0262  -11.3551   -5.4040 C   0  0  0  0  0  0  0  0  0  0  0  0
   -3.5342  -10.0607   -1.1810 N   0  0  0  0  0  0  0  0  0  0  0  0
   -2.2926  -12.4521   -6.1872 C   0  0  0  0  0  0  0  0  0  0  0  0
   -2.3321  -10.5270   -0.4500 C   0  0  0  0  0  0  0  0  0  0  0  0
   -2.4489  -10.1394    1.0291 C   0  0  0  0  0  0  0  0  0  0  0  0
   -2.9151  -12.6861   -7.3179 N   0  0  0  0  0  0  0  0  0  0  0  0
   -2.9977  -13.9035   -7.8210 C   0  0  0  0  0  0  0  0  0  0  0  0
   -1.2789  -10.7369    1.8184 C   0  0  0  0  0  0  0  0  0  0  0  0
    0.0207  -10.0320    1.4190 C   0  0  0  0  0  0  0  0  0  0  0  0
   -2.0899  -14.3620   -8.7355 N   0  0  0  0  0  0  0  0  0  0  0  0
   -4.0079  -14.7189   -7.4223 N   0  0  0  0  0  0  0  0  0  0  0  0
    0.7910  -10.8607    0.7549 N   0  0  0  0  0  0  0  0  0  0  0  0
    2.0637  -11.0175    1.0649 C   0  0  0  0  0  0  0  0  0  0  0  0
    3.0058  -10.3441    0.3560 N   0  0  0  0  0  0  0  0  0  0  0  0
    2.4559  -11.8490    2.0753 N   0  0  0  0  0  0  0  0  0  0  0  0
   -5.1199  -10.6602   -4.5902 C   0  0  0  0  0  0  0  0  0  0  0  0
   -7.3769   -7.4136   -2.9730 O   0  0  0  0  0  0  0  0  0  0  0  0
   -4.7601  -10.0991   -3.3310 C   0  0  0  0  0  0  0  0  0  0  0  0
   -5.5177   -9.0251   -2.7917 C   0  0  0  0  0  0  0  0  0  0  0  0
   -6.6186   -8.4974   -3.5161 C   0  0  0  0  0  0  0  0  0  0  0  0
   -6.9662   -9.0434   -4.7810 C   0  0  0  0  0  0  0  0  0  0  0  0
   -6.2133  -10.1203   -5.3228 C   0  0  0  0  0  0  0  0  0  0  0  0
   -6.9064   -6.1782   -3.5196 C   0  0  0  0  0  0  0  0  0  0  0  0
  1  4  1  0  0  0  0
  2  3  1  0  0  0  0
  3  5  1  0  0  0  0
  4  6  1  0  0  0  0
  5  8  1  0  0  0  0
  6  7  1  0  0  0  0
  7 10  1  0  0  0  0
  8  9  1  0  0  0  0
  9 12  1  0  0  0  0
  9 13  1  0  0  0  0
 10 11  1  0  0  0  0
 11 14  1  0  0  0  0
 14 15  1  0  0  0  0
 15 16  1  0  0  0  0
 15 17  1  0  0  0  0
 18  2  1  0  0  0  0
 18 20  2  0  0  0  0
 18 24  1  0  0  0  0
 19 25  1  0  0  0  0
 20  1  1  0  0  0  0
 20 21  1  0  0  0  0
 21 22  2  0  0  0  0
 22 19  1  0  0  0  0
 22 23  1  0  0  0  0
 23 24  2  0  0  0  0
M  END
>  <CHROM.1>
-176.24000059,-170.96709559,59.27300993,-168.80410417,-143.69997934,174.43294611
69.29306009,-93.78613600,98.46833600,-88.65555255,-111.18406010,-130.91773591
-97.99821992,17.50323981,54.79934139,-64.05797380,-170.76664180,96.59814138
-2.95754141,-10.78144606,-2.97009376,2.35788041,0.53271622,-2.12798941

>  <Name>
1uud_lig

>  <RI>
0

>  <Rbt.Current_Directory>
/home/itssahil/PROJECTS/Mol_Feturizer/New_Systems/rnas/1uud

>  <Rbt.Executable>
rbdock ($Id: //depot/dev/client3/rdock/2013.1/src/exe/rbdock.cxx#4 $)

>  <Rbt.Library>
libRbt.so (2013.1, Build901 2013/11/27)

>  <Rbt.Parameter_File>
/export/apps/rDock/src/rDock_2013.1_src/data/scripts/dock_solv.prm

>  <Rbt.Receptor>
prm/pocket_docking_2.prm

>  <SCORE>
-33.9653

>  <SCORE.INTER>
-29.1316

>  <SCORE.INTER.CONST>
1

>  <SCORE.INTER.POLAR>
-4.65286

>  <SCORE.INTER.ROT>
18

>  <SCORE.INTER.SOLV>
13.3262

>  <SCORE.INTER.VDW>
-23.9536

>  <SCORE.INTER.norm>
-1.16526

>  <SCORE.INTRA>
-6.60958

>  <SCORE.INTRA.DIHEDRAL>
-5.26836

>  <SCORE.INTRA.DIHEDRAL.0>
30.6762

>  <SCORE.INTRA.POLAR>
0.0288659

>  <SCORE.INTRA.POLAR.0>
-0.0288659

>  <SCORE.INTRA.REPUL>
0

>  <SCORE.INTRA.REPUL.0>
0

>  <SCORE.INTRA.SOLV>
-0.917394

>  <SCORE.INTRA.SOLV.lig_0>
-25.2195

>  <SCORE.INTRA.VDW>
-3.61485

>  <SCORE.INTRA.VDW.0>
4.14263

>  <SCORE.INTRA.norm>
-0.264383

>  <SCORE.RESTR>
1.77587

>  <SCORE.RESTR.CAVITY>
1.77587

>  <SCORE.RESTR.norm>
0.0710349

>  <SCORE.SYSTEM>
0

>  <SCORE.SYSTEM.CONST>
0

>  <SCORE.SYSTEM.DIHEDRAL>
0

>  <SCORE.SYSTEM.SOLV>
0

>  <SCORE.SYSTEM.norm>
0

>  <SCORE.heavy>
25

>  <SCORE.norm>
-1.35861

>  <RMSD>
1.953

$$$$
1uud_lig
 OpenBabel11021811413D
libRbt.so/2013.1/901 2013/11/27
 25 25  0  0  0  0  0  0  0  0999 V2000
   -3.1323   -9.9636   -3.2786 C   0  0  0  0  0  0  0  0  0  0  0  0
   -4.0752   -9.8268   -6.0525 O   0  0  0  0  0  0  0  0  0  0  0  0
   -4.1519  -11.2293   -6.3485 C   0  0  0  0  0  0  0  0  0  0  0  0
   -3.0918  -10.4798   -1.8879 N   0  0  0  0  0  0  0  0  0  0  0  0
   -3.0684  -11.9934   -5.5757 C   0  0  0  0  0  0  0  0  0  0  0  0
   -1.7932  -10.1351   -1.2621 C   0  0  0  0  0  0  0  0  0  0  0  0
   -1.7308   -8.6238   -1.0096 C   0  0  0  0  0  0  0  0  0  0  0  0
   -2.8594  -13.1610   -6.1360 N   0  0  0  0  0  0  0  0  0  0  0  0
   -2.0566  -14.0548   -5.5894 C   0  0  0  0  0  0  0  0  0  0  0  0
   -0.3516   -8.2438   -0.4598 C   0  0  0  0  0  0  0  0  0  0  0  0
   -0.2726   -8.6139    1.0241 C   0  0  0  0  0  0  0  0  0  0  0  0
   -2.2816  -15.3968   -5.7278 N   0  0  0  0  0  0  0  0  0  0  0  0
   -0.9837  -13.6321   -4.8723 N   0  0  0  0  0  0  0  0  0  0  0  0
   -0.2531   -9.9189    1.1573 N   0  0  0  0  0  0  0  0  0  0  0  0
    0.8708  -10.6041    1.0694 C   0  0  0  0  0  0  0  0  0  0  0  0
    0.8376  -11.9530    1.2211 N   0  0  0  0  0  0  0  0  0  0  0  0
    2.0678   -9.9872    0.8398 N   0  0  0  0  0  0  0  0  0  0  0  0
   -4.9909   -9.4947   -5.0009 C   0  0  0  0  0  0  0  0  0  0  0  0
   -7.7492   -8.5438   -1.8804 O   0  0  0  0  0  0  0  0  0  0  0  0
   -4.5751   -9.5532   -3.6395 C   0  0  0  0  0  0  0  0  0  0  0  0
   -5.4969   -9.2447   -2.6035 C   0  0  0  0  0  0  0  0  0  0  0  0
   -6.8245   -8.8578   -2.9249 C   0  0  0  0  0  0  0  0  0  0  0  0
   -7.2345   -8.7803   -4.2832 C   0  0  0  0  0  0  0  0  0  0  0  0
   -6.3166   -9.0916   -5.3227 C   0  0  0  0  0  0  0  0  0  0  0  0
   -7.9954   -7.1347   -1.8660 C   0  0  0  0  0  0  0  0  0  0  0  0
  1  4  1  0  0  0  0
  2  3  1  0  0  0  0
  3  5  1  0  0  0  0
  4  6  1  0  0  0  0
  5  8  1  0  0  0  0
  6  7  1  0  0  0  0
  7 10  1  0  0  0  0
  8  9  1  0  0  0  0
  9 12  1  0  0  0  0
  9 13  1  0  0  0  0
 10 11  1  0  0  0  0
 11 14  1  0  0  0  0
 14 15  1  0  0  0  0
 15 16  1  0  0  0  0
 15 17  1  0  0  0  0
 18  2  1  0  0  0  0
 18 20  2  0  0  0  0
 18 24  1  0  0  0  0
 19 25  1  0  0  0  0
 20  1  1  0  0  0  0
 20 21  1  0  0  0  0
 21 22  2  0  0  0  0
 22 19  1  0  0  0  0
 22 23  1  0  0  0  0
 23 24  2  0  0  0  0
M  END
>  <CHROM.1>
-146.89635598,-95.10573628,-160.46208196,70.17971452,-173.98370662,-175.78509541
-77.61452205,148.10864480,134.78297105,-97.39908043,69.51074605,84.81739903
179.68969736,-167.46713161,47.27321709,89.92762465,-156.98356642,108.56113767
-3.01789452,-10.40450446,-2.77834578,2.62606491,0.50685838,-2.24677332

>  <Name>
1uud_lig

>  <RI>
0

>  <Rbt.Current_Directory>
/home/itssahil/PROJECTS/Mol_Feturizer/New_Systems/rnas/1uud

>  <Rbt.Executable>
rbdock ($Id: //depot/dev/client3/rdock/2013.1/src/exe/rbdock.cxx#4 $)

>  <Rbt.Library>
libRbt.so (2013.1, Build901 2013/11/27)

>  <Rbt.Parameter_File>
/export/apps/rDock/src/rDock_2013.1_src/data/scripts/dock_solv.prm

>  <Rbt.Receptor>
prm/pocket_docking_3.prm

>  <SCORE>
-22.6439

>  <SCORE.INTER>
-22.4218

>  <SCORE.INTER.CONST>
1

>  <SCORE.INTER.POLAR>
-3.93285

>  <SCORE.INTER.ROT>
18

>  <SCORE.INTER.SOLV>
10.2434

>  <SCORE.INTER.VDW>
-20.8528

>  <SCORE.INTER.norm>
-0.896872

>  <SCORE.INTRA>
-0.222115

>  <SCORE.INTRA.DIHEDRAL>
-1.40093

>  <SCORE.INTRA.DIHEDRAL.0>
30.6762

>  <SCORE.INTRA.POLAR>
0.0288659

>  <SCORE.INTRA.POLAR.0>
-0.0288659

>  <SCORE.INTRA.REPUL>
0

>  <SCORE.INTRA.REPUL.0>
0

>  <SCORE.INTRA.SOLV>
-0.637692

>  <SCORE.INTRA.SOLV.lig_0>
-25.2195

>  <SCORE.INTRA.VDW>
0.699052

>  <SCORE.INTRA.VDW.0>
4.14263

>  <SCORE.INTRA.norm>
-0.00888459

>  <SCORE.RESTR>
0

>  <SCORE.RESTR.CAVITY>
0

>  <SCORE.RESTR.norm>
0

>  <SCORE.SYSTEM>
0

>  <SCORE.SYSTEM.CONST>
0

>  <SCORE.SYSTEM.DIHEDRAL>
0

>  <SCORE.SYSTEM.SOLV>
0

>  <SCORE.SYSTEM.norm>
0

>  <SCORE.heavy>
25

>  <SCORE.norm>
-0.905756

>  <RMSD>
1.964

$$$$
1uud_lig
 OpenBabel11021811413D
libRbt.so/2013.1/901 2013/11/27
 25 25  0  0  0  0  0  0  0  0999 V2000
   -4.4219  -10.3672   -2.7057 C   0  0  0  0  0  0  0  0  0  0  0  0
   -4.9449  -10.6680   -5.5760 O   0  0  0  0  0  0  0  0  0  0  0  0
   -3.5832  -10.9628   -5.9212 C   0  0  0  0  0  0  0  0  0  0  0  0
   -3.2583  -10.0126   -1.8557 N   0  0  0  0  0  0  0  0  0  0  0  0
   -3.4883  -12.3556   -6.5585 C   0  0  0  0  0  0  0  0  0  0  0  0
   -3.6070  -10.1930   -0.4266 C   0  0  0  0  0  0  0  0  0  0  0  0
   -3.0803   -9.0026    0.3841 C   0  0  0  0  0  0  0  0  0  0  0  0
   -4.0892  -12.3552   -7.7246 N   0  0  0  0  0  0  0  0  0  0  0  0
   -3.6766  -13.1256   -8.7137 C   0  0  0  0  0  0  0  0  0  0  0  0
   -1.8644   -9.4329    1.2118 C   0  0  0  0  0  0  0  0  0  0  0  0
   -0.6525   -9.6021    0.2911 C   0  0  0  0  0  0  0  0  0  0  0  0
   -2.5310  -12.8465   -9.4069 N   0  0  0  0  0  0  0  0  0  0  0  0
   -4.4070  -14.2194   -9.0515 N   0  0  0  0  0  0  0  0  0  0  0  0
    0.4436   -9.6819    1.0076 N   0  0  0  0  0  0  0  0  0  0  0  0
    1.3508  -10.6119    0.7784 C   0  0  0  0  0  0  0  0  0  0  0  0
    2.5718  -10.2450    0.3113 N   0  0  0  0  0  0  0  0  0  0  0  0
    1.0870  -11.9354    0.9902 N   0  0  0  0  0  0  0  0  0  0  0  0
   -5.0340   -9.3597   -4.9972 C   0  0  0  0  0  0  0  0  0  0  0  0
   -5.3485   -5.4587   -3.2843 O   0  0  0  0  0  0  0  0  0  0  0  0
   -4.7927   -9.1703   -3.6058 C   0  0  0  0  0  0  0  0  0  0  0  0
   -4.9063   -7.8733   -3.0374 C   0  0  0  0  0  0  0  0  0  0  0  0
   -5.2388   -6.7638   -3.8582 C   0  0  0  0  0  0  0  0  0  0  0  0
   -5.4605   -6.9485   -5.2495 C   0  0  0  0  0  0  0  0  0  0  0  0
   -5.3514   -8.2449   -5.8219 C   0  0  0  0  0  0  0  0  0  0  0  0
   -6.6647   -4.9453   -3.5093 C   0  0  0  0  0  0  0  0  0  0  0  0
  1  4  1  0  0  0  0
  2  3  1  0  0  0  0
  3  5  1  0  0  0  0
  4  6  1  0  0  0  0
  5  8  1  0  0  0  0
  6  7  1  0  0  0  0
  7 10  1  0  0  0  0
  8  9  1  0  0  0  0
  9 12  1  0  0  0  0
  9 13  1  0  0  0  0
 10 11  1  0  0  0  0
 11 14  1  0  0  0  0
 14 15  1  0  0  0  0
 15 16  1  0  0  0  0
 15 17  1  0  0  0  0
 18  2  1  0  0  0  0
 18 20  2  0  0  0  0
 18 24  1  0  0  0  0
 19 25  1  0  0  0  0
 20  1  1  0  0  0  0
 20 21  1  0  0  0  0
 21 22  2  0  0  0  0
 22 19  1  0  0  0  0
 22 23  1  0  0  0  0
 23 24  2  0  0  0  0
M  END
>  <CHROM.1>
123.29320753,-179.23632447,67.45556965,-136.60236715,148.34317593,-106.69520997
73.92518599,-73.51056351,-14.58207452,166.93536669,166.34247753,133.22185882
113.10542077,156.45054946,15.46645599,-84.89995353,132.95242326,-120.93666561
-3.16736620,-9.91413441,-3.45016401,0.91473871,-0.73899676,0.90994262

>  <Name>
1uud_lig

>  <RI>
0

>  <Rbt.Current_Directory>
/home/itssahil/PROJECTS/Mol_Feturizer/New_Systems/rnas/1uud

>  <Rbt.Executable>
rbdock ($Id: //depot/dev/client3/rdock/2013.1/src/exe/rbdock.cxx#4 $)

>  <Rbt.Library>
libRbt.so (2013.1, Build901 2013/11/27)

>  <Rbt.Parameter_File>
/export/apps/rDock/src/rDock_2013.1_src/data/scripts/dock_solv.prm

>  <Rbt.Receptor>
prm/pocket_docking_5.prm

>  <SCORE>
-33.516

>  <SCORE.INTER>
-29.9053

>  <SCORE.INTER.CONST>
1

>  <SCORE.INTER.POLAR>
-4.52463

>  <SCORE.INTER.ROT>
18

>  <SCORE.INTER.SOLV>
14.0194

>  <SCORE.INTER.VDW>
-25.1279

>  <SCORE.INTER.norm>
-1.19621

>  <SCORE.INTRA>
-3.61076

>  <SCORE.INTRA.DIHEDRAL>
0.995041

>  <SCORE.INTRA.DIHEDRAL.0>
30.6762

>  <SCORE.INTRA.POLAR>
0.0288659

>  <SCORE.INTRA.POLAR.0>
-0.0288659

>  <SCORE.INTRA.REPUL>
0

>  <SCORE.INTRA.REPUL.0>
0

>  <SCORE.INTRA.SOLV>
-1.15077

>  <SCORE.INTRA.SOLV.lig_0>
-25.2195

>  <SCORE.INTRA.VDW>
-3.63103

>  <SCORE.INTRA.VDW.0>
4.14263

>  <SCORE.INTRA.norm>
-0.14443

>  <SCORE.RESTR>
0

>  <SCORE.RESTR.CAVITY>
0

>  <SCORE.RESTR.norm>
0

>  <SCORE.SYSTEM>
0

>  <SCORE.SYSTEM.CONST>
0

>  <SCORE.SYSTEM.DIHEDRAL>
0

>  <SCORE.SYSTEM.SOLV>
0

>  <SCORE.SYSTEM.norm>
0

>  <SCORE.heavy>
25

>  <SCORE.norm>
-1.34064

>  <RMSD>
2.001

$$$$
1uud_lig
 OpenBabel11021811413D
libRbt.so/2013.1/901 2013/11/27
 25 25  0  0  0  0  0  0  0  0999 V2000
   -3.7420   -9.9444   -1.5395 C   0  0  0  0  0  0  0  0  0  0  0  0
   -3.2735  -10.8232   -4.2983 O   0  0  0  0  0  0  0  0  0  0  0  0
   -3.1160  -10.8580   -5.7245 C   0  0  0  0  0  0  0  0  0  0  0  0
   -4.2374   -9.3246   -0.2855 N   0  0  0  0  0  0  0  0  0  0  0  0
   -3.6139  -12.1994   -6.2796 C   0  0  0  0  0  0  0  0  0  0  0  0
   -3.2176   -9.4647    0.7808 C   0  0  0  0  0  0  0  0  0  0  0  0
   -1.9684   -8.6586    0.4048 C   0  0  0  0  0  0  0  0  0  0  0  0
   -4.1482  -12.0220   -7.4644 N   0  0  0  0  0  0  0  0  0  0  0  0
   -3.7194  -12.6862   -8.5212 C   0  0  0  0  0  0  0  0  0  0  0  0
   -0.7628   -9.1616    1.2062 C   0  0  0  0  0  0  0  0  0  0  0  0
    0.4410   -9.3216    0.2733 C   0  0  0  0  0  0  0  0  0  0  0  0
   -2.5003  -12.4249   -9.0834 N   0  0  0  0  0  0  0  0  0  0  0  0
   -4.5074  -13.6502   -9.0634 N   0  0  0  0  0  0  0  0  0  0  0  0
    1.5002   -9.6643    0.9676 N   0  0  0  0  0  0  0  0  0  0  0  0
    1.7951  -10.9297    1.1957 C   0  0  0  0  0  0  0  0  0  0  0  0
    0.8549  -11.7398    1.7467 N   0  0  0  0  0  0  0  0  0  0  0  0
    3.0269  -11.4410    0.9002 N   0  0  0  0  0  0  0  0  0  0  0  0
   -4.5609  -10.2929   -3.9578 C   0  0  0  0  0  0  0  0  0  0  0  0
   -8.4189   -8.7570   -2.9544 O   0  0  0  0  0  0  0  0  0  0  0  0
   -4.8320   -9.8595   -2.6280 C   0  0  0  0  0  0  0  0  0  0  0  0
   -6.1185   -9.3571   -2.2952 C   0  0  0  0  0  0  0  0  0  0  0  0
   -7.1262   -9.2669   -3.2911 C   0  0  0  0  0  0  0  0  0  0  0  0
   -6.8507   -9.6807   -4.6222 C   0  0  0  0  0  0  0  0  0  0  0  0
   -5.5661  -10.1873   -4.9588 C   0  0  0  0  0  0  0  0  0  0  0  0
   -8.3536   -7.3339   -2.8236 C   0  0  0  0  0  0  0  0  0  0  0  0
  1  4  1  0  0  0  0
  2  3  1  0  0  0  0
  3  5  1  0  0  0  0
  4  6  1  0  0  0  0
  5  8  1  0  0  0  0
  6  7  1  0  0  0  0
  7 10  1  0  0  0  0
  8  9  1  0  0  0  0
  9 12  1  0  0  0  0
  9 13  1  0  0  0  0
 10 11  1  0  0  0  0
 11 14  1  0  0  0  0
 14 15  1  0  0  0  0
 15 16  1  0  0  0  0
 15 17  1  0  0  0  0
 18  2  1  0  0  0  0
 18 20  2  0  0  0  0
 18 24  1  0  0  0  0
 19 25  1  0  0  0  0
 20  1  1  0  0  0  0
 20 21  1  0  0  0  0
 21 22  2  0  0  0  0
 22 19  1  0  0  0  0
 22 23  1  0  0  0  0
 23 24  2  0  0  0  0
M  END
>  <CHROM.1>
177.21437030,-89.95727462,146.04836160,65.13438279,123.81081421,-160.38069729
134.49164035,-70.78664272,-102.47943581,27.33421162,175.72994192,89.51084528
-53.45520840,-16.43385971,-178.25869088,-164.81822911,175.05350955,75.77892856
-3.25397476,-10.39307211,-2.89039090,0.88753813,-0.35697567,1.15690438

>  <Name>
1uud_lig

>  <RI>
0

>  <Rbt.Current_Directory>
/home/itssahil/PROJECTS/Mol_Feturizer/New_Systems/rnas/1uud

>  <Rbt.Executable>
rbdock ($Id: //depot/dev/client3/rdock/2013.1/src/exe/rbdock.cxx#4 $)

>  <Rbt.Library>
libRbt.so (2013.1, Build901 2013/11/27)

>  <Rbt.Parameter_File>
/export/apps/rDock/src/rDock_2013.1_src/data/scripts/dock_solv.prm

>  <Rbt.Receptor>
prm/pocket_docking_6.prm

>  <SCORE>
-38.1444

>  <SCORE.INTER>
-37.4359

>  <SCORE.INTER.CONST>
1

>  <SCORE.INTER.POLAR>
-4.70157

>  <SCORE.INTER.ROT>
18

>  <SCORE.INTER.SOLV>
13.9894

>  <SCORE.INTER.VDW>
-29.5485

>  <SCORE.INTER.norm>
-1.49743

>  <SCORE.INTRA>
-0.708535

>  <SCORE.INTRA.DIHEDRAL>
-1.81397

>  <SCORE.INTRA.DIHEDRAL.0>
30.6762

>  <SCORE.INTRA.POLAR>
0.0288659

>  <SCORE.INTRA.POLAR.0>
-0.0288659

>  <SCORE.INTRA.REPUL>
0

>  <SCORE.INTRA.REPUL.0>
0

>  <SCORE.INTRA.SOLV>
-1.06173

>  <SCORE.INTRA.SOLV.lig_0>
-25.2195

>  <SCORE.INTRA.VDW>
0.631167

>  <SCORE.INTRA.VDW.0>
4.14263

>  <SCORE.INTRA.norm>
-0.0283414

>  <SCORE.RESTR>
0

>  <SCORE.RESTR.CAVITY>
0

>  <SCORE.RESTR.norm>
0

>  <SCORE.SYSTEM>
0

>  <SCORE.SYSTEM.CONST>
0

>  <SCORE.SYSTEM.DIHEDRAL>
0

>  <SCORE.SYSTEM.SOLV>
0

>  <SCORE.SYSTEM.norm>
0

>  <SCORE.heavy>
25

>  <SCORE.norm>
-1.52578

>  <RMSD>
2.015

$$$$
1uud_lig
 OpenBabel11021811413D
libRbt.so/2013.1/901 2013/11/27
 25 25  0  0  0  0  0  0  0  0999 V2000
   -4.6412  -10.3405   -2.7706 C   0  0  0  0  0  0  0  0  0  0  0  0
   -3.3800   -8.2250   -4.3633 O   0  0  0  0  0  0  0  0  0  0  0  0
   -3.1117   -9.3006   -5.2752 C   0  0  0  0  0  0  0  0  0  0  0  0
   -4.1401  -10.0067   -1.4143 N   0  0  0  0  0  0  0  0  0  0  0  0
   -3.7952   -9.0346   -6.6233 C   0  0  0  0  0  0  0  0  0  0  0  0
   -2.9061   -9.1928   -1.5212 C   0  0  0  0  0  0  0  0  0  0  0  0
   -1.9388   -9.5776   -0.3952 C   0  0  0  0  0  0  0  0  0  0  0  0
   -3.3732   -9.8981   -7.5162 N   0  0  0  0  0  0  0  0  0  0  0  0
   -3.9525  -11.0745   -7.6661 C   0  0  0  0  0  0  0  0  0  0  0  0
   -0.8444   -8.5130   -0.2617 C   0  0  0  0  0  0  0  0  0  0  0  0
    0.0906   -8.8825    0.8934 C   0  0  0  0  0  0  0  0  0  0  0  0
   -3.2574  -12.1605   -8.1220 N   0  0  0  0  0  0  0  0  0  0  0  0
   -5.2692  -11.2090   -7.3619 N   0  0  0  0  0  0  0  0  0  0  0  0
    1.0842   -9.6131    0.4460 N   0  0  0  0  0  0  0  0  0  0  0  0
    1.1579  -10.9058    0.6992 C   0  0  0  0  0  0  0  0  0  0  0  0
    2.2834  -11.4054    1.2713 N   0  0  0  0  0  0  0  0  0  0  0  0
    0.1329  -11.7542    0.3898 N   0  0  0  0  0  0  0  0  0  0  0  0
   -4.7870   -8.1396   -4.1030 C   0  0  0  0  0  0  0  0  0  0  0  0
   -8.9893   -7.8885   -3.3768 O   0  0  0  0  0  0  0  0  0  0  0  0
   -5.4400   -9.1488   -3.3381 C   0  0  0  0  0  0  0  0  0  0  0  0
   -6.8390   -9.0671   -3.1054 C   0  0  0  0  0  0  0  0  0  0  0  0
   -7.5820   -7.9704   -3.6160 C   0  0  0  0  0  0  0  0  0  0  0  0
   -6.9282   -6.9533   -4.3624 C   0  0  0  0  0  0  0  0  0  0  0  0
   -5.5293   -7.0328   -4.6007 C   0  0  0  0  0  0  0  0  0  0  0  0
   -9.2949   -6.6466   -2.7357 C   0  0  0  0  0  0  0  0  0  0  0  0
  1  4  1  0  0  0  0
  2  3  1  0  0  0  0
  3  5  1  0  0  0  0
  4  6  1  0  0  0  0
  5  8  1  0  0  0  0
  6  7  1  0  0  0  0
  7 10  1  0  0  0  0
  8  9  1  0  0  0  0
  9 12  1  0  0  0  0
  9 13  1  0  0  0  0
 10 11  1  0  0  0  0
 11 14  1  0  0  0  0
 14 15  1  0  0  0  0
 15 16  1  0  0  0  0
 15 17  1  0  0  0  0
 18  2  1  0  0  0  0
 18 20  2  0  0  0  0
 18 24  1  0  0  0  0
 19 25  1  0  0  0  0
 20  1  1  0  0  0  0
 20 21  1  0  0  0  0
 21 22  2  0  0  0  0
 22 19  1  0  0  0  0
 22 23  1  0  0  0  0
 23 24  2  0  0  0  0
M  END
>  <CHROM.1>
-81.30568572,62.54337681,169.69129446,-143.67517151,87.33309927,-164.97962608
178.21164400,-151.68509429,79.08936629,-59.90438080,90.69609040,-107.25321042
-125.67549878,-162.24789943,-140.54751259,69.97631974,90.38762056,123.78302566
-3.58411331,-9.41754330,-3.14085550,2.55458626,0.43997159,-1.87921522

>  <Name>
1uud_lig

>  <RI>
0

>  <Rbt.Current_Directory>
/home/itssahil/PROJECTS/Mol_Feturizer/New_Systems/rnas/1uud

>  <Rbt.Executable>
rbdock ($Id: //depot/dev/client3/rdock/2013.1/src/exe/rbdock.cxx#4 $)

>  <Rbt.Library>
libRbt.so (2013.1, Build901 2013/11/27)

>  <Rbt.Parameter_File>
/export/apps/rDock/src/rDock_2013.1_src/data/scripts/dock_solv.prm

>  <Rbt.Receptor>
prm/pocket_docking_3.prm

>  <SCORE>
-35.1749

>  <SCORE.INTER>
-29.6013

>  <SCORE.INTER.CONST>
1

>  <SCORE.INTER.POLAR>
-5.05482

>  <SCORE.INTER.ROT>
18

>  <SCORE.INTER.SOLV>
10.7819

>  <SCORE.INTER.VDW>
-22.0788

>  <SCORE.INTER.norm>
-1.18405

>  <SCORE.INTRA>
-5.80418

>  <SCORE.INTRA.DIHEDRAL>
-5.32788

>  <SCORE.INTRA.DIHEDRAL.0>
30.6762

>  <SCORE.INTRA.POLAR>
0.0288659

>  <SCORE.INTRA.POLAR.0>
-0.0288659

>  <SCORE.INTRA.REPUL>
0

>  <SCORE.INTRA.REPUL.0>
0

>  <SCORE.INTRA.SOLV>
-0.658612

>  <SCORE.INTRA.SOLV.lig_0>
-25.2195

>  <SCORE.INTRA.VDW>
-2.90908

>  <SCORE.INTRA.VDW.0>
4.14263

>  <SCORE.INTRA.norm>
-0.232167

>  <SCORE.RESTR>
0.230615

>  <SCORE.RESTR.CAVITY>
0.230615

>  <SCORE.RESTR.norm>
0.0092246

>  <SCORE.SYSTEM>
0

>  <SCORE.SYSTEM.CONST>
0

>  <SCORE.SYSTEM.DIHEDRAL>
0

>  <SCORE.SYSTEM.SOLV>
0

>  <SCORE.SYSTEM.norm>
0

>  <SCORE.heavy>
25

>  <SCORE.norm>
-1.407

>  <RMSD>
2.026

$$$$
1uud_lig
 OpenBabel11021811413D
libRbt.so/2013.1/901 2013/11/27
 25 25  0  0  0  0  0  0  0  0999 V2000
   -4.7274   -8.0188   -2.7038 C   0  0  0  0  0  0  0  0  0  0  0  0
   -5.6555  -10.7085   -3.4158 O   0  0  0  0  0  0  0  0  0  0  0  0
   -5.1623  -10.7611   -4.7627 C   0  0  0  0  0  0  0  0  0  0  0  0
   -4.3066   -8.5321   -1.3766 N   0  0  0  0  0  0  0  0  0  0  0  0
   -4.2752  -11.9988   -4.9536 C   0  0  0  0  0  0  0  0  0  0  0  0
   -2.9052   -8.1331   -1.1053 C   0  0  0  0  0  0  0  0  0  0  0  0
   -2.4819   -8.6525    0.2740 C   0  0  0  0  0  0  0  0  0  0  0  0
   -3.4029  -12.0782   -3.9771 N   0  0  0  0  0  0  0  0  0  0  0  0
   -2.1060  -11.9775   -4.2003 C   0  0  0  0  0  0  0  0  0  0  0  0
   -2.2283  -10.1625    0.2070 C   0  0  0  0  0  0  0  0  0  0  0  0
   -1.6510  -10.6441    1.5411 C   0  0  0  0  0  0  0  0  0  0  0  0
   -1.4264  -12.9307   -4.9075 N   0  0  0  0  0  0  0  0  0  0  0  0
   -1.4310  -10.9034   -3.7156 N   0  0  0  0  0  0  0  0  0  0  0  0
   -0.4791  -10.0906    1.7450 N   0  0  0  0  0  0  0  0  0  0  0  0
    0.6230  -10.5995    1.2284 C   0  0  0  0  0  0  0  0  0  0  0  0
    0.7779  -11.9481    1.1964 N   0  0  0  0  0  0  0  0  0  0  0  0
    1.6156   -9.8014    0.7346 N   0  0  0  0  0  0  0  0  0  0  0  0
   -6.6256   -9.6611   -3.2872 C   0  0  0  0  0  0  0  0  0  0  0  0
   -9.5383   -6.5645   -2.8660 O   0  0  0  0  0  0  0  0  0  0  0  0
   -6.2179   -8.3414   -2.9378 C   0  0  0  0  0  0  0  0  0  0  0  0
   -7.1896   -7.3156   -2.7901 C   0  0  0  0  0  0  0  0  0  0  0  0
   -8.5628   -7.5998   -3.0113 C   0  0  0  0  0  0  0  0  0  0  0  0
   -8.9683   -8.9110   -3.3789 C   0  0  0  0  0  0  0  0  0  0  0  0
   -8.0000   -9.9412   -3.5243 C   0  0  0  0  0  0  0  0  0  0  0  0
   -9.1021   -5.3938   -3.5629 C   0  0  0  0  0  0  0  0  0  0  0  0
  1  4  1  0  0  0  0
  2  3  1  0  0  0  0
  3  5  1  0  0  0  0
  4  6  1  0  0  0  0
  5  8  1  0  0  0  0
  6  7  1  0  0  0  0
  7 10  1  0  0  0  0
  8  9  1  0  0  0  0
  9 12  1  0  0  0  0
  9 13  1  0  0  0  0
 10 11  1  0  0  0  0
 11 14  1  0  0  0  0
 14 15  1  0  0  0  0
 15 16  1  0  0  0  0
 15 17  1  0  0  0  0
 18  2  1  0  0  0  0
 18 20  2  0  0  0  0
 18 24  1  0  0  0  0
 19 25  1  0  0  0  0
 20  1  1  0  0  0  0
 20 21  1  0  0  0  0
 21 22  2  0  0  0  0
 22 19  1  0  0  0  0
 22 23  1  0  0  0  0
 23 24  2  0  0  0  0
M  END
>  <CHROM.1>
-175.68421469,-172.10917859,-48.44822164,179.34935091,-115.84505947,74.91843371
173.45791752,-66.87319710,81.50603627,-53.63279711,-64.03666879,-84.11073361
-39.35045483,-146.32803166,91.70991997,-89.45319044,-76.38043998,47.64387528
-4.02082870,-9.70229691,-2.11046702,3.02954991,0.51110615,-2.22379638

>  <Name>
1uud_lig

>  <RI>
0

>  <Rbt.Current_Directory>
/home/itssahil/PROJECTS/Mol_Feturizer/New_Systems/rnas/1uud

>  <Rbt.Executable>
rbdock ($Id: //depot/dev/client3/rdock/2013.1/src/exe/rbdock.cxx#4 $)

>  <Rbt.Library>
libRbt.so (2013.1, Build901 2013/11/27)

>  <Rbt.Parameter_File>
/export/apps/rDock/src/rDock_2013.1_src/data/scripts/dock_solv.prm

>  <Rbt.Receptor>
prm/pocket_docking_7.prm

>  <SCORE>
-31.9758

>  <SCORE.INTER>
-22.1705

>  <SCORE.INTER.CONST>
1

>  <SCORE.INTER.POLAR>
-3.30976

>  <SCORE.INTER.ROT>
18

>  <SCORE.INTER.SOLV>
10.5076

>  <SCORE.INTER.VDW>
-22.8504

>  <SCORE.INTER.norm>
-0.886822

>  <SCORE.INTRA>
-9.80529

>  <SCORE.INTRA.DIHEDRAL>
-11.0704

>  <SCORE.INTRA.DIHEDRAL.0>
30.6762

>  <SCORE.INTRA.POLAR>
0.0288659

>  <SCORE.INTRA.POLAR.0>
-0.0288659

>  <SCORE.INTRA.REPUL>
0

>  <SCORE.INTRA.REPUL.0>
0

>  <SCORE.INTRA.SOLV>
-0.31516

>  <SCORE.INTRA.SOLV.lig_0>
-25.2195

>  <SCORE.INTRA.VDW>
-4.21066

>  <SCORE.INTRA.VDW.0>
4.14263

>  <SCORE.INTRA.norm>
-0.392212

>  <SCORE.RESTR>
0

>  <SCORE.RESTR.CAVITY>
0

>  <SCORE.RESTR.norm>
0

>  <SCORE.SYSTEM>
0

>  <SCORE.SYSTEM.CONST>
0

>  <SCORE.SYSTEM.DIHEDRAL>
0

>  <SCORE.SYSTEM.SOLV>
0

>  <SCORE.SYSTEM.norm>
0

>  <SCORE.heavy>
25

>  <SCORE.norm>
-1.27903

>  <RMSD>
2.045

$$$$
1uud_lig
 OpenBabel11021811413D
libRbt.so/2013.1/901 2013/11/27
 25 25  0  0  0  0  0  0  0  0999 V2000
   -2.7648   -6.9406   -4.3501 C   0  0  0  0  0  0  0  0  0  0  0  0
   -3.9419   -8.4997   -6.5378 O   0  0  0  0  0  0  0  0  0  0  0  0
   -3.7157   -9.8898   -6.2607 C   0  0  0  0  0  0  0  0  0  0  0  0
   -2.1063   -8.1664   -3.8344 N   0  0  0  0  0  0  0  0  0  0  0  0
   -2.7563  -10.4873   -7.2988 C   0  0  0  0  0  0  0  0  0  0  0  0
   -1.6512   -7.9436   -2.4415 C   0  0  0  0  0  0  0  0  0  0  0  0
   -0.2720   -8.5841   -2.2440 C   0  0  0  0  0  0  0  0  0  0  0  0
   -3.4332  -11.1660   -8.1943 N   0  0  0  0  0  0  0  0  0  0  0  0
   -3.6441  -12.4623   -8.0632 C   0  0  0  0  0  0  0  0  0  0  0  0
    0.0123   -8.7585   -0.7482 C   0  0  0  0  0  0  0  0  0  0  0  0
    1.4446   -9.2648   -0.5551 C   0  0  0  0  0  0  0  0  0  0  0  0
   -4.6898  -13.0832   -8.6890 N   0  0  0  0  0  0  0  0  0  0  0  0
   -2.8042  -13.1959   -7.2881 N   0  0  0  0  0  0  0  0  0  0  0  0
    1.6238   -9.6297    0.6923 N   0  0  0  0  0  0  0  0  0  0  0  0
    1.9437  -10.8699    1.0086 C   0  0  0  0  0  0  0  0  0  0  0  0
    3.1692  -11.1239    1.5351 N   0  0  0  0  0  0  0  0  0  0  0  0
    1.0749  -11.9051    0.8092 N   0  0  0  0  0  0  0  0  0  0  0  0
   -4.8157   -7.9368   -5.5509 C   0  0  0  0  0  0  0  0  0  0  0  0
   -7.4344   -6.3055   -2.5959 O   0  0  0  0  0  0  0  0  0  0  0  0
   -4.2847   -7.1771   -4.4688 C   0  0  0  0  0  0  0  0  0  0  0  0
   -5.1572   -6.6430   -3.4830 C   0  0  0  0  0  0  0  0  0  0  0  0
   -6.5581   -6.8476   -3.5873 C   0  0  0  0  0  0  0  0  0  0  0  0
   -7.0903   -7.5886   -4.6766 C   0  0  0  0  0  0  0  0  0  0  0  0
   -6.2209   -8.1278   -5.6632 C   0  0  0  0  0  0  0  0  0  0  0  0
   -8.2690   -5.3063   -3.1889 C   0  0  0  0  0  0  0  0  0  0  0  0
  1  4  1  0  0  0  0
  2  3  1  0  0  0  0
  3  5  1  0  0  0  0
  4  6  1  0  0  0  0
  5  8  1  0  0  0  0
  6  7  1  0  0  0  0
  7 10  1  0  0  0  0
  8  9  1  0  0  0  0
  9 12  1  0  0  0  0
  9 13  1  0  0  0  0
 10 11  1  0  0  0  0
 11 14  1  0  0  0  0
 14 15  1  0  0  0  0
 15 16  1  0  0  0  0
 15 17  1  0  0  0  0
 18  2  1  0  0  0  0
 18 20  2  0  0  0  0
 18 24  1  0  0  0  0
 19 25  1  0  0  0  0
 20  1  1  0  0  0  0
 20 21  1  0  0  0  0
 21 22  2  0  0  0  0
 22 19  1  0  0  0  0
 22 23  1  0  0  0  0
 23 24  2  0  0  0  0
M  END
>  <CHROM.1>
-108.66978628,-178.78229203,-101.14018933,-139.63154035,-92.66193694,-162.09919853
-174.27975035,156.90616386,141.50209366,-56.21020032,-169.44887989,119.13175188
112.85768802,-86.93833624,-14.15725724,99.76916785,-77.01950362,114.47972383
-2.82276541,-9.19525521,-3.80760112,2.68823632,0.61216707,-2.22608758

>  <Name>
1uud_lig

>  <RI>
0

>  <Rbt.Current_Directory>
/home/itssahil/PROJECTS/Mol_Feturizer/New_Systems/rnas/1uud

>  <Rbt.Executable>
rbdock ($Id: //depot/dev/client3/rdock/2013.1/src/exe/rbdock.cxx#4 $)

>  <Rbt.Library>
libRbt.so (2013.1, Build901 2013/11/27)

>  <Rbt.Parameter_File>
/export/apps/rDock/src/rDock_2013.1_src/data/scripts/dock_solv.prm

>  <Rbt.Receptor>
prm/pocket_docking_4.prm

>  <SCORE>
-29.8807

>  <SCORE.INTER>
-24.9702

>  <SCORE.INTER.CONST>
1

>  <SCORE.INTER.POLAR>
-3.64859

>  <SCORE.INTER.ROT>
18

>  <SCORE.INTER.SOLV>
13.3317

>  <SCORE.INTER.VDW>
-24.5288

>  <SCORE.INTER.norm>
-0.99881

>  <SCORE.INTRA>
-4.9105

>  <SCORE.INTRA.DIHEDRAL>
0.263386

>  <SCORE.INTRA.DIHEDRAL.0>
30.6762

>  <SCORE.INTRA.POLAR>
0.0288659

>  <SCORE.INTRA.POLAR.0>
-0.0288659

>  <SCORE.INTRA.REPUL>
0

>  <SCORE.INTRA.REPUL.0>
0

>  <SCORE.INTRA.SOLV>
-1.04832

>  <SCORE.INTRA.SOLV.lig_0>
-25.2195

>  <SCORE.INTRA.VDW>
-4.61618

>  <SCORE.INTRA.VDW.0>
4.14263

>  <SCORE.INTRA.norm>
-0.19642

>  <SCORE.RESTR>
0

>  <SCORE.RESTR.CAVITY>
0

>  <SCORE.RESTR.norm>
0

>  <SCORE.SYSTEM>
0

>  <SCORE.SYSTEM.CONST>
0

>  <SCORE.SYSTEM.DIHEDRAL>
0

>  <SCORE.SYSTEM.SOLV>
0

>  <SCORE.SYSTEM.norm>
0

>  <SCORE.heavy>
25

>  <SCORE.norm>
-1.19523

>  <RMSD>
2.083

$$$$
1uud_lig
 OpenBabel11021811413D
libRbt.so/2013.1/901 2013/11/27
 25 25  0  0  0  0  0  0  0  0999 V2000
   -3.8897   -7.8407   -2.1853 C   0  0  0  0  0  0  0  0  0  0  0  0
   -5.1260  -10.3344   -3.1103 O   0  0  0  0  0  0  0  0  0  0  0  0
   -5.2346  -11.1761   -4.2680 C   0  0  0  0  0  0  0  0  0  0  0  0
   -4.0698   -8.0948   -0.7344 N   0  0  0  0  0  0  0  0  0  0  0  0
   -3.9766  -11.0457   -5.1372 C   0  0  0  0  0  0  0  0  0  0  0  0
   -3.1047   -7.2803    0.0415 C   0  0  0  0  0  0  0  0  0  0  0  0
   -1.6928   -7.8524   -0.1344 C   0  0  0  0  0  0  0  0  0  0  0  0
   -2.9271  -11.4626   -4.4697 N   0  0  0  0  0  0  0  0  0  0  0  0
   -2.5566  -12.7292   -4.4873 C   0  0  0  0  0  0  0  0  0  0  0  0
   -1.3789   -8.8258    1.0070 C   0  0  0  0  0  0  0  0  0  0  0  0
   -0.1539   -9.6679    0.6390 C   0  0  0  0  0  0  0  0  0  0  0  0
   -3.4075  -13.7282   -4.1016 N   0  0  0  0  0  0  0  0  0  0  0  0
   -1.3014  -13.0475   -4.8963 N   0  0  0  0  0  0  0  0  0  0  0  0
   -0.5302  -10.7346   -0.0258 N   0  0  0  0  0  0  0  0  0  0  0  0
   -1.4379  -10.6671   -0.9808 C   0  0  0  0  0  0  0  0  0  0  0  0
   -2.7297  -10.9667   -0.6889 N   0  0  0  0  0  0  0  0  0  0  0  0
   -1.1066  -10.3131   -2.2579 N   0  0  0  0  0  0  0  0  0  0  0  0
   -5.8233   -9.1016   -3.3307 C   0  0  0  0  0  0  0  0  0  0  0  0
   -7.9392   -5.4438   -3.9580 O   0  0  0  0  0  0  0  0  0  0  0  0
   -5.2606   -7.8682   -2.8924 C   0  0  0  0  0  0  0  0  0  0  0  0
   -5.9704   -6.6543   -3.0948 C   0  0  0  0  0  0  0  0  0  0  0  0
   -7.2288   -6.6675   -3.7519 C   0  0  0  0  0  0  0  0  0  0  0  0
   -7.7817   -7.8948   -4.2067 C   0  0  0  0  0  0  0  0  0  0  0  0
   -7.0768   -9.1120   -4.0032 C   0  0  0  0  0  0  0  0  0  0  0  0
   -7.0189   -4.4111   -4.3229 C   0  0  0  0  0  0  0  0  0  0  0  0
  1  4  1  0  0  0  0
  2  3  1  0  0  0  0
  3  5  1  0  0  0  0
  4  6  1  0  0  0  0
  5  8  1  0  0  0  0
  6  7  1  0  0  0  0
  7 10  1  0  0  0  0
  8  9  1  0  0  0  0
  9 12  1  0  0  0  0
  9 13  1  0  0  0  0
 10 11  1  0  0  0  0
 11 14  1  0  0  0  0
 14 15  1  0  0  0  0
 15 16  1  0  0  0  0
 15 17  1  0  0  0  0
 18  2  1  0  0  0  0
 18 20  2  0  0  0  0
 18 24  1  0  0  0  0
 19 25  1  0  0  0  0
 20  1  1  0  0  0  0
 20 21  1  0  0  0  0
 21 22  2  0  0  0  0
 22 19  1  0  0  0  0
 22 23  1  0  0  0  0
 23 24  2  0  0  0  0
M  END
>  <CHROM.1>
-143.72563724,97.83284646,62.89395685,-72.04945609,88.42913855,-93.91447584
164.85203154,-57.04725463,136.71394002,126.86331927,-87.85391561,43.48171585
-96.82156995,-133.50217474,63.99088629,-139.03734430,-85.29788818,39.93631950
-3.88378712,-9.37894987,-2.60095779,-2.81271139,0.67142090,-2.48184355

>  <Name>
1uud_lig

>  <RI>
0

>  <Rbt.Current_Directory>
/home/itssahil/PROJECTS/Mol_Feturizer/New_Systems/rnas/1uud

>  <Rbt.Executable>
rbdock ($Id: //depot/dev/client3/rdock/2013.1/src/exe/rbdock.cxx#4 $)

>  <Rbt.Library>
libRbt.so (2013.1, Build901 2013/11/27)

>  <Rbt.Parameter_File>
/export/apps/rDock/src/rDock_2013.1_src/data/scripts/dock_solv.prm

>  <Rbt.Receptor>
prm/pocket_docking_2.prm

>  <SCORE>
-5.81631

>  <SCORE.INTER>
-3.06107

>  <SCORE.INTER.CONST>
1

>  <SCORE.INTER.POLAR>
-1.56302

>  <SCORE.INTER.ROT>
18

>  <SCORE.INTER.SOLV>
7.20541

>  <SCORE.INTER.VDW>
-14.8325

>  <SCORE.INTER.norm>
-0.122443

>  <SCORE.INTRA>
-4.28505

>  <SCORE.INTRA.DIHEDRAL>
-1.86173

>  <SCORE.INTRA.DIHEDRAL.0>
30.6762

>  <SCORE.INTRA.POLAR>
-1.67182

>  <SCORE.INTRA.POLAR.0>
-0.0288659

>  <SCORE.INTRA.REPUL>
0

>  <SCORE.INTRA.REPUL.0>
0

>  <SCORE.INTRA.SOLV>
3.11907

>  <SCORE.INTRA.SOLV.lig_0>
-25.2195

>  <SCORE.INTRA.VDW>
0.770461

>  <SCORE.INTRA.VDW.0>
4.14263

>  <SCORE.INTRA.norm>
-0.171402

>  <SCORE.RESTR>
1.52981

>  <SCORE.RESTR.CAVITY>
1.52981

>  <SCORE.RESTR.norm>
0.0611923

>  <SCORE.SYSTEM>
0

>  <SCORE.SYSTEM.CONST>
0

>  <SCORE.SYSTEM.DIHEDRAL>
0

>  <SCORE.SYSTEM.SOLV>
0

>  <SCORE.SYSTEM.norm>
0

>  <SCORE.heavy>
25

>  <SCORE.norm>
-0.232652

>  <RMSD>
2.151

$$$$
1uud_lig
 OpenBabel11021811413D
libRbt.so/2013.1/901 2013/11/27
 25 25  0  0  0  0  0  0  0  0999 V2000
   -3.5096  -10.3615   -3.4362 C   0  0  0  0  0  0  0  0  0  0  0  0
   -5.2470  -11.3089   -5.6010 O   0  0  0  0  0  0  0  0  0  0  0  0
   -4.4108  -10.8557   -6.6760 C   0  0  0  0  0  0  0  0  0  0  0  0
   -3.1330  -10.0887   -2.0270 N   0  0  0  0  0  0  0  0  0  0  0  0
   -3.4106  -11.9520   -7.0670 C   0  0  0  0  0  0  0  0  0  0  0  0
   -2.1521  -11.0990   -1.5648 C   0  0  0  0  0  0  0  0  0  0  0  0
   -1.5669  -10.6658   -0.2152 C   0  0  0  0  0  0  0  0  0  0  0  0
   -2.5806  -12.1738   -6.0757 N   0  0  0  0  0  0  0  0  0  0  0  0
   -1.8497  -13.2714   -6.0201 C   0  0  0  0  0  0  0  0  0  0  0  0
   -0.4734  -11.6482    0.2182 C   0  0  0  0  0  0  0  0  0  0  0  0
    0.0367  -11.2645    1.6103 C   0  0  0  0  0  0  0  0  0  0  0  0
   -2.3144  -14.4100   -5.4215 N   0  0  0  0  0  0  0  0  0  0  0  0
   -0.6074  -13.2695   -6.5687 N   0  0  0  0  0  0  0  0  0  0  0  0
    0.7549  -10.1691    1.5352 N   0  0  0  0  0  0  0  0  0  0  0  0
    1.9295  -10.1547    0.9347 C   0  0  0  0  0  0  0  0  0  0  0  0
    2.3352   -9.0248    0.3005 N   0  0  0  0  0  0  0  0  0  0  0  0
    2.7419  -11.2529    0.9276 N   0  0  0  0  0  0  0  0  0  0  0  0
   -5.6820  -10.1942   -4.8120 C   0  0  0  0  0  0  0  0  0  0  0  0
   -7.0183   -6.8987   -2.4446 O   0  0  0  0  0  0  0  0  0  0  0  0
   -4.8708   -9.7056   -3.7475 C   0  0  0  0  0  0  0  0  0  0  0  0
   -5.3216   -8.6150   -2.9565 C   0  0  0  0  0  0  0  0  0  0  0  0
   -6.5689   -7.9989   -3.2397 C   0  0  0  0  0  0  0  0  0  0  0  0
   -7.3696   -8.4729   -4.3135 C   0  0  0  0  0  0  0  0  0  0  0  0
   -6.9243   -9.5659   -5.1052 C   0  0  0  0  0  0  0  0  0  0  0  0
   -7.5572   -7.3865   -1.2124 C   0  0  0  0  0  0  0  0  0  0  0  0
  1  4  1  0  0  0  0
  2  3  1  0  0  0  0
  3  5  1  0  0  0  0
  4  6  1  0  0  0  0
  5  8  1  0  0  0  0
  6  7  1  0  0  0  0
  7 10  1  0  0  0  0
  8  9  1  0  0  0  0
  9 12  1  0  0  0  0
  9 13  1  0  0  0  0
 10 11  1  0  0  0  0
 11 14  1  0  0  0  0
 14 15  1  0  0  0  0
 15 16  1  0  0  0  0
 15 17  1  0  0  0  0
 18  2  1  0  0  0  0
 18 20  2  0  0  0  0
 18 24  1  0  0  0  0
 19 25  1  0  0  0  0
 20  1  1  0  0  0  0
 20 21  1  0  0  0  0
 21 22  2  0  0  0  0
 22 19  1  0  0  0  0
 22 23  1  0  0  0  0
 23 24  2  0  0  0  0
M  END
>  <CHROM.1>
158.21222289,151.56470007,-65.33663476,169.28759942,162.93041173,-175.64082779
-176.06796730,-88.68481284,-143.13820220,-177.01639357,-71.97828837,-68.66353739
147.85953961,-145.85523283,14.57172003,-86.18647978,-156.85000582,-78.97948649
-2.88758252,-10.50598187,-2.88372587,-2.65937871,-0.48028386,1.01178599

>  <Name>
1uud_lig

>  <RI>
0

>  <Rbt.Current_Directory>
/home/itssahil/PROJECTS/Mol_Feturizer/New_Systems/rnas/1uud

>  <Rbt.Executable>
rbdock ($Id: //depot/dev/client3/rdock/2013.1/src/exe/rbdock.cxx#4 $)

>  <Rbt.Library>
libRbt.so (2013.1, Build901 2013/11/27)

>  <Rbt.Parameter_File>
/export/apps/rDock/src/rDock_2013.1_src/data/scripts/dock_solv.prm

>  <Rbt.Receptor>
prm/pocket_docking_5.prm

>  <SCORE>
-33.8591

>  <SCORE.INTER>
-27.2675

>  <SCORE.INTER.CONST>
1

>  <SCORE.INTER.POLAR>
-4.1352

>  <SCORE.INTER.ROT>
18

>  <SCORE.INTER.SOLV>
11.1003

>  <SCORE.INTER.VDW>
-23.6944

>  <SCORE.INTER.norm>
-1.0907

>  <SCORE.INTRA>
-6.59167

>  <SCORE.INTRA.DIHEDRAL>
-5.60581

>  <SCORE.INTRA.DIHEDRAL.0>
30.6762

>  <SCORE.INTRA.POLAR>
0.0288659

>  <SCORE.INTRA.POLAR.0>
-0.0288659

>  <SCORE.INTRA.REPUL>
0

>  <SCORE.INTRA.REPUL.0>
0

>  <SCORE.INTRA.SOLV>
-0.533825

>  <SCORE.INTRA.SOLV.lig_0>
-25.2195

>  <SCORE.INTRA.VDW>
-3.62

>  <SCORE.INTRA.VDW.0>
4.14263

>  <SCORE.INTRA.norm>
-0.263667

>  <SCORE.RESTR>
0

>  <SCORE.RESTR.CAVITY>
0

>  <SCORE.RESTR.norm>
0

>  <SCORE.SYSTEM>
0

>  <SCORE.SYSTEM.CONST>
0

>  <SCORE.SYSTEM.DIHEDRAL>
0

>  <SCORE.SYSTEM.SOLV>
0

>  <SCORE.SYSTEM.norm>
0

>  <SCORE.heavy>
25

>  <SCORE.norm>
-1.35437

>  <RMSD>
2.174

$$$$
1uud_lig
 OpenBabel11021811413D
libRbt.so/2013.1/901 2013/11/27
 25 25  0  0  0  0  0  0  0  0999 V2000
   -6.9167   -9.4689   -1.0035 C   0  0  0  0  0  0  0  0  0  0  0  0
   -6.0048  -10.7179   -3.4957 O   0  0  0  0  0  0  0  0  0  0  0  0
   -5.0195  -10.7973   -4.5364 C   0  0  0  0  0  0  0  0  0  0  0  0
   -5.7196   -8.8556   -0.3766 N   0  0  0  0  0  0  0  0  0  0  0  0
   -4.1823  -12.0734   -4.3766 C   0  0  0  0  0  0  0  0  0  0  0  0
   -5.4362   -9.5181    0.9186 C   0  0  0  0  0  0  0  0  0  0  0  0
   -4.5782   -8.5934    1.7907 C   0  0  0  0  0  0  0  0  0  0  0  0
   -3.2841  -12.1410   -5.3303 N   0  0  0  0  0  0  0  0  0  0  0  0
   -3.3196  -13.0913   -6.2455 C   0  0  0  0  0  0  0  0  0  0  0  0
   -3.1312   -8.5957    1.2859 C   0  0  0  0  0  0  0  0  0  0  0  0
   -2.4139   -9.8495    1.7944 C   0  0  0  0  0  0  0  0  0  0  0  0
   -3.8841  -12.8804   -7.4733 N   0  0  0  0  0  0  0  0  0  0  0  0
   -2.7846  -14.3066   -5.9608 N   0  0  0  0  0  0  0  0  0  0  0  0
   -1.1201   -9.6360    1.8372 N   0  0  0  0  0  0  0  0  0  0  0  0
   -0.2773  -10.3656    1.1316 C   0  0  0  0  0  0  0  0  0  0  0  0
    0.2065  -11.5178    1.6627 N   0  0  0  0  0  0  0  0  0  0  0  0
    0.1274   -9.9838   -0.1160 N   0  0  0  0  0  0  0  0  0  0  0  0
   -6.7012   -9.4674   -3.5714 C   0  0  0  0  0  0  0  0  0  0  0  0
   -8.8138   -5.7628   -3.8233 O   0  0  0  0  0  0  0  0  0  0  0  0
   -7.1659   -8.8293   -2.3852 C   0  0  0  0  0  0  0  0  0  0  0  0
   -7.8755   -7.6017   -2.4727 C   0  0  0  0  0  0  0  0  0  0  0  0
   -8.1029   -7.0005   -3.7385 C   0  0  0  0  0  0  0  0  0  0  0  0
   -7.6229   -7.6262   -4.9204 C   0  0  0  0  0  0  0  0  0  0  0  0
   -6.9156   -8.8562   -4.8379 C   0  0  0  0  0  0  0  0  0  0  0  0
   -7.8895   -4.6733   -3.7503 C   0  0  0  0  0  0  0  0  0  0  0  0
  1  4  1  0  0  0  0
  2  3  1  0  0  0  0
  3  5  1  0  0  0  0
  4  6  1  0  0  0  0
  5  8  1  0  0  0  0
  6  7  1  0  0  0  0
  7 10  1  0  0  0  0
  8  9  1  0  0  0  0
  9 12  1  0  0  0  0
  9 13  1  0  0  0  0
 10 11  1  0  0  0  0
 11 14  1  0  0  0  0
 14 15  1  0  0  0  0
 15 16  1  0  0  0  0
 15 17  1  0  0  0  0
 18  2  1  0  0  0  0
 18 20  2  0  0  0  0
 18 24  1  0  0  0  0
 19 25  1  0  0  0  0
 20  1  1  0  0  0  0
 20 21  1  0  0  0  0
 21 22  2  0  0  0  0
 22 19  1  0  0  0  0
 22 23  1  0  0  0  0
 23 24  2  0  0  0  0
M  END
>  <CHROM.1>
-177.01442340,174.58566034,179.97709319,-158.94021083,-114.61120310,-75.60359043
-79.83551527,97.03063636,-1.57740174,-73.27448204,-155.49428143,-119.67532549
-87.78471636,-91.00432747,102.49223171,-146.87070819,97.26540921,90.44497672
-4.65506689,-9.73680188,-2.31064070,2.68385496,0.65243731,-2.10220001

>  <Name>
1uud_lig

>  <RI>
0

>  <Rbt.Current_Directory>
/home/itssahil/PROJECTS/Mol_Feturizer/New_Systems/rnas/1uud

>  <Rbt.Executable>
rbdock ($Id: //depot/dev/client3/rdock/2013.1/src/exe/rbdock.cxx#4 $)

>  <Rbt.Library>
libRbt.so (2013.1, Build901 2013/11/27)

>  <Rbt.Parameter_File>
/export/apps/rDock/src/rDock_2013.1_src/data/scripts/dock_solv.prm

>  <Rbt.Receptor>
prm/pocket_docking_4.prm

>  <SCORE>
-29.8196

>  <SCORE.INTER>
-21.2941

>  <SCORE.INTER.CONST>
1

>  <SCORE.INTER.POLAR>
-3.38951

>  <SCORE.INTER.ROT>
18

>  <SCORE.INTER.SOLV>
8.96647

>  <SCORE.INTER.VDW>
-21.4865

>  <SCORE.INTER.norm>
-0.851763

>  <SCORE.INTRA>
-8.52553

>  <SCORE.INTRA.DIHEDRAL>
-8.6577

>  <SCORE.INTRA.DIHEDRAL.0>
30.6762

>  <SCORE.INTRA.POLAR>
0.0288659

>  <SCORE.INTRA.POLAR.0>
-0.0288659

>  <SCORE.INTRA.REPUL>
0

>  <SCORE.INTRA.REPUL.0>
0

>  <SCORE.INTRA.SOLV>
-1.37904

>  <SCORE.INTRA.SOLV.lig_0>
-25.2195

>  <SCORE.INTRA.VDW>
-3.60531

>  <SCORE.INTRA.VDW.0>
4.14263

>  <SCORE.INTRA.norm>
-0.341021

>  <SCORE.RESTR>
0

>  <SCORE.RESTR.CAVITY>
0

>  <SCORE.RESTR.norm>
0

>  <SCORE.SYSTEM>
0

>  <SCORE.SYSTEM.CONST>
0

>  <SCORE.SYSTEM.DIHEDRAL>
0

>  <SCORE.SYSTEM.SOLV>
0

>  <SCORE.SYSTEM.norm>
0

>  <SCORE.heavy>
25

>  <SCORE.norm>
-1.19278

>  <RMSD>
2.182

$$$$
1uud_lig
 OpenBabel11021811413D
libRbt.so/2013.1/901 2013/11/27
 25 25  0  0  0  0  0  0  0  0999 V2000
   -3.7071  -10.3254   -3.4115 C   0  0  0  0  0  0  0  0  0  0  0  0
   -4.5876  -10.0784   -6.1983 O   0  0  0  0  0  0  0  0  0  0  0  0
   -3.6028   -9.4390   -7.0240 C   0  0  0  0  0  0  0  0  0  0  0  0
   -2.8796   -9.8090   -2.2931 N   0  0  0  0  0  0  0  0  0  0  0  0
   -3.2748  -10.3212   -8.2362 C   0  0  0  0  0  0  0  0  0  0  0  0
   -2.1989  -10.9349   -1.6107 C   0  0  0  0  0  0  0  0  0  0  0  0
   -1.2916  -10.3892   -0.5014 C   0  0  0  0  0  0  0  0  0  0  0  0
   -2.7639  -11.4606   -7.8344 N   0  0  0  0  0  0  0  0  0  0  0  0
   -3.5249  -12.5123   -7.5965 C   0  0  0  0  0  0  0  0  0  0  0  0
   -1.3025  -11.3436    0.6976 C   0  0  0  0  0  0  0  0  0  0  0  0
   -0.1772  -10.9637    1.6643 C   0  0  0  0  0  0  0  0  0  0  0  0
   -4.3926  -12.9943   -8.5374 N   0  0  0  0  0  0  0  0  0  0  0  0
   -3.4454  -13.1290   -6.3891 N   0  0  0  0  0  0  0  0  0  0  0  0
    0.9421  -11.5384    1.2927 N   0  0  0  0  0  0  0  0  0  0  0  0
    1.9853  -10.8298    0.9050 C   0  0  0  0  0  0  0  0  0  0  0  0
    3.2027  -11.4269    0.8359 N   0  0  0  0  0  0  0  0  0  0  0  0
    1.8707   -9.5075    0.5816 N   0  0  0  0  0  0  0  0  0  0  0  0
   -5.0993   -9.1499   -5.2337 C   0  0  0  0  0  0  0  0  0  0  0  0
   -6.6712   -6.4000   -2.3671 O   0  0  0  0  0  0  0  0  0  0  0  0
   -4.7014   -9.2379   -3.8685 C   0  0  0  0  0  0  0  0  0  0  0  0
   -5.2323   -8.3274   -2.9159 C   0  0  0  0  0  0  0  0  0  0  0  0
   -6.1415   -7.3177   -3.3272 C   0  0  0  0  0  0  0  0  0  0  0  0
   -6.5238   -7.2169   -4.6920 C   0  0  0  0  0  0  0  0  0  0  0  0
   -5.9980   -8.1279   -5.6478 C   0  0  0  0  0  0  0  0  0  0  0  0
   -5.6328   -5.5250   -1.9169 C   0  0  0  0  0  0  0  0  0  0  0  0
  1  4  1  0  0  0  0
  2  3  1  0  0  0  0
  3  5  1  0  0  0  0
  4  6  1  0  0  0  0
  5  8  1  0  0  0  0
  6  7  1  0  0  0  0
  7 10  1  0  0  0  0
  8  9  1  0  0  0  0
  9 12  1  0  0  0  0
  9 13  1  0  0  0  0
 10 11  1  0  0  0  0
 11 14  1  0  0  0  0
 14 15  1  0  0  0  0
 15 16  1  0  0  0  0
 15 17  1  0  0  0  0
 18  2  1  0  0  0  0
 18 20  2  0  0  0  0
 18 24  1  0  0  0  0
 19 25  1  0  0  0  0
 20  1  1  0  0  0  0
 20 21  1  0  0  0  0
 21 22  2  0  0  0  0
 22 19  1  0  0  0  0
 22 23  1  0  0  0  0
 23 24  2  0  0  0  0
M  END
>  <CHROM.1>
164.51607822,-167.84555416,-62.06733023,177.19727275,91.02375868,143.92448375
167.71791898,54.22189920,101.68501802,-90.32352098,-85.57901758,115.98680920
164.48248215,-175.05803393,-59.66064606,-105.28327575,147.63965597,69.32507851
-2.92317657,-9.98117267,-3.32208988,2.48463434,0.66052005,-2.10805551

>  <Name>
1uud_lig

>  <RI>
0

>  <Rbt.Current_Directory>
/home/itssahil/PROJECTS/Mol_Feturizer/New_Systems/rnas/1uud

>  <Rbt.Executable>
rbdock ($Id: //depot/dev/client3/rdock/2013.1/src/exe/rbdock.cxx#4 $)

>  <Rbt.Library>
libRbt.so (2013.1, Build901 2013/11/27)

>  <Rbt.Parameter_File>
/export/apps/rDock/src/rDock_2013.1_src/data/scripts/dock_solv.prm

>  <Rbt.Receptor>
prm/pocket_docking_4.prm

>  <SCORE>
-37.9745

>  <SCORE.INTER>
-31.1133

>  <SCORE.INTER.CONST>
1

>  <SCORE.INTER.POLAR>
-4.09726

>  <SCORE.INTER.ROT>
18

>  <SCORE.INTER.SOLV>
13.8041

>  <SCORE.INTER.VDW>
-27.286

>  <SCORE.INTER.norm>
-1.24453

>  <SCORE.INTRA>
-6.86121

>  <SCORE.INTRA.DIHEDRAL>
-4.01059

>  <SCORE.INTRA.DIHEDRAL.0>
30.6762

>  <SCORE.INTRA.POLAR>
0.0288659

>  <SCORE.INTRA.POLAR.0>
-0.0288659

>  <SCORE.INTRA.REPUL>
0

>  <SCORE.INTRA.REPUL.0>
0

>  <SCORE.INTRA.SOLV>
-0.25272

>  <SCORE.INTRA.SOLV.lig_0>
-25.2195

>  <SCORE.INTRA.VDW>
-4.8277

>  <SCORE.INTRA.VDW.0>
4.14263

>  <SCORE.INTRA.norm>
-0.274448

>  <SCORE.RESTR>
0

>  <SCORE.RESTR.CAVITY>
0

>  <SCORE.RESTR.norm>
0

>  <SCORE.SYSTEM>
0

>  <SCORE.SYSTEM.CONST>
0

>  <SCORE.SYSTEM.DIHEDRAL>
0

>  <SCORE.SYSTEM.SOLV>
0

>  <SCORE.SYSTEM.norm>
0

>  <SCORE.heavy>
25

>  <SCORE.norm>
-1.51898

>  <RMSD>
2.184

$$$$
1uud_lig
 OpenBabel11021811413D
libRbt.so/2013.1/901 2013/11/27
 25 25  0  0  0  0  0  0  0  0999 V2000
   -2.9087  -10.0248   -2.9499 C   0  0  0  0  0  0  0  0  0  0  0  0
   -2.7115   -9.6513   -5.8524 O   0  0  0  0  0  0  0  0  0  0  0  0
   -3.0162  -10.1838   -7.1500 C   0  0  0  0  0  0  0  0  0  0  0  0
   -2.3151   -8.9812   -2.0777 N   0  0  0  0  0  0  0  0  0  0  0  0
   -3.6200  -11.5884   -7.0174 C   0  0  0  0  0  0  0  0  0  0  0  0
   -1.0021   -8.5600   -2.6211 C   0  0  0  0  0  0  0  0  0  0  0  0
    0.1223   -9.2354   -1.8265 C   0  0  0  0  0  0  0  0  0  0  0  0
   -2.7298  -12.4120   -6.5172 N   0  0  0  0  0  0  0  0  0  0  0  0
   -3.0570  -13.3148   -5.6118 C   0  0  0  0  0  0  0  0  0  0  0  0
    0.4206   -8.4292   -0.5577 C   0  0  0  0  0  0  0  0  0  0  0  0
    0.1255   -9.2881    0.6754 C   0  0  0  0  0  0  0  0  0  0  0  0
   -3.7081  -12.9684   -4.4599 N   0  0  0  0  0  0  0  0  0  0  0  0
   -2.7387  -14.6171   -5.8284 N   0  0  0  0  0  0  0  0  0  0  0  0
   -1.1668   -9.4890    0.7793 N   0  0  0  0  0  0  0  0  0  0  0  0
   -1.6593  -10.6828    1.0494 C   0  0  0  0  0  0  0  0  0  0  0  0
   -1.2574  -11.7479    0.3094 N   0  0  0  0  0  0  0  0  0  0  0  0
   -2.5713  -10.8701    2.0490 N   0  0  0  0  0  0  0  0  0  0  0  0
   -3.9171   -9.2475   -5.1904 C   0  0  0  0  0  0  0  0  0  0  0  0
   -7.5358   -8.0782   -3.2442 O   0  0  0  0  0  0  0  0  0  0  0  0
   -4.0562   -9.4161   -3.7825 C   0  0  0  0  0  0  0  0  0  0  0  0
   -5.2639   -9.0342   -3.1393 C   0  0  0  0  0  0  0  0  0  0  0  0
   -6.3229   -8.4655   -3.8947 C   0  0  0  0  0  0  0  0  0  0  0  0
   -6.1776   -8.2789   -5.2958 C   0  0  0  0  0  0  0  0  0  0  0  0
   -4.9724   -8.6628   -5.9441 C   0  0  0  0  0  0  0  0  0  0  0  0
   -8.6031   -8.9278   -3.6752 C   0  0  0  0  0  0  0  0  0  0  0  0
  1  4  1  0  0  0  0
  2  3  1  0  0  0  0
  3  5  1  0  0  0  0
  4  6  1  0  0  0  0
  5  8  1  0  0  0  0
  6  7  1  0  0  0  0
  7 10  1  0  0  0  0
  8  9  1  0  0  0  0
  9 12  1  0  0  0  0
  9 13  1  0  0  0  0
 10 11  1  0  0  0  0
 11 14  1  0  0  0  0
 14 15  1  0  0  0  0
 15 16  1  0  0  0  0
 15 17  1  0  0  0  0
 18  2  1  0  0  0  0
 18 20  2  0  0  0  0
 18 24  1  0  0  0  0
 19 25  1  0  0  0  0
 20  1  1  0  0  0  0
 20 21  1  0  0  0  0
 21 22  2  0  0  0  0
 22 19  1  0  0  0  0
 22 23  1  0  0  0  0
 23 24  2  0  0  0  0
M  END
>  <CHROM.1>
-105.36412927,-74.77882371,-64.96989282,-101.37616228,138.99207250,-83.82256462
117.50215562,-53.33247199,116.99192001,-133.67012901,-68.83212609,134.97648120
-50.90075040,123.13109995,-117.54432994,143.93577535,110.74596999,-112.44217420
-3.19698308,-10.14320498,-3.21985180,-0.87055360,0.56237882,-2.08228722

>  <Name>
1uud_lig

>  <RI>
0

>  <Rbt.Current_Directory>
/home/itssahil/PROJECTS/Mol_Feturizer/New_Systems/rnas/1uud

>  <Rbt.Executable>
rbdock ($Id: //depot/dev/client3/rdock/2013.1/src/exe/rbdock.cxx#4 $)

>  <Rbt.Library>
libRbt.so (2013.1, Build901 2013/11/27)

>  <Rbt.Parameter_File>
/export/apps/rDock/src/rDock_2013.1_src/data/scripts/dock_solv.prm

>  <Rbt.Receptor>
prm/pocket_docking_3.prm

>  <SCORE>
-17.8022

>  <SCORE.INTER>
-12.0953

>  <SCORE.INTER.CONST>
1

>  <SCORE.INTER.POLAR>
-2.46014

>  <SCORE.INTER.ROT>
18

>  <SCORE.INTER.SOLV>
9.50876

>  <SCORE.INTER.VDW>
-18.6327

>  <SCORE.INTER.norm>
-0.483812

>  <SCORE.INTRA>
-5.70687

>  <SCORE.INTRA.DIHEDRAL>
0.695611

>  <SCORE.INTRA.DIHEDRAL.0>
30.6762

>  <SCORE.INTRA.POLAR>
-0.951424

>  <SCORE.INTRA.POLAR.0>
-0.0288659

>  <SCORE.INTRA.REPUL>
0

>  <SCORE.INTRA.REPUL.0>
0

>  <SCORE.INTRA.SOLV>
1.1781

>  <SCORE.INTRA.SOLV.lig_0>
-25.2195

>  <SCORE.INTRA.VDW>
-3.40889

>  <SCORE.INTRA.VDW.0>
4.14263

>  <SCORE.INTRA.norm>
-0.228275

>  <SCORE.RESTR>
0

>  <SCORE.RESTR.CAVITY>
0

>  <SCORE.RESTR.norm>
0

>  <SCORE.SYSTEM>
0

>  <SCORE.SYSTEM.CONST>
0

>  <SCORE.SYSTEM.DIHEDRAL>
0

>  <SCORE.SYSTEM.SOLV>
0

>  <SCORE.SYSTEM.norm>
0

>  <SCORE.heavy>
25

>  <SCORE.norm>
-0.712087

>  <RMSD>
2.215

$$$$
1uud_lig
 OpenBabel11021811413D
libRbt.so/2013.1/901 2013/11/27
 25 25  0  0  0  0  0  0  0  0999 V2000
   -3.4611   -8.3993   -2.2172 C   0  0  0  0  0  0  0  0  0  0  0  0
   -2.7212   -8.4610   -5.0547 O   0  0  0  0  0  0  0  0  0  0  0  0
   -2.3459   -9.8374   -4.8967 C   0  0  0  0  0  0  0  0  0  0  0  0
   -2.4820   -7.2869   -2.2948 N   0  0  0  0  0  0  0  0  0  0  0  0
   -0.8551  -10.0192   -5.2121 C   0  0  0  0  0  0  0  0  0  0  0  0
   -1.1107   -7.8333   -2.4274 C   0  0  0  0  0  0  0  0  0  0  0  0
   -0.4954   -8.0182   -1.0349 C   0  0  0  0  0  0  0  0  0  0  0  0
   -0.4628  -11.2151   -4.8423 N   0  0  0  0  0  0  0  0  0  0  0  0
   -0.2089  -12.1619   -5.7261 C   0  0  0  0  0  0  0  0  0  0  0  0
    0.9137   -8.6073   -1.1618 C   0  0  0  0  0  0  0  0  0  0  0  0
    1.6125   -8.5601    0.2000 C   0  0  0  0  0  0  0  0  0  0  0  0
   -0.6559  -12.0743   -7.0157 N   0  0  0  0  0  0  0  0  0  0  0  0
    0.5115  -13.2485   -5.3456 N   0  0  0  0  0  0  0  0  0  0  0  0
    1.0044   -9.3631    1.0407 N   0  0  0  0  0  0  0  0  0  0  0  0
    1.1284  -10.6737    0.9543 C   0  0  0  0  0  0  0  0  0  0  0  0
    0.0174  -11.4336    0.7752 N   0  0  0  0  0  0  0  0  0  0  0  0
    2.3465  -11.2843    1.0510 N   0  0  0  0  0  0  0  0  0  0  0  0
   -4.1014   -8.2844   -4.7107 C   0  0  0  0  0  0  0  0  0  0  0  0
   -8.2261   -7.8015   -3.7085 O   0  0  0  0  0  0  0  0  0  0  0  0
   -4.5044   -8.2539   -3.3444 C   0  0  0  0  0  0  0  0  0  0  0  0
   -5.8778   -8.1017   -3.0143 C   0  0  0  0  0  0  0  0  0  0  0  0
   -6.8449   -7.9587   -4.0436 C   0  0  0  0  0  0  0  0  0  0  0  0
   -6.4416   -7.9694   -5.4060 C   0  0  0  0  0  0  0  0  0  0  0  0
   -5.0692   -8.1250   -5.7410 C   0  0  0  0  0  0  0  0  0  0  0  0
   -8.8536   -9.0856   -3.6479 C   0  0  0  0  0  0  0  0  0  0  0  0
  1  4  1  0  0  0  0
  2  3  1  0  0  0  0
  3  5  1  0  0  0  0
  4  6  1  0  0  0  0
  5  8  1  0  0  0  0
  6  7  1  0  0  0  0
  7 10  1  0  0  0  0
  8  9  1  0  0  0  0
  9 12  1  0  0  0  0
  9 13  1  0  0  0  0
 10 11  1  0  0  0  0
 11 14  1  0  0  0  0
 14 15  1  0  0  0  0
 15 16  1  0  0  0  0
 15 17  1  0  0  0  0
 18  2  1  0  0  0  0
 18 20  2  0  0  0  0
 18 24  1  0  0  0  0
 19 25  1  0  0  0  0
 20  1  1  0  0  0  0
 20 21  1  0  0  0  0
 21 22  2  0  0  0  0
 22 19  1  0  0  0  0
 22 23  1  0  0  0  0
 23 24  2  0  0  0  0
M  END
>  <CHROM.1>
-122.87568576,-177.81123062,168.87809928,-90.87887472,106.77829650,178.96868579
170.12830067,-16.98874783,93.93132932,-102.73443872,66.22709498,73.82971388
-120.91222332,-167.93287759,-18.32392182,76.83708549,61.11965523,-90.73856155
-2.20285927,-9.42138933,-3.03919493,2.83534020,0.43452816,-1.99012956

>  <Name>
1uud_lig

>  <RI>
0

>  <Rbt.Current_Directory>
/home/itssahil/PROJECTS/Mol_Feturizer/New_Systems/rnas/1uud

>  <Rbt.Executable>
rbdock ($Id: //depot/dev/client3/rdock/2013.1/src/exe/rbdock.cxx#4 $)

>  <Rbt.Library>
libRbt.so (2013.1, Build901 2013/11/27)

>  <Rbt.Parameter_File>
/export/apps/rDock/src/rDock_2013.1_src/data/scripts/dock_solv.prm

>  <Rbt.Receptor>
prm/pocket_docking_4.prm

>  <SCORE>
-23.4503

>  <SCORE.INTER>
-16.0498

>  <SCORE.INTER.CONST>
1

>  <SCORE.INTER.POLAR>
-2.75205

>  <SCORE.INTER.ROT>
18

>  <SCORE.INTER.SOLV>
8.68199

>  <SCORE.INTER.VDW>
-20.0204

>  <SCORE.INTER.norm>
-0.641993

>  <SCORE.INTRA>
-7.40255

>  <SCORE.INTRA.DIHEDRAL>
-4.49459

>  <SCORE.INTRA.DIHEDRAL.0>
30.6762

>  <SCORE.INTRA.POLAR>
0.0288659

>  <SCORE.INTRA.POLAR.0>
-0.0288659

>  <SCORE.INTRA.REPUL>
0

>  <SCORE.INTRA.REPUL.0>
0

>  <SCORE.INTRA.SOLV>
-0.604165

>  <SCORE.INTRA.SOLV.lig_0>
-25.2195

>  <SCORE.INTRA.VDW>
-4.95132

>  <SCORE.INTRA.VDW.0>
4.14263

>  <SCORE.INTRA.norm>
-0.296102

>  <SCORE.RESTR>
0.00211674

>  <SCORE.RESTR.CAVITY>
0.00211674

>  <SCORE.RESTR.norm>
8.46695e-05

>  <SCORE.SYSTEM>
0

>  <SCORE.SYSTEM.CONST>
0

>  <SCORE.SYSTEM.DIHEDRAL>
0

>  <SCORE.SYSTEM.SOLV>
0

>  <SCORE.SYSTEM.norm>
0

>  <SCORE.heavy>
25

>  <SCORE.norm>
-0.93801

>  <RMSD>
2.222

$$$$
1uud_lig
 OpenBabel11021811413D
libRbt.so/2013.1/901 2013/11/27
 25 25  0  0  0  0  0  0  0  0999 V2000
   -1.8251   -8.6675   -4.3712 C   0  0  0  0  0  0  0  0  0  0  0  0
   -2.4846  -11.4909   -4.8137 O   0  0  0  0  0  0  0  0  0  0  0  0
   -2.3585  -12.2283   -6.0387 C   0  0  0  0  0  0  0  0  0  0  0  0
   -1.7435   -8.3383   -2.9265 N   0  0  0  0  0  0  0  0  0  0  0  0
   -2.9640  -13.6292   -5.8781 C   0  0  0  0  0  0  0  0  0  0  0  0
   -1.9394   -9.5662   -2.1200 C   0  0  0  0  0  0  0  0  0  0  0  0
   -1.2284   -9.4120   -0.7701 C   0  0  0  0  0  0  0  0  0  0  0  0
   -3.3931  -14.0661   -7.0382 N   0  0  0  0  0  0  0  0  0  0  0  0
   -3.4769  -13.2698   -8.0874 C   0  0  0  0  0  0  0  0  0  0  0  0
    0.2888   -9.5029   -0.9668 C   0  0  0  0  0  0  0  0  0  0  0  0
    0.9948   -9.2251    0.3635 C   0  0  0  0  0  0  0  0  0  0  0  0
   -2.5478  -13.3089   -9.0903 N   0  0  0  0  0  0  0  0  0  0  0  0
   -4.5085  -12.3907   -8.1721 N   0  0  0  0  0  0  0  0  0  0  0  0
    2.0994   -9.9291    0.4370 N   0  0  0  0  0  0  0  0  0  0  0  0
    2.1944  -10.9823    1.2258 C   0  0  0  0  0  0  0  0  0  0  0  0
    3.4031  -11.3099    1.7504 N   0  0  0  0  0  0  0  0  0  0  0  0
    1.1075  -11.7564    1.5184 N   0  0  0  0  0  0  0  0  0  0  0  0
   -3.5299  -10.5172   -4.9305 C   0  0  0  0  0  0  0  0  0  0  0  0
   -6.6696   -7.6367   -5.2398 O   0  0  0  0  0  0  0  0  0  0  0  0
   -3.2536   -9.1357   -4.7183 C   0  0  0  0  0  0  0  0  0  0  0  0
   -4.3013   -8.1810   -4.8136 C   0  0  0  0  0  0  0  0  0  0  0  0
   -5.6177   -8.6002   -5.1406 C   0  0  0  0  0  0  0  0  0  0  0  0
   -5.8903   -9.9754   -5.3715 C   0  0  0  0  0  0  0  0  0  0  0  0
   -4.8458  -10.9344   -5.2738 C   0  0  0  0  0  0  0  0  0  0  0  0
   -7.4942   -7.7057   -4.0729 C   0  0  0  0  0  0  0  0  0  0  0  0
  1  4  1  0  0  0  0
  2  3  1  0  0  0  0
  3  5  1  0  0  0  0
  4  6  1  0  0  0  0
  5  8  1  0  0  0  0
  6  7  1  0  0  0  0
  7 10  1  0  0  0  0
  8  9  1  0  0  0  0
  9 12  1  0  0  0  0
  9 13  1  0  0  0  0
 10 11  1  0  0  0  0
 11 14  1  0  0  0  0
 14 15  1  0  0  0  0
 15 16  1  0  0  0  0
 15 17  1  0  0  0  0
 18  2  1  0  0  0  0
 18 20  2  0  0  0  0
 18 24  1  0  0  0  0
 19 25  1  0  0  0  0
 20  1  1  0  0  0  0
 20 21  1  0  0  0  0
 21 22  2  0  0  0  0
 22 19  1  0  0  0  0
 22 23  1  0  0  0  0
 23 24  2  0  0  0  0
M  END
>  <CHROM.1>
65.61747139,-104.61582354,152.05683490,153.20706240,-10.91101359,-72.57719122
175.04102755,102.92565609,85.20097741,82.05155641,147.13904700,-106.69498551
-150.18045509,126.07264984,142.33550501,-122.42538939,-104.24148451,-103.71502711
-2.34131315,-10.50208025,-3.75434949,0.64552635,-0.63456242,0.80495703

>  <Name>
1uud_lig

>  <RI>
0

>  <Rbt.Current_Directory>
/home/itssahil/PROJECTS/Mol_Feturizer/New_Systems/rnas/1uud

>  <Rbt.Executable>
rbdock ($Id: //depot/dev/client3/rdock/2013.1/src/exe/rbdock.cxx#4 $)

>  <Rbt.Library>
libRbt.so (2013.1, Build901 2013/11/27)

>  <Rbt.Parameter_File>
/export/apps/rDock/src/rDock_2013.1_src/data/scripts/dock_solv.prm

>  <Rbt.Receptor>
prm/pocket_docking_3.prm

>  <SCORE>
-32.3364

>  <SCORE.INTER>
-35.3092

>  <SCORE.INTER.CONST>
1

>  <SCORE.INTER.POLAR>
-4.92736

>  <SCORE.INTER.ROT>
18

>  <SCORE.INTER.SOLV>
14.6617

>  <SCORE.INTER.VDW>
-27.6022

>  <SCORE.INTER.norm>
-1.41237

>  <SCORE.INTRA>
2.96093

>  <SCORE.INTRA.DIHEDRAL>
1.56958

>  <SCORE.INTRA.DIHEDRAL.0>
30.6762

>  <SCORE.INTRA.POLAR>
0.0288659

>  <SCORE.INTRA.POLAR.0>
-0.0288659

>  <SCORE.INTRA.REPUL>
0

>  <SCORE.INTRA.REPUL.0>
0

>  <SCORE.INTRA.SOLV>
-0.130917

>  <SCORE.INTRA.SOLV.lig_0>
-25.2195

>  <SCORE.INTRA.VDW>
2.14346

>  <SCORE.INTRA.VDW.0>
4.14263

>  <SCORE.INTRA.norm>
0.118437

>  <SCORE.RESTR>
0.0118327

>  <SCORE.RESTR.CAVITY>
0.0118327

>  <SCORE.RESTR.norm>
0.00047331

>  <SCORE.SYSTEM>
0

>  <SCORE.SYSTEM.CONST>
0

>  <SCORE.SYSTEM.DIHEDRAL>
0

>  <SCORE.SYSTEM.SOLV>
0

>  <SCORE.SYSTEM.norm>
0

>  <SCORE.heavy>
25

>  <SCORE.norm>
-1.29346

>  <RMSD>
2.233

$$$$
1uud_lig
 OpenBabel11021811413D
libRbt.so/2013.1/901 2013/11/27
 25 25  0  0  0  0  0  0  0  0999 V2000
   -4.4733   -8.3318   -0.4786 C   0  0  0  0  0  0  0  0  0  0  0  0
   -5.3638  -10.1754   -2.5787 O   0  0  0  0  0  0  0  0  0  0  0  0
   -4.9541  -10.2633   -3.9516 C   0  0  0  0  0  0  0  0  0  0  0  0
   -4.6045   -9.6627    0.1645 N   0  0  0  0  0  0  0  0  0  0  0  0
   -4.7542  -11.7314   -4.3515 C   0  0  0  0  0  0  0  0  0  0  0  0
   -3.4153   -9.9326    1.0070 C   0  0  0  0  0  0  0  0  0  0  0  0
   -2.2117  -10.2459    0.1098 C   0  0  0  0  0  0  0  0  0  0  0  0
   -3.6889  -12.2150   -3.7582 N   0  0  0  0  0  0  0  0  0  0  0  0
   -2.6198  -12.5731   -4.4442 C   0  0  0  0  0  0  0  0  0  0  0  0
   -1.0272  -10.7034    0.9679 C   0  0  0  0  0  0  0  0  0  0  0  0
    0.0993  -11.2046    0.0596 C   0  0  0  0  0  0  0  0  0  0  0  0
   -1.4883  -11.8049   -4.4569 N   0  0  0  0  0  0  0  0  0  0  0  0
   -2.6445  -13.7302   -5.1547 N   0  0  0  0  0  0  0  0  0  0  0  0
    1.1133  -11.6071    0.7883 N   0  0  0  0  0  0  0  0  0  0  0  0
    2.2342  -10.9143    0.8523 C   0  0  0  0  0  0  0  0  0  0  0  0
    3.3958  -11.5587    1.1335 N   0  0  0  0  0  0  0  0  0  0  0  0
    2.2516   -9.5631    0.6525 N   0  0  0  0  0  0  0  0  0  0  0  0
   -6.1100   -8.9707   -2.3637 C   0  0  0  0  0  0  0  0  0  0  0  0
   -8.3744   -5.4076   -1.7101 O   0  0  0  0  0  0  0  0  0  0  0  0
   -5.7148   -8.0504   -1.3504 C   0  0  0  0  0  0  0  0  0  0  0  0
   -6.4746   -6.8705   -1.1296 C   0  0  0  0  0  0  0  0  0  0  0  0
   -7.6138   -6.5979   -1.9317 C   0  0  0  0  0  0  0  0  0  0  0  0
   -7.9974   -7.5055   -2.9555 C   0  0  0  0  0  0  0  0  0  0  0  0
   -7.2423   -8.6889   -3.1775 C   0  0  0  0  0  0  0  0  0  0  0  0
   -9.7147   -5.7553   -1.3504 C   0  0  0  0  0  0  0  0  0  0  0  0
  1  4  1  0  0  0  0
  2  3  1  0  0  0  0
  3  5  1  0  0  0  0
  4  6  1  0  0  0  0
  5  8  1  0  0  0  0
  6  7  1  0  0  0  0
  7 10  1  0  0  0  0
  8  9  1  0  0  0  0
  9 12  1  0  0  0  0
  9 13  1  0  0  0  0
 10 11  1  0  0  0  0
 11 14  1  0  0  0  0
 14 15  1  0  0  0  0
 15 16  1  0  0  0  0
 15 17  1  0  0  0  0
 18  2  1  0  0  0  0
 18 20  2  0  0  0  0
 18 24  1  0  0  0  0
 19 25  1  0  0  0  0
 20  1  1  0  0  0  0
 20 21  1  0  0  0  0
 21 22  2  0  0  0  0
 22 19  1  0  0  0  0
 22 23  1  0  0  0  0
 23 24  2  0  0  0  0
M  END
>  <CHROM.1>
-179.76994318,-154.02624105,-70.42105961,-73.42670455,-113.72523173,-172.67615428
171.92722472,104.94054561,70.03140998,154.32581759,-179.54428372,-107.93432707
-153.65037104,163.47533188,-108.73503958,-125.19020613,-54.88058046,-119.00240564
-3.54972156,-9.82587104,-1.56413397,-3.04903182,0.46983594,-2.25948615

>  <Name>
1uud_lig

>  <RI>
0

>  <Rbt.Current_Directory>
/home/itssahil/PROJECTS/Mol_Feturizer/New_Systems/rnas/1uud

>  <Rbt.Executable>
rbdock ($Id: //depot/dev/client3/rdock/2013.1/src/exe/rbdock.cxx#4 $)

>  <Rbt.Library>
libRbt.so (2013.1, Build901 2013/11/27)

>  <Rbt.Parameter_File>
/export/apps/rDock/src/rDock_2013.1_src/data/scripts/dock_solv.prm

>  <Rbt.Receptor>
prm/pocket_docking_4.prm

>  <SCORE>
-39.868

>  <SCORE.INTER>
-28.9592

>  <SCORE.INTER.CONST>
1

>  <SCORE.INTER.POLAR>
-4.75241

>  <SCORE.INTER.ROT>
18

>  <SCORE.INTER.SOLV>
12.6652

>  <SCORE.INTER.VDW>
-23.2865

>  <SCORE.INTER.norm>
-1.15837

>  <SCORE.INTRA>
-10.9147

>  <SCORE.INTRA.DIHEDRAL>
-9.36559

>  <SCORE.INTRA.DIHEDRAL.0>
30.6762

>  <SCORE.INTRA.POLAR>
-0.534194

>  <SCORE.INTRA.POLAR.0>
-0.0288659

>  <SCORE.INTRA.REPUL>
0

>  <SCORE.INTRA.REPUL.0>
0

>  <SCORE.INTRA.SOLV>
-0.900162

>  <SCORE.INTRA.SOLV.lig_0>
-25.2195

>  <SCORE.INTRA.VDW>
-3.9656

>  <SCORE.INTRA.VDW.0>
4.14263

>  <SCORE.INTRA.norm>
-0.43659

>  <SCORE.RESTR>
0.0059726

>  <SCORE.RESTR.CAVITY>
0.0059726

>  <SCORE.RESTR.norm>
0.000238904

>  <SCORE.SYSTEM>
0

>  <SCORE.SYSTEM.CONST>
0

>  <SCORE.SYSTEM.DIHEDRAL>
0

>  <SCORE.SYSTEM.SOLV>
0

>  <SCORE.SYSTEM.norm>
0

>  <SCORE.heavy>
25

>  <SCORE.norm>
-1.59472

>  <RMSD>
2.310

$$$$
1uud_lig
 OpenBabel11021811413D
libRbt.so/2013.1/901 2013/11/27
 25 25  0  0  0  0  0  0  0  0999 V2000
   -3.3648   -9.0431   -3.3751 C   0  0  0  0  0  0  0  0  0  0  0  0
   -4.6879  -11.2844   -4.7272 O   0  0  0  0  0  0  0  0  0  0  0  0
   -4.8208  -10.7101   -6.0359 C   0  0  0  0  0  0  0  0  0  0  0  0
   -2.7528   -8.4683   -2.1515 N   0  0  0  0  0  0  0  0  0  0  0  0
   -3.7921  -11.3284   -6.9923 C   0  0  0  0  0  0  0  0  0  0  0  0
   -1.3797   -7.9971   -2.4507 C   0  0  0  0  0  0  0  0  0  0  0  0
   -0.4104   -9.1848   -2.4129 C   0  0  0  0  0  0  0  0  0  0  0  0
   -4.4070  -12.0042   -7.9337 N   0  0  0  0  0  0  0  0  0  0  0  0
   -3.7977  -12.9640   -8.6040 C   0  0  0  0  0  0  0  0  0  0  0  0
    0.3970   -9.1573   -1.1106 C   0  0  0  0  0  0  0  0  0  0  0  0
   -0.4821   -9.6400    0.0468 C   0  0  0  0  0  0  0  0  0  0  0  0
   -4.4412  -14.1251   -8.9335 N   0  0  0  0  0  0  0  0  0  0  0  0
   -2.5019  -12.7953   -8.9738 N   0  0  0  0  0  0  0  0  0  0  0  0
    0.2267   -9.7010    1.1491 N   0  0  0  0  0  0  0  0  0  0  0  0
    1.1304  -10.6438    1.3363 C   0  0  0  0  0  0  0  0  0  0  0  0
    0.7584  -11.8105    1.9229 N   0  0  0  0  0  0  0  0  0  0  0  0
    2.4329  -10.4695    0.9633 N   0  0  0  0  0  0  0  0  0  0  0  0
   -5.4385  -10.5195   -3.7753 C   0  0  0  0  0  0  0  0  0  0  0  0
   -7.6806   -8.2811   -0.9095 O   0  0  0  0  0  0  0  0  0  0  0  0
   -4.8323   -9.4260   -3.0923 C   0  0  0  0  0  0  0  0  0  0  0  0
   -5.5777   -8.6887   -2.1336 C   0  0  0  0  0  0  0  0  0  0  0  0
   -6.9313   -9.0274   -1.8719 C   0  0  0  0  0  0  0  0  0  0  0  0
   -7.5427  -10.1055   -2.5668 C   0  0  0  0  0  0  0  0  0  0  0  0
   -6.7997  -10.8481   -3.5241 C   0  0  0  0  0  0  0  0  0  0  0  0
   -7.7894   -6.9204   -1.3374 C   0  0  0  0  0  0  0  0  0  0  0  0
  1  4  1  0  0  0  0
  2  3  1  0  0  0  0
  3  5  1  0  0  0  0
  4  6  1  0  0  0  0
  5  8  1  0  0  0  0
  6  7  1  0  0  0  0
  7 10  1  0  0  0  0
  8  9  1  0  0  0  0
  9 12  1  0  0  0  0
  9 13  1  0  0  0  0
 10 11  1  0  0  0  0
 11 14  1  0  0  0  0
 14 15  1  0  0  0  0
 15 16  1  0  0  0  0
 15 17  1  0  0  0  0
 18  2  1  0  0  0  0
 18 20  2  0  0  0  0
 18 24  1  0  0  0  0
 19 25  1  0  0  0  0
 20  1  1  0  0  0  0
 20 21  1  0  0  0  0
 21 22  2  0  0  0  0
 22 19  1  0  0  0  0
 22 23  1  0  0  0  0
 23 24  2  0  0  0  0
M  END
>  <CHROM.1>
-175.35441617,167.72962390,115.07739955,-81.42266331,-157.57777845,-103.60399186
76.04786963,140.08928518,150.25325326,-71.42173387,175.96661003,-72.73211329
-90.00687537,-7.35251356,-166.93104140,-89.70784907,-149.21925845,62.52002780
-3.30285351,-10.23690261,-3.10241225,2.18614862,0.29019892,-2.02495298

>  <Name>
1uud_lig

>  <RI>
0

>  <Rbt.Current_Directory>
/home/itssahil/PROJECTS/Mol_Feturizer/New_Systems/rnas/1uud

>  <Rbt.Executable>
rbdock ($Id: //depot/dev/client3/rdock/2013.1/src/exe/rbdock.cxx#4 $)

>  <Rbt.Library>
libRbt.so (2013.1, Build901 2013/11/27)

>  <Rbt.Parameter_File>
/export/apps/rDock/src/rDock_2013.1_src/data/scripts/dock_solv.prm

>  <Rbt.Receptor>
prm/pocket_docking_4.prm

>  <SCORE>
-37.0953

>  <SCORE.INTER>
-34.5246

>  <SCORE.INTER.CONST>
1

>  <SCORE.INTER.POLAR>
-4.62012

>  <SCORE.INTER.ROT>
18

>  <SCORE.INTER.SOLV>
13.9881

>  <SCORE.INTER.VDW>
-27.8787

>  <SCORE.INTER.norm>
-1.38098

>  <SCORE.INTRA>
-2.57064

>  <SCORE.INTRA.DIHEDRAL>
1.05798

>  <SCORE.INTRA.DIHEDRAL.0>
30.6762

>  <SCORE.INTRA.POLAR>
0.0288659

>  <SCORE.INTRA.POLAR.0>
-0.0288659

>  <SCORE.INTRA.REPUL>
0

>  <SCORE.INTRA.REPUL.0>
0

>  <SCORE.INTRA.SOLV>
-1.17463

>  <SCORE.INTRA.SOLV.lig_0>
-25.2195

>  <SCORE.INTRA.VDW>
-2.61046

>  <SCORE.INTRA.VDW.0>
4.14263

>  <SCORE.INTRA.norm>
-0.102825

>  <SCORE.RESTR>
0

>  <SCORE.RESTR.CAVITY>
0

>  <SCORE.RESTR.norm>
0

>  <SCORE.SYSTEM>
0

>  <SCORE.SYSTEM.CONST>
0

>  <SCORE.SYSTEM.DIHEDRAL>
0

>  <SCORE.SYSTEM.SOLV>
0

>  <SCORE.SYSTEM.norm>
0

>  <SCORE.heavy>
25

>  <SCORE.norm>
-1.48381

>  <RMSD>
2.438

$$$$
1uud_lig
 OpenBabel11021811413D
libRbt.so/2013.1/901 2013/11/27
 25 25  0  0  0  0  0  0  0  0999 V2000
   -4.9099   -9.3357   -2.0220 C   0  0  0  0  0  0  0  0  0  0  0  0
   -4.2193   -7.9394   -4.5072 O   0  0  0  0  0  0  0  0  0  0  0  0
   -4.5483   -8.0172   -5.9021 C   0  0  0  0  0  0  0  0  0  0  0  0
   -4.3305   -9.0029   -0.6970 N   0  0  0  0  0  0  0  0  0  0  0  0
   -3.3623   -8.5830   -6.6950 C   0  0  0  0  0  0  0  0  0  0  0  0
   -3.3825  -10.0642   -0.2828 C   0  0  0  0  0  0  0  0  0  0  0  0
   -2.9004   -9.7917    1.1472 C   0  0  0  0  0  0  0  0  0  0  0  0
   -3.1390   -9.8257   -6.3390 N   0  0  0  0  0  0  0  0  0  0  0  0
   -3.6899  -10.8375   -6.9830 C   0  0  0  0  0  0  0  0  0  0  0  0
   -1.6961  -10.6828    1.4700 C   0  0  0  0  0  0  0  0  0  0  0  0
   -0.4018   -9.9297    1.1494 C   0  0  0  0  0  0  0  0  0  0  0  0
   -3.7800  -10.8523   -8.3476 N   0  0  0  0  0  0  0  0  0  0  0  0
   -4.1796  -11.8872   -6.2741 N   0  0  0  0  0  0  0  0  0  0  0  0
    0.6310  -10.7137    1.3493 N   0  0  0  0  0  0  0  0  0  0  0  0
    1.7668  -10.5361    0.7021 C   0  0  0  0  0  0  0  0  0  0  0  0
    2.8193  -11.3489    0.9763 N   0  0  0  0  0  0  0  0  0  0  0  0
    1.9115   -9.5475   -0.2295 N   0  0  0  0  0  0  0  0  0  0  0  0
   -5.3536   -7.4841   -3.7584 C   0  0  0  0  0  0  0  0  0  0  0  0
   -8.7643   -6.1386   -1.5660 O   0  0  0  0  0  0  0  0  0  0  0  0
   -5.7268   -8.1375   -2.5486 C   0  0  0  0  0  0  0  0  0  0  0  0
   -6.8664   -7.6932   -1.8260 C   0  0  0  0  0  0  0  0  0  0  0  0
   -7.6201   -6.5863   -2.2973 C   0  0  0  0  0  0  0  0  0  0  0  0
   -7.2373   -5.9217   -3.4935 C   0  0  0  0  0  0  0  0  0  0  0  0
   -6.1000   -6.3650   -4.2215 C   0  0  0  0  0  0  0  0  0  0  0  0
   -9.9182   -6.1772   -2.4107 C   0  0  0  0  0  0  0  0  0  0  0  0
  1  4  1  0  0  0  0
  2  3  1  0  0  0  0
  3  5  1  0  0  0  0
  4  6  1  0  0  0  0
  5  8  1  0  0  0  0
  6  7  1  0  0  0  0
  7 10  1  0  0  0  0
  8  9  1  0  0  0  0
  9 12  1  0  0  0  0
  9 13  1  0  0  0  0
 10 11  1  0  0  0  0
 11 14  1  0  0  0  0
 14 15  1  0  0  0  0
 15 16  1  0  0  0  0
 15 17  1  0  0  0  0
 18  2  1  0  0  0  0
 18 20  2  0  0  0  0
 18 24  1  0  0  0  0
 19 25  1  0  0  0  0
 20  1  1  0  0  0  0
 20 21  1  0  0  0  0
 21 22  2  0  0  0  0
 22 19  1  0  0  0  0
 22 23  1  0  0  0  0
 23 24  2  0  0  0  0
M  END
>  <CHROM.1>
-171.46308172,-176.66805270,65.29076354,-174.06419119,92.43929650,-167.17595091
92.86270807,41.42720944,-143.05113380,56.28193403,-176.33512291,153.73066326
177.91979761,19.46904002,146.63825388,134.38104599,118.09079087,-122.27764725
-3.71665973,-8.99616140,-2.54204621,2.65746592,0.48143506,-1.76191235

>  <Name>
1uud_lig

>  <RI>
0

>  <Rbt.Current_Directory>
/home/itssahil/PROJECTS/Mol_Feturizer/New_Systems/rnas/1uud

>  <Rbt.Executable>
rbdock ($Id: //depot/dev/client3/rdock/2013.1/src/exe/rbdock.cxx#4 $)

>  <Rbt.Library>
libRbt.so (2013.1, Build901 2013/11/27)

>  <Rbt.Parameter_File>
/export/apps/rDock/src/rDock_2013.1_src/data/scripts/dock_solv.prm

>  <Rbt.Receptor>
prm/pocket_docking_4.prm

>  <SCORE>
-31.2066

>  <SCORE.INTER>
-23.8415

>  <SCORE.INTER.CONST>
1

>  <SCORE.INTER.POLAR>
-3.27641

>  <SCORE.INTER.ROT>
18

>  <SCORE.INTER.SOLV>
10.7183

>  <SCORE.INTER.VDW>
-24.1458

>  <SCORE.INTER.norm>
-0.953661

>  <SCORE.INTRA>
-7.3651

>  <SCORE.INTRA.DIHEDRAL>
-9.86976

>  <SCORE.INTRA.DIHEDRAL.0>
30.6762

>  <SCORE.INTRA.POLAR>
0.0288659

>  <SCORE.INTRA.POLAR.0>
-0.0288659

>  <SCORE.INTRA.REPUL>
0

>  <SCORE.INTRA.REPUL.0>
0

>  <SCORE.INTRA.SOLV>
-1.13591

>  <SCORE.INTRA.SOLV.lig_0>
-25.2195

>  <SCORE.INTRA.VDW>
-1.9604

>  <SCORE.INTRA.VDW.0>
4.14263

>  <SCORE.INTRA.norm>
-0.294604

>  <SCORE.RESTR>
0

>  <SCORE.RESTR.CAVITY>
0

>  <SCORE.RESTR.norm>
0

>  <SCORE.SYSTEM>
0

>  <SCORE.SYSTEM.CONST>
0

>  <SCORE.SYSTEM.DIHEDRAL>
0

>  <SCORE.SYSTEM.SOLV>
0

>  <SCORE.SYSTEM.norm>
0

>  <SCORE.heavy>
25

>  <SCORE.norm>
-1.24826

>  <RMSD>
2.441

$$$$
1uud_lig
 OpenBabel11021811413D
libRbt.so/2013.1/901 2013/11/27
 25 25  0  0  0  0  0  0  0  0999 V2000
   -3.6640   -8.8420   -3.6639 C   0  0  0  0  0  0  0  0  0  0  0  0
   -2.8177   -9.3351   -6.4285 O   0  0  0  0  0  0  0  0  0  0  0  0
   -3.8922  -10.2026   -6.8196 C   0  0  0  0  0  0  0  0  0  0  0  0
   -2.5351   -8.5352   -2.7509 N   0  0  0  0  0  0  0  0  0  0  0  0
   -3.3908  -11.6487   -6.9326 C   0  0  0  0  0  0  0  0  0  0  0  0
   -1.2598   -8.9770   -3.3634 C   0  0  0  0  0  0  0  0  0  0  0  0
   -0.0859   -8.5250   -2.4863 C   0  0  0  0  0  0  0  0  0  0  0  0
   -2.9452  -12.0593   -5.7691 N   0  0  0  0  0  0  0  0  0  0  0  0
   -2.4275  -13.2634   -5.6144 C   0  0  0  0  0  0  0  0  0  0  0  0
   -0.1128   -9.2776   -1.1515 C   0  0  0  0  0  0  0  0  0  0  0  0
    1.1034   -8.8748   -0.3124 C   0  0  0  0  0  0  0  0  0  0  0  0
   -1.2898  -13.4636   -4.8822 N   0  0  0  0  0  0  0  0  0  0  0  0
   -3.0379  -14.3276   -6.1967 N   0  0  0  0  0  0  0  0  0  0  0  0
    1.0801   -9.5062    0.8374 N   0  0  0  0  0  0  0  0  0  0  0  0
    1.5971  -10.7125    0.9720 C   0  0  0  0  0  0  0  0  0  0  0  0
    0.7796  -11.7946    0.9051 N   0  0  0  0  0  0  0  0  0  0  0  0
    2.9333  -10.8973    1.1873 N   0  0  0  0  0  0  0  0  0  0  0  0
   -3.3291   -8.0397   -6.0897 C   0  0  0  0  0  0  0  0  0  0  0  0
   -4.8917   -4.1857   -5.1122 O   0  0  0  0  0  0  0  0  0  0  0  0
   -3.7561   -7.7598   -4.7596 C   0  0  0  0  0  0  0  0  0  0  0  0
   -4.2832   -6.4799   -4.4394 C   0  0  0  0  0  0  0  0  0  0  0  0
   -4.3646   -5.4743   -5.4381 C   0  0  0  0  0  0  0  0  0  0  0  0
   -3.9209   -5.7463   -6.7603 C   0  0  0  0  0  0  0  0  0  0  0  0
   -3.3962   -7.0264   -7.0859 C   0  0  0  0  0  0  0  0  0  0  0  0
   -3.9546   -3.4771   -4.2960 C   0  0  0  0  0  0  0  0  0  0  0  0
  1  4  1  0  0  0  0
  2  3  1  0  0  0  0
  3  5  1  0  0  0  0
  4  6  1  0  0  0  0
  5  8  1  0  0  0  0
  6  7  1  0  0  0  0
  7 10  1  0  0  0  0
  8  9  1  0  0  0  0
  9 12  1  0  0  0  0
  9 13  1  0  0  0  0
 10 11  1  0  0  0  0
 11 14  1  0  0  0  0
 14 15  1  0  0  0  0
 15 16  1  0  0  0  0
 15 17  1  0  0  0  0
 18  2  1  0  0  0  0
 18 20  2  0  0  0  0
 18 24  1  0  0  0  0
 19 25  1  0  0  0  0
 20  1  1  0  0  0  0
 20 21  1  0  0  0  0
 21 22  2  0  0  0  0
 22 19  1  0  0  0  0
 22 23  1  0  0  0  0
 23 24  2  0  0  0  0
M  END
>  <CHROM.1>
-80.42853764,-169.61810720,61.26309633,174.03594456,-178.27696149,67.27466362
177.03833280,136.82417341,64.12423362,68.41597380,179.41492511,86.37204455
-97.42546711,17.22538940,105.72243708,88.24556870,105.43057184,71.78127164
-2.01674290,-9.22113096,-3.78550905,-2.96661254,0.92665116,-2.79022207

>  <Name>
1uud_lig

>  <RI>
0

>  <Rbt.Current_Directory>
/home/itssahil/PROJECTS/Mol_Feturizer/New_Systems/rnas/1uud

>  <Rbt.Executable>
rbdock ($Id: //depot/dev/client3/rdock/2013.1/src/exe/rbdock.cxx#4 $)

>  <Rbt.Library>
libRbt.so (2013.1, Build901 2013/11/27)

>  <Rbt.Parameter_File>
/export/apps/rDock/src/rDock_2013.1_src/data/scripts/dock_solv.prm

>  <Rbt.Receptor>
prm/pocket_docking_5.prm

>  <SCORE>
-29.5686

>  <SCORE.INTER>
-19.2795

>  <SCORE.INTER.CONST>
1

>  <SCORE.INTER.POLAR>
-3.51721

>  <SCORE.INTER.ROT>
18

>  <SCORE.INTER.SOLV>
10.268

>  <SCORE.INTER.VDW>
-20.1516

>  <SCORE.INTER.norm>
-0.771181

>  <SCORE.INTRA>
-10.2891

>  <SCORE.INTRA.DIHEDRAL>
-9.43709

>  <SCORE.INTRA.DIHEDRAL.0>
30.6762

>  <SCORE.INTRA.POLAR>
0.0288659

>  <SCORE.INTRA.POLAR.0>
-0.0288659

>  <SCORE.INTRA.REPUL>
0

>  <SCORE.INTRA.REPUL.0>
0

>  <SCORE.INTRA.SOLV>
-0.871752

>  <SCORE.INTRA.SOLV.lig_0>
-25.2195

>  <SCORE.INTRA.VDW>
-5.2328

>  <SCORE.INTRA.VDW.0>
4.14263

>  <SCORE.INTRA.norm>
-0.411563

>  <SCORE.RESTR>
0

>  <SCORE.RESTR.CAVITY>
0

>  <SCORE.RESTR.norm>
0

>  <SCORE.SYSTEM>
0

>  <SCORE.SYSTEM.CONST>
0

>  <SCORE.SYSTEM.DIHEDRAL>
0

>  <SCORE.SYSTEM.SOLV>
0

>  <SCORE.SYSTEM.norm>
0

>  <SCORE.heavy>
25

>  <SCORE.norm>
-1.18274

>  <RMSD>
2.464

$$$$
1uud_lig
 OpenBabel11021811413D
libRbt.so/2013.1/901 2013/11/27
 25 25  0  0  0  0  0  0  0  0999 V2000
   -2.7022  -10.5919   -2.4306 C   0  0  0  0  0  0  0  0  0  0  0  0
   -2.9228  -12.3637   -4.7575 O   0  0  0  0  0  0  0  0  0  0  0  0
   -2.2098  -12.2420   -5.9973 C   0  0  0  0  0  0  0  0  0  0  0  0
   -3.3309  -10.6980   -1.0906 N   0  0  0  0  0  0  0  0  0  0  0  0
   -1.8750  -13.6323   -6.5542 C   0  0  0  0  0  0  0  0  0  0  0  0
   -2.8613   -9.5891   -0.2265 C   0  0  0  0  0  0  0  0  0  0  0  0
   -2.0627  -10.1600    0.9516 C   0  0  0  0  0  0  0  0  0  0  0  0
   -2.9806  -14.2726   -6.8516 N   0  0  0  0  0  0  0  0  0  0  0  0
   -3.6028  -14.0788   -7.9994 C   0  0  0  0  0  0  0  0  0  0  0  0
   -0.7462  -10.7605    0.4466 C   0  0  0  0  0  0  0  0  0  0  0  0
    0.1413  -11.1246    1.6403 C   0  0  0  0  0  0  0  0  0  0  0  0
   -3.4509  -14.9421   -9.0493 N   0  0  0  0  0  0  0  0  0  0  0  0
   -4.4110  -12.9968   -8.1413 N   0  0  0  0  0  0  0  0  0  0  0  0
    1.2364  -11.7112    1.2186 N   0  0  0  0  0  0  0  0  0  0  0  0
    2.3329  -11.0231    0.9641 C   0  0  0  0  0  0  0  0  0  0  0  0
    3.5356  -11.6512    1.0146 N   0  0  0  0  0  0  0  0  0  0  0  0
    2.2870   -9.6918    0.6613 N   0  0  0  0  0  0  0  0  0  0  0  0
   -3.8629  -11.2902   -4.6228 C   0  0  0  0  0  0  0  0  0  0  0  0
   -6.7024   -8.1241   -4.2180 O   0  0  0  0  0  0  0  0  0  0  0  0
   -3.7944  -10.4095   -3.5049 C   0  0  0  0  0  0  0  0  0  0  0  0
   -4.7452   -9.3628   -3.3685 C   0  0  0  0  0  0  0  0  0  0  0  0
   -5.7492   -9.1810   -4.3556 C   0  0  0  0  0  0  0  0  0  0  0  0
   -5.8064  -10.0467   -5.4809 C   0  0  0  0  0  0  0  0  0  0  0  0
   -4.8594  -11.0974   -5.6196 C   0  0  0  0  0  0  0  0  0  0  0  0
   -7.7584   -8.5416   -3.3478 C   0  0  0  0  0  0  0  0  0  0  0  0
  1  4  1  0  0  0  0
  2  3  1  0  0  0  0
  3  5  1  0  0  0  0
  4  6  1  0  0  0  0
  5  8  1  0  0  0  0
  6  7  1  0  0  0  0
  7 10  1  0  0  0  0
  8  9  1  0  0  0  0
  9 12  1  0  0  0  0
  9 13  1  0  0  0  0
 10 11  1  0  0  0  0
 11 14  1  0  0  0  0
 14 15  1  0  0  0  0
 15 16  1  0  0  0  0
 15 17  1  0  0  0  0
 18  2  1  0  0  0  0
 18 20  2  0  0  0  0
 18 24  1  0  0  0  0
 19 25  1  0  0  0  0
 20  1  1  0  0  0  0
 20 21  1  0  0  0  0
 21 22  2  0  0  0  0
 22 19  1  0  0  0  0
 22 23  1  0  0  0  0
 23 24  2  0  0  0  0
M  END
>  <CHROM.1>
-118.86422722,-146.75346452,64.36837257,-115.83445160,82.95395440,68.36086192
171.04262733,99.13021573,-90.38746910,33.21208082,176.30888135,92.13648232
155.89396573,-5.80478041,-124.21252232,-121.86730209,-125.65330915,-82.58089979
-2.62166088,-11.21929044,-3.21289762,0.84885188,-0.49792310,0.99285441

>  <Name>
1uud_lig

>  <RI>
0

>  <Rbt.Current_Directory>
/home/itssahil/PROJECTS/Mol_Feturizer/New_Systems/rnas/1uud

>  <Rbt.Executable>
rbdock ($Id: //depot/dev/client3/rdock/2013.1/src/exe/rbdock.cxx#4 $)

>  <Rbt.Library>
libRbt.so (2013.1, Build901 2013/11/27)

>  <Rbt.Parameter_File>
/export/apps/rDock/src/rDock_2013.1_src/data/scripts/dock_solv.prm

>  <Rbt.Receptor>
prm/pocket_docking_7.prm

>  <SCORE>
-47.5987

>  <SCORE.INTER>
-44.1367

>  <SCORE.INTER.CONST>
1

>  <SCORE.INTER.POLAR>
-6.01975

>  <SCORE.INTER.ROT>
18

>  <SCORE.INTER.SOLV>
15.9072

>  <SCORE.INTER.VDW>
-30.261

>  <SCORE.INTER.norm>
-1.76547

>  <SCORE.INTRA>
-3.462

>  <SCORE.INTRA.DIHEDRAL>
-0.0848448

>  <SCORE.INTRA.DIHEDRAL.0>
30.6762

>  <SCORE.INTRA.POLAR>
0.0288659

>  <SCORE.INTRA.POLAR.0>
-0.0288659

>  <SCORE.INTRA.REPUL>
0

>  <SCORE.INTRA.REPUL.0>
0

>  <SCORE.INTRA.SOLV>
-0.196931

>  <SCORE.INTRA.SOLV.lig_0>
-25.2195

>  <SCORE.INTRA.VDW>
-3.41925

>  <SCORE.INTRA.VDW.0>
4.14263

>  <SCORE.INTRA.norm>
-0.13848

>  <SCORE.RESTR>
0

>  <SCORE.RESTR.CAVITY>
0

>  <SCORE.RESTR.norm>
0

>  <SCORE.SYSTEM>
0

>  <SCORE.SYSTEM.CONST>
0

>  <SCORE.SYSTEM.DIHEDRAL>
0

>  <SCORE.SYSTEM.SOLV>
0

>  <SCORE.SYSTEM.norm>
0

>  <SCORE.heavy>
25

>  <SCORE.norm>
-1.90395

>  <RMSD>
2.499

$$$$
1uud_lig
 OpenBabel11021811413D
libRbt.so/2013.1/901 2013/11/27
 25 25  0  0  0  0  0  0  0  0999 V2000
   -3.1392   -9.6701   -2.8176 C   0  0  0  0  0  0  0  0  0  0  0  0
   -4.5971   -9.6502   -5.3625 O   0  0  0  0  0  0  0  0  0  0  0  0
   -4.8831  -10.8591   -6.0816 C   0  0  0  0  0  0  0  0  0  0  0  0
   -2.6707   -8.9556   -1.6042 N   0  0  0  0  0  0  0  0  0  0  0  0
   -4.2036  -10.8301   -7.4574 C   0  0  0  0  0  0  0  0  0  0  0  0
   -1.1963   -9.0621   -1.4968 C   0  0  0  0  0  0  0  0  0  0  0  0
   -0.7824   -8.9806   -0.0225 C   0  0  0  0  0  0  0  0  0  0  0  0
   -4.6015  -11.8543   -8.1739 N   0  0  0  0  0  0  0  0  0  0  0  0
   -3.7493  -12.7600   -8.6159 C   0  0  0  0  0  0  0  0  0  0  0  0
   -1.1166  -10.2976    0.6864 C   0  0  0  0  0  0  0  0  0  0  0  0
    0.0239  -11.2971    0.4733 C   0  0  0  0  0  0  0  0  0  0  0  0
   -2.5054  -12.4117   -9.0654 N   0  0  0  0  0  0  0  0  0  0  0  0
   -4.1165  -14.0673   -8.6257 N   0  0  0  0  0  0  0  0  0  0  0  0
    0.9661  -11.0941    1.3633 N   0  0  0  0  0  0  0  0  0  0  0  0
    2.1631  -10.6632    1.0140 C   0  0  0  0  0  0  0  0  0  0  0  0
    2.3017   -9.3929    0.5550 N   0  0  0  0  0  0  0  0  0  0  0  0
    3.2638  -11.4683    1.0936 N   0  0  0  0  0  0  0  0  0  0  0  0
   -5.3486   -9.6135   -4.1426 C   0  0  0  0  0  0  0  0  0  0  0  0
   -7.6097   -9.5485   -0.5185 O   0  0  0  0  0  0  0  0  0  0  0  0
   -4.6799   -9.6270   -2.8846 C   0  0  0  0  0  0  0  0  0  0  0  0
   -5.4346   -9.6138   -1.6810 C   0  0  0  0  0  0  0  0  0  0  0  0
   -6.8526   -9.5657   -1.7314 C   0  0  0  0  0  0  0  0  0  0  0  0
   -7.5198   -9.5326   -2.9854 C   0  0  0  0  0  0  0  0  0  0  0  0
   -6.7689   -9.5492   -4.1920 C   0  0  0  0  0  0  0  0  0  0  0  0
   -7.3763   -8.3190    0.1746 C   0  0  0  0  0  0  0  0  0  0  0  0
  1  4  1  0  0  0  0
  2  3  1  0  0  0  0
  3  5  1  0  0  0  0
  4  6  1  0  0  0  0
  5  8  1  0  0  0  0
  6  7  1  0  0  0  0
  7 10  1  0  0  0  0
  8  9  1  0  0  0  0
  9 12  1  0  0  0  0
  9 13  1  0  0  0  0
 10 11  1  0  0  0  0
 11 14  1  0  0  0  0
 14 15  1  0  0  0  0
 15 16  1  0  0  0  0
 15 17  1  0  0  0  0
 18  2  1  0  0  0  0
 18 20  2  0  0  0  0
 18 24  1  0  0  0  0
 19 25  1  0  0  0  0
 20  1  1  0  0  0  0
 20 21  1  0  0  0  0
 21 22  2  0  0  0  0
 22 19  1  0  0  0  0
 22 23  1  0  0  0  0
 23 24  2  0  0  0  0
M  END
>  <CHROM.1>
176.78608529,173.68713986,-172.12594469,-152.09698082,-119.53016726,74.59607860
84.75182098,-38.55251335,-65.92262352,-170.16165928,84.21981743,-113.66900361
69.05591316,-122.14299131,-179.86195185,115.92787553,148.87028285,67.05861279
-3.12933764,-10.37677698,-2.88792376,0.89418578,-0.25388536,1.22540568

>  <Name>
1uud_lig

>  <RI>
0

>  <Rbt.Current_Directory>
/home/itssahil/PROJECTS/Mol_Feturizer/New_Systems/rnas/1uud

>  <Rbt.Executable>
rbdock ($Id: //depot/dev/client3/rdock/2013.1/src/exe/rbdock.cxx#4 $)

>  <Rbt.Library>
libRbt.so (2013.1, Build901 2013/11/27)

>  <Rbt.Parameter_File>
/export/apps/rDock/src/rDock_2013.1_src/data/scripts/dock_solv.prm

>  <Rbt.Receptor>
prm/pocket_docking_4.prm

>  <SCORE>
-51.5419

>  <SCORE.INTER>
-44.2685

>  <SCORE.INTER.CONST>
1

>  <SCORE.INTER.POLAR>
-5.86047

>  <SCORE.INTER.ROT>
18

>  <SCORE.INTER.SOLV>
16.2115

>  <SCORE.INTER.VDW>
-30.9813

>  <SCORE.INTER.norm>
-1.77074

>  <SCORE.INTRA>
-7.31447

>  <SCORE.INTRA.DIHEDRAL>
-5.37787

>  <SCORE.INTRA.DIHEDRAL.0>
30.6762

>  <SCORE.INTRA.POLAR>
0.0288659

>  <SCORE.INTRA.POLAR.0>
-0.0288659

>  <SCORE.INTRA.REPUL>
0

>  <SCORE.INTRA.REPUL.0>
0

>  <SCORE.INTRA.SOLV>
-0.917836

>  <SCORE.INTRA.SOLV.lig_0>
-25.2195

>  <SCORE.INTRA.VDW>
-4.26476

>  <SCORE.INTRA.VDW.0>
4.14263

>  <SCORE.INTRA.norm>
-0.292579

>  <SCORE.RESTR>
0.0410678

>  <SCORE.RESTR.CAVITY>
0.0410678

>  <SCORE.RESTR.norm>
0.00164271

>  <SCORE.SYSTEM>
0

>  <SCORE.SYSTEM.CONST>
0

>  <SCORE.SYSTEM.DIHEDRAL>
0

>  <SCORE.SYSTEM.SOLV>
0

>  <SCORE.SYSTEM.norm>
0

>  <SCORE.heavy>
25

>  <SCORE.norm>
-2.06168

>  <RMSD>
2.626

$$$$
1uud_lig
 OpenBabel11021811413D
libRbt.so/2013.1/901 2013/11/27
 25 25  0  0  0  0  0  0  0  0999 V2000
   -3.7653   -9.1071   -3.7272 C   0  0  0  0  0  0  0  0  0  0  0  0
   -2.1632   -9.3575   -6.1712 O   0  0  0  0  0  0  0  0  0  0  0  0
   -2.6193  -10.1513   -7.2767 C   0  0  0  0  0  0  0  0  0  0  0  0
   -2.6471   -8.8185   -2.7954 N   0  0  0  0  0  0  0  0  0  0  0  0
   -2.1805  -11.6109   -7.0970 C   0  0  0  0  0  0  0  0  0  0  0  0
   -2.5643   -9.8816   -1.7660 C   0  0  0  0  0  0  0  0  0  0  0  0
   -1.6912   -9.4003   -0.6008 C   0  0  0  0  0  0  0  0  0  0  0  0
   -2.3209  -12.2620   -8.2271 N   0  0  0  0  0  0  0  0  0  0  0  0
   -3.4648  -12.8313   -8.5579 C   0  0  0  0  0  0  0  0  0  0  0  0
   -0.2485   -9.2015   -1.0780 C   0  0  0  0  0  0  0  0  0  0  0  0
    0.5571   -8.4880    0.0115 C   0  0  0  0  0  0  0  0  0  0  0  0
   -3.5035  -14.0474   -9.1827 N   0  0  0  0  0  0  0  0  0  0  0  0
   -4.6297  -12.1943   -8.2725 N   0  0  0  0  0  0  0  0  0  0  0  0
    0.7660   -9.3039    1.0174 N   0  0  0  0  0  0  0  0  0  0  0  0
    1.6294  -10.2977    0.9312 C   0  0  0  0  0  0  0  0  0  0  0  0
    1.3403  -11.4802    1.5326 N   0  0  0  0  0  0  0  0  0  0  0  0
    2.8114  -10.1613    0.2599 N   0  0  0  0  0  0  0  0  0  0  0  0
   -2.9991   -8.2036   -6.0157 C   0  0  0  0  0  0  0  0  0  0  0  0
   -5.5171   -4.7784   -5.5927 O   0  0  0  0  0  0  0  0  0  0  0  0
   -3.7974   -8.0455   -4.8462 C   0  0  0  0  0  0  0  0  0  0  0  0
   -4.6402   -6.9097   -4.7121 C   0  0  0  0  0  0  0  0  0  0  0  0
   -4.6710   -5.9227   -5.7321 C   0  0  0  0  0  0  0  0  0  0  0  0
   -3.8605   -6.0697   -6.8898 C   0  0  0  0  0  0  0  0  0  0  0  0
   -3.0185   -7.2062   -7.0298 C   0  0  0  0  0  0  0  0  0  0  0  0
   -4.7476   -3.5875   -5.7830 C   0  0  0  0  0  0  0  0  0  0  0  0
  1  4  1  0  0  0  0
  2  3  1  0  0  0  0
  3  5  1  0  0  0  0
  4  6  1  0  0  0  0
  5  8  1  0  0  0  0
  6  7  1  0  0  0  0
  7 10  1  0  0  0  0
  8  9  1  0  0  0  0
  9 12  1  0  0  0  0
  9 13  1  0  0  0  0
 10 11  1  0  0  0  0
 11 14  1  0  0  0  0
 14 15  1  0  0  0  0
 15 16  1  0  0  0  0
 15 17  1  0  0  0  0
 18  2  1  0  0  0  0
 18 20  2  0  0  0  0
 18 24  1  0  0  0  0
 19 25  1  0  0  0  0
 20  1  1  0  0  0  0
 20 21  1  0  0  0  0
 21 22  2  0  0  0  0
 22 19  1  0  0  0  0
 22 23  1  0  0  0  0
 23 24  2  0  0  0  0
M  END
>  <CHROM.1>
-176.65469462,-155.35544623,-165.53892125,-164.37135787,-86.78603614,-65.28901834
169.93078317,-140.98276616,168.13129118,168.83127606,71.38662023,73.28923301
-142.74772323,149.81918629,-20.65833541,114.95589301,86.01467798,127.36196978
-2.27251569,-9.24107616,-4.27085526,2.64348236,0.94822277,-2.50013052

>  <Name>
1uud_lig

>  <RI>
0

>  <Rbt.Current_Directory>
/home/itssahil/PROJECTS/Mol_Feturizer/New_Systems/rnas/1uud

>  <Rbt.Executable>
rbdock ($Id: //depot/dev/client3/rdock/2013.1/src/exe/rbdock.cxx#4 $)

>  <Rbt.Library>
libRbt.so (2013.1, Build901 2013/11/27)

>  <Rbt.Parameter_File>
/export/apps/rDock/src/rDock_2013.1_src/data/scripts/dock_solv.prm

>  <Rbt.Receptor>
prm/pocket_docking_8.prm

>  <SCORE>
-33.6612

>  <SCORE.INTER>
-27.8432

>  <SCORE.INTER.CONST>
1

>  <SCORE.INTER.POLAR>
-4.34688

>  <SCORE.INTER.ROT>
18

>  <SCORE.INTER.SOLV>
12.6727

>  <SCORE.INTER.VDW>
-23.8968

>  <SCORE.INTER.norm>
-1.11373

>  <SCORE.INTRA>
-5.81801

>  <SCORE.INTRA.DIHEDRAL>
-8.40436

>  <SCORE.INTRA.DIHEDRAL.0>
30.6762

>  <SCORE.INTRA.POLAR>
0.0288659

>  <SCORE.INTRA.POLAR.0>
-0.0288659

>  <SCORE.INTRA.REPUL>
0

>  <SCORE.INTRA.REPUL.0>
0

>  <SCORE.INTRA.SOLV>
-0.754886

>  <SCORE.INTRA.SOLV.lig_0>
-25.2195

>  <SCORE.INTRA.VDW>
-1.33653

>  <SCORE.INTRA.VDW.0>
4.14263

>  <SCORE.INTRA.norm>
-0.23272

>  <SCORE.RESTR>
0

>  <SCORE.RESTR.CAVITY>
0

>  <SCORE.RESTR.norm>
0

>  <SCORE.SYSTEM>
0

>  <SCORE.SYSTEM.CONST>
0

>  <SCORE.SYSTEM.DIHEDRAL>
0

>  <SCORE.SYSTEM.SOLV>
0

>  <SCORE.SYSTEM.norm>
0

>  <SCORE.heavy>
25

>  <SCORE.norm>
-1.34645

>  <RMSD>
2.629

$$$$
1uud_lig
 OpenBabel11021811413D
libRbt.so/2013.1/901 2013/11/27
 25 25  0  0  0  0  0  0  0  0999 V2000
   -2.9450   -8.6568   -3.8113 C   0  0  0  0  0  0  0  0  0  0  0  0
   -3.0593  -11.3703   -4.9186 O   0  0  0  0  0  0  0  0  0  0  0  0
   -2.7252  -12.6236   -4.3038 C   0  0  0  0  0  0  0  0  0  0  0  0
   -2.2930   -8.6543   -2.4783 N   0  0  0  0  0  0  0  0  0  0  0  0
   -1.4820  -13.2262   -4.9719 C   0  0  0  0  0  0  0  0  0  0  0  0
   -1.2956   -7.5602   -2.4092 C   0  0  0  0  0  0  0  0  0  0  0  0
   -0.7060   -7.4922   -0.9952 C   0  0  0  0  0  0  0  0  0  0  0  0
   -0.4892  -12.3702   -4.9228 N   0  0  0  0  0  0  0  0  0  0  0  0
    0.2900  -12.1567   -5.9665 C   0  0  0  0  0  0  0  0  0  0  0  0
    0.3235   -8.6115   -0.8055 C   0  0  0  0  0  0  0  0  0  0  0  0
    0.6769   -8.7355    0.6794 C   0  0  0  0  0  0  0  0  0  0  0  0
    1.6136  -12.5007   -5.9525 N   0  0  0  0  0  0  0  0  0  0  0  0
   -0.2345  -11.5810   -7.0790 N   0  0  0  0  0  0  0  0  0  0  0  0
    1.7292   -9.5055    0.8241 N   0  0  0  0  0  0  0  0  0  0  0  0
    1.6339  -10.8203    0.7704 C   0  0  0  0  0  0  0  0  0  0  0  0
    2.7623  -11.5702    0.8598 N   0  0  0  0  0  0  0  0  0  0  0  0
    0.4282  -11.4437    0.6167 N   0  0  0  0  0  0  0  0  0  0  0  0
   -4.2408  -10.8261   -4.3166 C   0  0  0  0  0  0  0  0  0  0  0  0
   -7.7609   -9.2404   -2.4876 O   0  0  0  0  0  0  0  0  0  0  0  0
   -4.2269   -9.5137   -3.7621 C   0  0  0  0  0  0  0  0  0  0  0  0
   -5.3965   -8.9923   -3.1469 C   0  0  0  0  0  0  0  0  0  0  0  0
   -6.5839   -9.7692   -3.1037 C   0  0  0  0  0  0  0  0  0  0  0  0
   -6.6044  -11.0706   -3.6738 C   0  0  0  0  0  0  0  0  0  0  0  0
   -5.4356  -11.5977   -4.2870 C   0  0  0  0  0  0  0  0  0  0  0  0
   -8.5826   -8.6180   -3.4795 C   0  0  0  0  0  0  0  0  0  0  0  0
  1  4  1  0  0  0  0
  2  3  1  0  0  0  0
  3  5  1  0  0  0  0
  4  6  1  0  0  0  0
  5  8  1  0  0  0  0
  6  7  1  0  0  0  0
  7 10  1  0  0  0  0
  8  9  1  0  0  0  0
  9 12  1  0  0  0  0
  9 13  1  0  0  0  0
 10 11  1  0  0  0  0
 11 14  1  0  0  0  0
 14 15  1  0  0  0  0
 15 16  1  0  0  0  0
 15 17  1  0  0  0  0
 18  2  1  0  0  0  0
 18 20  2  0  0  0  0
 18 24  1  0  0  0  0
 19 25  1  0  0  0  0
 20  1  1  0  0  0  0
 20 21  1  0  0  0  0
 21 22  2  0  0  0  0
 22 19  1  0  0  0  0
 22 23  1  0  0  0  0
 23 24  2  0  0  0  0
M  END
>  <CHROM.1>
-164.48740523,178.50211252,55.87757790,175.54134110,-136.44841177,77.28487685
-167.57131908,-113.99397782,-172.87657917,91.18349469,-168.16514546,-79.01148991
176.75776637,-32.11950100,41.42881361,124.72633064,-103.13312222,93.79167998
-2.08374259,-10.35975192,-2.90563786,2.84577826,0.26396276,-2.10412269

>  <Name>
1uud_lig

>  <RI>
0

>  <Rbt.Current_Directory>
/home/itssahil/PROJECTS/Mol_Feturizer/New_Systems/rnas/1uud

>  <Rbt.Executable>
rbdock ($Id: //depot/dev/client3/rdock/2013.1/src/exe/rbdock.cxx#4 $)

>  <Rbt.Library>
libRbt.so (2013.1, Build901 2013/11/27)

>  <Rbt.Parameter_File>
/export/apps/rDock/src/rDock_2013.1_src/data/scripts/dock_solv.prm

>  <Rbt.Receptor>
prm/pocket_docking_5.prm

>  <SCORE>
-27.972

>  <SCORE.INTER>
-18.8181

>  <SCORE.INTER.CONST>
1

>  <SCORE.INTER.POLAR>
-2.9507

>  <SCORE.INTER.ROT>
18

>  <SCORE.INTER.SOLV>
9.61518

>  <SCORE.INTER.VDW>
-21.5148

>  <SCORE.INTER.norm>
-0.752724

>  <SCORE.INTRA>
-9.16756

>  <SCORE.INTRA.DIHEDRAL>
-9.43848

>  <SCORE.INTRA.DIHEDRAL.0>
30.6762

>  <SCORE.INTRA.POLAR>
0.0288659

>  <SCORE.INTRA.POLAR.0>
-0.0288659

>  <SCORE.INTRA.REPUL>
0

>  <SCORE.INTRA.REPUL.0>
0

>  <SCORE.INTRA.SOLV>
-0.758178

>  <SCORE.INTRA.SOLV.lig_0>
-25.2195

>  <SCORE.INTRA.VDW>
-4.16737

>  <SCORE.INTRA.VDW.0>
4.14263

>  <SCORE.INTRA.norm>
-0.366702

>  <SCORE.RESTR>
0.0137031

>  <SCORE.RESTR.CAVITY>
0.0137031

>  <SCORE.RESTR.norm>
0.000548123

>  <SCORE.SYSTEM>
0

>  <SCORE.SYSTEM.CONST>
0

>  <SCORE.SYSTEM.DIHEDRAL>
0

>  <SCORE.SYSTEM.SOLV>
0

>  <SCORE.SYSTEM.norm>
0

>  <SCORE.heavy>
25

>  <SCORE.norm>
-1.11888

>  <RMSD>
2.645

$$$$
1uud_lig
 OpenBabel11021811413D
libRbt.so/2013.1/901 2013/11/27
 25 25  0  0  0  0  0  0  0  0999 V2000
   -2.4265   -9.0859   -4.3561 C   0  0  0  0  0  0  0  0  0  0  0  0
   -2.6596  -11.8757   -5.2310 O   0  0  0  0  0  0  0  0  0  0  0  0
   -1.9715  -12.7096   -4.2868 C   0  0  0  0  0  0  0  0  0  0  0  0
   -2.2513   -8.1512   -3.2170 N   0  0  0  0  0  0  0  0  0  0  0  0
   -0.7887  -13.4134   -4.9657 C   0  0  0  0  0  0  0  0  0  0  0  0
   -2.1434   -8.9160   -1.9520 C   0  0  0  0  0  0  0  0  0  0  0  0
   -0.6989   -9.3954   -1.7642 C   0  0  0  0  0  0  0  0  0  0  0  0
   -1.2249  -14.1984   -5.9218 N   0  0  0  0  0  0  0  0  0  0  0  0
   -1.6635  -15.4170   -5.6679 C   0  0  0  0  0  0  0  0  0  0  0  0
    0.0904   -8.3650   -0.9493 C   0  0  0  0  0  0  0  0  0  0  0  0
    1.3127   -9.0387   -0.3190 C   0  0  0  0  0  0  0  0  0  0  0  0
   -2.6646  -15.9848   -6.4069 N   0  0  0  0  0  0  0  0  0  0  0  0
   -1.1089  -16.1226   -4.6486 N   0  0  0  0  0  0  0  0  0  0  0  0
    1.0178   -9.4553    0.8896 N   0  0  0  0  0  0  0  0  0  0  0  0
    1.1124  -10.7285    1.2221 C   0  0  0  0  0  0  0  0  0  0  0  0
   -0.0069  -11.4004    1.5953 N   0  0  0  0  0  0  0  0  0  0  0  0
    2.3113  -11.3832    1.2096 N   0  0  0  0  0  0  0  0  0  0  0  0
   -3.7922  -11.2567   -4.6075 C   0  0  0  0  0  0  0  0  0  0  0  0
   -7.1648   -9.4455   -2.7114 O   0  0  0  0  0  0  0  0  0  0  0  0
   -3.7196   -9.9050   -4.1630 C   0  0  0  0  0  0  0  0  0  0  0  0
   -4.8399   -9.3080   -3.5252 C   0  0  0  0  0  0  0  0  0  0  0  0
   -6.0373  -10.0501   -3.3500 C   0  0  0  0  0  0  0  0  0  0  0  0
   -6.1172  -11.3920   -3.8104 C   0  0  0  0  0  0  0  0  0  0  0  0
   -4.9977  -11.9944   -4.4458 C   0  0  0  0  0  0  0  0  0  0  0  0
   -8.2094   -9.2489   -3.6688 C   0  0  0  0  0  0  0  0  0  0  0  0
  1  4  1  0  0  0  0
  2  3  1  0  0  0  0
  3  5  1  0  0  0  0
  4  6  1  0  0  0  0
  5  8  1  0  0  0  0
  6  7  1  0  0  0  0
  7 10  1  0  0  0  0
  8  9  1  0  0  0  0
  9 12  1  0  0  0  0
  9 13  1  0  0  0  0
 10 11  1  0  0  0  0
 11 14  1  0  0  0  0
 14 15  1  0  0  0  0
 15 16  1  0  0  0  0
 15 17  1  0  0  0  0
 18  2  1  0  0  0  0
 18 20  2  0  0  0  0
 18 24  1  0  0  0  0
 19 25  1  0  0  0  0
 20  1  1  0  0  0  0
 20 21  1  0  0  0  0
 21 22  2  0  0  0  0
 22 19  1  0  0  0  0
 22 23  1  0  0  0  0
 23 24  2  0  0  0  0
M  END
>  <CHROM.1>
60.65743002,177.93760968,-62.41168510,83.20360324,-83.12900331,91.97879775
158.75835687,147.42073737,-88.16395869,163.99040148,-93.04629473,120.59229995
-117.24179135,161.27944828,-146.72685482,100.52295554,-145.92571452,111.12508606
-2.28451199,-11.16689517,-2.97074974,2.43185750,0.47238294,-2.48158703

>  <Name>
1uud_lig

>  <RI>
0

>  <Rbt.Current_Directory>
/home/itssahil/PROJECTS/Mol_Feturizer/New_Systems/rnas/1uud

>  <Rbt.Executable>
rbdock ($Id: //depot/dev/client3/rdock/2013.1/src/exe/rbdock.cxx#4 $)

>  <Rbt.Library>
libRbt.so (2013.1, Build901 2013/11/27)

>  <Rbt.Parameter_File>
/export/apps/rDock/src/rDock_2013.1_src/data/scripts/dock_solv.prm

>  <Rbt.Receptor>
prm/pocket_docking_4.prm

>  <SCORE>
-35.3258

>  <SCORE.INTER>
-30.1855

>  <SCORE.INTER.CONST>
1

>  <SCORE.INTER.POLAR>
-4.53477

>  <SCORE.INTER.ROT>
18

>  <SCORE.INTER.SOLV>
11.6616

>  <SCORE.INTER.VDW>
-24.4949

>  <SCORE.INTER.norm>
-1.20742

>  <SCORE.INTRA>
-5.14034

>  <SCORE.INTRA.DIHEDRAL>
-2.40052

>  <SCORE.INTRA.DIHEDRAL.0>
30.6762

>  <SCORE.INTRA.POLAR>
0.0288659

>  <SCORE.INTRA.POLAR.0>
-0.0288659

>  <SCORE.INTRA.REPUL>
0

>  <SCORE.INTRA.REPUL.0>
0

>  <SCORE.INTRA.SOLV>
-0.793346

>  <SCORE.INTRA.SOLV.lig_0>
-25.2195

>  <SCORE.INTRA.VDW>
-3.64155

>  <SCORE.INTRA.VDW.0>
4.14263

>  <SCORE.INTRA.norm>
-0.205614

>  <SCORE.RESTR>
0

>  <SCORE.RESTR.CAVITY>
0

>  <SCORE.RESTR.norm>
0

>  <SCORE.SYSTEM>
0

>  <SCORE.SYSTEM.CONST>
0

>  <SCORE.SYSTEM.DIHEDRAL>
0

>  <SCORE.SYSTEM.SOLV>
0

>  <SCORE.SYSTEM.norm>
0

>  <SCORE.heavy>
25

>  <SCORE.norm>
-1.41303

>  <RMSD>
2.706

$$$$
1uud_lig
 OpenBabel11021811413D
libRbt.so/2013.1/901 2013/11/27
 25 25  0  0  0  0  0  0  0  0999 V2000
   -5.2930   -9.8970   -3.4739 C   0  0  0  0  0  0  0  0  0  0  0  0
   -5.1018   -9.9822   -6.3995 O   0  0  0  0  0  0  0  0  0  0  0  0
   -3.9330  -10.3497   -7.1472 C   0  0  0  0  0  0  0  0  0  0  0  0
   -4.3195  -10.0101   -2.3597 N   0  0  0  0  0  0  0  0  0  0  0  0
   -4.2841  -11.4258   -8.1835 C   0  0  0  0  0  0  0  0  0  0  0  0
   -3.0004  -10.4335   -2.8866 C   0  0  0  0  0  0  0  0  0  0  0  0
   -2.1607  -11.0279   -1.7494 C   0  0  0  0  0  0  0  0  0  0  0  0
   -3.2074  -11.7768   -8.8455 N   0  0  0  0  0  0  0  0  0  0  0  0
   -2.8073  -13.0336   -8.8956 C   0  0  0  0  0  0  0  0  0  0  0  0
   -1.5992   -9.9030   -0.8732 C   0  0  0  0  0  0  0  0  0  0  0  0
   -0.6422  -10.4934    0.1665 C   0  0  0  0  0  0  0  0  0  0  0  0
   -1.4796  -13.3602   -8.9270 N   0  0  0  0  0  0  0  0  0  0  0  0
   -3.7354  -14.0247   -8.9179 N   0  0  0  0  0  0  0  0  0  0  0  0
   -0.1148   -9.5300    0.8841 N   0  0  0  0  0  0  0  0  0  0  0  0
    0.9226   -8.8382    0.4532 C   0  0  0  0  0  0  0  0  0  0  0  0
    0.8290   -7.4861    0.3713 N   0  0  0  0  0  0  0  0  0  0  0  0
    2.0843   -9.4511    0.0779 N   0  0  0  0  0  0  0  0  0  0  0  0
   -4.8879   -8.7300   -5.7355 C   0  0  0  0  0  0  0  0  0  0  0  0
   -4.2909   -4.9789   -3.7803 O   0  0  0  0  0  0  0  0  0  0  0  0
   -4.9767   -8.6436   -4.3161 C   0  0  0  0  0  0  0  0  0  0  0  0
   -4.7861   -7.3932   -3.6693 C   0  0  0  0  0  0  0  0  0  0  0  0
   -4.4864   -6.2354   -4.4342 C   0  0  0  0  0  0  0  0  0  0  0  0
   -4.3783   -6.3244   -5.8482 C   0  0  0  0  0  0  0  0  0  0  0  0
   -4.5718   -7.5726   -6.4998 C   0  0  0  0  0  0  0  0  0  0  0  0
   -5.5334   -4.5227   -3.2375 C   0  0  0  0  0  0  0  0  0  0  0  0
  1  4  1  0  0  0  0
  2  3  1  0  0  0  0
  3  5  1  0  0  0  0
  4  6  1  0  0  0  0
  5  8  1  0  0  0  0
  6  7  1  0  0  0  0
  7 10  1  0  0  0  0
  8  9  1  0  0  0  0
  9 12  1  0  0  0  0
  9 13  1  0  0  0  0
 10 11  1  0  0  0  0
 11 14  1  0  0  0  0
 14 15  1  0  0  0  0
 15 16  1  0  0  0  0
 15 17  1  0  0  0  0
 18  2  1  0  0  0  0
 18 20  2  0  0  0  0
 18 24  1  0  0  0  0
 19 25  1  0  0  0  0
 20  1  1  0  0  0  0
 20 21  1  0  0  0  0
 21 22  2  0  0  0  0
 22 19  1  0  0  0  0
 22 23  1  0  0  0  0
 23 24  2  0  0  0  0
M  END
>  <CHROM.1>
-73.01988948,-162.56125189,-178.75153104,-159.82371908,123.79889299,-76.91860788
-173.94917152,-145.51976602,-42.48729076,105.84812432,177.38139037,-82.11808555
123.94600575,-29.27556404,174.01587379,-120.52789976,130.91998272,-68.82478419
-2.96660915,-9.46447517,-4.14474984,2.11924617,0.79863476,-2.33500915

>  <Name>
1uud_lig

>  <RI>
0

>  <Rbt.Current_Directory>
/home/itssahil/PROJECTS/Mol_Feturizer/New_Systems/rnas/1uud

>  <Rbt.Executable>
rbdock ($Id: //depot/dev/client3/rdock/2013.1/src/exe/rbdock.cxx#4 $)

>  <Rbt.Library>
libRbt.so (2013.1, Build901 2013/11/27)

>  <Rbt.Parameter_File>
/export/apps/rDock/src/rDock_2013.1_src/data/scripts/dock_solv.prm

>  <Rbt.Receptor>
prm/pocket_docking_4.prm

>  <SCORE>
-20.8559

>  <SCORE.INTER>
-12.113

>  <SCORE.INTER.CONST>
1

>  <SCORE.INTER.POLAR>
-1.92173

>  <SCORE.INTER.ROT>
18

>  <SCORE.INTER.SOLV>
10.6336

>  <SCORE.INTER.VDW>
-20.8141

>  <SCORE.INTER.norm>
-0.48452

>  <SCORE.INTRA>
-8.75367

>  <SCORE.INTRA.DIHEDRAL>
-8.75702

>  <SCORE.INTRA.DIHEDRAL.0>
30.6762

>  <SCORE.INTRA.POLAR>
0.0288659

>  <SCORE.INTRA.POLAR.0>
-0.0288659

>  <SCORE.INTRA.REPUL>
0

>  <SCORE.INTRA.REPUL.0>
0

>  <SCORE.INTRA.SOLV>
-1.35563

>  <SCORE.INTRA.SOLV.lig_0>
-25.2195

>  <SCORE.INTRA.VDW>
-3.79549

>  <SCORE.INTRA.VDW.0>
4.14263

>  <SCORE.INTRA.norm>
-0.350147

>  <SCORE.RESTR>
0.0107164

>  <SCORE.RESTR.CAVITY>
0.0107164

>  <SCORE.RESTR.norm>
0.000428657

>  <SCORE.SYSTEM>
0

>  <SCORE.SYSTEM.CONST>
0

>  <SCORE.SYSTEM.DIHEDRAL>
0

>  <SCORE.SYSTEM.SOLV>
0

>  <SCORE.SYSTEM.norm>
0

>  <SCORE.heavy>
25

>  <SCORE.norm>
-0.834238

>  <RMSD>
2.745

$$$$
1uud_lig
 OpenBabel11021811413D
libRbt.so/2013.1/901 2013/11/27
 25 25  0  0  0  0  0  0  0  0999 V2000
   -1.9923   -7.8253   -3.8054 C   0  0  0  0  0  0  0  0  0  0  0  0
   -3.4285   -9.8742   -5.3357 O   0  0  0  0  0  0  0  0  0  0  0  0
   -3.3509  -10.1309   -6.7458 C   0  0  0  0  0  0  0  0  0  0  0  0
   -1.8967   -9.1826   -3.2132 N   0  0  0  0  0  0  0  0  0  0  0  0
   -2.9838  -11.5997   -6.9971 C   0  0  0  0  0  0  0  0  0  0  0  0
   -0.4849   -9.4869   -2.8803 C   0  0  0  0  0  0  0  0  0  0  0  0
   -0.0830   -8.7294   -1.6090 C   0  0  0  0  0  0  0  0  0  0  0  0
   -3.0662  -11.8679   -8.2785 N   0  0  0  0  0  0  0  0  0  0  0  0
   -3.4902  -13.0401   -8.7123 C   0  0  0  0  0  0  0  0  0  0  0  0
   -0.6507   -9.4416   -0.3765 C   0  0  0  0  0  0  0  0  0  0  0  0
   -1.2522   -8.4078    0.5800 C   0  0  0  0  0  0  0  0  0  0  0  0
   -4.8124  -13.3860   -8.6596 N   0  0  0  0  0  0  0  0  0  0  0  0
   -2.5928  -13.9232   -9.2212 N   0  0  0  0  0  0  0  0  0  0  0  0
   -1.4820   -8.9615    1.7470 N   0  0  0  0  0  0  0  0  0  0  0  0
   -2.6193   -9.5781    2.0055 C   0  0  0  0  0  0  0  0  0  0  0  0
   -3.0379  -10.5698    1.1779 N   0  0  0  0  0  0  0  0  0  0  0  0
   -3.3900   -9.2352    3.0800 N   0  0  0  0  0  0  0  0  0  0  0  0
   -4.0755   -8.6173   -5.0989 C   0  0  0  0  0  0  0  0  0  0  0  0
   -6.0399   -4.8949   -4.3670 O   0  0  0  0  0  0  0  0  0  0  0  0
   -3.4153   -7.5966   -4.3558 C   0  0  0  0  0  0  0  0  0  0  0  0
   -4.0743   -6.3630   -4.1067 C   0  0  0  0  0  0  0  0  0  0  0  0
   -5.3805   -6.1391   -4.6157 C   0  0  0  0  0  0  0  0  0  0  0  0
   -6.0321   -7.1490   -5.3736 C   0  0  0  0  0  0  0  0  0  0  0  0
   -5.3780   -8.3861   -5.6222 C   0  0  0  0  0  0  0  0  0  0  0  0
   -5.6380   -3.9350   -5.3487 C   0  0  0  0  0  0  0  0  0  0  0  0
  1  4  1  0  0  0  0
  2  3  1  0  0  0  0
  3  5  1  0  0  0  0
  4  6  1  0  0  0  0
  5  8  1  0  0  0  0
  6  7  1  0  0  0  0
  7 10  1  0  0  0  0
  8  9  1  0  0  0  0
  9 12  1  0  0  0  0
  9 13  1  0  0  0  0
 10 11  1  0  0  0  0
 11 14  1  0  0  0  0
 14 15  1  0  0  0  0
 15 16  1  0  0  0  0
 15 17  1  0  0  0  0
 18  2  1  0  0  0  0
 18 20  2  0  0  0  0
 18 24  1  0  0  0  0
 19 25  1  0  0  0  0
 20  1  1  0  0  0  0
 20 21  1  0  0  0  0
 21 22  2  0  0  0  0
 22 19  1  0  0  0  0
 22 23  1  0  0  0  0
 23 24  2  0  0  0  0
M  END
>  <CHROM.1>
171.03597915,-166.12202722,172.69488328,75.80604960,-144.05870091,77.58168044
-135.72878639,74.15969482,-144.69850199,29.85819419,-166.75004024,-87.71822172
54.25808625,50.10350427,45.19083156,-123.04459027,-43.50912846,84.81001706
-3.21158997,-9.20104580,-3.82227237,1.22612178,-1.03778624,0.96953742

>  <Name>
1uud_lig

>  <RI>
0

>  <Rbt.Current_Directory>
/home/itssahil/PROJECTS/Mol_Feturizer/New_Systems/rnas/1uud

>  <Rbt.Executable>
rbdock ($Id: //depot/dev/client3/rdock/2013.1/src/exe/rbdock.cxx#4 $)

>  <Rbt.Library>
libRbt.so (2013.1, Build901 2013/11/27)

>  <Rbt.Parameter_File>
/export/apps/rDock/src/rDock_2013.1_src/data/scripts/dock_solv.prm

>  <Rbt.Receptor>
prm/pocket_docking_8.prm

>  <SCORE>
-26.7178

>  <SCORE.INTER>
-17.8035

>  <SCORE.INTER.CONST>
1

>  <SCORE.INTER.POLAR>
-3.87199

>  <SCORE.INTER.ROT>
18

>  <SCORE.INTER.SOLV>
10.5159

>  <SCORE.INTER.VDW>
-18.0677

>  <SCORE.INTER.norm>
-0.71214

>  <SCORE.INTRA>
-8.91432

>  <SCORE.INTRA.DIHEDRAL>
-3.51396

>  <SCORE.INTRA.DIHEDRAL.0>
30.6762

>  <SCORE.INTRA.POLAR>
-0.69417

>  <SCORE.INTRA.POLAR.0>
-0.0288659

>  <SCORE.INTRA.REPUL>
0

>  <SCORE.INTRA.REPUL.0>
0

>  <SCORE.INTRA.SOLV>
-1.02232

>  <SCORE.INTRA.SOLV.lig_0>
-25.2195

>  <SCORE.INTRA.VDW>
-4.286

>  <SCORE.INTRA.VDW.0>
4.14263

>  <SCORE.INTRA.norm>
-0.356573

>  <SCORE.RESTR>
0

>  <SCORE.RESTR.CAVITY>
0

>  <SCORE.RESTR.norm>
0

>  <SCORE.SYSTEM>
0

>  <SCORE.SYSTEM.CONST>
0

>  <SCORE.SYSTEM.DIHEDRAL>
0

>  <SCORE.SYSTEM.SOLV>
0

>  <SCORE.SYSTEM.norm>
0

>  <SCORE.heavy>
25

>  <SCORE.norm>
-1.06871

>  <RMSD>
2.867

$$$$
1uud_lig
 OpenBabel11021811413D
libRbt.so/2013.1/901 2013/11/27
 25 25  0  0  0  0  0  0  0  0999 V2000
   -5.3111  -10.7737   -4.3431 C   0  0  0  0  0  0  0  0  0  0  0  0
   -4.3416  -11.5736   -6.9932 O   0  0  0  0  0  0  0  0  0  0  0  0
   -3.2779  -12.3439   -6.4140 C   0  0  0  0  0  0  0  0  0  0  0  0
   -4.3866  -11.0007   -3.2047 N   0  0  0  0  0  0  0  0  0  0  0  0
   -3.2905  -13.7714   -6.9773 C   0  0  0  0  0  0  0  0  0  0  0  0
   -4.6550  -10.0106   -2.1349 C   0  0  0  0  0  0  0  0  0  0  0  0
   -3.3270   -9.5174   -1.5478 C   0  0  0  0  0  0  0  0  0  0  0  0
   -2.5843  -13.8222   -8.0816 N   0  0  0  0  0  0  0  0  0  0  0  0
   -2.8140  -14.7358   -9.0060 C   0  0  0  0  0  0  0  0  0  0  0  0
   -2.8513  -10.4798   -0.4541 C   0  0  0  0  0  0  0  0  0  0  0  0
   -1.5681   -9.9375    0.1820 C   0  0  0  0  0  0  0  0  0  0  0  0
   -1.7920  -15.4219   -9.6022 N   0  0  0  0  0  0  0  0  0  0  0  0
   -4.0942  -14.9993   -9.3745 N   0  0  0  0  0  0  0  0  0  0  0  0
   -0.5258  -10.5540   -0.3226 N   0  0  0  0  0  0  0  0  0  0  0  0
    0.5241  -10.8524    0.4184 C   0  0  0  0  0  0  0  0  0  0  0  0
    1.4346   -9.8845    0.6972 N   0  0  0  0  0  0  0  0  0  0  0  0
    0.7215  -12.1144    0.9028 N   0  0  0  0  0  0  0  0  0  0  0  0
   -4.2211  -10.1987   -6.6062 C   0  0  0  0  0  0  0  0  0  0  0  0
   -3.8928   -6.0879   -5.4909 O   0  0  0  0  0  0  0  0  0  0  0  0
   -4.6843   -9.7670   -5.3299 C   0  0  0  0  0  0  0  0  0  0  0  0
   -4.5815   -8.3978   -4.9651 C   0  0  0  0  0  0  0  0  0  0  0  0
   -3.9987   -7.4647   -5.8623 C   0  0  0  0  0  0  0  0  0  0  0  0
   -3.5188   -7.8978   -7.1276 C   0  0  0  0  0  0  0  0  0  0  0  0
   -3.6228   -9.2660   -7.4982 C   0  0  0  0  0  0  0  0  0  0  0  0
   -5.0836   -5.3948   -5.8758 C   0  0  0  0  0  0  0  0  0  0  0  0
  1  4  1  0  0  0  0
  2  3  1  0  0  0  0
  3  5  1  0  0  0  0
  4  6  1  0  0  0  0
  5  8  1  0  0  0  0
  6  7  1  0  0  0  0
  7 10  1  0  0  0  0
  8  9  1  0  0  0  0
  9 12  1  0  0  0  0
  9 13  1  0  0  0  0
 10 11  1  0  0  0  0
 11 14  1  0  0  0  0
 14 15  1  0  0  0  0
 15 16  1  0  0  0  0
 15 17  1  0  0  0  0
 18  2  1  0  0  0  0
 18 20  2  0  0  0  0
 18 24  1  0  0  0  0
 19 25  1  0  0  0  0
 20  1  1  0  0  0  0
 20 21  1  0  0  0  0
 21 22  2  0  0  0  0
 22 19  1  0  0  0  0
 22 23  1  0  0  0  0
 23 24  2  0  0  0  0
M  END
>  <CHROM.1>
89.03738184,-172.27039175,87.56782133,-139.15473383,-154.64825337,-85.18777164
-176.74461903,-135.16876099,33.49934945,-42.95635684,-99.99358200,-143.25098457
-79.46962815,46.19230144,-36.48634578,-80.66290797,109.23281842,-88.56548664
-2.97562384,-10.71646892,-4.57260172,2.12685394,0.99543070,-2.38158296

>  <Name>
1uud_lig

>  <RI>
0

>  <Rbt.Current_Directory>
/home/itssahil/PROJECTS/Mol_Feturizer/New_Systems/rnas/1uud

>  <Rbt.Executable>
rbdock ($Id: //depot/dev/client3/rdock/2013.1/src/exe/rbdock.cxx#4 $)

>  <Rbt.Library>
libRbt.so (2013.1, Build901 2013/11/27)

>  <Rbt.Parameter_File>
/export/apps/rDock/src/rDock_2013.1_src/data/scripts/dock_solv.prm

>  <Rbt.Receptor>
prm/pocket_docking_4.prm

>  <SCORE>
-27.9605

>  <SCORE.INTER>
-23.9177

>  <SCORE.INTER.CONST>
1

>  <SCORE.INTER.POLAR>
-4.31715

>  <SCORE.INTER.ROT>
18

>  <SCORE.INTER.SOLV>
11.3298

>  <SCORE.INTER.VDW>
-20.9313

>  <SCORE.INTER.norm>
-0.956708

>  <SCORE.INTRA>
-4.07043

>  <SCORE.INTRA.DIHEDRAL>
2.5892

>  <SCORE.INTRA.DIHEDRAL.0>
30.6762

>  <SCORE.INTRA.POLAR>
0.0288659

>  <SCORE.INTRA.POLAR.0>
-0.0288659

>  <SCORE.INTRA.REPUL>
0

>  <SCORE.INTRA.REPUL.0>
0

>  <SCORE.INTRA.SOLV>
-1.22934

>  <SCORE.INTRA.SOLV.lig_0>
-25.2195

>  <SCORE.INTRA.VDW>
-4.8485

>  <SCORE.INTRA.VDW.0>
4.14263

>  <SCORE.INTRA.norm>
-0.162817

>  <SCORE.RESTR>
0.0276036

>  <SCORE.RESTR.CAVITY>
0.0276036

>  <SCORE.RESTR.norm>
0.00110414

>  <SCORE.SYSTEM>
0

>  <SCORE.SYSTEM.CONST>
0

>  <SCORE.SYSTEM.DIHEDRAL>
0

>  <SCORE.SYSTEM.SOLV>
0

>  <SCORE.SYSTEM.norm>
0

>  <SCORE.heavy>
25

>  <SCORE.norm>
-1.11842

>  <RMSD>
2.956

$$$$
1uud_lig
 OpenBabel11021811413D
libRbt.so/2013.1/901 2013/11/27
 25 25  0  0  0  0  0  0  0  0999 V2000
   -3.1002   -7.5800   -3.9050 C   0  0  0  0  0  0  0  0  0  0  0  0
   -2.5435   -9.2426   -6.2562 O   0  0  0  0  0  0  0  0  0  0  0  0
   -3.6328  -10.0448   -6.7359 C   0  0  0  0  0  0  0  0  0  0  0  0
   -1.9243   -8.4679   -3.7294 N   0  0  0  0  0  0  0  0  0  0  0  0
   -3.4168  -11.5149   -6.3521 C   0  0  0  0  0  0  0  0  0  0  0  0
   -2.1212   -9.3328   -2.5420 C   0  0  0  0  0  0  0  0  0  0  0  0
   -1.3261   -8.7681   -1.3586 C   0  0  0  0  0  0  0  0  0  0  0  0
   -3.1948  -11.6121   -5.0628 N   0  0  0  0  0  0  0  0  0  0  0  0
   -3.4416  -12.7278   -4.4023 C   0  0  0  0  0  0  0  0  0  0  0  0
    0.0886   -9.3572   -1.3525 C   0  0  0  0  0  0  0  0  0  0  0  0
    0.8421   -8.8662   -0.1130 C   0  0  0  0  0  0  0  0  0  0  0  0
   -2.4393  -13.5947   -4.0640 N   0  0  0  0  0  0  0  0  0  0  0  0
   -4.7202  -13.0221   -4.0520 N   0  0  0  0  0  0  0  0  0  0  0  0
    1.9256   -9.5847    0.0634 N   0  0  0  0  0  0  0  0  0  0  0  0
    1.9408  -10.6197    0.8812 C   0  0  0  0  0  0  0  0  0  0  0  0
    3.0378  -11.4189    0.9175 N   0  0  0  0  0  0  0  0  0  0  0  0
    0.8750  -10.9117    1.6844 N   0  0  0  0  0  0  0  0  0  0  0  0
   -2.8317   -7.8524   -6.4534 C   0  0  0  0  0  0  0  0  0  0  0  0
   -3.7319   -3.7217   -7.0673 O   0  0  0  0  0  0  0  0  0  0  0  0
   -3.1128   -7.0106   -5.3388 C   0  0  0  0  0  0  0  0  0  0  0  0
   -3.4202   -5.6392   -5.5467 C   0  0  0  0  0  0  0  0  0  0  0  0
   -3.4263   -5.1032   -6.8613 C   0  0  0  0  0  0  0  0  0  0  0  0
   -3.1269   -5.9375   -7.9718 C   0  0  0  0  0  0  0  0  0  0  0  0
   -2.8224   -7.3109   -7.7688 C   0  0  0  0  0  0  0  0  0  0  0  0
   -5.1337   -3.5721   -7.3103 C   0  0  0  0  0  0  0  0  0  0  0  0
  1  4  1  0  0  0  0
  2  3  1  0  0  0  0
  3  5  1  0  0  0  0
  4  6  1  0  0  0  0
  5  8  1  0  0  0  0
  6  7  1  0  0  0  0
  7 10  1  0  0  0  0
  8  9  1  0  0  0  0
  9 12  1  0  0  0  0
  9 13  1  0  0  0  0
 10 11  1  0  0  0  0
 11 14  1  0  0  0  0
 14 15  1  0  0  0  0
 15 16  1  0  0  0  0
 15 17  1  0  0  0  0
 18  2  1  0  0  0  0
 18 20  2  0  0  0  0
 18 24  1  0  0  0  0
 19 25  1  0  0  0  0
 20  1  1  0  0  0  0
 20 21  1  0  0  0  0
 21 22  2  0  0  0  0
 22 19  1  0  0  0  0
 22 23  1  0  0  0  0
 23 24  2  0  0  0  0
M  END
>  <CHROM.1>
-162.46122690,-172.16480697,52.84826844,-100.95684585,155.71375269,-89.42866851
-175.98612699,101.17817782,50.78112691,134.99770034,165.94406255,-95.61642740
172.73026681,16.23919995,175.39346068,109.34001167,43.50453920,-92.37256519
-1.98956182,-8.99855776,-3.94541770,-2.47250970,0.89664529,2.93530080

>  <Name>
1uud_lig

>  <RI>
0

>  <Rbt.Current_Directory>
/home/itssahil/PROJECTS/Mol_Feturizer/New_Systems/rnas/1uud

>  <Rbt.Executable>
rbdock ($Id: //depot/dev/client3/rdock/2013.1/src/exe/rbdock.cxx#4 $)

>  <Rbt.Library>
libRbt.so (2013.1, Build901 2013/11/27)

>  <Rbt.Parameter_File>
/export/apps/rDock/src/rDock_2013.1_src/data/scripts/dock_solv.prm

>  <Rbt.Receptor>
prm/pocket_docking_6.prm

>  <SCORE>
-32.4918

>  <SCORE.INTER>
-23.4414

>  <SCORE.INTER.CONST>
1

>  <SCORE.INTER.POLAR>
-3.68159

>  <SCORE.INTER.ROT>
18

>  <SCORE.INTER.SOLV>
13.1225

>  <SCORE.INTER.VDW>
-23.3298

>  <SCORE.INTER.norm>
-0.937656

>  <SCORE.INTRA>
-9.05036

>  <SCORE.INTRA.DIHEDRAL>
-3.87257

>  <SCORE.INTRA.DIHEDRAL.0>
30.6762

>  <SCORE.INTRA.POLAR>
-0.780384

>  <SCORE.INTRA.POLAR.0>
-0.0288659

>  <SCORE.INTRA.REPUL>
0

>  <SCORE.INTRA.REPUL.0>
0

>  <SCORE.INTRA.SOLV>
-0.157273

>  <SCORE.INTRA.SOLV.lig_0>
-25.2195

>  <SCORE.INTRA.VDW>
-4.38214

>  <SCORE.INTRA.VDW.0>
4.14263

>  <SCORE.INTRA.norm>
-0.362014

>  <SCORE.RESTR>
0

>  <SCORE.RESTR.CAVITY>
0

>  <SCORE.RESTR.norm>
0

>  <SCORE.SYSTEM>
0

>  <SCORE.SYSTEM.CONST>
0

>  <SCORE.SYSTEM.DIHEDRAL>
0

>  <SCORE.SYSTEM.SOLV>
0

>  <SCORE.SYSTEM.norm>
0

>  <SCORE.heavy>
25

>  <SCORE.norm>
-1.29967

>  <RMSD>
2.971

$$$$
1uud_lig
 OpenBabel11021811413D
libRbt.so/2013.1/901 2013/11/27
 25 25  0  0  0  0  0  0  0  0999 V2000
   -4.2231   -8.0901   -2.1928 C   0  0  0  0  0  0  0  0  0  0  0  0
   -5.5616   -9.4475   -4.4217 O   0  0  0  0  0  0  0  0  0  0  0  0
   -5.3596  -10.7913   -4.8841 C   0  0  0  0  0  0  0  0  0  0  0  0
   -3.1368   -9.0865   -2.3636 N   0  0  0  0  0  0  0  0  0  0  0  0
   -4.1815  -10.8418   -5.8663 C   0  0  0  0  0  0  0  0  0  0  0  0
   -1.8238   -8.4455   -2.1147 C   0  0  0  0  0  0  0  0  0  0  0  0
   -0.7096   -9.4909   -2.2462 C   0  0  0  0  0  0  0  0  0  0  0  0
   -3.0639  -10.5641   -5.2381 N   0  0  0  0  0  0  0  0  0  0  0  0
   -2.3792  -11.4968   -4.6031 C   0  0  0  0  0  0  0  0  0  0  0  0
    0.6510   -8.8392   -1.9766 C   0  0  0  0  0  0  0  0  0  0  0  0
    0.8420   -8.6589   -0.4679 C   0  0  0  0  0  0  0  0  0  0  0  0
   -1.0136  -11.4596   -4.5356 N   0  0  0  0  0  0  0  0  0  0  0  0
   -3.0458  -12.5172   -4.0044 N   0  0  0  0  0  0  0  0  0  0  0  0
    1.7466   -9.5020   -0.0296 N   0  0  0  0  0  0  0  0  0  0  0  0
    1.4268  -10.5039    0.7668 C   0  0  0  0  0  0  0  0  0  0  0  0
    2.4012  -11.3476    1.1937 N   0  0  0  0  0  0  0  0  0  0  0  0
    0.1371  -10.7181    1.1631 N   0  0  0  0  0  0  0  0  0  0  0  0
   -6.1924   -9.4593   -3.1347 C   0  0  0  0  0  0  0  0  0  0  0  0
   -8.0687   -9.5446    0.7023 O   0  0  0  0  0  0  0  0  0  0  0  0
   -5.5737   -8.8164   -2.0240 C   0  0  0  0  0  0  0  0  0  0  0  0
   -6.1958   -8.8537   -0.7473 C   0  0  0  0  0  0  0  0  0  0  0  0
   -7.4427   -9.5121   -0.5829 C   0  0  0  0  0  0  0  0  0  0  0  0
   -8.0700  -10.1368   -1.6943 C   0  0  0  0  0  0  0  0  0  0  0  0
   -7.4496  -10.1051   -2.9725 C   0  0  0  0  0  0  0  0  0  0  0  0
   -7.1808  -10.1402    1.6528 C   0  0  0  0  0  0  0  0  0  0  0  0
  1  4  1  0  0  0  0
  2  3  1  0  0  0  0
  3  5  1  0  0  0  0
  4  6  1  0  0  0  0
  5  8  1  0  0  0  0
  6  7  1  0  0  0  0
  7 10  1  0  0  0  0
  8  9  1  0  0  0  0
  9 12  1  0  0  0  0
  9 13  1  0  0  0  0
 10 11  1  0  0  0  0
 11 14  1  0  0  0  0
 14 15  1  0  0  0  0
 15 16  1  0  0  0  0
 15 17  1  0  0  0  0
 18  2  1  0  0  0  0
 18 20  2  0  0  0  0
 18 24  1  0  0  0  0
 19 25  1  0  0  0  0
 20  1  1  0  0  0  0
 20 21  1  0  0  0  0
 21 22  2  0  0  0  0
 22 19  1  0  0  0  0
 22 23  1  0  0  0  0
 23 24  2  0  0  0  0
M  END
>  <CHROM.1>
-162.88162812,-154.21837622,66.62464331,178.10073580,85.39038819,-179.44099594
77.77017478,146.60545953,-38.00846097,-103.37278561,108.70073398,-111.78447337
-179.92436018,-117.76842355,115.34398203,122.79199866,-72.35134601,-57.20239461
-3.23299415,-9.97346537,-2.01013735,2.94192214,0.07856302,-1.74881782

>  <Name>
1uud_lig

>  <RI>
0

>  <Rbt.Current_Directory>
/home/itssahil/PROJECTS/Mol_Feturizer/New_Systems/rnas/1uud

>  <Rbt.Executable>
rbdock ($Id: //depot/dev/client3/rdock/2013.1/src/exe/rbdock.cxx#4 $)

>  <Rbt.Library>
libRbt.so (2013.1, Build901 2013/11/27)

>  <Rbt.Parameter_File>
/export/apps/rDock/src/rDock_2013.1_src/data/scripts/dock_solv.prm

>  <Rbt.Receptor>
prm/pocket_docking_6.prm

>  <SCORE>
-29.8818

>  <SCORE.INTER>
-21.2833

>  <SCORE.INTER.CONST>
1

>  <SCORE.INTER.POLAR>
-2.74844

>  <SCORE.INTER.ROT>
18

>  <SCORE.INTER.SOLV>
9.56962

>  <SCORE.INTER.VDW>
-23.8172

>  <SCORE.INTER.norm>
-0.851331

>  <SCORE.INTRA>
-8.59853

>  <SCORE.INTRA.DIHEDRAL>
-3.60036

>  <SCORE.INTRA.DIHEDRAL.0>
30.6762

>  <SCORE.INTRA.POLAR>
-0.883715

>  <SCORE.INTRA.POLAR.0>
-0.0288659

>  <SCORE.INTRA.REPUL>
0

>  <SCORE.INTRA.REPUL.0>
0

>  <SCORE.INTRA.SOLV>
1.43177

>  <SCORE.INTRA.SOLV.lig_0>
-25.2195

>  <SCORE.INTRA.VDW>
-4.5096

>  <SCORE.INTRA.VDW.0>
4.14263

>  <SCORE.INTRA.norm>
-0.343941

>  <SCORE.RESTR>
0

>  <SCORE.RESTR.CAVITY>
0

>  <SCORE.RESTR.norm>
0

>  <SCORE.SYSTEM>
0

>  <SCORE.SYSTEM.CONST>
0

>  <SCORE.SYSTEM.DIHEDRAL>
0

>  <SCORE.SYSTEM.SOLV>
0

>  <SCORE.SYSTEM.norm>
0

>  <SCORE.heavy>
25

>  <SCORE.norm>
-1.19527

>  <RMSD>
3.054

$$$$
1uud_lig
 OpenBabel11021811413D
libRbt.so/2013.1/901 2013/11/27
 25 25  0  0  0  0  0  0  0  0999 V2000
   -3.9237   -8.3735   -5.5470 C   0  0  0  0  0  0  0  0  0  0  0  0
   -5.6568  -10.7349   -5.3962 O   0  0  0  0  0  0  0  0  0  0  0  0
   -5.4442  -11.5147   -4.2100 C   0  0  0  0  0  0  0  0  0  0  0  0
   -3.0655   -8.6416   -4.3664 N   0  0  0  0  0  0  0  0  0  0  0  0
   -3.9638  -11.9003   -4.0881 C   0  0  0  0  0  0  0  0  0  0  0  0
   -3.0908   -7.4754   -3.4521 C   0  0  0  0  0  0  0  0  0  0  0  0
   -2.0561   -7.6747   -2.3380 C   0  0  0  0  0  0  0  0  0  0  0  0
   -3.5624  -12.4861   -5.1911 N   0  0  0  0  0  0  0  0  0  0  0  0
   -2.5741  -13.3608   -5.1876 C   0  0  0  0  0  0  0  0  0  0  0  0
   -2.3953   -6.7749   -1.1447 C   0  0  0  0  0  0  0  0  0  0  0  0
   -3.6741   -7.2800   -0.4703 C   0  0  0  0  0  0  0  0  0  0  0  0
   -2.7281  -14.6153   -5.7102 N   0  0  0  0  0  0  0  0  0  0  0  0
   -1.3775  -13.0073   -4.6514 N   0  0  0  0  0  0  0  0  0  0  0  0
   -3.4964   -8.5068   -0.0407 N   0  0  0  0  0  0  0  0  0  0  0  0
   -3.8234   -9.5499   -0.7792 C   0  0  0  0  0  0  0  0  0  0  0  0
   -2.9588  -10.5928   -0.8719 N   0  0  0  0  0  0  0  0  0  0  0  0
   -5.0062   -9.6006   -1.4607 N   0  0  0  0  0  0  0  0  0  0  0  0
   -6.2088   -9.4574   -5.0533 C   0  0  0  0  0  0  0  0  0  0  0  0
   -7.8625   -5.6662   -3.9842 O   0  0  0  0  0  0  0  0  0  0  0  0
   -5.4001   -8.2857   -5.1080 C   0  0  0  0  0  0  0  0  0  0  0  0
   -5.9504   -7.0276   -4.7438 C   0  0  0  0  0  0  0  0  0  0  0  0
   -7.3101   -6.9344   -4.3463 C   0  0  0  0  0  0  0  0  0  0  0  0
   -8.1227   -8.0994   -4.3102 C   0  0  0  0  0  0  0  0  0  0  0  0
   -7.5755   -9.3606   -4.6703 C   0  0  0  0  0  0  0  0  0  0  0  0
   -7.9389   -5.5661   -2.5592 C   0  0  0  0  0  0  0  0  0  0  0  0
  1  4  1  0  0  0  0
  2  3  1  0  0  0  0
  3  5  1  0  0  0  0
  4  6  1  0  0  0  0
  5  8  1  0  0  0  0
  6  7  1  0  0  0  0
  7 10  1  0  0  0  0
  8  9  1  0  0  0  0
  9 12  1  0  0  0  0
  9 13  1  0  0  0  0
 10 11  1  0  0  0  0
 11 14  1  0  0  0  0
 14 15  1  0  0  0  0
 15 16  1  0  0  0  0
 15 17  1  0  0  0  0
 18  2  1  0  0  0  0
 18 20  2  0  0  0  0
 18 24  1  0  0  0  0
 19 25  1  0  0  0  0
 20  1  1  0  0  0  0
 20 21  1  0  0  0  0
 21 22  2  0  0  0  0
 22 19  1  0  0  0  0
 22 23  1  0  0  0  0
 23 24  2  0  0  0  0
M  END
>  <CHROM.1>
-66.66196104,-121.30634741,-53.53329767,-172.15050764,-152.52025836,-159.91541273
69.23553907,125.61338973,155.03024056,-15.15097946,60.43262148,-93.12894017
135.10500271,177.37800683,91.43022844,105.81676186,-88.44559956,-101.83083812
-4.54363576,-9.36151900,-3.56101626,2.21382143,-0.62918004,0.67898901

>  <Name>
1uud_lig

>  <RI>
0

>  <Rbt.Current_Directory>
/home/itssahil/PROJECTS/Mol_Feturizer/New_Systems/rnas/1uud

>  <Rbt.Executable>
rbdock ($Id: //depot/dev/client3/rdock/2013.1/src/exe/rbdock.cxx#4 $)

>  <Rbt.Library>
libRbt.so (2013.1, Build901 2013/11/27)

>  <Rbt.Parameter_File>
/export/apps/rDock/src/rDock_2013.1_src/data/scripts/dock_solv.prm

>  <Rbt.Receptor>
prm/pocket_docking_2.prm

>  <SCORE>
-11.0166

>  <SCORE.INTER>
-5.18983

>  <SCORE.INTER.CONST>
1

>  <SCORE.INTER.POLAR>
-1.94814

>  <SCORE.INTER.ROT>
18

>  <SCORE.INTER.SOLV>
7.02831

>  <SCORE.INTER.VDW>
-14.9089

>  <SCORE.INTER.norm>
-0.207593

>  <SCORE.INTRA>
-6.27601

>  <SCORE.INTRA.DIHEDRAL>
-1.95882

>  <SCORE.INTRA.DIHEDRAL.0>
30.6762

>  <SCORE.INTRA.POLAR>
0.00117665

>  <SCORE.INTRA.POLAR.0>
-0.0288659

>  <SCORE.INTRA.REPUL>
0.000689406

>  <SCORE.INTRA.REPUL.0>
0

>  <SCORE.INTRA.SOLV>
1.70951

>  <SCORE.INTRA.SOLV.lig_0>
-25.2195

>  <SCORE.INTRA.VDW>
-6.1588

>  <SCORE.INTRA.VDW.0>
4.14263

>  <SCORE.INTRA.norm>
-0.25104

>  <SCORE.RESTR>
0.44924

>  <SCORE.RESTR.CAVITY>
0.44924

>  <SCORE.RESTR.norm>
0.0179696

>  <SCORE.SYSTEM>
0

>  <SCORE.SYSTEM.CONST>
0

>  <SCORE.SYSTEM.DIHEDRAL>
0

>  <SCORE.SYSTEM.SOLV>
0

>  <SCORE.SYSTEM.norm>
0

>  <SCORE.heavy>
25

>  <SCORE.norm>
-0.440664

>  <RMSD>
3.151

$$$$
1uud_lig
 OpenBabel11021811413D
libRbt.so/2013.1/901 2013/11/27
 25 25  0  0  0  0  0  0  0  0999 V2000
   -2.8529   -7.6231   -5.9377 C   0  0  0  0  0  0  0  0  0  0  0  0
   -2.9948  -10.4534   -6.6942 O   0  0  0  0  0  0  0  0  0  0  0  0
   -3.2547  -10.6969   -8.0846 C   0  0  0  0  0  0  0  0  0  0  0  0
   -1.6473   -8.3614   -5.4865 N   0  0  0  0  0  0  0  0  0  0  0  0
   -4.0762  -11.9822   -8.2525 C   0  0  0  0  0  0  0  0  0  0  0  0
   -0.7640   -7.4559   -4.7140 C   0  0  0  0  0  0  0  0  0  0  0  0
    0.4230   -8.2505   -4.1559 C   0  0  0  0  0  0  0  0  0  0  0  0
   -3.4763  -12.9784   -7.6454 N   0  0  0  0  0  0  0  0  0  0  0  0
   -3.2441  -14.1225   -8.2611 C   0  0  0  0  0  0  0  0  0  0  0  0
    0.7009   -7.8255   -2.7099 C   0  0  0  0  0  0  0  0  0  0  0  0
    1.3637   -8.9815   -1.9553 C   0  0  0  0  0  0  0  0  0  0  0  0
   -1.9705  -14.5606   -8.4987 N   0  0  0  0  0  0  0  0  0  0  0  0
   -4.2940  -14.8811   -8.6691 N   0  0  0  0  0  0  0  0  0  0  0  0
    1.6700   -8.6010   -0.7376 N   0  0  0  0  0  0  0  0  0  0  0  0
    0.8052   -8.7003    0.2537 C   0  0  0  0  0  0  0  0  0  0  0  0
    0.4998   -9.9285    0.7455 N   0  0  0  0  0  0  0  0  0  0  0  0
    0.2027   -7.5976    0.7896 N   0  0  0  0  0  0  0  0  0  0  0  0
   -4.1400   -9.8512   -6.0773 C   0  0  0  0  0  0  0  0  0  0  0  0
   -7.5486   -8.0884   -4.2000 O   0  0  0  0  0  0  0  0  0  0  0  0
   -4.1113   -8.4805   -5.6896 C   0  0  0  0  0  0  0  0  0  0  0  0
   -5.2432   -7.8992   -5.0578 C   0  0  0  0  0  0  0  0  0  0  0  0
   -6.4093   -8.6770   -4.8324 C   0  0  0  0  0  0  0  0  0  0  0  0
   -6.4459  -10.0388   -5.2364 C   0  0  0  0  0  0  0  0  0  0  0  0
   -5.3145  -10.6254   -5.8655 C   0  0  0  0  0  0  0  0  0  0  0  0
   -7.4906   -8.3262   -2.7906 C   0  0  0  0  0  0  0  0  0  0  0  0
  1  4  1  0  0  0  0
  2  3  1  0  0  0  0
  3  5  1  0  0  0  0
  4  6  1  0  0  0  0
  5  8  1  0  0  0  0
  6  7  1  0  0  0  0
  7 10  1  0  0  0  0
  8  9  1  0  0  0  0
  9 12  1  0  0  0  0
  9 13  1  0  0  0  0
 10 11  1  0  0  0  0
 11 14  1  0  0  0  0
 14 15  1  0  0  0  0
 15 16  1  0  0  0  0
 15 17  1  0  0  0  0
 18  2  1  0  0  0  0
 18 20  2  0  0  0  0
 18 24  1  0  0  0  0
 19 25  1  0  0  0  0
 20  1  1  0  0  0  0
 20 21  1  0  0  0  0
 21 22  2  0  0  0  0
 22 19  1  0  0  0  0
 22 23  1  0  0  0  0
 23 24  2  0  0  0  0
M  END
>  <CHROM.1>
-135.11312484,-80.38335847,-53.91304086,175.49961610,-129.03848684,-137.69772583
153.29929464,115.72821143,-117.12085534,-18.28660138,176.61886682,87.57279739
71.71377299,-10.67435652,-135.57514731,-108.48498427,-47.25799636,-93.30376754
-2.72346322,-9.84179927,-4.75643639,0.96527769,-0.31357550,0.83747457

>  <Name>
1uud_lig

>  <RI>
0

>  <Rbt.Current_Directory>
/home/itssahil/PROJECTS/Mol_Feturizer/New_Systems/rnas/1uud

>  <Rbt.Executable>
rbdock ($Id: //depot/dev/client3/rdock/2013.1/src/exe/rbdock.cxx#4 $)

>  <Rbt.Library>
libRbt.so (2013.1, Build901 2013/11/27)

>  <Rbt.Parameter_File>
/export/apps/rDock/src/rDock_2013.1_src/data/scripts/dock_solv.prm

>  <Rbt.Receptor>
prm/pocket_docking_5.prm

>  <SCORE>
-21.664

>  <SCORE.INTER>
-16.5609

>  <SCORE.INTER.CONST>
1

>  <SCORE.INTER.POLAR>
-3.06543

>  <SCORE.INTER.ROT>
18

>  <SCORE.INTER.SOLV>
7.61193

>  <SCORE.INTER.VDW>
-18.9598

>  <SCORE.INTER.norm>
-0.662437

>  <SCORE.INTRA>
-5.10311

>  <SCORE.INTRA.DIHEDRAL>
0.875517

>  <SCORE.INTRA.DIHEDRAL.0>
30.6762

>  <SCORE.INTRA.POLAR>
0.0288659

>  <SCORE.INTRA.POLAR.0>
-0.0288659

>  <SCORE.INTRA.REPUL>
0

>  <SCORE.INTRA.REPUL.0>
0

>  <SCORE.INTRA.SOLV>
-0.58049

>  <SCORE.INTRA.SOLV.lig_0>
-25.2195

>  <SCORE.INTRA.VDW>
-5.34877

>  <SCORE.INTRA.VDW.0>
4.14263

>  <SCORE.INTRA.norm>
-0.204124

>  <SCORE.RESTR>
0

>  <SCORE.RESTR.CAVITY>
0

>  <SCORE.RESTR.norm>
0

>  <SCORE.SYSTEM>
0

>  <SCORE.SYSTEM.CONST>
0

>  <SCORE.SYSTEM.DIHEDRAL>
0

>  <SCORE.SYSTEM.SOLV>
0

>  <SCORE.SYSTEM.norm>
0

>  <SCORE.heavy>
25

>  <SCORE.norm>
-0.866561

>  <RMSD>
3.153

$$$$
1uud_lig
 OpenBabel11021811413D
libRbt.so/2013.1/901 2013/11/27
 25 25  0  0  0  0  0  0  0  0999 V2000
   -4.7215   -9.6253   -0.4917 C   0  0  0  0  0  0  0  0  0  0  0  0
   -6.7056   -9.1918   -2.6078 O   0  0  0  0  0  0  0  0  0  0  0  0
   -6.4256   -8.5125   -3.8408 C   0  0  0  0  0  0  0  0  0  0  0  0
   -3.4284   -9.2089    0.1056 N   0  0  0  0  0  0  0  0  0  0  0  0
   -6.7263   -9.4322   -5.0320 C   0  0  0  0  0  0  0  0  0  0  0  0
   -2.4419  -10.3082   -0.0165 C   0  0  0  0  0  0  0  0  0  0  0  0
   -1.3163   -9.8839   -0.9676 C   0  0  0  0  0  0  0  0  0  0  0  0
   -6.1039  -10.5770   -4.8809 N   0  0  0  0  0  0  0  0  0  0  0  0
   -5.0913  -10.9193   -5.6551 C   0  0  0  0  0  0  0  0  0  0  0  0
   -0.5240   -8.7248   -0.3531 C   0  0  0  0  0  0  0  0  0  0  0  0
    0.3829   -9.2581    0.7597 C   0  0  0  0  0  0  0  0  0  0  0  0
   -3.9237  -11.4033   -5.1325 N   0  0  0  0  0  0  0  0  0  0  0  0
   -5.2112  -10.7866   -7.0013 N   0  0  0  0  0  0  0  0  0  0  0  0
    1.2413  -10.1163    0.2618 N   0  0  0  0  0  0  0  0  0  0  0  0
    1.6645  -11.1522    0.9605 C   0  0  0  0  0  0  0  0  0  0  0  0
    0.7881  -11.8165    1.7568 N   0  0  0  0  0  0  0  0  0  0  0  0
    2.9656  -11.5652    0.9093 N   0  0  0  0  0  0  0  0  0  0  0  0
   -6.6577   -8.2665   -1.5141 C   0  0  0  0  0  0  0  0  0  0  0  0
   -6.5619   -5.5222    1.7585 O   0  0  0  0  0  0  0  0  0  0  0  0
   -5.7127   -8.4433   -0.4626 C   0  0  0  0  0  0  0  0  0  0  0  0
   -5.6888   -7.5340    0.6286 C   0  0  0  0  0  0  0  0  0  0  0  0
   -6.5909   -6.4383    0.6610 C   0  0  0  0  0  0  0  0  0  0  0  0
   -7.5207   -6.2500   -0.3968 C   0  0  0  0  0  0  0  0  0  0  0  0
   -7.5505   -7.1593   -1.4887 C   0  0  0  0  0  0  0  0  0  0  0  0
   -5.4049   -4.6872    1.6554 C   0  0  0  0  0  0  0  0  0  0  0  0
  1  4  1  0  0  0  0
  2  3  1  0  0  0  0
  3  5  1  0  0  0  0
  4  6  1  0  0  0  0
  5  8  1  0  0  0  0
  6  7  1  0  0  0  0
  7 10  1  0  0  0  0
  8  9  1  0  0  0  0
  9 12  1  0  0  0  0
  9 13  1  0  0  0  0
 10 11  1  0  0  0  0
 11 14  1  0  0  0  0
 14 15  1  0  0  0  0
 15 16  1  0  0  0  0
 15 17  1  0  0  0  0
 18  2  1  0  0  0  0
 18 20  2  0  0  0  0
 18 24  1  0  0  0  0
 19 25  1  0  0  0  0
 20  1  1  0  0  0  0
 20 21  1  0  0  0  0
 21 22  2  0  0  0  0
 22 19  1  0  0  0  0
 22 23  1  0  0  0  0
 23 24  2  0  0  0  0
M  END
>  <CHROM.1>
-175.62196937,-169.64587604,-52.52795065,113.55296317,-110.62984764,65.77480410
75.22876822,131.83064397,-107.98154462,118.27590538,61.57071476,-146.77757809
38.84619738,70.30378346,-158.55861894,-118.74597148,145.56269772,73.46705846
-3.79927265,-9.13072955,-1.23581387,2.93548381,0.45952899,-2.12296516

>  <Name>
1uud_lig

>  <RI>
0

>  <Rbt.Current_Directory>
/home/itssahil/PROJECTS/Mol_Feturizer/New_Systems/rnas/1uud

>  <Rbt.Executable>
rbdock ($Id: //depot/dev/client3/rdock/2013.1/src/exe/rbdock.cxx#4 $)

>  <Rbt.Library>
libRbt.so (2013.1, Build901 2013/11/27)

>  <Rbt.Parameter_File>
/export/apps/rDock/src/rDock_2013.1_src/data/scripts/dock_solv.prm

>  <Rbt.Receptor>
prm/pocket_docking_6.prm

>  <SCORE>
-30.6463

>  <SCORE.INTER>
-24.3486

>  <SCORE.INTER.CONST>
1

>  <SCORE.INTER.POLAR>
-4.89883

>  <SCORE.INTER.ROT>
18

>  <SCORE.INTER.SOLV>
10.4684

>  <SCORE.INTER.VDW>
-18.9925

>  <SCORE.INTER.norm>
-0.973946

>  <SCORE.INTRA>
-6.29769

>  <SCORE.INTRA.DIHEDRAL>
-6.92978

>  <SCORE.INTRA.DIHEDRAL.0>
30.6762

>  <SCORE.INTRA.POLAR>
0.0288659

>  <SCORE.INTRA.POLAR.0>
-0.0288659

>  <SCORE.INTRA.REPUL>
0

>  <SCORE.INTRA.REPUL.0>
0

>  <SCORE.INTRA.SOLV>
-0.619447

>  <SCORE.INTRA.SOLV.lig_0>
-25.2195

>  <SCORE.INTRA.VDW>
-2.62123

>  <SCORE.INTRA.VDW.0>
4.14263

>  <SCORE.INTRA.norm>
-0.251908

>  <SCORE.RESTR>
0

>  <SCORE.RESTR.CAVITY>
0

>  <SCORE.RESTR.norm>
0

>  <SCORE.SYSTEM>
0

>  <SCORE.SYSTEM.CONST>
0

>  <SCORE.SYSTEM.DIHEDRAL>
0

>  <SCORE.SYSTEM.SOLV>
0

>  <SCORE.SYSTEM.norm>
0

>  <SCORE.heavy>
25

>  <SCORE.norm>
-1.22585

>  <RMSD>
3.511

$$$$
1uud_lig
 OpenBabel11021811413D
libRbt.so/2013.1/901 2013/11/27
 25 25  0  0  0  0  0  0  0  0999 V2000
   -2.2263  -10.6976   -2.2802 C   0  0  0  0  0  0  0  0  0  0  0  0
   -3.6131  -12.2511   -4.3456 O   0  0  0  0  0  0  0  0  0  0  0  0
   -3.0813  -11.6322   -5.5264 C   0  0  0  0  0  0  0  0  0  0  0  0
   -1.5211   -9.4131   -2.5146 N   0  0  0  0  0  0  0  0  0  0  0  0
   -2.2983  -12.6592   -6.3555 C   0  0  0  0  0  0  0  0  0  0  0  0
   -0.1870   -9.4479   -1.8699 C   0  0  0  0  0  0  0  0  0  0  0  0
   -0.3490   -9.3301   -0.3495 C   0  0  0  0  0  0  0  0  0  0  0  0
   -2.8311  -12.7694   -7.5492 N   0  0  0  0  0  0  0  0  0  0  0  0
   -3.1100  -13.9478   -8.0743 C   0  0  0  0  0  0  0  0  0  0  0  0
    1.0225   -9.1398    0.3075 C   0  0  0  0  0  0  0  0  0  0  0  0
    1.4661   -7.6822    0.1531 C   0  0  0  0  0  0  0  0  0  0  0  0
   -4.1126  -14.7332   -7.5757 N   0  0  0  0  0  0  0  0  0  0  0  0
   -2.3838  -14.3908   -9.1328 N   0  0  0  0  0  0  0  0  0  0  0  0
    0.7678   -6.9165    0.9577 N   0  0  0  0  0  0  0  0  0  0  0  0
    0.5616   -5.6414    0.6893 C   0  0  0  0  0  0  0  0  0  0  0  0
    0.8757   -4.7086    1.6247 N   0  0  0  0  0  0  0  0  0  0  0  0
    0.0303   -5.2388   -0.5031 N   0  0  0  0  0  0  0  0  0  0  0  0
   -4.3657  -11.2967   -3.5858 C   0  0  0  0  0  0  0  0  0  0  0  0
   -6.6372   -8.4896   -1.3031 O   0  0  0  0  0  0  0  0  0  0  0  0
   -3.7319  -10.5251   -2.5695 C   0  0  0  0  0  0  0  0  0  0  0  0
   -4.4915   -9.5985   -1.8063 C   0  0  0  0  0  0  0  0  0  0  0  0
   -5.8758   -9.4259   -2.0700 C   0  0  0  0  0  0  0  0  0  0  0  0
   -6.5046  -10.1809   -3.0964 C   0  0  0  0  0  0  0  0  0  0  0  0
   -5.7492  -11.1116   -3.8601 C   0  0  0  0  0  0  0  0  0  0  0  0
   -7.3599   -9.1825   -0.2813 C   0  0  0  0  0  0  0  0  0  0  0  0
  1  4  1  0  0  0  0
  2  3  1  0  0  0  0
  3  5  1  0  0  0  0
  4  6  1  0  0  0  0
  5  8  1  0  0  0  0
  6  7  1  0  0  0  0
  7 10  1  0  0  0  0
  8  9  1  0  0  0  0
  9 12  1  0  0  0  0
  9 13  1  0  0  0  0
 10 11  1  0  0  0  0
 11 14  1  0  0  0  0
 14 15  1  0  0  0  0
 15 16  1  0  0  0  0
 15 17  1  0  0  0  0
 18  2  1  0  0  0  0
 18 20  2  0  0  0  0
 18 24  1  0  0  0  0
 19 25  1  0  0  0  0
 20  1  1  0  0  0  0
 20 21  1  0  0  0  0
 21 22  2  0  0  0  0
 22 19  1  0  0  0  0
 22 23  1  0  0  0  0
 23 24  2  0  0  0  0
M  END
>  <CHROM.1>
163.29150686,-178.88920153,120.23892942,-73.38137522,-131.06378504,-171.00327831
78.87161246,69.12714957,-81.35450819,-43.00269488,73.32827581,-153.51483291
-126.76131293,152.18482103,96.22495464,-91.05757892,119.24800878,-99.43810124
-2.57873932,-9.99613369,-2.85240665,-1.19755954,-0.09403018,-2.26333555

>  <Name>
1uud_lig

>  <RI>
0

>  <Rbt.Current_Directory>
/home/itssahil/PROJECTS/Mol_Feturizer/New_Systems/rnas/1uud

>  <Rbt.Executable>
rbdock ($Id: //depot/dev/client3/rdock/2013.1/src/exe/rbdock.cxx#4 $)

>  <Rbt.Library>
libRbt.so (2013.1, Build901 2013/11/27)

>  <Rbt.Parameter_File>
/export/apps/rDock/src/rDock_2013.1_src/data/scripts/dock_solv.prm

>  <Rbt.Receptor>
prm/pocket_docking_7.prm

>  <SCORE>
-22.1245

>  <SCORE.INTER>
-16.2925

>  <SCORE.INTER.CONST>
1

>  <SCORE.INTER.POLAR>
-3.08781

>  <SCORE.INTER.ROT>
18

>  <SCORE.INTER.SOLV>
8.04563

>  <SCORE.INTER.VDW>
-18.8508

>  <SCORE.INTER.norm>
-0.651699

>  <SCORE.INTRA>
-5.83203

>  <SCORE.INTRA.DIHEDRAL>
-1.92391

>  <SCORE.INTRA.DIHEDRAL.0>
30.6762

>  <SCORE.INTRA.POLAR>
0.0288659

>  <SCORE.INTRA.POLAR.0>
-0.0288659

>  <SCORE.INTRA.REPUL>
0

>  <SCORE.INTRA.REPUL.0>
0

>  <SCORE.INTRA.SOLV>
-1.11464

>  <SCORE.INTRA.SOLV.lig_0>
-25.2195

>  <SCORE.INTRA.VDW>
-4.4109

>  <SCORE.INTRA.VDW.0>
4.14263

>  <SCORE.INTRA.norm>
-0.233281

>  <SCORE.RESTR>
0

>  <SCORE.RESTR.CAVITY>
0

>  <SCORE.RESTR.norm>
0

>  <SCORE.SYSTEM>
0

>  <SCORE.SYSTEM.CONST>
0

>  <SCORE.SYSTEM.DIHEDRAL>
0

>  <SCORE.SYSTEM.SOLV>
0

>  <SCORE.SYSTEM.norm>
0

>  <SCORE.heavy>
25

>  <SCORE.norm>
-0.884981

>  <RMSD>
3.693

$$$$
1uud_lig
 OpenBabel11021811413D
libRbt.so/2013.1/901 2013/11/27
 25 25  0  0  0  0  0  0  0  0999 V2000
   -3.4658   -7.0894   -2.9863 C   0  0  0  0  0  0  0  0  0  0  0  0
   -5.3912   -9.2931   -3.1846 O   0  0  0  0  0  0  0  0  0  0  0  0
   -4.3491  -10.0404   -3.8295 C   0  0  0  0  0  0  0  0  0  0  0  0
   -1.9978   -6.9205   -2.8498 N   0  0  0  0  0  0  0  0  0  0  0  0
   -4.8179  -10.5198   -5.2099 C   0  0  0  0  0  0  0  0  0  0  0  0
   -1.3515   -8.2462   -2.7028 C   0  0  0  0  0  0  0  0  0  0  0  0
    0.1457   -8.1238   -3.0114 C   0  0  0  0  0  0  0  0  0  0  0  0
   -3.8227  -11.0898   -5.8467 N   0  0  0  0  0  0  0  0  0  0  0  0
   -3.7913  -11.1504   -7.1648 C   0  0  0  0  0  0  0  0  0  0  0  0
    0.9325   -9.1520   -2.1914 C   0  0  0  0  0  0  0  0  0  0  0  0
    1.1174   -8.6336   -0.7623 C   0  0  0  0  0  0  0  0  0  0  0  0
   -4.4994  -12.0961   -7.8538 N   0  0  0  0  0  0  0  0  0  0  0  0
   -3.0375  -10.2541   -7.8522 N   0  0  0  0  0  0  0  0  0  0  0  0
    1.9371   -9.4199   -0.1058 N   0  0  0  0  0  0  0  0  0  0  0  0
    1.5112  -10.2002    0.8689 C   0  0  0  0  0  0  0  0  0  0  0  0
    2.2603  -11.2720    1.2346 N   0  0  0  0  0  0  0  0  0  0  0  0
    0.3296   -9.9609    1.5115 N   0  0  0  0  0  0  0  0  0  0  0  0
   -4.9627   -8.8733   -1.8828 C   0  0  0  0  0  0  0  0  0  0  0  0
   -3.6654   -7.6677    2.0049 O   0  0  0  0  0  0  0  0  0  0  0  0
   -4.0246   -7.8102   -1.7419 C   0  0  0  0  0  0  0  0  0  0  0  0
   -3.5886   -7.4171   -0.4483 C   0  0  0  0  0  0  0  0  0  0  0  0
   -4.1028   -8.0681    0.7038 C   0  0  0  0  0  0  0  0  0  0  0  0
   -5.0531   -9.1153    0.5652 C   0  0  0  0  0  0  0  0  0  0  0  0
   -5.4895   -9.5143   -0.7273 C   0  0  0  0  0  0  0  0  0  0  0  0
   -2.2360   -7.6188    2.0359 C   0  0  0  0  0  0  0  0  0  0  0  0
  1  4  1  0  0  0  0
  2  3  1  0  0  0  0
  3  5  1  0  0  0  0
  4  6  1  0  0  0  0
  5  8  1  0  0  0  0
  6  7  1  0  0  0  0
  7 10  1  0  0  0  0
  8  9  1  0  0  0  0
  9 12  1  0  0  0  0
  9 13  1  0  0  0  0
 10 11  1  0  0  0  0
 11 14  1  0  0  0  0
 14 15  1  0  0  0  0
 15 16  1  0  0  0  0
 15 17  1  0  0  0  0
 18  2  1  0  0  0  0
 18 20  2  0  0  0  0
 18 24  1  0  0  0  0
 19 25  1  0  0  0  0
 20  1  1  0  0  0  0
 20 21  1  0  0  0  0
 21 22  2  0  0  0  0
 22 19  1  0  0  0  0
 22 23  1  0  0  0  0
 23 24  2  0  0  0  0
M  END
>  <CHROM.1>
59.15532109,178.64002954,173.96779712,161.94937432,-155.15395542,149.46135554
-79.82516201,-80.41576161,-81.58266042,-115.36872875,-171.67430483,-109.89421060
159.61682333,-111.84587305,-51.74368639,74.35159063,-135.05500118,-49.78121895
-2.39091585,-9.21290346,-2.09324251,2.10689850,0.20674514,-1.89662583

>  <Name>
1uud_lig

>  <RI>
0

>  <Rbt.Current_Directory>
/home/itssahil/PROJECTS/Mol_Feturizer/New_Systems/rnas/1uud

>  <Rbt.Executable>
rbdock ($Id: //depot/dev/client3/rdock/2013.1/src/exe/rbdock.cxx#4 $)

>  <Rbt.Library>
libRbt.so (2013.1, Build901 2013/11/27)

>  <Rbt.Parameter_File>
/export/apps/rDock/src/rDock_2013.1_src/data/scripts/dock_solv.prm

>  <Rbt.Receptor>
prm/pocket_docking_5.prm

>  <SCORE>
-27.5004

>  <SCORE.INTER>
-20.5561

>  <SCORE.INTER.CONST>
1

>  <SCORE.INTER.POLAR>
-3.89682

>  <SCORE.INTER.ROT>
18

>  <SCORE.INTER.SOLV>
8.9097

>  <SCORE.INTER.VDW>
-19.2846

>  <SCORE.INTER.norm>
-0.822244

>  <SCORE.INTRA>
-6.94428

>  <SCORE.INTRA.DIHEDRAL>
-7.64853

>  <SCORE.INTRA.DIHEDRAL.0>
30.6762

>  <SCORE.INTRA.POLAR>
0.0288659

>  <SCORE.INTRA.POLAR.0>
-0.0288659

>  <SCORE.INTRA.REPUL>
0

>  <SCORE.INTRA.REPUL.0>
0

>  <SCORE.INTRA.SOLV>
-1.26041

>  <SCORE.INTRA.SOLV.lig_0>
-25.2195

>  <SCORE.INTRA.VDW>
-2.58795

>  <SCORE.INTRA.VDW.0>
4.14263

>  <SCORE.INTRA.norm>
-0.277771

>  <SCORE.RESTR>
0

>  <SCORE.RESTR.CAVITY>
0

>  <SCORE.RESTR.norm>
0

>  <SCORE.SYSTEM>
0

>  <SCORE.SYSTEM.CONST>
0

>  <SCORE.SYSTEM.DIHEDRAL>
0

>  <SCORE.SYSTEM.SOLV>
0

>  <SCORE.SYSTEM.norm>
0

>  <SCORE.heavy>
25

>  <SCORE.norm>
-1.10002

>  <RMSD>
3.859

$$$$
1uud_lig
 OpenBabel11021811413D
libRbt.so/2013.1/901 2013/11/27
 25 25  0  0  0  0  0  0  0  0999 V2000
   -7.4069   -8.8586   -5.0341 C   0  0  0  0  0  0  0  0  0  0  0  0
   -4.6986   -9.8946   -5.4748 O   0  0  0  0  0  0  0  0  0  0  0  0
   -4.1020  -10.2061   -6.7426 C   0  0  0  0  0  0  0  0  0  0  0  0
   -7.3186   -9.6677   -3.7932 N   0  0  0  0  0  0  0  0  0  0  0  0
   -3.6578  -11.6748   -6.7720 C   0  0  0  0  0  0  0  0  0  0  0  0
   -7.3425   -8.7759   -2.6096 C   0  0  0  0  0  0  0  0  0  0  0  0
   -6.8864   -9.5558   -1.3706 C   0  0  0  0  0  0  0  0  0  0  0  0
   -2.7712  -11.8924   -5.8300 N   0  0  0  0  0  0  0  0  0  0  0  0
   -2.7550  -13.0204   -5.1450 C   0  0  0  0  0  0  0  0  0  0  0  0
   -7.2633   -8.7843   -0.1011 C   0  0  0  0  0  0  0  0  0  0  0  0
   -5.9993   -8.2013    0.5375 C   0  0  0  0  0  0  0  0  0  0  0  0
   -2.9033  -14.2327   -5.7606 N   0  0  0  0  0  0  0  0  0  0  0  0
   -2.5887  -12.9760   -3.7979 N   0  0  0  0  0  0  0  0  0  0  0  0
   -5.1730   -9.1698    0.8542 N   0  0  0  0  0  0  0  0  0  0  0  0
   -3.9710   -8.9201    1.3373 C   0  0  0  0  0  0  0  0  0  0  0  0
   -3.4871   -9.6947    2.3420 N   0  0  0  0  0  0  0  0  0  0  0  0
   -3.2068   -7.8945    0.8574 N   0  0  0  0  0  0  0  0  0  0  0  0
   -4.8779   -8.4780   -5.3498 C   0  0  0  0  0  0  0  0  0  0  0  0
   -5.3955   -4.2499   -5.0245 O   0  0  0  0  0  0  0  0  0  0  0  0
   -6.1774   -7.9327   -5.1402 C   0  0  0  0  0  0  0  0  0  0  0  0
   -6.3476   -6.5258   -5.0409 C   0  0  0  0  0  0  0  0  0  0  0  0
   -5.2218   -5.6653   -5.1289 C   0  0  0  0  0  0  0  0  0  0  0  0
   -3.9230   -6.2094   -5.3183 C   0  0  0  0  0  0  0  0  0  0  0  0
   -3.7484   -7.6161   -5.4218 C   0  0  0  0  0  0  0  0  0  0  0  0
   -5.7498   -3.7150   -6.3031 C   0  0  0  0  0  0  0  0  0  0  0  0
  1  4  1  0  0  0  0
  2  3  1  0  0  0  0
  3  5  1  0  0  0  0
  4  6  1  0  0  0  0
  5  8  1  0  0  0  0
  6  7  1  0  0  0  0
  7 10  1  0  0  0  0
  8  9  1  0  0  0  0
  9 12  1  0  0  0  0
  9 13  1  0  0  0  0
 10 11  1  0  0  0  0
 11 14  1  0  0  0  0
 14 15  1  0  0  0  0
 15 16  1  0  0  0  0
 15 17  1  0  0  0  0
 18  2  1  0  0  0  0
 18 20  2  0  0  0  0
 18 24  1  0  0  0  0
 19 25  1  0  0  0  0
 20  1  1  0  0  0  0
 20 21  1  0  0  0  0
 21 22  2  0  0  0  0
 22 19  1  0  0  0  0
 22 23  1  0  0  0  0
 23 24  2  0  0  0  0
M  END
>  <CHROM.1>
62.60974967,168.96238948,-60.47893821,-165.21625863,142.21512264,-164.64431062
-108.08850323,44.01734944,46.22275969,-105.12895383,-60.24126642,175.33087100
139.90478884,-89.06940977,114.61006625,121.08980671,67.44881121,-84.26240898
-4.88733498,-9.01985539,-3.51083781,1.09087273,1.19261938,-1.42451557

>  <Name>
1uud_lig

>  <RI>
0

>  <Rbt.Current_Directory>
/home/itssahil/PROJECTS/Mol_Feturizer/New_Systems/rnas/1uud

>  <Rbt.Executable>
rbdock ($Id: //depot/dev/client3/rdock/2013.1/src/exe/rbdock.cxx#4 $)

>  <Rbt.Library>
libRbt.so (2013.1, Build901 2013/11/27)

>  <Rbt.Parameter_File>
/export/apps/rDock/src/rDock_2013.1_src/data/scripts/dock_solv.prm

>  <Rbt.Receptor>
prm/pocket_docking_8.prm

>  <SCORE>
-14.198

>  <SCORE.INTER>
-7.91974

>  <SCORE.INTER.CONST>
1

>  <SCORE.INTER.POLAR>
-2.03921

>  <SCORE.INTER.ROT>
18

>  <SCORE.INTER.SOLV>
7.68156

>  <SCORE.INTER.VDW>
-16.643

>  <SCORE.INTER.norm>
-0.31679

>  <SCORE.INTRA>
-6.27823

>  <SCORE.INTRA.DIHEDRAL>
-4.59492

>  <SCORE.INTRA.DIHEDRAL.0>
30.6762

>  <SCORE.INTRA.POLAR>
-0.0513905

>  <SCORE.INTRA.POLAR.0>
-0.0288659

>  <SCORE.INTRA.REPUL>
0

>  <SCORE.INTRA.REPUL.0>
0

>  <SCORE.INTRA.SOLV>
-0.918543

>  <SCORE.INTRA.SOLV.lig_0>
-25.2195

>  <SCORE.INTRA.VDW>
-3.34677

>  <SCORE.INTRA.VDW.0>
4.14263

>  <SCORE.INTRA.norm>
-0.251129

>  <SCORE.RESTR>
0

>  <SCORE.RESTR.CAVITY>
0

>  <SCORE.RESTR.norm>
0

>  <SCORE.SYSTEM>
0

>  <SCORE.SYSTEM.CONST>
0

>  <SCORE.SYSTEM.DIHEDRAL>
0

>  <SCORE.SYSTEM.SOLV>
0

>  <SCORE.SYSTEM.norm>
0

>  <SCORE.heavy>
25

>  <SCORE.norm>
-0.567919

>  <RMSD>
3.949

$$$$
1uud_lig
 OpenBabel11021811413D
libRbt.so/2013.1/901 2013/11/27
 25 25  0  0  0  0  0  0  0  0999 V2000
   -2.2076  -10.6780   -3.0969 C   0  0  0  0  0  0  0  0  0  0  0  0
   -3.0430  -11.4016   -5.8138 O   0  0  0  0  0  0  0  0  0  0  0  0
   -3.3820  -12.7406   -6.2043 C   0  0  0  0  0  0  0  0  0  0  0  0
   -2.1895  -11.0444   -1.6590 N   0  0  0  0  0  0  0  0  0  0  0  0
   -2.1161  -13.6040   -6.2887 C   0  0  0  0  0  0  0  0  0  0  0  0
   -2.3430   -9.8264   -0.8286 C   0  0  0  0  0  0  0  0  0  0  0  0
   -3.0813  -10.1796    0.4682 C   0  0  0  0  0  0  0  0  0  0  0  0
   -2.4369  -14.8745   -6.2274 N   0  0  0  0  0  0  0  0  0  0  0  0
   -1.8103  -15.7802   -6.9547 C   0  0  0  0  0  0  0  0  0  0  0  0
   -4.2341   -9.1959    0.6961 C   0  0  0  0  0  0  0  0  0  0  0  0
   -5.3182   -9.8659    1.5453 C   0  0  0  0  0  0  0  0  0  0  0  0
   -2.0728  -17.1153   -6.8152 N   0  0  0  0  0  0  0  0  0  0  0  0
   -0.8828  -15.3773   -7.8611 N   0  0  0  0  0  0  0  0  0  0  0  0
   -4.8487  -10.1265    2.7423 N   0  0  0  0  0  0  0  0  0  0  0  0
   -5.4610  -10.9659    3.5552 C   0  0  0  0  0  0  0  0  0  0  0  0
   -4.9029  -11.2463    4.7608 N   0  0  0  0  0  0  0  0  0  0  0  0
   -6.6375  -11.5671    3.2080 N   0  0  0  0  0  0  0  0  0  0  0  0
   -4.0285  -10.8884   -4.9082 C   0  0  0  0  0  0  0  0  0  0  0  0
   -6.9906   -9.4027   -2.2121 O   0  0  0  0  0  0  0  0  0  0  0  0
   -3.6660  -10.5297   -3.5778 C   0  0  0  0  0  0  0  0  0  0  0  0
   -4.6549  -10.0440   -2.6809 C   0  0  0  0  0  0  0  0  0  0  0  0
   -5.9981   -9.8958   -3.1157 C   0  0  0  0  0  0  0  0  0  0  0  0
   -6.3567  -10.2348   -4.4482 C   0  0  0  0  0  0  0  0  0  0  0  0
   -5.3714  -10.7246   -5.3479 C   0  0  0  0  0  0  0  0  0  0  0  0
   -6.9082   -7.9763   -2.1417 C   0  0  0  0  0  0  0  0  0  0  0  0
  1  4  1  0  0  0  0
  2  3  1  0  0  0  0
  3  5  1  0  0  0  0
  4  6  1  0  0  0  0
  5  8  1  0  0  0  0
  6  7  1  0  0  0  0
  7 10  1  0  0  0  0
  8  9  1  0  0  0  0
  9 12  1  0  0  0  0
  9 13  1  0  0  0  0
 10 11  1  0  0  0  0
 11 14  1  0  0  0  0
 14 15  1  0  0  0  0
 15 16  1  0  0  0  0
 15 17  1  0  0  0  0
 18  2  1  0  0  0  0
 18 20  2  0  0  0  0
 18 24  1  0  0  0  0
 19 25  1  0  0  0  0
 20  1  1  0  0  0  0
 20 21  1  0  0  0  0
 21 22  2  0  0  0  0
 22 19  1  0  0  0  0
 22 23  1  0  0  0  0
 23 24  2  0  0  0  0
M  END
>  <CHROM.1>
-82.44520811,-140.97513968,160.32998138,148.63581421,141.81258505,-130.44804045
154.03236636,174.84764919,148.02149111,-52.55322343,65.01421712,-164.07939950
177.13214627,-62.28364653,35.66844158,117.59833454,-146.25815072,80.64155377
-4.01533849,-11.46956740,-2.47951678,-1.03062380,-0.96207983,1.58198078

>  <Name>
1uud_lig

>  <RI>
0

>  <Rbt.Current_Directory>
/home/itssahil/PROJECTS/Mol_Feturizer/New_Systems/rnas/1uud

>  <Rbt.Executable>
rbdock ($Id: //depot/dev/client3/rdock/2013.1/src/exe/rbdock.cxx#4 $)

>  <Rbt.Library>
libRbt.so (2013.1, Build901 2013/11/27)

>  <Rbt.Parameter_File>
/export/apps/rDock/src/rDock_2013.1_src/data/scripts/dock_solv.prm

>  <Rbt.Receptor>
prm/pocket_docking_7.prm

>  <SCORE>
-29.9696

>  <SCORE.INTER>
-30.5637

>  <SCORE.INTER.CONST>
1

>  <SCORE.INTER.POLAR>
-5.89724

>  <SCORE.INTER.ROT>
18

>  <SCORE.INTER.SOLV>
8.4181

>  <SCORE.INTER.VDW>
-19.1244

>  <SCORE.INTER.norm>
-1.22255

>  <SCORE.INTRA>
0.594108

>  <SCORE.INTRA.DIHEDRAL>
5.3464

>  <SCORE.INTRA.DIHEDRAL.0>
30.6762

>  <SCORE.INTRA.POLAR>
0.0288659

>  <SCORE.INTRA.POLAR.0>
-0.0288659

>  <SCORE.INTRA.REPUL>
0

>  <SCORE.INTRA.REPUL.0>
0

>  <SCORE.INTRA.SOLV>
-1.38962

>  <SCORE.INTRA.SOLV.lig_0>
-25.2195

>  <SCORE.INTRA.VDW>
-1.48243

>  <SCORE.INTRA.VDW.0>
4.14263

>  <SCORE.INTRA.norm>
0.0237643

>  <SCORE.RESTR>
0

>  <SCORE.RESTR.CAVITY>
0

>  <SCORE.RESTR.norm>
0

>  <SCORE.SYSTEM>
0

>  <SCORE.SYSTEM.CONST>
0

>  <SCORE.SYSTEM.DIHEDRAL>
0

>  <SCORE.SYSTEM.SOLV>
0

>  <SCORE.SYSTEM.norm>
0

>  <SCORE.heavy>
25

>  <SCORE.norm>
-1.19879

>  <RMSD>
3.979

$$$$
1uud_lig
 OpenBabel11021811413D
libRbt.so/2013.1/901 2013/11/27
 25 25  0  0  0  0  0  0  0  0999 V2000
   -0.7148   -8.5548   -1.9403 C   0  0  0  0  0  0  0  0  0  0  0  0
   -3.3468   -9.0085   -3.1526 O   0  0  0  0  0  0  0  0  0  0  0  0
   -2.9632   -9.8444   -4.2546 C   0  0  0  0  0  0  0  0  0  0  0  0
   -0.5761   -8.1703   -0.5138 N   0  0  0  0  0  0  0  0  0  0  0  0
   -3.7217   -9.4298   -5.5226 C   0  0  0  0  0  0  0  0  0  0  0  0
    0.8567   -7.9931   -0.1786 C   0  0  0  0  0  0  0  0  0  0  0  0
    1.5773   -9.3431   -0.2778 C   0  0  0  0  0  0  0  0  0  0  0  0
   -3.1609   -9.9734   -6.5766 N   0  0  0  0  0  0  0  0  0  0  0  0
   -3.8243  -10.8022   -7.3608 C   0  0  0  0  0  0  0  0  0  0  0  0
    1.2499  -10.2001    0.9499 C   0  0  0  0  0  0  0  0  0  0  0  0
    0.3398  -11.3601    0.5362 C   0  0  0  0  0  0  0  0  0  0  0  0
   -5.1601  -11.0375   -7.1851 N   0  0  0  0  0  0  0  0  0  0  0  0
   -3.1649  -11.4368   -8.3642 N   0  0  0  0  0  0  0  0  0  0  0  0
   -0.8579  -11.1893    1.0437 N   0  0  0  0  0  0  0  0  0  0  0  0
   -1.9301  -11.1344    0.2769 C   0  0  0  0  0  0  0  0  0  0  0  0
   -1.8357  -11.5184   -1.0220 N   0  0  0  0  0  0  0  0  0  0  0  0
   -3.1297  -10.6906    0.7566 N   0  0  0  0  0  0  0  0  0  0  0  0
   -2.7462   -7.7137   -3.2843 C   0  0  0  0  0  0  0  0  0  0  0  0
   -0.9947   -3.8345   -3.6510 O   0  0  0  0  0  0  0  0  0  0  0  0
   -1.4712   -7.4495   -2.7061 C   0  0  0  0  0  0  0  0  0  0  0  0
   -0.8950   -6.1561   -2.8223 C   0  0  0  0  0  0  0  0  0  0  0  0
   -1.5788   -5.1342   -3.5320 C   0  0  0  0  0  0  0  0  0  0  0  0
   -2.8415   -5.4023   -4.1257 C   0  0  0  0  0  0  0  0  0  0  0  0
   -3.4234   -6.6938   -4.0089 C   0  0  0  0  0  0  0  0  0  0  0  0
   -0.5495   -3.6305   -4.9951 C   0  0  0  0  0  0  0  0  0  0  0  0
  1  4  1  0  0  0  0
  2  3  1  0  0  0  0
  3  5  1  0  0  0  0
  4  6  1  0  0  0  0
  5  8  1  0  0  0  0
  6  7  1  0  0  0  0
  7 10  1  0  0  0  0
  8  9  1  0  0  0  0
  9 12  1  0  0  0  0
  9 13  1  0  0  0  0
 10 11  1  0  0  0  0
 11 14  1  0  0  0  0
 14 15  1  0  0  0  0
 15 16  1  0  0  0  0
 15 17  1  0  0  0  0
 18  2  1  0  0  0  0
 18 20  2  0  0  0  0
 18 24  1  0  0  0  0
 19 25  1  0  0  0  0
 20  1  1  0  0  0  0
 20 21  1  0  0  0  0
 21 22  2  0  0  0  0
 22 19  1  0  0  0  0
 22 23  1  0  0  0  0
 23 24  2  0  0  0  0
M  END
>  <CHROM.1>
-115.85824265,-74.77794949,165.64276062,-66.07039463,119.25206182,-76.56522041
109.19555495,6.14764415,156.52747913,19.69209275,-111.06673323,122.51252685
13.02728695,-39.09289400,-164.99750667,-90.49007741,-115.61728023,108.21663770
-1.81411581,-8.77376527,-2.88219422,-0.54663837,-1.04674142,-0.48843458

>  <Name>
1uud_lig

>  <RI>
0

>  <Rbt.Current_Directory>
/home/itssahil/PROJECTS/Mol_Feturizer/New_Systems/rnas/1uud

>  <Rbt.Executable>
rbdock ($Id: //depot/dev/client3/rdock/2013.1/src/exe/rbdock.cxx#4 $)

>  <Rbt.Library>
libRbt.so (2013.1, Build901 2013/11/27)

>  <Rbt.Parameter_File>
/export/apps/rDock/src/rDock_2013.1_src/data/scripts/dock_solv.prm

>  <Rbt.Receptor>
prm/pocket_docking_8.prm

>  <SCORE>
-19.3667

>  <SCORE.INTER>
-20.2289

>  <SCORE.INTER.CONST>
1

>  <SCORE.INTER.POLAR>
-4.31756

>  <SCORE.INTER.ROT>
18

>  <SCORE.INTER.SOLV>
8.62623

>  <SCORE.INTER.VDW>
-17.5695

>  <SCORE.INTER.norm>
-0.809157

>  <SCORE.INTRA>
0.862234

>  <SCORE.INTRA.DIHEDRAL>
6.02145

>  <SCORE.INTRA.DIHEDRAL.0>
30.6762

>  <SCORE.INTRA.POLAR>
0.0288659

>  <SCORE.INTRA.POLAR.0>
-0.0288659

>  <SCORE.INTRA.REPUL>
0

>  <SCORE.INTRA.REPUL.0>
0

>  <SCORE.INTRA.SOLV>
0.74906

>  <SCORE.INTRA.SOLV.lig_0>
-25.2195

>  <SCORE.INTRA.VDW>
-2.62117

>  <SCORE.INTRA.VDW.0>
4.14263

>  <SCORE.INTRA.norm>
0.0344894

>  <SCORE.RESTR>
0

>  <SCORE.RESTR.CAVITY>
0

>  <SCORE.RESTR.norm>
0

>  <SCORE.SYSTEM>
0

>  <SCORE.SYSTEM.CONST>
0

>  <SCORE.SYSTEM.DIHEDRAL>
0

>  <SCORE.SYSTEM.SOLV>
0

>  <SCORE.SYSTEM.norm>
0

>  <SCORE.heavy>
25

>  <SCORE.norm>
-0.774668

>  <RMSD>
4.026

$$$$
1uud_lig
 OpenBabel11021811413D
libRbt.so/2013.1/901 2013/11/27
 25 25  0  0  0  0  0  0  0  0999 V2000
   -3.3939  -10.7797   -3.0878 C   0  0  0  0  0  0  0  0  0  0  0  0
   -0.7362  -11.0681   -4.2945 O   0  0  0  0  0  0  0  0  0  0  0  0
   -0.9811  -11.9898   -5.3672 C   0  0  0  0  0  0  0  0  0  0  0  0
   -2.4425  -11.1972   -2.0283 N   0  0  0  0  0  0  0  0  0  0  0  0
   -0.2168  -13.2985   -5.1256 C   0  0  0  0  0  0  0  0  0  0  0  0
   -2.4594  -10.2115   -0.9215 C   0  0  0  0  0  0  0  0  0  0  0  0
   -1.5188  -10.6788    0.1958 C   0  0  0  0  0  0  0  0  0  0  0  0
   -0.5809  -14.1981   -6.0081 N   0  0  0  0  0  0  0  0  0  0  0  0
   -1.5776  -15.0310   -5.7735 C   0  0  0  0  0  0  0  0  0  0  0  0
   -2.1347  -10.3604    1.5626 C   0  0  0  0  0  0  0  0  0  0  0  0
   -2.3204   -8.8465    1.7001 C   0  0  0  0  0  0  0  0  0  0  0  0
   -2.7413  -14.9728   -6.4897 N   0  0  0  0  0  0  0  0  0  0  0  0
   -1.4447  -15.9661   -4.7978 N   0  0  0  0  0  0  0  0  0  0  0  0
   -2.9208   -8.5726    2.8340 N   0  0  0  0  0  0  0  0  0  0  0  0
   -2.9761   -7.3414    3.3048 C   0  0  0  0  0  0  0  0  0  0  0  0
   -1.8943   -6.8280    3.9448 N   0  0  0  0  0  0  0  0  0  0  0  0
   -4.0995   -6.5755    3.1724 N   0  0  0  0  0  0  0  0  0  0  0  0
   -1.4604   -9.8511   -4.5161 C   0  0  0  0  0  0  0  0  0  0  0  0
   -3.6197   -6.2340   -5.2260 O   0  0  0  0  0  0  0  0  0  0  0  0
   -2.7567   -9.6722   -3.9525 C   0  0  0  0  0  0  0  0  0  0  0  0
   -3.4759   -8.4717   -4.1973 C   0  0  0  0  0  0  0  0  0  0  0  0
   -2.8953   -7.4429   -4.9846 C   0  0  0  0  0  0  0  0  0  0  0  0
   -1.5947   -7.6125   -5.5309 C   0  0  0  0  0  0  0  0  0  0  0  0
   -0.8729   -8.8133   -5.2916 C   0  0  0  0  0  0  0  0  0  0  0  0
   -3.2273   -5.2418   -4.2730 C   0  0  0  0  0  0  0  0  0  0  0  0
  1  4  1  0  0  0  0
  2  3  1  0  0  0  0
  3  5  1  0  0  0  0
  4  6  1  0  0  0  0
  5  8  1  0  0  0  0
  6  7  1  0  0  0  0
  7 10  1  0  0  0  0
  8  9  1  0  0  0  0
  9 12  1  0  0  0  0
  9 13  1  0  0  0  0
 10 11  1  0  0  0  0
 11 14  1  0  0  0  0
 14 15  1  0  0  0  0
 15 16  1  0  0  0  0
 15 17  1  0  0  0  0
 18  2  1  0  0  0  0
 18 20  2  0  0  0  0
 18 24  1  0  0  0  0
 19 25  1  0  0  0  0
 20  1  1  0  0  0  0
 20 21  1  0  0  0  0
 21 22  2  0  0  0  0
 22 19  1  0  0  0  0
 22 23  1  0  0  0  0
 23 24  2  0  0  0  0
M  END
>  <CHROM.1>
79.03860442,-179.48409577,171.60810936,177.63397976,-90.85560935,-141.64343954
-61.43103706,113.18415408,-153.41712372,169.42919811,176.22818504,167.25960912
-79.69969610,-164.29194385,4.01729393,93.36419954,51.29073300,95.49258022
-2.18202321,-10.08873436,-2.54579174,-0.76727977,-1.37409224,1.73068172

>  <Name>
1uud_lig

>  <RI>
0

>  <Rbt.Current_Directory>
/home/itssahil/PROJECTS/Mol_Feturizer/New_Systems/rnas/1uud

>  <Rbt.Executable>
rbdock ($Id: //depot/dev/client3/rdock/2013.1/src/exe/rbdock.cxx#4 $)

>  <Rbt.Library>
libRbt.so (2013.1, Build901 2013/11/27)

>  <Rbt.Parameter_File>
/export/apps/rDock/src/rDock_2013.1_src/data/scripts/dock_solv.prm

>  <Rbt.Receptor>
prm/pocket_docking_8.prm

>  <SCORE>
-35.6016

>  <SCORE.INTER>
-25.3903

>  <SCORE.INTER.CONST>
1

>  <SCORE.INTER.POLAR>
-5.96838

>  <SCORE.INTER.ROT>
18

>  <SCORE.INTER.SOLV>
9.0292

>  <SCORE.INTER.VDW>
-15.642

>  <SCORE.INTER.norm>
-1.01561

>  <SCORE.INTRA>
-10.2114

>  <SCORE.INTRA.DIHEDRAL>
-5.76106

>  <SCORE.INTRA.DIHEDRAL.0>
30.6762

>  <SCORE.INTRA.POLAR>
-0.647613

>  <SCORE.INTRA.POLAR.0>
-0.0288659

>  <SCORE.INTRA.REPUL>
0

>  <SCORE.INTRA.REPUL.0>
0

>  <SCORE.INTRA.SOLV>
-1.06876

>  <SCORE.INTRA.SOLV.lig_0>
-25.2195

>  <SCORE.INTRA.VDW>
-4.59456

>  <SCORE.INTRA.VDW.0>
4.14263

>  <SCORE.INTRA.norm>
-0.408454

>  <SCORE.RESTR>
0

>  <SCORE.RESTR.CAVITY>
0

>  <SCORE.RESTR.norm>
0

>  <SCORE.SYSTEM>
0

>  <SCORE.SYSTEM.CONST>
0

>  <SCORE.SYSTEM.DIHEDRAL>
0

>  <SCORE.SYSTEM.SOLV>
0

>  <SCORE.SYSTEM.norm>
0

>  <SCORE.heavy>
25

>  <SCORE.norm>
-1.42407

>  <RMSD>
4.043

$$$$
1uud_lig
 OpenBabel11021811413D
libRbt.so/2013.1/901 2013/11/27
 25 25  0  0  0  0  0  0  0  0999 V2000
   -2.9509   -9.2662   -2.5715 C   0  0  0  0  0  0  0  0  0  0  0  0
   -5.6084  -10.5048   -2.4935 O   0  0  0  0  0  0  0  0  0  0  0  0
   -6.7930  -10.4060   -3.2980 C   0  0  0  0  0  0  0  0  0  0  0  0
   -1.6237   -8.7616   -3.0027 N   0  0  0  0  0  0  0  0  0  0  0  0
   -6.6602   -9.2476   -4.2959 C   0  0  0  0  0  0  0  0  0  0  0  0
   -1.2191   -7.6197   -2.1488 C   0  0  0  0  0  0  0  0  0  0  0  0
   -0.7108   -8.1429   -0.7999 C   0  0  0  0  0  0  0  0  0  0  0  0
   -6.5209   -9.7193   -5.5120 N   0  0  0  0  0  0  0  0  0  0  0  0
   -5.3312   -9.9916   -6.0144 C   0  0  0  0  0  0  0  0  0  0  0  0
    0.8143   -8.2889   -0.8388 C   0  0  0  0  0  0  0  0  0  0  0  0
    1.2926   -9.0016    0.4296 C   0  0  0  0  0  0  0  0  0  0  0  0
   -4.2379   -9.2250   -5.7187 N   0  0  0  0  0  0  0  0  0  0  0  0
   -5.1900  -11.0567   -6.8450 N   0  0  0  0  0  0  0  0  0  0  0  0
    1.2009  -10.3008    0.2719 N   0  0  0  0  0  0  0  0  0  0  0  0
    1.7285  -11.1398    1.1426 C   0  0  0  0  0  0  0  0  0  0  0  0
    0.9072  -11.8707    1.9394 N   0  0  0  0  0  0  0  0  0  0  0  0
    3.0813  -11.2825    1.2682 N   0  0  0  0  0  0  0  0  0  0  0  0
   -4.5679  -11.1623   -3.2280 C   0  0  0  0  0  0  0  0  0  0  0  0
   -1.4932  -13.1158   -5.4597 O   0  0  0  0  0  0  0  0  0  0  0  0
   -3.2640  -10.5920   -3.2958 C   0  0  0  0  0  0  0  0  0  0  0  0
   -2.2458  -11.2395   -4.0457 C   0  0  0  0  0  0  0  0  0  0  0  0
   -2.5210  -12.4641   -4.7091 C   0  0  0  0  0  0  0  0  0  0  0  0
   -3.8156  -13.0436   -4.6259 C   0  0  0  0  0  0  0  0  0  0  0  0
   -4.8383  -12.3975   -3.8798 C   0  0  0  0  0  0  0  0  0  0  0  0
   -1.8493  -13.1328   -6.8452 C   0  0  0  0  0  0  0  0  0  0  0  0
  1  4  1  0  0  0  0
  2  3  1  0  0  0  0
  3  5  1  0  0  0  0
  4  6  1  0  0  0  0
  5  8  1  0  0  0  0
  6  7  1  0  0  0  0
  7 10  1  0  0  0  0
  8  9  1  0  0  0  0
  9 12  1  0  0  0  0
  9 13  1  0  0  0  0
 10 11  1  0  0  0  0
 11 14  1  0  0  0  0
 14 15  1  0  0  0  0
 15 16  1  0  0  0  0
 15 17  1  0  0  0  0
 18  2  1  0  0  0  0
 18 20  2  0  0  0  0
 18 24  1  0  0  0  0
 19 25  1  0  0  0  0
 20  1  1  0  0  0  0
 20 21  1  0  0  0  0
 21 22  2  0  0  0  0
 22 19  1  0  0  0  0
 22 23  1  0  0  0  0
 23 24  2  0  0  0  0
M  END
>  <CHROM.1>
-170.52248466,-78.98930084,109.16588176,77.73567377,-89.40970384,94.52030098
-171.73729431,-35.68383521,9.68811092,-144.76120164,84.46552798,170.11163045
109.62054133,141.24728901,-9.78624379,130.60578267,-169.37146054,-114.90594535
-2.45335070,-10.51087331,-2.97415133,2.63546435,0.54680138,-2.42657395

>  <Name>
1uud_lig

>  <RI>
0

>  <Rbt.Current_Directory>
/home/itssahil/PROJECTS/Mol_Feturizer/New_Systems/rnas/1uud

>  <Rbt.Executable>
rbdock ($Id: //depot/dev/client3/rdock/2013.1/src/exe/rbdock.cxx#4 $)

>  <Rbt.Library>
libRbt.so (2013.1, Build901 2013/11/27)

>  <Rbt.Parameter_File>
/export/apps/rDock/src/rDock_2013.1_src/data/scripts/dock_solv.prm

>  <Rbt.Receptor>
prm/pocket_docking_3.prm

>  <SCORE>
-25.1263

>  <SCORE.INTER>
-21.2824

>  <SCORE.INTER.CONST>
1

>  <SCORE.INTER.POLAR>
-4.44028

>  <SCORE.INTER.ROT>
18

>  <SCORE.INTER.SOLV>
12.209

>  <SCORE.INTER.VDW>
-19.057

>  <SCORE.INTER.norm>
-0.851296

>  <SCORE.INTRA>
-4.15592

>  <SCORE.INTRA.DIHEDRAL>
-0.313413

>  <SCORE.INTRA.DIHEDRAL.0>
30.6762

>  <SCORE.INTRA.POLAR>
0.0288659

>  <SCORE.INTRA.POLAR.0>
-0.0288659

>  <SCORE.INTRA.REPUL>
0

>  <SCORE.INTRA.REPUL.0>
0

>  <SCORE.INTRA.SOLV>
1.53877

>  <SCORE.INTRA.SOLV.lig_0>
-25.2195

>  <SCORE.INTRA.VDW>
-4.86674

>  <SCORE.INTRA.VDW.0>
4.14263

>  <SCORE.INTRA.norm>
-0.166237

>  <SCORE.RESTR>
0.312017

>  <SCORE.RESTR.CAVITY>
0.312017

>  <SCORE.RESTR.norm>
0.0124807

>  <SCORE.SYSTEM>
0

>  <SCORE.SYSTEM.CONST>
0

>  <SCORE.SYSTEM.DIHEDRAL>
0

>  <SCORE.SYSTEM.SOLV>
0

>  <SCORE.SYSTEM.norm>
0

>  <SCORE.heavy>
25

>  <SCORE.norm>
-1.00505

>  <RMSD>
4.291

$$$$
1uud_lig
 OpenBabel11021811413D
libRbt.so/2013.1/901 2013/11/27
 25 25  0  0  0  0  0  0  0  0999 V2000
   -3.6461   -7.9983   -2.5638 C   0  0  0  0  0  0  0  0  0  0  0  0
   -5.8363   -9.8211   -1.8687 O   0  0  0  0  0  0  0  0  0  0  0  0
   -6.8126   -8.7871   -2.0632 C   0  0  0  0  0  0  0  0  0  0  0  0
   -2.1907   -8.0538   -2.2794 N   0  0  0  0  0  0  0  0  0  0  0  0
   -7.9030   -9.2640   -3.0321 C   0  0  0  0  0  0  0  0  0  0  0  0
   -1.7152   -6.7226   -1.8336 C   0  0  0  0  0  0  0  0  0  0  0  0
   -0.2833   -6.8425   -1.2980 C   0  0  0  0  0  0  0  0  0  0  0  0
   -8.0989   -8.3614   -3.9636 N   0  0  0  0  0  0  0  0  0  0  0  0
   -7.8459   -8.6146   -5.2339 C   0  0  0  0  0  0  0  0  0  0  0  0
   -0.2897   -7.5779    0.0465 C   0  0  0  0  0  0  0  0  0  0  0  0
    0.7213   -8.7275    0.0057 C   0  0  0  0  0  0  0  0  0  0  0  0
   -8.7482   -9.2704   -6.0254 N   0  0  0  0  0  0  0  0  0  0  0  0
   -6.6621   -8.2160   -5.7668 N   0  0  0  0  0  0  0  0  0  0  0  0
    0.5257   -9.5290    1.0258 N   0  0  0  0  0  0  0  0  0  0  0  0
    0.7156  -10.8308    0.9259 C   0  0  0  0  0  0  0  0  0  0  0  0
    1.8469  -11.3765    1.4414 N   0  0  0  0  0  0  0  0  0  0  0  0
   -0.1944  -11.6403    0.3072 N   0  0  0  0  0  0  0  0  0  0  0  0
   -5.1138  -10.0513   -3.0851 C   0  0  0  0  0  0  0  0  0  0  0  0
   -3.0030  -10.7293   -6.7368 O   0  0  0  0  0  0  0  0  0  0  0  0
   -4.0463   -9.1866   -3.4628 C   0  0  0  0  0  0  0  0  0  0  0  0
   -3.3517   -9.4094   -4.6818 C   0  0  0  0  0  0  0  0  0  0  0  0
   -3.7065  -10.5048   -5.5123 C   0  0  0  0  0  0  0  0  0  0  0  0
   -4.7580  -11.3792   -5.1269 C   0  0  0  0  0  0  0  0  0  0  0  0
   -5.4580  -11.1580   -3.9100 C   0  0  0  0  0  0  0  0  0  0  0  0
   -2.2849  -11.9640   -6.6574 C   0  0  0  0  0  0  0  0  0  0  0  0
  1  4  1  0  0  0  0
  2  3  1  0  0  0  0
  3  5  1  0  0  0  0
  4  6  1  0  0  0  0
  5  8  1  0  0  0  0
  6  7  1  0  0  0  0
  7 10  1  0  0  0  0
  8  9  1  0  0  0  0
  9 12  1  0  0  0  0
  9 13  1  0  0  0  0
 10 11  1  0  0  0  0
 11 14  1  0  0  0  0
 14 15  1  0  0  0  0
 15 16  1  0  0  0  0
 15 17  1  0  0  0  0
 18  2  1  0  0  0  0
 18 20  2  0  0  0  0
 18 24  1  0  0  0  0
 19 25  1  0  0  0  0
 20  1  1  0  0  0  0
 20 21  1  0  0  0  0
 21 22  2  0  0  0  0
 22 19  1  0  0  0  0
 22 23  1  0  0  0  0
 23 24  2  0  0  0  0
M  END
>  <CHROM.1>
160.69284047,66.88276926,-130.74668300,169.67757737,116.14049459,-71.43358525
128.53232062,82.59205486,3.53623944,75.49320437,-166.62041971,145.41764722
102.54590542,174.86217778,-128.61964360,80.26522182,127.17692162,114.67660081
-3.50115951,-9.44444928,-2.83185519,0.49653333,-0.39514399,0.99757305

>  <Name>
1uud_lig

>  <RI>
0

>  <Rbt.Current_Directory>
/home/itssahil/PROJECTS/Mol_Feturizer/New_Systems/rnas/1uud

>  <Rbt.Executable>
rbdock ($Id: //depot/dev/client3/rdock/2013.1/src/exe/rbdock.cxx#4 $)

>  <Rbt.Library>
libRbt.so (2013.1, Build901 2013/11/27)

>  <Rbt.Parameter_File>
/export/apps/rDock/src/rDock_2013.1_src/data/scripts/dock_solv.prm

>  <Rbt.Receptor>
prm/pocket_docking_8.prm

>  <SCORE>
-35.8568

>  <SCORE.INTER>
-30.5071

>  <SCORE.INTER.CONST>
1

>  <SCORE.INTER.POLAR>
-5.05881

>  <SCORE.INTER.ROT>
18

>  <SCORE.INTER.SOLV>
13.0519

>  <SCORE.INTER.VDW>
-23.426

>  <SCORE.INTER.norm>
-1.22028

>  <SCORE.INTRA>
-5.34967

>  <SCORE.INTRA.DIHEDRAL>
1.62611

>  <SCORE.INTRA.DIHEDRAL.0>
30.6762

>  <SCORE.INTRA.POLAR>
0.0288659

>  <SCORE.INTRA.POLAR.0>
-0.0288659

>  <SCORE.INTRA.REPUL>
0

>  <SCORE.INTRA.REPUL.0>
0

>  <SCORE.INTRA.SOLV>
-0.19206

>  <SCORE.INTRA.SOLV.lig_0>
-25.2195

>  <SCORE.INTRA.VDW>
-6.16483

>  <SCORE.INTRA.VDW.0>
4.14263

>  <SCORE.INTRA.norm>
-0.213987

>  <SCORE.RESTR>
0

>  <SCORE.RESTR.CAVITY>
0

>  <SCORE.RESTR.norm>
0

>  <SCORE.SYSTEM>
0

>  <SCORE.SYSTEM.CONST>
0

>  <SCORE.SYSTEM.DIHEDRAL>
0

>  <SCORE.SYSTEM.SOLV>
0

>  <SCORE.SYSTEM.norm>
0

>  <SCORE.heavy>
25

>  <SCORE.norm>
-1.43427

>  <RMSD>
4.299

$$$$
1uud_lig
 OpenBabel11021811413D
libRbt.so/2013.1/901 2013/11/27
 25 25  0  0  0  0  0  0  0  0999 V2000
   -0.7086  -11.0477   -5.1155 C   0  0  0  0  0  0  0  0  0  0  0  0
   -0.0219  -12.1184   -7.7583 O   0  0  0  0  0  0  0  0  0  0  0  0
    0.2262  -13.5204   -7.5771 C   0  0  0  0  0  0  0  0  0  0  0  0
   -1.3641  -10.9434   -3.7883 N   0  0  0  0  0  0  0  0  0  0  0  0
    0.2280  -13.8689   -6.0825 C   0  0  0  0  0  0  0  0  0  0  0  0
   -1.6229   -9.5199   -3.4666 C   0  0  0  0  0  0  0  0  0  0  0  0
   -0.8491   -9.1313   -2.2009 C   0  0  0  0  0  0  0  0  0  0  0  0
    0.4430  -15.1531   -5.9234 N   0  0  0  0  0  0  0  0  0  0  0  0
   -0.5509  -16.0011   -5.7360 C   0  0  0  0  0  0  0  0  0  0  0  0
   -1.4037   -9.8975   -0.9951 C   0  0  0  0  0  0  0  0  0  0  0  0
   -0.3873   -9.8551    0.1496 C   0  0  0  0  0  0  0  0  0  0  0  0
   -1.3477  -16.4081   -6.7705 N   0  0  0  0  0  0  0  0  0  0  0  0
   -0.7885  -16.4791   -4.4873 N   0  0  0  0  0  0  0  0  0  0  0  0
   -1.0077   -9.6600    1.2891 N   0  0  0  0  0  0  0  0  0  0  0  0
   -1.6815  -10.6271    1.8815 C   0  0  0  0  0  0  0  0  0  0  0  0
   -1.0007  -11.6326    2.4890 N   0  0  0  0  0  0  0  0  0  0  0  0
   -3.0475  -10.6457    1.8890 N   0  0  0  0  0  0  0  0  0  0  0  0
   -1.3953  -11.8208   -7.4758 C   0  0  0  0  0  0  0  0  0  0  0  0
   -5.5000  -10.9828   -6.6398 O   0  0  0  0  0  0  0  0  0  0  0  0
   -1.7726  -11.3042   -6.2028 C   0  0  0  0  0  0  0  0  0  0  0  0
   -3.1394  -11.0344   -5.9247 C   0  0  0  0  0  0  0  0  0  0  0  0
   -4.1256  -11.2590   -6.9209 C   0  0  0  0  0  0  0  0  0  0  0  0
   -3.7478  -11.7558   -8.1974 C   0  0  0  0  0  0  0  0  0  0  0  0
   -2.3820  -12.0304   -8.4789 C   0  0  0  0  0  0  0  0  0  0  0  0
   -5.5981  -10.2143   -5.4371 C   0  0  0  0  0  0  0  0  0  0  0  0
  1  4  1  0  0  0  0
  2  3  1  0  0  0  0
  3  5  1  0  0  0  0
  4  6  1  0  0  0  0
  5  8  1  0  0  0  0
  6  7  1  0  0  0  0
  7 10  1  0  0  0  0
  8  9  1  0  0  0  0
  9 12  1  0  0  0  0
  9 13  1  0  0  0  0
 10 11  1  0  0  0  0
 11 14  1  0  0  0  0
 14 15  1  0  0  0  0
 15 16  1  0  0  0  0
 15 17  1  0  0  0  0
 18  2  1  0  0  0  0
 18 20  2  0  0  0  0
 18 24  1  0  0  0  0
 19 25  1  0  0  0  0
 20  1  1  0  0  0  0
 20 21  1  0  0  0  0
 21 22  2  0  0  0  0
 22 19  1  0  0  0  0
 22 23  1  0  0  0  0
 23 24  2  0  0  0  0
M  END
>  <CHROM.1>
-95.05164369,-72.69762444,179.42538528,-118.25295104,-97.53648724,-66.03675476
162.47912099,76.55213526,38.29236659,-24.73199161,138.76370930,75.48639721
73.33041666,-23.61150834,-128.64098687,98.05753601,-161.76176186,13.30488230
-1.69204133,-11.91489270,-4.20048931,1.59828507,0.90781810,-1.95482393

>  <Name>
1uud_lig

>  <RI>
0

>  <Rbt.Current_Directory>
/home/itssahil/PROJECTS/Mol_Feturizer/New_Systems/rnas/1uud

>  <Rbt.Executable>
rbdock ($Id: //depot/dev/client3/rdock/2013.1/src/exe/rbdock.cxx#4 $)

>  <Rbt.Library>
libRbt.so (2013.1, Build901 2013/11/27)

>  <Rbt.Parameter_File>
/export/apps/rDock/src/rDock_2013.1_src/data/scripts/dock_solv.prm

>  <Rbt.Receptor>
prm/pocket_docking_5.prm

>  <SCORE>
-28.438

>  <SCORE.INTER>
-29.1809

>  <SCORE.INTER.CONST>
1

>  <SCORE.INTER.POLAR>
-5.74203

>  <SCORE.INTER.ROT>
18

>  <SCORE.INTER.SOLV>
10.9893

>  <SCORE.INTER.VDW>
-19.5769

>  <SCORE.INTER.norm>
-1.16724

>  <SCORE.INTRA>
0.713359

>  <SCORE.INTRA.DIHEDRAL>
-3.12238

>  <SCORE.INTRA.DIHEDRAL.0>
30.6762

>  <SCORE.INTRA.POLAR>
0.0288659

>  <SCORE.INTRA.POLAR.0>
-0.0288659

>  <SCORE.INTRA.REPUL>
0

>  <SCORE.INTRA.REPUL.0>
0

>  <SCORE.INTRA.SOLV>
-1.02611

>  <SCORE.INTRA.SOLV.lig_0>
-25.2195

>  <SCORE.INTRA.VDW>
2.68946

>  <SCORE.INTRA.VDW.0>
4.14263

>  <SCORE.INTRA.norm>
0.0285343

>  <SCORE.RESTR>
0.0295338

>  <SCORE.RESTR.CAVITY>
0.0295338

>  <SCORE.RESTR.norm>
0.00118135

>  <SCORE.SYSTEM>
0

>  <SCORE.SYSTEM.CONST>
0

>  <SCORE.SYSTEM.DIHEDRAL>
0

>  <SCORE.SYSTEM.SOLV>
0

>  <SCORE.SYSTEM.norm>
0

>  <SCORE.heavy>
25

>  <SCORE.norm>
-1.13752

>  <RMSD>
4.455

$$$$
1uud_lig
 OpenBabel11021811413D
libRbt.so/2013.1/901 2013/11/27
 25 25  0  0  0  0  0  0  0  0999 V2000
   -3.2228   -8.5245   -2.3761 C   0  0  0  0  0  0  0  0  0  0  0  0
   -6.1255   -8.5298   -2.7965 O   0  0  0  0  0  0  0  0  0  0  0  0
   -5.8035   -7.1973   -3.2219 C   0  0  0  0  0  0  0  0  0  0  0  0
   -3.8138   -8.6540   -1.0211 N   0  0  0  0  0  0  0  0  0  0  0  0
   -6.0475   -7.0494   -4.7298 C   0  0  0  0  0  0  0  0  0  0  0  0
   -3.0155   -7.8710   -0.0483 C   0  0  0  0  0  0  0  0  0  0  0  0
   -3.0011   -8.5947    1.3037 C   0  0  0  0  0  0  0  0  0  0  0  0
   -7.3360   -6.9990   -4.9710 N   0  0  0  0  0  0  0  0  0  0  0  0
   -8.0837   -8.0865   -4.9568 C   0  0  0  0  0  0  0  0  0  0  0  0
   -2.1288   -9.8515    1.2129 C   0  0  0  0  0  0  0  0  0  0  0  0
   -0.6554   -9.4456    1.1144 C   0  0  0  0  0  0  0  0  0  0  0  0
   -8.0899   -8.9632   -6.0065 N   0  0  0  0  0  0  0  0  0  0  0  0
   -8.8657   -8.3397   -3.8758 N   0  0  0  0  0  0  0  0  0  0  0  0
    0.1037  -10.5154    1.1381 N   0  0  0  0  0  0  0  0  0  0  0  0
    1.3285  -10.5025    0.6480 C   0  0  0  0  0  0  0  0  0  0  0  0
    2.2555  -11.3525    1.1596 N   0  0  0  0  0  0  0  0  0  0  0  0
    1.6880   -9.6473   -0.3547 N   0  0  0  0  0  0  0  0  0  0  0  0
   -5.3282   -9.4816   -3.5127 C   0  0  0  0  0  0  0  0  0  0  0  0
   -2.9663  -12.2970   -5.6910 O   0  0  0  0  0  0  0  0  0  0  0  0
   -3.9140   -9.5095   -3.3416 C   0  0  0  0  0  0  0  0  0  0  0  0
   -3.1303  -10.4412   -4.0737 C   0  0  0  0  0  0  0  0  0  0  0  0
   -3.7571  -11.3576   -4.9585 C   0  0  0  0  0  0  0  0  0  0  0  0
   -5.1692  -11.3435   -5.1151 C   0  0  0  0  0  0  0  0  0  0  0  0
   -5.9570  -10.4107   -4.3874 C   0  0  0  0  0  0  0  0  0  0  0  0
   -3.0897  -12.0376   -7.0924 C   0  0  0  0  0  0  0  0  0  0  0  0
  1  4  1  0  0  0  0
  2  3  1  0  0  0  0
  3  5  1  0  0  0  0
  4  6  1  0  0  0  0
  5  8  1  0  0  0  0
  6  7  1  0  0  0  0
  7 10  1  0  0  0  0
  8  9  1  0  0  0  0
  9 12  1  0  0  0  0
  9 13  1  0  0  0  0
 10 11  1  0  0  0  0
 11 14  1  0  0  0  0
 14 15  1  0  0  0  0
 15 16  1  0  0  0  0
 15 17  1  0  0  0  0
 18  2  1  0  0  0  0
 18 20  2  0  0  0  0
 18 24  1  0  0  0  0
 19 25  1  0  0  0  0
 20  1  1  0  0  0  0
 20 21  1  0  0  0  0
 21 22  2  0  0  0  0
 22 19  1  0  0  0  0
 22 23  1  0  0  0  0
 23 24  2  0  0  0  0
M  END
>  <CHROM.1>
171.11098079,58.77391711,73.69828450,-145.31961986,-77.17513700,71.63289303
71.15120580,-77.90748776,-49.68106226,-44.76679618,175.25919232,157.74940158
152.04150454,77.54576527,-15.26648064,65.00629149,55.88062453,-116.50487951
-3.74780583,-9.47478475,-2.61144708,0.46574086,-0.51468177,1.02202463

>  <Name>
1uud_lig

>  <RI>
0

>  <Rbt.Current_Directory>
/home/itssahil/PROJECTS/Mol_Feturizer/New_Systems/rnas/1uud

>  <Rbt.Executable>
rbdock ($Id: //depot/dev/client3/rdock/2013.1/src/exe/rbdock.cxx#4 $)

>  <Rbt.Library>
libRbt.so (2013.1, Build901 2013/11/27)

>  <Rbt.Parameter_File>
/export/apps/rDock/src/rDock_2013.1_src/data/scripts/dock_solv.prm

>  <Rbt.Receptor>
prm/pocket_docking_2.prm

>  <SCORE>
-31.8339

>  <SCORE.INTER>
-25.9298

>  <SCORE.INTER.CONST>
1

>  <SCORE.INTER.POLAR>
-4.46959

>  <SCORE.INTER.ROT>
18

>  <SCORE.INTER.SOLV>
12.0118

>  <SCORE.INTER.VDW>
-21.9918

>  <SCORE.INTER.norm>
-1.03719

>  <SCORE.INTRA>
-6.60167

>  <SCORE.INTRA.DIHEDRAL>
-8.43789

>  <SCORE.INTRA.DIHEDRAL.0>
30.6762

>  <SCORE.INTRA.POLAR>
-0.198424

>  <SCORE.INTRA.POLAR.0>
-0.0288659

>  <SCORE.INTRA.REPUL>
0

>  <SCORE.INTRA.REPUL.0>
0

>  <SCORE.INTRA.SOLV>
0.723223

>  <SCORE.INTRA.SOLV.lig_0>
-25.2195

>  <SCORE.INTRA.VDW>
-2.0697

>  <SCORE.INTRA.VDW.0>
4.14263

>  <SCORE.INTRA.norm>
-0.264067

>  <SCORE.RESTR>
0.697577

>  <SCORE.RESTR.CAVITY>
0.697577

>  <SCORE.RESTR.norm>
0.0279031

>  <SCORE.SYSTEM>
0

>  <SCORE.SYSTEM.CONST>
0

>  <SCORE.SYSTEM.DIHEDRAL>
0

>  <SCORE.SYSTEM.SOLV>
0

>  <SCORE.SYSTEM.norm>
0

>  <SCORE.heavy>
25

>  <SCORE.norm>
-1.27336

>  <RMSD>
4.498

$$$$
1uud_lig
 OpenBabel11021811413D
libRbt.so/2013.1/901 2013/11/27
 25 25  0  0  0  0  0  0  0  0999 V2000
   -4.4623   -7.8415   -1.7307 C   0  0  0  0  0  0  0  0  0  0  0  0
   -6.3616   -5.7095   -2.4012 O   0  0  0  0  0  0  0  0  0  0  0  0
   -7.7523   -5.3626   -2.4790 C   0  0  0  0  0  0  0  0  0  0  0  0
   -3.6669   -6.6202   -1.4517 N   0  0  0  0  0  0  0  0  0  0  0  0
   -8.6196   -6.5513   -2.0431 C   0  0  0  0  0  0  0  0  0  0  0  0
   -2.6515   -6.4288   -2.5142 C   0  0  0  0  0  0  0  0  0  0  0  0
   -1.2675   -6.8114   -1.9759 C   0  0  0  0  0  0  0  0  0  0  0  0
   -8.8775   -7.3185   -3.0755 N   0  0  0  0  0  0  0  0  0  0  0  0
   -8.5135   -8.5869   -3.1006 C   0  0  0  0  0  0  0  0  0  0  0  0
   -1.1692   -8.3334   -1.8259 C   0  0  0  0  0  0  0  0  0  0  0  0
   -1.2824   -8.7101   -0.3458 C   0  0  0  0  0  0  0  0  0  0  0  0
   -8.7602   -9.3799   -4.1873 N   0  0  0  0  0  0  0  0  0  0  0  0
   -7.8809   -9.1169   -2.0222 N   0  0  0  0  0  0  0  0  0  0  0  0
   -1.0586   -9.9940   -0.1946 N   0  0  0  0  0  0  0  0  0  0  0  0
   -1.6096  -10.6785    0.7895 C   0  0  0  0  0  0  0  0  0  0  0  0
   -0.8163  -11.4152    1.6089 N   0  0  0  0  0  0  0  0  0  0  0  0
   -2.9599  -10.6714    0.9965 N   0  0  0  0  0  0  0  0  0  0  0  0
   -6.0393   -6.6801   -3.4054 C   0  0  0  0  0  0  0  0  0  0  0  0
   -5.0590   -9.5364   -6.4272 O   0  0  0  0  0  0  0  0  0  0  0  0
   -5.1175   -7.7291   -3.1229 C   0  0  0  0  0  0  0  0  0  0  0  0
   -4.7869   -8.6725   -4.1324 C   0  0  0  0  0  0  0  0  0  0  0  0
   -5.3903   -8.5831   -5.4143 C   0  0  0  0  0  0  0  0  0  0  0  0
   -6.3246   -7.5488   -5.6909 C   0  0  0  0  0  0  0  0  0  0  0  0
   -6.6556   -6.6007   -4.6851 C   0  0  0  0  0  0  0  0  0  0  0  0
   -4.8926  -10.8275   -5.8341 C   0  0  0  0  0  0  0  0  0  0  0  0
  1  4  1  0  0  0  0
  2  3  1  0  0  0  0
  3  5  1  0  0  0  0
  4  6  1  0  0  0  0
  5  8  1  0  0  0  0
  6  7  1  0  0  0  0
  7 10  1  0  0  0  0
  8  9  1  0  0  0  0
  9 12  1  0  0  0  0
  9 13  1  0  0  0  0
 10 11  1  0  0  0  0
 11 14  1  0  0  0  0
 14 15  1  0  0  0  0
 15 16  1  0  0  0  0
 15 17  1  0  0  0  0
 18  2  1  0  0  0  0
 18 20  2  0  0  0  0
 18 24  1  0  0  0  0
 19 25  1  0  0  0  0
 20  1  1  0  0  0  0
 20 21  1  0  0  0  0
 21 22  2  0  0  0  0
 22 19  1  0  0  0  0
 22 23  1  0  0  0  0
 23 24  2  0  0  0  0
M  END
>  <CHROM.1>
-57.21202363,68.92855210,-88.33754578,-105.10604588,120.35528293,72.38511127
-104.39444002,-178.74433787,149.29497764,67.39819781,-173.38702597,-151.07921723
-126.74717473,-91.84887618,-126.32509699,-142.38003193,-61.02496939,37.48658996
-4.86684394,-8.27456699,-2.53122765,0.36794987,-0.52258197,1.12769398

>  <Name>
1uud_lig

>  <RI>
0

>  <Rbt.Current_Directory>
/home/itssahil/PROJECTS/Mol_Feturizer/New_Systems/rnas/1uud

>  <Rbt.Executable>
rbdock ($Id: //depot/dev/client3/rdock/2013.1/src/exe/rbdock.cxx#4 $)

>  <Rbt.Library>
libRbt.so (2013.1, Build901 2013/11/27)

>  <Rbt.Parameter_File>
/export/apps/rDock/src/rDock_2013.1_src/data/scripts/dock_solv.prm

>  <Rbt.Receptor>
prm/pocket_docking_3.prm

>  <SCORE>
-20.3954

>  <SCORE.INTER>
-17.4951

>  <SCORE.INTER.CONST>
1

>  <SCORE.INTER.POLAR>
-4.51878

>  <SCORE.INTER.ROT>
18

>  <SCORE.INTER.SOLV>
9.89934

>  <SCORE.INTER.VDW>
-15.5006

>  <SCORE.INTER.norm>
-0.699805

>  <SCORE.INTRA>
-3.06972

>  <SCORE.INTRA.DIHEDRAL>
-4.8939

>  <SCORE.INTRA.DIHEDRAL.0>
30.6762

>  <SCORE.INTRA.POLAR>
-0.267447

>  <SCORE.INTRA.POLAR.0>
-0.0288659

>  <SCORE.INTRA.REPUL>
0

>  <SCORE.INTRA.REPUL.0>
0

>  <SCORE.INTRA.SOLV>
1.52033

>  <SCORE.INTRA.SOLV.lig_0>
-25.2195

>  <SCORE.INTRA.VDW>
-0.473615

>  <SCORE.INTRA.VDW.0>
4.14263

>  <SCORE.INTRA.norm>
-0.122789

>  <SCORE.RESTR>
0.169491

>  <SCORE.RESTR.CAVITY>
0.169491

>  <SCORE.RESTR.norm>
0.00677965

>  <SCORE.SYSTEM>
0

>  <SCORE.SYSTEM.CONST>
0

>  <SCORE.SYSTEM.DIHEDRAL>
0

>  <SCORE.SYSTEM.SOLV>
0

>  <SCORE.SYSTEM.norm>
0

>  <SCORE.heavy>
25

>  <SCORE.norm>
-0.815814

>  <RMSD>
4.570

$$$$
1uud_lig
 OpenBabel11021811413D
libRbt.so/2013.1/901 2013/11/27
 25 25  0  0  0  0  0  0  0  0999 V2000
   -3.8049  -11.7427   -4.5436 C   0  0  0  0  0  0  0  0  0  0  0  0
   -4.2927  -11.8602   -7.4334 O   0  0  0  0  0  0  0  0  0  0  0  0
   -4.1548  -12.7072   -8.5839 C   0  0  0  0  0  0  0  0  0  0  0  0
   -4.4930  -10.5172   -4.0673 N   0  0  0  0  0  0  0  0  0  0  0  0
   -3.7911  -14.1338   -8.1505 C   0  0  0  0  0  0  0  0  0  0  0  0
   -4.3833  -10.4208   -2.5924 C   0  0  0  0  0  0  0  0  0  0  0  0
   -2.9783   -9.9373   -2.2132 C   0  0  0  0  0  0  0  0  0  0  0  0
   -2.4870  -14.2670   -8.1013 N   0  0  0  0  0  0  0  0  0  0  0  0
   -1.8610  -14.5138   -6.9659 C   0  0  0  0  0  0  0  0  0  0  0  0
   -2.9795   -9.4088   -0.7746 C   0  0  0  0  0  0  0  0  0  0  0  0
   -2.9916  -10.5872    0.2033 C   0  0  0  0  0  0  0  0  0  0  0  0
   -2.5426  -14.6412   -5.7869 N   0  0  0  0  0  0  0  0  0  0  0  0
   -0.5091  -14.6429   -6.9683 N   0  0  0  0  0  0  0  0  0  0  0  0
   -2.5012  -10.2107    1.3605 N   0  0  0  0  0  0  0  0  0  0  0  0
   -1.2985  -10.5838    1.7537 C   0  0  0  0  0  0  0  0  0  0  0  0
   -1.1293  -11.8228    2.2827 N   0  0  0  0  0  0  0  0  0  0  0  0
   -0.2220   -9.7491    1.6506 N   0  0  0  0  0  0  0  0  0  0  0  0
   -3.0018  -11.4403   -6.9734 C   0  0  0  0  0  0  0  0  0  0  0  0
    0.8386  -10.1437   -5.6239 O   0  0  0  0  0  0  0  0  0  0  0  0
   -2.7246  -11.3642   -5.5779 C   0  0  0  0  0  0  0  0  0  0  0  0
   -1.4494  -10.9246   -5.1320 C   0  0  0  0  0  0  0  0  0  0  0  0
   -0.4454  -10.5819   -6.0754 C   0  0  0  0  0  0  0  0  0  0  0  0
   -0.7145  -10.6762   -7.4674 C   0  0  0  0  0  0  0  0  0  0  0  0
   -1.9900  -11.1121   -7.9181 C   0  0  0  0  0  0  0  0  0  0  0  0
    0.7455   -8.7978   -5.1481 C   0  0  0  0  0  0  0  0  0  0  0  0
  1  4  1  0  0  0  0
  2  3  1  0  0  0  0
  3  5  1  0  0  0  0
  4  6  1  0  0  0  0
  5  8  1  0  0  0  0
  6  7  1  0  0  0  0
  7 10  1  0  0  0  0
  8  9  1  0  0  0  0
  9 12  1  0  0  0  0
  9 13  1  0  0  0  0
 10 11  1  0  0  0  0
 11 14  1  0  0  0  0
 14 15  1  0  0  0  0
 15 16  1  0  0  0  0
 15 17  1  0  0  0  0
 18  2  1  0  0  0  0
 18 20  2  0  0  0  0
 18 24  1  0  0  0  0
 19 25  1  0  0  0  0
 20  1  1  0  0  0  0
 20 21  1  0  0  0  0
 21 22  2  0  0  0  0
 22 19  1  0  0  0  0
 22 23  1  0  0  0  0
 23 24  2  0  0  0  0
M  END
>  <CHROM.1>
-123.20913640,80.18583389,-90.51506230,77.07342542,115.97967660,161.96923467
76.59084428,-0.05243189,53.55376871,128.47266635,156.51661654,-106.17333137
-80.20862278,101.77662368,-128.29085131,-140.38524439,-96.87510488,-75.29964118
-2.19316705,-11.48725447,-4.28174229,1.65747254,-0.51616334,-1.82674053

>  <Name>
1uud_lig

>  <RI>
0

>  <Rbt.Current_Directory>
/home/itssahil/PROJECTS/Mol_Feturizer/New_Systems/rnas/1uud

>  <Rbt.Executable>
rbdock ($Id: //depot/dev/client3/rdock/2013.1/src/exe/rbdock.cxx#4 $)

>  <Rbt.Library>
libRbt.so (2013.1, Build901 2013/11/27)

>  <Rbt.Parameter_File>
/export/apps/rDock/src/rDock_2013.1_src/data/scripts/dock_solv.prm

>  <Rbt.Receptor>
prm/pocket_docking_6.prm

>  <SCORE>
-21.3482

>  <SCORE.INTER>
-16.6446

>  <SCORE.INTER.CONST>
1

>  <SCORE.INTER.POLAR>
-3.85378

>  <SCORE.INTER.ROT>
18

>  <SCORE.INTER.SOLV>
9.45555

>  <SCORE.INTER.VDW>
-17.0023

>  <SCORE.INTER.norm>
-0.665786

>  <SCORE.INTRA>
-4.70359

>  <SCORE.INTRA.DIHEDRAL>
-0.98306

>  <SCORE.INTRA.DIHEDRAL.0>
30.6762

>  <SCORE.INTRA.POLAR>
0.0288659

>  <SCORE.INTRA.POLAR.0>
-0.0288659

>  <SCORE.INTRA.REPUL>
0

>  <SCORE.INTRA.REPUL.0>
0

>  <SCORE.INTRA.SOLV>
0.633333

>  <SCORE.INTRA.SOLV.lig_0>
-25.2195

>  <SCORE.INTRA.VDW>
-4.62687

>  <SCORE.INTRA.VDW.0>
4.14263

>  <SCORE.INTRA.norm>
-0.188144

>  <SCORE.RESTR>
0

>  <SCORE.RESTR.CAVITY>
0

>  <SCORE.RESTR.norm>
0

>  <SCORE.SYSTEM>
0

>  <SCORE.SYSTEM.CONST>
0

>  <SCORE.SYSTEM.DIHEDRAL>
0

>  <SCORE.SYSTEM.SOLV>
0

>  <SCORE.SYSTEM.norm>
0

>  <SCORE.heavy>
25

>  <SCORE.norm>
-0.853929

>  <RMSD>
4.709

$$$$
1uud_lig
 OpenBabel11021811413D
libRbt.so/2013.1/901 2013/11/27
 25 25  0  0  0  0  0  0  0  0999 V2000
   -1.9096   -8.8649   -3.8902 C   0  0  0  0  0  0  0  0  0  0  0  0
   -3.8859  -11.0317   -3.9343 O   0  0  0  0  0  0  0  0  0  0  0  0
   -4.9243  -10.0954   -3.6098 C   0  0  0  0  0  0  0  0  0  0  0  0
   -0.4415   -8.6530   -3.8471 N   0  0  0  0  0  0  0  0  0  0  0  0
   -6.0297  -10.1412   -4.6734 C   0  0  0  0  0  0  0  0  0  0  0  0
   -0.1223   -7.5346   -2.9284 C   0  0  0  0  0  0  0  0  0  0  0  0
    0.0653   -8.0768   -1.5063 C   0  0  0  0  0  0  0  0  0  0  0  0
   -7.2054  -10.1933   -4.0939 N   0  0  0  0  0  0  0  0  0  0  0  0
   -8.1556   -9.3236   -4.3815 C   0  0  0  0  0  0  0  0  0  0  0  0
    1.4948   -8.6013   -1.3328 C   0  0  0  0  0  0  0  0  0  0  0  0
    1.7179   -9.0055    0.1273 C   0  0  0  0  0  0  0  0  0  0  0  0
   -8.5976   -8.4165   -3.4582 N   0  0  0  0  0  0  0  0  0  0  0  0
   -8.7077   -9.3307   -5.6222 N   0  0  0  0  0  0  0  0  0  0  0  0
    1.0616  -10.1111    0.3886 N   0  0  0  0  0  0  0  0  0  0  0  0
    1.6310  -11.1168    1.0249 C   0  0  0  0  0  0  0  0  0  0  0  0
    0.9212  -11.7931    1.9643 N   0  0  0  0  0  0  0  0  0  0  0  0
    2.9207  -11.4866    0.7679 N   0  0  0  0  0  0  0  0  0  0  0  0
   -3.2523  -10.6576   -5.1644 C   0  0  0  0  0  0  0  0  0  0  0  0
   -1.4092   -9.5290   -8.8494 O   0  0  0  0  0  0  0  0  0  0  0  0
   -2.2905   -9.6067   -5.1881 C   0  0  0  0  0  0  0  0  0  0  0  0
   -1.6855   -9.2279   -6.4164 C   0  0  0  0  0  0  0  0  0  0  0  0
   -2.0227   -9.9096   -7.6152 C   0  0  0  0  0  0  0  0  0  0  0  0
   -2.9673  -10.9707   -7.5893 C   0  0  0  0  0  0  0  0  0  0  0  0
   -3.5777  -11.3507   -6.3633 C   0  0  0  0  0  0  0  0  0  0  0  0
   -0.8998  -10.6914   -9.5098 C   0  0  0  0  0  0  0  0  0  0  0  0
  1  4  1  0  0  0  0
  2  3  1  0  0  0  0
  3  5  1  0  0  0  0
  4  6  1  0  0  0  0
  5  8  1  0  0  0  0
  6  7  1  0  0  0  0
  7 10  1  0  0  0  0
  8  9  1  0  0  0  0
  9 12  1  0  0  0  0
  9 13  1  0  0  0  0
 10 11  1  0  0  0  0
 11 14  1  0  0  0  0
 14 15  1  0  0  0  0
 15 16  1  0  0  0  0
 15 17  1  0  0  0  0
 18  2  1  0  0  0  0
 18 20  2  0  0  0  0
 18 24  1  0  0  0  0
 19 25  1  0  0  0  0
 20  1  1  0  0  0  0
 20 21  1  0  0  0  0
 21 22  2  0  0  0  0
 22 19  1  0  0  0  0
 22 23  1  0  0  0  0
 23 24  2  0  0  0  0
M  END
>  <CHROM.1>
158.35047083,63.94957483,133.26810435,88.97899705,126.06793101,83.46029300
174.16030388,-113.37474242,-59.55360085,121.09026376,72.33061446,132.96258813
139.27933772,158.40118974,-150.26721385,78.43376250,137.85814328,130.30724412
-2.33678610,-9.83337002,-3.76173658,-0.67587862,0.03898474,-1.56229691

>  <Name>
1uud_lig

>  <RI>
0

>  <Rbt.Current_Directory>
/home/itssahil/PROJECTS/Mol_Feturizer/New_Systems/rnas/1uud

>  <Rbt.Executable>
rbdock ($Id: //depot/dev/client3/rdock/2013.1/src/exe/rbdock.cxx#4 $)

>  <Rbt.Library>
libRbt.so (2013.1, Build901 2013/11/27)

>  <Rbt.Parameter_File>
/export/apps/rDock/src/rDock_2013.1_src/data/scripts/dock_solv.prm

>  <Rbt.Receptor>
prm/pocket_docking_6.prm

>  <SCORE>
-33.6649

>  <SCORE.INTER>
-30.4754

>  <SCORE.INTER.CONST>
1

>  <SCORE.INTER.POLAR>
-4.50446

>  <SCORE.INTER.ROT>
18

>  <SCORE.INTER.SOLV>
13.0817

>  <SCORE.INTER.VDW>
-25.2627

>  <SCORE.INTER.norm>
-1.21902

>  <SCORE.INTRA>
-3.18947

>  <SCORE.INTRA.DIHEDRAL>
-2.76673

>  <SCORE.INTRA.DIHEDRAL.0>
30.6762

>  <SCORE.INTRA.POLAR>
0.0288659

>  <SCORE.INTRA.POLAR.0>
-0.0288659

>  <SCORE.INTRA.REPUL>
0

>  <SCORE.INTRA.REPUL.0>
0

>  <SCORE.INTRA.SOLV>
-1.24331

>  <SCORE.INTRA.SOLV.lig_0>
-25.2195

>  <SCORE.INTRA.VDW>
-1.28259

>  <SCORE.INTRA.VDW.0>
4.14263

>  <SCORE.INTRA.norm>
-0.127579

>  <SCORE.RESTR>
0

>  <SCORE.RESTR.CAVITY>
0

>  <SCORE.RESTR.norm>
0

>  <SCORE.SYSTEM>
0

>  <SCORE.SYSTEM.CONST>
0

>  <SCORE.SYSTEM.DIHEDRAL>
0

>  <SCORE.SYSTEM.SOLV>
0

>  <SCORE.SYSTEM.norm>
0

>  <SCORE.heavy>
25

>  <SCORE.norm>
-1.3466

>  <RMSD>
4.732

$$$$
1uud_lig
 OpenBabel11021811413D
libRbt.so/2013.1/901 2013/11/27
 25 25  0  0  0  0  0  0  0  0999 V2000
   -1.9586  -11.3453   -3.7879 C   0  0  0  0  0  0  0  0  0  0  0  0
   -3.1590   -8.8263   -4.6916 O   0  0  0  0  0  0  0  0  0  0  0  0
   -4.4521   -8.2218   -4.5413 C   0  0  0  0  0  0  0  0  0  0  0  0
   -2.8870  -10.9616   -2.6957 N   0  0  0  0  0  0  0  0  0  0  0  0
   -5.3673   -9.1294   -3.7083 C   0  0  0  0  0  0  0  0  0  0  0  0
   -2.1289  -10.7694   -1.4367 C   0  0  0  0  0  0  0  0  0  0  0  0
   -3.0992  -10.4181   -0.3023 C   0  0  0  0  0  0  0  0  0  0  0  0
   -6.5893   -8.6525   -3.7082 N   0  0  0  0  0  0  0  0  0  0  0  0
   -7.2909   -8.5517   -4.8216 C   0  0  0  0  0  0  0  0  0  0  0  0
   -2.3742   -9.5940    0.7672 C   0  0  0  0  0  0  0  0  0  0  0  0
   -1.4324  -10.5029    1.5623 C   0  0  0  0  0  0  0  0  0  0  0  0
   -7.4147   -9.6043   -5.6861 N   0  0  0  0  0  0  0  0  0  0  0  0
   -7.9025   -7.3755   -5.1160 N   0  0  0  0  0  0  0  0  0  0  0  0
   -0.2336   -9.9718    1.6075 N   0  0  0  0  0  0  0  0  0  0  0  0
    0.8218  -10.6115    1.1413 C   0  0  0  0  0  0  0  0  0  0  0  0
    1.8843   -9.8961    0.6909 N   0  0  0  0  0  0  0  0  0  0  0  0
    0.8662  -11.9760    1.0919 N   0  0  0  0  0  0  0  0  0  0  0  0
   -3.2479   -9.9729   -5.5471 C   0  0  0  0  0  0  0  0  0  0  0  0
   -3.4857  -13.3658   -8.1320 O   0  0  0  0  0  0  0  0  0  0  0  0
   -2.6737  -11.2145   -5.1487 C   0  0  0  0  0  0  0  0  0  0  0  0
   -2.7469  -12.3388   -6.0140 C   0  0  0  0  0  0  0  0  0  0  0  0
   -3.4099  -12.2315   -7.2648 C   0  0  0  0  0  0  0  0  0  0  0  0
   -3.9998  -10.9990   -7.6545 C   0  0  0  0  0  0  0  0  0  0  0  0
   -3.9259   -9.8706   -6.7935 C   0  0  0  0  0  0  0  0  0  0  0  0
   -2.2377  -13.5343   -8.8108 C   0  0  0  0  0  0  0  0  0  0  0  0
  1  4  1  0  0  0  0
  2  3  1  0  0  0  0
  3  5  1  0  0  0  0
  4  6  1  0  0  0  0
  5  8  1  0  0  0  0
  6  7  1  0  0  0  0
  7 10  1  0  0  0  0
  8  9  1  0  0  0  0
  9 12  1  0  0  0  0
  9 13  1  0  0  0  0
 10 11  1  0  0  0  0
 11 14  1  0  0  0  0
 14 15  1  0  0  0  0
 15 16  1  0  0  0  0
 15 17  1  0  0  0  0
 18  2  1  0  0  0  0
 18 20  2  0  0  0  0
 18 24  1  0  0  0  0
 19 25  1  0  0  0  0
 20  1  1  0  0  0  0
 20 21  1  0  0  0  0
 21 22  2  0  0  0  0
 22 19  1  0  0  0  0
 22 23  1  0  0  0  0
 23 24  2  0  0  0  0
M  END
>  <CHROM.1>
-166.44359214,69.78469546,-172.48223135,-178.16570835,62.97965179,-153.16043008
-73.30630767,49.83999892,149.75715983,76.26897142,129.22154845,-121.48981973
152.80407108,-94.29731162,-159.25171278,-130.58725387,56.92336266,-78.30659538
-3.13721716,-10.37951333,-3.49957193,-0.86490215,0.56143513,-1.98578668

>  <Name>
1uud_lig

>  <RI>
0

>  <Rbt.Current_Directory>
/home/itssahil/PROJECTS/Mol_Feturizer/New_Systems/rnas/1uud

>  <Rbt.Executable>
rbdock ($Id: //depot/dev/client3/rdock/2013.1/src/exe/rbdock.cxx#4 $)

>  <Rbt.Library>
libRbt.so (2013.1, Build901 2013/11/27)

>  <Rbt.Parameter_File>
/export/apps/rDock/src/rDock_2013.1_src/data/scripts/dock_solv.prm

>  <Rbt.Receptor>
prm/pocket_docking_3.prm

>  <SCORE>
-36.0598

>  <SCORE.INTER>
-31.5013

>  <SCORE.INTER.CONST>
1

>  <SCORE.INTER.POLAR>
-4.67962

>  <SCORE.INTER.ROT>
18

>  <SCORE.INTER.SOLV>
12.3313

>  <SCORE.INTER.VDW>
-25.1126

>  <SCORE.INTER.norm>
-1.26005

>  <SCORE.INTRA>
-4.55849

>  <SCORE.INTRA.DIHEDRAL>
-3.67937

>  <SCORE.INTRA.DIHEDRAL.0>
30.6762

>  <SCORE.INTRA.POLAR>
-0.179349

>  <SCORE.INTRA.POLAR.0>
-0.0288659

>  <SCORE.INTRA.REPUL>
0

>  <SCORE.INTRA.REPUL.0>
0

>  <SCORE.INTRA.SOLV>
-0.0732163

>  <SCORE.INTRA.SOLV.lig_0>
-25.2195

>  <SCORE.INTRA.VDW>
-2.07241

>  <SCORE.INTRA.VDW.0>
4.14263

>  <SCORE.INTRA.norm>
-0.18234

>  <SCORE.RESTR>
0

>  <SCORE.RESTR.CAVITY>
0

>  <SCORE.RESTR.norm>
0

>  <SCORE.SYSTEM>
0

>  <SCORE.SYSTEM.CONST>
0

>  <SCORE.SYSTEM.DIHEDRAL>
0

>  <SCORE.SYSTEM.SOLV>
0

>  <SCORE.SYSTEM.norm>
0

>  <SCORE.heavy>
25

>  <SCORE.norm>
-1.44239

>  <RMSD>
4.820

$$$$
1uud_lig
 OpenBabel11021811413D
libRbt.so/2013.1/901 2013/11/27
 25 25  0  0  0  0  0  0  0  0999 V2000
   -4.3882  -10.3141   -2.4617 C   0  0  0  0  0  0  0  0  0  0  0  0
   -3.9523   -8.2208   -4.4693 O   0  0  0  0  0  0  0  0  0  0  0  0
   -5.3436   -8.0974   -4.1387 C   0  0  0  0  0  0  0  0  0  0  0  0
   -3.3591   -9.5948   -1.6707 N   0  0  0  0  0  0  0  0  0  0  0  0
   -6.1862   -8.0119   -5.4185 C   0  0  0  0  0  0  0  0  0  0  0  0
   -3.6234   -9.7728   -0.2232 C   0  0  0  0  0  0  0  0  0  0  0  0
   -2.5083   -9.1018    0.5880 C   0  0  0  0  0  0  0  0  0  0  0  0
   -7.3477   -7.4630   -5.1528 N   0  0  0  0  0  0  0  0  0  0  0  0
   -8.2394   -8.0692   -4.3917 C   0  0  0  0  0  0  0  0  0  0  0  0
   -1.1541   -9.7193    0.2224 C   0  0  0  0  0  0  0  0  0  0  0  0
   -0.5901  -10.4690    1.4328 C   0  0  0  0  0  0  0  0  0  0  0  0
   -8.7775   -7.4557   -3.2941 N   0  0  0  0  0  0  0  0  0  0  0  0
   -8.6304   -9.3314   -4.7049 N   0  0  0  0  0  0  0  0  0  0  0  0
    0.3627  -11.2843    1.0473 N   0  0  0  0  0  0  0  0  0  0  0  0
    1.5960  -10.8592    0.8503 C   0  0  0  0  0  0  0  0  0  0  0  0
    2.6341  -11.5995    1.3169 N   0  0  0  0  0  0  0  0  0  0  0  0
    1.8520   -9.6870    0.1971 N   0  0  0  0  0  0  0  0  0  0  0  0
   -3.6473   -9.5774   -4.8173 C   0  0  0  0  0  0  0  0  0  0  0  0
   -2.6900  -13.6080   -5.8605 O   0  0  0  0  0  0  0  0  0  0  0  0
   -3.8396  -10.6241   -3.8699 C   0  0  0  0  0  0  0  0  0  0  0  0
   -3.5123  -11.9623   -4.2167 C   0  0  0  0  0  0  0  0  0  0  0  0
   -3.0147  -12.2596   -5.5126 C   0  0  0  0  0  0  0  0  0  0  0  0
   -2.8410  -11.2192   -6.4646 C   0  0  0  0  0  0  0  0  0  0  0  0
   -3.1637   -9.8784   -6.1208 C   0  0  0  0  0  0  0  0  0  0  0  0
   -3.3771  -13.9718   -7.0613 C   0  0  0  0  0  0  0  0  0  0  0  0
  1  4  1  0  0  0  0
  2  3  1  0  0  0  0
  3  5  1  0  0  0  0
  4  6  1  0  0  0  0
  5  8  1  0  0  0  0
  6  7  1  0  0  0  0
  7 10  1  0  0  0  0
  8  9  1  0  0  0  0
  9 12  1  0  0  0  0
  9 13  1  0  0  0  0
 10 11  1  0  0  0  0
 11 14  1  0  0  0  0
 14 15  1  0  0  0  0
 15 16  1  0  0  0  0
 15 17  1  0  0  0  0
 18  2  1  0  0  0  0
 18 20  2  0  0  0  0
 18 24  1  0  0  0  0
 19 25  1  0  0  0  0
 20  1  1  0  0  0  0
 20 21  1  0  0  0  0
 21 22  2  0  0  0  0
 22 19  1  0  0  0  0
 22 23  1  0  0  0  0
 23 24  2  0  0  0  0
M  END
>  <CHROM.1>
-157.18796578,-80.10822328,-158.90225912,176.47496013,-66.97027264,-59.04401766
-113.82780070,125.81841330,25.24706931,-114.53380543,163.21348271,82.19193633
136.32193590,48.27910489,-136.52696905,-60.89106779,-70.83611972,126.35010277
-3.34455247,-10.06884866,-2.91717466,2.70294361,0.54407907,-2.11963678

>  <Name>
1uud_lig

>  <RI>
0

>  <Rbt.Current_Directory>
/home/itssahil/PROJECTS/Mol_Feturizer/New_Systems/rnas/1uud

>  <Rbt.Executable>
rbdock ($Id: //depot/dev/client3/rdock/2013.1/src/exe/rbdock.cxx#4 $)

>  <Rbt.Library>
libRbt.so (2013.1, Build901 2013/11/27)

>  <Rbt.Parameter_File>
/export/apps/rDock/src/rDock_2013.1_src/data/scripts/dock_solv.prm

>  <Rbt.Receptor>
prm/pocket_docking_2.prm

>  <SCORE>
-33.4859

>  <SCORE.INTER>
-32.4028

>  <SCORE.INTER.CONST>
1

>  <SCORE.INTER.POLAR>
-5.19289

>  <SCORE.INTER.ROT>
18

>  <SCORE.INTER.SOLV>
12.6297

>  <SCORE.INTER.VDW>
-24.1021

>  <SCORE.INTER.norm>
-1.29611

>  <SCORE.INTRA>
-2.45188

>  <SCORE.INTRA.DIHEDRAL>
-2.07067

>  <SCORE.INTRA.DIHEDRAL.0>
30.6762

>  <SCORE.INTRA.POLAR>
0.0288659

>  <SCORE.INTRA.POLAR.0>
-0.0288659

>  <SCORE.INTRA.REPUL>
0

>  <SCORE.INTRA.REPUL.0>
0

>  <SCORE.INTRA.SOLV>
-0.733225

>  <SCORE.INTRA.SOLV.lig_0>
-25.2195

>  <SCORE.INTRA.VDW>
-1.14808

>  <SCORE.INTRA.VDW.0>
4.14263

>  <SCORE.INTRA.norm>
-0.0980752

>  <SCORE.RESTR>
1.36877

>  <SCORE.RESTR.CAVITY>
1.36877

>  <SCORE.RESTR.norm>
0.0547507

>  <SCORE.SYSTEM>
0

>  <SCORE.SYSTEM.CONST>
0

>  <SCORE.SYSTEM.DIHEDRAL>
0

>  <SCORE.SYSTEM.SOLV>
0

>  <SCORE.SYSTEM.norm>
0

>  <SCORE.heavy>
25

>  <SCORE.norm>
-1.33944

>  <RMSD>
4.835

$$$$
1uud_lig
 OpenBabel11021811413D
libRbt.so/2013.1/901 2013/11/27
 25 25  0  0  0  0  0  0  0  0999 V2000
   -4.2668   -8.9389   -2.2936 C   0  0  0  0  0  0  0  0  0  0  0  0
   -6.6184  -10.4286   -3.2174 O   0  0  0  0  0  0  0  0  0  0  0  0
   -7.7393   -9.6314   -3.6276 C   0  0  0  0  0  0  0  0  0  0  0  0
   -3.7208   -9.9639   -1.3697 N   0  0  0  0  0  0  0  0  0  0  0  0
   -7.3859   -8.1401   -3.5470 C   0  0  0  0  0  0  0  0  0  0  0  0
   -2.5241   -9.4294   -0.6776 C   0  0  0  0  0  0  0  0  0  0  0  0
   -1.8295  -10.5592    0.0922 C   0  0  0  0  0  0  0  0  0  0  0  0
   -8.4159   -7.4164   -3.9160 N   0  0  0  0  0  0  0  0  0  0  0  0
   -8.7206   -6.2874   -3.3040 C   0  0  0  0  0  0  0  0  0  0  0  0
   -0.7169   -9.9819    0.9739 C   0  0  0  0  0  0  0  0  0  0  0  0
    0.5815   -9.8928    0.1667 C   0  0  0  0  0  0  0  0  0  0  0  0
   -8.6060   -5.0791   -3.9344 N   0  0  0  0  0  0  0  0  0  0  0  0
   -9.1567   -6.3266   -2.0184 N   0  0  0  0  0  0  0  0  0  0  0  0
    1.6132   -9.9470    0.9753 N   0  0  0  0  0  0  0  0  0  0  0  0
    2.0517  -11.0941    1.4575 C   0  0  0  0  0  0  0  0  0  0  0  0
    3.3576  -11.4265    1.2910 N   0  0  0  0  0  0  0  0  0  0  0  0
    1.2205  -11.9590    2.1109 N   0  0  0  0  0  0  0  0  0  0  0  0
   -5.5245  -10.2443   -4.1251 C   0  0  0  0  0  0  0  0  0  0  0  0
   -2.2947   -9.6685   -6.8613 O   0  0  0  0  0  0  0  0  0  0  0  0
   -4.3655   -9.5224   -3.7184 C   0  0  0  0  0  0  0  0  0  0  0  0
   -3.2966   -9.3252   -4.6331 C   0  0  0  0  0  0  0  0  0  0  0  0
   -3.3737   -9.8649   -5.9439 C   0  0  0  0  0  0  0  0  0  0  0  0
   -4.5208  -10.6018   -6.3441 C   0  0  0  0  0  0  0  0  0  0  0  0
   -5.5941  -10.7985   -5.4335 C   0  0  0  0  0  0  0  0  0  0  0  0
   -1.7770  -10.9377   -7.2711 C   0  0  0  0  0  0  0  0  0  0  0  0
  1  4  1  0  0  0  0
  2  3  1  0  0  0  0
  3  5  1  0  0  0  0
  4  6  1  0  0  0  0
  5  8  1  0  0  0  0
  6  7  1  0  0  0  0
  7 10  1  0  0  0  0
  8  9  1  0  0  0  0
  9 12  1  0  0  0  0
  9 13  1  0  0  0  0
 10 11  1  0  0  0  0
 11 14  1  0  0  0  0
 14 15  1  0  0  0  0
 15 16  1  0  0  0  0
 15 17  1  0  0  0  0
 18  2  1  0  0  0  0
 18 20  2  0  0  0  0
 18 24  1  0  0  0  0
 19 25  1  0  0  0  0
 20  1  1  0  0  0  0
 20 21  1  0  0  0  0
 21 22  2  0  0  0  0
 22 19  1  0  0  0  0
 22 23  1  0  0  0  0
 23 24  2  0  0  0  0
M  END
>  <CHROM.1>
124.76749157,-64.03625583,-179.65898347,-170.58626950,141.16343480,-171.69470702
-87.61007430,112.49185356,16.74602554,164.50765435,-153.95508856,80.03228089
125.86183892,-18.02346059,154.92027881,108.84749203,86.88728258,120.54375185
-3.64236582,-9.48240757,-2.53965486,2.73196533,0.43565648,-1.80745582

>  <Name>
1uud_lig

>  <RI>
0

>  <Rbt.Current_Directory>
/home/itssahil/PROJECTS/Mol_Feturizer/New_Systems/rnas/1uud

>  <Rbt.Executable>
rbdock ($Id: //depot/dev/client3/rdock/2013.1/src/exe/rbdock.cxx#4 $)

>  <Rbt.Library>
libRbt.so (2013.1, Build901 2013/11/27)

>  <Rbt.Parameter_File>
/export/apps/rDock/src/rDock_2013.1_src/data/scripts/dock_solv.prm

>  <Rbt.Receptor>
prm/pocket_docking_5.prm

>  <SCORE>
-36.8577

>  <SCORE.INTER>
-31.4093

>  <SCORE.INTER.CONST>
1

>  <SCORE.INTER.POLAR>
-4.17005

>  <SCORE.INTER.ROT>
18

>  <SCORE.INTER.SOLV>
10.9524

>  <SCORE.INTER.VDW>
-26.2902

>  <SCORE.INTER.norm>
-1.25637

>  <SCORE.INTRA>
-5.44839

>  <SCORE.INTRA.DIHEDRAL>
-3.52022

>  <SCORE.INTRA.DIHEDRAL.0>
30.6762

>  <SCORE.INTRA.POLAR>
0.0288659

>  <SCORE.INTRA.POLAR.0>
-0.0288659

>  <SCORE.INTRA.REPUL>
0

>  <SCORE.INTRA.REPUL.0>
0

>  <SCORE.INTRA.SOLV>
-1.07467

>  <SCORE.INTRA.SOLV.lig_0>
-25.2195

>  <SCORE.INTRA.VDW>
-3.24909

>  <SCORE.INTRA.VDW.0>
4.14263

>  <SCORE.INTRA.norm>
-0.217936

>  <SCORE.RESTR>
0

>  <SCORE.RESTR.CAVITY>
0

>  <SCORE.RESTR.norm>
0

>  <SCORE.SYSTEM>
0

>  <SCORE.SYSTEM.CONST>
0

>  <SCORE.SYSTEM.DIHEDRAL>
0

>  <SCORE.SYSTEM.SOLV>
0

>  <SCORE.SYSTEM.norm>
0

>  <SCORE.heavy>
25

>  <SCORE.norm>
-1.47431

>  <RMSD>
4.916

$$$$
1uud_lig
 OpenBabel11021811413D
libRbt.so/2013.1/901 2013/11/27
 25 25  0  0  0  0  0  0  0  0999 V2000
   -5.5779   -9.4285   -2.7558 C   0  0  0  0  0  0  0  0  0  0  0  0
   -6.2983   -8.9268   -5.5544 O   0  0  0  0  0  0  0  0  0  0  0  0
   -7.5292   -9.3415   -4.9435 C   0  0  0  0  0  0  0  0  0  0  0  0
   -4.5590   -8.8333   -1.8560 N   0  0  0  0  0  0  0  0  0  0  0  0
   -8.1272   -8.1905   -4.1233 C   0  0  0  0  0  0  0  0  0  0  0  0
   -4.6287   -9.4775   -0.5230 C   0  0  0  0  0  0  0  0  0  0  0  0
   -3.3725   -9.1254    0.2830 C   0  0  0  0  0  0  0  0  0  0  0  0
   -7.8172   -7.0411   -4.6742 N   0  0  0  0  0  0  0  0  0  0  0  0
   -6.8181   -6.3066   -4.2224 C   0  0  0  0  0  0  0  0  0  0  0  0
   -2.2331  -10.0826   -0.0832 C   0  0  0  0  0  0  0  0  0  0  0  0
   -1.2670  -10.2040    1.0989 C   0  0  0  0  0  0  0  0  0  0  0  0
   -7.0386   -5.1733   -3.4891 N   0  0  0  0  0  0  0  0  0  0  0  0
   -5.5420   -6.6841   -4.4932 N   0  0  0  0  0  0  0  0  0  0  0  0
   -0.5574  -11.3015    0.9833 N   0  0  0  0  0  0  0  0  0  0  0  0
    0.7004  -11.3539    1.3779 C   0  0  0  0  0  0  0  0  0  0  0  0
    1.6078  -10.5184    0.8103 N   0  0  0  0  0  0  0  0  0  0  0  0
    1.1125  -12.2357    2.3363 N   0  0  0  0  0  0  0  0  0  0  0  0
   -5.2641   -9.8787   -5.2736 C   0  0  0  0  0  0  0  0  0  0  0  0
   -2.1487  -12.6869   -4.4616 O   0  0  0  0  0  0  0  0  0  0  0  0
   -4.8799  -10.1483   -3.9284 C   0  0  0  0  0  0  0  0  0  0  0  0
   -3.8378  -11.0763   -3.6618 C   0  0  0  0  0  0  0  0  0  0  0  0
   -3.1945  -11.7503   -4.7330 C   0  0  0  0  0  0  0  0  0  0  0  0
   -3.5904  -11.4966   -6.0738 C   0  0  0  0  0  0  0  0  0  0  0  0
   -4.6300  -10.5664   -6.3454 C   0  0  0  0  0  0  0  0  0  0  0  0
   -2.5325  -13.9828   -4.9307 C   0  0  0  0  0  0  0  0  0  0  0  0
  1  4  1  0  0  0  0
  2  3  1  0  0  0  0
  3  5  1  0  0  0  0
  4  6  1  0  0  0  0
  5  8  1  0  0  0  0
  6  7  1  0  0  0  0
  7 10  1  0  0  0  0
  8  9  1  0  0  0  0
  9 12  1  0  0  0  0
  9 13  1  0  0  0  0
 10 11  1  0  0  0  0
 11 14  1  0  0  0  0
 14 15  1  0  0  0  0
 15 16  1  0  0  0  0
 15 17  1  0  0  0  0
 18  2  1  0  0  0  0
 18 20  2  0  0  0  0
 18 24  1  0  0  0  0
 19 25  1  0  0  0  0
 20  1  1  0  0  0  0
 20 21  1  0  0  0  0
 21 22  2  0  0  0  0
 22 19  1  0  0  0  0
 22 23  1  0  0  0  0
 23 24  2  0  0  0  0
M  END
>  <CHROM.1>
-115.96754426,129.11081205,31.55064623,165.89223256,-99.13658622,-84.03184258
-153.12711696,-105.11601527,-46.92504701,-119.42899207,159.83345254,145.13909239
-60.08288384,-23.53926622,133.52382977,-60.53229542,-129.01405321,118.42940009
-3.88355319,-9.79925304,-2.71134378,2.88372087,0.73392071,-2.22589160

>  <Name>
1uud_lig

>  <RI>
0

>  <Rbt.Current_Directory>
/home/itssahil/PROJECTS/Mol_Feturizer/New_Systems/rnas/1uud

>  <Rbt.Executable>
rbdock ($Id: //depot/dev/client3/rdock/2013.1/src/exe/rbdock.cxx#4 $)

>  <Rbt.Library>
libRbt.so (2013.1, Build901 2013/11/27)

>  <Rbt.Parameter_File>
/export/apps/rDock/src/rDock_2013.1_src/data/scripts/dock_solv.prm

>  <Rbt.Receptor>
prm/pocket_docking_2.prm

>  <SCORE>
-18.0443

>  <SCORE.INTER>
-18.7241

>  <SCORE.INTER.CONST>
1

>  <SCORE.INTER.POLAR>
-2.51816

>  <SCORE.INTER.ROT>
18

>  <SCORE.INTER.SOLV>
10.6227

>  <SCORE.INTER.VDW>
-23.2298

>  <SCORE.INTER.norm>
-0.748963

>  <SCORE.INTRA>
-0.216354

>  <SCORE.INTRA.DIHEDRAL>
6.19773

>  <SCORE.INTRA.DIHEDRAL.0>
30.6762

>  <SCORE.INTRA.POLAR>
0.0288659

>  <SCORE.INTRA.POLAR.0>
-0.0288659

>  <SCORE.INTRA.REPUL>
0

>  <SCORE.INTRA.REPUL.0>
0

>  <SCORE.INTRA.SOLV>
0.469589

>  <SCORE.INTRA.SOLV.lig_0>
-25.2195

>  <SCORE.INTRA.VDW>
-3.64816

>  <SCORE.INTRA.VDW.0>
4.14263

>  <SCORE.INTRA.norm>
-0.00865414

>  <SCORE.RESTR>
0.896118

>  <SCORE.RESTR.CAVITY>
0.896118

>  <SCORE.RESTR.norm>
0.0358447

>  <SCORE.SYSTEM>
0

>  <SCORE.SYSTEM.CONST>
0

>  <SCORE.SYSTEM.DIHEDRAL>
0

>  <SCORE.SYSTEM.SOLV>
0

>  <SCORE.SYSTEM.norm>
0

>  <SCORE.heavy>
25

>  <SCORE.norm>
-0.721772

>  <RMSD>
4.922

$$$$
1uud_lig
 OpenBabel11021811413D
libRbt.so/2013.1/901 2013/11/27
 25 25  0  0  0  0  0  0  0  0999 V2000
   -4.1380  -10.4010   -2.5811 C   0  0  0  0  0  0  0  0  0  0  0  0
   -4.9029   -8.5544   -4.7277 O   0  0  0  0  0  0  0  0  0  0  0  0
   -6.0688   -8.3739   -5.5453 C   0  0  0  0  0  0  0  0  0  0  0  0
   -2.9629  -10.7752   -1.7557 N   0  0  0  0  0  0  0  0  0  0  0  0
   -6.9577   -7.2668   -4.9628 C   0  0  0  0  0  0  0  0  0  0  0  0
   -2.9217   -9.9389   -0.5327 C   0  0  0  0  0  0  0  0  0  0  0  0
   -2.2799  -10.7339    0.6108 C   0  0  0  0  0  0  0  0  0  0  0  0
   -7.9767   -7.7983   -4.3305 N   0  0  0  0  0  0  0  0  0  0  0  0
   -7.8480   -8.3075   -3.1196 C   0  0  0  0  0  0  0  0  0  0  0  0
   -0.8256  -11.0679    0.2612 C   0  0  0  0  0  0  0  0  0  0  0  0
   -0.0267  -11.2856    1.5495 C   0  0  0  0  0  0  0  0  0  0  0  0
   -7.4132   -9.5897   -2.9259 N   0  0  0  0  0  0  0  0  0  0  0  0
   -8.1557   -7.5409   -2.0417 N   0  0  0  0  0  0  0  0  0  0  0  0
    1.1642  -11.7544    1.2612 N   0  0  0  0  0  0  0  0  0  0  0  0
    2.2165  -10.9625    1.1835 C   0  0  0  0  0  0  0  0  0  0  0  0
    2.1101   -9.7830    0.5194 N   0  0  0  0  0  0  0  0  0  0  0  0
    3.4128  -11.3063    1.7465 N   0  0  0  0  0  0  0  0  0  0  0  0
   -4.2395   -9.7755   -5.0789 C   0  0  0  0  0  0  0  0  0  0  0  0
   -2.2234  -13.3880   -6.1446 O   0  0  0  0  0  0  0  0  0  0  0  0
   -3.8461  -10.6978   -4.0667 C   0  0  0  0  0  0  0  0  0  0  0  0
   -3.1683  -11.8943   -4.4234 C   0  0  0  0  0  0  0  0  0  0  0  0
   -2.9021  -12.1811   -5.7881 C   0  0  0  0  0  0  0  0  0  0  0  0
   -3.3114  -11.2711   -6.7997 C   0  0  0  0  0  0  0  0  0  0  0  0
   -3.9866  -10.0712   -6.4473 C   0  0  0  0  0  0  0  0  0  0  0  0
   -3.0517  -14.1642   -7.0153 C   0  0  0  0  0  0  0  0  0  0  0  0
  1  4  1  0  0  0  0
  2  3  1  0  0  0  0
  3  5  1  0  0  0  0
  4  6  1  0  0  0  0
  5  8  1  0  0  0  0
  6  7  1  0  0  0  0
  7 10  1  0  0  0  0
  8  9  1  0  0  0  0
  9 12  1  0  0  0  0
  9 13  1  0  0  0  0
 10 11  1  0  0  0  0
 11 14  1  0  0  0  0
 14 15  1  0  0  0  0
 15 16  1  0  0  0  0
 15 17  1  0  0  0  0
 18  2  1  0  0  0  0
 18 20  2  0  0  0  0
 18 24  1  0  0  0  0
 19 25  1  0  0  0  0
 20  1  1  0  0  0  0
 20 21  1  0  0  0  0
 21 22  2  0  0  0  0
 22 19  1  0  0  0  0
 22 23  1  0  0  0  0
 23 24  2  0  0  0  0
M  END
>  <CHROM.1>
152.20719546,166.50828292,-102.29451409,149.45380769,78.14984397,63.27753775
155.37227576,-84.31399932,-14.84929978,123.91688267,171.13814344,97.43529396
-44.71608439,-124.70296984,117.43742478,-131.47800581,-138.32050433,120.87244378
-3.18924443,-10.34757987,-2.77332378,2.68714808,0.51460935,-2.02409482

>  <Name>
1uud_lig

>  <RI>
0

>  <Rbt.Current_Directory>
/home/itssahil/PROJECTS/Mol_Feturizer/New_Systems/rnas/1uud

>  <Rbt.Executable>
rbdock ($Id: //depot/dev/client3/rdock/2013.1/src/exe/rbdock.cxx#4 $)

>  <Rbt.Library>
libRbt.so (2013.1, Build901 2013/11/27)

>  <Rbt.Parameter_File>
/export/apps/rDock/src/rDock_2013.1_src/data/scripts/dock_solv.prm

>  <Rbt.Receptor>
prm/pocket_docking_3.prm

>  <SCORE>
-47.8336

>  <SCORE.INTER>
-42.825

>  <SCORE.INTER.CONST>
1

>  <SCORE.INTER.POLAR>
-5.96062

>  <SCORE.INTER.ROT>
18

>  <SCORE.INTER.SOLV>
13.6677

>  <SCORE.INTER.VDW>
-28.8372

>  <SCORE.INTER.norm>
-1.713

>  <SCORE.INTRA>
-5.01873

>  <SCORE.INTRA.DIHEDRAL>
-2.8585

>  <SCORE.INTRA.DIHEDRAL.0>
30.6762

>  <SCORE.INTRA.POLAR>
0.0288659

>  <SCORE.INTRA.POLAR.0>
-0.0288659

>  <SCORE.INTRA.REPUL>
0

>  <SCORE.INTRA.REPUL.0>
0

>  <SCORE.INTRA.SOLV>
-0.378325

>  <SCORE.INTRA.SOLV.lig_0>
-25.2195

>  <SCORE.INTRA.VDW>
-3.49846

>  <SCORE.INTRA.VDW.0>
4.14263

>  <SCORE.INTRA.norm>
-0.200749

>  <SCORE.RESTR>
0.0101111

>  <SCORE.RESTR.CAVITY>
0.0101111

>  <SCORE.RESTR.norm>
0.000404445

>  <SCORE.SYSTEM>
0

>  <SCORE.SYSTEM.CONST>
0

>  <SCORE.SYSTEM.DIHEDRAL>
0

>  <SCORE.SYSTEM.SOLV>
0

>  <SCORE.SYSTEM.norm>
0

>  <SCORE.heavy>
25

>  <SCORE.norm>
-1.91334

>  <RMSD>
4.949

$$$$
1uud_lig
 OpenBabel11021811413D
libRbt.so/2013.1/901 2013/11/27
 25 25  0  0  0  0  0  0  0  0999 V2000
   -4.1070   -8.8885   -2.3822 C   0  0  0  0  0  0  0  0  0  0  0  0
   -5.6814   -8.7963   -4.8551 O   0  0  0  0  0  0  0  0  0  0  0  0
   -7.0733   -9.1217   -4.7250 C   0  0  0  0  0  0  0  0  0  0  0  0
   -3.5701   -9.3707   -1.0855 N   0  0  0  0  0  0  0  0  0  0  0  0
   -7.7898   -8.0562   -3.8843 C   0  0  0  0  0  0  0  0  0  0  0  0
   -2.9715   -8.2394   -0.3381 C   0  0  0  0  0  0  0  0  0  0  0  0
   -1.5296   -8.0181   -0.8110 C   0  0  0  0  0  0  0  0  0  0  0  0
   -7.8651   -6.9326   -4.5570 N   0  0  0  0  0  0  0  0  0  0  0  0
   -6.8864   -6.0474   -4.5336 C   0  0  0  0  0  0  0  0  0  0  0  0
   -0.5675   -8.1398    0.3757 C   0  0  0  0  0  0  0  0  0  0  0  0
   -0.5205   -9.5954    0.8492 C   0  0  0  0  0  0  0  0  0  0  0  0
   -6.9482   -4.9344   -3.7412 N   0  0  0  0  0  0  0  0  0  0  0  0
   -5.7938   -6.2459   -5.3154 N   0  0  0  0  0  0  0  0  0  0  0  0
    0.5542  -10.1824    0.3785 N   0  0  0  0  0  0  0  0  0  0  0  0
    1.1575  -11.1503    1.0417 C   0  0  0  0  0  0  0  0  0  0  0  0
    2.4911  -11.3390    0.8704 N   0  0  0  0  0  0  0  0  0  0  0  0
    0.4699  -11.9730    1.8882 N   0  0  0  0  0  0  0  0  0  0  0  0
   -4.8786   -9.9554   -4.5973 C   0  0  0  0  0  0  0  0  0  0  0  0
   -2.4585  -13.4000   -3.8704 O   0  0  0  0  0  0  0  0  0  0  0  0
   -4.0946  -10.0385   -3.4106 C   0  0  0  0  0  0  0  0  0  0  0  0
   -3.2842  -11.1814   -3.1756 C   0  0  0  0  0  0  0  0  0  0  0  0
   -3.2719  -12.2489   -4.1114 C   0  0  0  0  0  0  0  0  0  0  0  0
   -4.0684  -12.1755   -5.2857 C   0  0  0  0  0  0  0  0  0  0  0  0
   -4.8779  -11.0324   -5.5266 C   0  0  0  0  0  0  0  0  0  0  0  0
   -1.5276  -13.5623   -4.9444 C   0  0  0  0  0  0  0  0  0  0  0  0
  1  4  1  0  0  0  0
  2  3  1  0  0  0  0
  3  5  1  0  0  0  0
  4  6  1  0  0  0  0
  5  8  1  0  0  0  0
  6  7  1  0  0  0  0
  7 10  1  0  0  0  0
  8  9  1  0  0  0  0
  9 12  1  0  0  0  0
  9 13  1  0  0  0  0
 10 11  1  0  0  0  0
 11 14  1  0  0  0  0
 14 15  1  0  0  0  0
 15 16  1  0  0  0  0
 15 17  1  0  0  0  0
 18  2  1  0  0  0  0
 18 20  2  0  0  0  0
 18 24  1  0  0  0  0
 19 25  1  0  0  0  0
 20  1  1  0  0  0  0
 20 21  1  0  0  0  0
 21 22  2  0  0  0  0
 22 19  1  0  0  0  0
 22 23  1  0  0  0  0
 23 24  2  0  0  0  0
M  END
>  <CHROM.1>
152.76865428,133.41968801,69.95567315,-84.21493471,-86.49938673,-122.00329717
69.02158549,-100.25486821,5.27942124,37.63441906,100.30504162,149.27044923
-152.00378514,-146.87954237,65.32259031,-109.55961419,162.74479219,-120.84971619
-3.37043686,-9.59591804,-2.58568429,3.12947450,0.70448183,-2.53895733

>  <Name>
1uud_lig

>  <RI>
0

>  <Rbt.Current_Directory>
/home/itssahil/PROJECTS/Mol_Feturizer/New_Systems/rnas/1uud

>  <Rbt.Executable>
rbdock ($Id: //depot/dev/client3/rdock/2013.1/src/exe/rbdock.cxx#4 $)

>  <Rbt.Library>
libRbt.so (2013.1, Build901 2013/11/27)

>  <Rbt.Parameter_File>
/export/apps/rDock/src/rDock_2013.1_src/data/scripts/dock_solv.prm

>  <Rbt.Receptor>
prm/pocket_docking_2.prm

>  <SCORE>
-20.1795

>  <SCORE.INTER>
-23.5551

>  <SCORE.INTER.CONST>
1

>  <SCORE.INTER.POLAR>
-3.85006

>  <SCORE.INTER.ROT>
18

>  <SCORE.INTER.SOLV>
10.9584

>  <SCORE.INTER.VDW>
-22.1227

>  <SCORE.INTER.norm>
-0.942205

>  <SCORE.INTRA>
1.99977

>  <SCORE.INTRA.DIHEDRAL>
6.93295

>  <SCORE.INTRA.DIHEDRAL.0>
30.6762

>  <SCORE.INTRA.POLAR>
0.0288659

>  <SCORE.INTRA.POLAR.0>
-0.0288659

>  <SCORE.INTRA.REPUL>
0

>  <SCORE.INTRA.REPUL.0>
0

>  <SCORE.INTRA.SOLV>
-0.300695

>  <SCORE.INTRA.SOLV.lig_0>
-25.2195

>  <SCORE.INTRA.VDW>
-1.4145

>  <SCORE.INTRA.VDW.0>
4.14263

>  <SCORE.INTRA.norm>
0.0799909

>  <SCORE.RESTR>
1.37588

>  <SCORE.RESTR.CAVITY>
1.37588

>  <SCORE.RESTR.norm>
0.0550353

>  <SCORE.SYSTEM>
0

>  <SCORE.SYSTEM.CONST>
0

>  <SCORE.SYSTEM.DIHEDRAL>
0

>  <SCORE.SYSTEM.SOLV>
0

>  <SCORE.SYSTEM.norm>
0

>  <SCORE.heavy>
25

>  <SCORE.norm>
-0.807179

>  <RMSD>
4.971

$$$$
1uud_lig
 OpenBabel11021811413D
libRbt.so/2013.1/901 2013/11/27
 25 25  0  0  0  0  0  0  0  0999 V2000
   -4.3614   -9.0342   -0.9284 C   0  0  0  0  0  0  0  0  0  0  0  0
   -7.0393   -9.8435   -1.8096 O   0  0  0  0  0  0  0  0  0  0  0  0
   -7.8711   -8.8500   -2.4270 C   0  0  0  0  0  0  0  0  0  0  0  0
   -3.9769  -10.0172    0.1147 N   0  0  0  0  0  0  0  0  0  0  0  0
   -7.3907   -7.4441   -2.0427 C   0  0  0  0  0  0  0  0  0  0  0  0
   -3.9059   -9.3466    1.4346 C   0  0  0  0  0  0  0  0  0  0  0  0
   -2.5945   -8.5587    1.5397 C   0  0  0  0  0  0  0  0  0  0  0  0
   -8.2209   -6.5440   -2.5132 N   0  0  0  0  0  0  0  0  0  0  0  0
   -8.0913   -6.0563   -3.7327 C   0  0  0  0  0  0  0  0  0  0  0  0
   -1.4113   -9.5273    1.6422 C   0  0  0  0  0  0  0  0  0  0  0  0
   -0.2133   -8.9541    0.8797 C   0  0  0  0  0  0  0  0  0  0  0  0
   -7.0870   -6.4688   -4.5645 N   0  0  0  0  0  0  0  0  0  0  0  0
   -8.9746   -5.1225   -4.1710 N   0  0  0  0  0  0  0  0  0  0  0  0
    0.2876   -9.8693    0.0842 N   0  0  0  0  0  0  0  0  0  0  0  0
    1.2564  -10.6722    0.4809 C   0  0  0  0  0  0  0  0  0  0  0  0
    0.9553  -11.9470    0.8385 N   0  0  0  0  0  0  0  0  0  0  0  0
    2.5530  -10.2477    0.5499 N   0  0  0  0  0  0  0  0  0  0  0  0
   -5.9208  -10.1434   -2.6543 C   0  0  0  0  0  0  0  0  0  0  0  0
   -2.6067  -11.0075   -5.2078 O   0  0  0  0  0  0  0  0  0  0  0  0
   -4.6036   -9.7632   -2.2664 C   0  0  0  0  0  0  0  0  0  0  0  0
   -3.5045  -10.0443   -3.1215 C   0  0  0  0  0  0  0  0  0  0  0  0
   -3.7153  -10.7221   -4.3510 C   0  0  0  0  0  0  0  0  0  0  0  0
   -5.0260  -11.1190   -4.7296 C   0  0  0  0  0  0  0  0  0  0  0  0
   -6.1290  -10.8367   -3.8789 C   0  0  0  0  0  0  0  0  0  0  0  0
   -2.3601   -9.8865   -6.0617 C   0  0  0  0  0  0  0  0  0  0  0  0
  1  4  1  0  0  0  0
  2  3  1  0  0  0  0
  3  5  1  0  0  0  0
  4  6  1  0  0  0  0
  5  8  1  0  0  0  0
  6  7  1  0  0  0  0
  7 10  1  0  0  0  0
  8  9  1  0  0  0  0
  9 12  1  0  0  0  0
  9 13  1  0  0  0  0
 10 11  1  0  0  0  0
 11 14  1  0  0  0  0
 14 15  1  0  0  0  0
 15 16  1  0  0  0  0
 15 17  1  0  0  0  0
 18  2  1  0  0  0  0
 18 20  2  0  0  0  0
 18 24  1  0  0  0  0
 19 25  1  0  0  0  0
 20  1  1  0  0  0  0
 20 21  1  0  0  0  0
 21 22  2  0  0  0  0
 22 19  1  0  0  0  0
 22 23  1  0  0  0  0
 23 24  2  0  0  0  0
M  END
>  <CHROM.1>
-173.09432581,-88.46728812,-174.54900991,-78.03139596,-87.12858405,-70.00218869
143.61456648,0.16289731,-8.57830227,17.39327536,-130.99762638,-91.40215698
102.07892487,171.12213640,-31.52532837,111.31819080,95.87688144,-86.49131892
-3.96633520,-9.25588161,-1.85685040,0.31814733,-0.47735954,1.23177307

>  <Name>
1uud_lig

>  <RI>
0

>  <Rbt.Current_Directory>
/home/itssahil/PROJECTS/Mol_Feturizer/New_Systems/rnas/1uud

>  <Rbt.Executable>
rbdock ($Id: //depot/dev/client3/rdock/2013.1/src/exe/rbdock.cxx#4 $)

>  <Rbt.Library>
libRbt.so (2013.1, Build901 2013/11/27)

>  <Rbt.Parameter_File>
/export/apps/rDock/src/rDock_2013.1_src/data/scripts/dock_solv.prm

>  <Rbt.Receptor>
prm/pocket_docking_4.prm

>  <SCORE>
-25.604

>  <SCORE.INTER>
-21.9859

>  <SCORE.INTER.CONST>
1

>  <SCORE.INTER.POLAR>
-3.57593

>  <SCORE.INTER.ROT>
18

>  <SCORE.INTER.SOLV>
8.55604

>  <SCORE.INTER.VDW>
-21.1895

>  <SCORE.INTER.norm>
-0.879438

>  <SCORE.INTRA>
-3.61803

>  <SCORE.INTRA.DIHEDRAL>
2.35348

>  <SCORE.INTRA.DIHEDRAL.0>
30.6762

>  <SCORE.INTRA.POLAR>
0.0288659

>  <SCORE.INTRA.POLAR.0>
-0.0288659

>  <SCORE.INTRA.REPUL>
0

>  <SCORE.INTRA.REPUL.0>
0

>  <SCORE.INTRA.SOLV>
-0.878553

>  <SCORE.INTRA.SOLV.lig_0>
-25.2195

>  <SCORE.INTRA.VDW>
-4.45364

>  <SCORE.INTRA.VDW.0>
4.14263

>  <SCORE.INTRA.norm>
-0.144721

>  <SCORE.RESTR>
0

>  <SCORE.RESTR.CAVITY>
0

>  <SCORE.RESTR.norm>
0

>  <SCORE.SYSTEM>
0

>  <SCORE.SYSTEM.CONST>
0

>  <SCORE.SYSTEM.DIHEDRAL>
0

>  <SCORE.SYSTEM.SOLV>
0

>  <SCORE.SYSTEM.norm>
0

>  <SCORE.heavy>
25

>  <SCORE.norm>
-1.02416

>  <RMSD>
4.985

$$$$
1uud_lig
 OpenBabel11021811413D
libRbt.so/2013.1/901 2013/11/27
 25 25  0  0  0  0  0  0  0  0999 V2000
   -3.7091   -9.2473   -2.2233 C   0  0  0  0  0  0  0  0  0  0  0  0
   -6.2052   -9.9236   -3.6071 O   0  0  0  0  0  0  0  0  0  0  0  0
   -7.0558   -9.3845   -4.6299 C   0  0  0  0  0  0  0  0  0  0  0  0
   -4.3569  -10.0362   -1.1462 N   0  0  0  0  0  0  0  0  0  0  0  0
   -8.4474   -9.0838   -4.0571 C   0  0  0  0  0  0  0  0  0  0  0  0
   -4.2128   -9.3304    0.1491 C   0  0  0  0  0  0  0  0  0  0  0  0
   -2.8071   -9.5732    0.7118 C   0  0  0  0  0  0  0  0  0  0  0  0
   -8.3560   -8.1756   -3.1149 N   0  0  0  0  0  0  0  0  0  0  0  0
   -7.7925   -7.0033   -3.3388 C   0  0  0  0  0  0  0  0  0  0  0  0
   -1.8103   -8.6104    0.0575 C   0  0  0  0  0  0  0  0  0  0  0  0
   -0.4018   -8.8938    0.5877 C   0  0  0  0  0  0  0  0  0  0  0  0
   -8.4516   -6.0097   -4.0088 N   0  0  0  0  0  0  0  0  0  0  0  0
   -6.5288   -6.7793   -2.8948 N   0  0  0  0  0  0  0  0  0  0  0  0
    0.0370  -10.0304    0.1011 N   0  0  0  0  0  0  0  0  0  0  0  0
    0.9940  -10.7131    0.6999 C   0  0  0  0  0  0  0  0  0  0  0  0
    0.8424  -12.0508    0.8763 N   0  0  0  0  0  0  0  0  0  0  0  0
    2.1287  -10.1038    1.1555 N   0  0  0  0  0  0  0  0  0  0  0  0
   -4.9655  -10.3616   -4.1779 C   0  0  0  0  0  0  0  0  0  0  0  0
   -1.2798  -11.6387   -5.9200 O   0  0  0  0  0  0  0  0  0  0  0  0
   -3.7298  -10.0500   -3.5407 C   0  0  0  0  0  0  0  0  0  0  0  0
   -2.5053  -10.4687   -4.1268 C   0  0  0  0  0  0  0  0  0  0  0  0
   -2.5135  -11.2150   -5.3344 C   0  0  0  0  0  0  0  0  0  0  0  0
   -3.7462  -11.5431   -5.9603 C   0  0  0  0  0  0  0  0  0  0  0  0
   -4.9735  -11.1232   -5.3794 C   0  0  0  0  0  0  0  0  0  0  0  0
   -0.9291  -12.9309   -5.4162 C   0  0  0  0  0  0  0  0  0  0  0  0
  1  4  1  0  0  0  0
  2  3  1  0  0  0  0
  3  5  1  0  0  0  0
  4  6  1  0  0  0  0
  5  8  1  0  0  0  0
  6  7  1  0  0  0  0
  7 10  1  0  0  0  0
  8  9  1  0  0  0  0
  9 12  1  0  0  0  0
  9 13  1  0  0  0  0
 10 11  1  0  0  0  0
 11 14  1  0  0  0  0
 14 15  1  0  0  0  0
 15 16  1  0  0  0  0
 15 17  1  0  0  0  0
 18  2  1  0  0  0  0
 18 20  2  0  0  0  0
 18 24  1  0  0  0  0
 19 25  1  0  0  0  0
 20  1  1  0  0  0  0
 20 21  1  0  0  0  0
 21 22  2  0  0  0  0
 22 19  1  0  0  0  0
 22 23  1  0  0  0  0
 23 24  2  0  0  0  0
M  END
>  <CHROM.1>
174.10469970,172.67378712,62.27633241,-79.41384502,55.45147893,81.92818077
-177.97226651,77.63140171,-71.16306096,-173.31624373,71.46743648,-157.83109839
133.58319402,152.70426312,-169.20483509,135.38268257,65.11529484,90.46722905
-3.61661846,-9.75072322,-2.52381042,2.85369900,0.46724504,-2.05295316

>  <Name>
1uud_lig

>  <RI>
0

>  <Rbt.Current_Directory>
/home/itssahil/PROJECTS/Mol_Feturizer/New_Systems/rnas/1uud

>  <Rbt.Executable>
rbdock ($Id: //depot/dev/client3/rdock/2013.1/src/exe/rbdock.cxx#4 $)

>  <Rbt.Library>
libRbt.so (2013.1, Build901 2013/11/27)

>  <Rbt.Parameter_File>
/export/apps/rDock/src/rDock_2013.1_src/data/scripts/dock_solv.prm

>  <Rbt.Receptor>
prm/pocket_docking_7.prm

>  <SCORE>
-30.0656

>  <SCORE.INTER>
-22.6744

>  <SCORE.INTER.CONST>
1

>  <SCORE.INTER.POLAR>
-3.58076

>  <SCORE.INTER.ROT>
18

>  <SCORE.INTER.SOLV>
8.29066

>  <SCORE.INTER.VDW>
-21.5439

>  <SCORE.INTER.norm>
-0.906975

>  <SCORE.INTRA>
-7.39121

>  <SCORE.INTRA.DIHEDRAL>
-9.79514

>  <SCORE.INTRA.DIHEDRAL.0>
30.6762

>  <SCORE.INTRA.POLAR>
-0.0797668

>  <SCORE.INTRA.POLAR.0>
-0.0288659

>  <SCORE.INTRA.REPUL>
0

>  <SCORE.INTRA.REPUL.0>
0

>  <SCORE.INTRA.SOLV>
-0.0331846

>  <SCORE.INTRA.SOLV.lig_0>
-25.2195

>  <SCORE.INTRA.VDW>
-2.20584

>  <SCORE.INTRA.VDW.0>
4.14263

>  <SCORE.INTRA.norm>
-0.295649

>  <SCORE.RESTR>
0

>  <SCORE.RESTR.CAVITY>
0

>  <SCORE.RESTR.norm>
0

>  <SCORE.SYSTEM>
0

>  <SCORE.SYSTEM.CONST>
0

>  <SCORE.SYSTEM.DIHEDRAL>
0

>  <SCORE.SYSTEM.SOLV>
0

>  <SCORE.SYSTEM.norm>
0

>  <SCORE.heavy>
25

>  <SCORE.norm>
-1.20262

>  <RMSD>
5.007

$$$$
1uud_lig
 OpenBabel11021811413D
libRbt.so/2013.1/901 2013/11/27
 25 25  0  0  0  0  0  0  0  0999 V2000
   -2.6034   -7.7317   -1.2665 C   0  0  0  0  0  0  0  0  0  0  0  0
   -4.7210   -6.2259   -2.6270 O   0  0  0  0  0  0  0  0  0  0  0  0
   -5.5587   -6.3243   -1.4656 C   0  0  0  0  0  0  0  0  0  0  0  0
   -3.1542   -8.3089   -0.0153 N   0  0  0  0  0  0  0  0  0  0  0  0
   -7.0053   -6.6249   -1.8802 C   0  0  0  0  0  0  0  0  0  0  0  0
   -2.3466   -9.4822    0.3943 C   0  0  0  0  0  0  0  0  0  0  0  0
   -1.1513   -9.0144    1.2334 C   0  0  0  0  0  0  0  0  0  0  0  0
   -7.5599   -5.5466   -2.3807 N   0  0  0  0  0  0  0  0  0  0  0  0
   -7.7665   -5.4154   -3.6776 C   0  0  0  0  0  0  0  0  0  0  0  0
   -0.1010   -8.3635    0.3269 C   0  0  0  0  0  0  0  0  0  0  0  0
    0.8850   -9.4290   -0.1608 C   0  0  0  0  0  0  0  0  0  0  0  0
   -9.0263   -5.2690   -4.1895 N   0  0  0  0  0  0  0  0  0  0  0  0
   -6.7038   -5.4274   -4.5231 N   0  0  0  0  0  0  0  0  0  0  0  0
    1.6882   -9.7736    0.8176 N   0  0  0  0  0  0  0  0  0  0  0  0
    1.8357  -11.0345    1.1768 C   0  0  0  0  0  0  0  0  0  0  0  0
    3.0075  -11.6664    0.9099 N   0  0  0  0  0  0  0  0  0  0  0  0
    0.8337  -11.7215    1.8013 N   0  0  0  0  0  0  0  0  0  0  0  0
   -4.3932   -7.5349   -3.1100 C   0  0  0  0  0  0  0  0  0  0  0  0
   -3.4019  -11.4165   -4.5938 O   0  0  0  0  0  0  0  0  0  0  0  0
   -3.3674   -8.2981   -2.4813 C   0  0  0  0  0  0  0  0  0  0  0  0
   -3.0341   -9.5851   -2.9822 C   0  0  0  0  0  0  0  0  0  0  0  0
   -3.7365  -10.1192   -4.0943 C   0  0  0  0  0  0  0  0  0  0  0  0
   -4.7730   -9.3669   -4.7098 C   0  0  0  0  0  0  0  0  0  0  0  0
   -5.1073   -8.0774   -4.2143 C   0  0  0  0  0  0  0  0  0  0  0  0
   -4.4336  -12.3445   -4.2464 C   0  0  0  0  0  0  0  0  0  0  0  0
  1  4  1  0  0  0  0
  2  3  1  0  0  0  0
  3  5  1  0  0  0  0
  4  6  1  0  0  0  0
  5  8  1  0  0  0  0
  6  7  1  0  0  0  0
  7 10  1  0  0  0  0
  8  9  1  0  0  0  0
  9 12  1  0  0  0  0
  9 13  1  0  0  0  0
 10 11  1  0  0  0  0
 11 14  1  0  0  0  0
 14 15  1  0  0  0  0
 15 16  1  0  0  0  0
 15 17  1  0  0  0  0
 18  2  1  0  0  0  0
 18 20  2  0  0  0  0
 18 24  1  0  0  0  0
 19 25  1  0  0  0  0
 20  1  1  0  0  0  0
 20 21  1  0  0  0  0
 21 22  2  0  0  0  0
 22 19  1  0  0  0  0
 22 23  1  0  0  0  0
 23 24  2  0  0  0  0
M  END
>  <CHROM.1>
95.34593039,-78.69222825,-74.49847753,86.12839067,105.59457779,-74.28549438
-90.11215541,118.51871821,22.15285031,169.36236360,-73.85401566,126.12492257
109.56057114,-160.35940536,90.89933060,-79.53994795,100.08515781,107.35072685
-3.25617013,-8.56411240,-1.80017998,-0.01845438,-0.64881371,0.73585145

>  <Name>
1uud_lig

>  <RI>
0

>  <Rbt.Current_Directory>
/home/itssahil/PROJECTS/Mol_Feturizer/New_Systems/rnas/1uud

>  <Rbt.Executable>
rbdock ($Id: //depot/dev/client3/rdock/2013.1/src/exe/rbdock.cxx#4 $)

>  <Rbt.Library>
libRbt.so (2013.1, Build901 2013/11/27)

>  <Rbt.Parameter_File>
/export/apps/rDock/src/rDock_2013.1_src/data/scripts/dock_solv.prm

>  <Rbt.Receptor>
prm/pocket_docking_3.prm

>  <SCORE>
-31.3492

>  <SCORE.INTER>
-23.2502

>  <SCORE.INTER.CONST>
1

>  <SCORE.INTER.POLAR>
-4.55388

>  <SCORE.INTER.ROT>
18

>  <SCORE.INTER.SOLV>
8.88779

>  <SCORE.INTER.VDW>
-18.8832

>  <SCORE.INTER.norm>
-0.93001

>  <SCORE.INTRA>
-8.09898

>  <SCORE.INTRA.DIHEDRAL>
-0.743954

>  <SCORE.INTRA.DIHEDRAL.0>
30.6762

>  <SCORE.INTRA.POLAR>
-0.71492

>  <SCORE.INTRA.POLAR.0>
-0.0288659

>  <SCORE.INTRA.REPUL>
0

>  <SCORE.INTRA.REPUL.0>
0

>  <SCORE.INTRA.SOLV>
0.452703

>  <SCORE.INTRA.SOLV.lig_0>
-25.2195

>  <SCORE.INTRA.VDW>
-5.52263

>  <SCORE.INTRA.VDW.0>
4.14263

>  <SCORE.INTRA.norm>
-0.323959

>  <SCORE.RESTR>
0

>  <SCORE.RESTR.CAVITY>
0

>  <SCORE.RESTR.norm>
0

>  <SCORE.SYSTEM>
0

>  <SCORE.SYSTEM.CONST>
0

>  <SCORE.SYSTEM.DIHEDRAL>
0

>  <SCORE.SYSTEM.SOLV>
0

>  <SCORE.SYSTEM.norm>
0

>  <SCORE.heavy>
25

>  <SCORE.norm>
-1.25397

>  <RMSD>
5.034

$$$$
1uud_lig
 OpenBabel11021811413D
libRbt.so/2013.1/901 2013/11/27
 25 25  0  0  0  0  0  0  0  0999 V2000
   -4.7140  -10.4575   -2.8059 C   0  0  0  0  0  0  0  0  0  0  0  0
   -4.4162   -8.4516   -4.9250 O   0  0  0  0  0  0  0  0  0  0  0  0
   -5.4334   -7.9638   -5.8125 C   0  0  0  0  0  0  0  0  0  0  0  0
   -3.6899   -9.6177   -2.1364 N   0  0  0  0  0  0  0  0  0  0  0  0
   -6.8013   -8.5347   -5.4147 C   0  0  0  0  0  0  0  0  0  0  0  0
   -3.8613   -9.6938   -0.6662 C   0  0  0  0  0  0  0  0  0  0  0  0
   -2.8519  -10.6901   -0.0831 C   0  0  0  0  0  0  0  0  0  0  0  0
   -7.0640   -8.2355   -4.1648 N   0  0  0  0  0  0  0  0  0  0  0  0
   -7.2418   -6.9865   -3.7769 C   0  0  0  0  0  0  0  0  0  0  0  0
   -1.5937   -9.9471    0.3791 C   0  0  0  0  0  0  0  0  0  0  0  0
   -0.4715  -10.9554    0.6420 C   0  0  0  0  0  0  0  0  0  0  0  0
   -8.2958   -6.2411   -4.2286 N   0  0  0  0  0  0  0  0  0  0  0  0
   -6.3571   -6.4286   -2.9107 N   0  0  0  0  0  0  0  0  0  0  0  0
    0.5781  -10.3369    1.1288 N   0  0  0  0  0  0  0  0  0  0  0  0
    1.7312  -10.3270    0.4879 C   0  0  0  0  0  0  0  0  0  0  0  0
    1.9567   -9.3762   -0.4549 N   0  0  0  0  0  0  0  0  0  0  0  0
    2.6988  -11.2569    0.7433 N   0  0  0  0  0  0  0  0  0  0  0  0
   -4.1121   -9.8190   -5.2289 C   0  0  0  0  0  0  0  0  0  0  0  0
   -3.1577  -13.8813   -6.1438 O   0  0  0  0  0  0  0  0  0  0  0  0
   -4.2383  -10.8241   -4.2270 C   0  0  0  0  0  0  0  0  0  0  0  0
   -3.9121  -12.1728   -4.5318 C   0  0  0  0  0  0  0  0  0  0  0  0
   -3.4814  -12.5224   -5.8386 C   0  0  0  0  0  0  0  0  0  0  0  0
   -3.3739  -11.5239   -6.8438 C   0  0  0  0  0  0  0  0  0  0  0  0
   -3.6958  -10.1727   -6.5424 C   0  0  0  0  0  0  0  0  0  0  0  0
   -1.7473  -14.0797   -6.0092 C   0  0  0  0  0  0  0  0  0  0  0  0
  1  4  1  0  0  0  0
  2  3  1  0  0  0  0
  3  5  1  0  0  0  0
  4  6  1  0  0  0  0
  5  8  1  0  0  0  0
  6  7  1  0  0  0  0
  7 10  1  0  0  0  0
  8  9  1  0  0  0  0
  9 12  1  0  0  0  0
  9 13  1  0  0  0  0
 10 11  1  0  0  0  0
 11 14  1  0  0  0  0
 14 15  1  0  0  0  0
 15 16  1  0  0  0  0
 15 17  1  0  0  0  0
 18  2  1  0  0  0  0
 18 20  2  0  0  0  0
 18 24  1  0  0  0  0
 19 25  1  0  0  0  0
 20  1  1  0  0  0  0
 20 21  1  0  0  0  0
 21 22  2  0  0  0  0
 22 19  1  0  0  0  0
 22 23  1  0  0  0  0
 23 24  2  0  0  0  0
M  END
>  <CHROM.1>
-158.28962746,74.92398330,56.48929055,99.40106244,65.38671817,94.24864237
-166.48318416,64.82110981,-148.42422400,-24.23145435,-175.52403014,-117.85855088
86.19324388,178.83466448,30.10794351,-122.72880588,-67.20917630,-95.58031153
-3.31118370,-9.97534717,-3.11110810,2.83378198,0.61528372,-2.24261443

>  <Name>
1uud_lig

>  <RI>
0

>  <Rbt.Current_Directory>
/home/itssahil/PROJECTS/Mol_Feturizer/New_Systems/rnas/1uud

>  <Rbt.Executable>
rbdock ($Id: //depot/dev/client3/rdock/2013.1/src/exe/rbdock.cxx#4 $)

>  <Rbt.Library>
libRbt.so (2013.1, Build901 2013/11/27)

>  <Rbt.Parameter_File>
/export/apps/rDock/src/rDock_2013.1_src/data/scripts/dock_solv.prm

>  <Rbt.Receptor>
prm/pocket_docking_2.prm

>  <SCORE>
-29.6602

>  <SCORE.INTER>
-24.0772

>  <SCORE.INTER.CONST>
1

>  <SCORE.INTER.POLAR>
-3.6815

>  <SCORE.INTER.ROT>
18

>  <SCORE.INTER.SOLV>
9.65998

>  <SCORE.INTER.VDW>
-22.5998

>  <SCORE.INTER.norm>
-0.963088

>  <SCORE.INTRA>
-6.81642

>  <SCORE.INTRA.DIHEDRAL>
-3.24968

>  <SCORE.INTRA.DIHEDRAL.0>
30.6762

>  <SCORE.INTRA.POLAR>
0.0288659

>  <SCORE.INTRA.POLAR.0>
-0.0288659

>  <SCORE.INTRA.REPUL>
0.023575

>  <SCORE.INTRA.REPUL.0>
0

>  <SCORE.INTRA.SOLV>
0.0303988

>  <SCORE.INTRA.SOLV.lig_0>
-25.2195

>  <SCORE.INTRA.VDW>
-5.4228

>  <SCORE.INTRA.VDW.0>
4.14263

>  <SCORE.INTRA.norm>
-0.272657

>  <SCORE.RESTR>
1.23338

>  <SCORE.RESTR.CAVITY>
1.23338

>  <SCORE.RESTR.norm>
0.0493352

>  <SCORE.SYSTEM>
0

>  <SCORE.SYSTEM.CONST>
0

>  <SCORE.SYSTEM.DIHEDRAL>
0

>  <SCORE.SYSTEM.SOLV>
0

>  <SCORE.SYSTEM.norm>
0

>  <SCORE.heavy>
25

>  <SCORE.norm>
-1.18641

>  <RMSD>
5.036

$$$$
1uud_lig
 OpenBabel11021811413D
libRbt.so/2013.1/901 2013/11/27
 25 25  0  0  0  0  0  0  0  0999 V2000
   -2.5574  -10.0338   -3.4175 C   0  0  0  0  0  0  0  0  0  0  0  0
   -4.8976   -9.3165   -5.0335 O   0  0  0  0  0  0  0  0  0  0  0  0
   -5.1450   -8.3438   -6.0596 C   0  0  0  0  0  0  0  0  0  0  0  0
   -2.3258  -11.0711   -2.3819 N   0  0  0  0  0  0  0  0  0  0  0  0
   -6.3528   -7.4745   -5.6848 C   0  0  0  0  0  0  0  0  0  0  0  0
   -2.6334  -10.5195   -1.0411 C   0  0  0  0  0  0  0  0  0  0  0  0
   -1.8217  -11.2708    0.0211 C   0  0  0  0  0  0  0  0  0  0  0  0
   -6.9870   -8.0057   -4.6668 N   0  0  0  0  0  0  0  0  0  0  0  0
   -7.8258   -9.0123   -4.8253 C   0  0  0  0  0  0  0  0  0  0  0  0
   -1.8803  -10.5149    1.3530 C   0  0  0  0  0  0  0  0  0  0  0  0
   -0.4932   -9.9587    1.6871 C   0  0  0  0  0  0  0  0  0  0  0  0
   -7.8904  -10.0378   -3.9227 N   0  0  0  0  0  0  0  0  0  0  0  0
   -8.6423   -9.0306   -5.9103 N   0  0  0  0  0  0  0  0  0  0  0  0
    0.4261  -10.6382    1.0433 N   0  0  0  0  0  0  0  0  0  0  0  0
    1.2217  -10.0598    0.1642 C   0  0  0  0  0  0  0  0  0  0  0  0
    0.7036   -9.6271   -1.0139 N   0  0  0  0  0  0  0  0  0  0  0  0
    2.5559   -9.8955    0.4073 N   0  0  0  0  0  0  0  0  0  0  0  0
   -4.0137  -10.3337   -5.5221 C   0  0  0  0  0  0  0  0  0  0  0  0
   -1.3687  -13.3363   -7.0184 O   0  0  0  0  0  0  0  0  0  0  0  0
   -2.8626  -10.7085   -4.7709 C   0  0  0  0  0  0  0  0  0  0  0  0
   -1.9803  -11.7013   -5.2749 C   0  0  0  0  0  0  0  0  0  0  0  0
   -2.2563  -12.3344   -6.5153 C   0  0  0  0  0  0  0  0  0  0  0  0
   -3.4144  -11.9752   -7.2559 C   0  0  0  0  0  0  0  0  0  0  0  0
   -4.2981  -10.9799   -6.7571 C   0  0  0  0  0  0  0  0  0  0  0  0
   -0.4057  -12.7313   -7.8862 C   0  0  0  0  0  0  0  0  0  0  0  0
  1  4  1  0  0  0  0
  2  3  1  0  0  0  0
  3  5  1  0  0  0  0
  4  6  1  0  0  0  0
  5  8  1  0  0  0  0
  6  7  1  0  0  0  0
  7 10  1  0  0  0  0
  8  9  1  0  0  0  0
  9 12  1  0  0  0  0
  9 13  1  0  0  0  0
 10 11  1  0  0  0  0
 11 14  1  0  0  0  0
 14 15  1  0  0  0  0
 15 16  1  0  0  0  0
 15 17  1  0  0  0  0
 18  2  1  0  0  0  0
 18 20  2  0  0  0  0
 18 24  1  0  0  0  0
 19 25  1  0  0  0  0
 20  1  1  0  0  0  0
 20 21  1  0  0  0  0
 21 22  2  0  0  0  0
 22 19  1  0  0  0  0
 22 23  1  0  0  0  0
 23 24  2  0  0  0  0
M  END
>  <CHROM.1>
-154.74351828,165.14957930,-11.93063794,-153.73713320,-79.99726393,167.12659081
-112.48888076,141.08233455,-50.23173743,39.86562785,-21.97102551,118.50532560
-69.43088177,32.54567504,19.63228240,129.99687341,128.66481382,-93.04109434
-2.99867068,-10.34349301,-3.56017653,-0.67696693,0.40081740,-1.90424764

>  <Name>
1uud_lig

>  <RI>
0

>  <Rbt.Current_Directory>
/home/itssahil/PROJECTS/Mol_Feturizer/New_Systems/rnas/1uud

>  <Rbt.Executable>
rbdock ($Id: //depot/dev/client3/rdock/2013.1/src/exe/rbdock.cxx#4 $)

>  <Rbt.Library>
libRbt.so (2013.1, Build901 2013/11/27)

>  <Rbt.Parameter_File>
/export/apps/rDock/src/rDock_2013.1_src/data/scripts/dock_solv.prm

>  <Rbt.Receptor>
prm/pocket_docking_4.prm

>  <SCORE>
-24.9024

>  <SCORE.INTER>
-27.0491

>  <SCORE.INTER.CONST>
1

>  <SCORE.INTER.POLAR>
-4.20315

>  <SCORE.INTER.ROT>
18

>  <SCORE.INTER.SOLV>
13.94

>  <SCORE.INTER.VDW>
-24.2689

>  <SCORE.INTER.norm>
-1.08196

>  <SCORE.INTRA>
2.14666

>  <SCORE.INTRA.DIHEDRAL>
6.47653

>  <SCORE.INTRA.DIHEDRAL.0>
30.6762

>  <SCORE.INTRA.POLAR>
0.0288659

>  <SCORE.INTRA.POLAR.0>
-0.0288659

>  <SCORE.INTRA.REPUL>
0

>  <SCORE.INTRA.REPUL.0>
0

>  <SCORE.INTRA.SOLV>
0.676225

>  <SCORE.INTRA.SOLV.lig_0>
-25.2195

>  <SCORE.INTRA.VDW>
-1.52787

>  <SCORE.INTRA.VDW.0>
4.14263

>  <SCORE.INTRA.norm>
0.0858663

>  <SCORE.RESTR>
0

>  <SCORE.RESTR.CAVITY>
0

>  <SCORE.RESTR.norm>
0

>  <SCORE.SYSTEM>
0

>  <SCORE.SYSTEM.CONST>
0

>  <SCORE.SYSTEM.DIHEDRAL>
0

>  <SCORE.SYSTEM.SOLV>
0

>  <SCORE.SYSTEM.norm>
0

>  <SCORE.heavy>
25

>  <SCORE.norm>
-0.996097

>  <RMSD>
5.037

$$$$
1uud_lig
 OpenBabel11021811413D
libRbt.so/2013.1/901 2013/11/27
 25 25  0  0  0  0  0  0  0  0999 V2000
   -2.9712   -9.8527   -1.7725 C   0  0  0  0  0  0  0  0  0  0  0  0
   -5.0911   -8.1925   -2.9353 O   0  0  0  0  0  0  0  0  0  0  0  0
   -5.2086   -7.1776   -3.9435 C   0  0  0  0  0  0  0  0  0  0  0  0
   -1.6981   -9.2221   -2.2012 N   0  0  0  0  0  0  0  0  0  0  0  0
   -6.6812   -6.9820   -4.3287 C   0  0  0  0  0  0  0  0  0  0  0  0
   -0.8893   -8.8648   -1.0116 C   0  0  0  0  0  0  0  0  0  0  0  0
    0.5190   -8.4501   -1.4547 C   0  0  0  0  0  0  0  0  0  0  0  0
   -7.4401   -7.0941   -3.2646 N   0  0  0  0  0  0  0  0  0  0  0  0
   -8.7568   -7.0660   -3.3501 C   0  0  0  0  0  0  0  0  0  0  0  0
    1.3764   -8.1232   -0.2272 C   0  0  0  0  0  0  0  0  0  0  0  0
    2.0627   -9.3981    0.2717 C   0  0  0  0  0  0  0  0  0  0  0  0
   -9.5006   -8.2129   -3.3044 N   0  0  0  0  0  0  0  0  0  0  0  0
   -9.3872   -5.8711   -3.4880 N   0  0  0  0  0  0  0  0  0  0  0  0
    1.3643   -9.9268    1.2484 N   0  0  0  0  0  0  0  0  0  0  0  0
    1.5877  -11.1576    1.6678 C   0  0  0  0  0  0  0  0  0  0  0  0
    0.5325  -11.9798    1.9002 N   0  0  0  0  0  0  0  0  0  0  0  0
    2.8549  -11.6202    1.8833 N   0  0  0  0  0  0  0  0  0  0  0  0
   -4.8023   -9.4585   -3.5423 C   0  0  0  0  0  0  0  0  0  0  0  0
   -3.9279  -13.2078   -5.3938 O   0  0  0  0  0  0  0  0  0  0  0  0
   -3.7768  -10.2935   -3.0122 C   0  0  0  0  0  0  0  0  0  0  0  0
   -3.4825  -11.5360   -3.6351 C   0  0  0  0  0  0  0  0  0  0  0  0
   -4.2234  -11.9549   -4.7713 C   0  0  0  0  0  0  0  0  0  0  0  0
   -5.2594  -11.1317   -5.2889 C   0  0  0  0  0  0  0  0  0  0  0  0
   -5.5549   -9.8863   -4.6711 C   0  0  0  0  0  0  0  0  0  0  0  0
   -2.7628  -13.0729   -6.2130 C   0  0  0  0  0  0  0  0  0  0  0  0
  1  4  1  0  0  0  0
  2  3  1  0  0  0  0
  3  5  1  0  0  0  0
  4  6  1  0  0  0  0
  5  8  1  0  0  0  0
  6  7  1  0  0  0  0
  7 10  1  0  0  0  0
  8  9  1  0  0  0  0
  9 12  1  0  0  0  0
  9 13  1  0  0  0  0
 10 11  1  0  0  0  0
 11 14  1  0  0  0  0
 14 15  1  0  0  0  0
 15 16  1  0  0  0  0
 15 17  1  0  0  0  0
 18  2  1  0  0  0  0
 18 20  2  0  0  0  0
 18 24  1  0  0  0  0
 19 25  1  0  0  0  0
 20  1  1  0  0  0  0
 20 21  1  0  0  0  0
 21 22  2  0  0  0  0
 22 19  1  0  0  0  0
 22 23  1  0  0  0  0
 23 24  2  0  0  0  0
M  END
>  <CHROM.1>
-176.92779052,95.28297690,37.47485721,169.89750548,-174.82950037,-178.14629080
88.62201768,101.11824977,78.68895075,133.89813150,-96.41263005,166.14711214
-135.44181613,160.97069747,69.80625743,133.81164479,-96.35867449,-78.57131252
-3.23169188,-9.57580805,-2.38370604,0.10914430,-0.52573356,0.66784933

>  <Name>
1uud_lig

>  <RI>
0

>  <Rbt.Current_Directory>
/home/itssahil/PROJECTS/Mol_Feturizer/New_Systems/rnas/1uud

>  <Rbt.Executable>
rbdock ($Id: //depot/dev/client3/rdock/2013.1/src/exe/rbdock.cxx#4 $)

>  <Rbt.Library>
libRbt.so (2013.1, Build901 2013/11/27)

>  <Rbt.Parameter_File>
/export/apps/rDock/src/rDock_2013.1_src/data/scripts/dock_solv.prm

>  <Rbt.Receptor>
prm/pocket_docking_3.prm

>  <SCORE>
-24.3271

>  <SCORE.INTER>
-21.5051

>  <SCORE.INTER.CONST>
1

>  <SCORE.INTER.POLAR>
-3.39725

>  <SCORE.INTER.ROT>
18

>  <SCORE.INTER.SOLV>
13.2716

>  <SCORE.INTER.VDW>
-23.0364

>  <SCORE.INTER.norm>
-0.860204

>  <SCORE.INTRA>
-3.58276

>  <SCORE.INTRA.DIHEDRAL>
-0.129613

>  <SCORE.INTRA.DIHEDRAL.0>
30.6762

>  <SCORE.INTRA.POLAR>
0.00867075

>  <SCORE.INTRA.POLAR.0>
-0.0288659

>  <SCORE.INTRA.REPUL>
0

>  <SCORE.INTRA.REPUL.0>
0

>  <SCORE.INTRA.SOLV>
-0.709996

>  <SCORE.INTRA.SOLV.lig_0>
-25.2195

>  <SCORE.INTRA.VDW>
-3.19244

>  <SCORE.INTRA.VDW.0>
4.14263

>  <SCORE.INTRA.norm>
-0.14331

>  <SCORE.RESTR>
0.760756

>  <SCORE.RESTR.CAVITY>
0.760756

>  <SCORE.RESTR.norm>
0.0304302

>  <SCORE.SYSTEM>
0

>  <SCORE.SYSTEM.CONST>
0

>  <SCORE.SYSTEM.DIHEDRAL>
0

>  <SCORE.SYSTEM.SOLV>
0

>  <SCORE.SYSTEM.norm>
0

>  <SCORE.heavy>
25

>  <SCORE.norm>
-0.973084

>  <RMSD>
5.040

$$$$
1uud_lig
 OpenBabel11021811413D
libRbt.so/2013.1/901 2013/11/27
 25 25  0  0  0  0  0  0  0  0999 V2000
   -4.2458  -10.2767   -3.0658 C   0  0  0  0  0  0  0  0  0  0  0  0
   -5.2362   -9.3392   -5.6624 O   0  0  0  0  0  0  0  0  0  0  0  0
   -6.6233   -9.5690   -5.3734 C   0  0  0  0  0  0  0  0  0  0  0  0
   -2.9432   -9.9478   -2.4356 N   0  0  0  0  0  0  0  0  0  0  0  0
   -6.8440   -9.6353   -3.8561 C   0  0  0  0  0  0  0  0  0  0  0  0
   -2.7243  -10.8147   -1.2535 C   0  0  0  0  0  0  0  0  0  0  0  0
   -1.6194  -10.2150   -0.3753 C   0  0  0  0  0  0  0  0  0  0  0  0
   -7.5958   -8.6321   -3.4698 N   0  0  0  0  0  0  0  0  0  0  0  0
   -7.2300   -7.3795   -3.6675 C   0  0  0  0  0  0  0  0  0  0  0  0
   -1.8380  -10.6202    1.0864 C   0  0  0  0  0  0  0  0  0  0  0  0
   -0.5406  -10.4150    1.8738 C   0  0  0  0  0  0  0  0  0  0  0  0
   -7.9285   -6.5548   -4.5057 N   0  0  0  0  0  0  0  0  0  0  0  0
   -6.1343   -6.8992   -3.0250 N   0  0  0  0  0  0  0  0  0  0  0  0
    0.3171  -11.3613    1.5735 N   0  0  0  0  0  0  0  0  0  0  0  0
    1.5717  -11.0847    1.2737 C   0  0  0  0  0  0  0  0  0  0  0  0
    1.8351  -10.1596    0.3154 N   0  0  0  0  0  0  0  0  0  0  0  0
    2.6111  -11.7147    1.8974 N   0  0  0  0  0  0  0  0  0  0  0  0
   -4.5114  -10.5747   -5.6116 C   0  0  0  0  0  0  0  0  0  0  0  0
   -2.3152  -14.2369   -5.4895 O   0  0  0  0  0  0  0  0  0  0  0  0
   -4.0084  -11.0635   -4.3714 C   0  0  0  0  0  0  0  0  0  0  0  0
   -3.2711  -12.2773   -4.3351 C   0  0  0  0  0  0  0  0  0  0  0  0
   -3.0540  -13.0134   -5.5295 C   0  0  0  0  0  0  0  0  0  0  0  0
   -3.5720  -12.5367   -6.7637 C   0  0  0  0  0  0  0  0  0  0  0  0
   -4.3071  -11.3210   -6.8053 C   0  0  0  0  0  0  0  0  0  0  0  0
   -0.9785  -13.9755   -5.0520 C   0  0  0  0  0  0  0  0  0  0  0  0
  1  4  1  0  0  0  0
  2  3  1  0  0  0  0
  3  5  1  0  0  0  0
  4  6  1  0  0  0  0
  5  8  1  0  0  0  0
  6  7  1  0  0  0  0
  7 10  1  0  0  0  0
  8  9  1  0  0  0  0
  9 12  1  0  0  0  0
  9 13  1  0  0  0  0
 10 11  1  0  0  0  0
 11 14  1  0  0  0  0
 14 15  1  0  0  0  0
 15 16  1  0  0  0  0
 15 17  1  0  0  0  0
 18  2  1  0  0  0  0
 18 20  2  0  0  0  0
 18 24  1  0  0  0  0
 19 25  1  0  0  0  0
 20  1  1  0  0  0  0
 20 21  1  0  0  0  0
 21 22  2  0  0  0  0
 22 19  1  0  0  0  0
 22 23  1  0  0  0  0
 23 24  2  0  0  0  0
M  END
>  <CHROM.1>
-105.69815418,82.30267346,115.01694771,-163.23890964,-59.48004383,151.72853166
162.13084536,114.38793748,31.81718696,71.37623536,-74.67516750,132.27893103
-52.03114250,170.15448960,73.00628439,-85.57016201,-122.20725292,-62.54589160
-3.21411151,-10.49861737,-2.83814868,2.75294847,0.62285592,-2.20015467

>  <Name>
1uud_lig

>  <RI>
0

>  <Rbt.Current_Directory>
/home/itssahil/PROJECTS/Mol_Feturizer/New_Systems/rnas/1uud

>  <Rbt.Executable>
rbdock ($Id: //depot/dev/client3/rdock/2013.1/src/exe/rbdock.cxx#4 $)

>  <Rbt.Library>
libRbt.so (2013.1, Build901 2013/11/27)

>  <Rbt.Parameter_File>
/export/apps/rDock/src/rDock_2013.1_src/data/scripts/dock_solv.prm

>  <Rbt.Receptor>
prm/pocket_docking_2.prm

>  <SCORE>
-19.6198

>  <SCORE.INTER>
-21.4957

>  <SCORE.INTER.CONST>
1

>  <SCORE.INTER.POLAR>
-3.56606

>  <SCORE.INTER.ROT>
18

>  <SCORE.INTER.SOLV>
11.2181

>  <SCORE.INTER.VDW>
-21.783

>  <SCORE.INTER.norm>
-0.859827

>  <SCORE.INTRA>
0.848719

>  <SCORE.INTRA.DIHEDRAL>
4.09679

>  <SCORE.INTRA.DIHEDRAL.0>
30.6762

>  <SCORE.INTRA.POLAR>
0.0288659

>  <SCORE.INTRA.POLAR.0>
-0.0288659

>  <SCORE.INTRA.REPUL>
0

>  <SCORE.INTRA.REPUL.0>
0

>  <SCORE.INTRA.SOLV>
-0.201967

>  <SCORE.INTRA.SOLV.lig_0>
-25.2195

>  <SCORE.INTRA.VDW>
-1.19684

>  <SCORE.INTRA.VDW.0>
4.14263

>  <SCORE.INTRA.norm>
0.0339487

>  <SCORE.RESTR>
1.02716

>  <SCORE.RESTR.CAVITY>
1.02716

>  <SCORE.RESTR.norm>
0.0410864

>  <SCORE.SYSTEM>
0

>  <SCORE.SYSTEM.CONST>
0

>  <SCORE.SYSTEM.DIHEDRAL>
0

>  <SCORE.SYSTEM.SOLV>
0

>  <SCORE.SYSTEM.norm>
0

>  <SCORE.heavy>
25

>  <SCORE.norm>
-0.784792

>  <RMSD>
5.096

$$$$
1uud_lig
 OpenBabel11021811413D
libRbt.so/2013.1/901 2013/11/27
 25 25  0  0  0  0  0  0  0  0999 V2000
   -2.8461   -9.0295   -2.4254 C   0  0  0  0  0  0  0  0  0  0  0  0
   -5.7084   -9.5993   -2.7171 O   0  0  0  0  0  0  0  0  0  0  0  0
   -6.4828   -9.0503   -3.7937 C   0  0  0  0  0  0  0  0  0  0  0  0
   -1.5800   -9.3222   -1.7089 N   0  0  0  0  0  0  0  0  0  0  0  0
   -5.6141   -8.1182   -4.6491 C   0  0  0  0  0  0  0  0  0  0  0  0
   -1.1274   -8.1159   -0.9762 C   0  0  0  0  0  0  0  0  0  0  0  0
    0.2481   -8.3809   -0.3522 C   0  0  0  0  0  0  0  0  0  0  0  0
   -6.3741   -7.2616   -5.2891 N   0  0  0  0  0  0  0  0  0  0  0  0
   -7.1452   -6.4068   -4.6437 C   0  0  0  0  0  0  0  0  0  0  0  0
    0.6181   -9.8592   -0.5148 C   0  0  0  0  0  0  0  0  0  0  0  0
    1.3953  -10.3308    0.7176 C   0  0  0  0  0  0  0  0  0  0  0  0
   -6.8872   -5.0637   -4.6528 N   0  0  0  0  0  0  0  0  0  0  0  0
   -8.2185   -6.8718   -3.9536 N   0  0  0  0  0  0  0  0  0  0  0  0
    0.9171  -11.4797    1.1330 N   0  0  0  0  0  0  0  0  0  0  0  0
   -0.3114  -11.5860    1.6019 C   0  0  0  0  0  0  0  0  0  0  0  0
   -0.5116  -12.1809    2.8059 N   0  0  0  0  0  0  0  0  0  0  0  0
   -1.3870  -11.1209    0.8998 N   0  0  0  0  0  0  0  0  0  0  0  0
   -4.7654  -10.5519   -3.2248 C   0  0  0  0  0  0  0  0  0  0  0  0
   -1.9726  -13.3834   -4.7846 O   0  0  0  0  0  0  0  0  0  0  0  0
   -3.3659  -10.3115   -3.1084 C   0  0  0  0  0  0  0  0  0  0  0  0
   -2.4396  -11.2508   -3.6356 C   0  0  0  0  0  0  0  0  0  0  0  0
   -2.9071  -12.4377   -4.2585 C   0  0  0  0  0  0  0  0  0  0  0  0
   -4.3023  -12.6877   -4.3577 C   0  0  0  0  0  0  0  0  0  0  0  0
   -5.2327  -11.7490   -3.8349 C   0  0  0  0  0  0  0  0  0  0  0  0
   -2.1610  -13.5083   -6.1972 C   0  0  0  0  0  0  0  0  0  0  0  0
  1  4  1  0  0  0  0
  2  3  1  0  0  0  0
  3  5  1  0  0  0  0
  4  6  1  0  0  0  0
  5  8  1  0  0  0  0
  6  7  1  0  0  0  0
  7 10  1  0  0  0  0
  8  9  1  0  0  0  0
  9 12  1  0  0  0  0
  9 13  1  0  0  0  0
 10 11  1  0  0  0  0
 11 14  1  0  0  0  0
 14 15  1  0  0  0  0
 15 16  1  0  0  0  0
 15 17  1  0  0  0  0
 18  2  1  0  0  0  0
 18 20  2  0  0  0  0
 18 24  1  0  0  0  0
 19 25  1  0  0  0  0
 20  1  1  0  0  0  0
 20 21  1  0  0  0  0
 21 22  2  0  0  0  0
 22 19  1  0  0  0  0
 22 23  1  0  0  0  0
 23 24  2  0  0  0  0
M  END
>  <CHROM.1>
-176.16906802,-71.15901854,-156.74118687,-174.46728443,61.04993449,-8.05763537
-144.57373198,111.13099145,90.98455575,113.07538324,133.44882118,-64.98104602
-128.49790512,-1.98289182,-96.34834553,115.83364284,146.06876103,-117.93253731
-3.12685462,-9.95359819,-2.44248316,3.11270171,0.74103644,-2.52538007

>  <Name>
1uud_lig

>  <RI>
0

>  <Rbt.Current_Directory>
/home/itssahil/PROJECTS/Mol_Feturizer/New_Systems/rnas/1uud

>  <Rbt.Executable>
rbdock ($Id: //depot/dev/client3/rdock/2013.1/src/exe/rbdock.cxx#4 $)

>  <Rbt.Library>
libRbt.so (2013.1, Build901 2013/11/27)

>  <Rbt.Parameter_File>
/export/apps/rDock/src/rDock_2013.1_src/data/scripts/dock_solv.prm

>  <Rbt.Receptor>
prm/pocket_docking_2.prm

>  <SCORE>
-17.0613

>  <SCORE.INTER>
-19.0826

>  <SCORE.INTER.CONST>
1

>  <SCORE.INTER.POLAR>
-3.56251

>  <SCORE.INTER.ROT>
18

>  <SCORE.INTER.SOLV>
12.2871

>  <SCORE.INTER.VDW>
-20.5424

>  <SCORE.INTER.norm>
-0.763304

>  <SCORE.INTRA>
0.96517

>  <SCORE.INTRA.DIHEDRAL>
3.88702

>  <SCORE.INTRA.DIHEDRAL.0>
30.6762

>  <SCORE.INTRA.POLAR>
-0.902288

>  <SCORE.INTRA.POLAR.0>
-0.0288659

>  <SCORE.INTRA.REPUL>
0

>  <SCORE.INTRA.REPUL.0>
0

>  <SCORE.INTRA.SOLV>
0.288644

>  <SCORE.INTRA.SOLV.lig_0>
-25.2195

>  <SCORE.INTRA.VDW>
1.94512

>  <SCORE.INTRA.VDW.0>
4.14263

>  <SCORE.INTRA.norm>
0.0386068

>  <SCORE.RESTR>
1.05607

>  <SCORE.RESTR.CAVITY>
1.05607

>  <SCORE.RESTR.norm>
0.042243

>  <SCORE.SYSTEM>
0

>  <SCORE.SYSTEM.CONST>
0

>  <SCORE.SYSTEM.DIHEDRAL>
0

>  <SCORE.SYSTEM.SOLV>
0

>  <SCORE.SYSTEM.norm>
0

>  <SCORE.heavy>
25

>  <SCORE.norm>
-0.682454

>  <RMSD>
5.119

$$$$
1uud_lig
 OpenBabel11021811413D
libRbt.so/2013.1/901 2013/11/27
 25 25  0  0  0  0  0  0  0  0999 V2000
   -4.1149   -9.6358   -1.5592 C   0  0  0  0  0  0  0  0  0  0  0  0
   -6.0329   -9.1039   -3.7135 O   0  0  0  0  0  0  0  0  0  0  0  0
   -7.3285   -9.7097   -3.8349 C   0  0  0  0  0  0  0  0  0  0  0  0
   -2.9286   -8.7567   -1.4110 N   0  0  0  0  0  0  0  0  0  0  0  0
   -8.4015   -8.6301   -4.0304 C   0  0  0  0  0  0  0  0  0  0  0  0
   -2.6501   -8.5272    0.0266 C   0  0  0  0  0  0  0  0  0  0  0  0
   -1.4889   -7.5363    0.1722 C   0  0  0  0  0  0  0  0  0  0  0  0
   -8.5207   -7.9155   -2.9368 N   0  0  0  0  0  0  0  0  0  0  0  0
   -8.0951   -6.6676   -2.8781 C   0  0  0  0  0  0  0  0  0  0  0  0
   -0.1759   -8.2069   -0.2462 C   0  0  0  0  0  0  0  0  0  0  0  0
    0.2213   -9.2518    0.8005 C   0  0  0  0  0  0  0  0  0  0  0  0
   -7.0933   -6.2934   -2.0254 N   0  0  0  0  0  0  0  0  0  0  0  0
   -8.6659   -5.7336   -3.6819 N   0  0  0  0  0  0  0  0  0  0  0  0
    1.2561   -9.9371    0.3753 N   0  0  0  0  0  0  0  0  0  0  0  0
    1.6274  -11.0595    0.9609 C   0  0  0  0  0  0  0  0  0  0  0  0
    0.7303  -11.7376    1.7218 N   0  0  0  0  0  0  0  0  0  0  0  0
    2.8956  -11.5493    0.8279 N   0  0  0  0  0  0  0  0  0  0  0  0
   -5.0091  -10.0825   -3.9343 C   0  0  0  0  0  0  0  0  0  0  0  0
   -1.9392  -12.9708   -4.6300 O   0  0  0  0  0  0  0  0  0  0  0  0
   -4.0542  -10.3675   -2.9161 C   0  0  0  0  0  0  0  0  0  0  0  0
   -3.0293  -11.3223   -3.1533 C   0  0  0  0  0  0  0  0  0  0  0  0
   -2.9693  -12.0073   -4.3953 C   0  0  0  0  0  0  0  0  0  0  0  0
   -3.9329  -11.7380   -5.4042 C   0  0  0  0  0  0  0  0  0  0  0  0
   -4.9578  -10.7810   -5.1725 C   0  0  0  0  0  0  0  0  0  0  0  0
   -0.9334  -12.4013   -5.4728 C   0  0  0  0  0  0  0  0  0  0  0  0
  1  4  1  0  0  0  0
  2  3  1  0  0  0  0
  3  5  1  0  0  0  0
  4  6  1  0  0  0  0
  5  8  1  0  0  0  0
  6  7  1  0  0  0  0
  7 10  1  0  0  0  0
  8  9  1  0  0  0  0
  9 12  1  0  0  0  0
  9 13  1  0  0  0  0
 10 11  1  0  0  0  0
 11 14  1  0  0  0  0
 14 15  1  0  0  0  0
 15 16  1  0  0  0  0
 15 17  1  0  0  0  0
 18  2  1  0  0  0  0
 18 20  2  0  0  0  0
 18 24  1  0  0  0  0
 19 25  1  0  0  0  0
 20  1  1  0  0  0  0
 20 21  1  0  0  0  0
 21 22  2  0  0  0  0
 22 19  1  0  0  0  0
 22 23  1  0  0  0  0
 23 24  2  0  0  0  0
M  END
>  <CHROM.1>
-155.31695754,-162.68904337,-67.62800962,-175.83823947,108.62381006,-71.21745771
-70.68080655,-116.91530392,-148.35656570,172.61435340,172.69801289,-166.39519259
20.61966380,-99.62000790,21.40138628,-120.18536456,-113.04655866,-103.15655427
-3.39525705,-9.64162484,-2.21114871,3.04093080,0.49321457,-2.31491232

>  <Name>
1uud_lig

>  <RI>
0

>  <Rbt.Current_Directory>
/home/itssahil/PROJECTS/Mol_Feturizer/New_Systems/rnas/1uud

>  <Rbt.Executable>
rbdock ($Id: //depot/dev/client3/rdock/2013.1/src/exe/rbdock.cxx#4 $)

>  <Rbt.Library>
libRbt.so (2013.1, Build901 2013/11/27)

>  <Rbt.Parameter_File>
/export/apps/rDock/src/rDock_2013.1_src/data/scripts/dock_solv.prm

>  <Rbt.Receptor>
prm/pocket_docking_3.prm

>  <SCORE>
-36.4314

>  <SCORE.INTER>
-28.6358

>  <SCORE.INTER.CONST>
1

>  <SCORE.INTER.POLAR>
-4.55256

>  <SCORE.INTER.ROT>
18

>  <SCORE.INTER.SOLV>
9.43233

>  <SCORE.INTER.VDW>
-22.6594

>  <SCORE.INTER.norm>
-1.14543

>  <SCORE.INTRA>
-7.8334

>  <SCORE.INTRA.DIHEDRAL>
-8.14399

>  <SCORE.INTRA.DIHEDRAL.0>
30.6762

>  <SCORE.INTRA.POLAR>
0.0288659

>  <SCORE.INTRA.POLAR.0>
-0.0288659

>  <SCORE.INTRA.REPUL>
0

>  <SCORE.INTRA.REPUL.0>
0

>  <SCORE.INTRA.SOLV>
-0.822461

>  <SCORE.INTRA.SOLV.lig_0>
-25.2195

>  <SCORE.INTRA.VDW>
-3.44832

>  <SCORE.INTRA.VDW.0>
4.14263

>  <SCORE.INTRA.norm>
-0.313336

>  <SCORE.RESTR>
0.0377788

>  <SCORE.RESTR.CAVITY>
0.0377788

>  <SCORE.RESTR.norm>
0.00151115

>  <SCORE.SYSTEM>
0

>  <SCORE.SYSTEM.CONST>
0

>  <SCORE.SYSTEM.DIHEDRAL>
0

>  <SCORE.SYSTEM.SOLV>
0

>  <SCORE.SYSTEM.norm>
0

>  <SCORE.heavy>
25

>  <SCORE.norm>
-1.45726

>  <RMSD>
5.123

$$$$
1uud_lig
 OpenBabel11021811413D
libRbt.so/2013.1/901 2013/11/27
 25 25  0  0  0  0  0  0  0  0999 V2000
   -3.4855   -9.2689   -1.7737 C   0  0  0  0  0  0  0  0  0  0  0  0
   -6.1319   -9.9744   -2.8231 O   0  0  0  0  0  0  0  0  0  0  0  0
   -7.2626  -10.2839   -3.6514 C   0  0  0  0  0  0  0  0  0  0  0  0
   -2.4748   -8.3498   -2.3532 N   0  0  0  0  0  0  0  0  0  0  0  0
   -8.4658   -9.4204   -3.2488 C   0  0  0  0  0  0  0  0  0  0  0  0
   -2.2498   -7.2080   -1.4353 C   0  0  0  0  0  0  0  0  0  0  0  0
   -1.4478   -7.6802   -0.2165 C   0  0  0  0  0  0  0  0  0  0  0  0
   -8.5034   -8.3354   -3.9851 N   0  0  0  0  0  0  0  0  0  0  0  0
   -8.0068   -7.1912   -3.5537 C   0  0  0  0  0  0  0  0  0  0  0  0
    0.0060   -7.9478   -0.6210 C   0  0  0  0  0  0  0  0  0  0  0  0
    0.7770   -8.5043    0.5795 C   0  0  0  0  0  0  0  0  0  0  0  0
   -8.4577   -5.9913   -4.0305 N   0  0  0  0  0  0  0  0  0  0  0  0
   -7.0246   -7.2061   -2.6159 N   0  0  0  0  0  0  0  0  0  0  0  0
    0.4898   -9.7738    0.7436 N   0  0  0  0  0  0  0  0  0  0  0  0
    1.4250  -10.7033    0.7006 C   0  0  0  0  0  0  0  0  0  0  0  0
    1.1026  -11.9825    1.0219 N   0  0  0  0  0  0  0  0  0  0  0  0
    2.7117  -10.4068    0.3503 N   0  0  0  0  0  0  0  0  0  0  0  0
   -5.0077  -10.7776   -3.2045 C   0  0  0  0  0  0  0  0  0  0  0  0
   -1.6642  -13.1582   -4.3895 O   0  0  0  0  0  0  0  0  0  0  0  0
   -3.7039  -10.4665   -2.7215 C   0  0  0  0  0  0  0  0  0  0  0  0
   -2.5927  -11.2548   -3.1240 C   0  0  0  0  0  0  0  0  0  0  0  0
   -2.7838  -12.3640   -3.9892 C   0  0  0  0  0  0  0  0  0  0  0  0
   -4.0865  -12.6868   -4.4558 C   0  0  0  0  0  0  0  0  0  0  0  0
   -5.2006  -11.8988   -4.0586 C   0  0  0  0  0  0  0  0  0  0  0  0
   -1.2294  -12.7522   -5.6905 C   0  0  0  0  0  0  0  0  0  0  0  0
  1  4  1  0  0  0  0
  2  3  1  0  0  0  0
  3  5  1  0  0  0  0
  4  6  1  0  0  0  0
  5  8  1  0  0  0  0
  6  7  1  0  0  0  0
  7 10  1  0  0  0  0
  8  9  1  0  0  0  0
  9 12  1  0  0  0  0
  9 13  1  0  0  0  0
 10 11  1  0  0  0  0
 11 14  1  0  0  0  0
 14 15  1  0  0  0  0
 15 16  1  0  0  0  0
 15 17  1  0  0  0  0
 18  2  1  0  0  0  0
 18 20  2  0  0  0  0
 18 24  1  0  0  0  0
 19 25  1  0  0  0  0
 20  1  1  0  0  0  0
 20 21  1  0  0  0  0
 21 22  2  0  0  0  0
 22 19  1  0  0  0  0
 22 23  1  0  0  0  0
 23 24  2  0  0  0  0
M  END
>  <CHROM.1>
-179.22525498,-179.74720645,93.28969549,73.07241245,-97.19448169,72.42192115
-176.38134765,-154.79662851,146.61358489,-150.08376071,77.94582439,120.73994590
172.77813240,-172.65208103,-23.77375919,167.09285985,-124.11548565,-98.76474456
-3.30627373,-9.78221194,-2.31837451,3.08903127,0.43589582,-2.56942264

>  <Name>
1uud_lig

>  <RI>
0

>  <Rbt.Current_Directory>
/home/itssahil/PROJECTS/Mol_Feturizer/New_Systems/rnas/1uud

>  <Rbt.Executable>
rbdock ($Id: //depot/dev/client3/rdock/2013.1/src/exe/rbdock.cxx#4 $)

>  <Rbt.Library>
libRbt.so (2013.1, Build901 2013/11/27)

>  <Rbt.Parameter_File>
/export/apps/rDock/src/rDock_2013.1_src/data/scripts/dock_solv.prm

>  <Rbt.Receptor>
prm/pocket_docking_5.prm

>  <SCORE>
-34.4959

>  <SCORE.INTER>
-26.7869

>  <SCORE.INTER.CONST>
1

>  <SCORE.INTER.POLAR>
-3.84258

>  <SCORE.INTER.ROT>
18

>  <SCORE.INTER.SOLV>
10.6623

>  <SCORE.INTER.VDW>
-24.2034

>  <SCORE.INTER.norm>
-1.07147

>  <SCORE.INTRA>
-7.70902

>  <SCORE.INTRA.DIHEDRAL>
-10.0427

>  <SCORE.INTRA.DIHEDRAL.0>
30.6762

>  <SCORE.INTRA.POLAR>
-0.90028

>  <SCORE.INTRA.POLAR.0>
-0.0288659

>  <SCORE.INTRA.REPUL>
0

>  <SCORE.INTRA.REPUL.0>
0

>  <SCORE.INTRA.SOLV>
-0.473906

>  <SCORE.INTRA.SOLV.lig_0>
-25.2195

>  <SCORE.INTRA.VDW>
0.610232

>  <SCORE.INTRA.VDW.0>
4.14263

>  <SCORE.INTRA.norm>
-0.308361

>  <SCORE.RESTR>
0

>  <SCORE.RESTR.CAVITY>
0

>  <SCORE.RESTR.norm>
0

>  <SCORE.SYSTEM>
0

>  <SCORE.SYSTEM.CONST>
0

>  <SCORE.SYSTEM.DIHEDRAL>
0

>  <SCORE.SYSTEM.SOLV>
0

>  <SCORE.SYSTEM.norm>
0

>  <SCORE.heavy>
25

>  <SCORE.norm>
-1.37984

>  <RMSD>
5.124

$$$$
1uud_lig
 OpenBabel11021811413D
libRbt.so/2013.1/901 2013/11/27
 25 25  0  0  0  0  0  0  0  0999 V2000
   -3.5478  -10.5090   -2.0717 C   0  0  0  0  0  0  0  0  0  0  0  0
   -4.2801  -10.6093    0.7667 O   0  0  0  0  0  0  0  0  0  0  0  0
   -3.0392   -9.9150    0.9622 C   0  0  0  0  0  0  0  0  0  0  0  0
   -2.7821   -9.5784   -2.9375 N   0  0  0  0  0  0  0  0  0  0  0  0
   -2.1708  -10.6605    1.9847 C   0  0  0  0  0  0  0  0  0  0  0  0
   -1.8921   -8.7352   -2.1046 C   0  0  0  0  0  0  0  0  0  0  0  0
   -2.6548   -7.4891   -1.6385 C   0  0  0  0  0  0  0  0  0  0  0  0
   -0.9011  -10.4592    1.7237 N   0  0  0  0  0  0  0  0  0  0  0  0
    0.0018  -11.4012    1.9217 C   0  0  0  0  0  0  0  0  0  0  0  0
   -1.8727   -6.2270   -2.0181 C   0  0  0  0  0  0  0  0  0  0  0  0
   -0.7968   -5.9550   -0.9627 C   0  0  0  0  0  0  0  0  0  0  0  0
   -0.1735  -12.3713    2.8698 N   0  0  0  0  0  0  0  0  0  0  0  0
    1.1313  -11.4064    1.1677 N   0  0  0  0  0  0  0  0  0  0  0  0
    0.1478   -6.8616   -1.0457 N   0  0  0  0  0  0  0  0  0  0  0  0
    0.3722   -7.7151   -0.0650 C   0  0  0  0  0  0  0  0  0  0  0  0
    1.4302   -8.5616   -0.1529 N   0  0  0  0  0  0  0  0  0  0  0  0
   -0.4407   -7.7738    1.0313 N   0  0  0  0  0  0  0  0  0  0  0  0
   -5.1201   -9.8730   -0.1316 C   0  0  0  0  0  0  0  0  0  0  0  0
   -7.6130   -7.6361   -2.7834 O   0  0  0  0  0  0  0  0  0  0  0  0
   -4.7977   -9.7945   -1.5172 C   0  0  0  0  0  0  0  0  0  0  0  0
   -5.6239   -9.0430   -2.3951 C   0  0  0  0  0  0  0  0  0  0  0  0
   -6.7809   -8.3885   -1.8968 C   0  0  0  0  0  0  0  0  0  0  0  0
   -7.1140   -8.4824   -0.5187 C   0  0  0  0  0  0  0  0  0  0  0  0
   -6.2884   -9.2303    0.3640 C   0  0  0  0  0  0  0  0  0  0  0  0
   -8.3984   -8.5299   -3.5776 C   0  0  0  0  0  0  0  0  0  0  0  0
  1  4  1  0  0  0  0
  2  3  1  0  0  0  0
  3  5  1  0  0  0  0
  4  6  1  0  0  0  0
  5  8  1  0  0  0  0
  6  7  1  0  0  0  0
  7 10  1  0  0  0  0
  8  9  1  0  0  0  0
  9 12  1  0  0  0  0
  9 13  1  0  0  0  0
 10 11  1  0  0  0  0
 11 14  1  0  0  0  0
 14 15  1  0  0  0  0
 15 16  1  0  0  0  0
 15 17  1  0  0  0  0
 18  2  1  0  0  0  0
 18 20  2  0  0  0  0
 18 24  1  0  0  0  0
 19 25  1  0  0  0  0
 20  1  1  0  0  0  0
 20 21  1  0  0  0  0
 21 22  2  0  0  0  0
 22 19  1  0  0  0  0
 22 23  1  0  0  0  0
 23 24  2  0  0  0  0
M  END
>  <CHROM.1>
83.95946567,176.80152529,150.28350236,-87.56703912,-144.89966414,-126.08863071
-82.92126340,-27.61170686,-0.06245462,23.46387581,70.26057225,-115.04192301
-174.66490627,133.95403615,-135.44079617,71.04331312,-132.45505672,75.63221618
-2.82495698,-9.10415220,-0.50304176,2.73636632,-0.23301098,-0.69886068

>  <Name>
1uud_lig

>  <RI>
0

>  <Rbt.Current_Directory>
/home/itssahil/PROJECTS/Mol_Feturizer/New_Systems/rnas/1uud

>  <Rbt.Executable>
rbdock ($Id: //depot/dev/client3/rdock/2013.1/src/exe/rbdock.cxx#4 $)

>  <Rbt.Library>
libRbt.so (2013.1, Build901 2013/11/27)

>  <Rbt.Parameter_File>
/export/apps/rDock/src/rDock_2013.1_src/data/scripts/dock_solv.prm

>  <Rbt.Receptor>
prm/pocket_docking_4.prm

>  <SCORE>
-22.4403

>  <SCORE.INTER>
-15.3655

>  <SCORE.INTER.CONST>
1

>  <SCORE.INTER.POLAR>
-3.64386

>  <SCORE.INTER.ROT>
18

>  <SCORE.INTER.SOLV>
9.41959

>  <SCORE.INTER.VDW>
-16.8374

>  <SCORE.INTER.norm>
-0.614622

>  <SCORE.INTRA>
-7.11274

>  <SCORE.INTRA.DIHEDRAL>
1.74129

>  <SCORE.INTRA.DIHEDRAL.0>
30.6762

>  <SCORE.INTRA.POLAR>
-1.54889

>  <SCORE.INTRA.POLAR.0>
-0.0288659

>  <SCORE.INTRA.REPUL>
0

>  <SCORE.INTRA.REPUL.0>
0

>  <SCORE.INTRA.SOLV>
2.66324

>  <SCORE.INTRA.SOLV.lig_0>
-25.2195

>  <SCORE.INTRA.VDW>
-4.0488

>  <SCORE.INTRA.VDW.0>
4.14263

>  <SCORE.INTRA.norm>
-0.28451

>  <SCORE.RESTR>
0.0380248

>  <SCORE.RESTR.CAVITY>
0.0380248

>  <SCORE.RESTR.norm>
0.00152099

>  <SCORE.SYSTEM>
0

>  <SCORE.SYSTEM.CONST>
0

>  <SCORE.SYSTEM.DIHEDRAL>
0

>  <SCORE.SYSTEM.SOLV>
0

>  <SCORE.SYSTEM.norm>
0

>  <SCORE.heavy>
25

>  <SCORE.norm>
-0.89761

>  <RMSD>
5.126

$$$$
1uud_lig
 OpenBabel11021811413D
libRbt.so/2013.1/901 2013/11/27
 25 25  0  0  0  0  0  0  0  0999 V2000
   -3.2485   -9.5343   -2.6966 C   0  0  0  0  0  0  0  0  0  0  0  0
   -5.2168   -9.1883   -4.8434 O   0  0  0  0  0  0  0  0  0  0  0  0
   -6.5482   -9.6456   -5.1238 C   0  0  0  0  0  0  0  0  0  0  0  0
   -3.2930  -10.3263   -1.4425 N   0  0  0  0  0  0  0  0  0  0  0  0
   -7.4878   -8.4489   -5.3240 C   0  0  0  0  0  0  0  0  0  0  0  0
   -2.1491   -9.9576   -0.5751 C   0  0  0  0  0  0  0  0  0  0  0  0
   -2.4154  -10.4380    0.8567 C   0  0  0  0  0  0  0  0  0  0  0  0
   -7.7265   -7.8705   -4.1710 N   0  0  0  0  0  0  0  0  0  0  0  0
   -7.0493   -6.8076   -3.7790 C   0  0  0  0  0  0  0  0  0  0  0  0
   -1.2100  -10.1169    1.7469 C   0  0  0  0  0  0  0  0  0  0  0  0
   -0.1573  -11.2194    1.6001 C   0  0  0  0  0  0  0  0  0  0  0  0
   -7.5005   -5.5407   -4.0283 N   0  0  0  0  0  0  0  0  0  0  0  0
   -5.8773   -6.9760   -3.1141 N   0  0  0  0  0  0  0  0  0  0  0  0
    0.7863  -10.8275    0.7772 N   0  0  0  0  0  0  0  0  0  0  0  0
    2.0627  -11.0166    1.0518 C   0  0  0  0  0  0  0  0  0  0  0  0
    3.0017  -10.3730    0.3117 N   0  0  0  0  0  0  0  0  0  0  0  0
    2.4615  -11.8522    2.0562 N   0  0  0  0  0  0  0  0  0  0  0  0
   -4.2924  -10.2802   -4.9314 C   0  0  0  0  0  0  0  0  0  0  0  0
   -1.5182  -13.5147   -5.2360 O   0  0  0  0  0  0  0  0  0  0  0  0
   -3.3168  -10.4812   -3.9127 C   0  0  0  0  0  0  0  0  0  0  0  0
   -2.3901  -11.5526   -4.0209 C   0  0  0  0  0  0  0  0  0  0  0  0
   -2.4495  -12.4347   -5.1317 C   0  0  0  0  0  0  0  0  0  0  0  0
   -3.4346  -12.2468   -6.1382 C   0  0  0  0  0  0  0  0  0  0  0  0
   -4.3614  -11.1741   -6.0359 C   0  0  0  0  0  0  0  0  0  0  0  0
   -2.2124  -14.7595   -5.1139 C   0  0  0  0  0  0  0  0  0  0  0  0
  1  4  1  0  0  0  0
  2  3  1  0  0  0  0
  3  5  1  0  0  0  0
  4  6  1  0  0  0  0
  5  8  1  0  0  0  0
  6  7  1  0  0  0  0
  7 10  1  0  0  0  0
  8  9  1  0  0  0  0
  9 12  1  0  0  0  0
  9 13  1  0  0  0  0
 10 11  1  0  0  0  0
 11 14  1  0  0  0  0
 14 15  1  0  0  0  0
 15 16  1  0  0  0  0
 15 17  1  0  0  0  0
 18  2  1  0  0  0  0
 18 20  2  0  0  0  0
 18 24  1  0  0  0  0
 19 25  1  0  0  0  0
 20  1  1  0  0  0  0
 20 21  1  0  0  0  0
 21 22  2  0  0  0  0
 22 19  1  0  0  0  0
 22 23  1  0  0  0  0
 23 24  2  0  0  0  0
M  END
>  <CHROM.1>
127.06610976,-168.05434418,-72.80395578,163.04695013,96.95515015,177.46346899
-83.72057064,92.76107420,-59.38156597,47.36370075,99.77543607,135.38583103
-167.26558171,24.91257571,56.83215795,-133.34914822,126.97315890,113.61417183
-2.99892758,-10.23050311,-2.62531746,2.87291015,0.64803968,-2.25352607

>  <Name>
1uud_lig

>  <RI>
0

>  <Rbt.Current_Directory>
/home/itssahil/PROJECTS/Mol_Feturizer/New_Systems/rnas/1uud

>  <Rbt.Executable>
rbdock ($Id: //depot/dev/client3/rdock/2013.1/src/exe/rbdock.cxx#4 $)

>  <Rbt.Library>
libRbt.so (2013.1, Build901 2013/11/27)

>  <Rbt.Parameter_File>
/export/apps/rDock/src/rDock_2013.1_src/data/scripts/dock_solv.prm

>  <Rbt.Receptor>
prm/pocket_docking_2.prm

>  <SCORE>
-33.8098

>  <SCORE.INTER>
-28.205

>  <SCORE.INTER.CONST>
1

>  <SCORE.INTER.POLAR>
-4.19734

>  <SCORE.INTER.ROT>
18

>  <SCORE.INTER.SOLV>
12.0809

>  <SCORE.INTER.VDW>
-24.4392

>  <SCORE.INTER.norm>
-1.1282

>  <SCORE.INTRA>
-6.88867

>  <SCORE.INTRA.DIHEDRAL>
-2.17634

>  <SCORE.INTRA.DIHEDRAL.0>
30.6762

>  <SCORE.INTRA.POLAR>
-0.671843

>  <SCORE.INTRA.POLAR.0>
-0.0288659

>  <SCORE.INTRA.REPUL>
0

>  <SCORE.INTRA.REPUL.0>
0

>  <SCORE.INTRA.SOLV>
-0.309175

>  <SCORE.INTRA.SOLV.lig_0>
-25.2195

>  <SCORE.INTRA.VDW>
-3.36164

>  <SCORE.INTRA.VDW.0>
4.14263

>  <SCORE.INTRA.norm>
-0.275547

>  <SCORE.RESTR>
1.28381

>  <SCORE.RESTR.CAVITY>
1.28381

>  <SCORE.RESTR.norm>
0.0513525

>  <SCORE.SYSTEM>
0

>  <SCORE.SYSTEM.CONST>
0

>  <SCORE.SYSTEM.DIHEDRAL>
0

>  <SCORE.SYSTEM.SOLV>
0

>  <SCORE.SYSTEM.norm>
0

>  <SCORE.heavy>
25

>  <SCORE.norm>
-1.35239

>  <RMSD>
5.135

$$$$
1uud_lig
 OpenBabel11021811413D
libRbt.so/2013.1/901 2013/11/27
 25 25  0  0  0  0  0  0  0  0999 V2000
   -1.9530  -10.3706   -2.2615 C   0  0  0  0  0  0  0  0  0  0  0  0
   -4.8479  -10.6683   -2.6270 O   0  0  0  0  0  0  0  0  0  0  0  0
   -5.7465   -9.8353   -3.3746 C   0  0  0  0  0  0  0  0  0  0  0  0
   -2.1193   -8.9368   -2.6058 N   0  0  0  0  0  0  0  0  0  0  0  0
   -6.5060   -8.8943   -2.4297 C   0  0  0  0  0  0  0  0  0  0  0  0
   -0.8943   -8.1871   -2.2394 C   0  0  0  0  0  0  0  0  0  0  0  0
   -0.7006   -8.2330   -0.7188 C   0  0  0  0  0  0  0  0  0  0  0  0
   -7.0236   -7.8997   -3.1106 N   0  0  0  0  0  0  0  0  0  0  0  0
   -8.0237   -8.0857   -3.9515 C   0  0  0  0  0  0  0  0  0  0  0  0
    0.7258   -7.8010   -0.3619 C   0  0  0  0  0  0  0  0  0  0  0  0
    1.6206   -9.0382   -0.2435 C   0  0  0  0  0  0  0  0  0  0  0  0
   -7.9085   -7.7767   -5.2788 N   0  0  0  0  0  0  0  0  0  0  0  0
   -9.1944   -8.5943   -3.4876 N   0  0  0  0  0  0  0  0  0  0  0  0
    1.3621   -9.6692    0.8773 N   0  0  0  0  0  0  0  0  0  0  0  0
    1.6232  -10.9544    1.0209 C   0  0  0  0  0  0  0  0  0  0  0  0
    0.6114  -11.8051    1.3310 N   0  0  0  0  0  0  0  0  0  0  0  0
    2.8889  -11.4471    0.8751 N   0  0  0  0  0  0  0  0  0  0  0  0
   -3.9697  -11.3686   -3.5175 C   0  0  0  0  0  0  0  0  0  0  0  0
   -1.3710  -13.4292   -6.2102 O   0  0  0  0  0  0  0  0  0  0  0  0
   -2.5570  -11.2474   -3.3781 C   0  0  0  0  0  0  0  0  0  0  0  0
   -1.6953  -11.9270   -4.2803 C   0  0  0  0  0  0  0  0  0  0  0  0
   -2.2406  -12.7430   -5.3061 C   0  0  0  0  0  0  0  0  0  0  0  0
   -3.6491  -12.8800   -5.4338 C   0  0  0  0  0  0  0  0  0  0  0  0
   -4.5150  -12.1991   -4.5357 C   0  0  0  0  0  0  0  0  0  0  0  0
   -1.3399  -12.7384   -7.4625 C   0  0  0  0  0  0  0  0  0  0  0  0
  1  4  1  0  0  0  0
  2  3  1  0  0  0  0
  3  5  1  0  0  0  0
  4  6  1  0  0  0  0
  5  8  1  0  0  0  0
  6  7  1  0  0  0  0
  7 10  1  0  0  0  0
  8  9  1  0  0  0  0
  9 12  1  0  0  0  0
  9 13  1  0  0  0  0
 10 11  1  0  0  0  0
 11 14  1  0  0  0  0
 14 15  1  0  0  0  0
 15 16  1  0  0  0  0
 15 17  1  0  0  0  0
 18  2  1  0  0  0  0
 18 20  2  0  0  0  0
 18 24  1  0  0  0  0
 19 25  1  0  0  0  0
 20  1  1  0  0  0  0
 20 21  1  0  0  0  0
 21 22  2  0  0  0  0
 22 19  1  0  0  0  0
 22 23  1  0  0  0  0
 23 24  2  0  0  0  0
M  END
>  <CHROM.1>
-139.71226308,-169.51638306,162.12663689,-64.16445668,69.41951710,164.90445598
-93.95126176,-120.47367511,-72.35762752,-159.63481063,-74.73066644,156.17505150
-121.45877934,-174.15296880,173.08604228,123.62242838,-74.06594286,-102.69874417
-2.70371851,-10.23085920,-2.71381052,0.29028112,-0.40743251,0.87193445

>  <Name>
1uud_lig

>  <RI>
0

>  <Rbt.Current_Directory>
/home/itssahil/PROJECTS/Mol_Feturizer/New_Systems/rnas/1uud

>  <Rbt.Executable>
rbdock ($Id: //depot/dev/client3/rdock/2013.1/src/exe/rbdock.cxx#4 $)

>  <Rbt.Library>
libRbt.so (2013.1, Build901 2013/11/27)

>  <Rbt.Parameter_File>
/export/apps/rDock/src/rDock_2013.1_src/data/scripts/dock_solv.prm

>  <Rbt.Receptor>
prm/pocket_docking_3.prm

>  <SCORE>
-37.1352

>  <SCORE.INTER>
-33.0467

>  <SCORE.INTER.CONST>
1

>  <SCORE.INTER.POLAR>
-5.21272

>  <SCORE.INTER.ROT>
18

>  <SCORE.INTER.SOLV>
13.0832

>  <SCORE.INTER.VDW>
-24.6164

>  <SCORE.INTER.norm>
-1.32187

>  <SCORE.INTRA>
-4.64351

>  <SCORE.INTRA.DIHEDRAL>
-2.73956

>  <SCORE.INTRA.DIHEDRAL.0>
30.6762

>  <SCORE.INTRA.POLAR>
0.0288659

>  <SCORE.INTRA.POLAR.0>
-0.0288659

>  <SCORE.INTRA.REPUL>
0

>  <SCORE.INTRA.REPUL.0>
0

>  <SCORE.INTRA.SOLV>
-0.899895

>  <SCORE.INTRA.SOLV.lig_0>
-25.2195

>  <SCORE.INTRA.VDW>
-2.92193

>  <SCORE.INTRA.VDW.0>
4.14263

>  <SCORE.INTRA.norm>
-0.18574

>  <SCORE.RESTR>
0.555011

>  <SCORE.RESTR.CAVITY>
0.555011

>  <SCORE.RESTR.norm>
0.0222004

>  <SCORE.SYSTEM>
0

>  <SCORE.SYSTEM.CONST>
0

>  <SCORE.SYSTEM.DIHEDRAL>
0

>  <SCORE.SYSTEM.SOLV>
0

>  <SCORE.SYSTEM.norm>
0

>  <SCORE.heavy>
25

>  <SCORE.norm>
-1.48541

>  <RMSD>
5.136

$$$$
1uud_lig
 OpenBabel11021811413D
libRbt.so/2013.1/901 2013/11/27
 25 25  0  0  0  0  0  0  0  0999 V2000
   -2.6132   -8.7869   -3.3254 C   0  0  0  0  0  0  0  0  0  0  0  0
   -4.4763   -7.7637   -5.3464 O   0  0  0  0  0  0  0  0  0  0  0  0
   -5.9114   -7.7358   -5.3439 C   0  0  0  0  0  0  0  0  0  0  0  0
   -3.1364   -9.3424   -2.0526 N   0  0  0  0  0  0  0  0  0  0  0  0
   -6.4403   -7.8297   -3.9063 C   0  0  0  0  0  0  0  0  0  0  0  0
   -2.3275   -8.8414   -0.9162 C   0  0  0  0  0  0  0  0  0  0  0  0
   -2.6598   -9.6483    0.3448 C   0  0  0  0  0  0  0  0  0  0  0  0
   -7.7109   -7.5049   -3.8756 N   0  0  0  0  0  0  0  0  0  0  0  0
   -8.1016   -6.2709   -3.6179 C   0  0  0  0  0  0  0  0  0  0  0  0
   -1.7251  -10.8582    0.4507 C   0  0  0  0  0  0  0  0  0  0  0  0
   -0.6343  -10.5729    1.4871 C   0  0  0  0  0  0  0  0  0  0  0  0
   -7.8907   -5.6949   -2.3954 N   0  0  0  0  0  0  0  0  0  0  0  0
   -8.7286   -5.5574   -4.5885 N   0  0  0  0  0  0  0  0  0  0  0  0
    0.4239  -10.0731    0.8939 N   0  0  0  0  0  0  0  0  0  0  0  0
    1.5985  -10.6699    0.9618 C   0  0  0  0  0  0  0  0  0  0  0  0
    2.6326  -10.1818    0.2296 N   0  0  0  0  0  0  0  0  0  0  0  0
    1.7956  -11.7729    1.7433 N   0  0  0  0  0  0  0  0  0  0  0  0
   -4.0104   -9.1140   -5.4658 C   0  0  0  0  0  0  0  0  0  0  0  0
   -2.5997  -13.1265   -5.8658 O   0  0  0  0  0  0  0  0  0  0  0  0
   -3.1006   -9.6487   -4.5086 C   0  0  0  0  0  0  0  0  0  0  0  0
   -2.6266  -10.9806   -4.6489 C   0  0  0  0  0  0  0  0  0  0  0  0
   -3.0752  -11.7849   -5.7292 C   0  0  0  0  0  0  0  0  0  0  0  0
   -3.9976  -11.2589   -6.6734 C   0  0  0  0  0  0  0  0  0  0  0  0
   -4.4717   -9.9258   -6.5390 C   0  0  0  0  0  0  0  0  0  0  0  0
   -2.8278  -13.8420   -4.6482 C   0  0  0  0  0  0  0  0  0  0  0  0
  1  4  1  0  0  0  0
  2  3  1  0  0  0  0
  3  5  1  0  0  0  0
  4  6  1  0  0  0  0
  5  8  1  0  0  0  0
  6  7  1  0  0  0  0
  7 10  1  0  0  0  0
  8  9  1  0  0  0  0
  9 12  1  0  0  0  0
  9 13  1  0  0  0  0
 10 11  1  0  0  0  0
 11 14  1  0  0  0  0
 14 15  1  0  0  0  0
 15 16  1  0  0  0  0
 15 17  1  0  0  0  0
 18  2  1  0  0  0  0
 18 20  2  0  0  0  0
 18 24  1  0  0  0  0
 19 25  1  0  0  0  0
 20  1  1  0  0  0  0
 20 21  1  0  0  0  0
 21 22  2  0  0  0  0
 22 19  1  0  0  0  0
 22 23  1  0  0  0  0
 23 24  2  0  0  0  0
M  END
>  <CHROM.1>
160.51379023,90.90633569,165.86395405,-167.39146732,-93.55004116,90.33929706
102.41133090,-65.84719079,-90.71234536,-126.77147813,-93.00902067,-120.52613888
173.89140605,-4.23236662,127.24262011,-125.53352289,113.26809270,53.88920472
-3.29952528,-9.52589222,-2.86281424,0.26403199,-0.65152690,1.00426774

>  <Name>
1uud_lig

>  <RI>
0

>  <Rbt.Current_Directory>
/home/itssahil/PROJECTS/Mol_Feturizer/New_Systems/rnas/1uud

>  <Rbt.Executable>
rbdock ($Id: //depot/dev/client3/rdock/2013.1/src/exe/rbdock.cxx#4 $)

>  <Rbt.Library>
libRbt.so (2013.1, Build901 2013/11/27)

>  <Rbt.Parameter_File>
/export/apps/rDock/src/rDock_2013.1_src/data/scripts/dock_solv.prm

>  <Rbt.Receptor>
prm/pocket_docking_2.prm

>  <SCORE>
-17.9965

>  <SCORE.INTER>
-16.3597

>  <SCORE.INTER.CONST>
1

>  <SCORE.INTER.POLAR>
-3.03069

>  <SCORE.INTER.ROT>
18

>  <SCORE.INTER.SOLV>
10.1584

>  <SCORE.INTER.VDW>
-19.7903

>  <SCORE.INTER.norm>
-0.654386

>  <SCORE.INTRA>
-2.61424

>  <SCORE.INTRA.DIHEDRAL>
2.55254

>  <SCORE.INTRA.DIHEDRAL.0>
30.6762

>  <SCORE.INTRA.POLAR>
0.0288659

>  <SCORE.INTRA.POLAR.0>
-0.0288659

>  <SCORE.INTRA.REPUL>
0

>  <SCORE.INTRA.REPUL.0>
0

>  <SCORE.INTRA.SOLV>
-1.02152

>  <SCORE.INTRA.SOLV.lig_0>
-25.2195

>  <SCORE.INTRA.VDW>
-3.47789

>  <SCORE.INTRA.VDW.0>
4.14263

>  <SCORE.INTRA.norm>
-0.104569

>  <SCORE.RESTR>
0.977434

>  <SCORE.RESTR.CAVITY>
0.977434

>  <SCORE.RESTR.norm>
0.0390974

>  <SCORE.SYSTEM>
0

>  <SCORE.SYSTEM.CONST>
0

>  <SCORE.SYSTEM.DIHEDRAL>
0

>  <SCORE.SYSTEM.SOLV>
0

>  <SCORE.SYSTEM.norm>
0

>  <SCORE.heavy>
25

>  <SCORE.norm>
-0.719859

>  <RMSD>
5.138

$$$$
1uud_lig
 OpenBabel11021811413D
libRbt.so/2013.1/901 2013/11/27
 25 25  0  0  0  0  0  0  0  0999 V2000
   -4.4879  -10.2864   -2.2428 C   0  0  0  0  0  0  0  0  0  0  0  0
   -6.1037   -8.8569   -4.2298 O   0  0  0  0  0  0  0  0  0  0  0  0
   -5.5394   -7.5439   -4.0956 C   0  0  0  0  0  0  0  0  0  0  0  0
   -3.1659  -10.1256   -1.5881 N   0  0  0  0  0  0  0  0  0  0  0  0
   -6.4090   -6.5161   -4.8322 C   0  0  0  0  0  0  0  0  0  0  0  0
   -3.3431  -10.0067   -0.1214 C   0  0  0  0  0  0  0  0  0  0  0  0
   -1.9955   -9.6797    0.5332 C   0  0  0  0  0  0  0  0  0  0  0  0
   -7.6569   -6.6259   -4.4430 N   0  0  0  0  0  0  0  0  0  0  0  0
   -7.9836   -6.6233   -3.1643 C   0  0  0  0  0  0  0  0  0  0  0  0
   -1.0674  -10.8965    0.4514 C   0  0  0  0  0  0  0  0  0  0  0  0
   -0.0318  -10.8268    1.5775 C   0  0  0  0  0  0  0  0  0  0  0  0
   -8.1362   -5.4561   -2.4679 N   0  0  0  0  0  0  0  0  0  0  0  0
   -8.1712   -7.8069   -2.5253 N   0  0  0  0  0  0  0  0  0  0  0  0
    1.0470  -11.4887    1.2321 N   0  0  0  0  0  0  0  0  0  0  0  0
    2.1598  -10.8654    0.8950 C   0  0  0  0  0  0  0  0  0  0  0  0
    2.1051   -9.5541    0.5470 N   0  0  0  0  0  0  0  0  0  0  0  0
    3.3635  -11.5111    0.8782 N   0  0  0  0  0  0  0  0  0  0  0  0
   -5.1062   -9.7766   -4.6919 C   0  0  0  0  0  0  0  0  0  0  0  0
   -2.1090  -12.4798   -6.0920 O   0  0  0  0  0  0  0  0  0  0  0  0
   -4.2960  -10.4877   -3.7603 C   0  0  0  0  0  0  0  0  0  0  0  0
   -3.2944  -11.3796   -4.2289 C   0  0  0  0  0  0  0  0  0  0  0  0
   -3.1151  -11.5784   -5.6231 C   0  0  0  0  0  0  0  0  0  0  0  0
   -3.9357  -10.8845   -6.5526 C   0  0  0  0  0  0  0  0  0  0  0  0
   -4.9366   -9.9885   -6.0884 C   0  0  0  0  0  0  0  0  0  0  0  0
   -2.6509  -13.8011   -6.1761 C   0  0  0  0  0  0  0  0  0  0  0  0
  1  4  1  0  0  0  0
  2  3  1  0  0  0  0
  3  5  1  0  0  0  0
  4  6  1  0  0  0  0
  5  8  1  0  0  0  0
  6  7  1  0  0  0  0
  7 10  1  0  0  0  0
  8  9  1  0  0  0  0
  9 12  1  0  0  0  0
  9 13  1  0  0  0  0
 10 11  1  0  0  0  0
 11 14  1  0  0  0  0
 14 15  1  0  0  0  0
 15 16  1  0  0  0  0
 15 17  1  0  0  0  0
 18  2  1  0  0  0  0
 18 20  2  0  0  0  0
 18 24  1  0  0  0  0
 19 25  1  0  0  0  0
 20  1  1  0  0  0  0
 20 21  1  0  0  0  0
 21 22  2  0  0  0  0
 22 19  1  0  0  0  0
 22 23  1  0  0  0  0
 23 24  2  0  0  0  0
M  END
>  <CHROM.1>
-176.90548580,128.67133795,52.24911438,-173.52021295,51.26128421,-70.03623657
-155.14007579,83.09140718,174.20190634,38.07737683,-154.34351972,106.41772887
-18.03372958,-137.38798417,-177.41684731,89.88080188,-134.62172943,88.03973213
-3.36441893,-9.77884159,-2.60889471,2.89379844,0.58173724,-2.12159865

>  <Name>
1uud_lig

>  <RI>
0

>  <Rbt.Current_Directory>
/home/itssahil/PROJECTS/Mol_Feturizer/New_Systems/rnas/1uud

>  <Rbt.Executable>
rbdock ($Id: //depot/dev/client3/rdock/2013.1/src/exe/rbdock.cxx#4 $)

>  <Rbt.Library>
libRbt.so (2013.1, Build901 2013/11/27)

>  <Rbt.Parameter_File>
/export/apps/rDock/src/rDock_2013.1_src/data/scripts/dock_solv.prm

>  <Rbt.Receptor>
prm/pocket_docking_3.prm

>  <SCORE>
-39.4628

>  <SCORE.INTER>
-34.6816

>  <SCORE.INTER.CONST>
1

>  <SCORE.INTER.POLAR>
-5.44101

>  <SCORE.INTER.ROT>
18

>  <SCORE.INTER.SOLV>
11.1587

>  <SCORE.INTER.VDW>
-24.3039

>  <SCORE.INTER.norm>
-1.38727

>  <SCORE.INTRA>
-4.78619

>  <SCORE.INTRA.DIHEDRAL>
1.19639

>  <SCORE.INTRA.DIHEDRAL.0>
30.6762

>  <SCORE.INTRA.POLAR>
-0.602459

>  <SCORE.INTRA.POLAR.0>
-0.0288659

>  <SCORE.INTRA.REPUL>
0

>  <SCORE.INTRA.REPUL.0>
0

>  <SCORE.INTRA.SOLV>
-0.222781

>  <SCORE.INTRA.SOLV.lig_0>
-25.2195

>  <SCORE.INTRA.VDW>
-3.22463

>  <SCORE.INTRA.VDW.0>
4.14263

>  <SCORE.INTRA.norm>
-0.191448

>  <SCORE.RESTR>
0.00505156

>  <SCORE.RESTR.CAVITY>
0.00505156

>  <SCORE.RESTR.norm>
0.000202062

>  <SCORE.SYSTEM>
0

>  <SCORE.SYSTEM.CONST>
0

>  <SCORE.SYSTEM.DIHEDRAL>
0

>  <SCORE.SYSTEM.SOLV>
0

>  <SCORE.SYSTEM.norm>
0

>  <SCORE.heavy>
25

>  <SCORE.norm>
-1.57851

>  <RMSD>
5.140

$$$$
1uud_lig
 OpenBabel11021811413D
libRbt.so/2013.1/901 2013/11/27
 25 25  0  0  0  0  0  0  0  0999 V2000
   -4.3597  -10.5606   -3.4242 C   0  0  0  0  0  0  0  0  0  0  0  0
   -5.4548   -9.7594   -6.0244 O   0  0  0  0  0  0  0  0  0  0  0  0
   -4.8487   -8.5104   -5.6599 C   0  0  0  0  0  0  0  0  0  0  0  0
   -3.2012   -9.8782   -2.7962 N   0  0  0  0  0  0  0  0  0  0  0  0
   -5.8560   -7.3646   -5.8264 C   0  0  0  0  0  0  0  0  0  0  0  0
   -3.6808   -8.8592   -1.8326 C   0  0  0  0  0  0  0  0  0  0  0  0
   -2.5718   -7.8307   -1.5794 C   0  0  0  0  0  0  0  0  0  0  0  0
   -6.6770   -7.3393   -4.8036 N   0  0  0  0  0  0  0  0  0  0  0  0
   -7.7609   -8.0917   -4.7700 C   0  0  0  0  0  0  0  0  0  0  0  0
   -1.4060   -8.4933   -0.8374 C   0  0  0  0  0  0  0  0  0  0  0  0
   -1.8190   -8.7846    0.6082 C   0  0  0  0  0  0  0  0  0  0  0  0
   -8.4881   -8.2467   -3.6221 N   0  0  0  0  0  0  0  0  0  0  0  0
   -8.1623   -8.7274   -5.9010 N   0  0  0  0  0  0  0  0  0  0  0  0
   -0.7746   -9.1746    1.2998 N   0  0  0  0  0  0  0  0  0  0  0  0
   -0.2565  -10.3782    1.1465 C   0  0  0  0  0  0  0  0  0  0  0  0
    1.0932  -10.5166    1.0962 N   0  0  0  0  0  0  0  0  0  0  0  0
   -1.0464  -11.4863    1.0270 N   0  0  0  0  0  0  0  0  0  0  0  0
   -4.4799  -10.8095   -5.9862 C   0  0  0  0  0  0  0  0  0  0  0  0
   -1.5430  -13.9107   -5.8999 O   0  0  0  0  0  0  0  0  0  0  0  0
   -3.9187  -11.2257   -4.7446 C   0  0  0  0  0  0  0  0  0  0  0  0
   -2.9360  -12.2514   -4.7198 C   0  0  0  0  0  0  0  0  0  0  0  0
   -2.5292  -12.8757   -5.9281 C   0  0  0  0  0  0  0  0  0  0  0  0
   -3.1026  -12.4748   -7.1648 C   0  0  0  0  0  0  0  0  0  0  0  0
   -4.0834  -11.4467   -7.1947 C   0  0  0  0  0  0  0  0  0  0  0  0
   -1.9848  -14.9705   -5.0466 C   0  0  0  0  0  0  0  0  0  0  0  0
  1  4  1  0  0  0  0
  2  3  1  0  0  0  0
  3  5  1  0  0  0  0
  4  6  1  0  0  0  0
  5  8  1  0  0  0  0
  6  7  1  0  0  0  0
  7 10  1  0  0  0  0
  8  9  1  0  0  0  0
  9 12  1  0  0  0  0
  9 13  1  0  0  0  0
 10 11  1  0  0  0  0
 11 14  1  0  0  0  0
 14 15  1  0  0  0  0
 15 16  1  0  0  0  0
 15 17  1  0  0  0  0
 18  2  1  0  0  0  0
 18 20  2  0  0  0  0
 18 24  1  0  0  0  0
 19 25  1  0  0  0  0
 20  1  1  0  0  0  0
 20 21  1  0  0  0  0
 21 22  2  0  0  0  0
 22 19  1  0  0  0  0
 22 23  1  0  0  0  0
 23 24  2  0  0  0  0
M  END
>  <CHROM.1>
159.75382571,174.72826566,79.09547876,-159.31257373,-85.17594106,-67.28143251
-71.55737644,168.33613303,23.08869641,-32.60485669,-171.10809858,-74.11809888
137.32918649,-170.17980521,-157.03540750,67.74069100,-117.20199717,57.59366314
-3.59420040,-10.13489229,-3.47119484,2.58226379,0.67688763,-2.24310851

>  <Name>
1uud_lig

>  <RI>
0

>  <Rbt.Current_Directory>
/home/itssahil/PROJECTS/Mol_Feturizer/New_Systems/rnas/1uud

>  <Rbt.Executable>
rbdock ($Id: //depot/dev/client3/rdock/2013.1/src/exe/rbdock.cxx#4 $)

>  <Rbt.Library>
libRbt.so (2013.1, Build901 2013/11/27)

>  <Rbt.Parameter_File>
/export/apps/rDock/src/rDock_2013.1_src/data/scripts/dock_solv.prm

>  <Rbt.Receptor>
prm/pocket_docking_2.prm

>  <SCORE>
-33.8592

>  <SCORE.INTER>
-27.7419

>  <SCORE.INTER.CONST>
1

>  <SCORE.INTER.POLAR>
-4.70272

>  <SCORE.INTER.ROT>
18

>  <SCORE.INTER.SOLV>
12.1337

>  <SCORE.INTER.VDW>
-22.4635

>  <SCORE.INTER.norm>
-1.10968

>  <SCORE.INTRA>
-6.66192

>  <SCORE.INTRA.DIHEDRAL>
-8.56984

>  <SCORE.INTRA.DIHEDRAL.0>
30.6762

>  <SCORE.INTRA.POLAR>
0.0288659

>  <SCORE.INTRA.POLAR.0>
-0.0288659

>  <SCORE.INTRA.REPUL>
0

>  <SCORE.INTRA.REPUL.0>
0

>  <SCORE.INTRA.SOLV>
-0.137732

>  <SCORE.INTRA.SOLV.lig_0>
-25.2195

>  <SCORE.INTRA.VDW>
-2.40628

>  <SCORE.INTRA.VDW.0>
4.14263

>  <SCORE.INTRA.norm>
-0.266477

>  <SCORE.RESTR>
0.544688

>  <SCORE.RESTR.CAVITY>
0.544688

>  <SCORE.RESTR.norm>
0.0217875

>  <SCORE.SYSTEM>
0

>  <SCORE.SYSTEM.CONST>
0

>  <SCORE.SYSTEM.DIHEDRAL>
0

>  <SCORE.SYSTEM.SOLV>
0

>  <SCORE.SYSTEM.norm>
0

>  <SCORE.heavy>
25

>  <SCORE.norm>
-1.35437

>  <RMSD>
5.157

$$$$
1uud_lig
 OpenBabel11021811413D
libRbt.so/2013.1/901 2013/11/27
 25 25  0  0  0  0  0  0  0  0999 V2000
   -3.3385   -9.8481   -2.4452 C   0  0  0  0  0  0  0  0  0  0  0  0
   -5.5460   -9.0294   -4.1943 O   0  0  0  0  0  0  0  0  0  0  0  0
   -6.1713   -8.3636   -5.3015 C   0  0  0  0  0  0  0  0  0  0  0  0
   -4.6596   -9.6095   -1.8128 N   0  0  0  0  0  0  0  0  0  0  0  0
   -6.3250   -6.8665   -5.0007 C   0  0  0  0  0  0  0  0  0  0  0  0
   -4.5037   -9.5240   -0.3414 C   0  0  0  0  0  0  0  0  0  0  0  0
   -3.6483   -8.3017    0.0135 C   0  0  0  0  0  0  0  0  0  0  0  0
   -6.7614   -6.6996   -3.7750 N   0  0  0  0  0  0  0  0  0  0  0  0
   -7.9595   -7.1130   -3.4068 C   0  0  0  0  0  0  0  0  0  0  0  0
   -2.5427   -8.7064    0.9946 C   0  0  0  0  0  0  0  0  0  0  0  0
   -1.2309   -8.9111    0.2313 C   0  0  0  0  0  0  0  0  0  0  0  0
   -9.0426   -6.2782   -3.4321 N   0  0  0  0  0  0  0  0  0  0  0  0
   -8.1200   -8.3962   -2.9922 N   0  0  0  0  0  0  0  0  0  0  0  0
   -0.2942   -9.3158    1.0559 N   0  0  0  0  0  0  0  0  0  0  0  0
    0.3584  -10.4450    0.8572 C   0  0  0  0  0  0  0  0  0  0  0  0
    1.6056  -10.5889    1.3743 N   0  0  0  0  0  0  0  0  0  0  0  0
   -0.1872  -11.4682    0.1350 N   0  0  0  0  0  0  0  0  0  0  0  0
   -4.6256  -10.0193   -4.6712 C   0  0  0  0  0  0  0  0  0  0  0  0
   -1.8684  -12.9385   -6.1296 O   0  0  0  0  0  0  0  0  0  0  0  0
   -3.5363  -10.4415   -3.8556 C   0  0  0  0  0  0  0  0  0  0  0  0
   -2.6161  -11.4062   -4.3465 C   0  0  0  0  0  0  0  0  0  0  0  0
   -2.7937  -11.9647   -5.6395 C   0  0  0  0  0  0  0  0  0  0  0  0
   -3.8908  -11.5587   -6.4460 C   0  0  0  0  0  0  0  0  0  0  0  0
   -4.8118  -10.5912   -5.9603 C   0  0  0  0  0  0  0  0  0  0  0  0
   -1.9037  -14.0974   -5.2916 C   0  0  0  0  0  0  0  0  0  0  0  0
  1  4  1  0  0  0  0
  2  3  1  0  0  0  0
  3  5  1  0  0  0  0
  4  6  1  0  0  0  0
  5  8  1  0  0  0  0
  6  7  1  0  0  0  0
  7 10  1  0  0  0  0
  8  9  1  0  0  0  0
  9 12  1  0  0  0  0
  9 13  1  0  0  0  0
 10 11  1  0  0  0  0
 11 14  1  0  0  0  0
 14 15  1  0  0  0  0
 15 16  1  0  0  0  0
 15 17  1  0  0  0  0
 18  2  1  0  0  0  0
 18 20  2  0  0  0  0
 18 24  1  0  0  0  0
 19 25  1  0  0  0  0
 20  1  1  0  0  0  0
 20 21  1  0  0  0  0
 21 22  2  0  0  0  0
 22 19  1  0  0  0  0
 22 23  1  0  0  0  0
 23 24  2  0  0  0  0
M  END
>  <CHROM.1>
159.37151129,-140.96383776,-44.04624900,64.40405172,-65.05525613,-131.09023499
99.23715753,-93.99681429,-71.25974580,166.32953839,-177.19271060,122.91675537
154.71753345,-53.12763721,56.98641709,155.67319587,36.10814237,62.34397832
-3.78135310,-9.67850101,-2.74910314,0.30207384,-0.58941191,1.02555118

>  <Name>
1uud_lig

>  <RI>
0

>  <Rbt.Current_Directory>
/home/itssahil/PROJECTS/Mol_Feturizer/New_Systems/rnas/1uud

>  <Rbt.Executable>
rbdock ($Id: //depot/dev/client3/rdock/2013.1/src/exe/rbdock.cxx#4 $)

>  <Rbt.Library>
libRbt.so (2013.1, Build901 2013/11/27)

>  <Rbt.Parameter_File>
/export/apps/rDock/src/rDock_2013.1_src/data/scripts/dock_solv.prm

>  <Rbt.Receptor>
prm/pocket_docking_2.prm

>  <SCORE>
-20.5927

>  <SCORE.INTER>
-18.9789

>  <SCORE.INTER.CONST>
1

>  <SCORE.INTER.POLAR>
-3.498

>  <SCORE.INTER.ROT>
18

>  <SCORE.INTER.SOLV>
8.10106

>  <SCORE.INTER.VDW>
-19.293

>  <SCORE.INTER.norm>
-0.759157

>  <SCORE.INTRA>
-2.27825

>  <SCORE.INTRA.DIHEDRAL>
0.965572

>  <SCORE.INTRA.DIHEDRAL.0>
30.6762

>  <SCORE.INTRA.POLAR>
-0.807181

>  <SCORE.INTRA.POLAR.0>
-0.0288659

>  <SCORE.INTRA.REPUL>
0

>  <SCORE.INTRA.REPUL.0>
0

>  <SCORE.INTRA.SOLV>
0.320646

>  <SCORE.INTRA.SOLV.lig_0>
-25.2195

>  <SCORE.INTRA.VDW>
-0.176943

>  <SCORE.INTRA.VDW.0>
4.14263

>  <SCORE.INTRA.norm>
-0.0911299

>  <SCORE.RESTR>
0.66443

>  <SCORE.RESTR.CAVITY>
0.66443

>  <SCORE.RESTR.norm>
0.0265772

>  <SCORE.SYSTEM>
0

>  <SCORE.SYSTEM.CONST>
0

>  <SCORE.SYSTEM.DIHEDRAL>
0

>  <SCORE.SYSTEM.SOLV>
0

>  <SCORE.SYSTEM.norm>
0

>  <SCORE.heavy>
25

>  <SCORE.norm>
-0.82371

>  <RMSD>
5.158

$$$$
1uud_lig
 OpenBabel11021811413D
libRbt.so/2013.1/901 2013/11/27
 25 25  0  0  0  0  0  0  0  0999 V2000
   -1.8441   -7.9337   -4.9267 C   0  0  0  0  0  0  0  0  0  0  0  0
   -4.6690   -7.8977   -5.7147 O   0  0  0  0  0  0  0  0  0  0  0  0
   -4.7977   -7.6143   -4.3135 C   0  0  0  0  0  0  0  0  0  0  0  0
   -0.9994   -8.3585   -3.7829 N   0  0  0  0  0  0  0  0  0  0  0  0
   -6.2024   -7.0766   -4.0089 C   0  0  0  0  0  0  0  0  0  0  0  0
   -1.8544   -8.9084   -2.7044 C   0  0  0  0  0  0  0  0  0  0  0  0
   -0.9698   -9.4906   -1.5952 C   0  0  0  0  0  0  0  0  0  0  0  0
   -7.1069   -7.8587   -4.5484 N   0  0  0  0  0  0  0  0  0  0  0  0
   -8.2184   -8.1715   -3.9091 C   0  0  0  0  0  0  0  0  0  0  0  0
   -0.4989   -8.3698   -0.6620 C   0  0  0  0  0  0  0  0  0  0  0  0
   -1.5114   -8.1897    0.4728 C   0  0  0  0  0  0  0  0  0  0  0  0
   -8.7781   -9.4149   -4.0151 N   0  0  0  0  0  0  0  0  0  0  0  0
   -8.8207   -7.2367   -3.1295 N   0  0  0  0  0  0  0  0  0  0  0  0
   -1.2231   -9.0039    1.4603 N   0  0  0  0  0  0  0  0  0  0  0  0
   -1.6294  -10.2591    1.4599 C   0  0  0  0  0  0  0  0  0  0  0  0
   -0.7584  -11.2370    1.1016 N   0  0  0  0  0  0  0  0  0  0  0  0
   -2.9084  -10.5963    1.8015 N   0  0  0  0  0  0  0  0  0  0  0  0
   -3.9200   -9.1047   -5.9062 C   0  0  0  0  0  0  0  0  0  0  0  0
   -1.6951  -12.6985   -6.5267 O   0  0  0  0  0  0  0  0  0  0  0  0
   -2.5439   -9.1633   -5.5418 C   0  0  0  0  0  0  0  0  0  0  0  0
   -1.8044  -10.3570   -5.7572 C   0  0  0  0  0  0  0  0  0  0  0  0
   -2.4407  -11.4970   -6.3148 C   0  0  0  0  0  0  0  0  0  0  0  0
   -3.8180  -11.4457   -6.6605 C   0  0  0  0  0  0  0  0  0  0  0  0
   -4.5609  -10.2524   -6.4501 C   0  0  0  0  0  0  0  0  0  0  0  0
   -1.6005  -13.4266   -5.2989 C   0  0  0  0  0  0  0  0  0  0  0  0
  1  4  1  0  0  0  0
  2  3  1  0  0  0  0
  3  5  1  0  0  0  0
  4  6  1  0  0  0  0
  5  8  1  0  0  0  0
  6  7  1  0  0  0  0
  7 10  1  0  0  0  0
  8  9  1  0  0  0  0
  9 12  1  0  0  0  0
  9 13  1  0  0  0  0
 10 11  1  0  0  0  0
 11 14  1  0  0  0  0
 14 15  1  0  0  0  0
 15 16  1  0  0  0  0
 15 17  1  0  0  0  0
 18  2  1  0  0  0  0
 18 20  2  0  0  0  0
 18 24  1  0  0  0  0
 19 25  1  0  0  0  0
 20  1  1  0  0  0  0
 20 21  1  0  0  0  0
 21 22  2  0  0  0  0
 22 19  1  0  0  0  0
 22 23  1  0  0  0  0
 23 24  2  0  0  0  0
M  END
>  <CHROM.1>
-64.48798218,-140.62083455,49.35212911,173.61722008,139.11060842,82.27276889
89.76215007,-143.31805625,-112.74398948,-144.09697409,87.32188993,-83.85067361
100.40975527,-30.88141873,80.70916176,-66.09046428,136.40651990,81.17146867
-3.42970086,-9.42165402,-3.33743887,-2.40312541,-0.44287560,1.30588962

>  <Name>
1uud_lig

>  <RI>
0

>  <Rbt.Current_Directory>
/home/itssahil/PROJECTS/Mol_Feturizer/New_Systems/rnas/1uud

>  <Rbt.Executable>
rbdock ($Id: //depot/dev/client3/rdock/2013.1/src/exe/rbdock.cxx#4 $)

>  <Rbt.Library>
libRbt.so (2013.1, Build901 2013/11/27)

>  <Rbt.Parameter_File>
/export/apps/rDock/src/rDock_2013.1_src/data/scripts/dock_solv.prm

>  <Rbt.Receptor>
prm/pocket_docking_3.prm

>  <SCORE>
-22.9218

>  <SCORE.INTER>
-19.5211

>  <SCORE.INTER.CONST>
1

>  <SCORE.INTER.POLAR>
-4.33917

>  <SCORE.INTER.ROT>
18

>  <SCORE.INTER.SOLV>
8.62671

>  <SCORE.INTER.VDW>
-17.0257

>  <SCORE.INTER.norm>
-0.780842

>  <SCORE.INTRA>
-3.64732

>  <SCORE.INTRA.DIHEDRAL>
1.27642

>  <SCORE.INTRA.DIHEDRAL.0>
30.6762

>  <SCORE.INTRA.POLAR>
0.0189284

>  <SCORE.INTRA.POLAR.0>
-0.0288659

>  <SCORE.INTRA.REPUL>
0

>  <SCORE.INTRA.REPUL.0>
0

>  <SCORE.INTRA.SOLV>
-0.334737

>  <SCORE.INTRA.SOLV.lig_0>
-25.2195

>  <SCORE.INTRA.VDW>
-4.18251

>  <SCORE.INTRA.VDW.0>
4.14263

>  <SCORE.INTRA.norm>
-0.145893

>  <SCORE.RESTR>
0.246611

>  <SCORE.RESTR.CAVITY>
0.246611

>  <SCORE.RESTR.norm>
0.00986444

>  <SCORE.SYSTEM>
0

>  <SCORE.SYSTEM.CONST>
0

>  <SCORE.SYSTEM.DIHEDRAL>
0

>  <SCORE.SYSTEM.SOLV>
0

>  <SCORE.SYSTEM.norm>
0

>  <SCORE.heavy>
25

>  <SCORE.norm>
-0.91687

>  <RMSD>
5.166

$$$$
1uud_lig
 OpenBabel11021811413D
libRbt.so/2013.1/901 2013/11/27
 25 25  0  0  0  0  0  0  0  0999 V2000
   -3.7373   -7.8557   -3.6629 C   0  0  0  0  0  0  0  0  0  0  0  0
   -6.2675   -8.4970   -5.0006 O   0  0  0  0  0  0  0  0  0  0  0  0
   -7.3181   -9.1014   -4.2317 C   0  0  0  0  0  0  0  0  0  0  0  0
   -3.1385   -8.2059   -2.3511 N   0  0  0  0  0  0  0  0  0  0  0  0
   -8.0407   -8.0375   -3.3943 C   0  0  0  0  0  0  0  0  0  0  0  0
   -3.5868   -7.2395   -1.3206 C   0  0  0  0  0  0  0  0  0  0  0  0
   -3.5608   -7.9109    0.0579 C   0  0  0  0  0  0  0  0  0  0  0  0
   -8.3399   -7.0048   -4.1458 N   0  0  0  0  0  0  0  0  0  0  0  0
   -7.8947   -5.7946   -3.8644 C   0  0  0  0  0  0  0  0  0  0  0  0
   -2.2165   -8.6159    0.2690 C   0  0  0  0  0  0  0  0  0  0  0  0
   -2.2754   -9.4579    1.5468 C   0  0  0  0  0  0  0  0  0  0  0  0
   -8.4275   -4.6818   -4.4547 N   0  0  0  0  0  0  0  0  0  0  0  0
   -6.8835   -5.6514   -2.9692 N   0  0  0  0  0  0  0  0  0  0  0  0
   -1.0693   -9.8591    1.8718 N   0  0  0  0  0  0  0  0  0  0  0  0
   -0.6712  -11.0970    1.6491 C   0  0  0  0  0  0  0  0  0  0  0  0
   -0.2953  -11.4562    0.3948 N   0  0  0  0  0  0  0  0  0  0  0  0
   -0.6383  -12.0278    2.6485 N   0  0  0  0  0  0  0  0  0  0  0  0
   -5.1702   -9.4091   -5.1374 C   0  0  0  0  0  0  0  0  0  0  0  0
   -1.8996  -12.1190   -5.5950 O   0  0  0  0  0  0  0  0  0  0  0  0
   -3.9221   -9.1330   -4.5083 C   0  0  0  0  0  0  0  0  0  0  0  0
   -2.8336  -10.0317   -4.6692 C   0  0  0  0  0  0  0  0  0  0  0  0
   -2.9955  -11.2141   -5.4381 C   0  0  0  0  0  0  0  0  0  0  0  0
   -4.2457  -11.5001   -6.0497 C   0  0  0  0  0  0  0  0  0  0  0  0
   -5.3363  -10.6020   -5.8944 C   0  0  0  0  0  0  0  0  0  0  0  0
   -2.1669  -13.3250   -4.8735 C   0  0  0  0  0  0  0  0  0  0  0  0
  1  4  1  0  0  0  0
  2  3  1  0  0  0  0
  3  5  1  0  0  0  0
  4  6  1  0  0  0  0
  5  8  1  0  0  0  0
  6  7  1  0  0  0  0
  7 10  1  0  0  0  0
  8  9  1  0  0  0  0
  9 12  1  0  0  0  0
  9 13  1  0  0  0  0
 10 11  1  0  0  0  0
 11 14  1  0  0  0  0
 14 15  1  0  0  0  0
 15 16  1  0  0  0  0
 15 17  1  0  0  0  0
 18  2  1  0  0  0  0
 18 20  2  0  0  0  0
 18 24  1  0  0  0  0
 19 25  1  0  0  0  0
 20  1  1  0  0  0  0
 20 21  1  0  0  0  0
 21 22  2  0  0  0  0
 22 19  1  0  0  0  0
 22 23  1  0  0  0  0
 23 24  2  0  0  0  0
M  END
>  <CHROM.1>
-150.41795331,146.50566106,48.14093013,153.21474873,-121.19398273,48.84825206
-171.43981478,-165.43672989,137.76919022,141.91579049,-168.17265892,-103.41572486
78.50750435,24.32566465,43.82385869,-112.70279956,130.50588086,110.28535110
-4.10420361,-9.17114740,-2.69807865,2.81898936,0.75236159,-2.08279454

>  <Name>
1uud_lig

>  <RI>
0

>  <Rbt.Current_Directory>
/home/itssahil/PROJECTS/Mol_Feturizer/New_Systems/rnas/1uud

>  <Rbt.Executable>
rbdock ($Id: //depot/dev/client3/rdock/2013.1/src/exe/rbdock.cxx#4 $)

>  <Rbt.Library>
libRbt.so (2013.1, Build901 2013/11/27)

>  <Rbt.Parameter_File>
/export/apps/rDock/src/rDock_2013.1_src/data/scripts/dock_solv.prm

>  <Rbt.Receptor>
prm/pocket_docking_2.prm

>  <SCORE>
-17.3012

>  <SCORE.INTER>
-13.0392

>  <SCORE.INTER.CONST>
1

>  <SCORE.INTER.POLAR>
-3.56606

>  <SCORE.INTER.ROT>
18

>  <SCORE.INTER.SOLV>
9.63817

>  <SCORE.INTER.VDW>
-15.6187

>  <SCORE.INTER.norm>
-0.52157

>  <SCORE.INTRA>
-5.54476

>  <SCORE.INTRA.DIHEDRAL>
-2.76962

>  <SCORE.INTRA.DIHEDRAL.0>
30.6762

>  <SCORE.INTRA.POLAR>
0.0288659

>  <SCORE.INTRA.POLAR.0>
-0.0288659

>  <SCORE.INTRA.REPUL>
0

>  <SCORE.INTRA.REPUL.0>
0

>  <SCORE.INTRA.SOLV>
-0.609432

>  <SCORE.INTRA.SOLV.lig_0>
-25.2195

>  <SCORE.INTRA.VDW>
-3.95338

>  <SCORE.INTRA.VDW.0>
4.14263

>  <SCORE.INTRA.norm>
-0.22179

>  <SCORE.RESTR>
1.28282

>  <SCORE.RESTR.CAVITY>
1.28282

>  <SCORE.RESTR.norm>
0.0513128

>  <SCORE.SYSTEM>
0

>  <SCORE.SYSTEM.CONST>
0

>  <SCORE.SYSTEM.DIHEDRAL>
0

>  <SCORE.SYSTEM.SOLV>
0

>  <SCORE.SYSTEM.norm>
0

>  <SCORE.heavy>
25

>  <SCORE.norm>
-0.692048

>  <RMSD>
5.208

$$$$
1uud_lig
 OpenBabel11021811413D
libRbt.so/2013.1/901 2013/11/27
 25 25  0  0  0  0  0  0  0  0999 V2000
   -3.9881  -10.5747   -2.3028 C   0  0  0  0  0  0  0  0  0  0  0  0
   -5.9134   -9.5031   -4.2387 O   0  0  0  0  0  0  0  0  0  0  0  0
   -6.5128   -8.8200   -5.3497 C   0  0  0  0  0  0  0  0  0  0  0  0
   -3.0951   -9.4151   -2.0580 N   0  0  0  0  0  0  0  0  0  0  0  0
   -7.9665   -8.4522   -5.0234 C   0  0  0  0  0  0  0  0  0  0  0  0
   -2.8199   -9.2909   -0.6069 C   0  0  0  0  0  0  0  0  0  0  0  0
   -1.7385   -8.2278   -0.3791 C   0  0  0  0  0  0  0  0  0  0  0  0
   -8.0441   -7.9772   -3.8031 N   0  0  0  0  0  0  0  0  0  0  0  0
   -8.3453   -6.7130   -3.5726 C   0  0  0  0  0  0  0  0  0  0  0  0
   -0.3616   -8.8012   -0.7315 C   0  0  0  0  0  0  0  0  0  0  0  0
   -0.1076  -10.0660    0.0937 C   0  0  0  0  0  0  0  0  0  0  0  0
   -7.5936   -5.6936   -4.0888 N   0  0  0  0  0  0  0  0  0  0  0  0
   -9.4254   -6.4180   -2.8041 N   0  0  0  0  0  0  0  0  0  0  0  0
    1.1832  -10.2711    0.2086 N   0  0  0  0  0  0  0  0  0  0  0  0
    1.6644  -11.2060    1.0053 C   0  0  0  0  0  0  0  0  0  0  0  0
    0.8344  -11.8107    1.8936 N   0  0  0  0  0  0  0  0  0  0  0  0
    2.9798  -11.5724    0.9643 N   0  0  0  0  0  0  0  0  0  0  0  0
   -4.9090  -10.4136   -4.7042 C   0  0  0  0  0  0  0  0  0  0  0  0
   -1.8966  -13.0908   -6.1213 O   0  0  0  0  0  0  0  0  0  0  0  0
   -3.9512  -10.9533   -3.7980 C   0  0  0  0  0  0  0  0  0  0  0  0
   -2.9454  -11.8367   -4.2736 C   0  0  0  0  0  0  0  0  0  0  0  0
   -2.9075  -12.1982   -5.6459 C   0  0  0  0  0  0  0  0  0  0  0  0
   -3.8742  -11.6758   -6.5468 C   0  0  0  0  0  0  0  0  0  0  0  0
   -4.8800  -10.7889   -6.0761 C   0  0  0  0  0  0  0  0  0  0  0  0
   -2.1638  -14.4137   -5.6468 C   0  0  0  0  0  0  0  0  0  0  0  0
  1  4  1  0  0  0  0
  2  3  1  0  0  0  0
  3  5  1  0  0  0  0
  4  6  1  0  0  0  0
  5  8  1  0  0  0  0
  6  7  1  0  0  0  0
  7 10  1  0  0  0  0
  8  9  1  0  0  0  0
  9 12  1  0  0  0  0
  9 13  1  0  0  0  0
 10 11  1  0  0  0  0
 11 14  1  0  0  0  0
 14 15  1  0  0  0  0
 15 16  1  0  0  0  0
 15 17  1  0  0  0  0
 18  2  1  0  0  0  0
 18 20  2  0  0  0  0
 18 24  1  0  0  0  0
 19 25  1  0  0  0  0
 20  1  1  0  0  0  0
 20 21  1  0  0  0  0
 21 22  2  0  0  0  0
 22 19  1  0  0  0  0
 22 23  1  0  0  0  0
 23 24  2  0  0  0  0
M  END
>  <CHROM.1>
-163.81870474,150.41833835,43.46109278,171.66769226,112.35196340,-76.73587878
-56.50304123,-57.83815405,91.01573998,-148.50504911,-155.82570988,171.83138425
-11.52602314,-116.62962014,20.42504675,164.17550796,-92.99274102,71.62749506
-3.45177745,-9.97167091,-2.87796100,2.97442721,0.55781632,-2.25203436

>  <Name>
1uud_lig

>  <RI>
0

>  <Rbt.Current_Directory>
/home/itssahil/PROJECTS/Mol_Feturizer/New_Systems/rnas/1uud

>  <Rbt.Executable>
rbdock ($Id: //depot/dev/client3/rdock/2013.1/src/exe/rbdock.cxx#4 $)

>  <Rbt.Library>
libRbt.so (2013.1, Build901 2013/11/27)

>  <Rbt.Parameter_File>
/export/apps/rDock/src/rDock_2013.1_src/data/scripts/dock_solv.prm

>  <Rbt.Receptor>
prm/pocket_docking_2.prm

>  <SCORE>
-28.6001

>  <SCORE.INTER>
-26.5682

>  <SCORE.INTER.CONST>
1

>  <SCORE.INTER.POLAR>
-4.21956

>  <SCORE.INTER.ROT>
18

>  <SCORE.INTER.SOLV>
10.6031

>  <SCORE.INTER.VDW>
-22.7813

>  <SCORE.INTER.norm>
-1.06273

>  <SCORE.INTRA>
-2.85393

>  <SCORE.INTRA.DIHEDRAL>
-7.40247

>  <SCORE.INTRA.DIHEDRAL.0>
30.6762

>  <SCORE.INTRA.POLAR>
0.0288659

>  <SCORE.INTRA.POLAR.0>
-0.0288659

>  <SCORE.INTRA.REPUL>
0

>  <SCORE.INTRA.REPUL.0>
0

>  <SCORE.INTRA.SOLV>
-0.947282

>  <SCORE.INTRA.SOLV.lig_0>
-25.2195

>  <SCORE.INTRA.VDW>
1.2228

>  <SCORE.INTRA.VDW.0>
4.14263

>  <SCORE.INTRA.norm>
-0.114157

>  <SCORE.RESTR>
0.822025

>  <SCORE.RESTR.CAVITY>
0.822025

>  <SCORE.RESTR.norm>
0.032881

>  <SCORE.SYSTEM>
0

>  <SCORE.SYSTEM.CONST>
0

>  <SCORE.SYSTEM.DIHEDRAL>
0

>  <SCORE.SYSTEM.SOLV>
0

>  <SCORE.SYSTEM.norm>
0

>  <SCORE.heavy>
25

>  <SCORE.norm>
-1.14401

>  <RMSD>
5.217

$$$$
1uud_lig
 OpenBabel11021811413D
libRbt.so/2013.1/901 2013/11/27
 25 25  0  0  0  0  0  0  0  0999 V2000
   -4.6299  -10.3764   -2.6529 C   0  0  0  0  0  0  0  0  0  0  0  0
   -5.1105   -8.8607   -5.1175 O   0  0  0  0  0  0  0  0  0  0  0  0
   -4.3131   -7.9145   -5.8450 C   0  0  0  0  0  0  0  0  0  0  0  0
   -3.5340  -10.6848   -1.7010 N   0  0  0  0  0  0  0  0  0  0  0  0
   -4.5569   -6.4962   -5.3118 C   0  0  0  0  0  0  0  0  0  0  0  0
   -2.3009   -9.9693   -2.1062 C   0  0  0  0  0  0  0  0  0  0  0  0
   -2.3032   -8.5603   -1.5010 C   0  0  0  0  0  0  0  0  0  0  0  0
   -5.8337   -6.2045   -5.3856 N   0  0  0  0  0  0  0  0  0  0  0  0
   -6.5898   -6.1382   -4.3058 C   0  0  0  0  0  0  0  0  0  0  0  0
   -1.0157   -8.3345   -0.7010 C   0  0  0  0  0  0  0  0  0  0  0  0
   -0.9377   -9.3521    0.4408 C   0  0  0  0  0  0  0  0  0  0  0  0
   -6.1217   -5.6032   -3.1373 N   0  0  0  0  0  0  0  0  0  0  0  0
   -7.8610   -6.6132   -4.3561 N   0  0  0  0  0  0  0  0  0  0  0  0
    0.1053   -9.0966    1.1946 N   0  0  0  0  0  0  0  0  0  0  0  0
    1.3213   -9.4605    0.8351 C   0  0  0  0  0  0  0  0  0  0  0  0
    1.7924  -10.6727    1.2255 N   0  0  0  0  0  0  0  0  0  0  0  0
    2.1207   -8.6423    0.0884 N   0  0  0  0  0  0  0  0  0  0  0  0
   -4.5363  -10.1701   -5.2199 C   0  0  0  0  0  0  0  0  0  0  0  0
   -2.7832  -14.0523   -5.5449 O   0  0  0  0  0  0  0  0  0  0  0  0
   -4.2816  -10.9379   -4.0470 C   0  0  0  0  0  0  0  0  0  0  0  0
   -3.6908  -12.2252   -4.1576 C   0  0  0  0  0  0  0  0  0  0  0  0
   -3.3741  -12.7548   -5.4362 C   0  0  0  0  0  0  0  0  0  0  0  0
   -3.6456  -11.9978   -6.6076 C   0  0  0  0  0  0  0  0  0  0  0  0
   -4.2334  -10.7081   -6.5015 C   0  0  0  0  0  0  0  0  0  0  0  0
   -1.4437  -14.0123   -5.0444 C   0  0  0  0  0  0  0  0  0  0  0  0
  1  4  1  0  0  0  0
  2  3  1  0  0  0  0
  3  5  1  0  0  0  0
  4  6  1  0  0  0  0
  5  8  1  0  0  0  0
  6  7  1  0  0  0  0
  7 10  1  0  0  0  0
  8  9  1  0  0  0  0
  9 12  1  0  0  0  0
  9 13  1  0  0  0  0
 10 11  1  0  0  0  0
 11 14  1  0  0  0  0
 14 15  1  0  0  0  0
 15 16  1  0  0  0  0
 15 17  1  0  0  0  0
 18  2  1  0  0  0  0
 18 20  2  0  0  0  0
 18 24  1  0  0  0  0
 19 25  1  0  0  0  0
 20  1  1  0  0  0  0
 20 21  1  0  0  0  0
 21 22  2  0  0  0  0
 22 19  1  0  0  0  0
 22 23  1  0  0  0  0
 23 24  2  0  0  0  0
M  END
>  <CHROM.1>
65.06898781,-157.45417648,-56.80994183,86.62169357,107.69147789,125.42084544
-60.97770123,38.68794448,72.42050031,146.61630055,-174.90348428,-79.19552661
-90.95187402,-18.43333911,23.68896731,128.05776236,-137.79166274,-69.65830608
-3.08356013,-9.54852933,-3.16607981,-2.94423899,-0.72022329,0.57200861

>  <Name>
1uud_lig

>  <RI>
0

>  <Rbt.Current_Directory>
/home/itssahil/PROJECTS/Mol_Feturizer/New_Systems/rnas/1uud

>  <Rbt.Executable>
rbdock ($Id: //depot/dev/client3/rdock/2013.1/src/exe/rbdock.cxx#4 $)

>  <Rbt.Library>
libRbt.so (2013.1, Build901 2013/11/27)

>  <Rbt.Parameter_File>
/export/apps/rDock/src/rDock_2013.1_src/data/scripts/dock_solv.prm

>  <Rbt.Receptor>
prm/pocket_docking_4.prm

>  <SCORE>
-29.7376

>  <SCORE.INTER>
-24.9637

>  <SCORE.INTER.CONST>
1

>  <SCORE.INTER.POLAR>
-4.40816

>  <SCORE.INTER.ROT>
18

>  <SCORE.INTER.SOLV>
10.0973

>  <SCORE.INTER.VDW>
-20.9144

>  <SCORE.INTER.norm>
-0.998549

>  <SCORE.INTRA>
-4.77391

>  <SCORE.INTRA.DIHEDRAL>
-3.84973

>  <SCORE.INTRA.DIHEDRAL.0>
30.6762

>  <SCORE.INTRA.POLAR>
0.0288659

>  <SCORE.INTRA.POLAR.0>
-0.0288659

>  <SCORE.INTRA.REPUL>
0

>  <SCORE.INTRA.REPUL.0>
0

>  <SCORE.INTRA.SOLV>
-0.644654

>  <SCORE.INTRA.SOLV.lig_0>
-25.2195

>  <SCORE.INTRA.VDW>
-2.62486

>  <SCORE.INTRA.VDW.0>
4.14263

>  <SCORE.INTRA.norm>
-0.190956

>  <SCORE.RESTR>
0

>  <SCORE.RESTR.CAVITY>
0

>  <SCORE.RESTR.norm>
0

>  <SCORE.SYSTEM>
0

>  <SCORE.SYSTEM.CONST>
0

>  <SCORE.SYSTEM.DIHEDRAL>
0

>  <SCORE.SYSTEM.SOLV>
0

>  <SCORE.SYSTEM.norm>
0

>  <SCORE.heavy>
25

>  <SCORE.norm>
-1.18951

>  <RMSD>
5.231

$$$$
1uud_lig
 OpenBabel11021811413D
libRbt.so/2013.1/901 2013/11/27
 25 25  0  0  0  0  0  0  0  0999 V2000
   -3.8249  -11.9533   -4.4670 C   0  0  0  0  0  0  0  0  0  0  0  0
   -5.4379  -10.1970   -6.1747 O   0  0  0  0  0  0  0  0  0  0  0  0
   -5.4970   -8.9993   -5.3858 C   0  0  0  0  0  0  0  0  0  0  0  0
   -2.7987  -11.9077   -3.3961 N   0  0  0  0  0  0  0  0  0  0  0  0
   -6.9539   -8.6664   -5.0369 C   0  0  0  0  0  0  0  0  0  0  0  0
   -2.5837  -10.5057   -2.9661 C   0  0  0  0  0  0  0  0  0  0  0  0
   -3.2395  -10.2825   -1.5980 C   0  0  0  0  0  0  0  0  0  0  0  0
   -7.3445   -9.3887   -4.0139 N   0  0  0  0  0  0  0  0  0  0  0  0
   -7.5132   -8.8568   -2.8179 C   0  0  0  0  0  0  0  0  0  0  0  0
   -2.2429   -9.6136   -0.6451 C   0  0  0  0  0  0  0  0  0  0  0  0
   -1.0846  -10.5738   -0.3597 C   0  0  0  0  0  0  0  0  0  0  0  0
   -8.4558   -7.8920   -2.5912 N   0  0  0  0  0  0  0  0  0  0  0  0
   -6.7320   -9.2761   -1.7893 N   0  0  0  0  0  0  0  0  0  0  0  0
   -0.0490   -9.9025    0.0856 N   0  0  0  0  0  0  0  0  0  0  0  0
    1.0547  -10.5137    0.4714 C   0  0  0  0  0  0  0  0  0  0  0  0
    0.9946  -11.8194    0.8393 N   0  0  0  0  0  0  0  0  0  0  0  0
    2.2537   -9.8610    0.5191 N   0  0  0  0  0  0  0  0  0  0  0  0
   -4.0835  -10.4684   -6.5571 C   0  0  0  0  0  0  0  0  0  0  0  0
   -0.0357  -11.2283   -7.6922 O   0  0  0  0  0  0  0  0  0  0  0  0
   -3.2638  -11.3120   -5.7531 C   0  0  0  0  0  0  0  0  0  0  0  0
   -1.9156  -11.5561   -6.1285 C   0  0  0  0  0  0  0  0  0  0  0  0
   -1.3918  -10.9776   -7.3145 C   0  0  0  0  0  0  0  0  0  0  0  0
   -2.2143  -10.1520   -8.1273 C   0  0  0  0  0  0  0  0  0  0  0  0
   -3.5627   -9.9022   -7.7537 C   0  0  0  0  0  0  0  0  0  0  0  0
    0.0065  -12.2899   -8.6502 C   0  0  0  0  0  0  0  0  0  0  0  0
  1  4  1  0  0  0  0
  2  3  1  0  0  0  0
  3  5  1  0  0  0  0
  4  6  1  0  0  0  0
  5  8  1  0  0  0  0
  6  7  1  0  0  0  0
  7 10  1  0  0  0  0
  8  9  1  0  0  0  0
  9 12  1  0  0  0  0
  9 13  1  0  0  0  0
 10 11  1  0  0  0  0
 11 14  1  0  0  0  0
 14 15  1  0  0  0  0
 15 16  1  0  0  0  0
 15 17  1  0  0  0  0
 18  2  1  0  0  0  0
 18 20  2  0  0  0  0
 18 24  1  0  0  0  0
 19 25  1  0  0  0  0
 20  1  1  0  0  0  0
 20 21  1  0  0  0  0
 21 22  2  0  0  0  0
 22 19  1  0  0  0  0
 22 23  1  0  0  0  0
 23 24  2  0  0  0  0
M  END
>  <CHROM.1>
68.93561048,177.05315088,81.12367762,105.65049101,107.18084276,130.35325997
-65.88898113,63.24912797,-72.13485254,-91.00761231,160.21371688,176.36177808
-22.06912840,-7.98379327,-65.48820133,92.40786872,-139.38256847,97.08717174
-3.02790991,-10.31965590,-3.79234743,-2.44686914,-0.28179731,1.42033432

>  <Name>
1uud_lig

>  <RI>
0

>  <Rbt.Current_Directory>
/home/itssahil/PROJECTS/Mol_Feturizer/New_Systems/rnas/1uud

>  <Rbt.Executable>
rbdock ($Id: //depot/dev/client3/rdock/2013.1/src/exe/rbdock.cxx#4 $)

>  <Rbt.Library>
libRbt.so (2013.1, Build901 2013/11/27)

>  <Rbt.Parameter_File>
/export/apps/rDock/src/rDock_2013.1_src/data/scripts/dock_solv.prm

>  <Rbt.Receptor>
prm/pocket_docking_8.prm

>  <SCORE>
-33.8829

>  <SCORE.INTER>
-31.2288

>  <SCORE.INTER.CONST>
1

>  <SCORE.INTER.POLAR>
-5.12001

>  <SCORE.INTER.ROT>
18

>  <SCORE.INTER.SOLV>
9.55519

>  <SCORE.INTER.VDW>
-22.5376

>  <SCORE.INTER.norm>
-1.24915

>  <SCORE.INTRA>
-2.65404

>  <SCORE.INTRA.DIHEDRAL>
0.664269

>  <SCORE.INTRA.DIHEDRAL.0>
30.6762

>  <SCORE.INTRA.POLAR>
0.0288659

>  <SCORE.INTRA.POLAR.0>
-0.0288659

>  <SCORE.INTRA.REPUL>
0

>  <SCORE.INTRA.REPUL.0>
0

>  <SCORE.INTRA.SOLV>
-0.904766

>  <SCORE.INTRA.SOLV.lig_0>
-25.2195

>  <SCORE.INTRA.VDW>
-2.63193

>  <SCORE.INTRA.VDW.0>
4.14263

>  <SCORE.INTRA.norm>
-0.106162

>  <SCORE.RESTR>
0

>  <SCORE.RESTR.CAVITY>
0

>  <SCORE.RESTR.norm>
0

>  <SCORE.SYSTEM>
0

>  <SCORE.SYSTEM.CONST>
0

>  <SCORE.SYSTEM.DIHEDRAL>
0

>  <SCORE.SYSTEM.SOLV>
0

>  <SCORE.SYSTEM.norm>
0

>  <SCORE.heavy>
25

>  <SCORE.norm>
-1.35531

>  <RMSD>
5.239

$$$$
1uud_lig
 OpenBabel11021811413D
libRbt.so/2013.1/901 2013/11/27
 25 25  0  0  0  0  0  0  0  0999 V2000
   -5.9504   -9.4844   -1.7309 C   0  0  0  0  0  0  0  0  0  0  0  0
   -6.6815   -7.8592   -4.0603 O   0  0  0  0  0  0  0  0  0  0  0  0
   -5.8377   -6.7153   -4.2602 C   0  0  0  0  0  0  0  0  0  0  0  0
   -4.7775   -8.9033   -1.0318 N   0  0  0  0  0  0  0  0  0  0  0  0
   -6.6501   -5.4234   -4.0980 C   0  0  0  0  0  0  0  0  0  0  0  0
   -3.7800   -9.9646   -0.7573 C   0  0  0  0  0  0  0  0  0  0  0  0
   -2.5032   -9.3338   -0.1887 C   0  0  0  0  0  0  0  0  0  0  0  0
   -7.1550   -5.3619   -2.8889 N   0  0  0  0  0  0  0  0  0  0  0  0
   -8.3738   -5.7954   -2.6271 C   0  0  0  0  0  0  0  0  0  0  0  0
   -1.3496  -10.3404   -0.2568 C   0  0  0  0  0  0  0  0  0  0  0  0
   -0.6469  -10.4061    1.1023 C   0  0  0  0  0  0  0  0  0  0  0  0
   -8.6451   -6.5326   -1.5075 N   0  0  0  0  0  0  0  0  0  0  0  0
   -9.3810   -5.5038   -3.4901 N   0  0  0  0  0  0  0  0  0  0  0  0
    0.3547  -11.2515    1.0454 N   0  0  0  0  0  0  0  0  0  0  0  0
    1.5986  -10.8376    0.8972 C   0  0  0  0  0  0  0  0  0  0  0  0
    2.6045  -11.5426    1.4758 N   0  0  0  0  0  0  0  0  0  0  0  0
    1.8967   -9.7111    0.1843 N   0  0  0  0  0  0  0  0  0  0  0  0
   -5.9356   -9.0645   -4.2733 C   0  0  0  0  0  0  0  0  0  0  0  0
   -3.6743  -12.6295   -4.9267 O   0  0  0  0  0  0  0  0  0  0  0  0
   -5.5556   -9.8803   -3.1688 C   0  0  0  0  0  0  0  0  0  0  0  0
   -4.7964  -11.0608   -3.3883 C   0  0  0  0  0  0  0  0  0  0  0  0
   -4.4350  -11.4387   -4.7082 C   0  0  0  0  0  0  0  0  0  0  0  0
   -4.8302  -10.6360   -5.8120 C   0  0  0  0  0  0  0  0  0  0  0  0
   -5.5868   -9.4523   -5.5968 C   0  0  0  0  0  0  0  0  0  0  0  0
   -2.3294  -12.4273   -4.4828 C   0  0  0  0  0  0  0  0  0  0  0  0
  1  4  1  0  0  0  0
  2  3  1  0  0  0  0
  3  5  1  0  0  0  0
  4  6  1  0  0  0  0
  5  8  1  0  0  0  0
  6  7  1  0  0  0  0
  7 10  1  0  0  0  0
  8  9  1  0  0  0  0
  9 12  1  0  0  0  0
  9 13  1  0  0  0  0
 10 11  1  0  0  0  0
 11 14  1  0  0  0  0
 14 15  1  0  0  0  0
 15 16  1  0  0  0  0
 15 17  1  0  0  0  0
 18  2  1  0  0  0  0
 18 20  2  0  0  0  0
 18 24  1  0  0  0  0
 19 25  1  0  0  0  0
 20  1  1  0  0  0  0
 20 21  1  0  0  0  0
 21 22  2  0  0  0  0
 22 19  1  0  0  0  0
 22 23  1  0  0  0  0
 23 24  2  0  0  0  0
M  END
>  <CHROM.1>
-70.36398003,177.32614422,60.49076597,173.27415116,-93.94965326,-164.73057228
-130.85859994,137.10290962,44.99596774,-75.47538997,-179.06190683,100.20221953
147.37253319,57.02354845,-133.92562008,106.77485132,-102.86567732,-71.87595854
-4.06146861,-9.23337075,-2.27692291,3.11869680,0.60822551,-2.29668213

>  <Name>
1uud_lig

>  <RI>
0

>  <Rbt.Current_Directory>
/home/itssahil/PROJECTS/Mol_Feturizer/New_Systems/rnas/1uud

>  <Rbt.Executable>
rbdock ($Id: //depot/dev/client3/rdock/2013.1/src/exe/rbdock.cxx#4 $)

>  <Rbt.Library>
libRbt.so (2013.1, Build901 2013/11/27)

>  <Rbt.Parameter_File>
/export/apps/rDock/src/rDock_2013.1_src/data/scripts/dock_solv.prm

>  <Rbt.Receptor>
prm/pocket_docking_5.prm

>  <SCORE>
-34.4785

>  <SCORE.INTER>
-26.9555

>  <SCORE.INTER.CONST>
1

>  <SCORE.INTER.POLAR>
-4.43818

>  <SCORE.INTER.ROT>
18

>  <SCORE.INTER.SOLV>
8.84291

>  <SCORE.INTER.VDW>
-21.724

>  <SCORE.INTER.norm>
-1.07822

>  <SCORE.INTRA>
-7.52305

>  <SCORE.INTRA.DIHEDRAL>
-4.71993

>  <SCORE.INTRA.DIHEDRAL.0>
30.6762

>  <SCORE.INTRA.POLAR>
0.0288659

>  <SCORE.INTRA.POLAR.0>
-0.0288659

>  <SCORE.INTRA.REPUL>
0

>  <SCORE.INTRA.REPUL.0>
0

>  <SCORE.INTRA.SOLV>
-0.46664

>  <SCORE.INTRA.SOLV.lig_0>
-25.2195

>  <SCORE.INTRA.VDW>
-5.02791

>  <SCORE.INTRA.VDW.0>
4.14263

>  <SCORE.INTRA.norm>
-0.300922

>  <SCORE.RESTR>
0

>  <SCORE.RESTR.CAVITY>
0

>  <SCORE.RESTR.norm>
0

>  <SCORE.SYSTEM>
0

>  <SCORE.SYSTEM.CONST>
0

>  <SCORE.SYSTEM.DIHEDRAL>
0

>  <SCORE.SYSTEM.SOLV>
0

>  <SCORE.SYSTEM.norm>
0

>  <SCORE.heavy>
25

>  <SCORE.norm>
-1.37914

>  <RMSD>
5.244

$$$$
1uud_lig
 OpenBabel11021811413D
libRbt.so/2013.1/901 2013/11/27
 25 25  0  0  0  0  0  0  0  0999 V2000
   -2.6102   -8.7729   -2.2586 C   0  0  0  0  0  0  0  0  0  0  0  0
   -5.5423   -8.8190   -2.3132 O   0  0  0  0  0  0  0  0  0  0  0  0
   -5.8646   -7.6645   -3.1029 C   0  0  0  0  0  0  0  0  0  0  0  0
   -1.9051   -9.4868   -1.1653 N   0  0  0  0  0  0  0  0  0  0  0  0
   -7.2384   -7.8418   -3.7635 C   0  0  0  0  0  0  0  0  0  0  0  0
   -1.3026   -8.5057   -0.2318 C   0  0  0  0  0  0  0  0  0  0  0  0
   -0.6771   -9.2458    0.9566 C   0  0  0  0  0  0  0  0  0  0  0  0
   -7.5691   -6.7477   -4.4073 N   0  0  0  0  0  0  0  0  0  0  0  0
   -8.1205   -5.7218   -3.7864 C   0  0  0  0  0  0  0  0  0  0  0  0
    0.8389   -9.0215    0.9709 C   0  0  0  0  0  0  0  0  0  0  0  0
    1.5062   -9.9717   -0.0276 C   0  0  0  0  0  0  0  0  0  0  0  0
   -9.4322   -5.3880   -3.9834 N   0  0  0  0  0  0  0  0  0  0  0  0
   -7.3676   -4.9799   -2.9338 N   0  0  0  0  0  0  0  0  0  0  0  0
    2.5884  -10.4885    0.5043 N   0  0  0  0  0  0  0  0  0  0  0  0
    2.5214  -11.3908    1.4644 C   0  0  0  0  0  0  0  0  0  0  0  0
    1.3065  -11.8604    1.8483 N   0  0  0  0  0  0  0  0  0  0  0  0
    3.6444  -11.8557    2.0879 N   0  0  0  0  0  0  0  0  0  0  0  0
   -4.8276   -9.7747   -3.1071 C   0  0  0  0  0  0  0  0  0  0  0  0
   -2.7174  -12.6029   -5.5152 O   0  0  0  0  0  0  0  0  0  0  0  0
   -3.4029   -9.7834   -3.1135 C   0  0  0  0  0  0  0  0  0  0  0  0
   -2.7038  -10.7195   -3.9218 C   0  0  0  0  0  0  0  0  0  0  0  0
   -3.4235  -11.6591   -4.7057 C   0  0  0  0  0  0  0  0  0  0  0  0
   -4.8443  -11.6640   -4.6850 C   0  0  0  0  0  0  0  0  0  0  0  0
   -5.5478  -10.7269   -3.8806 C   0  0  0  0  0  0  0  0  0  0  0  0
   -2.4048  -13.7621   -4.7374 C   0  0  0  0  0  0  0  0  0  0  0  0
  1  4  1  0  0  0  0
  2  3  1  0  0  0  0
  3  5  1  0  0  0  0
  4  6  1  0  0  0  0
  5  8  1  0  0  0  0
  6  7  1  0  0  0  0
  7 10  1  0  0  0  0
  8  9  1  0  0  0  0
  9 12  1  0  0  0  0
  9 13  1  0  0  0  0
 10 11  1  0  0  0  0
 11 14  1  0  0  0  0
 14 15  1  0  0  0  0
 15 16  1  0  0  0  0
 15 17  1  0  0  0  0
 18  2  1  0  0  0  0
 18 20  2  0  0  0  0
 18 24  1  0  0  0  0
 19 25  1  0  0  0  0
 20  1  1  0  0  0  0
 20 21  1  0  0  0  0
 21 22  2  0  0  0  0
 22 19  1  0  0  0  0
 22 23  1  0  0  0  0
 23 24  2  0  0  0  0
M  END
>  <CHROM.1>
-171.98827545,90.80703565,175.62045047,175.30169395,-83.09289387,116.18848291
-80.80042548,-109.51077799,4.35487976,99.73181932,-137.02726656,71.86439469
4.46314069,-64.13899367,-72.79775592,93.78498374,111.98144153,87.05593852
-2.97747933,-9.51517626,-2.10420391,3.13834614,0.58970030,-2.46673316

>  <Name>
1uud_lig

>  <RI>
0

>  <Rbt.Current_Directory>
/home/itssahil/PROJECTS/Mol_Feturizer/New_Systems/rnas/1uud

>  <Rbt.Executable>
rbdock ($Id: //depot/dev/client3/rdock/2013.1/src/exe/rbdock.cxx#4 $)

>  <Rbt.Library>
libRbt.so (2013.1, Build901 2013/11/27)

>  <Rbt.Parameter_File>
/export/apps/rDock/src/rDock_2013.1_src/data/scripts/dock_solv.prm

>  <Rbt.Receptor>
prm/pocket_docking_2.prm

>  <SCORE>
-24.8241

>  <SCORE.INTER>
-24.5477

>  <SCORE.INTER.CONST>
1

>  <SCORE.INTER.POLAR>
-3.88609

>  <SCORE.INTER.ROT>
18

>  <SCORE.INTER.SOLV>
11.8019

>  <SCORE.INTER.VDW>
-22.9455

>  <SCORE.INTER.norm>
-0.981909

>  <SCORE.INTRA>
-1.72987

>  <SCORE.INTRA.DIHEDRAL>
4.83954

>  <SCORE.INTRA.DIHEDRAL.0>
30.6762

>  <SCORE.INTRA.POLAR>
0.0288659

>  <SCORE.INTRA.POLAR.0>
-0.0288659

>  <SCORE.INTRA.REPUL>
0

>  <SCORE.INTRA.REPUL.0>
0

>  <SCORE.INTRA.SOLV>
-0.744663

>  <SCORE.INTRA.SOLV.lig_0>
-25.2195

>  <SCORE.INTRA.VDW>
-3.87545

>  <SCORE.INTRA.VDW.0>
4.14263

>  <SCORE.INTRA.norm>
-0.0691949

>  <SCORE.RESTR>
1.45351

>  <SCORE.RESTR.CAVITY>
1.45351

>  <SCORE.RESTR.norm>
0.0581403

>  <SCORE.SYSTEM>
0

>  <SCORE.SYSTEM.CONST>
0

>  <SCORE.SYSTEM.DIHEDRAL>
0

>  <SCORE.SYSTEM.SOLV>
0

>  <SCORE.SYSTEM.norm>
0

>  <SCORE.heavy>
25

>  <SCORE.norm>
-0.992963

>  <RMSD>
5.253

$$$$
1uud_lig
 OpenBabel11021811413D
libRbt.so/2013.1/901 2013/11/27
 25 25  0  0  0  0  0  0  0  0999 V2000
   -2.5806  -12.0229   -3.6221 C   0  0  0  0  0  0  0  0  0  0  0  0
   -4.8621  -10.2644   -4.1747 O   0  0  0  0  0  0  0  0  0  0  0  0
   -6.1778  -10.8071   -3.9889 C   0  0  0  0  0  0  0  0  0  0  0  0
   -2.5477  -10.7450   -2.8684 N   0  0  0  0  0  0  0  0  0  0  0  0
   -6.9265  -10.0208   -2.9043 C   0  0  0  0  0  0  0  0  0  0  0  0
   -2.2992  -11.0154   -1.4325 C   0  0  0  0  0  0  0  0  0  0  0  0
   -2.5013   -9.7271   -0.6255 C   0  0  0  0  0  0  0  0  0  0  0  0
   -7.1383   -8.7913   -3.3097 N   0  0  0  0  0  0  0  0  0  0  0  0
   -6.9053   -7.7562   -2.5247 C   0  0  0  0  0  0  0  0  0  0  0  0
   -2.4050  -10.0306    0.8736 C   0  0  0  0  0  0  0  0  0  0  0  0
   -1.2152   -9.2755    1.4731 C   0  0  0  0  0  0  0  0  0  0  0  0
   -5.8720   -6.8937   -2.7671 N   0  0  0  0  0  0  0  0  0  0  0  0
   -7.7094   -7.5437   -1.4511 N   0  0  0  0  0  0  0  0  0  0  0  0
   -0.0935   -9.8494    1.1075 N   0  0  0  0  0  0  0  0  0  0  0  0
    0.7692   -9.2371    0.3192 C   0  0  0  0  0  0  0  0  0  0  0  0
    2.0760   -9.6038    0.3562 N   0  0  0  0  0  0  0  0  0  0  0  0
    0.3800   -8.2364   -0.5254 N   0  0  0  0  0  0  0  0  0  0  0  0
   -4.2137  -10.9117   -5.2770 C   0  0  0  0  0  0  0  0  0  0  0  0
   -2.2682  -12.7954   -8.5811 O   0  0  0  0  0  0  0  0  0  0  0  0
   -3.0985  -11.7697   -5.0532 C   0  0  0  0  0  0  0  0  0  0  0  0
   -2.4483  -12.3881   -6.1546 C   0  0  0  0  0  0  0  0  0  0  0  0
   -2.9220  -12.1685   -7.4747 C   0  0  0  0  0  0  0  0  0  0  0  0
   -4.0461  -11.3284   -7.6973 C   0  0  0  0  0  0  0  0  0  0  0  0
   -4.6975  -10.7049   -6.5987 C   0  0  0  0  0  0  0  0  0  0  0  0
   -2.8668  -14.0703   -8.8318 C   0  0  0  0  0  0  0  0  0  0  0  0
  1  4  1  0  0  0  0
  2  3  1  0  0  0  0
  3  5  1  0  0  0  0
  4  6  1  0  0  0  0
  5  8  1  0  0  0  0
  6  7  1  0  0  0  0
  7 10  1  0  0  0  0
  8  9  1  0  0  0  0
  9 12  1  0  0  0  0
  9 13  1  0  0  0  0
 10 11  1  0  0  0  0
 11 14  1  0  0  0  0
 14 15  1  0  0  0  0
 15 16  1  0  0  0  0
 15 17  1  0  0  0  0
 18  2  1  0  0  0  0
 18 20  2  0  0  0  0
 18 24  1  0  0  0  0
 19 25  1  0  0  0  0
 20  1  1  0  0  0  0
 20 21  1  0  0  0  0
 21 22  2  0  0  0  0
 22 19  1  0  0  0  0
 22 23  1  0  0  0  0
 23 24  2  0  0  0  0
M  END
>  <CHROM.1>
169.39193949,-174.25852418,65.65019054,-170.47532941,-134.12301925,173.53115874
117.13268458,110.17589869,160.02189573,4.89848888,-73.91602019,113.94842044
155.73775411,159.29750061,89.73518727,-111.41252887,-43.07560853,89.82342090
-3.28456339,-10.26286624,-3.19638884,-1.99702695,-0.33324882,1.08200232

>  <Name>
1uud_lig

>  <RI>
0

>  <Rbt.Current_Directory>
/home/itssahil/PROJECTS/Mol_Feturizer/New_Systems/rnas/1uud

>  <Rbt.Executable>
rbdock ($Id: //depot/dev/client3/rdock/2013.1/src/exe/rbdock.cxx#4 $)

>  <Rbt.Library>
libRbt.so (2013.1, Build901 2013/11/27)

>  <Rbt.Parameter_File>
/export/apps/rDock/src/rDock_2013.1_src/data/scripts/dock_solv.prm

>  <Rbt.Receptor>
prm/pocket_docking_3.prm

>  <SCORE>
-22.0757

>  <SCORE.INTER>
-11.5768

>  <SCORE.INTER.CONST>
1

>  <SCORE.INTER.POLAR>
-1.56779

>  <SCORE.INTER.ROT>
18

>  <SCORE.INTER.SOLV>
6.57979

>  <SCORE.INTER.VDW>
-20.2851

>  <SCORE.INTER.norm>
-0.463071

>  <SCORE.INTRA>
-10.5104

>  <SCORE.INTRA.DIHEDRAL>
-3.69277

>  <SCORE.INTRA.DIHEDRAL.0>
30.6762

>  <SCORE.INTRA.POLAR>
-0.713908

>  <SCORE.INTRA.POLAR.0>
-0.0288659

>  <SCORE.INTRA.REPUL>
0

>  <SCORE.INTRA.REPUL.0>
0

>  <SCORE.INTRA.SOLV>
-0.0756365

>  <SCORE.INTRA.SOLV.lig_0>
-25.2195

>  <SCORE.INTRA.VDW>
-6.19894

>  <SCORE.INTRA.VDW.0>
4.14263

>  <SCORE.INTRA.norm>
-0.420417

>  <SCORE.RESTR>
0.0114591

>  <SCORE.RESTR.CAVITY>
0.0114591

>  <SCORE.RESTR.norm>
0.000458362

>  <SCORE.SYSTEM>
0

>  <SCORE.SYSTEM.CONST>
0

>  <SCORE.SYSTEM.DIHEDRAL>
0

>  <SCORE.SYSTEM.SOLV>
0

>  <SCORE.SYSTEM.norm>
0

>  <SCORE.heavy>
25

>  <SCORE.norm>
-0.88303

>  <RMSD>
5.254

$$$$
1uud_lig
 OpenBabel11021811413D
libRbt.so/2013.1/901 2013/11/27
 25 25  0  0  0  0  0  0  0  0999 V2000
   -5.0690   -9.0836   -1.5221 C   0  0  0  0  0  0  0  0  0  0  0  0
   -6.5306   -7.8413   -3.7409 O   0  0  0  0  0  0  0  0  0  0  0  0
   -5.7546   -6.7531   -4.2642 C   0  0  0  0  0  0  0  0  0  0  0  0
   -3.9507   -9.6813   -0.7511 N   0  0  0  0  0  0  0  0  0  0  0  0
   -6.3716   -5.4125   -3.8433 C   0  0  0  0  0  0  0  0  0  0  0  0
   -3.6651   -8.8521    0.4437 C   0  0  0  0  0  0  0  0  0  0  0  0
   -2.8670   -9.6764    1.4612 C   0  0  0  0  0  0  0  0  0  0  0  0
   -7.6603   -5.4172   -4.0882 N   0  0  0  0  0  0  0  0  0  0  0  0
   -8.5415   -5.6828   -3.1422 C   0  0  0  0  0  0  0  0  0  0  0  0
   -1.5717  -10.1847    0.8189 C   0  0  0  0  0  0  0  0  0  0  0  0
   -0.6917  -10.8372    1.8890 C   0  0  0  0  0  0  0  0  0  0  0  0
   -9.2104   -6.8751   -3.1029 N   0  0  0  0  0  0  0  0  0  0  0  0
   -8.7904   -4.7502   -2.1869 N   0  0  0  0  0  0  0  0  0  0  0  0
    0.2713  -11.5209    1.3176 N   0  0  0  0  0  0  0  0  0  0  0  0
    1.4930  -11.0344    1.2119 C   0  0  0  0  0  0  0  0  0  0  0  0
    2.5213  -11.6915    1.8073 N   0  0  0  0  0  0  0  0  0  0  0  0
    1.7458   -9.8802    0.5263 N   0  0  0  0  0  0  0  0  0  0  0  0
   -5.8565   -9.0843   -3.9757 C   0  0  0  0  0  0  0  0  0  0  0  0
   -3.8179  -12.7662   -4.7094 O   0  0  0  0  0  0  0  0  0  0  0  0
   -5.1306   -9.7188   -2.9267 C   0  0  0  0  0  0  0  0  0  0  0  0
   -4.4466  -10.9388   -3.1759 C   0  0  0  0  0  0  0  0  0  0  0  0
   -4.5038  -11.5361   -4.4625 C   0  0  0  0  0  0  0  0  0  0  0  0
   -5.2436  -10.9141   -5.5040 C   0  0  0  0  0  0  0  0  0  0  0  0
   -5.9265   -9.6917   -5.2602 C   0  0  0  0  0  0  0  0  0  0  0  0
   -2.4394  -12.4994   -4.9836 C   0  0  0  0  0  0  0  0  0  0  0  0
  1  4  1  0  0  0  0
  2  3  1  0  0  0  0
  3  5  1  0  0  0  0
  4  6  1  0  0  0  0
  5  8  1  0  0  0  0
  6  7  1  0  0  0  0
  7 10  1  0  0  0  0
  8  9  1  0  0  0  0
  9 12  1  0  0  0  0
  9 13  1  0  0  0  0
 10 11  1  0  0  0  0
 11 14  1  0  0  0  0
 14 15  1  0  0  0  0
 15 16  1  0  0  0  0
 15 17  1  0  0  0  0
 18  2  1  0  0  0  0
 18 20  2  0  0  0  0
 18 24  1  0  0  0  0
 19 25  1  0  0  0  0
 20  1  1  0  0  0  0
 20 21  1  0  0  0  0
 21 22  2  0  0  0  0
 22 19  1  0  0  0  0
 22 23  1  0  0  0  0
 23 24  2  0  0  0  0
M  END
>  <CHROM.1>
165.55224147,-172.06341051,-48.62657479,161.34154398,97.97177287,57.64664487
172.15860725,-106.39171158,-39.07513343,108.69621427,166.57259955,100.17390688
119.11873972,63.20562260,-67.18489621,101.17681300,-162.73607783,-82.20244518
-4.04470290,-9.27385422,-2.03514706,3.06311424,0.66790399,-2.28070133

>  <Name>
1uud_lig

>  <RI>
0

>  <Rbt.Current_Directory>
/home/itssahil/PROJECTS/Mol_Feturizer/New_Systems/rnas/1uud

>  <Rbt.Executable>
rbdock ($Id: //depot/dev/client3/rdock/2013.1/src/exe/rbdock.cxx#4 $)

>  <Rbt.Library>
libRbt.so (2013.1, Build901 2013/11/27)

>  <Rbt.Parameter_File>
/export/apps/rDock/src/rDock_2013.1_src/data/scripts/dock_solv.prm

>  <Rbt.Receptor>
prm/pocket_docking_3.prm

>  <SCORE>
-38.6957

>  <SCORE.INTER>
-28.9551

>  <SCORE.INTER.CONST>
1

>  <SCORE.INTER.POLAR>
-4.62555

>  <SCORE.INTER.ROT>
18

>  <SCORE.INTER.SOLV>
9.97483

>  <SCORE.INTER.VDW>
-22.8098

>  <SCORE.INTER.norm>
-1.1582

>  <SCORE.INTRA>
-9.74063

>  <SCORE.INTRA.DIHEDRAL>
-7.99242

>  <SCORE.INTRA.DIHEDRAL.0>
30.6762

>  <SCORE.INTRA.POLAR>
0.0288659

>  <SCORE.INTRA.POLAR.0>
-0.0288659

>  <SCORE.INTRA.REPUL>
0

>  <SCORE.INTRA.REPUL.0>
0

>  <SCORE.INTRA.SOLV>
-0.548847

>  <SCORE.INTRA.SOLV.lig_0>
-25.2195

>  <SCORE.INTRA.VDW>
-5.56814

>  <SCORE.INTRA.VDW.0>
4.14263

>  <SCORE.INTRA.norm>
-0.389625

>  <SCORE.RESTR>
0

>  <SCORE.RESTR.CAVITY>
0

>  <SCORE.RESTR.norm>
0

>  <SCORE.SYSTEM>
0

>  <SCORE.SYSTEM.CONST>
0

>  <SCORE.SYSTEM.DIHEDRAL>
0

>  <SCORE.SYSTEM.SOLV>
0

>  <SCORE.SYSTEM.norm>
0

>  <SCORE.heavy>
25

>  <SCORE.norm>
-1.54783

>  <RMSD>
5.259

$$$$
1uud_lig
 OpenBabel11021811413D
libRbt.so/2013.1/901 2013/11/27
 25 25  0  0  0  0  0  0  0  0999 V2000
   -3.9700  -11.2576   -4.0274 C   0  0  0  0  0  0  0  0  0  0  0  0
   -5.6070   -9.8040   -5.9793 O   0  0  0  0  0  0  0  0  0  0  0  0
   -4.8617   -8.6852   -5.4762 C   0  0  0  0  0  0  0  0  0  0  0  0
   -2.6297  -11.4398   -3.4170 N   0  0  0  0  0  0  0  0  0  0  0  0
   -5.3246   -8.3367   -4.0552 C   0  0  0  0  0  0  0  0  0  0  0  0
   -2.6433  -10.9467   -2.0194 C   0  0  0  0  0  0  0  0  0  0  0  0
   -2.2997   -9.4523   -1.9995 C   0  0  0  0  0  0  0  0  0  0  0  0
   -6.3048   -7.4663   -4.1054 N   0  0  0  0  0  0  0  0  0  0  0  0
   -7.5662   -7.8410   -4.0037 C   0  0  0  0  0  0  0  0  0  0  0  0
   -1.4917   -9.1201   -0.7403 C   0  0  0  0  0  0  0  0  0  0  0  0
   -0.0871   -9.7183   -0.8609 C   0  0  0  0  0  0  0  0  0  0  0  0
   -8.3250   -7.5085   -2.9155 N   0  0  0  0  0  0  0  0  0  0  0  0
   -8.1227   -8.5745   -5.0019 N   0  0  0  0  0  0  0  0  0  0  0  0
    0.4465   -9.8460    0.3308 N   0  0  0  0  0  0  0  0  0  0  0  0
    1.4196  -10.7063    0.5618 C   0  0  0  0  0  0  0  0  0  0  0  0
    1.1086  -11.9673    0.9575 N   0  0  0  0  0  0  0  0  0  0  0  0
    2.7323  -10.3549    0.4222 N   0  0  0  0  0  0  0  0  0  0  0  0
   -4.7123  -10.8175   -6.4555 C   0  0  0  0  0  0  0  0  0  0  0  0
   -2.0203  -13.8032   -7.9010 O   0  0  0  0  0  0  0  0  0  0  0  0
   -3.8954  -11.5437   -5.5416 C   0  0  0  0  0  0  0  0  0  0  0  0
   -2.9950  -12.5301   -6.0260 C   0  0  0  0  0  0  0  0  0  0  0  0
   -2.9245  -12.8070   -7.4166 C   0  0  0  0  0  0  0  0  0  0  0  0
   -3.7529  -12.0970   -8.3269 C   0  0  0  0  0  0  0  0  0  0  0  0
   -4.6526  -11.1069   -7.8471 C   0  0  0  0  0  0  0  0  0  0  0  0
   -1.1637  -13.2308   -8.8936 C   0  0  0  0  0  0  0  0  0  0  0  0
  1  4  1  0  0  0  0
  2  3  1  0  0  0  0
  3  5  1  0  0  0  0
  4  6  1  0  0  0  0
  5  8  1  0  0  0  0
  6  7  1  0  0  0  0
  7 10  1  0  0  0  0
  8  9  1  0  0  0  0
  9 12  1  0  0  0  0
  9 13  1  0  0  0  0
 10 11  1  0  0  0  0
 11 14  1  0  0  0  0
 14 15  1  0  0  0  0
 15 16  1  0  0  0  0
 15 17  1  0  0  0  0
 18  2  1  0  0  0  0
 18 20  2  0  0  0  0
 18 24  1  0  0  0  0
 19 25  1  0  0  0  0
 20  1  1  0  0  0  0
 20 21  1  0  0  0  0
 21 22  2  0  0  0  0
 22 19  1  0  0  0  0
 22 23  1  0  0  0  0
 23 24  2  0  0  0  0
M  END
>  <CHROM.1>
170.42096761,-127.61635845,-89.89039902,-88.37333341,98.39957092,-145.26503238
70.91675690,111.99194657,43.50452783,41.05316903,-158.74254566,157.34005142
-90.54318674,0.10511484,6.75119173,68.36817221,-146.07841520,-124.64332367
-3.16421583,-10.41047716,-3.94866206,-2.52347865,-0.49462429,1.06096435

>  <Name>
1uud_lig

>  <RI>
0

>  <Rbt.Current_Directory>
/home/itssahil/PROJECTS/Mol_Feturizer/New_Systems/rnas/1uud

>  <Rbt.Executable>
rbdock ($Id: //depot/dev/client3/rdock/2013.1/src/exe/rbdock.cxx#4 $)

>  <Rbt.Library>
libRbt.so (2013.1, Build901 2013/11/27)

>  <Rbt.Parameter_File>
/export/apps/rDock/src/rDock_2013.1_src/data/scripts/dock_solv.prm

>  <Rbt.Receptor>
prm/pocket_docking_6.prm

>  <SCORE>
-35.5297

>  <SCORE.INTER>
-31.3832

>  <SCORE.INTER.CONST>
1

>  <SCORE.INTER.POLAR>
-4.58497

>  <SCORE.INTER.ROT>
18

>  <SCORE.INTER.SOLV>
11.0886

>  <SCORE.INTER.VDW>
-24.9351

>  <SCORE.INTER.norm>
-1.25533

>  <SCORE.INTRA>
-4.14652

>  <SCORE.INTRA.DIHEDRAL>
3.99073

>  <SCORE.INTRA.DIHEDRAL.0>
30.6762

>  <SCORE.INTRA.POLAR>
-0.791485

>  <SCORE.INTRA.POLAR.0>
-0.0288659

>  <SCORE.INTRA.REPUL>
0

>  <SCORE.INTRA.REPUL.0>
0

>  <SCORE.INTRA.SOLV>
-0.674354

>  <SCORE.INTRA.SOLV.lig_0>
-25.2195

>  <SCORE.INTRA.VDW>
-3.11366

>  <SCORE.INTRA.VDW.0>
4.14263

>  <SCORE.INTRA.norm>
-0.165861

>  <SCORE.RESTR>
0

>  <SCORE.RESTR.CAVITY>
0

>  <SCORE.RESTR.norm>
0

>  <SCORE.SYSTEM>
0

>  <SCORE.SYSTEM.CONST>
0

>  <SCORE.SYSTEM.DIHEDRAL>
0

>  <SCORE.SYSTEM.SOLV>
0

>  <SCORE.SYSTEM.norm>
0

>  <SCORE.heavy>
25

>  <SCORE.norm>
-1.42119

>  <RMSD>
5.259

$$$$
1uud_lig
 OpenBabel11021811413D
libRbt.so/2013.1/901 2013/11/27
 25 25  0  0  0  0  0  0  0  0999 V2000
   -3.3966   -8.1339   -5.3164 C   0  0  0  0  0  0  0  0  0  0  0  0
   -5.5288   -9.7864   -6.4676 O   0  0  0  0  0  0  0  0  0  0  0  0
   -5.9580   -9.9353   -5.1060 C   0  0  0  0  0  0  0  0  0  0  0  0
   -2.7491   -8.1652   -3.9815 N   0  0  0  0  0  0  0  0  0  0  0  0
   -7.4053   -9.4493   -4.9510 C   0  0  0  0  0  0  0  0  0  0  0  0
   -3.0219   -6.8988   -3.2614 C   0  0  0  0  0  0  0  0  0  0  0  0
   -2.1704   -6.8395   -1.9874 C   0  0  0  0  0  0  0  0  0  0  0  0
   -7.8623   -9.7774   -3.7659 N   0  0  0  0  0  0  0  0  0  0  0  0
   -8.2121   -8.8607   -2.8832 C   0  0  0  0  0  0  0  0  0  0  0  0
   -2.6337   -7.9164   -1.0003 C   0  0  0  0  0  0  0  0  0  0  0  0
   -1.6671   -9.1033   -1.0470 C   0  0  0  0  0  0  0  0  0  0  0  0
   -7.5989   -8.7717   -1.6639 N   0  0  0  0  0  0  0  0  0  0  0  0
   -9.2046   -7.9868   -3.1924 N   0  0  0  0  0  0  0  0  0  0  0  0
   -0.5093   -8.7550   -0.5376 N   0  0  0  0  0  0  0  0  0  0  0  0
   -0.0364   -9.3263    0.5535 C   0  0  0  0  0  0  0  0  0  0  0  0
   -0.8153   -9.3787    1.6644 N   0  0  0  0  0  0  0  0  0  0  0  0
    1.2218   -9.8568    0.5945 N   0  0  0  0  0  0  0  0  0  0  0  0
   -4.1715  -10.2255   -6.6069 C   0  0  0  0  0  0  0  0  0  0  0  0
   -0.1302  -11.5301   -7.0722 O   0  0  0  0  0  0  0  0  0  0  0  0
   -3.1052   -9.4499   -6.0670 C   0  0  0  0  0  0  0  0  0  0  0  0
   -1.7617   -9.8819   -6.2307 C   0  0  0  0  0  0  0  0  0  0  0  0
   -1.4831  -11.0956   -6.9125 C   0  0  0  0  0  0  0  0  0  0  0  0
   -2.5470  -11.8796   -7.4342 C   0  0  0  0  0  0  0  0  0  0  0  0
   -3.8924  -11.4495   -7.2759 C   0  0  0  0  0  0  0  0  0  0  0  0
    0.3248  -12.1362   -5.8588 C   0  0  0  0  0  0  0  0  0  0  0  0
  1  4  1  0  0  0  0
  2  3  1  0  0  0  0
  3  5  1  0  0  0  0
  4  6  1  0  0  0  0
  5  8  1  0  0  0  0
  6  7  1  0  0  0  0
  7 10  1  0  0  0  0
  8  9  1  0  0  0  0
  9 12  1  0  0  0  0
  9 13  1  0  0  0  0
 10 11  1  0  0  0  0
 11 14  1  0  0  0  0
 14 15  1  0  0  0  0
 15 16  1  0  0  0  0
 15 17  1  0  0  0  0
 18  2  1  0  0  0  0
 18 20  2  0  0  0  0
 18 24  1  0  0  0  0
 19 25  1  0  0  0  0
 20  1  1  0  0  0  0
 20 21  1  0  0  0  0
 21 22  2  0  0  0  0
 22 19  1  0  0  0  0
 22 23  1  0  0  0  0
 23 24  2  0  0  0  0
M  END
>  <CHROM.1>
179.70652706,179.29114603,170.17430240,-170.87812085,116.64720982,-67.05421983
101.82343541,-119.66326285,-139.50835540,142.45981586,69.07311685,116.61295322
-52.44304611,-108.98209292,-179.62015442,-71.83106358,126.69728991,79.42017531
-3.37897672,-9.44311559,-3.72859812,-2.55115657,-0.19227598,1.22751607

>  <Name>
1uud_lig

>  <RI>
0

>  <Rbt.Current_Directory>
/home/itssahil/PROJECTS/Mol_Feturizer/New_Systems/rnas/1uud

>  <Rbt.Executable>
rbdock ($Id: //depot/dev/client3/rdock/2013.1/src/exe/rbdock.cxx#4 $)

>  <Rbt.Library>
libRbt.so (2013.1, Build901 2013/11/27)

>  <Rbt.Parameter_File>
/export/apps/rDock/src/rDock_2013.1_src/data/scripts/dock_solv.prm

>  <Rbt.Receptor>
prm/pocket_docking_5.prm

>  <SCORE>
-23.8845

>  <SCORE.INTER>
-15.4391

>  <SCORE.INTER.CONST>
1

>  <SCORE.INTER.POLAR>
-3.48203

>  <SCORE.INTER.ROT>
18

>  <SCORE.INTER.SOLV>
7.85301

>  <SCORE.INTER.VDW>
-16.9036

>  <SCORE.INTER.norm>
-0.617563

>  <SCORE.INTRA>
-8.44539

>  <SCORE.INTRA.DIHEDRAL>
-5.46066

>  <SCORE.INTRA.DIHEDRAL.0>
30.6762

>  <SCORE.INTRA.POLAR>
0.0288659

>  <SCORE.INTRA.POLAR.0>
-0.0288659

>  <SCORE.INTRA.REPUL>
0

>  <SCORE.INTRA.REPUL.0>
0

>  <SCORE.INTRA.SOLV>
-1.03482

>  <SCORE.INTRA.SOLV.lig_0>
-25.2195

>  <SCORE.INTRA.VDW>
-5.2958

>  <SCORE.INTRA.VDW.0>
4.14263

>  <SCORE.INTRA.norm>
-0.337816

>  <SCORE.RESTR>
0

>  <SCORE.RESTR.CAVITY>
0

>  <SCORE.RESTR.norm>
0

>  <SCORE.SYSTEM>
0

>  <SCORE.SYSTEM.CONST>
0

>  <SCORE.SYSTEM.DIHEDRAL>
0

>  <SCORE.SYSTEM.SOLV>
0

>  <SCORE.SYSTEM.norm>
0

>  <SCORE.heavy>
25

>  <SCORE.norm>
-0.955378

>  <RMSD>
5.274

$$$$
1uud_lig
 OpenBabel11021811413D
libRbt.so/2013.1/901 2013/11/27
 25 25  0  0  0  0  0  0  0  0999 V2000
   -4.0268  -10.0221   -1.5626 C   0  0  0  0  0  0  0  0  0  0  0  0
   -5.5221   -8.7923   -3.7658 O   0  0  0  0  0  0  0  0  0  0  0  0
   -6.7911   -9.0720   -4.3753 C   0  0  0  0  0  0  0  0  0  0  0  0
   -3.2143   -8.8104   -1.2909 N   0  0  0  0  0  0  0  0  0  0  0  0
   -7.8245   -8.0185   -3.9539 C   0  0  0  0  0  0  0  0  0  0  0  0
   -3.3554   -8.4199    0.1319 C   0  0  0  0  0  0  0  0  0  0  0  0
   -2.8746   -9.5673    1.0286 C   0  0  0  0  0  0  0  0  0  0  0  0
   -7.2470   -6.8460   -3.8419 N   0  0  0  0  0  0  0  0  0  0  0  0
   -7.9199   -5.7253   -4.0242 C   0  0  0  0  0  0  0  0  0  0  0  0
   -1.4365   -9.9486    0.6609 C   0  0  0  0  0  0  0  0  0  0  0  0
   -0.8396  -10.8219    1.7683 C   0  0  0  0  0  0  0  0  0  0  0  0
   -9.2551   -5.6391   -3.7407 N   0  0  0  0  0  0  0  0  0  0  0  0
   -7.2717   -4.6333   -4.5055 N   0  0  0  0  0  0  0  0  0  0  0  0
    0.1596  -11.5254    1.2909 N   0  0  0  0  0  0  0  0  0  0  0  0
    1.3784  -11.0266    1.2125 C   0  0  0  0  0  0  0  0  0  0  0  0
    1.5785   -9.8720    0.5266 N   0  0  0  0  0  0  0  0  0  0  0  0
    2.4446  -11.6498    1.7964 N   0  0  0  0  0  0  0  0  0  0  0  0
   -4.5886   -9.8364   -4.0706 C   0  0  0  0  0  0  0  0  0  0  0  0
   -1.7794  -12.9158   -5.0067 O   0  0  0  0  0  0  0  0  0  0  0  0
   -3.8379  -10.4569   -3.0307 C   0  0  0  0  0  0  0  0  0  0  0  0
   -2.8983  -11.4748   -3.3459 C   0  0  0  0  0  0  0  0  0  0  0  0
   -2.7228  -11.8882   -4.6927 C   0  0  0  0  0  0  0  0  0  0  0  0
   -3.4851  -11.2835   -5.7282 C   0  0  0  0  0  0  0  0  0  0  0  0
   -4.4237  -10.2624   -5.4179 C   0  0  0  0  0  0  0  0  0  0  0  0
   -2.4668  -14.1561   -5.1950 C   0  0  0  0  0  0  0  0  0  0  0  0
  1  4  1  0  0  0  0
  2  3  1  0  0  0  0
  3  5  1  0  0  0  0
  4  6  1  0  0  0  0
  5  8  1  0  0  0  0
  6  7  1  0  0  0  0
  7 10  1  0  0  0  0
  8  9  1  0  0  0  0
  9 12  1  0  0  0  0
  9 13  1  0  0  0  0
 10 11  1  0  0  0  0
 11 14  1  0  0  0  0
 14 15  1  0  0  0  0
 15 16  1  0  0  0  0
 15 17  1  0  0  0  0
 18  2  1  0  0  0  0
 18 20  2  0  0  0  0
 18 24  1  0  0  0  0
 19 25  1  0  0  0  0
 20  1  1  0  0  0  0
 20 21  1  0  0  0  0
 21 22  2  0  0  0  0
 22 19  1  0  0  0  0
 22 23  1  0  0  0  0
 23 24  2  0  0  0  0
M  END
>  <CHROM.1>
-177.93697948,175.24085064,35.64522681,59.83837632,152.38632989,55.74354990
165.48733644,30.07982945,-64.65879714,-85.36124787,157.99491292,84.56642222
-56.14048271,126.37073367,54.48587187,-129.66489059,-82.58379435,100.64142264
-3.50878288,-9.66113787,-2.32479461,0.12168224,-0.67918500,0.89921747

>  <Name>
1uud_lig

>  <RI>
0

>  <Rbt.Current_Directory>
/home/itssahil/PROJECTS/Mol_Feturizer/New_Systems/rnas/1uud

>  <Rbt.Executable>
rbdock ($Id: //depot/dev/client3/rdock/2013.1/src/exe/rbdock.cxx#4 $)

>  <Rbt.Library>
libRbt.so (2013.1, Build901 2013/11/27)

>  <Rbt.Parameter_File>
/export/apps/rDock/src/rDock_2013.1_src/data/scripts/dock_solv.prm

>  <Rbt.Receptor>
prm/pocket_docking_2.prm

>  <SCORE>
-28.7796

>  <SCORE.INTER>
-22.8177

>  <SCORE.INTER.CONST>
1

>  <SCORE.INTER.POLAR>
-3.57273

>  <SCORE.INTER.ROT>
18

>  <SCORE.INTER.SOLV>
9.43832

>  <SCORE.INTER.VDW>
-22.0488

>  <SCORE.INTER.norm>
-0.912709

>  <SCORE.INTRA>
-6.03303

>  <SCORE.INTRA.DIHEDRAL>
-8.25914

>  <SCORE.INTRA.DIHEDRAL.0>
30.6762

>  <SCORE.INTRA.POLAR>
-0.10737

>  <SCORE.INTRA.POLAR.0>
-0.0288659

>  <SCORE.INTRA.REPUL>
0

>  <SCORE.INTRA.REPUL.0>
0

>  <SCORE.INTRA.SOLV>
-0.912416

>  <SCORE.INTRA.SOLV.lig_0>
-25.2195

>  <SCORE.INTRA.VDW>
-1.0822

>  <SCORE.INTRA.VDW.0>
4.14263

>  <SCORE.INTRA.norm>
-0.241321

>  <SCORE.RESTR>
0.0711823

>  <SCORE.RESTR.CAVITY>
0.0711823

>  <SCORE.RESTR.norm>
0.00284729

>  <SCORE.SYSTEM>
0

>  <SCORE.SYSTEM.CONST>
0

>  <SCORE.SYSTEM.DIHEDRAL>
0

>  <SCORE.SYSTEM.SOLV>
0

>  <SCORE.SYSTEM.norm>
0

>  <SCORE.heavy>
25

>  <SCORE.norm>
-1.15118

>  <RMSD>
5.287

$$$$
1uud_lig
 OpenBabel11021811413D
libRbt.so/2013.1/901 2013/11/27
 25 25  0  0  0  0  0  0  0  0999 V2000
   -3.8724   -8.4056   -2.2644 C   0  0  0  0  0  0  0  0  0  0  0  0
   -6.6337   -9.2081   -2.8418 O   0  0  0  0  0  0  0  0  0  0  0  0
   -6.9450   -8.2470   -3.8614 C   0  0  0  0  0  0  0  0  0  0  0  0
   -2.8505   -8.6843   -1.2250 N   0  0  0  0  0  0  0  0  0  0  0  0
   -8.1335   -7.3792   -3.4258 C   0  0  0  0  0  0  0  0  0  0  0  0
   -3.3138   -9.7858   -0.3481 C   0  0  0  0  0  0  0  0  0  0  0  0
   -2.5411   -9.7468    0.9759 C   0  0  0  0  0  0  0  0  0  0  0  0
   -8.2583   -6.3540   -4.2346 N   0  0  0  0  0  0  0  0  0  0  0  0
   -7.7968   -5.1603   -3.9119 C   0  0  0  0  0  0  0  0  0  0  0  0
   -1.0485   -9.5330    0.7021 C   0  0  0  0  0  0  0  0  0  0  0  0
   -0.4764  -10.7649   -0.0053 C   0  0  0  0  0  0  0  0  0  0  0  0
   -6.8036   -4.5587   -4.6345 N   0  0  0  0  0  0  0  0  0  0  0  0
   -8.3195   -4.5156   -2.8371 N   0  0  0  0  0  0  0  0  0  0  0  0
    0.3826  -11.3705    0.7800 N   0  0  0  0  0  0  0  0  0  0  0  0
    1.5989  -10.8953    0.9678 C   0  0  0  0  0  0  0  0  0  0  0  0
    2.4880  -11.6198    1.6946 N   0  0  0  0  0  0  0  0  0  0  0  0
    1.9809   -9.6874    0.4570 N   0  0  0  0  0  0  0  0  0  0  0  0
   -5.5674  -10.0609   -3.2780 C   0  0  0  0  0  0  0  0  0  0  0  0
   -2.4032  -12.5948   -4.6262 O   0  0  0  0  0  0  0  0  0  0  0  0
   -4.2114   -9.7057   -3.0226 C   0  0  0  0  0  0  0  0  0  0  0  0
   -3.1610  -10.5460   -3.4796 C   0  0  0  0  0  0  0  0  0  0  0  0
   -3.4622  -11.7488   -4.1710 C   0  0  0  0  0  0  0  0  0  0  0  0
   -4.8147  -12.1136   -4.4090 C   0  0  0  0  0  0  0  0  0  0  0  0
   -5.8687  -11.2742   -3.9568 C   0  0  0  0  0  0  0  0  0  0  0  0
   -2.3400  -12.5569   -6.0549 C   0  0  0  0  0  0  0  0  0  0  0  0
  1  4  1  0  0  0  0
  2  3  1  0  0  0  0
  3  5  1  0  0  0  0
  4  6  1  0  0  0  0
  5  8  1  0  0  0  0
  6  7  1  0  0  0  0
  7 10  1  0  0  0  0
  8  9  1  0  0  0  0
  9 12  1  0  0  0  0
  9 13  1  0  0  0  0
 10 11  1  0  0  0  0
 11 14  1  0  0  0  0
 14 15  1  0  0  0  0
 15 16  1  0  0  0  0
 15 17  1  0  0  0  0
 18  2  1  0  0  0  0
 18 20  2  0  0  0  0
 18 24  1  0  0  0  0
 19 25  1  0  0  0  0
 20  1  1  0  0  0  0
 20 21  1  0  0  0  0
 21 22  2  0  0  0  0
 22 19  1  0  0  0  0
 22 23  1  0  0  0  0
 23 24  2  0  0  0  0
M  END
>  <CHROM.1>
-54.17678066,177.12764228,168.38975363,-160.07732766,-99.47796372,-44.91966108
-67.11860987,116.75551619,45.80757347,-45.03261268,-113.45656463,-76.40487967
-174.23012983,56.47656232,-107.71058262,89.52508802,133.94012968,-110.60832769
-3.65255479,-9.40815047,-2.24645435,-3.07674581,0.63579244,-2.45824035

>  <Name>
1uud_lig

>  <RI>
0

>  <Rbt.Current_Directory>
/home/itssahil/PROJECTS/Mol_Feturizer/New_Systems/rnas/1uud

>  <Rbt.Executable>
rbdock ($Id: //depot/dev/client3/rdock/2013.1/src/exe/rbdock.cxx#4 $)

>  <Rbt.Library>
libRbt.so (2013.1, Build901 2013/11/27)

>  <Rbt.Parameter_File>
/export/apps/rDock/src/rDock_2013.1_src/data/scripts/dock_solv.prm

>  <Rbt.Receptor>
prm/pocket_docking_2.prm

>  <SCORE>
-30.2165

>  <SCORE.INTER>
-27.3

>  <SCORE.INTER.CONST>
1

>  <SCORE.INTER.POLAR>
-4.35982

>  <SCORE.INTER.ROT>
18

>  <SCORE.INTER.SOLV>
9.20984

>  <SCORE.INTER.VDW>
-22.3372

>  <SCORE.INTER.norm>
-1.092

>  <SCORE.INTRA>
-3.97554

>  <SCORE.INTRA.DIHEDRAL>
-3.47732

>  <SCORE.INTRA.DIHEDRAL.0>
30.6762

>  <SCORE.INTRA.POLAR>
0.0288659

>  <SCORE.INTRA.POLAR.0>
-0.0288659

>  <SCORE.INTRA.REPUL>
0

>  <SCORE.INTRA.REPUL.0>
0

>  <SCORE.INTRA.SOLV>
-0.962943

>  <SCORE.INTRA.SOLV.lig_0>
-25.2195

>  <SCORE.INTRA.VDW>
-1.85355

>  <SCORE.INTRA.VDW.0>
4.14263

>  <SCORE.INTRA.norm>
-0.159022

>  <SCORE.RESTR>
1.05895

>  <SCORE.RESTR.CAVITY>
1.05895

>  <SCORE.RESTR.norm>
0.0423579

>  <SCORE.SYSTEM>
0

>  <SCORE.SYSTEM.CONST>
0

>  <SCORE.SYSTEM.DIHEDRAL>
0

>  <SCORE.SYSTEM.SOLV>
0

>  <SCORE.SYSTEM.norm>
0

>  <SCORE.heavy>
25

>  <SCORE.norm>
-1.20866

>  <RMSD>
5.290

$$$$
1uud_lig
 OpenBabel11021811413D
libRbt.so/2013.1/901 2013/11/27
 25 25  0  0  0  0  0  0  0  0999 V2000
   -4.5086  -11.3285   -3.4956 C   0  0  0  0  0  0  0  0  0  0  0  0
   -5.2358   -8.7491   -4.6872 O   0  0  0  0  0  0  0  0  0  0  0  0
   -6.1445   -8.0032   -5.5108 C   0  0  0  0  0  0  0  0  0  0  0  0
   -4.3238  -10.1526   -2.6095 N   0  0  0  0  0  0  0  0  0  0  0  0
   -7.1287   -7.2163   -4.6349 C   0  0  0  0  0  0  0  0  0  0  0  0
   -2.9321  -10.1210   -2.1007 C   0  0  0  0  0  0  0  0  0  0  0  0
   -2.7430   -8.8945   -1.1999 C   0  0  0  0  0  0  0  0  0  0  0  0
   -8.0944   -8.0055   -4.2283 N   0  0  0  0  0  0  0  0  0  0  0  0
   -7.9651   -8.7548   -3.1495 C   0  0  0  0  0  0  0  0  0  0  0  0
   -1.3217   -8.8829   -0.6268 C   0  0  0  0  0  0  0  0  0  0  0  0
   -1.1093   -7.6043    0.1890 C   0  0  0  0  0  0  0  0  0  0  0  0
   -7.8789  -10.1173   -3.2317 N   0  0  0  0  0  0  0  0  0  0  0  0
   -7.9180   -8.1591   -1.9300 N   0  0  0  0  0  0  0  0  0  0  0  0
   -1.1498   -7.8819    1.4706 N   0  0  0  0  0  0  0  0  0  0  0  0
   -2.2185   -7.6215    2.1989 C   0  0  0  0  0  0  0  0  0  0  0  0
   -2.0820   -7.4564    3.5397 N   0  0  0  0  0  0  0  0  0  0  0  0
   -3.4599   -7.5245    1.6371 N   0  0  0  0  0  0  0  0  0  0  0  0
   -4.5079   -9.6911   -5.4854 C   0  0  0  0  0  0  0  0  0  0  0  0
   -2.2999  -12.4662   -7.8675 O   0  0  0  0  0  0  0  0  0  0  0  0
   -4.1303  -10.9536   -4.9435 C   0  0  0  0  0  0  0  0  0  0  0  0
   -3.3888  -11.8710   -5.7352 C   0  0  0  0  0  0  0  0  0  0  0  0
   -3.0428  -11.5393   -7.0715 C   0  0  0  0  0  0  0  0  0  0  0  0
   -3.4358  -10.2885   -7.6192 C   0  0  0  0  0  0  0  0  0  0  0  0
   -4.1746   -9.3662   -6.8297 C   0  0  0  0  0  0  0  0  0  0  0  0
   -3.2026  -13.3219   -8.5743 C   0  0  0  0  0  0  0  0  0  0  0  0
  1  4  1  0  0  0  0
  2  3  1  0  0  0  0
  3  5  1  0  0  0  0
  4  6  1  0  0  0  0
  5  8  1  0  0  0  0
  6  7  1  0  0  0  0
  7 10  1  0  0  0  0
  8  9  1  0  0  0  0
  9 12  1  0  0  0  0
  9 13  1  0  0  0  0
 10 11  1  0  0  0  0
 11 14  1  0  0  0  0
 14 15  1  0  0  0  0
 15 16  1  0  0  0  0
 15 17  1  0  0  0  0
 18  2  1  0  0  0  0
 18 20  2  0  0  0  0
 18 24  1  0  0  0  0
 19 25  1  0  0  0  0
 20  1  1  0  0  0  0
 20 21  1  0  0  0  0
 21 22  2  0  0  0  0
 22 19  1  0  0  0  0
 22 23  1  0  0  0  0
 23 24  2  0  0  0  0
M  END
>  <CHROM.1>
-88.22310737,167.94235488,-80.74171381,179.30762362,85.31354434,177.86535546
175.95388933,-111.05329414,39.25527585,-63.76000919,104.48318295,-102.17323726
-156.18811775,-176.36884316,-100.23991262,-146.12249601,-40.90155515,90.30653596
-4.20632832,-9.40942909,-3.19865773,-1.79600973,-0.32845550,1.13223139

>  <Name>
1uud_lig

>  <RI>
0

>  <Rbt.Current_Directory>
/home/itssahil/PROJECTS/Mol_Feturizer/New_Systems/rnas/1uud

>  <Rbt.Executable>
rbdock ($Id: //depot/dev/client3/rdock/2013.1/src/exe/rbdock.cxx#4 $)

>  <Rbt.Library>
libRbt.so (2013.1, Build901 2013/11/27)

>  <Rbt.Parameter_File>
/export/apps/rDock/src/rDock_2013.1_src/data/scripts/dock_solv.prm

>  <Rbt.Receptor>
prm/pocket_docking_6.prm

>  <SCORE>
-31.7974

>  <SCORE.INTER>
-22.1477

>  <SCORE.INTER.CONST>
1

>  <SCORE.INTER.POLAR>
-3.93837

>  <SCORE.INTER.ROT>
18

>  <SCORE.INTER.SOLV>
7.74531

>  <SCORE.INTER.VDW>
-19.819

>  <SCORE.INTER.norm>
-0.885909

>  <SCORE.INTRA>
-9.64971

>  <SCORE.INTRA.DIHEDRAL>
-5.55326

>  <SCORE.INTRA.DIHEDRAL.0>
30.6762

>  <SCORE.INTRA.POLAR>
-0.780812

>  <SCORE.INTRA.POLAR.0>
-0.0288659

>  <SCORE.INTRA.REPUL>
0

>  <SCORE.INTRA.REPUL.0>
0

>  <SCORE.INTRA.SOLV>
0.611923

>  <SCORE.INTRA.SOLV.lig_0>
-25.2195

>  <SCORE.INTRA.VDW>
-4.52428

>  <SCORE.INTRA.VDW.0>
4.14263

>  <SCORE.INTRA.norm>
-0.385988

>  <SCORE.RESTR>
0

>  <SCORE.RESTR.CAVITY>
0

>  <SCORE.RESTR.norm>
0

>  <SCORE.SYSTEM>
0

>  <SCORE.SYSTEM.CONST>
0

>  <SCORE.SYSTEM.DIHEDRAL>
0

>  <SCORE.SYSTEM.SOLV>
0

>  <SCORE.SYSTEM.norm>
0

>  <SCORE.heavy>
25

>  <SCORE.norm>
-1.2719

>  <RMSD>
5.291

$$$$
1uud_lig
 OpenBabel11021811413D
libRbt.so/2013.1/901 2013/11/27
 25 25  0  0  0  0  0  0  0  0999 V2000
   -3.7339   -9.7318   -1.6786 C   0  0  0  0  0  0  0  0  0  0  0  0
   -2.9794  -11.6349   -3.7789 O   0  0  0  0  0  0  0  0  0  0  0  0
   -3.7778  -11.2194   -4.8970 C   0  0  0  0  0  0  0  0  0  0  0  0
   -3.5320  -10.2859   -0.3168 N   0  0  0  0  0  0  0  0  0  0  0  0
   -2.9147  -11.1401   -6.1635 C   0  0  0  0  0  0  0  0  0  0  0  0
   -2.9982   -9.2331    0.5795 C   0  0  0  0  0  0  0  0  0  0  0  0
   -2.7606   -9.8205    1.9760 C   0  0  0  0  0  0  0  0  0  0  0  0
   -3.6784  -10.9537   -7.2137 N   0  0  0  0  0  0  0  0  0  0  0  0
   -3.6450  -11.7757   -8.2457 C   0  0  0  0  0  0  0  0  0  0  0  0
   -4.1029  -10.1486    2.6387 C   0  0  0  0  0  0  0  0  0  0  0  0
   -4.8096   -8.8488    3.0340 C   0  0  0  0  0  0  0  0  0  0  0  0
   -2.6009  -11.7717   -9.1292 N   0  0  0  0  0  0  0  0  0  0  0  0
   -4.6716  -12.6443   -8.4353 N   0  0  0  0  0  0  0  0  0  0  0  0
   -4.1324   -8.2438    3.9808 N   0  0  0  0  0  0  0  0  0  0  0  0
   -4.0064   -6.9308    4.0069 C   0  0  0  0  0  0  0  0  0  0  0  0
   -2.7924   -6.3769    3.7558 N   0  0  0  0  0  0  0  0  0  0  0  0
   -5.0660   -6.1167    4.2907 N   0  0  0  0  0  0  0  0  0  0  0  0
   -2.0511  -10.6015   -3.4257 C   0  0  0  0  0  0  0  0  0  0  0  0
    0.7123   -7.5029   -2.4196 O   0  0  0  0  0  0  0  0  0  0  0  0
   -2.3801   -9.6534   -2.4144 C   0  0  0  0  0  0  0  0  0  0  0  0
   -1.4627   -8.6189   -2.0879 C   0  0  0  0  0  0  0  0  0  0  0  0
   -0.2109   -8.5426   -2.7530 C   0  0  0  0  0  0  0  0  0  0  0  0
    0.1263   -9.4994   -3.7480 C   0  0  0  0  0  0  0  0  0  0  0  0
   -0.7899  -10.5338   -4.0804 C   0  0  0  0  0  0  0  0  0  0  0  0
    1.3436   -7.8046   -1.1717 C   0  0  0  0  0  0  0  0  0  0  0  0
  1  4  1  0  0  0  0
  2  3  1  0  0  0  0
  3  5  1  0  0  0  0
  4  6  1  0  0  0  0
  5  8  1  0  0  0  0
  6  7  1  0  0  0  0
  7 10  1  0  0  0  0
  8  9  1  0  0  0  0
  9 12  1  0  0  0  0
  9 13  1  0  0  0  0
 10 11  1  0  0  0  0
 11 14  1  0  0  0  0
 14 15  1  0  0  0  0
 15 16  1  0  0  0  0
 15 17  1  0  0  0  0
 18  2  1  0  0  0  0
 18 20  2  0  0  0  0
 18 24  1  0  0  0  0
 19 25  1  0  0  0  0
 20  1  1  0  0  0  0
 20 21  1  0  0  0  0
 21 22  2  0  0  0  0
 22 19  1  0  0  0  0
 22 23  1  0  0  0  0
 23 24  2  0  0  0  0
M  END
>  <CHROM.1>
78.40990233,68.95171575,170.76978139,-178.66695391,-124.09436718,-68.85313616
-71.91091870,-74.02165284,153.62956473,70.09986550,-66.59317682,141.58256513
-110.55290149,63.55793600,-177.54226217,94.11782283,104.29307740,75.95605981
-2.71474162,-9.57894144,-1.88898291,1.64019196,0.41513676,1.20070107

>  <Name>
1uud_lig

>  <RI>
0

>  <Rbt.Current_Directory>
/home/itssahil/PROJECTS/Mol_Feturizer/New_Systems/rnas/1uud

>  <Rbt.Executable>
rbdock ($Id: //depot/dev/client3/rdock/2013.1/src/exe/rbdock.cxx#4 $)

>  <Rbt.Library>
libRbt.so (2013.1, Build901 2013/11/27)

>  <Rbt.Parameter_File>
/export/apps/rDock/src/rDock_2013.1_src/data/scripts/dock_solv.prm

>  <Rbt.Receptor>
prm/pocket_docking_7.prm

>  <SCORE>
-22.7584

>  <SCORE.INTER>
-14.0316

>  <SCORE.INTER.CONST>
1

>  <SCORE.INTER.POLAR>
-2.92201

>  <SCORE.INTER.ROT>
18

>  <SCORE.INTER.SOLV>
8.58697

>  <SCORE.INTER.VDW>
-18.0767

>  <SCORE.INTER.norm>
-0.561265

>  <SCORE.INTRA>
-8.72673

>  <SCORE.INTRA.DIHEDRAL>
-8.58566

>  <SCORE.INTRA.DIHEDRAL.0>
30.6762

>  <SCORE.INTRA.POLAR>
0.0288659

>  <SCORE.INTRA.POLAR.0>
-0.0288659

>  <SCORE.INTRA.REPUL>
0

>  <SCORE.INTRA.REPUL.0>
0

>  <SCORE.INTRA.SOLV>
-0.893959

>  <SCORE.INTRA.SOLV.lig_0>
-25.2195

>  <SCORE.INTRA.VDW>
-4.08506

>  <SCORE.INTRA.VDW.0>
4.14263

>  <SCORE.INTRA.norm>
-0.349069

>  <SCORE.RESTR>
0

>  <SCORE.RESTR.CAVITY>
0

>  <SCORE.RESTR.norm>
0

>  <SCORE.SYSTEM>
0

>  <SCORE.SYSTEM.CONST>
0

>  <SCORE.SYSTEM.DIHEDRAL>
0

>  <SCORE.SYSTEM.SOLV>
0

>  <SCORE.SYSTEM.norm>
0

>  <SCORE.heavy>
25

>  <SCORE.norm>
-0.910334

>  <RMSD>
5.306

$$$$
1uud_lig
 OpenBabel11021811413D
libRbt.so/2013.1/901 2013/11/27
 25 25  0  0  0  0  0  0  0  0999 V2000
   -4.4212  -10.8955   -3.5436 C   0  0  0  0  0  0  0  0  0  0  0  0
   -5.3254   -9.7125   -6.0706 O   0  0  0  0  0  0  0  0  0  0  0  0
   -4.4974   -8.5544   -5.8869 C   0  0  0  0  0  0  0  0  0  0  0  0
   -3.2314  -10.9007   -2.6567 N   0  0  0  0  0  0  0  0  0  0  0  0
   -5.3686   -7.3099   -5.6692 C   0  0  0  0  0  0  0  0  0  0  0  0
   -3.3103   -9.7680   -1.7041 C   0  0  0  0  0  0  0  0  0  0  0  0
   -3.3741  -10.3074   -0.2701 C   0  0  0  0  0  0  0  0  0  0  0  0
   -5.9710   -7.3840   -4.5063 N   0  0  0  0  0  0  0  0  0  0  0  0
   -7.2815   -7.2696   -4.3995 C   0  0  0  0  0  0  0  0  0  0  0  0
   -2.0369  -10.9571    0.1024 C   0  0  0  0  0  0  0  0  0  0  0  0
   -1.0115   -9.8671    0.4272 C   0  0  0  0  0  0  0  0  0  0  0  0
   -8.1057   -8.3548   -4.5168 N   0  0  0  0  0  0  0  0  0  0  0  0
   -7.8239   -6.0460   -4.1692 N   0  0  0  0  0  0  0  0  0  0  0  0
   -0.0378  -10.3720    1.1472 N   0  0  0  0  0  0  0  0  0  0  0  0
    1.2090  -10.3738    0.7159 C   0  0  0  0  0  0  0  0  0  0  0  0
    1.6122   -9.4073   -0.1484 N   0  0  0  0  0  0  0  0  0  0  0  0
    2.1003  -11.3309    1.1105 N   0  0  0  0  0  0  0  0  0  0  0  0
   -4.5155  -10.8941   -6.1188 C   0  0  0  0  0  0  0  0  0  0  0  0
   -2.0658  -14.3900   -6.2871 O   0  0  0  0  0  0  0  0  0  0  0  0
   -4.0508  -11.4978   -4.9148 C   0  0  0  0  0  0  0  0  0  0  0  0
   -3.2293  -12.6554   -4.9741 C   0  0  0  0  0  0  0  0  0  0  0  0
   -2.8894  -13.2225   -6.2304 C   0  0  0  0  0  0  0  0  0  0  0  0
   -3.3685  -12.6325   -7.4309 C   0  0  0  0  0  0  0  0  0  0  0  0
   -4.1876  -11.4724   -7.3765 C   0  0  0  0  0  0  0  0  0  0  0  0
   -0.9404  -14.2252   -5.4194 C   0  0  0  0  0  0  0  0  0  0  0  0
  1  4  1  0  0  0  0
  2  3  1  0  0  0  0
  3  5  1  0  0  0  0
  4  6  1  0  0  0  0
  5  8  1  0  0  0  0
  6  7  1  0  0  0  0
  7 10  1  0  0  0  0
  8  9  1  0  0  0  0
  9 12  1  0  0  0  0
  9 13  1  0  0  0  0
 10 11  1  0  0  0  0
 11 14  1  0  0  0  0
 14 15  1  0  0  0  0
 15 16  1  0  0  0  0
 15 17  1  0  0  0  0
 18  2  1  0  0  0  0
 18 20  2  0  0  0  0
 18 24  1  0  0  0  0
 19 25  1  0  0  0  0
 20  1  1  0  0  0  0
 20 21  1  0  0  0  0
 21 22  2  0  0  0  0
 22 19  1  0  0  0  0
 22 23  1  0  0  0  0
 23 24  2  0  0  0  0
M  END
>  <CHROM.1>
150.13681397,-173.34305512,69.12311226,117.79657643,-125.67510499,68.28163803
77.39295591,87.81489159,36.60258417,-74.64428376,159.53039257,118.69939314
27.92169473,4.57249734,-114.21182483,80.91662671,-137.37401167,-46.53884919
-3.26221489,-10.35108183,-3.47683316,-2.74401795,-0.66778985,0.89762473

>  <Name>
1uud_lig

>  <RI>
0

>  <Rbt.Current_Directory>
/home/itssahil/PROJECTS/Mol_Feturizer/New_Systems/rnas/1uud

>  <Rbt.Executable>
rbdock ($Id: //depot/dev/client3/rdock/2013.1/src/exe/rbdock.cxx#4 $)

>  <Rbt.Library>
libRbt.so (2013.1, Build901 2013/11/27)

>  <Rbt.Parameter_File>
/export/apps/rDock/src/rDock_2013.1_src/data/scripts/dock_solv.prm

>  <Rbt.Receptor>
prm/pocket_docking_2.prm

>  <SCORE>
-38.9524

>  <SCORE.INTER>
-35.7339

>  <SCORE.INTER.CONST>
1

>  <SCORE.INTER.POLAR>
-4.97483

>  <SCORE.INTER.ROT>
18

>  <SCORE.INTER.SOLV>
10.3661

>  <SCORE.INTER.VDW>
-26.2952

>  <SCORE.INTER.norm>
-1.42936

>  <SCORE.INTRA>
-4.53434

>  <SCORE.INTRA.DIHEDRAL>
-4.38485

>  <SCORE.INTRA.DIHEDRAL.0>
30.6762

>  <SCORE.INTRA.POLAR>
0.0288659

>  <SCORE.INTRA.POLAR.0>
-0.0288659

>  <SCORE.INTRA.REPUL>
0

>  <SCORE.INTRA.REPUL.0>
0

>  <SCORE.INTRA.SOLV>
-0.711311

>  <SCORE.INTRA.SOLV.lig_0>
-25.2195

>  <SCORE.INTRA.VDW>
-2.08441

>  <SCORE.INTRA.VDW.0>
4.14263

>  <SCORE.INTRA.norm>
-0.181374

>  <SCORE.RESTR>
1.31589

>  <SCORE.RESTR.CAVITY>
1.31589

>  <SCORE.RESTR.norm>
0.0526355

>  <SCORE.SYSTEM>
0

>  <SCORE.SYSTEM.CONST>
0

>  <SCORE.SYSTEM.DIHEDRAL>
0

>  <SCORE.SYSTEM.SOLV>
0

>  <SCORE.SYSTEM.norm>
0

>  <SCORE.heavy>
25

>  <SCORE.norm>
-1.5581

>  <RMSD>
5.323

$$$$
1uud_lig
 OpenBabel11021811413D
libRbt.so/2013.1/901 2013/11/27
 25 25  0  0  0  0  0  0  0  0999 V2000
   -3.9288  -11.2193   -3.9994 C   0  0  0  0  0  0  0  0  0  0  0  0
   -3.9075   -8.7348   -5.5580 O   0  0  0  0  0  0  0  0  0  0  0  0
   -5.2832   -8.3258   -5.5340 C   0  0  0  0  0  0  0  0  0  0  0  0
   -2.7009  -11.7742   -3.3778 N   0  0  0  0  0  0  0  0  0  0  0  0
   -5.4247   -6.9868   -4.7976 C   0  0  0  0  0  0  0  0  0  0  0  0
   -1.7023  -10.6953   -3.1888 C   0  0  0  0  0  0  0  0  0  0  0  0
   -1.7045  -10.2456   -1.7227 C   0  0  0  0  0  0  0  0  0  0  0  0
   -6.6872   -6.6336   -4.7514 N   0  0  0  0  0  0  0  0  0  0  0  0
   -7.4601   -6.9668   -3.7348 C   0  0  0  0  0  0  0  0  0  0  0  0
   -0.4321   -9.4466   -1.4208 C   0  0  0  0  0  0  0  0  0  0  0  0
   -0.3347   -9.1895    0.0858 C   0  0  0  0  0  0  0  0  0  0  0  0
   -8.4381   -7.9146   -3.8612 N   0  0  0  0  0  0  0  0  0  0  0  0
   -7.2811   -6.3535   -2.5365 N   0  0  0  0  0  0  0  0  0  0  0  0
    0.8616   -9.5130    0.5165 N   0  0  0  0  0  0  0  0  0  0  0  0
    1.1205  -10.7152    0.9940 C   0  0  0  0  0  0  0  0  0  0  0  0
    0.1263  -11.4168    1.5965 N   0  0  0  0  0  0  0  0  0  0  0  0
    2.3675  -11.2660    0.9054 N   0  0  0  0  0  0  0  0  0  0  0  0
   -3.7763   -9.9809   -6.2541 C   0  0  0  0  0  0  0  0  0  0  0  0
   -3.3394  -13.6808   -8.3445 O   0  0  0  0  0  0  0  0  0  0  0  0
   -3.7766  -11.2107   -5.5346 C   0  0  0  0  0  0  0  0  0  0  0  0
   -3.6226  -12.4390   -6.2316 C   0  0  0  0  0  0  0  0  0  0  0  0
   -3.4901  -12.4428   -7.6451 C   0  0  0  0  0  0  0  0  0  0  0  0
   -3.5094  -11.2182   -8.3653 C   0  0  0  0  0  0  0  0  0  0  0  0
   -3.6596   -9.9867   -7.6718 C   0  0  0  0  0  0  0  0  0  0  0  0
   -2.0472  -13.7315   -8.9560 C   0  0  0  0  0  0  0  0  0  0  0  0
  1  4  1  0  0  0  0
  2  3  1  0  0  0  0
  3  5  1  0  0  0  0
  4  6  1  0  0  0  0
  5  8  1  0  0  0  0
  6  7  1  0  0  0  0
  7 10  1  0  0  0  0
  8  9  1  0  0  0  0
  9 12  1  0  0  0  0
  9 13  1  0  0  0  0
 10 11  1  0  0  0  0
 11 14  1  0  0  0  0
 14 15  1  0  0  0  0
 15 16  1  0  0  0  0
 15 17  1  0  0  0  0
 18  2  1  0  0  0  0
 18 20  2  0  0  0  0
 18 24  1  0  0  0  0
 19 25  1  0  0  0  0
 20  1  1  0  0  0  0
 20 21  1  0  0  0  0
 21 22  2  0  0  0  0
 22 19  1  0  0  0  0
 22 23  1  0  0  0  0
 23 24  2  0  0  0  0
M  END
>  <CHROM.1>
86.25099808,-179.60460138,-178.52923869,101.47397333,91.80048877,163.61835852
-171.24411458,-108.03913964,116.36396700,104.82028367,130.83772641,-92.72567290
-29.25067966,-39.13075342,-161.07917382,-94.51396485,-116.58201902,-114.82671085
-3.11027263,-10.06703905,-3.88281790,-2.50569556,-0.62417618,1.02375371

>  <Name>
1uud_lig

>  <RI>
0

>  <Rbt.Current_Directory>
/home/itssahil/PROJECTS/Mol_Feturizer/New_Systems/rnas/1uud

>  <Rbt.Executable>
rbdock ($Id: //depot/dev/client3/rdock/2013.1/src/exe/rbdock.cxx#4 $)

>  <Rbt.Library>
libRbt.so (2013.1, Build901 2013/11/27)

>  <Rbt.Parameter_File>
/export/apps/rDock/src/rDock_2013.1_src/data/scripts/dock_solv.prm

>  <Rbt.Receptor>
prm/pocket_docking_3.prm

>  <SCORE>
-37.3055

>  <SCORE.INTER>
-32.0982

>  <SCORE.INTER.CONST>
1

>  <SCORE.INTER.POLAR>
-4.6765

>  <SCORE.INTER.ROT>
18

>  <SCORE.INTER.SOLV>
10.411

>  <SCORE.INTER.VDW>
-24.8808

>  <SCORE.INTER.norm>
-1.28393

>  <SCORE.INTRA>
-5.28978

>  <SCORE.INTRA.DIHEDRAL>
-1.00657

>  <SCORE.INTRA.DIHEDRAL.0>
30.6762

>  <SCORE.INTRA.POLAR>
0.0288659

>  <SCORE.INTRA.POLAR.0>
-0.0288659

>  <SCORE.INTRA.REPUL>
0

>  <SCORE.INTRA.REPUL.0>
0

>  <SCORE.INTRA.SOLV>
-1.16235

>  <SCORE.INTRA.SOLV.lig_0>
-25.2195

>  <SCORE.INTRA.VDW>
-4.30346

>  <SCORE.INTRA.VDW.0>
4.14263

>  <SCORE.INTRA.norm>
-0.211591

>  <SCORE.RESTR>
0.0824724

>  <SCORE.RESTR.CAVITY>
0.0824724

>  <SCORE.RESTR.norm>
0.00329889

>  <SCORE.SYSTEM>
0

>  <SCORE.SYSTEM.CONST>
0

>  <SCORE.SYSTEM.DIHEDRAL>
0

>  <SCORE.SYSTEM.SOLV>
0

>  <SCORE.SYSTEM.norm>
0

>  <SCORE.heavy>
25

>  <SCORE.norm>
-1.49222

>  <RMSD>
5.324

$$$$
1uud_lig
 OpenBabel11021811413D
libRbt.so/2013.1/901 2013/11/27
 25 25  0  0  0  0  0  0  0  0999 V2000
   -1.8755  -10.2006   -3.1968 C   0  0  0  0  0  0  0  0  0  0  0  0
   -4.5038   -9.1369   -3.9472 O   0  0  0  0  0  0  0  0  0  0  0  0
   -5.3984   -9.9647   -3.1890 C   0  0  0  0  0  0  0  0  0  0  0  0
   -0.7151   -9.2870   -3.3408 N   0  0  0  0  0  0  0  0  0  0  0  0
   -6.5739  -10.4159   -4.0664 C   0  0  0  0  0  0  0  0  0  0  0  0
   -1.0646   -7.9451   -2.8174 C   0  0  0  0  0  0  0  0  0  0  0  0
   -0.4774   -7.7743   -1.4111 C   0  0  0  0  0  0  0  0  0  0  0  0
   -7.5844   -9.5929   -3.9173 N   0  0  0  0  0  0  0  0  0  0  0  0
   -7.9905   -8.8135   -4.9020 C   0  0  0  0  0  0  0  0  0  0  0  0
   -1.5168   -7.1305   -0.4870 C   0  0  0  0  0  0  0  0  0  0  0  0
   -0.8485   -6.7231    0.8293 C   0  0  0  0  0  0  0  0  0  0  0  0
   -7.6593   -7.4873   -4.9470 N   0  0  0  0  0  0  0  0  0  0  0  0
   -8.7560   -9.3404   -5.8923 N   0  0  0  0  0  0  0  0  0  0  0  0
   -1.3425   -7.4309    1.8173 N   0  0  0  0  0  0  0  0  0  0  0  0
   -1.8697   -6.8557    2.8811 C   0  0  0  0  0  0  0  0  0  0  0  0
   -1.7721   -5.5089    3.0226 N   0  0  0  0  0  0  0  0  0  0  0  0
   -2.5021   -7.5846    3.8481 N   0  0  0  0  0  0  0  0  0  0  0  0
   -3.7884   -9.9310   -4.9023 C   0  0  0  0  0  0  0  0  0  0  0  0
   -1.6542  -12.2579   -7.7799 O   0  0  0  0  0  0  0  0  0  0  0  0
   -2.5064  -10.4625   -4.5802 C   0  0  0  0  0  0  0  0  0  0  0  0
   -1.7953  -11.2289   -5.5421 C   0  0  0  0  0  0  0  0  0  0  0  0
   -2.3703  -11.4828   -6.8150 C   0  0  0  0  0  0  0  0  0  0  0  0
   -3.6572  -10.9695   -7.1302 C   0  0  0  0  0  0  0  0  0  0  0  0
   -4.3707  -10.1993   -6.1722 C   0  0  0  0  0  0  0  0  0  0  0  0
   -0.3899  -11.6433   -8.0454 C   0  0  0  0  0  0  0  0  0  0  0  0
  1  4  1  0  0  0  0
  2  3  1  0  0  0  0
  3  5  1  0  0  0  0
  4  6  1  0  0  0  0
  5  8  1  0  0  0  0
  6  7  1  0  0  0  0
  7 10  1  0  0  0  0
  8  9  1  0  0  0  0
  9 12  1  0  0  0  0
  9 13  1  0  0  0  0
 10 11  1  0  0  0  0
 11 14  1  0  0  0  0
 14 15  1  0  0  0  0
 15 16  1  0  0  0  0
 15 17  1  0  0  0  0
 18  2  1  0  0  0  0
 18 20  2  0  0  0  0
 18 24  1  0  0  0  0
 19 25  1  0  0  0  0
 20  1  1  0  0  0  0
 20 21  1  0  0  0  0
 21 22  2  0  0  0  0
 22 19  1  0  0  0  0
 22 23  1  0  0  0  0
 23 24  2  0  0  0  0
M  END
>  <CHROM.1>
107.04622869,-71.47818877,-93.94614790,100.77699252,112.79527595,-136.18099545
-169.44049551,-101.50028970,34.86122859,-108.28024932,-114.62412442,-124.76817353
-7.08247823,-164.52247520,-48.94105832,-93.72473926,-110.25935773,-57.75761714
-3.34052250,-9.12736926,-3.15680822,-1.25213282,0.14004816,-2.03333668

>  <Name>
1uud_lig

>  <RI>
0

>  <Rbt.Current_Directory>
/home/itssahil/PROJECTS/Mol_Feturizer/New_Systems/rnas/1uud

>  <Rbt.Executable>
rbdock ($Id: //depot/dev/client3/rdock/2013.1/src/exe/rbdock.cxx#4 $)

>  <Rbt.Library>
libRbt.so (2013.1, Build901 2013/11/27)

>  <Rbt.Parameter_File>
/export/apps/rDock/src/rDock_2013.1_src/data/scripts/dock_solv.prm

>  <Rbt.Receptor>
prm/pocket_docking_6.prm

>  <SCORE>
-17.0933

>  <SCORE.INTER>
-18.6699

>  <SCORE.INTER.CONST>
1

>  <SCORE.INTER.POLAR>
-4.32915

>  <SCORE.INTER.ROT>
18

>  <SCORE.INTER.SOLV>
10.3019

>  <SCORE.INTER.VDW>
-17.05

>  <SCORE.INTER.norm>
-0.746796

>  <SCORE.INTRA>
1.57663

>  <SCORE.INTRA.DIHEDRAL>
8.243

>  <SCORE.INTRA.DIHEDRAL.0>
30.6762

>  <SCORE.INTRA.POLAR>
0.0288659

>  <SCORE.INTRA.POLAR.0>
-0.0288659

>  <SCORE.INTRA.REPUL>
0

>  <SCORE.INTRA.REPUL.0>
0

>  <SCORE.INTRA.SOLV>
-0.827738

>  <SCORE.INTRA.SOLV.lig_0>
-25.2195

>  <SCORE.INTRA.VDW>
-2.22915

>  <SCORE.INTRA.VDW.0>
4.14263

>  <SCORE.INTRA.norm>
0.0630651

>  <SCORE.RESTR>
0

>  <SCORE.RESTR.CAVITY>
0

>  <SCORE.RESTR.norm>
0

>  <SCORE.SYSTEM>
0

>  <SCORE.SYSTEM.CONST>
0

>  <SCORE.SYSTEM.DIHEDRAL>
0

>  <SCORE.SYSTEM.SOLV>
0

>  <SCORE.SYSTEM.norm>
0

>  <SCORE.heavy>
25

>  <SCORE.norm>
-0.683731

>  <RMSD>
5.324

$$$$
1uud_lig
 OpenBabel11021811413D
libRbt.so/2013.1/901 2013/11/27
 25 25  0  0  0  0  0  0  0  0999 V2000
   -3.6014   -8.7602   -2.5315 C   0  0  0  0  0  0  0  0  0  0  0  0
   -4.5732   -8.0216   -5.1985 O   0  0  0  0  0  0  0  0  0  0  0  0
   -5.7974   -8.0752   -4.4511 C   0  0  0  0  0  0  0  0  0  0  0  0
   -2.3023   -8.3046   -1.9776 N   0  0  0  0  0  0  0  0  0  0  0  0
   -6.2965   -6.6555   -4.1500 C   0  0  0  0  0  0  0  0  0  0  0  0
   -1.6711   -9.4034   -1.2089 C   0  0  0  0  0  0  0  0  0  0  0  0
   -2.4138   -9.5926    0.1193 C   0  0  0  0  0  0  0  0  0  0  0  0
   -7.2285   -6.6957   -3.2278 N   0  0  0  0  0  0  0  0  0  0  0  0
   -8.4336   -6.2024   -3.4427 C   0  0  0  0  0  0  0  0  0  0  0  0
   -1.8963  -10.8469    0.8318 C   0  0  0  0  0  0  0  0  0  0  0  0
   -0.5620  -10.5335    1.5149 C   0  0  0  0  0  0  0  0  0  0  0  0
   -8.6118   -4.9893   -4.0488 N   0  0  0  0  0  0  0  0  0  0  0  0
   -9.5215   -6.9153   -3.0519 N   0  0  0  0  0  0  0  0  0  0  0  0
    0.4259  -11.0410    0.8166 N   0  0  0  0  0  0  0  0  0  0  0  0
    1.6709  -10.6413    0.9922 C   0  0  0  0  0  0  0  0  0  0  0  0
    2.5363  -11.4453    1.6616 N   0  0  0  0  0  0  0  0  0  0  0  0
    2.1063   -9.4336    0.5253 N   0  0  0  0  0  0  0  0  0  0  0  0
   -3.8509   -9.2506   -5.0490 C   0  0  0  0  0  0  0  0  0  0  0  0
   -1.6621  -12.8959   -4.6342 O   0  0  0  0  0  0  0  0  0  0  0  0
   -3.3569   -9.6444   -3.7719 C   0  0  0  0  0  0  0  0  0  0  0  0
   -2.6220  -10.8529   -3.6386 C   0  0  0  0  0  0  0  0  0  0  0  0
   -2.3985  -11.6780   -4.7720 C   0  0  0  0  0  0  0  0  0  0  0  0
   -2.9076  -11.2958   -6.0424 C   0  0  0  0  0  0  0  0  0  0  0  0
   -3.6402  -10.0859   -6.1811 C   0  0  0  0  0  0  0  0  0  0  0  0
   -2.5413  -14.0102   -4.8125 C   0  0  0  0  0  0  0  0  0  0  0  0
  1  4  1  0  0  0  0
  2  3  1  0  0  0  0
  3  5  1  0  0  0  0
  4  6  1  0  0  0  0
  5  8  1  0  0  0  0
  6  7  1  0  0  0  0
  7 10  1  0  0  0  0
  8  9  1  0  0  0  0
  9 12  1  0  0  0  0
  9 13  1  0  0  0  0
 10 11  1  0  0  0  0
 11 14  1  0  0  0  0
 14 15  1  0  0  0  0
 15 16  1  0  0  0  0
 15 17  1  0  0  0  0
 18  2  1  0  0  0  0
 18 20  2  0  0  0  0
 18 24  1  0  0  0  0
 19 25  1  0  0  0  0
 20  1  1  0  0  0  0
 20 21  1  0  0  0  0
 21 22  2  0  0  0  0
 22 19  1  0  0  0  0
 22 23  1  0  0  0  0
 23 24  2  0  0  0  0
M  END
>  <CHROM.1>
-77.63551652,158.13748355,-165.84793657,-73.49996765,-122.67089282,172.16383394
78.64751018,-44.39018881,89.13664039,-143.11856047,-103.70338894,162.81554790
104.92885495,58.07598504,-100.32257888,-64.03814950,-118.10211571,110.67152647
-3.16243938,-9.45702337,-2.57071047,2.98629271,0.62595782,-2.14516578

>  <Name>
1uud_lig

>  <RI>
0

>  <Rbt.Current_Directory>
/home/itssahil/PROJECTS/Mol_Feturizer/New_Systems/rnas/1uud

>  <Rbt.Executable>
rbdock ($Id: //depot/dev/client3/rdock/2013.1/src/exe/rbdock.cxx#4 $)

>  <Rbt.Library>
libRbt.so (2013.1, Build901 2013/11/27)

>  <Rbt.Parameter_File>
/export/apps/rDock/src/rDock_2013.1_src/data/scripts/dock_solv.prm

>  <Rbt.Receptor>
prm/pocket_docking_2.prm

>  <SCORE>
-25.1593

>  <SCORE.INTER>
-22.664

>  <SCORE.INTER.CONST>
1

>  <SCORE.INTER.POLAR>
-3.82498

>  <SCORE.INTER.ROT>
18

>  <SCORE.INTER.SOLV>
10.0335

>  <SCORE.INTER.VDW>
-21.3039

>  <SCORE.INTER.norm>
-0.90656

>  <SCORE.INTRA>
-3.88122

>  <SCORE.INTRA.DIHEDRAL>
-2.13282

>  <SCORE.INTRA.DIHEDRAL.0>
30.6762

>  <SCORE.INTRA.POLAR>
0.0288659

>  <SCORE.INTRA.POLAR.0>
-0.0288659

>  <SCORE.INTRA.REPUL>
0

>  <SCORE.INTRA.REPUL.0>
0

>  <SCORE.INTRA.SOLV>
-1.15412

>  <SCORE.INTRA.SOLV.lig_0>
-25.2195

>  <SCORE.INTRA.VDW>
-2.33589

>  <SCORE.INTRA.VDW.0>
4.14263

>  <SCORE.INTRA.norm>
-0.155249

>  <SCORE.RESTR>
1.38592

>  <SCORE.RESTR.CAVITY>
1.38592

>  <SCORE.RESTR.norm>
0.0554369

>  <SCORE.SYSTEM>
0

>  <SCORE.SYSTEM.CONST>
0

>  <SCORE.SYSTEM.DIHEDRAL>
0

>  <SCORE.SYSTEM.SOLV>
0

>  <SCORE.SYSTEM.norm>
0

>  <SCORE.heavy>
25

>  <SCORE.norm>
-1.00637

>  <RMSD>
5.325

$$$$
1uud_lig
 OpenBabel11021811413D
libRbt.so/2013.1/901 2013/11/27
 25 25  0  0  0  0  0  0  0  0999 V2000
   -3.8760   -6.6896   -1.7462 C   0  0  0  0  0  0  0  0  0  0  0  0
   -4.9835   -9.3819   -2.1037 O   0  0  0  0  0  0  0  0  0  0  0  0
   -6.3375   -8.9062   -2.0770 C   0  0  0  0  0  0  0  0  0  0  0  0
   -3.3358   -7.2118   -3.0259 N   0  0  0  0  0  0  0  0  0  0  0  0
   -7.1186   -9.4652   -3.2739 C   0  0  0  0  0  0  0  0  0  0  0  0
   -1.8615   -7.3347   -2.9356 C   0  0  0  0  0  0  0  0  0  0  0  0
   -1.2968   -7.7481   -4.3001 C   0  0  0  0  0  0  0  0  0  0  0  0
   -6.4633   -9.2280   -4.3853 N   0  0  0  0  0  0  0  0  0  0  0  0
   -6.8139   -8.2485   -5.1974 C   0  0  0  0  0  0  0  0  0  0  0  0
    0.2325   -7.6493   -4.2829 C   0  0  0  0  0  0  0  0  0  0  0  0
    0.8062   -8.7498   -3.3857 C   0  0  0  0  0  0  0  0  0  0  0  0
   -8.0039   -8.2702   -5.8712 N   0  0  0  0  0  0  0  0  0  0  0  0
   -5.9731   -7.1960   -5.3689 N   0  0  0  0  0  0  0  0  0  0  0  0
    0.7156   -8.3908   -2.1271 N   0  0  0  0  0  0  0  0  0  0  0  0
    0.6427   -9.2840   -1.1589 C   0  0  0  0  0  0  0  0  0  0  0  0
   -0.4769  -10.0433   -1.0414 N   0  0  0  0  0  0  0  0  0  0  0  0
    1.6625   -9.4555   -0.2664 N   0  0  0  0  0  0  0  0  0  0  0  0
   -4.3276   -9.0698   -0.8680 C   0  0  0  0  0  0  0  0  0  0  0  0
   -2.3379   -8.1750    2.8050 O   0  0  0  0  0  0  0  0  0  0  0  0
   -3.7711   -7.7756   -0.6554 C   0  0  0  0  0  0  0  0  0  0  0  0
   -3.1026   -7.4835    0.5637 C   0  0  0  0  0  0  0  0  0  0  0  0
   -3.0077   -8.4729    1.5774 C   0  0  0  0  0  0  0  0  0  0  0  0
   -3.5794   -9.7577    1.3740 C   0  0  0  0  0  0  0  0  0  0  0  0
   -4.2460  -10.0554    0.1545 C   0  0  0  0  0  0  0  0  0  0  0  0
   -3.0292   -7.1232    3.4850 C   0  0  0  0  0  0  0  0  0  0  0  0
  1  4  1  0  0  0  0
  2  3  1  0  0  0  0
  3  5  1  0  0  0  0
  4  6  1  0  0  0  0
  5  8  1  0  0  0  0
  6  7  1  0  0  0  0
  7 10  1  0  0  0  0
  8  9  1  0  0  0  0
  9 12  1  0  0  0  0
  9 13  1  0  0  0  0
 10 11  1  0  0  0  0
 11 14  1  0  0  0  0
 14 15  1  0  0  0  0
 15 16  1  0  0  0  0
 15 17  1  0  0  0  0
 18  2  1  0  0  0  0
 18 20  2  0  0  0  0
 18 24  1  0  0  0  0
 19 25  1  0  0  0  0
 20  1  1  0  0  0  0
 20 21  1  0  0  0  0
 21 22  2  0  0  0  0
 22 19  1  0  0  0  0
 22 23  1  0  0  0  0
 23 24  2  0  0  0  0
M  END
>  <CHROM.1>
-71.34399632,-169.26344337,-51.89751534,-174.72003024,-102.00798717,170.52776736
69.99523848,-66.19534901,-113.41095489,130.79227143,-80.00143438,153.60355013
-68.90895966,-101.36926667,-47.91821306,-82.28219918,-53.96139716,62.85285966
-3.18784253,-8.44051085,-1.81777317,2.48939224,-0.00220688,-1.51037190

>  <Name>
1uud_lig

>  <RI>
0

>  <Rbt.Current_Directory>
/home/itssahil/PROJECTS/Mol_Feturizer/New_Systems/rnas/1uud

>  <Rbt.Executable>
rbdock ($Id: //depot/dev/client3/rdock/2013.1/src/exe/rbdock.cxx#4 $)

>  <Rbt.Library>
libRbt.so (2013.1, Build901 2013/11/27)

>  <Rbt.Parameter_File>
/export/apps/rDock/src/rDock_2013.1_src/data/scripts/dock_solv.prm

>  <Rbt.Receptor>
prm/pocket_docking_7.prm

>  <SCORE>
-34.8702

>  <SCORE.INTER>
-23.0424

>  <SCORE.INTER.CONST>
1

>  <SCORE.INTER.POLAR>
-5.49125

>  <SCORE.INTER.ROT>
18

>  <SCORE.INTER.SOLV>
8.59908

>  <SCORE.INTER.VDW>
-15.5238

>  <SCORE.INTER.norm>
-0.921695

>  <SCORE.INTRA>
-11.8279

>  <SCORE.INTRA.DIHEDRAL>
-8.58397

>  <SCORE.INTRA.DIHEDRAL.0>
30.6762

>  <SCORE.INTRA.POLAR>
-0.491797

>  <SCORE.INTRA.POLAR.0>
-0.0288659

>  <SCORE.INTRA.REPUL>
0

>  <SCORE.INTRA.REPUL.0>
0

>  <SCORE.INTRA.SOLV>
1.05103

>  <SCORE.INTRA.SOLV.lig_0>
-25.2195

>  <SCORE.INTRA.VDW>
-6.38927

>  <SCORE.INTRA.VDW.0>
4.14263

>  <SCORE.INTRA.norm>
-0.473114

>  <SCORE.RESTR>
0

>  <SCORE.RESTR.CAVITY>
0

>  <SCORE.RESTR.norm>
0

>  <SCORE.SYSTEM>
0

>  <SCORE.SYSTEM.CONST>
0

>  <SCORE.SYSTEM.DIHEDRAL>
0

>  <SCORE.SYSTEM.SOLV>
0

>  <SCORE.SYSTEM.norm>
0

>  <SCORE.heavy>
25

>  <SCORE.norm>
-1.39481

>  <RMSD>
5.329

$$$$
1uud_lig
 OpenBabel11021811413D
libRbt.so/2013.1/901 2013/11/27
 25 25  0  0  0  0  0  0  0  0999 V2000
   -3.1891  -10.2272   -2.9583 C   0  0  0  0  0  0  0  0  0  0  0  0
   -4.7959   -9.4639   -5.2902 O   0  0  0  0  0  0  0  0  0  0  0  0
   -6.1517   -9.7492   -4.9151 C   0  0  0  0  0  0  0  0  0  0  0  0
   -2.5807  -11.0126   -1.8560 N   0  0  0  0  0  0  0  0  0  0  0  0
   -7.0508   -8.5440   -5.2223 C   0  0  0  0  0  0  0  0  0  0  0  0
   -2.6651  -10.2483   -0.5889 C   0  0  0  0  0  0  0  0  0  0  0  0
   -1.7702  -10.9070    0.4679 C   0  0  0  0  0  0  0  0  0  0  0  0
   -6.7100   -7.5280   -4.4658 N   0  0  0  0  0  0  0  0  0  0  0  0
   -7.5444   -7.0169   -3.5799 C   0  0  0  0  0  0  0  0  0  0  0  0
   -0.8325   -9.8616    1.0816 C   0  0  0  0  0  0  0  0  0  0  0  0
    0.4227   -9.7282    0.2143 C   0  0  0  0  0  0  0  0  0  0  0  0
   -8.8109   -7.5090   -3.4240 N   0  0  0  0  0  0  0  0  0  0  0  0
   -7.1361   -5.9777   -2.8068 N   0  0  0  0  0  0  0  0  0  0  0  0
    1.4942   -9.8908    0.9537 N   0  0  0  0  0  0  0  0  0  0  0  0
    1.8925  -11.0890    1.3361 C   0  0  0  0  0  0  0  0  0  0  0  0
    3.1030  -11.5469    0.9253 N   0  0  0  0  0  0  0  0  0  0  0  0
    1.1114  -11.8831    2.1269 N   0  0  0  0  0  0  0  0  0  0  0  0
   -4.0358  -10.6776   -5.3501 C   0  0  0  0  0  0  0  0  0  0  0  0
   -1.7433  -14.2759   -5.5666 O   0  0  0  0  0  0  0  0  0  0  0  0
   -3.2378  -11.0825   -4.2414 C   0  0  0  0  0  0  0  0  0  0  0  0
   -2.4699  -12.2751   -4.3194 C   0  0  0  0  0  0  0  0  0  0  0  0
   -2.5140  -13.0738   -5.4923 C   0  0  0  0  0  0  0  0  0  0  0  0
   -3.3248  -12.6811   -6.5911 C   0  0  0  0  0  0  0  0  0  0  0  0
   -4.0919  -11.4868   -6.5188 C   0  0  0  0  0  0  0  0  0  0  0  0
   -0.3818  -13.9938   -5.2300 C   0  0  0  0  0  0  0  0  0  0  0  0
  1  4  1  0  0  0  0
  2  3  1  0  0  0  0
  3  5  1  0  0  0  0
  4  6  1  0  0  0  0
  5  8  1  0  0  0  0
  6  7  1  0  0  0  0
  7 10  1  0  0  0  0
  8  9  1  0  0  0  0
  9 12  1  0  0  0  0
  9 13  1  0  0  0  0
 10 11  1  0  0  0  0
 11 14  1  0  0  0  0
 14 15  1  0  0  0  0
 15 16  1  0  0  0  0
 15 17  1  0  0  0  0
 18  2  1  0  0  0  0
 18 20  2  0  0  0  0
 18 24  1  0  0  0  0
 19 25  1  0  0  0  0
 20  1  1  0  0  0  0
 20 21  1  0  0  0  0
 21 22  2  0  0  0  0
 22 19  1  0  0  0  0
 22 23  1  0  0  0  0
 23 24  2  0  0  0  0
M  END
>  <CHROM.1>
-173.94614304,-164.34504561,-65.49354761,-167.36544598,-116.85257007,127.98673117
-85.92493680,-1.05518006,-66.19535569,-129.00012417,-126.50604022,77.52911251
117.57754879,26.35895349,-16.79660090,-96.77625295,165.94007453,-52.04669556
-2.90087511,-10.43576221,-2.77485707,2.85394026,0.59711187,-2.19450697

>  <Name>
1uud_lig

>  <RI>
0

>  <Rbt.Current_Directory>
/home/itssahil/PROJECTS/Mol_Feturizer/New_Systems/rnas/1uud

>  <Rbt.Executable>
rbdock ($Id: //depot/dev/client3/rdock/2013.1/src/exe/rbdock.cxx#4 $)

>  <Rbt.Library>
libRbt.so (2013.1, Build901 2013/11/27)

>  <Rbt.Parameter_File>
/export/apps/rDock/src/rDock_2013.1_src/data/scripts/dock_solv.prm

>  <Rbt.Receptor>
prm/pocket_docking_2.prm

>  <SCORE>
-39.5691

>  <SCORE.INTER>
-39.037

>  <SCORE.INTER.CONST>
1

>  <SCORE.INTER.POLAR>
-5.54482

>  <SCORE.INTER.ROT>
18

>  <SCORE.INTER.SOLV>
12.4685

>  <SCORE.INTER.VDW>
-27.2982

>  <SCORE.INTER.norm>
-1.56148

>  <SCORE.INTRA>
-1.92145

>  <SCORE.INTRA.DIHEDRAL>
2.16175

>  <SCORE.INTRA.DIHEDRAL.0>
30.6762

>  <SCORE.INTRA.POLAR>
0.0288659

>  <SCORE.INTRA.POLAR.0>
-0.0288659

>  <SCORE.INTRA.REPUL>
0

>  <SCORE.INTRA.REPUL.0>
0

>  <SCORE.INTRA.SOLV>
-0.737422

>  <SCORE.INTRA.SOLV.lig_0>
-25.2195

>  <SCORE.INTRA.VDW>
-2.73176

>  <SCORE.INTRA.VDW.0>
4.14263

>  <SCORE.INTRA.norm>
-0.0768581

>  <SCORE.RESTR>
1.38939

>  <SCORE.RESTR.CAVITY>
1.38939

>  <SCORE.RESTR.norm>
0.0555755

>  <SCORE.SYSTEM>
0

>  <SCORE.SYSTEM.CONST>
0

>  <SCORE.SYSTEM.DIHEDRAL>
0

>  <SCORE.SYSTEM.SOLV>
0

>  <SCORE.SYSTEM.norm>
0

>  <SCORE.heavy>
25

>  <SCORE.norm>
-1.58276

>  <RMSD>
5.330

$$$$
1uud_lig
 OpenBabel11021811413D
libRbt.so/2013.1/901 2013/11/27
 25 25  0  0  0  0  0  0  0  0999 V2000
   -2.8343  -11.6758   -4.0581 C   0  0  0  0  0  0  0  0  0  0  0  0
   -4.1378   -9.3982   -5.3682 O   0  0  0  0  0  0  0  0  0  0  0  0
   -5.4493   -8.8823   -5.6403 C   0  0  0  0  0  0  0  0  0  0  0  0
   -3.7714  -10.8277   -3.2805 N   0  0  0  0  0  0  0  0  0  0  0  0
   -5.8295   -7.8247   -4.5954 C   0  0  0  0  0  0  0  0  0  0  0  0
   -3.1334  -10.4094   -2.0098 C   0  0  0  0  0  0  0  0  0  0  0  0
   -2.2078   -9.2146   -2.2698 C   0  0  0  0  0  0  0  0  0  0  0  0
   -7.0870   -7.4819   -4.7436 N   0  0  0  0  0  0  0  0  0  0  0  0
   -8.0283   -7.9493   -3.9451 C   0  0  0  0  0  0  0  0  0  0  0  0
   -1.3531   -8.9377   -1.0282 C   0  0  0  0  0  0  0  0  0  0  0  0
   -0.1606   -9.8983   -1.0033 C   0  0  0  0  0  0  0  0  0  0  0  0
   -8.3636   -7.3087   -2.7841 N   0  0  0  0  0  0  0  0  0  0  0  0
   -8.6775   -9.0930   -4.2836 N   0  0  0  0  0  0  0  0  0  0  0  0
    0.4622   -9.8055    0.1476 N   0  0  0  0  0  0  0  0  0  0  0  0
   -0.0424  -10.3285    1.2487 C   0  0  0  0  0  0  0  0  0  0  0  0
   -0.9761   -9.6312    1.9456 N   0  0  0  0  0  0  0  0  0  0  0  0
    0.3600  -11.5501    1.7091 N   0  0  0  0  0  0  0  0  0  0  0  0
   -3.9085  -10.5886   -6.1329 C   0  0  0  0  0  0  0  0  0  0  0  0
   -3.1947  -14.1106   -8.4431 O   0  0  0  0  0  0  0  0  0  0  0  0
   -3.2736  -11.7161   -5.5365 C   0  0  0  0  0  0  0  0  0  0  0  0
   -3.0299  -12.8829   -6.3095 C   0  0  0  0  0  0  0  0  0  0  0  0
   -3.4375  -12.9335   -7.6685 C   0  0  0  0  0  0  0  0  0  0  0  0
   -4.0883  -11.8168   -8.2587 C   0  0  0  0  0  0  0  0  0  0  0  0
   -4.3310  -10.6461   -7.4901 C   0  0  0  0  0  0  0  0  0  0  0  0
   -2.0049  -13.9372   -9.2182 C   0  0  0  0  0  0  0  0  0  0  0  0
  1  4  1  0  0  0  0
  2  3  1  0  0  0  0
  3  5  1  0  0  0  0
  4  6  1  0  0  0  0
  5  8  1  0  0  0  0
  6  7  1  0  0  0  0
  7 10  1  0  0  0  0
  8  9  1  0  0  0  0
  9 12  1  0  0  0  0
  9 13  1  0  0  0  0
 10 11  1  0  0  0  0
 11 14  1  0  0  0  0
 14 15  1  0  0  0  0
 15 16  1  0  0  0  0
 15 17  1  0  0  0  0
 18  2  1  0  0  0  0
 18 20  2  0  0  0  0
 18 24  1  0  0  0  0
 19 25  1  0  0  0  0
 20  1  1  0  0  0  0
 20 21  1  0  0  0  0
 21 22  2  0  0  0  0
 22 19  1  0  0  0  0
 22 23  1  0  0  0  0
 23 24  2  0  0  0  0
M  END
>  <CHROM.1>
-160.94712547,166.40620607,-171.92811927,81.04409478,101.98928493,-169.67431002
81.23254335,89.07774049,26.92239397,74.25965439,-170.67229624,74.60260445
-82.69356125,103.58095071,77.40442120,-137.48229474,32.34353118,-97.62311647
-3.55590678,-10.32064095,-3.86816640,-0.93963514,0.53969429,-2.05991099

>  <Name>
1uud_lig

>  <RI>
0

>  <Rbt.Current_Directory>
/home/itssahil/PROJECTS/Mol_Feturizer/New_Systems/rnas/1uud

>  <Rbt.Executable>
rbdock ($Id: //depot/dev/client3/rdock/2013.1/src/exe/rbdock.cxx#4 $)

>  <Rbt.Library>
libRbt.so (2013.1, Build901 2013/11/27)

>  <Rbt.Parameter_File>
/export/apps/rDock/src/rDock_2013.1_src/data/scripts/dock_solv.prm

>  <Rbt.Receptor>
prm/pocket_docking_3.prm

>  <SCORE>
-39.1348

>  <SCORE.INTER>
-29.0153

>  <SCORE.INTER.CONST>
1

>  <SCORE.INTER.POLAR>
-4.30066

>  <SCORE.INTER.ROT>
18

>  <SCORE.INTER.SOLV>
10.8489

>  <SCORE.INTER.VDW>
-24.2243

>  <SCORE.INTER.norm>
-1.16061

>  <SCORE.INTRA>
-10.1971

>  <SCORE.INTRA.DIHEDRAL>
-8.08708

>  <SCORE.INTRA.DIHEDRAL.0>
30.6762

>  <SCORE.INTRA.POLAR>
-0.828121

>  <SCORE.INTRA.POLAR.0>
-0.0288659

>  <SCORE.INTRA.REPUL>
0

>  <SCORE.INTRA.REPUL.0>
0

>  <SCORE.INTRA.SOLV>
-0.656467

>  <SCORE.INTRA.SOLV.lig_0>
-25.2195

>  <SCORE.INTRA.VDW>
-3.00967

>  <SCORE.INTRA.VDW.0>
4.14263

>  <SCORE.INTRA.norm>
-0.407882

>  <SCORE.RESTR>
0.0775337

>  <SCORE.RESTR.CAVITY>
0.0775337

>  <SCORE.RESTR.norm>
0.00310135

>  <SCORE.SYSTEM>
0

>  <SCORE.SYSTEM.CONST>
0

>  <SCORE.SYSTEM.DIHEDRAL>
0

>  <SCORE.SYSTEM.SOLV>
0

>  <SCORE.SYSTEM.norm>
0

>  <SCORE.heavy>
25

>  <SCORE.norm>
-1.56539

>  <RMSD>
5.330

$$$$
1uud_lig
 OpenBabel11021811413D
libRbt.so/2013.1/901 2013/11/27
 25 25  0  0  0  0  0  0  0  0999 V2000
   -2.1477   -8.5770   -5.4673 C   0  0  0  0  0  0  0  0  0  0  0  0
   -4.7959   -9.8374   -5.4279 O   0  0  0  0  0  0  0  0  0  0  0  0
   -5.3974  -11.0370   -4.9186 C   0  0  0  0  0  0  0  0  0  0  0  0
   -2.7454   -8.9641   -4.1653 N   0  0  0  0  0  0  0  0  0  0  0  0
   -6.2461  -10.7191   -3.6802 C   0  0  0  0  0  0  0  0  0  0  0  0
   -2.0985  -10.1994   -3.6633 C   0  0  0  0  0  0  0  0  0  0  0  0
   -2.9290  -10.7824   -2.5135 C   0  0  0  0  0  0  0  0  0  0  0  0
   -7.2674   -9.9688   -4.0190 N   0  0  0  0  0  0  0  0  0  0  0  0
   -8.0531   -9.4217   -3.1105 C   0  0  0  0  0  0  0  0  0  0  0  0
   -2.9018   -9.8279   -1.3148 C   0  0  0  0  0  0  0  0  0  0  0  0
   -1.5640   -9.9646   -0.5821 C   0  0  0  0  0  0  0  0  0  0  0  0
   -7.6246   -9.2099   -1.8291 N   0  0  0  0  0  0  0  0  0  0  0  0
   -9.3164   -9.0622   -3.4559 N   0  0  0  0  0  0  0  0  0  0  0  0
   -1.5072   -9.1031    0.4058 N   0  0  0  0  0  0  0  0  0  0  0  0
   -1.9766   -9.3958    1.6035 C   0  0  0  0  0  0  0  0  0  0  0  0
   -1.9157   -8.4600    2.5854 N   0  0  0  0  0  0  0  0  0  0  0  0
   -2.5127  -10.6212    1.8811 N   0  0  0  0  0  0  0  0  0  0  0  0
   -3.9034  -10.1527   -6.5043 C   0  0  0  0  0  0  0  0  0  0  0  0
   -1.2764  -11.0723   -9.7451 O   0  0  0  0  0  0  0  0  0  0  0  0
   -2.6099   -9.5585   -6.5643 C   0  0  0  0  0  0  0  0  0  0  0  0
   -1.7416   -9.8596   -7.6477 C   0  0  0  0  0  0  0  0  0  0  0  0
   -2.1538  -10.7678   -8.6580 C   0  0  0  0  0  0  0  0  0  0  0  0
   -3.4361  -11.3760   -8.5887 C   0  0  0  0  0  0  0  0  0  0  0  0
   -4.3094  -11.0749   -7.5085 C   0  0  0  0  0  0  0  0  0  0  0  0
   -0.6533  -12.3398   -9.5175 C   0  0  0  0  0  0  0  0  0  0  0  0
  1  4  1  0  0  0  0
  2  3  1  0  0  0  0
  3  5  1  0  0  0  0
  4  6  1  0  0  0  0
  5  8  1  0  0  0  0
  6  7  1  0  0  0  0
  7 10  1  0  0  0  0
  8  9  1  0  0  0  0
  9 12  1  0  0  0  0
  9 13  1  0  0  0  0
 10 11  1  0  0  0  0
 11 14  1  0  0  0  0
 14 15  1  0  0  0  0
 15 16  1  0  0  0  0
 15 17  1  0  0  0  0
 18  2  1  0  0  0  0
 18 20  2  0  0  0  0
 18 24  1  0  0  0  0
 19 25  1  0  0  0  0
 20  1  1  0  0  0  0
 20 21  1  0  0  0  0
 21 22  2  0  0  0  0
 22 19  1  0  0  0  0
 22 23  1  0  0  0  0
 23 24  2  0  0  0  0
M  END
>  <CHROM.1>
72.05422583,174.48932155,65.86403209,-166.39241847,-171.40695758,-66.01742857
-77.35345731,22.68954362,21.17089831,-176.76520271,176.88657882,87.56959555
-178.80711247,120.34751265,-134.53253607,-134.73716590,32.72302226,101.29309479
-3.67893718,-10.03060707,-3.98091332,-1.49229100,-0.07098504,1.41587898

>  <Name>
1uud_lig

>  <RI>
0

>  <Rbt.Current_Directory>
/home/itssahil/PROJECTS/Mol_Feturizer/New_Systems/rnas/1uud

>  <Rbt.Executable>
rbdock ($Id: //depot/dev/client3/rdock/2013.1/src/exe/rbdock.cxx#4 $)

>  <Rbt.Library>
libRbt.so (2013.1, Build901 2013/11/27)

>  <Rbt.Parameter_File>
/export/apps/rDock/src/rDock_2013.1_src/data/scripts/dock_solv.prm

>  <Rbt.Receptor>
prm/pocket_docking_8.prm

>  <SCORE>
-30.7952

>  <SCORE.INTER>
-20.8102

>  <SCORE.INTER.CONST>
1

>  <SCORE.INTER.POLAR>
-3.29144

>  <SCORE.INTER.ROT>
18

>  <SCORE.INTER.SOLV>
10.5381

>  <SCORE.INTER.VDW>
-22.0147

>  <SCORE.INTER.norm>
-0.83241

>  <SCORE.INTRA>
-9.98494

>  <SCORE.INTRA.DIHEDRAL>
-10.8913

>  <SCORE.INTRA.DIHEDRAL.0>
30.6762

>  <SCORE.INTRA.POLAR>
-0.739894

>  <SCORE.INTRA.POLAR.0>
-0.0288659

>  <SCORE.INTRA.REPUL>
0

>  <SCORE.INTRA.REPUL.0>
0

>  <SCORE.INTRA.SOLV>
-0.462168

>  <SCORE.INTRA.SOLV.lig_0>
-25.2195

>  <SCORE.INTRA.VDW>
-1.79258

>  <SCORE.INTRA.VDW.0>
4.14263

>  <SCORE.INTRA.norm>
-0.399398

>  <SCORE.RESTR>
0

>  <SCORE.RESTR.CAVITY>
0

>  <SCORE.RESTR.norm>
0

>  <SCORE.SYSTEM>
0

>  <SCORE.SYSTEM.CONST>
0

>  <SCORE.SYSTEM.DIHEDRAL>
0

>  <SCORE.SYSTEM.SOLV>
0

>  <SCORE.SYSTEM.norm>
0

>  <SCORE.heavy>
25

>  <SCORE.norm>
-1.23181

>  <RMSD>
5.332

$$$$
1uud_lig
 OpenBabel11021811413D
libRbt.so/2013.1/901 2013/11/27
 25 25  0  0  0  0  0  0  0  0999 V2000
   -3.2625  -11.8271   -3.7842 C   0  0  0  0  0  0  0  0  0  0  0  0
   -4.6593   -9.7956   -5.3731 O   0  0  0  0  0  0  0  0  0  0  0  0
   -4.2999   -8.4750   -5.8057 C   0  0  0  0  0  0  0  0  0  0  0  0
   -2.2269  -10.9494   -3.1848 N   0  0  0  0  0  0  0  0  0  0  0  0
   -5.1456   -7.4279   -5.0685 C   0  0  0  0  0  0  0  0  0  0  0  0
   -2.5179  -10.7394   -1.7467 C   0  0  0  0  0  0  0  0  0  0  0  0
   -1.2081  -10.4877   -0.9899 C   0  0  0  0  0  0  0  0  0  0  0  0
   -6.4029   -7.5365   -5.4265 N   0  0  0  0  0  0  0  0  0  0  0  0
   -7.2923   -8.1286   -4.6516 C   0  0  0  0  0  0  0  0  0  0  0  0
   -1.4038  -10.7794    0.5018 C   0  0  0  0  0  0  0  0  0  0  0  0
   -0.0421  -11.0252    1.1581 C   0  0  0  0  0  0  0  0  0  0  0  0
   -8.2581   -7.4146   -3.9972 N   0  0  0  0  0  0  0  0  0  0  0  0
   -7.2464   -9.4773   -4.4997 N   0  0  0  0  0  0  0  0  0  0  0  0
    0.5872   -9.8852    1.3187 N   0  0  0  0  0  0  0  0  0  0  0  0
    1.7834   -9.6794    0.8019 C   0  0  0  0  0  0  0  0  0  0  0  0
    2.0551   -8.4851    0.2158 N   0  0  0  0  0  0  0  0  0  0  0  0
    2.7511  -10.6431    0.8338 N   0  0  0  0  0  0  0  0  0  0  0  0
   -3.8629  -10.7715   -6.0570 C   0  0  0  0  0  0  0  0  0  0  0  0
   -1.4593  -13.6434   -8.1126 O   0  0  0  0  0  0  0  0  0  0  0  0
   -3.1638  -11.7726   -5.3229 C   0  0  0  0  0  0  0  0  0  0  0  0
   -2.3585  -12.7211   -6.0085 C   0  0  0  0  0  0  0  0  0  0  0  0
   -2.2673  -12.6850   -7.4247 C   0  0  0  0  0  0  0  0  0  0  0  0
   -2.9798  -11.6991   -8.1592 C   0  0  0  0  0  0  0  0  0  0  0  0
   -3.7838  -10.7460   -7.4772 C   0  0  0  0  0  0  0  0  0  0  0  0
   -0.1318  -13.1317   -8.2624 C   0  0  0  0  0  0  0  0  0  0  0  0
  1  4  1  0  0  0  0
  2  3  1  0  0  0  0
  3  5  1  0  0  0  0
  4  6  1  0  0  0  0
  5  8  1  0  0  0  0
  6  7  1  0  0  0  0
  7 10  1  0  0  0  0
  8  9  1  0  0  0  0
  9 12  1  0  0  0  0
  9 13  1  0  0  0  0
 10 11  1  0  0  0  0
 11 14  1  0  0  0  0
 14 15  1  0  0  0  0
 15 16  1  0  0  0  0
 15 17  1  0  0  0  0
 18  2  1  0  0  0  0
 18 20  2  0  0  0  0
 18 24  1  0  0  0  0
 19 25  1  0  0  0  0
 20  1  1  0  0  0  0
 20 21  1  0  0  0  0
 21 22  2  0  0  0  0
 22 19  1  0  0  0  0
 22 23  1  0  0  0  0
 23 24  2  0  0  0  0
M  END
>  <CHROM.1>
166.41529658,-179.66340896,-66.53266762,151.49076518,102.19132627,-159.25406840
159.63909019,108.43254221,75.92352321,-167.57092593,75.57009973,-122.93326064
137.92839006,25.54051051,-22.56186803,128.56903892,-87.45146789,-90.41541600
-2.65577410,-10.35281001,-3.79042960,-2.42527866,-0.49659229,1.10556522

>  <Name>
1uud_lig

>  <RI>
0

>  <Rbt.Current_Directory>
/home/itssahil/PROJECTS/Mol_Feturizer/New_Systems/rnas/1uud

>  <Rbt.Executable>
rbdock ($Id: //depot/dev/client3/rdock/2013.1/src/exe/rbdock.cxx#4 $)

>  <Rbt.Library>
libRbt.so (2013.1, Build901 2013/11/27)

>  <Rbt.Parameter_File>
/export/apps/rDock/src/rDock_2013.1_src/data/scripts/dock_solv.prm

>  <Rbt.Receptor>
prm/pocket_docking_5.prm

>  <SCORE>
-43.7441

>  <SCORE.INTER>
-32.1856

>  <SCORE.INTER.CONST>
1

>  <SCORE.INTER.POLAR>
-4.44667

>  <SCORE.INTER.ROT>
18

>  <SCORE.INTER.SOLV>
12.1659

>  <SCORE.INTER.VDW>
-26.2901

>  <SCORE.INTER.norm>
-1.28742

>  <SCORE.INTRA>
-11.5586

>  <SCORE.INTRA.DIHEDRAL>
-6.38959

>  <SCORE.INTRA.DIHEDRAL.0>
30.6762

>  <SCORE.INTRA.POLAR>
-0.840289

>  <SCORE.INTRA.POLAR.0>
-0.0288659

>  <SCORE.INTRA.REPUL>
0

>  <SCORE.INTRA.REPUL.0>
0

>  <SCORE.INTRA.SOLV>
-0.25645

>  <SCORE.INTRA.SOLV.lig_0>
-25.2195

>  <SCORE.INTRA.VDW>
-5.37855

>  <SCORE.INTRA.VDW.0>
4.14263

>  <SCORE.INTRA.norm>
-0.462342

>  <SCORE.RESTR>
0

>  <SCORE.RESTR.CAVITY>
0

>  <SCORE.RESTR.norm>
0

>  <SCORE.SYSTEM>
0

>  <SCORE.SYSTEM.CONST>
0

>  <SCORE.SYSTEM.DIHEDRAL>
0

>  <SCORE.SYSTEM.SOLV>
0

>  <SCORE.SYSTEM.norm>
0

>  <SCORE.heavy>
25

>  <SCORE.norm>
-1.74977

>  <RMSD>
5.344

$$$$
1uud_lig
 OpenBabel11021811413D
libRbt.so/2013.1/901 2013/11/27
 25 25  0  0  0  0  0  0  0  0999 V2000
   -1.9442   -6.1101   -2.9937 C   0  0  0  0  0  0  0  0  0  0  0  0
   -4.2057   -7.9769   -2.9352 O   0  0  0  0  0  0  0  0  0  0  0  0
   -5.0363   -8.2205   -4.0802 C   0  0  0  0  0  0  0  0  0  0  0  0
   -1.3693   -5.7130   -1.6846 N   0  0  0  0  0  0  0  0  0  0  0  0
   -5.6949   -9.6024   -3.9722 C   0  0  0  0  0  0  0  0  0  0  0  0
   -2.1577   -6.3189   -0.5854 C   0  0  0  0  0  0  0  0  0  0  0  0
   -1.3152   -6.3455    0.6957 C   0  0  0  0  0  0  0  0  0  0  0  0
   -6.4905   -9.7995   -4.9963 N   0  0  0  0  0  0  0  0  0  0  0  0
   -7.6143   -9.1220   -5.1375 C   0  0  0  0  0  0  0  0  0  0  0  0
   -2.1518   -6.8905    1.8583 C   0  0  0  0  0  0  0  0  0  0  0  0
   -2.0004   -8.4128    1.9282 C   0  0  0  0  0  0  0  0  0  0  0  0
   -7.7457   -8.1452   -6.0857 N   0  0  0  0  0  0  0  0  0  0  0  0
   -8.6636   -9.4004   -4.3215 N   0  0  0  0  0  0  0  0  0  0  0  0
   -2.9325   -8.9182    2.7009 N   0  0  0  0  0  0  0  0  0  0  0  0
   -3.5797  -10.0193    2.3705 C   0  0  0  0  0  0  0  0  0  0  0  0
   -3.7841  -10.2987    1.0576 N   0  0  0  0  0  0  0  0  0  0  0  0
   -4.0575  -10.8791    3.3185 N   0  0  0  0  0  0  0  0  0  0  0  0
   -2.8908   -8.5011   -3.1604 C   0  0  0  0  0  0  0  0  0  0  0  0
    1.0137  -10.0795   -3.8772 O   0  0  0  0  0  0  0  0  0  0  0  0
   -1.7654   -7.6284   -3.2015 C   0  0  0  0  0  0  0  0  0  0  0  0
   -0.4693   -8.1550   -3.4485 C   0  0  0  0  0  0  0  0  0  0  0  0
   -0.2924   -9.5515   -3.6328 C   0  0  0  0  0  0  0  0  0  0  0  0
   -1.4115  -10.4250   -3.5725 C   0  0  0  0  0  0  0  0  0  0  0  0
   -2.7105   -9.9021   -3.3293 C   0  0  0  0  0  0  0  0  0  0  0  0
    1.4107   -9.7750   -5.2174 C   0  0  0  0  0  0  0  0  0  0  0  0
  1  4  1  0  0  0  0
  2  3  1  0  0  0  0
  3  5  1  0  0  0  0
  4  6  1  0  0  0  0
  5  8  1  0  0  0  0
  6  7  1  0  0  0  0
  7 10  1  0  0  0  0
  8  9  1  0  0  0  0
  9 12  1  0  0  0  0
  9 13  1  0  0  0  0
 10 11  1  0  0  0  0
 11 14  1  0  0  0  0
 14 15  1  0  0  0  0
 15 16  1  0  0  0  0
 15 17  1  0  0  0  0
 18  2  1  0  0  0  0
 18 20  2  0  0  0  0
 18 24  1  0  0  0  0
 19 25  1  0  0  0  0
 20  1  1  0  0  0  0
 20 21  1  0  0  0  0
 21 22  2  0  0  0  0
 22 19  1  0  0  0  0
 22 23  1  0  0  0  0
 23 24  2  0  0  0  0
M  END
>  <CHROM.1>
-66.37131097,87.19675991,177.70348021,159.75194231,-69.36339633,176.51166860
89.74317211,107.54094332,-10.32322813,31.50746580,-165.46976736,137.61766376
-30.98313871,87.61106231,-78.55812705,116.72420601,109.69207946,-74.34191190
-3.17513009,-8.65429869,-2.06643171,-0.95569807,-0.12634128,-1.57053074

>  <Name>
1uud_lig

>  <RI>
0

>  <Rbt.Current_Directory>
/home/itssahil/PROJECTS/Mol_Feturizer/New_Systems/rnas/1uud

>  <Rbt.Executable>
rbdock ($Id: //depot/dev/client3/rdock/2013.1/src/exe/rbdock.cxx#4 $)

>  <Rbt.Library>
libRbt.so (2013.1, Build901 2013/11/27)

>  <Rbt.Parameter_File>
/export/apps/rDock/src/rDock_2013.1_src/data/scripts/dock_solv.prm

>  <Rbt.Receptor>
prm/pocket_docking_6.prm

>  <SCORE>
-20.8418

>  <SCORE.INTER>
-14.8851

>  <SCORE.INTER.CONST>
1

>  <SCORE.INTER.POLAR>
-4.02034

>  <SCORE.INTER.ROT>
18

>  <SCORE.INTER.SOLV>
11.7933

>  <SCORE.INTER.VDW>
-16.0533

>  <SCORE.INTER.norm>
-0.595402

>  <SCORE.INTRA>
-5.9567

>  <SCORE.INTRA.DIHEDRAL>
-4.14219

>  <SCORE.INTRA.DIHEDRAL.0>
30.6762

>  <SCORE.INTRA.POLAR>
0.0288659

>  <SCORE.INTRA.POLAR.0>
-0.0288659

>  <SCORE.INTRA.REPUL>
0

>  <SCORE.INTRA.REPUL.0>
0

>  <SCORE.INTRA.SOLV>
-1.07629

>  <SCORE.INTRA.SOLV.lig_0>
-25.2195

>  <SCORE.INTRA.VDW>
-3.44561

>  <SCORE.INTRA.VDW.0>
4.14263

>  <SCORE.INTRA.norm>
-0.238268

>  <SCORE.RESTR>
0

>  <SCORE.RESTR.CAVITY>
0

>  <SCORE.RESTR.norm>
0

>  <SCORE.SYSTEM>
0

>  <SCORE.SYSTEM.CONST>
0

>  <SCORE.SYSTEM.DIHEDRAL>
0

>  <SCORE.SYSTEM.SOLV>
0

>  <SCORE.SYSTEM.norm>
0

>  <SCORE.heavy>
25

>  <SCORE.norm>
-0.83367

>  <RMSD>
5.353

$$$$
1uud_lig
 OpenBabel11021811413D
libRbt.so/2013.1/901 2013/11/27
 25 25  0  0  0  0  0  0  0  0999 V2000
   -2.6772   -8.7889   -2.5203 C   0  0  0  0  0  0  0  0  0  0  0  0
   -4.4376   -8.1663   -4.7822 O   0  0  0  0  0  0  0  0  0  0  0  0
   -5.8547   -8.0003   -4.6256 C   0  0  0  0  0  0  0  0  0  0  0  0
   -1.2211   -8.6081   -2.7420 N   0  0  0  0  0  0  0  0  0  0  0  0
   -6.2490   -6.5407   -4.8888 C   0  0  0  0  0  0  0  0  0  0  0  0
   -0.5960   -8.0325   -1.5275 C   0  0  0  0  0  0  0  0  0  0  0  0
    0.9306   -8.0977   -1.6565 C   0  0  0  0  0  0  0  0  0  0  0  0
   -5.6741   -5.7568   -4.0081 N   0  0  0  0  0  0  0  0  0  0  0  0
   -5.4930   -4.4707   -4.2433 C   0  0  0  0  0  0  0  0  0  0  0  0
    1.5804   -7.8378   -0.2930 C   0  0  0  0  0  0  0  0  0  0  0  0
    1.0834   -8.8762    0.7169 C   0  0  0  0  0  0  0  0  0  0  0  0
   -4.2656   -3.9723   -4.5835 N   0  0  0  0  0  0  0  0  0  0  0  0
   -6.5493   -3.6231   -4.1439 N   0  0  0  0  0  0  0  0  0  0  0  0
    1.2489  -10.0840    0.2319 N   0  0  0  0  0  0  0  0  0  0  0  0
    1.7014  -11.0715    0.9806 C   0  0  0  0  0  0  0  0  0  0  0  0
    2.9981  -11.4551    0.8577 N   0  0  0  0  0  0  0  0  0  0  0  0
    0.8934  -11.7232    1.8685 N   0  0  0  0  0  0  0  0  0  0  0  0
   -4.0739   -9.5338   -4.5538 C   0  0  0  0  0  0  0  0  0  0  0  0
   -2.9666  -13.6106   -3.9179 O   0  0  0  0  0  0  0  0  0  0  0  0
   -3.2166   -9.8791   -3.4694 C   0  0  0  0  0  0  0  0  0  0  0  0
   -2.8433  -11.2345   -3.2655 C   0  0  0  0  0  0  0  0  0  0  0  0
   -3.3407  -12.2466   -4.1279 C   0  0  0  0  0  0  0  0  0  0  0  0
   -4.2113  -11.9057   -5.1978 C   0  0  0  0  0  0  0  0  0  0  0  0
   -4.5846  -10.5505   -5.4078 C   0  0  0  0  0  0  0  0  0  0  0  0
   -2.1501  -14.0563   -5.0048 C   0  0  0  0  0  0  0  0  0  0  0  0
  1  4  1  0  0  0  0
  2  3  1  0  0  0  0
  3  5  1  0  0  0  0
  4  6  1  0  0  0  0
  5  8  1  0  0  0  0
  6  7  1  0  0  0  0
  7 10  1  0  0  0  0
  8  9  1  0  0  0  0
  9 12  1  0  0  0  0
  9 13  1  0  0  0  0
 10 11  1  0  0  0  0
 11 14  1  0  0  0  0
 14 15  1  0  0  0  0
 15 16  1  0  0  0  0
 15 17  1  0  0  0  0
 18  2  1  0  0  0  0
 18 20  2  0  0  0  0
 18 24  1  0  0  0  0
 19 25  1  0  0  0  0
 20  1  1  0  0  0  0
 20 21  1  0  0  0  0
 21 22  2  0  0  0  0
 22 19  1  0  0  0  0
 22 23  1  0  0  0  0
 23 24  2  0  0  0  0
M  END
>  <CHROM.1>
-156.39654563,-179.21671561,-62.47279805,169.19528245,158.16135091,-165.98470609
58.48232499,-103.60405625,-46.21448667,113.80544948,52.07196092,137.69252140
-102.34722242,-154.98886560,149.14594616,-116.80590324,-109.89803697,-112.80580766
-2.35757615,-9.08399712,-2.77280800,-2.77243541,0.69254450,-2.92496066

>  <Name>
1uud_lig

>  <RI>
0

>  <Rbt.Current_Directory>
/home/itssahil/PROJECTS/Mol_Feturizer/New_Systems/rnas/1uud

>  <Rbt.Executable>
rbdock ($Id: //depot/dev/client3/rdock/2013.1/src/exe/rbdock.cxx#4 $)

>  <Rbt.Library>
libRbt.so (2013.1, Build901 2013/11/27)

>  <Rbt.Parameter_File>
/export/apps/rDock/src/rDock_2013.1_src/data/scripts/dock_solv.prm

>  <Rbt.Receptor>
prm/pocket_docking_5.prm

>  <SCORE>
-24.2499

>  <SCORE.INTER>
-17.2285

>  <SCORE.INTER.CONST>
1

>  <SCORE.INTER.POLAR>
-2.72339

>  <SCORE.INTER.ROT>
18

>  <SCORE.INTER.SOLV>
9.25126

>  <SCORE.INTER.VDW>
-21.0914

>  <SCORE.INTER.norm>
-0.68914

>  <SCORE.INTRA>
-7.02142

>  <SCORE.INTRA.DIHEDRAL>
-10.0506

>  <SCORE.INTRA.DIHEDRAL.0>
30.6762

>  <SCORE.INTRA.POLAR>
0.0288659

>  <SCORE.INTRA.POLAR.0>
-0.0288659

>  <SCORE.INTRA.REPUL>
0

>  <SCORE.INTRA.REPUL.0>
0

>  <SCORE.INTRA.SOLV>
-0.815855

>  <SCORE.INTRA.SOLV.lig_0>
-25.2195

>  <SCORE.INTRA.VDW>
-1.68632

>  <SCORE.INTRA.VDW.0>
4.14263

>  <SCORE.INTRA.norm>
-0.280857

>  <SCORE.RESTR>
0

>  <SCORE.RESTR.CAVITY>
0

>  <SCORE.RESTR.norm>
0

>  <SCORE.SYSTEM>
0

>  <SCORE.SYSTEM.CONST>
0

>  <SCORE.SYSTEM.DIHEDRAL>
0

>  <SCORE.SYSTEM.SOLV>
0

>  <SCORE.SYSTEM.norm>
0

>  <SCORE.heavy>
25

>  <SCORE.norm>
-0.969997

>  <RMSD>
5.385

$$$$
1uud_lig
 OpenBabel11021811413D
libRbt.so/2013.1/901 2013/11/27
 25 25  0  0  0  0  0  0  0  0999 V2000
   -3.8985  -10.4707   -2.3742 C   0  0  0  0  0  0  0  0  0  0  0  0
   -4.5300   -8.6778   -4.6079 O   0  0  0  0  0  0  0  0  0  0  0  0
   -5.9271   -8.4733   -4.8663 C   0  0  0  0  0  0  0  0  0  0  0  0
   -3.1018   -9.2288   -2.2156 N   0  0  0  0  0  0  0  0  0  0  0  0
   -6.2444   -6.9723   -4.9038 C   0  0  0  0  0  0  0  0  0  0  0  0
   -3.2715   -8.6953   -0.8433 C   0  0  0  0  0  0  0  0  0  0  0  0
   -1.9953   -8.9506   -0.0323 C   0  0  0  0  0  0  0  0  0  0  0  0
   -7.5290   -6.7825   -4.7177 N   0  0  0  0  0  0  0  0  0  0  0  0
   -7.9803   -5.7698   -4.0016 C   0  0  0  0  0  0  0  0  0  0  0  0
   -1.6872  -10.4516   -0.0042 C   0  0  0  0  0  0  0  0  0  0  0  0
   -0.8921  -10.7872    1.2609 C   0  0  0  0  0  0  0  0  0  0  0  0
   -9.1134   -5.0915   -4.3574 N   0  0  0  0  0  0  0  0  0  0  0  0
   -7.3031   -5.3921   -2.8867 N   0  0  0  0  0  0  0  0  0  0  0  0
    0.1412   -9.9852    1.3634 N   0  0  0  0  0  0  0  0  0  0  0  0
    1.2780  -10.2434    0.7458 C   0  0  0  0  0  0  0  0  0  0  0  0
    1.6202   -9.5109   -0.3451 N   0  0  0  0  0  0  0  0  0  0  0  0
    2.1134  -11.2366    1.1720 N   0  0  0  0  0  0  0  0  0  0  0  0
   -4.1687  -10.0338   -4.8994 C   0  0  0  0  0  0  0  0  0  0  0  0
   -3.0509  -14.0590   -5.7935 O   0  0  0  0  0  0  0  0  0  0  0  0
   -3.8493  -10.9363   -3.8442 C   0  0  0  0  0  0  0  0  0  0  0  0
   -3.4698  -12.2719   -4.1450 C   0  0  0  0  0  0  0  0  0  0  0  0
   -3.4293  -12.7130   -5.4938 C   0  0  0  0  0  0  0  0  0  0  0  0
   -3.7665  -11.8192   -6.5456 C   0  0  0  0  0  0  0  0  0  0  0  0
   -4.1434  -10.4812   -6.2496 C   0  0  0  0  0  0  0  0  0  0  0  0
   -1.6818  -14.2635   -5.4327 C   0  0  0  0  0  0  0  0  0  0  0  0
  1  4  1  0  0  0  0
  2  3  1  0  0  0  0
  3  5  1  0  0  0  0
  4  6  1  0  0  0  0
  5  8  1  0  0  0  0
  6  7  1  0  0  0  0
  7 10  1  0  0  0  0
  8  9  1  0  0  0  0
  9 12  1  0  0  0  0
  9 13  1  0  0  0  0
 10 11  1  0  0  0  0
 11 14  1  0  0  0  0
 14 15  1  0  0  0  0
 15 16  1  0  0  0  0
 15 17  1  0  0  0  0
 18  2  1  0  0  0  0
 18 20  2  0  0  0  0
 18 24  1  0  0  0  0
 19 25  1  0  0  0  0
 20  1  1  0  0  0  0
 20 21  1  0  0  0  0
 21 22  2  0  0  0  0
 22 19  1  0  0  0  0
 22 23  1  0  0  0  0
 23 24  2  0  0  0  0
M  END
>  <CHROM.1>
173.63152415,-165.65452860,-160.26766220,106.42567719,141.79709180,-57.79101893
-153.29634643,142.02885425,25.15761518,123.36531195,-51.46510693,-84.71615841
106.43557729,-51.77342154,-106.91868934,-109.32323063,-51.79687336,-65.76752363
-3.41745346,-9.67500393,-2.90711245,-0.06290439,0.67957057,-2.35635847

>  <Name>
1uud_lig

>  <RI>
0

>  <Rbt.Current_Directory>
/home/itssahil/PROJECTS/Mol_Feturizer/New_Systems/rnas/1uud

>  <Rbt.Executable>
rbdock ($Id: //depot/dev/client3/rdock/2013.1/src/exe/rbdock.cxx#4 $)

>  <Rbt.Library>
libRbt.so (2013.1, Build901 2013/11/27)

>  <Rbt.Parameter_File>
/export/apps/rDock/src/rDock_2013.1_src/data/scripts/dock_solv.prm

>  <Rbt.Receptor>
prm/pocket_docking_2.prm

>  <SCORE>
-29.2831

>  <SCORE.INTER>
-22.0134

>  <SCORE.INTER.CONST>
1

>  <SCORE.INTER.POLAR>
-3.35074

>  <SCORE.INTER.ROT>
18

>  <SCORE.INTER.SOLV>
9.32517

>  <SCORE.INTER.VDW>
-22.2148

>  <SCORE.INTER.norm>
-0.880535

>  <SCORE.INTRA>
-7.49359

>  <SCORE.INTRA.DIHEDRAL>
-3.75601

>  <SCORE.INTRA.DIHEDRAL.0>
30.6762

>  <SCORE.INTRA.POLAR>
-0.615321

>  <SCORE.INTRA.POLAR.0>
-0.0288659

>  <SCORE.INTRA.REPUL>
0

>  <SCORE.INTRA.REPUL.0>
0

>  <SCORE.INTRA.SOLV>
-0.749023

>  <SCORE.INTRA.SOLV.lig_0>
-25.2195

>  <SCORE.INTRA.VDW>
-3.14898

>  <SCORE.INTRA.VDW.0>
4.14263

>  <SCORE.INTRA.norm>
-0.299743

>  <SCORE.RESTR>
0.223902

>  <SCORE.RESTR.CAVITY>
0.223902

>  <SCORE.RESTR.norm>
0.0089561

>  <SCORE.SYSTEM>
0

>  <SCORE.SYSTEM.CONST>
0

>  <SCORE.SYSTEM.DIHEDRAL>
0

>  <SCORE.SYSTEM.SOLV>
0

>  <SCORE.SYSTEM.norm>
0

>  <SCORE.heavy>
25

>  <SCORE.norm>
-1.17132

>  <RMSD>
5.403

$$$$
1uud_lig
 OpenBabel11021811413D
libRbt.so/2013.1/901 2013/11/27
 25 25  0  0  0  0  0  0  0  0999 V2000
   -4.3264   -9.8048   -1.8059 C   0  0  0  0  0  0  0  0  0  0  0  0
   -5.4967   -7.9506   -3.7539 O   0  0  0  0  0  0  0  0  0  0  0  0
   -6.9150   -7.8353   -3.9418 C   0  0  0  0  0  0  0  0  0  0  0  0
   -3.1181   -8.9691   -1.5965 N   0  0  0  0  0  0  0  0  0  0  0  0
   -7.4348   -6.5540   -3.2760 C   0  0  0  0  0  0  0  0  0  0  0  0
   -2.7887   -8.9157   -0.1524 C   0  0  0  0  0  0  0  0  0  0  0  0
   -1.5285   -9.7469    0.1172 C   0  0  0  0  0  0  0  0  0  0  0  0
   -8.5274   -6.1490   -3.8785 N   0  0  0  0  0  0  0  0  0  0  0  0
   -8.8834   -4.8781   -3.8810 C   0  0  0  0  0  0  0  0  0  0  0  0
   -0.2903   -8.8448    0.0753 C   0  0  0  0  0  0  0  0  0  0  0  0
    0.9428   -9.6843   -0.2711 C   0  0  0  0  0  0  0  0  0  0  0  0
   -8.4833   -4.0258   -4.8730 N   0  0  0  0  0  0  0  0  0  0  0  0
   -9.6636   -4.4058   -2.8748 N   0  0  0  0  0  0  0  0  0  0  0  0
    1.6407   -9.9196    0.8146 N   0  0  0  0  0  0  0  0  0  0  0  0
    1.4858  -11.0325    1.5059 C   0  0  0  0  0  0  0  0  0  0  0  0
    0.2311  -11.4622    1.7968 N   0  0  0  0  0  0  0  0  0  0  0  0
    2.5580  -11.7566    1.9444 N   0  0  0  0  0  0  0  0  0  0  0  0
   -5.0415   -9.2296   -4.2138 C   0  0  0  0  0  0  0  0  0  0  0  0
   -3.6507  -13.0185   -5.6139 O   0  0  0  0  0  0  0  0  0  0  0  0
   -4.4620  -10.1580   -3.3015 C   0  0  0  0  0  0  0  0  0  0  0  0
   -3.9926  -11.4138   -3.7715 C   0  0  0  0  0  0  0  0  0  0  0  0
   -4.1202  -11.7522   -5.1443 C   0  0  0  0  0  0  0  0  0  0  0  0
   -4.7158  -10.8348   -6.0514 C   0  0  0  0  0  0  0  0  0  0  0  0
   -5.1835   -9.5758   -5.5863 C   0  0  0  0  0  0  0  0  0  0  0  0
   -2.5308  -13.4359   -4.8277 C   0  0  0  0  0  0  0  0  0  0  0  0
  1  4  1  0  0  0  0
  2  3  1  0  0  0  0
  3  5  1  0  0  0  0
  4  6  1  0  0  0  0
  5  8  1  0  0  0  0
  6  7  1  0  0  0  0
  7 10  1  0  0  0  0
  8  9  1  0  0  0  0
  9 12  1  0  0  0  0
  9 13  1  0  0  0  0
 10 11  1  0  0  0  0
 11 14  1  0  0  0  0
 14 15  1  0  0  0  0
 15 16  1  0  0  0  0
 15 17  1  0  0  0  0
 18  2  1  0  0  0  0
 18 20  2  0  0  0  0
 18 24  1  0  0  0  0
 19 25  1  0  0  0  0
 20  1  1  0  0  0  0
 20 21  1  0  0  0  0
 21 22  2  0  0  0  0
 22 19  1  0  0  0  0
 22 23  1  0  0  0  0
 23 24  2  0  0  0  0
M  END
>  <CHROM.1>
-165.64809576,172.15396017,153.59722354,108.09419563,-153.36203542,93.90452307
-155.32409138,90.68357414,-161.42127562,-127.42279753,-102.24781054,95.14647212
-46.50062204,125.77159325,-112.33148666,-116.72818967,-81.74124185,-31.05384632
-3.75240528,-9.21606389,-2.44645993,-0.02007456,-0.65490213,0.74271084

>  <Name>
1uud_lig

>  <RI>
0

>  <Rbt.Current_Directory>
/home/itssahil/PROJECTS/Mol_Feturizer/New_Systems/rnas/1uud

>  <Rbt.Executable>
rbdock ($Id: //depot/dev/client3/rdock/2013.1/src/exe/rbdock.cxx#4 $)

>  <Rbt.Library>
libRbt.so (2013.1, Build901 2013/11/27)

>  <Rbt.Parameter_File>
/export/apps/rDock/src/rDock_2013.1_src/data/scripts/dock_solv.prm

>  <Rbt.Receptor>
prm/pocket_docking_2.prm

>  <SCORE>
-24.1648

>  <SCORE.INTER>
-25.1039

>  <SCORE.INTER.CONST>
1

>  <SCORE.INTER.POLAR>
-4.13214

>  <SCORE.INTER.ROT>
18

>  <SCORE.INTER.SOLV>
9.3646

>  <SCORE.INTER.VDW>
-21.6837

>  <SCORE.INTER.norm>
-1.00416

>  <SCORE.INTRA>
-0.549666

>  <SCORE.INTRA.DIHEDRAL>
1.02937

>  <SCORE.INTRA.DIHEDRAL.0>
30.6762

>  <SCORE.INTRA.POLAR>
0.0288659

>  <SCORE.INTRA.POLAR.0>
-0.0288659

>  <SCORE.INTRA.REPUL>
0

>  <SCORE.INTRA.REPUL.0>
0

>  <SCORE.INTRA.SOLV>
-1.00121

>  <SCORE.INTRA.SOLV.lig_0>
-25.2195

>  <SCORE.INTRA.VDW>
-0.661891

>  <SCORE.INTRA.VDW.0>
4.14263

>  <SCORE.INTRA.norm>
-0.0219866

>  <SCORE.RESTR>
1.48877

>  <SCORE.RESTR.CAVITY>
1.48877

>  <SCORE.RESTR.norm>
0.0595508

>  <SCORE.SYSTEM>
0

>  <SCORE.SYSTEM.CONST>
0

>  <SCORE.SYSTEM.DIHEDRAL>
0

>  <SCORE.SYSTEM.SOLV>
0

>  <SCORE.SYSTEM.norm>
0

>  <SCORE.heavy>
25

>  <SCORE.norm>
-0.966592

>  <RMSD>
5.423

$$$$
1uud_lig
 OpenBabel11021811413D
libRbt.so/2013.1/901 2013/11/27
 25 25  0  0  0  0  0  0  0  0999 V2000
   -1.0413  -10.0907   -4.5238 C   0  0  0  0  0  0  0  0  0  0  0  0
   -3.1987   -8.8951   -6.1108 O   0  0  0  0  0  0  0  0  0  0  0  0
   -4.5989   -8.7228   -5.8462 C   0  0  0  0  0  0  0  0  0  0  0  0
   -1.5392  -10.3719   -3.1545 N   0  0  0  0  0  0  0  0  0  0  0  0
   -4.8650   -7.3136   -5.3000 C   0  0  0  0  0  0  0  0  0  0  0  0
   -1.0158   -9.3552   -2.2114 C   0  0  0  0  0  0  0  0  0  0  0  0
   -1.6438   -9.5671   -0.8285 C   0  0  0  0  0  0  0  0  0  0  0  0
   -6.1497   -7.0519   -5.3456 N   0  0  0  0  0  0  0  0  0  0  0  0
   -6.8859   -7.0168   -4.2507 C   0  0  0  0  0  0  0  0  0  0  0  0
   -1.0969   -8.5285    0.1569 C   0  0  0  0  0  0  0  0  0  0  0  0
    0.4102   -8.7351    0.3339 C   0  0  0  0  0  0  0  0  0  0  0  0
   -6.5780   -7.7789   -3.1576 N   0  0  0  0  0  0  0  0  0  0  0  0
   -7.9748   -6.2063   -4.2094 N   0  0  0  0  0  0  0  0  0  0  0  0
    0.6296   -9.7616    1.1209 N   0  0  0  0  0  0  0  0  0  0  0  0
    1.4725  -10.7195    0.7856 C   0  0  0  0  0  0  0  0  0  0  0  0
    2.7211  -10.3869    0.3686 N   0  0  0  0  0  0  0  0  0  0  0  0
    1.1150  -12.0369    0.8385 N   0  0  0  0  0  0  0  0  0  0  0  0
   -2.9003  -10.2845   -6.2979 C   0  0  0  0  0  0  0  0  0  0  0  0
   -1.9980  -14.4160   -6.9034 O   0  0  0  0  0  0  0  0  0  0  0  0
   -1.8566  -10.9034   -5.5510 C   0  0  0  0  0  0  0  0  0  0  0  0
   -1.5532  -12.2753   -5.7606 C   0  0  0  0  0  0  0  0  0  0  0  0
   -2.3028  -13.0343   -6.6974 C   0  0  0  0  0  0  0  0  0  0  0  0
   -3.3566  -12.4229   -7.4285 C   0  0  0  0  0  0  0  0  0  0  0  0
   -3.6613  -11.0497   -7.2246 C   0  0  0  0  0  0  0  0  0  0  0  0
   -1.8993  -15.0786   -5.6394 C   0  0  0  0  0  0  0  0  0  0  0  0
  1  4  1  0  0  0  0
  2  3  1  0  0  0  0
  3  5  1  0  0  0  0
  4  6  1  0  0  0  0
  5  8  1  0  0  0  0
  6  7  1  0  0  0  0
  7 10  1  0  0  0  0
  8  9  1  0  0  0  0
  9 12  1  0  0  0  0
  9 13  1  0  0  0  0
 10 11  1  0  0  0  0
 11 14  1  0  0  0  0
 14 15  1  0  0  0  0
 15 16  1  0  0  0  0
 15 17  1  0  0  0  0
 18  2  1  0  0  0  0
 18 20  2  0  0  0  0
 18 24  1  0  0  0  0
 19 25  1  0  0  0  0
 20  1  1  0  0  0  0
 20 21  1  0  0  0  0
 21 22  2  0  0  0  0
 22 19  1  0  0  0  0
 22 23  1  0  0  0  0
 23 24  2  0  0  0  0
M  END
>  <CHROM.1>
-165.42912918,165.70243563,165.75059548,174.37676836,107.29981698,179.41767551
-63.62652351,-29.50462977,-79.06335051,-128.63813591,-77.07529895,130.41385146
50.14699428,154.32241963,16.35352451,-127.77755616,100.59234787,48.68060001
-2.39456531,-10.05500346,-3.62986588,-0.42340292,0.67815774,-2.26435571

>  <Name>
1uud_lig

>  <RI>
0

>  <Rbt.Current_Directory>
/home/itssahil/PROJECTS/Mol_Feturizer/New_Systems/rnas/1uud

>  <Rbt.Executable>
rbdock ($Id: //depot/dev/client3/rdock/2013.1/src/exe/rbdock.cxx#4 $)

>  <Rbt.Library>
libRbt.so (2013.1, Build901 2013/11/27)

>  <Rbt.Parameter_File>
/export/apps/rDock/src/rDock_2013.1_src/data/scripts/dock_solv.prm

>  <Rbt.Receptor>
prm/pocket_docking_3.prm

>  <SCORE>
-36.4678

>  <SCORE.INTER>
-28.7265

>  <SCORE.INTER.CONST>
1

>  <SCORE.INTER.POLAR>
-5.09956

>  <SCORE.INTER.ROT>
18

>  <SCORE.INTER.SOLV>
10.2932

>  <SCORE.INTER.VDW>
-21.1835

>  <SCORE.INTER.norm>
-1.14906

>  <SCORE.INTRA>
-7.81146

>  <SCORE.INTRA.DIHEDRAL>
-11.3239

>  <SCORE.INTRA.DIHEDRAL.0>
30.6762

>  <SCORE.INTRA.POLAR>
0.0288659

>  <SCORE.INTRA.POLAR.0>
-0.0288659

>  <SCORE.INTRA.REPUL>
0

>  <SCORE.INTRA.REPUL.0>
0

>  <SCORE.INTRA.SOLV>
-1.00815

>  <SCORE.INTRA.SOLV.lig_0>
-25.2195

>  <SCORE.INTRA.VDW>
-1.74356

>  <SCORE.INTRA.VDW.0>
4.14263

>  <SCORE.INTRA.norm>
-0.312458

>  <SCORE.RESTR>
0.0701842

>  <SCORE.RESTR.CAVITY>
0.0701842

>  <SCORE.RESTR.norm>
0.00280737

>  <SCORE.SYSTEM>
0

>  <SCORE.SYSTEM.CONST>
0

>  <SCORE.SYSTEM.DIHEDRAL>
0

>  <SCORE.SYSTEM.SOLV>
0

>  <SCORE.SYSTEM.norm>
0

>  <SCORE.heavy>
25

>  <SCORE.norm>
-1.45871

>  <RMSD>
5.439

$$$$
1uud_lig
 OpenBabel11021811413D
libRbt.so/2013.1/901 2013/11/27
 25 25  0  0  0  0  0  0  0  0999 V2000
   -4.5323   -7.1712    1.0591 C   0  0  0  0  0  0  0  0  0  0  0  0
   -6.1585   -8.2924   -1.1091 O   0  0  0  0  0  0  0  0  0  0  0  0
   -7.3793   -7.7609   -1.6451 C   0  0  0  0  0  0  0  0  0  0  0  0
   -3.4091   -7.7448    0.2772 N   0  0  0  0  0  0  0  0  0  0  0  0
   -7.1659   -7.3021   -3.0939 C   0  0  0  0  0  0  0  0  0  0  0  0
   -2.5507   -8.5682    1.1615 C   0  0  0  0  0  0  0  0  0  0  0  0
   -1.7611   -9.5755    0.3168 C   0  0  0  0  0  0  0  0  0  0  0  0
   -6.7994   -8.3201   -3.8356 N   0  0  0  0  0  0  0  0  0  0  0  0
   -6.7981   -8.2486   -5.1535 C   0  0  0  0  0  0  0  0  0  0  0  0
   -0.7180  -10.2826    1.1889 C   0  0  0  0  0  0  0  0  0  0  0  0
    0.1193  -11.2266    0.3211 C   0  0  0  0  0  0  0  0  0  0  0  0
   -5.6314   -8.2291   -5.8670 N   0  0  0  0  0  0  0  0  0  0  0  0
   -7.9822   -8.1918   -5.8159 N   0  0  0  0  0  0  0  0  0  0  0  0
    1.1808  -11.6182    0.9853 N   0  0  0  0  0  0  0  0  0  0  0  0
    2.2384  -10.8403    1.1153 C   0  0  0  0  0  0  0  0  0  0  0  0
    2.1949   -9.5757    0.6229 N   0  0  0  0  0  0  0  0  0  0  0  0
    3.3791  -11.2809    1.7244 N   0  0  0  0  0  0  0  0  0  0  0  0
   -6.3733   -8.7699    0.2252 C   0  0  0  0  0  0  0  0  0  0  0  0
   -6.9992  -10.2392    4.1875 O   0  0  0  0  0  0  0  0  0  0  0  0
   -5.6013   -8.2556    1.3067 C   0  0  0  0  0  0  0  0  0  0  0  0
   -5.8058   -8.7522    2.6219 C   0  0  0  0  0  0  0  0  0  0  0  0
   -6.7927   -9.7441    2.8621 C   0  0  0  0  0  0  0  0  0  0  0  0
   -7.5765  -10.2435    1.7873 C   0  0  0  0  0  0  0  0  0  0  0  0
   -7.3729   -9.7521    0.4693 C   0  0  0  0  0  0  0  0  0  0  0  0
   -5.8447  -10.9698    4.6115 C   0  0  0  0  0  0  0  0  0  0  0  0
  1  4  1  0  0  0  0
  2  3  1  0  0  0  0
  3  5  1  0  0  0  0
  4  6  1  0  0  0  0
  5  8  1  0  0  0  0
  6  7  1  0  0  0  0
  7 10  1  0  0  0  0
  8  9  1  0  0  0  0
  9 12  1  0  0  0  0
  9 13  1  0  0  0  0
 10 11  1  0  0  0  0
 11 14  1  0  0  0  0
 14 15  1  0  0  0  0
 15 16  1  0  0  0  0
 15 17  1  0  0  0  0
 18  2  1  0  0  0  0
 18 20  2  0  0  0  0
 18 24  1  0  0  0  0
 19 25  1  0  0  0  0
 20  1  1  0  0  0  0
 20 21  1  0  0  0  0
 21 22  2  0  0  0  0
 22 19  1  0  0  0  0
 22 23  1  0  0  0  0
 23 24  2  0  0  0  0
M  END
>  <CHROM.1>
-77.00458851,-177.67305491,60.74077658,157.74090911,167.00461555,171.41158390
-176.74549803,110.03420182,-134.52250144,-167.20883131,166.78240925,-78.60940112
4.19434528,77.69599881,-67.56475434,-122.63987627,-68.25868375,-66.82562749
-4.08532454,-9.24416066,-0.04643299,2.64181452,0.16866151,-1.35495907

>  <Name>
1uud_lig

>  <RI>
0

>  <Rbt.Current_Directory>
/home/itssahil/PROJECTS/Mol_Feturizer/New_Systems/rnas/1uud

>  <Rbt.Executable>
rbdock ($Id: //depot/dev/client3/rdock/2013.1/src/exe/rbdock.cxx#4 $)

>  <Rbt.Library>
libRbt.so (2013.1, Build901 2013/11/27)

>  <Rbt.Parameter_File>
/export/apps/rDock/src/rDock_2013.1_src/data/scripts/dock_solv.prm

>  <Rbt.Receptor>
prm/pocket_docking_8.prm

>  <SCORE>
-51.0779

>  <SCORE.INTER>
-42.5322

>  <SCORE.INTER.CONST>
1

>  <SCORE.INTER.POLAR>
-6.39212

>  <SCORE.INTER.ROT>
18

>  <SCORE.INTER.SOLV>
14.8454

>  <SCORE.INTER.VDW>
-27.5962

>  <SCORE.INTER.norm>
-1.70129

>  <SCORE.INTRA>
-8.54567

>  <SCORE.INTRA.DIHEDRAL>
-10.215

>  <SCORE.INTRA.DIHEDRAL.0>
30.6762

>  <SCORE.INTRA.POLAR>
-0.0243156

>  <SCORE.INTRA.POLAR.0>
-0.0288659

>  <SCORE.INTRA.REPUL>
0

>  <SCORE.INTRA.REPUL.0>
0

>  <SCORE.INTRA.SOLV>
-0.898765

>  <SCORE.INTRA.SOLV.lig_0>
-25.2195

>  <SCORE.INTRA.VDW>
-2.90612

>  <SCORE.INTRA.VDW.0>
4.14263

>  <SCORE.INTRA.norm>
-0.341827

>  <SCORE.RESTR>
0

>  <SCORE.RESTR.CAVITY>
0

>  <SCORE.RESTR.norm>
0

>  <SCORE.SYSTEM>
0

>  <SCORE.SYSTEM.CONST>
0

>  <SCORE.SYSTEM.DIHEDRAL>
0

>  <SCORE.SYSTEM.SOLV>
0

>  <SCORE.SYSTEM.norm>
0

>  <SCORE.heavy>
25

>  <SCORE.norm>
-2.04312

>  <RMSD>
5.444

$$$$
1uud_lig
 OpenBabel11021811413D
libRbt.so/2013.1/901 2013/11/27
 25 25  0  0  0  0  0  0  0  0999 V2000
   -3.4580   -8.4281   -4.9190 C   0  0  0  0  0  0  0  0  0  0  0  0
   -6.0160   -8.7403   -3.5184 O   0  0  0  0  0  0  0  0  0  0  0  0
   -7.3913   -8.8051   -3.9242 C   0  0  0  0  0  0  0  0  0  0  0  0
   -2.0117   -8.5791   -5.2153 N   0  0  0  0  0  0  0  0  0  0  0  0
   -8.1462   -7.5611   -3.4366 C   0  0  0  0  0  0  0  0  0  0  0  0
   -1.3371   -9.2645   -4.0876 C   0  0  0  0  0  0  0  0  0  0  0  0
   -1.3551   -8.3573   -2.8514 C   0  0  0  0  0  0  0  0  0  0  0  0
   -7.9394   -6.5615   -4.2606 N   0  0  0  0  0  0  0  0  0  0  0  0
   -7.0848   -5.5972   -3.9748 C   0  0  0  0  0  0  0  0  0  0  0  0
   -0.4759   -8.9596   -1.7501 C   0  0  0  0  0  0  0  0  0  0  0  0
   -0.6406   -8.1473   -0.4623 C   0  0  0  0  0  0  0  0  0  0  0  0
   -7.4921   -4.4334   -3.3829 N   0  0  0  0  0  0  0  0  0  0  0  0
   -5.7713   -5.7640   -4.2767 N   0  0  0  0  0  0  0  0  0  0  0  0
   -1.7382   -8.5119    0.1570 N   0  0  0  0  0  0  0  0  0  0  0  0
   -1.6990   -9.1491    1.3115 C   0  0  0  0  0  0  0  0  0  0  0  0
   -1.9071   -8.4538    2.4590 N   0  0  0  0  0  0  0  0  0  0  0  0
   -1.4440  -10.4894    1.3797 N   0  0  0  0  0  0  0  0  0  0  0  0
   -5.3207   -9.9189   -3.9452 C   0  0  0  0  0  0  0  0  0  0  0  0
   -3.2873  -13.4430   -5.2475 O   0  0  0  0  0  0  0  0  0  0  0  0
   -4.0778   -9.8118   -4.6334 C   0  0  0  0  0  0  0  0  0  0  0  0
   -3.4080  -10.9851   -5.0727 C   0  0  0  0  0  0  0  0  0  0  0  0
   -3.9655  -12.2635   -4.8078 C   0  0  0  0  0  0  0  0  0  0  0  0
   -5.1953  -12.3721   -4.1044 C   0  0  0  0  0  0  0  0  0  0  0  0
   -5.8706  -11.2008   -3.6661 C   0  0  0  0  0  0  0  0  0  0  0  0
   -1.9625  -13.4633   -4.7079 C   0  0  0  0  0  0  0  0  0  0  0  0
  1  4  1  0  0  0  0
  2  3  1  0  0  0  0
  3  5  1  0  0  0  0
  4  6  1  0  0  0  0
  5  8  1  0  0  0  0
  6  7  1  0  0  0  0
  7 10  1  0  0  0  0
  8  9  1  0  0  0  0
  9 12  1  0  0  0  0
  9 13  1  0  0  0  0
 10 11  1  0  0  0  0
 11 14  1  0  0  0  0
 14 15  1  0  0  0  0
 15 16  1  0  0  0  0
 15 17  1  0  0  0  0
 18  2  1  0  0  0  0
 18 20  2  0  0  0  0
 18 24  1  0  0  0  0
 19 25  1  0  0  0  0
 20  1  1  0  0  0  0
 20 21  1  0  0  0  0
 21 22  2  0  0  0  0
 22 19  1  0  0  0  0
 22 23  1  0  0  0  0
 23 24  2  0  0  0  0
M  END
>  <CHROM.1>
-56.64643628,178.53262798,81.83559818,-67.03869955,-101.83828963,-171.25209029
-172.77654185,-94.45438243,-126.92976921,68.46394848,80.59075635,111.89566986
100.05801634,-88.43005103,132.81434789,130.76083711,161.17787993,56.74786375
-3.94231938,-9.11168947,-3.03474454,-3.13517899,-0.66692187,0.72744000

>  <Name>
1uud_lig

>  <RI>
0

>  <Rbt.Current_Directory>
/home/itssahil/PROJECTS/Mol_Feturizer/New_Systems/rnas/1uud

>  <Rbt.Executable>
rbdock ($Id: //depot/dev/client3/rdock/2013.1/src/exe/rbdock.cxx#4 $)

>  <Rbt.Library>
libRbt.so (2013.1, Build901 2013/11/27)

>  <Rbt.Parameter_File>
/export/apps/rDock/src/rDock_2013.1_src/data/scripts/dock_solv.prm

>  <Rbt.Receptor>
prm/pocket_docking_3.prm

>  <SCORE>
-15.1771

>  <SCORE.INTER>
-8.34809

>  <SCORE.INTER.CONST>
1

>  <SCORE.INTER.POLAR>
-2.7268

>  <SCORE.INTER.ROT>
18

>  <SCORE.INTER.SOLV>
5.83924

>  <SCORE.INTER.VDW>
-14.0225

>  <SCORE.INTER.norm>
-0.333924

>  <SCORE.INTRA>
-6.85592

>  <SCORE.INTRA.DIHEDRAL>
-10.4717

>  <SCORE.INTRA.DIHEDRAL.0>
30.6762

>  <SCORE.INTRA.POLAR>
0.0288659

>  <SCORE.INTRA.POLAR.0>
-0.0288659

>  <SCORE.INTRA.REPUL>
0

>  <SCORE.INTRA.REPUL.0>
0

>  <SCORE.INTRA.SOLV>
-0.573226

>  <SCORE.INTRA.SOLV.lig_0>
-25.2195

>  <SCORE.INTRA.VDW>
-1.43159

>  <SCORE.INTRA.VDW.0>
4.14263

>  <SCORE.INTRA.norm>
-0.274237

>  <SCORE.RESTR>
0.0269158

>  <SCORE.RESTR.CAVITY>
0.0269158

>  <SCORE.RESTR.norm>
0.00107663

>  <SCORE.SYSTEM>
0

>  <SCORE.SYSTEM.CONST>
0

>  <SCORE.SYSTEM.DIHEDRAL>
0

>  <SCORE.SYSTEM.SOLV>
0

>  <SCORE.SYSTEM.norm>
0

>  <SCORE.heavy>
25

>  <SCORE.norm>
-0.607084

>  <RMSD>
5.502

$$$$
1uud_lig
 OpenBabel11021811413D
libRbt.so/2013.1/901 2013/11/27
 25 25  0  0  0  0  0  0  0  0999 V2000
   -1.9671  -10.8540   -3.4459 C   0  0  0  0  0  0  0  0  0  0  0  0
   -4.4601   -9.4340   -4.0549 O   0  0  0  0  0  0  0  0  0  0  0  0
   -4.9140   -8.2241   -4.6798 C   0  0  0  0  0  0  0  0  0  0  0  0
   -2.9490  -10.7803   -2.3357 N   0  0  0  0  0  0  0  0  0  0  0  0
   -6.4065   -8.3319   -5.0203 C   0  0  0  0  0  0  0  0  0  0  0  0
   -2.3339  -10.1110   -1.1651 C   0  0  0  0  0  0  0  0  0  0  0  0
   -3.3535  -10.0377   -0.0220 C   0  0  0  0  0  0  0  0  0  0  0  0
   -7.1168   -8.3422   -3.9175 N   0  0  0  0  0  0  0  0  0  0  0  0
   -7.9474   -9.3300   -3.6410 C   0  0  0  0  0  0  0  0  0  0  0  0
   -2.9886   -8.8928    0.9292 C   0  0  0  0  0  0  0  0  0  0  0  0
   -3.9369   -8.9046    2.1316 C   0  0  0  0  0  0  0  0  0  0  0  0
   -7.5032  -10.6136   -3.4808 N   0  0  0  0  0  0  0  0  0  0  0  0
   -9.2734   -9.0657   -3.5140 N   0  0  0  0  0  0  0  0  0  0  0  0
   -3.9373   -7.7271    2.7102 N   0  0  0  0  0  0  0  0  0  0  0  0
   -3.3283   -7.5252    3.8629 C   0  0  0  0  0  0  0  0  0  0  0  0
   -3.9489   -7.8934    5.0131 N   0  0  0  0  0  0  0  0  0  0  0  0
   -2.0931   -6.9453    3.9267 N   0  0  0  0  0  0  0  0  0  0  0  0
   -3.9214  -10.3249   -5.0400 C   0  0  0  0  0  0  0  0  0  0  0  0
   -2.3100  -12.9413   -8.0079 O   0  0  0  0  0  0  0  0  0  0  0  0
   -2.7097  -11.0303   -4.7867 C   0  0  0  0  0  0  0  0  0  0  0  0
   -2.1718  -11.8932   -5.7788 C   0  0  0  0  0  0  0  0  0  0  0  0
   -2.8515  -12.0690   -7.0127 C   0  0  0  0  0  0  0  0  0  0  0  0
   -4.0701  -11.3810   -7.2586 C   0  0  0  0  0  0  0  0  0  0  0  0
   -4.6102  -10.5140   -6.2703 C   0  0  0  0  0  0  0  0  0  0  0  0
   -1.5982  -12.1730   -8.9824 C   0  0  0  0  0  0  0  0  0  0  0  0
  1  4  1  0  0  0  0
  2  3  1  0  0  0  0
  3  5  1  0  0  0  0
  4  6  1  0  0  0  0
  5  8  1  0  0  0  0
  6  7  1  0  0  0  0
  7 10  1  0  0  0  0
  8  9  1  0  0  0  0
  9 12  1  0  0  0  0
  9 13  1  0  0  0  0
 10 11  1  0  0  0  0
 11 14  1  0  0  0  0
 14 15  1  0  0  0  0
 15 16  1  0  0  0  0
 15 17  1  0  0  0  0
 18  2  1  0  0  0  0
 18 20  2  0  0  0  0
 18 24  1  0  0  0  0
 19 25  1  0  0  0  0
 20  1  1  0  0  0  0
 20 21  1  0  0  0  0
 21 22  2  0  0  0  0
 22 19  1  0  0  0  0
 22 23  1  0  0  0  0
 23 24  2  0  0  0  0
M  END
>  <CHROM.1>
-158.39831271,93.30902384,68.81151266,179.97587377,-123.29626639,-156.48781892
-175.01348655,61.82734788,145.26459156,-76.91160846,-159.54985354,-106.04193109
-80.36583875,-177.81957295,-68.22390265,136.72740138,39.56694478,-98.45820374
-4.14634884,-9.77611909,-2.69301604,-1.58600872,-0.31180670,1.24092237

>  <Name>
1uud_lig

>  <RI>
0

>  <Rbt.Current_Directory>
/home/itssahil/PROJECTS/Mol_Feturizer/New_Systems/rnas/1uud

>  <Rbt.Executable>
rbdock ($Id: //depot/dev/client3/rdock/2013.1/src/exe/rbdock.cxx#4 $)

>  <Rbt.Library>
libRbt.so (2013.1, Build901 2013/11/27)

>  <Rbt.Parameter_File>
/export/apps/rDock/src/rDock_2013.1_src/data/scripts/dock_solv.prm

>  <Rbt.Receptor>
prm/pocket_docking_7.prm

>  <SCORE>
-38.6704

>  <SCORE.INTER>
-28.8468

>  <SCORE.INTER.CONST>
1

>  <SCORE.INTER.POLAR>
-5.0167

>  <SCORE.INTER.ROT>
18

>  <SCORE.INTER.SOLV>
9.73554

>  <SCORE.INTER.VDW>
-21.354

>  <SCORE.INTER.norm>
-1.15387

>  <SCORE.INTRA>
-9.82366

>  <SCORE.INTRA.DIHEDRAL>
-4.46481

>  <SCORE.INTRA.DIHEDRAL.0>
30.6762

>  <SCORE.INTRA.POLAR>
-0.80884

>  <SCORE.INTRA.POLAR.0>
-0.0288659

>  <SCORE.INTRA.REPUL>
0

>  <SCORE.INTRA.REPUL.0>
0

>  <SCORE.INTRA.SOLV>
-0.333359

>  <SCORE.INTRA.SOLV.lig_0>
-25.2195

>  <SCORE.INTRA.VDW>
-4.67452

>  <SCORE.INTRA.VDW.0>
4.14263

>  <SCORE.INTRA.norm>
-0.392946

>  <SCORE.RESTR>
0

>  <SCORE.RESTR.CAVITY>
0

>  <SCORE.RESTR.norm>
0

>  <SCORE.SYSTEM>
0

>  <SCORE.SYSTEM.CONST>
0

>  <SCORE.SYSTEM.DIHEDRAL>
0

>  <SCORE.SYSTEM.SOLV>
0

>  <SCORE.SYSTEM.norm>
0

>  <SCORE.heavy>
25

>  <SCORE.norm>
-1.54682

>  <RMSD>
5.508

$$$$
1uud_lig
 OpenBabel11021811413D
libRbt.so/2013.1/901 2013/11/27
 25 25  0  0  0  0  0  0  0  0999 V2000
   -2.6452  -10.5269   -2.9462 C   0  0  0  0  0  0  0  0  0  0  0  0
   -3.9553  -10.2437   -5.5550 O   0  0  0  0  0  0  0  0  0  0  0  0
   -4.7373   -9.0883   -5.8923 C   0  0  0  0  0  0  0  0  0  0  0  0
   -1.7392  -10.5002   -1.7712 N   0  0  0  0  0  0  0  0  0  0  0  0
   -5.4269   -8.5316   -4.6394 C   0  0  0  0  0  0  0  0  0  0  0  0
   -2.4825  -10.9059   -0.5548 C   0  0  0  0  0  0  0  0  0  0  0  0
   -1.5302  -10.9203    0.6471 C   0  0  0  0  0  0  0  0  0  0  0  0
   -6.4867   -9.2508   -4.3559 N   0  0  0  0  0  0  0  0  0  0  0  0
   -7.6837   -8.9223   -4.8044 C   0  0  0  0  0  0  0  0  0  0  0  0
   -1.2692   -9.4869    1.1224 C   0  0  0  0  0  0  0  0  0  0  0  0
   -2.4658   -8.9932    1.9407 C   0  0  0  0  0  0  0  0  0  0  0  0
   -7.8456   -7.9937   -5.7954 N   0  0  0  0  0  0  0  0  0  0  0  0
   -8.7796   -9.5190   -4.2685 N   0  0  0  0  0  0  0  0  0  0  0  0
   -2.0841   -8.0402    2.7575 N   0  0  0  0  0  0  0  0  0  0  0  0
   -2.9324   -7.1334    3.2032 C   0  0  0  0  0  0  0  0  0  0  0  0
   -4.1811   -7.5191    3.5714 N   0  0  0  0  0  0  0  0  0  0  0  0
   -2.5871   -5.8148    3.2929 N   0  0  0  0  0  0  0  0  0  0  0  0
   -2.5720   -9.8858   -5.4410 C   0  0  0  0  0  0  0  0  0  0  0  0
    1.5391   -8.7716   -5.1133 O   0  0  0  0  0  0  0  0  0  0  0  0
   -1.8989  -10.0033   -4.1908 C   0  0  0  0  0  0  0  0  0  0  0  0
   -0.5341   -9.6240   -4.0828 C   0  0  0  0  0  0  0  0  0  0  0  0
    0.1643   -9.1488   -5.2238 C   0  0  0  0  0  0  0  0  0  0  0  0
   -0.5007   -9.0498   -6.4755 C   0  0  0  0  0  0  0  0  0  0  0  0
   -1.8671   -9.4247   -6.5874 C   0  0  0  0  0  0  0  0  0  0  0  0
    1.6741   -7.3712   -5.3724 C   0  0  0  0  0  0  0  0  0  0  0  0
  1  4  1  0  0  0  0
  2  3  1  0  0  0  0
  3  5  1  0  0  0  0
  4  6  1  0  0  0  0
  5  8  1  0  0  0  0
  6  7  1  0  0  0  0
  7 10  1  0  0  0  0
  8  9  1  0  0  0  0
  9 12  1  0  0  0  0
  9 13  1  0  0  0  0
 10 11  1  0  0  0  0
 11 14  1  0  0  0  0
 14 15  1  0  0  0  0
 15 16  1  0  0  0  0
 15 17  1  0  0  0  0
 18  2  1  0  0  0  0
 18 20  2  0  0  0  0
 18 24  1  0  0  0  0
 19 25  1  0  0  0  0
 20  1  1  0  0  0  0
 20 21  1  0  0  0  0
 21 22  2  0  0  0  0
 22 19  1  0  0  0  0
 22 23  1  0  0  0  0
 23 24  2  0  0  0  0
M  END
>  <CHROM.1>
175.77151593,-100.43449740,-78.93109713,178.17345002,-93.02690245,76.91638545
78.07777942,13.59844945,-83.78143994,7.81375126,155.80216902,155.04641567
41.21720867,42.56724700,82.96807941,116.08436853,-177.75585605,-115.57705673
-2.97428974,-9.03392263,-2.58510401,-1.74009864,-0.03322525,1.43198296

>  <Name>
1uud_lig

>  <RI>
0

>  <Rbt.Current_Directory>
/home/itssahil/PROJECTS/Mol_Feturizer/New_Systems/rnas/1uud

>  <Rbt.Executable>
rbdock ($Id: //depot/dev/client3/rdock/2013.1/src/exe/rbdock.cxx#4 $)

>  <Rbt.Library>
libRbt.so (2013.1, Build901 2013/11/27)

>  <Rbt.Parameter_File>
/export/apps/rDock/src/rDock_2013.1_src/data/scripts/dock_solv.prm

>  <Rbt.Receptor>
prm/pocket_docking_7.prm

>  <SCORE>
-34.6559

>  <SCORE.INTER>
-30.7437

>  <SCORE.INTER.CONST>
1

>  <SCORE.INTER.POLAR>
-6.27833

>  <SCORE.INTER.ROT>
18

>  <SCORE.INTER.SOLV>
10.0952

>  <SCORE.INTER.VDW>
-18.5331

>  <SCORE.INTER.norm>
-1.22975

>  <SCORE.INTRA>
-3.91213

>  <SCORE.INTRA.DIHEDRAL>
-1.61967

>  <SCORE.INTRA.DIHEDRAL.0>
30.6762

>  <SCORE.INTRA.POLAR>
0.0288659

>  <SCORE.INTRA.POLAR.0>
-0.0288659

>  <SCORE.INTRA.REPUL>
0

>  <SCORE.INTRA.REPUL.0>
0

>  <SCORE.INTRA.SOLV>
-1.02807

>  <SCORE.INTRA.SOLV.lig_0>
-25.2195

>  <SCORE.INTRA.VDW>
-2.68641

>  <SCORE.INTRA.VDW.0>
4.14263

>  <SCORE.INTRA.norm>
-0.156485

>  <SCORE.RESTR>
0

>  <SCORE.RESTR.CAVITY>
0

>  <SCORE.RESTR.norm>
0

>  <SCORE.SYSTEM>
0

>  <SCORE.SYSTEM.CONST>
0

>  <SCORE.SYSTEM.DIHEDRAL>
0

>  <SCORE.SYSTEM.SOLV>
0

>  <SCORE.SYSTEM.norm>
0

>  <SCORE.heavy>
25

>  <SCORE.norm>
-1.38623

>  <RMSD>
5.518

$$$$
1uud_lig
 OpenBabel11021811413D
libRbt.so/2013.1/901 2013/11/27
 25 25  0  0  0  0  0  0  0  0999 V2000
   -3.4568  -11.0012   -3.2562 C   0  0  0  0  0  0  0  0  0  0  0  0
   -5.2929   -9.4593   -4.9455 O   0  0  0  0  0  0  0  0  0  0  0  0
   -5.0715   -8.2071   -5.6114 C   0  0  0  0  0  0  0  0  0  0  0  0
   -2.0852  -10.5238   -2.9510 N   0  0  0  0  0  0  0  0  0  0  0  0
   -5.6614   -7.0565   -4.7849 C   0  0  0  0  0  0  0  0  0  0  0  0
   -2.0415   -9.9662   -1.5784 C   0  0  0  0  0  0  0  0  0  0  0  0
   -1.8156  -11.1003   -0.5712 C   0  0  0  0  0  0  0  0  0  0  0  0
   -6.9599   -7.2062   -4.6735 N   0  0  0  0  0  0  0  0  0  0  0  0
   -7.4970   -7.8228   -3.6376 C   0  0  0  0  0  0  0  0  0  0  0  0
   -1.2074  -10.5385    0.7184 C   0  0  0  0  0  0  0  0  0  0  0  0
   -2.2818   -9.7794    1.5025 C   0  0  0  0  0  0  0  0  0  0  0  0
   -6.7281   -8.4980   -2.7302 N   0  0  0  0  0  0  0  0  0  0  0  0
   -8.8442   -7.7869   -3.4697 N   0  0  0  0  0  0  0  0  0  0  0  0
   -1.7369   -8.7741    2.1458 N   0  0  0  0  0  0  0  0  0  0  0  0
   -2.3108   -7.5868    2.1824 C   0  0  0  0  0  0  0  0  0  0  0  0
   -3.6349   -7.4999    2.4702 N   0  0  0  0  0  0  0  0  0  0  0  0
   -1.6065   -6.4444    1.9276 N   0  0  0  0  0  0  0  0  0  0  0  0
   -4.5020  -10.4876   -5.5550 C   0  0  0  0  0  0  0  0  0  0  0  0
   -2.1219  -13.5177   -7.4000 O   0  0  0  0  0  0  0  0  0  0  0  0
   -3.5938  -11.2566   -4.7715 C   0  0  0  0  0  0  0  0  0  0  0  0
   -2.7974  -12.2578   -5.3893 C   0  0  0  0  0  0  0  0  0  0  0  0
   -2.9216  -12.5066   -6.7814 C   0  0  0  0  0  0  0  0  0  0  0  0
   -3.8413  -11.7536   -7.5600 C   0  0  0  0  0  0  0  0  0  0  0  0
   -4.6374  -10.7485   -6.9468 C   0  0  0  0  0  0  0  0  0  0  0  0
   -2.9028  -14.7026   -7.5805 C   0  0  0  0  0  0  0  0  0  0  0  0
  1  4  1  0  0  0  0
  2  3  1  0  0  0  0
  3  5  1  0  0  0  0
  4  6  1  0  0  0  0
  5  8  1  0  0  0  0
  6  7  1  0  0  0  0
  7 10  1  0  0  0  0
  8  9  1  0  0  0  0
  9 12  1  0  0  0  0
  9 13  1  0  0  0  0
 10 11  1  0  0  0  0
 11 14  1  0  0  0  0
 14 15  1  0  0  0  0
 15 16  1  0  0  0  0
 15 17  1  0  0  0  0
 18  2  1  0  0  0  0
 18 20  2  0  0  0  0
 18 24  1  0  0  0  0
 19 25  1  0  0  0  0
 20  1  1  0  0  0  0
 20 21  1  0  0  0  0
 21 22  2  0  0  0  0
 22 19  1  0  0  0  0
 22 23  1  0  0  0  0
 23 24  2  0  0  0  0
M  END
>  <CHROM.1>
166.21591782,-167.48037936,-62.37889246,84.82747854,93.63667472,156.89655175
73.80119620,-9.39840924,127.30926108,-179.12042431,-147.16339673,137.16790865
47.08151819,57.39016166,110.45186640,124.06732148,-116.14938465,100.55283739
-3.83833802,-9.80225890,-3.08488225,-1.78881687,-0.65588149,1.03874302

>  <Name>
1uud_lig

>  <RI>
0

>  <Rbt.Current_Directory>
/home/itssahil/PROJECTS/Mol_Feturizer/New_Systems/rnas/1uud

>  <Rbt.Executable>
rbdock ($Id: //depot/dev/client3/rdock/2013.1/src/exe/rbdock.cxx#4 $)

>  <Rbt.Library>
libRbt.so (2013.1, Build901 2013/11/27)

>  <Rbt.Parameter_File>
/export/apps/rDock/src/rDock_2013.1_src/data/scripts/dock_solv.prm

>  <Rbt.Receptor>
prm/pocket_docking_4.prm

>  <SCORE>
-29.8019

>  <SCORE.INTER>
-22.1181

>  <SCORE.INTER.CONST>
1

>  <SCORE.INTER.POLAR>
-4.26209

>  <SCORE.INTER.ROT>
18

>  <SCORE.INTER.SOLV>
7.34863

>  <SCORE.INTER.VDW>
-18.588

>  <SCORE.INTER.norm>
-0.884724

>  <SCORE.INTRA>
-7.71065

>  <SCORE.INTRA.DIHEDRAL>
-4.1529

>  <SCORE.INTRA.DIHEDRAL.0>
30.6762

>  <SCORE.INTRA.POLAR>
-0.554896

>  <SCORE.INTRA.POLAR.0>
-0.0288659

>  <SCORE.INTRA.REPUL>
0

>  <SCORE.INTRA.REPUL.0>
0

>  <SCORE.INTRA.SOLV>
-0.440113

>  <SCORE.INTRA.SOLV.lig_0>
-25.2195

>  <SCORE.INTRA.VDW>
-3.5275

>  <SCORE.INTRA.VDW.0>
4.14263

>  <SCORE.INTRA.norm>
-0.308426

>  <SCORE.RESTR>
0.0268794

>  <SCORE.RESTR.CAVITY>
0.0268794

>  <SCORE.RESTR.norm>
0.00107518

>  <SCORE.SYSTEM>
0

>  <SCORE.SYSTEM.CONST>
0

>  <SCORE.SYSTEM.DIHEDRAL>
0

>  <SCORE.SYSTEM.SOLV>
0

>  <SCORE.SYSTEM.norm>
0

>  <SCORE.heavy>
25

>  <SCORE.norm>
-1.19207

>  <RMSD>
5.537

$$$$
1uud_lig
 OpenBabel11021811413D
libRbt.so/2013.1/901 2013/11/27
 25 25  0  0  0  0  0  0  0  0999 V2000
   -4.9272  -11.5513   -3.8784 C   0  0  0  0  0  0  0  0  0  0  0  0
   -5.8110   -9.7952   -6.0550 O   0  0  0  0  0  0  0  0  0  0  0  0
   -5.1308   -8.6009   -5.6413 C   0  0  0  0  0  0  0  0  0  0  0  0
   -4.0494  -10.6289   -3.1163 N   0  0  0  0  0  0  0  0  0  0  0  0
   -6.1416   -7.4705   -5.4056 C   0  0  0  0  0  0  0  0  0  0  0  0
   -2.7162  -11.2477   -2.9256 C   0  0  0  0  0  0  0  0  0  0  0  0
   -1.8044  -10.2772   -2.1651 C   0  0  0  0  0  0  0  0  0  0  0  0
   -5.5131   -6.3775   -5.0435 N   0  0  0  0  0  0  0  0  0  0  0  0
   -6.0265   -5.5491   -4.1534 C   0  0  0  0  0  0  0  0  0  0  0  0
   -1.6595  -10.7312   -0.7085 C   0  0  0  0  0  0  0  0  0  0  0  0
   -0.5107   -9.9656   -0.0457 C   0  0  0  0  0  0  0  0  0  0  0  0
   -7.3027   -5.0722   -4.2735 N   0  0  0  0  0  0  0  0  0  0  0  0
   -5.2694   -5.1604   -3.0951 N   0  0  0  0  0  0  0  0  0  0  0  0
   -0.2912  -10.4442    1.1559 N   0  0  0  0  0  0  0  0  0  0  0  0
    0.8774  -10.9565    1.4910 C   0  0  0  0  0  0  0  0  0  0  0  0
    2.0140  -10.3493    1.0630 N   0  0  0  0  0  0  0  0  0  0  0  0
    0.9703  -12.0888    2.2496 N   0  0  0  0  0  0  0  0  0  0  0  0
   -4.8602  -10.8263   -6.3503 C   0  0  0  0  0  0  0  0  0  0  0  0
   -1.9924  -13.8642   -7.2434 O   0  0  0  0  0  0  0  0  0  0  0  0
   -4.4006  -11.6978   -5.3211 C   0  0  0  0  0  0  0  0  0  0  0  0
   -3.4405  -12.7016   -5.6193 C   0  0  0  0  0  0  0  0  0  0  0  0
   -2.9556  -12.8503   -6.9452 C   0  0  0  0  0  0  0  0  0  0  0  0
   -3.4280  -11.9944   -7.9763 C   0  0  0  0  0  0  0  0  0  0  0  0
   -4.3857  -10.9864   -7.6819 C   0  0  0  0  0  0  0  0  0  0  0  0
   -2.6366  -14.9579   -7.9032 C   0  0  0  0  0  0  0  0  0  0  0  0
  1  4  1  0  0  0  0
  2  3  1  0  0  0  0
  3  5  1  0  0  0  0
  4  6  1  0  0  0  0
  5  8  1  0  0  0  0
  6  7  1  0  0  0  0
  7 10  1  0  0  0  0
  8  9  1  0  0  0  0
  9 12  1  0  0  0  0
  9 13  1  0  0  0  0
 10 11  1  0  0  0  0
 11 14  1  0  0  0  0
 14 15  1  0  0  0  0
 15 16  1  0  0  0  0
 15 17  1  0  0  0  0
 18  2  1  0  0  0  0
 18 20  2  0  0  0  0
 18 24  1  0  0  0  0
 19 25  1  0  0  0  0
 20  1  1  0  0  0  0
 20 21  1  0  0  0  0
 21 22  2  0  0  0  0
 22 19  1  0  0  0  0
 22 23  1  0  0  0  0
 23 24  2  0  0  0  0
M  END
>  <CHROM.1>
-67.38460771,176.62231949,-179.24108082,178.74261039,-143.46960839,104.19355780
166.94228497,-51.34752391,161.46422092,-13.59294202,-173.57047645,120.15778569
40.41746063,64.65048876,-39.00742137,88.18134607,-90.74470578,103.44680520
-3.22910735,-10.18877490,-3.73050132,-2.72663095,-0.82827660,0.78931590

>  <Name>
1uud_lig

>  <RI>
0

>  <Rbt.Current_Directory>
/home/itssahil/PROJECTS/Mol_Feturizer/New_Systems/rnas/1uud

>  <Rbt.Executable>
rbdock ($Id: //depot/dev/client3/rdock/2013.1/src/exe/rbdock.cxx#4 $)

>  <Rbt.Library>
libRbt.so (2013.1, Build901 2013/11/27)

>  <Rbt.Parameter_File>
/export/apps/rDock/src/rDock_2013.1_src/data/scripts/dock_solv.prm

>  <Rbt.Receptor>
prm/pocket_docking_6.prm

>  <SCORE>
-32.6262

>  <SCORE.INTER>
-24.4613

>  <SCORE.INTER.CONST>
1

>  <SCORE.INTER.POLAR>
-2.99398

>  <SCORE.INTER.ROT>
18

>  <SCORE.INTER.SOLV>
11.3821

>  <SCORE.INTER.VDW>
-25.7217

>  <SCORE.INTER.norm>
-0.978453

>  <SCORE.INTRA>
-8.16491

>  <SCORE.INTRA.DIHEDRAL>
-5.33697

>  <SCORE.INTRA.DIHEDRAL.0>
30.6762

>  <SCORE.INTRA.POLAR>
0.0288659

>  <SCORE.INTRA.POLAR.0>
-0.0288659

>  <SCORE.INTRA.REPUL>
0

>  <SCORE.INTRA.REPUL.0>
0

>  <SCORE.INTRA.SOLV>
-1.41783

>  <SCORE.INTRA.SOLV.lig_0>
-25.2195

>  <SCORE.INTRA.VDW>
-4.88565

>  <SCORE.INTRA.VDW.0>
4.14263

>  <SCORE.INTRA.norm>
-0.326596

>  <SCORE.RESTR>
0

>  <SCORE.RESTR.CAVITY>
0

>  <SCORE.RESTR.norm>
0

>  <SCORE.SYSTEM>
0

>  <SCORE.SYSTEM.CONST>
0

>  <SCORE.SYSTEM.DIHEDRAL>
0

>  <SCORE.SYSTEM.SOLV>
0

>  <SCORE.SYSTEM.norm>
0

>  <SCORE.heavy>
25

>  <SCORE.norm>
-1.30505

>  <RMSD>
5.555

$$$$
1uud_lig
 OpenBabel11021811413D
libRbt.so/2013.1/901 2013/11/27
 25 25  0  0  0  0  0  0  0  0999 V2000
   -3.1691   -8.0689   -6.7567 C   0  0  0  0  0  0  0  0  0  0  0  0
   -5.2811  -10.1031   -6.6931 O   0  0  0  0  0  0  0  0  0  0  0  0
   -5.5873  -10.4225   -5.3276 C   0  0  0  0  0  0  0  0  0  0  0  0
   -2.6554   -7.7224   -5.4083 N   0  0  0  0  0  0  0  0  0  0  0  0
   -6.9119   -9.7666   -4.9147 C   0  0  0  0  0  0  0  0  0  0  0  0
   -3.4748   -8.3931   -4.3712 C   0  0  0  0  0  0  0  0  0  0  0  0
   -2.9705   -7.9912   -2.9799 C   0  0  0  0  0  0  0  0  0  0  0  0
   -7.3693  -10.3321   -3.8230 N   0  0  0  0  0  0  0  0  0  0  0  0
   -8.1168   -9.6668   -2.9625 C   0  0  0  0  0  0  0  0  0  0  0  0
   -1.6047   -8.6339   -2.7149 C   0  0  0  0  0  0  0  0  0  0  0  0
   -1.0690   -8.1576   -1.3616 C   0  0  0  0  0  0  0  0  0  0  0  0
   -9.3581   -9.2040   -3.3024 N   0  0  0  0  0  0  0  0  0  0  0  0
   -7.6418   -9.4355   -1.7114 N   0  0  0  0  0  0  0  0  0  0  0  0
    0.1310   -8.6480   -1.1600 N   0  0  0  0  0  0  0  0  0  0  0  0
    0.8159   -8.3673   -0.0679 C   0  0  0  0  0  0  0  0  0  0  0  0
    1.9372   -9.0799    0.2120 N   0  0  0  0  0  0  0  0  0  0  0  0
    0.4176   -7.3838    0.7924 N   0  0  0  0  0  0  0  0  0  0  0  0
   -3.9441  -10.5137   -7.0069 C   0  0  0  0  0  0  0  0  0  0  0  0
    0.0250  -11.7524   -7.9879 O   0  0  0  0  0  0  0  0  0  0  0  0
   -2.8896   -9.5568   -7.0536 C   0  0  0  0  0  0  0  0  0  0  0  0
   -1.5723   -9.9703   -7.3884 C   0  0  0  0  0  0  0  0  0  0  0  0
   -1.3026  -11.3383   -7.6552 C   0  0  0  0  0  0  0  0  0  0  0  0
   -2.3498  -12.2964   -7.5897 C   0  0  0  0  0  0  0  0  0  0  0  0
   -3.6699  -11.8867   -7.2587 C   0  0  0  0  0  0  0  0  0  0  0  0
    0.6434  -12.3450   -6.8421 C   0  0  0  0  0  0  0  0  0  0  0  0
  1  4  1  0  0  0  0
  2  3  1  0  0  0  0
  3  5  1  0  0  0  0
  4  6  1  0  0  0  0
  5  8  1  0  0  0  0
  6  7  1  0  0  0  0
  7 10  1  0  0  0  0
  8  9  1  0  0  0  0
  9 12  1  0  0  0  0
  9 13  1  0  0  0  0
 10 11  1  0  0  0  0
 11 14  1  0  0  0  0
 14 15  1  0  0  0  0
 15 16  1  0  0  0  0
 15 17  1  0  0  0  0
 18  2  1  0  0  0  0
 18 20  2  0  0  0  0
 18 24  1  0  0  0  0
 19 25  1  0  0  0  0
 20  1  1  0  0  0  0
 20 21  1  0  0  0  0
 21 22  2  0  0  0  0
 22 19  1  0  0  0  0
 22 23  1  0  0  0  0
 23 24  2  0  0  0  0
M  END
>  <CHROM.1>
-69.11043525,169.92000541,163.12700676,-177.98235794,151.09524869,-70.50775427
176.47717223,64.79899667,-179.86667439,-171.58249788,-176.68740432,179.06171806
168.12834016,81.90764754,118.48020355,-101.74560029,105.16025845,101.55790417
-3.08025822,-9.60747294,-4.35007294,-2.56835159,-0.02437041,1.18273859

>  <Name>
1uud_lig

>  <RI>
0

>  <Rbt.Current_Directory>
/home/itssahil/PROJECTS/Mol_Feturizer/New_Systems/rnas/1uud

>  <Rbt.Executable>
rbdock ($Id: //depot/dev/client3/rdock/2013.1/src/exe/rbdock.cxx#4 $)

>  <Rbt.Library>
libRbt.so (2013.1, Build901 2013/11/27)

>  <Rbt.Parameter_File>
/export/apps/rDock/src/rDock_2013.1_src/data/scripts/dock_solv.prm

>  <Rbt.Receptor>
prm/pocket_docking_6.prm

>  <SCORE>
-31.8212

>  <SCORE.INTER>
-22.8422

>  <SCORE.INTER.CONST>
1

>  <SCORE.INTER.POLAR>
-4.5796

>  <SCORE.INTER.ROT>
18

>  <SCORE.INTER.SOLV>
9.79695

>  <SCORE.INTER.VDW>
-18.8285

>  <SCORE.INTER.norm>
-0.91369

>  <SCORE.INTRA>
-8.97891

>  <SCORE.INTRA.DIHEDRAL>
-8.98335

>  <SCORE.INTRA.DIHEDRAL.0>
30.6762

>  <SCORE.INTRA.POLAR>
0.0288659

>  <SCORE.INTRA.POLAR.0>
-0.0288659

>  <SCORE.INTRA.REPUL>
0

>  <SCORE.INTRA.REPUL.0>
0

>  <SCORE.INTRA.SOLV>
-1.43833

>  <SCORE.INTRA.SOLV.lig_0>
-25.2195

>  <SCORE.INTRA.VDW>
-3.86622

>  <SCORE.INTRA.VDW.0>
4.14263

>  <SCORE.INTRA.norm>
-0.359156

>  <SCORE.RESTR>
0

>  <SCORE.RESTR.CAVITY>
0

>  <SCORE.RESTR.norm>
0

>  <SCORE.SYSTEM>
0

>  <SCORE.SYSTEM.CONST>
0

>  <SCORE.SYSTEM.DIHEDRAL>
0

>  <SCORE.SYSTEM.SOLV>
0

>  <SCORE.SYSTEM.norm>
0

>  <SCORE.heavy>
25

>  <SCORE.norm>
-1.27285

>  <RMSD>
5.580

$$$$
1uud_lig
 OpenBabel11021811413D
libRbt.so/2013.1/901 2013/11/27
 25 25  0  0  0  0  0  0  0  0999 V2000
   -5.1743  -11.0576   -4.9911 C   0  0  0  0  0  0  0  0  0  0  0  0
   -5.3537   -8.1340   -4.8391 O   0  0  0  0  0  0  0  0  0  0  0  0
   -6.7399   -8.1384   -5.2116 C   0  0  0  0  0  0  0  0  0  0  0  0
   -4.2684  -11.3950   -3.8652 N   0  0  0  0  0  0  0  0  0  0  0  0
   -7.6173   -7.8330   -3.9901 C   0  0  0  0  0  0  0  0  0  0  0  0
   -4.0745  -10.2052   -3.0029 C   0  0  0  0  0  0  0  0  0  0  0  0
   -3.0612  -10.5315   -1.8991 C   0  0  0  0  0  0  0  0  0  0  0  0
   -7.6379   -6.5405   -3.7668 N   0  0  0  0  0  0  0  0  0  0  0  0
   -8.7464   -5.9196   -3.4096 C   0  0  0  0  0  0  0  0  0  0  0  0
   -1.6684  -10.0402   -2.3084 C   0  0  0  0  0  0  0  0  0  0  0  0
   -0.7125  -10.1624   -1.1182 C   0  0  0  0  0  0  0  0  0  0  0  0
   -9.3919   -5.0640   -4.2594 N   0  0  0  0  0  0  0  0  0  0  0  0
   -9.2568   -6.1342   -2.1696 N   0  0  0  0  0  0  0  0  0  0  0  0
   -1.2082   -9.5286   -0.0820 N   0  0  0  0  0  0  0  0  0  0  0  0
   -1.0199   -9.9658    1.1484 C   0  0  0  0  0  0  0  0  0  0  0  0
   -1.4799   -9.2279    2.1912 N   0  0  0  0  0  0  0  0  0  0  0  0
   -0.3641  -11.1380    1.3977 N   0  0  0  0  0  0  0  0  0  0  0  0
   -4.5619   -8.7182   -5.8814 C   0  0  0  0  0  0  0  0  0  0  0  0
   -2.1609  -10.4372   -8.9686 O   0  0  0  0  0  0  0  0  0  0  0  0
   -4.4439  -10.1340   -5.9879 C   0  0  0  0  0  0  0  0  0  0  0  0
   -3.6379  -10.7027   -7.0104 C   0  0  0  0  0  0  0  0  0  0  0  0
   -2.9682   -9.8621   -7.9379 C   0  0  0  0  0  0  0  0  0  0  0  0
   -3.1010   -8.4506   -7.8444 C   0  0  0  0  0  0  0  0  0  0  0  0
   -3.9034   -7.8772   -6.8210 C   0  0  0  0  0  0  0  0  0  0  0  0
   -1.1573  -11.2711   -8.3821 C   0  0  0  0  0  0  0  0  0  0  0  0
  1  4  1  0  0  0  0
  2  3  1  0  0  0  0
  3  5  1  0  0  0  0
  4  6  1  0  0  0  0
  5  8  1  0  0  0  0
  6  7  1  0  0  0  0
  7 10  1  0  0  0  0
  8  9  1  0  0  0  0
  9 12  1  0  0  0  0
  9 13  1  0  0  0  0
 10 11  1  0  0  0  0
 11 14  1  0  0  0  0
 14 15  1  0  0  0  0
 15 16  1  0  0  0  0
 15 17  1  0  0  0  0
 18  2  1  0  0  0  0
 18 20  2  0  0  0  0
 18 24  1  0  0  0  0
 19 25  1  0  0  0  0
 20  1  1  0  0  0  0
 20 21  1  0  0  0  0
 21 22  2  0  0  0  0
 22 19  1  0  0  0  0
 22 23  1  0  0  0  0
 23 24  2  0  0  0  0
M  END
>  <CHROM.1>
71.51537449,166.51791476,80.24297861,-176.03815888,139.68478926,96.94394235
170.90515796,-109.68023616,3.20846130,-76.02051400,-54.65530343,145.75935216
175.78863187,85.63767742,104.01099226,-81.77240070,-93.44347997,-56.61789878
-4.16288508,-9.12428870,-3.86102617,-2.49695695,-0.55004163,1.44906761

>  <Name>
1uud_lig

>  <RI>
0

>  <Rbt.Current_Directory>
/home/itssahil/PROJECTS/Mol_Feturizer/New_Systems/rnas/1uud

>  <Rbt.Executable>
rbdock ($Id: //depot/dev/client3/rdock/2013.1/src/exe/rbdock.cxx#4 $)

>  <Rbt.Library>
libRbt.so (2013.1, Build901 2013/11/27)

>  <Rbt.Parameter_File>
/export/apps/rDock/src/rDock_2013.1_src/data/scripts/dock_solv.prm

>  <Rbt.Receptor>
prm/pocket_docking_4.prm

>  <SCORE>
-28.4575

>  <SCORE.INTER>
-21.6968

>  <SCORE.INTER.CONST>
1

>  <SCORE.INTER.POLAR>
-3.82242

>  <SCORE.INTER.ROT>
18

>  <SCORE.INTER.SOLV>
7.48811

>  <SCORE.INTER.VDW>
-19.8192

>  <SCORE.INTER.norm>
-0.867872

>  <SCORE.INTRA>
-6.7607

>  <SCORE.INTRA.DIHEDRAL>
-5.52551

>  <SCORE.INTRA.DIHEDRAL.0>
30.6762

>  <SCORE.INTRA.POLAR>
0.0288659

>  <SCORE.INTRA.POLAR.0>
-0.0288659

>  <SCORE.INTRA.REPUL>
0

>  <SCORE.INTRA.REPUL.0>
0

>  <SCORE.INTRA.SOLV>
-0.952523

>  <SCORE.INTRA.SOLV.lig_0>
-25.2195

>  <SCORE.INTRA.VDW>
-3.61983

>  <SCORE.INTRA.VDW.0>
4.14263

>  <SCORE.INTRA.norm>
-0.270428

>  <SCORE.RESTR>
0

>  <SCORE.RESTR.CAVITY>
0

>  <SCORE.RESTR.norm>
0

>  <SCORE.SYSTEM>
0

>  <SCORE.SYSTEM.CONST>
0

>  <SCORE.SYSTEM.DIHEDRAL>
0

>  <SCORE.SYSTEM.SOLV>
0

>  <SCORE.SYSTEM.norm>
0

>  <SCORE.heavy>
25

>  <SCORE.norm>
-1.1383

>  <RMSD>
5.583

$$$$
1uud_lig
 OpenBabel11021811413D
libRbt.so/2013.1/901 2013/11/27
 25 25  0  0  0  0  0  0  0  0999 V2000
   -2.4977   -9.5959   -3.1887 C   0  0  0  0  0  0  0  0  0  0  0  0
   -4.6716   -9.5679   -5.1574 O   0  0  0  0  0  0  0  0  0  0  0  0
   -5.9520  -10.2150   -5.1112 C   0  0  0  0  0  0  0  0  0  0  0  0
   -1.6288  -10.1416   -2.1166 N   0  0  0  0  0  0  0  0  0  0  0  0
   -6.1823  -10.8349   -3.7264 C   0  0  0  0  0  0  0  0  0  0  0  0
   -2.3683  -10.1607   -0.8322 C   0  0  0  0  0  0  0  0  0  0  0  0
   -1.3919  -10.4371    0.3176 C   0  0  0  0  0  0  0  0  0  0  0  0
   -6.4122   -9.8896   -2.8464 N   0  0  0  0  0  0  0  0  0  0  0  0
   -7.6104   -9.7114   -2.3222 C   0  0  0  0  0  0  0  0  0  0  0  0
   -2.1565  -10.5129    1.6437 C   0  0  0  0  0  0  0  0  0  0  0  0
   -2.8485   -9.1735    1.9126 C   0  0  0  0  0  0  0  0  0  0  0  0
   -8.6875   -9.3804   -3.0973 N   0  0  0  0  0  0  0  0  0  0  0  0
   -7.7768   -9.8587   -0.9825 N   0  0  0  0  0  0  0  0  0  0  0  0
   -2.0206   -8.3589    2.5228 N   0  0  0  0  0  0  0  0  0  0  0  0
   -2.4146   -7.1808    2.9669 C   0  0  0  0  0  0  0  0  0  0  0  0
   -1.5793   -6.4573    3.7558 N   0  0  0  0  0  0  0  0  0  0  0  0
   -3.6467   -6.6770    2.6601 N   0  0  0  0  0  0  0  0  0  0  0  0
   -3.6316  -10.5438   -5.2997 C   0  0  0  0  0  0  0  0  0  0  0  0
   -0.5188  -13.4320   -5.7683 O   0  0  0  0  0  0  0  0  0  0  0  0
   -2.5543  -10.5886   -4.3683 C   0  0  0  0  0  0  0  0  0  0  0  0
   -1.5162  -11.5446   -4.5315 C   0  0  0  0  0  0  0  0  0  0  0  0
   -1.5629  -12.4681   -5.6087 C   0  0  0  0  0  0  0  0  0  0  0  0
   -2.6469  -12.4369   -6.5268 C   0  0  0  0  0  0  0  0  0  0  0  0
   -3.6858  -11.4799   -6.3695 C   0  0  0  0  0  0  0  0  0  0  0  0
    0.4161  -12.9682   -6.7467 C   0  0  0  0  0  0  0  0  0  0  0  0
  1  4  1  0  0  0  0
  2  3  1  0  0  0  0
  3  5  1  0  0  0  0
  4  6  1  0  0  0  0
  5  8  1  0  0  0  0
  6  7  1  0  0  0  0
  7 10  1  0  0  0  0
  8  9  1  0  0  0  0
  9 12  1  0  0  0  0
  9 13  1  0  0  0  0
 10 11  1  0  0  0  0
 11 14  1  0  0  0  0
 14 15  1  0  0  0  0
 15 16  1  0  0  0  0
 15 17  1  0  0  0  0
 18  2  1  0  0  0  0
 18 20  2  0  0  0  0
 18 24  1  0  0  0  0
 19 25  1  0  0  0  0
 20  1  1  0  0  0  0
 20 21  1  0  0  0  0
 21 22  2  0  0  0  0
 22 19  1  0  0  0  0
 22 23  1  0  0  0  0
 23 24  2  0  0  0  0
M  END
>  <CHROM.1>
-126.08836710,77.21811237,72.56090761,-168.04255441,109.07811374,-177.80325490
-61.17466118,-62.02034093,-111.49986264,54.02759080,-86.34793425,-174.09311644
170.64775409,-168.23853466,88.10299284,-125.07413541,158.61968772,-98.40511578
-3.44854266,-10.09080955,-2.25685117,-1.56559960,-0.20564696,1.13099317

>  <Name>
1uud_lig

>  <RI>
0

>  <Rbt.Current_Directory>
/home/itssahil/PROJECTS/Mol_Feturizer/New_Systems/rnas/1uud

>  <Rbt.Executable>
rbdock ($Id: //depot/dev/client3/rdock/2013.1/src/exe/rbdock.cxx#4 $)

>  <Rbt.Library>
libRbt.so (2013.1, Build901 2013/11/27)

>  <Rbt.Parameter_File>
/export/apps/rDock/src/rDock_2013.1_src/data/scripts/dock_solv.prm

>  <Rbt.Receptor>
prm/pocket_docking_7.prm

>  <SCORE>
-27.2342

>  <SCORE.INTER>
-24.0083

>  <SCORE.INTER.CONST>
1

>  <SCORE.INTER.POLAR>
-4.53239

>  <SCORE.INTER.ROT>
18

>  <SCORE.INTER.SOLV>
9.96933

>  <SCORE.INTER.VDW>
-19.8207

>  <SCORE.INTER.norm>
-0.960333

>  <SCORE.INTRA>
-3.22591

>  <SCORE.INTRA.DIHEDRAL>
-4.39375

>  <SCORE.INTRA.DIHEDRAL.0>
30.6762

>  <SCORE.INTRA.POLAR>
0.0288659

>  <SCORE.INTRA.POLAR.0>
-0.0288659

>  <SCORE.INTRA.REPUL>
0

>  <SCORE.INTRA.REPUL.0>
0

>  <SCORE.INTRA.SOLV>
-0.817006

>  <SCORE.INTRA.SOLV.lig_0>
-25.2195

>  <SCORE.INTRA.VDW>
-0.718676

>  <SCORE.INTRA.VDW.0>
4.14263

>  <SCORE.INTRA.norm>
-0.129036

>  <SCORE.RESTR>
0

>  <SCORE.RESTR.CAVITY>
0

>  <SCORE.RESTR.norm>
0

>  <SCORE.SYSTEM>
0

>  <SCORE.SYSTEM.CONST>
0

>  <SCORE.SYSTEM.DIHEDRAL>
0

>  <SCORE.SYSTEM.SOLV>
0

>  <SCORE.SYSTEM.norm>
0

>  <SCORE.heavy>
25

>  <SCORE.norm>
-1.08937

>  <RMSD>
5.615

$$$$
1uud_lig
 OpenBabel11021811413D
libRbt.so/2013.1/901 2013/11/27
 25 25  0  0  0  0  0  0  0  0999 V2000
   -4.8494  -10.7529   -3.4729 C   0  0  0  0  0  0  0  0  0  0  0  0
   -6.1974  -10.1098   -5.9971 O   0  0  0  0  0  0  0  0  0  0  0  0
   -6.1483   -8.8793   -5.2597 C   0  0  0  0  0  0  0  0  0  0  0  0
   -4.0229   -9.7797   -2.7166 N   0  0  0  0  0  0  0  0  0  0  0  0
   -7.5324   -8.5521   -4.6831 C   0  0  0  0  0  0  0  0  0  0  0  0
   -3.0538  -10.5031   -1.8597 C   0  0  0  0  0  0  0  0  0  0  0  0
   -2.0593   -9.5048   -1.2547 C   0  0  0  0  0  0  0  0  0  0  0  0
   -7.6683   -7.2535   -4.5572 N   0  0  0  0  0  0  0  0  0  0  0  0
   -8.0510   -6.7070   -3.4184 C   0  0  0  0  0  0  0  0  0  0  0  0
   -1.1887  -10.2067   -0.2068 C   0  0  0  0  0  0  0  0  0  0  0  0
   -0.0117   -9.3021    0.1695 C   0  0  0  0  0  0  0  0  0  0  0  0
   -7.1678   -6.0442   -2.6113 N   0  0  0  0  0  0  0  0  0  0  0  0
   -9.3511   -6.8063   -3.0389 N   0  0  0  0  0  0  0  0  0  0  0  0
   -0.4271   -8.3313    0.9480 N   0  0  0  0  0  0  0  0  0  0  0  0
   -0.9412   -7.2220    0.4522 C   0  0  0  0  0  0  0  0  0  0  0  0
   -2.1470   -6.7914    0.9039 N   0  0  0  0  0  0  0  0  0  0  0  0
   -0.2934   -6.5028   -0.5117 N   0  0  0  0  0  0  0  0  0  0  0  0
   -4.8946  -10.7051   -6.0490 C   0  0  0  0  0  0  0  0  0  0  0  0
   -0.9937  -12.4378   -6.2262 O   0  0  0  0  0  0  0  0  0  0  0  0
   -4.2026  -11.0284   -4.8462 C   0  0  0  0  0  0  0  0  0  0  0  0
   -2.9020  -11.5967   -4.9082 C   0  0  0  0  0  0  0  0  0  0  0  0
   -2.3011  -11.8620   -6.1667 C   0  0  0  0  0  0  0  0  0  0  0  0
   -2.9984  -11.5579   -7.3668 C   0  0  0  0  0  0  0  0  0  0  0  0
   -4.2983  -10.9860   -7.3096 C   0  0  0  0  0  0  0  0  0  0  0  0
   -0.0118  -11.4211   -6.0056 C   0  0  0  0  0  0  0  0  0  0  0  0
  1  4  1  0  0  0  0
  2  3  1  0  0  0  0
  3  5  1  0  0  0  0
  4  6  1  0  0  0  0
  5  8  1  0  0  0  0
  6  7  1  0  0  0  0
  7 10  1  0  0  0  0
  8  9  1  0  0  0  0
  9 12  1  0  0  0  0
  9 13  1  0  0  0  0
 10 11  1  0  0  0  0
 11 14  1  0  0  0  0
 14 15  1  0  0  0  0
 15 16  1  0  0  0  0
 15 17  1  0  0  0  0
 18  2  1  0  0  0  0
 18 20  2  0  0  0  0
 18 24  1  0  0  0  0
 19 25  1  0  0  0  0
 20  1  1  0  0  0  0
 20 21  1  0  0  0  0
 21 22  2  0  0  0  0
 22 19  1  0  0  0  0
 22 23  1  0  0  0  0
 23 24  2  0  0  0  0
M  END
>  <CHROM.1>
-92.53169903,-155.70143674,-151.69069581,171.04018227,-128.22480794,171.51922540
167.77827523,105.66865386,86.63694768,-54.59330718,75.20202494,-84.81046085
128.02183749,102.14031872,-86.12502548,58.01653389,-117.99234256,-79.68343730
-3.76109250,-9.30769612,-3.36079349,-2.47896036,-0.40280729,0.95650952

>  <Name>
1uud_lig

>  <RI>
0

>  <Rbt.Current_Directory>
/home/itssahil/PROJECTS/Mol_Feturizer/New_Systems/rnas/1uud

>  <Rbt.Executable>
rbdock ($Id: //depot/dev/client3/rdock/2013.1/src/exe/rbdock.cxx#4 $)

>  <Rbt.Library>
libRbt.so (2013.1, Build901 2013/11/27)

>  <Rbt.Parameter_File>
/export/apps/rDock/src/rDock_2013.1_src/data/scripts/dock_solv.prm

>  <Rbt.Receptor>
prm/pocket_docking_4.prm

>  <SCORE>
-23.8563

>  <SCORE.INTER>
-18.0283

>  <SCORE.INTER.CONST>
1

>  <SCORE.INTER.POLAR>
-3.91797

>  <SCORE.INTER.ROT>
18

>  <SCORE.INTER.SOLV>
5.58315

>  <SCORE.INTER.VDW>
-16.42

>  <SCORE.INTER.norm>
-0.721131

>  <SCORE.INTRA>
-5.82799

>  <SCORE.INTRA.DIHEDRAL>
-3.3124

>  <SCORE.INTRA.DIHEDRAL.0>
30.6762

>  <SCORE.INTRA.POLAR>
0.0288659

>  <SCORE.INTRA.POLAR.0>
-0.0288659

>  <SCORE.INTRA.REPUL>
0

>  <SCORE.INTRA.REPUL.0>
0

>  <SCORE.INTRA.SOLV>
-0.808868

>  <SCORE.INTRA.SOLV.lig_0>
-25.2195

>  <SCORE.INTRA.VDW>
-3.86549

>  <SCORE.INTRA.VDW.0>
4.14263

>  <SCORE.INTRA.norm>
-0.233119

>  <SCORE.RESTR>
0

>  <SCORE.RESTR.CAVITY>
0

>  <SCORE.RESTR.norm>
0

>  <SCORE.SYSTEM>
0

>  <SCORE.SYSTEM.CONST>
0

>  <SCORE.SYSTEM.DIHEDRAL>
0

>  <SCORE.SYSTEM.SOLV>
0

>  <SCORE.SYSTEM.norm>
0

>  <SCORE.heavy>
25

>  <SCORE.norm>
-0.95425

>  <RMSD>
5.629

$$$$
1uud_lig
 OpenBabel11021811413D
libRbt.so/2013.1/901 2013/11/27
 25 25  0  0  0  0  0  0  0  0999 V2000
   -2.3956  -10.2411   -2.9485 C   0  0  0  0  0  0  0  0  0  0  0  0
   -4.8932  -10.7466   -4.4008 O   0  0  0  0  0  0  0  0  0  0  0  0
   -5.2689   -9.7545   -5.3678 C   0  0  0  0  0  0  0  0  0  0  0  0
   -2.0916  -11.0065   -1.7141 N   0  0  0  0  0  0  0  0  0  0  0  0
   -4.1676   -8.6931   -5.4926 C   0  0  0  0  0  0  0  0  0  0  0  0
   -1.9518  -10.0766   -0.5684 C   0  0  0  0  0  0  0  0  0  0  0  0
   -0.6191   -9.3258   -0.6770 C   0  0  0  0  0  0  0  0  0  0  0  0
   -4.2585   -8.0893   -6.6536 N   0  0  0  0  0  0  0  0  0  0  0  0
   -3.2831   -8.1493   -7.5408 C   0  0  0  0  0  0  0  0  0  0  0  0
   -0.2771   -8.6739    0.6672 C   0  0  0  0  0  0  0  0  0  0  0  0
   -1.2501   -7.5232    0.9400 C   0  0  0  0  0  0  0  0  0  0  0  0
   -2.5077   -7.0592   -7.8253 N   0  0  0  0  0  0  0  0  0  0  0  0
   -3.0450   -9.3200   -8.1866 N   0  0  0  0  0  0  0  0  0  0  0  0
   -1.0077   -7.0054    2.1208 N   0  0  0  0  0  0  0  0  0  0  0  0
   -1.2593   -5.7370    2.3822 C   0  0  0  0  0  0  0  0  0  0  0  0
   -2.3505   -5.4177    3.1245 N   0  0  0  0  0  0  0  0  0  0  0  0
   -0.4537   -4.7376    1.9150 N   0  0  0  0  0  0  0  0  0  0  0  0
   -3.7041  -11.4241   -4.8270 C   0  0  0  0  0  0  0  0  0  0  0  0
   -0.1632  -13.4197   -6.1420 O   0  0  0  0  0  0  0  0  0  0  0  0
   -2.4688  -11.2030   -4.1525 C   0  0  0  0  0  0  0  0  0  0  0  0
   -1.2912  -11.8615   -4.5973 C   0  0  0  0  0  0  0  0  0  0  0  0
   -1.3491  -12.7551   -5.6989 C   0  0  0  0  0  0  0  0  0  0  0  0
   -2.5845  -12.9912   -6.3600 C   0  0  0  0  0  0  0  0  0  0  0  0
   -3.7644  -12.3318   -5.9207 C   0  0  0  0  0  0  0  0  0  0  0  0
    0.0768  -14.5682   -5.3234 C   0  0  0  0  0  0  0  0  0  0  0  0
  1  4  1  0  0  0  0
  2  3  1  0  0  0  0
  3  5  1  0  0  0  0
  4  6  1  0  0  0  0
  5  8  1  0  0  0  0
  6  7  1  0  0  0  0
  7 10  1  0  0  0  0
  8  9  1  0  0  0  0
  9 12  1  0  0  0  0
  9 13  1  0  0  0  0
 10 11  1  0  0  0  0
 11 14  1  0  0  0  0
 14 15  1  0  0  0  0
 15 16  1  0  0  0  0
 15 17  1  0  0  0  0
 18  2  1  0  0  0  0
 18 20  2  0  0  0  0
 18 24  1  0  0  0  0
 19 25  1  0  0  0  0
 20  1  1  0  0  0  0
 20 21  1  0  0  0  0
 21 22  2  0  0  0  0
 22 19  1  0  0  0  0
 22 23  1  0  0  0  0
 23 24  2  0  0  0  0
M  END
>  <CHROM.1>
177.10031822,-62.20462976,157.44042965,-73.84886926,-117.93667637,-164.05367416
-69.49187859,-109.15924516,-78.16494740,12.44359102,176.71660170,151.01104205
104.11628576,-86.98387345,-93.05785177,109.09532743,113.25639000,82.05950007
-2.23970351,-9.60979998,-3.28694111,-1.89907482,-1.07161821,0.77146216

>  <Name>
1uud_lig

>  <RI>
0

>  <Rbt.Current_Directory>
/home/itssahil/PROJECTS/Mol_Feturizer/New_Systems/rnas/1uud

>  <Rbt.Executable>
rbdock ($Id: //depot/dev/client3/rdock/2013.1/src/exe/rbdock.cxx#4 $)

>  <Rbt.Library>
libRbt.so (2013.1, Build901 2013/11/27)

>  <Rbt.Parameter_File>
/export/apps/rDock/src/rDock_2013.1_src/data/scripts/dock_solv.prm

>  <Rbt.Receptor>
prm/pocket_docking_6.prm

>  <SCORE>
-28.9932

>  <SCORE.INTER>
-20.5697

>  <SCORE.INTER.CONST>
1

>  <SCORE.INTER.POLAR>
-4.4403

>  <SCORE.INTER.ROT>
18

>  <SCORE.INTER.SOLV>
7.83761

>  <SCORE.INTER.VDW>
-17.1247

>  <SCORE.INTER.norm>
-0.822788

>  <SCORE.INTRA>
-8.4235

>  <SCORE.INTRA.DIHEDRAL>
-7.84423

>  <SCORE.INTRA.DIHEDRAL.0>
30.6762

>  <SCORE.INTRA.POLAR>
0.0288659

>  <SCORE.INTRA.POLAR.0>
-0.0288659

>  <SCORE.INTRA.REPUL>
0

>  <SCORE.INTRA.REPUL.0>
0

>  <SCORE.INTRA.SOLV>
-1.05225

>  <SCORE.INTRA.SOLV.lig_0>
-25.2195

>  <SCORE.INTRA.VDW>
-4.07341

>  <SCORE.INTRA.VDW.0>
4.14263

>  <SCORE.INTRA.norm>
-0.33694

>  <SCORE.RESTR>
0

>  <SCORE.RESTR.CAVITY>
0

>  <SCORE.RESTR.norm>
0

>  <SCORE.SYSTEM>
0

>  <SCORE.SYSTEM.CONST>
0

>  <SCORE.SYSTEM.DIHEDRAL>
0

>  <SCORE.SYSTEM.SOLV>
0

>  <SCORE.SYSTEM.norm>
0

>  <SCORE.heavy>
25

>  <SCORE.norm>
-1.15973

>  <RMSD>
5.640

$$$$
1uud_lig
 OpenBabel11021811413D
libRbt.so/2013.1/901 2013/11/27
 25 25  0  0  0  0  0  0  0  0999 V2000
   -4.8770   -9.1072   -1.4792 C   0  0  0  0  0  0  0  0  0  0  0  0
   -6.0935   -7.6774   -3.7328 O   0  0  0  0  0  0  0  0  0  0  0  0
   -7.3873   -7.5553   -4.3422 C   0  0  0  0  0  0  0  0  0  0  0  0
   -3.5620   -8.4443   -1.2962 N   0  0  0  0  0  0  0  0  0  0  0  0
   -7.9847   -6.1735   -4.0439 C   0  0  0  0  0  0  0  0  0  0  0  0
   -3.5853   -7.6131   -0.0693 C   0  0  0  0  0  0  0  0  0  0  0  0
   -2.3473   -6.7086   -0.0391 C   0  0  0  0  0  0  0  0  0  0  0  0
   -8.4052   -6.1271   -2.8022 N   0  0  0  0  0  0  0  0  0  0  0  0
   -9.6296   -5.7360   -2.5026 C   0  0  0  0  0  0  0  0  0  0  0  0
   -1.1295   -7.5078    0.4375 C   0  0  0  0  0  0  0  0  0  0  0  0
    0.1528   -6.8176   -0.0364 C   0  0  0  0  0  0  0  0  0  0  0  0
  -10.7080   -6.5559   -2.6906 N   0  0  0  0  0  0  0  0  0  0  0  0
   -9.8230   -4.4903   -1.9973 N   0  0  0  0  0  0  0  0  0  0  0  0
    1.1997   -7.4362    0.4562 N   0  0  0  0  0  0  0  0  0  0  0  0
    1.4802   -8.6833    0.1300 C   0  0  0  0  0  0  0  0  0  0  0  0
    1.7358   -8.9866   -1.1686 N   0  0  0  0  0  0  0  0  0  0  0  0
    1.5094   -9.6777    1.0662 N   0  0  0  0  0  0  0  0  0  0  0  0
   -5.5641   -8.9899   -3.9601 C   0  0  0  0  0  0  0  0  0  0  0  0
   -3.9527  -12.8822   -4.6701 O   0  0  0  0  0  0  0  0  0  0  0  0
   -4.9600   -9.7169   -2.8940 C   0  0  0  0  0  0  0  0  0  0  0  0
   -4.4174  -11.0076   -3.1350 C   0  0  0  0  0  0  0  0  0  0  0  0
   -4.4959  -11.5813   -4.4312 C   0  0  0  0  0  0  0  0  0  0  0  0
   -5.1156  -10.8650   -5.4905 C   0  0  0  0  0  0  0  0  0  0  0  0
   -5.6566   -9.5721   -5.2548 C   0  0  0  0  0  0  0  0  0  0  0  0
   -2.5242  -12.8079   -4.6945 C   0  0  0  0  0  0  0  0  0  0  0  0
  1  4  1  0  0  0  0
  2  3  1  0  0  0  0
  3  5  1  0  0  0  0
  4  6  1  0  0  0  0
  5  8  1  0  0  0  0
  6  7  1  0  0  0  0
  7 10  1  0  0  0  0
  8  9  1  0  0  0  0
  9 12  1  0  0  0  0
  9 13  1  0  0  0  0
 10 11  1  0  0  0  0
 11 14  1  0  0  0  0
 14 15  1  0  0  0  0
 15 16  1  0  0  0  0
 15 17  1  0  0  0  0
 18  2  1  0  0  0  0
 18 20  2  0  0  0  0
 18 24  1  0  0  0  0
 19 25  1  0  0  0  0
 20  1  1  0  0  0  0
 20 21  1  0  0  0  0
 21 22  2  0  0  0  0
 22 19  1  0  0  0  0
 22 23  1  0  0  0  0
 23 24  2  0  0  0  0
M  END
>  <CHROM.1>
167.76557959,177.33609445,-75.06905360,-168.21310837,-128.05302773,-79.52067471
158.04368893,76.33272627,50.48450991,-157.44337832,175.04326094,64.21841597
61.21307172,-88.98720799,82.34006903,-134.66419736,-94.87325962,-73.79525976
-4.22079350,-8.47160808,-2.29628931,-3.10871055,-0.37785642,0.64978664

>  <Name>
1uud_lig

>  <RI>
0

>  <Rbt.Current_Directory>
/home/itssahil/PROJECTS/Mol_Feturizer/New_Systems/rnas/1uud

>  <Rbt.Executable>
rbdock ($Id: //depot/dev/client3/rdock/2013.1/src/exe/rbdock.cxx#4 $)

>  <Rbt.Library>
libRbt.so (2013.1, Build901 2013/11/27)

>  <Rbt.Parameter_File>
/export/apps/rDock/src/rDock_2013.1_src/data/scripts/dock_solv.prm

>  <Rbt.Receptor>
prm/pocket_docking_4.prm

>  <SCORE>
-16.7721

>  <SCORE.INTER>
-8.23663

>  <SCORE.INTER.CONST>
1

>  <SCORE.INTER.POLAR>
-1.57295

>  <SCORE.INTER.ROT>
18

>  <SCORE.INTER.SOLV>
7.83318

>  <SCORE.INTER.VDW>
-18.459

>  <SCORE.INTER.norm>
-0.329465

>  <SCORE.INTRA>
-8.53661

>  <SCORE.INTRA.DIHEDRAL>
-8.74058

>  <SCORE.INTRA.DIHEDRAL.0>
30.6762

>  <SCORE.INTRA.POLAR>
0.0288659

>  <SCORE.INTRA.POLAR.0>
-0.0288659

>  <SCORE.INTRA.REPUL>
0

>  <SCORE.INTRA.REPUL.0>
0

>  <SCORE.INTRA.SOLV>
-1.02185

>  <SCORE.INTRA.SOLV.lig_0>
-25.2195

>  <SCORE.INTRA.VDW>
-3.75354

>  <SCORE.INTRA.VDW.0>
4.14263

>  <SCORE.INTRA.norm>
-0.341464

>  <SCORE.RESTR>
0.00112415

>  <SCORE.RESTR.CAVITY>
0.00112415

>  <SCORE.RESTR.norm>
4.49662e-05

>  <SCORE.SYSTEM>
0

>  <SCORE.SYSTEM.CONST>
0

>  <SCORE.SYSTEM.DIHEDRAL>
0

>  <SCORE.SYSTEM.SOLV>
0

>  <SCORE.SYSTEM.norm>
0

>  <SCORE.heavy>
25

>  <SCORE.norm>
-0.670884

>  <RMSD>
5.687

$$$$
1uud_lig
 OpenBabel11021811413D
libRbt.so/2013.1/901 2013/11/27
 25 25  0  0  0  0  0  0  0  0999 V2000
   -1.2787   -7.0604   -4.6441 C   0  0  0  0  0  0  0  0  0  0  0  0
   -2.0736   -6.2123   -1.9512 O   0  0  0  0  0  0  0  0  0  0  0  0
   -2.7852   -6.9818   -0.9706 C   0  0  0  0  0  0  0  0  0  0  0  0
   -0.8918   -7.8241   -3.4320 N   0  0  0  0  0  0  0  0  0  0  0  0
   -2.0003   -7.0151    0.3478 C   0  0  0  0  0  0  0  0  0  0  0  0
    0.4134   -8.4904   -3.6538 C   0  0  0  0  0  0  0  0  0  0  0  0
    1.2993   -8.3081   -2.4154 C   0  0  0  0  0  0  0  0  0  0  0  0
   -2.0351   -5.8345    0.9184 N   0  0  0  0  0  0  0  0  0  0  0  0
   -1.6814   -5.6666    2.1788 C   0  0  0  0  0  0  0  0  0  0  0  0
    0.6452   -8.9801   -1.2032 C   0  0  0  0  0  0  0  0  0  0  0  0
    1.5734   -8.8633    0.0092 C   0  0  0  0  0  0  0  0  0  0  0  0
   -2.6130   -5.5103    3.1679 N   0  0  0  0  0  0  0  0  0  0  0  0
   -0.3621   -5.6473    2.5005 N   0  0  0  0  0  0  0  0  0  0  0  0
    1.0028   -9.4024    1.0605 N   0  0  0  0  0  0  0  0  0  0  0  0
    1.0848  -10.6969    1.3015 C   0  0  0  0  0  0  0  0  0  0  0  0
    2.3012  -11.2997    1.2747 N   0  0  0  0  0  0  0  0  0  0  0  0
   -0.0261  -11.4462    1.5670 N   0  0  0  0  0  0  0  0  0  0  0  0
   -2.9370   -5.8972   -3.0511 C   0  0  0  0  0  0  0  0  0  0  0  0
   -5.5032   -4.9086   -6.3203 O   0  0  0  0  0  0  0  0  0  0  0  0
   -2.5859   -6.2861   -4.3761 C   0  0  0  0  0  0  0  0  0  0  0  0
   -3.4371   -5.9485   -5.4623 C   0  0  0  0  0  0  0  0  0  0  0  0
   -4.6463   -5.2435   -5.2257 C   0  0  0  0  0  0  0  0  0  0  0  0
   -5.0069   -4.8723   -3.9024 C   0  0  0  0  0  0  0  0  0  0  0  0
   -4.1566   -5.2047   -2.8131 C   0  0  0  0  0  0  0  0  0  0  0  0
   -5.4367   -3.5012   -6.5678 C   0  0  0  0  0  0  0  0  0  0  0  0
  1  4  1  0  0  0  0
  2  3  1  0  0  0  0
  3  5  1  0  0  0  0
  4  6  1  0  0  0  0
  5  8  1  0  0  0  0
  6  7  1  0  0  0  0
  7 10  1  0  0  0  0
  8  9  1  0  0  0  0
  9 12  1  0  0  0  0
  9 13  1  0  0  0  0
 10 11  1  0  0  0  0
 11 14  1  0  0  0  0
 14 15  1  0  0  0  0
 15 16  1  0  0  0  0
 15 17  1  0  0  0  0
 18  2  1  0  0  0  0
 18 20  2  0  0  0  0
 18 24  1  0  0  0  0
 19 25  1  0  0  0  0
 20  1  1  0  0  0  0
 20 21  1  0  0  0  0
 21 22  2  0  0  0  0
 22 19  1  0  0  0  0
 22 23  1  0  0  0  0
 23 24  2  0  0  0  0
M  END
>  <CHROM.1>
-175.94951244,-165.52872289,70.84092181,135.81094394,165.68906148,62.38704989
176.76202080,-102.90436322,-173.32355883,54.40249889,178.17439194,84.99799663
50.06715868,20.91741322,-26.30334934,-122.68256078,26.50070322,-108.04902298
-1.59587034,-7.12431352,-1.56730065,-2.48237875,-0.80156043,1.41169857

>  <Name>
1uud_lig

>  <RI>
0

>  <Rbt.Current_Directory>
/home/itssahil/PROJECTS/Mol_Feturizer/New_Systems/rnas/1uud

>  <Rbt.Executable>
rbdock ($Id: //depot/dev/client3/rdock/2013.1/src/exe/rbdock.cxx#4 $)

>  <Rbt.Library>
libRbt.so (2013.1, Build901 2013/11/27)

>  <Rbt.Parameter_File>
/export/apps/rDock/src/rDock_2013.1_src/data/scripts/dock_solv.prm

>  <Rbt.Receptor>
prm/pocket_docking_5.prm

>  <SCORE>
-31.6385

>  <SCORE.INTER>
-21.6604

>  <SCORE.INTER.CONST>
1

>  <SCORE.INTER.POLAR>
-4.45167

>  <SCORE.INTER.ROT>
18

>  <SCORE.INTER.SOLV>
8.35799

>  <SCORE.INTER.VDW>
-17.9873

>  <SCORE.INTER.norm>
-0.866414

>  <SCORE.INTRA>
-10.046

>  <SCORE.INTRA.DIHEDRAL>
-8.06606

>  <SCORE.INTRA.DIHEDRAL.0>
30.6762

>  <SCORE.INTRA.POLAR>
-0.510605

>  <SCORE.INTRA.POLAR.0>
-0.0288659

>  <SCORE.INTRA.REPUL>
0

>  <SCORE.INTRA.REPUL.0>
0

>  <SCORE.INTRA.SOLV>
-0.310575

>  <SCORE.INTRA.SOLV.lig_0>
-25.2195

>  <SCORE.INTRA.VDW>
-4.12166

>  <SCORE.INTRA.VDW.0>
4.14263

>  <SCORE.INTRA.norm>
-0.401841

>  <SCORE.RESTR>
0.0679037

>  <SCORE.RESTR.CAVITY>
0.0679037

>  <SCORE.RESTR.norm>
0.00271615

>  <SCORE.SYSTEM>
0

>  <SCORE.SYSTEM.CONST>
0

>  <SCORE.SYSTEM.DIHEDRAL>
0

>  <SCORE.SYSTEM.SOLV>
0

>  <SCORE.SYSTEM.norm>
0

>  <SCORE.heavy>
25

>  <SCORE.norm>
-1.26554

>  <RMSD>
5.695

$$$$
1uud_lig
 OpenBabel11021811413D
libRbt.so/2013.1/901 2013/11/27
 25 25  0  0  0  0  0  0  0  0999 V2000
   -1.6135   -9.0900   -3.7538 C   0  0  0  0  0  0  0  0  0  0  0  0
   -3.0362   -8.1668   -6.1468 O   0  0  0  0  0  0  0  0  0  0  0  0
   -4.3792   -8.5746   -6.4472 C   0  0  0  0  0  0  0  0  0  0  0  0
   -0.9591   -9.3519   -5.0597 N   0  0  0  0  0  0  0  0  0  0  0  0
   -4.8823   -9.5628   -5.3863 C   0  0  0  0  0  0  0  0  0  0  0  0
   -0.6500  -10.7959   -5.1857 C   0  0  0  0  0  0  0  0  0  0  0  0
   -1.9437  -11.5762   -5.4488 C   0  0  0  0  0  0  0  0  0  0  0  0
   -6.1188   -9.9116   -5.6513 N   0  0  0  0  0  0  0  0  0  0  0  0
   -7.1449   -9.2605   -5.1363 C   0  0  0  0  0  0  0  0  0  0  0  0
   -1.6181  -12.9117   -6.1265 C   0  0  0  0  0  0  0  0  0  0  0  0
   -0.8583  -13.8108   -5.1470 C   0  0  0  0  0  0  0  0  0  0  0  0
   -7.5042   -8.0206   -5.5882 N   0  0  0  0  0  0  0  0  0  0  0  0
   -7.8591   -9.8344   -4.1340 N   0  0  0  0  0  0  0  0  0  0  0  0
   -0.5731  -14.9550   -5.7220 N   0  0  0  0  0  0  0  0  0  0  0  0
   -1.2483  -16.0536   -5.4436 C   0  0  0  0  0  0  0  0  0  0  0  0
   -2.2573  -16.4375   -6.2672 N   0  0  0  0  0  0  0  0  0  0  0  0
   -0.9627  -16.8079   -4.3411 N   0  0  0  0  0  0  0  0  0  0  0  0
   -3.0254   -7.3228   -4.9883 C   0  0  0  0  0  0  0  0  0  0  0  0
   -3.0434   -4.8113   -1.5325 O   0  0  0  0  0  0  0  0  0  0  0  0
   -2.3505   -7.7355   -3.8033 C   0  0  0  0  0  0  0  0  0  0  0  0
   -2.3654   -6.9021   -2.6529 C   0  0  0  0  0  0  0  0  0  0  0  0
   -3.0335   -5.6500   -2.6905 C   0  0  0  0  0  0  0  0  0  0  0  0
   -3.6902   -5.2288   -3.8780 C   0  0  0  0  0  0  0  0  0  0  0  0
   -3.6810   -6.0610   -5.0302 C   0  0  0  0  0  0  0  0  0  0  0  0
   -2.1835   -3.6883   -1.7469 C   0  0  0  0  0  0  0  0  0  0  0  0
  1  4  1  0  0  0  0
  2  3  1  0  0  0  0
  3  5  1  0  0  0  0
  4  6  1  0  0  0  0
  5  8  1  0  0  0  0
  6  7  1  0  0  0  0
  7 10  1  0  0  0  0
  8  9  1  0  0  0  0
  9 12  1  0  0  0  0
  9 13  1  0  0  0  0
 10 11  1  0  0  0  0
 11 14  1  0  0  0  0
 14 15  1  0  0  0  0
 15 16  1  0  0  0  0
 15 17  1  0  0  0  0
 18  2  1  0  0  0  0
 18 20  2  0  0  0  0
 18 24  1  0  0  0  0
 19 25  1  0  0  0  0
 20  1  1  0  0  0  0
 20 21  1  0  0  0  0
 21 22  2  0  0  0  0
 22 19  1  0  0  0  0
 22 23  1  0  0  0  0
 23 24  2  0  0  0  0
M  END
>  <CHROM.1>
-161.10601090,-70.41195112,178.76566441,73.99191064,-92.06238937,157.22944352
67.21964344,74.03767997,-56.82940683,-157.60735976,-179.83191264,-103.89410623
97.41269108,95.56493138,166.20981456,116.48426144,37.56815661,107.55129340
-3.09939171,-9.79285825,-4.71348123,-1.83648570,0.25226207,-2.85834110

>  <Name>
1uud_lig

>  <RI>
0

>  <Rbt.Current_Directory>
/home/itssahil/PROJECTS/Mol_Feturizer/New_Systems/rnas/1uud

>  <Rbt.Executable>
rbdock ($Id: //depot/dev/client3/rdock/2013.1/src/exe/rbdock.cxx#4 $)

>  <Rbt.Library>
libRbt.so (2013.1, Build901 2013/11/27)

>  <Rbt.Parameter_File>
/export/apps/rDock/src/rDock_2013.1_src/data/scripts/dock_solv.prm

>  <Rbt.Receptor>
prm/pocket_docking_6.prm

>  <SCORE>
-31.0055

>  <SCORE.INTER>
-19.2946

>  <SCORE.INTER.CONST>
1

>  <SCORE.INTER.POLAR>
-4.8174

>  <SCORE.INTER.ROT>
18

>  <SCORE.INTER.SOLV>
10.256

>  <SCORE.INTER.VDW>
-15.8237

>  <SCORE.INTER.norm>
-0.771784

>  <SCORE.INTRA>
-11.7109

>  <SCORE.INTRA.DIHEDRAL>
-8.38847

>  <SCORE.INTRA.DIHEDRAL.0>
30.6762

>  <SCORE.INTRA.POLAR>
-0.817692

>  <SCORE.INTRA.POLAR.0>
-0.0288659

>  <SCORE.INTRA.REPUL>
0

>  <SCORE.INTRA.REPUL.0>
0

>  <SCORE.INTRA.SOLV>
-0.666638

>  <SCORE.INTRA.SOLV.lig_0>
-25.2195

>  <SCORE.INTRA.VDW>
-4.40315

>  <SCORE.INTRA.VDW.0>
4.14263

>  <SCORE.INTRA.norm>
-0.468435

>  <SCORE.RESTR>
0

>  <SCORE.RESTR.CAVITY>
0

>  <SCORE.RESTR.norm>
0

>  <SCORE.SYSTEM>
0

>  <SCORE.SYSTEM.CONST>
0

>  <SCORE.SYSTEM.DIHEDRAL>
0

>  <SCORE.SYSTEM.SOLV>
0

>  <SCORE.SYSTEM.norm>
0

>  <SCORE.heavy>
25

>  <SCORE.norm>
-1.24022

>  <RMSD>
5.696

$$$$
1uud_lig
 OpenBabel11021811413D
libRbt.so/2013.1/901 2013/11/27
 25 25  0  0  0  0  0  0  0  0999 V2000
   -2.7189  -11.7810   -3.4663 C   0  0  0  0  0  0  0  0  0  0  0  0
   -4.9713  -10.0210   -4.1235 O   0  0  0  0  0  0  0  0  0  0  0  0
   -6.3751  -10.3197   -4.1040 C   0  0  0  0  0  0  0  0  0  0  0  0
   -2.7852  -10.4854   -2.7457 N   0  0  0  0  0  0  0  0  0  0  0  0
   -7.0432   -9.6452   -2.8982 C   0  0  0  0  0  0  0  0  0  0  0  0
   -2.8833  -10.7269   -1.2867 C   0  0  0  0  0  0  0  0  0  0  0  0
   -3.2189   -9.4130   -0.5708 C   0  0  0  0  0  0  0  0  0  0  0  0
   -6.8423   -8.3497   -2.9430 N   0  0  0  0  0  0  0  0  0  0  0  0
   -7.6276   -7.5534   -3.6439 C   0  0  0  0  0  0  0  0  0  0  0  0
   -3.6895   -9.7036    0.8584 C   0  0  0  0  0  0  0  0  0  0  0  0
   -4.0447   -8.3882    1.5576 C   0  0  0  0  0  0  0  0  0  0  0  0
   -7.1405   -6.7914   -4.6698 N   0  0  0  0  0  0  0  0  0  0  0  0
   -8.9492   -7.4884   -3.3382 N   0  0  0  0  0  0  0  0  0  0  0  0
   -2.9629   -7.8481    2.0667 N   0  0  0  0  0  0  0  0  0  0  0  0
   -2.9343   -7.4001    3.3072 C   0  0  0  0  0  0  0  0  0  0  0  0
   -1.8665   -6.6722    3.7240 N   0  0  0  0  0  0  0  0  0  0  0  0
   -3.9486   -7.6602    4.1845 N   0  0  0  0  0  0  0  0  0  0  0  0
   -4.3300  -10.7382   -5.1860 C   0  0  0  0  0  0  0  0  0  0  0  0
   -2.4051  -12.8317   -8.3738 O   0  0  0  0  0  0  0  0  0  0  0  0
   -3.2290  -11.5996   -4.9110 C   0  0  0  0  0  0  0  0  0  0  0  0
   -2.5854  -12.2879   -5.9742 C   0  0  0  0  0  0  0  0  0  0  0  0
   -3.0520  -12.1346   -7.3062 C   0  0  0  0  0  0  0  0  0  0  0  0
   -4.1624  -11.2909   -7.5789 C   0  0  0  0  0  0  0  0  0  0  0  0
   -4.8070  -10.5975   -6.5189 C   0  0  0  0  0  0  0  0  0  0  0  0
   -3.0887  -14.0628   -8.6260 C   0  0  0  0  0  0  0  0  0  0  0  0
  1  4  1  0  0  0  0
  2  3  1  0  0  0  0
  3  5  1  0  0  0  0
  4  6  1  0  0  0  0
  5  8  1  0  0  0  0
  6  7  1  0  0  0  0
  7 10  1  0  0  0  0
  8  9  1  0  0  0  0
  9 12  1  0  0  0  0
  9 13  1  0  0  0  0
 10 11  1  0  0  0  0
 11 14  1  0  0  0  0
 14 15  1  0  0  0  0
 15 16  1  0  0  0  0
 15 17  1  0  0  0  0
 18  2  1  0  0  0  0
 18 20  2  0  0  0  0
 18 24  1  0  0  0  0
 19 25  1  0  0  0  0
 20  1  1  0  0  0  0
 20 21  1  0  0  0  0
 21 22  2  0  0  0  0
 22 19  1  0  0  0  0
 22 23  1  0  0  0  0
 23 24  2  0  0  0  0
M  END
>  <CHROM.1>
155.31955895,175.34592393,57.56729535,-169.27987252,84.90969249,164.87951796
-179.05564997,-119.43598005,-33.06017584,-160.74987663,-84.63895517,-132.18756669
-170.16099664,-40.72705341,-67.89490716,-124.05053279,-37.94901239,94.37338142
-4.32572522,-9.76030696,-2.81149852,-1.60491741,-0.54108559,1.13828849

>  <Name>
1uud_lig

>  <RI>
0

>  <Rbt.Current_Directory>
/home/itssahil/PROJECTS/Mol_Feturizer/New_Systems/rnas/1uud

>  <Rbt.Executable>
rbdock ($Id: //depot/dev/client3/rdock/2013.1/src/exe/rbdock.cxx#4 $)

>  <Rbt.Library>
libRbt.so (2013.1, Build901 2013/11/27)

>  <Rbt.Parameter_File>
/export/apps/rDock/src/rDock_2013.1_src/data/scripts/dock_solv.prm

>  <Rbt.Receptor>
prm/pocket_docking_6.prm

>  <SCORE>
-32.7985

>  <SCORE.INTER>
-21.3435

>  <SCORE.INTER.CONST>
1

>  <SCORE.INTER.POLAR>
-4.0763

>  <SCORE.INTER.ROT>
18

>  <SCORE.INTER.SOLV>
7.41297

>  <SCORE.INTER.VDW>
-18.7123

>  <SCORE.INTER.norm>
-0.85374

>  <SCORE.INTRA>
-11.455

>  <SCORE.INTRA.DIHEDRAL>
-7.75867

>  <SCORE.INTRA.DIHEDRAL.0>
30.6762

>  <SCORE.INTRA.POLAR>
-0.838689

>  <SCORE.INTRA.POLAR.0>
-0.0288659

>  <SCORE.INTRA.REPUL>
0

>  <SCORE.INTRA.REPUL.0>
0

>  <SCORE.INTRA.SOLV>
-0.441619

>  <SCORE.INTRA.SOLV.lig_0>
-25.2195

>  <SCORE.INTRA.VDW>
-4.50329

>  <SCORE.INTRA.VDW.0>
4.14263

>  <SCORE.INTRA.norm>
-0.458199

>  <SCORE.RESTR>
0

>  <SCORE.RESTR.CAVITY>
0

>  <SCORE.RESTR.norm>
0

>  <SCORE.SYSTEM>
0

>  <SCORE.SYSTEM.CONST>
0

>  <SCORE.SYSTEM.DIHEDRAL>
0

>  <SCORE.SYSTEM.SOLV>
0

>  <SCORE.SYSTEM.norm>
0

>  <SCORE.heavy>
25

>  <SCORE.norm>
-1.31194

>  <RMSD>
5.705

$$$$
1uud_lig
 OpenBabel11021811413D
libRbt.so/2013.1/901 2013/11/27
 25 25  0  0  0  0  0  0  0  0999 V2000
   -5.0936  -10.8097   -5.3798 C   0  0  0  0  0  0  0  0  0  0  0  0
   -5.4511   -7.9242   -4.9939 O   0  0  0  0  0  0  0  0  0  0  0  0
   -6.8055   -8.1481   -5.4129 C   0  0  0  0  0  0  0  0  0  0  0  0
   -4.9425  -10.4933   -3.9378 N   0  0  0  0  0  0  0  0  0  0  0  0
   -7.7699   -7.8896   -4.2474 C   0  0  0  0  0  0  0  0  0  0  0  0
   -3.5517  -10.7694   -3.5063 C   0  0  0  0  0  0  0  0  0  0  0  0
   -3.4111  -10.4730   -2.0083 C   0  0  0  0  0  0  0  0  0  0  0  0
   -7.8162   -6.6058   -3.9822 N   0  0  0  0  0  0  0  0  0  0  0  0
   -8.6136   -6.1225   -3.0481 C   0  0  0  0  0  0  0  0  0  0  0  0
   -1.9638  -10.7101   -1.5637 C   0  0  0  0  0  0  0  0  0  0  0  0
   -1.9102  -10.8285   -0.0378 C   0  0  0  0  0  0  0  0  0  0  0  0
   -9.8754   -6.6157   -2.8602 N   0  0  0  0  0  0  0  0  0  0  0  0
   -8.1715   -5.1114   -2.2566 N   0  0  0  0  0  0  0  0  0  0  0  0
   -2.2491   -9.6855    0.5098 N   0  0  0  0  0  0  0  0  0  0  0  0
   -2.5522   -9.5978    1.7908 C   0  0  0  0  0  0  0  0  0  0  0  0
   -3.3476  -10.5459    2.3495 N   0  0  0  0  0  0  0  0  0  0  0  0
   -2.0930   -8.5704    2.5652 N   0  0  0  0  0  0  0  0  0  0  0  0
   -4.5417   -8.3721   -6.0073 C   0  0  0  0  0  0  0  0  0  0  0  0
   -1.7934   -9.6844   -9.0031 O   0  0  0  0  0  0  0  0  0  0  0  0
   -4.3348   -9.7649   -6.2241 C   0  0  0  0  0  0  0  0  0  0  0  0
   -3.4139  -10.1984   -7.2152 C   0  0  0  0  0  0  0  0  0  0  0  0
   -2.7166   -9.2454   -8.0034 C   0  0  0  0  0  0  0  0  0  0  0  0
   -2.9369   -7.8563   -7.8012 C   0  0  0  0  0  0  0  0  0  0  0  0
   -3.8546   -7.4181   -6.8083 C   0  0  0  0  0  0  0  0  0  0  0  0
   -0.5799  -10.1142   -8.3791 C   0  0  0  0  0  0  0  0  0  0  0  0
  1  4  1  0  0  0  0
  2  3  1  0  0  0  0
  3  5  1  0  0  0  0
  4  6  1  0  0  0  0
  5  8  1  0  0  0  0
  6  7  1  0  0  0  0
  7 10  1  0  0  0  0
  8  9  1  0  0  0  0
  9 12  1  0  0  0  0
  9 13  1  0  0  0  0
 10 11  1  0  0  0  0
 11 14  1  0  0  0  0
 14 15  1  0  0  0  0
 15 16  1  0  0  0  0
 15 17  1  0  0  0  0
 18  2  1  0  0  0  0
 18 20  2  0  0  0  0
 18 24  1  0  0  0  0
 19 25  1  0  0  0  0
 20  1  1  0  0  0  0
 20 21  1  0  0  0  0
 21 22  2  0  0  0  0
 22 19  1  0  0  0  0
 22 23  1  0  0  0  0
 23 24  2  0  0  0  0
M  END
>  <CHROM.1>
-70.86752652,170.63354884,70.41256518,-178.63299359,177.55897072,-178.07973148
-163.07385275,-38.88001533,113.85860210,-38.90850748,-65.25366776,165.63073959
-43.48016218,115.69457048,-61.60723286,-73.26628250,-50.81106778,-76.22679501
-4.42590004,-8.92105563,-3.70666039,-1.65510445,-0.52619064,1.60616561

>  <Name>
1uud_lig

>  <RI>
0

>  <Rbt.Current_Directory>
/home/itssahil/PROJECTS/Mol_Feturizer/New_Systems/rnas/1uud

>  <Rbt.Executable>
rbdock ($Id: //depot/dev/client3/rdock/2013.1/src/exe/rbdock.cxx#4 $)

>  <Rbt.Library>
libRbt.so (2013.1, Build901 2013/11/27)

>  <Rbt.Parameter_File>
/export/apps/rDock/src/rDock_2013.1_src/data/scripts/dock_solv.prm

>  <Rbt.Receptor>
prm/pocket_docking_6.prm

>  <SCORE>
-26.8987

>  <SCORE.INTER>
-17.011

>  <SCORE.INTER.CONST>
1

>  <SCORE.INTER.POLAR>
-3.06536

>  <SCORE.INTER.ROT>
18

>  <SCORE.INTER.SOLV>
8.41999

>  <SCORE.INTER.VDW>
-19.5294

>  <SCORE.INTER.norm>
-0.680439

>  <SCORE.INTRA>
-9.88777

>  <SCORE.INTRA.DIHEDRAL>
-9.07395

>  <SCORE.INTRA.DIHEDRAL.0>
30.6762

>  <SCORE.INTRA.POLAR>
-0.383159

>  <SCORE.INTRA.POLAR.0>
-0.0288659

>  <SCORE.INTRA.REPUL>
0

>  <SCORE.INTRA.REPUL.0>
0

>  <SCORE.INTRA.SOLV>
-0.855485

>  <SCORE.INTRA.SOLV.lig_0>
-25.2195

>  <SCORE.INTRA.VDW>
-3.62031

>  <SCORE.INTRA.VDW.0>
4.14263

>  <SCORE.INTRA.norm>
-0.395511

>  <SCORE.RESTR>
0

>  <SCORE.RESTR.CAVITY>
0

>  <SCORE.RESTR.norm>
0

>  <SCORE.SYSTEM>
0

>  <SCORE.SYSTEM.CONST>
0

>  <SCORE.SYSTEM.DIHEDRAL>
0

>  <SCORE.SYSTEM.SOLV>
0

>  <SCORE.SYSTEM.norm>
0

>  <SCORE.heavy>
25

>  <SCORE.norm>
-1.07595

>  <RMSD>
5.720

$$$$
1uud_lig
 OpenBabel11021811413D
libRbt.so/2013.1/901 2013/11/27
 25 25  0  0  0  0  0  0  0  0999 V2000
   -4.6377  -11.9844   -4.2010 C   0  0  0  0  0  0  0  0  0  0  0  0
   -5.3991   -9.9649   -6.1871 O   0  0  0  0  0  0  0  0  0  0  0  0
   -4.6800   -8.7887   -5.7873 C   0  0  0  0  0  0  0  0  0  0  0  0
   -3.8899  -10.9996   -3.3805 N   0  0  0  0  0  0  0  0  0  0  0  0
   -5.5667   -7.9008   -4.9039 C   0  0  0  0  0  0  0  0  0  0  0  0
   -2.4999  -11.4708   -3.1739 C   0  0  0  0  0  0  0  0  0  0  0  0
   -1.8548  -10.6790   -2.0299 C   0  0  0  0  0  0  0  0  0  0  0  0
   -6.7140   -7.6806   -5.5006 N   0  0  0  0  0  0  0  0  0  0  0  0
   -7.8293   -8.2497   -5.0831 C   0  0  0  0  0  0  0  0  0  0  0  0
   -1.3719   -9.3188   -2.5451 C   0  0  0  0  0  0  0  0  0  0  0  0
   -0.2775   -8.7801   -1.6191 C   0  0  0  0  0  0  0  0  0  0  0  0
   -8.1728   -8.2629   -3.7593 N   0  0  0  0  0  0  0  0  0  0  0  0
   -8.6538   -8.8365   -5.9887 N   0  0  0  0  0  0  0  0  0  0  0  0
   -0.7632   -8.5992   -0.4138 N   0  0  0  0  0  0  0  0  0  0  0  0
   -1.0292   -7.3925    0.0482 C   0  0  0  0  0  0  0  0  0  0  0  0
   -1.7997   -6.5549   -0.6923 N   0  0  0  0  0  0  0  0  0  0  0  0
   -0.5393   -6.9629    1.2488 N   0  0  0  0  0  0  0  0  0  0  0  0
   -4.4812  -10.9951   -6.5753 C   0  0  0  0  0  0  0  0  0  0  0  0
   -1.7099  -14.0303   -7.7406 O   0  0  0  0  0  0  0  0  0  0  0  0
   -4.0811  -11.9925   -5.6399 C   0  0  0  0  0  0  0  0  0  0  0  0
   -3.1528  -12.9956   -6.0277 C   0  0  0  0  0  0  0  0  0  0  0  0
   -2.6409  -13.0171   -7.3516 C   0  0  0  0  0  0  0  0  0  0  0  0
   -3.0543  -12.0343   -8.2909 C   0  0  0  0  0  0  0  0  0  0  0  0
   -3.9800  -11.0268   -7.9063 C   0  0  0  0  0  0  0  0  0  0  0  0
   -0.4092  -13.7021   -7.2437 C   0  0  0  0  0  0  0  0  0  0  0  0
  1  4  1  0  0  0  0
  2  3  1  0  0  0  0
  3  5  1  0  0  0  0
  4  6  1  0  0  0  0
  5  8  1  0  0  0  0
  6  7  1  0  0  0  0
  7 10  1  0  0  0  0
  8  9  1  0  0  0  0
  9 12  1  0  0  0  0
  9 13  1  0  0  0  0
 10 11  1  0  0  0  0
 11 14  1  0  0  0  0
 14 15  1  0  0  0  0
 15 16  1  0  0  0  0
 15 17  1  0  0  0  0
 18  2  1  0  0  0  0
 18 20  2  0  0  0  0
 18 24  1  0  0  0  0
 19 25  1  0  0  0  0
 20  1  1  0  0  0  0
 20 21  1  0  0  0  0
 21 22  2  0  0  0  0
 22 19  1  0  0  0  0
 22 23  1  0  0  0  0
 23 24  2  0  0  0  0
M  END
>  <CHROM.1>
-68.52782940,-159.05906302,-51.87696974,-164.33466950,107.63438727,-80.43964874
-157.63149493,47.02438927,100.11391155,173.36087547,-61.97948359,-105.32872678
51.75777194,-142.57478403,155.60548535,95.42115091,-80.69519502,-78.21720780
-3.58720155,-10.02017990,-4.35163470,-2.00911561,-0.44306536,0.85756341

>  <Name>
1uud_lig

>  <RI>
0

>  <Rbt.Current_Directory>
/home/itssahil/PROJECTS/Mol_Feturizer/New_Systems/rnas/1uud

>  <Rbt.Executable>
rbdock ($Id: //depot/dev/client3/rdock/2013.1/src/exe/rbdock.cxx#4 $)

>  <Rbt.Library>
libRbt.so (2013.1, Build901 2013/11/27)

>  <Rbt.Parameter_File>
/export/apps/rDock/src/rDock_2013.1_src/data/scripts/dock_solv.prm

>  <Rbt.Receptor>
prm/pocket_docking_4.prm

>  <SCORE>
-32.5489

>  <SCORE.INTER>
-24.5688

>  <SCORE.INTER.CONST>
1

>  <SCORE.INTER.POLAR>
-5.07599

>  <SCORE.INTER.ROT>
18

>  <SCORE.INTER.SOLV>
10.8482

>  <SCORE.INTER.VDW>
-18.6753

>  <SCORE.INTER.norm>
-0.982751

>  <SCORE.INTRA>
-7.98013

>  <SCORE.INTRA.DIHEDRAL>
-4.73328

>  <SCORE.INTRA.DIHEDRAL.0>
30.6762

>  <SCORE.INTRA.POLAR>
0.0288659

>  <SCORE.INTRA.POLAR.0>
-0.0288659

>  <SCORE.INTRA.REPUL>
0

>  <SCORE.INTRA.REPUL.0>
0

>  <SCORE.INTRA.SOLV>
-0.309165

>  <SCORE.INTRA.SOLV.lig_0>
-25.2195

>  <SCORE.INTRA.VDW>
-5.55705

>  <SCORE.INTRA.VDW.0>
4.14263

>  <SCORE.INTRA.norm>
-0.319205

>  <SCORE.RESTR>
0

>  <SCORE.RESTR.CAVITY>
0

>  <SCORE.RESTR.norm>
0

>  <SCORE.SYSTEM>
0

>  <SCORE.SYSTEM.CONST>
0

>  <SCORE.SYSTEM.DIHEDRAL>
0

>  <SCORE.SYSTEM.SOLV>
0

>  <SCORE.SYSTEM.norm>
0

>  <SCORE.heavy>
25

>  <SCORE.norm>
-1.30196

>  <RMSD>
5.732

$$$$
1uud_lig
 OpenBabel11021811413D
libRbt.so/2013.1/901 2013/11/27
 25 25  0  0  0  0  0  0  0  0999 V2000
   -2.7114  -12.2371   -4.3351 C   0  0  0  0  0  0  0  0  0  0  0  0
   -4.6598  -10.2461   -5.2529 O   0  0  0  0  0  0  0  0  0  0  0  0
   -5.7478  -10.8500   -4.5375 C   0  0  0  0  0  0  0  0  0  0  0  0
   -2.2161  -10.9119   -3.8873 N   0  0  0  0  0  0  0  0  0  0  0  0
   -6.4561   -9.8023   -3.6682 C   0  0  0  0  0  0  0  0  0  0  0  0
   -2.2259  -10.8463   -2.4067 C   0  0  0  0  0  0  0  0  0  0  0  0
   -1.7946   -9.4466   -1.9524 C   0  0  0  0  0  0  0  0  0  0  0  0
   -6.9381   -8.8455   -4.4253 N   0  0  0  0  0  0  0  0  0  0  0  0
   -8.0453   -8.2031   -4.1041 C   0  0  0  0  0  0  0  0  0  0  0  0
   -1.6045   -9.4276   -0.4318 C   0  0  0  0  0  0  0  0  0  0  0  0
   -0.9928   -8.0888   -0.0093 C   0  0  0  0  0  0  0  0  0  0  0  0
   -9.1380   -8.8633   -3.6134 N   0  0  0  0  0  0  0  0  0  0  0  0
   -8.1012   -6.8559   -4.2659 N   0  0  0  0  0  0  0  0  0  0  0  0
   -0.9810   -7.9978    1.2995 N   0  0  0  0  0  0  0  0  0  0  0  0
   -2.0577   -7.6459    1.9758 C   0  0  0  0  0  0  0  0  0  0  0  0
   -1.9832   -7.5320    3.3267 N   0  0  0  0  0  0  0  0  0  0  0  0
   -3.2474   -7.4038    1.3497 N   0  0  0  0  0  0  0  0  0  0  0  0
   -4.1246  -11.1713   -6.2079 C   0  0  0  0  0  0  0  0  0  0  0  0
   -2.5091  -13.8903   -9.0798 O   0  0  0  0  0  0  0  0  0  0  0  0
   -3.1718  -12.1510   -5.8051 C   0  0  0  0  0  0  0  0  0  0  0  0
   -2.6300  -13.0484   -6.7640 C   0  0  0  0  0  0  0  0  0  0  0  0
   -3.0530  -12.9832   -8.1175 C   0  0  0  0  0  0  0  0  0  0  0  0
   -4.0177  -12.0192   -8.5164 C   0  0  0  0  0  0  0  0  0  0  0  0
   -4.5598  -11.1172   -7.5612 C   0  0  0  0  0  0  0  0  0  0  0  0
   -2.9637  -15.2171   -8.7981 C   0  0  0  0  0  0  0  0  0  0  0  0
  1  4  1  0  0  0  0
  2  3  1  0  0  0  0
  3  5  1  0  0  0  0
  4  6  1  0  0  0  0
  5  8  1  0  0  0  0
  6  7  1  0  0  0  0
  7 10  1  0  0  0  0
  8  9  1  0  0  0  0
  9 12  1  0  0  0  0
  9 13  1  0  0  0  0
 10 11  1  0  0  0  0
 11 14  1  0  0  0  0
 14 15  1  0  0  0  0
 15 16  1  0  0  0  0
 15 17  1  0  0  0  0
 18  2  1  0  0  0  0
 18 20  2  0  0  0  0
 18 24  1  0  0  0  0
 19 25  1  0  0  0  0
 20  1  1  0  0  0  0
 20 21  1  0  0  0  0
 21 22  2  0  0  0  0
 22 19  1  0  0  0  0
 22 23  1  0  0  0  0
 23 24  2  0  0  0  0
M  END
>  <CHROM.1>
160.15515278,-171.55009120,60.57574262,-176.58031707,147.95268487,-171.80687929
172.33932860,-42.15150911,91.87948088,-86.81811955,172.18539597,-80.76077307
-178.25739465,-170.91269205,-82.33004482,-83.13524483,-54.01282552,68.22750925
-3.86391207,-10.20315159,-3.73792021,-1.72230740,-0.41219618,1.00791035

>  <Name>
1uud_lig

>  <RI>
0

>  <Rbt.Current_Directory>
/home/itssahil/PROJECTS/Mol_Feturizer/New_Systems/rnas/1uud

>  <Rbt.Executable>
rbdock ($Id: //depot/dev/client3/rdock/2013.1/src/exe/rbdock.cxx#4 $)

>  <Rbt.Library>
libRbt.so (2013.1, Build901 2013/11/27)

>  <Rbt.Parameter_File>
/export/apps/rDock/src/rDock_2013.1_src/data/scripts/dock_solv.prm

>  <Rbt.Receptor>
prm/pocket_docking_6.prm

>  <SCORE>
-43.5907

>  <SCORE.INTER>
-32.0877

>  <SCORE.INTER.CONST>
1

>  <SCORE.INTER.POLAR>
-5.37483

>  <SCORE.INTER.ROT>
18

>  <SCORE.INTER.SOLV>
9.8364

>  <SCORE.INTER.VDW>
-22.3545

>  <SCORE.INTER.norm>
-1.28351

>  <SCORE.INTRA>
-11.5031

>  <SCORE.INTRA.DIHEDRAL>
-9.53156

>  <SCORE.INTRA.DIHEDRAL.0>
30.6762

>  <SCORE.INTRA.POLAR>
-0.508232

>  <SCORE.INTRA.POLAR.0>
-0.0288659

>  <SCORE.INTRA.REPUL>
0

>  <SCORE.INTRA.REPUL.0>
0

>  <SCORE.INTRA.SOLV>
-0.735434

>  <SCORE.INTRA.SOLV.lig_0>
-25.2195

>  <SCORE.INTRA.VDW>
-4.64157

>  <SCORE.INTRA.VDW.0>
4.14263

>  <SCORE.INTRA.norm>
-0.460122

>  <SCORE.RESTR>
0

>  <SCORE.RESTR.CAVITY>
0

>  <SCORE.RESTR.norm>
0

>  <SCORE.SYSTEM>
0

>  <SCORE.SYSTEM.CONST>
0

>  <SCORE.SYSTEM.DIHEDRAL>
0

>  <SCORE.SYSTEM.SOLV>
0

>  <SCORE.SYSTEM.norm>
0

>  <SCORE.heavy>
25

>  <SCORE.norm>
-1.74363

>  <RMSD>
5.794

$$$$
1uud_lig
 OpenBabel11021811413D
libRbt.so/2013.1/901 2013/11/27
 25 25  0  0  0  0  0  0  0  0999 V2000
   -0.6391   -8.6375   -4.6174 C   0  0  0  0  0  0  0  0  0  0  0  0
   -3.3425   -7.6911   -3.9858 O   0  0  0  0  0  0  0  0  0  0  0  0
   -3.7158   -6.6294   -4.8766 C   0  0  0  0  0  0  0  0  0  0  0  0
   -0.7541   -8.2403   -3.1922 N   0  0  0  0  0  0  0  0  0  0  0  0
   -4.0556   -5.3634   -4.0784 C   0  0  0  0  0  0  0  0  0  0  0  0
    0.2813   -8.9363   -2.3920 C   0  0  0  0  0  0  0  0  0  0  0  0
   -0.3941   -9.8050   -1.3239 C   0  0  0  0  0  0  0  0  0  0  0  0
   -5.1606   -5.5485   -3.3961 N   0  0  0  0  0  0  0  0  0  0  0  0
   -6.3396   -5.2196   -3.8897 C   0  0  0  0  0  0  0  0  0  0  0  0
   -0.4208   -9.0588    0.0144 C   0  0  0  0  0  0  0  0  0  0  0  0
   -1.6691   -9.4660    0.8025 C   0  0  0  0  0  0  0  0  0  0  0  0
   -7.2484   -6.1708   -4.2637 N   0  0  0  0  0  0  0  0  0  0  0  0
   -6.6568   -3.9067   -4.0306 N   0  0  0  0  0  0  0  0  0  0  0  0
   -2.7424   -9.0011    0.2082 N   0  0  0  0  0  0  0  0  0  0  0  0
   -3.9031   -9.6218    0.2971 C   0  0  0  0  0  0  0  0  0  0  0  0
   -4.7949   -9.5075   -0.7204 N   0  0  0  0  0  0  0  0  0  0  0  0
   -4.2324  -10.3679    1.3930 N   0  0  0  0  0  0  0  0  0  0  0  0
   -3.1990   -8.9173   -4.7140 C   0  0  0  0  0  0  0  0  0  0  0  0
   -2.7956  -12.5512   -6.9237 O   0  0  0  0  0  0  0  0  0  0  0  0
   -1.9040   -9.4100   -5.0460 C   0  0  0  0  0  0  0  0  0  0  0  0
   -1.7731  -10.6143   -5.7882 C   0  0  0  0  0  0  0  0  0  0  0  0
   -2.9303  -11.3372   -6.1803 C   0  0  0  0  0  0  0  0  0  0  0  0
   -4.2216  -10.8569   -5.8328 C   0  0  0  0  0  0  0  0  0  0  0  0
   -4.3574   -9.6507   -5.0935 C   0  0  0  0  0  0  0  0  0  0  0  0
   -2.3274  -12.2558   -8.2429 C   0  0  0  0  0  0  0  0  0  0  0  0
  1  4  1  0  0  0  0
  2  3  1  0  0  0  0
  3  5  1  0  0  0  0
  4  6  1  0  0  0  0
  5  8  1  0  0  0  0
  6  7  1  0  0  0  0
  7 10  1  0  0  0  0
  8  9  1  0  0  0  0
  9 12  1  0  0  0  0
  9 13  1  0  0  0  0
 10 11  1  0  0  0  0
 11 14  1  0  0  0  0
 14 15  1  0  0  0  0
 15 16  1  0  0  0  0
 15 17  1  0  0  0  0
 18  2  1  0  0  0  0
 18 20  2  0  0  0  0
 18 24  1  0  0  0  0
 19 25  1  0  0  0  0
 20  1  1  0  0  0  0
 20 21  1  0  0  0  0
 21 22  2  0  0  0  0
 22 19  1  0  0  0  0
 22 23  1  0  0  0  0
 23 24  2  0  0  0  0
M  END
>  <CHROM.1>
114.92578177,172.32590253,-68.35217761,-119.60935450,-92.19889403,-97.58517629
148.33997129,109.48492080,-136.74056388,-159.18382406,-68.67941441,150.73098313
-151.11882187,-72.29940267,-7.02928774,102.40423781,46.55784030,-69.61137618
-3.21839521,-8.70799762,-3.38287228,-0.74259334,-0.85945349,1.30093654

>  <Name>
1uud_lig

>  <RI>
0

>  <Rbt.Current_Directory>
/home/itssahil/PROJECTS/Mol_Feturizer/New_Systems/rnas/1uud

>  <Rbt.Executable>
rbdock ($Id: //depot/dev/client3/rdock/2013.1/src/exe/rbdock.cxx#4 $)

>  <Rbt.Library>
libRbt.so (2013.1, Build901 2013/11/27)

>  <Rbt.Parameter_File>
/export/apps/rDock/src/rDock_2013.1_src/data/scripts/dock_solv.prm

>  <Rbt.Receptor>
prm/pocket_docking_4.prm

>  <SCORE>
-0.108716

>  <SCORE.INTER>
3.50335

>  <SCORE.INTER.CONST>
1

>  <SCORE.INTER.POLAR>
-1.67838

>  <SCORE.INTER.ROT>
18

>  <SCORE.INTER.SOLV>
2.73088

>  <SCORE.INTER.VDW>
-8.58013

>  <SCORE.INTER.norm>
0.140134

>  <SCORE.INTRA>
-3.61206

>  <SCORE.INTRA.DIHEDRAL>
3.53801

>  <SCORE.INTRA.DIHEDRAL.0>
30.6762

>  <SCORE.INTRA.POLAR>
-0.250374

>  <SCORE.INTRA.POLAR.0>
-0.0288659

>  <SCORE.INTRA.REPUL>
0.0119219

>  <SCORE.INTRA.REPUL.0>
0

>  <SCORE.INTRA.SOLV>
-0.274701

>  <SCORE.INTRA.SOLV.lig_0>
-25.2195

>  <SCORE.INTRA.VDW>
-4.45205

>  <SCORE.INTRA.VDW.0>
4.14263

>  <SCORE.INTRA.norm>
-0.144483

>  <SCORE.RESTR>
0

>  <SCORE.RESTR.CAVITY>
0

>  <SCORE.RESTR.norm>
0

>  <SCORE.SYSTEM>
0

>  <SCORE.SYSTEM.CONST>
0

>  <SCORE.SYSTEM.DIHEDRAL>
0

>  <SCORE.SYSTEM.SOLV>
0

>  <SCORE.SYSTEM.norm>
0

>  <SCORE.heavy>
25

>  <SCORE.norm>
-0.00434863

>  <RMSD>
5.811

$$$$
1uud_lig
 OpenBabel11021811413D
libRbt.so/2013.1/901 2013/11/27
 25 25  0  0  0  0  0  0  0  0999 V2000
   -6.3863  -10.3885   -3.8995 C   0  0  0  0  0  0  0  0  0  0  0  0
   -5.0025   -9.8307   -1.3743 O   0  0  0  0  0  0  0  0  0  0  0  0
   -3.5899   -9.8379   -1.6286 C   0  0  0  0  0  0  0  0  0  0  0  0
   -5.5786  -10.4589   -5.1424 N   0  0  0  0  0  0  0  0  0  0  0  0
   -2.8873   -8.7996   -0.7435 C   0  0  0  0  0  0  0  0  0  0  0  0
   -4.2236  -10.9731   -4.8321 C   0  0  0  0  0  0  0  0  0  0  0  0
   -3.6115  -11.5982   -6.0916 C   0  0  0  0  0  0  0  0  0  0  0  0
   -3.1306   -9.0521    0.5206 N   0  0  0  0  0  0  0  0  0  0  0  0
   -2.2761   -8.7153    1.4684 C   0  0  0  0  0  0  0  0  0  0  0  0
   -2.2624  -12.2409   -5.7515 C   0  0  0  0  0  0  0  0  0  0  0  0
   -2.4900  -13.4717   -4.8690 C   0  0  0  0  0  0  0  0  0  0  0  0
   -0.9433   -8.5565    1.2056 N   0  0  0  0  0  0  0  0  0  0  0  0
   -2.7306   -8.5235    2.7336 N   0  0  0  0  0  0  0  0  0  0  0  0
   -1.3436  -14.0586   -4.6191 N   0  0  0  0  0  0  0  0  0  0  0  0
   -1.0232  -15.2109   -5.1759 C   0  0  0  0  0  0  0  0  0  0  0  0
   -0.8470  -15.2702   -6.5209 N   0  0  0  0  0  0  0  0  0  0  0  0
   -0.8750  -16.3472   -4.4323 N   0  0  0  0  0  0  0  0  0  0  0  0
   -5.6225   -8.7419   -2.0704 C   0  0  0  0  0  0  0  0  0  0  0  0
   -7.4251   -5.4749   -4.1507 O   0  0  0  0  0  0  0  0  0  0  0  0
   -6.3005   -8.9683   -3.3029 C   0  0  0  0  0  0  0  0  0  0  0  0
   -6.8917   -7.8787   -3.9967 C   0  0  0  0  0  0  0  0  0  0  0  0
   -6.8257   -6.5692   -3.4524 C   0  0  0  0  0  0  0  0  0  0  0  0
   -6.1667   -6.3454   -2.2136 C   0  0  0  0  0  0  0  0  0  0  0  0
   -5.5707   -7.4320   -1.5178 C   0  0  0  0  0  0  0  0  0  0  0  0
   -8.7105   -5.1943   -3.5889 C   0  0  0  0  0  0  0  0  0  0  0  0
  1  4  1  0  0  0  0
  2  3  1  0  0  0  0
  3  5  1  0  0  0  0
  4  6  1  0  0  0  0
  5  8  1  0  0  0  0
  6  7  1  0  0  0  0
  7 10  1  0  0  0  0
  8  9  1  0  0  0  0
  9 12  1  0  0  0  0
  9 13  1  0  0  0  0
 10 11  1  0  0  0  0
 11 14  1  0  0  0  0
 14 15  1  0  0  0  0
 15 16  1  0  0  0  0
 15 17  1  0  0  0  0
 18  2  1  0  0  0  0
 18 20  2  0  0  0  0
 18 24  1  0  0  0  0
 19 25  1  0  0  0  0
 20  1  1  0  0  0  0
 20 21  1  0  0  0  0
 21 22  2  0  0  0  0
 22 19  1  0  0  0  0
 22 23  1  0  0  0  0
 23 24  2  0  0  0  0
M  END
>  <CHROM.1>
94.74726113,79.91332305,57.84041713,156.18184997,151.61998472,-175.08409668
68.93291915,-24.49177449,-7.16239032,-131.87745022,177.43216074,-107.80761236
65.33680221,-92.38606979,115.00600215,100.00064997,-111.85199074,98.63137776
-4.03993147,-10.06360544,-2.92758400,2.28136528,-0.75078384,0.95092438

>  <Name>
1uud_lig

>  <RI>
0

>  <Rbt.Current_Directory>
/home/itssahil/PROJECTS/Mol_Feturizer/New_Systems/rnas/1uud

>  <Rbt.Executable>
rbdock ($Id: //depot/dev/client3/rdock/2013.1/src/exe/rbdock.cxx#4 $)

>  <Rbt.Library>
libRbt.so (2013.1, Build901 2013/11/27)

>  <Rbt.Parameter_File>
/export/apps/rDock/src/rDock_2013.1_src/data/scripts/dock_solv.prm

>  <Rbt.Receptor>
prm/pocket_docking_4.prm

>  <SCORE>
-23.8863

>  <SCORE.INTER>
-17.1225

>  <SCORE.INTER.CONST>
1

>  <SCORE.INTER.POLAR>
-3.95806

>  <SCORE.INTER.ROT>
18

>  <SCORE.INTER.SOLV>
7.32015

>  <SCORE.INTER.VDW>
-16.2615

>  <SCORE.INTER.norm>
-0.6849

>  <SCORE.INTRA>
-6.8115

>  <SCORE.INTRA.DIHEDRAL>
-5.30342

>  <SCORE.INTRA.DIHEDRAL.0>
30.6762

>  <SCORE.INTRA.POLAR>
0.0231226

>  <SCORE.INTRA.POLAR.0>
-0.0288659

>  <SCORE.INTRA.REPUL>
0

>  <SCORE.INTRA.REPUL.0>
0

>  <SCORE.INTRA.SOLV>
-0.800874

>  <SCORE.INTRA.SOLV.lig_0>
-25.2195

>  <SCORE.INTRA.VDW>
-3.83796

>  <SCORE.INTRA.VDW.0>
4.14263

>  <SCORE.INTRA.norm>
-0.27246

>  <SCORE.RESTR>
0.0476678

>  <SCORE.RESTR.CAVITY>
0.0476678

>  <SCORE.RESTR.norm>
0.00190671

>  <SCORE.SYSTEM>
0

>  <SCORE.SYSTEM.CONST>
0

>  <SCORE.SYSTEM.DIHEDRAL>
0

>  <SCORE.SYSTEM.SOLV>
0

>  <SCORE.SYSTEM.norm>
0

>  <SCORE.heavy>
25

>  <SCORE.norm>
-0.955453

>  <RMSD>
5.844

$$$$
1uud_lig
 OpenBabel11021811413D
libRbt.so/2013.1/901 2013/11/27
 25 25  0  0  0  0  0  0  0  0999 V2000
   -3.1644  -12.1953   -4.0287 C   0  0  0  0  0  0  0  0  0  0  0  0
   -4.7438  -10.0728   -5.2948 O   0  0  0  0  0  0  0  0  0  0  0  0
   -6.0088  -10.5044   -4.7715 C   0  0  0  0  0  0  0  0  0  0  0  0
   -2.5426  -10.9269   -3.5742 N   0  0  0  0  0  0  0  0  0  0  0  0
   -6.7281   -9.3318   -4.0912 C   0  0  0  0  0  0  0  0  0  0  0  0
   -2.5075  -10.8875   -2.0930 C   0  0  0  0  0  0  0  0  0  0  0  0
   -1.3310  -10.0192   -1.6308 C   0  0  0  0  0  0  0  0  0  0  0  0
   -7.2096   -8.5160   -4.9985 N   0  0  0  0  0  0  0  0  0  0  0  0
   -7.0197   -7.2120   -4.9244 C   0  0  0  0  0  0  0  0  0  0  0  0
   -1.8446   -8.6552   -1.1568 C   0  0  0  0  0  0  0  0  0  0  0  0
   -2.3618   -8.7743    0.2797 C   0  0  0  0  0  0  0  0  0  0  0  0
   -7.9312   -6.3902   -4.3207 N   0  0  0  0  0  0  0  0  0  0  0  0
   -5.8941   -6.6740   -5.4610 N   0  0  0  0  0  0  0  0  0  0  0  0
   -2.8459   -7.6210    0.6758 N   0  0  0  0  0  0  0  0  0  0  0  0
   -2.5019   -7.0900    1.8335 C   0  0  0  0  0  0  0  0  0  0  0  0
   -2.4240   -5.7390    1.9453 N   0  0  0  0  0  0  0  0  0  0  0  0
   -2.2126   -7.8677    2.9186 N   0  0  0  0  0  0  0  0  0  0  0  0
   -4.1801  -11.0954   -6.1261 C   0  0  0  0  0  0  0  0  0  0  0  0
   -2.4721  -14.1082   -8.6273 O   0  0  0  0  0  0  0  0  0  0  0  0
   -3.4019  -12.1418   -5.5521 C   0  0  0  0  0  0  0  0  0  0  0  0
   -2.8281  -13.1376   -6.3873 C   0  0  0  0  0  0  0  0  0  0  0  0
   -3.0474  -13.1024   -7.7895 C   0  0  0  0  0  0  0  0  0  0  0  0
   -3.8395  -12.0702   -8.3606 C   0  0  0  0  0  0  0  0  0  0  0  0
   -4.4125  -11.0699   -7.5293 C   0  0  0  0  0  0  0  0  0  0  0  0
   -3.4924  -15.0130   -9.0594 C   0  0  0  0  0  0  0  0  0  0  0  0
  1  4  1  0  0  0  0
  2  3  1  0  0  0  0
  3  5  1  0  0  0  0
  4  6  1  0  0  0  0
  5  8  1  0  0  0  0
  6  7  1  0  0  0  0
  7 10  1  0  0  0  0
  8  9  1  0  0  0  0
  9 12  1  0  0  0  0
  9 13  1  0  0  0  0
 10 11  1  0  0  0  0
 11 14  1  0  0  0  0
 14 15  1  0  0  0  0
 15 16  1  0  0  0  0
 15 17  1  0  0  0  0
 18  2  1  0  0  0  0
 18 20  2  0  0  0  0
 18 24  1  0  0  0  0
 19 25  1  0  0  0  0
 20  1  1  0  0  0  0
 20 21  1  0  0  0  0
 21 22  2  0  0  0  0
 22 19  1  0  0  0  0
 22 23  1  0  0  0  0
 23 24  2  0  0  0  0
M  END
>  <CHROM.1>
171.20093646,-169.97531664,74.68144397,152.21345405,-131.80592662,103.77717597
81.30456776,-93.14401175,138.61389461,61.54025868,-177.81233835,-131.02419486
146.88422879,-75.98373703,-65.60635964,-85.76381001,-56.58942167,106.04245800
-3.89229183,-9.92147198,-3.84449167,-1.70055592,-0.68731240,0.93003617

>  <Name>
1uud_lig

>  <RI>
0

>  <Rbt.Current_Directory>
/home/itssahil/PROJECTS/Mol_Feturizer/New_Systems/rnas/1uud

>  <Rbt.Executable>
rbdock ($Id: //depot/dev/client3/rdock/2013.1/src/exe/rbdock.cxx#4 $)

>  <Rbt.Library>
libRbt.so (2013.1, Build901 2013/11/27)

>  <Rbt.Parameter_File>
/export/apps/rDock/src/rDock_2013.1_src/data/scripts/dock_solv.prm

>  <Rbt.Receptor>
prm/pocket_docking_7.prm

>  <SCORE>
-27.4683

>  <SCORE.INTER>
-18.8974

>  <SCORE.INTER.CONST>
1

>  <SCORE.INTER.POLAR>
-3.53623

>  <SCORE.INTER.ROT>
18

>  <SCORE.INTER.SOLV>
8.19545

>  <SCORE.INTER.VDW>
-19.1426

>  <SCORE.INTER.norm>
-0.755894

>  <SCORE.INTRA>
-8.57098

>  <SCORE.INTRA.DIHEDRAL>
-1.7804

>  <SCORE.INTRA.DIHEDRAL.0>
30.6762

>  <SCORE.INTRA.POLAR>
-0.505645

>  <SCORE.INTRA.POLAR.0>
-0.0288659

>  <SCORE.INTRA.REPUL>
0

>  <SCORE.INTRA.REPUL.0>
0

>  <SCORE.INTRA.SOLV>
-0.818906

>  <SCORE.INTRA.SOLV.lig_0>
-25.2195

>  <SCORE.INTRA.VDW>
-5.55214

>  <SCORE.INTRA.VDW.0>
4.14263

>  <SCORE.INTRA.norm>
-0.342839

>  <SCORE.RESTR>
0

>  <SCORE.RESTR.CAVITY>
0

>  <SCORE.RESTR.norm>
0

>  <SCORE.SYSTEM>
0

>  <SCORE.SYSTEM.CONST>
0

>  <SCORE.SYSTEM.DIHEDRAL>
0

>  <SCORE.SYSTEM.SOLV>
0

>  <SCORE.SYSTEM.norm>
0

>  <SCORE.heavy>
25

>  <SCORE.norm>
-1.09873

>  <RMSD>
5.845

$$$$
1uud_lig
 OpenBabel11021811413D
libRbt.so/2013.1/901 2013/11/27
 25 25  0  0  0  0  0  0  0  0999 V2000
   -2.5448  -10.7655   -5.1470 C   0  0  0  0  0  0  0  0  0  0  0  0
   -4.9257   -9.8286   -6.5809 O   0  0  0  0  0  0  0  0  0  0  0  0
   -4.0916   -8.6608   -6.5546 C   0  0  0  0  0  0  0  0  0  0  0  0
   -3.2828  -11.3355   -3.9926 N   0  0  0  0  0  0  0  0  0  0  0  0
   -4.4362   -7.7913   -5.3379 C   0  0  0  0  0  0  0  0  0  0  0  0
   -2.4736  -11.1919   -2.7591 C   0  0  0  0  0  0  0  0  0  0  0  0
   -2.5609   -9.7466   -2.2539 C   0  0  0  0  0  0  0  0  0  0  0  0
   -5.4654   -7.0258   -5.6129 N   0  0  0  0  0  0  0  0  0  0  0  0
   -5.8778   -6.0958   -4.7721 C   0  0  0  0  0  0  0  0  0  0  0  0
   -1.5153   -9.5136   -1.1579 C   0  0  0  0  0  0  0  0  0  0  0  0
   -2.2121   -9.0436    0.1223 C   0  0  0  0  0  0  0  0  0  0  0  0
   -6.2623   -4.8578   -5.2081 N   0  0  0  0  0  0  0  0  0  0  0  0
   -5.9201   -6.3744   -3.4436 N   0  0  0  0  0  0  0  0  0  0  0  0
   -2.8220  -10.0545    0.6943 N   0  0  0  0  0  0  0  0  0  0  0  0
   -2.3245  -10.6436    1.7648 C   0  0  0  0  0  0  0  0  0  0  0  0
   -3.1095  -10.7957    2.8621 N   0  0  0  0  0  0  0  0  0  0  0  0
   -1.0354  -11.0946    1.7982 N   0  0  0  0  0  0  0  0  0  0  0  0
   -4.1980  -10.9416   -7.1159 C   0  0  0  0  0  0  0  0  0  0  0  0
   -2.0188  -14.2317   -8.7518 O   0  0  0  0  0  0  0  0  0  0  0  0
   -3.0329  -11.4251   -6.4535 C   0  0  0  0  0  0  0  0  0  0  0  0
   -2.3054  -12.5139   -7.0044 C   0  0  0  0  0  0  0  0  0  0  0  0
   -2.7506  -13.1333   -8.2017 C   0  0  0  0  0  0  0  0  0  0  0  0
   -3.9235  -12.6644   -8.8525 C   0  0  0  0  0  0  0  0  0  0  0  0
   -4.6524  -11.5731   -8.3068 C   0  0  0  0  0  0  0  0  0  0  0  0
   -0.9532  -13.7368   -9.5679 C   0  0  0  0  0  0  0  0  0  0  0  0
  1  4  1  0  0  0  0
  2  3  1  0  0  0  0
  3  5  1  0  0  0  0
  4  6  1  0  0  0  0
  5  8  1  0  0  0  0
  6  7  1  0  0  0  0
  7 10  1  0  0  0  0
  8  9  1  0  0  0  0
  9 12  1  0  0  0  0
  9 13  1  0  0  0  0
 10 11  1  0  0  0  0
 11 14  1  0  0  0  0
 14 15  1  0  0  0  0
 15 16  1  0  0  0  0
 15 17  1  0  0  0  0
 18  2  1  0  0  0  0
 18 20  2  0  0  0  0
 18 24  1  0  0  0  0
 19 25  1  0  0  0  0
 20  1  1  0  0  0  0
 20 21  1  0  0  0  0
 21 22  2  0  0  0  0
 22 19  1  0  0  0  0
 22 23  1  0  0  0  0
 23 24  2  0  0  0  0
M  END
>  <CHROM.1>
155.29110195,-146.06722177,-83.32622527,77.57923345,-173.54885580,-168.54935700
-122.54950036,138.26560163,-128.26992729,84.27544699,74.56692549,103.87145066
127.45299442,137.24355854,-96.46582899,61.94452234,83.92925323,-85.03699028
-3.40259517,-10.15315986,-4.29138231,-1.68757088,-1.00814296,1.23201727

>  <Name>
1uud_lig

>  <RI>
0

>  <Rbt.Current_Directory>
/home/itssahil/PROJECTS/Mol_Feturizer/New_Systems/rnas/1uud

>  <Rbt.Executable>
rbdock ($Id: //depot/dev/client3/rdock/2013.1/src/exe/rbdock.cxx#4 $)

>  <Rbt.Library>
libRbt.so (2013.1, Build901 2013/11/27)

>  <Rbt.Parameter_File>
/export/apps/rDock/src/rDock_2013.1_src/data/scripts/dock_solv.prm

>  <Rbt.Receptor>
prm/pocket_docking_5.prm

>  <SCORE>
-20.8011

>  <SCORE.INTER>
-18.6636

>  <SCORE.INTER.CONST>
1

>  <SCORE.INTER.POLAR>
-3.90406

>  <SCORE.INTER.ROT>
18

>  <SCORE.INTER.SOLV>
11.0094

>  <SCORE.INTER.VDW>
-18.6986

>  <SCORE.INTER.norm>
-0.746542

>  <SCORE.INTRA>
-2.13755

>  <SCORE.INTRA.DIHEDRAL>
3.63863

>  <SCORE.INTRA.DIHEDRAL.0>
30.6762

>  <SCORE.INTRA.POLAR>
0.0288659

>  <SCORE.INTRA.POLAR.0>
-0.0288659

>  <SCORE.INTRA.REPUL>
0

>  <SCORE.INTRA.REPUL.0>
0

>  <SCORE.INTRA.SOLV>
-0.891602

>  <SCORE.INTRA.SOLV.lig_0>
-25.2195

>  <SCORE.INTRA.VDW>
-3.60921

>  <SCORE.INTRA.VDW.0>
4.14263

>  <SCORE.INTRA.norm>
-0.0855019

>  <SCORE.RESTR>
0

>  <SCORE.RESTR.CAVITY>
0

>  <SCORE.RESTR.norm>
0

>  <SCORE.SYSTEM>
0

>  <SCORE.SYSTEM.CONST>
0

>  <SCORE.SYSTEM.DIHEDRAL>
0

>  <SCORE.SYSTEM.SOLV>
0

>  <SCORE.SYSTEM.norm>
0

>  <SCORE.heavy>
25

>  <SCORE.norm>
-0.832044

>  <RMSD>
5.872

$$$$
1uud_lig
 OpenBabel11021811413D
libRbt.so/2013.1/901 2013/11/27
 25 25  0  0  0  0  0  0  0  0999 V2000
   -2.0092   -9.9156   -3.4090 C   0  0  0  0  0  0  0  0  0  0  0  0
   -4.6065  -11.2148   -2.9984 O   0  0  0  0  0  0  0  0  0  0  0  0
   -5.7733  -10.7929   -3.7202 C   0  0  0  0  0  0  0  0  0  0  0  0
   -1.0424  -10.2070   -2.3215 N   0  0  0  0  0  0  0  0  0  0  0  0
   -6.6834   -9.9549   -2.8122 C   0  0  0  0  0  0  0  0  0  0  0  0
   -1.7732  -10.5222   -1.0712 C   0  0  0  0  0  0  0  0  0  0  0  0
   -0.7725  -10.9141    0.0228 C   0  0  0  0  0  0  0  0  0  0  0  0
   -7.9361  -10.1111   -3.1686 N   0  0  0  0  0  0  0  0  0  0  0  0
   -8.5719   -9.1951   -3.8749 C   0  0  0  0  0  0  0  0  0  0  0  0
   -1.4641  -10.9017    1.3904 C   0  0  0  0  0  0  0  0  0  0  0  0
   -1.8037   -9.4598    1.7790 C   0  0  0  0  0  0  0  0  0  0  0  0
   -8.7713   -9.3411   -5.2201 N   0  0  0  0  0  0  0  0  0  0  0  0
   -9.0373   -8.0819   -3.2518 N   0  0  0  0  0  0  0  0  0  0  0  0
   -2.8500   -9.0506    1.1014 N   0  0  0  0  0  0  0  0  0  0  0  0
   -4.0752   -9.3898    1.4539 C   0  0  0  0  0  0  0  0  0  0  0  0
   -4.7837   -8.5632    2.2653 N   0  0  0  0  0  0  0  0  0  0  0  0
   -4.6434  -10.5575    1.0299 N   0  0  0  0  0  0  0  0  0  0  0  0
   -3.6686  -11.8268   -3.8930 C   0  0  0  0  0  0  0  0  0  0  0  0
   -0.9057  -13.6441   -6.5973 O   0  0  0  0  0  0  0  0  0  0  0  0
   -2.3978  -11.2258   -4.1248 C   0  0  0  0  0  0  0  0  0  0  0  0
   -1.4843  -11.8279   -5.0311 C   0  0  0  0  0  0  0  0  0  0  0  0
   -1.8285  -13.0381   -5.6888 C   0  0  0  0  0  0  0  0  0  0  0  0
   -3.0879  -13.6485   -5.4433 C   0  0  0  0  0  0  0  0  0  0  0  0
   -4.0063  -13.0478   -4.5401 C   0  0  0  0  0  0  0  0  0  0  0  0
   -0.2431  -14.7349   -5.9509 C   0  0  0  0  0  0  0  0  0  0  0  0
  1  4  1  0  0  0  0
  2  3  1  0  0  0  0
  3  5  1  0  0  0  0
  4  6  1  0  0  0  0
  5  8  1  0  0  0  0
  6  7  1  0  0  0  0
  7 10  1  0  0  0  0
  8  9  1  0  0  0  0
  9 12  1  0  0  0  0
  9 13  1  0  0  0  0
 10 11  1  0  0  0  0
 11 14  1  0  0  0  0
 14 15  1  0  0  0  0
 15 16  1  0  0  0  0
 15 17  1  0  0  0  0
 18  2  1  0  0  0  0
 18 20  2  0  0  0  0
 18 24  1  0  0  0  0
 19 25  1  0  0  0  0
 20  1  1  0  0  0  0
 20 21  1  0  0  0  0
 21 22  2  0  0  0  0
 22 19  1  0  0  0  0
 22 23  1  0  0  0  0
 23 24  2  0  0  0  0
M  END
>  <CHROM.1>
-88.21445923,-171.58279403,-149.50500137,176.22085534,-102.23403274,165.97680337
-68.98160705,101.58555381,113.55441969,178.19533390,76.17439593,79.53172590
93.27568778,-61.06844746,154.37564943,115.24815084,104.85117320,101.38328995
-3.82355793,-10.79741311,-2.51441973,-0.96907147,-0.36237888,1.15437143

>  <Name>
1uud_lig

>  <RI>
0

>  <Rbt.Current_Directory>
/home/itssahil/PROJECTS/Mol_Feturizer/New_Systems/rnas/1uud

>  <Rbt.Executable>
rbdock ($Id: //depot/dev/client3/rdock/2013.1/src/exe/rbdock.cxx#4 $)

>  <Rbt.Library>
libRbt.so (2013.1, Build901 2013/11/27)

>  <Rbt.Parameter_File>
/export/apps/rDock/src/rDock_2013.1_src/data/scripts/dock_solv.prm

>  <Rbt.Receptor>
prm/pocket_docking_8.prm

>  <SCORE>
-30.6474

>  <SCORE.INTER>
-22.9207

>  <SCORE.INTER.CONST>
1

>  <SCORE.INTER.POLAR>
-3.38647

>  <SCORE.INTER.ROT>
18

>  <SCORE.INTER.SOLV>
11.1901

>  <SCORE.INTER.VDW>
-23.3222

>  <SCORE.INTER.norm>
-0.916827

>  <SCORE.INTRA>
-7.72667

>  <SCORE.INTRA.DIHEDRAL>
-4.9615

>  <SCORE.INTRA.DIHEDRAL.0>
30.6762

>  <SCORE.INTRA.POLAR>
0.0288659

>  <SCORE.INTRA.POLAR.0>
-0.0288659

>  <SCORE.INTRA.REPUL>
0

>  <SCORE.INTRA.REPUL.0>
0

>  <SCORE.INTRA.SOLV>
-0.303748

>  <SCORE.INTRA.SOLV.lig_0>
-25.2195

>  <SCORE.INTRA.VDW>
-5.19219

>  <SCORE.INTRA.VDW.0>
4.14263

>  <SCORE.INTRA.norm>
-0.309067

>  <SCORE.RESTR>
0

>  <SCORE.RESTR.CAVITY>
0

>  <SCORE.RESTR.norm>
0

>  <SCORE.SYSTEM>
0

>  <SCORE.SYSTEM.CONST>
0

>  <SCORE.SYSTEM.DIHEDRAL>
0

>  <SCORE.SYSTEM.SOLV>
0

>  <SCORE.SYSTEM.norm>
0

>  <SCORE.heavy>
25

>  <SCORE.norm>
-1.22589

>  <RMSD>
5.883

$$$$
1uud_lig
 OpenBabel11021811413D
libRbt.so/2013.1/901 2013/11/27
 25 25  0  0  0  0  0  0  0  0999 V2000
   -5.8594  -10.5441   -5.2369 C   0  0  0  0  0  0  0  0  0  0  0  0
   -3.9445  -12.1533   -3.7051 O   0  0  0  0  0  0  0  0  0  0  0  0
   -3.5037  -13.0827   -4.7062 C   0  0  0  0  0  0  0  0  0  0  0  0
   -6.8858  -10.0765   -4.2725 N   0  0  0  0  0  0  0  0  0  0  0  0
   -1.9823  -13.2670   -4.6241 C   0  0  0  0  0  0  0  0  0  0  0  0
   -7.8356   -9.1647   -4.9530 C   0  0  0  0  0  0  0  0  0  0  0  0
   -7.1510   -7.8193   -5.2228 C   0  0  0  0  0  0  0  0  0  0  0  0
   -1.5971  -14.1868   -5.4765 N   0  0  0  0  0  0  0  0  0  0  0  0
   -1.0673  -15.3254   -5.0703 C   0  0  0  0  0  0  0  0  0  0  0  0
   -7.5912   -6.7912   -4.1749 C   0  0  0  0  0  0  0  0  0  0  0  0
   -6.4768   -6.6048   -3.1412 C   0  0  0  0  0  0  0  0  0  0  0  0
    0.0160  -15.3522   -4.2358 N   0  0  0  0  0  0  0  0  0  0  0  0
   -1.6095  -16.4969   -5.4920 N   0  0  0  0  0  0  0  0  0  0  0  0
   -6.3247   -7.7073   -2.4465 N   0  0  0  0  0  0  0  0  0  0  0  0
   -7.2642   -8.1417   -1.6285 C   0  0  0  0  0  0  0  0  0  0  0  0
   -7.8563   -7.2666   -0.7757 N   0  0  0  0  0  0  0  0  0  0  0  0
   -7.6476   -9.4528   -1.6126 N   0  0  0  0  0  0  0  0  0  0  0  0
   -3.5754  -10.8188   -4.0756 C   0  0  0  0  0  0  0  0  0  0  0  0
   -2.4373   -6.8598   -5.2076 O   0  0  0  0  0  0  0  0  0  0  0  0
   -4.4739  -10.0051   -4.8243 C   0  0  0  0  0  0  0  0  0  0  0  0
   -4.0894   -8.6920   -5.2066 C   0  0  0  0  0  0  0  0  0  0  0  0
   -2.8201   -8.1832   -4.8250 C   0  0  0  0  0  0  0  0  0  0  0  0
   -1.9311   -8.9869   -4.0616 C   0  0  0  0  0  0  0  0  0  0  0  0
   -2.3102  -10.3025   -3.6800 C   0  0  0  0  0  0  0  0  0  0  0  0
   -2.4894   -6.7387   -6.6321 C   0  0  0  0  0  0  0  0  0  0  0  0
  1  4  1  0  0  0  0
  2  3  1  0  0  0  0
  3  5  1  0  0  0  0
  4  6  1  0  0  0  0
  5  8  1  0  0  0  0
  6  7  1  0  0  0  0
  7 10  1  0  0  0  0
  8  9  1  0  0  0  0
  9 12  1  0  0  0  0
  9 13  1  0  0  0  0
 10 11  1  0  0  0  0
 11 14  1  0  0  0  0
 14 15  1  0  0  0  0
 15 16  1  0  0  0  0
 15 17  1  0  0  0  0
 18  2  1  0  0  0  0
 18 20  2  0  0  0  0
 18 24  1  0  0  0  0
 19 25  1  0  0  0  0
 20  1  1  0  0  0  0
 20 21  1  0  0  0  0
 21 22  2  0  0  0  0
 22 19  1  0  0  0  0
 22 23  1  0  0  0  0
 23 24  2  0  0  0  0
M  END
>  <CHROM.1>
114.62523857,73.64945743,175.55589030,-72.95091828,-115.09211636,-101.00300529
102.99554166,-54.37738010,-25.58094625,87.37110590,-66.85884070,-66.70400624
-46.28525953,-34.57825569,48.74403910,91.66246311,97.33373563,-57.63026538
-4.36634764,-10.20391778,-4.18849316,2.31719018,0.47291738,-0.15843917

>  <Name>
1uud_lig

>  <RI>
0

>  <Rbt.Current_Directory>
/home/itssahil/PROJECTS/Mol_Feturizer/New_Systems/rnas/1uud

>  <Rbt.Executable>
rbdock ($Id: //depot/dev/client3/rdock/2013.1/src/exe/rbdock.cxx#4 $)

>  <Rbt.Library>
libRbt.so (2013.1, Build901 2013/11/27)

>  <Rbt.Parameter_File>
/export/apps/rDock/src/rDock_2013.1_src/data/scripts/dock_solv.prm

>  <Rbt.Receptor>
prm/pocket_docking_5.prm

>  <SCORE>
-23.503

>  <SCORE.INTER>
-18.3075

>  <SCORE.INTER.CONST>
1

>  <SCORE.INTER.POLAR>
-3.53246

>  <SCORE.INTER.ROT>
18

>  <SCORE.INTER.SOLV>
9.67083

>  <SCORE.INTER.VDW>
-19.2537

>  <SCORE.INTER.norm>
-0.732299

>  <SCORE.INTRA>
-5.19554

>  <SCORE.INTRA.DIHEDRAL>
2.1492

>  <SCORE.INTRA.DIHEDRAL.0>
30.6762

>  <SCORE.INTRA.POLAR>
-0.757372

>  <SCORE.INTRA.POLAR.0>
-0.0288659

>  <SCORE.INTRA.REPUL>
0

>  <SCORE.INTRA.REPUL.0>
0

>  <SCORE.INTRA.SOLV>
1.21622

>  <SCORE.INTRA.SOLV.lig_0>
-25.2195

>  <SCORE.INTRA.VDW>
-4.30318

>  <SCORE.INTRA.VDW.0>
4.14263

>  <SCORE.INTRA.norm>
-0.207822

>  <SCORE.RESTR>
0

>  <SCORE.RESTR.CAVITY>
0

>  <SCORE.RESTR.norm>
0

>  <SCORE.SYSTEM>
0

>  <SCORE.SYSTEM.CONST>
0

>  <SCORE.SYSTEM.DIHEDRAL>
0

>  <SCORE.SYSTEM.SOLV>
0

>  <SCORE.SYSTEM.norm>
0

>  <SCORE.heavy>
25

>  <SCORE.norm>
-0.94012

>  <RMSD>
5.892

$$$$
1uud_lig
 OpenBabel11021811413D
libRbt.so/2013.1/901 2013/11/27
 25 25  0  0  0  0  0  0  0  0999 V2000
   -4.3033   -7.6642   -4.9417 C   0  0  0  0  0  0  0  0  0  0  0  0
   -4.6168   -9.7187   -2.8721 O   0  0  0  0  0  0  0  0  0  0  0  0
   -3.8347   -9.3004   -1.7436 C   0  0  0  0  0  0  0  0  0  0  0  0
   -4.5551   -8.2192   -6.2947 N   0  0  0  0  0  0  0  0  0  0  0  0
   -2.4653   -9.9930   -1.7626 C   0  0  0  0  0  0  0  0  0  0  0  0
   -3.3132   -8.1586   -7.1014 C   0  0  0  0  0  0  0  0  0  0  0  0
   -2.5686   -9.4952   -6.9977 C   0  0  0  0  0  0  0  0  0  0  0  0
   -1.8269   -9.7515   -0.6424 N   0  0  0  0  0  0  0  0  0  0  0  0
   -1.2487   -8.5871   -0.4149 C   0  0  0  0  0  0  0  0  0  0  0  0
   -2.9600  -10.4021   -8.1694 C   0  0  0  0  0  0  0  0  0  0  0  0
   -4.2771  -11.1141   -7.8475 C   0  0  0  0  0  0  0  0  0  0  0  0
   -0.9175   -8.1888    0.8509 N   0  0  0  0  0  0  0  0  0  0  0  0
   -0.9779   -7.7653   -1.4616 N   0  0  0  0  0  0  0  0  0  0  0  0
   -4.0632  -12.0764   -6.9818 N   0  0  0  0  0  0  0  0  0  0  0  0
   -4.1339  -11.8626   -5.6819 C   0  0  0  0  0  0  0  0  0  0  0  0
   -5.1665  -11.1337   -5.1859 N   0  0  0  0  0  0  0  0  0  0  0  0
   -3.1873  -12.3485   -4.8252 N   0  0  0  0  0  0  0  0  0  0  0  0
   -5.6939   -8.7991   -3.0928 C   0  0  0  0  0  0  0  0  0  0  0  0
   -8.8986   -6.0409   -3.7032 O   0  0  0  0  0  0  0  0  0  0  0  0
   -5.5806   -7.7826   -4.0846 C   0  0  0  0  0  0  0  0  0  0  0  0
   -6.6445   -6.8615   -4.2796 C   0  0  0  0  0  0  0  0  0  0  0  0
   -7.8277   -6.9668   -3.5021 C   0  0  0  0  0  0  0  0  0  0  0  0
   -7.9494   -7.9923   -2.5261 C   0  0  0  0  0  0  0  0  0  0  0  0
   -6.8862   -8.9137   -2.3252 C   0  0  0  0  0  0  0  0  0  0  0  0
   -8.4725   -4.7271   -3.3307 C   0  0  0  0  0  0  0  0  0  0  0  0
  1  4  1  0  0  0  0
  2  3  1  0  0  0  0
  3  5  1  0  0  0  0
  4  6  1  0  0  0  0
  5  8  1  0  0  0  0
  6  7  1  0  0  0  0
  7 10  1  0  0  0  0
  8  9  1  0  0  0  0
  9 12  1  0  0  0  0
  9 13  1  0  0  0  0
 10 11  1  0  0  0  0
 11 14  1  0  0  0  0
 14 15  1  0  0  0  0
 15 16  1  0  0  0  0
 15 17  1  0  0  0  0
 18  2  1  0  0  0  0
 18 20  2  0  0  0  0
 18 24  1  0  0  0  0
 19 25  1  0  0  0  0
 20  1  1  0  0  0  0
 20 21  1  0  0  0  0
 21 22  2  0  0  0  0
 22 19  1  0  0  0  0
 22 23  1  0  0  0  0
 23 24  2  0  0  0  0
M  END
>  <CHROM.1>
-177.63324314,-162.27742835,-171.47563673,94.44027272,-76.47025140,94.15028529
-82.75546138,161.34623216,-117.93818200,-62.50191838,-75.26389018,90.02925783
44.42962291,9.38302888,-94.24663657,98.69455324,103.05878472,-65.31927189
-4.43656652,-8.98080262,-3.94715872,2.07037028,-0.53457285,1.11599045

>  <Name>
1uud_lig

>  <RI>
0

>  <Rbt.Current_Directory>
/home/itssahil/PROJECTS/Mol_Feturizer/New_Systems/rnas/1uud

>  <Rbt.Executable>
rbdock ($Id: //depot/dev/client3/rdock/2013.1/src/exe/rbdock.cxx#4 $)

>  <Rbt.Library>
libRbt.so (2013.1, Build901 2013/11/27)

>  <Rbt.Parameter_File>
/export/apps/rDock/src/rDock_2013.1_src/data/scripts/dock_solv.prm

>  <Rbt.Receptor>
prm/pocket_docking_4.prm

>  <SCORE>
-13.0279

>  <SCORE.INTER>
-2.89089

>  <SCORE.INTER.CONST>
1

>  <SCORE.INTER.POLAR>
-1.11149

>  <SCORE.INTER.ROT>
18

>  <SCORE.INTER.SOLV>
4.91893

>  <SCORE.INTER.VDW>
-15.4619

>  <SCORE.INTER.norm>
-0.115636

>  <SCORE.INTRA>
-10.137

>  <SCORE.INTRA.DIHEDRAL>
-1.6441

>  <SCORE.INTRA.DIHEDRAL.0>
30.6762

>  <SCORE.INTRA.POLAR>
-1.4928

>  <SCORE.INTRA.POLAR.0>
-0.0288659

>  <SCORE.INTRA.REPUL>
0

>  <SCORE.INTRA.REPUL.0>
0

>  <SCORE.INTRA.SOLV>
1.59416

>  <SCORE.INTRA.SOLV.lig_0>
-25.2195

>  <SCORE.INTRA.VDW>
-5.03648

>  <SCORE.INTRA.VDW.0>
4.14263

>  <SCORE.INTRA.norm>
-0.405478

>  <SCORE.RESTR>
0

>  <SCORE.RESTR.CAVITY>
0

>  <SCORE.RESTR.norm>
0

>  <SCORE.SYSTEM>
0

>  <SCORE.SYSTEM.CONST>
0

>  <SCORE.SYSTEM.DIHEDRAL>
0

>  <SCORE.SYSTEM.SOLV>
0

>  <SCORE.SYSTEM.norm>
0

>  <SCORE.heavy>
25

>  <SCORE.norm>
-0.521114

>  <RMSD>
5.942

$$$$
1uud_lig
 OpenBabel11021811413D
libRbt.so/2013.1/901 2013/11/27
 25 25  0  0  0  0  0  0  0  0999 V2000
   -7.3480   -9.4319   -1.0235 C   0  0  0  0  0  0  0  0  0  0  0  0
   -7.0666  -10.8149   -3.5946 O   0  0  0  0  0  0  0  0  0  0  0  0
   -5.7229  -11.0550   -4.0384 C   0  0  0  0  0  0  0  0  0  0  0  0
   -6.4348   -8.6701   -0.1359 N   0  0  0  0  0  0  0  0  0  0  0  0
   -5.5915  -10.7254   -5.5314 C   0  0  0  0  0  0  0  0  0  0  0  0
   -6.8612   -8.8251    1.2751 C   0  0  0  0  0  0  0  0  0  0  0  0
   -8.2045   -8.1161    1.4858 C   0  0  0  0  0  0  0  0  0  0  0  0
   -4.6407  -11.4529   -6.0677 N   0  0  0  0  0  0  0  0  0  0  0  0
   -4.0194  -11.0735   -7.1686 C   0  0  0  0  0  0  0  0  0  0  0  0
   -8.0488   -6.6148    1.2202 C   0  0  0  0  0  0  0  0  0  0  0  0
   -7.1978   -5.9850    2.3267 C   0  0  0  0  0  0  0  0  0  0  0  0
   -4.4009  -11.5330   -8.3990 N   0  0  0  0  0  0  0  0  0  0  0  0
   -2.9767  -10.2083   -7.0771 N   0  0  0  0  0  0  0  0  0  0  0  0
   -7.0870   -4.6937    2.1230 N   0  0  0  0  0  0  0  0  0  0  0  0
   -7.8707   -3.8290    2.7384 C   0  0  0  0  0  0  0  0  0  0  0  0
   -7.6402   -2.4998    2.5841 N   0  0  0  0  0  0  0  0  0  0  0  0
   -8.9017   -4.2399    3.5348 N   0  0  0  0  0  0  0  0  0  0  0  0
   -7.3431   -9.4085   -3.6003 C   0  0  0  0  0  0  0  0  0  0  0  0
   -8.2111   -5.2258   -3.6407 O   0  0  0  0  0  0  0  0  0  0  0  0
   -7.4925   -8.6994   -2.3736 C   0  0  0  0  0  0  0  0  0  0  0  0
   -7.7895   -7.3102   -2.3901 C   0  0  0  0  0  0  0  0  0  0  0  0
   -7.9162   -6.6248   -3.6269 C   0  0  0  0  0  0  0  0  0  0  0  0
   -7.7481   -7.3271   -4.8506 C   0  0  0  0  0  0  0  0  0  0  0  0
   -7.4544   -8.7177   -4.8389 C   0  0  0  0  0  0  0  0  0  0  0  0
   -9.6262   -5.0335   -3.5566 C   0  0  0  0  0  0  0  0  0  0  0  0
  1  4  1  0  0  0  0
  2  3  1  0  0  0  0
  3  5  1  0  0  0  0
  4  6  1  0  0  0  0
  5  8  1  0  0  0  0
  6  7  1  0  0  0  0
  7 10  1  0  0  0  0
  8  9  1  0  0  0  0
  9 12  1  0  0  0  0
  9 13  1  0  0  0  0
 10 11  1  0  0  0  0
 11 14  1  0  0  0  0
 14 15  1  0  0  0  0
 15 16  1  0  0  0  0
 15 17  1  0  0  0  0
 18  2  1  0  0  0  0
 18 20  2  0  0  0  0
 18 24  1  0  0  0  0
 19 25  1  0  0  0  0
 20  1  1  0  0  0  0
 20 21  1  0  0  0  0
 21 22  2  0  0  0  0
 22 19  1  0  0  0  0
 22 23  1  0  0  0  0
 23 24  2  0  0  0  0
M  END
>  <CHROM.1>
146.84963245,-68.94844672,-152.14048626,-67.95173870,-156.58449118,-62.41553081
-69.45820970,-96.21735251,36.04997021,-135.77038136,-178.49576445,97.09724897
174.27391600,-97.30173725,107.30513147,-109.76354772,131.24553752,-85.41615094
-6.91222758,-7.89982966,-2.16510957,-2.27439154,1.12812305,-1.52049044

>  <Name>
1uud_lig

>  <RI>
0

>  <Rbt.Current_Directory>
/home/itssahil/PROJECTS/Mol_Feturizer/New_Systems/rnas/1uud

>  <Rbt.Executable>
rbdock ($Id: //depot/dev/client3/rdock/2013.1/src/exe/rbdock.cxx#4 $)

>  <Rbt.Library>
libRbt.so (2013.1, Build901 2013/11/27)

>  <Rbt.Parameter_File>
/export/apps/rDock/src/rDock_2013.1_src/data/scripts/dock_solv.prm

>  <Rbt.Receptor>
prm/pocket_docking_8.prm

>  <SCORE>
-19.0739

>  <SCORE.INTER>
-15.7995

>  <SCORE.INTER.CONST>
1

>  <SCORE.INTER.POLAR>
-2.69778

>  <SCORE.INTER.ROT>
18

>  <SCORE.INTER.SOLV>
7.51859

>  <SCORE.INTER.VDW>
-19.6466

>  <SCORE.INTER.norm>
-0.631981

>  <SCORE.INTRA>
-3.50505

>  <SCORE.INTRA.DIHEDRAL>
-5.82393

>  <SCORE.INTRA.DIHEDRAL.0>
30.6762

>  <SCORE.INTRA.POLAR>
0.0288659

>  <SCORE.INTRA.POLAR.0>
-0.0288659

>  <SCORE.INTRA.REPUL>
0

>  <SCORE.INTRA.REPUL.0>
0

>  <SCORE.INTRA.SOLV>
-1.18782

>  <SCORE.INTRA.SOLV.lig_0>
-25.2195

>  <SCORE.INTRA.VDW>
-0.0973243

>  <SCORE.INTRA.VDW.0>
4.14263

>  <SCORE.INTRA.norm>
-0.140202

>  <SCORE.RESTR>
0.23071

>  <SCORE.RESTR.CAVITY>
0.23071

>  <SCORE.RESTR.norm>
0.00922842

>  <SCORE.SYSTEM>
0

>  <SCORE.SYSTEM.CONST>
0

>  <SCORE.SYSTEM.DIHEDRAL>
0

>  <SCORE.SYSTEM.SOLV>
0

>  <SCORE.SYSTEM.norm>
0

>  <SCORE.heavy>
25

>  <SCORE.norm>
-0.762954

>  <RMSD>
5.946

$$$$
1uud_lig
 OpenBabel11021811413D
libRbt.so/2013.1/901 2013/11/27
 25 25  0  0  0  0  0  0  0  0999 V2000
   -2.4124  -10.3011   -3.1392 C   0  0  0  0  0  0  0  0  0  0  0  0
   -4.8632  -11.6334   -4.0455 O   0  0  0  0  0  0  0  0  0  0  0  0
   -5.4483  -10.6030   -4.8554 C   0  0  0  0  0  0  0  0  0  0  0  0
   -2.1329  -10.8727   -1.7986 N   0  0  0  0  0  0  0  0  0  0  0  0
   -6.7532  -10.1060   -4.2186 C   0  0  0  0  0  0  0  0  0  0  0  0
   -1.9384   -9.7792   -0.8172 C   0  0  0  0  0  0  0  0  0  0  0  0
   -1.9179  -10.3610    0.6015 C   0  0  0  0  0  0  0  0  0  0  0  0
   -6.5028   -9.5681   -3.0486 N   0  0  0  0  0  0  0  0  0  0  0  0
   -7.2521   -9.8300   -1.9941 C   0  0  0  0  0  0  0  0  0  0  0  0
   -1.1316   -9.4332    1.5340 C   0  0  0  0  0  0  0  0  0  0  0  0
   -1.8840   -8.1087    1.6915 C   0  0  0  0  0  0  0  0  0  0  0  0
   -8.3886  -10.5842   -2.0945 N   0  0  0  0  0  0  0  0  0  0  0  0
   -6.8867   -9.3382   -0.7822 N   0  0  0  0  0  0  0  0  0  0  0  0
   -1.9219   -7.7658    2.9573 N   0  0  0  0  0  0  0  0  0  0  0  0
   -3.0614   -7.4947    3.5643 C   0  0  0  0  0  0  0  0  0  0  0  0
   -3.1869   -6.3278    4.2470 N   0  0  0  0  0  0  0  0  0  0  0  0
   -4.1139   -8.3650    3.5303 N   0  0  0  0  0  0  0  0  0  0  0  0
   -3.6109  -12.0485   -4.6058 C   0  0  0  0  0  0  0  0  0  0  0  0
    0.1057  -13.2708   -6.3214 O   0  0  0  0  0  0  0  0  0  0  0  0
   -2.3972  -11.4239   -4.1972 C   0  0  0  0  0  0  0  0  0  0  0  0
   -1.1637  -11.8266   -4.7756 C   0  0  0  0  0  0  0  0  0  0  0  0
   -1.1376  -12.8646   -5.7438 C   0  0  0  0  0  0  0  0  0  0  0  0
   -2.3452  -13.5014   -6.1376 C   0  0  0  0  0  0  0  0  0  0  0  0
   -3.5820  -13.0994   -5.5642 C   0  0  0  0  0  0  0  0  0  0  0  0
    0.6053  -14.4169   -5.6262 C   0  0  0  0  0  0  0  0  0  0  0  0
  1  4  1  0  0  0  0
  2  3  1  0  0  0  0
  3  5  1  0  0  0  0
  4  6  1  0  0  0  0
  5  8  1  0  0  0  0
  6  7  1  0  0  0  0
  7 10  1  0  0  0  0
  8  9  1  0  0  0  0
  9 12  1  0  0  0  0
  9 13  1  0  0  0  0
 10 11  1  0  0  0  0
 11 14  1  0  0  0  0
 14 15  1  0  0  0  0
 15 16  1  0  0  0  0
 15 17  1  0  0  0  0
 18  2  1  0  0  0  0
 18 20  2  0  0  0  0
 18 24  1  0  0  0  0
 19 25  1  0  0  0  0
 20  1  1  0  0  0  0
 20 21  1  0  0  0  0
 21 22  2  0  0  0  0
 22 19  1  0  0  0  0
 22 23  1  0  0  0  0
 23 24  2  0  0  0  0
M  END
>  <CHROM.1>
171.26376385,-177.07326499,62.73843484,169.25233722,-135.52364963,154.99232808
66.52198296,-5.55243462,174.37317076,-179.37665325,134.10552605,-126.05725016
-127.93280035,-16.08159709,-128.52915024,91.47705228,95.62734668,96.58002200
-3.37440242,-10.46476451,-1.95761911,-1.45375232,-0.19038759,1.06342324

>  <Name>
1uud_lig

>  <RI>
0

>  <Rbt.Current_Directory>
/home/itssahil/PROJECTS/Mol_Feturizer/New_Systems/rnas/1uud

>  <Rbt.Executable>
rbdock ($Id: //depot/dev/client3/rdock/2013.1/src/exe/rbdock.cxx#4 $)

>  <Rbt.Library>
libRbt.so (2013.1, Build901 2013/11/27)

>  <Rbt.Parameter_File>
/export/apps/rDock/src/rDock_2013.1_src/data/scripts/dock_solv.prm

>  <Rbt.Receptor>
prm/pocket_docking_6.prm

>  <SCORE>
-35.7235

>  <SCORE.INTER>
-29.598

>  <SCORE.INTER.CONST>
1

>  <SCORE.INTER.POLAR>
-5.20055

>  <SCORE.INTER.ROT>
18

>  <SCORE.INTER.SOLV>
9.94655

>  <SCORE.INTER.VDW>
-21.3123

>  <SCORE.INTER.norm>
-1.18392

>  <SCORE.INTRA>
-6.12554

>  <SCORE.INTRA.DIHEDRAL>
-3.24884

>  <SCORE.INTRA.DIHEDRAL.0>
30.6762

>  <SCORE.INTRA.POLAR>
0.0288659

>  <SCORE.INTRA.POLAR.0>
-0.0288659

>  <SCORE.INTRA.REPUL>
0

>  <SCORE.INTRA.REPUL.0>
0

>  <SCORE.INTRA.SOLV>
-0.887743

>  <SCORE.INTRA.SOLV.lig_0>
-25.2195

>  <SCORE.INTRA.VDW>
-4.15539

>  <SCORE.INTRA.VDW.0>
4.14263

>  <SCORE.INTRA.norm>
-0.245021

>  <SCORE.RESTR>
0

>  <SCORE.RESTR.CAVITY>
0

>  <SCORE.RESTR.norm>
0

>  <SCORE.SYSTEM>
0

>  <SCORE.SYSTEM.CONST>
0

>  <SCORE.SYSTEM.DIHEDRAL>
0

>  <SCORE.SYSTEM.SOLV>
0

>  <SCORE.SYSTEM.norm>
0

>  <SCORE.heavy>
25

>  <SCORE.norm>
-1.42894

>  <RMSD>
5.962

$$$$
1uud_lig
 OpenBabel11021811413D
libRbt.so/2013.1/901 2013/11/27
 25 25  0  0  0  0  0  0  0  0999 V2000
   -6.6824   -9.5858   -4.2882 C   0  0  0  0  0  0  0  0  0  0  0  0
   -5.8663   -9.4731   -1.4733 O   0  0  0  0  0  0  0  0  0  0  0  0
   -4.7366   -8.8712   -0.8238 C   0  0  0  0  0  0  0  0  0  0  0  0
   -6.4557  -10.8367   -3.5228 N   0  0  0  0  0  0  0  0  0  0  0  0
   -4.0510   -9.8894    0.0973 C   0  0  0  0  0  0  0  0  0  0  0  0
   -5.4676  -11.6857   -4.2296 C   0  0  0  0  0  0  0  0  0  0  0  0
   -4.0719  -11.0635   -4.1011 C   0  0  0  0  0  0  0  0  0  0  0  0
   -2.7489   -9.7443    0.0329 N   0  0  0  0  0  0  0  0  0  0  0  0
   -1.9456  -10.7808   -0.1170 C   0  0  0  0  0  0  0  0  0  0  0  0
   -3.2356  -11.3989   -5.3408 C   0  0  0  0  0  0  0  0  0  0  0  0
   -2.8804  -12.8885   -5.3307 C   0  0  0  0  0  0  0  0  0  0  0  0
   -1.0623  -11.1477    0.8606 N   0  0  0  0  0  0  0  0  0  0  0  0
   -1.9966  -11.4983   -1.2689 N   0  0  0  0  0  0  0  0  0  0  0  0
   -2.3409  -13.2256   -6.4781 N   0  0  0  0  0  0  0  0  0  0  0  0
   -3.0702  -13.7000   -7.4698 C   0  0  0  0  0  0  0  0  0  0  0  0
   -2.9106  -13.1833   -8.7153 N   0  0  0  0  0  0  0  0  0  0  0  0
   -3.9888  -14.6912   -7.2708 N   0  0  0  0  0  0  0  0  0  0  0  0
   -6.7461   -8.4575   -1.9723 C   0  0  0  0  0  0  0  0  0  0  0  0
   -9.3331   -5.3957   -3.4498 O   0  0  0  0  0  0  0  0  0  0  0  0
   -7.1628   -8.4721   -3.3347 C   0  0  0  0  0  0  0  0  0  0  0  0
   -8.0163   -7.4479   -3.8254 C   0  0  0  0  0  0  0  0  0  0  0  0
   -8.4708   -6.4231   -2.9544 C   0  0  0  0  0  0  0  0  0  0  0  0
   -8.0715   -6.4186   -1.5908 C   0  0  0  0  0  0  0  0  0  0  0  0
   -7.2149   -7.4393   -1.0964 C   0  0  0  0  0  0  0  0  0  0  0  0
   -8.5471   -4.3306   -3.9922 C   0  0  0  0  0  0  0  0  0  0  0  0
  1  4  1  0  0  0  0
  2  3  1  0  0  0  0
  3  5  1  0  0  0  0
  4  6  1  0  0  0  0
  5  8  1  0  0  0  0
  6  7  1  0  0  0  0
  7 10  1  0  0  0  0
  8  9  1  0  0  0  0
  9 12  1  0  0  0  0
  9 13  1  0  0  0  0
 10 11  1  0  0  0  0
 11 14  1  0  0  0  0
 14 15  1  0  0  0  0
 15 16  1  0  0  0  0
 15 17  1  0  0  0  0
 18  2  1  0  0  0  0
 18 20  2  0  0  0  0
 18 24  1  0  0  0  0
 19 25  1  0  0  0  0
 20  1  1  0  0  0  0
 20 21  1  0  0  0  0
 21 22  2  0  0  0  0
 22 19  1  0  0  0  0
 22 23  1  0  0  0  0
 23 24  2  0  0  0  0
M  END
>  <CHROM.1>
-154.81388773,161.25974108,141.21700455,72.06718399,-133.00817761,-149.19200417
-70.45083687,-114.64814628,-29.02314359,117.85056792,170.59777506,-92.80217531
131.99057023,-52.88201321,-27.27911684,127.51862343,30.30793689,-87.31410564
-5.00513313,-10.00125530,-3.29399159,2.40921488,-0.71100948,1.10824102

>  <Name>
1uud_lig

>  <RI>
0

>  <Rbt.Current_Directory>
/home/itssahil/PROJECTS/Mol_Feturizer/New_Systems/rnas/1uud

>  <Rbt.Executable>
rbdock ($Id: //depot/dev/client3/rdock/2013.1/src/exe/rbdock.cxx#4 $)

>  <Rbt.Library>
libRbt.so (2013.1, Build901 2013/11/27)

>  <Rbt.Parameter_File>
/export/apps/rDock/src/rDock_2013.1_src/data/scripts/dock_solv.prm

>  <Rbt.Receptor>
prm/pocket_docking_3.prm

>  <SCORE>
-31.4339

>  <SCORE.INTER>
-24.177

>  <SCORE.INTER.CONST>
1

>  <SCORE.INTER.POLAR>
-4.7051

>  <SCORE.INTER.ROT>
18

>  <SCORE.INTER.SOLV>
9.00655

>  <SCORE.INTER.VDW>
-19.0365

>  <SCORE.INTER.norm>
-0.967081

>  <SCORE.INTRA>
-7.35828

>  <SCORE.INTRA.DIHEDRAL>
-1.6033

>  <SCORE.INTRA.DIHEDRAL.0>
30.6762

>  <SCORE.INTRA.POLAR>
-0.790374

>  <SCORE.INTRA.POLAR.0>
-0.0288659

>  <SCORE.INTRA.REPUL>
0

>  <SCORE.INTRA.REPUL.0>
0

>  <SCORE.INTRA.SOLV>
-0.523928

>  <SCORE.INTRA.SOLV.lig_0>
-25.2195

>  <SCORE.INTRA.VDW>
-3.60739

>  <SCORE.INTRA.VDW.0>
4.14263

>  <SCORE.INTRA.norm>
-0.294331

>  <SCORE.RESTR>
0.101371

>  <SCORE.RESTR.CAVITY>
0.101371

>  <SCORE.RESTR.norm>
0.00405484

>  <SCORE.SYSTEM>
0

>  <SCORE.SYSTEM.CONST>
0

>  <SCORE.SYSTEM.DIHEDRAL>
0

>  <SCORE.SYSTEM.SOLV>
0

>  <SCORE.SYSTEM.norm>
0

>  <SCORE.heavy>
25

>  <SCORE.norm>
-1.25736

>  <RMSD>
5.972

$$$$
1uud_lig
 OpenBabel11021811413D
libRbt.so/2013.1/901 2013/11/27
 25 25  0  0  0  0  0  0  0  0999 V2000
   -2.9621  -10.6480   -2.2102 C   0  0  0  0  0  0  0  0  0  0  0  0
   -3.0438   -8.6285   -4.3356 O   0  0  0  0  0  0  0  0  0  0  0  0
   -4.0268   -7.7466   -4.8978 C   0  0  0  0  0  0  0  0  0  0  0  0
   -2.0706  -11.1522   -3.2840 N   0  0  0  0  0  0  0  0  0  0  0  0
   -4.5822   -8.3353   -6.2017 C   0  0  0  0  0  0  0  0  0  0  0  0
   -2.6894  -12.3292   -3.9388 C   0  0  0  0  0  0  0  0  0  0  0  0
   -1.7781  -12.8261   -5.0676 C   0  0  0  0  0  0  0  0  0  0  0  0
   -5.5618   -9.1661   -5.9353 N   0  0  0  0  0  0  0  0  0  0  0  0
   -5.3360  -10.4429   -5.6891 C   0  0  0  0  0  0  0  0  0  0  0  0
   -2.4687  -13.9591   -5.8344 C   0  0  0  0  0  0  0  0  0  0  0  0
   -1.4728  -14.6020   -6.8040 C   0  0  0  0  0  0  0  0  0  0  0  0
   -5.5628  -10.9835   -4.4534 N   0  0  0  0  0  0  0  0  0  0  0  0
   -4.8665  -11.2375   -6.6852 N   0  0  0  0  0  0  0  0  0  0  0  0
   -0.4904  -15.1541   -6.1324 N   0  0  0  0  0  0  0  0  0  0  0  0
   -0.5370  -16.4178   -5.7564 C   0  0  0  0  0  0  0  0  0  0  0  0
   -0.7309  -16.7119   -4.4451 N   0  0  0  0  0  0  0  0  0  0  0  0
   -0.3846  -17.4365   -6.6538 N   0  0  0  0  0  0  0  0  0  0  0  0
   -2.7099   -8.2101   -3.0060 C   0  0  0  0  0  0  0  0  0  0  0  0
   -1.7560   -6.9338    0.9578 O   0  0  0  0  0  0  0  0  0  0  0  0
   -2.6641   -9.1580   -1.9433 C   0  0  0  0  0  0  0  0  0  0  0  0
   -2.3549   -8.7293   -0.6246 C   0  0  0  0  0  0  0  0  0  0  0  0
   -2.0709   -7.3619   -0.3696 C   0  0  0  0  0  0  0  0  0  0  0  0
   -2.0972   -6.4191   -1.4324 C   0  0  0  0  0  0  0  0  0  0  0  0
   -2.4095   -6.8429   -2.7525 C   0  0  0  0  0  0  0  0  0  0  0  0
   -2.8836   -7.1501    1.8112 C   0  0  0  0  0  0  0  0  0  0  0  0
  1  4  1  0  0  0  0
  2  3  1  0  0  0  0
  3  5  1  0  0  0  0
  4  6  1  0  0  0  0
  5  8  1  0  0  0  0
  6  7  1  0  0  0  0
  7 10  1  0  0  0  0
  8  9  1  0  0  0  0
  9 12  1  0  0  0  0
  9 13  1  0  0  0  0
 10 11  1  0  0  0  0
 11 14  1  0  0  0  0
 14 15  1  0  0  0  0
 15 16  1  0  0  0  0
 15 17  1  0  0  0  0
 18  2  1  0  0  0  0
 18 20  2  0  0  0  0
 18 24  1  0  0  0  0
 19 25  1  0  0  0  0
 20  1  1  0  0  0  0
 20 21  1  0  0  0  0
 21 22  2  0  0  0  0
 22 19  1  0  0  0  0
 22 23  1  0  0  0  0
 23 24  2  0  0  0  0
M  END
>  <CHROM.1>
-156.08937398,-169.22034033,85.14433456,178.74614004,-88.04331241,-174.72587220
-170.78724937,113.04319026,-166.18232424,-39.29141320,63.47317250,91.52347541
-107.49821453,-71.33746900,-113.66734006,132.67379954,54.98207886,-63.57026486
-2.70293233,-10.84325356,-3.87756048,-1.81917369,0.86574768,-2.41905127

>  <Name>
1uud_lig

>  <RI>
0

>  <Rbt.Current_Directory>
/home/itssahil/PROJECTS/Mol_Feturizer/New_Systems/rnas/1uud

>  <Rbt.Executable>
rbdock ($Id: //depot/dev/client3/rdock/2013.1/src/exe/rbdock.cxx#4 $)

>  <Rbt.Library>
libRbt.so (2013.1, Build901 2013/11/27)

>  <Rbt.Parameter_File>
/export/apps/rDock/src/rDock_2013.1_src/data/scripts/dock_solv.prm

>  <Rbt.Receptor>
prm/pocket_docking_5.prm

>  <SCORE>
-27.3959

>  <SCORE.INTER>
-15.1828

>  <SCORE.INTER.CONST>
1

>  <SCORE.INTER.POLAR>
-3.85368

>  <SCORE.INTER.ROT>
18

>  <SCORE.INTER.SOLV>
7.8029

>  <SCORE.INTER.VDW>
-15.4773

>  <SCORE.INTER.norm>
-0.607313

>  <SCORE.INTRA>
-12.2131

>  <SCORE.INTRA.DIHEDRAL>
-9.51498

>  <SCORE.INTRA.DIHEDRAL.0>
30.6762

>  <SCORE.INTRA.POLAR>
-0.563129

>  <SCORE.INTRA.POLAR.0>
-0.0288659

>  <SCORE.INTRA.REPUL>
0

>  <SCORE.INTRA.REPUL.0>
0

>  <SCORE.INTRA.SOLV>
0.963479

>  <SCORE.INTRA.SOLV.lig_0>
-25.2195

>  <SCORE.INTRA.VDW>
-6.02269

>  <SCORE.INTRA.VDW.0>
4.14263

>  <SCORE.INTRA.norm>
-0.488523

>  <SCORE.RESTR>
0

>  <SCORE.RESTR.CAVITY>
0

>  <SCORE.RESTR.norm>
0

>  <SCORE.SYSTEM>
0

>  <SCORE.SYSTEM.CONST>
0

>  <SCORE.SYSTEM.DIHEDRAL>
0

>  <SCORE.SYSTEM.SOLV>
0

>  <SCORE.SYSTEM.norm>
0

>  <SCORE.heavy>
25

>  <SCORE.norm>
-1.09584

>  <RMSD>
5.976

$$$$
1uud_lig
 OpenBabel11021811413D
libRbt.so/2013.1/901 2013/11/27
 25 25  0  0  0  0  0  0  0  0999 V2000
   -2.1759   -9.7359   -4.0236 C   0  0  0  0  0  0  0  0  0  0  0  0
   -4.5276  -11.3082   -3.2489 O   0  0  0  0  0  0  0  0  0  0  0  0
   -5.6041  -10.9451   -4.1261 C   0  0  0  0  0  0  0  0  0  0  0  0
   -0.8019   -9.4813   -3.5241 N   0  0  0  0  0  0  0  0  0  0  0  0
   -6.6055  -10.0444   -3.3907 C   0  0  0  0  0  0  0  0  0  0  0  0
   -0.6655   -8.0581   -3.1333 C   0  0  0  0  0  0  0  0  0  0  0  0
    0.7821   -7.7787   -2.7113 C   0  0  0  0  0  0  0  0  0  0  0  0
   -7.4379   -9.5067   -4.2502 N   0  0  0  0  0  0  0  0  0  0  0  0
   -7.1268   -8.4131   -4.9204 C   0  0  0  0  0  0  0  0  0  0  0  0
    0.9854   -6.2729   -2.5118 C   0  0  0  0  0  0  0  0  0  0  0  0
    2.3332   -6.0246   -1.8285 C   0  0  0  0  0  0  0  0  0  0  0  0
   -6.2569   -8.4444   -5.9753 N   0  0  0  0  0  0  0  0  0  0  0  0
   -7.6823   -7.2295   -4.5532 N   0  0  0  0  0  0  0  0  0  0  0  0
    2.3624   -6.6332   -0.6666 N   0  0  0  0  0  0  0  0  0  0  0  0
    1.6052   -6.2370    0.3384 C   0  0  0  0  0  0  0  0  0  0  0  0
    1.8112   -5.0084    0.8785 N   0  0  0  0  0  0  0  0  0  0  0  0
    0.6261   -7.0377    0.8545 N   0  0  0  0  0  0  0  0  0  0  0  0
   -3.4852  -11.9552   -3.9901 C   0  0  0  0  0  0  0  0  0  0  0  0
   -0.4110  -13.8917   -6.2372 O   0  0  0  0  0  0  0  0  0  0  0  0
   -2.3282  -11.2266   -4.3908 C   0  0  0  0  0  0  0  0  0  0  0  0
   -1.3115  -11.8710   -5.1452 C   0  0  0  0  0  0  0  0  0  0  0  0
   -1.4378  -13.2445   -5.4813 C   0  0  0  0  0  0  0  0  0  0  0  0
   -2.5821  -13.9769   -5.0655 C   0  0  0  0  0  0  0  0  0  0  0  0
   -3.6035  -13.3354   -4.3136 C   0  0  0  0  0  0  0  0  0  0  0  0
    0.7030  -14.1769   -5.3863 C   0  0  0  0  0  0  0  0  0  0  0  0
  1  4  1  0  0  0  0
  2  3  1  0  0  0  0
  3  5  1  0  0  0  0
  4  6  1  0  0  0  0
  5  8  1  0  0  0  0
  6  7  1  0  0  0  0
  7 10  1  0  0  0  0
  8  9  1  0  0  0  0
  9 12  1  0  0  0  0
  9 13  1  0  0  0  0
 10 11  1  0  0  0  0
 11 14  1  0  0  0  0
 14 15  1  0  0  0  0
 15 16  1  0  0  0  0
 15 17  1  0  0  0  0
 18  2  1  0  0  0  0
 18 20  2  0  0  0  0
 18 24  1  0  0  0  0
 19 25  1  0  0  0  0
 20  1  1  0  0  0  0
 20 21  1  0  0  0  0
 21 22  2  0  0  0  0
 22 19  1  0  0  0  0
 22 23  1  0  0  0  0
 23 24  2  0  0  0  0
M  END
>  <CHROM.1>
-178.34704273,-170.26221346,167.79894242,-176.06517473,-83.63448164,171.39869479
168.81614480,75.59472585,-21.61560830,78.56874980,-59.42006175,-68.49589111
-64.62408933,179.73410132,137.94221043,99.53745718,135.02290571,76.94294424
-2.10865693,-9.59232968,-3.43243450,-2.40802528,-0.22477074,0.48899229

>  <Name>
1uud_lig

>  <RI>
0

>  <Rbt.Current_Directory>
/home/itssahil/PROJECTS/Mol_Feturizer/New_Systems/rnas/1uud

>  <Rbt.Executable>
rbdock ($Id: //depot/dev/client3/rdock/2013.1/src/exe/rbdock.cxx#4 $)

>  <Rbt.Library>
libRbt.so (2013.1, Build901 2013/11/27)

>  <Rbt.Parameter_File>
/export/apps/rDock/src/rDock_2013.1_src/data/scripts/dock_solv.prm

>  <Rbt.Receptor>
prm/pocket_docking_7.prm

>  <SCORE>
-32.8632

>  <SCORE.INTER>
-23.2608

>  <SCORE.INTER.CONST>
1

>  <SCORE.INTER.POLAR>
-4.38526

>  <SCORE.INTER.ROT>
18

>  <SCORE.INTER.SOLV>
9.75769

>  <SCORE.INTER.VDW>
-19.7422

>  <SCORE.INTER.norm>
-0.930431

>  <SCORE.INTRA>
-9.7762

>  <SCORE.INTRA.DIHEDRAL>
-9.30932

>  <SCORE.INTRA.DIHEDRAL.0>
30.6762

>  <SCORE.INTRA.POLAR>
0.0288659

>  <SCORE.INTRA.POLAR.0>
-0.0288659

>  <SCORE.INTRA.REPUL>
0

>  <SCORE.INTRA.REPUL.0>
0

>  <SCORE.INTRA.SOLV>
-0.721105

>  <SCORE.INTRA.SOLV.lig_0>
-25.2195

>  <SCORE.INTRA.VDW>
-4.85914

>  <SCORE.INTRA.VDW.0>
4.14263

>  <SCORE.INTRA.norm>
-0.391048

>  <SCORE.RESTR>
0.173811

>  <SCORE.RESTR.CAVITY>
0.173811

>  <SCORE.RESTR.norm>
0.00695246

>  <SCORE.SYSTEM>
0

>  <SCORE.SYSTEM.CONST>
0

>  <SCORE.SYSTEM.DIHEDRAL>
0

>  <SCORE.SYSTEM.SOLV>
0

>  <SCORE.SYSTEM.norm>
0

>  <SCORE.heavy>
25

>  <SCORE.norm>
-1.31453

>  <RMSD>
6.000

$$$$
1uud_lig
 OpenBabel11021811413D
libRbt.so/2013.1/901 2013/11/27
 25 25  0  0  0  0  0  0  0  0999 V2000
   -0.5615  -10.6671   -5.6677 C   0  0  0  0  0  0  0  0  0  0  0  0
   -3.2160   -9.4279   -5.5243 O   0  0  0  0  0  0  0  0  0  0  0  0
   -4.2439   -8.5599   -6.0247 C   0  0  0  0  0  0  0  0  0  0  0  0
   -0.9924  -10.5202   -4.2553 N   0  0  0  0  0  0  0  0  0  0  0  0
   -4.4603   -7.3852   -5.0612 C   0  0  0  0  0  0  0  0  0  0  0  0
   -0.0737   -9.6006   -3.5432 C   0  0  0  0  0  0  0  0  0  0  0  0
   -0.4273   -9.5761   -2.0512 C   0  0  0  0  0  0  0  0  0  0  0  0
   -5.5203   -6.7014   -5.4212 N   0  0  0  0  0  0  0  0  0  0  0  0
   -6.4723   -6.3993   -4.5584 C   0  0  0  0  0  0  0  0  0  0  0  0
    0.5878   -8.7174   -1.2890 C   0  0  0  0  0  0  0  0  0  0  0  0
    0.3495   -8.8593    0.2170 C   0  0  0  0  0  0  0  0  0  0  0  0
   -6.2943   -5.4330   -3.6070 N   0  0  0  0  0  0  0  0  0  0  0  0
   -7.6550   -7.0642   -4.6160 N   0  0  0  0  0  0  0  0  0  0  0  0
   -0.8230   -8.3616    0.5313 N   0  0  0  0  0  0  0  0  0  0  0  0
   -0.9512   -7.1246    0.9716 C   0  0  0  0  0  0  0  0  0  0  0  0
   -1.2446   -6.9146    2.2805 N   0  0  0  0  0  0  0  0  0  0  0  0
   -0.8059   -6.0511    0.1392 N   0  0  0  0  0  0  0  0  0  0  0  0
   -3.0220  -10.5292   -6.4209 C   0  0  0  0  0  0  0  0  0  0  0  0
   -2.4545  -13.7815   -9.1322 O   0  0  0  0  0  0  0  0  0  0  0  0
   -1.7470  -11.1565   -6.5252 C   0  0  0  0  0  0  0  0  0  0  0  0
   -1.5590  -12.2323   -7.4338 C   0  0  0  0  0  0  0  0  0  0  0  0
   -2.6454  -12.6959   -8.2215 C   0  0  0  0  0  0  0  0  0  0  0  0
   -3.9222  -12.0837   -8.1040 C   0  0  0  0  0  0  0  0  0  0  0  0
   -4.1140  -11.0048   -7.1989 C   0  0  0  0  0  0  0  0  0  0  0  0
   -3.3072  -14.8701   -8.7657 C   0  0  0  0  0  0  0  0  0  0  0  0
  1  4  1  0  0  0  0
  2  3  1  0  0  0  0
  3  5  1  0  0  0  0
  4  6  1  0  0  0  0
  5  8  1  0  0  0  0
  6  7  1  0  0  0  0
  7 10  1  0  0  0  0
  8  9  1  0  0  0  0
  9 12  1  0  0  0  0
  9 13  1  0  0  0  0
 10 11  1  0  0  0  0
 11 14  1  0  0  0  0
 14 15  1  0  0  0  0
 15 16  1  0  0  0  0
 15 17  1  0  0  0  0
 18  2  1  0  0  0  0
 18 20  2  0  0  0  0
 18 24  1  0  0  0  0
 19 25  1  0  0  0  0
 20  1  1  0  0  0  0
 20 21  1  0  0  0  0
 21 22  2  0  0  0  0
 22 19  1  0  0  0  0
 22 23  1  0  0  0  0
 23 24  2  0  0  0  0
M  END
>  <CHROM.1>
-158.81384688,179.59737282,-171.16919947,-173.64989166,129.45052304,175.40983767
-171.94449402,73.94472500,174.62394157,98.54640696,-65.06839752,-95.65606739
-107.82582060,-108.52154525,72.08309318,150.87197923,47.87735746,118.95646059
-2.65112106,-9.35491848,-4.28028241,-1.80867134,-0.58348717,0.88192798

>  <Name>
1uud_lig

>  <RI>
0

>  <Rbt.Current_Directory>
/home/itssahil/PROJECTS/Mol_Feturizer/New_Systems/rnas/1uud

>  <Rbt.Executable>
rbdock ($Id: //depot/dev/client3/rdock/2013.1/src/exe/rbdock.cxx#4 $)

>  <Rbt.Library>
libRbt.so (2013.1, Build901 2013/11/27)

>  <Rbt.Parameter_File>
/export/apps/rDock/src/rDock_2013.1_src/data/scripts/dock_solv.prm

>  <Rbt.Receptor>
prm/pocket_docking_8.prm

>  <SCORE>
-27.4839

>  <SCORE.INTER>
-15.2359

>  <SCORE.INTER.CONST>
1

>  <SCORE.INTER.POLAR>
-3.38548

>  <SCORE.INTER.ROT>
18

>  <SCORE.INTER.SOLV>
6.00194

>  <SCORE.INTER.VDW>
-16.473

>  <SCORE.INTER.norm>
-0.609438

>  <SCORE.INTRA>
-12.248

>  <SCORE.INTRA.DIHEDRAL>
-13.7235

>  <SCORE.INTRA.DIHEDRAL.0>
30.6762

>  <SCORE.INTRA.POLAR>
-0.69217

>  <SCORE.INTRA.POLAR.0>
-0.0288659

>  <SCORE.INTRA.REPUL>
0

>  <SCORE.INTRA.REPUL.0>
0

>  <SCORE.INTRA.SOLV>
-0.949553

>  <SCORE.INTRA.SOLV.lig_0>
-25.2195

>  <SCORE.INTRA.VDW>
-2.55809

>  <SCORE.INTRA.VDW.0>
4.14263

>  <SCORE.INTRA.norm>
-0.48992

>  <SCORE.RESTR>
0

>  <SCORE.RESTR.CAVITY>
0

>  <SCORE.RESTR.norm>
0

>  <SCORE.SYSTEM>
0

>  <SCORE.SYSTEM.CONST>
0

>  <SCORE.SYSTEM.DIHEDRAL>
0

>  <SCORE.SYSTEM.SOLV>
0

>  <SCORE.SYSTEM.norm>
0

>  <SCORE.heavy>
25

>  <SCORE.norm>
-1.09936

>  <RMSD>
6.011

$$$$
1uud_lig
 OpenBabel11021811413D
libRbt.so/2013.1/901 2013/11/27
 25 25  0  0  0  0  0  0  0  0999 V2000
   -3.3864   -9.7913   -7.3180 C   0  0  0  0  0  0  0  0  0  0  0  0
   -4.3637  -10.6454   -4.6877 O   0  0  0  0  0  0  0  0  0  0  0  0
   -5.5812  -11.1712   -4.1388 C   0  0  0  0  0  0  0  0  0  0  0  0
   -2.1664   -9.0321   -6.9477 N   0  0  0  0  0  0  0  0  0  0  0  0
   -6.4638  -10.0289   -3.6180 C   0  0  0  0  0  0  0  0  0  0  0  0
   -2.1856   -8.7272   -5.4973 C   0  0  0  0  0  0  0  0  0  0  0  0
   -0.8788   -8.0287   -5.1027 C   0  0  0  0  0  0  0  0  0  0  0  0
   -6.8035   -9.2393   -4.6089 N   0  0  0  0  0  0  0  0  0  0  0  0
   -8.0688   -8.9895   -4.8895 C   0  0  0  0  0  0  0  0  0  0  0  0
   -0.8192   -7.8555   -3.5812 C   0  0  0  0  0  0  0  0  0  0  0  0
    0.5434   -7.2799   -3.1846 C   0  0  0  0  0  0  0  0  0  0  0  0
   -8.9554   -8.6130   -3.9186 N   0  0  0  0  0  0  0  0  0  0  0  0
   -8.5002   -9.1106   -6.1715 N   0  0  0  0  0  0  0  0  0  0  0  0
    0.5457   -6.9801   -1.9074 N   0  0  0  0  0  0  0  0  0  0  0  0
    1.4232   -7.5094   -1.0766 C   0  0  0  0  0  0  0  0  0  0  0  0
    2.6111   -6.8818   -0.8799 N   0  0  0  0  0  0  0  0  0  0  0  0
    1.1687   -8.6789   -0.4180 N   0  0  0  0  0  0  0  0  0  0  0  0
   -3.7458  -11.6199   -5.5381 C   0  0  0  0  0  0  0  0  0  0  0  0
   -1.9478  -14.5499   -8.0744 O   0  0  0  0  0  0  0  0  0  0  0  0
   -3.2621  -11.2482   -6.8257 C   0  0  0  0  0  0  0  0  0  0  0  0
   -2.6723  -12.2265   -7.6703 C   0  0  0  0  0  0  0  0  0  0  0  0
   -2.5455  -13.5681   -7.2239 C   0  0  0  0  0  0  0  0  0  0  0  0
   -3.0099  -13.9356   -5.9322 C   0  0  0  0  0  0  0  0  0  0  0  0
   -3.6038  -12.9610   -5.0853 C   0  0  0  0  0  0  0  0  0  0  0  0
   -2.8357  -14.8528   -9.1544 C   0  0  0  0  0  0  0  0  0  0  0  0
  1  4  1  0  0  0  0
  2  3  1  0  0  0  0
  3  5  1  0  0  0  0
  4  6  1  0  0  0  0
  5  8  1  0  0  0  0
  6  7  1  0  0  0  0
  7 10  1  0  0  0  0
  8  9  1  0  0  0  0
  9 12  1  0  0  0  0
  9 13  1  0  0  0  0
 10 11  1  0  0  0  0
 11 14  1  0  0  0  0
 14 15  1  0  0  0  0
 15 16  1  0  0  0  0
 15 17  1  0  0  0  0
 18  2  1  0  0  0  0
 18 20  2  0  0  0  0
 18 24  1  0  0  0  0
 19 25  1  0  0  0  0
 20  1  1  0  0  0  0
 20 21  1  0  0  0  0
 21 22  2  0  0  0  0
 22 19  1  0  0  0  0
 22 23  1  0  0  0  0
 23 24  2  0  0  0  0
M  END
>  <CHROM.1>
-74.87050280,-161.67628912,62.51930551,176.10805651,123.46671350,-173.48345179
174.64955500,49.09697128,-142.91279311,-74.29107225,172.52510968,122.14670844
89.48644745,64.32143157,-95.89721738,133.27566895,91.12618697,-71.43113794
-3.01893998,-10.07203745,-4.89569995,-2.39228527,-0.10920383,0.71592694

>  <Name>
1uud_lig

>  <RI>
0

>  <Rbt.Current_Directory>
/home/itssahil/PROJECTS/Mol_Feturizer/New_Systems/rnas/1uud

>  <Rbt.Executable>
rbdock ($Id: //depot/dev/client3/rdock/2013.1/src/exe/rbdock.cxx#4 $)

>  <Rbt.Library>
libRbt.so (2013.1, Build901 2013/11/27)

>  <Rbt.Parameter_File>
/export/apps/rDock/src/rDock_2013.1_src/data/scripts/dock_solv.prm

>  <Rbt.Receptor>
prm/pocket_docking_8.prm

>  <SCORE>
-29.1465

>  <SCORE.INTER>
-18.4894

>  <SCORE.INTER.CONST>
1

>  <SCORE.INTER.POLAR>
-3.05588

>  <SCORE.INTER.ROT>
18

>  <SCORE.INTER.SOLV>
10.3688

>  <SCORE.INTER.VDW>
-21.1963

>  <SCORE.INTER.norm>
-0.739575

>  <SCORE.INTRA>
-10.6571

>  <SCORE.INTRA.DIHEDRAL>
-10.8828

>  <SCORE.INTRA.DIHEDRAL.0>
30.6762

>  <SCORE.INTRA.POLAR>
0.0288659

>  <SCORE.INTRA.POLAR.0>
-0.0288659

>  <SCORE.INTRA.REPUL>
0

>  <SCORE.INTRA.REPUL.0>
0

>  <SCORE.INTRA.SOLV>
-1.10488

>  <SCORE.INTRA.SOLV.lig_0>
-25.2195

>  <SCORE.INTRA.VDW>
-4.76139

>  <SCORE.INTRA.VDW.0>
4.14263

>  <SCORE.INTRA.norm>
-0.426284

>  <SCORE.RESTR>
0

>  <SCORE.RESTR.CAVITY>
0

>  <SCORE.RESTR.norm>
0

>  <SCORE.SYSTEM>
0

>  <SCORE.SYSTEM.CONST>
0

>  <SCORE.SYSTEM.DIHEDRAL>
0

>  <SCORE.SYSTEM.SOLV>
0

>  <SCORE.SYSTEM.norm>
0

>  <SCORE.heavy>
25

>  <SCORE.norm>
-1.16586

>  <RMSD>
6.042

$$$$
1uud_lig
 OpenBabel11021811413D
libRbt.so/2013.1/901 2013/11/27
 25 25  0  0  0  0  0  0  0  0999 V2000
   -4.0368   -9.4830   -6.4953 C   0  0  0  0  0  0  0  0  0  0  0  0
   -2.4602   -9.4171   -4.0230 O   0  0  0  0  0  0  0  0  0  0  0  0
   -2.1313   -8.0199   -4.0140 C   0  0  0  0  0  0  0  0  0  0  0  0
   -3.9057  -10.8218   -7.1218 N   0  0  0  0  0  0  0  0  0  0  0  0
   -0.6486   -7.8273   -3.6679 C   0  0  0  0  0  0  0  0  0  0  0  0
   -2.8275  -11.5864   -6.4512 C   0  0  0  0  0  0  0  0  0  0  0  0
   -2.6712  -12.9536   -7.1279 C   0  0  0  0  0  0  0  0  0  0  0  0
    0.0696   -8.7623   -4.2431 N   0  0  0  0  0  0  0  0  0  0  0  0
    1.3211   -8.9869   -3.8890 C   0  0  0  0  0  0  0  0  0  0  0  0
   -1.3525  -13.6024   -6.6936 C   0  0  0  0  0  0  0  0  0  0  0  0
   -1.4306  -15.1162   -6.9120 C   0  0  0  0  0  0  0  0  0  0  0  0
    2.3053   -9.1714   -4.8206 N   0  0  0  0  0  0  0  0  0  0  0  0
    1.6382   -9.0372   -2.5695 N   0  0  0  0  0  0  0  0  0  0  0  0
   -0.3053  -15.6786   -6.5397 N   0  0  0  0  0  0  0  0  0  0  0  0
   -0.2920  -16.7601   -5.7843 C   0  0  0  0  0  0  0  0  0  0  0  0
    0.2188  -17.9131   -6.2875 N   0  0  0  0  0  0  0  0  0  0  0  0
   -0.7894  -16.7493   -4.5120 N   0  0  0  0  0  0  0  0  0  0  0  0
   -3.8798   -9.5893   -3.9254 C   0  0  0  0  0  0  0  0  0  0  0  0
   -8.1141  -10.0591   -3.6093 O   0  0  0  0  0  0  0  0  0  0  0  0
   -4.6834   -9.6217   -5.1015 C   0  0  0  0  0  0  0  0  0  0  0  0
   -6.0922   -9.7695   -4.9929 C   0  0  0  0  0  0  0  0  0  0  0  0
   -6.6964   -9.9063   -3.7156 C   0  0  0  0  0  0  0  0  0  0  0  0
   -5.8938   -9.8938   -2.5432 C   0  0  0  0  0  0  0  0  0  0  0  0
   -4.4844   -9.7425   -2.6469 C   0  0  0  0  0  0  0  0  0  0  0  0
   -8.7413   -8.7754   -3.6823 C   0  0  0  0  0  0  0  0  0  0  0  0
  1  4  1  0  0  0  0
  2  3  1  0  0  0  0
  3  5  1  0  0  0  0
  4  6  1  0  0  0  0
  5  8  1  0  0  0  0
  6  7  1  0  0  0  0
  7 10  1  0  0  0  0
  8  9  1  0  0  0  0
  9 12  1  0  0  0  0
  9 13  1  0  0  0  0
 10 11  1  0  0  0  0
 11 14  1  0  0  0  0
 14 15  1  0  0  0  0
 15 16  1  0  0  0  0
 15 17  1  0  0  0  0
 18  2  1  0  0  0  0
 18 20  2  0  0  0  0
 18 24  1  0  0  0  0
 19 25  1  0  0  0  0
 20  1  1  0  0  0  0
 20 21  1  0  0  0  0
 21 22  2  0  0  0  0
 22 19  1  0  0  0  0
 22 23  1  0  0  0  0
 23 24  2  0  0  0  0
M  END
>  <CHROM.1>
-72.62272698,161.94401981,38.71816435,-178.45670153,-165.84248186,165.71294766
158.62555268,-135.18527814,79.21855508,-152.76821427,-179.88069116,133.37010550
116.03486824,161.77593231,-90.31089142,88.79679743,100.50945306,-82.04487757
-2.54713137,-11.22811619,-4.87456730,2.25952383,-0.01045418,0.32427339

>  <Name>
1uud_lig

>  <RI>
0

>  <Rbt.Current_Directory>
/home/itssahil/PROJECTS/Mol_Feturizer/New_Systems/rnas/1uud

>  <Rbt.Executable>
rbdock ($Id: //depot/dev/client3/rdock/2013.1/src/exe/rbdock.cxx#4 $)

>  <Rbt.Library>
libRbt.so (2013.1, Build901 2013/11/27)

>  <Rbt.Parameter_File>
/export/apps/rDock/src/rDock_2013.1_src/data/scripts/dock_solv.prm

>  <Rbt.Receptor>
prm/pocket_docking_6.prm

>  <SCORE>
-19.3428

>  <SCORE.INTER>
-11.2661

>  <SCORE.INTER.CONST>
1

>  <SCORE.INTER.POLAR>
-2.71954

>  <SCORE.INTER.ROT>
18

>  <SCORE.INTER.SOLV>
5.30382

>  <SCORE.INTER.VDW>
-15.8135

>  <SCORE.INTER.norm>
-0.450644

>  <SCORE.INTRA>
-8.07667

>  <SCORE.INTRA.DIHEDRAL>
-4.98118

>  <SCORE.INTRA.DIHEDRAL.0>
30.6762

>  <SCORE.INTRA.POLAR>
0.0288659

>  <SCORE.INTRA.POLAR.0>
-0.0288659

>  <SCORE.INTRA.REPUL>
0

>  <SCORE.INTRA.REPUL.0>
0

>  <SCORE.INTRA.SOLV>
-1.18157

>  <SCORE.INTRA.SOLV.lig_0>
-25.2195

>  <SCORE.INTRA.VDW>
-5.09343

>  <SCORE.INTRA.VDW.0>
4.14263

>  <SCORE.INTRA.norm>
-0.323067

>  <SCORE.RESTR>
0

>  <SCORE.RESTR.CAVITY>
0

>  <SCORE.RESTR.norm>
0

>  <SCORE.SYSTEM>
0

>  <SCORE.SYSTEM.CONST>
0

>  <SCORE.SYSTEM.DIHEDRAL>
0

>  <SCORE.SYSTEM.SOLV>
0

>  <SCORE.SYSTEM.norm>
0

>  <SCORE.heavy>
25

>  <SCORE.norm>
-0.773711

>  <RMSD>
6.062

$$$$
1uud_lig
 OpenBabel11021811413D
libRbt.so/2013.1/901 2013/11/27
 25 25  0  0  0  0  0  0  0  0999 V2000
   -5.4058   -7.2923   -4.5663 C   0  0  0  0  0  0  0  0  0  0  0  0
   -5.1104   -7.2308   -1.6489 O   0  0  0  0  0  0  0  0  0  0  0  0
   -5.3385   -8.5316   -1.0867 C   0  0  0  0  0  0  0  0  0  0  0  0
   -6.0167   -8.1901   -5.5777 N   0  0  0  0  0  0  0  0  0  0  0  0
   -4.8670   -9.6195   -2.0610 C   0  0  0  0  0  0  0  0  0  0  0  0
   -5.2160   -9.4318   -5.6957 C   0  0  0  0  0  0  0  0  0  0  0  0
   -3.9428   -9.1464   -6.5014 C   0  0  0  0  0  0  0  0  0  0  0  0
   -3.6140   -9.4124   -2.3897 N   0  0  0  0  0  0  0  0  0  0  0  0
   -2.6217   -9.8758   -1.6532 C   0  0  0  0  0  0  0  0  0  0  0  0
   -3.7091  -10.2666   -7.5208 C   0  0  0  0  0  0  0  0  0  0  0  0
   -3.2972  -11.5470   -6.7886 C   0  0  0  0  0  0  0  0  0  0  0  0
   -2.2195  -11.1805   -1.7354 N   0  0  0  0  0  0  0  0  0  0  0  0
   -1.9866   -9.0383   -0.7933 N   0  0  0  0  0  0  0  0  0  0  0  0
   -2.9312  -12.4591   -7.6578 N   0  0  0  0  0  0  0  0  0  0  0  0
   -3.5742  -13.6060   -7.7656 C   0  0  0  0  0  0  0  0  0  0  0  0
   -4.7829  -13.6320   -8.3836 N   0  0  0  0  0  0  0  0  0  0  0  0
   -3.0570  -14.7653   -7.2610 N   0  0  0  0  0  0  0  0  0  0  0  0
   -6.3210   -6.7244   -2.2254 C   0  0  0  0  0  0  0  0  0  0  0  0
   -9.9187   -5.1692   -3.9249 O   0  0  0  0  0  0  0  0  0  0  0  0
   -6.5030   -6.7308   -3.6384 C   0  0  0  0  0  0  0  0  0  0  0  0
   -7.6969   -6.2053   -4.2013 C   0  0  0  0  0  0  0  0  0  0  0  0
   -8.7164   -5.6938   -3.3560 C   0  0  0  0  0  0  0  0  0  0  0  0
   -8.5441   -5.7048   -1.9457 C   0  0  0  0  0  0  0  0  0  0  0  0
   -7.3498   -6.2264   -1.3784 C   0  0  0  0  0  0  0  0  0  0  0  0
   -9.6652   -3.8697   -4.4668 C   0  0  0  0  0  0  0  0  0  0  0  0
  1  4  1  0  0  0  0
  2  3  1  0  0  0  0
  3  5  1  0  0  0  0
  4  6  1  0  0  0  0
  5  8  1  0  0  0  0
  6  7  1  0  0  0  0
  7 10  1  0  0  0  0
  8  9  1  0  0  0  0
  9 12  1  0  0  0  0
  9 13  1  0  0  0  0
 10 11  1  0  0  0  0
 11 14  1  0  0  0  0
 14 15  1  0  0  0  0
 15 16  1  0  0  0  0
 15 17  1  0  0  0  0
 18  2  1  0  0  0  0
 18 20  2  0  0  0  0
 18 24  1  0  0  0  0
 19 25  1  0  0  0  0
 20  1  1  0  0  0  0
 20 21  1  0  0  0  0
 21 22  2  0  0  0  0
 22 19  1  0  0  0  0
 22 23  1  0  0  0  0
 23 24  2  0  0  0  0
M  END
>  <CHROM.1>
-134.67249757,98.88539909,54.64974523,-76.32877503,86.25297162,-135.67119919
-70.41214713,79.86228850,-59.15125744,128.53147700,-172.00304341,-118.22654753
75.34634169,-175.38528661,-50.46446291,-103.59617395,133.66657443,-76.34252214
-5.23278312,-8.95028055,-4.20952360,2.31152722,-0.72849002,1.06171069

>  <Name>
1uud_lig

>  <RI>
0

>  <Rbt.Current_Directory>
/home/itssahil/PROJECTS/Mol_Feturizer/New_Systems/rnas/1uud

>  <Rbt.Executable>
rbdock ($Id: //depot/dev/client3/rdock/2013.1/src/exe/rbdock.cxx#4 $)

>  <Rbt.Library>
libRbt.so (2013.1, Build901 2013/11/27)

>  <Rbt.Parameter_File>
/export/apps/rDock/src/rDock_2013.1_src/data/scripts/dock_solv.prm

>  <Rbt.Receptor>
prm/pocket_docking_3.prm

>  <SCORE>
-27.4602

>  <SCORE.INTER>
-23.5184

>  <SCORE.INTER.CONST>
1

>  <SCORE.INTER.POLAR>
-5.21038

>  <SCORE.INTER.ROT>
18

>  <SCORE.INTER.SOLV>
8.7586

>  <SCORE.INTER.VDW>
-16.8306

>  <SCORE.INTER.norm>
-0.940738

>  <SCORE.INTRA>
-3.94178

>  <SCORE.INTRA.DIHEDRAL>
3.09002

>  <SCORE.INTRA.DIHEDRAL.0>
30.6762

>  <SCORE.INTRA.POLAR>
0.0288659

>  <SCORE.INTRA.POLAR.0>
-0.0288659

>  <SCORE.INTRA.REPUL>
0

>  <SCORE.INTRA.REPUL.0>
0

>  <SCORE.INTRA.SOLV>
-0.262809

>  <SCORE.INTRA.SOLV.lig_0>
-25.2195

>  <SCORE.INTRA.VDW>
-5.45353

>  <SCORE.INTRA.VDW.0>
4.14263

>  <SCORE.INTRA.norm>
-0.157671

>  <SCORE.RESTR>
0

>  <SCORE.RESTR.CAVITY>
0

>  <SCORE.RESTR.norm>
0

>  <SCORE.SYSTEM>
0

>  <SCORE.SYSTEM.CONST>
0

>  <SCORE.SYSTEM.DIHEDRAL>
0

>  <SCORE.SYSTEM.SOLV>
0

>  <SCORE.SYSTEM.norm>
0

>  <SCORE.heavy>
25

>  <SCORE.norm>
-1.09841

>  <RMSD>
6.160

$$$$
1uud_lig
 OpenBabel11021811413D
libRbt.so/2013.1/901 2013/11/27
 25 25  0  0  0  0  0  0  0  0999 V2000
   -2.1078   -9.6869   -4.4445 C   0  0  0  0  0  0  0  0  0  0  0  0
   -4.4292  -11.2094   -3.4980 O   0  0  0  0  0  0  0  0  0  0  0  0
   -5.4445  -10.8716   -4.4547 C   0  0  0  0  0  0  0  0  0  0  0  0
   -2.3193   -9.3310   -3.0195 N   0  0  0  0  0  0  0  0  0  0  0  0
   -6.6413  -10.2199   -3.7489 C   0  0  0  0  0  0  0  0  0  0  0  0
   -2.5648   -7.8745   -2.8969 C   0  0  0  0  0  0  0  0  0  0  0  0
   -2.7814   -7.5132   -1.4224 C   0  0  0  0  0  0  0  0  0  0  0  0
   -7.3609   -9.5493   -4.6167 N   0  0  0  0  0  0  0  0  0  0  0  0
   -8.1887   -8.5947   -4.2355 C   0  0  0  0  0  0  0  0  0  0  0  0
   -1.4286   -7.3726   -0.7161 C   0  0  0  0  0  0  0  0  0  0  0  0
   -1.6495   -6.8968    0.7226 C   0  0  0  0  0  0  0  0  0  0  0  0
   -9.3357   -8.8765   -3.5459 N   0  0  0  0  0  0  0  0  0  0  0  0
   -7.8953   -7.3032   -4.5362 N   0  0  0  0  0  0  0  0  0  0  0  0
   -0.5356   -6.3966    1.2024 N   0  0  0  0  0  0  0  0  0  0  0  0
   -0.5364   -5.5815    2.2397 C   0  0  0  0  0  0  0  0  0  0  0  0
   -0.9353   -6.0503    3.4500 N   0  0  0  0  0  0  0  0  0  0  0  0
   -0.1553   -4.2749    2.1222 N   0  0  0  0  0  0  0  0  0  0  0  0
   -3.3621  -11.9175   -4.1418 C   0  0  0  0  0  0  0  0  0  0  0  0
   -0.2136  -14.0420   -6.0972 O   0  0  0  0  0  0  0  0  0  0  0  0
   -2.2186  -11.2156   -4.6211 C   0  0  0  0  0  0  0  0  0  0  0  0
   -1.1771  -11.9235   -5.2785 C   0  0  0  0  0  0  0  0  0  0  0  0
   -1.2652  -13.3313   -5.4388 C   0  0  0  0  0  0  0  0  0  0  0  0
   -2.3962  -14.0349   -4.9438 C   0  0  0  0  0  0  0  0  0  0  0  0
   -3.4422  -13.3302   -4.2886 C   0  0  0  0  0  0  0  0  0  0  0  0
    0.5266  -14.8009   -5.1365 C   0  0  0  0  0  0  0  0  0  0  0  0
  1  4  1  0  0  0  0
  2  3  1  0  0  0  0
  3  5  1  0  0  0  0
  4  6  1  0  0  0  0
  5  8  1  0  0  0  0
  6  7  1  0  0  0  0
  7 10  1  0  0  0  0
  8  9  1  0  0  0  0
  9 12  1  0  0  0  0
  9 13  1  0  0  0  0
 10 11  1  0  0  0  0
 11 14  1  0  0  0  0
 14 15  1  0  0  0  0
 15 16  1  0  0  0  0
 15 17  1  0  0  0  0
 18  2  1  0  0  0  0
 18 20  2  0  0  0  0
 18 24  1  0  0  0  0
 19 25  1  0  0  0  0
 20  1  1  0  0  0  0
 20 21  1  0  0  0  0
 21 22  2  0  0  0  0
 22 19  1  0  0  0  0
 22 23  1  0  0  0  0
 23 24  2  0  0  0  0
M  END
>  <CHROM.1>
-165.36618974,175.19804783,160.49265822,-179.95222839,-159.56014239,81.45795689
175.24543527,-69.71050623,105.10100283,96.38182276,-161.26223774,159.95183114
65.38733954,55.42858185,-145.27367827,93.82000787,52.80453714,107.89496553
-3.14095053,-9.59848116,-2.78652467,-1.83301155,-0.30679038,0.71302429

>  <Name>
1uud_lig

>  <RI>
0

>  <Rbt.Current_Directory>
/home/itssahil/PROJECTS/Mol_Feturizer/New_Systems/rnas/1uud

>  <Rbt.Executable>
rbdock ($Id: //depot/dev/client3/rdock/2013.1/src/exe/rbdock.cxx#4 $)

>  <Rbt.Library>
libRbt.so (2013.1, Build901 2013/11/27)

>  <Rbt.Parameter_File>
/export/apps/rDock/src/rDock_2013.1_src/data/scripts/dock_solv.prm

>  <Rbt.Receptor>
prm/pocket_docking_7.prm

>  <SCORE>
-34.7241

>  <SCORE.INTER>
-23.5267

>  <SCORE.INTER.CONST>
1

>  <SCORE.INTER.POLAR>
-3.96315

>  <SCORE.INTER.ROT>
18

>  <SCORE.INTER.SOLV>
10.9586

>  <SCORE.INTER.VDW>
-21.7268

>  <SCORE.INTER.norm>
-0.941068

>  <SCORE.INTRA>
-11.1974

>  <SCORE.INTRA.DIHEDRAL>
-6.41644

>  <SCORE.INTRA.DIHEDRAL.0>
30.6762

>  <SCORE.INTRA.POLAR>
-0.631163

>  <SCORE.INTRA.POLAR.0>
-0.0288659

>  <SCORE.INTRA.REPUL>
0

>  <SCORE.INTRA.REPUL.0>
0

>  <SCORE.INTRA.SOLV>
-1.38517

>  <SCORE.INTRA.SOLV.lig_0>
-25.2195

>  <SCORE.INTRA.VDW>
-5.15062

>  <SCORE.INTRA.VDW.0>
4.14263

>  <SCORE.INTRA.norm>
-0.447895

>  <SCORE.RESTR>
0

>  <SCORE.RESTR.CAVITY>
0

>  <SCORE.RESTR.norm>
0

>  <SCORE.SYSTEM>
0

>  <SCORE.SYSTEM.CONST>
0

>  <SCORE.SYSTEM.DIHEDRAL>
0

>  <SCORE.SYSTEM.SOLV>
0

>  <SCORE.SYSTEM.norm>
0

>  <SCORE.heavy>
25

>  <SCORE.norm>
-1.38896

>  <RMSD>
6.162

$$$$
1uud_lig
 OpenBabel11021811413D
libRbt.so/2013.1/901 2013/11/27
 25 25  0  0  0  0  0  0  0  0999 V2000
   -1.3961   -9.8999   -5.0999 C   0  0  0  0  0  0  0  0  0  0  0  0
   -4.1495  -10.7482   -5.6489 O   0  0  0  0  0  0  0  0  0  0  0  0
   -5.0959  -10.6140   -4.5780 C   0  0  0  0  0  0  0  0  0  0  0  0
   -0.7928   -9.5145   -3.8000 N   0  0  0  0  0  0  0  0  0  0  0  0
   -6.1255   -9.5270   -4.9145 C   0  0  0  0  0  0  0  0  0  0  0  0
   -0.7155   -8.0377   -3.7006 C   0  0  0  0  0  0  0  0  0  0  0  0
   -0.4097   -7.6366   -2.2524 C   0  0  0  0  0  0  0  0  0  0  0  0
   -7.1074   -9.5571   -4.0451 N   0  0  0  0  0  0  0  0  0  0  0  0
   -8.3393   -9.2259   -4.3838 C   0  0  0  0  0  0  0  0  0  0  0  0
   -1.6232   -7.9292   -1.3633 C   0  0  0  0  0  0  0  0  0  0  0  0
   -1.2727   -7.6269    0.0965 C   0  0  0  0  0  0  0  0  0  0  0  0
   -9.2488   -8.8078   -3.4518 N   0  0  0  0  0  0  0  0  0  0  0  0
   -8.7124   -9.3036   -5.6872 N   0  0  0  0  0  0  0  0  0  0  0  0
   -1.1403   -6.3324    0.2639 N   0  0  0  0  0  0  0  0  0  0  0  0
   -0.1608   -5.8276    0.9893 C   0  0  0  0  0  0  0  0  0  0  0  0
    0.9644   -5.3887    0.3690 N   0  0  0  0  0  0  0  0  0  0  0  0
   -0.2483   -5.7460    2.3501 N   0  0  0  0  0  0  0  0  0  0  0  0
   -3.1766  -11.7493   -5.3236 C   0  0  0  0  0  0  0  0  0  0  0  0
   -0.2832  -14.7534   -4.3998 O   0  0  0  0  0  0  0  0  0  0  0  0
   -1.8268  -11.3807   -5.0552 C   0  0  0  0  0  0  0  0  0  0  0  0
   -0.8649  -12.3826   -4.7566 C   0  0  0  0  0  0  0  0  0  0  0  0
   -1.2524  -13.7474   -4.7046 C   0  0  0  0  0  0  0  0  0  0  0  0
   -2.6025  -14.1141   -4.9530 C   0  0  0  0  0  0  0  0  0  0  0  0
   -3.5674  -13.1154   -5.2556 C   0  0  0  0  0  0  0  0  0  0  0  0
    0.6748  -14.8325   -5.4593 C   0  0  0  0  0  0  0  0  0  0  0  0
  1  4  1  0  0  0  0
  2  3  1  0  0  0  0
  3  5  1  0  0  0  0
  4  6  1  0  0  0  0
  5  8  1  0  0  0  0
  6  7  1  0  0  0  0
  7 10  1  0  0  0  0
  8  9  1  0  0  0  0
  9 12  1  0  0  0  0
  9 13  1  0  0  0  0
 10 11  1  0  0  0  0
 11 14  1  0  0  0  0
 14 15  1  0  0  0  0
 15 16  1  0  0  0  0
 15 17  1  0  0  0  0
 18  2  1  0  0  0  0
 18 20  2  0  0  0  0
 18 24  1  0  0  0  0
 19 25  1  0  0  0  0
 20  1  1  0  0  0  0
 20 21  1  0  0  0  0
 21 22  2  0  0  0  0
 22 19  1  0  0  0  0
 22 23  1  0  0  0  0
 23 24  2  0  0  0  0
M  END
>  <CHROM.1>
-164.78637429,179.10179694,169.70339131,166.70024873,-148.33510507,-69.77556386
175.68406647,-157.02114273,-163.65353996,-36.24822087,69.69343381,-137.60212563
96.90110552,-157.85834598,-109.28959113,-110.68909126,123.36995000,-66.62273009
-2.76207460,-9.83054910,-3.33225133,-2.12946406,-0.26286094,0.63607139

>  <Name>
1uud_lig

>  <RI>
0

>  <Rbt.Current_Directory>
/home/itssahil/PROJECTS/Mol_Feturizer/New_Systems/rnas/1uud

>  <Rbt.Executable>
rbdock ($Id: //depot/dev/client3/rdock/2013.1/src/exe/rbdock.cxx#4 $)

>  <Rbt.Library>
libRbt.so (2013.1, Build901 2013/11/27)

>  <Rbt.Parameter_File>
/export/apps/rDock/src/rDock_2013.1_src/data/scripts/dock_solv.prm

>  <Rbt.Receptor>
prm/pocket_docking_5.prm

>  <SCORE>
-25.6949

>  <SCORE.INTER>
-16.8923

>  <SCORE.INTER.CONST>
1

>  <SCORE.INTER.POLAR>
-3.51398

>  <SCORE.INTER.ROT>
18

>  <SCORE.INTER.SOLV>
11.7381

>  <SCORE.INTER.VDW>
-19.061

>  <SCORE.INTER.norm>
-0.675693

>  <SCORE.INTRA>
-8.8236

>  <SCORE.INTRA.DIHEDRAL>
-9.94245

>  <SCORE.INTRA.DIHEDRAL.0>
30.6762

>  <SCORE.INTRA.POLAR>
0.0288659

>  <SCORE.INTRA.POLAR.0>
-0.0288659

>  <SCORE.INTRA.REPUL>
0

>  <SCORE.INTRA.REPUL.0>
0

>  <SCORE.INTRA.SOLV>
-1.23878

>  <SCORE.INTRA.SOLV.lig_0>
-25.2195

>  <SCORE.INTRA.VDW>
-3.33113

>  <SCORE.INTRA.VDW.0>
4.14263

>  <SCORE.INTRA.norm>
-0.352944

>  <SCORE.RESTR>
0.0210494

>  <SCORE.RESTR.CAVITY>
0.0210494

>  <SCORE.RESTR.norm>
0.000841976

>  <SCORE.SYSTEM>
0

>  <SCORE.SYSTEM.CONST>
0

>  <SCORE.SYSTEM.DIHEDRAL>
0

>  <SCORE.SYSTEM.SOLV>
0

>  <SCORE.SYSTEM.norm>
0

>  <SCORE.heavy>
25

>  <SCORE.norm>
-1.0278

>  <RMSD>
6.167

$$$$
1uud_lig
 OpenBabel11021811413D
libRbt.so/2013.1/901 2013/11/27
 25 25  0  0  0  0  0  0  0  0999 V2000
   -1.6695  -10.0283   -2.2902 C   0  0  0  0  0  0  0  0  0  0  0  0
   -4.4323   -9.1691   -2.7713 O   0  0  0  0  0  0  0  0  0  0  0  0
   -5.3395   -9.3750   -1.6782 C   0  0  0  0  0  0  0  0  0  0  0  0
   -1.8856   -8.5909   -2.5891 N   0  0  0  0  0  0  0  0  0  0  0  0
   -6.7129   -8.7758   -2.0101 C   0  0  0  0  0  0  0  0  0  0  0  0
   -0.6466   -8.0034   -3.1517 C   0  0  0  0  0  0  0  0  0  0  0  0
   -0.7542   -6.4737   -3.1424 C   0  0  0  0  0  0  0  0  0  0  0  0
   -7.2917   -9.4805   -2.9530 N   0  0  0  0  0  0  0  0  0  0  0  0
   -8.1749   -8.9424   -3.7729 C   0  0  0  0  0  0  0  0  0  0  0  0
   -0.8347   -5.9657   -1.6988 C   0  0  0  0  0  0  0  0  0  0  0  0
   -0.7725   -4.4355   -1.6906 C   0  0  0  0  0  0  0  0  0  0  0  0
   -9.5046   -8.8901   -3.4569 N   0  0  0  0  0  0  0  0  0  0  0  0
   -7.7537   -8.4301   -4.9580 N   0  0  0  0  0  0  0  0  0  0  0  0
    0.3778   -4.0339   -2.1770 N   0  0  0  0  0  0  0  0  0  0  0  0
    1.3840   -3.7087   -1.3881 C   0  0  0  0  0  0  0  0  0  0  0  0
    2.2894   -4.6599   -1.0432 N   0  0  0  0  0  0  0  0  0  0  0  0
    1.5301   -2.4403   -0.9023 N   0  0  0  0  0  0  0  0  0  0  0  0
   -4.0054  -10.4307   -3.3012 C   0  0  0  0  0  0  0  0  0  0  0  0
   -2.7415  -14.1736   -4.9271 O   0  0  0  0  0  0  0  0  0  0  0  0
   -2.6703  -10.8833   -3.0949 C   0  0  0  0  0  0  0  0  0  0  0  0
   -2.2504  -12.1244   -3.6440 C   0  0  0  0  0  0  0  0  0  0  0  0
   -3.1656  -12.9229   -4.3790 C   0  0  0  0  0  0  0  0  0  0  0  0
   -4.5028  -12.4814   -4.5686 C   0  0  0  0  0  0  0  0  0  0  0  0
   -4.9263  -11.2388   -4.0242 C   0  0  0  0  0  0  0  0  0  0  0  0
   -2.2320  -13.9697   -6.2482 C   0  0  0  0  0  0  0  0  0  0  0  0
  1  4  1  0  0  0  0
  2  3  1  0  0  0  0
  3  5  1  0  0  0  0
  4  6  1  0  0  0  0
  5  8  1  0  0  0  0
  6  7  1  0  0  0  0
  7 10  1  0  0  0  0
  8  9  1  0  0  0  0
  9 12  1  0  0  0  0
  9 13  1  0  0  0  0
 10 11  1  0  0  0  0
 11 14  1  0  0  0  0
 14 15  1  0  0  0  0
 15 16  1  0  0  0  0
 15 17  1  0  0  0  0
 18  2  1  0  0  0  0
 18 20  2  0  0  0  0
 18 24  1  0  0  0  0
 19 25  1  0  0  0  0
 20  1  1  0  0  0  0
 20 21  1  0  0  0  0
 21 22  2  0  0  0  0
 22 19  1  0  0  0  0
 22 23  1  0  0  0  0
 23 24  2  0  0  0  0
M  END
>  <CHROM.1>
-120.50993421,-117.84197854,69.50629337,-166.42188250,-153.02383299,64.33607035
173.26324382,-87.57005063,-126.87832049,9.66817037,-62.65244707,-97.38765317
91.63340229,178.31971296,3.29992930,-108.93132736,-37.40972824,-90.08562708
-3.06201693,-8.70094710,-3.02434945,-0.84823249,0.02930690,-2.81298000

>  <Name>
1uud_lig

>  <RI>
0

>  <Rbt.Current_Directory>
/home/itssahil/PROJECTS/Mol_Feturizer/New_Systems/rnas/1uud

>  <Rbt.Executable>
rbdock ($Id: //depot/dev/client3/rdock/2013.1/src/exe/rbdock.cxx#4 $)

>  <Rbt.Library>
libRbt.so (2013.1, Build901 2013/11/27)

>  <Rbt.Parameter_File>
/export/apps/rDock/src/rDock_2013.1_src/data/scripts/dock_solv.prm

>  <Rbt.Receptor>
prm/pocket_docking_8.prm

>  <SCORE>
-20.4196

>  <SCORE.INTER>
-14.4927

>  <SCORE.INTER.CONST>
1

>  <SCORE.INTER.POLAR>
-3.63274

>  <SCORE.INTER.ROT>
18

>  <SCORE.INTER.SOLV>
9.16502

>  <SCORE.INTER.VDW>
-16.2077

>  <SCORE.INTER.norm>
-0.57971

>  <SCORE.INTRA>
-5.92688

>  <SCORE.INTRA.DIHEDRAL>
0.538104

>  <SCORE.INTRA.DIHEDRAL.0>
30.6762

>  <SCORE.INTRA.POLAR>
-0.331981

>  <SCORE.INTRA.POLAR.0>
-0.0288659

>  <SCORE.INTRA.REPUL>
0

>  <SCORE.INTRA.REPUL.0>
0

>  <SCORE.INTRA.SOLV>
-0.00699932

>  <SCORE.INTRA.SOLV.lig_0>
-25.2195

>  <SCORE.INTRA.VDW>
-5.0637

>  <SCORE.INTRA.VDW.0>
4.14263

>  <SCORE.INTRA.norm>
-0.237075

>  <SCORE.RESTR>
0

>  <SCORE.RESTR.CAVITY>
0

>  <SCORE.RESTR.norm>
0

>  <SCORE.SYSTEM>
0

>  <SCORE.SYSTEM.CONST>
0

>  <SCORE.SYSTEM.DIHEDRAL>
0

>  <SCORE.SYSTEM.SOLV>
0

>  <SCORE.SYSTEM.norm>
0

>  <SCORE.heavy>
25

>  <SCORE.norm>
-0.816785

>  <RMSD>
6.177

$$$$
1uud_lig
 OpenBabel11021811413D
libRbt.so/2013.1/901 2013/11/27
 25 25  0  0  0  0  0  0  0  0999 V2000
   -5.1531   -7.3475   -4.5961 C   0  0  0  0  0  0  0  0  0  0  0  0
   -5.3360   -8.1709   -1.7870 O   0  0  0  0  0  0  0  0  0  0  0  0
   -4.2025   -7.3108   -1.5982 C   0  0  0  0  0  0  0  0  0  0  0  0
   -5.5810   -8.1833   -5.7452 N   0  0  0  0  0  0  0  0  0  0  0  0
   -3.0443   -8.0928   -0.9641 C   0  0  0  0  0  0  0  0  0  0  0  0
   -4.3970   -8.8135   -6.3760 C   0  0  0  0  0  0  0  0  0  0  0  0
   -4.5375  -10.3395   -6.3202 C   0  0  0  0  0  0  0  0  0  0  0  0
   -3.3490   -9.3670   -0.8975 N   0  0  0  0  0  0  0  0  0  0  0  0
   -2.7433  -10.2619   -1.6553 C   0  0  0  0  0  0  0  0  0  0  0  0
   -3.2168  -10.9998   -6.7308 C   0  0  0  0  0  0  0  0  0  0  0  0
   -3.3135  -12.5132   -6.5177 C   0  0  0  0  0  0  0  0  0  0  0  0
   -3.4099  -10.9278   -2.6467 N   0  0  0  0  0  0  0  0  0  0  0  0
   -1.4284  -10.5283   -1.4448 N   0  0  0  0  0  0  0  0  0  0  0  0
   -3.8660  -13.0762   -7.5661 N   0  0  0  0  0  0  0  0  0  0  0  0
   -3.5483  -14.3014   -7.9383 C   0  0  0  0  0  0  0  0  0  0  0  0
   -3.4723  -14.5926   -9.2623 N   0  0  0  0  0  0  0  0  0  0  0  0
   -3.3043  -15.2857   -7.0230 N   0  0  0  0  0  0  0  0  0  0  0  0
   -6.4247   -7.4328   -2.3564 C   0  0  0  0  0  0  0  0  0  0  0  0
   -9.6612   -5.1954   -4.0206 O   0  0  0  0  0  0  0  0  0  0  0  0
   -6.3740   -7.0090   -3.7157 C   0  0  0  0  0  0  0  0  0  0  0  0
   -7.4480   -6.2578   -4.2640 C   0  0  0  0  0  0  0  0  0  0  0  0
   -8.5799   -5.9480   -3.4651 C   0  0  0  0  0  0  0  0  0  0  0  0
   -8.6400   -6.3870   -2.1150 C   0  0  0  0  0  0  0  0  0  0  0  0
   -7.5663   -7.1357   -1.5613 C   0  0  0  0  0  0  0  0  0  0  0  0
   -9.1997   -3.8915   -4.3860 C   0  0  0  0  0  0  0  0  0  0  0  0
  1  4  1  0  0  0  0
  2  3  1  0  0  0  0
  3  5  1  0  0  0  0
  4  6  1  0  0  0  0
  5  8  1  0  0  0  0
  6  7  1  0  0  0  0
  7 10  1  0  0  0  0
  8  9  1  0  0  0  0
  9 12  1  0  0  0  0
  9 13  1  0  0  0  0
 10 11  1  0  0  0  0
 11 14  1  0  0  0  0
 14 15  1  0  0  0  0
 15 16  1  0  0  0  0
 15 17  1  0  0  0  0
 18  2  1  0  0  0  0
 18 20  2  0  0  0  0
 18 24  1  0  0  0  0
 19 25  1  0  0  0  0
 20  1  1  0  0  0  0
 20 21  1  0  0  0  0
 21 22  2  0  0  0  0
 22 19  1  0  0  0  0
 22 23  1  0  0  0  0
 23 24  2  0  0  0  0
M  END
>  <CHROM.1>
-164.62396733,178.93733449,6.77022209,120.15563473,110.18928880,-169.65576263
173.50704023,-112.33313495,70.70613319,174.94881972,84.99479543,148.79005245
-142.78644717,111.66809708,33.90324686,71.70961271,118.72363327,-63.10566789
-5.05318026,-9.26901990,-4.24340656,2.22930008,-0.73501473,0.99006263

>  <Name>
1uud_lig

>  <RI>
0

>  <Rbt.Current_Directory>
/home/itssahil/PROJECTS/Mol_Feturizer/New_Systems/rnas/1uud

>  <Rbt.Executable>
rbdock ($Id: //depot/dev/client3/rdock/2013.1/src/exe/rbdock.cxx#4 $)

>  <Rbt.Library>
libRbt.so (2013.1, Build901 2013/11/27)

>  <Rbt.Parameter_File>
/export/apps/rDock/src/rDock_2013.1_src/data/scripts/dock_solv.prm

>  <Rbt.Receptor>
prm/pocket_docking_3.prm

>  <SCORE>
-21.8398

>  <SCORE.INTER>
-17.7425

>  <SCORE.INTER.CONST>
1

>  <SCORE.INTER.POLAR>
-4.15357

>  <SCORE.INTER.ROT>
18

>  <SCORE.INTER.SOLV>
9.54083

>  <SCORE.INTER.VDW>
-16.7634

>  <SCORE.INTER.norm>
-0.709699

>  <SCORE.INTRA>
-4.25963

>  <SCORE.INTRA.DIHEDRAL>
-0.125381

>  <SCORE.INTRA.DIHEDRAL.0>
30.6762

>  <SCORE.INTRA.POLAR>
0.0288659

>  <SCORE.INTRA.POLAR.0>
-0.0288659

>  <SCORE.INTRA.REPUL>
0

>  <SCORE.INTRA.REPUL.0>
0

>  <SCORE.INTRA.SOLV>
-0.386347

>  <SCORE.INTRA.SOLV.lig_0>
-25.2195

>  <SCORE.INTRA.VDW>
-4.10191

>  <SCORE.INTRA.VDW.0>
4.14263

>  <SCORE.INTRA.norm>
-0.170385

>  <SCORE.RESTR>
0.162286

>  <SCORE.RESTR.CAVITY>
0.162286

>  <SCORE.RESTR.norm>
0.00649143

>  <SCORE.SYSTEM>
0

>  <SCORE.SYSTEM.CONST>
0

>  <SCORE.SYSTEM.DIHEDRAL>
0

>  <SCORE.SYSTEM.SOLV>
0

>  <SCORE.SYSTEM.norm>
0

>  <SCORE.heavy>
25

>  <SCORE.norm>
-0.873593

>  <RMSD>
6.184

$$$$
1uud_lig
 OpenBabel11021811413D
libRbt.so/2013.1/901 2013/11/27
 25 25  0  0  0  0  0  0  0  0999 V2000
   -1.6138  -10.2792   -4.9148 C   0  0  0  0  0  0  0  0  0  0  0  0
   -4.2066  -11.6464   -4.8090 O   0  0  0  0  0  0  0  0  0  0  0  0
   -4.7991  -10.6436   -5.6478 C   0  0  0  0  0  0  0  0  0  0  0  0
   -0.3207  -10.2881   -4.1868 N   0  0  0  0  0  0  0  0  0  0  0  0
   -6.1233  -10.1605   -5.0409 C   0  0  0  0  0  0  0  0  0  0  0  0
    0.0385   -8.9075   -3.7847 C   0  0  0  0  0  0  0  0  0  0  0  0
    0.4697   -8.8978   -2.3131 C   0  0  0  0  0  0  0  0  0  0  0  0
   -6.0056   -8.9152   -4.6457 N   0  0  0  0  0  0  0  0  0  0  0  0
   -6.5026   -7.9173   -5.3522 C   0  0  0  0  0  0  0  0  0  0  0  0
    0.4785   -7.4602   -1.7820 C   0  0  0  0  0  0  0  0  0  0  0  0
    0.9156   -7.4596   -0.3143 C   0  0  0  0  0  0  0  0  0  0  0  0
   -5.7794   -6.7814   -5.5917 N   0  0  0  0  0  0  0  0  0  0  0  0
   -7.7614   -8.0203   -5.8513 N   0  0  0  0  0  0  0  0  0  0  0  0
    0.7490   -6.2640    0.1995 N   0  0  0  0  0  0  0  0  0  0  0  0
    0.1983   -6.0943    1.3863 C   0  0  0  0  0  0  0  0  0  0  0  0
    0.5963   -5.0502    2.1578 N   0  0  0  0  0  0  0  0  0  0  0  0
   -0.7549   -6.9501    1.8607 N   0  0  0  0  0  0  0  0  0  0  0  0
   -3.1230  -12.2855   -5.4959 C   0  0  0  0  0  0  0  0  0  0  0  0
    0.0803  -14.1880   -7.5863 O   0  0  0  0  0  0  0  0  0  0  0  0
   -1.8485  -11.6535   -5.5754 C   0  0  0  0  0  0  0  0  0  0  0  0
   -0.7876  -12.2847   -6.2784 C   0  0  0  0  0  0  0  0  0  0  0  0
   -0.9904  -13.5531   -6.8828 C   0  0  0  0  0  0  0  0  0  0  0  0
   -2.2555  -14.1931   -6.7874 C   0  0  0  0  0  0  0  0  0  0  0  0
   -3.3208  -13.5638   -6.0881 C   0  0  0  0  0  0  0  0  0  0  0  0
   -0.0067  -13.8712   -8.9786 C   0  0  0  0  0  0  0  0  0  0  0  0
  1  4  1  0  0  0  0
  2  3  1  0  0  0  0
  3  5  1  0  0  0  0
  4  6  1  0  0  0  0
  5  8  1  0  0  0  0
  6  7  1  0  0  0  0
  7 10  1  0  0  0  0
  8  9  1  0  0  0  0
  9 12  1  0  0  0  0
  9 13  1  0  0  0  0
 10 11  1  0  0  0  0
 11 14  1  0  0  0  0
 14 15  1  0  0  0  0
 15 16  1  0  0  0  0
 15 17  1  0  0  0  0
 18  2  1  0  0  0  0
 18 20  2  0  0  0  0
 18 24  1  0  0  0  0
 19 25  1  0  0  0  0
 20  1  1  0  0  0  0
 20 21  1  0  0  0  0
 21 22  2  0  0  0  0
 22 19  1  0  0  0  0
 22 23  1  0  0  0  0
 23 24  2  0  0  0  0
M  END
>  <CHROM.1>
168.69194380,168.46125867,112.14387431,132.79784617,102.47894301,-164.84847556
-179.76953687,-134.54392415,122.52210111,-101.51331228,-171.31396069,134.85693187
147.99791836,-148.76351701,-59.38103987,79.56684853,135.47209139,-94.07004630
-2.11715115,-9.79614067,-4.02707860,-1.90283136,-0.34440215,0.77201033

>  <Name>
1uud_lig

>  <RI>
0

>  <Rbt.Current_Directory>
/home/itssahil/PROJECTS/Mol_Feturizer/New_Systems/rnas/1uud

>  <Rbt.Executable>
rbdock ($Id: //depot/dev/client3/rdock/2013.1/src/exe/rbdock.cxx#4 $)

>  <Rbt.Library>
libRbt.so (2013.1, Build901 2013/11/27)

>  <Rbt.Parameter_File>
/export/apps/rDock/src/rDock_2013.1_src/data/scripts/dock_solv.prm

>  <Rbt.Receptor>
prm/pocket_docking_6.prm

>  <SCORE>
-26.0079

>  <SCORE.INTER>
-20.908

>  <SCORE.INTER.CONST>
1

>  <SCORE.INTER.POLAR>
-4.49074

>  <SCORE.INTER.ROT>
18

>  <SCORE.INTER.SOLV>
9.69839

>  <SCORE.INTER.VDW>
-17.8023

>  <SCORE.INTER.norm>
-0.836318

>  <SCORE.INTRA>
-5.09992

>  <SCORE.INTRA.DIHEDRAL>
-0.402082

>  <SCORE.INTRA.DIHEDRAL.0>
30.6762

>  <SCORE.INTRA.POLAR>
0.0288659

>  <SCORE.INTRA.POLAR.0>
-0.0288659

>  <SCORE.INTRA.REPUL>
0

>  <SCORE.INTRA.REPUL.0>
0

>  <SCORE.INTRA.SOLV>
-1.4306

>  <SCORE.INTRA.SOLV.lig_0>
-25.2195

>  <SCORE.INTRA.VDW>
-4.28172

>  <SCORE.INTRA.VDW.0>
4.14263

>  <SCORE.INTRA.norm>
-0.203997

>  <SCORE.RESTR>
0

>  <SCORE.RESTR.CAVITY>
0

>  <SCORE.RESTR.norm>
0

>  <SCORE.SYSTEM>
0

>  <SCORE.SYSTEM.CONST>
0

>  <SCORE.SYSTEM.DIHEDRAL>
0

>  <SCORE.SYSTEM.SOLV>
0

>  <SCORE.SYSTEM.norm>
0

>  <SCORE.heavy>
25

>  <SCORE.norm>
-1.04032

>  <RMSD>
6.190

$$$$
1uud_lig
 OpenBabel11021811413D
libRbt.so/2013.1/901 2013/11/27
 25 25  0  0  0  0  0  0  0  0999 V2000
   -4.9477   -8.1036   -4.4770 C   0  0  0  0  0  0  0  0  0  0  0  0
   -6.4378   -9.4586   -2.3448 O   0  0  0  0  0  0  0  0  0  0  0  0
   -6.0393   -9.2450   -0.9825 C   0  0  0  0  0  0  0  0  0  0  0  0
   -5.1796   -9.4024   -5.1564 N   0  0  0  0  0  0  0  0  0  0  0  0
   -4.5537   -8.8656   -0.9188 C   0  0  0  0  0  0  0  0  0  0  0  0
   -4.1658   -9.6012   -6.2190 C   0  0  0  0  0  0  0  0  0  0  0  0
   -4.3296  -10.9985   -6.8293 C   0  0  0  0  0  0  0  0  0  0  0  0
   -3.8223   -9.9457   -0.7802 N   0  0  0  0  0  0  0  0  0  0  0  0
   -2.6469  -10.0633   -1.3691 C   0  0  0  0  0  0  0  0  0  0  0  0
   -3.6173  -11.0620   -8.1847 C   0  0  0  0  0  0  0  0  0  0  0  0
   -3.5784  -12.5124   -8.6748 C   0  0  0  0  0  0  0  0  0  0  0  0
   -1.7886   -9.0032   -1.4696 N   0  0  0  0  0  0  0  0  0  0  0  0
   -2.2824  -11.2641   -1.8882 N   0  0  0  0  0  0  0  0  0  0  0  0
   -2.6149  -13.1625   -8.0662 N   0  0  0  0  0  0  0  0  0  0  0  0
   -2.7215  -14.4465   -7.7830 C   0  0  0  0  0  0  0  0  0  0  0  0
   -3.8825  -14.9145   -7.2570 N   0  0  0  0  0  0  0  0  0  0  0  0
   -1.6879  -15.3138   -7.9970 N   0  0  0  0  0  0  0  0  0  0  0  0
   -6.9769   -8.2500   -2.8954 C   0  0  0  0  0  0  0  0  0  0  0  0
   -8.5794   -4.6256   -4.4910 O   0  0  0  0  0  0  0  0  0  0  0  0
   -6.2825   -7.5574   -3.9289 C   0  0  0  0  0  0  0  0  0  0  0  0
   -6.8135   -6.3479   -4.4517 C   0  0  0  0  0  0  0  0  0  0  0  0
   -8.0451   -5.8410   -3.9602 C   0  0  0  0  0  0  0  0  0  0  0  0
   -8.7482   -6.5413   -2.9432 C   0  0  0  0  0  0  0  0  0  0  0  0
   -8.2189   -7.7498   -2.4147 C   0  0  0  0  0  0  0  0  0  0  0  0
   -7.9686   -3.5084   -3.8387 C   0  0  0  0  0  0  0  0  0  0  0  0
  1  4  1  0  0  0  0
  2  3  1  0  0  0  0
  3  5  1  0  0  0  0
  4  6  1  0  0  0  0
  5  8  1  0  0  0  0
  6  7  1  0  0  0  0
  7 10  1  0  0  0  0
  8  9  1  0  0  0  0
  9 12  1  0  0  0  0
  9 13  1  0  0  0  0
 10 11  1  0  0  0  0
 11 14  1  0  0  0  0
 14 15  1  0  0  0  0
 15 16  1  0  0  0  0
 15 17  1  0  0  0  0
 18  2  1  0  0  0  0
 18 20  2  0  0  0  0
 18 24  1  0  0  0  0
 19 25  1  0  0  0  0
 20  1  1  0  0  0  0
 20 21  1  0  0  0  0
 21 22  2  0  0  0  0
 22 19  1  0  0  0  0
 22 23  1  0  0  0  0
 23 24  2  0  0  0  0
M  END
>  <CHROM.1>
151.68516251,-93.45035612,-90.97712712,174.80057303,143.39556926,162.21908816
170.40157153,38.45288837,139.71259679,-164.11153551,-79.48336490,147.14265050
-44.34366822,55.21794748,-6.06488848,112.28005541,65.17267726,-82.89739949
-4.95731772,-9.59912729,-4.39074965,2.36769191,-0.85246407,1.20334961

>  <Name>
1uud_lig

>  <RI>
0

>  <Rbt.Current_Directory>
/home/itssahil/PROJECTS/Mol_Feturizer/New_Systems/rnas/1uud

>  <Rbt.Executable>
rbdock ($Id: //depot/dev/client3/rdock/2013.1/src/exe/rbdock.cxx#4 $)

>  <Rbt.Library>
libRbt.so (2013.1, Build901 2013/11/27)

>  <Rbt.Parameter_File>
/export/apps/rDock/src/rDock_2013.1_src/data/scripts/dock_solv.prm

>  <Rbt.Receptor>
prm/pocket_docking_3.prm

>  <SCORE>
-23.0814

>  <SCORE.INTER>
-17.8558

>  <SCORE.INTER.CONST>
1

>  <SCORE.INTER.POLAR>
-4.12687

>  <SCORE.INTER.ROT>
18

>  <SCORE.INTER.SOLV>
6.92429

>  <SCORE.INTER.VDW>
-16.0558

>  <SCORE.INTER.norm>
-0.714234

>  <SCORE.INTRA>
-5.35449

>  <SCORE.INTRA.DIHEDRAL>
0.115807

>  <SCORE.INTRA.DIHEDRAL.0>
30.6762

>  <SCORE.INTRA.POLAR>
0.0288659

>  <SCORE.INTRA.POLAR.0>
-0.0288659

>  <SCORE.INTRA.REPUL>
0

>  <SCORE.INTRA.REPUL.0>
0

>  <SCORE.INTRA.SOLV>
-0.8205

>  <SCORE.INTRA.SOLV.lig_0>
-25.2195

>  <SCORE.INTRA.VDW>
-5.10029

>  <SCORE.INTRA.VDW.0>
4.14263

>  <SCORE.INTRA.norm>
-0.21418

>  <SCORE.RESTR>
0.12889

>  <SCORE.RESTR.CAVITY>
0.12889

>  <SCORE.RESTR.norm>
0.0051556

>  <SCORE.SYSTEM>
0

>  <SCORE.SYSTEM.CONST>
0

>  <SCORE.SYSTEM.DIHEDRAL>
0

>  <SCORE.SYSTEM.SOLV>
0

>  <SCORE.SYSTEM.norm>
0

>  <SCORE.heavy>
25

>  <SCORE.norm>
-0.923258

>  <RMSD>
6.199

$$$$
1uud_lig
 OpenBabel11021811413D
libRbt.so/2013.1/901 2013/11/27
 25 25  0  0  0  0  0  0  0  0999 V2000
   -2.9516   -9.6603   -3.7298 C   0  0  0  0  0  0  0  0  0  0  0  0
   -3.3772   -8.2980   -1.1674 O   0  0  0  0  0  0  0  0  0  0  0  0
   -3.7374   -9.3140   -0.2196 C   0  0  0  0  0  0  0  0  0  0  0  0
   -2.3951   -9.2786   -5.0514 N   0  0  0  0  0  0  0  0  0  0  0  0
   -2.6408   -9.4581    0.8443 C   0  0  0  0  0  0  0  0  0  0  0  0
   -3.1088  -10.0078   -6.1263 C   0  0  0  0  0  0  0  0  0  0  0  0
   -2.3234  -11.2715   -6.4977 C   0  0  0  0  0  0  0  0  0  0  0  0
   -1.4902   -9.7133    0.2682 N   0  0  0  0  0  0  0  0  0  0  0  0
   -0.5423  -10.3895    0.8897 C   0  0  0  0  0  0  0  0  0  0  0  0
   -2.3100  -12.2437   -5.3131 C   0  0  0  0  0  0  0  0  0  0  0  0
   -3.6225  -13.0323   -5.2835 C   0  0  0  0  0  0  0  0  0  0  0  0
    0.7744  -10.0346    0.7854 N   0  0  0  0  0  0  0  0  0  0  0  0
   -0.8823  -11.4630    1.6488 N   0  0  0  0  0  0  0  0  0  0  0  0
   -3.5303  -14.0800   -6.0678 N   0  0  0  0  0  0  0  0  0  0  0  0
   -3.3317  -13.9540   -7.3659 C   0  0  0  0  0  0  0  0  0  0  0  0
   -4.3751  -13.6144   -8.1657 N   0  0  0  0  0  0  0  0  0  0  0  0
   -2.1036  -14.1671   -7.9250 N   0  0  0  0  0  0  0  0  0  0  0  0
   -4.3876   -8.1871   -2.1780 C   0  0  0  0  0  0  0  0  0  0  0  0
   -7.3914   -7.8064   -5.1918 O   0  0  0  0  0  0  0  0  0  0  0  0
   -4.2182   -8.8288   -3.4387 C   0  0  0  0  0  0  0  0  0  0  0  0
   -5.2148   -8.6935   -4.4420 C   0  0  0  0  0  0  0  0  0  0  0  0
   -6.3880   -7.9376   -4.1816 C   0  0  0  0  0  0  0  0  0  0  0  0
   -6.5668   -7.3134   -2.9178 C   0  0  0  0  0  0  0  0  0  0  0  0
   -5.5707   -7.4431   -1.9123 C   0  0  0  0  0  0  0  0  0  0  0  0
   -8.0407   -9.0658   -5.3887 C   0  0  0  0  0  0  0  0  0  0  0  0
  1  4  1  0  0  0  0
  2  3  1  0  0  0  0
  3  5  1  0  0  0  0
  4  6  1  0  0  0  0
  5  8  1  0  0  0  0
  6  7  1  0  0  0  0
  7 10  1  0  0  0  0
  8  9  1  0  0  0  0
  9 12  1  0  0  0  0
  9 13  1  0  0  0  0
 10 11  1  0  0  0  0
 11 14  1  0  0  0  0
 14 15  1  0  0  0  0
 15 16  1  0  0  0  0
 15 17  1  0  0  0  0
 18  2  1  0  0  0  0
 18 20  2  0  0  0  0
 18 24  1  0  0  0  0
 19 25  1  0  0  0  0
 20  1  1  0  0  0  0
 20 21  1  0  0  0  0
 21 22  2  0  0  0  0
 22 19  1  0  0  0  0
 22 23  1  0  0  0  0
 23 24  2  0  0  0  0
M  END
>  <CHROM.1>
-83.02177453,178.63002091,-56.28106472,-95.33935022,-152.30512084,65.58299590
81.37504112,-139.68961875,-66.26751553,103.35442674,85.58298767,-62.15407567
-77.86901629,-75.09159849,-176.48512601,-98.64190050,-132.26857037,69.48436389
-3.52704142,-10.27647401,-3.54225887,-1.25401902,0.67565210,-2.15812089

>  <Name>
1uud_lig

>  <RI>
0

>  <Rbt.Current_Directory>
/home/itssahil/PROJECTS/Mol_Feturizer/New_Systems/rnas/1uud

>  <Rbt.Executable>
rbdock ($Id: //depot/dev/client3/rdock/2013.1/src/exe/rbdock.cxx#4 $)

>  <Rbt.Library>
libRbt.so (2013.1, Build901 2013/11/27)

>  <Rbt.Parameter_File>
/export/apps/rDock/src/rDock_2013.1_src/data/scripts/dock_solv.prm

>  <Rbt.Receptor>
prm/pocket_docking_2.prm

>  <SCORE>
-15.2888

>  <SCORE.INTER>
-12.8305

>  <SCORE.INTER.CONST>
1

>  <SCORE.INTER.POLAR>
-3.11237

>  <SCORE.INTER.ROT>
18

>  <SCORE.INTER.SOLV>
9.67111

>  <SCORE.INTER.VDW>
-17.0028

>  <SCORE.INTER.norm>
-0.513221

>  <SCORE.INTRA>
-3.65103

>  <SCORE.INTRA.DIHEDRAL>
-3.9713

>  <SCORE.INTRA.DIHEDRAL.0>
30.6762

>  <SCORE.INTRA.POLAR>
0.0139727

>  <SCORE.INTRA.POLAR.0>
-0.0288659

>  <SCORE.INTRA.REPUL>
0

>  <SCORE.INTRA.REPUL.0>
0

>  <SCORE.INTRA.SOLV>
-0.261661

>  <SCORE.INTRA.SOLV.lig_0>
-25.2195

>  <SCORE.INTRA.VDW>
-1.58206

>  <SCORE.INTRA.VDW.0>
4.14263

>  <SCORE.INTRA.norm>
-0.146041

>  <SCORE.RESTR>
1.19276

>  <SCORE.RESTR.CAVITY>
1.19276

>  <SCORE.RESTR.norm>
0.0477106

>  <SCORE.SYSTEM>
0

>  <SCORE.SYSTEM.CONST>
0

>  <SCORE.SYSTEM.DIHEDRAL>
0

>  <SCORE.SYSTEM.SOLV>
0

>  <SCORE.SYSTEM.norm>
0

>  <SCORE.heavy>
25

>  <SCORE.norm>
-0.611552

>  <RMSD>
6.282

$$$$
1uud_lig
 OpenBabel11021811413D
libRbt.so/2013.1/901 2013/11/27
 25 25  0  0  0  0  0  0  0  0999 V2000
   -1.9585  -10.3982   -4.7012 C   0  0  0  0  0  0  0  0  0  0  0  0
   -1.4278   -8.2013   -2.8319 O   0  0  0  0  0  0  0  0  0  0  0  0
   -1.4359   -9.0536   -1.6771 C   0  0  0  0  0  0  0  0  0  0  0  0
   -2.0374  -11.4512   -3.6586 N   0  0  0  0  0  0  0  0  0  0  0  0
   -0.0434   -9.0857   -1.0329 C   0  0  0  0  0  0  0  0  0  0  0  0
   -2.4336  -12.7395   -4.2751 C   0  0  0  0  0  0  0  0  0  0  0  0
   -1.3246  -13.2186   -5.2197 C   0  0  0  0  0  0  0  0  0  0  0  0
   -0.0607   -9.8532    0.0308 N   0  0  0  0  0  0  0  0  0  0  0  0
    1.0195  -10.4934    0.4374 C   0  0  0  0  0  0  0  0  0  0  0  0
   -1.5860  -14.6700   -5.6364 C   0  0  0  0  0  0  0  0  0  0  0  0
   -0.7716  -15.6127   -4.7457 C   0  0  0  0  0  0  0  0  0  0  0  0
    0.9770  -11.8141    0.7906 N   0  0  0  0  0  0  0  0  0  0  0  0
    2.1995   -9.8251    0.5078 N   0  0  0  0  0  0  0  0  0  0  0  0
   -1.1192  -16.8562   -4.9781 N   0  0  0  0  0  0  0  0  0  0  0  0
   -0.3229  -17.6850   -5.6257 C   0  0  0  0  0  0  0  0  0  0  0  0
   -0.2319  -17.5955   -6.9775 N   0  0  0  0  0  0  0  0  0  0  0  0
    0.4038  -18.6373   -4.9691 N   0  0  0  0  0  0  0  0  0  0  0  0
   -2.7011   -8.2492   -3.4883 C   0  0  0  0  0  0  0  0  0  0  0  0
   -6.4859   -8.3482   -5.4672 O   0  0  0  0  0  0  0  0  0  0  0  0
   -2.9978   -9.2964   -4.4077 C   0  0  0  0  0  0  0  0  0  0  0  0
   -4.2541   -9.3220   -5.0707 C   0  0  0  0  0  0  0  0  0  0  0  0
   -5.2207   -8.3177   -4.8016 C   0  0  0  0  0  0  0  0  0  0  0  0
   -4.9331   -7.2839   -3.8702 C   0  0  0  0  0  0  0  0  0  0  0  0
   -3.6762   -7.2524   -3.2073 C   0  0  0  0  0  0  0  0  0  0  0  0
   -7.4085   -9.1339   -4.7069 C   0  0  0  0  0  0  0  0  0  0  0  0
  1  4  1  0  0  0  0
  2  3  1  0  0  0  0
  3  5  1  0  0  0  0
  4  6  1  0  0  0  0
  5  8  1  0  0  0  0
  6  7  1  0  0  0  0
  7 10  1  0  0  0  0
  8  9  1  0  0  0  0
  9 12  1  0  0  0  0
  9 13  1  0  0  0  0
 10 11  1  0  0  0  0
 11 14  1  0  0  0  0
 14 15  1  0  0  0  0
 15 16  1  0  0  0  0
 15 17  1  0  0  0  0
 18  2  1  0  0  0  0
 18 20  2  0  0  0  0
 18 24  1  0  0  0  0
 19 25  1  0  0  0  0
 20  1  1  0  0  0  0
 20 21  1  0  0  0  0
 21 22  2  0  0  0  0
 22 19  1  0  0  0  0
 22 23  1  0  0  0  0
 23 24  2  0  0  0  0
M  END
>  <CHROM.1>
117.24679251,175.78351390,179.25039258,65.84829252,151.44503140,168.40980283
-96.80169083,-133.64109483,167.52460993,115.03596674,171.85882868,107.77425468
-77.68779048,179.39694348,-148.27840614,-83.48268285,83.49472177,88.88627695
-1.84672182,-11.47998101,-3.55191500,2.02333792,-0.68233778,0.53061467

>  <Name>
1uud_lig

>  <RI>
0

>  <Rbt.Current_Directory>
/home/itssahil/PROJECTS/Mol_Feturizer/New_Systems/rnas/1uud

>  <Rbt.Executable>
rbdock ($Id: //depot/dev/client3/rdock/2013.1/src/exe/rbdock.cxx#4 $)

>  <Rbt.Library>
libRbt.so (2013.1, Build901 2013/11/27)

>  <Rbt.Parameter_File>
/export/apps/rDock/src/rDock_2013.1_src/data/scripts/dock_solv.prm

>  <Rbt.Receptor>
prm/pocket_docking_6.prm

>  <SCORE>
-30.9591

>  <SCORE.INTER>
-24.9236

>  <SCORE.INTER.CONST>
1

>  <SCORE.INTER.POLAR>
-4.1763

>  <SCORE.INTER.ROT>
18

>  <SCORE.INTER.SOLV>
9.85888

>  <SCORE.INTER.VDW>
-21.581

>  <SCORE.INTER.norm>
-0.996943

>  <SCORE.INTRA>
-6.09378

>  <SCORE.INTRA.DIHEDRAL>
-2.2068

>  <SCORE.INTRA.DIHEDRAL.0>
30.6762

>  <SCORE.INTRA.POLAR>
0.0288659

>  <SCORE.INTRA.POLAR.0>
-0.0288659

>  <SCORE.INTRA.REPUL>
0

>  <SCORE.INTRA.REPUL.0>
0

>  <SCORE.INTRA.SOLV>
-1.25295

>  <SCORE.INTRA.SOLV.lig_0>
-25.2195

>  <SCORE.INTRA.VDW>
-4.46205

>  <SCORE.INTRA.VDW.0>
4.14263

>  <SCORE.INTRA.norm>
-0.243751

>  <SCORE.RESTR>
0.0582767

>  <SCORE.RESTR.CAVITY>
0.0582767

>  <SCORE.RESTR.norm>
0.00233107

>  <SCORE.SYSTEM>
0

>  <SCORE.SYSTEM.CONST>
0

>  <SCORE.SYSTEM.DIHEDRAL>
0

>  <SCORE.SYSTEM.SOLV>
0

>  <SCORE.SYSTEM.norm>
0

>  <SCORE.heavy>
25

>  <SCORE.norm>
-1.23836

>  <RMSD>
6.323

$$$$
1uud_lig
 OpenBabel11021811413D
libRbt.so/2013.1/901 2013/11/27
 25 25  0  0  0  0  0  0  0  0999 V2000
   -1.1797   -9.1215   -2.1937 C   0  0  0  0  0  0  0  0  0  0  0  0
   -3.7622  -10.4873   -2.4543 O   0  0  0  0  0  0  0  0  0  0  0  0
   -4.4771   -9.4915   -3.2009 C   0  0  0  0  0  0  0  0  0  0  0  0
   -1.1990  -10.3401   -3.0404 N   0  0  0  0  0  0  0  0  0  0  0  0
   -5.9615   -9.5020   -2.8115 C   0  0  0  0  0  0  0  0  0  0  0  0
   -0.5478  -10.0577   -4.3416 C   0  0  0  0  0  0  0  0  0  0  0  0
   -1.3757  -10.6766   -5.4744 C   0  0  0  0  0  0  0  0  0  0  0  0
   -6.5750   -8.4815   -3.3618 N   0  0  0  0  0  0  0  0  0  0  0  0
   -7.7217   -8.6274   -3.9988 C   0  0  0  0  0  0  0  0  0  0  0  0
   -0.6995  -11.9579   -5.9740 C   0  0  0  0  0  0  0  0  0  0  0  0
   -1.3380  -13.1722   -5.2936 C   0  0  0  0  0  0  0  0  0  0  0  0
   -8.8209   -9.1561   -3.3798 N   0  0  0  0  0  0  0  0  0  0  0  0
   -7.8117   -8.2452   -5.2988 N   0  0  0  0  0  0  0  0  0  0  0  0
   -0.7798  -14.2746   -5.7347 N   0  0  0  0  0  0  0  0  0  0  0  0
   -0.9326  -15.4241   -5.1056 C   0  0  0  0  0  0  0  0  0  0  0  0
    0.1663  -16.0902   -4.6672 N   0  0  0  0  0  0  0  0  0  0  0  0
   -2.1694  -15.9642   -4.8943 N   0  0  0  0  0  0  0  0  0  0  0  0
   -3.3889   -9.9673   -1.1717 C   0  0  0  0  0  0  0  0  0  0  0  0
   -2.2768   -8.4646    2.6695 O   0  0  0  0  0  0  0  0  0  0  0  0
   -2.1409   -9.3017   -1.0005 C   0  0  0  0  0  0  0  0  0  0  0  0
   -1.7700   -8.8105    0.2799 C   0  0  0  0  0  0  0  0  0  0  0  0
   -2.6508   -8.9636    1.3828 C   0  0  0  0  0  0  0  0  0  0  0  0
   -3.9041   -9.6100    1.2087 C   0  0  0  0  0  0  0  0  0  0  0  0
   -4.2777  -10.1062   -0.0697 C   0  0  0  0  0  0  0  0  0  0  0  0
   -2.4177   -7.0412    2.6910 C   0  0  0  0  0  0  0  0  0  0  0  0
  1  4  1  0  0  0  0
  2  3  1  0  0  0  0
  3  5  1  0  0  0  0
  4  6  1  0  0  0  0
  5  8  1  0  0  0  0
  6  7  1  0  0  0  0
  7 10  1  0  0  0  0
  8  9  1  0  0  0  0
  9 12  1  0  0  0  0
  9 13  1  0  0  0  0
 10 11  1  0  0  0  0
 11 14  1  0  0  0  0
 14 15  1  0  0  0  0
 15 16  1  0  0  0  0
 15 17  1  0  0  0  0
 18  2  1  0  0  0  0
 18 20  2  0  0  0  0
 18 24  1  0  0  0  0
 19 25  1  0  0  0  0
 20  1  1  0  0  0  0
 20 21  1  0  0  0  0
 21 22  2  0  0  0  0
 22 19  1  0  0  0  0
 22 23  1  0  0  0  0
 23 24  2  0  0  0  0
M  END
>  <CHROM.1>
166.34076308,-84.06146662,171.78296017,-136.82537634,132.41300833,-103.51091407
96.69280679,57.74748235,52.99981213,21.75236699,178.88441979,164.72784133
-121.88808093,-68.37421583,175.04775895,-90.08044434,-38.51261926,75.69346236
-3.14373064,-10.57884255,-2.67747749,-2.10670896,0.49234471,-2.17337545

>  <Name>
1uud_lig

>  <RI>
0

>  <Rbt.Current_Directory>
/home/itssahil/PROJECTS/Mol_Feturizer/New_Systems/rnas/1uud

>  <Rbt.Executable>
rbdock ($Id: //depot/dev/client3/rdock/2013.1/src/exe/rbdock.cxx#4 $)

>  <Rbt.Library>
libRbt.so (2013.1, Build901 2013/11/27)

>  <Rbt.Parameter_File>
/export/apps/rDock/src/rDock_2013.1_src/data/scripts/dock_solv.prm

>  <Rbt.Receptor>
prm/pocket_docking_4.prm

>  <SCORE>
-35.2363

>  <SCORE.INTER>
-30.4028

>  <SCORE.INTER.CONST>
1

>  <SCORE.INTER.POLAR>
-6.05103

>  <SCORE.INTER.ROT>
18

>  <SCORE.INTER.SOLV>
11.2151

>  <SCORE.INTER.VDW>
-19.4368

>  <SCORE.INTER.norm>
-1.21611

>  <SCORE.INTRA>
-5.37265

>  <SCORE.INTRA.DIHEDRAL>
3.7176

>  <SCORE.INTRA.DIHEDRAL.0>
30.6762

>  <SCORE.INTRA.POLAR>
-0.640277

>  <SCORE.INTRA.POLAR.0>
-0.0288659

>  <SCORE.INTRA.REPUL>
0

>  <SCORE.INTRA.REPUL.0>
0

>  <SCORE.INTRA.SOLV>
-1.0175

>  <SCORE.INTRA.SOLV.lig_0>
-25.2195

>  <SCORE.INTRA.VDW>
-4.54576

>  <SCORE.INTRA.VDW.0>
4.14263

>  <SCORE.INTRA.norm>
-0.214906

>  <SCORE.RESTR>
0.539215

>  <SCORE.RESTR.CAVITY>
0.539215

>  <SCORE.RESTR.norm>
0.0215686

>  <SCORE.SYSTEM>
0

>  <SCORE.SYSTEM.CONST>
0

>  <SCORE.SYSTEM.DIHEDRAL>
0

>  <SCORE.SYSTEM.SOLV>
0

>  <SCORE.SYSTEM.norm>
0

>  <SCORE.heavy>
25

>  <SCORE.norm>
-1.40945

>  <RMSD>
6.338

$$$$
1uud_lig
 OpenBabel11021811413D
libRbt.so/2013.1/901 2013/11/27
 25 25  0  0  0  0  0  0  0  0999 V2000
   -2.4809  -10.9620    0.0220 C   0  0  0  0  0  0  0  0  0  0  0  0
   -4.2978   -9.0681   -1.2873 O   0  0  0  0  0  0  0  0  0  0  0  0
   -5.6719   -8.7413   -1.5433 C   0  0  0  0  0  0  0  0  0  0  0  0
   -1.1082  -11.1963    0.5348 N   0  0  0  0  0  0  0  0  0  0  0  0
   -5.9399   -8.7266   -3.0543 C   0  0  0  0  0  0  0  0  0  0  0  0
   -0.1285  -10.4597   -0.2984 C   0  0  0  0  0  0  0  0  0  0  0  0
    0.4262   -9.2695    0.4937 C   0  0  0  0  0  0  0  0  0  0  0  0
   -6.9774   -7.9678   -3.3166 N   0  0  0  0  0  0  0  0  0  0  0  0
   -7.9824   -8.4035   -4.0529 C   0  0  0  0  0  0  0  0  0  0  0  0
   -0.5107   -8.0653    0.3494 C   0  0  0  0  0  0  0  0  0  0  0  0
    0.0615   -6.8758    1.1259 C   0  0  0  0  0  0  0  0  0  0  0  0
   -9.0653   -9.0212   -3.4904 N   0  0  0  0  0  0  0  0  0  0  0  0
   -7.9393   -8.2358   -5.3998 N   0  0  0  0  0  0  0  0  0  0  0  0
   -0.7372   -5.8416    1.0087 N   0  0  0  0  0  0  0  0  0  0  0  0
   -0.3106   -4.6931    0.5195 C   0  0  0  0  0  0  0  0  0  0  0  0
    0.5391   -3.9336    1.2576 N   0  0  0  0  0  0  0  0  0  0  0  0
   -0.7118   -4.2458   -0.7073 N   0  0  0  0  0  0  0  0  0  0  0  0
   -3.9975   -8.8801    0.1016 C   0  0  0  0  0  0  0  0  0  0  0  0
   -3.1512   -8.3273    4.2523 O   0  0  0  0  0  0  0  0  0  0  0  0
   -3.1239   -9.7803    0.7772 C   0  0  0  0  0  0  0  0  0  0  0  0
   -2.8510   -9.5989    2.1596 C   0  0  0  0  0  0  0  0  0  0  0  0
   -3.4308   -8.5099    2.8620 C   0  0  0  0  0  0  0  0  0  0  0  0
   -4.2867   -7.6004    2.1843 C   0  0  0  0  0  0  0  0  0  0  0  0
   -4.5654   -7.7801    0.8023 C   0  0  0  0  0  0  0  0  0  0  0  0
   -4.3200   -8.6294    5.0199 C   0  0  0  0  0  0  0  0  0  0  0  0
  1  4  1  0  0  0  0
  2  3  1  0  0  0  0
  3  5  1  0  0  0  0
  4  6  1  0  0  0  0
  5  8  1  0  0  0  0
  6  7  1  0  0  0  0
  7 10  1  0  0  0  0
  8  9  1  0  0  0  0
  9 12  1  0  0  0  0
  9 13  1  0  0  0  0
 10 11  1  0  0  0  0
 11 14  1  0  0  0  0
 14 15  1  0  0  0  0
 15 16  1  0  0  0  0
 15 17  1  0  0  0  0
 18  2  1  0  0  0  0
 18 20  2  0  0  0  0
 18 24  1  0  0  0  0
 19 25  1  0  0  0  0
 20  1  1  0  0  0  0
 20 21  1  0  0  0  0
 21 22  2  0  0  0  0
 22 19  1  0  0  0  0
 22 23  1  0  0  0  0
 23 24  2  0  0  0  0
M  END
>  <CHROM.1>
-93.60892134,171.09272192,-156.11132869,108.22174948,-128.69043748,-85.18295066
-179.15053822,90.75236880,4.73388762,-124.92984205,-179.88431387,-122.56143418
-70.90714254,146.43015880,-40.87978089,142.36008560,144.40747639,-109.30875651
-3.31269437,-8.15954164,-0.03076445,0.34325264,0.59954322,2.30225267

>  <Name>
1uud_lig

>  <RI>
0

>  <Rbt.Current_Directory>
/home/itssahil/PROJECTS/Mol_Feturizer/New_Systems/rnas/1uud

>  <Rbt.Executable>
rbdock ($Id: //depot/dev/client3/rdock/2013.1/src/exe/rbdock.cxx#4 $)

>  <Rbt.Library>
libRbt.so (2013.1, Build901 2013/11/27)

>  <Rbt.Parameter_File>
/export/apps/rDock/src/rDock_2013.1_src/data/scripts/dock_solv.prm

>  <Rbt.Receptor>
prm/pocket_docking_7.prm

>  <SCORE>
-28.7393

>  <SCORE.INTER>
-22.4765

>  <SCORE.INTER.CONST>
1

>  <SCORE.INTER.POLAR>
-4.34988

>  <SCORE.INTER.ROT>
18

>  <SCORE.INTER.SOLV>
9.44637

>  <SCORE.INTER.VDW>
-19.2336

>  <SCORE.INTER.norm>
-0.899062

>  <SCORE.INTRA>
-6.26277

>  <SCORE.INTRA.DIHEDRAL>
-4.47879

>  <SCORE.INTRA.DIHEDRAL.0>
30.6762

>  <SCORE.INTRA.POLAR>
0.0288659

>  <SCORE.INTRA.POLAR.0>
-0.0288659

>  <SCORE.INTRA.REPUL>
0

>  <SCORE.INTRA.REPUL.0>
0

>  <SCORE.INTRA.SOLV>
-1.38056

>  <SCORE.INTRA.SOLV.lig_0>
-25.2195

>  <SCORE.INTRA.VDW>
-3.43125

>  <SCORE.INTRA.VDW.0>
4.14263

>  <SCORE.INTRA.norm>
-0.250511

>  <SCORE.RESTR>
0

>  <SCORE.RESTR.CAVITY>
0

>  <SCORE.RESTR.norm>
0

>  <SCORE.SYSTEM>
0

>  <SCORE.SYSTEM.CONST>
0

>  <SCORE.SYSTEM.DIHEDRAL>
0

>  <SCORE.SYSTEM.SOLV>
0

>  <SCORE.SYSTEM.norm>
0

>  <SCORE.heavy>
25

>  <SCORE.norm>
-1.14957

>  <RMSD>
6.372

$$$$
1uud_lig
 OpenBabel11021811413D
libRbt.so/2013.1/901 2013/11/27
 25 25  0  0  0  0  0  0  0  0999 V2000
   -4.4280   -7.9787   -0.3680 C   0  0  0  0  0  0  0  0  0  0  0  0
   -4.0178   -8.7058   -3.1797 O   0  0  0  0  0  0  0  0  0  0  0  0
   -4.6592   -9.9400   -3.5342 C   0  0  0  0  0  0  0  0  0  0  0  0
   -5.3355   -9.0431    0.1276 N   0  0  0  0  0  0  0  0  0  0  0  0
   -5.8689   -9.6674   -4.4383 C   0  0  0  0  0  0  0  0  0  0  0  0
   -6.7407   -8.5769    0.0588 C   0  0  0  0  0  0  0  0  0  0  0  0
   -7.6828   -9.7342    0.4122 C   0  0  0  0  0  0  0  0  0  0  0  0
   -6.7880   -9.0125   -3.7694 N   0  0  0  0  0  0  0  0  0  0  0  0
   -7.9399   -8.6822   -4.3224 C   0  0  0  0  0  0  0  0  0  0  0  0
   -7.7148   -9.9348    1.9313 C   0  0  0  0  0  0  0  0  0  0  0  0
   -6.6473  -10.9559    2.3351 C   0  0  0  0  0  0  0  0  0  0  0  0
   -9.1311   -8.9457   -3.7041 N   0  0  0  0  0  0  0  0  0  0  0  0
   -7.9423   -8.0679   -5.5335 N   0  0  0  0  0  0  0  0  0  0  0  0
   -6.6947  -11.1613    3.6300 N   0  0  0  0  0  0  0  0  0  0  0  0
   -5.6925  -10.8238    4.4187 C   0  0  0  0  0  0  0  0  0  0  0  0
   -5.4617   -9.5097    4.6709 N   0  0  0  0  0  0  0  0  0  0  0  0
   -4.8757  -11.7647    4.9788 N   0  0  0  0  0  0  0  0  0  0  0  0
   -2.9576   -8.9520   -2.2471 C   0  0  0  0  0  0  0  0  0  0  0  0
    0.2319   -9.6537    0.5071 O   0  0  0  0  0  0  0  0  0  0  0  0
   -3.1135   -8.6090   -0.8731 C   0  0  0  0  0  0  0  0  0  0  0  0
   -2.0481   -8.8357    0.0389 C   0  0  0  0  0  0  0  0  0  0  0  0
   -0.8374   -9.4228   -0.4138 C   0  0  0  0  0  0  0  0  0  0  0  0
   -0.6881   -9.7832   -1.7801 C   0  0  0  0  0  0  0  0  0  0  0  0
   -1.7501   -9.5550   -2.6967 C   0  0  0  0  0  0  0  0  0  0  0  0
    0.3057  -11.0486    0.8157 C   0  0  0  0  0  0  0  0  0  0  0  0
  1  4  1  0  0  0  0
  2  3  1  0  0  0  0
  3  5  1  0  0  0  0
  4  6  1  0  0  0  0
  5  8  1  0  0  0  0
  6  7  1  0  0  0  0
  7 10  1  0  0  0  0
  8  9  1  0  0  0  0
  9 12  1  0  0  0  0
  9 13  1  0  0  0  0
 10 11  1  0  0  0  0
 11 14  1  0  0  0  0
 14 15  1  0  0  0  0
 15 16  1  0  0  0  0
 15 17  1  0  0  0  0
 18  2  1  0  0  0  0
 18 20  2  0  0  0  0
 18 24  1  0  0  0  0
 19 25  1  0  0  0  0
 20  1  1  0  0  0  0
 20 21  1  0  0  0  0
 21 22  2  0  0  0  0
 22 19  1  0  0  0  0
 22 23  1  0  0  0  0
 23 24  2  0  0  0  0
M  END
>  <CHROM.1>
-155.63467622,175.19861592,-65.95109374,173.30321167,-178.63224546,78.20961120
-91.42874394,130.42328013,44.65614584,-93.25291390,-178.19949819,-115.02470213
72.06625697,6.60254585,-48.47834936,-105.95331593,93.19595911,105.00019462
-4.81335497,-9.54722947,-0.48124992,-1.89306479,-0.02555483,1.79401627

>  <Name>
1uud_lig

>  <RI>
0

>  <Rbt.Current_Directory>
/home/itssahil/PROJECTS/Mol_Feturizer/New_Systems/rnas/1uud

>  <Rbt.Executable>
rbdock ($Id: //depot/dev/client3/rdock/2013.1/src/exe/rbdock.cxx#4 $)

>  <Rbt.Library>
libRbt.so (2013.1, Build901 2013/11/27)

>  <Rbt.Parameter_File>
/export/apps/rDock/src/rDock_2013.1_src/data/scripts/dock_solv.prm

>  <Rbt.Receptor>
prm/pocket_docking_8.prm

>  <SCORE>
-34.9526

>  <SCORE.INTER>
-26.0943

>  <SCORE.INTER.CONST>
1

>  <SCORE.INTER.POLAR>
-4.18841

>  <SCORE.INTER.ROT>
18

>  <SCORE.INTER.SOLV>
10.4706

>  <SCORE.INTER.VDW>
-22.5251

>  <SCORE.INTER.norm>
-1.04377

>  <SCORE.INTRA>
-8.85831

>  <SCORE.INTRA.DIHEDRAL>
-5.37533

>  <SCORE.INTRA.DIHEDRAL.0>
30.6762

>  <SCORE.INTRA.POLAR>
0.0288659

>  <SCORE.INTRA.POLAR.0>
-0.0288659

>  <SCORE.INTRA.REPUL>
0

>  <SCORE.INTRA.REPUL.0>
0

>  <SCORE.INTRA.SOLV>
-0.457713

>  <SCORE.INTRA.SOLV.lig_0>
-25.2195

>  <SCORE.INTRA.VDW>
-6.03993

>  <SCORE.INTRA.VDW.0>
4.14263

>  <SCORE.INTRA.norm>
-0.354332

>  <SCORE.RESTR>
0

>  <SCORE.RESTR.CAVITY>
0

>  <SCORE.RESTR.norm>
0

>  <SCORE.SYSTEM>
0

>  <SCORE.SYSTEM.CONST>
0

>  <SCORE.SYSTEM.DIHEDRAL>
0

>  <SCORE.SYSTEM.SOLV>
0

>  <SCORE.SYSTEM.norm>
0

>  <SCORE.heavy>
25

>  <SCORE.norm>
-1.39811

>  <RMSD>
6.387

$$$$
1uud_lig
 OpenBabel11021811413D
libRbt.so/2013.1/901 2013/11/27
 25 25  0  0  0  0  0  0  0  0999 V2000
   -4.3964  -11.5853   -3.7513 C   0  0  0  0  0  0  0  0  0  0  0  0
   -2.3009  -10.3731   -5.4071 O   0  0  0  0  0  0  0  0  0  0  0  0
   -3.2961  -10.0664   -6.3950 C   0  0  0  0  0  0  0  0  0  0  0  0
   -5.8492  -11.3054   -3.8664 N   0  0  0  0  0  0  0  0  0  0  0  0
   -4.0209  -11.3468   -6.8316 C   0  0  0  0  0  0  0  0  0  0  0  0
   -6.0857  -10.3146   -4.9430 C   0  0  0  0  0  0  0  0  0  0  0  0
   -6.6191   -9.0124   -4.3335 C   0  0  0  0  0  0  0  0  0  0  0  0
   -3.1447  -12.2712   -7.1456 N   0  0  0  0  0  0  0  0  0  0  0  0
   -3.5209  -13.4577   -7.5845 C   0  0  0  0  0  0  0  0  0  0  0  0
   -5.8325   -7.8183   -4.8849 C   0  0  0  0  0  0  0  0  0  0  0  0
   -6.2007   -6.5564   -4.0994 C   0  0  0  0  0  0  0  0  0  0  0  0
   -4.4694  -13.5910   -8.5607 N   0  0  0  0  0  0  0  0  0  0  0  0
   -2.9539  -14.5716   -7.0534 N   0  0  0  0  0  0  0  0  0  0  0  0
   -7.4081   -6.1630   -4.4290 N   0  0  0  0  0  0  0  0  0  0  0  0
   -8.4145   -6.2415   -3.5797 C   0  0  0  0  0  0  0  0  0  0  0  0
   -9.0031   -7.4451   -3.3596 N   0  0  0  0  0  0  0  0  0  0  0  0
   -8.8845   -5.1386   -2.9247 N   0  0  0  0  0  0  0  0  0  0  0  0
   -2.6355   -9.7490   -4.1609 C   0  0  0  0  0  0  0  0  0  0  0  0
   -3.6478   -7.8478   -0.4716 O   0  0  0  0  0  0  0  0  0  0  0  0
   -3.6511  -10.3023   -3.3287 C   0  0  0  0  0  0  0  0  0  0  0  0
   -3.9914   -9.6632   -2.1065 C   0  0  0  0  0  0  0  0  0  0  0  0
   -3.3061   -8.4868   -1.7042 C   0  0  0  0  0  0  0  0  0  0  0  0
   -2.2797   -7.9452   -2.5241 C   0  0  0  0  0  0  0  0  0  0  0  0
   -1.9383   -8.5793   -3.7494 C   0  0  0  0  0  0  0  0  0  0  0  0
   -2.8507   -8.3892    0.5859 C   0  0  0  0  0  0  0  0  0  0  0  0
  1  4  1  0  0  0  0
  2  3  1  0  0  0  0
  3  5  1  0  0  0  0
  4  6  1  0  0  0  0
  5  8  1  0  0  0  0
  6  7  1  0  0  0  0
  7 10  1  0  0  0  0
  8  9  1  0  0  0  0
  9 12  1  0  0  0  0
  9 13  1  0  0  0  0
 10 11  1  0  0  0  0
 11 14  1  0  0  0  0
 14 15  1  0  0  0  0
 15 16  1  0  0  0  0
 15 17  1  0  0  0  0
 18  2  1  0  0  0  0
 18 20  2  0  0  0  0
 18 24  1  0  0  0  0
 19 25  1  0  0  0  0
 20  1  1  0  0  0  0
 20 21  1  0  0  0  0
 21 22  2  0  0  0  0
 22 19  1  0  0  0  0
 22 23  1  0  0  0  0
 23 24  2  0  0  0  0
M  END
>  <CHROM.1>
63.58031185,-115.66665629,-50.07571899,-113.71372940,-178.33545586,131.43884787
-170.27912969,46.87131858,-27.85201016,94.52796346,-72.82246460,110.98762721
-77.39605392,129.36820695,122.15365032,76.96759846,-120.20150337,89.83466833
-4.72838319,-9.55175411,-4.29420365,-1.08786116,-0.49675736,0.85960535

>  <Name>
1uud_lig

>  <RI>
0

>  <Rbt.Current_Directory>
/home/itssahil/PROJECTS/Mol_Feturizer/New_Systems/rnas/1uud

>  <Rbt.Executable>
rbdock ($Id: //depot/dev/client3/rdock/2013.1/src/exe/rbdock.cxx#4 $)

>  <Rbt.Library>
libRbt.so (2013.1, Build901 2013/11/27)

>  <Rbt.Parameter_File>
/export/apps/rDock/src/rDock_2013.1_src/data/scripts/dock_solv.prm

>  <Rbt.Receptor>
prm/pocket_docking_2.prm

>  <SCORE>
-17.4317

>  <SCORE.INTER>
-17.2753

>  <SCORE.INTER.CONST>
1

>  <SCORE.INTER.POLAR>
-3.93052

>  <SCORE.INTER.ROT>
18

>  <SCORE.INTER.SOLV>
8.25014

>  <SCORE.INTER.VDW>
-16.7652

>  <SCORE.INTER.norm>
-0.691014

>  <SCORE.INTRA>
-1.4762

>  <SCORE.INTRA.DIHEDRAL>
6.02385

>  <SCORE.INTRA.DIHEDRAL.0>
30.6762

>  <SCORE.INTRA.POLAR>
0.0288659

>  <SCORE.INTRA.POLAR.0>
-0.0288659

>  <SCORE.INTRA.REPUL>
0

>  <SCORE.INTRA.REPUL.0>
0

>  <SCORE.INTRA.SOLV>
-0.319407

>  <SCORE.INTRA.SOLV.lig_0>
-25.2195

>  <SCORE.INTRA.VDW>
-4.42657

>  <SCORE.INTRA.VDW.0>
4.14263

>  <SCORE.INTRA.norm>
-0.0590481

>  <SCORE.RESTR>
1.31984

>  <SCORE.RESTR.CAVITY>
1.31984

>  <SCORE.RESTR.norm>
0.0527935

>  <SCORE.SYSTEM>
0

>  <SCORE.SYSTEM.CONST>
0

>  <SCORE.SYSTEM.DIHEDRAL>
0

>  <SCORE.SYSTEM.SOLV>
0

>  <SCORE.SYSTEM.norm>
0

>  <SCORE.heavy>
25

>  <SCORE.norm>
-0.697268

>  <RMSD>
6.427

$$$$
1uud_lig
 OpenBabel11021811413D
libRbt.so/2013.1/901 2013/11/27
 25 25  0  0  0  0  0  0  0  0999 V2000
   -8.0632   -6.8147   -2.9979 C   0  0  0  0  0  0  0  0  0  0  0  0
   -8.0688   -4.4079   -4.6741 O   0  0  0  0  0  0  0  0  0  0  0  0
   -7.9690   -2.9817   -4.8017 C   0  0  0  0  0  0  0  0  0  0  0  0
   -8.0281   -7.3942   -1.6323 N   0  0  0  0  0  0  0  0  0  0  0  0
   -6.6862   -2.6061   -5.5557 C   0  0  0  0  0  0  0  0  0  0  0  0
   -6.7544   -8.1244   -1.4293 C   0  0  0  0  0  0  0  0  0  0  0  0
   -6.7521   -8.7754   -0.0408 C   0  0  0  0  0  0  0  0  0  0  0  0
   -5.6457   -3.1385   -4.9601 N   0  0  0  0  0  0  0  0  0  0  0  0
   -5.0221   -4.1860   -5.4660 C   0  0  0  0  0  0  0  0  0  0  0  0
   -5.3987   -9.4463    0.2180 C   0  0  0  0  0  0  0  0  0  0  0  0
   -4.3481   -8.3761    0.5283 C   0  0  0  0  0  0  0  0  0  0  0  0
   -5.6713   -5.3712   -5.6769 N   0  0  0  0  0  0  0  0  0  0  0  0
   -3.7055   -4.0848   -5.7829 N   0  0  0  0  0  0  0  0  0  0  0  0
   -3.1787   -8.9409    0.7148 N   0  0  0  0  0  0  0  0  0  0  0  0
   -2.7854   -9.3327    1.9115 C   0  0  0  0  0  0  0  0  0  0  0  0
   -3.0493  -10.6028    2.3124 N   0  0  0  0  0  0  0  0  0  0  0  0
   -2.1283   -8.4875    2.7601 N   0  0  0  0  0  0  0  0  0  0  0  0
   -9.2692   -4.7566   -3.9726 C   0  0  0  0  0  0  0  0  0  0  0  0
  -12.8706   -5.8018   -1.9262 O   0  0  0  0  0  0  0  0  0  0  0  0
   -9.3109   -5.9205   -3.1519 C   0  0  0  0  0  0  0  0  0  0  0  0
  -10.5124   -6.2702   -2.4793 C   0  0  0  0  0  0  0  0  0  0  0  0
  -11.6638   -5.4497   -2.6075 C   0  0  0  0  0  0  0  0  0  0  0  0
  -11.6174   -4.2782   -3.4102 C   0  0  0  0  0  0  0  0  0  0  0  0
  -10.4186   -3.9263   -4.0878 C   0  0  0  0  0  0  0  0  0  0  0  0
  -13.1559   -7.1870   -2.1418 C   0  0  0  0  0  0  0  0  0  0  0  0
  1  4  1  0  0  0  0
  2  3  1  0  0  0  0
  3  5  1  0  0  0  0
  4  6  1  0  0  0  0
  5  8  1  0  0  0  0
  6  7  1  0  0  0  0
  7 10  1  0  0  0  0
  8  9  1  0  0  0  0
  9 12  1  0  0  0  0
  9 13  1  0  0  0  0
 10 11  1  0  0  0  0
 11 14  1  0  0  0  0
 14 15  1  0  0  0  0
 15 16  1  0  0  0  0
 15 17  1  0  0  0  0
 18  2  1  0  0  0  0
 18 20  2  0  0  0  0
 18 24  1  0  0  0  0
 19 25  1  0  0  0  0
 20  1  1  0  0  0  0
 20 21  1  0  0  0  0
 21 22  2  0  0  0  0
 22 19  1  0  0  0  0
 22 23  1  0  0  0  0
 23 24  2  0  0  0  0
M  END
>  <CHROM.1>
-173.46259594,-179.85374670,-55.01753403,-177.38300933,105.26222514,-175.89298166
75.23810703,-59.57568458,-157.31826562,-15.73856070,-178.27371465,-90.24054701
91.27414888,-76.78806522,-88.37411286,-148.54430364,146.60545425,-47.51396341
-7.18051732,-6.30738237,-2.29789241,2.28081806,0.01023274,-0.86792539

>  <Name>
1uud_lig

>  <RI>
0

>  <Rbt.Current_Directory>
/home/itssahil/PROJECTS/Mol_Feturizer/New_Systems/rnas/1uud

>  <Rbt.Executable>
rbdock ($Id: //depot/dev/client3/rdock/2013.1/src/exe/rbdock.cxx#4 $)

>  <Rbt.Library>
libRbt.so (2013.1, Build901 2013/11/27)

>  <Rbt.Parameter_File>
/export/apps/rDock/src/rDock_2013.1_src/data/scripts/dock_solv.prm

>  <Rbt.Receptor>
prm/pocket_docking_7.prm

>  <SCORE>
-22.3597

>  <SCORE.INTER>
-11.2703

>  <SCORE.INTER.CONST>
1

>  <SCORE.INTER.POLAR>
-3.46081

>  <SCORE.INTER.ROT>
18

>  <SCORE.INTER.SOLV>
6.65593

>  <SCORE.INTER.VDW>
-13.7961

>  <SCORE.INTER.norm>
-0.450812

>  <SCORE.INTRA>
-11.0894

>  <SCORE.INTRA.DIHEDRAL>
-15.2502

>  <SCORE.INTRA.DIHEDRAL.0>
30.6762

>  <SCORE.INTRA.POLAR>
-0.557275

>  <SCORE.INTRA.POLAR.0>
-0.0288659

>  <SCORE.INTRA.REPUL>
0

>  <SCORE.INTRA.REPUL.0>
0

>  <SCORE.INTRA.SOLV>
-0.362047

>  <SCORE.INTRA.SOLV.lig_0>
-25.2195

>  <SCORE.INTRA.VDW>
-1.38848

>  <SCORE.INTRA.VDW.0>
4.14263

>  <SCORE.INTRA.norm>
-0.443574

>  <SCORE.RESTR>
0

>  <SCORE.RESTR.CAVITY>
0

>  <SCORE.RESTR.norm>
0

>  <SCORE.SYSTEM>
0

>  <SCORE.SYSTEM.CONST>
0

>  <SCORE.SYSTEM.DIHEDRAL>
0

>  <SCORE.SYSTEM.SOLV>
0

>  <SCORE.SYSTEM.norm>
0

>  <SCORE.heavy>
25

>  <SCORE.norm>
-0.894387

>  <RMSD>
6.440

$$$$
1uud_lig
 OpenBabel11021811413D
libRbt.so/2013.1/901 2013/11/27
 25 25  0  0  0  0  0  0  0  0999 V2000
   -3.4181   -8.2614   -3.5897 C   0  0  0  0  0  0  0  0  0  0  0  0
   -0.8154   -9.3516   -2.7895 O   0  0  0  0  0  0  0  0  0  0  0  0
   -0.2413   -9.5278   -1.4858 C   0  0  0  0  0  0  0  0  0  0  0  0
   -3.7868   -8.4657   -5.0125 N   0  0  0  0  0  0  0  0  0  0  0  0
   -1.1893   -8.9786   -0.4112 C   0  0  0  0  0  0  0  0  0  0  0  0
   -2.8870   -9.4716   -5.6249 C   0  0  0  0  0  0  0  0  0  0  0  0
   -3.2939  -10.8748   -5.1591 C   0  0  0  0  0  0  0  0  0  0  0  0
   -1.5670   -9.9473    0.3888 N   0  0  0  0  0  0  0  0  0  0  0  0
   -2.3476   -9.7189    1.4282 C   0  0  0  0  0  0  0  0  0  0  0  0
   -2.1888  -11.8792   -5.5037 C   0  0  0  0  0  0  0  0  0  0  0  0
   -2.5589  -13.2576   -4.9484 C   0  0  0  0  0  0  0  0  0  0  0  0
   -3.5527  -10.3502    1.5693 N   0  0  0  0  0  0  0  0  0  0  0  0
   -1.9455   -8.8361    2.3785 N   0  0  0  0  0  0  0  0  0  0  0  0
   -1.4803  -13.8694   -4.5197 N   0  0  0  0  0  0  0  0  0  0  0  0
   -1.1323  -15.0561   -4.9791 C   0  0  0  0  0  0  0  0  0  0  0  0
   -1.9205  -15.6666   -5.9009 N   0  0  0  0  0  0  0  0  0  0  0  0
   -0.0036  -15.6889   -4.5415 N   0  0  0  0  0  0  0  0  0  0  0  0
   -0.9060   -7.9559   -3.1030 C   0  0  0  0  0  0  0  0  0  0  0  0
   -1.1441   -3.8029   -4.0759 O   0  0  0  0  0  0  0  0  0  0  0  0
   -2.1501   -7.3869   -3.5011 C   0  0  0  0  0  0  0  0  0  0  0  0
   -2.2245   -6.0074   -3.8322 C   0  0  0  0  0  0  0  0  0  0  0  0
   -1.0656   -5.1920   -3.7460 C   0  0  0  0  0  0  0  0  0  0  0  0
    0.1713   -5.7543   -3.3303 C   0  0  0  0  0  0  0  0  0  0  0  0
    0.2512   -7.1347   -3.0015 C   0  0  0  0  0  0  0  0  0  0  0  0
   -1.5435   -3.6566   -5.4418 C   0  0  0  0  0  0  0  0  0  0  0  0
  1  4  1  0  0  0  0
  2  3  1  0  0  0  0
  3  5  1  0  0  0  0
  4  6  1  0  0  0  0
  5  8  1  0  0  0  0
  6  7  1  0  0  0  0
  7 10  1  0  0  0  0
  8  9  1  0  0  0  0
  9 12  1  0  0  0  0
  9 13  1  0  0  0  0
 10 11  1  0  0  0  0
 11 14  1  0  0  0  0
 14 15  1  0  0  0  0
 15 16  1  0  0  0  0
 15 17  1  0  0  0  0
 18  2  1  0  0  0  0
 18 20  2  0  0  0  0
 18 24  1  0  0  0  0
 19 25  1  0  0  0  0
 20  1  1  0  0  0  0
 20 21  1  0  0  0  0
 21 22  2  0  0  0  0
 22 19  1  0  0  0  0
 22 23  1  0  0  0  0
 23 24  2  0  0  0  0
M  END
>  <CHROM.1>
76.63302074,66.40422567,117.82369115,76.12286831,177.44209502,-166.49938496
176.05306731,121.90619377,161.99203602,-30.59928765,-143.37150323,-123.46542181
-1.06033773,125.45572003,-95.35616809,-126.18667551,-108.60516710,-61.11917227
-1.73871147,-9.53116998,-3.12885350,-0.31427770,-1.54883781,-1.67924743

>  <Name>
1uud_lig

>  <RI>
0

>  <Rbt.Current_Directory>
/home/itssahil/PROJECTS/Mol_Feturizer/New_Systems/rnas/1uud

>  <Rbt.Executable>
rbdock ($Id: //depot/dev/client3/rdock/2013.1/src/exe/rbdock.cxx#4 $)

>  <Rbt.Library>
libRbt.so (2013.1, Build901 2013/11/27)

>  <Rbt.Parameter_File>
/export/apps/rDock/src/rDock_2013.1_src/data/scripts/dock_solv.prm

>  <Rbt.Receptor>
prm/pocket_docking_8.prm

>  <SCORE>
-17.0302

>  <SCORE.INTER>
-13.8445

>  <SCORE.INTER.CONST>
1

>  <SCORE.INTER.POLAR>
-4.78728

>  <SCORE.INTER.ROT>
18

>  <SCORE.INTER.SOLV>
8.31913

>  <SCORE.INTER.VDW>
-11.6451

>  <SCORE.INTER.norm>
-0.553779

>  <SCORE.INTRA>
-3.18576

>  <SCORE.INTRA.DIHEDRAL>
-2.19784

>  <SCORE.INTRA.DIHEDRAL.0>
30.6762

>  <SCORE.INTRA.POLAR>
0.0288659

>  <SCORE.INTRA.POLAR.0>
-0.0288659

>  <SCORE.INTRA.REPUL>
0

>  <SCORE.INTRA.REPUL.0>
0

>  <SCORE.INTRA.SOLV>
-1.33768

>  <SCORE.INTRA.SOLV.lig_0>
-25.2195

>  <SCORE.INTRA.VDW>
-1.51615

>  <SCORE.INTRA.VDW.0>
4.14263

>  <SCORE.INTRA.norm>
-0.127431

>  <SCORE.RESTR>
0

>  <SCORE.RESTR.CAVITY>
0

>  <SCORE.RESTR.norm>
0

>  <SCORE.SYSTEM>
0

>  <SCORE.SYSTEM.CONST>
0

>  <SCORE.SYSTEM.DIHEDRAL>
0

>  <SCORE.SYSTEM.SOLV>
0

>  <SCORE.SYSTEM.norm>
0

>  <SCORE.heavy>
25

>  <SCORE.norm>
-0.68121

>  <RMSD>
6.450

$$$$
1uud_lig
 OpenBabel11021811413D
libRbt.so/2013.1/901 2013/11/27
 25 25  0  0  0  0  0  0  0  0999 V2000
   -3.2425  -10.4092   -3.2518 C   0  0  0  0  0  0  0  0  0  0  0  0
   -5.4719   -8.7683   -2.2823 O   0  0  0  0  0  0  0  0  0  0  0  0
   -6.7975   -9.1819   -1.9190 C   0  0  0  0  0  0  0  0  0  0  0  0
   -2.5619  -11.7210   -3.3867 N   0  0  0  0  0  0  0  0  0  0  0  0
   -7.7845   -8.8445   -3.0447 C   0  0  0  0  0  0  0  0  0  0  0  0
   -2.7934  -12.2695   -4.7440 C   0  0  0  0  0  0  0  0  0  0  0  0
   -1.8686  -13.4704   -4.9764 C   0  0  0  0  0  0  0  0  0  0  0  0
   -7.5148   -9.5660   -4.1065 N   0  0  0  0  0  0  0  0  0  0  0  0
   -7.4999   -9.0361   -5.3152 C   0  0  0  0  0  0  0  0  0  0  0  0
   -0.8618  -13.1460   -6.0854 C   0  0  0  0  0  0  0  0  0  0  0  0
    0.5227  -12.9225   -5.4702 C   0  0  0  0  0  0  0  0  0  0  0  0
   -6.3742   -8.4497   -5.8246 N   0  0  0  0  0  0  0  0  0  0  0  0
   -8.6285   -9.0729   -6.0695 N   0  0  0  0  0  0  0  0  0  0  0  0
    1.0269  -14.0690   -5.0797 N   0  0  0  0  0  0  0  0  0  0  0  0
    2.1558  -14.5321   -5.5811 C   0  0  0  0  0  0  0  0  0  0  0  0
    3.2646  -14.5635   -4.7980 N   0  0  0  0  0  0  0  0  0  0  0  0
    2.2375  -14.9710   -6.8721 N   0  0  0  0  0  0  0  0  0  0  0  0
   -4.5227   -9.2652   -1.3301 C   0  0  0  0  0  0  0  0  0  0  0  0
   -1.7305  -10.7728    1.5302 O   0  0  0  0  0  0  0  0  0  0  0  0
   -3.4280  -10.0704   -1.7581 C   0  0  0  0  0  0  0  0  0  0  0  0
   -2.5058  -10.5773   -0.8037 C   0  0  0  0  0  0  0  0  0  0  0  0
   -2.6625  -10.2646    0.5722 C   0  0  0  0  0  0  0  0  0  0  0  0
   -3.7428   -9.4456    0.9977 C   0  0  0  0  0  0  0  0  0  0  0  0
   -4.6698   -8.9392    0.0468 C   0  0  0  0  0  0  0  0  0  0  0  0
   -0.4674  -10.1228    1.3615 C   0  0  0  0  0  0  0  0  0  0  0  0
  1  4  1  0  0  0  0
  2  3  1  0  0  0  0
  3  5  1  0  0  0  0
  4  6  1  0  0  0  0
  5  8  1  0  0  0  0
  6  7  1  0  0  0  0
  7 10  1  0  0  0  0
  8  9  1  0  0  0  0
  9 12  1  0  0  0  0
  9 13  1  0  0  0  0
 10 11  1  0  0  0  0
 11 14  1  0  0  0  0
 14 15  1  0  0  0  0
 15 16  1  0  0  0  0
 15 17  1  0  0  0  0
 18  2  1  0  0  0  0
 18 20  2  0  0  0  0
 18 24  1  0  0  0  0
 19 25  1  0  0  0  0
 20  1  1  0  0  0  0
 20 21  1  0  0  0  0
 21 22  2  0  0  0  0
 22 19  1  0  0  0  0
 22 23  1  0  0  0  0
 23 24  2  0  0  0  0
M  END
>  <CHROM.1>
160.48776310,-171.09853481,66.37215887,168.64866281,-135.80603114,-114.53299106
106.81557288,86.97582449,-151.18384939,11.32830862,72.85297918,119.28895744
109.69505682,-71.83604254,-29.50856102,123.66193796,-150.79523445,70.02529024
-3.00451142,-11.01975352,-3.20778404,2.74504542,-0.47648695,1.26292672

>  <Name>
1uud_lig

>  <RI>
0

>  <Rbt.Current_Directory>
/home/itssahil/PROJECTS/Mol_Feturizer/New_Systems/rnas/1uud

>  <Rbt.Executable>
rbdock ($Id: //depot/dev/client3/rdock/2013.1/src/exe/rbdock.cxx#4 $)

>  <Rbt.Library>
libRbt.so (2013.1, Build901 2013/11/27)

>  <Rbt.Parameter_File>
/export/apps/rDock/src/rDock_2013.1_src/data/scripts/dock_solv.prm

>  <Rbt.Receptor>
prm/pocket_docking_7.prm

>  <SCORE>
-32.5786

>  <SCORE.INTER>
-27.4545

>  <SCORE.INTER.CONST>
1

>  <SCORE.INTER.POLAR>
-4.14416

>  <SCORE.INTER.ROT>
18

>  <SCORE.INTER.SOLV>
13.8693

>  <SCORE.INTER.VDW>
-24.7123

>  <SCORE.INTER.norm>
-1.09818

>  <SCORE.INTRA>
-5.12407

>  <SCORE.INTRA.DIHEDRAL>
0.385991

>  <SCORE.INTRA.DIHEDRAL.0>
30.6762

>  <SCORE.INTRA.POLAR>
0.0288659

>  <SCORE.INTRA.POLAR.0>
-0.0288659

>  <SCORE.INTRA.REPUL>
0

>  <SCORE.INTRA.REPUL.0>
0

>  <SCORE.INTRA.SOLV>
-0.793259

>  <SCORE.INTRA.SOLV.lig_0>
-25.2195

>  <SCORE.INTRA.VDW>
-5.01858

>  <SCORE.INTRA.VDW.0>
4.14263

>  <SCORE.INTRA.norm>
-0.204963

>  <SCORE.RESTR>
0

>  <SCORE.RESTR.CAVITY>
0

>  <SCORE.RESTR.norm>
0

>  <SCORE.SYSTEM>
0

>  <SCORE.SYSTEM.CONST>
0

>  <SCORE.SYSTEM.DIHEDRAL>
0

>  <SCORE.SYSTEM.SOLV>
0

>  <SCORE.SYSTEM.norm>
0

>  <SCORE.heavy>
25

>  <SCORE.norm>
-1.30314

>  <RMSD>
6.451

$$$$
1uud_lig
 OpenBabel11021811413D
libRbt.so/2013.1/901 2013/11/27
 25 25  0  0  0  0  0  0  0  0999 V2000
   -2.9866   -7.9351   -3.1676 C   0  0  0  0  0  0  0  0  0  0  0  0
   -3.3786  -10.8108   -3.5905 O   0  0  0  0  0  0  0  0  0  0  0  0
   -2.4686  -11.2971   -4.5884 C   0  0  0  0  0  0  0  0  0  0  0  0
   -3.9090   -7.0217   -2.4487 N   0  0  0  0  0  0  0  0  0  0  0  0
   -3.2247  -11.6106   -5.8866 C   0  0  0  0  0  0  0  0  0  0  0  0
   -5.2571   -7.0852   -3.0613 C   0  0  0  0  0  0  0  0  0  0  0  0
   -6.0673   -8.2085   -2.4029 C   0  0  0  0  0  0  0  0  0  0  0  0
   -3.5594  -12.8787   -5.9136 N   0  0  0  0  0  0  0  0  0  0  0  0
   -3.3663  -13.6206   -6.9880 C   0  0  0  0  0  0  0  0  0  0  0  0
   -7.5112   -8.1792   -2.9157 C   0  0  0  0  0  0  0  0  0  0  0  0
   -7.5925   -8.9124   -4.2577 C   0  0  0  0  0  0  0  0  0  0  0  0
   -3.0699  -14.9524   -6.8931 N   0  0  0  0  0  0  0  0  0  0  0  0
   -3.4627  -13.0479   -8.2156 N   0  0  0  0  0  0  0  0  0  0  0  0
   -6.8890   -8.2698   -5.1596 N   0  0  0  0  0  0  0  0  0  0  0  0
   -5.7706   -8.7716   -5.6476 C   0  0  0  0  0  0  0  0  0  0  0  0
   -5.5198  -10.0977   -5.4993 N   0  0  0  0  0  0  0  0  0  0  0  0
   -4.8552   -7.9864   -6.2891 N   0  0  0  0  0  0  0  0  0  0  0  0
   -2.6540  -10.3818   -2.4306 C   0  0  0  0  0  0  0  0  0  0  0  0
   -0.4533   -9.1272    1.0094 O   0  0  0  0  0  0  0  0  0  0  0  0
   -2.4366   -8.9944   -2.1901 C   0  0  0  0  0  0  0  0  0  0  0  0
   -1.6971   -8.5806   -1.0499 C   0  0  0  0  0  0  0  0  0  0  0  0
   -1.1937   -9.5467   -0.1397 C   0  0  0  0  0  0  0  0  0  0  0  0
   -1.4268  -10.9296   -0.3682 C   0  0  0  0  0  0  0  0  0  0  0  0
   -2.1630  -11.3484   -1.5095 C   0  0  0  0  0  0  0  0  0  0  0  0
    0.9242   -9.4766    0.8456 C   0  0  0  0  0  0  0  0  0  0  0  0
  1  4  1  0  0  0  0
  2  3  1  0  0  0  0
  3  5  1  0  0  0  0
  4  6  1  0  0  0  0
  5  8  1  0  0  0  0
  6  7  1  0  0  0  0
  7 10  1  0  0  0  0
  8  9  1  0  0  0  0
  9 12  1  0  0  0  0
  9 13  1  0  0  0  0
 10 11  1  0  0  0  0
 11 14  1  0  0  0  0
 14 15  1  0  0  0  0
 15 16  1  0  0  0  0
 15 17  1  0  0  0  0
 18  2  1  0  0  0  0
 18 20  2  0  0  0  0
 18 24  1  0  0  0  0
 19 25  1  0  0  0  0
 20  1  1  0  0  0  0
 20 21  1  0  0  0  0
 21 22  2  0  0  0  0
 22 19  1  0  0  0  0
 22 23  1  0  0  0  0
 23 24  2  0  0  0  0
M  END
>  <CHROM.1>
-119.96918097,-173.73204845,-94.06700109,88.21103707,-133.65237106,173.59188066
82.79307266,147.26917158,-138.17573875,124.96385170,-64.67216193,110.72467582
17.67879587,-86.78493928,-37.38144208,102.61026293,120.77823502,-109.09161344
-3.62697318,-9.97852132,-3.62766479,1.01125869,-0.64318947,0.81189805

>  <Name>
1uud_lig

>  <RI>
0

>  <Rbt.Current_Directory>
/home/itssahil/PROJECTS/Mol_Feturizer/New_Systems/rnas/1uud

>  <Rbt.Executable>
rbdock ($Id: //depot/dev/client3/rdock/2013.1/src/exe/rbdock.cxx#4 $)

>  <Rbt.Library>
libRbt.so (2013.1, Build901 2013/11/27)

>  <Rbt.Parameter_File>
/export/apps/rDock/src/rDock_2013.1_src/data/scripts/dock_solv.prm

>  <Rbt.Receptor>
prm/pocket_docking_2.prm

>  <SCORE>
-11.2214

>  <SCORE.INTER>
-6.28036

>  <SCORE.INTER.CONST>
1

>  <SCORE.INTER.POLAR>
-1.8804

>  <SCORE.INTER.ROT>
18

>  <SCORE.INTER.SOLV>
9.26632

>  <SCORE.INTER.VDW>
-16.6077

>  <SCORE.INTER.norm>
-0.251215

>  <SCORE.INTRA>
-6.58098

>  <SCORE.INTRA.DIHEDRAL>
-0.535776

>  <SCORE.INTRA.DIHEDRAL.0>
30.6762

>  <SCORE.INTRA.POLAR>
-0.971134

>  <SCORE.INTRA.POLAR.0>
-0.0288659

>  <SCORE.INTRA.REPUL>
0

>  <SCORE.INTRA.REPUL.0>
0

>  <SCORE.INTRA.SOLV>
1.73977

>  <SCORE.INTRA.SOLV.lig_0>
-25.2195

>  <SCORE.INTRA.VDW>
-3.88112

>  <SCORE.INTRA.VDW.0>
4.14263

>  <SCORE.INTRA.norm>
-0.263239

>  <SCORE.RESTR>
1.63997

>  <SCORE.RESTR.CAVITY>
1.63997

>  <SCORE.RESTR.norm>
0.0655988

>  <SCORE.SYSTEM>
0

>  <SCORE.SYSTEM.CONST>
0

>  <SCORE.SYSTEM.DIHEDRAL>
0

>  <SCORE.SYSTEM.SOLV>
0

>  <SCORE.SYSTEM.norm>
0

>  <SCORE.heavy>
25

>  <SCORE.norm>
-0.448855

>  <RMSD>
6.480

$$$$
1uud_lig
 OpenBabel11021811413D
libRbt.so/2013.1/901 2013/11/27
 25 25  0  0  0  0  0  0  0  0999 V2000
   -6.7549   -9.6741   -5.1269 C   0  0  0  0  0  0  0  0  0  0  0  0
   -4.2589  -10.3946   -6.4883 O   0  0  0  0  0  0  0  0  0  0  0  0
   -3.1816  -10.9122   -5.6935 C   0  0  0  0  0  0  0  0  0  0  0  0
   -6.3307  -10.3899   -3.8982 N   0  0  0  0  0  0  0  0  0  0  0  0
   -2.9035  -12.3746   -6.0666 C   0  0  0  0  0  0  0  0  0  0  0  0
   -7.0981   -9.8873   -2.7341 C   0  0  0  0  0  0  0  0  0  0  0  0
   -6.4895   -8.5654   -2.2507 C   0  0  0  0  0  0  0  0  0  0  0  0
   -2.6036  -12.4614   -7.3407 N   0  0  0  0  0  0  0  0  0  0  0  0
   -3.4990  -12.8319   -8.2367 C   0  0  0  0  0  0  0  0  0  0  0  0
   -7.6054   -7.5865   -1.8694 C   0  0  0  0  0  0  0  0  0  0  0  0
   -8.3655   -7.1612   -3.1290 C   0  0  0  0  0  0  0  0  0  0  0  0
   -3.2324  -13.8150   -9.1494 N   0  0  0  0  0  0  0  0  0  0  0  0
   -4.7123  -12.2220   -8.2535 N   0  0  0  0  0  0  0  0  0  0  0  0
   -9.4774   -6.5510   -2.7935 N   0  0  0  0  0  0  0  0  0  0  0  0
   -9.7317   -5.3171   -3.1851 C   0  0  0  0  0  0  0  0  0  0  0  0
   -9.2291   -4.8811   -4.3686 N   0  0  0  0  0  0  0  0  0  0  0  0
  -10.4801   -4.4654   -2.4230 N   0  0  0  0  0  0  0  0  0  0  0  0
   -4.4904   -9.0171   -6.1667 C   0  0  0  0  0  0  0  0  0  0  0  0
   -5.1799   -4.9004   -5.2573 O   0  0  0  0  0  0  0  0  0  0  0  0
   -5.6921   -8.6235   -5.5102 C   0  0  0  0  0  0  0  0  0  0  0  0
   -5.9225   -7.2527   -5.2167 C   0  0  0  0  0  0  0  0  0  0  0  0
   -4.9474   -6.2789   -5.5576 C   0  0  0  0  0  0  0  0  0  0  0  0
   -3.7400   -6.6729   -6.1947 C   0  0  0  0  0  0  0  0  0  0  0  0
   -3.5068   -8.0427   -6.4935 C   0  0  0  0  0  0  0  0  0  0  0  0
   -5.1848   -4.1401   -6.4691 C   0  0  0  0  0  0  0  0  0  0  0  0
  1  4  1  0  0  0  0
  2  3  1  0  0  0  0
  3  5  1  0  0  0  0
  4  6  1  0  0  0  0
  5  8  1  0  0  0  0
  6  7  1  0  0  0  0
  7 10  1  0  0  0  0
  8  9  1  0  0  0  0
  9 12  1  0  0  0  0
  9 13  1  0  0  0  0
 10 11  1  0  0  0  0
 11 14  1  0  0  0  0
 14 15  1  0  0  0  0
 15 16  1  0  0  0  0
 15 17  1  0  0  0  0
 18  2  1  0  0  0  0
 18 20  2  0  0  0  0
 18 24  1  0  0  0  0
 19 25  1  0  0  0  0
 20  1  1  0  0  0  0
 20 21  1  0  0  0  0
 21 22  2  0  0  0  0
 22 19  1  0  0  0  0
 22 23  1  0  0  0  0
 23 24  2  0  0  0  0
M  END
>  <CHROM.1>
103.49199437,-178.27301788,58.59336628,-79.95759040,-99.45167316,139.63955969
-68.10485756,-129.98650827,122.08505116,-166.81815988,167.15082660,121.76428140
30.38110190,-139.52576481,-170.65900428,-112.02902481,78.33767501,-119.20628535
-5.82005005,-8.59455558,-5.20030612,0.71173740,-0.74606306,3.04630549

>  <Name>
1uud_lig

>  <RI>
0

>  <Rbt.Current_Directory>
/home/itssahil/PROJECTS/Mol_Feturizer/New_Systems/rnas/1uud

>  <Rbt.Executable>
rbdock ($Id: //depot/dev/client3/rdock/2013.1/src/exe/rbdock.cxx#4 $)

>  <Rbt.Library>
libRbt.so (2013.1, Build901 2013/11/27)

>  <Rbt.Parameter_File>
/export/apps/rDock/src/rDock_2013.1_src/data/scripts/dock_solv.prm

>  <Rbt.Receptor>
prm/pocket_docking_5.prm

>  <SCORE>
-29.6261

>  <SCORE.INTER>
-20.874

>  <SCORE.INTER.CONST>
1

>  <SCORE.INTER.POLAR>
-3.18514

>  <SCORE.INTER.ROT>
18

>  <SCORE.INTER.SOLV>
8.97663

>  <SCORE.INTER.VDW>
-21.8911

>  <SCORE.INTER.norm>
-0.83496

>  <SCORE.INTRA>
-8.75212

>  <SCORE.INTRA.DIHEDRAL>
-3.68031

>  <SCORE.INTRA.DIHEDRAL.0>
30.6762

>  <SCORE.INTRA.POLAR>
-0.8802

>  <SCORE.INTRA.POLAR.0>
-0.0288659

>  <SCORE.INTRA.REPUL>
0

>  <SCORE.INTRA.REPUL.0>
0

>  <SCORE.INTRA.SOLV>
-0.019096

>  <SCORE.INTRA.SOLV.lig_0>
-25.2195

>  <SCORE.INTRA.VDW>
-3.90974

>  <SCORE.INTRA.VDW.0>
4.14263

>  <SCORE.INTRA.norm>
-0.350085

>  <SCORE.RESTR>
0

>  <SCORE.RESTR.CAVITY>
0

>  <SCORE.RESTR.norm>
0

>  <SCORE.SYSTEM>
0

>  <SCORE.SYSTEM.CONST>
0

>  <SCORE.SYSTEM.DIHEDRAL>
0

>  <SCORE.SYSTEM.SOLV>
0

>  <SCORE.SYSTEM.norm>
0

>  <SCORE.heavy>
25

>  <SCORE.norm>
-1.18504

>  <RMSD>
6.491

$$$$
1uud_lig
 OpenBabel11021811413D
libRbt.so/2013.1/901 2013/11/27
 25 25  0  0  0  0  0  0  0  0999 V2000
   -2.6470  -10.1541   -1.9114 C   0  0  0  0  0  0  0  0  0  0  0  0
   -5.3538   -9.7074   -2.9488 O   0  0  0  0  0  0  0  0  0  0  0  0
   -6.5043   -9.4301   -2.1366 C   0  0  0  0  0  0  0  0  0  0  0  0
   -3.1179  -11.2093   -2.8424 N   0  0  0  0  0  0  0  0  0  0  0  0
   -7.7894   -9.6497   -2.9463 C   0  0  0  0  0  0  0  0  0  0  0  0
   -2.2054  -11.2949   -4.0073 C   0  0  0  0  0  0  0  0  0  0  0  0
   -2.5072  -12.5709   -4.8025 C   0  0  0  0  0  0  0  0  0  0  0  0
   -7.8691   -8.7608   -3.9077 N   0  0  0  0  0  0  0  0  0  0  0  0
   -7.6575   -9.0876   -5.1689 C   0  0  0  0  0  0  0  0  0  0  0  0
   -1.7410  -12.5514   -6.1296 C   0  0  0  0  0  0  0  0  0  0  0  0
   -2.0103  -13.8501   -6.8951 C   0  0  0  0  0  0  0  0  0  0  0  0
   -6.4225   -9.4771   -5.6088 N   0  0  0  0  0  0  0  0  0  0  0  0
   -8.6896   -9.0344   -6.0499 N   0  0  0  0  0  0  0  0  0  0  0  0
   -3.2906  -13.9518   -7.1631 N   0  0  0  0  0  0  0  0  0  0  0  0
   -3.7697  -13.6641   -8.3581 C   0  0  0  0  0  0  0  0  0  0  0  0
   -3.5417  -14.5204   -9.3868 N   0  0  0  0  0  0  0  0  0  0  0  0
   -4.4806  -12.5201   -8.5865 N   0  0  0  0  0  0  0  0  0  0  0  0
   -4.4445   -8.6002   -2.9089 C   0  0  0  0  0  0  0  0  0  0  0  0
   -1.7650   -5.2763   -2.7576 O   0  0  0  0  0  0  0  0  0  0  0  0
   -3.1220   -8.7726   -2.4076 C   0  0  0  0  0  0  0  0  0  0  0  0
   -2.2359   -7.6636   -2.3506 C   0  0  0  0  0  0  0  0  0  0  0  0
   -2.6602   -6.3899   -2.8123 C   0  0  0  0  0  0  0  0  0  0  0  0
   -3.9725   -6.2214   -3.3305 C   0  0  0  0  0  0  0  0  0  0  0  0
   -4.8635   -7.3272   -3.3861 C   0  0  0  0  0  0  0  0  0  0  0  0
   -1.6459   -4.8232   -1.4059 C   0  0  0  0  0  0  0  0  0  0  0  0
  1  4  1  0  0  0  0
  2  3  1  0  0  0  0
  3  5  1  0  0  0  0
  4  6  1  0  0  0  0
  5  8  1  0  0  0  0
  6  7  1  0  0  0  0
  7 10  1  0  0  0  0
  8  9  1  0  0  0  0
  9 12  1  0  0  0  0
  9 13  1  0  0  0  0
 10 11  1  0  0  0  0
 11 14  1  0  0  0  0
 14 15  1  0  0  0  0
 15 16  1  0  0  0  0
 15 17  1  0  0  0  0
 18  2  1  0  0  0  0
 18 20  2  0  0  0  0
 18 24  1  0  0  0  0
 19 25  1  0  0  0  0
 20  1  1  0  0  0  0
 20 21  1  0  0  0  0
 21 22  2  0  0  0  0
 22 19  1  0  0  0  0
 22 23  1  0  0  0  0
 23 24  2  0  0  0  0
M  END
>  <CHROM.1>
81.83870064,127.60833480,-66.45220975,167.66075490,106.47730899,170.42411050
178.07172246,-66.88610220,105.14696330,-34.11564657,61.32107768,101.09155208
73.20819491,133.84897768,59.68134510,119.14694543,42.26547498,-74.71838149
-4.21033082,-9.91817772,-4.47677436,-1.59373267,0.17389597,-2.47190262

>  <Name>
1uud_lig

>  <RI>
0

>  <Rbt.Current_Directory>
/home/itssahil/PROJECTS/Mol_Feturizer/New_Systems/rnas/1uud

>  <Rbt.Executable>
rbdock ($Id: //depot/dev/client3/rdock/2013.1/src/exe/rbdock.cxx#4 $)

>  <Rbt.Library>
libRbt.so (2013.1, Build901 2013/11/27)

>  <Rbt.Parameter_File>
/export/apps/rDock/src/rDock_2013.1_src/data/scripts/dock_solv.prm

>  <Rbt.Receptor>
prm/pocket_docking_6.prm

>  <SCORE>
-37.8175

>  <SCORE.INTER>
-27.3386

>  <SCORE.INTER.CONST>
1

>  <SCORE.INTER.POLAR>
-5.40395

>  <SCORE.INTER.ROT>
18

>  <SCORE.INTER.SOLV>
14.1034

>  <SCORE.INTER.VDW>
-20.5137

>  <SCORE.INTER.norm>
-1.09355

>  <SCORE.INTRA>
-10.4788

>  <SCORE.INTRA.DIHEDRAL>
-3.30485

>  <SCORE.INTRA.DIHEDRAL.0>
30.6762

>  <SCORE.INTRA.POLAR>
-0.774048

>  <SCORE.INTRA.POLAR.0>
-0.0288659

>  <SCORE.INTRA.REPUL>
0

>  <SCORE.INTRA.REPUL.0>
0

>  <SCORE.INTRA.SOLV>
0.400906

>  <SCORE.INTRA.SOLV.lig_0>
-25.2195

>  <SCORE.INTRA.VDW>
-6.3951

>  <SCORE.INTRA.VDW.0>
4.14263

>  <SCORE.INTRA.norm>
-0.419153

>  <SCORE.RESTR>
0

>  <SCORE.RESTR.CAVITY>
0

>  <SCORE.RESTR.norm>
0

>  <SCORE.SYSTEM>
0

>  <SCORE.SYSTEM.CONST>
0

>  <SCORE.SYSTEM.DIHEDRAL>
0

>  <SCORE.SYSTEM.SOLV>
0

>  <SCORE.SYSTEM.norm>
0

>  <SCORE.heavy>
25

>  <SCORE.norm>
-1.5127

>  <RMSD>
6.507

$$$$
1uud_lig
 OpenBabel11021811413D
libRbt.so/2013.1/901 2013/11/27
 25 25  0  0  0  0  0  0  0  0999 V2000
   -2.2578   -9.6846   -2.2150 C   0  0  0  0  0  0  0  0  0  0  0  0
   -2.9201  -10.7033    0.4545 O   0  0  0  0  0  0  0  0  0  0  0  0
   -1.9726   -9.7516    0.9612 C   0  0  0  0  0  0  0  0  0  0  0  0
   -2.0817  -11.0823   -2.6814 N   0  0  0  0  0  0  0  0  0  0  0  0
   -0.9378  -10.4561    1.8489 C   0  0  0  0  0  0  0  0  0  0  0  0
   -2.3223  -11.1582   -4.1419 C   0  0  0  0  0  0  0  0  0  0  0  0
   -3.5569  -12.0262   -4.4138 C   0  0  0  0  0  0  0  0  0  0  0  0
   -0.1966  -11.2574    1.1213 N   0  0  0  0  0  0  0  0  0  0  0  0
    1.0017  -10.8972    0.7014 C   0  0  0  0  0  0  0  0  0  0  0  0
   -3.6060  -12.4129   -5.8960 C   0  0  0  0  0  0  0  0  0  0  0  0
   -2.4016  -13.2962   -6.2344 C   0  0  0  0  0  0  0  0  0  0  0  0
    2.1348  -11.5070    1.1652 N   0  0  0  0  0  0  0  0  0  0  0  0
    1.1121   -9.8974   -0.2109 N   0  0  0  0  0  0  0  0  0  0  0  0
   -2.6972  -14.5555   -6.0152 N   0  0  0  0  0  0  0  0  0  0  0  0
   -1.9798  -15.5327   -6.5355 C   0  0  0  0  0  0  0  0  0  0  0  0
   -1.7910  -15.5725   -7.8795 N   0  0  0  0  0  0  0  0  0  0  0  0
   -1.4314  -16.5105   -5.7549 N   0  0  0  0  0  0  0  0  0  0  0  0
   -3.9407  -10.0310   -0.2945 C   0  0  0  0  0  0  0  0  0  0  0  0
   -6.9846   -7.9915   -2.4911 O   0  0  0  0  0  0  0  0  0  0  0  0
   -3.6596   -9.5163   -1.5929 C   0  0  0  0  0  0  0  0  0  0  0  0
   -4.6713   -8.8311   -2.3176 C   0  0  0  0  0  0  0  0  0  0  0  0
   -5.9670   -8.6780   -1.7579 C   0  0  0  0  0  0  0  0  0  0  0  0
   -6.2539   -9.2080   -0.4712 C   0  0  0  0  0  0  0  0  0  0  0  0
   -5.2438   -9.8911    0.2589 C   0  0  0  0  0  0  0  0  0  0  0  0
   -7.7241   -8.9299   -3.2779 C   0  0  0  0  0  0  0  0  0  0  0  0
  1  4  1  0  0  0  0
  2  3  1  0  0  0  0
  3  5  1  0  0  0  0
  4  6  1  0  0  0  0
  5  8  1  0  0  0  0
  6  7  1  0  0  0  0
  7 10  1  0  0  0  0
  8  9  1  0  0  0  0
  9 12  1  0  0  0  0
  9 13  1  0  0  0  0
 10 11  1  0  0  0  0
 11 14  1  0  0  0  0
 14 15  1  0  0  0  0
 15 16  1  0  0  0  0
 15 17  1  0  0  0  0
 18  2  1  0  0  0  0
 18 20  2  0  0  0  0
 18 24  1  0  0  0  0
 19 25  1  0  0  0  0
 20  1  1  0  0  0  0
 20 21  1  0  0  0  0
 21 22  2  0  0  0  0
 22 19  1  0  0  0  0
 22 23  1  0  0  0  0
 23 24  2  0  0  0  0
M  END
>  <CHROM.1>
99.16844858,175.84148223,66.96793537,-115.37916168,98.96162529,-165.33573663
64.53437472,112.58459669,-111.29152181,-32.25754359,88.34272990,162.46247205
-55.32215915,-20.08736919,-102.36506393,74.13524652,75.61730731,91.19393431
-2.73725776,-11.24811397,-2.34413238,1.61873020,-0.46683993,0.94980776

>  <Name>
1uud_lig

>  <RI>
0

>  <Rbt.Current_Directory>
/home/itssahil/PROJECTS/Mol_Feturizer/New_Systems/rnas/1uud

>  <Rbt.Executable>
rbdock ($Id: //depot/dev/client3/rdock/2013.1/src/exe/rbdock.cxx#4 $)

>  <Rbt.Library>
libRbt.so (2013.1, Build901 2013/11/27)

>  <Rbt.Parameter_File>
/export/apps/rDock/src/rDock_2013.1_src/data/scripts/dock_solv.prm

>  <Rbt.Receptor>
prm/pocket_docking_3.prm

>  <SCORE>
-38.1433

>  <SCORE.INTER>
-33.5539

>  <SCORE.INTER.CONST>
1

>  <SCORE.INTER.POLAR>
-5.92686

>  <SCORE.INTER.ROT>
18

>  <SCORE.INTER.SOLV>
9.57364

>  <SCORE.INTER.VDW>
-21.4043

>  <SCORE.INTER.norm>
-1.34215

>  <SCORE.INTRA>
-5.35684

>  <SCORE.INTRA.DIHEDRAL>
-1.31924

>  <SCORE.INTRA.DIHEDRAL.0>
30.6762

>  <SCORE.INTRA.POLAR>
0.0288659

>  <SCORE.INTRA.POLAR.0>
-0.0288659

>  <SCORE.INTRA.REPUL>
0

>  <SCORE.INTRA.REPUL.0>
0

>  <SCORE.INTRA.SOLV>
-0.447791

>  <SCORE.INTRA.SOLV.lig_0>
-25.2195

>  <SCORE.INTRA.VDW>
-4.57147

>  <SCORE.INTRA.VDW.0>
4.14263

>  <SCORE.INTRA.norm>
-0.214274

>  <SCORE.RESTR>
0.767383

>  <SCORE.RESTR.CAVITY>
0.767383

>  <SCORE.RESTR.norm>
0.0306953

>  <SCORE.SYSTEM>
0

>  <SCORE.SYSTEM.CONST>
0

>  <SCORE.SYSTEM.DIHEDRAL>
0

>  <SCORE.SYSTEM.SOLV>
0

>  <SCORE.SYSTEM.norm>
0

>  <SCORE.heavy>
25

>  <SCORE.norm>
-1.52573

>  <RMSD>
6.517

$$$$
1uud_lig
 OpenBabel11021811413D
libRbt.so/2013.1/901 2013/11/27
 25 25  0  0  0  0  0  0  0  0999 V2000
   -3.1544  -11.9627   -5.5124 C   0  0  0  0  0  0  0  0  0  0  0  0
   -5.5719  -11.4423   -3.9351 O   0  0  0  0  0  0  0  0  0  0  0  0
   -6.4599  -10.3154   -3.9783 C   0  0  0  0  0  0  0  0  0  0  0  0
   -3.4408  -13.4102   -5.3552 N   0  0  0  0  0  0  0  0  0  0  0  0
   -5.8803   -9.2189   -4.8821 C   0  0  0  0  0  0  0  0  0  0  0  0
   -2.2564  -14.0976   -4.7883 C   0  0  0  0  0  0  0  0  0  0  0  0
   -1.1465  -14.1619   -5.8445 C   0  0  0  0  0  0  0  0  0  0  0  0
   -5.4122   -9.7510   -5.9860 N   0  0  0  0  0  0  0  0  0  0  0  0
   -4.4270   -9.1875   -6.6597 C   0  0  0  0  0  0  0  0  0  0  0  0
   -0.0258  -15.0918   -5.3669 C   0  0  0  0  0  0  0  0  0  0  0  0
   -0.5599  -16.5229   -5.2578 C   0  0  0  0  0  0  0  0  0  0  0  0
   -4.1973   -7.8407   -6.5977 N   0  0  0  0  0  0  0  0  0  0  0  0
   -3.6239   -9.9629   -7.4332 N   0  0  0  0  0  0  0  0  0  0  0  0
    0.2467  -17.2440   -4.5158 N   0  0  0  0  0  0  0  0  0  0  0  0
    0.7111  -18.4067   -4.9318 C   0  0  0  0  0  0  0  0  0  0  0  0
    2.0436  -18.5472   -5.1518 N   0  0  0  0  0  0  0  0  0  0  0  0
   -0.1184  -19.4687   -5.1561 N   0  0  0  0  0  0  0  0  0  0  0  0
   -4.3038  -11.0494   -3.3946 C   0  0  0  0  0  0  0  0  0  0  0  0
   -0.5313   -9.9106   -1.7449 O   0  0  0  0  0  0  0  0  0  0  0  0
   -3.1045  -11.2885   -4.1256 C   0  0  0  0  0  0  0  0  0  0  0  0
   -1.8507  -10.9164   -3.5709 C   0  0  0  0  0  0  0  0  0  0  0  0
   -1.7942  -10.2878   -2.2992 C   0  0  0  0  0  0  0  0  0  0  0  0
   -2.9913  -10.0313   -1.5779 C   0  0  0  0  0  0  0  0  0  0  0  0
   -4.2476  -10.4051   -2.1275 C   0  0  0  0  0  0  0  0  0  0  0  0
   -0.0050   -8.7940   -2.4679 C   0  0  0  0  0  0  0  0  0  0  0  0
  1  4  1  0  0  0  0
  2  3  1  0  0  0  0
  3  5  1  0  0  0  0
  4  6  1  0  0  0  0
  5  8  1  0  0  0  0
  6  7  1  0  0  0  0
  7 10  1  0  0  0  0
  8  9  1  0  0  0  0
  9 12  1  0  0  0  0
  9 13  1  0  0  0  0
 10 11  1  0  0  0  0
 11 14  1  0  0  0  0
 14 15  1  0  0  0  0
 15 16  1  0  0  0  0
 15 17  1  0  0  0  0
 18  2  1  0  0  0  0
 18 20  2  0  0  0  0
 18 24  1  0  0  0  0
 19 25  1  0  0  0  0
 20  1  1  0  0  0  0
 20 21  1  0  0  0  0
 21 22  2  0  0  0  0
 22 19  1  0  0  0  0
 22 23  1  0  0  0  0
 23 24  2  0  0  0  0
M  END
>  <CHROM.1>
-71.48882423,61.07523227,44.32075683,-71.24967076,-152.27953307,-169.43979283
64.90025177,-26.42867817,118.98857298,-119.90140039,-162.58952604,-128.65183820
114.93438697,-95.76200537,-79.89558615,-124.88393751,-73.95275728,71.45573009
-2.45572473,-12.42906277,-4.55935051,2.26909205,-0.68574088,0.55104767

>  <Name>
1uud_lig

>  <RI>
0

>  <Rbt.Current_Directory>
/home/itssahil/PROJECTS/Mol_Feturizer/New_Systems/rnas/1uud

>  <Rbt.Executable>
rbdock ($Id: //depot/dev/client3/rdock/2013.1/src/exe/rbdock.cxx#4 $)

>  <Rbt.Library>
libRbt.so (2013.1, Build901 2013/11/27)

>  <Rbt.Parameter_File>
/export/apps/rDock/src/rDock_2013.1_src/data/scripts/dock_solv.prm

>  <Rbt.Receptor>
prm/pocket_docking_7.prm

>  <SCORE>
-26.0107

>  <SCORE.INTER>
-19.4442

>  <SCORE.INTER.CONST>
1

>  <SCORE.INTER.POLAR>
-2.89303

>  <SCORE.INTER.ROT>
18

>  <SCORE.INTER.SOLV>
10.2895

>  <SCORE.INTER.VDW>
-22.3492

>  <SCORE.INTER.norm>
-0.777769

>  <SCORE.INTRA>
-6.56651

>  <SCORE.INTRA.DIHEDRAL>
-9.70187

>  <SCORE.INTRA.DIHEDRAL.0>
30.6762

>  <SCORE.INTRA.POLAR>
0.0288659

>  <SCORE.INTRA.POLAR.0>
-0.0288659

>  <SCORE.INTRA.REPUL>
0

>  <SCORE.INTRA.REPUL.0>
0

>  <SCORE.INTRA.SOLV>
0.314448

>  <SCORE.INTRA.SOLV.lig_0>
-25.2195

>  <SCORE.INTRA.VDW>
-1.97094

>  <SCORE.INTRA.VDW.0>
4.14263

>  <SCORE.INTRA.norm>
-0.26266

>  <SCORE.RESTR>
0

>  <SCORE.RESTR.CAVITY>
0

>  <SCORE.RESTR.norm>
0

>  <SCORE.SYSTEM>
0

>  <SCORE.SYSTEM.CONST>
0

>  <SCORE.SYSTEM.DIHEDRAL>
0

>  <SCORE.SYSTEM.SOLV>
0

>  <SCORE.SYSTEM.norm>
0

>  <SCORE.heavy>
25

>  <SCORE.norm>
-1.04043

>  <RMSD>
6.521

$$$$
1uud_lig
 OpenBabel11021811413D
libRbt.so/2013.1/901 2013/11/27
 25 25  0  0  0  0  0  0  0  0999 V2000
   -3.2055  -11.8163   -3.9257 C   0  0  0  0  0  0  0  0  0  0  0  0
   -1.8283  -10.8071   -1.5409 O   0  0  0  0  0  0  0  0  0  0  0  0
   -1.4736  -10.5900   -0.1670 C   0  0  0  0  0  0  0  0  0  0  0  0
   -1.8675  -11.2832   -4.2829 N   0  0  0  0  0  0  0  0  0  0  0  0
   -0.4291   -9.4707   -0.0605 C   0  0  0  0  0  0  0  0  0  0  0  0
   -1.3452  -11.9945   -5.4737 C   0  0  0  0  0  0  0  0  0  0  0  0
   -0.5751  -13.2435   -5.0282 C   0  0  0  0  0  0  0  0  0  0  0  0
    0.3991   -9.7248    0.9246 N   0  0  0  0  0  0  0  0  0  0  0  0
    1.3577  -10.6242    0.8055 C   0  0  0  0  0  0  0  0  0  0  0  0
   -0.2570  -14.1208   -6.2439 C   0  0  0  0  0  0  0  0  0  0  0  0
    1.0943  -14.8111   -6.0371 C   0  0  0  0  0  0  0  0  0  0  0  0
    2.6151  -10.2782    0.3934 N   0  0  0  0  0  0  0  0  0  0  0  0
    1.0887  -11.9228    1.0976 N   0  0  0  0  0  0  0  0  0  0  0  0
    0.9746  -16.0991   -6.2560 N   0  0  0  0  0  0  0  0  0  0  0  0
    1.5830  -16.9874   -5.4935 C   0  0  0  0  0  0  0  0  0  0  0  0
    1.9475  -16.6391   -4.2328 N   0  0  0  0  0  0  0  0  0  0  0  0
    1.8637  -18.2452   -5.9464 N   0  0  0  0  0  0  0  0  0  0  0  0
   -3.1860  -10.4077   -1.7679 C   0  0  0  0  0  0  0  0  0  0  0  0
   -7.2176   -9.1692   -2.4484 O   0  0  0  0  0  0  0  0  0  0  0  0
   -3.8899  -10.8708   -2.9168 C   0  0  0  0  0  0  0  0  0  0  0  0
   -5.2277  -10.4505   -3.1449 C   0  0  0  0  0  0  0  0  0  0  0  0
   -5.8697   -9.5874   -2.2185 C   0  0  0  0  0  0  0  0  0  0  0  0
   -5.1750   -9.1406   -1.0623 C   0  0  0  0  0  0  0  0  0  0  0  0
   -3.8354   -9.5557   -0.8319 C   0  0  0  0  0  0  0  0  0  0  0  0
   -8.0651  -10.3173   -2.5484 C   0  0  0  0  0  0  0  0  0  0  0  0
  1  4  1  0  0  0  0
  2  3  1  0  0  0  0
  3  5  1  0  0  0  0
  4  6  1  0  0  0  0
  5  8  1  0  0  0  0
  6  7  1  0  0  0  0
  7 10  1  0  0  0  0
  8  9  1  0  0  0  0
  9 12  1  0  0  0  0
  9 13  1  0  0  0  0
 10 11  1  0  0  0  0
 11 14  1  0  0  0  0
 14 15  1  0  0  0  0
 15 16  1  0  0  0  0
 15 17  1  0  0  0  0
 18  2  1  0  0  0  0
 18 20  2  0  0  0  0
 18 24  1  0  0  0  0
 19 25  1  0  0  0  0
 20  1  1  0  0  0  0
 20 21  1  0  0  0  0
 21 22  2  0  0  0  0
 22 19  1  0  0  0  0
 22 23  1  0  0  0  0
 23 24  2  0  0  0  0
M  END
>  <CHROM.1>
-166.58482443,-112.26183463,-145.57116293,-88.51163584,76.50425452,169.51544857
146.11648151,92.52768241,156.90514472,-167.39084058,129.33884169,-139.62951824
22.82525478,-105.34097506,15.53564555,-161.69796025,-48.33904890,57.98149279
-1.52370217,-11.99136934,-2.73841611,2.31142265,-0.37671280,0.87643625

>  <Name>
1uud_lig

>  <RI>
0

>  <Rbt.Current_Directory>
/home/itssahil/PROJECTS/Mol_Feturizer/New_Systems/rnas/1uud

>  <Rbt.Executable>
rbdock ($Id: //depot/dev/client3/rdock/2013.1/src/exe/rbdock.cxx#4 $)

>  <Rbt.Library>
libRbt.so (2013.1, Build901 2013/11/27)

>  <Rbt.Parameter_File>
/export/apps/rDock/src/rDock_2013.1_src/data/scripts/dock_solv.prm

>  <Rbt.Receptor>
prm/pocket_docking_7.prm

>  <SCORE>
-27.3535

>  <SCORE.INTER>
-28.5912

>  <SCORE.INTER.CONST>
1

>  <SCORE.INTER.POLAR>
-4.44379

>  <SCORE.INTER.ROT>
18

>  <SCORE.INTER.SOLV>
10.0126

>  <SCORE.INTER.VDW>
-23.1857

>  <SCORE.INTER.norm>
-1.14365

>  <SCORE.INTRA>
1.23773

>  <SCORE.INTRA.DIHEDRAL>
5.2537

>  <SCORE.INTRA.DIHEDRAL.0>
30.6762

>  <SCORE.INTRA.POLAR>
-0.35129

>  <SCORE.INTRA.POLAR.0>
-0.0288659

>  <SCORE.INTRA.REPUL>
0

>  <SCORE.INTRA.REPUL.0>
0

>  <SCORE.INTRA.SOLV>
-0.902376

>  <SCORE.INTRA.SOLV.lig_0>
-25.2195

>  <SCORE.INTRA.VDW>
0.256452

>  <SCORE.INTRA.VDW.0>
4.14263

>  <SCORE.INTRA.norm>
0.0495091

>  <SCORE.RESTR>
0

>  <SCORE.RESTR.CAVITY>
0

>  <SCORE.RESTR.norm>
0

>  <SCORE.SYSTEM>
0

>  <SCORE.SYSTEM.CONST>
0

>  <SCORE.SYSTEM.DIHEDRAL>
0

>  <SCORE.SYSTEM.SOLV>
0

>  <SCORE.SYSTEM.norm>
0

>  <SCORE.heavy>
25

>  <SCORE.norm>
-1.09414

>  <RMSD>
6.524

$$$$
1uud_lig
 OpenBabel11021811413D
libRbt.so/2013.1/901 2013/11/27
 25 25  0  0  0  0  0  0  0  0999 V2000
   -0.3574   -8.8863   -4.9310 C   0  0  0  0  0  0  0  0  0  0  0  0
   -1.4791  -11.5963   -4.9586 O   0  0  0  0  0  0  0  0  0  0  0  0
   -2.0126  -12.9098   -4.7346 C   0  0  0  0  0  0  0  0  0  0  0  0
   -1.1573   -7.9146   -5.7172 N   0  0  0  0  0  0  0  0  0  0  0  0
   -1.6830  -13.8246   -5.9219 C   0  0  0  0  0  0  0  0  0  0  0  0
   -2.3590   -8.5839   -6.2693 C   0  0  0  0  0  0  0  0  0  0  0  0
   -3.3014   -7.5330   -6.8687 C   0  0  0  0  0  0  0  0  0  0  0  0
   -2.2012  -13.3330   -7.0221 N   0  0  0  0  0  0  0  0  0  0  0  0
   -2.8926  -14.0869   -7.8561 C   0  0  0  0  0  0  0  0  0  0  0  0
   -4.0085   -6.7661   -5.7459 C   0  0  0  0  0  0  0  0  0  0  0  0
   -5.0793   -7.6588   -5.1121 C   0  0  0  0  0  0  0  0  0  0  0  0
   -3.9674  -14.8197   -7.4337 N   0  0  0  0  0  0  0  0  0  0  0  0
   -2.5274  -14.1371   -9.1631 N   0  0  0  0  0  0  0  0  0  0  0  0
   -6.1562   -7.6631   -5.8615 N   0  0  0  0  0  0  0  0  0  0  0  0
   -7.3387   -7.9762   -5.3674 C   0  0  0  0  0  0  0  0  0  0  0  0
   -7.8973   -9.1703   -5.6926 N   0  0  0  0  0  0  0  0  0  0  0  0
   -8.0182   -7.1230   -4.5448 N   0  0  0  0  0  0  0  0  0  0  0  0
   -1.7371  -10.7599   -3.8234 C   0  0  0  0  0  0  0  0  0  0  0  0
   -2.4813   -8.3001   -0.4109 O   0  0  0  0  0  0  0  0  0  0  0  0
   -1.2067   -9.4388   -3.7674 C   0  0  0  0  0  0  0  0  0  0  0  0
   -1.4487   -8.6261   -2.6276 C   0  0  0  0  0  0  0  0  0  0  0  0
   -2.2358   -9.1217   -1.5551 C   0  0  0  0  0  0  0  0  0  0  0  0
   -2.7815  -10.4320   -1.6187 C   0  0  0  0  0  0  0  0  0  0  0  0
   -2.5390  -11.2499   -2.7555 C   0  0  0  0  0  0  0  0  0  0  0  0
   -3.8830   -8.0349   -0.3032 C   0  0  0  0  0  0  0  0  0  0  0  0
  1  4  1  0  0  0  0
  2  3  1  0  0  0  0
  3  5  1  0  0  0  0
  4  6  1  0  0  0  0
  5  8  1  0  0  0  0
  6  7  1  0  0  0  0
  7 10  1  0  0  0  0
  8  9  1  0  0  0  0
  9 12  1  0  0  0  0
  9 13  1  0  0  0  0
 10 11  1  0  0  0  0
 11 14  1  0  0  0  0
 14 15  1  0  0  0  0
 15 16  1  0  0  0  0
 15 17  1  0  0  0  0
 18  2  1  0  0  0  0
 18 20  2  0  0  0  0
 18 24  1  0  0  0  0
 19 25  1  0  0  0  0
 20  1  1  0  0  0  0
 20 21  1  0  0  0  0
 21 22  2  0  0  0  0
 22 19  1  0  0  0  0
 22 23  1  0  0  0  0
 23 24  2  0  0  0  0
M  END
>  <CHROM.1>
-60.11730970,-177.48330534,-59.75637219,170.19460731,-132.24127180,-74.38851852
-73.94670826,54.45071494,-52.39071838,-55.08056062,-79.94395071,-157.83347969
-107.39256928,-71.19066440,-46.52132786,174.91873042,105.33651850,116.80497436
-3.29049122,-10.00501926,-4.86820643,-1.18775693,-0.60915555,0.78729174

>  <Name>
1uud_lig

>  <RI>
0

>  <Rbt.Current_Directory>
/home/itssahil/PROJECTS/Mol_Feturizer/New_Systems/rnas/1uud

>  <Rbt.Executable>
rbdock ($Id: //depot/dev/client3/rdock/2013.1/src/exe/rbdock.cxx#4 $)

>  <Rbt.Library>
libRbt.so (2013.1, Build901 2013/11/27)

>  <Rbt.Parameter_File>
/export/apps/rDock/src/rDock_2013.1_src/data/scripts/dock_solv.prm

>  <Rbt.Receptor>
prm/pocket_docking_5.prm

>  <SCORE>
-22.8721

>  <SCORE.INTER>
-15.9865

>  <SCORE.INTER.CONST>
1

>  <SCORE.INTER.POLAR>
-4.32461

>  <SCORE.INTER.ROT>
18

>  <SCORE.INTER.SOLV>
12.1406

>  <SCORE.INTER.VDW>
-15.8892

>  <SCORE.INTER.norm>
-0.639462

>  <SCORE.INTRA>
-6.88554

>  <SCORE.INTRA.DIHEDRAL>
-13.3078

>  <SCORE.INTRA.DIHEDRAL.0>
30.6762

>  <SCORE.INTRA.POLAR>
0.0288659

>  <SCORE.INTRA.POLAR.0>
-0.0288659

>  <SCORE.INTRA.REPUL>
0

>  <SCORE.INTRA.REPUL.0>
0

>  <SCORE.INTRA.SOLV>
-0.963393

>  <SCORE.INTRA.SOLV.lig_0>
-25.2195

>  <SCORE.INTRA.VDW>
0.151913

>  <SCORE.INTRA.VDW.0>
4.14263

>  <SCORE.INTRA.norm>
-0.275422

>  <SCORE.RESTR>
0

>  <SCORE.RESTR.CAVITY>
0

>  <SCORE.RESTR.norm>
0

>  <SCORE.SYSTEM>
0

>  <SCORE.SYSTEM.CONST>
0

>  <SCORE.SYSTEM.DIHEDRAL>
0

>  <SCORE.SYSTEM.SOLV>
0

>  <SCORE.SYSTEM.norm>
0

>  <SCORE.heavy>
25

>  <SCORE.norm>
-0.914883

>  <RMSD>
6.528

$$$$
1uud_lig
 OpenBabel11021811413D
libRbt.so/2013.1/901 2013/11/27
 25 25  0  0  0  0  0  0  0  0999 V2000
   -3.3267   -8.1132   -7.4328 C   0  0  0  0  0  0  0  0  0  0  0  0
   -5.6063   -9.3152   -6.0323 O   0  0  0  0  0  0  0  0  0  0  0  0
   -6.1277   -9.8562   -4.8093 C   0  0  0  0  0  0  0  0  0  0  0  0
   -3.1651   -9.4712   -6.8565 N   0  0  0  0  0  0  0  0  0  0  0  0
   -5.5018  -11.2289   -4.5284 C   0  0  0  0  0  0  0  0  0  0  0  0
   -2.7619  -10.4227   -7.9190 C   0  0  0  0  0  0  0  0  0  0  0  0
   -2.6113  -11.8263   -7.3202 C   0  0  0  0  0  0  0  0  0  0  0  0
   -4.2041  -11.1066   -4.3807 N   0  0  0  0  0  0  0  0  0  0  0  0
   -3.4510  -12.1293   -4.0216 C   0  0  0  0  0  0  0  0  0  0  0  0
   -2.4115  -12.8524   -8.4409 C   0  0  0  0  0  0  0  0  0  0  0  0
   -2.2512  -14.2490   -7.8334 C   0  0  0  0  0  0  0  0  0  0  0  0
   -3.5858  -13.3571   -4.6088 N   0  0  0  0  0  0  0  0  0  0  0  0
   -2.5221  -11.9586   -3.0458 N   0  0  0  0  0  0  0  0  0  0  0  0
   -2.0689  -15.1313   -8.7871 N   0  0  0  0  0  0  0  0  0  0  0  0
   -3.0499  -15.9087   -9.2038 C   0  0  0  0  0  0  0  0  0  0  0  0
   -2.8360  -17.2452   -9.3106 N   0  0  0  0  0  0  0  0  0  0  0  0
   -4.2720  -15.3990   -9.5398 N   0  0  0  0  0  0  0  0  0  0  0  0
   -5.3812   -7.9066   -5.8911 C   0  0  0  0  0  0  0  0  0  0  0  0
   -4.7031   -3.7150   -5.4209 O   0  0  0  0  0  0  0  0  0  0  0  0
   -4.2823   -7.2837   -6.5502 C   0  0  0  0  0  0  0  0  0  0  0  0
   -4.0543   -5.8912   -6.3852 C   0  0  0  0  0  0  0  0  0  0  0  0
   -4.9325   -5.1172   -5.5820 C   0  0  0  0  0  0  0  0  0  0  0  0
   -6.0400   -5.7339   -4.9401 C   0  0  0  0  0  0  0  0  0  0  0  0
   -6.2699   -7.1273   -5.0995 C   0  0  0  0  0  0  0  0  0  0  0  0
   -5.4414   -2.9919   -6.4102 C   0  0  0  0  0  0  0  0  0  0  0  0
  1  4  1  0  0  0  0
  2  3  1  0  0  0  0
  3  5  1  0  0  0  0
  4  6  1  0  0  0  0
  5  8  1  0  0  0  0
  6  7  1  0  0  0  0
  7 10  1  0  0  0  0
  8  9  1  0  0  0  0
  9 12  1  0  0  0  0
  9 13  1  0  0  0  0
 10 11  1  0  0  0  0
 11 14  1  0  0  0  0
 14 15  1  0  0  0  0
 15 16  1  0  0  0  0
 15 17  1  0  0  0  0
 18  2  1  0  0  0  0
 18 20  2  0  0  0  0
 18 24  1  0  0  0  0
 19 25  1  0  0  0  0
 20  1  1  0  0  0  0
 20 21  1  0  0  0  0
 21 22  2  0  0  0  0
 22 19  1  0  0  0  0
 22 23  1  0  0  0  0
 23 24  2  0  0  0  0
M  END
>  <CHROM.1>
156.05033691,-140.32588592,61.87049187,-179.40083055,174.33048233,171.17138690
179.56308575,46.22832291,-62.21828169,-81.70038344,-179.49343040,-101.27630240
-130.78563880,-113.36954176,-79.36596836,145.20059015,-34.71617309,92.55567643
-3.99998767,-10.33278721,-6.42681472,-2.52061696,-1.29768048,2.46510037

>  <Name>
1uud_lig

>  <RI>
0

>  <Rbt.Current_Directory>
/home/itssahil/PROJECTS/Mol_Feturizer/New_Systems/rnas/1uud

>  <Rbt.Executable>
rbdock ($Id: //depot/dev/client3/rdock/2013.1/src/exe/rbdock.cxx#4 $)

>  <Rbt.Library>
libRbt.so (2013.1, Build901 2013/11/27)

>  <Rbt.Parameter_File>
/export/apps/rDock/src/rDock_2013.1_src/data/scripts/dock_solv.prm

>  <Rbt.Receptor>
prm/pocket_docking_8.prm

>  <SCORE>
-27.603

>  <SCORE.INTER>
-16.7622

>  <SCORE.INTER.CONST>
1

>  <SCORE.INTER.POLAR>
-3.29655

>  <SCORE.INTER.ROT>
18

>  <SCORE.INTER.SOLV>
11.2609

>  <SCORE.INTER.VDW>
-19.54

>  <SCORE.INTER.norm>
-0.67049

>  <SCORE.INTRA>
-10.8408

>  <SCORE.INTRA.DIHEDRAL>
-7.12244

>  <SCORE.INTRA.DIHEDRAL.0>
30.6762

>  <SCORE.INTRA.POLAR>
-0.995836

>  <SCORE.INTRA.POLAR.0>
-0.0288659

>  <SCORE.INTRA.REPUL>
0

>  <SCORE.INTRA.REPUL.0>
0

>  <SCORE.INTRA.SOLV>
0.776074

>  <SCORE.INTRA.SOLV.lig_0>
-25.2195

>  <SCORE.INTRA.VDW>
-4.28178

>  <SCORE.INTRA.VDW.0>
4.14263

>  <SCORE.INTRA.norm>
-0.433632

>  <SCORE.RESTR>
0

>  <SCORE.RESTR.CAVITY>
0

>  <SCORE.RESTR.norm>
0

>  <SCORE.SYSTEM>
0

>  <SCORE.SYSTEM.CONST>
0

>  <SCORE.SYSTEM.DIHEDRAL>
0

>  <SCORE.SYSTEM.SOLV>
0

>  <SCORE.SYSTEM.norm>
0

>  <SCORE.heavy>
25

>  <SCORE.norm>
-1.10412

>  <RMSD>
6.570

$$$$
1uud_lig
 OpenBabel11021811413D
libRbt.so/2013.1/901 2013/11/27
 25 25  0  0  0  0  0  0  0  0999 V2000
   -2.5031  -10.9796   -2.0712 C   0  0  0  0  0  0  0  0  0  0  0  0
   -2.6925  -10.9292    0.8553 O   0  0  0  0  0  0  0  0  0  0  0  0
   -1.8990   -9.9025    1.4690 C   0  0  0  0  0  0  0  0  0  0  0  0
   -2.7090  -10.8801   -3.5374 N   0  0  0  0  0  0  0  0  0  0  0  0
   -0.8963   -9.3322    0.4568 C   0  0  0  0  0  0  0  0  0  0  0  0
   -3.5519  -12.0065   -4.0037 C   0  0  0  0  0  0  0  0  0  0  0  0
   -3.5799  -12.0257   -5.5368 C   0  0  0  0  0  0  0  0  0  0  0  0
    0.0256   -8.6400    1.0826 N   0  0  0  0  0  0  0  0  0  0  0  0
    1.1445   -8.2798    0.4824 C   0  0  0  0  0  0  0  0  0  0  0  0
   -2.1969  -12.4031   -6.0786 C   0  0  0  0  0  0  0  0  0  0  0  0
   -2.1699  -13.8965   -6.4169 C   0  0  0  0  0  0  0  0  0  0  0  0
    1.2711   -7.0586   -0.1204 N   0  0  0  0  0  0  0  0  0  0  0  0
    2.1934   -9.1421    0.4617 N   0  0  0  0  0  0  0  0  0  0  0  0
   -1.8067  -14.5858   -5.3614 N   0  0  0  0  0  0  0  0  0  0  0  0
   -0.8577  -15.4999   -5.4282 C   0  0  0  0  0  0  0  0  0  0  0  0
   -0.7982  -16.4635   -4.4735 N   0  0  0  0  0  0  0  0  0  0  0  0
    0.0718  -15.4932   -6.4292 N   0  0  0  0  0  0  0  0  0  0  0  0
   -3.7524  -10.3411    0.0903 C   0  0  0  0  0  0  0  0  0  0  0  0
   -6.9010   -8.5435   -2.1692 O   0  0  0  0  0  0  0  0  0  0  0  0
   -3.6974  -10.3396   -1.3334 C   0  0  0  0  0  0  0  0  0  0  0  0
   -4.7417   -9.7335   -2.0819 C   0  0  0  0  0  0  0  0  0  0  0  0
   -5.8493   -9.1491   -1.4132 C   0  0  0  0  0  0  0  0  0  0  0  0
   -5.9146   -9.1674    0.0061 C   0  0  0  0  0  0  0  0  0  0  0  0
   -4.8703   -9.7695    0.7591 C   0  0  0  0  0  0  0  0  0  0  0  0
   -6.8028   -7.1196   -2.0714 C   0  0  0  0  0  0  0  0  0  0  0  0
  1  4  1  0  0  0  0
  2  3  1  0  0  0  0
  3  5  1  0  0  0  0
  4  6  1  0  0  0  0
  5  8  1  0  0  0  0
  6  7  1  0  0  0  0
  7 10  1  0  0  0  0
  8  9  1  0  0  0  0
  9 12  1  0  0  0  0
  9 13  1  0  0  0  0
 10 11  1  0  0  0  0
 11 14  1  0  0  0  0
 14 15  1  0  0  0  0
 15 16  1  0  0  0  0
 15 17  1  0  0  0  0
 18  2  1  0  0  0  0
 18 20  2  0  0  0  0
 18 24  1  0  0  0  0
 19 25  1  0  0  0  0
 20  1  1  0  0  0  0
 20 21  1  0  0  0  0
 21 22  2  0  0  0  0
 22 19  1  0  0  0  0
 22 23  1  0  0  0  0
 23 24  2  0  0  0  0
M  END
>  <CHROM.1>
-84.25055210,-80.87603004,-165.00195241,-171.18116548,165.86334982,68.23988978
97.72582904,94.16267143,142.63458903,-40.04314769,-88.79793494,-130.61382215
-159.21307064,-100.70958112,106.30855464,106.60097878,178.33369823,-105.71523448
-2.45268982,-10.89317447,-2.14944049,1.43505814,0.23909210,-2.33228371

>  <Name>
1uud_lig

>  <RI>
0

>  <Rbt.Current_Directory>
/home/itssahil/PROJECTS/Mol_Feturizer/New_Systems/rnas/1uud

>  <Rbt.Executable>
rbdock ($Id: //depot/dev/client3/rdock/2013.1/src/exe/rbdock.cxx#4 $)

>  <Rbt.Library>
libRbt.so (2013.1, Build901 2013/11/27)

>  <Rbt.Parameter_File>
/export/apps/rDock/src/rDock_2013.1_src/data/scripts/dock_solv.prm

>  <Rbt.Receptor>
prm/pocket_docking_5.prm

>  <SCORE>
-25.4723

>  <SCORE.INTER>
-22.3409

>  <SCORE.INTER.CONST>
1

>  <SCORE.INTER.POLAR>
-3.93081

>  <SCORE.INTER.ROT>
18

>  <SCORE.INTER.SOLV>
9.1163

>  <SCORE.INTER.VDW>
-20.43

>  <SCORE.INTER.norm>
-0.893637

>  <SCORE.INTRA>
-3.13134

>  <SCORE.INTRA.DIHEDRAL>
-0.150771

>  <SCORE.INTRA.DIHEDRAL.0>
30.6762

>  <SCORE.INTRA.POLAR>
0.0288659

>  <SCORE.INTRA.POLAR.0>
-0.0288659

>  <SCORE.INTRA.REPUL>
0

>  <SCORE.INTRA.REPUL.0>
0

>  <SCORE.INTRA.SOLV>
-1.20982

>  <SCORE.INTRA.SOLV.lig_0>
-25.2195

>  <SCORE.INTRA.VDW>
-2.54919

>  <SCORE.INTRA.VDW.0>
4.14263

>  <SCORE.INTRA.norm>
-0.125253

>  <SCORE.RESTR>
0

>  <SCORE.RESTR.CAVITY>
0

>  <SCORE.RESTR.norm>
0

>  <SCORE.SYSTEM>
0

>  <SCORE.SYSTEM.CONST>
0

>  <SCORE.SYSTEM.DIHEDRAL>
0

>  <SCORE.SYSTEM.SOLV>
0

>  <SCORE.SYSTEM.norm>
0

>  <SCORE.heavy>
25

>  <SCORE.norm>
-1.01889

>  <RMSD>
6.576

$$$$
1uud_lig
 OpenBabel11021811413D
libRbt.so/2013.1/901 2013/11/27
 25 25  0  0  0  0  0  0  0  0999 V2000
   -6.2716   -6.6065   -0.0084 C   0  0  0  0  0  0  0  0  0  0  0  0
   -6.0684   -9.2732   -1.2125 O   0  0  0  0  0  0  0  0  0  0  0  0
   -5.1206   -9.6774   -2.2118 C   0  0  0  0  0  0  0  0  0  0  0  0
   -5.3740   -5.4579   -0.2863 N   0  0  0  0  0  0  0  0  0  0  0  0
   -5.6861   -9.4160   -3.6143 C   0  0  0  0  0  0  0  0  0  0  0  0
   -4.3429   -5.8541   -1.2745 C   0  0  0  0  0  0  0  0  0  0  0  0
   -3.4043   -4.6706   -1.5389 C   0  0  0  0  0  0  0  0  0  0  0  0
   -6.8732   -9.9627   -3.7264 N   0  0  0  0  0  0  0  0  0  0  0  0
   -7.8960   -9.2949   -4.2263 C   0  0  0  0  0  0  0  0  0  0  0  0
   -2.6594   -4.2986   -0.2522 C   0  0  0  0  0  0  0  0  0  0  0  0
   -1.6486   -3.1872   -0.5492 C   0  0  0  0  0  0  0  0  0  0  0  0
   -9.1273   -9.3228   -3.6315 N   0  0  0  0  0  0  0  0  0  0  0  0
   -7.7220   -8.5645   -5.3579 N   0  0  0  0  0  0  0  0  0  0  0  0
   -0.4276   -3.6497   -0.4207 N   0  0  0  0  0  0  0  0  0  0  0  0
    0.3794   -3.2116    0.5266 C   0  0  0  0  0  0  0  0  0  0  0  0
    0.2880   -1.9178    0.9283 N   0  0  0  0  0  0  0  0  0  0  0  0
    1.3110   -4.0262    1.1050 N   0  0  0  0  0  0  0  0  0  0  0  0
   -5.3990   -9.0308    0.0316 C   0  0  0  0  0  0  0  0  0  0  0  0
   -3.3596   -8.3176    3.7170 O   0  0  0  0  0  0  0  0  0  0  0  0
   -5.4677   -7.7481    0.6479 C   0  0  0  0  0  0  0  0  0  0  0  0
   -4.7816   -7.5114    1.8692 C   0  0  0  0  0  0  0  0  0  0  0  0
   -4.0459   -8.5574    2.4858 C   0  0  0  0  0  0  0  0  0  0  0  0
   -3.9928   -9.8424    1.8818 C   0  0  0  0  0  0  0  0  0  0  0  0
   -4.6748  -10.0828    0.6583 C   0  0  0  0  0  0  0  0  0  0  0  0
   -4.2746   -8.4476    4.8089 C   0  0  0  0  0  0  0  0  0  0  0  0
  1  4  1  0  0  0  0
  2  3  1  0  0  0  0
  3  5  1  0  0  0  0
  4  6  1  0  0  0  0
  5  8  1  0  0  0  0
  6  7  1  0  0  0  0
  7 10  1  0  0  0  0
  8  9  1  0  0  0  0
  9 12  1  0  0  0  0
  9 13  1  0  0  0  0
 10 11  1  0  0  0  0
 11 14  1  0  0  0  0
 14 15  1  0  0  0  0
 15 16  1  0  0  0  0
 15 17  1  0  0  0  0
 18  2  1  0  0  0  0
 18 20  2  0  0  0  0
 18 24  1  0  0  0  0
 19 25  1  0  0  0  0
 20  1  1  0  0  0  0
 20 21  1  0  0  0  0
 21 22  2  0  0  0  0
 22 19  1  0  0  0  0
 22 23  1  0  0  0  0
 23 24  2  0  0  0  0
M  END
>  <CHROM.1>
63.80790218,-158.11752114,-52.42216584,-179.02301647,132.33917837,63.15232659
175.76177903,-134.88049822,48.86991079,6.25109963,-112.24107374,-114.14541963
-32.98387193,-58.36775328,-75.80204926,120.63875478,-120.80867885,82.95139859
-4.25247143,-7.06684218,-0.42284262,3.05083163,-0.79974552,-1.08148737

>  <Name>
1uud_lig

>  <RI>
0

>  <Rbt.Current_Directory>
/home/itssahil/PROJECTS/Mol_Feturizer/New_Systems/rnas/1uud

>  <Rbt.Executable>
rbdock ($Id: //depot/dev/client3/rdock/2013.1/src/exe/rbdock.cxx#4 $)

>  <Rbt.Library>
libRbt.so (2013.1, Build901 2013/11/27)

>  <Rbt.Parameter_File>
/export/apps/rDock/src/rDock_2013.1_src/data/scripts/dock_solv.prm

>  <Rbt.Receptor>
prm/pocket_docking_8.prm

>  <SCORE>
-27.0572

>  <SCORE.INTER>
-20.5264

>  <SCORE.INTER.CONST>
1

>  <SCORE.INTER.POLAR>
-4.7125

>  <SCORE.INTER.ROT>
18

>  <SCORE.INTER.SOLV>
10.6045

>  <SCORE.INTER.VDW>
-17.1108

>  <SCORE.INTER.norm>
-0.821057

>  <SCORE.INTRA>
-6.53074

>  <SCORE.INTRA.DIHEDRAL>
-4.27902

>  <SCORE.INTRA.DIHEDRAL.0>
30.6762

>  <SCORE.INTRA.POLAR>
0.0288659

>  <SCORE.INTRA.POLAR.0>
-0.0288659

>  <SCORE.INTRA.REPUL>
0

>  <SCORE.INTRA.REPUL.0>
0

>  <SCORE.INTRA.SOLV>
-0.927309

>  <SCORE.INTRA.SOLV.lig_0>
-25.2195

>  <SCORE.INTRA.VDW>
-4.02572

>  <SCORE.INTRA.VDW.0>
4.14263

>  <SCORE.INTRA.norm>
-0.26123

>  <SCORE.RESTR>
0

>  <SCORE.RESTR.CAVITY>
0

>  <SCORE.RESTR.norm>
0

>  <SCORE.SYSTEM>
0

>  <SCORE.SYSTEM.CONST>
0

>  <SCORE.SYSTEM.DIHEDRAL>
0

>  <SCORE.SYSTEM.SOLV>
0

>  <SCORE.SYSTEM.norm>
0

>  <SCORE.heavy>
25

>  <SCORE.norm>
-1.08229

>  <RMSD>
6.581

$$$$
1uud_lig
 OpenBabel11021811413D
libRbt.so/2013.1/901 2013/11/27
 25 25  0  0  0  0  0  0  0  0999 V2000
   -3.7396   -9.4339   -5.2110 C   0  0  0  0  0  0  0  0  0  0  0  0
   -5.0809   -6.8270   -5.2997 O   0  0  0  0  0  0  0  0  0  0  0  0
   -6.0131   -5.9932   -4.5955 C   0  0  0  0  0  0  0  0  0  0  0  0
   -3.2919  -10.6679   -4.5189 N   0  0  0  0  0  0  0  0  0  0  0  0
   -7.2239   -6.8193   -4.1410 C   0  0  0  0  0  0  0  0  0  0  0  0
   -4.0121  -11.8410   -5.0683 C   0  0  0  0  0  0  0  0  0  0  0  0
   -3.3151  -13.1293   -4.6145 C   0  0  0  0  0  0  0  0  0  0  0  0
   -7.1205   -8.0477   -4.5897 N   0  0  0  0  0  0  0  0  0  0  0  0
   -8.1872   -8.7883   -4.8252 C   0  0  0  0  0  0  0  0  0  0  0  0
   -1.9839  -13.2908   -5.3565 C   0  0  0  0  0  0  0  0  0  0  0  0
   -1.3960  -14.6730   -5.0580 C   0  0  0  0  0  0  0  0  0  0  0  0
   -8.5684   -9.1078   -6.0993 N   0  0  0  0  0  0  0  0  0  0  0  0
   -8.9238   -9.2423   -3.7785 N   0  0  0  0  0  0  0  0  0  0  0  0
   -2.0439  -15.5889   -5.7382 N   0  0  0  0  0  0  0  0  0  0  0  0
   -1.4117  -16.5843   -6.3297 C   0  0  0  0  0  0  0  0  0  0  0  0
   -0.1375  -16.3971   -6.7599 N   0  0  0  0  0  0  0  0  0  0  0  0
   -2.0125  -17.7949   -6.5285 N   0  0  0  0  0  0  0  0  0  0  0  0
   -3.8640   -6.9459   -4.5516 C   0  0  0  0  0  0  0  0  0  0  0  0
   -0.2624   -7.2885   -2.2797 O   0  0  0  0  0  0  0  0  0  0  0  0
   -3.1833   -8.1954   -4.4783 C   0  0  0  0  0  0  0  0  0  0  0  0
   -1.9904   -8.3084   -3.7151 C   0  0  0  0  0  0  0  0  0  0  0  0
   -1.4654   -7.1729   -3.0438 C   0  0  0  0  0  0  0  0  0  0  0  0
   -2.1330   -5.9217   -3.1324 C   0  0  0  0  0  0  0  0  0  0  0  0
   -3.3287   -5.8049   -3.8918 C   0  0  0  0  0  0  0  0  0  0  0  0
    0.8133   -7.6829   -3.1364 C   0  0  0  0  0  0  0  0  0  0  0  0
  1  4  1  0  0  0  0
  2  3  1  0  0  0  0
  3  5  1  0  0  0  0
  4  6  1  0  0  0  0
  5  8  1  0  0  0  0
  6  7  1  0  0  0  0
  7 10  1  0  0  0  0
  8  9  1  0  0  0  0
  9 12  1  0  0  0  0
  9 13  1  0  0  0  0
 10 11  1  0  0  0  0
 11 14  1  0  0  0  0
 14 15  1  0  0  0  0
 15 16  1  0  0  0  0
 15 17  1  0  0  0  0
 18  2  1  0  0  0  0
 18 20  2  0  0  0  0
 18 24  1  0  0  0  0
 19 25  1  0  0  0  0
 20  1  1  0  0  0  0
 20 21  1  0  0  0  0
 21 22  2  0  0  0  0
 22 19  1  0  0  0  0
 22 23  1  0  0  0  0
 23 24  2  0  0  0  0
M  END
>  <CHROM.1>
170.03816306,-113.54385209,-3.87467046,166.02486138,-152.18127446,-72.06009245
-171.59065293,109.46314965,-20.04081662,-39.60500739,75.77492619,138.45074451
-29.11777252,110.84847589,-55.82079337,140.01225178,-153.53940126,61.24258630
-3.61992009,-10.16696708,-4.69758823,-1.96885155,0.17116156,-2.86928554

>  <Name>
1uud_lig

>  <RI>
0

>  <Rbt.Current_Directory>
/home/itssahil/PROJECTS/Mol_Feturizer/New_Systems/rnas/1uud

>  <Rbt.Executable>
rbdock ($Id: //depot/dev/client3/rdock/2013.1/src/exe/rbdock.cxx#4 $)

>  <Rbt.Library>
libRbt.so (2013.1, Build901 2013/11/27)

>  <Rbt.Parameter_File>
/export/apps/rDock/src/rDock_2013.1_src/data/scripts/dock_solv.prm

>  <Rbt.Receptor>
prm/pocket_docking_7.prm

>  <SCORE>
-27.9063

>  <SCORE.INTER>
-26.1533

>  <SCORE.INTER.CONST>
1

>  <SCORE.INTER.POLAR>
-5.42107

>  <SCORE.INTER.ROT>
18

>  <SCORE.INTER.SOLV>
11.7468

>  <SCORE.INTER.VDW>
-18.8809

>  <SCORE.INTER.norm>
-1.04613

>  <SCORE.INTRA>
-1.75303

>  <SCORE.INTRA.DIHEDRAL>
0.212526

>  <SCORE.INTRA.DIHEDRAL.0>
30.6762

>  <SCORE.INTRA.POLAR>
-0.0258221

>  <SCORE.INTRA.POLAR.0>
-0.0288659

>  <SCORE.INTRA.REPUL>
0

>  <SCORE.INTRA.REPUL.0>
0

>  <SCORE.INTRA.SOLV>
-0.654933

>  <SCORE.INTRA.SOLV.lig_0>
-25.2195

>  <SCORE.INTRA.VDW>
-1.44404

>  <SCORE.INTRA.VDW.0>
4.14263

>  <SCORE.INTRA.norm>
-0.0701214

>  <SCORE.RESTR>
0

>  <SCORE.RESTR.CAVITY>
0

>  <SCORE.RESTR.norm>
0

>  <SCORE.SYSTEM>
0

>  <SCORE.SYSTEM.CONST>
0

>  <SCORE.SYSTEM.DIHEDRAL>
0

>  <SCORE.SYSTEM.SOLV>
0

>  <SCORE.SYSTEM.norm>
0

>  <SCORE.heavy>
25

>  <SCORE.norm>
-1.11625

>  <RMSD>
6.616

$$$$
1uud_lig
 OpenBabel11021811413D
libRbt.so/2013.1/901 2013/11/27
 25 25  0  0  0  0  0  0  0  0999 V2000
   -3.7021  -11.1442   -5.3730 C   0  0  0  0  0  0  0  0  0  0  0  0
   -0.9232  -12.0433   -5.1052 O   0  0  0  0  0  0  0  0  0  0  0  0
   -0.9315  -11.8430   -6.5265 C   0  0  0  0  0  0  0  0  0  0  0  0
   -5.0616  -10.8881   -4.8359 N   0  0  0  0  0  0  0  0  0  0  0  0
   -0.8095  -13.1900   -7.2517 C   0  0  0  0  0  0  0  0  0  0  0  0
   -5.5594   -9.5829   -5.3312 C   0  0  0  0  0  0  0  0  0  0  0  0
   -7.0658   -9.4743   -5.0658 C   0  0  0  0  0  0  0  0  0  0  0  0
   -1.7861  -13.9851   -6.8845 N   0  0  0  0  0  0  0  0  0  0  0  0
   -2.7314  -14.3525   -7.7291 C   0  0  0  0  0  0  0  0  0  0  0  0
   -7.3375   -9.5640   -3.5601 C   0  0  0  0  0  0  0  0  0  0  0  0
   -8.7707   -9.1085   -3.2708 C   0  0  0  0  0  0  0  0  0  0  0  0
   -2.5743  -14.2165   -9.0810 N   0  0  0  0  0  0  0  0  0  0  0  0
   -3.8869  -14.8762   -7.2446 N   0  0  0  0  0  0  0  0  0  0  0  0
   -8.9018   -7.8367   -3.5649 N   0  0  0  0  0  0  0  0  0  0  0  0
   -8.6575   -6.8945   -2.6743 C   0  0  0  0  0  0  0  0  0  0  0  0
   -7.3713   -6.5436   -2.4172 N   0  0  0  0  0  0  0  0  0  0  0  0
   -9.6676   -6.2714   -1.9978 N   0  0  0  0  0  0  0  0  0  0  0  0
   -1.3210  -10.8398   -4.4360 C   0  0  0  0  0  0  0  0  0  0  0  0
   -2.4737   -7.2266   -2.4697 O   0  0  0  0  0  0  0  0  0  0  0  0
   -2.6599  -10.3650   -4.5442 C   0  0  0  0  0  0  0  0  0  0  0  0
   -3.0382   -9.1586   -3.8962 C   0  0  0  0  0  0  0  0  0  0  0  0
   -2.0892   -8.4383   -3.1243 C   0  0  0  0  0  0  0  0  0  0  0  0
   -0.7587   -8.9213   -2.9998 C   0  0  0  0  0  0  0  0  0  0  0  0
   -0.3749  -10.1258   -3.6493 C   0  0  0  0  0  0  0  0  0  0  0  0
   -1.8554   -6.1130   -3.1212 C   0  0  0  0  0  0  0  0  0  0  0  0
  1  4  1  0  0  0  0
  2  3  1  0  0  0  0
  3  5  1  0  0  0  0
  4  6  1  0  0  0  0
  5  8  1  0  0  0  0
  6  7  1  0  0  0  0
  7 10  1  0  0  0  0
  8  9  1  0  0  0  0
  9 12  1  0  0  0  0
  9 13  1  0  0  0  0
 10 11  1  0  0  0  0
 11 14  1  0  0  0  0
 14 15  1  0  0  0  0
 15 16  1  0  0  0  0
 15 17  1  0  0  0  0
 18  2  1  0  0  0  0
 18 20  2  0  0  0  0
 18 24  1  0  0  0  0
 19 25  1  0  0  0  0
 20  1  1  0  0  0  0
 20 21  1  0  0  0  0
 21 22  2  0  0  0  0
 22 19  1  0  0  0  0
 22 23  1  0  0  0  0
 23 24  2  0  0  0  0
M  END
>  <CHROM.1>
80.07630828,-167.66540712,57.43778123,166.31161031,112.88816553,60.67822270
165.85484562,16.83589514,-81.89930685,148.65249691,-65.14402283,-89.23659010
79.04772271,15.27072515,-37.06048955,68.22776197,152.53953839,-109.23895561
-4.08612102,-10.12851661,-4.66331292,0.86528730,0.04025103,-2.51090400

>  <Name>
1uud_lig

>  <RI>
0

>  <Rbt.Current_Directory>
/home/itssahil/PROJECTS/Mol_Feturizer/New_Systems/rnas/1uud

>  <Rbt.Executable>
rbdock ($Id: //depot/dev/client3/rdock/2013.1/src/exe/rbdock.cxx#4 $)

>  <Rbt.Library>
libRbt.so (2013.1, Build901 2013/11/27)

>  <Rbt.Parameter_File>
/export/apps/rDock/src/rDock_2013.1_src/data/scripts/dock_solv.prm

>  <Rbt.Receptor>
prm/pocket_docking_4.prm

>  <SCORE>
-18.9159

>  <SCORE.INTER>
-11.0301

>  <SCORE.INTER.CONST>
1

>  <SCORE.INTER.POLAR>
-3.28996

>  <SCORE.INTER.ROT>
18

>  <SCORE.INTER.SOLV>
7.80005

>  <SCORE.INTER.VDW>
-14.5868

>  <SCORE.INTER.norm>
-0.441202

>  <SCORE.INTRA>
-7.88582

>  <SCORE.INTRA.DIHEDRAL>
-8.95814

>  <SCORE.INTRA.DIHEDRAL.0>
30.6762

>  <SCORE.INTRA.POLAR>
0.0288659

>  <SCORE.INTRA.POLAR.0>
-0.0288659

>  <SCORE.INTRA.REPUL>
0

>  <SCORE.INTRA.REPUL.0>
0

>  <SCORE.INTRA.SOLV>
-0.378112

>  <SCORE.INTRA.SOLV.lig_0>
-25.2195

>  <SCORE.INTRA.VDW>
-3.31584

>  <SCORE.INTRA.VDW.0>
4.14263

>  <SCORE.INTRA.norm>
-0.315433

>  <SCORE.RESTR>
0

>  <SCORE.RESTR.CAVITY>
0

>  <SCORE.RESTR.norm>
0

>  <SCORE.SYSTEM>
0

>  <SCORE.SYSTEM.CONST>
0

>  <SCORE.SYSTEM.DIHEDRAL>
0

>  <SCORE.SYSTEM.SOLV>
0

>  <SCORE.SYSTEM.norm>
0

>  <SCORE.heavy>
25

>  <SCORE.norm>
-0.756635

>  <RMSD>
6.624

$$$$
1uud_lig
 OpenBabel11021811413D
libRbt.so/2013.1/901 2013/11/27
 25 25  0  0  0  0  0  0  0  0999 V2000
   -5.1324  -10.3507   -4.5624 C   0  0  0  0  0  0  0  0  0  0  0  0
   -4.1823  -10.4508   -1.7894 O   0  0  0  0  0  0  0  0  0  0  0  0
   -3.6023  -10.0005   -0.5561 C   0  0  0  0  0  0  0  0  0  0  0  0
   -4.7136  -11.7001   -4.1087 N   0  0  0  0  0  0  0  0  0  0  0  0
   -2.3470  -10.8213   -0.2306 C   0  0  0  0  0  0  0  0  0  0  0  0
   -3.5394  -12.1514   -4.8926 C   0  0  0  0  0  0  0  0  0  0  0  0
   -3.1812  -13.5893   -4.4979 C   0  0  0  0  0  0  0  0  0  0  0  0
   -1.9616  -10.5794    0.9997 N   0  0  0  0  0  0  0  0  0  0  0  0
   -0.7025  -10.3080    1.2877 C   0  0  0  0  0  0  0  0  0  0  0  0
   -1.7830  -13.9397   -5.0187 C   0  0  0  0  0  0  0  0  0  0  0  0
   -1.8166  -14.0415   -6.5463 C   0  0  0  0  0  0  0  0  0  0  0  0
    0.1832  -11.2953    1.6214 N   0  0  0  0  0  0  0  0  0  0  0  0
   -0.2773   -9.0187    1.2530 N   0  0  0  0  0  0  0  0  0  0  0  0
   -2.8178  -14.8025   -6.9201 N   0  0  0  0  0  0  0  0  0  0  0  0
   -3.2396  -14.8222   -8.1700 C   0  0  0  0  0  0  0  0  0  0  0  0
   -2.5116  -15.4863   -9.1041 N   0  0  0  0  0  0  0  0  0  0  0  0
   -4.3855  -14.1817   -8.5477 N   0  0  0  0  0  0  0  0  0  0  0  0
   -5.3662   -9.6972   -2.0808 C   0  0  0  0  0  0  0  0  0  0  0  0
   -8.8713   -7.4089   -2.9340 O   0  0  0  0  0  0  0  0  0  0  0  0
   -5.8589   -9.6182   -3.4153 C   0  0  0  0  0  0  0  0  0  0  0  0
   -7.0198   -8.8496   -3.6974 C   0  0  0  0  0  0  0  0  0  0  0  0
   -7.7007   -8.1785   -2.6479 C   0  0  0  0  0  0  0  0  0  0  0  0
   -7.2213   -8.2726   -1.3137 C   0  0  0  0  0  0  0  0  0  0  0  0
   -6.0582   -9.0375   -1.0273 C   0  0  0  0  0  0  0  0  0  0  0  0
   -8.5006   -6.0525   -3.1973 C   0  0  0  0  0  0  0  0  0  0  0  0
  1  4  1  0  0  0  0
  2  3  1  0  0  0  0
  3  5  1  0  0  0  0
  4  6  1  0  0  0  0
  5  8  1  0  0  0  0
  6  7  1  0  0  0  0
  7 10  1  0  0  0  0
  8  9  1  0  0  0  0
  9 12  1  0  0  0  0
  9 13  1  0  0  0  0
 10 11  1  0  0  0  0
 11 14  1  0  0  0  0
 14 15  1  0  0  0  0
 15 16  1  0  0  0  0
 15 17  1  0  0  0  0
 18  2  1  0  0  0  0
 18 20  2  0  0  0  0
 18 24  1  0  0  0  0
 19 25  1  0  0  0  0
 20  1  1  0  0  0  0
 20 21  1  0  0  0  0
 21 22  2  0  0  0  0
 22 19  1  0  0  0  0
 22 23  1  0  0  0  0
 23 24  2  0  0  0  0
M  END
>  <CHROM.1>
-154.06793536,179.09640384,-168.55809066,-175.49090790,-132.21491228,-165.57630453
-69.31054306,-91.01550385,-161.14559572,-80.66182928,-49.12702171,165.28909984
75.66888745,49.53207999,-86.85752791,158.40959493,41.72487937,-91.45248762
-4.03956803,-11.04081037,-3.22201158,1.35407233,0.56499599,-2.14658759

>  <Name>
1uud_lig

>  <RI>
0

>  <Rbt.Current_Directory>
/home/itssahil/PROJECTS/Mol_Feturizer/New_Systems/rnas/1uud

>  <Rbt.Executable>
rbdock ($Id: //depot/dev/client3/rdock/2013.1/src/exe/rbdock.cxx#4 $)

>  <Rbt.Library>
libRbt.so (2013.1, Build901 2013/11/27)

>  <Rbt.Parameter_File>
/export/apps/rDock/src/rDock_2013.1_src/data/scripts/dock_solv.prm

>  <Rbt.Receptor>
prm/pocket_docking_3.prm

>  <SCORE>
-38.1963

>  <SCORE.INTER>
-29.1387

>  <SCORE.INTER.CONST>
1

>  <SCORE.INTER.POLAR>
-4.14829

>  <SCORE.INTER.ROT>
18

>  <SCORE.INTER.SOLV>
12.0225

>  <SCORE.INTER.VDW>
-25.2057

>  <SCORE.INTER.norm>
-1.16555

>  <SCORE.INTRA>
-9.1073

>  <SCORE.INTRA.DIHEDRAL>
-11.3923

>  <SCORE.INTRA.DIHEDRAL.0>
30.6762

>  <SCORE.INTRA.POLAR>
-0.771011

>  <SCORE.INTRA.POLAR.0>
-0.0288659

>  <SCORE.INTRA.REPUL>
0

>  <SCORE.INTRA.REPUL.0>
0

>  <SCORE.INTRA.SOLV>
-0.815554

>  <SCORE.INTRA.SOLV.lig_0>
-25.2195

>  <SCORE.INTRA.VDW>
-0.38192

>  <SCORE.INTRA.VDW.0>
4.14263

>  <SCORE.INTRA.norm>
-0.364292

>  <SCORE.RESTR>
0.0497722

>  <SCORE.RESTR.CAVITY>
0.0497722

>  <SCORE.RESTR.norm>
0.00199089

>  <SCORE.SYSTEM>
0

>  <SCORE.SYSTEM.CONST>
0

>  <SCORE.SYSTEM.DIHEDRAL>
0

>  <SCORE.SYSTEM.SOLV>
0

>  <SCORE.SYSTEM.norm>
0

>  <SCORE.heavy>
25

>  <SCORE.norm>
-1.52785

>  <RMSD>
6.629

$$$$
1uud_lig
 OpenBabel11021811413D
libRbt.so/2013.1/901 2013/11/27
 25 25  0  0  0  0  0  0  0  0999 V2000
   -1.6662   -8.7540   -4.3473 C   0  0  0  0  0  0  0  0  0  0  0  0
   -0.9141   -7.5963   -1.7596 O   0  0  0  0  0  0  0  0  0  0  0  0
   -0.9936   -8.3834   -0.5619 C   0  0  0  0  0  0  0  0  0  0  0  0
   -2.4068   -9.8935   -4.9434 N   0  0  0  0  0  0  0  0  0  0  0  0
    0.4113   -8.6276    0.0053 C   0  0  0  0  0  0  0  0  0  0  0  0
   -2.7439  -10.8796   -3.8894 C   0  0  0  0  0  0  0  0  0  0  0  0
   -3.8383  -11.8238   -4.4016 C   0  0  0  0  0  0  0  0  0  0  0  0
    0.3394   -9.4113    1.0548 N   0  0  0  0  0  0  0  0  0  0  0  0
    0.5526  -10.7104    0.9618 C   0  0  0  0  0  0  0  0  0  0  0  0
   -3.2754  -13.2412   -4.5520 C   0  0  0  0  0  0  0  0  0  0  0  0
   -2.5234  -13.3547   -5.8812 C   0  0  0  0  0  0  0  0  0  0  0  0
   -0.4124  -11.5617    0.4985 N   0  0  0  0  0  0  0  0  0  0  0  0
    1.7573  -11.2134    1.3361 N   0  0  0  0  0  0  0  0  0  0  0  0
   -3.1594  -14.1745   -6.6842 N   0  0  0  0  0  0  0  0  0  0  0  0
   -3.3931  -13.8620   -7.9444 C   0  0  0  0  0  0  0  0  0  0  0  0
   -2.3439  -13.6667   -8.7838 N   0  0  0  0  0  0  0  0  0  0  0  0
   -4.6653  -13.7203   -8.4214 N   0  0  0  0  0  0  0  0  0  0  0  0
   -2.2293   -7.3395   -2.2682 C   0  0  0  0  0  0  0  0  0  0  0  0
   -6.1387   -6.5250   -3.7862 O   0  0  0  0  0  0  0  0  0  0  0  0
   -2.6334   -7.8786   -3.5237 C   0  0  0  0  0  0  0  0  0  0  0  0
   -3.9310   -7.5990   -4.0299 C   0  0  0  0  0  0  0  0  0  0  0  0
   -4.8317   -6.8014   -3.2762 C   0  0  0  0  0  0  0  0  0  0  0  0
   -4.4366   -6.2796   -2.0151 C   0  0  0  0  0  0  0  0  0  0  0  0
   -3.1381   -6.5537   -1.5064 C   0  0  0  0  0  0  0  0  0  0  0  0
   -6.3015   -5.1129   -3.9472 C   0  0  0  0  0  0  0  0  0  0  0  0
  1  4  1  0  0  0  0
  2  3  1  0  0  0  0
  3  5  1  0  0  0  0
  4  6  1  0  0  0  0
  5  8  1  0  0  0  0
  6  7  1  0  0  0  0
  7 10  1  0  0  0  0
  8  9  1  0  0  0  0
  9 12  1  0  0  0  0
  9 13  1  0  0  0  0
 10 11  1  0  0  0  0
 11 14  1  0  0  0  0
 14 15  1  0  0  0  0
 15 16  1  0  0  0  0
 15 17  1  0  0  0  0
 18  2  1  0  0  0  0
 18 20  2  0  0  0  0
 18 24  1  0  0  0  0
 19 25  1  0  0  0  0
 20  1  1  0  0  0  0
 20 21  1  0  0  0  0
 21 22  2  0  0  0  0
 22 19  1  0  0  0  0
 22 23  1  0  0  0  0
 23 24  2  0  0  0  0
M  END
>  <CHROM.1>
-73.00765866,-178.48500474,-176.36150024,163.41585247,97.19777406,113.14307905
-81.66004609,-79.39586508,-133.73563152,-11.26251191,-113.00395245,133.01940834
62.74060302,-39.79302559,-71.75757663,-114.69030288,139.27744318,-119.32328455
-2.49218154,-9.88474646,-3.33415933,1.14985837,-0.80974274,0.65338585

>  <Name>
1uud_lig

>  <RI>
0

>  <Rbt.Current_Directory>
/home/itssahil/PROJECTS/Mol_Feturizer/New_Systems/rnas/1uud

>  <Rbt.Executable>
rbdock ($Id: //depot/dev/client3/rdock/2013.1/src/exe/rbdock.cxx#4 $)

>  <Rbt.Library>
libRbt.so (2013.1, Build901 2013/11/27)

>  <Rbt.Parameter_File>
/export/apps/rDock/src/rDock_2013.1_src/data/scripts/dock_solv.prm

>  <Rbt.Receptor>
prm/pocket_docking_3.prm

>  <SCORE>
-30.6145

>  <SCORE.INTER>
-26.2798

>  <SCORE.INTER.CONST>
1

>  <SCORE.INTER.POLAR>
-4.9917

>  <SCORE.INTER.ROT>
18

>  <SCORE.INTER.SOLV>
10.8009

>  <SCORE.INTER.VDW>
-20.0811

>  <SCORE.INTER.norm>
-1.05119

>  <SCORE.INTRA>
-4.33474

>  <SCORE.INTRA.DIHEDRAL>
0.787881

>  <SCORE.INTRA.DIHEDRAL.0>
30.6762

>  <SCORE.INTRA.POLAR>
0.0288659

>  <SCORE.INTRA.POLAR.0>
-0.0288659

>  <SCORE.INTRA.REPUL>
0

>  <SCORE.INTRA.REPUL.0>
0

>  <SCORE.INTRA.SOLV>
-1.24925

>  <SCORE.INTRA.SOLV.lig_0>
-25.2195

>  <SCORE.INTRA.VDW>
-4.2022

>  <SCORE.INTRA.VDW.0>
4.14263

>  <SCORE.INTRA.norm>
-0.17339

>  <SCORE.RESTR>
0

>  <SCORE.RESTR.CAVITY>
0

>  <SCORE.RESTR.norm>
0

>  <SCORE.SYSTEM>
0

>  <SCORE.SYSTEM.CONST>
0

>  <SCORE.SYSTEM.DIHEDRAL>
0

>  <SCORE.SYSTEM.SOLV>
0

>  <SCORE.SYSTEM.norm>
0

>  <SCORE.heavy>
25

>  <SCORE.norm>
-1.22458

>  <RMSD>
6.651

$$$$
1uud_lig
 OpenBabel11021811413D
libRbt.so/2013.1/901 2013/11/27
 25 25  0  0  0  0  0  0  0  0999 V2000
   -5.0454  -11.2911   -3.4852 C   0  0  0  0  0  0  0  0  0  0  0  0
   -2.5002  -10.8887   -4.8861 O   0  0  0  0  0  0  0  0  0  0  0  0
   -2.7245  -12.3063   -4.8716 C   0  0  0  0  0  0  0  0  0  0  0  0
   -5.8631  -10.3653   -4.3076 N   0  0  0  0  0  0  0  0  0  0  0  0
   -1.3924  -13.0546   -5.0151 C   0  0  0  0  0  0  0  0  0  0  0  0
   -5.1655  -10.0777   -5.5833 C   0  0  0  0  0  0  0  0  0  0  0  0
   -4.9248   -8.5683   -5.7073 C   0  0  0  0  0  0  0  0  0  0  0  0
   -1.6121  -14.3447   -5.1059 N   0  0  0  0  0  0  0  0  0  0  0  0
   -2.2066  -14.8709   -6.1603 C   0  0  0  0  0  0  0  0  0  0  0  0
   -6.2643   -7.8238   -5.6898 C   0  0  0  0  0  0  0  0  0  0  0  0
   -6.3124   -6.8857   -4.4803 C   0  0  0  0  0  0  0  0  0  0  0  0
   -2.5726  -14.1034   -7.2316 N   0  0  0  0  0  0  0  0  0  0  0  0
   -2.4619  -16.2045   -6.1811 N   0  0  0  0  0  0  0  0  0  0  0  0
   -7.4238   -6.1888   -4.5012 N   0  0  0  0  0  0  0  0  0  0  0  0
   -8.2802   -6.2266   -3.4983 C   0  0  0  0  0  0  0  0  0  0  0  0
   -8.9924   -7.3615   -3.2782 N   0  0  0  0  0  0  0  0  0  0  0  0
   -8.4742   -5.1478   -2.6832 N   0  0  0  0  0  0  0  0  0  0  0  0
   -2.6464  -10.3535   -3.5645 C   0  0  0  0  0  0  0  0  0  0  0  0
   -3.0762   -8.7117    0.3560 O   0  0  0  0  0  0  0  0  0  0  0  0
   -3.8680  -10.5219   -2.8509 C   0  0  0  0  0  0  0  0  0  0  0  0
   -4.0111   -9.9675   -1.5507 C   0  0  0  0  0  0  0  0  0  0  0  0
   -2.9310   -9.2651   -0.9544 C   0  0  0  0  0  0  0  0  0  0  0  0
   -1.7056   -9.1134   -1.6575 C   0  0  0  0  0  0  0  0  0  0  0  0
   -1.5593   -9.6633   -2.9599 C   0  0  0  0  0  0  0  0  0  0  0  0
   -2.3423   -9.5035    1.2946 C   0  0  0  0  0  0  0  0  0  0  0  0
  1  4  1  0  0  0  0
  2  3  1  0  0  0  0
  3  5  1  0  0  0  0
  4  6  1  0  0  0  0
  5  8  1  0  0  0  0
  6  7  1  0  0  0  0
  7 10  1  0  0  0  0
  8  9  1  0  0  0  0
  9 12  1  0  0  0  0
  9 13  1  0  0  0  0
 10 11  1  0  0  0  0
 11 14  1  0  0  0  0
 14 15  1  0  0  0  0
 15 16  1  0  0  0  0
 15 17  1  0  0  0  0
 18  2  1  0  0  0  0
 18 20  2  0  0  0  0
 18 24  1  0  0  0  0
 19 25  1  0  0  0  0
 20  1  1  0  0  0  0
 20 21  1  0  0  0  0
 21 22  2  0  0  0  0
 22 19  1  0  0  0  0
 22 23  1  0  0  0  0
 23 24  2  0  0  0  0
M  END
>  <CHROM.1>
75.86871585,-105.69118442,-175.11293239,-121.18382727,68.02363908,-60.18459065
118.32520637,2.70124605,77.35521357,32.54866246,176.39956976,122.06725456
-69.79449327,-38.00485106,-153.76435371,-58.01098874,-86.46715651,105.97998347
-4.22962674,-10.12595385,-3.81389764,0.74955194,0.70291475,-2.23265100

>  <Name>
1uud_lig

>  <RI>
0

>  <Rbt.Current_Directory>
/home/itssahil/PROJECTS/Mol_Feturizer/New_Systems/rnas/1uud

>  <Rbt.Executable>
rbdock ($Id: //depot/dev/client3/rdock/2013.1/src/exe/rbdock.cxx#4 $)

>  <Rbt.Library>
libRbt.so (2013.1, Build901 2013/11/27)

>  <Rbt.Parameter_File>
/export/apps/rDock/src/rDock_2013.1_src/data/scripts/dock_solv.prm

>  <Rbt.Receptor>
prm/pocket_docking_2.prm

>  <SCORE>
-10.0581

>  <SCORE.INTER>
-11.7271

>  <SCORE.INTER.CONST>
1

>  <SCORE.INTER.POLAR>
-3.03411

>  <SCORE.INTER.ROT>
18

>  <SCORE.INTER.SOLV>
8.38168

>  <SCORE.INTER.VDW>
-16.0982

>  <SCORE.INTER.norm>
-0.469083

>  <SCORE.INTRA>
0.110681

>  <SCORE.INTRA.DIHEDRAL>
4.23029

>  <SCORE.INTRA.DIHEDRAL.0>
30.6762

>  <SCORE.INTRA.POLAR>
0.0288659

>  <SCORE.INTRA.POLAR.0>
-0.0288659

>  <SCORE.INTRA.REPUL>
0

>  <SCORE.INTRA.REPUL.0>
0

>  <SCORE.INTRA.SOLV>
-0.7385

>  <SCORE.INTRA.SOLV.lig_0>
-25.2195

>  <SCORE.INTRA.VDW>
-1.73336

>  <SCORE.INTRA.VDW.0>
4.14263

>  <SCORE.INTRA.norm>
0.00442726

>  <SCORE.RESTR>
1.55827

>  <SCORE.RESTR.CAVITY>
1.55827

>  <SCORE.RESTR.norm>
0.0623308

>  <SCORE.SYSTEM>
0

>  <SCORE.SYSTEM.CONST>
0

>  <SCORE.SYSTEM.DIHEDRAL>
0

>  <SCORE.SYSTEM.SOLV>
0

>  <SCORE.SYSTEM.norm>
0

>  <SCORE.heavy>
25

>  <SCORE.norm>
-0.402325

>  <RMSD>
6.678

$$$$
1uud_lig
 OpenBabel11021811413D
libRbt.so/2013.1/901 2013/11/27
 25 25  0  0  0  0  0  0  0  0999 V2000
   -2.2240   -9.3894   -2.2806 C   0  0  0  0  0  0  0  0  0  0  0  0
   -3.5832   -7.1237   -3.5540 O   0  0  0  0  0  0  0  0  0  0  0  0
   -4.9250   -6.7761   -3.1813 C   0  0  0  0  0  0  0  0  0  0  0  0
   -0.9430   -9.9500   -2.7774 N   0  0  0  0  0  0  0  0  0  0  0  0
   -5.7716   -6.5146   -4.4343 C   0  0  0  0  0  0  0  0  0  0  0  0
   -0.9215   -9.9168   -4.2590 C   0  0  0  0  0  0  0  0  0  0  0  0
   -1.7603  -11.0762   -4.8102 C   0  0  0  0  0  0  0  0  0  0  0  0
   -5.8387   -7.6031   -5.1634 N   0  0  0  0  0  0  0  0  0  0  0  0
   -6.8831   -8.4082   -5.1069 C   0  0  0  0  0  0  0  0  0  0  0  0
   -3.2307  -10.6552   -4.9081 C   0  0  0  0  0  0  0  0  0  0  0  0
   -4.0902  -11.8747   -5.2534 C   0  0  0  0  0  0  0  0  0  0  0  0
   -6.8906   -9.5136   -4.3015 N   0  0  0  0  0  0  0  0  0  0  0  0
   -7.9744   -8.1331   -5.8669 N   0  0  0  0  0  0  0  0  0  0  0  0
   -3.9994  -12.1350   -6.5360 N   0  0  0  0  0  0  0  0  0  0  0  0
   -3.2118  -13.0903   -6.9916 C   0  0  0  0  0  0  0  0  0  0  0  0
   -2.7719  -14.0495   -6.1371 N   0  0  0  0  0  0  0  0  0  0  0  0
   -2.8207  -13.1310   -8.2998 N   0  0  0  0  0  0  0  0  0  0  0  0
   -2.6866   -6.8612   -2.4669 C   0  0  0  0  0  0  0  0  0  0  0  0
   -0.0529   -6.0605    0.8001 O   0  0  0  0  0  0  0  0  0  0  0  0
   -2.0100   -7.9336   -1.8170 C   0  0  0  0  0  0  0  0  0  0  0  0
   -1.1414   -7.6651   -0.7254 C   0  0  0  0  0  0  0  0  0  0  0  0
   -0.9309   -6.3283   -0.2962 C   0  0  0  0  0  0  0  0  0  0  0  0
   -1.5901   -5.2565   -0.9563 C   0  0  0  0  0  0  0  0  0  0  0  0
   -2.4628   -5.5208   -2.0465 C   0  0  0  0  0  0  0  0  0  0  0  0
   -0.8215   -5.8325    1.9849 C   0  0  0  0  0  0  0  0  0  0  0  0
  1  4  1  0  0  0  0
  2  3  1  0  0  0  0
  3  5  1  0  0  0  0
  4  6  1  0  0  0  0
  5  8  1  0  0  0  0
  6  7  1  0  0  0  0
  7 10  1  0  0  0  0
  8  9  1  0  0  0  0
  9 12  1  0  0  0  0
  9 13  1  0  0  0  0
 10 11  1  0  0  0  0
 11 14  1  0  0  0  0
 14 15  1  0  0  0  0
 15 16  1  0  0  0  0
 15 17  1  0  0  0  0
 18  2  1  0  0  0  0
 18 20  2  0  0  0  0
 18 24  1  0  0  0  0
 19 25  1  0  0  0  0
 20  1  1  0  0  0  0
 20 21  1  0  0  0  0
 21 22  2  0  0  0  0
 22 19  1  0  0  0  0
 22 23  1  0  0  0  0
 23 24  2  0  0  0  0
M  END
>  <CHROM.1>
-100.60199266,157.53822617,61.95538845,-78.31601197,98.58075936,86.27523682
-171.44139092,-95.56566207,-174.80619239,75.88086968,-78.82496937,100.20459132
18.09436968,86.15050080,-33.78317192,114.35135322,117.16579346,-100.84899179
-3.22147018,-8.91023690,-3.64413348,-1.20735853,0.48349079,-2.48966791

>  <Name>
1uud_lig

>  <RI>
0

>  <Rbt.Current_Directory>
/home/itssahil/PROJECTS/Mol_Feturizer/New_Systems/rnas/1uud

>  <Rbt.Executable>
rbdock ($Id: //depot/dev/client3/rdock/2013.1/src/exe/rbdock.cxx#4 $)

>  <Rbt.Library>
libRbt.so (2013.1, Build901 2013/11/27)

>  <Rbt.Parameter_File>
/export/apps/rDock/src/rDock_2013.1_src/data/scripts/dock_solv.prm

>  <Rbt.Receptor>
prm/pocket_docking_5.prm

>  <SCORE>
-22.6929

>  <SCORE.INTER>
-16.6743

>  <SCORE.INTER.CONST>
1

>  <SCORE.INTER.POLAR>
-4.75507

>  <SCORE.INTER.ROT>
18

>  <SCORE.INTER.SOLV>
8.59803

>  <SCORE.INTER.VDW>
-13.732

>  <SCORE.INTER.norm>
-0.666972

>  <SCORE.INTRA>
-6.01858

>  <SCORE.INTRA.DIHEDRAL>
-2.18795

>  <SCORE.INTRA.DIHEDRAL.0>
30.6762

>  <SCORE.INTRA.POLAR>
0.0288659

>  <SCORE.INTRA.POLAR.0>
-0.0288659

>  <SCORE.INTRA.REPUL>
0

>  <SCORE.INTRA.REPUL.0>
0

>  <SCORE.INTRA.SOLV>
-0.0902798

>  <SCORE.INTRA.SOLV.lig_0>
-25.2195

>  <SCORE.INTRA.VDW>
-4.97761

>  <SCORE.INTRA.VDW.0>
4.14263

>  <SCORE.INTRA.norm>
-0.240743

>  <SCORE.RESTR>
0

>  <SCORE.RESTR.CAVITY>
0

>  <SCORE.RESTR.norm>
0

>  <SCORE.SYSTEM>
0

>  <SCORE.SYSTEM.CONST>
0

>  <SCORE.SYSTEM.DIHEDRAL>
0

>  <SCORE.SYSTEM.SOLV>
0

>  <SCORE.SYSTEM.norm>
0

>  <SCORE.heavy>
25

>  <SCORE.norm>
-0.907716

>  <RMSD>
6.695

$$$$
1uud_lig
 OpenBabel11021811413D
libRbt.so/2013.1/901 2013/11/27
 25 25  0  0  0  0  0  0  0  0999 V2000
   -3.8919  -11.8246   -8.4887 C   0  0  0  0  0  0  0  0  0  0  0  0
   -5.3488  -10.3609   -6.4060 O   0  0  0  0  0  0  0  0  0  0  0  0
   -5.0169  -10.6686   -5.0438 C   0  0  0  0  0  0  0  0  0  0  0  0
   -2.6758  -12.6719   -8.5633 N   0  0  0  0  0  0  0  0  0  0  0  0
   -6.2245  -10.4090   -4.1331 C   0  0  0  0  0  0  0  0  0  0  0  0
   -2.7279  -13.7182   -7.5148 C   0  0  0  0  0  0  0  0  0  0  0  0
   -2.4699  -13.0829   -6.1431 C   0  0  0  0  0  0  0  0  0  0  0  0
   -6.6211   -9.1652   -4.2606 N   0  0  0  0  0  0  0  0  0  0  0  0
   -7.7880   -8.8647   -4.7992 C   0  0  0  0  0  0  0  0  0  0  0  0
   -0.9736  -12.7983   -5.9736 C   0  0  0  0  0  0  0  0  0  0  0  0
   -0.3280  -13.9228   -5.1588 C   0  0  0  0  0  0  0  0  0  0  0  0
   -7.8922   -7.9616   -5.8211 N   0  0  0  0  0  0  0  0  0  0  0  0
   -8.9108   -9.4652   -4.3270 N   0  0  0  0  0  0  0  0  0  0  0  0
   -0.4113  -15.0545   -5.8173 N   0  0  0  0  0  0  0  0  0  0  0  0
   -1.2565  -16.0011   -5.4567 C   0  0  0  0  0  0  0  0  0  0  0  0
   -1.0093  -16.7150   -4.3285 N   0  0  0  0  0  0  0  0  0  0  0  0
   -2.3684  -16.2864   -6.1973 N   0  0  0  0  0  0  0  0  0  0  0  0
   -4.2417   -9.7163   -7.0489 C   0  0  0  0  0  0  0  0  0  0  0  0
   -0.9181   -7.7928   -8.9208 O   0  0  0  0  0  0  0  0  0  0  0  0
   -3.5037  -10.3937   -8.0620 C   0  0  0  0  0  0  0  0  0  0  0  0
   -2.3937   -9.7548   -8.6768 C   0  0  0  0  0  0  0  0  0  0  0  0
   -2.0332   -8.4351   -8.2975 C   0  0  0  0  0  0  0  0  0  0  0  0
   -2.7806   -7.7514   -7.3011 C   0  0  0  0  0  0  0  0  0  0  0  0
   -3.8897   -8.3880   -6.6809 C   0  0  0  0  0  0  0  0  0  0  0  0
    0.0705   -7.4845   -7.9337 C   0  0  0  0  0  0  0  0  0  0  0  0
  1  4  1  0  0  0  0
  2  3  1  0  0  0  0
  3  5  1  0  0  0  0
  4  6  1  0  0  0  0
  5  8  1  0  0  0  0
  6  7  1  0  0  0  0
  7 10  1  0  0  0  0
  8  9  1  0  0  0  0
  9 12  1  0  0  0  0
  9 13  1  0  0  0  0
 10 11  1  0  0  0  0
 11 14  1  0  0  0  0
 14 15  1  0  0  0  0
 15 16  1  0  0  0  0
 15 17  1  0  0  0  0
 18  2  1  0  0  0  0
 18 20  2  0  0  0  0
 18 24  1  0  0  0  0
 19 25  1  0  0  0  0
 20  1  1  0  0  0  0
 20 21  1  0  0  0  0
 21 22  2  0  0  0  0
 22 19  1  0  0  0  0
 22 23  1  0  0  0  0
 23 24  2  0  0  0  0
M  END
>  <CHROM.1>
113.53665176,140.41703671,-56.82279131,-73.15645558,113.06279002,-76.90025902
-98.37403438,-128.11349398,-79.99440234,-168.45763936,63.81753909,-106.27873393
-72.00448202,-176.98185914,-102.97318208,110.17934197,-133.70688776,-118.76764408
-3.44224742,-11.20195245,-6.42608934,-0.82077955,0.46273787,-0.37963956

>  <Name>
1uud_lig

>  <RI>
0

>  <Rbt.Current_Directory>
/home/itssahil/PROJECTS/Mol_Feturizer/New_Systems/rnas/1uud

>  <Rbt.Executable>
rbdock ($Id: //depot/dev/client3/rdock/2013.1/src/exe/rbdock.cxx#4 $)

>  <Rbt.Library>
libRbt.so (2013.1, Build901 2013/11/27)

>  <Rbt.Parameter_File>
/export/apps/rDock/src/rDock_2013.1_src/data/scripts/dock_solv.prm

>  <Rbt.Receptor>
prm/pocket_docking_8.prm

>  <SCORE>
-47.1278

>  <SCORE.INTER>
-44.2319

>  <SCORE.INTER.CONST>
1

>  <SCORE.INTER.POLAR>
-6.82806

>  <SCORE.INTER.ROT>
18

>  <SCORE.INTER.SOLV>
13.3091

>  <SCORE.INTER.VDW>
-26.7641

>  <SCORE.INTER.norm>
-1.76928

>  <SCORE.INTRA>
-2.89592

>  <SCORE.INTRA.DIHEDRAL>
2.26282

>  <SCORE.INTRA.DIHEDRAL.0>
30.6762

>  <SCORE.INTRA.POLAR>
0.0288659

>  <SCORE.INTRA.POLAR.0>
-0.0288659

>  <SCORE.INTRA.REPUL>
0

>  <SCORE.INTRA.REPUL.0>
0

>  <SCORE.INTRA.SOLV>
0.467821

>  <SCORE.INTRA.SOLV.lig_0>
-25.2195

>  <SCORE.INTRA.VDW>
-4.35938

>  <SCORE.INTRA.VDW.0>
4.14263

>  <SCORE.INTRA.norm>
-0.115837

>  <SCORE.RESTR>
0

>  <SCORE.RESTR.CAVITY>
0

>  <SCORE.RESTR.norm>
0

>  <SCORE.SYSTEM>
0

>  <SCORE.SYSTEM.CONST>
0

>  <SCORE.SYSTEM.DIHEDRAL>
0

>  <SCORE.SYSTEM.SOLV>
0

>  <SCORE.SYSTEM.norm>
0

>  <SCORE.heavy>
25

>  <SCORE.norm>
-1.88511

>  <RMSD>
6.702

$$$$
1uud_lig
 OpenBabel11021811413D
libRbt.so/2013.1/901 2013/11/27
 25 25  0  0  0  0  0  0  0  0999 V2000
   -4.7590  -11.6999   -4.4441 C   0  0  0  0  0  0  0  0  0  0  0  0
   -2.3091  -11.2976   -6.0058 O   0  0  0  0  0  0  0  0  0  0  0  0
   -1.6994  -12.5885   -6.1539 C   0  0  0  0  0  0  0  0  0  0  0  0
   -5.5895  -10.6310   -5.0523 N   0  0  0  0  0  0  0  0  0  0  0  0
   -2.7778  -13.6665   -6.3277 C   0  0  0  0  0  0  0  0  0  0  0  0
   -6.4443  -10.0076   -4.0143 C   0  0  0  0  0  0  0  0  0  0  0  0
   -7.6381   -9.3141   -4.6816 C   0  0  0  0  0  0  0  0  0  0  0  0
   -3.4246  -13.4742   -7.4526 N   0  0  0  0  0  0  0  0  0  0  0  0
   -3.2882  -14.2962   -8.4762 C   0  0  0  0  0  0  0  0  0  0  0  0
   -8.4886   -8.6057   -3.6217 C   0  0  0  0  0  0  0  0  0  0  0  0
   -7.8580   -7.2524   -3.2805 C   0  0  0  0  0  0  0  0  0  0  0  0
   -2.1336  -14.3408   -9.2081 N   0  0  0  0  0  0  0  0  0  0  0  0
   -4.3183  -15.1153   -8.8110 N   0  0  0  0  0  0  0  0  0  0  0  0
   -8.6499   -6.5819   -2.4776 N   0  0  0  0  0  0  0  0  0  0  0  0
   -8.2539   -6.2019   -1.2779 C   0  0  0  0  0  0  0  0  0  0  0  0
   -7.8103   -4.9312   -1.0986 N   0  0  0  0  0  0  0  0  0  0  0  0
   -8.2701   -7.0597   -0.2149 N   0  0  0  0  0  0  0  0  0  0  0  0
   -2.3128  -10.9102   -4.6258 C   0  0  0  0  0  0  0  0  0  0  0  0
   -2.3158   -9.7077   -0.5265 O   0  0  0  0  0  0  0  0  0  0  0  0
   -3.4836  -11.0836   -3.8327 C   0  0  0  0  0  0  0  0  0  0  0  0
   -3.4844  -10.6750   -2.4720 C   0  0  0  0  0  0  0  0  0  0  0  0
   -2.3136  -10.1144   -1.8973 C   0  0  0  0  0  0  0  0  0  0  0  0
   -1.1393   -9.9591   -2.6821 C   0  0  0  0  0  0  0  0  0  0  0  0
   -1.1351  -10.3632   -4.0447 C   0  0  0  0  0  0  0  0  0  0  0  0
   -1.6737  -10.7070    0.2708 C   0  0  0  0  0  0  0  0  0  0  0  0
  1  4  1  0  0  0  0
  2  3  1  0  0  0  0
  3  5  1  0  0  0  0
  4  6  1  0  0  0  0
  5  8  1  0  0  0  0
  6  7  1  0  0  0  0
  7 10  1  0  0  0  0
  8  9  1  0  0  0  0
  9 12  1  0  0  0  0
  9 13  1  0  0  0  0
 10 11  1  0  0  0  0
 11 14  1  0  0  0  0
 14 15  1  0  0  0  0
 15 16  1  0  0  0  0
 15 17  1  0  0  0  0
 18  2  1  0  0  0  0
 18 20  2  0  0  0  0
 18 24  1  0  0  0  0
 19 25  1  0  0  0  0
 20  1  1  0  0  0  0
 20 21  1  0  0  0  0
 21 22  2  0  0  0  0
 22 19  1  0  0  0  0
 22 23  1  0  0  0  0
 23 24  2  0  0  0  0
M  END
>  <CHROM.1>
-84.61651029,101.68623879,65.19209364,-158.76762975,110.03374477,-177.11347607
81.46617929,-71.10957234,10.04174398,22.94805353,173.59550244,120.19445281
98.27386232,-56.67658270,158.12491291,-98.76899877,-88.09458412,100.78355725
-4.51952434,-10.41686966,-4.12073087,1.00907366,0.40470915,-2.18390236

>  <Name>
1uud_lig

>  <RI>
0

>  <Rbt.Current_Directory>
/home/itssahil/PROJECTS/Mol_Feturizer/New_Systems/rnas/1uud

>  <Rbt.Executable>
rbdock ($Id: //depot/dev/client3/rdock/2013.1/src/exe/rbdock.cxx#4 $)

>  <Rbt.Library>
libRbt.so (2013.1, Build901 2013/11/27)

>  <Rbt.Parameter_File>
/export/apps/rDock/src/rDock_2013.1_src/data/scripts/dock_solv.prm

>  <Rbt.Receptor>
prm/pocket_docking_6.prm

>  <SCORE>
-21.6318

>  <SCORE.INTER>
-14.4127

>  <SCORE.INTER.CONST>
1

>  <SCORE.INTER.POLAR>
-2.56496

>  <SCORE.INTER.ROT>
18

>  <SCORE.INTER.SOLV>
8.12505

>  <SCORE.INTER.VDW>
-19.367

>  <SCORE.INTER.norm>
-0.576509

>  <SCORE.INTRA>
-7.21904

>  <SCORE.INTRA.DIHEDRAL>
-1.02457

>  <SCORE.INTRA.DIHEDRAL.0>
30.6762

>  <SCORE.INTRA.POLAR>
0.0288659

>  <SCORE.INTRA.POLAR.0>
-0.0288659

>  <SCORE.INTRA.REPUL>
0

>  <SCORE.INTRA.REPUL.0>
0

>  <SCORE.INTRA.SOLV>
-0.809753

>  <SCORE.INTRA.SOLV.lig_0>
-25.2195

>  <SCORE.INTRA.VDW>
-6.40002

>  <SCORE.INTRA.VDW.0>
4.14263

>  <SCORE.INTRA.norm>
-0.288762

>  <SCORE.RESTR>
0

>  <SCORE.RESTR.CAVITY>
0

>  <SCORE.RESTR.norm>
0

>  <SCORE.SYSTEM>
0

>  <SCORE.SYSTEM.CONST>
0

>  <SCORE.SYSTEM.DIHEDRAL>
0

>  <SCORE.SYSTEM.SOLV>
0

>  <SCORE.SYSTEM.norm>
0

>  <SCORE.heavy>
25

>  <SCORE.norm>
-0.865271

>  <RMSD>
6.717

$$$$
1uud_lig
 OpenBabel11021811413D
libRbt.so/2013.1/901 2013/11/27
 25 25  0  0  0  0  0  0  0  0999 V2000
   -3.5972   -9.7435   -6.1421 C   0  0  0  0  0  0  0  0  0  0  0  0
   -1.3984  -11.3028   -7.2981 O   0  0  0  0  0  0  0  0  0  0  0  0
   -1.1818  -11.6887   -8.6636 C   0  0  0  0  0  0  0  0  0  0  0  0
   -3.3031  -10.9642   -5.3512 N   0  0  0  0  0  0  0  0  0  0  0  0
   -1.4478  -13.1900   -8.8381 C   0  0  0  0  0  0  0  0  0  0  0  0
   -4.5602  -11.5145   -4.7911 C   0  0  0  0  0  0  0  0  0  0  0  0
   -4.9973  -10.6715   -3.5869 C   0  0  0  0  0  0  0  0  0  0  0  0
   -2.7399  -13.4161   -8.8522 N   0  0  0  0  0  0  0  0  0  0  0  0
   -3.2647  -14.4585   -8.2357 C   0  0  0  0  0  0  0  0  0  0  0  0
   -6.5217  -10.5137   -3.5871 C   0  0  0  0  0  0  0  0  0  0  0  0
   -6.9339   -9.5247   -2.4929 C   0  0  0  0  0  0  0  0  0  0  0  0
   -2.7706  -14.9060   -7.0414 N   0  0  0  0  0  0  0  0  0  0  0  0
   -4.3184  -15.1022   -8.8011 N   0  0  0  0  0  0  0  0  0  0  0  0
   -8.1736   -9.1403   -2.6838 N   0  0  0  0  0  0  0  0  0  0  0  0
   -8.4686   -8.1410   -3.4930 C   0  0  0  0  0  0  0  0  0  0  0  0
   -9.1212   -7.0582   -2.9976 N   0  0  0  0  0  0  0  0  0  0  0  0
   -8.1421   -8.1749   -4.8191 N   0  0  0  0  0  0  0  0  0  0  0  0
   -1.2317   -9.8865   -7.1543 C   0  0  0  0  0  0  0  0  0  0  0  0
   -0.7309   -5.6608   -6.7759 O   0  0  0  0  0  0  0  0  0  0  0  0
   -2.2771   -9.0911   -6.6024 C   0  0  0  0  0  0  0  0  0  0  0  0
   -2.1110   -7.6851   -6.4856 C   0  0  0  0  0  0  0  0  0  0  0  0
   -0.8970   -7.0757   -6.8984 C   0  0  0  0  0  0  0  0  0  0  0  0
    0.1535   -7.8705   -7.4309 C   0  0  0  0  0  0  0  0  0  0  0  0
   -0.0096   -9.2771   -7.5529 C   0  0  0  0  0  0  0  0  0  0  0  0
   -0.9539   -5.2679   -5.4186 C   0  0  0  0  0  0  0  0  0  0  0  0
  1  4  1  0  0  0  0
  2  3  1  0  0  0  0
  3  5  1  0  0  0  0
  4  6  1  0  0  0  0
  5  8  1  0  0  0  0
  6  7  1  0  0  0  0
  7 10  1  0  0  0  0
  8  9  1  0  0  0  0
  9 12  1  0  0  0  0
  9 13  1  0  0  0  0
 10 11  1  0  0  0  0
 11 14  1  0  0  0  0
 14 15  1  0  0  0  0
 15 16  1  0  0  0  0
 15 17  1  0  0  0  0
 18  2  1  0  0  0  0
 18 20  2  0  0  0  0
 18 24  1  0  0  0  0
 19 25  1  0  0  0  0
 20  1  1  0  0  0  0
 20 21  1  0  0  0  0
 21 22  2  0  0  0  0
 22 19  1  0  0  0  0
 22 23  1  0  0  0  0
 23 24  2  0  0  0  0
M  END
>  <CHROM.1>
174.20606671,-176.37487325,76.26143608,-76.73358778,-139.60312971,141.30080675
-172.68130169,36.80361544,-29.10865903,83.99591821,165.08803722,-85.25920564
-120.68292848,153.72955020,133.67890451,124.21744576,45.43915527,55.83752916
-3.64023030,-10.09437644,-6.05740101,-2.53091548,-0.50346695,-2.80887836

>  <Name>
1uud_lig

>  <RI>
0

>  <Rbt.Current_Directory>
/home/itssahil/PROJECTS/Mol_Feturizer/New_Systems/rnas/1uud

>  <Rbt.Executable>
rbdock ($Id: //depot/dev/client3/rdock/2013.1/src/exe/rbdock.cxx#4 $)

>  <Rbt.Library>
libRbt.so (2013.1, Build901 2013/11/27)

>  <Rbt.Parameter_File>
/export/apps/rDock/src/rDock_2013.1_src/data/scripts/dock_solv.prm

>  <Rbt.Receptor>
prm/pocket_docking_7.prm

>  <SCORE>
-28.3979

>  <SCORE.INTER>
-19.8317

>  <SCORE.INTER.CONST>
1

>  <SCORE.INTER.POLAR>
-4.39934

>  <SCORE.INTER.ROT>
18

>  <SCORE.INTER.SOLV>
9.75423

>  <SCORE.INTER.VDW>
-17.4081

>  <SCORE.INTER.norm>
-0.793266

>  <SCORE.INTRA>
-8.56622

>  <SCORE.INTRA.DIHEDRAL>
-7.03639

>  <SCORE.INTRA.DIHEDRAL.0>
30.6762

>  <SCORE.INTRA.POLAR>
-0.476183

>  <SCORE.INTRA.POLAR.0>
-0.0288659

>  <SCORE.INTRA.REPUL>
0

>  <SCORE.INTRA.REPUL.0>
0

>  <SCORE.INTRA.SOLV>
-0.501356

>  <SCORE.INTRA.SOLV.lig_0>
-25.2195

>  <SCORE.INTRA.VDW>
-3.17833

>  <SCORE.INTRA.VDW.0>
4.14263

>  <SCORE.INTRA.norm>
-0.342649

>  <SCORE.RESTR>
0

>  <SCORE.RESTR.CAVITY>
0

>  <SCORE.RESTR.norm>
0

>  <SCORE.SYSTEM>
0

>  <SCORE.SYSTEM.CONST>
0

>  <SCORE.SYSTEM.DIHEDRAL>
0

>  <SCORE.SYSTEM.SOLV>
0

>  <SCORE.SYSTEM.norm>
0

>  <SCORE.heavy>
25

>  <SCORE.norm>
-1.13592

>  <RMSD>
6.721

$$$$
1uud_lig
 OpenBabel11021811413D
libRbt.so/2013.1/901 2013/11/27
 25 25  0  0  0  0  0  0  0  0999 V2000
   -2.1834   -9.2623   -3.6608 C   0  0  0  0  0  0  0  0  0  0  0  0
   -4.6883   -9.1523   -2.1389 O   0  0  0  0  0  0  0  0  0  0  0  0
   -5.1044   -7.8540   -1.6899 C   0  0  0  0  0  0  0  0  0  0  0  0
   -2.6899  -10.3982   -4.4703 N   0  0  0  0  0  0  0  0  0  0  0  0
   -5.7832   -7.0902   -2.8349 C   0  0  0  0  0  0  0  0  0  0  0  0
   -2.7344  -10.0144   -5.9012 C   0  0  0  0  0  0  0  0  0  0  0  0
   -3.7288  -10.9156   -6.6432 C   0  0  0  0  0  0  0  0  0  0  0  0
   -6.8315   -7.7565   -3.2568 N   0  0  0  0  0  0  0  0  0  0  0  0
   -6.8819   -8.2652   -4.4736 C   0  0  0  0  0  0  0  0  0  0  0  0
   -3.1960  -12.3518   -6.6901 C   0  0  0  0  0  0  0  0  0  0  0  0
   -3.3545  -13.0016   -5.3125 C   0  0  0  0  0  0  0  0  0  0  0  0
   -5.7725   -8.3205   -5.2717 N   0  0  0  0  0  0  0  0  0  0  0  0
   -8.0626   -8.7432   -4.9443 N   0  0  0  0  0  0  0  0  0  0  0  0
   -2.9410  -14.2459   -5.3567 N   0  0  0  0  0  0  0  0  0  0  0  0
   -1.6908  -14.5669   -5.0837 C   0  0  0  0  0  0  0  0  0  0  0  0
   -0.8312  -13.5969   -4.6792 N   0  0  0  0  0  0  0  0  0  0  0  0
   -1.2390  -15.8501   -5.2082 N   0  0  0  0  0  0  0  0  0  0  0  0
   -3.4905   -9.5480   -1.4584 C   0  0  0  0  0  0  0  0  0  0  0  0
    0.0590  -10.7730    0.5790 O   0  0  0  0  0  0  0  0  0  0  0  0
   -2.2534   -9.6197   -2.1616 C   0  0  0  0  0  0  0  0  0  0  0  0
   -1.0763  -10.0355   -1.4835 C   0  0  0  0  0  0  0  0  0  0  0  0
   -1.1280  -10.3587   -0.1021 C   0  0  0  0  0  0  0  0  0  0  0  0
   -2.3574  -10.2687    0.6046 C   0  0  0  0  0  0  0  0  0  0  0  0
   -3.5382   -9.8566   -0.0705 C   0  0  0  0  0  0  0  0  0  0  0  0
    0.8445   -9.6252    0.9142 C   0  0  0  0  0  0  0  0  0  0  0  0
  1  4  1  0  0  0  0
  2  3  1  0  0  0  0
  3  5  1  0  0  0  0
  4  6  1  0  0  0  0
  5  8  1  0  0  0  0
  6  7  1  0  0  0  0
  7 10  1  0  0  0  0
  8  9  1  0  0  0  0
  9 12  1  0  0  0  0
  9 13  1  0  0  0  0
 10 11  1  0  0  0  0
 11 14  1  0  0  0  0
 14 15  1  0  0  0  0
 15 16  1  0  0  0  0
 15 17  1  0  0  0  0
 18  2  1  0  0  0  0
 18 20  2  0  0  0  0
 18 24  1  0  0  0  0
 19 25  1  0  0  0  0
 20  1  1  0  0  0  0
 20 21  1  0  0  0  0
 21 22  2  0  0  0  0
 22 19  1  0  0  0  0
 22 23  1  0  0  0  0
 23 24  2  0  0  0  0
M  END
>  <CHROM.1>
175.10281447,147.41709795,59.65711248,-157.94681285,-114.69833888,-67.63255922
74.79998413,11.12215784,-62.91370495,-104.59272421,177.92913619,91.00023796
3.53908670,-117.30819299,68.31298290,-110.06831232,-78.64568877,79.99974772
-3.24743260,-10.49543386,-3.29548602,-2.58073565,0.66192096,-2.24984385

>  <Name>
1uud_lig

>  <RI>
0

>  <Rbt.Current_Directory>
/home/itssahil/PROJECTS/Mol_Feturizer/New_Systems/rnas/1uud

>  <Rbt.Executable>
rbdock ($Id: //depot/dev/client3/rdock/2013.1/src/exe/rbdock.cxx#4 $)

>  <Rbt.Library>
libRbt.so (2013.1, Build901 2013/11/27)

>  <Rbt.Parameter_File>
/export/apps/rDock/src/rDock_2013.1_src/data/scripts/dock_solv.prm

>  <Rbt.Receptor>
prm/pocket_docking_2.prm

>  <SCORE>
-12.1637

>  <SCORE.INTER>
-8.19914

>  <SCORE.INTER.CONST>
1

>  <SCORE.INTER.POLAR>
-1.93939

>  <SCORE.INTER.ROT>
18

>  <SCORE.INTER.SOLV>
8.47674

>  <SCORE.INTER.VDW>
-17.427

>  <SCORE.INTER.norm>
-0.327966

>  <SCORE.INTRA>
-5.8327

>  <SCORE.INTRA.DIHEDRAL>
-5.1285

>  <SCORE.INTRA.DIHEDRAL.0>
30.6762

>  <SCORE.INTRA.POLAR>
0.0288659

>  <SCORE.INTRA.POLAR.0>
-0.0288659

>  <SCORE.INTRA.REPUL>
0

>  <SCORE.INTRA.REPUL.0>
0

>  <SCORE.INTRA.SOLV>
0.691958

>  <SCORE.INTRA.SOLV.lig_0>
-25.2195

>  <SCORE.INTRA.VDW>
-3.71258

>  <SCORE.INTRA.VDW.0>
4.14263

>  <SCORE.INTRA.norm>
-0.233308

>  <SCORE.RESTR>
1.86811

>  <SCORE.RESTR.CAVITY>
1.86811

>  <SCORE.RESTR.norm>
0.0747245

>  <SCORE.SYSTEM>
0

>  <SCORE.SYSTEM.CONST>
0

>  <SCORE.SYSTEM.DIHEDRAL>
0

>  <SCORE.SYSTEM.SOLV>
0

>  <SCORE.SYSTEM.norm>
0

>  <SCORE.heavy>
25

>  <SCORE.norm>
-0.486549

>  <RMSD>
6.729

$$$$
1uud_lig
 OpenBabel11021811413D
libRbt.so/2013.1/901 2013/11/27
 25 25  0  0  0  0  0  0  0  0999 V2000
   -3.6613  -11.0277   -2.8299 C   0  0  0  0  0  0  0  0  0  0  0  0
   -1.5324   -9.8145   -4.4418 O   0  0  0  0  0  0  0  0  0  0  0  0
   -0.9408  -11.0559   -4.8533 C   0  0  0  0  0  0  0  0  0  0  0  0
   -4.3389  -10.1695   -3.8331 N   0  0  0  0  0  0  0  0  0  0  0  0
   -1.7234  -11.6502   -6.0321 C   0  0  0  0  0  0  0  0  0  0  0  0
   -5.4877  -10.8973   -4.4224 C   0  0  0  0  0  0  0  0  0  0  0  0
   -6.3648   -9.9179   -5.2118 C   0  0  0  0  0  0  0  0  0  0  0  0
   -1.4224  -12.9191   -6.1738 N   0  0  0  0  0  0  0  0  0  0  0  0
   -1.9582  -13.8458   -5.4016 C   0  0  0  0  0  0  0  0  0  0  0  0
   -7.1561   -9.0309   -4.2445 C   0  0  0  0  0  0  0  0  0  0  0  0
   -7.6362   -7.7752   -4.9779 C   0  0  0  0  0  0  0  0  0  0  0  0
   -2.1187  -15.1328   -5.8358 N   0  0  0  0  0  0  0  0  0  0  0  0
   -2.3605  -13.5132   -4.1479 N   0  0  0  0  0  0  0  0  0  0  0  0
   -6.6041   -7.0849   -5.4016 N   0  0  0  0  0  0  0  0  0  0  0  0
   -6.0548   -6.1415   -4.6609 C   0  0  0  0  0  0  0  0  0  0  0  0
   -5.0552   -6.4710   -3.8030 N   0  0  0  0  0  0  0  0  0  0  0  0
   -6.4751   -4.8435   -4.7295 N   0  0  0  0  0  0  0  0  0  0  0  0
   -1.4682   -9.6874   -3.0156 C   0  0  0  0  0  0  0  0  0  0  0  0
   -1.2808   -9.2584    1.2308 O   0  0  0  0  0  0  0  0  0  0  0  0
   -2.4846  -10.2573   -2.1957 C   0  0  0  0  0  0  0  0  0  0  0  0
   -2.4242  -10.1058   -0.7845 C   0  0  0  0  0  0  0  0  0  0  0  0
   -1.3414   -9.4059   -0.1902 C   0  0  0  0  0  0  0  0  0  0  0  0
   -0.3170   -8.8540   -1.0057 C   0  0  0  0  0  0  0  0  0  0  0  0
   -0.3753   -9.0001   -2.4182 C   0  0  0  0  0  0  0  0  0  0  0  0
   -1.7342   -7.9518    1.5966 C   0  0  0  0  0  0  0  0  0  0  0  0
  1  4  1  0  0  0  0
  2  3  1  0  0  0  0
  3  5  1  0  0  0  0
  4  6  1  0  0  0  0
  5  8  1  0  0  0  0
  6  7  1  0  0  0  0
  7 10  1  0  0  0  0
  8  9  1  0  0  0  0
  9 12  1  0  0  0  0
  9 13  1  0  0  0  0
 10 11  1  0  0  0  0
 11 14  1  0  0  0  0
 14 15  1  0  0  0  0
 15 16  1  0  0  0  0
 15 17  1  0  0  0  0
 18  2  1  0  0  0  0
 18 20  2  0  0  0  0
 18 24  1  0  0  0  0
 19 25  1  0  0  0  0
 20  1  1  0  0  0  0
 20 21  1  0  0  0  0
 21 22  2  0  0  0  0
 22 19  1  0  0  0  0
 22 23  1  0  0  0  0
 23 24  2  0  0  0  0
M  END
>  <CHROM.1>
-178.78277879,142.88831123,-163.15110016,167.36663465,79.32040469,-73.70324490
160.57238514,152.45418637,-123.07573113,-67.48656294,-61.80051168,-90.67879645
89.42789376,113.99869117,-170.68351054,-85.71806443,-54.96494434,-100.47274304
-3.33027267,-9.83262816,-3.55556392,0.49812958,0.69033719,-2.38997261

>  <Name>
1uud_lig

>  <RI>
0

>  <Rbt.Current_Directory>
/home/itssahil/PROJECTS/Mol_Feturizer/New_Systems/rnas/1uud

>  <Rbt.Executable>
rbdock ($Id: //depot/dev/client3/rdock/2013.1/src/exe/rbdock.cxx#4 $)

>  <Rbt.Library>
libRbt.so (2013.1, Build901 2013/11/27)

>  <Rbt.Parameter_File>
/export/apps/rDock/src/rDock_2013.1_src/data/scripts/dock_solv.prm

>  <Rbt.Receptor>
prm/pocket_docking_3.prm

>  <SCORE>
-16.432

>  <SCORE.INTER>
-7.57035

>  <SCORE.INTER.CONST>
1

>  <SCORE.INTER.POLAR>
-2.79936

>  <SCORE.INTER.ROT>
18

>  <SCORE.INTER.SOLV>
7.78207

>  <SCORE.INTER.VDW>
-13.9097

>  <SCORE.INTER.norm>
-0.302814

>  <SCORE.INTRA>
-8.86864

>  <SCORE.INTRA.DIHEDRAL>
-2.5065

>  <SCORE.INTRA.DIHEDRAL.0>
30.6762

>  <SCORE.INTRA.POLAR>
-0.437526

>  <SCORE.INTRA.POLAR.0>
-0.0288659

>  <SCORE.INTRA.REPUL>
0

>  <SCORE.INTRA.REPUL.0>
0

>  <SCORE.INTRA.SOLV>
0.678232

>  <SCORE.INTRA.SOLV.lig_0>
-25.2195

>  <SCORE.INTRA.VDW>
-6.46692

>  <SCORE.INTRA.VDW.0>
4.14263

>  <SCORE.INTRA.norm>
-0.354746

>  <SCORE.RESTR>
0.00700731

>  <SCORE.RESTR.CAVITY>
0.00700731

>  <SCORE.RESTR.norm>
0.000280292

>  <SCORE.SYSTEM>
0

>  <SCORE.SYSTEM.CONST>
0

>  <SCORE.SYSTEM.DIHEDRAL>
0

>  <SCORE.SYSTEM.SOLV>
0

>  <SCORE.SYSTEM.norm>
0

>  <SCORE.heavy>
25

>  <SCORE.norm>
-0.657279

>  <RMSD>
6.736

$$$$
1uud_lig
 OpenBabel11021811413D
libRbt.so/2013.1/901 2013/11/27
 25 25  0  0  0  0  0  0  0  0999 V2000
   -2.5294   -9.7702   -2.9248 C   0  0  0  0  0  0  0  0  0  0  0  0
   -3.3211   -8.7537   -0.2899 O   0  0  0  0  0  0  0  0  0  0  0  0
   -3.7697   -9.1714    1.0080 C   0  0  0  0  0  0  0  0  0  0  0  0
   -2.3015  -11.2356   -2.9765 N   0  0  0  0  0  0  0  0  0  0  0  0
   -2.5712   -9.3536    1.9490 C   0  0  0  0  0  0  0  0  0  0  0  0
   -2.7331  -11.7647   -4.2920 C   0  0  0  0  0  0  0  0  0  0  0  0
   -2.5951  -13.2920   -4.3008 C   0  0  0  0  0  0  0  0  0  0  0  0
   -1.9424  -10.4683    1.6610 N   0  0  0  0  0  0  0  0  0  0  0  0
   -0.7621  -10.4620    1.0705 C   0  0  0  0  0  0  0  0  0  0  0  0
   -2.9898  -13.8430   -5.6753 C   0  0  0  0  0  0  0  0  0  0  0  0
   -1.8466  -13.6105   -6.6673 C   0  0  0  0  0  0  0  0  0  0  0  0
   -0.5120   -9.6731   -0.0184 N   0  0  0  0  0  0  0  0  0  0  0  0
    0.2260  -11.2581    1.5544 N   0  0  0  0  0  0  0  0  0  0  0  0
   -2.1985  -14.0315   -7.8591 N   0  0  0  0  0  0  0  0  0  0  0  0
   -2.6380  -13.1981   -8.7826 C   0  0  0  0  0  0  0  0  0  0  0  0
   -1.8746  -12.9642   -9.8808 N   0  0  0  0  0  0  0  0  0  0  0  0
   -3.8379  -12.5578   -8.6546 N   0  0  0  0  0  0  0  0  0  0  0  0
   -4.3428   -8.9962   -1.2656 C   0  0  0  0  0  0  0  0  0  0  0  0
   -7.3995   -9.6699   -4.1730 O   0  0  0  0  0  0  0  0  0  0  0  0
   -4.0009   -9.4850   -2.5595 C   0  0  0  0  0  0  0  0  0  0  0  0
   -5.0187   -9.7000   -3.5271 C   0  0  0  0  0  0  0  0  0  0  0  0
   -6.3767   -9.4487   -3.1986 C   0  0  0  0  0  0  0  0  0  0  0  0
   -6.7206   -8.9799   -1.9021 C   0  0  0  0  0  0  0  0  0  0  0  0
   -5.7054   -8.7599   -0.9320 C   0  0  0  0  0  0  0  0  0  0  0  0
   -7.7518   -8.4275   -4.7884 C   0  0  0  0  0  0  0  0  0  0  0  0
  1  4  1  0  0  0  0
  2  3  1  0  0  0  0
  3  5  1  0  0  0  0
  4  6  1  0  0  0  0
  5  8  1  0  0  0  0
  6  7  1  0  0  0  0
  7 10  1  0  0  0  0
  8  9  1  0  0  0  0
  9 12  1  0  0  0  0
  9 13  1  0  0  0  0
 10 11  1  0  0  0  0
 11 14  1  0  0  0  0
 14 15  1  0  0  0  0
 15 16  1  0  0  0  0
 15 17  1  0  0  0  0
 18  2  1  0  0  0  0
 18 20  2  0  0  0  0
 18 24  1  0  0  0  0
 19 25  1  0  0  0  0
 20  1  1  0  0  0  0
 20 21  1  0  0  0  0
 21 22  2  0  0  0  0
 22 19  1  0  0  0  0
 22 23  1  0  0  0  0
 23 24  2  0  0  0  0
M  END
>  <CHROM.1>
82.48295699,161.39638523,-75.66151673,-175.72374044,107.82956055,-177.90018131
77.36429821,-46.43554739,1.55414026,56.38058208,-177.48329670,98.84127385
111.57887908,26.73718219,94.10153712,-140.21554508,106.92323879,-98.63276845
-3.35967029,-10.79881876,-3.13483393,-1.53566077,0.49552970,-1.96713488

>  <Name>
1uud_lig

>  <RI>
0

>  <Rbt.Current_Directory>
/home/itssahil/PROJECTS/Mol_Feturizer/New_Systems/rnas/1uud

>  <Rbt.Executable>
rbdock ($Id: //depot/dev/client3/rdock/2013.1/src/exe/rbdock.cxx#4 $)

>  <Rbt.Library>
libRbt.so (2013.1, Build901 2013/11/27)

>  <Rbt.Parameter_File>
/export/apps/rDock/src/rDock_2013.1_src/data/scripts/dock_solv.prm

>  <Rbt.Receptor>
prm/pocket_docking_3.prm

>  <SCORE>
-30.2021

>  <SCORE.INTER>
-18.6123

>  <SCORE.INTER.CONST>
1

>  <SCORE.INTER.POLAR>
-3.30504

>  <SCORE.INTER.ROT>
18

>  <SCORE.INTER.SOLV>
10.4603

>  <SCORE.INTER.VDW>
-20.4782

>  <SCORE.INTER.norm>
-0.744493

>  <SCORE.INTRA>
-11.6603

>  <SCORE.INTRA.DIHEDRAL>
-8.85761

>  <SCORE.INTRA.DIHEDRAL.0>
30.6762

>  <SCORE.INTRA.POLAR>
-0.791481

>  <SCORE.INTRA.POLAR.0>
-0.0288659

>  <SCORE.INTRA.REPUL>
0

>  <SCORE.INTRA.REPUL.0>
0

>  <SCORE.INTRA.SOLV>
-0.178139

>  <SCORE.INTRA.SOLV.lig_0>
-25.2195

>  <SCORE.INTRA.VDW>
-4.45138

>  <SCORE.INTRA.VDW.0>
4.14263

>  <SCORE.INTRA.norm>
-0.466411

>  <SCORE.RESTR>
0.0705633

>  <SCORE.RESTR.CAVITY>
0.0705633

>  <SCORE.RESTR.norm>
0.00282253

>  <SCORE.SYSTEM>
0

>  <SCORE.SYSTEM.CONST>
0

>  <SCORE.SYSTEM.DIHEDRAL>
0

>  <SCORE.SYSTEM.SOLV>
0

>  <SCORE.SYSTEM.norm>
0

>  <SCORE.heavy>
25

>  <SCORE.norm>
-1.20808

>  <RMSD>
6.743

$$$$
1uud_lig
 OpenBabel11021811413D
libRbt.so/2013.1/901 2013/11/27
 25 25  0  0  0  0  0  0  0  0999 V2000
   -2.0780  -13.1039   -4.5860 C   0  0  0  0  0  0  0  0  0  0  0  0
   -3.7695  -10.9810   -5.6973 O   0  0  0  0  0  0  0  0  0  0  0  0
   -3.9734   -9.7885   -6.4697 C   0  0  0  0  0  0  0  0  0  0  0  0
   -2.9383  -12.1956   -3.7880 N   0  0  0  0  0  0  0  0  0  0  0  0
   -5.0428   -8.9071   -5.8104 C   0  0  0  0  0  0  0  0  0  0  0  0
   -2.1668  -10.9943   -3.3900 C   0  0  0  0  0  0  0  0  0  0  0  0
   -3.1338   -9.8680   -3.0051 C   0  0  0  0  0  0  0  0  0  0  0  0
   -6.1478   -9.5941   -5.6442 N   0  0  0  0  0  0  0  0  0  0  0  0
   -7.2179   -9.0563   -5.0896 C   0  0  0  0  0  0  0  0  0  0  0  0
   -3.7977  -10.1876   -1.6613 C   0  0  0  0  0  0  0  0  0  0  0  0
   -4.8402   -9.1136   -1.3374 C   0  0  0  0  0  0  0  0  0  0  0  0
   -8.1482   -8.3851   -5.8344 N   0  0  0  0  0  0  0  0  0  0  0  0
   -7.3985   -9.1710   -3.7485 N   0  0  0  0  0  0  0  0  0  0  0  0
   -5.3487   -9.3309   -0.1477 N   0  0  0  0  0  0  0  0  0  0  0  0
   -6.6024   -9.0296    0.1317 C   0  0  0  0  0  0  0  0  0  0  0  0
   -7.4376  -10.0081    0.5661 N   0  0  0  0  0  0  0  0  0  0  0  0
   -7.0819   -7.7590   -0.0155 N   0  0  0  0  0  0  0  0  0  0  0  0
   -3.3747  -12.0607   -6.5535 C   0  0  0  0  0  0  0  0  0  0  0  0
   -2.1730  -15.2456   -9.1346 O   0  0  0  0  0  0  0  0  0  0  0  0
   -2.5491  -13.1095   -6.0552 C   0  0  0  0  0  0  0  0  0  0  0  0
   -2.1441  -14.1629   -6.9180 C   0  0  0  0  0  0  0  0  0  0  0  0
   -2.5788  -14.1821   -8.2694 C   0  0  0  0  0  0  0  0  0  0  0  0
   -3.4181  -13.1468   -8.7621 C   0  0  0  0  0  0  0  0  0  0  0  0
   -3.8229  -12.0891   -7.9033 C   0  0  0  0  0  0  0  0  0  0  0  0
   -0.7653  -15.1582   -9.3739 C   0  0  0  0  0  0  0  0  0  0  0  0
  1  4  1  0  0  0  0
  2  3  1  0  0  0  0
  3  5  1  0  0  0  0
  4  6  1  0  0  0  0
  5  8  1  0  0  0  0
  6  7  1  0  0  0  0
  7 10  1  0  0  0  0
  8  9  1  0  0  0  0
  9 12  1  0  0  0  0
  9 13  1  0  0  0  0
 10 11  1  0  0  0  0
 11 14  1  0  0  0  0
 14 15  1  0  0  0  0
 15 16  1  0  0  0  0
 15 17  1  0  0  0  0
 18  2  1  0  0  0  0
 18 20  2  0  0  0  0
 18 24  1  0  0  0  0
 19 25  1  0  0  0  0
 20  1  1  0  0  0  0
 20 21  1  0  0  0  0
 21 22  2  0  0  0  0
 22 19  1  0  0  0  0
 22 23  1  0  0  0  0
 23 24  2  0  0  0  0
M  END
>  <CHROM.1>
-110.02832613,149.90567543,-55.39850547,160.68740421,179.73080770,72.07540912
-175.63556374,87.93271450,3.35130619,-78.56238733,-175.78960844,-147.24813243
121.86963985,42.55593249,41.75851995,150.95523701,18.45281149,-67.67471730
-4.39215150,-11.00850567,-4.65643235,-0.95554331,-0.69087112,1.36805664

>  <Name>
1uud_lig

>  <RI>
0

>  <Rbt.Current_Directory>
/home/itssahil/PROJECTS/Mol_Feturizer/New_Systems/rnas/1uud

>  <Rbt.Executable>
rbdock ($Id: //depot/dev/client3/rdock/2013.1/src/exe/rbdock.cxx#4 $)

>  <Rbt.Library>
libRbt.so (2013.1, Build901 2013/11/27)

>  <Rbt.Parameter_File>
/export/apps/rDock/src/rDock_2013.1_src/data/scripts/dock_solv.prm

>  <Rbt.Receptor>
prm/pocket_docking_4.prm

>  <SCORE>
-32.7099

>  <SCORE.INTER>
-27.5733

>  <SCORE.INTER.CONST>
1

>  <SCORE.INTER.POLAR>
-4.61887

>  <SCORE.INTER.ROT>
18

>  <SCORE.INTER.SOLV>
10.9082

>  <SCORE.INTER.VDW>
-22.222

>  <SCORE.INTER.norm>
-1.10293

>  <SCORE.INTRA>
-5.74611

>  <SCORE.INTRA.DIHEDRAL>
-6.46977

>  <SCORE.INTRA.DIHEDRAL.0>
30.6762

>  <SCORE.INTRA.POLAR>
-0.509895

>  <SCORE.INTRA.POLAR.0>
-0.0288659

>  <SCORE.INTRA.REPUL>
0

>  <SCORE.INTRA.REPUL.0>
0

>  <SCORE.INTRA.SOLV>
0.256976

>  <SCORE.INTRA.SOLV.lig_0>
-25.2195

>  <SCORE.INTRA.VDW>
-0.906069

>  <SCORE.INTRA.VDW.0>
4.14263

>  <SCORE.INTRA.norm>
-0.229844

>  <SCORE.RESTR>
0.609469

>  <SCORE.RESTR.CAVITY>
0.609469

>  <SCORE.RESTR.norm>
0.0243788

>  <SCORE.SYSTEM>
0

>  <SCORE.SYSTEM.CONST>
0

>  <SCORE.SYSTEM.DIHEDRAL>
0

>  <SCORE.SYSTEM.SOLV>
0

>  <SCORE.SYSTEM.norm>
0

>  <SCORE.heavy>
25

>  <SCORE.norm>
-1.3084

>  <RMSD>
6.759

$$$$
1uud_lig
 OpenBabel11021811413D
libRbt.so/2013.1/901 2013/11/27
 25 25  0  0  0  0  0  0  0  0999 V2000
   -1.3525   -8.2609   -3.8282 C   0  0  0  0  0  0  0  0  0  0  0  0
   -1.8575   -8.6802   -0.9695 O   0  0  0  0  0  0  0  0  0  0  0  0
   -0.8633   -7.7272   -0.5648 C   0  0  0  0  0  0  0  0  0  0  0  0
   -1.4557   -9.6924   -4.2054 N   0  0  0  0  0  0  0  0  0  0  0  0
    0.3101   -8.4436    0.1171 C   0  0  0  0  0  0  0  0  0  0  0  0
   -2.4386   -9.8527   -5.3032 C   0  0  0  0  0  0  0  0  0  0  0  0
   -2.9930  -11.2824   -5.2904 C   0  0  0  0  0  0  0  0  0  0  0  0
   -0.1106   -9.0667    1.1920 N   0  0  0  0  0  0  0  0  0  0  0  0
   -0.4673  -10.3370    1.1580 C   0  0  0  0  0  0  0  0  0  0  0  0
   -4.0001  -11.4610   -6.4318 C   0  0  0  0  0  0  0  0  0  0  0  0
   -3.2514  -11.7757   -7.7301 C   0  0  0  0  0  0  0  0  0  0  0  0
    0.3777  -11.3281    1.5755 N   0  0  0  0  0  0  0  0  0  0  0  0
   -1.7011  -10.6674    0.6966 N   0  0  0  0  0  0  0  0  0  0  0  0
   -2.6074  -12.9123   -7.6086 N   0  0  0  0  0  0  0  0  0  0  0  0
   -3.0446  -14.0171   -8.1819 C   0  0  0  0  0  0  0  0  0  0  0  0
   -4.0239  -14.7354   -7.5747 N   0  0  0  0  0  0  0  0  0  0  0  0
   -2.5281  -14.4603   -9.3663 N   0  0  0  0  0  0  0  0  0  0  0  0
   -2.8672   -8.0345   -1.7557 C   0  0  0  0  0  0  0  0  0  0  0  0
   -5.8714   -6.0686   -4.0709 O   0  0  0  0  0  0  0  0  0  0  0  0
   -2.6601   -7.8068   -3.1468 C   0  0  0  0  0  0  0  0  0  0  0  0
   -3.6573   -7.1452   -3.9124 C   0  0  0  0  0  0  0  0  0  0  0  0
   -4.8676   -6.7306   -3.2971 C   0  0  0  0  0  0  0  0  0  0  0  0
   -5.0833   -6.9747   -1.9141 C   0  0  0  0  0  0  0  0  0  0  0  0
   -4.0869   -7.6331   -1.1435 C   0  0  0  0  0  0  0  0  0  0  0  0
   -5.5556   -4.6772   -4.1758 C   0  0  0  0  0  0  0  0  0  0  0  0
  1  4  1  0  0  0  0
  2  3  1  0  0  0  0
  3  5  1  0  0  0  0
  4  6  1  0  0  0  0
  5  8  1  0  0  0  0
  6  7  1  0  0  0  0
  7 10  1  0  0  0  0
  8  9  1  0  0  0  0
  9 12  1  0  0  0  0
  9 13  1  0  0  0  0
 10 11  1  0  0  0  0
 11 14  1  0  0  0  0
 14 15  1  0  0  0  0
 15 16  1  0  0  0  0
 15 17  1  0  0  0  0
 18  2  1  0  0  0  0
 18 20  2  0  0  0  0
 18 24  1  0  0  0  0
 19 25  1  0  0  0  0
 20  1  1  0  0  0  0
 20 21  1  0  0  0  0
 21 22  2  0  0  0  0
 22 19  1  0  0  0  0
 22 23  1  0  0  0  0
 23 24  2  0  0  0  0
M  END
>  <CHROM.1>
69.00585582,-172.58749033,-61.28141217,-155.84982705,93.80042574,-179.42905279
83.14172550,99.74185531,2.97497805,27.78591360,62.89184202,104.52102992,-81.56238065
-69.61620865,-177.03723687,82.55061919,83.82638825,-82.74082505,-2.63380752
-9.67913169,-3.44649076,1.29897335,-0.90109158,0.80032533

>  <Name>
1uud_lig

>  <RI>
0

>  <Rbt.Current_Directory>
/home/itssahil/PROJECTS/Mol_Feturizer/New_Systems/rnas/1uud

>  <Rbt.Executable>
rbdock ($Id: //depot/dev/client3/rdock/2013.1/src/exe/rbdock.cxx#4 $)

>  <Rbt.Library>
libRbt.so (2013.1, Build901 2013/11/27)

>  <Rbt.Parameter_File>
/export/apps/rDock/src/rDock_2013.1_src/data/scripts/dock_solv.prm

>  <Rbt.Receptor>
prm/pocket_docking_3.prm

>  <SCORE>
-25.8556

>  <SCORE.INTER>
-13.8382

>  <SCORE.INTER.CONST>
1

>  <SCORE.INTER.POLAR>
-4.01148

>  <SCORE.INTER.ROT>
18

>  <SCORE.INTER.SOLV>
8.47609

>  <SCORE.INTER.VDW>
-14.2792

>  <SCORE.INTER.norm>
-0.553529

>  <SCORE.INTRA>
-12.0182

>  <SCORE.INTRA.DIHEDRAL>
-7.15229

>  <SCORE.INTRA.DIHEDRAL.0>
30.6762

>  <SCORE.INTRA.POLAR>
-0.792758

>  <SCORE.INTRA.POLAR.0>
-0.0288659

>  <SCORE.INTRA.REPUL>
0

>  <SCORE.INTRA.REPUL.0>
0

>  <SCORE.INTRA.SOLV>
-0.0177927

>  <SCORE.INTRA.SOLV.lig_0>
-25.2195

>  <SCORE.INTRA.VDW>
-5.73783

>  <SCORE.INTRA.VDW.0>
4.14263

>  <SCORE.INTRA.norm>
-0.48073

>  <SCORE.RESTR>
0.000867011

>  <SCORE.RESTR.CAVITY>
0.000867011

>  <SCORE.RESTR.norm>
3.46804e-05

>  <SCORE.SYSTEM>
0

>  <SCORE.SYSTEM.CONST>
0

>  <SCORE.SYSTEM.DIHEDRAL>
0

>  <SCORE.SYSTEM.SOLV>
0

>  <SCORE.SYSTEM.norm>
0

>  <SCORE.heavy>
25

>  <SCORE.norm>
-1.03422

>  <RMSD>
6.781

$$$$
1uud_lig
 OpenBabel11021811413D
libRbt.so/2013.1/901 2013/11/27
 25 25  0  0  0  0  0  0  0  0999 V2000
   -3.6336  -10.2697   -4.6860 C   0  0  0  0  0  0  0  0  0  0  0  0
   -1.6687  -12.2012   -5.6917 O   0  0  0  0  0  0  0  0  0  0  0  0
   -1.2904  -13.4088   -5.0143 C   0  0  0  0  0  0  0  0  0  0  0  0
   -4.3819   -9.4164   -3.7299 N   0  0  0  0  0  0  0  0  0  0  0  0
   -2.2045  -14.5647   -5.4427 C   0  0  0  0  0  0  0  0  0  0  0  0
   -4.3603  -10.0339   -2.3827 C   0  0  0  0  0  0  0  0  0  0  0  0
   -5.3180   -9.2757   -1.4556 C   0  0  0  0  0  0  0  0  0  0  0  0
   -1.5932  -15.7103   -5.2567 N   0  0  0  0  0  0  0  0  0  0  0  0
   -1.2738  -16.4944   -6.2692 C   0  0  0  0  0  0  0  0  0  0  0  0
   -6.7676   -9.5286   -1.8841 C   0  0  0  0  0  0  0  0  0  0  0  0
   -7.2313   -8.4012   -2.8110 C   0  0  0  0  0  0  0  0  0  0  0  0
   -0.2076  -16.2167   -7.0797 N   0  0  0  0  0  0  0  0  0  0  0  0
   -2.0219  -17.6014   -6.5125 N   0  0  0  0  0  0  0  0  0  0  0  0
   -8.0005   -8.8889   -3.7553 N   0  0  0  0  0  0  0  0  0  0  0  0
   -7.9161   -8.4638   -5.0014 C   0  0  0  0  0  0  0  0  0  0  0  0
   -7.0106   -7.5011   -5.3127 N   0  0  0  0  0  0  0  0  0  0  0  0
   -8.7251   -8.9621   -5.9828 N   0  0  0  0  0  0  0  0  0  0  0  0
   -1.1967  -11.0600   -4.9642 C   0  0  0  0  0  0  0  0  0  0  0  0
    0.2352   -7.6431   -2.8369 O   0  0  0  0  0  0  0  0  0  0  0  0
   -2.1171  -10.0949   -4.4628 C   0  0  0  0  0  0  0  0  0  0  0  0
   -1.6374   -8.9553   -3.7631 C   0  0  0  0  0  0  0  0  0  0  0  0
   -0.2445   -8.7890   -3.5450 C   0  0  0  0  0  0  0  0  0  0  0  0
    0.6727   -9.7609   -4.0277 C   0  0  0  0  0  0  0  0  0  0  0  0
    0.1976  -10.9007   -4.7313 C   0  0  0  0  0  0  0  0  0  0  0  0
    0.5703   -8.0138   -1.4965 C   0  0  0  0  0  0  0  0  0  0  0  0
  1  4  1  0  0  0  0
  2  3  1  0  0  0  0
  3  5  1  0  0  0  0
  4  6  1  0  0  0  0
  5  8  1  0  0  0  0
  6  7  1  0  0  0  0
  7 10  1  0  0  0  0
  8  9  1  0  0  0  0
  9 12  1  0  0  0  0
  9 13  1  0  0  0  0
 10 11  1  0  0  0  0
 11 14  1  0  0  0  0
 14 15  1  0  0  0  0
 15 16  1  0  0  0  0
 15 17  1  0  0  0  0
 18  2  1  0  0  0  0
 18 20  2  0  0  0  0
 18 24  1  0  0  0  0
 19 25  1  0  0  0  0
 20  1  1  0  0  0  0
 20 21  1  0  0  0  0
 21 22  2  0  0  0  0
 22 19  1  0  0  0  0
 22 23  1  0  0  0  0
 23 24  2  0  0  0  0
M  END
>  <CHROM.1>
-76.09739571,158.30098356,156.12886125,-170.86109936,-115.05521850,69.32690889
-94.76308297,76.37297268,8.59325377,-32.63556171,142.53777008,-139.75214454
0.10762743,-100.92461328,-161.03154280,-119.61888696,161.84074284,102.46473240
-3.14620804,-10.92036519,-4.35159041,2.26315722,-0.12386451,0.42101442

>  <Name>
1uud_lig

>  <RI>
0

>  <Rbt.Current_Directory>
/home/itssahil/PROJECTS/Mol_Feturizer/New_Systems/rnas/1uud

>  <Rbt.Executable>
rbdock ($Id: //depot/dev/client3/rdock/2013.1/src/exe/rbdock.cxx#4 $)

>  <Rbt.Library>
libRbt.so (2013.1, Build901 2013/11/27)

>  <Rbt.Parameter_File>
/export/apps/rDock/src/rDock_2013.1_src/data/scripts/dock_solv.prm

>  <Rbt.Receptor>
prm/pocket_docking_5.prm

>  <SCORE>
-22.6582

>  <SCORE.INTER>
-20.2204

>  <SCORE.INTER.CONST>
1

>  <SCORE.INTER.POLAR>
-4.55958

>  <SCORE.INTER.ROT>
18

>  <SCORE.INTER.SOLV>
10.7507

>  <SCORE.INTER.VDW>
-17.4652

>  <SCORE.INTER.norm>
-0.808816

>  <SCORE.INTRA>
-2.43781

>  <SCORE.INTRA.DIHEDRAL>
0.584621

>  <SCORE.INTRA.DIHEDRAL.0>
30.6762

>  <SCORE.INTRA.POLAR>
0.0288659

>  <SCORE.INTRA.POLAR.0>
-0.0288659

>  <SCORE.INTRA.REPUL>
0

>  <SCORE.INTRA.REPUL.0>
0

>  <SCORE.INTRA.SOLV>
-0.505102

>  <SCORE.INTRA.SOLV.lig_0>
-25.2195

>  <SCORE.INTRA.VDW>
-2.57572

>  <SCORE.INTRA.VDW.0>
4.14263

>  <SCORE.INTRA.norm>
-0.0975126

>  <SCORE.RESTR>
0

>  <SCORE.RESTR.CAVITY>
0

>  <SCORE.RESTR.norm>
0

>  <SCORE.SYSTEM>
0

>  <SCORE.SYSTEM.CONST>
0

>  <SCORE.SYSTEM.DIHEDRAL>
0

>  <SCORE.SYSTEM.SOLV>
0

>  <SCORE.SYSTEM.norm>
0

>  <SCORE.heavy>
25

>  <SCORE.norm>
-0.906329

>  <RMSD>
6.790

$$$$
1uud_lig
 OpenBabel11021811413D
libRbt.so/2013.1/901 2013/11/27
 25 25  0  0  0  0  0  0  0  0999 V2000
   -2.2702  -10.3310   -4.2200 C   0  0  0  0  0  0  0  0  0  0  0  0
   -1.8988  -10.0888   -1.3207 O   0  0  0  0  0  0  0  0  0  0  0  0
   -1.9103  -10.9977   -0.2098 C   0  0  0  0  0  0  0  0  0  0  0  0
   -1.7727  -11.7141   -4.0163 N   0  0  0  0  0  0  0  0  0  0  0  0
   -0.8425  -10.5938    0.8158 C   0  0  0  0  0  0  0  0  0  0  0  0
   -1.2133  -12.2383   -5.2848 C   0  0  0  0  0  0  0  0  0  0  0  0
   -0.6980  -13.6661   -5.0668 C   0  0  0  0  0  0  0  0  0  0  0  0
    0.2198  -11.3507    0.6763 N   0  0  0  0  0  0  0  0  0  0  0  0
    1.4316  -10.8325    0.6048 C   0  0  0  0  0  0  0  0  0  0  0  0
   -0.0178  -14.1751   -6.3424 C   0  0  0  0  0  0  0  0  0  0  0  0
   -0.9501  -15.1522   -7.0644 C   0  0  0  0  0  0  0  0  0  0  0  0
    1.6723   -9.6682   -0.0712 N   0  0  0  0  0  0  0  0  0  0  0  0
    2.4630  -11.4709    1.2154 N   0  0  0  0  0  0  0  0  0  0  0  0
   -1.7455  -14.4935   -7.8735 N   0  0  0  0  0  0  0  0  0  0  0  0
   -3.0274  -14.3372   -7.6037 C   0  0  0  0  0  0  0  0  0  0  0  0
   -3.9172  -14.2780   -8.6277 N   0  0  0  0  0  0  0  0  0  0  0  0
   -3.4788  -14.2232   -6.3195 N   0  0  0  0  0  0  0  0  0  0  0  0
   -3.2211   -9.9483   -1.8557 C   0  0  0  0  0  0  0  0  0  0  0  0
   -7.1637   -9.4820   -3.4332 O   0  0  0  0  0  0  0  0  0  0  0  0
   -3.4448  -10.0537   -3.2588 C   0  0  0  0  0  0  0  0  0  0  0  0
   -4.7556   -9.8897   -3.7814 C   0  0  0  0  0  0  0  0  0  0  0  0
   -5.8447   -9.6426   -2.9050 C   0  0  0  0  0  0  0  0  0  0  0  0
   -5.6257   -9.5567   -1.5037 C   0  0  0  0  0  0  0  0  0  0  0  0
   -4.3154   -9.7165   -0.9768 C   0  0  0  0  0  0  0  0  0  0  0  0
   -7.5288   -8.0993   -3.3986 C   0  0  0  0  0  0  0  0  0  0  0  0
  1  4  1  0  0  0  0
  2  3  1  0  0  0  0
  3  5  1  0  0  0  0
  4  6  1  0  0  0  0
  5  8  1  0  0  0  0
  6  7  1  0  0  0  0
  7 10  1  0  0  0  0
  8  9  1  0  0  0  0
  9 12  1  0  0  0  0
  9 13  1  0  0  0  0
 10 11  1  0  0  0  0
 11 14  1  0  0  0  0
 14 15  1  0  0  0  0
 15 16  1  0  0  0  0
 15 17  1  0  0  0  0
 18  2  1  0  0  0  0
 18 20  2  0  0  0  0
 18 24  1  0  0  0  0
 19 25  1  0  0  0  0
 20  1  1  0  0  0  0
 20 21  1  0  0  0  0
 21 22  2  0  0  0  0
 22 19  1  0  0  0  0
 22 23  1  0  0  0  0
 23 24  2  0  0  0  0
M  END
>  <CHROM.1>
150.36005964,-147.93773528,-100.38043248,179.86632922,131.19503230,-175.53113996
-103.63126747,-38.44278185,-154.44972091,-131.87067610,87.67207057,-107.57407198
-147.73076504,161.54611783,97.37204858,-131.83420268,69.05610791,-105.03703799
-2.34170607,-11.48015302,-3.29133244,1.87117276,0.40784885,-2.14112361

>  <Name>
1uud_lig

>  <RI>
0

>  <Rbt.Current_Directory>
/home/itssahil/PROJECTS/Mol_Feturizer/New_Systems/rnas/1uud

>  <Rbt.Executable>
rbdock ($Id: //depot/dev/client3/rdock/2013.1/src/exe/rbdock.cxx#4 $)

>  <Rbt.Library>
libRbt.so (2013.1, Build901 2013/11/27)

>  <Rbt.Parameter_File>
/export/apps/rDock/src/rDock_2013.1_src/data/scripts/dock_solv.prm

>  <Rbt.Receptor>
prm/pocket_docking_4.prm

>  <SCORE>
-34.7633

>  <SCORE.INTER>
-32.2684

>  <SCORE.INTER.CONST>
1

>  <SCORE.INTER.POLAR>
-5.46477

>  <SCORE.INTER.ROT>
18

>  <SCORE.INTER.SOLV>
11.4319

>  <SCORE.INTER.VDW>
-22.707

>  <SCORE.INTER.norm>
-1.29073

>  <SCORE.INTRA>
-2.49492

>  <SCORE.INTRA.DIHEDRAL>
4.24817

>  <SCORE.INTRA.DIHEDRAL.0>
30.6762

>  <SCORE.INTRA.POLAR>
0.0288659

>  <SCORE.INTRA.POLAR.0>
-0.0288659

>  <SCORE.INTRA.REPUL>
0

>  <SCORE.INTRA.REPUL.0>
0

>  <SCORE.INTRA.SOLV>
-0.0172433

>  <SCORE.INTRA.SOLV.lig_0>
-25.2195

>  <SCORE.INTRA.VDW>
-4.70852

>  <SCORE.INTRA.VDW.0>
4.14263

>  <SCORE.INTRA.norm>
-0.0997967

>  <SCORE.RESTR>
0

>  <SCORE.RESTR.CAVITY>
0

>  <SCORE.RESTR.norm>
0

>  <SCORE.SYSTEM>
0

>  <SCORE.SYSTEM.CONST>
0

>  <SCORE.SYSTEM.DIHEDRAL>
0

>  <SCORE.SYSTEM.SOLV>
0

>  <SCORE.SYSTEM.norm>
0

>  <SCORE.heavy>
25

>  <SCORE.norm>
-1.39053

>  <RMSD>
6.807

$$$$
1uud_lig
 OpenBabel11021811413D
libRbt.so/2013.1/901 2013/11/27
 25 25  0  0  0  0  0  0  0  0999 V2000
   -3.7917  -10.5440   -8.2449 C   0  0  0  0  0  0  0  0  0  0  0  0
   -5.6032   -9.9400   -6.0186 O   0  0  0  0  0  0  0  0  0  0  0  0
   -5.9281  -10.6678   -4.8249 C   0  0  0  0  0  0  0  0  0  0  0  0
   -2.8537  -11.6698   -8.4790 N   0  0  0  0  0  0  0  0  0  0  0  0
   -6.4747   -9.7130   -3.7550 C   0  0  0  0  0  0  0  0  0  0  0  0
   -3.2142  -12.8132   -7.6075 C   0  0  0  0  0  0  0  0  0  0  0  0
   -2.4200  -14.0536   -8.0342 C   0  0  0  0  0  0  0  0  0  0  0  0
   -7.6542   -9.2661   -4.1155 N   0  0  0  0  0  0  0  0  0  0  0  0
   -7.9775   -7.9927   -3.9898 C   0  0  0  0  0  0  0  0  0  0  0  0
   -2.6175  -15.1766   -7.0102 C   0  0  0  0  0  0  0  0  0  0  0  0
   -1.9459  -14.7889   -5.6896 C   0  0  0  0  0  0  0  0  0  0  0  0
   -9.1222   -7.6059   -3.3489 N   0  0  0  0  0  0  0  0  0  0  0  0
   -7.1554   -7.0451   -4.5098 N   0  0  0  0  0  0  0  0  0  0  0  0
   -1.8271  -15.8469   -4.9229 N   0  0  0  0  0  0  0  0  0  0  0  0
   -0.6449  -16.3009   -4.5530 C   0  0  0  0  0  0  0  0  0  0  0  0
    0.3282  -15.4163   -4.2153 N   0  0  0  0  0  0  0  0  0  0  0  0
   -0.3743  -17.6393   -4.5119 N   0  0  0  0  0  0  0  0  0  0  0  0
   -4.2534   -9.4623   -5.9521 C   0  0  0  0  0  0  0  0  0  0  0  0
   -0.2228   -8.0670   -5.7126 O   0  0  0  0  0  0  0  0  0  0  0  0
   -3.3394   -9.7380   -7.0097 C   0  0  0  0  0  0  0  0  0  0  0  0
   -1.9974   -9.2800   -6.9234 C   0  0  0  0  0  0  0  0  0  0  0  0
   -1.5730   -8.5303   -5.7950 C   0  0  0  0  0  0  0  0  0  0  0  0
   -2.4890   -8.2381   -4.7488 C   0  0  0  0  0  0  0  0  0  0  0  0
   -3.8317   -8.6973   -4.8293 C   0  0  0  0  0  0  0  0  0  0  0  0
    0.6376   -9.1569   -5.3684 C   0  0  0  0  0  0  0  0  0  0  0  0
  1  4  1  0  0  0  0
  2  3  1  0  0  0  0
  3  5  1  0  0  0  0
  4  6  1  0  0  0  0
  5  8  1  0  0  0  0
  6  7  1  0  0  0  0
  7 10  1  0  0  0  0
  8  9  1  0  0  0  0
  9 12  1  0  0  0  0
  9 13  1  0  0  0  0
 10 11  1  0  0  0  0
 11 14  1  0  0  0  0
 14 15  1  0  0  0  0
 15 16  1  0  0  0  0
 15 17  1  0  0  0  0
 18  2  1  0  0  0  0
 18 20  2  0  0  0  0
 18 24  1  0  0  0  0
 19 25  1  0  0  0  0
 20  1  1  0  0  0  0
 20 21  1  0  0  0  0
 21 22  2  0  0  0  0
 22 19  1  0  0  0  0
 22 23  1  0  0  0  0
 23 24  2  0  0  0  0
M  END
>  <CHROM.1>
82.82272877,88.51856090,69.06551395,169.43262439,-135.93201871,171.17990109
-68.05624377,-127.94081225,-119.20214196,113.83685078,-164.97982734,117.48982045
40.02545215,6.02852507,-26.17798930,127.27515000,-127.89535965,-75.92784926
-3.46146978,-11.15381710,-5.58516769,-2.26494315,-0.28752135,3.05075906

>  <Name>
1uud_lig

>  <RI>
0

>  <Rbt.Current_Directory>
/home/itssahil/PROJECTS/Mol_Feturizer/New_Systems/rnas/1uud

>  <Rbt.Executable>
rbdock ($Id: //depot/dev/client3/rdock/2013.1/src/exe/rbdock.cxx#4 $)

>  <Rbt.Library>
libRbt.so (2013.1, Build901 2013/11/27)

>  <Rbt.Parameter_File>
/export/apps/rDock/src/rDock_2013.1_src/data/scripts/dock_solv.prm

>  <Rbt.Receptor>
prm/pocket_docking_5.prm

>  <SCORE>
-34.9405

>  <SCORE.INTER>
-28.8231

>  <SCORE.INTER.CONST>
1

>  <SCORE.INTER.POLAR>
-4.88378

>  <SCORE.INTER.ROT>
18

>  <SCORE.INTER.SOLV>
11.1614

>  <SCORE.INTER.VDW>
-22.2566

>  <SCORE.INTER.norm>
-1.15292

>  <SCORE.INTRA>
-6.19387

>  <SCORE.INTRA.DIHEDRAL>
-6.36802

>  <SCORE.INTRA.DIHEDRAL.0>
30.6762

>  <SCORE.INTRA.POLAR>
0.0288659

>  <SCORE.INTRA.POLAR.0>
-0.0288659

>  <SCORE.INTRA.REPUL>
0

>  <SCORE.INTRA.REPUL.0>
0

>  <SCORE.INTRA.SOLV>
-0.650741

>  <SCORE.INTRA.SOLV.lig_0>
-25.2195

>  <SCORE.INTRA.VDW>
-2.78263

>  <SCORE.INTRA.VDW.0>
4.14263

>  <SCORE.INTRA.norm>
-0.247755

>  <SCORE.RESTR>
0.0765013

>  <SCORE.RESTR.CAVITY>
0.0765013

>  <SCORE.RESTR.norm>
0.00306005

>  <SCORE.SYSTEM>
0

>  <SCORE.SYSTEM.CONST>
0

>  <SCORE.SYSTEM.DIHEDRAL>
0

>  <SCORE.SYSTEM.SOLV>
0

>  <SCORE.SYSTEM.norm>
0

>  <SCORE.heavy>
25

>  <SCORE.norm>
-1.39762

>  <RMSD>
6.824

$$$$
1uud_lig
 OpenBabel11021811413D
libRbt.so/2013.1/901 2013/11/27
 25 25  0  0  0  0  0  0  0  0999 V2000
   -1.6071   -8.7400   -7.8776 C   0  0  0  0  0  0  0  0  0  0  0  0
   -1.5790  -11.6509   -7.5194 O   0  0  0  0  0  0  0  0  0  0  0  0
   -2.8861  -11.9443   -7.0041 C   0  0  0  0  0  0  0  0  0  0  0  0
   -2.7629   -7.9884   -7.3286 N   0  0  0  0  0  0  0  0  0  0  0  0
   -3.2854  -13.3825   -7.3609 C   0  0  0  0  0  0  0  0  0  0  0  0
   -3.8371   -8.9329   -6.9401 C   0  0  0  0  0  0  0  0  0  0  0  0
   -4.7684   -8.2605   -5.9242 C   0  0  0  0  0  0  0  0  0  0  0  0
   -3.3251  -13.5248   -8.6643 N   0  0  0  0  0  0  0  0  0  0  0  0
   -3.2954  -14.7172   -9.2294 C   0  0  0  0  0  0  0  0  0  0  0  0
   -5.3696   -9.3162   -4.9899 C   0  0  0  0  0  0  0  0  0  0  0  0
   -6.6808   -8.7897   -4.3994 C   0  0  0  0  0  0  0  0  0  0  0  0
   -2.1709  -15.1858   -9.8511 N   0  0  0  0  0  0  0  0  0  0  0  0
   -4.4075  -15.4959   -9.1939 N   0  0  0  0  0  0  0  0  0  0  0  0
   -6.6434   -8.8694   -3.0904 N   0  0  0  0  0  0  0  0  0  0  0  0
   -7.2737   -9.8287   -2.4399 C   0  0  0  0  0  0  0  0  0  0  0  0
   -7.4510  -11.0321   -3.0433 N   0  0  0  0  0  0  0  0  0  0  0  0
   -7.7606   -9.6361   -1.1782 N   0  0  0  0  0  0  0  0  0  0  0  0
   -0.8530  -10.8393   -6.5873 C   0  0  0  0  0  0  0  0  0  0  0  0
    1.3538   -8.4425   -3.8241 O   0  0  0  0  0  0  0  0  0  0  0  0
   -0.8362   -9.4216   -6.7281 C   0  0  0  0  0  0  0  0  0  0  0  0
   -0.0946   -8.6277   -5.8127 C   0  0  0  0  0  0  0  0  0  0  0  0
    0.6115   -9.2442   -4.7464 C   0  0  0  0  0  0  0  0  0  0  0  0
    0.5794  -10.6565   -4.5938 C   0  0  0  0  0  0  0  0  0  0  0  0
   -0.1583  -11.4550   -5.5093 C   0  0  0  0  0  0  0  0  0  0  0  0
    0.7957   -8.5785   -2.5139 C   0  0  0  0  0  0  0  0  0  0  0  0
  1  4  1  0  0  0  0
  2  3  1  0  0  0  0
  3  5  1  0  0  0  0
  4  6  1  0  0  0  0
  5  8  1  0  0  0  0
  6  7  1  0  0  0  0
  7 10  1  0  0  0  0
  8  9  1  0  0  0  0
  9 12  1  0  0  0  0
  9 13  1  0  0  0  0
 10 11  1  0  0  0  0
 11 14  1  0  0  0  0
 14 15  1  0  0  0  0
 15 16  1  0  0  0  0
 15 17  1  0  0  0  0
 18  2  1  0  0  0  0
 18 20  2  0  0  0  0
 18 24  1  0  0  0  0
 19 25  1  0  0  0  0
 20  1  1  0  0  0  0
 20 21  1  0  0  0  0
 21 22  2  0  0  0  0
 22 19  1  0  0  0  0
 22 23  1  0  0  0  0
 23 24  2  0  0  0  0
M  END
>  <CHROM.1>
-75.02163705,-142.04974745,-61.24902204,158.83571842,162.00599734,-150.22752253
-156.46050478,-105.21286860,175.92840527,7.54228537,-126.35377333,-102.37035144
29.46560539,51.70164792,68.42168989,-95.38058340,110.72757067,116.78481222
-3.02932715,-10.61329247,-5.85173750,-0.98857876,0.23682278,0.77222538

>  <Name>
1uud_lig

>  <RI>
0

>  <Rbt.Current_Directory>
/home/itssahil/PROJECTS/Mol_Feturizer/New_Systems/rnas/1uud

>  <Rbt.Executable>
rbdock ($Id: //depot/dev/client3/rdock/2013.1/src/exe/rbdock.cxx#4 $)

>  <Rbt.Library>
libRbt.so (2013.1, Build901 2013/11/27)

>  <Rbt.Parameter_File>
/export/apps/rDock/src/rDock_2013.1_src/data/scripts/dock_solv.prm

>  <Rbt.Receptor>
prm/pocket_docking_5.prm

>  <SCORE>
-14.1169

>  <SCORE.INTER>
-11.7234

>  <SCORE.INTER.CONST>
1

>  <SCORE.INTER.POLAR>
-2.24238

>  <SCORE.INTER.ROT>
18

>  <SCORE.INTER.SOLV>
10.397

>  <SCORE.INTER.VDW>
-19.4067

>  <SCORE.INTER.norm>
-0.468936

>  <SCORE.INTRA>
-2.39346

>  <SCORE.INTRA.DIHEDRAL>
4.89046

>  <SCORE.INTRA.DIHEDRAL.0>
30.6762

>  <SCORE.INTRA.POLAR>
0.0288659

>  <SCORE.INTRA.POLAR.0>
-0.0288659

>  <SCORE.INTRA.REPUL>
0

>  <SCORE.INTRA.REPUL.0>
0

>  <SCORE.INTRA.SOLV>
-1.08445

>  <SCORE.INTRA.SOLV.lig_0>
-25.2195

>  <SCORE.INTRA.VDW>
-4.39462

>  <SCORE.INTRA.VDW.0>
4.14263

>  <SCORE.INTRA.norm>
-0.0957386

>  <SCORE.RESTR>
0

>  <SCORE.RESTR.CAVITY>
0

>  <SCORE.RESTR.norm>
0

>  <SCORE.SYSTEM>
0

>  <SCORE.SYSTEM.CONST>
0

>  <SCORE.SYSTEM.DIHEDRAL>
0

>  <SCORE.SYSTEM.SOLV>
0

>  <SCORE.SYSTEM.norm>
0

>  <SCORE.heavy>
25

>  <SCORE.norm>
-0.564675

>  <RMSD>
6.832

$$$$
1uud_lig
 OpenBabel11021811413D
libRbt.so/2013.1/901 2013/11/27
 25 25  0  0  0  0  0  0  0  0999 V2000
   -2.8270   -9.6778   -2.3275 C   0  0  0  0  0  0  0  0  0  0  0  0
   -5.6764   -9.0005   -2.4860 O   0  0  0  0  0  0  0  0  0  0  0  0
   -6.5262  -10.0923   -2.8681 C   0  0  0  0  0  0  0  0  0  0  0  0
   -2.5383  -11.1004   -2.6357 N   0  0  0  0  0  0  0  0  0  0  0  0
   -7.6070   -9.6058   -3.8429 C   0  0  0  0  0  0  0  0  0  0  0  0
   -3.0815  -11.4449   -3.9710 C   0  0  0  0  0  0  0  0  0  0  0  0
   -2.6522  -12.8681   -4.3476 C   0  0  0  0  0  0  0  0  0  0  0  0
   -8.4291   -8.7896   -3.2275 N   0  0  0  0  0  0  0  0  0  0  0  0
   -8.2908   -7.4796   -3.3093 C   0  0  0  0  0  0  0  0  0  0  0  0
   -1.2903  -12.8332   -5.0495 C   0  0  0  0  0  0  0  0  0  0  0  0
   -0.7408  -14.2574   -5.1714 C   0  0  0  0  0  0  0  0  0  0  0  0
   -8.6539   -6.6568   -2.2789 N   0  0  0  0  0  0  0  0  0  0  0  0
   -7.7773   -6.9364   -4.4431 N   0  0  0  0  0  0  0  0  0  0  0  0
   -1.4745  -14.9475   -6.0121 N   0  0  0  0  0  0  0  0  0  0  0  0
   -1.5737  -16.2601   -5.9238 C   0  0  0  0  0  0  0  0  0  0  0  0
   -1.1368  -16.8831   -4.7993 N   0  0  0  0  0  0  0  0  0  0  0  0
   -2.0960  -17.0073   -6.9412 N   0  0  0  0  0  0  0  0  0  0  0  0
   -5.1028   -9.2510   -1.1965 C   0  0  0  0  0  0  0  0  0  0  0  0
   -3.4242  -10.0372    2.6525 O   0  0  0  0  0  0  0  0  0  0  0  0
   -3.7239   -9.5883   -1.0753 C   0  0  0  0  0  0  0  0  0  0  0  0
   -3.1704   -9.8575    0.2051 C   0  0  0  0  0  0  0  0  0  0  0  0
   -3.9848   -9.7698    1.3646 C   0  0  0  0  0  0  0  0  0  0  0  0
   -5.3555   -9.4144    1.2467 C   0  0  0  0  0  0  0  0  0  0  0  0
   -5.9143   -9.1477   -0.0326 C   0  0  0  0  0  0  0  0  0  0  0  0
   -4.3714  -10.7566    3.4474 C   0  0  0  0  0  0  0  0  0  0  0  0
  1  4  1  0  0  0  0
  2  3  1  0  0  0  0
  3  5  1  0  0  0  0
  4  6  1  0  0  0  0
  5  8  1  0  0  0  0
  6  7  1  0  0  0  0
  7 10  1  0  0  0  0
  8  9  1  0  0  0  0
  9 12  1  0  0  0  0
  9 13  1  0  0  0  0
 10 11  1  0  0  0  0
 11 14  1  0  0  0  0
 14 15  1  0  0  0  0
 15 16  1  0  0  0  0
 15 17  1  0  0  0  0
 18  2  1  0  0  0  0
 18 20  2  0  0  0  0
 18 24  1  0  0  0  0
 19 25  1  0  0  0  0
 20  1  1  0  0  0  0
 20 21  1  0  0  0  0
 21 22  2  0  0  0  0
 22 19  1  0  0  0  0
 22 23  1  0  0  0  0
 23 24  2  0  0  0  0
M  END
>  <CHROM.1>
118.11443362,153.68688349,-67.01078701,174.02412258,97.32180409,-87.92779957
168.80139457,-148.69458169,162.48360953,86.32766258,68.22590525,-153.15804532
13.38599347,120.39677257,-14.12912249,107.37926195,-106.20569533,-141.10131431
-4.30164605,-10.98991590,-2.58406260,-2.37413366,0.75641330,-1.94825287

>  <Name>
1uud_lig

>  <RI>
0

>  <Rbt.Current_Directory>
/home/itssahil/PROJECTS/Mol_Feturizer/New_Systems/rnas/1uud

>  <Rbt.Executable>
rbdock ($Id: //depot/dev/client3/rdock/2013.1/src/exe/rbdock.cxx#4 $)

>  <Rbt.Library>
libRbt.so (2013.1, Build901 2013/11/27)

>  <Rbt.Parameter_File>
/export/apps/rDock/src/rDock_2013.1_src/data/scripts/dock_solv.prm

>  <Rbt.Receptor>
prm/pocket_docking_5.prm

>  <SCORE>
-33.7566

>  <SCORE.INTER>
-30.211

>  <SCORE.INTER.CONST>
1

>  <SCORE.INTER.POLAR>
-5.61743

>  <SCORE.INTER.ROT>
18

>  <SCORE.INTER.SOLV>
9.07883

>  <SCORE.INTER.VDW>
-20.0422

>  <SCORE.INTER.norm>
-1.20844

>  <SCORE.INTRA>
-3.54557

>  <SCORE.INTRA.DIHEDRAL>
-4.02478

>  <SCORE.INTRA.DIHEDRAL.0>
30.6762

>  <SCORE.INTRA.POLAR>
0.0288659

>  <SCORE.INTRA.POLAR.0>
-0.0288659

>  <SCORE.INTRA.REPUL>
0

>  <SCORE.INTRA.REPUL.0>
0

>  <SCORE.INTRA.SOLV>
-0.379985

>  <SCORE.INTRA.SOLV.lig_0>
-25.2195

>  <SCORE.INTRA.VDW>
-1.44133

>  <SCORE.INTRA.VDW.0>
4.14263

>  <SCORE.INTRA.norm>
-0.141823

>  <SCORE.RESTR>
0

>  <SCORE.RESTR.CAVITY>
0

>  <SCORE.RESTR.norm>
0

>  <SCORE.SYSTEM>
0

>  <SCORE.SYSTEM.CONST>
0

>  <SCORE.SYSTEM.DIHEDRAL>
0

>  <SCORE.SYSTEM.SOLV>
0

>  <SCORE.SYSTEM.norm>
0

>  <SCORE.heavy>
25

>  <SCORE.norm>
-1.35026

>  <RMSD>
6.836

$$$$
1uud_lig
 OpenBabel11021811413D
libRbt.so/2013.1/901 2013/11/27
 25 25  0  0  0  0  0  0  0  0999 V2000
   -2.1355   -9.8361   -2.3185 C   0  0  0  0  0  0  0  0  0  0  0  0
   -4.9356  -10.0901   -3.1537 O   0  0  0  0  0  0  0  0  0  0  0  0
   -5.3805   -8.9305   -3.8731 C   0  0  0  0  0  0  0  0  0  0  0  0
   -2.0958  -11.2570   -2.7447 N   0  0  0  0  0  0  0  0  0  0  0  0
   -5.6295   -9.2841   -5.3455 C   0  0  0  0  0  0  0  0  0  0  0  0
   -2.7304  -11.3996   -4.0765 C   0  0  0  0  0  0  0  0  0  0  0  0
   -2.5265  -12.8296   -4.5912 C   0  0  0  0  0  0  0  0  0  0  0  0
   -6.4715   -8.4285   -5.8743 N   0  0  0  0  0  0  0  0  0  0  0  0
   -7.7324   -8.3727   -5.4881 C   0  0  0  0  0  0  0  0  0  0  0  0
   -3.2704  -13.0170   -5.9180 C   0  0  0  0  0  0  0  0  0  0  0  0
   -2.3430  -13.6902   -6.9339 C   0  0  0  0  0  0  0  0  0  0  0  0
   -8.1410   -7.5159   -4.5035 N   0  0  0  0  0  0  0  0  0  0  0  0
   -8.6443   -9.1857   -6.0811 N   0  0  0  0  0  0  0  0  0  0  0  0
   -2.8317  -13.5511   -8.1435 N   0  0  0  0  0  0  0  0  0  0  0  0
   -2.6879  -12.4277   -8.8201 C   0  0  0  0  0  0  0  0  0  0  0  0
   -1.6357  -12.2953   -9.6679 N   0  0  0  0  0  0  0  0  0  0  0  0
   -3.5668  -11.3914   -8.6797 N   0  0  0  0  0  0  0  0  0  0  0  0
   -4.6562   -9.7467   -1.7905 C   0  0  0  0  0  0  0  0  0  0  0  0
   -3.8454   -8.7660    2.2877 O   0  0  0  0  0  0  0  0  0  0  0  0
   -3.3099   -9.6183   -1.3420 C   0  0  0  0  0  0  0  0  0  0  0  0
   -3.0432   -9.3004    0.0167 C   0  0  0  0  0  0  0  0  0  0  0  0
   -4.1166   -9.0899    0.9216 C   0  0  0  0  0  0  0  0  0  0  0  0
   -5.4597   -9.1985    0.4708 C   0  0  0  0  0  0  0  0  0  0  0  0
   -5.7312   -9.5198   -0.8868 C   0  0  0  0  0  0  0  0  0  0  0  0
   -3.4723   -7.3886    2.3886 C   0  0  0  0  0  0  0  0  0  0  0  0
  1  4  1  0  0  0  0
  2  3  1  0  0  0  0
  3  5  1  0  0  0  0
  4  6  1  0  0  0  0
  5  8  1  0  0  0  0
  6  7  1  0  0  0  0
  7 10  1  0  0  0  0
  8  9  1  0  0  0  0
  9 12  1  0  0  0  0
  9 13  1  0  0  0  0
 10 11  1  0  0  0  0
 11 14  1  0  0  0  0
 14 15  1  0  0  0  0
 15 16  1  0  0  0  0
 15 17  1  0  0  0  0
 18  2  1  0  0  0  0
 18 20  2  0  0  0  0
 18 24  1  0  0  0  0
 19 25  1  0  0  0  0
 20  1  1  0  0  0  0
 20 21  1  0  0  0  0
 21 22  2  0  0  0  0
 22 19  1  0  0  0  0
 22 23  1  0  0  0  0
 23 24  2  0  0  0  0
M  END
>  <CHROM.1>
99.23436516,177.86519334,156.69368292,172.73662944,-66.96528418,175.69783172
132.56118973,92.91923829,-21.82503522,159.71664829,-164.07874786,79.54736802
93.27947202,145.07853759,130.65521224,-104.59953494,-66.57863355,77.50997008
-4.26867547,-10.25471403,-3.86654755,-1.72188933,0.57656046,-1.88376635

>  <Name>
1uud_lig

>  <RI>
0

>  <Rbt.Current_Directory>
/home/itssahil/PROJECTS/Mol_Feturizer/New_Systems/rnas/1uud

>  <Rbt.Executable>
rbdock ($Id: //depot/dev/client3/rdock/2013.1/src/exe/rbdock.cxx#4 $)

>  <Rbt.Library>
libRbt.so (2013.1, Build901 2013/11/27)

>  <Rbt.Parameter_File>
/export/apps/rDock/src/rDock_2013.1_src/data/scripts/dock_solv.prm

>  <Rbt.Receptor>
prm/pocket_docking_4.prm

>  <SCORE>
-33.6947

>  <SCORE.INTER>
-28.2565

>  <SCORE.INTER.CONST>
1

>  <SCORE.INTER.POLAR>
-5.17909

>  <SCORE.INTER.ROT>
18

>  <SCORE.INTER.SOLV>
13.7677

>  <SCORE.INTER.VDW>
-21.7633

>  <SCORE.INTER.norm>
-1.13026

>  <SCORE.INTRA>
-5.43817

>  <SCORE.INTRA.DIHEDRAL>
-0.20247

>  <SCORE.INTRA.DIHEDRAL.0>
30.6762

>  <SCORE.INTRA.POLAR>
0.0288659

>  <SCORE.INTRA.POLAR.0>
-0.0288659

>  <SCORE.INTRA.REPUL>
0

>  <SCORE.INTRA.REPUL.0>
0

>  <SCORE.INTRA.SOLV>
-0.732514

>  <SCORE.INTRA.SOLV.lig_0>
-25.2195

>  <SCORE.INTRA.VDW>
-5.06882

>  <SCORE.INTRA.VDW.0>
4.14263

>  <SCORE.INTRA.norm>
-0.217527

>  <SCORE.RESTR>
0

>  <SCORE.RESTR.CAVITY>
0

>  <SCORE.RESTR.norm>
0

>  <SCORE.SYSTEM>
0

>  <SCORE.SYSTEM.CONST>
0

>  <SCORE.SYSTEM.DIHEDRAL>
0

>  <SCORE.SYSTEM.SOLV>
0

>  <SCORE.SYSTEM.norm>
0

>  <SCORE.heavy>
25

>  <SCORE.norm>
-1.34779

>  <RMSD>
6.874

$$$$
1uud_lig
 OpenBabel11021811413D
libRbt.so/2013.1/901 2013/11/27
 25 25  0  0  0  0  0  0  0  0999 V2000
   -0.0252   -8.7763   -3.1942 C   0  0  0  0  0  0  0  0  0  0  0  0
   -1.7348   -9.7062   -0.9998 O   0  0  0  0  0  0  0  0  0  0  0  0
   -2.2939   -9.4978    0.3056 C   0  0  0  0  0  0  0  0  0  0  0  0
    0.0757   -9.5098   -4.4803 N   0  0  0  0  0  0  0  0  0  0  0  0
   -1.6121  -10.4184    1.3268 C   0  0  0  0  0  0  0  0  0  0  0  0
   -0.8001  -10.7050   -4.4467 C   0  0  0  0  0  0  0  0  0  0  0  0
   -0.7267  -11.4326   -5.7946 C   0  0  0  0  0  0  0  0  0  0  0  0
   -0.4081   -9.9726    1.5963 N   0  0  0  0  0  0  0  0  0  0  0  0
    0.6704  -10.5702    1.1255 C   0  0  0  0  0  0  0  0  0  0  0  0
   -1.5166  -12.7439   -5.7226 C   0  0  0  0  0  0  0  0  0  0  0  0
   -1.5547  -13.3950   -7.1083 C   0  0  0  0  0  0  0  0  0  0  0  0
    1.6784   -9.8617    0.5317 N   0  0  0  0  0  0  0  0  0  0  0  0
    0.7808  -11.9195    1.2319 N   0  0  0  0  0  0  0  0  0  0  0  0
   -2.4482  -12.7945   -7.8581 N   0  0  0  0  0  0  0  0  0  0  0  0
   -2.1259  -11.7769   -8.6334 C   0  0  0  0  0  0  0  0  0  0  0  0
   -1.3349  -11.9934   -9.7156 N   0  0  0  0  0  0  0  0  0  0  0  0
   -2.5608  -10.5096   -8.3669 N   0  0  0  0  0  0  0  0  0  0  0  0
   -2.2660   -8.7461   -1.9220 C   0  0  0  0  0  0  0  0  0  0  0  0
   -3.8542   -5.8514   -4.6329 O   0  0  0  0  0  0  0  0  0  0  0  0
   -1.4674   -8.2642   -2.9990 C   0  0  0  0  0  0  0  0  0  0  0  0
   -1.9953   -7.2953   -3.8939 C   0  0  0  0  0  0  0  0  0  0  0  0
   -3.3240   -6.8236   -3.7283 C   0  0  0  0  0  0  0  0  0  0  0  0
   -4.1279   -7.3181   -2.6661 C   0  0  0  0  0  0  0  0  0  0  0  0
   -3.6027   -8.2848   -1.7663 C   0  0  0  0  0  0  0  0  0  0  0  0
   -4.5851   -6.5110   -5.6708 C   0  0  0  0  0  0  0  0  0  0  0  0
  1  4  1  0  0  0  0
  2  3  1  0  0  0  0
  3  5  1  0  0  0  0
  4  6  1  0  0  0  0
  5  8  1  0  0  0  0
  6  7  1  0  0  0  0
  7 10  1  0  0  0  0
  8  9  1  0  0  0  0
  9 12  1  0  0  0  0
  9 13  1  0  0  0  0
 10 11  1  0  0  0  0
 11 14  1  0  0  0  0
 14 15  1  0  0  0  0
 15 16  1  0  0  0  0
 15 17  1  0  0  0  0
 18  2  1  0  0  0  0
 18 20  2  0  0  0  0
 18 24  1  0  0  0  0
 19 25  1  0  0  0  0
 20  1  1  0  0  0  0
 20 21  1  0  0  0  0
 21 22  2  0  0  0  0
 22 19  1  0  0  0  0
 22 23  1  0  0  0  0
 23 24  2  0  0  0  0
M  END
>  <CHROM.1>
-63.02237706,-173.65445828,74.29854562,178.14500401,-105.87617673,174.32979368
174.43689955,132.39858337,-87.95725979,30.24194834,-78.22956599,91.45191110
68.81140254,125.53495216,95.95630900,147.44943680,115.94657259,95.13824317
-1.60476971,-9.83028916,-3.53310782,1.25617698,-0.96303868,1.14108581

>  <Name>
1uud_lig

>  <RI>
0

>  <Rbt.Current_Directory>
/home/itssahil/PROJECTS/Mol_Feturizer/New_Systems/rnas/1uud

>  <Rbt.Executable>
rbdock ($Id: //depot/dev/client3/rdock/2013.1/src/exe/rbdock.cxx#4 $)

>  <Rbt.Library>
libRbt.so (2013.1, Build901 2013/11/27)

>  <Rbt.Parameter_File>
/export/apps/rDock/src/rDock_2013.1_src/data/scripts/dock_solv.prm

>  <Rbt.Receptor>
prm/pocket_docking_8.prm

>  <SCORE>
-23.8366

>  <SCORE.INTER>
-14.5384

>  <SCORE.INTER.CONST>
1

>  <SCORE.INTER.POLAR>
-3.26754

>  <SCORE.INTER.ROT>
18

>  <SCORE.INTER.SOLV>
7.93596

>  <SCORE.INTER.VDW>
-17.0458

>  <SCORE.INTER.norm>
-0.581535

>  <SCORE.INTRA>
-9.29818

>  <SCORE.INTRA.DIHEDRAL>
-11.7828

>  <SCORE.INTRA.DIHEDRAL.0>
30.6762

>  <SCORE.INTRA.POLAR>
0.0288659

>  <SCORE.INTRA.POLAR.0>
-0.0288659

>  <SCORE.INTRA.REPUL>
0

>  <SCORE.INTRA.REPUL.0>
0

>  <SCORE.INTRA.SOLV>
-0.252194

>  <SCORE.INTRA.SOLV.lig_0>
-25.2195

>  <SCORE.INTRA.VDW>
-3.37881

>  <SCORE.INTRA.VDW.0>
4.14263

>  <SCORE.INTRA.norm>
-0.371927

>  <SCORE.RESTR>
0

>  <SCORE.RESTR.CAVITY>
0

>  <SCORE.RESTR.norm>
0

>  <SCORE.SYSTEM>
0

>  <SCORE.SYSTEM.CONST>
0

>  <SCORE.SYSTEM.DIHEDRAL>
0

>  <SCORE.SYSTEM.SOLV>
0

>  <SCORE.SYSTEM.norm>
0

>  <SCORE.heavy>
25

>  <SCORE.norm>
-0.953462

>  <RMSD>
6.876

$$$$
1uud_lig
 OpenBabel11021811413D
libRbt.so/2013.1/901 2013/11/27
 25 25  0  0  0  0  0  0  0  0999 V2000
   -4.1921  -11.1007   -6.8248 C   0  0  0  0  0  0  0  0  0  0  0  0
   -3.1322   -9.4057   -4.6787 O   0  0  0  0  0  0  0  0  0  0  0  0
   -4.1316   -8.5574   -4.0939 C   0  0  0  0  0  0  0  0  0  0  0  0
   -3.2854  -12.2755   -6.8394 N   0  0  0  0  0  0  0  0  0  0  0  0
   -5.4629   -8.7152   -4.8408 C   0  0  0  0  0  0  0  0  0  0  0  0
   -3.2382  -12.8563   -8.2021 C   0  0  0  0  0  0  0  0  0  0  0  0
   -2.0732  -13.8490   -8.2963 C   0  0  0  0  0  0  0  0  0  0  0  0
   -6.4402   -8.2153   -4.1225 N   0  0  0  0  0  0  0  0  0  0  0  0
   -7.6302   -8.7847   -4.0851 C   0  0  0  0  0  0  0  0  0  0  0  0
   -2.3613  -15.0751   -7.4232 C   0  0  0  0  0  0  0  0  0  0  0  0
   -1.8454  -14.8247   -6.0032 C   0  0  0  0  0  0  0  0  0  0  0  0
   -8.4194   -8.8652   -5.1993 N   0  0  0  0  0  0  0  0  0  0  0  0
   -8.0818   -9.3013   -2.9131 N   0  0  0  0  0  0  0  0  0  0  0  0
   -1.8479  -15.9472   -5.3240 N   0  0  0  0  0  0  0  0  0  0  0  0
   -0.7334  -16.6122   -5.0873 C   0  0  0  0  0  0  0  0  0  0  0  0
    0.3295  -15.9554   -4.5558 N   0  0  0  0  0  0  0  0  0  0  0  0
   -0.6207  -17.9431   -5.3738 N   0  0  0  0  0  0  0  0  0  0  0  0
   -2.8925   -9.0192   -6.0380 C   0  0  0  0  0  0  0  0  0  0  0  0
   -2.1284   -7.8728  -10.0818 O   0  0  0  0  0  0  0  0  0  0  0  0
   -3.3852   -9.8172   -7.1106 C   0  0  0  0  0  0  0  0  0  0  0  0
   -3.1223   -9.4380   -8.4543 C   0  0  0  0  0  0  0  0  0  0  0  0
   -2.3881   -8.2543   -8.7284 C   0  0  0  0  0  0  0  0  0  0  0  0
   -1.9130   -7.4475   -7.6596 C   0  0  0  0  0  0  0  0  0  0  0  0
   -2.1706   -7.8249   -6.3138 C   0  0  0  0  0  0  0  0  0  0  0  0
   -0.8731   -8.4163  -10.5004 C   0  0  0  0  0  0  0  0  0  0  0  0
  1  4  1  0  0  0  0
  2  3  1  0  0  0  0
  3  5  1  0  0  0  0
  4  6  1  0  0  0  0
  5  8  1  0  0  0  0
  6  7  1  0  0  0  0
  7 10  1  0  0  0  0
  8  9  1  0  0  0  0
  9 12  1  0  0  0  0
  9 13  1  0  0  0  0
 10 11  1  0  0  0  0
 11 14  1  0  0  0  0
 14 15  1  0  0  0  0
 15 16  1  0  0  0  0
 15 17  1  0  0  0  0
 18  2  1  0  0  0  0
 18 20  2  0  0  0  0
 18 24  1  0  0  0  0
 19 25  1  0  0  0  0
 20  1  1  0  0  0  0
 20 21  1  0  0  0  0
 21 22  2  0  0  0  0
 22 19  1  0  0  0  0
 22 23  1  0  0  0  0
 23 24  2  0  0  0  0
M  END
>  <CHROM.1>
-91.60631275,62.48382196,164.28203578,166.97990582,-142.36591015,68.13917505
-88.67482446,-64.59512389,-80.70556762,-49.58545673,-167.74951296,103.79213241
51.08223049,122.98017616,135.63024537,-105.99643468,-94.82914498,-91.84995788
-3.30228411,-11.12864729,-6.30434778,2.26645199,0.72474659,-0.47365623

>  <Name>
1uud_lig

>  <RI>
0

>  <Rbt.Current_Directory>
/home/itssahil/PROJECTS/Mol_Feturizer/New_Systems/rnas/1uud

>  <Rbt.Executable>
rbdock ($Id: //depot/dev/client3/rdock/2013.1/src/exe/rbdock.cxx#4 $)

>  <Rbt.Library>
libRbt.so (2013.1, Build901 2013/11/27)

>  <Rbt.Parameter_File>
/export/apps/rDock/src/rDock_2013.1_src/data/scripts/dock_solv.prm

>  <Rbt.Receptor>
prm/pocket_docking_8.prm

>  <SCORE>
-32.1041

>  <SCORE.INTER>
-25.1653

>  <SCORE.INTER.CONST>
1

>  <SCORE.INTER.POLAR>
-4.03855

>  <SCORE.INTER.ROT>
18

>  <SCORE.INTER.SOLV>
9.90227

>  <SCORE.INTER.VDW>
-22.2158

>  <SCORE.INTER.norm>
-1.00661

>  <SCORE.INTRA>
-6.93882

>  <SCORE.INTRA.DIHEDRAL>
-4.18476

>  <SCORE.INTRA.DIHEDRAL.0>
30.6762

>  <SCORE.INTRA.POLAR>
0.0288659

>  <SCORE.INTRA.POLAR.0>
-0.0288659

>  <SCORE.INTRA.REPUL>
0

>  <SCORE.INTRA.REPUL.0>
0

>  <SCORE.INTRA.SOLV>
-1.14321

>  <SCORE.INTRA.SOLV.lig_0>
-25.2195

>  <SCORE.INTRA.VDW>
-4.37298

>  <SCORE.INTRA.VDW.0>
4.14263

>  <SCORE.INTRA.norm>
-0.277553

>  <SCORE.RESTR>
0

>  <SCORE.RESTR.CAVITY>
0

>  <SCORE.RESTR.norm>
0

>  <SCORE.SYSTEM>
0

>  <SCORE.SYSTEM.CONST>
0

>  <SCORE.SYSTEM.DIHEDRAL>
0

>  <SCORE.SYSTEM.SOLV>
0

>  <SCORE.SYSTEM.norm>
0

>  <SCORE.heavy>
25

>  <SCORE.norm>
-1.28416

>  <RMSD>
6.893

$$$$
1uud_lig
 OpenBabel11021811413D
libRbt.so/2013.1/901 2013/11/27
 25 25  0  0  0  0  0  0  0  0999 V2000
   -3.6742  -10.3844   -1.6882 C   0  0  0  0  0  0  0  0  0  0  0  0
   -5.9912   -8.5920   -1.8352 O   0  0  0  0  0  0  0  0  0  0  0  0
   -7.0767   -9.5095   -1.6346 C   0  0  0  0  0  0  0  0  0  0  0  0
   -2.9420   -9.6647   -2.7597 N   0  0  0  0  0  0  0  0  0  0  0  0
   -7.5533  -10.0684   -2.9820 C   0  0  0  0  0  0  0  0  0  0  0  0
   -3.0854  -10.3932   -4.0424 C   0  0  0  0  0  0  0  0  0  0  0  0
   -2.3563  -11.7393   -3.9519 C   0  0  0  0  0  0  0  0  0  0  0  0
   -8.0383   -9.0994   -3.7213 N   0  0  0  0  0  0  0  0  0  0  0  0
   -7.3614   -8.6039   -4.7403 C   0  0  0  0  0  0  0  0  0  0  0  0
   -2.0392  -12.2559   -5.3595 C   0  0  0  0  0  0  0  0  0  0  0  0
   -3.2794  -12.9364   -5.9462 C   0  0  0  0  0  0  0  0  0  0  0  0
   -5.9942   -8.6289   -4.7699 N   0  0  0  0  0  0  0  0  0  0  0  0
   -8.0380   -8.0557   -5.7823 N   0  0  0  0  0  0  0  0  0  0  0  0
   -4.0237  -12.0499   -6.5638 N   0  0  0  0  0  0  0  0  0  0  0  0
   -3.9021  -11.8298   -7.8589 C   0  0  0  0  0  0  0  0  0  0  0  0
   -4.5759  -12.6226   -8.7314 N   0  0  0  0  0  0  0  0  0  0  0  0
   -3.1065  -10.8301   -8.3423 N   0  0  0  0  0  0  0  0  0  0  0  0
   -5.1629   -8.5460   -0.6663 C   0  0  0  0  0  0  0  0  0  0  0  0
   -2.7337   -8.4237    2.8458 O   0  0  0  0  0  0  0  0  0  0  0  0
   -4.0308   -9.4034   -0.5522 C   0  0  0  0  0  0  0  0  0  0  0  0
   -3.2297   -9.3665    0.6205 C   0  0  0  0  0  0  0  0  0  0  0  0
   -3.5441   -8.4616    1.6683 C   0  0  0  0  0  0  0  0  0  0  0  0
   -4.6616   -7.5925    1.5471 C   0  0  0  0  0  0  0  0  0  0  0  0
   -5.4679   -7.6284    0.3772 C   0  0  0  0  0  0  0  0  0  0  0  0
   -2.1332   -7.1315    2.9727 C   0  0  0  0  0  0  0  0  0  0  0  0
  1  4  1  0  0  0  0
  2  3  1  0  0  0  0
  3  5  1  0  0  0  0
  4  6  1  0  0  0  0
  5  8  1  0  0  0  0
  6  7  1  0  0  0  0
  7 10  1  0  0  0  0
  8  9  1  0  0  0  0
  9 12  1  0  0  0  0
  9 13  1  0  0  0  0
 10 11  1  0  0  0  0
 11 14  1  0  0  0  0
 14 15  1  0  0  0  0
 15 16  1  0  0  0  0
 15 17  1  0  0  0  0
 18  2  1  0  0  0  0
 18 20  2  0  0  0  0
 18 24  1  0  0  0  0
 19 25  1  0  0  0  0
 20  1  1  0  0  0  0
 20 21  1  0  0  0  0
 21 22  2  0  0  0  0
 22 19  1  0  0  0  0
 22 23  1  0  0  0  0
 23 24  2  0  0  0  0
M  END
>  <CHROM.1>
-156.65925241,-153.47278950,-63.85431248,-66.96209819,104.72746511,-158.90300385
-81.48795818,-27.61466596,147.75235865,47.89198348,88.30447075,93.57107555
84.96306426,-101.47001508,84.64576737,92.23294025,80.87185823,117.82206770
-4.57076609,-9.76178593,-2.99013634,-1.51675152,0.42135248,-1.96336583

>  <Name>
1uud_lig

>  <RI>
0

>  <Rbt.Current_Directory>
/home/itssahil/PROJECTS/Mol_Feturizer/New_Systems/rnas/1uud

>  <Rbt.Executable>
rbdock ($Id: //depot/dev/client3/rdock/2013.1/src/exe/rbdock.cxx#4 $)

>  <Rbt.Library>
libRbt.so (2013.1, Build901 2013/11/27)

>  <Rbt.Parameter_File>
/export/apps/rDock/src/rDock_2013.1_src/data/scripts/dock_solv.prm

>  <Rbt.Receptor>
prm/pocket_docking_6.prm

>  <SCORE>
-32.2817

>  <SCORE.INTER>
-24.2122

>  <SCORE.INTER.CONST>
1

>  <SCORE.INTER.POLAR>
-4.33022

>  <SCORE.INTER.ROT>
18

>  <SCORE.INTER.SOLV>
11.662

>  <SCORE.INTER.VDW>
-21.1947

>  <SCORE.INTER.norm>
-0.968488

>  <SCORE.INTRA>
-8.06948

>  <SCORE.INTRA.DIHEDRAL>
-1.67927

>  <SCORE.INTRA.DIHEDRAL.0>
30.6762

>  <SCORE.INTRA.POLAR>
-0.656909

>  <SCORE.INTRA.POLAR.0>
-0.0288659

>  <SCORE.INTRA.REPUL>
0

>  <SCORE.INTRA.REPUL.0>
0

>  <SCORE.INTRA.SOLV>
0.442021

>  <SCORE.INTRA.SOLV.lig_0>
-25.2195

>  <SCORE.INTRA.VDW>
-5.21737

>  <SCORE.INTRA.VDW.0>
4.14263

>  <SCORE.INTRA.norm>
-0.322779

>  <SCORE.RESTR>
0

>  <SCORE.RESTR.CAVITY>
0

>  <SCORE.RESTR.norm>
0

>  <SCORE.SYSTEM>
0

>  <SCORE.SYSTEM.CONST>
0

>  <SCORE.SYSTEM.DIHEDRAL>
0

>  <SCORE.SYSTEM.SOLV>
0

>  <SCORE.SYSTEM.norm>
0

>  <SCORE.heavy>
25

>  <SCORE.norm>
-1.29127

>  <RMSD>
6.902

$$$$
1uud_lig
 OpenBabel11021811413D
libRbt.so/2013.1/901 2013/11/27
 25 25  0  0  0  0  0  0  0  0999 V2000
   -3.2663   -8.4026   -6.1719 C   0  0  0  0  0  0  0  0  0  0  0  0
   -2.2535  -10.7734   -7.5706 O   0  0  0  0  0  0  0  0  0  0  0  0
   -3.5349  -10.8130   -8.2162 C   0  0  0  0  0  0  0  0  0  0  0  0
   -4.7413   -8.2893   -6.2876 N   0  0  0  0  0  0  0  0  0  0  0  0
   -4.0789  -12.2479   -8.2254 C   0  0  0  0  0  0  0  0  0  0  0  0
   -5.3308   -8.0262   -4.9534 C   0  0  0  0  0  0  0  0  0  0  0  0
   -6.1517   -9.2420   -4.5065 C   0  0  0  0  0  0  0  0  0  0  0  0
   -3.1595  -13.0715   -8.6697 N   0  0  0  0  0  0  0  0  0  0  0  0
   -3.2043  -14.3636   -8.4045 C   0  0  0  0  0  0  0  0  0  0  0  0
   -7.6065   -9.0846   -4.9621 C   0  0  0  0  0  0  0  0  0  0  0  0
   -8.4711   -8.6540   -3.7737 C   0  0  0  0  0  0  0  0  0  0  0  0
   -3.5561  -15.2774   -9.3594 N   0  0  0  0  0  0  0  0  0  0  0  0
   -2.8953  -14.7953   -7.1545 N   0  0  0  0  0  0  0  0  0  0  0  0
   -8.1110   -7.4584   -3.3710 N   0  0  0  0  0  0  0  0  0  0  0  0
   -9.0019   -6.5183   -3.1198 C   0  0  0  0  0  0  0  0  0  0  0  0
   -8.6001   -5.2224   -3.0670 N   0  0  0  0  0  0  0  0  0  0  0  0
  -10.3163   -6.8194   -2.9015 N   0  0  0  0  0  0  0  0  0  0  0  0
   -2.4168  -10.8354   -6.1479 C   0  0  0  0  0  0  0  0  0  0  0  0
   -2.8538  -11.0273   -1.9026 O   0  0  0  0  0  0  0  0  0  0  0  0
   -2.9010   -9.7045   -5.4291 C   0  0  0  0  0  0  0  0  0  0  0  0
   -3.0372   -9.7684   -4.0164 C   0  0  0  0  0  0  0  0  0  0  0  0
   -2.7118  -10.9643   -3.3240 C   0  0  0  0  0  0  0  0  0  0  0  0
   -2.2475  -12.0990   -4.0422 C   0  0  0  0  0  0  0  0  0  0  0  0
   -2.1062  -12.0384   -5.4551 C   0  0  0  0  0  0  0  0  0  0  0  0
   -1.7639  -10.3398   -1.2812 C   0  0  0  0  0  0  0  0  0  0  0  0
  1  4  1  0  0  0  0
  2  3  1  0  0  0  0
  3  5  1  0  0  0  0
  4  6  1  0  0  0  0
  5  8  1  0  0  0  0
  6  7  1  0  0  0  0
  7 10  1  0  0  0  0
  8  9  1  0  0  0  0
  9 12  1  0  0  0  0
  9 13  1  0  0  0  0
 10 11  1  0  0  0  0
 11 14  1  0  0  0  0
 14 15  1  0  0  0  0
 15 16  1  0  0  0  0
 15 17  1  0  0  0  0
 18  2  1  0  0  0  0
 18 20  2  0  0  0  0
 18 24  1  0  0  0  0
 19 25  1  0  0  0  0
 20  1  1  0  0  0  0
 20 21  1  0  0  0  0
 21 22  2  0  0  0  0
 22 19  1  0  0  0  0
 22 23  1  0  0  0  0
 23 24  2  0  0  0  0
M  END
>  <CHROM.1>
69.95171989,-77.32987957,-49.46695222,-112.23700098,158.98316772,-90.93469534
-102.49771625,106.17288792,143.26032213,-64.14794578,65.21780913,133.49077403
-162.03316274,34.80946289,-126.03404486,-73.65815831,103.39221196,-76.86182293
-4.62923789,-10.22169437,-5.30443524,-2.32274073,0.51194016,-2.11716686

>  <Name>
1uud_lig

>  <RI>
0

>  <Rbt.Current_Directory>
/home/itssahil/PROJECTS/Mol_Feturizer/New_Systems/rnas/1uud

>  <Rbt.Executable>
rbdock ($Id: //depot/dev/client3/rdock/2013.1/src/exe/rbdock.cxx#4 $)

>  <Rbt.Library>
libRbt.so (2013.1, Build901 2013/11/27)

>  <Rbt.Parameter_File>
/export/apps/rDock/src/rDock_2013.1_src/data/scripts/dock_solv.prm

>  <Rbt.Receptor>
prm/pocket_docking_4.prm

>  <SCORE>
-22.8979

>  <SCORE.INTER>
-20.4647

>  <SCORE.INTER.CONST>
1

>  <SCORE.INTER.POLAR>
-3.21812

>  <SCORE.INTER.ROT>
18

>  <SCORE.INTER.SOLV>
11.0335

>  <SCORE.INTER.VDW>
-22.1939

>  <SCORE.INTER.norm>
-0.818588

>  <SCORE.INTRA>
-2.43315

>  <SCORE.INTRA.DIHEDRAL>
2.00353

>  <SCORE.INTRA.DIHEDRAL.0>
30.6762

>  <SCORE.INTRA.POLAR>
0.0288659

>  <SCORE.INTRA.POLAR.0>
-0.0288659

>  <SCORE.INTRA.REPUL>
0

>  <SCORE.INTRA.REPUL.0>
0

>  <SCORE.INTRA.SOLV>
-0.140317

>  <SCORE.INTRA.SOLV.lig_0>
-25.2195

>  <SCORE.INTRA.VDW>
-3.4629

>  <SCORE.INTRA.VDW.0>
4.14263

>  <SCORE.INTRA.norm>
-0.0973261

>  <SCORE.RESTR>
0

>  <SCORE.RESTR.CAVITY>
0

>  <SCORE.RESTR.norm>
0

>  <SCORE.SYSTEM>
0

>  <SCORE.SYSTEM.CONST>
0

>  <SCORE.SYSTEM.DIHEDRAL>
0

>  <SCORE.SYSTEM.SOLV>
0

>  <SCORE.SYSTEM.norm>
0

>  <SCORE.heavy>
25

>  <SCORE.norm>
-0.915914

>  <RMSD>
6.924

$$$$
1uud_lig
 OpenBabel11021811413D
libRbt.so/2013.1/901 2013/11/27
 25 25  0  0  0  0  0  0  0  0999 V2000
   -3.9135   -9.4658   -6.9042 C   0  0  0  0  0  0  0  0  0  0  0  0
   -4.0197  -10.1635   -4.0574 O   0  0  0  0  0  0  0  0  0  0  0  0
   -5.1531  -10.5550   -3.2685 C   0  0  0  0  0  0  0  0  0  0  0  0
   -3.2478   -8.4833   -6.0134 N   0  0  0  0  0  0  0  0  0  0  0  0
   -6.4421  -10.4209   -4.0907 C   0  0  0  0  0  0  0  0  0  0  0  0
   -3.7835   -7.1261   -6.2738 C   0  0  0  0  0  0  0  0  0  0  0  0
   -4.8908   -6.8089   -5.2614 C   0  0  0  0  0  0  0  0  0  0  0  0
   -6.8759   -9.1838   -4.0428 N   0  0  0  0  0  0  0  0  0  0  0  0
   -8.0707   -8.8536   -4.4958 C   0  0  0  0  0  0  0  0  0  0  0  0
   -5.4359   -5.3983   -5.5102 C   0  0  0  0  0  0  0  0  0  0  0  0
   -4.3548   -4.3659   -5.1774 C   0  0  0  0  0  0  0  0  0  0  0  0
   -9.2029   -9.0937   -3.7669 N   0  0  0  0  0  0  0  0  0  0  0  0
   -8.1783   -8.2632   -5.7140 N   0  0  0  0  0  0  0  0  0  0  0  0
   -4.0400   -4.4445   -3.9062 N   0  0  0  0  0  0  0  0  0  0  0  0
   -2.9198   -5.0160   -3.5075 C   0  0  0  0  0  0  0  0  0  0  0  0
   -1.7484   -4.6564   -4.0924 N   0  0  0  0  0  0  0  0  0  0  0  0
   -2.9124   -5.9678   -2.5277 N   0  0  0  0  0  0  0  0  0  0  0  0
   -3.6990  -11.1919   -5.0029 C   0  0  0  0  0  0  0  0  0  0  0  0
   -2.7850  -14.2821   -7.8075 O   0  0  0  0  0  0  0  0  0  0  0  0
   -3.6420  -10.8968   -6.3956 C   0  0  0  0  0  0  0  0  0  0  0  0
   -3.3462  -11.9283   -7.3266 C   0  0  0  0  0  0  0  0  0  0  0  0
   -3.0866  -13.2467   -6.8686 C   0  0  0  0  0  0  0  0  0  0  0  0
   -3.1239  -13.5377   -5.4783 C   0  0  0  0  0  0  0  0  0  0  0  0
   -3.4230  -12.5097   -4.5435 C   0  0  0  0  0  0  0  0  0  0  0  0
   -3.8433  -14.3842   -8.7646 C   0  0  0  0  0  0  0  0  0  0  0  0
  1  4  1  0  0  0  0
  2  3  1  0  0  0  0
  3  5  1  0  0  0  0
  4  6  1  0  0  0  0
  5  8  1  0  0  0  0
  6  7  1  0  0  0  0
  7 10  1  0  0  0  0
  8  9  1  0  0  0  0
  9 12  1  0  0  0  0
  9 13  1  0  0  0  0
 10 11  1  0  0  0  0
 11 14  1  0  0  0  0
 14 15  1  0  0  0  0
 15 16  1  0  0  0  0
 15 17  1  0  0  0  0
 18  2  1  0  0  0  0
 18 20  2  0  0  0  0
 18 24  1  0  0  0  0
 19 25  1  0  0  0  0
 20  1  1  0  0  0  0
 20 21  1  0  0  0  0
 21 22  2  0  0  0  0
 22 19  1  0  0  0  0
 22 23  1  0  0  0  0
 23 24  2  0  0  0  0
M  END
>  <CHROM.1>
-165.26662597,-75.46292079,-83.91820430,96.21658104,-169.48129978,179.14641134
-67.40917398,78.44896113,40.47272285,55.22241395,-62.36668756,104.12488626
49.73417788,-103.03065267,-129.55249710,123.87267817,42.00497697,-56.37566709
-4.51248230,-9.12898666,-5.20273775,-1.48986768,0.23559365,0.30124417

>  <Name>
1uud_lig

>  <RI>
0

>  <Rbt.Current_Directory>
/home/itssahil/PROJECTS/Mol_Feturizer/New_Systems/rnas/1uud

>  <Rbt.Executable>
rbdock ($Id: //depot/dev/client3/rdock/2013.1/src/exe/rbdock.cxx#4 $)

>  <Rbt.Library>
libRbt.so (2013.1, Build901 2013/11/27)

>  <Rbt.Parameter_File>
/export/apps/rDock/src/rDock_2013.1_src/data/scripts/dock_solv.prm

>  <Rbt.Receptor>
prm/pocket_docking_5.prm

>  <SCORE>
-26.228

>  <SCORE.INTER>
-16.619

>  <SCORE.INTER.CONST>
1

>  <SCORE.INTER.POLAR>
-3.17423

>  <SCORE.INTER.ROT>
18

>  <SCORE.INTER.SOLV>
9.82467

>  <SCORE.INTER.VDW>
-19.3735

>  <SCORE.INTER.norm>
-0.664761

>  <SCORE.INTRA>
-9.60901

>  <SCORE.INTRA.DIHEDRAL>
-7.50744

>  <SCORE.INTRA.DIHEDRAL.0>
30.6762

>  <SCORE.INTRA.POLAR>
-0.753193

>  <SCORE.INTRA.POLAR.0>
-0.0288659

>  <SCORE.INTRA.REPUL>
0

>  <SCORE.INTRA.REPUL.0>
0

>  <SCORE.INTRA.SOLV>
0.805603

>  <SCORE.INTRA.SOLV.lig_0>
-25.2195

>  <SCORE.INTRA.VDW>
-3.69724

>  <SCORE.INTRA.VDW.0>
4.14263

>  <SCORE.INTRA.norm>
-0.384361

>  <SCORE.RESTR>
0

>  <SCORE.RESTR.CAVITY>
0

>  <SCORE.RESTR.norm>
0

>  <SCORE.SYSTEM>
0

>  <SCORE.SYSTEM.CONST>
0

>  <SCORE.SYSTEM.DIHEDRAL>
0

>  <SCORE.SYSTEM.SOLV>
0

>  <SCORE.SYSTEM.norm>
0

>  <SCORE.heavy>
25

>  <SCORE.norm>
-1.04912

>  <RMSD>
6.949

$$$$
1uud_lig
 OpenBabel11021811413D
libRbt.so/2013.1/901 2013/11/27
 25 25  0  0  0  0  0  0  0  0999 V2000
   -4.0642   -7.9108   -1.3956 C   0  0  0  0  0  0  0  0  0  0  0  0
   -1.6116   -9.2641   -2.2650 O   0  0  0  0  0  0  0  0  0  0  0  0
   -2.5401  -10.2753   -2.6840 C   0  0  0  0  0  0  0  0  0  0  0  0
   -5.1321   -7.1763   -0.6730 N   0  0  0  0  0  0  0  0  0  0  0  0
   -2.2270  -10.7196   -4.1192 C   0  0  0  0  0  0  0  0  0  0  0  0
   -5.9303   -8.1234    0.1410 C   0  0  0  0  0  0  0  0  0  0  0  0
   -7.2008   -8.5130   -0.6242 C   0  0  0  0  0  0  0  0  0  0  0  0
   -3.2111  -11.4510   -4.5853 N   0  0  0  0  0  0  0  0  0  0  0  0
   -3.3273  -12.7290   -4.2765 C   0  0  0  0  0  0  0  0  0  0  0  0
   -6.8619   -9.5435   -1.7067 C   0  0  0  0  0  0  0  0  0  0  0  0
   -7.0210   -8.9045   -3.0893 C   0  0  0  0  0  0  0  0  0  0  0  0
   -2.2348  -13.5484   -4.2021 N   0  0  0  0  0  0  0  0  0  0  0  0
   -4.5600  -13.2420   -4.0285 N   0  0  0  0  0  0  0  0  0  0  0  0
   -8.2513   -8.4756   -3.2428 N   0  0  0  0  0  0  0  0  0  0  0  0
   -8.5291   -7.1876   -3.3091 C   0  0  0  0  0  0  0  0  0  0  0  0
   -9.3192   -6.6306   -2.3556 N   0  0  0  0  0  0  0  0  0  0  0  0
   -8.0489   -6.4041   -4.3198 N   0  0  0  0  0  0  0  0  0  0  0  0
   -1.7826   -8.9866   -0.8692 C   0  0  0  0  0  0  0  0  0  0  0  0
   -2.2515   -8.1297    3.2897 O   0  0  0  0  0  0  0  0  0  0  0  0
   -2.9567   -8.3262   -0.4052 C   0  0  0  0  0  0  0  0  0  0  0  0
   -3.1060   -8.0350    0.9773 C   0  0  0  0  0  0  0  0  0  0  0  0
   -2.0967   -8.4204    1.8983 C   0  0  0  0  0  0  0  0  0  0  0  0
   -0.9344   -9.0964    1.4391 C   0  0  0  0  0  0  0  0  0  0  0  0
   -0.7791   -9.3867    0.0564 C   0  0  0  0  0  0  0  0  0  0  0  0
   -2.0578   -6.7297    3.5112 C   0  0  0  0  0  0  0  0  0  0  0  0
  1  4  1  0  0  0  0
  2  3  1  0  0  0  0
  3  5  1  0  0  0  0
  4  6  1  0  0  0  0
  5  8  1  0  0  0  0
  6  7  1  0  0  0  0
  7 10  1  0  0  0  0
  8  9  1  0  0  0  0
  9 12  1  0  0  0  0
  9 13  1  0  0  0  0
 10 11  1  0  0  0  0
 11 14  1  0  0  0  0
 14 15  1  0  0  0  0
 15 16  1  0  0  0  0
 15 17  1  0  0  0  0
 18  2  1  0  0  0  0
 18 20  2  0  0  0  0
 18 24  1  0  0  0  0
 19 25  1  0  0  0  0
 20  1  1  0  0  0  0
 20 21  1  0  0  0  0
 21 22  2  0  0  0  0
 22 19  1  0  0  0  0
 22 23  1  0  0  0  0
 23 24  2  0  0  0  0
M  END
>  <CHROM.1>
-73.44556227,-171.83243308,-168.36853247,-97.40229980,-80.34101993,77.54954876
-110.95531115,-39.88093262,-126.86770851,14.29433637,-58.88964029,111.75453789
-117.42504115,154.82389597,-88.55264311,-69.41209065,-176.72681715,-73.18532735
-4.31472386,-9.09412935,-1.53336631,0.47022977,-0.46657176,0.90631656

>  <Name>
1uud_lig

>  <RI>
0

>  <Rbt.Current_Directory>
/home/itssahil/PROJECTS/Mol_Feturizer/New_Systems/rnas/1uud

>  <Rbt.Executable>
rbdock ($Id: //depot/dev/client3/rdock/2013.1/src/exe/rbdock.cxx#4 $)

>  <Rbt.Library>
libRbt.so (2013.1, Build901 2013/11/27)

>  <Rbt.Parameter_File>
/export/apps/rDock/src/rDock_2013.1_src/data/scripts/dock_solv.prm

>  <Rbt.Receptor>
prm/pocket_docking_6.prm

>  <SCORE>
-16.2323

>  <SCORE.INTER>
-12.6551

>  <SCORE.INTER.CONST>
1

>  <SCORE.INTER.POLAR>
-3.17332

>  <SCORE.INTER.ROT>
18

>  <SCORE.INTER.SOLV>
9.30283

>  <SCORE.INTER.VDW>
-16.5599

>  <SCORE.INTER.norm>
-0.506202

>  <SCORE.INTRA>
-3.57722

>  <SCORE.INTRA.DIHEDRAL>
-1.13178

>  <SCORE.INTRA.DIHEDRAL.0>
30.6762

>  <SCORE.INTRA.POLAR>
0.0288659

>  <SCORE.INTRA.POLAR.0>
-0.0288659

>  <SCORE.INTRA.REPUL>
0

>  <SCORE.INTRA.REPUL.0>
0

>  <SCORE.INTRA.SOLV>
-0.541602

>  <SCORE.INTRA.SOLV.lig_0>
-25.2195

>  <SCORE.INTRA.VDW>
-2.83867

>  <SCORE.INTRA.VDW.0>
4.14263

>  <SCORE.INTRA.norm>
-0.143089

>  <SCORE.RESTR>
0

>  <SCORE.RESTR.CAVITY>
0

>  <SCORE.RESTR.norm>
0

>  <SCORE.SYSTEM>
0

>  <SCORE.SYSTEM.CONST>
0

>  <SCORE.SYSTEM.DIHEDRAL>
0

>  <SCORE.SYSTEM.SOLV>
0

>  <SCORE.SYSTEM.norm>
0

>  <SCORE.heavy>
25

>  <SCORE.norm>
-0.649291

>  <RMSD>
6.955

$$$$
1uud_lig
 OpenBabel11021811413D
libRbt.so/2013.1/901 2013/11/27
 25 25  0  0  0  0  0  0  0  0999 V2000
   -2.9033   -7.7858   -3.2153 C   0  0  0  0  0  0  0  0  0  0  0  0
   -2.1839   -8.9934   -0.6411 O   0  0  0  0  0  0  0  0  0  0  0  0
   -2.0376   -8.5002    0.6989 C   0  0  0  0  0  0  0  0  0  0  0  0
   -2.3211   -8.8556   -4.0630 N   0  0  0  0  0  0  0  0  0  0  0  0
   -0.5528   -8.4435    1.0830 C   0  0  0  0  0  0  0  0  0  0  0  0
   -3.2406   -9.1643   -5.1837 C   0  0  0  0  0  0  0  0  0  0  0  0
   -2.6262  -10.2591   -6.0644 C   0  0  0  0  0  0  0  0  0  0  0  0
   -0.0393   -9.6504    1.0611 N   0  0  0  0  0  0  0  0  0  0  0  0
    1.2074   -9.8631    0.6838 C   0  0  0  0  0  0  0  0  0  0  0  0
   -3.5865  -10.6093   -7.2063 C   0  0  0  0  0  0  0  0  0  0  0  0
   -2.9890  -11.7403   -8.0485 C   0  0  0  0  0  0  0  0  0  0  0  0
    1.7841   -9.1359   -0.3209 N   0  0  0  0  0  0  0  0  0  0  0  0
    1.9337  -10.8270    1.3065 N   0  0  0  0  0  0  0  0  0  0  0  0
   -3.0038  -12.8601   -7.3652 N   0  0  0  0  0  0  0  0  0  0  0  0
   -3.6219  -13.9348   -7.8162 C   0  0  0  0  0  0  0  0  0  0  0  0
   -3.2073  -15.1598   -7.4025 N   0  0  0  0  0  0  0  0  0  0  0  0
   -4.6620  -13.8442   -8.6971 N   0  0  0  0  0  0  0  0  0  0  0  0
   -3.5646   -8.9723   -1.0255 C   0  0  0  0  0  0  0  0  0  0  0  0
   -7.6901   -8.8800   -2.1311 O   0  0  0  0  0  0  0  0  0  0  0  0
   -3.9577   -8.3905   -2.2652 C   0  0  0  0  0  0  0  0  0  0  0  0
   -5.3312   -8.3537   -2.6264 C   0  0  0  0  0  0  0  0  0  0  0  0
   -6.3088   -8.9148   -1.7633 C   0  0  0  0  0  0  0  0  0  0  0  0
   -5.9157   -9.5126   -0.5357 C   0  0  0  0  0  0  0  0  0  0  0  0
   -4.5431   -9.5485   -0.1686 C   0  0  0  0  0  0  0  0  0  0  0  0
   -8.0459  -10.1076   -2.7738 C   0  0  0  0  0  0  0  0  0  0  0  0
  1  4  1  0  0  0  0
  2  3  1  0  0  0  0
  3  5  1  0  0  0  0
  4  6  1  0  0  0  0
  5  8  1  0  0  0  0
  6  7  1  0  0  0  0
  7 10  1  0  0  0  0
  8  9  1  0  0  0  0
  9 12  1  0  0  0  0
  9 13  1  0  0  0  0
 10 11  1  0  0  0  0
 11 14  1  0  0  0  0
 14 15  1  0  0  0  0
 15 16  1  0  0  0  0
 15 17  1  0  0  0  0
 18  2  1  0  0  0  0
 18 20  2  0  0  0  0
 18 24  1  0  0  0  0
 19 25  1  0  0  0  0
 20  1  1  0  0  0  0
 20 21  1  0  0  0  0
 21 22  2  0  0  0  0
 22 19  1  0  0  0  0
 22 23  1  0  0  0  0
 23 24  2  0  0  0  0
M  END
>  <CHROM.1>
79.97579313,-176.65166934,-62.37041122,179.37061899,145.22365626,178.58758128
-177.83360377,-36.38255467,176.70638126,-1.15457998,70.26264880,122.37512257
154.25872187,77.93213116,26.34295397,130.52306239,84.57617580,94.92349099
-3.03401491,-10.15425119,-3.01841106,1.19794349,-0.24113256,1.06149268

>  <Name>
1uud_lig

>  <RI>
0

>  <Rbt.Current_Directory>
/home/itssahil/PROJECTS/Mol_Feturizer/New_Systems/rnas/1uud

>  <Rbt.Executable>
rbdock ($Id: //depot/dev/client3/rdock/2013.1/src/exe/rbdock.cxx#4 $)

>  <Rbt.Library>
libRbt.so (2013.1, Build901 2013/11/27)

>  <Rbt.Parameter_File>
/export/apps/rDock/src/rDock_2013.1_src/data/scripts/dock_solv.prm

>  <Rbt.Receptor>
prm/pocket_docking_4.prm

>  <SCORE>
-28.8116

>  <SCORE.INTER>
-19.5983

>  <SCORE.INTER.CONST>
1

>  <SCORE.INTER.POLAR>
-2.96188

>  <SCORE.INTER.ROT>
18

>  <SCORE.INTER.SOLV>
10.6182

>  <SCORE.INTER.VDW>
-22.332

>  <SCORE.INTER.norm>
-0.783934

>  <SCORE.INTRA>
-9.21323

>  <SCORE.INTRA.DIHEDRAL>
-11.4358

>  <SCORE.INTRA.DIHEDRAL.0>
30.6762

>  <SCORE.INTRA.POLAR>
0.0288659

>  <SCORE.INTRA.POLAR.0>
-0.0288659

>  <SCORE.INTRA.REPUL>
0

>  <SCORE.INTRA.REPUL.0>
0

>  <SCORE.INTRA.SOLV>
-0.937182

>  <SCORE.INTRA.SOLV.lig_0>
-25.2195

>  <SCORE.INTRA.VDW>
-3.1249

>  <SCORE.INTRA.VDW.0>
4.14263

>  <SCORE.INTRA.norm>
-0.368529

>  <SCORE.RESTR>
0

>  <SCORE.RESTR.CAVITY>
0

>  <SCORE.RESTR.norm>
0

>  <SCORE.SYSTEM>
0

>  <SCORE.SYSTEM.CONST>
0

>  <SCORE.SYSTEM.DIHEDRAL>
0

>  <SCORE.SYSTEM.SOLV>
0

>  <SCORE.SYSTEM.norm>
0

>  <SCORE.heavy>
25

>  <SCORE.norm>
-1.15246

>  <RMSD>
6.971

$$$$
1uud_lig
 OpenBabel11021811413D
libRbt.so/2013.1/901 2013/11/27
 25 25  0  0  0  0  0  0  0  0999 V2000
   -5.2916  -11.1430   -4.2029 C   0  0  0  0  0  0  0  0  0  0  0  0
   -2.4373  -11.7784   -4.4295 O   0  0  0  0  0  0  0  0  0  0  0  0
   -2.8056  -13.1628   -4.3391 C   0  0  0  0  0  0  0  0  0  0  0  0
   -6.3315  -10.0916   -4.3269 N   0  0  0  0  0  0  0  0  0  0  0  0
   -2.1016  -13.9708   -5.4376 C   0  0  0  0  0  0  0  0  0  0  0  0
   -7.4344  -10.3615   -3.3742 C   0  0  0  0  0  0  0  0  0  0  0  0
   -7.8157   -9.0644   -2.6504 C   0  0  0  0  0  0  0  0  0  0  0  0
   -0.8055  -13.9653   -5.2352 N   0  0  0  0  0  0  0  0  0  0  0  0
   -0.0089  -13.1382   -5.8858 C   0  0  0  0  0  0  0  0  0  0  0  0
   -8.3028   -8.0249   -3.6657 C   0  0  0  0  0  0  0  0  0  0  0  0
   -8.6930   -6.7379   -2.9332 C   0  0  0  0  0  0  0  0  0  0  0  0
    0.5761  -12.0706   -5.2623 N   0  0  0  0  0  0  0  0  0  0  0  0
    0.2341  -13.3514   -7.2048 N   0  0  0  0  0  0  0  0  0  0  0  0
   -8.9730   -5.7972   -3.8038 N   0  0  0  0  0  0  0  0  0  0  0  0
   -8.4265   -4.5992   -3.7240 C   0  0  0  0  0  0  0  0  0  0  0  0
   -8.8977   -3.7161   -2.8064 N   0  0  0  0  0  0  0  0  0  0  0  0
   -7.4050   -4.2232   -4.5495 N   0  0  0  0  0  0  0  0  0  0  0  0
   -2.8912  -11.0713   -3.2684 C   0  0  0  0  0  0  0  0  0  0  0  0
   -4.2155   -8.9243    0.1794 O   0  0  0  0  0  0  0  0  0  0  0  0
   -4.2687  -10.7383   -3.1213 C   0  0  0  0  0  0  0  0  0  0  0  0
   -4.7048  -10.0168   -1.9777 C   0  0  0  0  0  0  0  0  0  0  0  0
   -3.7732   -9.6468   -0.9725 C   0  0  0  0  0  0  0  0  0  0  0  0
   -2.4025   -9.9955   -1.1089 C   0  0  0  0  0  0  0  0  0  0  0  0
   -1.9612  -10.7141   -2.2530 C   0  0  0  0  0  0  0  0  0  0  0  0
   -4.7253   -7.6491   -0.2213 C   0  0  0  0  0  0  0  0  0  0  0  0
  1  4  1  0  0  0  0
  2  3  1  0  0  0  0
  3  5  1  0  0  0  0
  4  6  1  0  0  0  0
  5  8  1  0  0  0  0
  6  7  1  0  0  0  0
  7 10  1  0  0  0  0
  8  9  1  0  0  0  0
  9 12  1  0  0  0  0
  9 13  1  0  0  0  0
 10 11  1  0  0  0  0
 11 14  1  0  0  0  0
 14 15  1  0  0  0  0
 15 16  1  0  0  0  0
 15 17  1  0  0  0  0
 18  2  1  0  0  0  0
 18 20  2  0  0  0  0
 18 24  1  0  0  0  0
 19 25  1  0  0  0  0
 20  1  1  0  0  0  0
 20 21  1  0  0  0  0
 21 22  2  0  0  0  0
 22 19  1  0  0  0  0
 22 23  1  0  0  0  0
 23 24  2  0  0  0  0
M  END
>  <CHROM.1>
-88.46201918,-169.38433315,65.54590365,134.43822794,-98.73415590,61.22846241
179.50059348,107.86817466,-82.50408811,146.24493297,173.23250775,-129.41473971
-77.35523932,-28.96880723,34.51619931,-75.51846156,-144.85260279,-63.28358595
-4.56597935,-9.71351199,-3.51053287,0.43234083,0.68797679,-1.92271533

>  <Name>
1uud_lig

>  <RI>
0

>  <Rbt.Current_Directory>
/home/itssahil/PROJECTS/Mol_Feturizer/New_Systems/rnas/1uud

>  <Rbt.Executable>
rbdock ($Id: //depot/dev/client3/rdock/2013.1/src/exe/rbdock.cxx#4 $)

>  <Rbt.Library>
libRbt.so (2013.1, Build901 2013/11/27)

>  <Rbt.Parameter_File>
/export/apps/rDock/src/rDock_2013.1_src/data/scripts/dock_solv.prm

>  <Rbt.Receptor>
prm/pocket_docking_6.prm

>  <SCORE>
-15.5647

>  <SCORE.INTER>
-7.57687

>  <SCORE.INTER.CONST>
1

>  <SCORE.INTER.POLAR>
-1.64638

>  <SCORE.INTER.ROT>
18

>  <SCORE.INTER.SOLV>
5.5975

>  <SCORE.INTER.VDW>
-17.0292

>  <SCORE.INTER.norm>
-0.303075

>  <SCORE.INTRA>
-7.98781

>  <SCORE.INTRA.DIHEDRAL>
-6.43165

>  <SCORE.INTRA.DIHEDRAL.0>
30.6762

>  <SCORE.INTRA.POLAR>
0.0288659

>  <SCORE.INTRA.POLAR.0>
-0.0288659

>  <SCORE.INTRA.REPUL>
0

>  <SCORE.INTRA.REPUL.0>
0

>  <SCORE.INTRA.SOLV>
-0.685209

>  <SCORE.INTRA.SOLV.lig_0>
-25.2195

>  <SCORE.INTRA.VDW>
-4.52752

>  <SCORE.INTRA.VDW.0>
4.14263

>  <SCORE.INTRA.norm>
-0.319512

>  <SCORE.RESTR>
0

>  <SCORE.RESTR.CAVITY>
0

>  <SCORE.RESTR.norm>
0

>  <SCORE.SYSTEM>
0

>  <SCORE.SYSTEM.CONST>
0

>  <SCORE.SYSTEM.DIHEDRAL>
0

>  <SCORE.SYSTEM.SOLV>
0

>  <SCORE.SYSTEM.norm>
0

>  <SCORE.heavy>
25

>  <SCORE.norm>
-0.622587

>  <RMSD>
6.979

$$$$
1uud_lig
 OpenBabel11021811413D
libRbt.so/2013.1/901 2013/11/27
 25 25  0  0  0  0  0  0  0  0999 V2000
   -2.7115   -7.1137   -2.9307 C   0  0  0  0  0  0  0  0  0  0  0  0
   -5.6014   -6.6265   -2.8142 O   0  0  0  0  0  0  0  0  0  0  0  0
   -5.1791   -5.5883   -3.7109 C   0  0  0  0  0  0  0  0  0  0  0  0
   -2.3060   -8.5410   -2.9506 N   0  0  0  0  0  0  0  0  0  0  0  0
   -6.2065   -5.4111   -4.8370 C   0  0  0  0  0  0  0  0  0  0  0  0
   -2.2346   -9.0232   -4.3503 C   0  0  0  0  0  0  0  0  0  0  0  0
   -2.5945  -10.5131   -4.3985 C   0  0  0  0  0  0  0  0  0  0  0  0
   -6.3745   -6.5470   -5.4714 N   0  0  0  0  0  0  0  0  0  0  0  0
   -7.3243   -7.3960   -5.1265 C   0  0  0  0  0  0  0  0  0  0  0  0
   -2.8769  -10.9345   -5.8446 C   0  0  0  0  0  0  0  0  0  0  0  0
   -3.4156  -12.3679   -5.8639 C   0  0  0  0  0  0  0  0  0  0  0  0
   -8.0470   -7.2317   -3.9770 N   0  0  0  0  0  0  0  0  0  0  0  0
   -7.5889   -8.4578   -5.9308 N   0  0  0  0  0  0  0  0  0  0  0  0
   -3.8122  -12.6784   -7.0754 N   0  0  0  0  0  0  0  0  0  0  0  0
   -3.6581  -13.8955   -7.5604 C   0  0  0  0  0  0  0  0  0  0  0  0
   -4.2211  -14.2082   -8.7558 N   0  0  0  0  0  0  0  0  0  0  0  0
   -2.9544  -14.8508   -6.8834 N   0  0  0  0  0  0  0  0  0  0  0  0
   -4.8467   -6.5631   -1.5973 C   0  0  0  0  0  0  0  0  0  0  0  0
   -2.6241   -6.4131    2.0480 O   0  0  0  0  0  0  0  0  0  0  0  0
   -3.4416   -6.7985   -1.6086 C   0  0  0  0  0  0  0  0  0  0  0  0
   -2.7065   -6.7563   -0.3937 C   0  0  0  0  0  0  0  0  0  0  0  0
   -3.3671   -6.4590    0.8272 C   0  0  0  0  0  0  0  0  0  0  0  0
   -4.7651   -6.2049    0.8368 C   0  0  0  0  0  0  0  0  0  0  0  0
   -5.5051   -6.2496   -0.3758 C   0  0  0  0  0  0  0  0  0  0  0  0
   -1.9960   -7.6783    2.2746 C   0  0  0  0  0  0  0  0  0  0  0  0
  1  4  1  0  0  0  0
  2  3  1  0  0  0  0
  3  5  1  0  0  0  0
  4  6  1  0  0  0  0
  5  8  1  0  0  0  0
  6  7  1  0  0  0  0
  7 10  1  0  0  0  0
  8  9  1  0  0  0  0
  9 12  1  0  0  0  0
  9 13  1  0  0  0  0
 10 11  1  0  0  0  0
 11 14  1  0  0  0  0
 14 15  1  0  0  0  0
 15 16  1  0  0  0  0
 15 17  1  0  0  0  0
 18  2  1  0  0  0  0
 18 20  2  0  0  0  0
 18 24  1  0  0  0  0
 19 25  1  0  0  0  0
 20  1  1  0  0  0  0
 20 21  1  0  0  0  0
 21 22  2  0  0  0  0
 22 19  1  0  0  0  0
 22 23  1  0  0  0  0
 23 24  2  0  0  0  0
M  END
>  <CHROM.1>
152.30308711,-165.10767129,-57.09957326,-148.68180962,92.69371755,165.48944206
-172.46931833,-9.87865141,126.92161715,-66.04299380,172.35443506,144.10832546
172.45452785,-84.31713843,-92.52881364,-64.47860308,-108.49643919,-58.99586404
-4.27184330,-8.66405707,-3.54667085,-1.58940162,0.70997962,-2.31383461

>  <Name>
1uud_lig

>  <RI>
0

>  <Rbt.Current_Directory>
/home/itssahil/PROJECTS/Mol_Feturizer/New_Systems/rnas/1uud

>  <Rbt.Executable>
rbdock ($Id: //depot/dev/client3/rdock/2013.1/src/exe/rbdock.cxx#4 $)

>  <Rbt.Library>
libRbt.so (2013.1, Build901 2013/11/27)

>  <Rbt.Parameter_File>
/export/apps/rDock/src/rDock_2013.1_src/data/scripts/dock_solv.prm

>  <Rbt.Receptor>
prm/pocket_docking_4.prm

>  <SCORE>
-22.6893

>  <SCORE.INTER>
-14.6643

>  <SCORE.INTER.CONST>
1

>  <SCORE.INTER.POLAR>
-4.69383

>  <SCORE.INTER.ROT>
18

>  <SCORE.INTER.SOLV>
11.5231

>  <SCORE.INTER.VDW>
-13.5711

>  <SCORE.INTER.norm>
-0.586573

>  <SCORE.INTRA>
-8.03033

>  <SCORE.INTRA.DIHEDRAL>
-7.11463

>  <SCORE.INTRA.DIHEDRAL.0>
30.6762

>  <SCORE.INTRA.POLAR>
-0.525951

>  <SCORE.INTRA.POLAR.0>
-0.0288659

>  <SCORE.INTRA.REPUL>
0

>  <SCORE.INTRA.REPUL.0>
0

>  <SCORE.INTRA.SOLV>
-0.567099

>  <SCORE.INTRA.SOLV.lig_0>
-25.2195

>  <SCORE.INTRA.VDW>
-2.40123

>  <SCORE.INTRA.VDW.0>
4.14263

>  <SCORE.INTRA.norm>
-0.321213

>  <SCORE.RESTR>
0.00536722

>  <SCORE.RESTR.CAVITY>
0.00536722

>  <SCORE.RESTR.norm>
0.000214689

>  <SCORE.SYSTEM>
0

>  <SCORE.SYSTEM.CONST>
0

>  <SCORE.SYSTEM.DIHEDRAL>
0

>  <SCORE.SYSTEM.SOLV>
0

>  <SCORE.SYSTEM.norm>
0

>  <SCORE.heavy>
25

>  <SCORE.norm>
-0.907571

>  <RMSD>
6.982

$$$$
1uud_lig
 OpenBabel11021811413D
libRbt.so/2013.1/901 2013/11/27
 25 25  0  0  0  0  0  0  0  0999 V2000
   -3.0445  -10.6519   -2.4067 C   0  0  0  0  0  0  0  0  0  0  0  0
   -3.3646   -8.9309   -0.0534 O   0  0  0  0  0  0  0  0  0  0  0  0
   -1.9966   -9.3441    0.0811 C   0  0  0  0  0  0  0  0  0  0  0  0
   -2.2960  -11.0688   -3.6184 N   0  0  0  0  0  0  0  0  0  0  0  0
   -1.6986   -9.7221    1.5383 C   0  0  0  0  0  0  0  0  0  0  0  0
   -3.0452  -12.1309   -4.3306 C   0  0  0  0  0  0  0  0  0  0  0  0
   -4.0878  -11.4910   -5.2553 C   0  0  0  0  0  0  0  0  0  0  0  0
   -0.4165   -9.5887    1.7813 N   0  0  0  0  0  0  0  0  0  0  0  0
    0.4549  -10.5097    1.4145 C   0  0  0  0  0  0  0  0  0  0  0  0
   -5.3159  -11.0678   -4.4419 C   0  0  0  0  0  0  0  0  0  0  0  0
   -6.1204  -10.0314   -5.2318 C   0  0  0  0  0  0  0  0  0  0  0  0
    0.4163  -11.7758    1.9303 N   0  0  0  0  0  0  0  0  0  0  0  0
    1.4122  -10.1923    0.5051 N   0  0  0  0  0  0  0  0  0  0  0  0
   -6.8907   -9.3502   -4.4170 N   0  0  0  0  0  0  0  0  0  0  0  0
   -8.0929   -8.9468   -4.7808 C   0  0  0  0  0  0  0  0  0  0  0  0
   -8.4940   -9.1339   -6.0644 N   0  0  0  0  0  0  0  0  0  0  0  0
   -8.9391   -8.3364   -3.8990 N   0  0  0  0  0  0  0  0  0  0  0  0
   -3.5821   -8.3633   -1.3515 C   0  0  0  0  0  0  0  0  0  0  0  0
   -4.1918   -6.6399   -5.2127 O   0  0  0  0  0  0  0  0  0  0  0  0
   -3.4320   -9.1630   -2.5210 C   0  0  0  0  0  0  0  0  0  0  0  0
   -3.6271   -8.5850   -3.8041 C   0  0  0  0  0  0  0  0  0  0  0  0
   -3.9920   -7.2180   -3.9202 C   0  0  0  0  0  0  0  0  0  0  0  0
   -4.1611   -6.4247   -2.7536 C   0  0  0  0  0  0  0  0  0  0  0  0
   -3.9634   -6.9977   -1.4681 C   0  0  0  0  0  0  0  0  0  0  0  0
   -5.5896   -6.6167   -5.5164 C   0  0  0  0  0  0  0  0  0  0  0  0
  1  4  1  0  0  0  0
  2  3  1  0  0  0  0
  3  5  1  0  0  0  0
  4  6  1  0  0  0  0
  5  8  1  0  0  0  0
  6  7  1  0  0  0  0
  7 10  1  0  0  0  0
  8  9  1  0  0  0  0
  9 12  1  0  0  0  0
  9 13  1  0  0  0  0
 10 11  1  0  0  0  0
 11 14  1  0  0  0  0
 14 15  1  0  0  0  0
 15 16  1  0  0  0  0
 15 17  1  0  0  0  0
 18  2  1  0  0  0  0
 18 20  2  0  0  0  0
 18 24  1  0  0  0  0
 19 25  1  0  0  0  0
 20  1  1  0  0  0  0
 20 21  1  0  0  0  0
 21 22  2  0  0  0  0
 22 19  1  0  0  0  0
 22 23  1  0  0  0  0
 23 24  2  0  0  0  0
M  END
>  <CHROM.1>
-117.92183515,170.12460311,-155.35849295,84.75021573,-79.80321617,-79.49487156
160.78207109,-63.43512412,99.32601238,-18.19970961,-159.42375889,-144.20577351
-6.08838348,-81.16607499,135.83434014,63.74040170,-151.06043930,98.23450797
-3.75782533,-9.31942937,-2.54710750,-0.18238891,0.74565231,-2.62169646

>  <Name>
1uud_lig

>  <RI>
0

>  <Rbt.Current_Directory>
/home/itssahil/PROJECTS/Mol_Feturizer/New_Systems/rnas/1uud

>  <Rbt.Executable>
rbdock ($Id: //depot/dev/client3/rdock/2013.1/src/exe/rbdock.cxx#4 $)

>  <Rbt.Library>
libRbt.so (2013.1, Build901 2013/11/27)

>  <Rbt.Parameter_File>
/export/apps/rDock/src/rDock_2013.1_src/data/scripts/dock_solv.prm

>  <Rbt.Receptor>
prm/pocket_docking_3.prm

>  <SCORE>
-26.6483

>  <SCORE.INTER>
-24.6768

>  <SCORE.INTER.CONST>
1

>  <SCORE.INTER.POLAR>
-4.46034

>  <SCORE.INTER.ROT>
18

>  <SCORE.INTER.SOLV>
13.7273

>  <SCORE.INTER.VDW>
-21.7592

>  <SCORE.INTER.norm>
-0.987073

>  <SCORE.INTRA>
-2.23161

>  <SCORE.INTRA.DIHEDRAL>
-0.254335

>  <SCORE.INTRA.DIHEDRAL.0>
30.6762

>  <SCORE.INTRA.POLAR>
0.0288659

>  <SCORE.INTRA.POLAR.0>
-0.0288659

>  <SCORE.INTRA.REPUL>
0

>  <SCORE.INTRA.REPUL.0>
0

>  <SCORE.INTRA.SOLV>
-0.326783

>  <SCORE.INTRA.SOLV.lig_0>
-25.2195

>  <SCORE.INTRA.VDW>
-2.0392

>  <SCORE.INTRA.VDW.0>
4.14263

>  <SCORE.INTRA.norm>
-0.0892645

>  <SCORE.RESTR>
0.260099

>  <SCORE.RESTR.CAVITY>
0.260099

>  <SCORE.RESTR.norm>
0.010404

>  <SCORE.SYSTEM>
0

>  <SCORE.SYSTEM.CONST>
0

>  <SCORE.SYSTEM.DIHEDRAL>
0

>  <SCORE.SYSTEM.SOLV>
0

>  <SCORE.SYSTEM.norm>
0

>  <SCORE.heavy>
25

>  <SCORE.norm>
-1.06593

>  <RMSD>
6.992

$$$$
1uud_lig
 OpenBabel11021811413D
libRbt.so/2013.1/901 2013/11/27
 25 25  0  0  0  0  0  0  0  0999 V2000
   -3.3107  -12.8978   -4.6685 C   0  0  0  0  0  0  0  0  0  0  0  0
   -1.9185  -14.6677   -6.5479 O   0  0  0  0  0  0  0  0  0  0  0  0
   -0.9222  -14.5614   -5.5201 C   0  0  0  0  0  0  0  0  0  0  0  0
   -3.8790  -11.7469   -3.9239 N   0  0  0  0  0  0  0  0  0  0  0  0
    0.3253  -15.3673   -5.9067 C   0  0  0  0  0  0  0  0  0  0  0  0
   -5.3355  -11.6522   -4.1814 C   0  0  0  0  0  0  0  0  0  0  0  0
   -5.8503  -10.2839   -3.7184 C   0  0  0  0  0  0  0  0  0  0  0  0
   -0.0298  -16.5019   -6.4612 N   0  0  0  0  0  0  0  0  0  0  0  0
   -0.7306  -17.4037   -5.7995 C   0  0  0  0  0  0  0  0  0  0  0  0
   -5.6120   -9.2393   -4.8141 C   0  0  0  0  0  0  0  0  0  0  0  0
   -6.1256   -7.8761   -4.3419 C   0  0  0  0  0  0  0  0  0  0  0  0
   -0.2992  -17.9073   -4.6033 N   0  0  0  0  0  0  0  0  0  0  0  0
   -1.9060  -17.8423   -6.3192 N   0  0  0  0  0  0  0  0  0  0  0  0
   -7.4294   -7.9159   -4.2006 N   0  0  0  0  0  0  0  0  0  0  0  0
   -8.0374   -7.2662   -3.2266 C   0  0  0  0  0  0  0  0  0  0  0  0
   -8.9688   -6.3281   -3.5368 N   0  0  0  0  0  0  0  0  0  0  0  0
   -7.7443   -7.5079   -1.9144 N   0  0  0  0  0  0  0  0  0  0  0  0
   -2.3055  -13.3622   -6.9954 C   0  0  0  0  0  0  0  0  0  0  0  0
   -3.4891   -9.4922   -8.3639 O   0  0  0  0  0  0  0  0  0  0  0  0
   -2.9883  -12.4730   -6.1162 C   0  0  0  0  0  0  0  0  0  0  0  0
   -3.3882  -11.1899   -6.5767 C   0  0  0  0  0  0  0  0  0  0  0  0
   -3.0891  -10.7858   -7.9043 C   0  0  0  0  0  0  0  0  0  0  0  0
   -2.3910  -11.6645   -8.7758 C   0  0  0  0  0  0  0  0  0  0  0  0
   -1.9922  -12.9504   -8.3206 C   0  0  0  0  0  0  0  0  0  0  0  0
   -2.4302   -8.5563   -8.1421 C   0  0  0  0  0  0  0  0  0  0  0  0
  1  4  1  0  0  0  0
  2  3  1  0  0  0  0
  3  5  1  0  0  0  0
  4  6  1  0  0  0  0
  5  8  1  0  0  0  0
  6  7  1  0  0  0  0
  7 10  1  0  0  0  0
  8  9  1  0  0  0  0
  9 12  1  0  0  0  0
  9 13  1  0  0  0  0
 10 11  1  0  0  0  0
 11 14  1  0  0  0  0
 14 15  1  0  0  0  0
 15 16  1  0  0  0  0
 15 17  1  0  0  0  0
 18  2  1  0  0  0  0
 18 20  2  0  0  0  0
 18 24  1  0  0  0  0
 19 25  1  0  0  0  0
 20  1  1  0  0  0  0
 20 21  1  0  0  0  0
 21 22  2  0  0  0  0
 22 19  1  0  0  0  0
 22 23  1  0  0  0  0
 23 24  2  0  0  0  0
M  END
>  <CHROM.1>
84.19853165,-124.60437929,-40.39340182,-165.59540505,-61.93175751,83.60165059
-179.85892347,-55.68171502,-139.54007813,-150.04216995,-65.64070409,143.33057302
120.80823524,32.44987907,-32.13687468,-66.05254301,173.55718941,92.09806191
-3.62802327,-11.89455628,-5.57963368,0.46326243,-0.85453680,2.42417884

>  <Name>
1uud_lig

>  <RI>
0

>  <Rbt.Current_Directory>
/home/itssahil/PROJECTS/Mol_Feturizer/New_Systems/rnas/1uud

>  <Rbt.Executable>
rbdock ($Id: //depot/dev/client3/rdock/2013.1/src/exe/rbdock.cxx#4 $)

>  <Rbt.Library>
libRbt.so (2013.1, Build901 2013/11/27)

>  <Rbt.Parameter_File>
/export/apps/rDock/src/rDock_2013.1_src/data/scripts/dock_solv.prm

>  <Rbt.Receptor>
prm/pocket_docking_8.prm

>  <SCORE>
-22.6999

>  <SCORE.INTER>
-20.1232

>  <SCORE.INTER.CONST>
1

>  <SCORE.INTER.POLAR>
-3.54955

>  <SCORE.INTER.ROT>
18

>  <SCORE.INTER.SOLV>
6.83766

>  <SCORE.INTER.VDW>
-19.4628

>  <SCORE.INTER.norm>
-0.804928

>  <SCORE.INTRA>
-2.57668

>  <SCORE.INTRA.DIHEDRAL>
0.589987

>  <SCORE.INTRA.DIHEDRAL.0>
30.6762

>  <SCORE.INTRA.POLAR>
0.0288659

>  <SCORE.INTRA.POLAR.0>
-0.0288659

>  <SCORE.INTRA.REPUL>
0

>  <SCORE.INTRA.REPUL.0>
0

>  <SCORE.INTRA.SOLV>
-0.216698

>  <SCORE.INTRA.SOLV.lig_0>
-25.2195

>  <SCORE.INTRA.VDW>
-2.86147

>  <SCORE.INTRA.VDW.0>
4.14263

>  <SCORE.INTRA.norm>
-0.103067

>  <SCORE.RESTR>
0

>  <SCORE.RESTR.CAVITY>
0

>  <SCORE.RESTR.norm>
0

>  <SCORE.SYSTEM>
0

>  <SCORE.SYSTEM.CONST>
0

>  <SCORE.SYSTEM.DIHEDRAL>
0

>  <SCORE.SYSTEM.SOLV>
0

>  <SCORE.SYSTEM.norm>
0

>  <SCORE.heavy>
25

>  <SCORE.norm>
-0.907995

>  <RMSD>
6.996

$$$$
1uud_lig
 OpenBabel11021811413D
libRbt.so/2013.1/901 2013/11/27
 25 25  0  0  0  0  0  0  0  0999 V2000
   -3.2072  -10.6281   -3.5668 C   0  0  0  0  0  0  0  0  0  0  0  0
   -5.1666   -8.4682   -3.2532 O   0  0  0  0  0  0  0  0  0  0  0  0
   -6.0062   -9.1777   -2.3302 C   0  0  0  0  0  0  0  0  0  0  0  0
   -1.9613  -11.2159   -4.1184 N   0  0  0  0  0  0  0  0  0  0  0  0
   -7.4799   -9.0255   -2.7305 C   0  0  0  0  0  0  0  0  0  0  0  0
   -2.2712  -12.4872   -4.8144 C   0  0  0  0  0  0  0  0  0  0  0  0
   -1.0004  -13.0316   -5.4780 C   0  0  0  0  0  0  0  0  0  0  0  0
   -7.6628   -9.4861   -3.9451 N   0  0  0  0  0  0  0  0  0  0  0  0
   -7.8213   -8.6748   -4.9740 C   0  0  0  0  0  0  0  0  0  0  0  0
   -0.7278  -12.2738   -6.7819 C   0  0  0  0  0  0  0  0  0  0  0  0
   -1.3076  -13.0599   -7.9614 C   0  0  0  0  0  0  0  0  0  0  0  0
   -8.6881   -8.9701   -5.9900 N   0  0  0  0  0  0  0  0  0  0  0  0
   -7.1064   -7.5214   -5.0256 N   0  0  0  0  0  0  0  0  0  0  0  0
   -2.6179  -13.0603   -7.8952 N   0  0  0  0  0  0  0  0  0  0  0  0
   -3.3063  -14.1854   -7.8661 C   0  0  0  0  0  0  0  0  0  0  0  0
   -3.0013  -15.1244   -6.9340 N   0  0  0  0  0  0  0  0  0  0  0  0
   -4.3113  -14.4315   -8.7580 N   0  0  0  0  0  0  0  0  0  0  0  0
   -3.8585   -8.2926   -2.6940 C   0  0  0  0  0  0  0  0  0  0  0  0
    0.0196   -7.7666   -0.9812 O   0  0  0  0  0  0  0  0  0  0  0  0
   -2.8785   -9.3192   -2.8191 C   0  0  0  0  0  0  0  0  0  0  0  0
   -1.5925   -9.1450   -2.2412 C   0  0  0  0  0  0  0  0  0  0  0  0
   -1.2769   -7.9410   -1.5583 C   0  0  0  0  0  0  0  0  0  0  0  0
   -2.2472   -6.9087   -1.4499 C   0  0  0  0  0  0  0  0  0  0  0  0
   -3.5363   -7.0801   -2.0234 C   0  0  0  0  0  0  0  0  0  0  0  0
   -0.0862   -7.7725    0.4455 C   0  0  0  0  0  0  0  0  0  0  0  0
  1  4  1  0  0  0  0
  2  3  1  0  0  0  0
  3  5  1  0  0  0  0
  4  6  1  0  0  0  0
  5  8  1  0  0  0  0
  6  7  1  0  0  0  0
  7 10  1  0  0  0  0
  8  9  1  0  0  0  0
  9 12  1  0  0  0  0
  9 13  1  0  0  0  0
 10 11  1  0  0  0  0
 11 14  1  0  0  0  0
 14 15  1  0  0  0  0
 15 16  1  0  0  0  0
 15 17  1  0  0  0  0
 18  2  1  0  0  0  0
 18 20  2  0  0  0  0
 18 24  1  0  0  0  0
 19 25  1  0  0  0  0
 20  1  1  0  0  0  0
 20 21  1  0  0  0  0
 21 22  2  0  0  0  0
 22 19  1  0  0  0  0
 22 23  1  0  0  0  0
 23 24  2  0  0  0  0
M  END
>  <CHROM.1>
178.90010972,164.02036562,58.75140528,175.48369271,-104.56816282,-78.57700767
-95.70459460,-142.77569991,-143.19171302,38.14231558,67.85555186,-123.35218514
53.34767089,-69.27782349,-122.82877835,84.98747868,153.25030920,-110.99848441
-3.60579620,-10.25531133,-4.29789975,-1.64231167,0.27562355,-2.35778812

>  <Name>
1uud_lig

>  <RI>
0

>  <Rbt.Current_Directory>
/home/itssahil/PROJECTS/Mol_Feturizer/New_Systems/rnas/1uud

>  <Rbt.Executable>
rbdock ($Id: //depot/dev/client3/rdock/2013.1/src/exe/rbdock.cxx#4 $)

>  <Rbt.Library>
libRbt.so (2013.1, Build901 2013/11/27)

>  <Rbt.Parameter_File>
/export/apps/rDock/src/rDock_2013.1_src/data/scripts/dock_solv.prm

>  <Rbt.Receptor>
prm/pocket_docking_4.prm

>  <SCORE>
-37.9423

>  <SCORE.INTER>
-28.2058

>  <SCORE.INTER.CONST>
1

>  <SCORE.INTER.POLAR>
-6.03942

>  <SCORE.INTER.ROT>
18

>  <SCORE.INTER.SOLV>
12.1592

>  <SCORE.INTER.VDW>
-18.3255

>  <SCORE.INTER.norm>
-1.12823

>  <SCORE.INTRA>
-9.73648

>  <SCORE.INTRA.DIHEDRAL>
-4.7594

>  <SCORE.INTRA.DIHEDRAL.0>
30.6762

>  <SCORE.INTRA.POLAR>
-0.651383

>  <SCORE.INTRA.POLAR.0>
-0.0288659

>  <SCORE.INTRA.REPUL>
0

>  <SCORE.INTRA.REPUL.0>
0

>  <SCORE.INTRA.SOLV>
0.228405

>  <SCORE.INTRA.SOLV.lig_0>
-25.2195

>  <SCORE.INTRA.VDW>
-5.25628

>  <SCORE.INTRA.VDW.0>
4.14263

>  <SCORE.INTRA.norm>
-0.389459

>  <SCORE.RESTR>
0

>  <SCORE.RESTR.CAVITY>
0

>  <SCORE.RESTR.norm>
0

>  <SCORE.SYSTEM>
0

>  <SCORE.SYSTEM.CONST>
0

>  <SCORE.SYSTEM.DIHEDRAL>
0

>  <SCORE.SYSTEM.SOLV>
0

>  <SCORE.SYSTEM.norm>
0

>  <SCORE.heavy>
25

>  <SCORE.norm>
-1.51769

>  <RMSD>
6.999

$$$$
1uud_lig
 OpenBabel11021811413D
libRbt.so/2013.1/901 2013/11/27
 25 25  0  0  0  0  0  0  0  0999 V2000
   -6.8459   -9.0348   -4.9495 C   0  0  0  0  0  0  0  0  0  0  0  0
   -4.5385  -10.2857   -3.6404 O   0  0  0  0  0  0  0  0  0  0  0  0
   -5.1183  -11.5254   -4.0732 C   0  0  0  0  0  0  0  0  0  0  0  0
   -6.5336   -7.7350   -5.5938 N   0  0  0  0  0  0  0  0  0  0  0  0
   -4.1033  -12.3234   -4.9028 C   0  0  0  0  0  0  0  0  0  0  0  0
   -5.0960   -7.4201   -5.4180 C   0  0  0  0  0  0  0  0  0  0  0  0
   -4.8161   -6.0004   -5.9258 C   0  0  0  0  0  0  0  0  0  0  0  0
   -3.1561  -12.7881   -4.1233 N   0  0  0  0  0  0  0  0  0  0  0  0
   -2.1232  -13.4490   -4.6114 C   0  0  0  0  0  0  0  0  0  0  0  0
   -5.4803   -4.9755   -5.0001 C   0  0  0  0  0  0  0  0  0  0  0  0
   -5.4991   -3.6052   -5.6837 C   0  0  0  0  0  0  0  0  0  0  0  0
   -2.1722  -14.8001   -4.8183 N   0  0  0  0  0  0  0  0  0  0  0  0
   -0.9854  -12.7721   -4.9137 N   0  0  0  0  0  0  0  0  0  0  0  0
   -6.7370   -3.1926   -5.8203 N   0  0  0  0  0  0  0  0  0  0  0  0
   -7.1685   -2.0978   -5.2240 C   0  0  0  0  0  0  0  0  0  0  0  0
   -7.2009   -2.0514   -3.8674 N   0  0  0  0  0  0  0  0  0  0  0  0
   -7.5929   -1.0142   -5.9395 N   0  0  0  0  0  0  0  0  0  0  0  0
   -5.4740   -9.5602   -2.8324 C   0  0  0  0  0  0  0  0  0  0  0  0
   -8.2256   -7.3652   -0.4114 O   0  0  0  0  0  0  0  0  0  0  0  0
   -6.6056   -8.9330   -3.4290 C   0  0  0  0  0  0  0  0  0  0  0  0
   -7.5144   -8.1966   -2.6226 C   0  0  0  0  0  0  0  0  0  0  0  0
   -7.3072   -8.1036   -1.2212 C   0  0  0  0  0  0  0  0  0  0  0  0
   -6.1896   -8.7451   -0.6226 C   0  0  0  0  0  0  0  0  0  0  0  0
   -5.2759   -9.4799   -1.4260 C   0  0  0  0  0  0  0  0  0  0  0  0
   -8.0807   -5.9668   -0.6759 C   0  0  0  0  0  0  0  0  0  0  0  0
  1  4  1  0  0  0  0
  2  3  1  0  0  0  0
  3  5  1  0  0  0  0
  4  6  1  0  0  0  0
  5  8  1  0  0  0  0
  6  7  1  0  0  0  0
  7 10  1  0  0  0  0
  8  9  1  0  0  0  0
  9 12  1  0  0  0  0
  9 13  1  0  0  0  0
 10 11  1  0  0  0  0
 11 14  1  0  0  0  0
 14 15  1  0  0  0  0
 15 16  1  0  0  0  0
 15 17  1  0  0  0  0
 18  2  1  0  0  0  0
 18 20  2  0  0  0  0
 18 24  1  0  0  0  0
 19 25  1  0  0  0  0
 20  1  1  0  0  0  0
 20 21  1  0  0  0  0
 21 22  2  0  0  0  0
 22 19  1  0  0  0  0
 22 23  1  0  0  0  0
 23 24  2  0  0  0  0
M  END
>  <CHROM.1>
63.42777104,-178.27095596,71.33788780,-172.83064241,-176.30328039,68.80982320
-166.06630210,-86.92339425,42.67048198,-11.14630152,119.97167809,117.26704955
-64.05281980,-2.12973707,156.11346225,-72.74454087,-106.40511758,-70.62527763
-5.57348684,-8.02800988,-3.95548266,-0.90345102,0.90332826,-0.59255088

>  <Name>
1uud_lig

>  <RI>
0

>  <Rbt.Current_Directory>
/home/itssahil/PROJECTS/Mol_Feturizer/New_Systems/rnas/1uud

>  <Rbt.Executable>
rbdock ($Id: //depot/dev/client3/rdock/2013.1/src/exe/rbdock.cxx#4 $)

>  <Rbt.Library>
libRbt.so (2013.1, Build901 2013/11/27)

>  <Rbt.Parameter_File>
/export/apps/rDock/src/rDock_2013.1_src/data/scripts/dock_solv.prm

>  <Rbt.Receptor>
prm/pocket_docking_5.prm

>  <SCORE>
-20.0545

>  <SCORE.INTER>
-12.4596

>  <SCORE.INTER.CONST>
1

>  <SCORE.INTER.POLAR>
-2.96625

>  <SCORE.INTER.ROT>
18

>  <SCORE.INTER.SOLV>
8.57251

>  <SCORE.INTER.VDW>
-16.8764

>  <SCORE.INTER.norm>
-0.498385

>  <SCORE.INTRA>
-7.59487

>  <SCORE.INTRA.DIHEDRAL>
-4.45789

>  <SCORE.INTRA.DIHEDRAL.0>
30.6762

>  <SCORE.INTRA.POLAR>
0.0288659

>  <SCORE.INTRA.POLAR.0>
-0.0288659

>  <SCORE.INTRA.REPUL>
0

>  <SCORE.INTRA.REPUL.0>
0

>  <SCORE.INTRA.SOLV>
-1.11353

>  <SCORE.INTRA.SOLV.lig_0>
-25.2195

>  <SCORE.INTRA.VDW>
-4.9073

>  <SCORE.INTRA.VDW.0>
4.14263

>  <SCORE.INTRA.norm>
-0.303795

>  <SCORE.RESTR>
0

>  <SCORE.RESTR.CAVITY>
0

>  <SCORE.RESTR.norm>
0

>  <SCORE.SYSTEM>
0

>  <SCORE.SYSTEM.CONST>
0

>  <SCORE.SYSTEM.DIHEDRAL>
0

>  <SCORE.SYSTEM.SOLV>
0

>  <SCORE.SYSTEM.norm>
0

>  <SCORE.heavy>
25

>  <SCORE.norm>
-0.80218

>  <RMSD>
7.020

$$$$
1uud_lig
 OpenBabel11021811413D
libRbt.so/2013.1/901 2013/11/27
 25 25  0  0  0  0  0  0  0  0999 V2000
   -2.5056  -10.1741   -2.9882 C   0  0  0  0  0  0  0  0  0  0  0  0
   -2.0323   -9.0532   -0.3194 O   0  0  0  0  0  0  0  0  0  0  0  0
   -2.5747   -8.8729    0.9972 C   0  0  0  0  0  0  0  0  0  0  0  0
   -3.3759  -10.7355   -4.0509 N   0  0  0  0  0  0  0  0  0  0  0  0
   -2.1876  -10.0553    1.8957 C   0  0  0  0  0  0  0  0  0  0  0  0
   -3.2156  -12.2079   -4.1053 C   0  0  0  0  0  0  0  0  0  0  0  0
   -3.2824  -12.6775   -5.5636 C   0  0  0  0  0  0  0  0  0  0  0  0
   -0.8858  -10.2162    1.8862 N   0  0  0  0  0  0  0  0  0  0  0  0
   -0.3300  -11.3174    1.4168 C   0  0  0  0  0  0  0  0  0  0  0  0
   -1.8769  -12.6823   -6.1745 C   0  0  0  0  0  0  0  0  0  0  0  0
   -1.9758  -12.9217   -7.6839 C   0  0  0  0  0  0  0  0  0  0  0  0
   -0.4683  -11.6854    0.1068 N   0  0  0  0  0  0  0  0  0  0  0  0
    0.3944  -12.1037    2.2542 N   0  0  0  0  0  0  0  0  0  0  0  0
   -2.5535  -14.0768   -7.9147 N   0  0  0  0  0  0  0  0  0  0  0  0
   -3.6874  -14.1589   -8.5839 C   0  0  0  0  0  0  0  0  0  0  0  0
   -3.9370  -15.2651   -9.3308 N   0  0  0  0  0  0  0  0  0  0  0  0
   -4.6112  -13.1531   -8.5509 N   0  0  0  0  0  0  0  0  0  0  0  0
   -2.7726   -8.2741   -1.2679 C   0  0  0  0  0  0  0  0  0  0  0  0
   -4.9429   -5.9168   -4.0934 O   0  0  0  0  0  0  0  0  0  0  0  0
   -3.0203   -8.7790   -2.5769 C   0  0  0  0  0  0  0  0  0  0  0  0
   -3.7350   -7.9894   -3.5172 C   0  0  0  0  0  0  0  0  0  0  0  0
   -4.2203   -6.7078   -3.1464 C   0  0  0  0  0  0  0  0  0  0  0  0
   -3.9906   -6.2115   -1.8350 C   0  0  0  0  0  0  0  0  0  0  0  0
   -3.2730   -6.9966   -0.8922 C   0  0  0  0  0  0  0  0  0  0  0  0
   -5.6426   -6.7746   -4.9995 C   0  0  0  0  0  0  0  0  0  0  0  0
  1  4  1  0  0  0  0
  2  3  1  0  0  0  0
  3  5  1  0  0  0  0
  4  6  1  0  0  0  0
  5  8  1  0  0  0  0
  6  7  1  0  0  0  0
  7 10  1  0  0  0  0
  8  9  1  0  0  0  0
  9 12  1  0  0  0  0
  9 13  1  0  0  0  0
 10 11  1  0  0  0  0
 11 14  1  0  0  0  0
 14 15  1  0  0  0  0
 15 16  1  0  0  0  0
 15 17  1  0  0  0  0
 18  2  1  0  0  0  0
 18 20  2  0  0  0  0
 18 24  1  0  0  0  0
 19 25  1  0  0  0  0
 20  1  1  0  0  0  0
 20 21  1  0  0  0  0
 21 22  2  0  0  0  0
 22 19  1  0  0  0  0
 22 23  1  0  0  0  0
 23 24  2  0  0  0  0
M  END
>  <CHROM.1>
-159.55074007,158.10844479,54.33048502,-143.10673666,-116.91260831,90.20566624
-170.54932606,62.67668156,-131.93812100,-144.51412376,-59.91751218,118.91731779
149.30997063,51.64960483,-163.29330043,-143.08557983,153.01638709,30.04543700
-2.81450657,-10.44753773,-3.19981067,1.24983434,-1.01845126,0.83169545

>  <Name>
1uud_lig

>  <RI>
0

>  <Rbt.Current_Directory>
/home/itssahil/PROJECTS/Mol_Feturizer/New_Systems/rnas/1uud

>  <Rbt.Executable>
rbdock ($Id: //depot/dev/client3/rdock/2013.1/src/exe/rbdock.cxx#4 $)

>  <Rbt.Library>
libRbt.so (2013.1, Build901 2013/11/27)

>  <Rbt.Parameter_File>
/export/apps/rDock/src/rDock_2013.1_src/data/scripts/dock_solv.prm

>  <Rbt.Receptor>
prm/pocket_docking_3.prm

>  <SCORE>
-21.5992

>  <SCORE.INTER>
-19.069

>  <SCORE.INTER.CONST>
1

>  <SCORE.INTER.POLAR>
-4.09734

>  <SCORE.INTER.ROT>
18

>  <SCORE.INTER.SOLV>
13.3842

>  <SCORE.INTER.VDW>
-19.1163

>  <SCORE.INTER.norm>
-0.762761

>  <SCORE.INTRA>
-3.19198

>  <SCORE.INTRA.DIHEDRAL>
-8.6759

>  <SCORE.INTRA.DIHEDRAL.0>
30.6762

>  <SCORE.INTRA.POLAR>
0.0288659

>  <SCORE.INTRA.POLAR.0>
-0.0288659

>  <SCORE.INTRA.REPUL>
0

>  <SCORE.INTRA.REPUL.0>
0

>  <SCORE.INTRA.SOLV>
-0.258196

>  <SCORE.INTRA.SOLV.lig_0>
-25.2195

>  <SCORE.INTRA.VDW>
1.17692

>  <SCORE.INTRA.VDW.0>
4.14263

>  <SCORE.INTRA.norm>
-0.127679

>  <SCORE.RESTR>
0.661814

>  <SCORE.RESTR.CAVITY>
0.661814

>  <SCORE.RESTR.norm>
0.0264725

>  <SCORE.SYSTEM>
0

>  <SCORE.SYSTEM.CONST>
0

>  <SCORE.SYSTEM.DIHEDRAL>
0

>  <SCORE.SYSTEM.SOLV>
0

>  <SCORE.SYSTEM.norm>
0

>  <SCORE.heavy>
25

>  <SCORE.norm>
-0.863967

>  <RMSD>
7.029

$$$$
1uud_lig
 OpenBabel11021811413D
libRbt.so/2013.1/901 2013/11/27
 25 25  0  0  0  0  0  0  0  0999 V2000
   -6.8338   -9.9165   -3.5081 C   0  0  0  0  0  0  0  0  0  0  0  0
   -5.6014   -8.7799   -1.1014 O   0  0  0  0  0  0  0  0  0  0  0  0
   -5.8789   -9.2444    0.2280 C   0  0  0  0  0  0  0  0  0  0  0  0
   -5.8627   -9.5313   -4.5619 N   0  0  0  0  0  0  0  0  0  0  0  0
   -4.5840   -9.7111    0.9067 C   0  0  0  0  0  0  0  0  0  0  0  0
   -5.2887  -10.7477   -5.1846 C   0  0  0  0  0  0  0  0  0  0  0  0
   -4.4095  -10.3480   -6.3757 C   0  0  0  0  0  0  0  0  0  0  0  0
   -3.7838   -8.6886    1.0935 N   0  0  0  0  0  0  0  0  0  0  0  0
   -2.5382   -8.8521    1.4980 C   0  0  0  0  0  0  0  0  0  0  0  0
   -3.7719  -11.5964   -6.9950 C   0  0  0  0  0  0  0  0  0  0  0  0
   -3.0504  -11.2135   -8.2904 C   0  0  0  0  0  0  0  0  0  0  0  0
   -1.6581   -9.6353    0.8032 N   0  0  0  0  0  0  0  0  0  0  0  0
   -2.1214   -8.2295    2.6306 N   0  0  0  0  0  0  0  0  0  0  0  0
   -2.6827  -12.2969   -8.9324 N   0  0  0  0  0  0  0  0  0  0  0  0
   -1.4261  -12.4999   -9.2789 C   0  0  0  0  0  0  0  0  0  0  0  0
   -1.0524  -12.2908  -10.5674 N   0  0  0  0  0  0  0  0  0  0  0  0
   -0.4951  -12.9252   -8.3742 N   0  0  0  0  0  0  0  0  0  0  0  0
   -6.7581   -8.1339   -1.6487 C   0  0  0  0  0  0  0  0  0  0  0  0
  -10.1777   -6.1673   -3.2885 O   0  0  0  0  0  0  0  0  0  0  0  0
   -7.3843   -8.6503   -2.8197 C   0  0  0  0  0  0  0  0  0  0  0  0
   -8.5162   -7.9893   -3.3676 C   0  0  0  0  0  0  0  0  0  0  0  0
   -9.0358   -6.8282   -2.7373 C   0  0  0  0  0  0  0  0  0  0  0  0
   -8.4238   -6.3238   -1.5584 C   0  0  0  0  0  0  0  0  0  0  0  0
   -7.2890   -6.9797   -1.0087 C   0  0  0  0  0  0  0  0  0  0  0  0
  -11.3127   -6.3891   -2.4464 C   0  0  0  0  0  0  0  0  0  0  0  0
  1  4  1  0  0  0  0
  2  3  1  0  0  0  0
  3  5  1  0  0  0  0
  4  6  1  0  0  0  0
  5  8  1  0  0  0  0
  6  7  1  0  0  0  0
  7 10  1  0  0  0  0
  8  9  1  0  0  0  0
  9 12  1  0  0  0  0
  9 13  1  0  0  0  0
 10 11  1  0  0  0  0
 11 14  1  0  0  0  0
 14 15  1  0  0  0  0
 15 16  1  0  0  0  0
 15 17  1  0  0  0  0
 18  2  1  0  0  0  0
 18 20  2  0  0  0  0
 18 24  1  0  0  0  0
 19 25  1  0  0  0  0
 20  1  1  0  0  0  0
 20 21  1  0  0  0  0
 21 22  2  0  0  0  0
 22 19  1  0  0  0  0
 22 23  1  0  0  0  0
 23 24  2  0  0  0  0
M  END
>  <CHROM.1>
177.55885221,-170.05867955,66.22286064,173.61910771,-170.92785281,177.99244760
172.46588001,56.66868447,-120.04744449,14.60432108,-170.20880856,-124.56960176
-102.37564117,26.72950929,14.28524482,-118.39673228,-92.17808167,108.40370998
-5.09845257,-9.40227900,-3.42757211,2.08518979,-0.42436755,1.30588461

>  <Name>
1uud_lig

>  <RI>
0

>  <Rbt.Current_Directory>
/home/itssahil/PROJECTS/Mol_Feturizer/New_Systems/rnas/1uud

>  <Rbt.Executable>
rbdock ($Id: //depot/dev/client3/rdock/2013.1/src/exe/rbdock.cxx#4 $)

>  <Rbt.Library>
libRbt.so (2013.1, Build901 2013/11/27)

>  <Rbt.Parameter_File>
/export/apps/rDock/src/rDock_2013.1_src/data/scripts/dock_solv.prm

>  <Rbt.Receptor>
prm/pocket_docking_7.prm

>  <SCORE>
-26.7179

>  <SCORE.INTER>
-15.8578

>  <SCORE.INTER.CONST>
1

>  <SCORE.INTER.POLAR>
-2.75195

>  <SCORE.INTER.ROT>
18

>  <SCORE.INTER.SOLV>
6.90994

>  <SCORE.INTER.VDW>
-19.302

>  <SCORE.INTER.norm>
-0.634312

>  <SCORE.INTRA>
-10.8601

>  <SCORE.INTRA.DIHEDRAL>
-10.9847

>  <SCORE.INTRA.DIHEDRAL.0>
30.6762

>  <SCORE.INTRA.POLAR>
0.0288659

>  <SCORE.INTRA.POLAR.0>
-0.0288659

>  <SCORE.INTRA.REPUL>
0

>  <SCORE.INTRA.REPUL.0>
0

>  <SCORE.INTRA.SOLV>
-1.27371

>  <SCORE.INTRA.SOLV.lig_0>
-25.2195

>  <SCORE.INTRA.VDW>
-4.82904

>  <SCORE.INTRA.VDW.0>
4.14263

>  <SCORE.INTRA.norm>
-0.434403

>  <SCORE.RESTR>
0

>  <SCORE.RESTR.CAVITY>
0

>  <SCORE.RESTR.norm>
0

>  <SCORE.SYSTEM>
0

>  <SCORE.SYSTEM.CONST>
0

>  <SCORE.SYSTEM.DIHEDRAL>
0

>  <SCORE.SYSTEM.SOLV>
0

>  <SCORE.SYSTEM.norm>
0

>  <SCORE.heavy>
25

>  <SCORE.norm>
-1.06872

>  <RMSD>
7.032

$$$$
1uud_lig
 OpenBabel11021811413D
libRbt.so/2013.1/901 2013/11/27
 25 25  0  0  0  0  0  0  0  0999 V2000
   -3.8519   -9.9689   -2.3596 C   0  0  0  0  0  0  0  0  0  0  0  0
   -6.0709   -8.8371   -0.8113 O   0  0  0  0  0  0  0  0  0  0  0  0
   -5.9288   -7.7821   -1.7742 C   0  0  0  0  0  0  0  0  0  0  0  0
   -2.8900  -11.0426   -2.7121 N   0  0  0  0  0  0  0  0  0  0  0  0
   -7.2687   -7.0598   -1.9696 C   0  0  0  0  0  0  0  0  0  0  0  0
   -3.1475  -11.5137   -4.0936 C   0  0  0  0  0  0  0  0  0  0  0  0
   -2.0828  -12.5432   -4.4912 C   0  0  0  0  0  0  0  0  0  0  0  0
   -8.2042   -7.9278   -2.2727 N   0  0  0  0  0  0  0  0  0  0  0  0
   -8.4029   -8.3221   -3.5165 C   0  0  0  0  0  0  0  0  0  0  0  0
   -2.2580  -12.9321   -5.9632 C   0  0  0  0  0  0  0  0  0  0  0  0
   -1.1002  -13.8369   -6.3946 C   0  0  0  0  0  0  0  0  0  0  0  0
   -8.9832   -9.5277   -3.8001 N   0  0  0  0  0  0  0  0  0  0  0  0
   -8.0210   -7.5127   -4.5379 N   0  0  0  0  0  0  0  0  0  0  0  0
   -0.7948  -14.6634   -5.4225 N   0  0  0  0  0  0  0  0  0  0  0  0
   -1.3536  -15.8549   -5.3296 C   0  0  0  0  0  0  0  0  0  0  0  0
   -2.2706  -16.2304   -6.2578 N   0  0  0  0  0  0  0  0  0  0  0  0
   -1.0389  -16.7147   -4.3158 N   0  0  0  0  0  0  0  0  0  0  0  0
   -4.8218   -9.0698   -0.1480 C   0  0  0  0  0  0  0  0  0  0  0  0
   -1.1215   -9.7967    1.8595 O   0  0  0  0  0  0  0  0  0  0  0  0
   -3.7199   -9.6231   -0.8619 C   0  0  0  0  0  0  0  0  0  0  0  0
   -2.4932   -9.8716   -0.1897 C   0  0  0  0  0  0  0  0  0  0  0  0
   -2.3585   -9.5494    1.1863 C   0  0  0  0  0  0  0  0  0  0  0  0
   -3.4507   -8.9794    1.8944 C   0  0  0  0  0  0  0  0  0  0  0  0
   -4.6808   -8.7324    1.2268 C   0  0  0  0  0  0  0  0  0  0  0  0
   -0.7772  -11.1798    1.7366 C   0  0  0  0  0  0  0  0  0  0  0  0
  1  4  1  0  0  0  0
  2  3  1  0  0  0  0
  3  5  1  0  0  0  0
  4  6  1  0  0  0  0
  5  8  1  0  0  0  0
  6  7  1  0  0  0  0
  7 10  1  0  0  0  0
  8  9  1  0  0  0  0
  9 12  1  0  0  0  0
  9 13  1  0  0  0  0
 10 11  1  0  0  0  0
 11 14  1  0  0  0  0
 14 15  1  0  0  0  0
 15 16  1  0  0  0  0
 15 17  1  0  0  0  0
 18  2  1  0  0  0  0
 18 20  2  0  0  0  0
 18 24  1  0  0  0  0
 19 25  1  0  0  0  0
 20  1  1  0  0  0  0
 20 21  1  0  0  0  0
 21 22  2  0  0  0  0
 22 19  1  0  0  0  0
 22 23  1  0  0  0  0
 23 24  2  0  0  0  0
M  END
>  <CHROM.1>
171.81285668,-151.91574897,-53.94023328,175.56714253,-85.18472501,-174.41644169
173.68605361,155.36513682,-50.05108040,-31.72451010,38.71190278,91.14660968
-0.33540021,-85.25709153,-15.59444698,-68.21501697,-154.15858374,-56.79596992
-3.89673703,-10.82487754,-2.44651201,-2.27654496,0.60414737,-2.15504455

>  <Name>
1uud_lig

>  <RI>
0

>  <Rbt.Current_Directory>
/home/itssahil/PROJECTS/Mol_Feturizer/New_Systems/rnas/1uud

>  <Rbt.Executable>
rbdock ($Id: //depot/dev/client3/rdock/2013.1/src/exe/rbdock.cxx#4 $)

>  <Rbt.Library>
libRbt.so (2013.1, Build901 2013/11/27)

>  <Rbt.Parameter_File>
/export/apps/rDock/src/rDock_2013.1_src/data/scripts/dock_solv.prm

>  <Rbt.Receptor>
prm/pocket_docking_4.prm

>  <SCORE>
-33.9222

>  <SCORE.INTER>
-29.8282

>  <SCORE.INTER.CONST>
1

>  <SCORE.INTER.POLAR>
-5.36461

>  <SCORE.INTER.ROT>
18

>  <SCORE.INTER.SOLV>
11.9961

>  <SCORE.INTER.VDW>
-21.6021

>  <SCORE.INTER.norm>
-1.19313

>  <SCORE.INTRA>
-4.33356

>  <SCORE.INTRA.DIHEDRAL>
-7.43046

>  <SCORE.INTRA.DIHEDRAL.0>
30.6762

>  <SCORE.INTRA.POLAR>
0.0288659

>  <SCORE.INTRA.POLAR.0>
-0.0288659

>  <SCORE.INTRA.REPUL>
0

>  <SCORE.INTRA.REPUL.0>
0

>  <SCORE.INTRA.SOLV>
-0.513495

>  <SCORE.INTRA.SOLV.lig_0>
-25.2195

>  <SCORE.INTRA.VDW>
-0.459722

>  <SCORE.INTRA.VDW.0>
4.14263

>  <SCORE.INTRA.norm>
-0.173342

>  <SCORE.RESTR>
0.239481

>  <SCORE.RESTR.CAVITY>
0.239481

>  <SCORE.RESTR.norm>
0.00957924

>  <SCORE.SYSTEM>
0

>  <SCORE.SYSTEM.CONST>
0

>  <SCORE.SYSTEM.DIHEDRAL>
0

>  <SCORE.SYSTEM.SOLV>
0

>  <SCORE.SYSTEM.norm>
0

>  <SCORE.heavy>
25

>  <SCORE.norm>
-1.35689

>  <RMSD>
7.035

$$$$
1uud_lig
 OpenBabel11021811413D
libRbt.so/2013.1/901 2013/11/27
 25 25  0  0  0  0  0  0  0  0999 V2000
   -2.0818   -9.4428   -5.6145 C   0  0  0  0  0  0  0  0  0  0  0  0
   -2.2072   -9.3699   -2.6850 O   0  0  0  0  0  0  0  0  0  0  0  0
   -1.2278   -8.9905   -1.7067 C   0  0  0  0  0  0  0  0  0  0  0  0
   -3.1676   -9.9848   -6.4684 N   0  0  0  0  0  0  0  0  0  0  0  0
   -0.9322  -10.1688   -0.7690 C   0  0  0  0  0  0  0  0  0  0  0  0
   -2.7222  -11.2461   -7.1067 C   0  0  0  0  0  0  0  0  0  0  0  0
   -3.8092  -11.7477   -8.0650 C   0  0  0  0  0  0  0  0  0  0  0  0
   -0.1971   -9.7639    0.2392 N   0  0  0  0  0  0  0  0  0  0  0  0
    0.8588  -10.4462    0.6412 C   0  0  0  0  0  0  0  0  0  0  0  0
   -3.4253  -13.1266   -8.6128 C   0  0  0  0  0  0  0  0  0  0  0  0
   -3.5159  -14.1658   -7.4916 C   0  0  0  0  0  0  0  0  0  0  0  0
    0.7318  -11.5893    1.3813 N   0  0  0  0  0  0  0  0  0  0  0  0
    2.0996  -10.0021    0.3134 N   0  0  0  0  0  0  0  0  0  0  0  0
   -3.2341  -15.3567   -7.9644 N   0  0  0  0  0  0  0  0  0  0  0  0
   -2.2391  -16.0737   -7.4783 C   0  0  0  0  0  0  0  0  0  0  0  0
   -1.3590  -16.6520   -8.3354 N   0  0  0  0  0  0  0  0  0  0  0  0
   -2.0799  -16.2562   -6.1338 N   0  0  0  0  0  0  0  0  0  0  0  0
   -2.6431   -8.2178   -3.4179 C   0  0  0  0  0  0  0  0  0  0  0  0
   -3.9053   -4.7567   -5.5807 O   0  0  0  0  0  0  0  0  0  0  0  0
   -2.5939   -8.2095   -4.8418 C   0  0  0  0  0  0  0  0  0  0  0  0
   -3.0063   -7.0540   -5.5581 C   0  0  0  0  0  0  0  0  0  0  0  0
   -3.4870   -5.9168   -4.8572 C   0  0  0  0  0  0  0  0  0  0  0  0
   -3.5548   -5.9314   -3.4380 C   0  0  0  0  0  0  0  0  0  0  0  0
   -3.1399   -7.0839   -2.7171 C   0  0  0  0  0  0  0  0  0  0  0  0
   -5.3298   -4.7620   -5.7127 C   0  0  0  0  0  0  0  0  0  0  0  0
  1  4  1  0  0  0  0
  2  3  1  0  0  0  0
  3  5  1  0  0  0  0
  4  6  1  0  0  0  0
  5  8  1  0  0  0  0
  6  7  1  0  0  0  0
  7 10  1  0  0  0  0
  8  9  1  0  0  0  0
  9 12  1  0  0  0  0
  9 13  1  0  0  0  0
 10 11  1  0  0  0  0
 11 14  1  0  0  0  0
 14 15  1  0  0  0  0
 15 16  1  0  0  0  0
 15 17  1  0  0  0  0
 18  2  1  0  0  0  0
 18 20  2  0  0  0  0
 18 24  1  0  0  0  0
 19 25  1  0  0  0  0
 20  1  1  0  0  0  0
 20 21  1  0  0  0  0
 21 22  2  0  0  0  0
 22 19  1  0  0  0  0
 22 23  1  0  0  0  0
 23 24  2  0  0  0  0
M  END
>  <CHROM.1>
-174.36325093,170.60228161,-170.46070436,-175.96328347,-134.22654565,-173.84527552
69.72133633,-76.69292618,50.11265735,-160.42362412,177.79193648,121.29459379
-132.03894559,-113.31990923,-83.55622111,126.53391969,117.65836957,98.55188749
-2.20975257,-10.34961760,-4.46981562,1.36891533,-1.01050052,0.50520953

>  <Name>
1uud_lig

>  <RI>
0

>  <Rbt.Current_Directory>
/home/itssahil/PROJECTS/Mol_Feturizer/New_Systems/rnas/1uud

>  <Rbt.Executable>
rbdock ($Id: //depot/dev/client3/rdock/2013.1/src/exe/rbdock.cxx#4 $)

>  <Rbt.Library>
libRbt.so (2013.1, Build901 2013/11/27)

>  <Rbt.Parameter_File>
/export/apps/rDock/src/rDock_2013.1_src/data/scripts/dock_solv.prm

>  <Rbt.Receptor>
prm/pocket_docking_5.prm

>  <SCORE>
-22.4648

>  <SCORE.INTER>
-12.0358

>  <SCORE.INTER.CONST>
1

>  <SCORE.INTER.POLAR>
-2.18323

>  <SCORE.INTER.ROT>
18

>  <SCORE.INTER.SOLV>
9.05776

>  <SCORE.INTER.VDW>
-19.3657

>  <SCORE.INTER.norm>
-0.481434

>  <SCORE.INTRA>
-10.429

>  <SCORE.INTRA.DIHEDRAL>
-11.0976

>  <SCORE.INTRA.DIHEDRAL.0>
30.6762

>  <SCORE.INTRA.POLAR>
0.0288659

>  <SCORE.INTRA.POLAR.0>
-0.0288659

>  <SCORE.INTRA.REPUL>
0

>  <SCORE.INTRA.REPUL.0>
0

>  <SCORE.INTRA.SOLV>
-1.52283

>  <SCORE.INTRA.SOLV.lig_0>
-25.2195

>  <SCORE.INTRA.VDW>
-4.2169

>  <SCORE.INTRA.VDW.0>
4.14263

>  <SCORE.INTRA.norm>
-0.417158

>  <SCORE.RESTR>
0

>  <SCORE.RESTR.CAVITY>
0

>  <SCORE.RESTR.norm>
0

>  <SCORE.SYSTEM>
0

>  <SCORE.SYSTEM.CONST>
0

>  <SCORE.SYSTEM.DIHEDRAL>
0

>  <SCORE.SYSTEM.SOLV>
0

>  <SCORE.SYSTEM.norm>
0

>  <SCORE.heavy>
25

>  <SCORE.norm>
-0.898592

>  <RMSD>
7.043

$$$$
1uud_lig
 OpenBabel11021811413D
libRbt.so/2013.1/901 2013/11/27
 25 25  0  0  0  0  0  0  0  0999 V2000
   -0.8471   -8.8698   -1.4826 C   0  0  0  0  0  0  0  0  0  0  0  0
   -3.2486   -7.5295   -2.5021 O   0  0  0  0  0  0  0  0  0  0  0  0
   -3.5671   -6.1699   -2.1699 C   0  0  0  0  0  0  0  0  0  0  0  0
   -0.5853  -10.0198   -2.3832 N   0  0  0  0  0  0  0  0  0  0  0  0
   -3.7342   -5.3378   -3.4485 C   0  0  0  0  0  0  0  0  0  0  0  0
   -1.6790  -10.1391   -3.3762 C   0  0  0  0  0  0  0  0  0  0  0  0
   -2.5989  -11.3032   -2.9887 C   0  0  0  0  0  0  0  0  0  0  0  0
   -4.5286   -5.9605   -4.2863 N   0  0  0  0  0  0  0  0  0  0  0  0
   -5.0882   -5.3322   -5.3031 C   0  0  0  0  0  0  0  0  0  0  0  0
   -3.9018  -11.2277   -3.7921 C   0  0  0  0  0  0  0  0  0  0  0  0
   -3.7158  -11.9373   -5.1364 C   0  0  0  0  0  0  0  0  0  0  0  0
   -4.6166   -5.4756   -6.5789 N   0  0  0  0  0  0  0  0  0  0  0  0
   -6.1557   -4.5238   -5.0770 N   0  0  0  0  0  0  0  0  0  0  0  0
   -3.3348  -11.0733   -6.0472 N   0  0  0  0  0  0  0  0  0  0  0  0
   -3.9681  -10.9614   -7.1991 C   0  0  0  0  0  0  0  0  0  0  0  0
   -5.3055  -11.1914   -7.2445 N   0  0  0  0  0  0  0  0  0  0  0  0
   -3.3082  -10.6298   -8.3482 N   0  0  0  0  0  0  0  0  0  0  0  0
   -3.3694   -8.3613   -1.3410 C   0  0  0  0  0  0  0  0  0  0  0  0
   -3.7608  -10.8709    2.0939 O   0  0  0  0  0  0  0  0  0  0  0  0
   -2.2288   -9.0347   -0.8162 C   0  0  0  0  0  0  0  0  0  0  0  0
   -2.3636   -9.8753    0.3211 C   0  0  0  0  0  0  0  0  0  0  0  0
   -3.6287  -10.0275    0.9469 C   0  0  0  0  0  0  0  0  0  0  0  0
   -4.7630   -9.3409    0.4360 C   0  0  0  0  0  0  0  0  0  0  0  0
   -4.6335   -8.5017   -0.7038 C   0  0  0  0  0  0  0  0  0  0  0  0
   -4.1374  -10.0832    3.2272 C   0  0  0  0  0  0  0  0  0  0  0  0
  1  4  1  0  0  0  0
  2  3  1  0  0  0  0
  3  5  1  0  0  0  0
  4  6  1  0  0  0  0
  5  8  1  0  0  0  0
  6  7  1  0  0  0  0
  7 10  1  0  0  0  0
  8  9  1  0  0  0  0
  9 12  1  0  0  0  0
  9 13  1  0  0  0  0
 10 11  1  0  0  0  0
 11 14  1  0  0  0  0
 14 15  1  0  0  0  0
 15 16  1  0  0  0  0
 15 17  1  0  0  0  0
 18  2  1  0  0  0  0
 18 20  2  0  0  0  0
 18 24  1  0  0  0  0
 19 25  1  0  0  0  0
 20  1  1  0  0  0  0
 20 21  1  0  0  0  0
 21 22  2  0  0  0  0
 22 19  1  0  0  0  0
 22 23  1  0  0  0  0
 23 24  2  0  0  0  0
M  END
>  <CHROM.1>
56.07687316,-167.87936869,48.86120774,-104.08948898,163.41311136,166.27228133
86.34289232,103.00300879,136.07274007,-133.49165286,-92.32972166,-127.79139902
32.28454927,29.39818741,-61.50789147,-116.89160933,-98.00177559,115.97260691
-3.57587738,-8.93872326,-3.02931406,-1.03081185,1.27945712,-1.90938339

>  <Name>
1uud_lig

>  <RI>
0

>  <Rbt.Current_Directory>
/home/itssahil/PROJECTS/Mol_Feturizer/New_Systems/rnas/1uud

>  <Rbt.Executable>
rbdock ($Id: //depot/dev/client3/rdock/2013.1/src/exe/rbdock.cxx#4 $)

>  <Rbt.Library>
libRbt.so (2013.1, Build901 2013/11/27)

>  <Rbt.Parameter_File>
/export/apps/rDock/src/rDock_2013.1_src/data/scripts/dock_solv.prm

>  <Rbt.Receptor>
prm/pocket_docking_4.prm

>  <SCORE>
-26.9792

>  <SCORE.INTER>
-22.8031

>  <SCORE.INTER.CONST>
1

>  <SCORE.INTER.POLAR>
-5.75166

>  <SCORE.INTER.ROT>
18

>  <SCORE.INTER.SOLV>
8.96215

>  <SCORE.INTER.VDW>
-14.6173

>  <SCORE.INTER.norm>
-0.912126

>  <SCORE.INTRA>
-4.49819

>  <SCORE.INTRA.DIHEDRAL>
-2.21686

>  <SCORE.INTRA.DIHEDRAL.0>
30.6762

>  <SCORE.INTRA.POLAR>
-0.0102777

>  <SCORE.INTRA.POLAR.0>
-0.0288659

>  <SCORE.INTRA.REPUL>
0

>  <SCORE.INTRA.REPUL.0>
0

>  <SCORE.INTRA.SOLV>
-0.79878

>  <SCORE.INTRA.SOLV.lig_0>
-25.2195

>  <SCORE.INTRA.VDW>
-2.95543

>  <SCORE.INTRA.VDW.0>
4.14263

>  <SCORE.INTRA.norm>
-0.179928

>  <SCORE.RESTR>
0.322087

>  <SCORE.RESTR.CAVITY>
0.322087

>  <SCORE.RESTR.norm>
0.0128835

>  <SCORE.SYSTEM>
0

>  <SCORE.SYSTEM.CONST>
0

>  <SCORE.SYSTEM.DIHEDRAL>
0

>  <SCORE.SYSTEM.SOLV>
0

>  <SCORE.SYSTEM.norm>
0

>  <SCORE.heavy>
25

>  <SCORE.norm>
-1.07917

>  <RMSD>
7.049

$$$$
1uud_lig
 OpenBabel11021811413D
libRbt.so/2013.1/901 2013/11/27
 25 25  0  0  0  0  0  0  0  0999 V2000
   -1.0717   -9.9014   -4.9733 C   0  0  0  0  0  0  0  0  0  0  0  0
   -3.9601  -10.3944   -4.8451 O   0  0  0  0  0  0  0  0  0  0  0  0
   -5.0049  -10.7810   -3.9399 C   0  0  0  0  0  0  0  0  0  0  0  0
   -2.1046   -8.9808   -4.4368 N   0  0  0  0  0  0  0  0  0  0  0  0
   -6.3653  -10.3057   -4.4676 C   0  0  0  0  0  0  0  0  0  0  0  0
   -1.6435   -7.5783   -4.5670 C   0  0  0  0  0  0  0  0  0  0  0  0
   -2.7793   -6.6263   -4.1731 C   0  0  0  0  0  0  0  0  0  0  0  0
   -6.5329   -9.0346   -4.1902 N   0  0  0  0  0  0  0  0  0  0  0  0
   -6.7765   -8.1480   -5.1370 C   0  0  0  0  0  0  0  0  0  0  0  0
   -3.1024   -6.7885   -2.6838 C   0  0  0  0  0  0  0  0  0  0  0  0
   -3.9200   -5.5859   -2.2036 C   0  0  0  0  0  0  0  0  0  0  0  0
   -7.9537   -8.1512   -5.8333 N   0  0  0  0  0  0  0  0  0  0  0  0
   -5.8362   -7.2121   -5.4271 N   0  0  0  0  0  0  0  0  0  0  0  0
   -5.0613   -5.5371   -2.8488 N   0  0  0  0  0  0  0  0  0  0  0  0
   -6.1997   -5.8507   -2.2605 C   0  0  0  0  0  0  0  0  0  0  0  0
   -6.4157   -7.1356   -1.8784 N   0  0  0  0  0  0  0  0  0  0  0  0
   -7.1697   -4.9153   -2.0363 N   0  0  0  0  0  0  0  0  0  0  0  0
   -3.0864  -11.5037   -5.0912 C   0  0  0  0  0  0  0  0  0  0  0  0
   -0.5040  -14.8167   -5.8697 O   0  0  0  0  0  0  0  0  0  0  0  0
   -1.6773  -11.3072   -5.1663 C   0  0  0  0  0  0  0  0  0  0  0  0
   -0.8216  -12.4093   -5.4338 C   0  0  0  0  0  0  0  0  0  0  0  0
   -1.3678  -13.7085   -5.6047 C   0  0  0  0  0  0  0  0  0  0  0  0
   -2.7714  -13.9088   -5.5106 C   0  0  0  0  0  0  0  0  0  0  0  0
   -3.6315  -12.8085   -5.2468 C   0  0  0  0  0  0  0  0  0  0  0  0
   -0.7151  -15.8345   -4.8869 C   0  0  0  0  0  0  0  0  0  0  0  0
  1  4  1  0  0  0  0
  2  3  1  0  0  0  0
  3  5  1  0  0  0  0
  4  6  1  0  0  0  0
  5  8  1  0  0  0  0
  6  7  1  0  0  0  0
  7 10  1  0  0  0  0
  8  9  1  0  0  0  0
  9 12  1  0  0  0  0
  9 13  1  0  0  0  0
 10 11  1  0  0  0  0
 11 14  1  0  0  0  0
 14 15  1  0  0  0  0
 15 16  1  0  0  0  0
 15 17  1  0  0  0  0
 18  2  1  0  0  0  0
 18 20  2  0  0  0  0
 18 24  1  0  0  0  0
 19 25  1  0  0  0  0
 20  1  1  0  0  0  0
 20 21  1  0  0  0  0
 21 22  2  0  0  0  0
 22 19  1  0  0  0  0
 22 23  1  0  0  0  0
 23 24  2  0  0  0  0
M  END
>  <CHROM.1>
-165.91875406,-133.11911576,-80.07499972,173.07890852,123.32286656,65.68788028
163.49955593,67.91949686,-117.30098435,135.84494418,62.31704558,107.14576375
-67.06125672,-158.60238483,15.48079661,-139.54635608,12.17881678,124.11601115
-3.93373691,-9.48249900,-4.32296706,-1.03949069,-0.07926180,0.34103937

>  <Name>
1uud_lig

>  <RI>
0

>  <Rbt.Current_Directory>
/home/itssahil/PROJECTS/Mol_Feturizer/New_Systems/rnas/1uud

>  <Rbt.Executable>
rbdock ($Id: //depot/dev/client3/rdock/2013.1/src/exe/rbdock.cxx#4 $)

>  <Rbt.Library>
libRbt.so (2013.1, Build901 2013/11/27)

>  <Rbt.Parameter_File>
/export/apps/rDock/src/rDock_2013.1_src/data/scripts/dock_solv.prm

>  <Rbt.Receptor>
prm/pocket_docking_5.prm

>  <SCORE>
-20.7225

>  <SCORE.INTER>
-8.86436

>  <SCORE.INTER.CONST>
1

>  <SCORE.INTER.POLAR>
-3.24559

>  <SCORE.INTER.ROT>
18

>  <SCORE.INTER.SOLV>
6.92337

>  <SCORE.INTER.VDW>
-12.9987

>  <SCORE.INTER.norm>
-0.354574

>  <SCORE.INTRA>
-11.8582

>  <SCORE.INTRA.DIHEDRAL>
-5.48359

>  <SCORE.INTRA.DIHEDRAL.0>
30.6762

>  <SCORE.INTRA.POLAR>
-2.30274

>  <SCORE.INTRA.POLAR.0>
-0.0288659

>  <SCORE.INTRA.REPUL>
0

>  <SCORE.INTRA.REPUL.0>
0

>  <SCORE.INTRA.SOLV>
2.91588

>  <SCORE.INTRA.SOLV.lig_0>
-25.2195

>  <SCORE.INTRA.VDW>
-2.745

>  <SCORE.INTRA.VDW.0>
4.14263

>  <SCORE.INTRA.norm>
-0.474327

>  <SCORE.RESTR>
0

>  <SCORE.RESTR.CAVITY>
0

>  <SCORE.RESTR.norm>
0

>  <SCORE.SYSTEM>
0

>  <SCORE.SYSTEM.CONST>
0

>  <SCORE.SYSTEM.DIHEDRAL>
0

>  <SCORE.SYSTEM.SOLV>
0

>  <SCORE.SYSTEM.norm>
0

>  <SCORE.heavy>
25

>  <SCORE.norm>
-0.828902

>  <RMSD>
7.051

$$$$
1uud_lig
 OpenBabel11021811413D
libRbt.so/2013.1/901 2013/11/27
 25 25  0  0  0  0  0  0  0  0999 V2000
   -2.6467   -8.3684   -2.9943 C   0  0  0  0  0  0  0  0  0  0  0  0
   -5.5329   -8.7165   -2.6055 O   0  0  0  0  0  0  0  0  0  0  0  0
   -5.8257   -9.8676   -3.4115 C   0  0  0  0  0  0  0  0  0  0  0  0
   -1.3487   -9.0293   -3.2779 N   0  0  0  0  0  0  0  0  0  0  0  0
   -6.6208   -9.4533   -4.6571 C   0  0  0  0  0  0  0  0  0  0  0  0
   -1.5510  -10.4901   -3.4266 C   0  0  0  0  0  0  0  0  0  0  0  0
   -2.3564  -10.7691   -4.7014 C   0  0  0  0  0  0  0  0  0  0  0  0
   -7.7986   -8.9965   -4.3038 N   0  0  0  0  0  0  0  0  0  0  0  0
   -7.9265   -7.8796   -3.6123 C   0  0  0  0  0  0  0  0  0  0  0  0
   -2.3654  -12.2735   -4.9934 C   0  0  0  0  0  0  0  0  0  0  0  0
   -3.5248  -12.6045   -5.9376 C   0  0  0  0  0  0  0  0  0  0  0  0
   -7.9718   -7.8865   -2.2454 N   0  0  0  0  0  0  0  0  0  0  0  0
   -8.0165   -6.6968   -4.2735 N   0  0  0  0  0  0  0  0  0  0  0  0
   -3.2896  -12.0999   -7.1256 N   0  0  0  0  0  0  0  0  0  0  0  0
   -3.5090  -12.7947   -8.2254 C   0  0  0  0  0  0  0  0  0  0  0  0
   -4.7643  -13.2408   -8.4876 N   0  0  0  0  0  0  0  0  0  0  0  0
   -2.5010  -13.0843   -9.1008 N   0  0  0  0  0  0  0  0  0  0  0  0
   -4.6496   -9.0764   -1.5356 C   0  0  0  0  0  0  0  0  0  0  0  0
   -2.0324  -10.1969    1.6496 O   0  0  0  0  0  0  0  0  0  0  0  0
   -3.2405   -8.9280   -1.6849 C   0  0  0  0  0  0  0  0  0  0  0  0
   -2.3721   -9.3094   -0.6272 C   0  0  0  0  0  0  0  0  0  0  0  0
   -2.9085   -9.8176    0.5850 C   0  0  0  0  0  0  0  0  0  0  0  0
   -4.3147   -9.9477    0.7422 C   0  0  0  0  0  0  0  0  0  0  0  0
   -5.1870   -9.5707   -0.3147 C   0  0  0  0  0  0  0  0  0  0  0  0
   -1.0615  -11.1278    1.1625 C   0  0  0  0  0  0  0  0  0  0  0  0
  1  4  1  0  0  0  0
  2  3  1  0  0  0  0
  3  5  1  0  0  0  0
  4  6  1  0  0  0  0
  5  8  1  0  0  0  0
  6  7  1  0  0  0  0
  7 10  1  0  0  0  0
  8  9  1  0  0  0  0
  9 12  1  0  0  0  0
  9 13  1  0  0  0  0
 10 11  1  0  0  0  0
 11 14  1  0  0  0  0
 14 15  1  0  0  0  0
 15 16  1  0  0  0  0
 15 17  1  0  0  0  0
 18  2  1  0  0  0  0
 18 20  2  0  0  0  0
 18 24  1  0  0  0  0
 19 25  1  0  0  0  0
 20  1  1  0  0  0  0
 20 21  1  0  0  0  0
 21 22  2  0  0  0  0
 22 19  1  0  0  0  0
 22 23  1  0  0  0  0
 23 24  2  0  0  0  0
M  END
>  <CHROM.1>
60.28456171,-172.71115323,-65.57874000,67.95370257,66.10442091,170.33265267
160.57044596,-91.88818592,82.47846220,-151.46575223,68.87588597,135.94160378
60.00933184,74.97405157,-71.33646076,93.73843283,-145.38566762,-53.87300383
-4.15068179,-10.09748609,-3.42180938,-1.59464589,0.48986951,-1.95595919

>  <Name>
1uud_lig

>  <RI>
0

>  <Rbt.Current_Directory>
/home/itssahil/PROJECTS/Mol_Feturizer/New_Systems/rnas/1uud

>  <Rbt.Executable>
rbdock ($Id: //depot/dev/client3/rdock/2013.1/src/exe/rbdock.cxx#4 $)

>  <Rbt.Library>
libRbt.so (2013.1, Build901 2013/11/27)

>  <Rbt.Parameter_File>
/export/apps/rDock/src/rDock_2013.1_src/data/scripts/dock_solv.prm

>  <Rbt.Receptor>
prm/pocket_docking_4.prm

>  <SCORE>
-27.7088

>  <SCORE.INTER>
-19.8848

>  <SCORE.INTER.CONST>
1

>  <SCORE.INTER.POLAR>
-3.8042

>  <SCORE.INTER.ROT>
18

>  <SCORE.INTER.SOLV>
8.8994

>  <SCORE.INTER.VDW>
-19.1423

>  <SCORE.INTER.norm>
-0.795391

>  <SCORE.INTRA>
-7.82397

>  <SCORE.INTRA.DIHEDRAL>
-9.86053

>  <SCORE.INTRA.DIHEDRAL.0>
30.6762

>  <SCORE.INTRA.POLAR>
-0.31483

>  <SCORE.INTRA.POLAR.0>
-0.0288659

>  <SCORE.INTRA.REPUL>
0

>  <SCORE.INTRA.REPUL.0>
0

>  <SCORE.INTRA.SOLV>
-0.0776443

>  <SCORE.INTRA.SOLV.lig_0>
-25.2195

>  <SCORE.INTRA.VDW>
-1.78446

>  <SCORE.INTRA.VDW.0>
4.14263

>  <SCORE.INTRA.norm>
-0.312959

>  <SCORE.RESTR>
0

>  <SCORE.RESTR.CAVITY>
0

>  <SCORE.RESTR.norm>
0

>  <SCORE.SYSTEM>
0

>  <SCORE.SYSTEM.CONST>
0

>  <SCORE.SYSTEM.DIHEDRAL>
0

>  <SCORE.SYSTEM.SOLV>
0

>  <SCORE.SYSTEM.norm>
0

>  <SCORE.heavy>
25

>  <SCORE.norm>
-1.10835

>  <RMSD>
7.054

$$$$
1uud_lig
 OpenBabel11021811413D
libRbt.so/2013.1/901 2013/11/27
 25 25  0  0  0  0  0  0  0  0999 V2000
   -4.3112  -11.3948   -4.9926 C   0  0  0  0  0  0  0  0  0  0  0  0
   -4.9759   -8.5400   -4.8895 O   0  0  0  0  0  0  0  0  0  0  0  0
   -6.0025   -7.9285   -5.6849 C   0  0  0  0  0  0  0  0  0  0  0  0
   -3.4066  -12.0417   -4.0101 N   0  0  0  0  0  0  0  0  0  0  0  0
   -7.3390   -7.9489   -4.9309 C   0  0  0  0  0  0  0  0  0  0  0  0
   -3.2196  -13.4689   -4.3636 C   0  0  0  0  0  0  0  0  0  0  0  0
   -1.8913  -13.6425   -5.1101 C   0  0  0  0  0  0  0  0  0  0  0  0
   -7.2261   -7.2882   -3.8033 N   0  0  0  0  0  0  0  0  0  0  0  0
   -8.1173   -7.4136   -2.8379 C   0  0  0  0  0  0  0  0  0  0  0  0
   -1.7528  -15.0888   -5.5977 C   0  0  0  0  0  0  0  0  0  0  0  0
   -0.4452  -15.2420   -6.3800 C   0  0  0  0  0  0  0  0  0  0  0  0
   -7.7397   -7.5765   -1.5335 N   0  0  0  0  0  0  0  0  0  0  0  0
   -9.4392   -7.3816   -3.1473 N   0  0  0  0  0  0  0  0  0  0  0  0
   -0.2544  -16.5034   -6.6861 N   0  0  0  0  0  0  0  0  0  0  0  0
    0.0876  -17.3906   -5.7716 C   0  0  0  0  0  0  0  0  0  0  0  0
    0.8876  -18.4297   -6.1236 N   0  0  0  0  0  0  0  0  0  0  0  0
   -0.3525  -17.2936   -4.4820 N   0  0  0  0  0  0  0  0  0  0  0  0
   -3.8902   -8.9605   -5.7256 C   0  0  0  0  0  0  0  0  0  0  0  0
   -0.6225  -10.1862   -8.1893 O   0  0  0  0  0  0  0  0  0  0  0  0
   -3.5309  -10.3371   -5.8005 C   0  0  0  0  0  0  0  0  0  0  0  0
   -2.4384  -10.7408   -6.6141 C   0  0  0  0  0  0  0  0  0  0  0  0
   -1.7191   -9.7767   -7.3681 C   0  0  0  0  0  0  0  0  0  0  0  0
   -2.0890   -8.4061   -7.3091 C   0  0  0  0  0  0  0  0  0  0  0  0
   -3.1790   -7.9973   -6.4938 C   0  0  0  0  0  0  0  0  0  0  0  0
    0.4215  -10.7145   -7.3662 C   0  0  0  0  0  0  0  0  0  0  0  0
  1  4  1  0  0  0  0
  2  3  1  0  0  0  0
  3  5  1  0  0  0  0
  4  6  1  0  0  0  0
  5  8  1  0  0  0  0
  6  7  1  0  0  0  0
  7 10  1  0  0  0  0
  8  9  1  0  0  0  0
  9 12  1  0  0  0  0
  9 13  1  0  0  0  0
 10 11  1  0  0  0  0
 11 14  1  0  0  0  0
 14 15  1  0  0  0  0
 15 16  1  0  0  0  0
 15 17  1  0  0  0  0
 18  2  1  0  0  0  0
 18 20  2  0  0  0  0
 18 24  1  0  0  0  0
 19 25  1  0  0  0  0
 20  1  1  0  0  0  0
 20 21  1  0  0  0  0
 21 22  2  0  0  0  0
 22 19  1  0  0  0  0
 22 23  1  0  0  0  0
 23 24  2  0  0  0  0
M  END
>  <CHROM.1>
-113.77982735,159.15430674,60.03639477,99.20099015,-164.04147283,-174.57078226
178.21046585,134.61219870,-157.13933757,-19.80249775,173.76027834,-72.37065575
-147.40862976,37.01582925,84.08553122,-118.71004828,-117.05490745,-64.32375399
-3.31247031,-11.32323870,-5.35721913,2.45626939,0.64394311,-0.39474301

>  <Name>
1uud_lig

>  <RI>
0

>  <Rbt.Current_Directory>
/home/itssahil/PROJECTS/Mol_Feturizer/New_Systems/rnas/1uud

>  <Rbt.Executable>
rbdock ($Id: //depot/dev/client3/rdock/2013.1/src/exe/rbdock.cxx#4 $)

>  <Rbt.Library>
libRbt.so (2013.1, Build901 2013/11/27)

>  <Rbt.Parameter_File>
/export/apps/rDock/src/rDock_2013.1_src/data/scripts/dock_solv.prm

>  <Rbt.Receptor>
prm/pocket_docking_7.prm

>  <SCORE>
-24.0913

>  <SCORE.INTER>
-19.1357

>  <SCORE.INTER.CONST>
1

>  <SCORE.INTER.POLAR>
-4.14067

>  <SCORE.INTER.ROT>
18

>  <SCORE.INTER.SOLV>
7.35733

>  <SCORE.INTER.VDW>
-17.0074

>  <SCORE.INTER.norm>
-0.765429

>  <SCORE.INTRA>
-4.95562

>  <SCORE.INTRA.DIHEDRAL>
-4.44123

>  <SCORE.INTRA.DIHEDRAL.0>
30.6762

>  <SCORE.INTRA.POLAR>
0.0288659

>  <SCORE.INTRA.POLAR.0>
-0.0288659

>  <SCORE.INTRA.REPUL>
0

>  <SCORE.INTRA.REPUL.0>
0

>  <SCORE.INTRA.SOLV>
-1.03857

>  <SCORE.INTRA.SOLV.lig_0>
-25.2195

>  <SCORE.INTRA.VDW>
-2.31386

>  <SCORE.INTRA.VDW.0>
4.14263

>  <SCORE.INTRA.norm>
-0.198225

>  <SCORE.RESTR>
0

>  <SCORE.RESTR.CAVITY>
0

>  <SCORE.RESTR.norm>
0

>  <SCORE.SYSTEM>
0

>  <SCORE.SYSTEM.CONST>
0

>  <SCORE.SYSTEM.DIHEDRAL>
0

>  <SCORE.SYSTEM.SOLV>
0

>  <SCORE.SYSTEM.norm>
0

>  <SCORE.heavy>
25

>  <SCORE.norm>
-0.963654

>  <RMSD>
7.065

$$$$
1uud_lig
 OpenBabel11021811413D
libRbt.so/2013.1/901 2013/11/27
 25 25  0  0  0  0  0  0  0  0999 V2000
   -2.1889   -9.7374   -3.4332 C   0  0  0  0  0  0  0  0  0  0  0  0
   -4.9182   -9.6977   -2.3600 O   0  0  0  0  0  0  0  0  0  0  0  0
   -4.9148  -10.8461   -3.2211 C   0  0  0  0  0  0  0  0  0  0  0  0
   -0.8752  -10.3676   -3.7147 N   0  0  0  0  0  0  0  0  0  0  0  0
   -6.2952  -11.0281   -3.8663 C   0  0  0  0  0  0  0  0  0  0  0  0
   -0.8227  -10.8085   -5.1288 C   0  0  0  0  0  0  0  0  0  0  0  0
   -1.0365  -12.3253   -5.2013 C   0  0  0  0  0  0  0  0  0  0  0  0
   -6.6766   -9.9064   -4.4294 N   0  0  0  0  0  0  0  0  0  0  0  0
   -7.4466   -9.0426   -3.7947 C   0  0  0  0  0  0  0  0  0  0  0  0
   -2.4770  -12.6681   -4.8061 C   0  0  0  0  0  0  0  0  0  0  0  0
   -3.3035  -12.9367   -6.0670 C   0  0  0  0  0  0  0  0  0  0  0  0
   -7.9831   -7.9590   -4.4339 N   0  0  0  0  0  0  0  0  0  0  0  0
   -7.7110   -9.2335   -2.4764 N   0  0  0  0  0  0  0  0  0  0  0  0
   -3.2863  -14.2185   -6.3462 N   0  0  0  0  0  0  0  0  0  0  0  0
   -3.0043  -14.6563   -7.5583 C   0  0  0  0  0  0  0  0  0  0  0  0
   -4.0162  -15.0608   -8.3683 N   0  0  0  0  0  0  0  0  0  0  0  0
   -1.7179  -14.7217   -8.0133 N   0  0  0  0  0  0  0  0  0  0  0  0
   -3.8216   -9.7690   -1.4398 C   0  0  0  0  0  0  0  0  0  0  0  0
   -0.5697  -10.0267    1.3187 O   0  0  0  0  0  0  0  0  0  0  0  0
   -2.4802   -9.7958   -1.9193 C   0  0  0  0  0  0  0  0  0  0  0  0
   -1.4011   -9.8900   -1.0000 C   0  0  0  0  0  0  0  0  0  0  0  0
   -1.6578   -9.9360    0.3955 C   0  0  0  0  0  0  0  0  0  0  0  0
   -2.9944   -9.8896    0.8755 C   0  0  0  0  0  0  0  0  0  0  0  0
   -4.0771   -9.7989   -0.0406 C   0  0  0  0  0  0  0  0  0  0  0  0
    0.1058  -11.2753    1.1421 C   0  0  0  0  0  0  0  0  0  0  0  0
  1  4  1  0  0  0  0
  2  3  1  0  0  0  0
  3  5  1  0  0  0  0
  4  6  1  0  0  0  0
  5  8  1  0  0  0  0
  6  7  1  0  0  0  0
  7 10  1  0  0  0  0
  8  9  1  0  0  0  0
  9 12  1  0  0  0  0
  9 13  1  0  0  0  0
 10 11  1  0  0  0  0
 11 14  1  0  0  0  0
 14 15  1  0  0  0  0
 15 16  1  0  0  0  0
 15 17  1  0  0  0  0
 18  2  1  0  0  0  0
 18 20  2  0  0  0  0
 18 24  1  0  0  0  0
 19 25  1  0  0  0  0
 20  1  1  0  0  0  0
 20 21  1  0  0  0  0
 21 22  2  0  0  0  0
 22 19  1  0  0  0  0
 22 23  1  0  0  0  0
 23 24  2  0  0  0  0
M  END
>  <CHROM.1>
157.33993845,161.05448261,51.87460103,-102.52714130,-94.78637012,68.38225164
101.32168994,-171.56904280,105.25877046,50.50340895,92.45056157,-130.61164934
-101.89253401,-160.35729120,2.99284733,61.02038151,-154.81726286,-64.94502221
-3.44919590,-11.05603319,-3.43444574,-1.52580312,0.38348554,-2.12685582

>  <Name>
1uud_lig

>  <RI>
0

>  <Rbt.Current_Directory>
/home/itssahil/PROJECTS/Mol_Feturizer/New_Systems/rnas/1uud

>  <Rbt.Executable>
rbdock ($Id: //depot/dev/client3/rdock/2013.1/src/exe/rbdock.cxx#4 $)

>  <Rbt.Library>
libRbt.so (2013.1, Build901 2013/11/27)

>  <Rbt.Parameter_File>
/export/apps/rDock/src/rDock_2013.1_src/data/scripts/dock_solv.prm

>  <Rbt.Receptor>
prm/pocket_docking_7.prm

>  <SCORE>
-28.1475

>  <SCORE.INTER>
-24.2266

>  <SCORE.INTER.CONST>
1

>  <SCORE.INTER.POLAR>
-4.71083

>  <SCORE.INTER.ROT>
18

>  <SCORE.INTER.SOLV>
9.36632

>  <SCORE.INTER.VDW>
-19.1704

>  <SCORE.INTER.norm>
-0.969063

>  <SCORE.INTRA>
-3.92089

>  <SCORE.INTRA.DIHEDRAL>
1.25581

>  <SCORE.INTRA.DIHEDRAL.0>
30.6762

>  <SCORE.INTRA.POLAR>
-0.493946

>  <SCORE.INTRA.POLAR.0>
-0.0288659

>  <SCORE.INTRA.REPUL>
0

>  <SCORE.INTRA.REPUL.0>
0

>  <SCORE.INTRA.SOLV>
-0.158996

>  <SCORE.INTRA.SOLV.lig_0>
-25.2195

>  <SCORE.INTRA.VDW>
-2.78988

>  <SCORE.INTRA.VDW.0>
4.14263

>  <SCORE.INTRA.norm>
-0.156836

>  <SCORE.RESTR>
0

>  <SCORE.RESTR.CAVITY>
0

>  <SCORE.RESTR.norm>
0

>  <SCORE.SYSTEM>
0

>  <SCORE.SYSTEM.CONST>
0

>  <SCORE.SYSTEM.DIHEDRAL>
0

>  <SCORE.SYSTEM.SOLV>
0

>  <SCORE.SYSTEM.norm>
0

>  <SCORE.heavy>
25

>  <SCORE.norm>
-1.1259

>  <RMSD>
7.079

$$$$
1uud_lig
 OpenBabel11021811413D
libRbt.so/2013.1/901 2013/11/27
 25 25  0  0  0  0  0  0  0  0999 V2000
   -3.4238   -9.7886   -2.4750 C   0  0  0  0  0  0  0  0  0  0  0  0
   -6.2546   -9.8784   -1.7127 O   0  0  0  0  0  0  0  0  0  0  0  0
   -7.2861   -8.8813   -1.6675 C   0  0  0  0  0  0  0  0  0  0  0  0
   -3.9069  -11.1012   -2.9709 N   0  0  0  0  0  0  0  0  0  0  0  0
   -6.7306   -7.5239   -2.1191 C   0  0  0  0  0  0  0  0  0  0  0  0
   -3.3666  -11.3551   -4.3275 C   0  0  0  0  0  0  0  0  0  0  0  0
   -3.5671  -12.8313   -4.6914 C   0  0  0  0  0  0  0  0  0  0  0  0
   -6.5848   -6.7335   -1.0823 N   0  0  0  0  0  0  0  0  0  0  0  0
   -7.5577   -5.9382   -0.6788 C   0  0  0  0  0  0  0  0  0  0  0  0
   -2.8646  -13.1412   -6.0177 C   0  0  0  0  0  0  0  0  0  0  0  0
   -1.3481  -13.1464   -5.8045 C   0  0  0  0  0  0  0  0  0  0  0  0
   -8.8475   -6.1178   -1.0969 N   0  0  0  0  0  0  0  0  0  0  0  0
   -7.2711   -4.9176    0.1699 N   0  0  0  0  0  0  0  0  0  0  0  0
   -1.0511  -13.8457   -4.7350 N   0  0  0  0  0  0  0  0  0  0  0  0
   -0.7227  -15.1210   -4.8144 C   0  0  0  0  0  0  0  0  0  0  0  0
   -1.5484  -15.9780   -5.4682 N   0  0  0  0  0  0  0  0  0  0  0  0
    0.4230  -15.6007   -4.2456 N   0  0  0  0  0  0  0  0  0  0  0  0
   -5.2789   -9.6239   -0.6940 C   0  0  0  0  0  0  0  0  0  0  0  0
   -2.3844   -8.9083    2.3655 O   0  0  0  0  0  0  0  0  0  0  0  0
   -3.8928   -9.5772   -1.0205 C   0  0  0  0  0  0  0  0  0  0  0  0
   -2.9320   -9.3475    0.0004 C   0  0  0  0  0  0  0  0  0  0  0  0
   -3.3534   -9.1434    1.3406 C   0  0  0  0  0  0  0  0  0  0  0  0
   -4.7367   -9.1704    1.6639 C   0  0  0  0  0  0  0  0  0  0  0  0
   -5.7013   -9.4035    0.6464 C   0  0  0  0  0  0  0  0  0  0  0  0
   -2.1229   -7.5053    2.4650 C   0  0  0  0  0  0  0  0  0  0  0  0
  1  4  1  0  0  0  0
  2  3  1  0  0  0  0
  3  5  1  0  0  0  0
  4  6  1  0  0  0  0
  5  8  1  0  0  0  0
  6  7  1  0  0  0  0
  7 10  1  0  0  0  0
  8  9  1  0  0  0  0
  9 12  1  0  0  0  0
  9 13  1  0  0  0  0
 10 11  1  0  0  0  0
 11 14  1  0  0  0  0
 14 15  1  0  0  0  0
 15 16  1  0  0  0  0
 15 17  1  0  0  0  0
 18  2  1  0  0  0  0
 18 20  2  0  0  0  0
 18 24  1  0  0  0  0
 19 25  1  0  0  0  0
 20  1  1  0  0  0  0
 20 21  1  0  0  0  0
 21 22  2  0  0  0  0
 22 19  1  0  0  0  0
 22 23  1  0  0  0  0
 23 24  2  0  0  0  0
M  END
>  <CHROM.1>
-175.44388588,69.21472624,-106.19130552,165.90216549,-89.86044868,-173.27342740
72.07002413,15.97770731,-110.00031729,144.91714648,46.75245274,94.58011728
-52.93619827,65.80601469,-54.00973012,-128.99869337,-57.13495500,88.95757305
-4.08799745,-10.20295459,-1.91248868,0.94044272,0.60116752,-2.14697123

>  <Name>
1uud_lig

>  <RI>
0

>  <Rbt.Current_Directory>
/home/itssahil/PROJECTS/Mol_Feturizer/New_Systems/rnas/1uud

>  <Rbt.Executable>
rbdock ($Id: //depot/dev/client3/rdock/2013.1/src/exe/rbdock.cxx#4 $)

>  <Rbt.Library>
libRbt.so (2013.1, Build901 2013/11/27)

>  <Rbt.Parameter_File>
/export/apps/rDock/src/rDock_2013.1_src/data/scripts/dock_solv.prm

>  <Rbt.Receptor>
prm/pocket_docking_5.prm

>  <SCORE>
-26.6121

>  <SCORE.INTER>
-19.1577

>  <SCORE.INTER.CONST>
1

>  <SCORE.INTER.POLAR>
-4.651

>  <SCORE.INTER.ROT>
18

>  <SCORE.INTER.SOLV>
7.88552

>  <SCORE.INTER.VDW>
-15.4969

>  <SCORE.INTER.norm>
-0.766306

>  <SCORE.INTRA>
-7.45447

>  <SCORE.INTRA.DIHEDRAL>
-5.51762

>  <SCORE.INTRA.DIHEDRAL.0>
30.6762

>  <SCORE.INTRA.POLAR>
-0.383271

>  <SCORE.INTRA.POLAR.0>
-0.0288659

>  <SCORE.INTRA.REPUL>
0

>  <SCORE.INTRA.REPUL.0>
0

>  <SCORE.INTRA.SOLV>
0.155006

>  <SCORE.INTRA.SOLV.lig_0>
-25.2195

>  <SCORE.INTRA.VDW>
-3.47004

>  <SCORE.INTRA.VDW.0>
4.14263

>  <SCORE.INTRA.norm>
-0.298179

>  <SCORE.RESTR>
0

>  <SCORE.RESTR.CAVITY>
0

>  <SCORE.RESTR.norm>
0

>  <SCORE.SYSTEM>
0

>  <SCORE.SYSTEM.CONST>
0

>  <SCORE.SYSTEM.DIHEDRAL>
0

>  <SCORE.SYSTEM.SOLV>
0

>  <SCORE.SYSTEM.norm>
0

>  <SCORE.heavy>
25

>  <SCORE.norm>
-1.06448

>  <RMSD>
7.080

$$$$
1uud_lig
 OpenBabel11021811413D
libRbt.so/2013.1/901 2013/11/27
 25 25  0  0  0  0  0  0  0  0999 V2000
   -1.2297   -7.9117   -4.9321 C   0  0  0  0  0  0  0  0  0  0  0  0
   -1.4050   -9.4661   -2.4511 O   0  0  0  0  0  0  0  0  0  0  0  0
   -0.2489   -9.4839   -1.6006 C   0  0  0  0  0  0  0  0  0  0  0  0
   -2.2212   -7.9950   -6.0331 N   0  0  0  0  0  0  0  0  0  0  0  0
   -0.5192  -10.3425   -0.3576 C   0  0  0  0  0  0  0  0  0  0  0  0
   -1.5355   -8.3380   -7.3014 C   0  0  0  0  0  0  0  0  0  0  0  0
   -2.4311   -9.2626   -8.1349 C   0  0  0  0  0  0  0  0  0  0  0  0
   -1.3878   -9.7414    0.4203 N   0  0  0  0  0  0  0  0  0  0  0  0
   -2.4566  -10.3683    0.8747 C   0  0  0  0  0  0  0  0  0  0  0  0
   -2.4990  -10.6483   -7.4836 C   0  0  0  0  0  0  0  0  0  0  0  0
   -3.7084  -11.4121   -8.0307 C   0  0  0  0  0  0  0  0  0  0  0  0
   -3.3658  -10.9379    0.0264 N   0  0  0  0  0  0  0  0  0  0  0  0
   -2.6589  -10.4482    2.2152 N   0  0  0  0  0  0  0  0  0  0  0  0
   -3.9232  -12.4842   -7.3058 N   0  0  0  0  0  0  0  0  0  0  0  0
   -3.9020  -13.6914   -7.8373 C   0  0  0  0  0  0  0  0  0  0  0  0
   -3.1599  -14.6625   -7.2458 N   0  0  0  0  0  0  0  0  0  0  0  0
   -4.6007  -13.9842   -8.9741 N   0  0  0  0  0  0  0  0  0  0  0  0
   -1.9765   -8.1518   -2.4775 C   0  0  0  0  0  0  0  0  0  0  0  0
   -3.6473   -4.2203   -2.5208 O   0  0  0  0  0  0  0  0  0  0  0  0
   -1.9086   -7.3612   -3.6609 C   0  0  0  0  0  0  0  0  0  0  0  0
   -2.4576   -6.0509   -3.6697 C   0  0  0  0  0  0  0  0  0  0  0  0
   -3.0920   -5.5379   -2.5079 C   0  0  0  0  0  0  0  0  0  0  0  0
   -3.1774   -6.3330   -1.3334 C   0  0  0  0  0  0  0  0  0  0  0  0
   -2.6264   -7.6430   -1.3189 C   0  0  0  0  0  0  0  0  0  0  0  0
   -2.6071   -3.2598   -2.3161 C   0  0  0  0  0  0  0  0  0  0  0  0
  1  4  1  0  0  0  0
  2  3  1  0  0  0  0
  3  5  1  0  0  0  0
  4  6  1  0  0  0  0
  5  8  1  0  0  0  0
  6  7  1  0  0  0  0
  7 10  1  0  0  0  0
  8  9  1  0  0  0  0
  9 12  1  0  0  0  0
  9 13  1  0  0  0  0
 10 11  1  0  0  0  0
 11 14  1  0  0  0  0
 14 15  1  0  0  0  0
 15 16  1  0  0  0  0
 15 17  1  0  0  0  0
 18  2  1  0  0  0  0
 18 20  2  0  0  0  0
 18 24  1  0  0  0  0
 19 25  1  0  0  0  0
 20  1  1  0  0  0  0
 20 21  1  0  0  0  0
 21 22  2  0  0  0  0
 22 19  1  0  0  0  0
 22 23  1  0  0  0  0
 23 24  2  0  0  0  0
M  END
>  <CHROM.1>
172.00057596,112.63018697,-69.77349737,143.63268429,129.44130019,-70.99044775
161.89399359,-57.38699487,-121.59868342,-102.91114334,-168.10464729,-120.76744757
130.23860837,-85.17230011,-47.16315182,110.74680560,118.09437388,-80.66739948
-2.53324025,-9.26759700,-3.77193823,2.93735518,1.44081835,2.73893393

>  <Name>
1uud_lig

>  <RI>
0

>  <Rbt.Current_Directory>
/home/itssahil/PROJECTS/Mol_Feturizer/New_Systems/rnas/1uud

>  <Rbt.Executable>
rbdock ($Id: //depot/dev/client3/rdock/2013.1/src/exe/rbdock.cxx#4 $)

>  <Rbt.Library>
libRbt.so (2013.1, Build901 2013/11/27)

>  <Rbt.Parameter_File>
/export/apps/rDock/src/rDock_2013.1_src/data/scripts/dock_solv.prm

>  <Rbt.Receptor>
prm/pocket_docking_7.prm

>  <SCORE>
-14.8629

>  <SCORE.INTER>
-9.34731

>  <SCORE.INTER.CONST>
1

>  <SCORE.INTER.POLAR>
-3.02506

>  <SCORE.INTER.ROT>
18

>  <SCORE.INTER.SOLV>
10.1665

>  <SCORE.INTER.VDW>
-15.1369

>  <SCORE.INTER.norm>
-0.373892

>  <SCORE.INTRA>
-5.5156

>  <SCORE.INTRA.DIHEDRAL>
0.593965

>  <SCORE.INTRA.DIHEDRAL.0>
30.6762

>  <SCORE.INTRA.POLAR>
0.0288659

>  <SCORE.INTRA.POLAR.0>
-0.0288659

>  <SCORE.INTRA.REPUL>
0

>  <SCORE.INTRA.REPUL.0>
0

>  <SCORE.INTRA.SOLV>
-0.3775

>  <SCORE.INTRA.SOLV.lig_0>
-25.2195

>  <SCORE.INTRA.VDW>
-5.72198

>  <SCORE.INTRA.VDW.0>
4.14263

>  <SCORE.INTRA.norm>
-0.220624

>  <SCORE.RESTR>
0

>  <SCORE.RESTR.CAVITY>
0

>  <SCORE.RESTR.norm>
0

>  <SCORE.SYSTEM>
0

>  <SCORE.SYSTEM.CONST>
0

>  <SCORE.SYSTEM.DIHEDRAL>
0

>  <SCORE.SYSTEM.SOLV>
0

>  <SCORE.SYSTEM.norm>
0

>  <SCORE.heavy>
25

>  <SCORE.norm>
-0.594517

>  <RMSD>
7.083

$$$$
1uud_lig
 OpenBabel11021811413D
libRbt.so/2013.1/901 2013/11/27
 25 25  0  0  0  0  0  0  0  0999 V2000
   -5.1791   -9.2930   -3.3827 C   0  0  0  0  0  0  0  0  0  0  0  0
   -2.7307   -9.3549   -1.7691 O   0  0  0  0  0  0  0  0  0  0  0  0
   -2.0821  -10.6340   -1.7089 C   0  0  0  0  0  0  0  0  0  0  0  0
   -5.6313  -10.5809   -3.9651 N   0  0  0  0  0  0  0  0  0  0  0  0
   -1.3488  -10.7932   -0.3702 C   0  0  0  0  0  0  0  0  0  0  0  0
   -4.4599  -11.3587   -4.4335 C   0  0  0  0  0  0  0  0  0  0  0  0
   -4.3270  -11.2195   -5.9549 C   0  0  0  0  0  0  0  0  0  0  0  0
   -0.2569  -10.0662   -0.3697 N   0  0  0  0  0  0  0  0  0  0  0  0
    0.7925  -10.3978    0.3590 C   0  0  0  0  0  0  0  0  0  0  0  0
   -3.2821  -12.2102   -6.4796 C   0  0  0  0  0  0  0  0  0  0  0  0
   -3.5057  -12.4449   -7.9764 C   0  0  0  0  0  0  0  0  0  0  0  0
    0.7916  -11.5165    1.1457 N   0  0  0  0  0  0  0  0  0  0  0  0
    1.8976   -9.6091    0.3277 N   0  0  0  0  0  0  0  0  0  0  0  0
   -2.7178  -13.4049   -8.3993 N   0  0  0  0  0  0  0  0  0  0  0  0
   -3.0804  -14.6718   -8.3374 C   0  0  0  0  0  0  0  0  0  0  0  0
   -2.9524  -15.3406   -7.1627 N   0  0  0  0  0  0  0  0  0  0  0  0
   -3.5717  -15.3288   -9.4297 N   0  0  0  0  0  0  0  0  0  0  0  0
   -3.9954   -9.4121   -1.0969 C   0  0  0  0  0  0  0  0  0  0  0  0
   -7.7542   -9.5387    0.9294 O   0  0  0  0  0  0  0  0  0  0  0  0
   -5.2090   -9.3793   -1.8426 C   0  0  0  0  0  0  0  0  0  0  0  0
   -6.4575   -9.4130   -1.1656 C   0  0  0  0  0  0  0  0  0  0  0  0
   -6.4962   -9.5008    0.2508 C   0  0  0  0  0  0  0  0  0  0  0  0
   -5.2864   -9.5532    0.9942 C   0  0  0  0  0  0  0  0  0  0  0  0
   -4.0351   -9.5162    0.3213 C   0  0  0  0  0  0  0  0  0  0  0  0
   -8.1229   -8.2156    1.3295 C   0  0  0  0  0  0  0  0  0  0  0  0
  1  4  1  0  0  0  0
  2  3  1  0  0  0  0
  3  5  1  0  0  0  0
  4  6  1  0  0  0  0
  5  8  1  0  0  0  0
  6  7  1  0  0  0  0
  7 10  1  0  0  0  0
  8  9  1  0  0  0  0
  9 12  1  0  0  0  0
  9 13  1  0  0  0  0
 10 11  1  0  0  0  0
 11 14  1  0  0  0  0
 14 15  1  0  0  0  0
 15 16  1  0  0  0  0
 15 17  1  0  0  0  0
 18  2  1  0  0  0  0
 18 20  2  0  0  0  0
 18 24  1  0  0  0  0
 19 25  1  0  0  0  0
 20  1  1  0  0  0  0
 20 21  1  0  0  0  0
 21 22  2  0  0  0  0
 22 19  1  0  0  0  0
 22 23  1  0  0  0  0
 23 24  2  0  0  0  0
M  END
>  <CHROM.1>
-102.20092907,-82.82639662,-74.54130956,-101.10816208,-152.27734341,-169.94415707
159.35368063,0.13248410,-158.80911646,-75.60122313,-172.73281453,87.42654889
-80.97857469,82.74753565,-47.20659944,-108.24926388,109.72574293,-94.32844795
-3.50338648,-10.96409872,-2.77882953,1.61530989,-0.19487342,1.10363549

>  <Name>
1uud_lig

>  <RI>
0

>  <Rbt.Current_Directory>
/home/itssahil/PROJECTS/Mol_Feturizer/New_Systems/rnas/1uud

>  <Rbt.Executable>
rbdock ($Id: //depot/dev/client3/rdock/2013.1/src/exe/rbdock.cxx#4 $)

>  <Rbt.Library>
libRbt.so (2013.1, Build901 2013/11/27)

>  <Rbt.Parameter_File>
/export/apps/rDock/src/rDock_2013.1_src/data/scripts/dock_solv.prm

>  <Rbt.Receptor>
prm/pocket_docking_7.prm

>  <SCORE>
-28.1694

>  <SCORE.INTER>
-24.2117

>  <SCORE.INTER.CONST>
1

>  <SCORE.INTER.POLAR>
-3.21308

>  <SCORE.INTER.ROT>
18

>  <SCORE.INTER.SOLV>
11.1295

>  <SCORE.INTER.VDW>
-24.7407

>  <SCORE.INTER.norm>
-0.968468

>  <SCORE.INTRA>
-3.95775

>  <SCORE.INTRA.DIHEDRAL>
-0.344234

>  <SCORE.INTRA.DIHEDRAL.0>
30.6762

>  <SCORE.INTRA.POLAR>
0.0288659

>  <SCORE.INTRA.POLAR.0>
-0.0288659

>  <SCORE.INTRA.REPUL>
0

>  <SCORE.INTRA.REPUL.0>
0

>  <SCORE.INTRA.SOLV>
-0.96929

>  <SCORE.INTRA.SOLV.lig_0>
-25.2195

>  <SCORE.INTRA.VDW>
-3.39913

>  <SCORE.INTRA.VDW.0>
4.14263

>  <SCORE.INTRA.norm>
-0.15831

>  <SCORE.RESTR>
0

>  <SCORE.RESTR.CAVITY>
0

>  <SCORE.RESTR.norm>
0

>  <SCORE.SYSTEM>
0

>  <SCORE.SYSTEM.CONST>
0

>  <SCORE.SYSTEM.DIHEDRAL>
0

>  <SCORE.SYSTEM.SOLV>
0

>  <SCORE.SYSTEM.norm>
0

>  <SCORE.heavy>
25

>  <SCORE.norm>
-1.12678

>  <RMSD>
7.089

$$$$
1uud_lig
 OpenBabel11021811413D
libRbt.so/2013.1/901 2013/11/27
 25 25  0  0  0  0  0  0  0  0999 V2000
   -4.0027  -10.0895   -5.2817 C   0  0  0  0  0  0  0  0  0  0  0  0
   -3.9091  -12.7236   -6.5684 O   0  0  0  0  0  0  0  0  0  0  0  0
   -3.2401  -13.1113   -5.3591 C   0  0  0  0  0  0  0  0  0  0  0  0
   -5.3571  -10.6895   -5.3689 N   0  0  0  0  0  0  0  0  0  0  0  0
   -2.0788  -14.0624   -5.6781 C   0  0  0  0  0  0  0  0  0  0  0  0
   -6.3399   -9.8110   -4.6914 C   0  0  0  0  0  0  0  0  0  0  0  0
   -6.4123   -8.4642   -5.4211 C   0  0  0  0  0  0  0  0  0  0  0  0
   -2.5454  -15.1985   -6.1390 N   0  0  0  0  0  0  0  0  0  0  0  0
   -1.7630  -16.0692   -6.7486 C   0  0  0  0  0  0  0  0  0  0  0  0
   -7.7039   -7.7331   -5.0387 C   0  0  0  0  0  0  0  0  0  0  0  0
   -7.5939   -7.2182   -3.6007 C   0  0  0  0  0  0  0  0  0  0  0  0
   -2.0447  -17.4076   -6.7458 N   0  0  0  0  0  0  0  0  0  0  0  0
   -0.6523  -15.6260   -7.3922 N   0  0  0  0  0  0  0  0  0  0  0  0
   -8.7068   -6.6141   -3.2575 N   0  0  0  0  0  0  0  0  0  0  0  0
   -8.7642   -5.8207   -2.2051 C   0  0  0  0  0  0  0  0  0  0  0  0
   -8.7909   -6.3689   -0.9632 N   0  0  0  0  0  0  0  0  0  0  0  0
   -8.8078   -4.4616   -2.3362 N   0  0  0  0  0  0  0  0  0  0  0  0
   -3.2140  -11.6338   -7.1880 C   0  0  0  0  0  0  0  0  0  0  0  0
   -1.1725   -8.3900   -9.0749 O   0  0  0  0  0  0  0  0  0  0  0  0
   -3.2382  -10.3368   -6.5988 C   0  0  0  0  0  0  0  0  0  0  0  0
   -2.5655   -9.2581   -7.2330 C   0  0  0  0  0  0  0  0  0  0  0  0
   -1.8522   -9.4766   -8.4408 C   0  0  0  0  0  0  0  0  0  0  0  0
   -1.8112  -10.7739   -9.0188 C   0  0  0  0  0  0  0  0  0  0  0  0
   -2.4857  -11.8553   -8.3897 C   0  0  0  0  0  0  0  0  0  0  0  0
   -2.1307   -7.4673   -9.6013 C   0  0  0  0  0  0  0  0  0  0  0  0
  1  4  1  0  0  0  0
  2  3  1  0  0  0  0
  3  5  1  0  0  0  0
  4  6  1  0  0  0  0
  5  8  1  0  0  0  0
  6  7  1  0  0  0  0
  7 10  1  0  0  0  0
  8  9  1  0  0  0  0
  9 12  1  0  0  0  0
  9 13  1  0  0  0  0
 10 11  1  0  0  0  0
 11 14  1  0  0  0  0
 14 15  1  0  0  0  0
 15 16  1  0  0  0  0
 15 17  1  0  0  0  0
 18  2  1  0  0  0  0
 18 20  2  0  0  0  0
 18 24  1  0  0  0  0
 19 25  1  0  0  0  0
 20  1  1  0  0  0  0
 20 21  1  0  0  0  0
 21 22  2  0  0  0  0
 22 19  1  0  0  0  0
 22 23  1  0  0  0  0
 23 24  2  0  0  0  0
M  END
>  <CHROM.1>
-142.16345344,-83.21997259,-66.95901970,63.37857725,165.34529835,161.79419374
72.36224000,152.86656575,128.45436553,177.43266585,-178.75777011,-163.96986850
-75.61746406,-24.27959656,136.34867735,-70.68195654,-47.51038927,-69.20071711
-4.33429236,-10.43418518,-5.88523813,2.54979681,0.79374100,-0.31561571

>  <Name>
1uud_lig

>  <RI>
0

>  <Rbt.Current_Directory>
/home/itssahil/PROJECTS/Mol_Feturizer/New_Systems/rnas/1uud

>  <Rbt.Executable>
rbdock ($Id: //depot/dev/client3/rdock/2013.1/src/exe/rbdock.cxx#4 $)

>  <Rbt.Library>
libRbt.so (2013.1, Build901 2013/11/27)

>  <Rbt.Parameter_File>
/export/apps/rDock/src/rDock_2013.1_src/data/scripts/dock_solv.prm

>  <Rbt.Receptor>
prm/pocket_docking_6.prm

>  <SCORE>
-29.2254

>  <SCORE.INTER>
-25.5429

>  <SCORE.INTER.CONST>
1

>  <SCORE.INTER.POLAR>
-4.67324

>  <SCORE.INTER.ROT>
18

>  <SCORE.INTER.SOLV>
7.1585

>  <SCORE.INTER.VDW>
-19.4373

>  <SCORE.INTER.norm>
-1.02172

>  <SCORE.INTRA>
-3.68247

>  <SCORE.INTRA.DIHEDRAL>
-5.02167

>  <SCORE.INTRA.DIHEDRAL.0>
30.6762

>  <SCORE.INTRA.POLAR>
0.0288659

>  <SCORE.INTRA.POLAR.0>
-0.0288659

>  <SCORE.INTRA.REPUL>
0

>  <SCORE.INTRA.REPUL.0>
0

>  <SCORE.INTRA.SOLV>
-0.797805

>  <SCORE.INTRA.SOLV.lig_0>
-25.2195

>  <SCORE.INTRA.VDW>
-0.870874

>  <SCORE.INTRA.VDW.0>
4.14263

>  <SCORE.INTRA.norm>
-0.147299

>  <SCORE.RESTR>
0

>  <SCORE.RESTR.CAVITY>
0

>  <SCORE.RESTR.norm>
0

>  <SCORE.SYSTEM>
0

>  <SCORE.SYSTEM.CONST>
0

>  <SCORE.SYSTEM.DIHEDRAL>
0

>  <SCORE.SYSTEM.SOLV>
0

>  <SCORE.SYSTEM.norm>
0

>  <SCORE.heavy>
25

>  <SCORE.norm>
-1.16902

>  <RMSD>
7.090

$$$$
1uud_lig
 OpenBabel11021811413D
libRbt.so/2013.1/901 2013/11/27
 25 25  0  0  0  0  0  0  0  0999 V2000
   -3.2361  -10.1693   -1.7221 C   0  0  0  0  0  0  0  0  0  0  0  0
   -5.6914   -9.2457   -3.0340 O   0  0  0  0  0  0  0  0  0  0  0  0
   -4.8544   -8.1294   -3.3711 C   0  0  0  0  0  0  0  0  0  0  0  0
   -3.5131  -11.1147   -2.8319 N   0  0  0  0  0  0  0  0  0  0  0  0
   -5.0434   -7.7525   -4.8467 C   0  0  0  0  0  0  0  0  0  0  0  0
   -2.5310  -10.9098   -3.9229 C   0  0  0  0  0  0  0  0  0  0  0  0
   -3.2594  -10.4355   -5.1863 C   0  0  0  0  0  0  0  0  0  0  0  0
   -6.0179   -6.8822   -4.9643 N   0  0  0  0  0  0  0  0  0  0  0  0
   -7.2760   -7.2657   -5.0739 C   0  0  0  0  0  0  0  0  0  0  0  0
   -2.8799  -11.3283   -6.3727 C   0  0  0  0  0  0  0  0  0  0  0  0
   -3.6586  -10.8864   -7.6152 C   0  0  0  0  0  0  0  0  0  0  0  0
   -7.6313   -8.3404   -5.8417 N   0  0  0  0  0  0  0  0  0  0  0  0
   -8.2397   -6.5765   -4.4102 N   0  0  0  0  0  0  0  0  0  0  0  0
   -3.2738  -11.5880   -8.6549 N   0  0  0  0  0  0  0  0  0  0  0  0
   -3.5679  -12.8690   -8.7691 C   0  0  0  0  0  0  0  0  0  0  0  0
   -2.5695  -13.7595   -9.0009 N   0  0  0  0  0  0  0  0  0  0  0  0
   -4.8540  -13.3186   -8.6700 N   0  0  0  0  0  0  0  0  0  0  0  0
   -5.7052   -9.4396   -1.6139 C   0  0  0  0  0  0  0  0  0  0  0  0
   -5.7815  -10.0537    2.6131 O   0  0  0  0  0  0  0  0  0  0  0  0
   -4.5356   -9.8923   -0.9379 C   0  0  0  0  0  0  0  0  0  0  0  0
   -4.5663  -10.1037    0.4666 C   0  0  0  0  0  0  0  0  0  0  0  0
   -5.7544   -9.8440    1.1989 C   0  0  0  0  0  0  0  0  0  0  0  0
   -6.9157   -9.3739    0.5285 C   0  0  0  0  0  0  0  0  0  0  0  0
   -6.8905   -9.1643   -0.8770 C   0  0  0  0  0  0  0  0  0  0  0  0
   -6.7350  -11.0724    2.9283 C   0  0  0  0  0  0  0  0  0  0  0  0
  1  4  1  0  0  0  0
  2  3  1  0  0  0  0
  3  5  1  0  0  0  0
  4  6  1  0  0  0  0
  5  8  1  0  0  0  0
  6  7  1  0  0  0  0
  7 10  1  0  0  0  0
  8  9  1  0  0  0  0
  9 12  1  0  0  0  0
  9 13  1  0  0  0  0
 10 11  1  0  0  0  0
 11 14  1  0  0  0  0
 14 15  1  0  0  0  0
 15 16  1  0  0  0  0
 15 17  1  0  0  0  0
 18  2  1  0  0  0  0
 18 20  2  0  0  0  0
 18 24  1  0  0  0  0
 19 25  1  0  0  0  0
 20  1  1  0  0  0  0
 20 21  1  0  0  0  0
 21 22  2  0  0  0  0
 22 19  1  0  0  0  0
 22 23  1  0  0  0  0
 23 24  2  0  0  0  0
M  END
>  <CHROM.1>
153.57188733,-169.30285548,89.11379244,-116.41625401,-86.26692904,-127.51145521
177.51670142,-40.68025631,-85.04030602,170.39702222,175.84095040,70.02632781
-126.89024809,-40.10901499,22.50683953,-68.75303111,-54.00784474,-117.26589898
-5.00668701,-10.00320643,-3.70052867,-1.99579176,0.90459442,-1.48806285

>  <Name>
1uud_lig

>  <RI>
0

>  <Rbt.Current_Directory>
/home/itssahil/PROJECTS/Mol_Feturizer/New_Systems/rnas/1uud

>  <Rbt.Executable>
rbdock ($Id: //depot/dev/client3/rdock/2013.1/src/exe/rbdock.cxx#4 $)

>  <Rbt.Library>
libRbt.so (2013.1, Build901 2013/11/27)

>  <Rbt.Parameter_File>
/export/apps/rDock/src/rDock_2013.1_src/data/scripts/dock_solv.prm

>  <Rbt.Receptor>
prm/pocket_docking_8.prm

>  <SCORE>
-38.3706

>  <SCORE.INTER>
-33.7221

>  <SCORE.INTER.CONST>
1

>  <SCORE.INTER.POLAR>
-5.67298

>  <SCORE.INTER.ROT>
18

>  <SCORE.INTER.SOLV>
12.6244

>  <SCORE.INTER.VDW>
-23.3796

>  <SCORE.INTER.norm>
-1.34888

>  <SCORE.INTRA>
-4.64854

>  <SCORE.INTRA.DIHEDRAL>
1.24639

>  <SCORE.INTRA.DIHEDRAL.0>
30.6762

>  <SCORE.INTRA.POLAR>
-0.302441

>  <SCORE.INTRA.POLAR.0>
-0.0288659

>  <SCORE.INTRA.REPUL>
0

>  <SCORE.INTRA.REPUL.0>
0

>  <SCORE.INTRA.SOLV>
-0.28939

>  <SCORE.INTRA.SOLV.lig_0>
-25.2195

>  <SCORE.INTRA.VDW>
-4.09875

>  <SCORE.INTRA.VDW.0>
4.14263

>  <SCORE.INTRA.norm>
-0.185942

>  <SCORE.RESTR>
0

>  <SCORE.RESTR.CAVITY>
0

>  <SCORE.RESTR.norm>
0

>  <SCORE.SYSTEM>
0

>  <SCORE.SYSTEM.CONST>
0

>  <SCORE.SYSTEM.DIHEDRAL>
0

>  <SCORE.SYSTEM.SOLV>
0

>  <SCORE.SYSTEM.norm>
0

>  <SCORE.heavy>
25

>  <SCORE.norm>
-1.53482

>  <RMSD>
7.096

$$$$
1uud_lig
 OpenBabel11021811413D
libRbt.so/2013.1/901 2013/11/27
 25 25  0  0  0  0  0  0  0  0999 V2000
   -3.2302  -10.0872   -5.5349 C   0  0  0  0  0  0  0  0  0  0  0  0
   -0.3460  -10.5975   -5.6894 O   0  0  0  0  0  0  0  0  0  0  0  0
   -0.5361  -11.8683   -6.3292 C   0  0  0  0  0  0  0  0  0  0  0  0
   -4.5766  -10.1900   -6.1502 N   0  0  0  0  0  0  0  0  0  0  0  0
    0.1819  -12.9711   -5.5396 C   0  0  0  0  0  0  0  0  0  0  0  0
   -5.5589  -10.6410   -5.1361 C   0  0  0  0  0  0  0  0  0  0  0  0
   -6.0542   -9.4343   -4.3297 C   0  0  0  0  0  0  0  0  0  0  0  0
   -0.2192  -14.1497   -5.9526 N   0  0  0  0  0  0  0  0  0  0  0  0
   -0.8368  -14.9907   -5.1444 C   0  0  0  0  0  0  0  0  0  0  0  0
   -6.9976   -8.5852   -5.1886 C   0  0  0  0  0  0  0  0  0  0  0  0
   -7.0425   -7.1562   -4.6397 C   0  0  0  0  0  0  0  0  0  0  0  0
   -2.1419  -14.8041   -4.7802 N   0  0  0  0  0  0  0  0  0  0  0  0
   -0.1603  -16.0651   -4.6623 N   0  0  0  0  0  0  0  0  0  0  0  0
   -7.7024   -7.1352   -3.5060 N   0  0  0  0  0  0  0  0  0  0  0  0
   -8.7537   -6.3568   -3.3346 C   0  0  0  0  0  0  0  0  0  0  0  0
   -8.9576   -5.3217   -4.1893 N   0  0  0  0  0  0  0  0  0  0  0  0
   -9.6357   -6.5620   -2.3118 N   0  0  0  0  0  0  0  0  0  0  0  0
   -0.9006   -9.5516   -6.4976 C   0  0  0  0  0  0  0  0  0  0  0  0
   -2.5393   -6.4594   -8.9477 O   0  0  0  0  0  0  0  0  0  0  0  0
   -2.2975   -9.2742   -6.4565 C   0  0  0  0  0  0  0  0  0  0  0  0
   -2.8409   -8.2510   -7.2787 C   0  0  0  0  0  0  0  0  0  0  0  0
   -1.9904   -7.4914   -8.1243 C   0  0  0  0  0  0  0  0  0  0  0  0
   -0.5943   -7.7542   -8.1513 C   0  0  0  0  0  0  0  0  0  0  0  0
   -0.0468   -8.7793   -7.3332 C   0  0  0  0  0  0  0  0  0  0  0  0
   -2.1540   -6.6760  -10.3082 C   0  0  0  0  0  0  0  0  0  0  0  0
  1  4  1  0  0  0  0
  2  3  1  0  0  0  0
  3  5  1  0  0  0  0
  4  6  1  0  0  0  0
  5  8  1  0  0  0  0
  6  7  1  0  0  0  0
  7 10  1  0  0  0  0
  8  9  1  0  0  0  0
  9 12  1  0  0  0  0
  9 13  1  0  0  0  0
 10 11  1  0  0  0  0
 11 14  1  0  0  0  0
 14 15  1  0  0  0  0
 15 16  1  0  0  0  0
 15 17  1  0  0  0  0
 18  2  1  0  0  0  0
 18 20  2  0  0  0  0
 18 24  1  0  0  0  0
 19 25  1  0  0  0  0
 20  1  1  0  0  0  0
 20 21  1  0  0  0  0
 21 22  2  0  0  0  0
 22 19  1  0  0  0  0
 22 23  1  0  0  0  0
 23 24  2  0  0  0  0
M  END
>  <CHROM.1>
-164.98003849,174.17686070,166.70095499,83.99108864,-117.97883860,73.08969879
-157.44693880,75.02265857,113.82032284,-59.46308236,-71.64226140,-123.53226877
-17.21032126,64.31056661,143.07933846,81.61621724,-148.68156994,-125.97426617
-3.50440108,-9.67981190,-5.77982200,0.49002610,-0.55352694,2.63015610

>  <Name>
1uud_lig

>  <RI>
0

>  <Rbt.Current_Directory>
/home/itssahil/PROJECTS/Mol_Feturizer/New_Systems/rnas/1uud

>  <Rbt.Executable>
rbdock ($Id: //depot/dev/client3/rdock/2013.1/src/exe/rbdock.cxx#4 $)

>  <Rbt.Library>
libRbt.so (2013.1, Build901 2013/11/27)

>  <Rbt.Parameter_File>
/export/apps/rDock/src/rDock_2013.1_src/data/scripts/dock_solv.prm

>  <Rbt.Receptor>
prm/pocket_docking_7.prm

>  <SCORE>
-23.9587

>  <SCORE.INTER>
-17.8173

>  <SCORE.INTER.CONST>
1

>  <SCORE.INTER.POLAR>
-3.74615

>  <SCORE.INTER.ROT>
18

>  <SCORE.INTER.SOLV>
7.99169

>  <SCORE.INTER.VDW>
-17.6549

>  <SCORE.INTER.norm>
-0.712691

>  <SCORE.INTRA>
-6.14141

>  <SCORE.INTRA.DIHEDRAL>
-6.91799

>  <SCORE.INTRA.DIHEDRAL.0>
30.6762

>  <SCORE.INTRA.POLAR>
0.0288659

>  <SCORE.INTRA.POLAR.0>
-0.0288659

>  <SCORE.INTRA.REPUL>
0

>  <SCORE.INTRA.REPUL.0>
0

>  <SCORE.INTRA.SOLV>
-1.29325

>  <SCORE.INTRA.SOLV.lig_0>
-25.2195

>  <SCORE.INTRA.VDW>
-2.13393

>  <SCORE.INTRA.VDW.0>
4.14263

>  <SCORE.INTRA.norm>
-0.245656

>  <SCORE.RESTR>
0

>  <SCORE.RESTR.CAVITY>
0

>  <SCORE.RESTR.norm>
0

>  <SCORE.SYSTEM>
0

>  <SCORE.SYSTEM.CONST>
0

>  <SCORE.SYSTEM.DIHEDRAL>
0

>  <SCORE.SYSTEM.SOLV>
0

>  <SCORE.SYSTEM.norm>
0

>  <SCORE.heavy>
25

>  <SCORE.norm>
-0.958348

>  <RMSD>
7.102

$$$$
1uud_lig
 OpenBabel11021811413D
libRbt.so/2013.1/901 2013/11/27
 25 25  0  0  0  0  0  0  0  0999 V2000
   -4.0180  -11.2741   -7.8024 C   0  0  0  0  0  0  0  0  0  0  0  0
   -5.5695   -9.5903   -5.9693 O   0  0  0  0  0  0  0  0  0  0  0  0
   -5.6894   -8.1652   -5.8475 C   0  0  0  0  0  0  0  0  0  0  0  0
   -3.0008  -12.0964   -8.5032 N   0  0  0  0  0  0  0  0  0  0  0  0
   -6.7640   -7.8109   -4.8107 C   0  0  0  0  0  0  0  0  0  0  0  0
   -3.3381  -13.5335   -8.3695 C   0  0  0  0  0  0  0  0  0  0  0  0
   -2.0482  -14.3537   -8.2462 C   0  0  0  0  0  0  0  0  0  0  0  0
   -7.7163   -8.7130   -4.8282 N   0  0  0  0  0  0  0  0  0  0  0  0
   -8.3872   -9.0292   -3.7365 C   0  0  0  0  0  0  0  0  0  0  0  0
   -1.3456  -14.0243   -6.9246 C   0  0  0  0  0  0  0  0  0  0  0  0
   -1.6861  -15.0946   -5.8835 C   0  0  0  0  0  0  0  0  0  0  0  0
   -9.5062   -8.3387   -3.3600 N   0  0  0  0  0  0  0  0  0  0  0  0
   -7.9557  -10.0631   -2.9689 N   0  0  0  0  0  0  0  0  0  0  0  0
   -0.9052  -16.1365   -6.0441 N   0  0  0  0  0  0  0  0  0  0  0  0
   -0.0751  -16.5284   -5.0966 C   0  0  0  0  0  0  0  0  0  0  0  0
   -0.2923  -17.7162   -4.4755 N   0  0  0  0  0  0  0  0  0  0  0  0
    0.9913  -15.7626   -4.7190 N   0  0  0  0  0  0  0  0  0  0  0  0
   -4.2586  -10.0101   -5.5697 C   0  0  0  0  0  0  0  0  0  0  0  0
   -0.3715  -11.2862   -4.3399 O   0  0  0  0  0  0  0  0  0  0  0  0
   -3.4735  -10.8328   -6.4279 C   0  0  0  0  0  0  0  0  0  0  0  0
   -2.1846  -11.2627   -6.0127 C   0  0  0  0  0  0  0  0  0  0  0  0
   -1.6707  -10.8556   -4.7536 C   0  0  0  0  0  0  0  0  0  0  0  0
   -2.4450  -10.0190   -3.9053 C   0  0  0  0  0  0  0  0  0  0  0  0
   -3.7363   -9.5895   -4.3150 C   0  0  0  0  0  0  0  0  0  0  0  0
    0.5838  -10.9732   -5.3577 C   0  0  0  0  0  0  0  0  0  0  0  0
  1  4  1  0  0  0  0
  2  3  1  0  0  0  0
  3  5  1  0  0  0  0
  4  6  1  0  0  0  0
  5  8  1  0  0  0  0
  6  7  1  0  0  0  0
  7 10  1  0  0  0  0
  8  9  1  0  0  0  0
  9 12  1  0  0  0  0
  9 13  1  0  0  0  0
 10 11  1  0  0  0  0
 11 14  1  0  0  0  0
 14 15  1  0  0  0  0
 15 16  1  0  0  0  0
 15 17  1  0  0  0  0
 18  2  1  0  0  0  0
 18 20  2  0  0  0  0
 18 24  1  0  0  0  0
 19 25  1  0  0  0  0
 20  1  1  0  0  0  0
 20 21  1  0  0  0  0
 21 22  2  0  0  0  0
 22 19  1  0  0  0  0
 22 23  1  0  0  0  0
 23 24  2  0  0  0  0
M  END
>  <CHROM.1>
100.60637686,-117.07296733,-32.92570166,-144.47540142,148.22885032,66.83374642
98.29329493,87.61929469,-5.80062984,-49.06640121,82.43145233,118.16723814
112.81998935,-57.57083789,65.08984782,-127.81810911,178.91351178,52.78453335
-3.40185766,-11.76884271,-5.51931137,2.41284181,-0.27215021,0.49836779

>  <Name>
1uud_lig

>  <RI>
0

>  <Rbt.Current_Directory>
/home/itssahil/PROJECTS/Mol_Feturizer/New_Systems/rnas/1uud

>  <Rbt.Executable>
rbdock ($Id: //depot/dev/client3/rdock/2013.1/src/exe/rbdock.cxx#4 $)

>  <Rbt.Library>
libRbt.so (2013.1, Build901 2013/11/27)

>  <Rbt.Parameter_File>
/export/apps/rDock/src/rDock_2013.1_src/data/scripts/dock_solv.prm

>  <Rbt.Receptor>
prm/pocket_docking_8.prm

>  <SCORE>
-20.357

>  <SCORE.INTER>
-23.0329

>  <SCORE.INTER.CONST>
1

>  <SCORE.INTER.POLAR>
-3.10534

>  <SCORE.INTER.ROT>
18

>  <SCORE.INTER.SOLV>
12.495

>  <SCORE.INTER.VDW>
-24.7691

>  <SCORE.INTER.norm>
-0.921317

>  <SCORE.INTRA>
2.6759

>  <SCORE.INTRA.DIHEDRAL>
6.43122

>  <SCORE.INTRA.DIHEDRAL.0>
30.6762

>  <SCORE.INTRA.POLAR>
0.0288659

>  <SCORE.INTRA.POLAR.0>
-0.0288659

>  <SCORE.INTRA.REPUL>
0

>  <SCORE.INTRA.REPUL.0>
0

>  <SCORE.INTRA.SOLV>
-0.688527

>  <SCORE.INTRA.SOLV.lig_0>
-25.2195

>  <SCORE.INTRA.VDW>
-0.293595

>  <SCORE.INTRA.VDW.0>
4.14263

>  <SCORE.INTRA.norm>
0.107036

>  <SCORE.RESTR>
0

>  <SCORE.RESTR.CAVITY>
0

>  <SCORE.RESTR.norm>
0

>  <SCORE.SYSTEM>
0

>  <SCORE.SYSTEM.CONST>
0

>  <SCORE.SYSTEM.DIHEDRAL>
0

>  <SCORE.SYSTEM.SOLV>
0

>  <SCORE.SYSTEM.norm>
0

>  <SCORE.heavy>
25

>  <SCORE.norm>
-0.814281

>  <RMSD>
7.102

$$$$
1uud_lig
 OpenBabel11021811413D
libRbt.so/2013.1/901 2013/11/27
 25 25  0  0  0  0  0  0  0  0999 V2000
   -2.3247  -10.7547   -3.3236 C   0  0  0  0  0  0  0  0  0  0  0  0
   -4.7293   -9.2793   -2.5213 O   0  0  0  0  0  0  0  0  0  0  0  0
   -5.9921   -9.5271   -1.8856 C   0  0  0  0  0  0  0  0  0  0  0  0
   -2.4433   -9.6946   -4.3553 N   0  0  0  0  0  0  0  0  0  0  0  0
   -7.0678   -9.8183   -2.9407 C   0  0  0  0  0  0  0  0  0  0  0  0
   -2.8484  -10.2955   -5.6482 C   0  0  0  0  0  0  0  0  0  0  0  0
   -1.7148  -11.1808   -6.1799 C   0  0  0  0  0  0  0  0  0  0  0  0
   -7.1615   -8.8091   -3.7736 N   0  0  0  0  0  0  0  0  0  0  0  0
   -7.1414   -8.9893   -5.0809 C   0  0  0  0  0  0  0  0  0  0  0  0
   -1.9542  -12.6374   -5.7683 C   0  0  0  0  0  0  0  0  0  0  0  0
   -3.3371  -13.0848   -6.2508 C   0  0  0  0  0  0  0  0  0  0  0  0
   -6.1455   -9.7031   -5.6887 N   0  0  0  0  0  0  0  0  0  0  0  0
   -8.1314   -8.4524   -5.8398 N   0  0  0  0  0  0  0  0  0  0  0  0
   -3.3280  -14.3737   -6.4954 N   0  0  0  0  0  0  0  0  0  0  0  0
   -2.9593  -14.8502   -7.6690 C   0  0  0  0  0  0  0  0  0  0  0  0
   -3.7871  -14.6995   -8.7347 N   0  0  0  0  0  0  0  0  0  0  0  0
   -1.7692  -15.5002   -7.8345 N   0  0  0  0  0  0  0  0  0  0  0  0
   -3.6643   -9.4207   -1.5725 C   0  0  0  0  0  0  0  0  0  0  0  0
   -0.5210   -9.8682    1.2858 O   0  0  0  0  0  0  0  0  0  0  0  0
   -2.4810  -10.1343   -1.9197 C   0  0  0  0  0  0  0  0  0  0  0  0
   -1.4409  -10.2887   -0.9644 C   0  0  0  0  0  0  0  0  0  0  0  0
   -1.5710   -9.7147    0.3275 C   0  0  0  0  0  0  0  0  0  0  0  0
   -2.7424   -8.9863    0.6682 C   0  0  0  0  0  0  0  0  0  0  0  0
   -3.7870   -8.8322   -0.2832 C   0  0  0  0  0  0  0  0  0  0  0  0
   -0.2955  -11.2595    1.5309 C   0  0  0  0  0  0  0  0  0  0  0  0
  1  4  1  0  0  0  0
  2  3  1  0  0  0  0
  3  5  1  0  0  0  0
  4  6  1  0  0  0  0
  5  8  1  0  0  0  0
  6  7  1  0  0  0  0
  7 10  1  0  0  0  0
  8  9  1  0  0  0  0
  9 12  1  0  0  0  0
  9 13  1  0  0  0  0
 10 11  1  0  0  0  0
 11 14  1  0  0  0  0
 14 15  1  0  0  0  0
 15 16  1  0  0  0  0
 15 17  1  0  0  0  0
 18  2  1  0  0  0  0
 18 20  2  0  0  0  0
 18 24  1  0  0  0  0
 19 25  1  0  0  0  0
 20  1  1  0  0  0  0
 20 21  1  0  0  0  0
 21 22  2  0  0  0  0
 22 19  1  0  0  0  0
 22 23  1  0  0  0  0
 23 24  2  0  0  0  0
M  END
>  <CHROM.1>
-156.91909427,-162.07358396,-57.92319761,-67.19552444,130.27404767,95.18077435
55.40202152,-52.29443760,-107.23120856,162.20901674,150.19237749,-86.85368201
-72.66357607,145.69187170,105.94752105,135.55663084,58.33885640,-59.12939622
-3.60384240,-10.84171005,-3.73616610,-1.44696534,0.54569589,-2.13717290

>  <Name>
1uud_lig

>  <RI>
0

>  <Rbt.Current_Directory>
/home/itssahil/PROJECTS/Mol_Feturizer/New_Systems/rnas/1uud

>  <Rbt.Executable>
rbdock ($Id: //depot/dev/client3/rdock/2013.1/src/exe/rbdock.cxx#4 $)

>  <Rbt.Library>
libRbt.so (2013.1, Build901 2013/11/27)

>  <Rbt.Parameter_File>
/export/apps/rDock/src/rDock_2013.1_src/data/scripts/dock_solv.prm

>  <Rbt.Receptor>
prm/pocket_docking_3.prm

>  <SCORE>
-30.0826

>  <SCORE.INTER>
-24.6264

>  <SCORE.INTER.CONST>
1

>  <SCORE.INTER.POLAR>
-5.17399

>  <SCORE.INTER.ROT>
18

>  <SCORE.INTER.SOLV>
11.2432

>  <SCORE.INTER.VDW>
-18.5187

>  <SCORE.INTER.norm>
-0.985056

>  <SCORE.INTRA>
-5.55167

>  <SCORE.INTRA.DIHEDRAL>
-5.38343

>  <SCORE.INTRA.DIHEDRAL.0>
30.6762

>  <SCORE.INTRA.POLAR>
-0.403688

>  <SCORE.INTRA.POLAR.0>
-0.0288659

>  <SCORE.INTRA.REPUL>
0

>  <SCORE.INTRA.REPUL.0>
0

>  <SCORE.INTRA.SOLV>
-0.160096

>  <SCORE.INTRA.SOLV.lig_0>
-25.2195

>  <SCORE.INTRA.VDW>
-1.40737

>  <SCORE.INTRA.VDW.0>
4.14263

>  <SCORE.INTRA.norm>
-0.222067

>  <SCORE.RESTR>
0.0955131

>  <SCORE.RESTR.CAVITY>
0.0955131

>  <SCORE.RESTR.norm>
0.00382052

>  <SCORE.SYSTEM>
0

>  <SCORE.SYSTEM.CONST>
0

>  <SCORE.SYSTEM.DIHEDRAL>
0

>  <SCORE.SYSTEM.SOLV>
0

>  <SCORE.SYSTEM.norm>
0

>  <SCORE.heavy>
25

>  <SCORE.norm>
-1.2033

>  <RMSD>
7.112

$$$$
1uud_lig
 OpenBabel11021811413D
libRbt.so/2013.1/901 2013/11/27
 25 25  0  0  0  0  0  0  0  0999 V2000
   -4.0483  -11.4424   -5.6818 C   0  0  0  0  0  0  0  0  0  0  0  0
   -3.5536  -11.5424   -8.5710 O   0  0  0  0  0  0  0  0  0  0  0  0
   -3.0586  -12.8587   -8.8587 C   0  0  0  0  0  0  0  0  0  0  0  0
   -5.2504  -10.5895   -5.8539 N   0  0  0  0  0  0  0  0  0  0  0  0
   -3.6240  -13.8688   -7.8512 C   0  0  0  0  0  0  0  0  0  0  0  0
   -6.0001  -10.5151   -4.5775 C   0  0  0  0  0  0  0  0  0  0  0  0
   -7.0588   -9.4095   -4.6683 C   0  0  0  0  0  0  0  0  0  0  0  0
   -3.0720  -15.0439   -8.0391 N   0  0  0  0  0  0  0  0  0  0  0  0
   -2.0635  -15.4593   -7.2958 C   0  0  0  0  0  0  0  0  0  0  0  0
   -7.9987   -9.4874   -3.4603 C   0  0  0  0  0  0  0  0  0  0  0  0
   -8.7501   -8.1614   -3.3102 C   0  0  0  0  0  0  0  0  0  0  0  0
   -0.8218  -15.6701   -7.8290 N   0  0  0  0  0  0  0  0  0  0  0  0
   -2.2641  -15.6839   -5.9715 N   0  0  0  0  0  0  0  0  0  0  0  0
   -7.9362   -7.2369   -2.8584 N   0  0  0  0  0  0  0  0  0  0  0  0
   -7.7495   -6.1048   -3.5094 C   0  0  0  0  0  0  0  0  0  0  0  0
   -6.5067   -5.5589   -3.5458 N   0  0  0  0  0  0  0  0  0  0  0  0
   -8.7789   -5.4641   -4.1387 N   0  0  0  0  0  0  0  0  0  0  0  0
   -2.6223  -10.8367   -7.7409 C   0  0  0  0  0  0  0  0  0  0  0  0
    0.1421   -8.6904   -5.2911 O   0  0  0  0  0  0  0  0  0  0  0  0
   -2.8279  -10.7594   -6.3332 C   0  0  0  0  0  0  0  0  0  0  0  0
   -1.9116  -10.0378   -5.5221 C   0  0  0  0  0  0  0  0  0  0  0  0
   -0.7809   -9.4126   -6.1103 C   0  0  0  0  0  0  0  0  0  0  0  0
   -0.5644   -9.5056   -7.5115 C   0  0  0  0  0  0  0  0  0  0  0  0
   -1.4805  -10.2234   -8.3273 C   0  0  0  0  0  0  0  0  0  0  0  0
    0.8757   -9.6068   -4.4733 C   0  0  0  0  0  0  0  0  0  0  0  0
  1  4  1  0  0  0  0
  2  3  1  0  0  0  0
  3  5  1  0  0  0  0
  4  6  1  0  0  0  0
  5  8  1  0  0  0  0
  6  7  1  0  0  0  0
  7 10  1  0  0  0  0
  8  9  1  0  0  0  0
  9 12  1  0  0  0  0
  9 13  1  0  0  0  0
 10 11  1  0  0  0  0
 11 14  1  0  0  0  0
 14 15  1  0  0  0  0
 15 16  1  0  0  0  0
 15 17  1  0  0  0  0
 18  2  1  0  0  0  0
 18 20  2  0  0  0  0
 18 24  1  0  0  0  0
 19 25  1  0  0  0  0
 20  1  1  0  0  0  0
 20 21  1  0  0  0  0
 21 22  2  0  0  0  0
 22 19  1  0  0  0  0
 22 23  1  0  0  0  0
 23 24  2  0  0  0  0
M  END
>  <CHROM.1>
-135.08586867,94.21173421,-174.06227165,167.97840974,98.42162402,169.98214128
162.12559848,-114.61171290,-130.78853818,18.36097665,-73.06950954,123.94615852
-142.05458864,54.20700838,95.36919142,-98.80448483,-80.23434220,70.11334419
-3.94738068,-10.53080647,-5.86669714,0.87683679,-0.21071257,-2.78331730

>  <Name>
1uud_lig

>  <RI>
0

>  <Rbt.Current_Directory>
/home/itssahil/PROJECTS/Mol_Feturizer/New_Systems/rnas/1uud

>  <Rbt.Executable>
rbdock ($Id: //depot/dev/client3/rdock/2013.1/src/exe/rbdock.cxx#4 $)

>  <Rbt.Library>
libRbt.so (2013.1, Build901 2013/11/27)

>  <Rbt.Parameter_File>
/export/apps/rDock/src/rDock_2013.1_src/data/scripts/dock_solv.prm

>  <Rbt.Receptor>
prm/pocket_docking_5.prm

>  <SCORE>
-18.405

>  <SCORE.INTER>
-11.7236

>  <SCORE.INTER.CONST>
1

>  <SCORE.INTER.POLAR>
-2.08917

>  <SCORE.INTER.ROT>
18

>  <SCORE.INTER.SOLV>
6.51257

>  <SCORE.INTER.VDW>
-18.6227

>  <SCORE.INTER.norm>
-0.468942

>  <SCORE.INTRA>
-6.68147

>  <SCORE.INTRA.DIHEDRAL>
-1.23242

>  <SCORE.INTRA.DIHEDRAL.0>
30.6762

>  <SCORE.INTRA.POLAR>
0.0288659

>  <SCORE.INTRA.POLAR.0>
-0.0288659

>  <SCORE.INTRA.REPUL>
0

>  <SCORE.INTRA.REPUL.0>
0

>  <SCORE.INTRA.SOLV>
-0.874679

>  <SCORE.INTRA.SOLV.lig_0>
-25.2195

>  <SCORE.INTRA.VDW>
-5.72606

>  <SCORE.INTRA.VDW.0>
4.14263

>  <SCORE.INTRA.norm>
-0.267259

>  <SCORE.RESTR>
0

>  <SCORE.RESTR.CAVITY>
0

>  <SCORE.RESTR.norm>
0

>  <SCORE.SYSTEM>
0

>  <SCORE.SYSTEM.CONST>
0

>  <SCORE.SYSTEM.DIHEDRAL>
0

>  <SCORE.SYSTEM.SOLV>
0

>  <SCORE.SYSTEM.norm>
0

>  <SCORE.heavy>
25

>  <SCORE.norm>
-0.736201

>  <RMSD>
7.126

$$$$
1uud_lig
 OpenBabel11021811413D
libRbt.so/2013.1/901 2013/11/27
 25 25  0  0  0  0  0  0  0  0999 V2000
   -3.6753  -11.9084   -7.1199 C   0  0  0  0  0  0  0  0  0  0  0  0
   -5.4704   -9.7575   -6.2515 O   0  0  0  0  0  0  0  0  0  0  0  0
   -5.8906   -8.7950   -5.2732 C   0  0  0  0  0  0  0  0  0  0  0  0
   -3.7350  -12.4782   -8.4888 N   0  0  0  0  0  0  0  0  0  0  0  0
   -7.3806   -8.9793   -4.9551 C   0  0  0  0  0  0  0  0  0  0  0  0
   -2.4176  -13.0525   -8.8514 C   0  0  0  0  0  0  0  0  0  0  0  0
   -2.3651  -14.5246   -8.4253 C   0  0  0  0  0  0  0  0  0  0  0  0
   -7.5291   -9.8909   -4.0235 N   0  0  0  0  0  0  0  0  0  0  0  0
   -8.3907   -9.7344   -3.0361 C   0  0  0  0  0  0  0  0  0  0  0  0
   -2.0896  -14.6222   -6.9208 C   0  0  0  0  0  0  0  0  0  0  0  0
   -1.8587  -16.0866   -6.5369 C   0  0  0  0  0  0  0  0  0  0  0  0
   -8.1531  -10.2498   -1.7917 N   0  0  0  0  0  0  0  0  0  0  0  0
   -9.5400   -9.0469   -3.2614 N   0  0  0  0  0  0  0  0  0  0  0  0
   -1.4990  -16.1655   -5.2776 N   0  0  0  0  0  0  0  0  0  0  0  0
   -0.4521  -16.8755   -4.9029 C   0  0  0  0  0  0  0  0  0  0  0  0
   -0.5733  -18.2227   -4.7852 N   0  0  0  0  0  0  0  0  0  0  0  0
    0.7474  -16.2857   -4.6209 N   0  0  0  0  0  0  0  0  0  0  0  0
   -4.1790   -9.4063   -6.7648 C   0  0  0  0  0  0  0  0  0  0  0  0
   -0.3181   -8.3394   -8.2498 O   0  0  0  0  0  0  0  0  0  0  0  0
   -3.2743  -10.4204   -7.1926 C   0  0  0  0  0  0  0  0  0  0  0  0
   -1.9879  -10.0631   -7.6781 C   0  0  0  0  0  0  0  0  0  0  0  0
   -1.6120   -8.6964   -7.7570 C   0  0  0  0  0  0  0  0  0  0  0  0
   -2.5208   -7.6833   -7.3489 C   0  0  0  0  0  0  0  0  0  0  0  0
   -3.8075   -8.0363   -6.8592 C   0  0  0  0  0  0  0  0  0  0  0  0
    0.6171   -8.3153   -7.1675 C   0  0  0  0  0  0  0  0  0  0  0  0
  1  4  1  0  0  0  0
  2  3  1  0  0  0  0
  3  5  1  0  0  0  0
  4  6  1  0  0  0  0
  5  8  1  0  0  0  0
  6  7  1  0  0  0  0
  7 10  1  0  0  0  0
  8  9  1  0  0  0  0
  9 12  1  0  0  0  0
  9 13  1  0  0  0  0
 10 11  1  0  0  0  0
 11 14  1  0  0  0  0
 14 15  1  0  0  0  0
 15 16  1  0  0  0  0
 15 17  1  0  0  0  0
 18  2  1  0  0  0  0
 18 20  2  0  0  0  0
 18 24  1  0  0  0  0
 19 25  1  0  0  0  0
 20  1  1  0  0  0  0
 20 21  1  0  0  0  0
 21 22  2  0  0  0  0
 22 19  1  0  0  0  0
 22 23  1  0  0  0  0
 23 24  2  0  0  0  0
M  END
>  <CHROM.1>
91.09150895,167.28298104,85.68908818,89.84760975,138.10251164,-78.97760603
-172.72326135,-147.81334115,-141.70491820,34.04796550,174.10805848,-131.17716039
-79.43851877,9.11059556,119.44537588,148.94709350,115.84457054,-88.59785042
-3.51397423,-11.57724030,-6.08625674,-0.68325582,0.54880495,-0.34373800

>  <Name>
1uud_lig

>  <RI>
0

>  <Rbt.Current_Directory>
/home/itssahil/PROJECTS/Mol_Feturizer/New_Systems/rnas/1uud

>  <Rbt.Executable>
rbdock ($Id: //depot/dev/client3/rdock/2013.1/src/exe/rbdock.cxx#4 $)

>  <Rbt.Library>
libRbt.so (2013.1, Build901 2013/11/27)

>  <Rbt.Parameter_File>
/export/apps/rDock/src/rDock_2013.1_src/data/scripts/dock_solv.prm

>  <Rbt.Receptor>
prm/pocket_docking_8.prm

>  <SCORE>
-39.4532

>  <SCORE.INTER>
-34.3202

>  <SCORE.INTER.CONST>
1

>  <SCORE.INTER.POLAR>
-4.57413

>  <SCORE.INTER.ROT>
18

>  <SCORE.INTER.SOLV>
14.6341

>  <SCORE.INTER.VDW>
-28.1111

>  <SCORE.INTER.norm>
-1.37281

>  <SCORE.INTRA>
-5.13294

>  <SCORE.INTRA.DIHEDRAL>
-6.05629

>  <SCORE.INTRA.DIHEDRAL.0>
30.6762

>  <SCORE.INTRA.POLAR>
0.0288659

>  <SCORE.INTRA.POLAR.0>
-0.0288659

>  <SCORE.INTRA.REPUL>
0

>  <SCORE.INTRA.REPUL.0>
0

>  <SCORE.INTRA.SOLV>
-1.39556

>  <SCORE.INTRA.SOLV.lig_0>
-25.2195

>  <SCORE.INTRA.VDW>
-1.50516

>  <SCORE.INTRA.VDW.0>
4.14263

>  <SCORE.INTRA.norm>
-0.205318

>  <SCORE.RESTR>
0

>  <SCORE.RESTR.CAVITY>
0

>  <SCORE.RESTR.norm>
0

>  <SCORE.SYSTEM>
0

>  <SCORE.SYSTEM.CONST>
0

>  <SCORE.SYSTEM.DIHEDRAL>
0

>  <SCORE.SYSTEM.SOLV>
0

>  <SCORE.SYSTEM.norm>
0

>  <SCORE.heavy>
25

>  <SCORE.norm>
-1.57813

>  <RMSD>
7.139

$$$$
1uud_lig
 OpenBabel11021811413D
libRbt.so/2013.1/901 2013/11/27
 25 25  0  0  0  0  0  0  0  0999 V2000
   -4.0514  -10.9771   -7.0290 C   0  0  0  0  0  0  0  0  0  0  0  0
   -4.5529   -8.5126   -5.5199 O   0  0  0  0  0  0  0  0  0  0  0  0
   -5.8757   -7.9983   -5.7340 C   0  0  0  0  0  0  0  0  0  0  0  0
   -4.1800  -11.8836   -8.1969 N   0  0  0  0  0  0  0  0  0  0  0  0
   -6.4765   -7.5136   -4.4077 C   0  0  0  0  0  0  0  0  0  0  0  0
   -3.7327  -13.2470   -7.8257 C   0  0  0  0  0  0  0  0  0  0  0  0
   -2.2165  -13.3613   -8.0246 C   0  0  0  0  0  0  0  0  0  0  0  0
   -7.7747   -7.3716   -4.5306 N   0  0  0  0  0  0  0  0  0  0  0  0
   -8.6114   -7.8804   -3.6457 C   0  0  0  0  0  0  0  0  0  0  0  0
   -1.4858  -12.6416   -6.8858 C   0  0  0  0  0  0  0  0  0  0  0  0
   -1.6894  -13.4133   -5.5788 C   0  0  0  0  0  0  0  0  0  0  0  0
   -8.4764   -9.1627   -3.1894 N   0  0  0  0  0  0  0  0  0  0  0  0
   -9.6303   -7.1135   -3.1788 N   0  0  0  0  0  0  0  0  0  0  0  0
   -0.9679  -14.5090   -5.5915 N   0  0  0  0  0  0  0  0  0  0  0  0
   -1.5151  -15.6967   -5.4169 C   0  0  0  0  0  0  0  0  0  0  0  0
   -1.0979  -16.4725   -4.3836 N   0  0  0  0  0  0  0  0  0  0  0  0
   -2.4837  -16.1678   -6.2571 N   0  0  0  0  0  0  0  0  0  0  0  0
   -3.7907   -8.4307   -6.7310 C   0  0  0  0  0  0  0  0  0  0  0  0
   -1.4792   -8.1704  -10.3142 O   0  0  0  0  0  0  0  0  0  0  0  0
   -3.5197   -9.6046   -7.4916 C   0  0  0  0  0  0  0  0  0  0  0  0
   -2.7436   -9.5163   -8.6783 C   0  0  0  0  0  0  0  0  0  0  0  0
   -2.2566   -8.2571   -9.1173 C   0  0  0  0  0  0  0  0  0  0  0  0
   -2.5428   -7.0831   -8.3699 C   0  0  0  0  0  0  0  0  0  0  0  0
   -3.3159   -7.1672   -7.1802 C   0  0  0  0  0  0  0  0  0  0  0  0
   -0.1290   -7.8311   -9.9851 C   0  0  0  0  0  0  0  0  0  0  0  0
  1  4  1  0  0  0  0
  2  3  1  0  0  0  0
  3  5  1  0  0  0  0
  4  6  1  0  0  0  0
  5  8  1  0  0  0  0
  6  7  1  0  0  0  0
  7 10  1  0  0  0  0
  8  9  1  0  0  0  0
  9 12  1  0  0  0  0
  9 13  1  0  0  0  0
 10 11  1  0  0  0  0
 11 14  1  0  0  0  0
 14 15  1  0  0  0  0
 15 16  1  0  0  0  0
 15 17  1  0  0  0  0
 18  2  1  0  0  0  0
 18 20  2  0  0  0  0
 18 24  1  0  0  0  0
 19 25  1  0  0  0  0
 20  1  1  0  0  0  0
 20 21  1  0  0  0  0
 21 22  2  0  0  0  0
 22 19  1  0  0  0  0
 22 23  1  0  0  0  0
 23 24  2  0  0  0  0
M  END
>  <CHROM.1>
139.66600492,-155.46599626,-163.78327771,-86.68043186,131.18453810,75.90761501
68.95996567,-46.13390747,159.48463091,-147.78351659,73.57777911,-123.64804019
-121.05483661,167.26399683,-84.17102754,-105.55039186,155.09958511,-111.24204289
-3.82012889,-10.46354483,-6.48618081,0.62979350,-0.67800726,2.70203560

>  <Name>
1uud_lig

>  <RI>
0

>  <Rbt.Current_Directory>
/home/itssahil/PROJECTS/Mol_Feturizer/New_Systems/rnas/1uud

>  <Rbt.Executable>
rbdock ($Id: //depot/dev/client3/rdock/2013.1/src/exe/rbdock.cxx#4 $)

>  <Rbt.Library>
libRbt.so (2013.1, Build901 2013/11/27)

>  <Rbt.Parameter_File>
/export/apps/rDock/src/rDock_2013.1_src/data/scripts/dock_solv.prm

>  <Rbt.Receptor>
prm/pocket_docking_8.prm

>  <SCORE>
-41.9679

>  <SCORE.INTER>
-38.8664

>  <SCORE.INTER.CONST>
1

>  <SCORE.INTER.POLAR>
-5.713

>  <SCORE.INTER.ROT>
18

>  <SCORE.INTER.SOLV>
12.4153

>  <SCORE.INTER.VDW>
-26.606

>  <SCORE.INTER.norm>
-1.55466

>  <SCORE.INTRA>
-3.10145

>  <SCORE.INTRA.DIHEDRAL>
-2.09036

>  <SCORE.INTRA.DIHEDRAL.0>
30.6762

>  <SCORE.INTRA.POLAR>
0.0288659

>  <SCORE.INTRA.POLAR.0>
-0.0288659

>  <SCORE.INTRA.REPUL>
0

>  <SCORE.INTRA.REPUL.0>
0

>  <SCORE.INTRA.SOLV>
-0.798787

>  <SCORE.INTRA.SOLV.lig_0>
-25.2195

>  <SCORE.INTRA.VDW>
-1.75502

>  <SCORE.INTRA.VDW.0>
4.14263

>  <SCORE.INTRA.norm>
-0.124058

>  <SCORE.RESTR>
0

>  <SCORE.RESTR.CAVITY>
0

>  <SCORE.RESTR.norm>
0

>  <SCORE.SYSTEM>
0

>  <SCORE.SYSTEM.CONST>
0

>  <SCORE.SYSTEM.DIHEDRAL>
0

>  <SCORE.SYSTEM.SOLV>
0

>  <SCORE.SYSTEM.norm>
0

>  <SCORE.heavy>
25

>  <SCORE.norm>
-1.67871

>  <RMSD>
7.143

$$$$
1uud_lig
 OpenBabel11021811413D
libRbt.so/2013.1/901 2013/11/27
 25 25  0  0  0  0  0  0  0  0999 V2000
   -3.2731   -9.0828   -2.8578 C   0  0  0  0  0  0  0  0  0  0  0  0
   -2.0791   -9.1276   -0.1792 O   0  0  0  0  0  0  0  0  0  0  0  0
   -0.9773   -8.2311   -0.3858 C   0  0  0  0  0  0  0  0  0  0  0  0
   -3.3749   -8.2135   -4.0562 N   0  0  0  0  0  0  0  0  0  0  0  0
    0.3511   -8.9602   -0.1431 C   0  0  0  0  0  0  0  0  0  0  0  0
   -2.7092   -8.8666   -5.2082 C   0  0  0  0  0  0  0  0  0  0  0  0
   -3.6677   -9.8780   -5.8485 C   0  0  0  0  0  0  0  0  0  0  0  0
    0.3832   -9.4355    1.0791 N   0  0  0  0  0  0  0  0  0  0  0  0
    0.6298  -10.7100    1.3176 C   0  0  0  0  0  0  0  0  0  0  0  0
   -3.3002  -10.0835   -7.3221 C   0  0  0  0  0  0  0  0  0  0  0  0
   -4.2732  -11.0807   -7.9578 C   0  0  0  0  0  0  0  0  0  0  0  0
    1.8852  -11.2338    1.1756 N   0  0  0  0  0  0  0  0  0  0  0  0
   -0.3866  -11.5198    1.7117 N   0  0  0  0  0  0  0  0  0  0  0  0
   -4.0152  -12.2921   -7.5253 N   0  0  0  0  0  0  0  0  0  0  0  0
   -3.6595  -13.2577   -8.3509 C   0  0  0  0  0  0  0  0  0  0  0  0
   -4.6197  -14.0374   -8.9110 N   0  0  0  0  0  0  0  0  0  0  0  0
   -2.3477  -13.4976   -8.6470 N   0  0  0  0  0  0  0  0  0  0  0  0
   -3.3196   -8.4340   -0.3643 C   0  0  0  0  0  0  0  0  0  0  0  0
   -6.9946   -6.3233   -0.9029 O   0  0  0  0  0  0  0  0  0  0  0  0
   -3.9310   -8.3834   -1.6503 C   0  0  0  0  0  0  0  0  0  0  0  0
   -5.1487   -7.6736   -1.8282 C   0  0  0  0  0  0  0  0  0  0  0  0
   -5.7669   -7.0336   -0.7220 C   0  0  0  0  0  0  0  0  0  0  0  0
   -5.1680   -7.1000    0.5649 C   0  0  0  0  0  0  0  0  0  0  0  0
   -3.9479   -7.8059    0.7467 C   0  0  0  0  0  0  0  0  0  0  0  0
   -7.9896   -6.8542   -0.0228 C   0  0  0  0  0  0  0  0  0  0  0  0
  1  4  1  0  0  0  0
  2  3  1  0  0  0  0
  3  5  1  0  0  0  0
  4  6  1  0  0  0  0
  5  8  1  0  0  0  0
  6  7  1  0  0  0  0
  7 10  1  0  0  0  0
  8  9  1  0  0  0  0
  9 12  1  0  0  0  0
  9 13  1  0  0  0  0
 10 11  1  0  0  0  0
 11 14  1  0  0  0  0
 14 15  1  0  0  0  0
 15 16  1  0  0  0  0
 15 17  1  0  0  0  0
 18  2  1  0  0  0  0
 18 20  2  0  0  0  0
 18 24  1  0  0  0  0
 19 25  1  0  0  0  0
 20  1  1  0  0  0  0
 20 21  1  0  0  0  0
 21 22  2  0  0  0  0
 22 19  1  0  0  0  0
 22 23  1  0  0  0  0
 23 24  2  0  0  0  0
M  END
>  <CHROM.1>
178.38690480,178.15243134,-58.64714976,82.25610091,125.98937006,154.56826903
-179.27517185,73.30537794,-149.68284841,-28.84624799,-72.98197757,-118.90486367
-90.02384922,15.37584623,37.24856645,90.26554091,-138.54496430,123.25598534
-3.06805428,-9.63518888,-2.69661936,1.38220227,-0.53260051,1.09093084

>  <Name>
1uud_lig

>  <RI>
0

>  <Rbt.Current_Directory>
/home/itssahil/PROJECTS/Mol_Feturizer/New_Systems/rnas/1uud

>  <Rbt.Executable>
rbdock ($Id: //depot/dev/client3/rdock/2013.1/src/exe/rbdock.cxx#4 $)

>  <Rbt.Library>
libRbt.so (2013.1, Build901 2013/11/27)

>  <Rbt.Parameter_File>
/export/apps/rDock/src/rDock_2013.1_src/data/scripts/dock_solv.prm

>  <Rbt.Receptor>
prm/pocket_docking_5.prm

>  <SCORE>
-32.333

>  <SCORE.INTER>
-23.347

>  <SCORE.INTER.CONST>
1

>  <SCORE.INTER.POLAR>
-4.41851

>  <SCORE.INTER.ROT>
18

>  <SCORE.INTER.SOLV>
10.8322

>  <SCORE.INTER.VDW>
-20.047

>  <SCORE.INTER.norm>
-0.93388

>  <SCORE.INTRA>
-8.98603

>  <SCORE.INTRA.DIHEDRAL>
-8.38404

>  <SCORE.INTRA.DIHEDRAL.0>
30.6762

>  <SCORE.INTRA.POLAR>
0.0288659

>  <SCORE.INTRA.POLAR.0>
-0.0288659

>  <SCORE.INTRA.REPUL>
0

>  <SCORE.INTRA.REPUL.0>
0

>  <SCORE.INTRA.SOLV>
-0.843278

>  <SCORE.INTRA.SOLV.lig_0>
-25.2195

>  <SCORE.INTRA.VDW>
-4.47052

>  <SCORE.INTRA.VDW.0>
4.14263

>  <SCORE.INTRA.norm>
-0.359441

>  <SCORE.RESTR>
0

>  <SCORE.RESTR.CAVITY>
0

>  <SCORE.RESTR.norm>
0

>  <SCORE.SYSTEM>
0

>  <SCORE.SYSTEM.CONST>
0

>  <SCORE.SYSTEM.DIHEDRAL>
0

>  <SCORE.SYSTEM.SOLV>
0

>  <SCORE.SYSTEM.norm>
0

>  <SCORE.heavy>
25

>  <SCORE.norm>
-1.29332

>  <RMSD>
7.147

$$$$
1uud_lig
 OpenBabel11021811413D
libRbt.so/2013.1/901 2013/11/27
 25 25  0  0  0  0  0  0  0  0999 V2000
   -1.8686   -8.3524   -3.0038 C   0  0  0  0  0  0  0  0  0  0  0  0
   -3.2600  -10.9150   -2.6875 O   0  0  0  0  0  0  0  0  0  0  0  0
   -2.6289  -11.4403   -3.8648 C   0  0  0  0  0  0  0  0  0  0  0  0
   -2.7383   -7.2485   -2.5274 N   0  0  0  0  0  0  0  0  0  0  0  0
   -3.6683  -12.1270   -4.7610 C   0  0  0  0  0  0  0  0  0  0  0  0
   -4.1588   -7.6672   -2.5866 C   0  0  0  0  0  0  0  0  0  0  0  0
   -5.0620   -6.4542   -2.3324 C   0  0  0  0  0  0  0  0  0  0  0  0
   -4.6253  -11.2824   -5.0634 N   0  0  0  0  0  0  0  0  0  0  0  0
   -4.7425  -10.7782   -6.2775 C   0  0  0  0  0  0  0  0  0  0  0  0
   -6.5250   -6.8304   -2.5910 C   0  0  0  0  0  0  0  0  0  0  0  0
   -6.7935   -6.8343   -4.0987 C   0  0  0  0  0  0  0  0  0  0  0  0
   -4.9211   -9.4375   -6.4805 N   0  0  0  0  0  0  0  0  0  0  0  0
   -4.6858  -11.6101   -7.3494 N   0  0  0  0  0  0  0  0  0  0  0  0
   -7.9868   -7.3244   -4.3373 N   0  0  0  0  0  0  0  0  0  0  0  0
   -8.1818   -8.6201   -4.4909 C   0  0  0  0  0  0  0  0  0  0  0  0
   -7.7479   -9.2251   -5.6264 N   0  0  0  0  0  0  0  0  0  0  0  0
   -8.8189   -9.3647   -3.5391 N   0  0  0  0  0  0  0  0  0  0  0  0
   -2.2688  -10.5499   -1.7186 C   0  0  0  0  0  0  0  0  0  0  0  0
    0.7132   -9.5019    1.1553 O   0  0  0  0  0  0  0  0  0  0  0  0
   -1.5657   -9.3164   -1.8380 C   0  0  0  0  0  0  0  0  0  0  0  0
   -0.5686   -8.9744   -0.8855 C   0  0  0  0  0  0  0  0  0  0  0  0
   -0.2879   -9.8504    0.1958 C   0  0  0  0  0  0  0  0  0  0  0  0
   -1.0023  -11.0718    0.3266 C   0  0  0  0  0  0  0  0  0  0  0  0
   -1.9981  -11.4196   -0.6259 C   0  0  0  0  0  0  0  0  0  0  0  0
    1.8880  -10.2861    0.9285 C   0  0  0  0  0  0  0  0  0  0  0  0
  1  4  1  0  0  0  0
  2  3  1  0  0  0  0
  3  5  1  0  0  0  0
  4  6  1  0  0  0  0
  5  8  1  0  0  0  0
  6  7  1  0  0  0  0
  7 10  1  0  0  0  0
  8  9  1  0  0  0  0
  9 12  1  0  0  0  0
  9 13  1  0  0  0  0
 10 11  1  0  0  0  0
 11 14  1  0  0  0  0
 14 15  1  0  0  0  0
 15 16  1  0  0  0  0
 15 17  1  0  0  0  0
 18  2  1  0  0  0  0
 18 20  2  0  0  0  0
 18 24  1  0  0  0  0
 19 25  1  0  0  0  0
 20  1  1  0  0  0  0
 20 21  1  0  0  0  0
 21 22  2  0  0  0  0
 22 19  1  0  0  0  0
 22 23  1  0  0  0  0
 23 24  2  0  0  0  0
M  END
>  <CHROM.1>
-85.30932727,166.90827279,56.67402100,-170.11819331,108.05098715,171.83983473
-78.57810009,-132.12110353,-58.55116679,-52.74018628,171.69971400,-87.54214092
-72.24691026,-46.86746281,21.93029099,79.88421882,101.14856007,-105.09702898
-3.81826910,-9.44535521,-3.03691548,0.31321787,-0.56278916,0.76026431

>  <Name>
1uud_lig

>  <RI>
0

>  <Rbt.Current_Directory>
/home/itssahil/PROJECTS/Mol_Feturizer/New_Systems/rnas/1uud

>  <Rbt.Executable>
rbdock ($Id: //depot/dev/client3/rdock/2013.1/src/exe/rbdock.cxx#4 $)

>  <Rbt.Library>
libRbt.so (2013.1, Build901 2013/11/27)

>  <Rbt.Parameter_File>
/export/apps/rDock/src/rDock_2013.1_src/data/scripts/dock_solv.prm

>  <Rbt.Receptor>
prm/pocket_docking_7.prm

>  <SCORE>
-35.0763

>  <SCORE.INTER>
-23.1087

>  <SCORE.INTER.CONST>
1

>  <SCORE.INTER.POLAR>
-3.63207

>  <SCORE.INTER.ROT>
18

>  <SCORE.INTER.SOLV>
11.9341

>  <SCORE.INTER.VDW>
-22.8769

>  <SCORE.INTER.norm>
-0.924348

>  <SCORE.INTRA>
-11.9676

>  <SCORE.INTRA.DIHEDRAL>
-6.97427

>  <SCORE.INTRA.DIHEDRAL.0>
30.6762

>  <SCORE.INTRA.POLAR>
-0.725126

>  <SCORE.INTRA.POLAR.0>
-0.0288659

>  <SCORE.INTRA.REPUL>
0

>  <SCORE.INTRA.REPUL.0>
0

>  <SCORE.INTRA.SOLV>
1.13611

>  <SCORE.INTRA.SOLV.lig_0>
-25.2195

>  <SCORE.INTRA.VDW>
-6.58314

>  <SCORE.INTRA.VDW.0>
4.14263

>  <SCORE.INTRA.norm>
-0.478706

>  <SCORE.RESTR>
0

>  <SCORE.RESTR.CAVITY>
0

>  <SCORE.RESTR.norm>
0

>  <SCORE.SYSTEM>
0

>  <SCORE.SYSTEM.CONST>
0

>  <SCORE.SYSTEM.DIHEDRAL>
0

>  <SCORE.SYSTEM.SOLV>
0

>  <SCORE.SYSTEM.norm>
0

>  <SCORE.heavy>
25

>  <SCORE.norm>
-1.40305

>  <RMSD>
7.154

$$$$
1uud_lig
 OpenBabel11021811413D
libRbt.so/2013.1/901 2013/11/27
 25 25  0  0  0  0  0  0  0  0999 V2000
   -2.5145   -7.8785   -8.2955 C   0  0  0  0  0  0  0  0  0  0  0  0
   -4.5498   -8.4189   -6.2539 O   0  0  0  0  0  0  0  0  0  0  0  0
   -5.4592   -8.4809   -5.1451 C   0  0  0  0  0  0  0  0  0  0  0  0
   -2.4352   -9.0993   -7.4556 N   0  0  0  0  0  0  0  0  0  0  0  0
   -6.0584   -9.8890   -5.0300 C   0  0  0  0  0  0  0  0  0  0  0  0
   -1.9991  -10.2498   -8.2820 C   0  0  0  0  0  0  0  0  0  0  0  0
   -2.0776  -11.5366   -7.4516 C   0  0  0  0  0  0  0  0  0  0  0  0
   -7.0797   -9.8741   -4.2069 N   0  0  0  0  0  0  0  0  0  0  0  0
   -8.2120   -9.2741   -4.5231 C   0  0  0  0  0  0  0  0  0  0  0  0
   -3.5205  -12.0524   -7.4250 C   0  0  0  0  0  0  0  0  0  0  0  0
   -3.8085  -12.8337   -8.7103 C   0  0  0  0  0  0  0  0  0  0  0  0
   -8.4163   -8.7427   -5.7667 N   0  0  0  0  0  0  0  0  0  0  0  0
   -9.1960   -9.1812   -3.5918 N   0  0  0  0  0  0  0  0  0  0  0  0
   -4.1089  -14.0769   -8.4180 N   0  0  0  0  0  0  0  0  0  0  0  0
   -3.1783  -15.0073   -8.3244 C   0  0  0  0  0  0  0  0  0  0  0  0
   -2.7137  -15.5954   -9.4566 N   0  0  0  0  0  0  0  0  0  0  0  0
   -2.6790  -15.3995   -7.1149 N   0  0  0  0  0  0  0  0  0  0  0  0
   -4.2002   -7.0562   -6.5283 C   0  0  0  0  0  0  0  0  0  0  0  0
   -3.1413   -2.9898   -7.2987 O   0  0  0  0  0  0  0  0  0  0  0  0
   -3.2127   -6.7499   -7.5086 C   0  0  0  0  0  0  0  0  0  0  0  0
   -2.8565   -5.3972   -7.7567 C   0  0  0  0  0  0  0  0  0  0  0  0
   -3.4987   -4.3506   -7.0442 C   0  0  0  0  0  0  0  0  0  0  0  0
   -4.4976   -4.6541   -6.0802 C   0  0  0  0  0  0  0  0  0  0  0  0
   -4.8545   -6.0061   -5.8263 C   0  0  0  0  0  0  0  0  0  0  0  0
   -4.0453   -2.4276   -8.2544 C   0  0  0  0  0  0  0  0  0  0  0  0
  1  4  1  0  0  0  0
  2  3  1  0  0  0  0
  3  5  1  0  0  0  0
  4  6  1  0  0  0  0
  5  8  1  0  0  0  0
  6  7  1  0  0  0  0
  7 10  1  0  0  0  0
  8  9  1  0  0  0  0
  9 12  1  0  0  0  0
  9 13  1  0  0  0  0
 10 11  1  0  0  0  0
 11 14  1  0  0  0  0
 14 15  1  0  0  0  0
 15 16  1  0  0  0  0
 15 17  1  0  0  0  0
 18  2  1  0  0  0  0
 18 20  2  0  0  0  0
 18 24  1  0  0  0  0
 19 25  1  0  0  0  0
 20  1  1  0  0  0  0
 20 21  1  0  0  0  0
 21 22  2  0  0  0  0
 22 19  1  0  0  0  0
 22 23  1  0  0  0  0
 23 24  2  0  0  0  0
M  END
>  <CHROM.1>
169.56096027,168.38668889,-167.03029746,-173.38412948,69.68806232,80.96451418
81.54381658,5.87103852,-143.99527643,-151.67228304,118.64289457,-89.29986947
-81.62034749,84.59356275,-123.32005318,174.21871917,-30.31207994,95.13415194
-4.36437213,-9.18776302,-6.86114727,-1.71602875,-0.60529848,-3.08384401

>  <Name>
1uud_lig

>  <RI>
0

>  <Rbt.Current_Directory>
/home/itssahil/PROJECTS/Mol_Feturizer/New_Systems/rnas/1uud

>  <Rbt.Executable>
rbdock ($Id: //depot/dev/client3/rdock/2013.1/src/exe/rbdock.cxx#4 $)

>  <Rbt.Library>
libRbt.so (2013.1, Build901 2013/11/27)

>  <Rbt.Parameter_File>
/export/apps/rDock/src/rDock_2013.1_src/data/scripts/dock_solv.prm

>  <Rbt.Receptor>
prm/pocket_docking_8.prm

>  <SCORE>
-37.1344

>  <SCORE.INTER>
-31.7444

>  <SCORE.INTER.CONST>
1

>  <SCORE.INTER.POLAR>
-5.11078

>  <SCORE.INTER.ROT>
18

>  <SCORE.INTER.SOLV>
14.5226

>  <SCORE.INTER.VDW>
-24.5679

>  <SCORE.INTER.norm>
-1.26978

>  <SCORE.INTRA>
-5.38995

>  <SCORE.INTRA.DIHEDRAL>
-5.19512

>  <SCORE.INTRA.DIHEDRAL.0>
30.6762

>  <SCORE.INTRA.POLAR>
-0.691366

>  <SCORE.INTRA.POLAR.0>
-0.0288659

>  <SCORE.INTRA.REPUL>
0

>  <SCORE.INTRA.REPUL.0>
0

>  <SCORE.INTRA.SOLV>
-0.349326

>  <SCORE.INTRA.SOLV.lig_0>
-25.2195

>  <SCORE.INTRA.VDW>
-0.267081

>  <SCORE.INTRA.VDW.0>
4.14263

>  <SCORE.INTRA.norm>
-0.215598

>  <SCORE.RESTR>
0

>  <SCORE.RESTR.CAVITY>
0

>  <SCORE.RESTR.norm>
0

>  <SCORE.SYSTEM>
0

>  <SCORE.SYSTEM.CONST>
0

>  <SCORE.SYSTEM.DIHEDRAL>
0

>  <SCORE.SYSTEM.SOLV>
0

>  <SCORE.SYSTEM.norm>
0

>  <SCORE.heavy>
25

>  <SCORE.norm>
-1.48538

>  <RMSD>
7.162

$$$$
1uud_lig
 OpenBabel11021811413D
libRbt.so/2013.1/901 2013/11/27
 25 25  0  0  0  0  0  0  0  0999 V2000
   -2.9150  -10.6793   -3.1568 C   0  0  0  0  0  0  0  0  0  0  0  0
   -1.9826  -11.5073   -5.8115 O   0  0  0  0  0  0  0  0  0  0  0  0
   -1.8590  -12.9313   -5.6802 C   0  0  0  0  0  0  0  0  0  0  0  0
   -3.6653   -9.3993   -3.1307 N   0  0  0  0  0  0  0  0  0  0  0  0
   -3.0058  -13.6327   -6.4205 C   0  0  0  0  0  0  0  0  0  0  0  0
   -5.0846   -9.6561   -2.7895 C   0  0  0  0  0  0  0  0  0  0  0  0
   -5.7803   -8.3304   -2.4579 C   0  0  0  0  0  0  0  0  0  0  0  0
   -2.9461  -13.3559   -7.7014 N   0  0  0  0  0  0  0  0  0  0  0  0
   -3.3281  -12.1837   -8.1725 C   0  0  0  0  0  0  0  0  0  0  0  0
   -7.2612   -8.5809   -2.1529 C   0  0  0  0  0  0  0  0  0  0  0  0
   -7.8568   -7.3504   -1.4628 C   0  0  0  0  0  0  0  0  0  0  0  0
   -2.4790  -11.3936   -8.8973 N   0  0  0  0  0  0  0  0  0  0  0  0
   -4.5928  -11.7519   -7.9308 N   0  0  0  0  0  0  0  0  0  0  0  0
   -7.8212   -6.3222   -2.2769 N   0  0  0  0  0  0  0  0  0  0  0  0
   -8.8867   -5.9442   -2.9569 C   0  0  0  0  0  0  0  0  0  0  0  0
  -10.1204   -6.2050   -2.4536 N   0  0  0  0  0  0  0  0  0  0  0  0
   -8.7774   -5.3061   -4.1599 N   0  0  0  0  0  0  0  0  0  0  0  0
   -1.0581  -10.8499   -4.9353 C   0  0  0  0  0  0  0  0  0  0  0  0
    1.7012   -8.8528   -2.3570 O   0  0  0  0  0  0  0  0  0  0  0  0
   -1.4716  -10.4267   -3.6392 C   0  0  0  0  0  0  0  0  0  0  0  0
   -0.5542   -9.7552   -2.7872 C   0  0  0  0  0  0  0  0  0  0  0  0
    0.7788   -9.5251   -3.2181 C   0  0  0  0  0  0  0  0  0  0  0  0
    1.1975   -9.9642   -4.5029 C   0  0  0  0  0  0  0  0  0  0  0  0
    0.2822  -10.6332   -5.3600 C   0  0  0  0  0  0  0  0  0  0  0  0
    1.3372   -7.4736   -2.2482 C   0  0  0  0  0  0  0  0  0  0  0  0
  1  4  1  0  0  0  0
  2  3  1  0  0  0  0
  3  5  1  0  0  0  0
  4  6  1  0  0  0  0
  5  8  1  0  0  0  0
  6  7  1  0  0  0  0
  7 10  1  0  0  0  0
  8  9  1  0  0  0  0
  9 12  1  0  0  0  0
  9 13  1  0  0  0  0
 10 11  1  0  0  0  0
 11 14  1  0  0  0  0
 14 15  1  0  0  0  0
 15 16  1  0  0  0  0
 15 17  1  0  0  0  0
 18  2  1  0  0  0  0
 18 20  2  0  0  0  0
 18 24  1  0  0  0  0
 19 25  1  0  0  0  0
 20  1  1  0  0  0  0
 20 21  1  0  0  0  0
 21 22  2  0  0  0  0
 22 19  1  0  0  0  0
 22 23  1  0  0  0  0
 23 24  2  0  0  0  0
M  END
>  <CHROM.1>
174.76900571,169.94706343,62.15011599,167.48449850,-75.87977124,177.97162289
164.69909356,122.86426064,86.79100677,95.37876604,63.81344624,99.66350462
27.53388898,-18.57463614,-80.50030895,-94.45218209,-107.78683298,-70.46688805
-3.53991484,-9.64024373,-4.29582078,-0.58383606,-0.19493344,0.84634750

>  <Name>
1uud_lig

>  <RI>
0

>  <Rbt.Current_Directory>
/home/itssahil/PROJECTS/Mol_Feturizer/New_Systems/rnas/1uud

>  <Rbt.Executable>
rbdock ($Id: //depot/dev/client3/rdock/2013.1/src/exe/rbdock.cxx#4 $)

>  <Rbt.Library>
libRbt.so (2013.1, Build901 2013/11/27)

>  <Rbt.Parameter_File>
/export/apps/rDock/src/rDock_2013.1_src/data/scripts/dock_solv.prm

>  <Rbt.Receptor>
prm/pocket_docking_6.prm

>  <SCORE>
-25.3459

>  <SCORE.INTER>
-16.7263

>  <SCORE.INTER.CONST>
1

>  <SCORE.INTER.POLAR>
-4.09084

>  <SCORE.INTER.ROT>
18

>  <SCORE.INTER.SOLV>
6.67162

>  <SCORE.INTER.VDW>
-15.3386

>  <SCORE.INTER.norm>
-0.669053

>  <SCORE.INTRA>
-8.61955

>  <SCORE.INTRA.DIHEDRAL>
-9.37582

>  <SCORE.INTRA.DIHEDRAL.0>
30.6762

>  <SCORE.INTRA.POLAR>
0.0288659

>  <SCORE.INTRA.POLAR.0>
-0.0288659

>  <SCORE.INTRA.REPUL>
0

>  <SCORE.INTRA.REPUL.0>
0

>  <SCORE.INTRA.SOLV>
-0.216889

>  <SCORE.INTRA.SOLV.lig_0>
-25.2195

>  <SCORE.INTRA.VDW>
-3.92134

>  <SCORE.INTRA.VDW.0>
4.14263

>  <SCORE.INTRA.norm>
-0.344782

>  <SCORE.RESTR>
0

>  <SCORE.RESTR.CAVITY>
0

>  <SCORE.RESTR.norm>
0

>  <SCORE.SYSTEM>
0

>  <SCORE.SYSTEM.CONST>
0

>  <SCORE.SYSTEM.DIHEDRAL>
0

>  <SCORE.SYSTEM.SOLV>
0

>  <SCORE.SYSTEM.norm>
0

>  <SCORE.heavy>
25

>  <SCORE.norm>
-1.01383

>  <RMSD>
7.176

$$$$
1uud_lig
 OpenBabel11021811413D
libRbt.so/2013.1/901 2013/11/27
 25 25  0  0  0  0  0  0  0  0999 V2000
   -5.6905  -11.0936   -4.1600 C   0  0  0  0  0  0  0  0  0  0  0  0
   -4.2398  -11.8010   -6.6090 O   0  0  0  0  0  0  0  0  0  0  0  0
   -4.0923  -11.5410   -8.0129 C   0  0  0  0  0  0  0  0  0  0  0  0
   -6.8209  -10.1708   -3.8902 N   0  0  0  0  0  0  0  0  0  0  0  0
   -4.0157  -12.8617   -8.7908 C   0  0  0  0  0  0  0  0  0  0  0  0
   -6.6132   -9.4890   -2.5907 C   0  0  0  0  0  0  0  0  0  0  0  0
   -7.7196   -8.4495   -2.3743 C   0  0  0  0  0  0  0  0  0  0  0  0
   -2.8945  -13.4816   -8.5092 N   0  0  0  0  0  0  0  0  0  0  0  0
   -2.0001  -13.7480   -9.4426 C   0  0  0  0  0  0  0  0  0  0  0  0
   -7.4738   -7.2322   -3.2723 C   0  0  0  0  0  0  0  0  0  0  0  0
   -8.3643   -6.0724   -2.8171 C   0  0  0  0  0  0  0  0  0  0  0  0
   -1.7452  -15.0308   -9.8428 N   0  0  0  0  0  0  0  0  0  0  0  0
   -1.3166  -12.7251  -10.0175 N   0  0  0  0  0  0  0  0  0  0  0  0
   -9.2838   -5.8351   -3.7224 N   0  0  0  0  0  0  0  0  0  0  0  0
   -9.7437   -4.6169   -3.9350 C   0  0  0  0  0  0  0  0  0  0  0  0
  -10.6367   -4.0845   -3.0617 N   0  0  0  0  0  0  0  0  0  0  0  0
   -9.3502   -3.8835   -5.0181 N   0  0  0  0  0  0  0  0  0  0  0  0
   -3.7908  -10.6716   -5.8492 C   0  0  0  0  0  0  0  0  0  0  0  0
   -2.4628   -7.2752   -3.6241 O   0  0  0  0  0  0  0  0  0  0  0  0
   -4.4703  -10.2905   -4.6563 C   0  0  0  0  0  0  0  0  0  0  0  0
   -4.0316   -9.1556   -3.9230 C   0  0  0  0  0  0  0  0  0  0  0  0
   -2.9047   -8.4146   -4.3663 C   0  0  0  0  0  0  0  0  0  0  0  0
   -2.2146   -8.8054   -5.5452 C   0  0  0  0  0  0  0  0  0  0  0  0
   -2.6521   -9.9381   -6.2840 C   0  0  0  0  0  0  0  0  0  0  0  0
   -1.9306   -7.6998   -2.3659 C   0  0  0  0  0  0  0  0  0  0  0  0
  1  4  1  0  0  0  0
  2  3  1  0  0  0  0
  3  5  1  0  0  0  0
  4  6  1  0  0  0  0
  5  8  1  0  0  0  0
  6  7  1  0  0  0  0
  7 10  1  0  0  0  0
  8  9  1  0  0  0  0
  9 12  1  0  0  0  0
  9 13  1  0  0  0  0
 10 11  1  0  0  0  0
 11 14  1  0  0  0  0
 14 15  1  0  0  0  0
 15 16  1  0  0  0  0
 15 17  1  0  0  0  0
 18  2  1  0  0  0  0
 18 20  2  0  0  0  0
 18 24  1  0  0  0  0
 19 25  1  0  0  0  0
 20  1  1  0  0  0  0
 20 21  1  0  0  0  0
 21 22  2  0  0  0  0
 22 19  1  0  0  0  0
 22 23  1  0  0  0  0
 23 24  2  0  0  0  0
M  END
>  <CHROM.1>
-78.10786693,157.20509357,-68.37313734,175.13139505,-118.94614788,-74.31196777
-166.32827951,-111.51629833,52.88820474,131.10694357,-111.31104077,-147.53386941
-77.06014113,-176.89175653,-156.12740489,142.84007586,-129.01557708,68.33245498
-5.09995214,-9.36279622,-5.33285732,0.93034890,0.28157818,-2.31778255

>  <Name>
1uud_lig

>  <RI>
0

>  <Rbt.Current_Directory>
/home/itssahil/PROJECTS/Mol_Feturizer/New_Systems/rnas/1uud

>  <Rbt.Executable>
rbdock ($Id: //depot/dev/client3/rdock/2013.1/src/exe/rbdock.cxx#4 $)

>  <Rbt.Library>
libRbt.so (2013.1, Build901 2013/11/27)

>  <Rbt.Parameter_File>
/export/apps/rDock/src/rDock_2013.1_src/data/scripts/dock_solv.prm

>  <Rbt.Receptor>
prm/pocket_docking_6.prm

>  <SCORE>
-18.5774

>  <SCORE.INTER>
-13.2856

>  <SCORE.INTER.CONST>
1

>  <SCORE.INTER.POLAR>
-2.91421

>  <SCORE.INTER.ROT>
18

>  <SCORE.INTER.SOLV>
6.5204

>  <SCORE.INTER.VDW>
-16.9165

>  <SCORE.INTER.norm>
-0.531422

>  <SCORE.INTRA>
-5.29188

>  <SCORE.INTRA.DIHEDRAL>
-4.34281

>  <SCORE.INTRA.DIHEDRAL.0>
30.6762

>  <SCORE.INTRA.POLAR>
0.0288659

>  <SCORE.INTRA.POLAR.0>
-0.0288659

>  <SCORE.INTRA.REPUL>
0

>  <SCORE.INTRA.REPUL.0>
0

>  <SCORE.INTRA.SOLV>
-1.13919

>  <SCORE.INTRA.SOLV.lig_0>
-25.2195

>  <SCORE.INTRA.VDW>
-2.64902

>  <SCORE.INTRA.VDW.0>
4.14263

>  <SCORE.INTRA.norm>
-0.211675

>  <SCORE.RESTR>
0

>  <SCORE.RESTR.CAVITY>
0

>  <SCORE.RESTR.norm>
0

>  <SCORE.SYSTEM>
0

>  <SCORE.SYSTEM.CONST>
0

>  <SCORE.SYSTEM.DIHEDRAL>
0

>  <SCORE.SYSTEM.SOLV>
0

>  <SCORE.SYSTEM.norm>
0

>  <SCORE.heavy>
25

>  <SCORE.norm>
-0.743097

>  <RMSD>
7.181

$$$$
1uud_lig
 OpenBabel11021811413D
libRbt.so/2013.1/901 2013/11/27
 25 25  0  0  0  0  0  0  0  0999 V2000
   -3.5860  -10.1654   -3.1332 C   0  0  0  0  0  0  0  0  0  0  0  0
   -3.6416  -10.1137   -0.2012 O   0  0  0  0  0  0  0  0  0  0  0  0
   -3.0164   -9.0178    0.4832 C   0  0  0  0  0  0  0  0  0  0  0  0
   -3.7830  -11.5903   -3.4978 N   0  0  0  0  0  0  0  0  0  0  0  0
   -1.9029   -9.5347    1.4041 C   0  0  0  0  0  0  0  0  0  0  0  0
   -2.9487  -11.9271   -4.6756 C   0  0  0  0  0  0  0  0  0  0  0  0
   -3.2560  -13.3595   -5.1289 C   0  0  0  0  0  0  0  0  0  0  0  0
   -1.0793  -10.2971    0.7249 N   0  0  0  0  0  0  0  0  0  0  0  0
    0.1636  -10.4955    1.1221 C   0  0  0  0  0  0  0  0  0  0  0  0
   -2.4857  -13.6755   -6.4156 C   0  0  0  0  0  0  0  0  0  0  0  0
   -3.3106  -13.2328   -7.6276 C   0  0  0  0  0  0  0  0  0  0  0  0
    0.5612  -11.6902    1.6560 N   0  0  0  0  0  0  0  0  0  0  0  0
    1.0678   -9.4897    0.9990 N   0  0  0  0  0  0  0  0  0  0  0  0
   -3.9048  -14.2715   -8.1654 N   0  0  0  0  0  0  0  0  0  0  0  0
   -3.3063  -15.0116   -9.0789 C   0  0  0  0  0  0  0  0  0  0  0  0
   -4.0539  -15.8338   -9.8590 N   0  0  0  0  0  0  0  0  0  0  0  0
   -1.9515  -14.9774   -9.2510 N   0  0  0  0  0  0  0  0  0  0  0  0
   -4.7957   -9.6538   -0.9161 C   0  0  0  0  0  0  0  0  0  0  0  0
   -8.2288   -8.2369   -3.0272 O   0  0  0  0  0  0  0  0  0  0  0  0
   -4.8083   -9.6571   -2.3408 C   0  0  0  0  0  0  0  0  0  0  0  0
   -5.9481   -9.1774   -3.0402 C   0  0  0  0  0  0  0  0  0  0  0  0
   -7.0813   -8.7153   -2.3208 C   0  0  0  0  0  0  0  0  0  0  0  0
   -7.0772   -8.7298   -0.9000 C   0  0  0  0  0  0  0  0  0  0  0  0
   -5.9378   -9.2055   -0.1962 C   0  0  0  0  0  0  0  0  0  0  0  0
   -8.7281   -9.2678   -3.8842 C   0  0  0  0  0  0  0  0  0  0  0  0
  1  4  1  0  0  0  0
  2  3  1  0  0  0  0
  3  5  1  0  0  0  0
  4  6  1  0  0  0  0
  5  8  1  0  0  0  0
  6  7  1  0  0  0  0
  7 10  1  0  0  0  0
  8  9  1  0  0  0  0
  9 12  1  0  0  0  0
  9 13  1  0  0  0  0
 10 11  1  0  0  0  0
 11 14  1  0  0  0  0
 14 15  1  0  0  0  0
 15 16  1  0  0  0  0
 15 17  1  0  0  0  0
 18  2  1  0  0  0  0
 18 20  2  0  0  0  0
 18 24  1  0  0  0  0
 19 25  1  0  0  0  0
 20  1  1  0  0  0  0
 20 21  1  0  0  0  0
 21 22  2  0  0  0  0
 22 19  1  0  0  0  0
 22 23  1  0  0  0  0
 23 24  2  0  0  0  0
M  END
>  <CHROM.1>
156.89924586,172.07471418,52.71487679,-174.65387831,156.75857474,175.25844015
-87.29518560,107.19527969,-165.43110368,18.10739403,-100.81615100,-87.42856598
-162.40040697,-87.27273057,77.93723543,112.40115829,95.51627315,58.48864407
-3.65543268,-11.16255777,-3.13677448,1.48618785,-0.40584801,1.03260540

>  <Name>
1uud_lig

>  <RI>
0

>  <Rbt.Current_Directory>
/home/itssahil/PROJECTS/Mol_Feturizer/New_Systems/rnas/1uud

>  <Rbt.Executable>
rbdock ($Id: //depot/dev/client3/rdock/2013.1/src/exe/rbdock.cxx#4 $)

>  <Rbt.Library>
libRbt.so (2013.1, Build901 2013/11/27)

>  <Rbt.Parameter_File>
/export/apps/rDock/src/rDock_2013.1_src/data/scripts/dock_solv.prm

>  <Rbt.Receptor>
prm/pocket_docking_5.prm

>  <SCORE>
-33.9757

>  <SCORE.INTER>
-27.8659

>  <SCORE.INTER.CONST>
1

>  <SCORE.INTER.POLAR>
-3.81373

>  <SCORE.INTER.ROT>
18

>  <SCORE.INTER.SOLV>
12.3144

>  <SCORE.INTER.VDW>
-25.5696

>  <SCORE.INTER.norm>
-1.11463

>  <SCORE.INTRA>
-6.10988

>  <SCORE.INTRA.DIHEDRAL>
-4.09328

>  <SCORE.INTRA.DIHEDRAL.0>
30.6762

>  <SCORE.INTRA.POLAR>
-0.00241022

>  <SCORE.INTRA.POLAR.0>
-0.0288659

>  <SCORE.INTRA.REPUL>
0

>  <SCORE.INTRA.REPUL.0>
0

>  <SCORE.INTRA.SOLV>
-0.95029

>  <SCORE.INTRA.SOLV.lig_0>
-25.2195

>  <SCORE.INTRA.VDW>
-3.5799

>  <SCORE.INTRA.VDW.0>
4.14263

>  <SCORE.INTRA.norm>
-0.244395

>  <SCORE.RESTR>
0

>  <SCORE.RESTR.CAVITY>
0

>  <SCORE.RESTR.norm>
0

>  <SCORE.SYSTEM>
0

>  <SCORE.SYSTEM.CONST>
0

>  <SCORE.SYSTEM.DIHEDRAL>
0

>  <SCORE.SYSTEM.SOLV>
0

>  <SCORE.SYSTEM.norm>
0

>  <SCORE.heavy>
25

>  <SCORE.norm>
-1.35903

>  <RMSD>
7.183

$$$$
1uud_lig
 OpenBabel11021811413D
libRbt.so/2013.1/901 2013/11/27
 25 25  0  0  0  0  0  0  0  0999 V2000
   -4.3758  -10.0387   -1.6349 C   0  0  0  0  0  0  0  0  0  0  0  0
   -3.1434   -7.5107   -0.8026 O   0  0  0  0  0  0  0  0  0  0  0  0
   -1.8151   -7.0377   -1.0712 C   0  0  0  0  0  0  0  0  0  0  0  0
   -3.2458  -10.8405   -2.1662 N   0  0  0  0  0  0  0  0  0  0  0  0
   -1.0260   -6.9036    0.2381 C   0  0  0  0  0  0  0  0  0  0  0  0
   -3.4204  -11.0504   -3.6230 C   0  0  0  0  0  0  0  0  0  0  0  0
   -2.5972  -12.2651   -4.0685 C   0  0  0  0  0  0  0  0  0  0  0  0
   -1.7219   -6.2144    1.1107 N   0  0  0  0  0  0  0  0  0  0  0  0
   -1.1512   -5.6538    2.1605 C   0  0  0  0  0  0  0  0  0  0  0  0
   -2.4839  -12.2858   -5.5967 C   0  0  0  0  0  0  0  0  0  0  0  0
   -1.9751  -13.6561   -6.0535 C   0  0  0  0  0  0  0  0  0  0  0  0
   -0.4870   -4.4623    2.0617 N   0  0  0  0  0  0  0  0  0  0  0  0
   -1.2240   -6.2752    3.3658 N   0  0  0  0  0  0  0  0  0  0  0  0
   -2.9905  -14.4311   -6.3529 N   0  0  0  0  0  0  0  0  0  0  0  0
   -3.3677  -14.6209   -7.6028 C   0  0  0  0  0  0  0  0  0  0  0  0
   -2.7008  -15.5247   -8.3657 N   0  0  0  0  0  0  0  0  0  0  0  0
   -4.4064  -13.9224   -8.1498 N   0  0  0  0  0  0  0  0  0  0  0  0
   -3.9124   -7.5320   -2.0120 C   0  0  0  0  0  0  0  0  0  0  0  0
   -6.1630   -7.5835   -5.6428 O   0  0  0  0  0  0  0  0  0  0  0  0
   -4.5236   -8.7404   -2.4551 C   0  0  0  0  0  0  0  0  0  0  0  0
   -5.2643   -8.7565   -3.6672 C   0  0  0  0  0  0  0  0  0  0  0  0
   -5.4135   -7.5655   -4.4253 C   0  0  0  0  0  0  0  0  0  0  0  0
   -4.8207   -6.3555   -3.9742 C   0  0  0  0  0  0  0  0  0  0  0  0
   -4.0758   -6.3355   -2.7639 C   0  0  0  0  0  0  0  0  0  0  0  0
   -7.4930   -8.0401   -5.3801 C   0  0  0  0  0  0  0  0  0  0  0  0
  1  4  1  0  0  0  0
  2  3  1  0  0  0  0
  3  5  1  0  0  0  0
  4  6  1  0  0  0  0
  5  8  1  0  0  0  0
  6  7  1  0  0  0  0
  7 10  1  0  0  0  0
  8  9  1  0  0  0  0
  9 12  1  0  0  0  0
  9 13  1  0  0  0  0
 10 11  1  0  0  0  0
 11 14  1  0  0  0  0
 14 15  1  0  0  0  0
 15 16  1  0  0  0  0
 15 17  1  0  0  0  0
 18  2  1  0  0  0  0
 18 20  2  0  0  0  0
 18 24  1  0  0  0  0
 19 25  1  0  0  0  0
 20  1  1  0  0  0  0
 20 21  1  0  0  0  0
 21 22  2  0  0  0  0
 22 19  1  0  0  0  0
 22 23  1  0  0  0  0
 23 24  2  0  0  0  0
M  END
>  <CHROM.1>
-53.33550521,175.33950285,-50.63120950,-158.94464305,-161.48582222,-165.90758861
-166.03016381,80.41043255,41.32821932,-111.95261502,94.19818177,99.98141375
81.22453146,-155.31901701,64.96816225,123.27859522,-95.07942920,57.77519621
-3.32041357,-9.38931047,-3.06609102,-1.37186546,0.71778843,-2.46796377

>  <Name>
1uud_lig

>  <RI>
0

>  <Rbt.Current_Directory>
/home/itssahil/PROJECTS/Mol_Feturizer/New_Systems/rnas/1uud

>  <Rbt.Executable>
rbdock ($Id: //depot/dev/client3/rdock/2013.1/src/exe/rbdock.cxx#4 $)

>  <Rbt.Library>
libRbt.so (2013.1, Build901 2013/11/27)

>  <Rbt.Parameter_File>
/export/apps/rDock/src/rDock_2013.1_src/data/scripts/dock_solv.prm

>  <Rbt.Receptor>
prm/pocket_docking_6.prm

>  <SCORE>
-27.0965

>  <SCORE.INTER>
-20.5644

>  <SCORE.INTER.CONST>
1

>  <SCORE.INTER.POLAR>
-4.5708

>  <SCORE.INTER.ROT>
18

>  <SCORE.INTER.SOLV>
10.4689

>  <SCORE.INTER.VDW>
-17.5632

>  <SCORE.INTER.norm>
-0.822576

>  <SCORE.INTRA>
-6.53786

>  <SCORE.INTRA.DIHEDRAL>
-7.08309

>  <SCORE.INTRA.DIHEDRAL.0>
30.6762

>  <SCORE.INTRA.POLAR>
-0.00525556

>  <SCORE.INTRA.POLAR.0>
-0.0288659

>  <SCORE.INTRA.REPUL>
0

>  <SCORE.INTRA.REPUL.0>
0

>  <SCORE.INTRA.SOLV>
-1.04492

>  <SCORE.INTRA.SOLV.lig_0>
-25.2195

>  <SCORE.INTRA.VDW>
-2.45598

>  <SCORE.INTRA.VDW.0>
4.14263

>  <SCORE.INTRA.norm>
-0.261514

>  <SCORE.RESTR>
0.00573657

>  <SCORE.RESTR.CAVITY>
0.00573657

>  <SCORE.RESTR.norm>
0.000229463

>  <SCORE.SYSTEM>
0

>  <SCORE.SYSTEM.CONST>
0

>  <SCORE.SYSTEM.DIHEDRAL>
0

>  <SCORE.SYSTEM.SOLV>
0

>  <SCORE.SYSTEM.norm>
0

>  <SCORE.heavy>
25

>  <SCORE.norm>
-1.08386

>  <RMSD>
7.184

$$$$
1uud_lig
 OpenBabel11021811413D
libRbt.so/2013.1/901 2013/11/27
 25 25  0  0  0  0  0  0  0  0999 V2000
   -0.5712   -8.4314   -4.3583 C   0  0  0  0  0  0  0  0  0  0  0  0
   -2.3657   -6.3288   -5.3386 O   0  0  0  0  0  0  0  0  0  0  0  0
   -3.7674   -6.2197   -5.6278 C   0  0  0  0  0  0  0  0  0  0  0  0
   -1.4793   -9.5420   -4.7376 N   0  0  0  0  0  0  0  0  0  0  0  0
   -4.4922   -7.5124   -5.2295 C   0  0  0  0  0  0  0  0  0  0  0  0
   -1.9483   -9.3535   -6.1309 C   0  0  0  0  0  0  0  0  0  0  0  0
   -3.0752  -10.3490   -6.4319 C   0  0  0  0  0  0  0  0  0  0  0  0
   -5.7113   -7.5086   -5.7140 N   0  0  0  0  0  0  0  0  0  0  0  0
   -6.6887   -8.1744   -5.1281 C   0  0  0  0  0  0  0  0  0  0  0  0
   -3.2450  -10.5014   -7.9474 C   0  0  0  0  0  0  0  0  0  0  0  0
   -4.2923  -11.5800   -8.2390 C   0  0  0  0  0  0  0  0  0  0  0  0
   -7.1441   -9.3630   -5.6285 N   0  0  0  0  0  0  0  0  0  0  0  0
   -7.2560   -7.6667   -4.0035 N   0  0  0  0  0  0  0  0  0  0  0  0
   -3.9423  -12.7071   -7.6660 N   0  0  0  0  0  0  0  0  0  0  0  0
   -3.4817  -13.7240   -8.3690 C   0  0  0  0  0  0  0  0  0  0  0  0
   -4.2635  -14.8213   -8.5367 N   0  0  0  0  0  0  0  0  0  0  0  0
   -2.2332  -13.7025   -8.9231 N   0  0  0  0  0  0  0  0  0  0  0  0
   -2.1627   -6.4515   -3.9251 C   0  0  0  0  0  0  0  0  0  0  0  0
   -1.6067   -6.8280    0.2939 O   0  0  0  0  0  0  0  0  0  0  0  0
   -1.3032   -7.4626   -3.4065 C   0  0  0  0  0  0  0  0  0  0  0  0
   -1.1268   -7.5909   -2.0027 C   0  0  0  0  0  0  0  0  0  0  0  0
   -1.7892   -6.6993   -1.1184 C   0  0  0  0  0  0  0  0  0  0  0  0
   -2.6312   -5.6783   -1.6355 C   0  0  0  0  0  0  0  0  0  0  0  0
   -2.8133   -5.5485   -3.0391 C   0  0  0  0  0  0  0  0  0  0  0  0
   -0.3132   -6.3364    0.6567 C   0  0  0  0  0  0  0  0  0  0  0  0
  1  4  1  0  0  0  0
  2  3  1  0  0  0  0
  3  5  1  0  0  0  0
  4  6  1  0  0  0  0
  5  8  1  0  0  0  0
  6  7  1  0  0  0  0
  7 10  1  0  0  0  0
  8  9  1  0  0  0  0
  9 12  1  0  0  0  0
  9 13  1  0  0  0  0
 10 11  1  0  0  0  0
 11 14  1  0  0  0  0
 14 15  1  0  0  0  0
 15 16  1  0  0  0  0
 15 17  1  0  0  0  0
 18  2  1  0  0  0  0
 18 20  2  0  0  0  0
 18 24  1  0  0  0  0
 19 25  1  0  0  0  0
 20  1  1  0  0  0  0
 20 21  1  0  0  0  0
 21 22  2  0  0  0  0
 22 19  1  0  0  0  0
 22 23  1  0  0  0  0
 23 24  2  0  0  0  0
M  END
>  <CHROM.1>
105.42785815,-64.48507316,-168.45544593,-169.72632981,-152.64493563,-161.05829323
175.43025929,-103.42695912,73.69860210,-12.81099809,-56.48403354,-106.53464137
-108.15209665,-158.50865733,109.45217253,132.04453245,-82.76202741,74.71105770
-3.23668798,-8.88794839,-4.94189818,-1.34324873,0.35315158,-2.42523922

>  <Name>
1uud_lig

>  <RI>
0

>  <Rbt.Current_Directory>
/home/itssahil/PROJECTS/Mol_Feturizer/New_Systems/rnas/1uud

>  <Rbt.Executable>
rbdock ($Id: //depot/dev/client3/rdock/2013.1/src/exe/rbdock.cxx#4 $)

>  <Rbt.Library>
libRbt.so (2013.1, Build901 2013/11/27)

>  <Rbt.Parameter_File>
/export/apps/rDock/src/rDock_2013.1_src/data/scripts/dock_solv.prm

>  <Rbt.Receptor>
prm/pocket_docking_5.prm

>  <SCORE>
-22.6972

>  <SCORE.INTER>
-14.1412

>  <SCORE.INTER.CONST>
1

>  <SCORE.INTER.POLAR>
-3.53349

>  <SCORE.INTER.ROT>
18

>  <SCORE.INTER.SOLV>
9.2044

>  <SCORE.INTER.VDW>
-16.3173

>  <SCORE.INTER.norm>
-0.565649

>  <SCORE.INTRA>
-8.55597

>  <SCORE.INTRA.DIHEDRAL>
-7.88997

>  <SCORE.INTRA.DIHEDRAL.0>
30.6762

>  <SCORE.INTRA.POLAR>
0.0288659

>  <SCORE.INTRA.POLAR.0>
-0.0288659

>  <SCORE.INTRA.REPUL>
0

>  <SCORE.INTRA.REPUL.0>
0

>  <SCORE.INTRA.SOLV>
-0.571736

>  <SCORE.INTRA.SOLV.lig_0>
-25.2195

>  <SCORE.INTRA.VDW>
-4.42326

>  <SCORE.INTRA.VDW.0>
4.14263

>  <SCORE.INTRA.norm>
-0.342239

>  <SCORE.RESTR>
0

>  <SCORE.RESTR.CAVITY>
0

>  <SCORE.RESTR.norm>
0

>  <SCORE.SYSTEM>
0

>  <SCORE.SYSTEM.CONST>
0

>  <SCORE.SYSTEM.DIHEDRAL>
0

>  <SCORE.SYSTEM.SOLV>
0

>  <SCORE.SYSTEM.norm>
0

>  <SCORE.heavy>
25

>  <SCORE.norm>
-0.907888

>  <RMSD>
7.194

$$$$
1uud_lig
 OpenBabel11021811413D
libRbt.so/2013.1/901 2013/11/27
 25 25  0  0  0  0  0  0  0  0999 V2000
   -2.4638  -10.5207   -3.3688 C   0  0  0  0  0  0  0  0  0  0  0  0
   -5.3611  -10.8958   -3.1089 O   0  0  0  0  0  0  0  0  0  0  0  0
   -5.9625  -10.1051   -4.1449 C   0  0  0  0  0  0  0  0  0  0  0  0
   -2.9711  -11.8963   -3.5980 N   0  0  0  0  0  0  0  0  0  0  0  0
   -7.1738   -9.3417   -3.5926 C   0  0  0  0  0  0  0  0  0  0  0  0
   -2.0896  -12.6032   -4.5571 C   0  0  0  0  0  0  0  0  0  0  0  0
   -2.6205  -14.0227   -4.7913 C   0  0  0  0  0  0  0  0  0  0  0  0
   -6.8496   -8.0903   -3.3698 N   0  0  0  0  0  0  0  0  0  0  0  0
   -7.7059   -7.1079   -3.5792 C   0  0  0  0  0  0  0  0  0  0  0  0
   -1.5597  -14.8639   -5.5094 C   0  0  0  0  0  0  0  0  0  0  0  0
   -1.4550  -14.4170   -6.9704 C   0  0  0  0  0  0  0  0  0  0  0  0
   -9.0345   -7.2428   -3.2842 N   0  0  0  0  0  0  0  0  0  0  0  0
   -7.2573   -5.9370   -4.1007 N   0  0  0  0  0  0  0  0  0  0  0  0
   -2.4582  -14.9073   -7.6591 N   0  0  0  0  0  0  0  0  0  0  0  0
   -3.0650  -14.1993   -8.5924 C   0  0  0  0  0  0  0  0  0  0  0  0
   -4.2611  -14.6251   -9.0738 N   0  0  0  0  0  0  0  0  0  0  0  0
   -2.5133  -13.0540   -9.0925 N   0  0  0  0  0  0  0  0  0  0  0  0
   -4.6933  -10.0469   -2.1665 C   0  0  0  0  0  0  0  0  0  0  0  0
   -2.7163   -7.5483    0.6794 O   0  0  0  0  0  0  0  0  0  0  0  0
   -3.2861   -9.8418   -2.2538 C   0  0  0  0  0  0  0  0  0  0  0  0
   -2.6300   -9.0172   -1.3009 C   0  0  0  0  0  0  0  0  0  0  0  0
   -3.3785   -8.3811   -0.2759 C   0  0  0  0  0  0  0  0  0  0  0  0
   -4.7848   -8.5694   -0.1998 C   0  0  0  0  0  0  0  0  0  0  0  0
   -5.4448   -9.3964   -1.1488 C   0  0  0  0  0  0  0  0  0  0  0  0
   -2.4705   -8.2933    1.8757 C   0  0  0  0  0  0  0  0  0  0  0  0
  1  4  1  0  0  0  0
  2  3  1  0  0  0  0
  3  5  1  0  0  0  0
  4  6  1  0  0  0  0
  5  8  1  0  0  0  0
  6  7  1  0  0  0  0
  7 10  1  0  0  0  0
  8  9  1  0  0  0  0
  9 12  1  0  0  0  0
  9 13  1  0  0  0  0
 10 11  1  0  0  0  0
 11 14  1  0  0  0  0
 14 15  1  0  0  0  0
 15 16  1  0  0  0  0
 15 17  1  0  0  0  0
 18  2  1  0  0  0  0
 18 20  2  0  0  0  0
 18 24  1  0  0  0  0
 19 25  1  0  0  0  0
 20  1  1  0  0  0  0
 20 21  1  0  0  0  0
 21 22  2  0  0  0  0
 22 19  1  0  0  0  0
 22 23  1  0  0  0  0
 23 24  2  0  0  0  0
M  END
>  <CHROM.1>
-173.64113098,-71.34584109,101.89573519,-179.90512904,143.84728411,-166.84706079
-72.82539931,38.24991170,-126.53227909,91.81896977,-77.52055534,140.93466406
-165.95115524,61.11884361,-73.01758926,-98.28452098,-38.73894757,-97.93279682
-4.19655082,-10.61188189,-3.79948373,-1.19799545,-0.59740393,0.98143970

>  <Name>
1uud_lig

>  <RI>
0

>  <Rbt.Current_Directory>
/home/itssahil/PROJECTS/Mol_Feturizer/New_Systems/rnas/1uud

>  <Rbt.Executable>
rbdock ($Id: //depot/dev/client3/rdock/2013.1/src/exe/rbdock.cxx#4 $)

>  <Rbt.Library>
libRbt.so (2013.1, Build901 2013/11/27)

>  <Rbt.Parameter_File>
/export/apps/rDock/src/rDock_2013.1_src/data/scripts/dock_solv.prm

>  <Rbt.Receptor>
prm/pocket_docking_5.prm

>  <SCORE>
-29.1212

>  <SCORE.INTER>
-22.5352

>  <SCORE.INTER.CONST>
1

>  <SCORE.INTER.POLAR>
-4.67581

>  <SCORE.INTER.ROT>
18

>  <SCORE.INTER.SOLV>
8.91339

>  <SCORE.INTER.VDW>
-18.0086

>  <SCORE.INTER.norm>
-0.901407

>  <SCORE.INTRA>
-6.58607

>  <SCORE.INTRA.DIHEDRAL>
-3.5446

>  <SCORE.INTRA.DIHEDRAL.0>
30.6762

>  <SCORE.INTRA.POLAR>
-0.381128

>  <SCORE.INTRA.POLAR.0>
-0.0288659

>  <SCORE.INTRA.REPUL>
0

>  <SCORE.INTRA.REPUL.0>
0

>  <SCORE.INTRA.SOLV>
-0.202367

>  <SCORE.INTRA.SOLV.lig_0>
-25.2195

>  <SCORE.INTRA.VDW>
-3.41675

>  <SCORE.INTRA.VDW.0>
4.14263

>  <SCORE.INTRA.norm>
-0.263443

>  <SCORE.RESTR>
0

>  <SCORE.RESTR.CAVITY>
0

>  <SCORE.RESTR.norm>
0

>  <SCORE.SYSTEM>
0

>  <SCORE.SYSTEM.CONST>
0

>  <SCORE.SYSTEM.DIHEDRAL>
0

>  <SCORE.SYSTEM.SOLV>
0

>  <SCORE.SYSTEM.norm>
0

>  <SCORE.heavy>
25

>  <SCORE.norm>
-1.16485

>  <RMSD>
7.201

$$$$
1uud_lig
 OpenBabel11021811413D
libRbt.so/2013.1/901 2013/11/27
 25 25  0  0  0  0  0  0  0  0999 V2000
   -2.1271   -9.7425   -8.1631 C   0  0  0  0  0  0  0  0  0  0  0  0
   -3.8277   -9.3945   -5.7989 O   0  0  0  0  0  0  0  0  0  0  0  0
   -4.6762  -10.3365   -5.1259 C   0  0  0  0  0  0  0  0  0  0  0  0
   -2.1859  -11.0559   -8.8512 N   0  0  0  0  0  0  0  0  0  0  0  0
   -6.1342   -9.8592   -5.1668 C   0  0  0  0  0  0  0  0  0  0  0  0
   -3.4879  -11.7087   -8.5766 C   0  0  0  0  0  0  0  0  0  0  0  0
   -3.5091  -12.2233   -7.1322 C   0  0  0  0  0  0  0  0  0  0  0  0
   -6.3666   -9.0467   -4.1634 N   0  0  0  0  0  0  0  0  0  0  0  0
   -7.5898   -8.6500   -3.8659 C   0  0  0  0  0  0  0  0  0  0  0  0
   -2.5092  -13.3739   -6.9742 C   0  0  0  0  0  0  0  0  0  0  0  0
   -2.2978  -13.6674   -5.4861 C   0  0  0  0  0  0  0  0  0  0  0  0
   -8.4206   -9.4134   -3.0929 N   0  0  0  0  0  0  0  0  0  0  0  0
   -8.0337   -7.4571   -4.3394 N   0  0  0  0  0  0  0  0  0  0  0  0
   -2.1518  -14.9583   -5.3030 N   0  0  0  0  0  0  0  0  0  0  0  0
   -0.9609  -15.5258   -5.3148 C   0  0  0  0  0  0  0  0  0  0  0  0
   -0.5674  -16.2166   -6.4155 N   0  0  0  0  0  0  0  0  0  0  0  0
   -0.1193  -15.4433   -4.2420 N   0  0  0  0  0  0  0  0  0  0  0  0
   -2.4516   -9.7465   -5.6067 C   0  0  0  0  0  0  0  0  0  0  0  0
    1.6354  -10.8389   -5.0123 O   0  0  0  0  0  0  0  0  0  0  0  0
   -1.5923   -9.9302   -6.7282 C   0  0  0  0  0  0  0  0  0  0  0  0
   -0.2358  -10.3017   -6.5278 C   0  0  0  0  0  0  0  0  0  0  0  0
    0.2687  -10.4689   -5.2113 C   0  0  0  0  0  0  0  0  0  0  0  0
   -0.5825  -10.2669   -4.0917 C   0  0  0  0  0  0  0  0  0  0  0  0
   -1.9412   -9.8986   -4.2876 C   0  0  0  0  0  0  0  0  0  0  0  0
    1.8546  -12.1566   -5.5244 C   0  0  0  0  0  0  0  0  0  0  0  0
  1  4  1  0  0  0  0
  2  3  1  0  0  0  0
  3  5  1  0  0  0  0
  4  6  1  0  0  0  0
  5  8  1  0  0  0  0
  6  7  1  0  0  0  0
  7 10  1  0  0  0  0
  8  9  1  0  0  0  0
  9 12  1  0  0  0  0
  9 13  1  0  0  0  0
 10 11  1  0  0  0  0
 11 14  1  0  0  0  0
 14 15  1  0  0  0  0
 15 16  1  0  0  0  0
 15 17  1  0  0  0  0
 18  2  1  0  0  0  0
 18 20  2  0  0  0  0
 18 24  1  0  0  0  0
 19 25  1  0  0  0  0
 20  1  1  0  0  0  0
 20 21  1  0  0  0  0
 21 22  2  0  0  0  0
 22 19  1  0  0  0  0
 22 23  1  0  0  0  0
 23 24  2  0  0  0  0
M  END
>  <CHROM.1>
87.69674922,172.29150895,-86.06284624,-73.45844391,-170.21876624,-67.64231399
167.11463652,83.76083353,154.27669534,144.91967313,143.46140854,91.49737754
-102.79918430,-19.05167747,108.40227772,125.22322506,-110.50066063,-65.67925528
-2.75908989,-11.30714375,-5.63250447,-0.59418016,0.23484366,-0.05152076

>  <Name>
1uud_lig

>  <RI>
0

>  <Rbt.Current_Directory>
/home/itssahil/PROJECTS/Mol_Feturizer/New_Systems/rnas/1uud

>  <Rbt.Executable>
rbdock ($Id: //depot/dev/client3/rdock/2013.1/src/exe/rbdock.cxx#4 $)

>  <Rbt.Library>
libRbt.so (2013.1, Build901 2013/11/27)

>  <Rbt.Parameter_File>
/export/apps/rDock/src/rDock_2013.1_src/data/scripts/dock_solv.prm

>  <Rbt.Receptor>
prm/pocket_docking_6.prm

>  <SCORE>
-32.2234

>  <SCORE.INTER>
-25.7817

>  <SCORE.INTER.CONST>
1

>  <SCORE.INTER.POLAR>
-4.80408

>  <SCORE.INTER.ROT>
18

>  <SCORE.INTER.SOLV>
8.67453

>  <SCORE.INTER.VDW>
-19.6657

>  <SCORE.INTER.norm>
-1.03127

>  <SCORE.INTRA>
-6.44168

>  <SCORE.INTRA.DIHEDRAL>
-4.0328

>  <SCORE.INTRA.DIHEDRAL.0>
30.6762

>  <SCORE.INTRA.POLAR>
0.0288659

>  <SCORE.INTRA.POLAR.0>
-0.0288659

>  <SCORE.INTRA.REPUL>
0

>  <SCORE.INTRA.REPUL.0>
0

>  <SCORE.INTRA.SOLV>
-0.948404

>  <SCORE.INTRA.SOLV.lig_0>
-25.2195

>  <SCORE.INTRA.VDW>
-4.04923

>  <SCORE.INTRA.VDW.0>
4.14263

>  <SCORE.INTRA.norm>
-0.257667

>  <SCORE.RESTR>
0

>  <SCORE.RESTR.CAVITY>
0

>  <SCORE.RESTR.norm>
0

>  <SCORE.SYSTEM>
0

>  <SCORE.SYSTEM.CONST>
0

>  <SCORE.SYSTEM.DIHEDRAL>
0

>  <SCORE.SYSTEM.SOLV>
0

>  <SCORE.SYSTEM.norm>
0

>  <SCORE.heavy>
25

>  <SCORE.norm>
-1.28894

>  <RMSD>
7.205

$$$$
1uud_lig
 OpenBabel11021811413D
libRbt.so/2013.1/901 2013/11/27
 25 25  0  0  0  0  0  0  0  0999 V2000
   -3.5256   -9.6876   -7.0967 C   0  0  0  0  0  0  0  0  0  0  0  0
   -3.6845   -8.9160   -4.2715 O   0  0  0  0  0  0  0  0  0  0  0  0
   -4.0226   -7.5850   -3.8539 C   0  0  0  0  0  0  0  0  0  0  0  0
   -4.2707  -10.7589   -6.3901 N   0  0  0  0  0  0  0  0  0  0  0  0
   -5.4079   -7.5730   -3.1938 C   0  0  0  0  0  0  0  0  0  0  0  0
   -3.4811  -12.0131   -6.4045 C   0  0  0  0  0  0  0  0  0  0  0  0
   -2.6827  -12.1314   -5.1005 C   0  0  0  0  0  0  0  0  0  0  0  0
   -6.3329   -7.8149   -4.0919 N   0  0  0  0  0  0  0  0  0  0  0  0
   -7.6141   -7.6392   -3.8276 C   0  0  0  0  0  0  0  0  0  0  0  0
   -1.6326  -13.2400   -5.2312 C   0  0  0  0  0  0  0  0  0  0  0  0
   -2.3149  -14.6066   -5.1218 C   0  0  0  0  0  0  0  0  0  0  0  0
   -8.3650   -8.6226   -3.2448 N   0  0  0  0  0  0  0  0  0  0  0  0
   -8.2000   -6.4554   -4.1428 N   0  0  0  0  0  0  0  0  0  0  0  0
   -1.4400  -15.5599   -5.3384 N   0  0  0  0  0  0  0  0  0  0  0  0
   -1.4640  -16.2796   -6.4439 C   0  0  0  0  0  0  0  0  0  0  0  0
   -0.8931  -15.7817   -7.5707 N   0  0  0  0  0  0  0  0  0  0  0  0
   -2.0588  -17.5087   -6.4836 N   0  0  0  0  0  0  0  0  0  0  0  0
   -2.4006   -8.9210   -4.9088 C   0  0  0  0  0  0  0  0  0  0  0  0
    1.4414   -8.9717   -6.7761 O   0  0  0  0  0  0  0  0  0  0  0  0
   -2.2783   -9.2944   -6.2783 C   0  0  0  0  0  0  0  0  0  0  0  0
   -0.9984   -9.3185   -6.8942 C   0  0  0  0  0  0  0  0  0  0  0  0
    0.1548   -8.9505   -6.1525 C   0  0  0  0  0  0  0  0  0  0  0  0
    0.0314   -8.5591   -4.7921 C   0  0  0  0  0  0  0  0  0  0  0  0
   -1.2467   -8.5370   -4.1708 C   0  0  0  0  0  0  0  0  0  0  0  0
    1.9232  -10.3174   -6.8349 C   0  0  0  0  0  0  0  0  0  0  0  0
  1  4  1  0  0  0  0
  2  3  1  0  0  0  0
  3  5  1  0  0  0  0
  4  6  1  0  0  0  0
  5  8  1  0  0  0  0
  6  7  1  0  0  0  0
  7 10  1  0  0  0  0
  8  9  1  0  0  0  0
  9 12  1  0  0  0  0
  9 13  1  0  0  0  0
 10 11  1  0  0  0  0
 11 14  1  0  0  0  0
 14 15  1  0  0  0  0
 15 16  1  0  0  0  0
 15 17  1  0  0  0  0
 18  2  1  0  0  0  0
 18 20  2  0  0  0  0
 18 24  1  0  0  0  0
 19 25  1  0  0  0  0
 20  1  1  0  0  0  0
 20 21  1  0  0  0  0
 21 22  2  0  0  0  0
 22 19  1  0  0  0  0
 22 23  1  0  0  0  0
 23 24  2  0  0  0  0
M  END
>  <CHROM.1>
-68.53521318,178.99094694,-68.62646630,95.56311492,-168.48182706,-167.20462961
-75.89714323,-86.43672317,151.89564182,87.39840694,175.02108952,-108.74347767
81.98640676,-177.04109238,1.83395392,-117.11552538,-53.48153856,-78.77365704
-2.89159739,-10.65874407,-5.38821114,-2.21610019,-0.27379993,-3.01325590

>  <Name>
1uud_lig

>  <RI>
0

>  <Rbt.Current_Directory>
/home/itssahil/PROJECTS/Mol_Feturizer/New_Systems/rnas/1uud

>  <Rbt.Executable>
rbdock ($Id: //depot/dev/client3/rdock/2013.1/src/exe/rbdock.cxx#4 $)

>  <Rbt.Library>
libRbt.so (2013.1, Build901 2013/11/27)

>  <Rbt.Parameter_File>
/export/apps/rDock/src/rDock_2013.1_src/data/scripts/dock_solv.prm

>  <Rbt.Receptor>
prm/pocket_docking_7.prm

>  <SCORE>
-22.7409

>  <SCORE.INTER>
-11.3995

>  <SCORE.INTER.CONST>
1

>  <SCORE.INTER.POLAR>
-3.72168

>  <SCORE.INTER.ROT>
18

>  <SCORE.INTER.SOLV>
5.92274

>  <SCORE.INTER.VDW>
-12.7683

>  <SCORE.INTER.norm>
-0.455979

>  <SCORE.INTRA>
-11.3415

>  <SCORE.INTRA.DIHEDRAL>
-7.50105

>  <SCORE.INTRA.DIHEDRAL.0>
30.6762

>  <SCORE.INTRA.POLAR>
-0.612305

>  <SCORE.INTRA.POLAR.0>
-0.0288659

>  <SCORE.INTRA.REPUL>
0

>  <SCORE.INTRA.REPUL.0>
0

>  <SCORE.INTRA.SOLV>
-0.838911

>  <SCORE.INTRA.SOLV.lig_0>
-25.2195

>  <SCORE.INTRA.VDW>
-5.08965

>  <SCORE.INTRA.VDW.0>
4.14263

>  <SCORE.INTRA.norm>
-0.453659

>  <SCORE.RESTR>
0

>  <SCORE.RESTR.CAVITY>
0

>  <SCORE.RESTR.norm>
0

>  <SCORE.SYSTEM>
0

>  <SCORE.SYSTEM.CONST>
0

>  <SCORE.SYSTEM.DIHEDRAL>
0

>  <SCORE.SYSTEM.SOLV>
0

>  <SCORE.SYSTEM.norm>
0

>  <SCORE.heavy>
25

>  <SCORE.norm>
-0.909638

>  <RMSD>
7.211

$$$$
1uud_lig
 OpenBabel11021811413D
libRbt.so/2013.1/901 2013/11/27
 25 25  0  0  0  0  0  0  0  0999 V2000
   -2.3068  -10.6144   -3.5863 C   0  0  0  0  0  0  0  0  0  0  0  0
   -1.8770  -10.0174   -0.7470 O   0  0  0  0  0  0  0  0  0  0  0  0
   -1.7534  -11.2361    0.0011 C   0  0  0  0  0  0  0  0  0  0  0  0
   -2.4989  -12.0319   -3.9813 N   0  0  0  0  0  0  0  0  0  0  0  0
   -0.2928  -11.4555    0.4181 C   0  0  0  0  0  0  0  0  0  0  0  0
   -1.5994  -12.3645   -5.1113 C   0  0  0  0  0  0  0  0  0  0  0  0
   -2.0641  -11.6246   -6.3716 C   0  0  0  0  0  0  0  0  0  0  0  0
    0.0913  -10.4935    1.2230 N   0  0  0  0  0  0  0  0  0  0  0  0
    0.9072   -9.5387    0.8170 C   0  0  0  0  0  0  0  0  0  0  0  0
   -1.0987  -11.9074   -7.5277 C   0  0  0  0  0  0  0  0  0  0  0  0
   -1.8930  -12.3411   -8.7632 C   0  0  0  0  0  0  0  0  0  0  0  0
    0.5273   -8.2248    0.8200 N   0  0  0  0  0  0  0  0  0  0  0  0
    2.1517   -9.8689    0.3852 N   0  0  0  0  0  0  0  0  0  0  0  0
   -2.4125  -13.5292   -8.5641 N   0  0  0  0  0  0  0  0  0  0  0  0
   -3.7184  -13.7138   -8.5307 C   0  0  0  0  0  0  0  0  0  0  0  0
   -4.5341  -12.6433   -8.3512 N   0  0  0  0  0  0  0  0  0  0  0  0
   -4.2679  -14.9575   -8.6622 N   0  0  0  0  0  0  0  0  0  0  0  0
   -3.2028   -9.8984   -1.2787 C   0  0  0  0  0  0  0  0  0  0  0  0
   -7.1537   -9.4942   -2.8526 O   0  0  0  0  0  0  0  0  0  0  0  0
   -3.4542  -10.1739   -2.6538 C   0  0  0  0  0  0  0  0  0  0  0  0
   -4.7675  -10.0305   -3.1763 C   0  0  0  0  0  0  0  0  0  0  0  0
   -5.8321   -9.6338   -2.3250 C   0  0  0  0  0  0  0  0  0  0  0  0
   -5.5860   -9.3776   -0.9492 C   0  0  0  0  0  0  0  0  0  0  0  0
   -4.2730   -9.5164   -0.4229 C   0  0  0  0  0  0  0  0  0  0  0  0
   -7.1895   -8.3984   -3.7716 C   0  0  0  0  0  0  0  0  0  0  0  0
  1  4  1  0  0  0  0
  2  3  1  0  0  0  0
  3  5  1  0  0  0  0
  4  6  1  0  0  0  0
  5  8  1  0  0  0  0
  6  7  1  0  0  0  0
  7 10  1  0  0  0  0
  8  9  1  0  0  0  0
  9 12  1  0  0  0  0
  9 13  1  0  0  0  0
 10 11  1  0  0  0  0
 11 14  1  0  0  0  0
 14 15  1  0  0  0  0
 15 16  1  0  0  0  0
 15 17  1  0  0  0  0
 18  2  1  0  0  0  0
 18 20  2  0  0  0  0
 18 24  1  0  0  0  0
 19 25  1  0  0  0  0
 20  1  1  0  0  0  0
 20 21  1  0  0  0  0
 21 22  2  0  0  0  0
 22 19  1  0  0  0  0
 22 23  1  0  0  0  0
 23 24  2  0  0  0  0
M  END
>  <CHROM.1>
166.71245602,172.73826020,63.39936061,-69.10910129,-106.17264831,177.17664303
130.01217443,118.90478854,-120.99683220,151.45620302,-69.51891806,116.28868732
-17.24208870,142.71126439,-175.19521899,-102.86575482,111.19808434,-66.95462376
-2.68696135,-10.95366345,-3.39169660,-1.27290302,0.25220116,-2.01726034

>  <Name>
1uud_lig

>  <RI>
0

>  <Rbt.Current_Directory>
/home/itssahil/PROJECTS/Mol_Feturizer/New_Systems/rnas/1uud

>  <Rbt.Executable>
rbdock ($Id: //depot/dev/client3/rdock/2013.1/src/exe/rbdock.cxx#4 $)

>  <Rbt.Library>
libRbt.so (2013.1, Build901 2013/11/27)

>  <Rbt.Parameter_File>
/export/apps/rDock/src/rDock_2013.1_src/data/scripts/dock_solv.prm

>  <Rbt.Receptor>
prm/pocket_docking_8.prm

>  <SCORE>
-37.4955

>  <SCORE.INTER>
-31.2473

>  <SCORE.INTER.CONST>
1

>  <SCORE.INTER.POLAR>
-4.82142

>  <SCORE.INTER.ROT>
18

>  <SCORE.INTER.SOLV>
11.9208

>  <SCORE.INTER.VDW>
-24.3337

>  <SCORE.INTER.norm>
-1.24989

>  <SCORE.INTRA>
-6.24813

>  <SCORE.INTRA.DIHEDRAL>
-4.75026

>  <SCORE.INTRA.DIHEDRAL.0>
30.6762

>  <SCORE.INTRA.POLAR>
0.0288659

>  <SCORE.INTRA.POLAR.0>
-0.0288659

>  <SCORE.INTRA.REPUL>
0

>  <SCORE.INTRA.REPUL.0>
0

>  <SCORE.INTRA.SOLV>
-0.29933

>  <SCORE.INTRA.SOLV.lig_0>
-25.2195

>  <SCORE.INTRA.VDW>
-3.82148

>  <SCORE.INTRA.VDW.0>
4.14263

>  <SCORE.INTRA.norm>
-0.249925

>  <SCORE.RESTR>
0

>  <SCORE.RESTR.CAVITY>
0

>  <SCORE.RESTR.norm>
0

>  <SCORE.SYSTEM>
0

>  <SCORE.SYSTEM.CONST>
0

>  <SCORE.SYSTEM.DIHEDRAL>
0

>  <SCORE.SYSTEM.SOLV>
0

>  <SCORE.SYSTEM.norm>
0

>  <SCORE.heavy>
25

>  <SCORE.norm>
-1.49982

>  <RMSD>
7.219

$$$$
1uud_lig
 OpenBabel11021811413D
libRbt.so/2013.1/901 2013/11/27
 25 25  0  0  0  0  0  0  0  0999 V2000
   -3.2730  -11.5399   -7.2450 C   0  0  0  0  0  0  0  0  0  0  0  0
   -5.3814   -9.7885   -6.2009 O   0  0  0  0  0  0  0  0  0  0  0  0
   -5.3504   -9.8452   -4.7670 C   0  0  0  0  0  0  0  0  0  0  0  0
   -3.8299  -11.9572   -8.5557 N   0  0  0  0  0  0  0  0  0  0  0  0
   -6.7020  -10.3318   -4.2271 C   0  0  0  0  0  0  0  0  0  0  0  0
   -4.0116  -13.4279   -8.5787 C   0  0  0  0  0  0  0  0  0  0  0  0
   -2.7821  -14.0867   -9.2159 C   0  0  0  0  0  0  0  0  0  0  0  0
   -7.4638   -9.3039   -3.9377 N   0  0  0  0  0  0  0  0  0  0  0  0
   -7.8917   -8.4771   -4.8733 C   0  0  0  0  0  0  0  0  0  0  0  0
   -1.5451  -13.8303   -8.3484 C   0  0  0  0  0  0  0  0  0  0  0  0
   -0.7138  -15.1128   -8.2507 C   0  0  0  0  0  0  0  0  0  0  0  0
   -8.6652   -8.9134   -5.9134 N   0  0  0  0  0  0  0  0  0  0  0  0
   -7.5549   -7.1634   -4.8020 N   0  0  0  0  0  0  0  0  0  0  0  0
   -1.3961  -16.0387   -7.6196 N   0  0  0  0  0  0  0  0  0  0  0  0
   -1.6232  -15.9638   -6.3222 C   0  0  0  0  0  0  0  0  0  0  0  0
   -0.9527  -16.7949   -5.4834 N   0  0  0  0  0  0  0  0  0  0  0  0
   -2.5242  -15.0771   -5.8044 N   0  0  0  0  0  0  0  0  0  0  0  0
   -4.1768   -9.1899   -6.6962 C   0  0  0  0  0  0  0  0  0  0  0  0
   -0.5772   -7.3875   -8.1261 O   0  0  0  0  0  0  0  0  0  0  0  0
   -3.1256  -10.0046   -7.2073 C   0  0  0  0  0  0  0  0  0  0  0  0
   -1.9264   -9.4030   -7.6742 C   0  0  0  0  0  0  0  0  0  0  0  0
   -1.7837   -7.9907   -7.6516 C   0  0  0  0  0  0  0  0  0  0  0  0
   -2.8393   -7.1762   -7.1602 C   0  0  0  0  0  0  0  0  0  0  0  0
   -4.0394   -7.7740   -6.6887 C   0  0  0  0  0  0  0  0  0  0  0  0
    0.1746   -6.8838   -7.0181 C   0  0  0  0  0  0  0  0  0  0  0  0
  1  4  1  0  0  0  0
  2  3  1  0  0  0  0
  3  5  1  0  0  0  0
  4  6  1  0  0  0  0
  5  8  1  0  0  0  0
  6  7  1  0  0  0  0
  7 10  1  0  0  0  0
  8  9  1  0  0  0  0
  9 12  1  0  0  0  0
  9 13  1  0  0  0  0
 10 11  1  0  0  0  0
 11 14  1  0  0  0  0
 14 15  1  0  0  0  0
 15 16  1  0  0  0  0
 15 17  1  0  0  0  0
 18  2  1  0  0  0  0
 18 20  2  0  0  0  0
 18 24  1  0  0  0  0
 19 25  1  0  0  0  0
 20  1  1  0  0  0  0
 20 21  1  0  0  0  0
 21 22  2  0  0  0  0
 22 19  1  0  0  0  0
 22 23  1  0  0  0  0
 23 24  2  0  0  0  0
M  END
>  <CHROM.1>
-178.25824828,173.37496195,-93.86108192,-94.76284523,64.85222500,64.07513041
137.62397236,60.08195363,-122.60709475,-172.66749528,-64.69532566,-71.40932604
-106.99134140,-41.41794152,-56.03275669,100.40223825,92.08999956,-107.69572733
-3.62888244,-10.98603985,-6.71313170,-0.96084311,0.43789590,-0.04137565

>  <Name>
1uud_lig

>  <RI>
0

>  <Rbt.Current_Directory>
/home/itssahil/PROJECTS/Mol_Feturizer/New_Systems/rnas/1uud

>  <Rbt.Executable>
rbdock ($Id: //depot/dev/client3/rdock/2013.1/src/exe/rbdock.cxx#4 $)

>  <Rbt.Library>
libRbt.so (2013.1, Build901 2013/11/27)

>  <Rbt.Parameter_File>
/export/apps/rDock/src/rDock_2013.1_src/data/scripts/dock_solv.prm

>  <Rbt.Receptor>
prm/pocket_docking_7.prm

>  <SCORE>
-34.7917

>  <SCORE.INTER>
-30.8559

>  <SCORE.INTER.CONST>
1

>  <SCORE.INTER.POLAR>
-4.96598

>  <SCORE.INTER.ROT>
18

>  <SCORE.INTER.SOLV>
11.4987

>  <SCORE.INTER.VDW>
-23.4502

>  <SCORE.INTER.norm>
-1.23424

>  <SCORE.INTRA>
-3.9358

>  <SCORE.INTRA.DIHEDRAL>
-0.543006

>  <SCORE.INTRA.DIHEDRAL.0>
30.6762

>  <SCORE.INTRA.POLAR>
0.0288659

>  <SCORE.INTRA.POLAR.0>
-0.0288659

>  <SCORE.INTRA.REPUL>
0

>  <SCORE.INTRA.REPUL.0>
0

>  <SCORE.INTRA.SOLV>
0.417156

>  <SCORE.INTRA.SOLV.lig_0>
-25.2195

>  <SCORE.INTRA.VDW>
-3.97102

>  <SCORE.INTRA.VDW.0>
4.14263

>  <SCORE.INTRA.norm>
-0.157432

>  <SCORE.RESTR>
0

>  <SCORE.RESTR.CAVITY>
0

>  <SCORE.RESTR.norm>
0

>  <SCORE.SYSTEM>
0

>  <SCORE.SYSTEM.CONST>
0

>  <SCORE.SYSTEM.DIHEDRAL>
0

>  <SCORE.SYSTEM.SOLV>
0

>  <SCORE.SYSTEM.norm>
0

>  <SCORE.heavy>
25

>  <SCORE.norm>
-1.39167

>  <RMSD>
7.255

$$$$
1uud_lig
 OpenBabel11021811413D
libRbt.so/2013.1/901 2013/11/27
 25 25  0  0  0  0  0  0  0  0999 V2000
   -1.9343   -9.1358   -2.9100 C   0  0  0  0  0  0  0  0  0  0  0  0
   -2.1102  -10.2919   -0.2202 O   0  0  0  0  0  0  0  0  0  0  0  0
   -1.0059  -10.0716    0.6700 C   0  0  0  0  0  0  0  0  0  0  0  0
   -2.7078  -10.2867   -3.4383 N   0  0  0  0  0  0  0  0  0  0  0  0
   -0.1508  -11.3415    0.7772 C   0  0  0  0  0  0  0  0  0  0  0  0
   -3.7304   -9.8064   -4.3977 C   0  0  0  0  0  0  0  0  0  0  0  0
   -5.0546  -10.5371   -4.1445 C   0  0  0  0  0  0  0  0  0  0  0  0
    0.9035  -11.1086    1.5221 N   0  0  0  0  0  0  0  0  0  0  0  0
    2.0388  -10.6860    0.9982 C   0  0  0  0  0  0  0  0  0  0  0  0
   -6.1102  -10.0666   -5.1510 C   0  0  0  0  0  0  0  0  0  0  0  0
   -6.3587   -8.5666   -4.9683 C   0  0  0  0  0  0  0  0  0  0  0  0
    3.1126  -11.5203    0.8514 N   0  0  0  0  0  0  0  0  0  0  0  0
    2.1433   -9.3928    0.5970 N   0  0  0  0  0  0  0  0  0  0  0  0
   -6.8159   -8.3347   -3.7606 N   0  0  0  0  0  0  0  0  0  0  0  0
   -8.1020   -8.1473   -3.5346 C   0  0  0  0  0  0  0  0  0  0  0  0
   -8.8896   -9.2192   -3.2621 N   0  0  0  0  0  0  0  0  0  0  0  0
   -8.6612   -6.9017   -3.5785 N   0  0  0  0  0  0  0  0  0  0  0  0
   -2.7875   -9.0557   -0.4798 C   0  0  0  0  0  0  0  0  0  0  0  0
   -4.7770   -5.3482   -1.2193 O   0  0  0  0  0  0  0  0  0  0  0  0
   -2.7234   -8.4572   -1.7711 C   0  0  0  0  0  0  0  0  0  0  0  0
   -3.3790   -7.2200   -2.0118 C   0  0  0  0  0  0  0  0  0  0  0  0
   -4.1148   -6.5913   -0.9732 C   0  0  0  0  0  0  0  0  0  0  0  0
   -4.1955   -7.1972    0.3095 C   0  0  0  0  0  0  0  0  0  0  0  0
   -3.5383   -8.4331    0.5558 C   0  0  0  0  0  0  0  0  0  0  0  0
   -4.1227   -4.3045   -0.4921 C   0  0  0  0  0  0  0  0  0  0  0  0
  1  4  1  0  0  0  0
  2  3  1  0  0  0  0
  3  5  1  0  0  0  0
  4  6  1  0  0  0  0
  5  8  1  0  0  0  0
  6  7  1  0  0  0  0
  7 10  1  0  0  0  0
  8  9  1  0  0  0  0
  9 12  1  0  0  0  0
  9 13  1  0  0  0  0
 10 11  1  0  0  0  0
 11 14  1  0  0  0  0
 14 15  1  0  0  0  0
 15 16  1  0  0  0  0
 15 17  1  0  0  0  0
 18  2  1  0  0  0  0
 18 20  2  0  0  0  0
 18 24  1  0  0  0  0
 19 25  1  0  0  0  0
 20  1  1  0  0  0  0
 20 21  1  0  0  0  0
 21 22  2  0  0  0  0
 22 19  1  0  0  0  0
 22 23  1  0  0  0  0
 23 24  2  0  0  0  0
M  END
>  <CHROM.1>
81.43463473,-171.19963271,175.91891136,-136.91918711,-90.60658787,-178.86417465
-61.67430824,-105.03906942,-166.00436930,39.68239303,-61.45122006,-100.08394111
89.42186354,111.77391197,-65.51081381,110.92516900,75.90011209,-110.86010447
-3.31401578,-8.90149293,-1.60639230,-0.05557446,0.54555048,-2.51805452

>  <Name>
1uud_lig

>  <RI>
0

>  <Rbt.Current_Directory>
/home/itssahil/PROJECTS/Mol_Feturizer/New_Systems/rnas/1uud

>  <Rbt.Executable>
rbdock ($Id: //depot/dev/client3/rdock/2013.1/src/exe/rbdock.cxx#4 $)

>  <Rbt.Library>
libRbt.so (2013.1, Build901 2013/11/27)

>  <Rbt.Parameter_File>
/export/apps/rDock/src/rDock_2013.1_src/data/scripts/dock_solv.prm

>  <Rbt.Receptor>
prm/pocket_docking_6.prm

>  <SCORE>
-36.0275

>  <SCORE.INTER>
-27.3878

>  <SCORE.INTER.CONST>
1

>  <SCORE.INTER.POLAR>
-4.45155

>  <SCORE.INTER.ROT>
18

>  <SCORE.INTER.SOLV>
12.1431

>  <SCORE.INTER.VDW>
-23.0677

>  <SCORE.INTER.norm>
-1.09551

>  <SCORE.INTRA>
-8.65228

>  <SCORE.INTRA.DIHEDRAL>
-7.5808

>  <SCORE.INTRA.DIHEDRAL.0>
30.6762

>  <SCORE.INTRA.POLAR>
0.0288659

>  <SCORE.INTRA.POLAR.0>
-0.0288659

>  <SCORE.INTRA.REPUL>
0.00752233

>  <SCORE.INTRA.REPUL.0>
0

>  <SCORE.INTRA.SOLV>
-0.658614

>  <SCORE.INTRA.SOLV.lig_0>
-25.2195

>  <SCORE.INTRA.VDW>
-4.66833

>  <SCORE.INTRA.VDW.0>
4.14263

>  <SCORE.INTRA.norm>
-0.346091

>  <SCORE.RESTR>
0.0125696

>  <SCORE.RESTR.CAVITY>
0.0125696

>  <SCORE.RESTR.norm>
0.000502785

>  <SCORE.SYSTEM>
0

>  <SCORE.SYSTEM.CONST>
0

>  <SCORE.SYSTEM.DIHEDRAL>
0

>  <SCORE.SYSTEM.SOLV>
0

>  <SCORE.SYSTEM.norm>
0

>  <SCORE.heavy>
25

>  <SCORE.norm>
-1.4411

>  <RMSD>
7.258

$$$$
1uud_lig
 OpenBabel11021811413D
libRbt.so/2013.1/901 2013/11/27
 25 25  0  0  0  0  0  0  0  0999 V2000
   -3.7000   -9.6885   -2.1651 C   0  0  0  0  0  0  0  0  0  0  0  0
   -4.7360   -7.1593   -3.2291 O   0  0  0  0  0  0  0  0  0  0  0  0
   -5.9814   -6.6092   -2.7746 C   0  0  0  0  0  0  0  0  0  0  0  0
   -3.7796   -9.6447   -3.6463 N   0  0  0  0  0  0  0  0  0  0  0  0
   -6.7682   -7.6629   -1.9835 C   0  0  0  0  0  0  0  0  0  0  0  0
   -4.2478  -10.9526   -4.1628 C   0  0  0  0  0  0  0  0  0  0  0  0
   -3.0510  -11.8971   -4.3277 C   0  0  0  0  0  0  0  0  0  0  0  0
   -7.2151   -8.5903   -2.7964 N   0  0  0  0  0  0  0  0  0  0  0  0
   -8.4720   -8.6079   -3.1988 C   0  0  0  0  0  0  0  0  0  0  0  0
   -3.5120  -13.2185   -4.9524 C   0  0  0  0  0  0  0  0  0  0  0  0
   -2.8040  -13.4244   -6.2946 C   0  0  0  0  0  0  0  0  0  0  0  0
   -9.2665   -7.4982   -3.1101 N   0  0  0  0  0  0  0  0  0  0  0  0
   -8.9884   -9.7546   -3.7113 N   0  0  0  0  0  0  0  0  0  0  0  0
   -3.4420  -14.3275   -7.0007 N   0  0  0  0  0  0  0  0  0  0  0  0
   -3.8765  -14.0692   -8.2193 C   0  0  0  0  0  0  0  0  0  0  0  0
   -3.6031  -14.9458   -9.2195 N   0  0  0  0  0  0  0  0  0  0  0  0
   -4.5858  -12.9360   -8.4999 N   0  0  0  0  0  0  0  0  0  0  0  0
   -3.7639   -7.1124   -2.1768 C   0  0  0  0  0  0  0  0  0  0  0  0
   -0.9004   -6.9503    0.9894 O   0  0  0  0  0  0  0  0  0  0  0  0
   -3.2387   -8.3178   -1.6280 C   0  0  0  0  0  0  0  0  0  0  0  0
   -2.2930   -8.2609   -0.5694 C   0  0  0  0  0  0  0  0  0  0  0  0
   -1.8555   -7.0047   -0.0734 C   0  0  0  0  0  0  0  0  0  0  0  0
   -2.3640   -5.8019   -0.6333 C   0  0  0  0  0  0  0  0  0  0  0  0
   -3.3130   -5.8541   -1.6901 C   0  0  0  0  0  0  0  0  0  0  0  0
   -1.5508   -6.5466    2.1979 C   0  0  0  0  0  0  0  0  0  0  0  0
  1  4  1  0  0  0  0
  2  3  1  0  0  0  0
  3  5  1  0  0  0  0
  4  6  1  0  0  0  0
  5  8  1  0  0  0  0
  6  7  1  0  0  0  0
  7 10  1  0  0  0  0
  8  9  1  0  0  0  0
  9 12  1  0  0  0  0
  9 13  1  0  0  0  0
 10 11  1  0  0  0  0
 11 14  1  0  0  0  0
 14 15  1  0  0  0  0
 15 16  1  0  0  0  0
 15 17  1  0  0  0  0
 18  2  1  0  0  0  0
 18 20  2  0  0  0  0
 18 24  1  0  0  0  0
 19 25  1  0  0  0  0
 20  1  1  0  0  0  0
 20 21  1  0  0  0  0
 21 22  2  0  0  0  0
 22 19  1  0  0  0  0
 22 23  1  0  0  0  0
 23 24  2  0  0  0  0
M  END
>  <CHROM.1>
-178.91093738,-81.72770033,-70.88118375,-85.73292858,-101.67112736,-176.10541271
118.60025045,18.51499236,111.31986404,-148.95808579,-162.54474909,124.44222271
130.97803968,155.99262168,62.56047899,115.46821405,42.26239745,-106.91802174
-4.35047440,-9.53959879,-3.39485152,-1.50548257,0.26536756,-2.36948919

>  <Name>
1uud_lig

>  <RI>
0

>  <Rbt.Current_Directory>
/home/itssahil/PROJECTS/Mol_Feturizer/New_Systems/rnas/1uud

>  <Rbt.Executable>
rbdock ($Id: //depot/dev/client3/rdock/2013.1/src/exe/rbdock.cxx#4 $)

>  <Rbt.Library>
libRbt.so (2013.1, Build901 2013/11/27)

>  <Rbt.Parameter_File>
/export/apps/rDock/src/rDock_2013.1_src/data/scripts/dock_solv.prm

>  <Rbt.Receptor>
prm/pocket_docking_7.prm

>  <SCORE>
-30.5039

>  <SCORE.INTER>
-22.7363

>  <SCORE.INTER.CONST>
1

>  <SCORE.INTER.POLAR>
-4.4697

>  <SCORE.INTER.ROT>
18

>  <SCORE.INTER.SOLV>
12.232

>  <SCORE.INTER.VDW>
-19.9359

>  <SCORE.INTER.norm>
-0.909454

>  <SCORE.INTRA>
-7.76757

>  <SCORE.INTRA.DIHEDRAL>
-0.874046

>  <SCORE.INTRA.DIHEDRAL.0>
30.6762

>  <SCORE.INTRA.POLAR>
-0.584691

>  <SCORE.INTRA.POLAR.0>
-0.0288659

>  <SCORE.INTRA.REPUL>
0

>  <SCORE.INTRA.REPUL.0>
0

>  <SCORE.INTRA.SOLV>
-0.172236

>  <SCORE.INTRA.SOLV.lig_0>
-25.2195

>  <SCORE.INTRA.VDW>
-5.25648

>  <SCORE.INTRA.VDW.0>
4.14263

>  <SCORE.INTRA.norm>
-0.310703

>  <SCORE.RESTR>
0

>  <SCORE.RESTR.CAVITY>
0

>  <SCORE.RESTR.norm>
0

>  <SCORE.SYSTEM>
0

>  <SCORE.SYSTEM.CONST>
0

>  <SCORE.SYSTEM.DIHEDRAL>
0

>  <SCORE.SYSTEM.SOLV>
0

>  <SCORE.SYSTEM.norm>
0

>  <SCORE.heavy>
25

>  <SCORE.norm>
-1.22016

>  <RMSD>
7.259

$$$$
1uud_lig
 OpenBabel11021811413D
libRbt.so/2013.1/901 2013/11/27
 25 25  0  0  0  0  0  0  0  0999 V2000
   -1.9140  -10.3578   -2.8163 C   0  0  0  0  0  0  0  0  0  0  0  0
   -0.2099   -8.1305   -3.6755 O   0  0  0  0  0  0  0  0  0  0  0  0
   -1.1503   -7.0558   -3.5309 C   0  0  0  0  0  0  0  0  0  0  0  0
   -3.1311  -10.5332   -1.9856 N   0  0  0  0  0  0  0  0  0  0  0  0
   -1.5579   -6.5199   -4.9099 C   0  0  0  0  0  0  0  0  0  0  0  0
   -4.3396  -10.2854   -2.8071 C   0  0  0  0  0  0  0  0  0  0  0  0
   -4.5489  -11.4547   -3.7770 C   0  0  0  0  0  0  0  0  0  0  0  0
   -0.4900   -6.1710   -5.5872 N   0  0  0  0  0  0  0  0  0  0  0  0
   -0.0947   -6.8480   -6.6490 C   0  0  0  0  0  0  0  0  0  0  0  0
   -4.6288  -10.9310   -5.2151 C   0  0  0  0  0  0  0  0  0  0  0  0
   -3.2652  -11.0897   -5.8939 C   0  0  0  0  0  0  0  0  0  0  0  0
    0.3677   -8.1311   -6.5473 N   0  0  0  0  0  0  0  0  0  0  0  0
   -0.1470   -6.2562   -7.8702 N   0  0  0  0  0  0  0  0  0  0  0  0
   -3.0607  -12.3506   -6.1931 N   0  0  0  0  0  0  0  0  0  0  0  0
   -2.0943  -13.0460   -5.6248 C   0  0  0  0  0  0  0  0  0  0  0  0
   -2.3799  -14.2595   -5.0867 N   0  0  0  0  0  0  0  0  0  0  0  0
   -0.8160  -12.5691   -5.5561 N   0  0  0  0  0  0  0  0  0  0  0  0
    0.0453   -8.7362   -2.4017 C   0  0  0  0  0  0  0  0  0  0  0  0
    0.7955  -10.4973    1.4175 O   0  0  0  0  0  0  0  0  0  0  0  0
   -0.7620   -9.8172   -1.9440 C   0  0  0  0  0  0  0  0  0  0  0  0
   -0.5156  -10.3952   -0.6698 C   0  0  0  0  0  0  0  0  0  0  0  0
    0.5471   -9.9109    0.1373 C   0  0  0  0  0  0  0  0  0  0  0  0
    1.3652   -8.8458   -0.3267 C   0  0  0  0  0  0  0  0  0  0  0  0
    1.1200   -8.2621   -1.5992 C   0  0  0  0  0  0  0  0  0  0  0  0
    2.1094  -11.0627    1.4388 C   0  0  0  0  0  0  0  0  0  0  0  0
  1  4  1  0  0  0  0
  2  3  1  0  0  0  0
  3  5  1  0  0  0  0
  4  6  1  0  0  0  0
  5  8  1  0  0  0  0
  6  7  1  0  0  0  0
  7 10  1  0  0  0  0
  8  9  1  0  0  0  0
  9 12  1  0  0  0  0
  9 13  1  0  0  0  0
 10 11  1  0  0  0  0
 11 14  1  0  0  0  0
 14 15  1  0  0  0  0
 15 16  1  0  0  0  0
 15 17  1  0  0  0  0
 18  2  1  0  0  0  0
 18 20  2  0  0  0  0
 18 24  1  0  0  0  0
 19 25  1  0  0  0  0
 20  1  1  0  0  0  0
 20 21  1  0  0  0  0
 21 22  2  0  0  0  0
 22 19  1  0  0  0  0
 22 23  1  0  0  0  0
 23 24  2  0  0  0  0
M  END
>  <CHROM.1>
147.78549160,-173.00491260,-55.19187517,72.59619839,110.92218194,-124.81454082
98.05224595,-66.83710628,11.84069487,64.21438056,74.56677498,-114.96795452
130.24911118,-154.77098158,-49.60840534,89.35832679,-133.96403629,118.84750713
-1.16206699,-9.76480107,-3.57519572,0.80761924,0.91867840,2.21859038

>  <Name>
1uud_lig

>  <RI>
0

>  <Rbt.Current_Directory>
/home/itssahil/PROJECTS/Mol_Feturizer/New_Systems/rnas/1uud

>  <Rbt.Executable>
rbdock ($Id: //depot/dev/client3/rdock/2013.1/src/exe/rbdock.cxx#4 $)

>  <Rbt.Library>
libRbt.so (2013.1, Build901 2013/11/27)

>  <Rbt.Parameter_File>
/export/apps/rDock/src/rDock_2013.1_src/data/scripts/dock_solv.prm

>  <Rbt.Receptor>
prm/pocket_docking_7.prm

>  <SCORE>
-14.2383

>  <SCORE.INTER>
-6.99023

>  <SCORE.INTER.CONST>
1

>  <SCORE.INTER.POLAR>
-1.92228

>  <SCORE.INTER.ROT>
18

>  <SCORE.INTER.SOLV>
4.96099

>  <SCORE.INTER.VDW>
-15.5062

>  <SCORE.INTER.norm>
-0.279609

>  <SCORE.INTRA>
-7.24808

>  <SCORE.INTRA.DIHEDRAL>
1.32763

>  <SCORE.INTRA.DIHEDRAL.0>
30.6762

>  <SCORE.INTRA.POLAR>
-0.671683

>  <SCORE.INTRA.POLAR.0>
-0.0288659

>  <SCORE.INTRA.REPUL>
0

>  <SCORE.INTRA.REPUL.0>
0

>  <SCORE.INTRA.SOLV>
0.0528668

>  <SCORE.INTRA.SOLV.lig_0>
-25.2195

>  <SCORE.INTRA.VDW>
-5.65461

>  <SCORE.INTRA.VDW.0>
4.14263

>  <SCORE.INTRA.norm>
-0.289923

>  <SCORE.RESTR>
0

>  <SCORE.RESTR.CAVITY>
0

>  <SCORE.RESTR.norm>
0

>  <SCORE.SYSTEM>
0

>  <SCORE.SYSTEM.CONST>
0

>  <SCORE.SYSTEM.DIHEDRAL>
0

>  <SCORE.SYSTEM.SOLV>
0

>  <SCORE.SYSTEM.norm>
0

>  <SCORE.heavy>
25

>  <SCORE.norm>
-0.569532

>  <RMSD>
7.260

$$$$
1uud_lig
 OpenBabel11021811413D
libRbt.so/2013.1/901 2013/11/27
 25 25  0  0  0  0  0  0  0  0999 V2000
   -2.2621   -7.3567   -1.0479 C   0  0  0  0  0  0  0  0  0  0  0  0
   -3.6909   -9.8888   -1.4342 O   0  0  0  0  0  0  0  0  0  0  0  0
   -3.8011  -10.8465   -2.4977 C   0  0  0  0  0  0  0  0  0  0  0  0
   -3.7364   -7.4184   -0.8904 N   0  0  0  0  0  0  0  0  0  0  0  0
   -4.6974  -10.2958   -3.6152 C   0  0  0  0  0  0  0  0  0  0  0  0
   -4.3604   -6.2417   -1.5407 C   0  0  0  0  0  0  0  0  0  0  0  0
   -5.8842   -6.4130   -1.5574 C   0  0  0  0  0  0  0  0  0  0  0  0
   -4.9518  -11.2397   -4.4899 N   0  0  0  0  0  0  0  0  0  0  0  0
   -4.1522  -11.4634   -5.5159 C   0  0  0  0  0  0  0  0  0  0  0  0
   -6.3279   -6.9999   -2.9019 C   0  0  0  0  0  0  0  0  0  0  0  0
   -7.8554   -7.1038   -2.9356 C   0  0  0  0  0  0  0  0  0  0  0  0
   -4.6279  -11.5021   -6.7976 N   0  0  0  0  0  0  0  0  0  0  0  0
   -2.8272  -11.6610   -5.2934 N   0  0  0  0  0  0  0  0  0  0  0  0
   -8.2525   -7.4378   -4.1406 N   0  0  0  0  0  0  0  0  0  0  0  0
   -7.6788   -8.4208   -4.8078 C   0  0  0  0  0  0  0  0  0  0  0  0
   -7.1599   -8.1720   -6.0375 N   0  0  0  0  0  0  0  0  0  0  0  0
   -7.6041   -9.6846   -4.2946 N   0  0  0  0  0  0  0  0  0  0  0  0
   -2.3723   -9.9253   -0.8735 C   0  0  0  0  0  0  0  0  0  0  0  0
    1.5736  -10.0608    0.7579 O   0  0  0  0  0  0  0  0  0  0  0  0
   -1.6414   -8.7187   -0.6740 C   0  0  0  0  0  0  0  0  0  0  0  0
   -0.3261   -8.7675   -0.1392 C   0  0  0  0  0  0  0  0  0  0  0  0
    0.2512  -10.0149    0.2160 C   0  0  0  0  0  0  0  0  0  0  0  0
   -0.4844  -11.2171    0.0356 C   0  0  0  0  0  0  0  0  0  0  0  0
   -1.7991  -11.1733   -0.5024 C   0  0  0  0  0  0  0  0  0  0  0  0
    1.7265  -11.2429    1.5491 C   0  0  0  0  0  0  0  0  0  0  0  0
  1  4  1  0  0  0  0
  2  3  1  0  0  0  0
  3  5  1  0  0  0  0
  4  6  1  0  0  0  0
  5  8  1  0  0  0  0
  6  7  1  0  0  0  0
  7 10  1  0  0  0  0
  8  9  1  0  0  0  0
  9 12  1  0  0  0  0
  9 13  1  0  0  0  0
 10 11  1  0  0  0  0
 11 14  1  0  0  0  0
 14 15  1  0  0  0  0
 15 16  1  0  0  0  0
 15 17  1  0  0  0  0
 18  2  1  0  0  0  0
 18 20  2  0  0  0  0
 18 24  1  0  0  0  0
 19 25  1  0  0  0  0
 20  1  1  0  0  0  0
 20 21  1  0  0  0  0
 21 22  2  0  0  0  0
 22 19  1  0  0  0  0
 22 23  1  0  0  0  0
 23 24  2  0  0  0  0
M  END
>  <CHROM.1>
-166.79925551,-143.95532574,-170.95522550,171.69371958,-88.09717328,-95.76516591
-177.26130565,-127.20479063,26.84923413,-113.31425530,171.76131378,46.75703501
-123.85268309,-81.07879176,20.22532521,131.27093465,30.20283689,155.11343010
-3.78670945,-9.34226322,-2.45655176,0.26619694,-0.58037540,0.75884249

>  <Name>
1uud_lig

>  <RI>
0

>  <Rbt.Current_Directory>
/home/itssahil/PROJECTS/Mol_Feturizer/New_Systems/rnas/1uud

>  <Rbt.Executable>
rbdock ($Id: //depot/dev/client3/rdock/2013.1/src/exe/rbdock.cxx#4 $)

>  <Rbt.Library>
libRbt.so (2013.1, Build901 2013/11/27)

>  <Rbt.Parameter_File>
/export/apps/rDock/src/rDock_2013.1_src/data/scripts/dock_solv.prm

>  <Rbt.Receptor>
prm/pocket_docking_2.prm

>  <SCORE>
-15.7149

>  <SCORE.INTER>
-11.8288

>  <SCORE.INTER.CONST>
1

>  <SCORE.INTER.POLAR>
-2.49434

>  <SCORE.INTER.ROT>
18

>  <SCORE.INTER.SOLV>
9.58462

>  <SCORE.INTER.VDW>
-18.3663

>  <SCORE.INTER.norm>
-0.473152

>  <SCORE.INTRA>
-6.92863

>  <SCORE.INTRA.DIHEDRAL>
-7.31989

>  <SCORE.INTRA.DIHEDRAL.0>
30.6762

>  <SCORE.INTRA.POLAR>
-1.73235

>  <SCORE.INTRA.POLAR.0>
-0.0288659

>  <SCORE.INTRA.REPUL>
0

>  <SCORE.INTRA.REPUL.0>
0

>  <SCORE.INTRA.SOLV>
1.0842

>  <SCORE.INTRA.SOLV.lig_0>
-25.2195

>  <SCORE.INTRA.VDW>
2.07921

>  <SCORE.INTRA.VDW.0>
4.14263

>  <SCORE.INTRA.norm>
-0.277145

>  <SCORE.RESTR>
3.04255

>  <SCORE.RESTR.CAVITY>
3.04255

>  <SCORE.RESTR.norm>
0.121702

>  <SCORE.SYSTEM>
0

>  <SCORE.SYSTEM.CONST>
0

>  <SCORE.SYSTEM.DIHEDRAL>
0

>  <SCORE.SYSTEM.SOLV>
0

>  <SCORE.SYSTEM.norm>
0

>  <SCORE.heavy>
25

>  <SCORE.norm>
-0.628595

>  <RMSD>
7.263

$$$$
1uud_lig
 OpenBabel11021811413D
libRbt.so/2013.1/901 2013/11/27
 25 25  0  0  0  0  0  0  0  0999 V2000
   -3.3132  -10.6023   -2.6189 C   0  0  0  0  0  0  0  0  0  0  0  0
   -4.3841   -7.8938   -2.2729 O   0  0  0  0  0  0  0  0  0  0  0  0
   -4.0560   -7.6196   -3.6431 C   0  0  0  0  0  0  0  0  0  0  0  0
   -2.3017  -11.1422   -3.5609 N   0  0  0  0  0  0  0  0  0  0  0  0
   -5.2693   -7.0226   -4.3688 C   0  0  0  0  0  0  0  0  0  0  0  0
   -2.7816  -12.4224   -4.1333 C   0  0  0  0  0  0  0  0  0  0  0  0
   -1.6142  -13.1513   -4.8097 C   0  0  0  0  0  0  0  0  0  0  0  0
   -5.9970   -7.9832   -4.8870 N   0  0  0  0  0  0  0  0  0  0  0  0
   -7.3149   -7.9652   -4.8163 C   0  0  0  0  0  0  0  0  0  0  0  0
   -2.0629  -14.5443   -5.2646 C   0  0  0  0  0  0  0  0  0  0  0  0
   -2.1383  -14.5836   -6.7936 C   0  0  0  0  0  0  0  0  0  0  0  0
   -7.9986   -6.8214   -4.5085 N   0  0  0  0  0  0  0  0  0  0  0  0
   -8.0074   -9.1091   -5.0534 N   0  0  0  0  0  0  0  0  0  0  0  0
   -3.2661  -14.0489   -7.1979 N   0  0  0  0  0  0  0  0  0  0  0  0
   -3.3336  -12.7875   -7.5783 C   0  0  0  0  0  0  0  0  0  0  0  0
   -2.4267  -12.3159   -8.4721 N   0  0  0  0  0  0  0  0  0  0  0  0
   -4.2878  -11.9427   -7.0864 N   0  0  0  0  0  0  0  0  0  0  0  0
   -3.2035   -8.2610   -1.5479 C   0  0  0  0  0  0  0  0  0  0  0  0
    0.2905   -9.3489    0.6565 O   0  0  0  0  0  0  0  0  0  0  0  0
   -2.6533   -9.5683   -1.6831 C   0  0  0  0  0  0  0  0  0  0  0  0
   -1.4963   -9.9300   -0.9423 C   0  0  0  0  0  0  0  0  0  0  0  0
   -0.8764   -8.9836   -0.0848 C   0  0  0  0  0  0  0  0  0  0  0  0
   -1.4129   -7.6734    0.0358 C   0  0  0  0  0  0  0  0  0  0  0  0
   -2.5724   -7.3083   -0.7006 C   0  0  0  0  0  0  0  0  0  0  0  0
    0.0654  -10.5959    1.3205 C   0  0  0  0  0  0  0  0  0  0  0  0
  1  4  1  0  0  0  0
  2  3  1  0  0  0  0
  3  5  1  0  0  0  0
  4  6  1  0  0  0  0
  5  8  1  0  0  0  0
  6  7  1  0  0  0  0
  7 10  1  0  0  0  0
  8  9  1  0  0  0  0
  9 12  1  0  0  0  0
  9 13  1  0  0  0  0
 10 11  1  0  0  0  0
 11 14  1  0  0  0  0
 14 15  1  0  0  0  0
 15 16  1  0  0  0  0
 15 17  1  0  0  0  0
 18  2  1  0  0  0  0
 18 20  2  0  0  0  0
 18 24  1  0  0  0  0
 19 25  1  0  0  0  0
 20  1  1  0  0  0  0
 20 21  1  0  0  0  0
 21 22  2  0  0  0  0
 22 19  1  0  0  0  0
 22 23  1  0  0  0  0
 23 24  2  0  0  0  0
M  END
>  <CHROM.1>
160.97229829,-171.40712353,-89.53749712,-165.53168431,137.54221365,173.62147628
109.88718513,16.41139781,-58.27180708,127.18442615,-80.86209085,96.33557190
49.37361732,88.32371738,-127.94653247,-77.37781549,126.82002744,-48.90792566
-3.34820825,-10.17196964,-3.68544012,-1.32132348,0.65265272,-2.31239251

>  <Name>
1uud_lig

>  <RI>
0

>  <Rbt.Current_Directory>
/home/itssahil/PROJECTS/Mol_Feturizer/New_Systems/rnas/1uud

>  <Rbt.Executable>
rbdock ($Id: //depot/dev/client3/rdock/2013.1/src/exe/rbdock.cxx#4 $)

>  <Rbt.Library>
libRbt.so (2013.1, Build901 2013/11/27)

>  <Rbt.Parameter_File>
/export/apps/rDock/src/rDock_2013.1_src/data/scripts/dock_solv.prm

>  <Rbt.Receptor>
prm/pocket_docking_2.prm

>  <SCORE>
-15.23

>  <SCORE.INTER>
-12.0428

>  <SCORE.INTER.CONST>
1

>  <SCORE.INTER.POLAR>
-2.19843

>  <SCORE.INTER.ROT>
18

>  <SCORE.INTER.SOLV>
9.17822

>  <SCORE.INTER.VDW>
-19.3599

>  <SCORE.INTER.norm>
-0.481713

>  <SCORE.INTRA>
-4.06125

>  <SCORE.INTRA.DIHEDRAL>
-1.33562

>  <SCORE.INTRA.DIHEDRAL.0>
30.6762

>  <SCORE.INTRA.POLAR>
0.0288659

>  <SCORE.INTRA.POLAR.0>
-0.0288659

>  <SCORE.INTRA.REPUL>
0

>  <SCORE.INTRA.REPUL.0>
0

>  <SCORE.INTRA.SOLV>
-0.257725

>  <SCORE.INTRA.SOLV.lig_0>
-25.2195

>  <SCORE.INTRA.VDW>
-3.36272

>  <SCORE.INTRA.VDW.0>
4.14263

>  <SCORE.INTRA.norm>
-0.16245

>  <SCORE.RESTR>
0.874067

>  <SCORE.RESTR.CAVITY>
0.874067

>  <SCORE.RESTR.norm>
0.0349627

>  <SCORE.SYSTEM>
0

>  <SCORE.SYSTEM.CONST>
0

>  <SCORE.SYSTEM.DIHEDRAL>
0

>  <SCORE.SYSTEM.SOLV>
0

>  <SCORE.SYSTEM.norm>
0

>  <SCORE.heavy>
25

>  <SCORE.norm>
-0.6092

>  <RMSD>
7.266

$$$$
1uud_lig
 OpenBabel11021811413D
libRbt.so/2013.1/901 2013/11/27
 25 25  0  0  0  0  0  0  0  0999 V2000
   -1.7800  -10.3044   -2.9664 C   0  0  0  0  0  0  0  0  0  0  0  0
   -1.1388  -10.6206   -0.1219 O   0  0  0  0  0  0  0  0  0  0  0  0
   -0.7078  -10.2937    1.2077 C   0  0  0  0  0  0  0  0  0  0  0  0
   -2.3227  -11.6551   -3.2552 N   0  0  0  0  0  0  0  0  0  0  0  0
    0.3049  -11.3332    1.7066 C   0  0  0  0  0  0  0  0  0  0  0  0
   -3.0063  -11.6509   -4.5702 C   0  0  0  0  0  0  0  0  0  0  0  0
   -4.5164  -11.8200   -4.3638 C   0  0  0  0  0  0  0  0  0  0  0  0
    1.3800  -11.3060    0.9555 N   0  0  0  0  0  0  0  0  0  0  0  0
    2.5498  -11.7147    1.4099 C   0  0  0  0  0  0  0  0  0  0  0  0
   -5.1916  -10.4454   -4.3059 C   0  0  0  0  0  0  0  0  0  0  0  0
   -6.5325  -10.5644   -3.5756 C   0  0  0  0  0  0  0  0  0  0  0  0
    2.6759  -12.2884    2.6450 N   0  0  0  0  0  0  0  0  0  0  0  0
    3.6535  -11.5607    0.6338 N   0  0  0  0  0  0  0  0  0  0  0  0
   -6.9738   -9.3706   -3.2575 N   0  0  0  0  0  0  0  0  0  0  0  0
   -7.9295   -8.7816   -3.9505 C   0  0  0  0  0  0  0  0  0  0  0  0
   -9.1496   -8.6076   -3.3807 N   0  0  0  0  0  0  0  0  0  0  0  0
   -7.7231   -8.3524   -5.2308 N   0  0  0  0  0  0  0  0  0  0  0  0
   -2.2707   -9.8192   -0.4836 C   0  0  0  0  0  0  0  0  0  0  0  0
   -5.6221   -7.3901   -1.5412 O   0  0  0  0  0  0  0  0  0  0  0  0
   -2.6140   -9.6354   -1.8541 C   0  0  0  0  0  0  0  0  0  0  0  0
   -3.7239   -8.8202   -2.2032 C   0  0  0  0  0  0  0  0  0  0  0  0
   -4.5030   -8.2067   -1.1872 C   0  0  0  0  0  0  0  0  0  0  0  0
   -4.1731   -8.4053    0.1805 C   0  0  0  0  0  0  0  0  0  0  0  0
   -3.0615   -9.2171    0.5342 C   0  0  0  0  0  0  0  0  0  0  0  0
   -5.1781   -6.2882   -2.3383 C   0  0  0  0  0  0  0  0  0  0  0  0
  1  4  1  0  0  0  0
  2  3  1  0  0  0  0
  3  5  1  0  0  0  0
  4  6  1  0  0  0  0
  5  8  1  0  0  0  0
  6  7  1  0  0  0  0
  7 10  1  0  0  0  0
  8  9  1  0  0  0  0
  9 12  1  0  0  0  0
  9 13  1  0  0  0  0
 10 11  1  0  0  0  0
 11 14  1  0  0  0  0
 14 15  1  0  0  0  0
 15 16  1  0  0  0  0
 15 17  1  0  0  0  0
 18  2  1  0  0  0  0
 18 20  2  0  0  0  0
 18 24  1  0  0  0  0
 19 25  1  0  0  0  0
 20  1  1  0  0  0  0
 20 21  1  0  0  0  0
 21 22  2  0  0  0  0
 22 19  1  0  0  0  0
 22 23  1  0  0  0  0
 23 24  2  0  0  0  0
M  END
>  <CHROM.1>
108.07999806,168.38244217,63.26080473,-111.22345346,155.36311123,93.78290461
-157.91511425,5.50396720,-135.25615369,46.50657799,165.97118106,102.36138968
110.92379734,-152.08251578,-1.97423487,159.75630846,89.06634610,-60.38863628
-3.09022874,-9.95523998,-1.58468943,-0.23536923,0.52480025,-2.21049758

>  <Name>
1uud_lig

>  <RI>
0

>  <Rbt.Current_Directory>
/home/itssahil/PROJECTS/Mol_Feturizer/New_Systems/rnas/1uud

>  <Rbt.Executable>
rbdock ($Id: //depot/dev/client3/rdock/2013.1/src/exe/rbdock.cxx#4 $)

>  <Rbt.Library>
libRbt.so (2013.1, Build901 2013/11/27)

>  <Rbt.Parameter_File>
/export/apps/rDock/src/rDock_2013.1_src/data/scripts/dock_solv.prm

>  <Rbt.Receptor>
prm/pocket_docking_3.prm

>  <SCORE>
-28.7657

>  <SCORE.INTER>
-22.6936

>  <SCORE.INTER.CONST>
1

>  <SCORE.INTER.POLAR>
-4.89539

>  <SCORE.INTER.ROT>
18

>  <SCORE.INTER.SOLV>
16.662

>  <SCORE.INTER.VDW>
-19.9651

>  <SCORE.INTER.norm>
-0.907744

>  <SCORE.INTRA>
-6.22198

>  <SCORE.INTRA.DIHEDRAL>
-2.9398

>  <SCORE.INTRA.DIHEDRAL.0>
30.6762

>  <SCORE.INTRA.POLAR>
-0.90326

>  <SCORE.INTRA.POLAR.0>
-0.0288659

>  <SCORE.INTRA.REPUL>
0

>  <SCORE.INTRA.REPUL.0>
0

>  <SCORE.INTRA.SOLV>
-0.0445181

>  <SCORE.INTRA.SOLV.lig_0>
-25.2195

>  <SCORE.INTRA.VDW>
-1.65874

>  <SCORE.INTRA.VDW.0>
4.14263

>  <SCORE.INTRA.norm>
-0.248879

>  <SCORE.RESTR>
0.14993

>  <SCORE.RESTR.CAVITY>
0.14993

>  <SCORE.RESTR.norm>
0.00599722

>  <SCORE.SYSTEM>
0

>  <SCORE.SYSTEM.CONST>
0

>  <SCORE.SYSTEM.DIHEDRAL>
0

>  <SCORE.SYSTEM.SOLV>
0

>  <SCORE.SYSTEM.norm>
0

>  <SCORE.heavy>
25

>  <SCORE.norm>
-1.15063

>  <RMSD>
7.291

$$$$
1uud_lig
 OpenBabel11021811413D
libRbt.so/2013.1/901 2013/11/27
 25 25  0  0  0  0  0  0  0  0999 V2000
   -5.0982   -8.3300    0.7310 C   0  0  0  0  0  0  0  0  0  0  0  0
   -2.1802   -8.0932    0.5534 O   0  0  0  0  0  0  0  0  0  0  0  0
   -2.3696   -8.7290    1.8262 C   0  0  0  0  0  0  0  0  0  0  0  0
   -4.8388   -6.8697    0.7781 N   0  0  0  0  0  0  0  0  0  0  0  0
   -1.7654  -10.1396    1.8084 C   0  0  0  0  0  0  0  0  0  0  0  0
   -5.5703   -6.1942   -0.3198 C   0  0  0  0  0  0  0  0  0  0  0  0
   -4.7400   -6.2624   -1.6072 C   0  0  0  0  0  0  0  0  0  0  0  0
   -0.4603  -10.0653    1.6980 N   0  0  0  0  0  0  0  0  0  0  0  0
    0.2391  -11.0246    1.1213 C   0  0  0  0  0  0  0  0  0  0  0  0
   -5.5150   -5.6183   -2.7619 C   0  0  0  0  0  0  0  0  0  0  0  0
   -6.2009   -6.7093   -3.5893 C   0  0  0  0  0  0  0  0  0  0  0  0
    1.5289  -11.2898    1.4910 N   0  0  0  0  0  0  0  0  0  0  0  0
   -0.3348  -11.7641    0.1375 N   0  0  0  0  0  0  0  0  0  0  0  0
   -7.2885   -6.2296   -4.1445 N   0  0  0  0  0  0  0  0  0  0  0  0
   -8.4014   -6.0686   -3.4545 C   0  0  0  0  0  0  0  0  0  0  0  0
   -9.2428   -7.1229   -3.2994 N   0  0  0  0  0  0  0  0  0  0  0  0
   -8.7314   -4.8639   -2.9015 N   0  0  0  0  0  0  0  0  0  0  0  0
   -2.8715   -8.8222   -0.4689 C   0  0  0  0  0  0  0  0  0  0  0  0
   -4.9070  -11.0368   -3.5025 O   0  0  0  0  0  0  0  0  0  0  0  0
   -4.2881   -8.9656   -0.4178 C   0  0  0  0  0  0  0  0  0  0  0  0
   -4.9614   -9.7098   -1.4234 C   0  0  0  0  0  0  0  0  0  0  0  0
   -4.2263  -10.2918   -2.4895 C   0  0  0  0  0  0  0  0  0  0  0  0
   -2.8158  -10.1328   -2.5519 C   0  0  0  0  0  0  0  0  0  0  0  0
   -2.1376   -9.3921   -1.5461 C   0  0  0  0  0  0  0  0  0  0  0  0
   -5.6782  -10.1471   -4.3150 C   0  0  0  0  0  0  0  0  0  0  0  0
  1  4  1  0  0  0  0
  2  3  1  0  0  0  0
  3  5  1  0  0  0  0
  4  6  1  0  0  0  0
  5  8  1  0  0  0  0
  6  7  1  0  0  0  0
  7 10  1  0  0  0  0
  8  9  1  0  0  0  0
  9 12  1  0  0  0  0
  9 13  1  0  0  0  0
 10 11  1  0  0  0  0
 11 14  1  0  0  0  0
 14 15  1  0  0  0  0
 15 16  1  0  0  0  0
 15 17  1  0  0  0  0
 18  2  1  0  0  0  0
 18 20  2  0  0  0  0
 18 24  1  0  0  0  0
 19 25  1  0  0  0  0
 20  1  1  0  0  0  0
 20 21  1  0  0  0  0
 21 22  2  0  0  0  0
 22 19  1  0  0  0  0
 22 23  1  0  0  0  0
 23 24  2  0  0  0  0
M  END
>  <CHROM.1>
75.69047258,62.69542998,66.73764803,-84.23233916,-151.40255801,177.61976978
-98.38026891,-150.28401648,130.71543724,-97.68272011,151.38696291,-77.83037395
-84.34306626,107.72415992,24.00101796,61.94906247,56.91245260,70.33760458
-4.12692450,-8.53699589,-1.14172613,0.01523760,-0.69255404,0.80068639

>  <Name>
1uud_lig

>  <RI>
0

>  <Rbt.Current_Directory>
/home/itssahil/PROJECTS/Mol_Feturizer/New_Systems/rnas/1uud

>  <Rbt.Executable>
rbdock ($Id: //depot/dev/client3/rdock/2013.1/src/exe/rbdock.cxx#4 $)

>  <Rbt.Library>
libRbt.so (2013.1, Build901 2013/11/27)

>  <Rbt.Parameter_File>
/export/apps/rDock/src/rDock_2013.1_src/data/scripts/dock_solv.prm

>  <Rbt.Receptor>
prm/pocket_docking_4.prm

>  <SCORE>
-25.6119

>  <SCORE.INTER>
-19.2962

>  <SCORE.INTER.CONST>
1

>  <SCORE.INTER.POLAR>
-4.80658

>  <SCORE.INTER.ROT>
18

>  <SCORE.INTER.SOLV>
8.58573

>  <SCORE.INTER.VDW>
-15.3041

>  <SCORE.INTER.norm>
-0.771846

>  <SCORE.INTRA>
-6.31575

>  <SCORE.INTRA.DIHEDRAL>
-3.40367

>  <SCORE.INTRA.DIHEDRAL.0>
30.6762

>  <SCORE.INTRA.POLAR>
-0.215045

>  <SCORE.INTRA.POLAR.0>
-0.0288659

>  <SCORE.INTRA.REPUL>
0

>  <SCORE.INTRA.REPUL.0>
0

>  <SCORE.INTRA.SOLV>
0.10413

>  <SCORE.INTRA.SOLV.lig_0>
-25.2195

>  <SCORE.INTRA.VDW>
-3.93483

>  <SCORE.INTRA.VDW.0>
4.14263

>  <SCORE.INTRA.norm>
-0.25263

>  <SCORE.RESTR>
0

>  <SCORE.RESTR.CAVITY>
0

>  <SCORE.RESTR.norm>
0

>  <SCORE.SYSTEM>
0

>  <SCORE.SYSTEM.CONST>
0

>  <SCORE.SYSTEM.DIHEDRAL>
0

>  <SCORE.SYSTEM.SOLV>
0

>  <SCORE.SYSTEM.norm>
0

>  <SCORE.heavy>
25

>  <SCORE.norm>
-1.02448

>  <RMSD>
7.291

$$$$
1uud_lig
 OpenBabel11021811413D
libRbt.so/2013.1/901 2013/11/27
 25 25  0  0  0  0  0  0  0  0999 V2000
   -3.5162  -10.7578   -3.2905 C   0  0  0  0  0  0  0  0  0  0  0  0
   -3.1753   -9.3781   -0.7248 O   0  0  0  0  0  0  0  0  0  0  0  0
   -2.6530  -10.6481   -0.3072 C   0  0  0  0  0  0  0  0  0  0  0  0
   -3.9055  -10.9385   -4.7110 N   0  0  0  0  0  0  0  0  0  0  0  0
   -1.1239  -10.6606   -0.4378 C   0  0  0  0  0  0  0  0  0  0  0  0
   -2.7556  -11.4653   -5.4836 C   0  0  0  0  0  0  0  0  0  0  0  0
   -3.1945  -11.7532   -6.9245 C   0  0  0  0  0  0  0  0  0  0  0  0
   -0.5803  -10.1178    0.6256 N   0  0  0  0  0  0  0  0  0  0  0  0
    0.5227  -10.6055    1.1617 C   0  0  0  0  0  0  0  0  0  0  0  0
   -2.0389  -12.3903   -7.7039 C   0  0  0  0  0  0  0  0  0  0  0  0
   -2.5045  -12.7297   -9.1228 C   0  0  0  0  0  0  0  0  0  0  0  0
    1.7131   -9.9369    1.0804 N   0  0  0  0  0  0  0  0  0  0  0  0
    0.4747  -11.7991    1.8077 N   0  0  0  0  0  0  0  0  0  0  0  0
   -2.3380  -14.0107   -9.3517 N   0  0  0  0  0  0  0  0  0  0  0  0
   -3.3265  -14.8717   -9.2028 C   0  0  0  0  0  0  0  0  0  0  0  0
   -3.4975  -15.8501  -10.1286 N   0  0  0  0  0  0  0  0  0  0  0  0
   -4.1874  -14.7954   -8.1450 N   0  0  0  0  0  0  0  0  0  0  0  0
   -4.5012   -9.5381   -1.2453 C   0  0  0  0  0  0  0  0  0  0  0  0
   -8.4575   -9.9646   -2.7998 O   0  0  0  0  0  0  0  0  0  0  0  0
   -4.7107  -10.1975   -2.4908 C   0  0  0  0  0  0  0  0  0  0  0  0
   -6.0267  -10.3304   -3.0093 C   0  0  0  0  0  0  0  0  0  0  0  0
   -7.1336   -9.8259   -2.2776 C   0  0  0  0  0  0  0  0  0  0  0  0
   -6.9275   -9.1854   -1.0261 C   0  0  0  0  0  0  0  0  0  0  0  0
   -5.6124   -9.0470   -0.5052 C   0  0  0  0  0  0  0  0  0  0  0  0
   -8.7018   -8.9377   -3.7653 C   0  0  0  0  0  0  0  0  0  0  0  0
  1  4  1  0  0  0  0
  2  3  1  0  0  0  0
  3  5  1  0  0  0  0
  4  6  1  0  0  0  0
  5  8  1  0  0  0  0
  6  7  1  0  0  0  0
  7 10  1  0  0  0  0
  8  9  1  0  0  0  0
  9 12  1  0  0  0  0
  9 13  1  0  0  0  0
 10 11  1  0  0  0  0
 11 14  1  0  0  0  0
 14 15  1  0  0  0  0
 15 16  1  0  0  0  0
 15 17  1  0  0  0  0
 18  2  1  0  0  0  0
 18 20  2  0  0  0  0
 18 24  1  0  0  0  0
 19 25  1  0  0  0  0
 20  1  1  0  0  0  0
 20 21  1  0  0  0  0
 21 22  2  0  0  0  0
 22 19  1  0  0  0  0
 22 23  1  0  0  0  0
 23 24  2  0  0  0  0
M  END
>  <CHROM.1>
179.49841989,151.04588144,83.69462136,175.60677237,141.01684298,-176.03939875
177.57012036,109.41157526,-154.13986415,27.29006720,-122.53996384,96.47644080
137.83770027,-87.07947452,123.95156247,-70.14734771,-159.64919456,-81.06298141
-3.46712178,-11.24132715,-3.55852400,1.42422259,-0.29823027,1.12569488

>  <Name>
1uud_lig

>  <RI>
0

>  <Rbt.Current_Directory>
/home/itssahil/PROJECTS/Mol_Feturizer/New_Systems/rnas/1uud

>  <Rbt.Executable>
rbdock ($Id: //depot/dev/client3/rdock/2013.1/src/exe/rbdock.cxx#4 $)

>  <Rbt.Library>
libRbt.so (2013.1, Build901 2013/11/27)

>  <Rbt.Parameter_File>
/export/apps/rDock/src/rDock_2013.1_src/data/scripts/dock_solv.prm

>  <Rbt.Receptor>
prm/pocket_docking_6.prm

>  <SCORE>
-33.6119

>  <SCORE.INTER>
-27.9468

>  <SCORE.INTER.CONST>
1

>  <SCORE.INTER.POLAR>
-3.62195

>  <SCORE.INTER.ROT>
18

>  <SCORE.INTER.SOLV>
13.8331

>  <SCORE.INTER.VDW>
-26.7691

>  <SCORE.INTER.norm>
-1.11787

>  <SCORE.INTRA>
-5.66505

>  <SCORE.INTRA.DIHEDRAL>
-0.514555

>  <SCORE.INTRA.DIHEDRAL.0>
30.6762

>  <SCORE.INTRA.POLAR>
0.0288659

>  <SCORE.INTRA.POLAR.0>
-0.0288659

>  <SCORE.INTRA.REPUL>
0

>  <SCORE.INTRA.REPUL.0>
0

>  <SCORE.INTRA.SOLV>
-1.02175

>  <SCORE.INTRA.SOLV.lig_0>
-25.2195

>  <SCORE.INTRA.VDW>
-4.99504

>  <SCORE.INTRA.VDW.0>
4.14263

>  <SCORE.INTRA.norm>
-0.226602

>  <SCORE.RESTR>
0

>  <SCORE.RESTR.CAVITY>
0

>  <SCORE.RESTR.norm>
0

>  <SCORE.SYSTEM>
0

>  <SCORE.SYSTEM.CONST>
0

>  <SCORE.SYSTEM.DIHEDRAL>
0

>  <SCORE.SYSTEM.SOLV>
0

>  <SCORE.SYSTEM.norm>
0

>  <SCORE.heavy>
25

>  <SCORE.norm>
-1.34448

>  <RMSD>
7.294

$$$$
1uud_lig
 OpenBabel11021811413D
libRbt.so/2013.1/901 2013/11/27
 25 25  0  0  0  0  0  0  0  0999 V2000
   -3.9857   -9.6538   -2.2785 C   0  0  0  0  0  0  0  0  0  0  0  0
   -4.5954   -7.2363   -3.8233 O   0  0  0  0  0  0  0  0  0  0  0  0
   -5.0641   -7.7333   -5.0857 C   0  0  0  0  0  0  0  0  0  0  0  0
   -4.1574  -10.8703   -3.1109 N   0  0  0  0  0  0  0  0  0  0  0  0
   -6.5688   -8.0261   -5.0137 C   0  0  0  0  0  0  0  0  0  0  0  0
   -3.6710  -10.6101   -4.4866 C   0  0  0  0  0  0  0  0  0  0  0  0
   -4.4252  -11.5072   -5.4755 C   0  0  0  0  0  0  0  0  0  0  0  0
   -7.2201   -6.9383   -4.6774 N   0  0  0  0  0  0  0  0  0  0  0  0
   -7.7324   -6.7860   -3.4705 C   0  0  0  0  0  0  0  0  0  0  0  0
   -3.8449  -11.3342   -6.8833 C   0  0  0  0  0  0  0  0  0  0  0  0
   -2.6865  -12.3157   -7.0835 C   0  0  0  0  0  0  0  0  0  0  0  0
   -9.0125   -7.1727   -3.1835 N   0  0  0  0  0  0  0  0  0  0  0  0
   -6.9713   -6.2315   -2.4921 N   0  0  0  0  0  0  0  0  0  0  0  0
   -2.8127  -12.9238   -8.2391 N   0  0  0  0  0  0  0  0  0  0  0  0
   -2.9801  -14.2301   -8.3160 C   0  0  0  0  0  0  0  0  0  0  0  0
   -4.0135  -14.8057   -7.6494 N   0  0  0  0  0  0  0  0  0  0  0  0
   -2.1324  -15.0178   -9.0420 N   0  0  0  0  0  0  0  0  0  0  0  0
   -3.2218   -7.5978   -3.6312 C   0  0  0  0  0  0  0  0  0  0  0  0
    0.8798   -8.6322   -3.0330 O   0  0  0  0  0  0  0  0  0  0  0  0
   -2.8817   -8.7615   -2.8827 C   0  0  0  0  0  0  0  0  0  0  0  0
   -1.5168   -9.0983   -2.6783 C   0  0  0  0  0  0  0  0  0  0  0  0
   -0.4931   -8.2886   -3.2369 C   0  0  0  0  0  0  0  0  0  0  0  0
   -0.8316   -7.1387   -3.9999 C   0  0  0  0  0  0  0  0  0  0  0  0
   -2.1958   -6.7960   -4.2040 C   0  0  0  0  0  0  0  0  0  0  0  0
    1.3283   -9.4689   -4.1032 C   0  0  0  0  0  0  0  0  0  0  0  0
  1  4  1  0  0  0  0
  2  3  1  0  0  0  0
  3  5  1  0  0  0  0
  4  6  1  0  0  0  0
  5  8  1  0  0  0  0
  6  7  1  0  0  0  0
  7 10  1  0  0  0  0
  8  9  1  0  0  0  0
  9 12  1  0  0  0  0
  9 13  1  0  0  0  0
 10 11  1  0  0  0  0
 11 14  1  0  0  0  0
 14 15  1  0  0  0  0
 15 16  1  0  0  0  0
 15 17  1  0  0  0  0
 18  2  1  0  0  0  0
 18 20  2  0  0  0  0
 18 24  1  0  0  0  0
 19 25  1  0  0  0  0
 20  1  1  0  0  0  0
 20 21  1  0  0  0  0
 21 22  2  0  0  0  0
 22 19  1  0  0  0  0
 22 23  1  0  0  0  0
 23 24  2  0  0  0  0
M  END
>  <CHROM.1>
-23.20201012,150.43709793,57.97224772,-152.27808124,-106.18264092,-175.07963577
88.29563677,-90.85431493,-39.13524280,-143.16480466,133.20909718,-117.38349114
55.86573693,73.50742970,118.49051862,-95.92245608,102.53845601,91.37941053
-3.68725591,-9.62119394,-4.75545607,-1.98186139,0.13440491,-2.50097161

>  <Name>
1uud_lig

>  <RI>
0

>  <Rbt.Current_Directory>
/home/itssahil/PROJECTS/Mol_Feturizer/New_Systems/rnas/1uud

>  <Rbt.Executable>
rbdock ($Id: //depot/dev/client3/rdock/2013.1/src/exe/rbdock.cxx#4 $)

>  <Rbt.Library>
libRbt.so (2013.1, Build901 2013/11/27)

>  <Rbt.Parameter_File>
/export/apps/rDock/src/rDock_2013.1_src/data/scripts/dock_solv.prm

>  <Rbt.Receptor>
prm/pocket_docking_5.prm

>  <SCORE>
-20.4868

>  <SCORE.INTER>
-19.9228

>  <SCORE.INTER.CONST>
1

>  <SCORE.INTER.POLAR>
-5.15702

>  <SCORE.INTER.ROT>
18

>  <SCORE.INTER.SOLV>
7.24041

>  <SCORE.INTER.VDW>
-14.1053

>  <SCORE.INTER.norm>
-0.796913

>  <SCORE.INTRA>
-0.563955

>  <SCORE.INTRA.DIHEDRAL>
4.45973

>  <SCORE.INTRA.DIHEDRAL.0>
30.6762

>  <SCORE.INTRA.POLAR>
0.0288659

>  <SCORE.INTRA.POLAR.0>
-0.0288659

>  <SCORE.INTRA.REPUL>
0

>  <SCORE.INTRA.REPUL.0>
0

>  <SCORE.INTRA.SOLV>
-0.383345

>  <SCORE.INTRA.SOLV.lig_0>
-25.2195

>  <SCORE.INTRA.VDW>
-2.70029

>  <SCORE.INTRA.VDW.0>
4.14263

>  <SCORE.INTRA.norm>
-0.0225582

>  <SCORE.RESTR>
0

>  <SCORE.RESTR.CAVITY>
0

>  <SCORE.RESTR.norm>
0

>  <SCORE.SYSTEM>
0

>  <SCORE.SYSTEM.CONST>
0

>  <SCORE.SYSTEM.DIHEDRAL>
0

>  <SCORE.SYSTEM.SOLV>
0

>  <SCORE.SYSTEM.norm>
0

>  <SCORE.heavy>
25

>  <SCORE.norm>
-0.819472

>  <RMSD>
7.300

$$$$
1uud_lig
 OpenBabel11021811413D
libRbt.so/2013.1/901 2013/11/27
 25 25  0  0  0  0  0  0  0  0999 V2000
   -3.0447  -12.8646   -5.9728 C   0  0  0  0  0  0  0  0  0  0  0  0
   -0.7261  -14.0654   -4.6367 O   0  0  0  0  0  0  0  0  0  0  0  0
    0.3045  -14.9491   -5.1026 C   0  0  0  0  0  0  0  0  0  0  0  0
   -3.5059  -13.1995   -4.6027 N   0  0  0  0  0  0  0  0  0  0  0  0
    0.0369  -16.3789   -4.6134 C   0  0  0  0  0  0  0  0  0  0  0  0
   -3.8461  -11.9569   -3.8698 C   0  0  0  0  0  0  0  0  0  0  0  0
   -5.3450  -11.6687   -4.0171 C   0  0  0  0  0  0  0  0  0  0  0  0
   -1.1110  -16.8047   -5.0842 N   0  0  0  0  0  0  0  0  0  0  0  0
   -1.3550  -16.8391   -6.3809 C   0  0  0  0  0  0  0  0  0  0  0  0
   -5.5900  -10.8043   -5.2587 C   0  0  0  0  0  0  0  0  0  0  0  0
   -5.5192   -9.3238   -4.8736 C   0  0  0  0  0  0  0  0  0  0  0  0
   -0.4511  -17.3611   -7.2646 N   0  0  0  0  0  0  0  0  0  0  0  0
   -2.5299  -16.3435   -6.8481 N   0  0  0  0  0  0  0  0  0  0  0  0
   -6.4855   -9.0352   -4.0345 N   0  0  0  0  0  0  0  0  0  0  0  0
   -7.6375   -8.5459   -4.4517 C   0  0  0  0  0  0  0  0  0  0  0  0
   -8.7864   -9.1981   -4.1384 N   0  0  0  0  0  0  0  0  0  0  0  0
   -7.7002   -7.4045   -5.1997 N   0  0  0  0  0  0  0  0  0  0  0  0
   -0.5762  -12.7733   -5.2389 C   0  0  0  0  0  0  0  0  0  0  0  0
   -0.0948   -8.9416   -7.0655 O   0  0  0  0  0  0  0  0  0  0  0  0
   -1.6758  -12.1565   -5.9025 C   0  0  0  0  0  0  0  0  0  0  0  0
   -1.5104  -10.8861   -6.5164 C   0  0  0  0  0  0  0  0  0  0  0  0
   -0.2573  -10.2221   -6.4504 C   0  0  0  0  0  0  0  0  0  0  0  0
    0.8344  -10.8277   -5.7720 C   0  0  0  0  0  0  0  0  0  0  0  0
    0.6746  -12.1002   -5.1595 C   0  0  0  0  0  0  0  0  0  0  0  0
   -0.6531   -7.9303   -6.2217 C   0  0  0  0  0  0  0  0  0  0  0  0
  1  4  1  0  0  0  0
  2  3  1  0  0  0  0
  3  5  1  0  0  0  0
  4  6  1  0  0  0  0
  5  8  1  0  0  0  0
  6  7  1  0  0  0  0
  7 10  1  0  0  0  0
  8  9  1  0  0  0  0
  9 12  1  0  0  0  0
  9 13  1  0  0  0  0
 10 11  1  0  0  0  0
 11 14  1  0  0  0  0
 14 15  1  0  0  0  0
 15 16  1  0  0  0  0
 15 17  1  0  0  0  0
 18  2  1  0  0  0  0
 18 20  2  0  0  0  0
 18 24  1  0  0  0  0
 19 25  1  0  0  0  0
 20  1  1  0  0  0  0
 20 21  1  0  0  0  0
 21 22  2  0  0  0  0
 22 19  1  0  0  0  0
 22 23  1  0  0  0  0
 23 24  2  0  0  0  0
M  END
>  <CHROM.1>
68.96574027,-172.25970505,60.87096604,93.84586674,57.15730242,-89.68784625
-89.91744328,46.98644735,-63.18712768,-1.27980091,-63.92102106,-94.37985217
123.44803977,7.11977055,178.04195975,127.73352470,55.54783274,79.15229006
-2.73988935,-12.11985677,-5.38223762,0.80437230,-0.22577752,3.09783310

>  <Name>
1uud_lig

>  <RI>
0

>  <Rbt.Current_Directory>
/home/itssahil/PROJECTS/Mol_Feturizer/New_Systems/rnas/1uud

>  <Rbt.Executable>
rbdock ($Id: //depot/dev/client3/rdock/2013.1/src/exe/rbdock.cxx#4 $)

>  <Rbt.Library>
libRbt.so (2013.1, Build901 2013/11/27)

>  <Rbt.Parameter_File>
/export/apps/rDock/src/rDock_2013.1_src/data/scripts/dock_solv.prm

>  <Rbt.Receptor>
prm/pocket_docking_6.prm

>  <SCORE>
-33.1927

>  <SCORE.INTER>
-25.5928

>  <SCORE.INTER.CONST>
1

>  <SCORE.INTER.POLAR>
-4.5059

>  <SCORE.INTER.ROT>
18

>  <SCORE.INTER.SOLV>
11.2492

>  <SCORE.INTER.VDW>
-21.392

>  <SCORE.INTER.norm>
-1.02371

>  <SCORE.INTRA>
-7.59987

>  <SCORE.INTRA.DIHEDRAL>
-4.26067

>  <SCORE.INTRA.DIHEDRAL.0>
30.6762

>  <SCORE.INTRA.POLAR>
-0.586837

>  <SCORE.INTRA.POLAR.0>
-0.0288659

>  <SCORE.INTRA.REPUL>
0

>  <SCORE.INTRA.REPUL.0>
0

>  <SCORE.INTRA.SOLV>
0.328546

>  <SCORE.INTRA.SOLV.lig_0>
-25.2195

>  <SCORE.INTRA.VDW>
-3.63856

>  <SCORE.INTRA.VDW.0>
4.14263

>  <SCORE.INTRA.norm>
-0.303995

>  <SCORE.RESTR>
0

>  <SCORE.RESTR.CAVITY>
0

>  <SCORE.RESTR.norm>
0

>  <SCORE.SYSTEM>
0

>  <SCORE.SYSTEM.CONST>
0

>  <SCORE.SYSTEM.DIHEDRAL>
0

>  <SCORE.SYSTEM.SOLV>
0

>  <SCORE.SYSTEM.norm>
0

>  <SCORE.heavy>
25

>  <SCORE.norm>
-1.32771

>  <RMSD>
7.301

$$$$
1uud_lig
 OpenBabel11021811413D
libRbt.so/2013.1/901 2013/11/27
 25 25  0  0  0  0  0  0  0  0999 V2000
   -3.2090  -11.2378   -3.4292 C   0  0  0  0  0  0  0  0  0  0  0  0
   -2.4543   -9.4853   -5.6567 O   0  0  0  0  0  0  0  0  0  0  0  0
   -3.5710   -8.7002   -6.1003 C   0  0  0  0  0  0  0  0  0  0  0  0
   -2.5653  -12.0308   -4.5057 N   0  0  0  0  0  0  0  0  0  0  0  0
   -4.8864   -9.3446   -5.6426 C   0  0  0  0  0  0  0  0  0  0  0  0
   -3.4369  -13.1696   -4.8802 C   0  0  0  0  0  0  0  0  0  0  0  0
   -2.8038  -13.9382   -6.0463 C   0  0  0  0  0  0  0  0  0  0  0  0
   -5.8948   -8.5585   -5.9357 N   0  0  0  0  0  0  0  0  0  0  0  0
   -6.9541   -8.4740   -5.1530 C   0  0  0  0  0  0  0  0  0  0  0  0
   -2.8174  -13.0717   -7.3102 C   0  0  0  0  0  0  0  0  0  0  0  0
   -1.9714  -13.7399   -8.3979 C   0  0  0  0  0  0  0  0  0  0  0  0
   -7.1707   -9.3716   -4.1440 N   0  0  0  0  0  0  0  0  0  0  0  0
   -7.8499   -7.4735   -5.3550 N   0  0  0  0  0  0  0  0  0  0  0  0
   -1.8035  -12.9130   -9.4025 N   0  0  0  0  0  0  0  0  0  0  0  0
   -0.6266  -12.7573   -9.9779 C   0  0  0  0  0  0  0  0  0  0  0  0
    0.4938  -13.1218   -9.3031 N   0  0  0  0  0  0  0  0  0  0  0  0
   -0.5086  -12.2285  -11.2319 N   0  0  0  0  0  0  0  0  0  0  0  0
   -2.0804   -9.1023   -4.3270 C   0  0  0  0  0  0  0  0  0  0  0  0
   -0.9947   -7.9192   -0.3682 O   0  0  0  0  0  0  0  0  0  0  0  0
   -2.4318   -9.9223   -3.2161 C   0  0  0  0  0  0  0  0  0  0  0  0
   -2.0768   -9.5221   -1.9000 C   0  0  0  0  0  0  0  0  0  0  0  0
   -1.3543   -8.3176   -1.6936 C   0  0  0  0  0  0  0  0  0  0  0  0
   -0.9864   -7.5090   -2.8025 C   0  0  0  0  0  0  0  0  0  0  0  0
   -1.3425   -7.9037   -4.1206 C   0  0  0  0  0  0  0  0  0  0  0  0
    0.1074   -8.7094    0.0872 C   0  0  0  0  0  0  0  0  0  0  0  0
  1  4  1  0  0  0  0
  2  3  1  0  0  0  0
  3  5  1  0  0  0  0
  4  6  1  0  0  0  0
  5  8  1  0  0  0  0
  6  7  1  0  0  0  0
  7 10  1  0  0  0  0
  8  9  1  0  0  0  0
  9 12  1  0  0  0  0
  9 13  1  0  0  0  0
 10 11  1  0  0  0  0
 11 14  1  0  0  0  0
 14 15  1  0  0  0  0
 15 16  1  0  0  0  0
 15 17  1  0  0  0  0
 18  2  1  0  0  0  0
 18 20  2  0  0  0  0
 18 24  1  0  0  0  0
 19 25  1  0  0  0  0
 20  1  1  0  0  0  0
 20 21  1  0  0  0  0
 21 22  2  0  0  0  0
 22 19  1  0  0  0  0
 22 23  1  0  0  0  0
 23 24  2  0  0  0  0
M  END
>  <CHROM.1>
-169.92037862,-86.13535420,173.85926405,176.81607991,-145.41736765,-67.81969538
170.14580430,-12.48182436,135.69095525,-46.53018193,-170.10155702,135.66842076
-20.09771688,106.91807066,-147.56225258,103.58706940,48.62710740,76.00455797
-2.79279061,-10.36673242,-5.30030860,-1.77773648,0.33229519,-2.10058696

>  <Name>
1uud_lig

>  <RI>
0

>  <Rbt.Current_Directory>
/home/itssahil/PROJECTS/Mol_Feturizer/New_Systems/rnas/1uud

>  <Rbt.Executable>
rbdock ($Id: //depot/dev/client3/rdock/2013.1/src/exe/rbdock.cxx#4 $)

>  <Rbt.Library>
libRbt.so (2013.1, Build901 2013/11/27)

>  <Rbt.Parameter_File>
/export/apps/rDock/src/rDock_2013.1_src/data/scripts/dock_solv.prm

>  <Rbt.Receptor>
prm/pocket_docking_8.prm

>  <SCORE>
-23.9925

>  <SCORE.INTER>
-13.2833

>  <SCORE.INTER.CONST>
1

>  <SCORE.INTER.POLAR>
-3.44465

>  <SCORE.INTER.ROT>
18

>  <SCORE.INTER.SOLV>
9.5535

>  <SCORE.INTER.VDW>
-16.1579

>  <SCORE.INTER.norm>
-0.531332

>  <SCORE.INTRA>
-10.7092

>  <SCORE.INTRA.DIHEDRAL>
-6.99785

>  <SCORE.INTRA.DIHEDRAL.0>
30.6762

>  <SCORE.INTRA.POLAR>
-0.664276

>  <SCORE.INTRA.POLAR.0>
-0.0288659

>  <SCORE.INTRA.REPUL>
0

>  <SCORE.INTRA.REPUL.0>
0

>  <SCORE.INTRA.SOLV>
-1.02875

>  <SCORE.INTRA.SOLV.lig_0>
-25.2195

>  <SCORE.INTRA.VDW>
-4.43734

>  <SCORE.INTRA.VDW.0>
4.14263

>  <SCORE.INTRA.norm>
-0.428367

>  <SCORE.RESTR>
0

>  <SCORE.RESTR.CAVITY>
0

>  <SCORE.RESTR.norm>
0

>  <SCORE.SYSTEM>
0

>  <SCORE.SYSTEM.CONST>
0

>  <SCORE.SYSTEM.DIHEDRAL>
0

>  <SCORE.SYSTEM.SOLV>
0

>  <SCORE.SYSTEM.norm>
0

>  <SCORE.heavy>
25

>  <SCORE.norm>
-0.959699

>  <RMSD>
7.303

$$$$
1uud_lig
 OpenBabel11021811413D
libRbt.so/2013.1/901 2013/11/27
 25 25  0  0  0  0  0  0  0  0999 V2000
   -3.7944  -10.8022   -3.8852 C   0  0  0  0  0  0  0  0  0  0  0  0
   -2.9597   -9.7171   -1.2913 O   0  0  0  0  0  0  0  0  0  0  0  0
   -2.7153  -10.2566    0.0161 C   0  0  0  0  0  0  0  0  0  0  0  0
   -4.3630  -10.6618   -5.2487 N   0  0  0  0  0  0  0  0  0  0  0  0
   -1.4425   -9.6413    0.6133 C   0  0  0  0  0  0  0  0  0  0  0  0
   -3.3617  -11.0851   -6.2562 C   0  0  0  0  0  0  0  0  0  0  0  0
   -3.9815  -11.0127   -7.6570 C   0  0  0  0  0  0  0  0  0  0  0  0
   -0.9805  -10.4110    1.5698 N   0  0  0  0  0  0  0  0  0  0  0  0
    0.2760  -10.8146    1.5844 C   0  0  0  0  0  0  0  0  0  0  0  0
   -2.9309  -11.3780   -8.7113 C   0  0  0  0  0  0  0  0  0  0  0  0
   -2.4790  -12.8263   -8.5031 C   0  0  0  0  0  0  0  0  0  0  0  0
    1.2777  -10.0528    1.0487 N   0  0  0  0  0  0  0  0  0  0  0  0
    0.5808  -12.0144    2.1428 N   0  0  0  0  0  0  0  0  0  0  0  0
   -3.4999  -13.6370   -8.6510 N   0  0  0  0  0  0  0  0  0  0  0  0
   -3.3450  -14.9471   -8.6538 C   0  0  0  0  0  0  0  0  0  0  0  0
   -3.4316  -15.6217   -9.8290 N   0  0  0  0  0  0  0  0  0  0  0  0
   -3.1099  -15.6414   -7.5010 N   0  0  0  0  0  0  0  0  0  0  0  0
   -4.3600   -9.7710   -1.5924 C   0  0  0  0  0  0  0  0  0  0  0  0
   -8.5359   -9.8814   -2.4868 O   0  0  0  0  0  0  0  0  0  0  0  0
   -4.8080  -10.2859   -2.8430 C   0  0  0  0  0  0  0  0  0  0  0  0
   -6.1968  -10.3135   -3.1411 C   0  0  0  0  0  0  0  0  0  0  0  0
   -7.1385   -9.8486   -2.1859 C   0  0  0  0  0  0  0  0  0  0  0  0
   -6.6938   -9.3531   -0.9306 C   0  0  0  0  0  0  0  0  0  0  0  0
   -5.3052   -9.3202   -0.6295 C   0  0  0  0  0  0  0  0  0  0  0  0
   -8.7830   -9.1567   -3.6952 C   0  0  0  0  0  0  0  0  0  0  0  0
  1  4  1  0  0  0  0
  2  3  1  0  0  0  0
  3  5  1  0  0  0  0
  4  6  1  0  0  0  0
  5  8  1  0  0  0  0
  6  7  1  0  0  0  0
  7 10  1  0  0  0  0
  8  9  1  0  0  0  0
  9 12  1  0  0  0  0
  9 13  1  0  0  0  0
 10 11  1  0  0  0  0
 11 14  1  0  0  0  0
 14 15  1  0  0  0  0
 15 16  1  0  0  0  0
 15 17  1  0  0  0  0
 18  2  1  0  0  0  0
 18 20  2  0  0  0  0
 18 24  1  0  0  0  0
 19 25  1  0  0  0  0
 20  1  1  0  0  0  0
 20 21  1  0  0  0  0
 21 22  2  0  0  0  0
 22 19  1  0  0  0  0
 22 23  1  0  0  0  0
 23 24  2  0  0  0  0
M  END
>  <CHROM.1>
176.79924152,-153.45179950,-159.61150190,176.84137794,127.96991399,177.03818906
63.04856150,30.28365514,-28.69918469,-46.46769046,61.57167152,173.09925853
-105.53284738,-42.83858179,-140.71727087,-132.13333954,-152.82729750,-56.11805270
-3.62663434,-11.19385025,-3.49976791,1.77393007,0.37152107,-1.99335038

>  <Name>
1uud_lig

>  <RI>
0

>  <Rbt.Current_Directory>
/home/itssahil/PROJECTS/Mol_Feturizer/New_Systems/rnas/1uud

>  <Rbt.Executable>
rbdock ($Id: //depot/dev/client3/rdock/2013.1/src/exe/rbdock.cxx#4 $)

>  <Rbt.Library>
libRbt.so (2013.1, Build901 2013/11/27)

>  <Rbt.Parameter_File>
/export/apps/rDock/src/rDock_2013.1_src/data/scripts/dock_solv.prm

>  <Rbt.Receptor>
prm/pocket_docking_4.prm

>  <SCORE>
-34.6954

>  <SCORE.INTER>
-29.0679

>  <SCORE.INTER.CONST>
1

>  <SCORE.INTER.POLAR>
-3.12582

>  <SCORE.INTER.ROT>
18

>  <SCORE.INTER.SOLV>
14.2787

>  <SCORE.INTER.VDW>
-29.3188

>  <SCORE.INTER.norm>
-1.16272

>  <SCORE.INTRA>
-5.64914

>  <SCORE.INTRA.DIHEDRAL>
-9.97059

>  <SCORE.INTRA.DIHEDRAL.0>
30.6762

>  <SCORE.INTRA.POLAR>
0.0288659

>  <SCORE.INTRA.POLAR.0>
-0.0288659

>  <SCORE.INTRA.REPUL>
0

>  <SCORE.INTRA.REPUL.0>
0

>  <SCORE.INTRA.SOLV>
-1.30035

>  <SCORE.INTRA.SOLV.lig_0>
-25.2195

>  <SCORE.INTRA.VDW>
-0.111819

>  <SCORE.INTRA.VDW.0>
4.14263

>  <SCORE.INTRA.norm>
-0.225966

>  <SCORE.RESTR>
0.0217133

>  <SCORE.RESTR.CAVITY>
0.0217133

>  <SCORE.RESTR.norm>
0.000868532

>  <SCORE.SYSTEM>
0

>  <SCORE.SYSTEM.CONST>
0

>  <SCORE.SYSTEM.DIHEDRAL>
0

>  <SCORE.SYSTEM.SOLV>
0

>  <SCORE.SYSTEM.norm>
0

>  <SCORE.heavy>
25

>  <SCORE.norm>
-1.38781

>  <RMSD>
7.313

$$$$
1uud_lig
 OpenBabel11021811413D
libRbt.so/2013.1/901 2013/11/27
 25 25  0  0  0  0  0  0  0  0999 V2000
   -3.8948   -8.2580    1.3539 C   0  0  0  0  0  0  0  0  0  0  0  0
   -4.6783   -6.6394   -0.9632 O   0  0  0  0  0  0  0  0  0  0  0  0
   -4.1530   -7.3769   -2.0769 C   0  0  0  0  0  0  0  0  0  0  0  0
   -3.2612   -8.8547    2.5557 N   0  0  0  0  0  0  0  0  0  0  0  0
   -5.2801   -8.1406   -2.7851 C   0  0  0  0  0  0  0  0  0  0  0  0
   -3.8243  -10.2032    2.8030 C   0  0  0  0  0  0  0  0  0  0  0  0
   -5.2101  -10.0702    3.4460 C   0  0  0  0  0  0  0  0  0  0  0  0
   -6.1902   -7.2984   -3.2132 N   0  0  0  0  0  0  0  0  0  0  0  0
   -7.4137   -7.6957   -3.5082 C   0  0  0  0  0  0  0  0  0  0  0  0
   -6.2371  -10.8750    2.6420 C   0  0  0  0  0  0  0  0  0  0  0  0
   -6.4746  -10.1958    1.2902 C   0  0  0  0  0  0  0  0  0  0  0  0
   -8.0450   -8.6664   -2.7803 N   0  0  0  0  0  0  0  0  0  0  0  0
   -8.0599   -7.1284   -4.5593 N   0  0  0  0  0  0  0  0  0  0  0  0
   -7.7141   -9.7723    1.2162 N   0  0  0  0  0  0  0  0  0  0  0  0
   -8.0625   -8.5791    1.6584 C   0  0  0  0  0  0  0  0  0  0  0  0
   -8.0096   -8.3254    2.9912 N   0  0  0  0  0  0  0  0  0  0  0  0
   -8.4848   -7.5970    0.8079 N   0  0  0  0  0  0  0  0  0  0  0  0
   -3.6074   -6.1727   -0.1326 C   0  0  0  0  0  0  0  0  0  0  0  0
   -0.4429   -4.7411    2.3548 O   0  0  0  0  0  0  0  0  0  0  0  0
   -3.1988   -6.9259    1.0057 C   0  0  0  0  0  0  0  0  0  0  0  0
   -2.1519   -6.4431    1.8359 C   0  0  0  0  0  0  0  0  0  0  0  0
   -1.4991   -5.2227    1.5199 C   0  0  0  0  0  0  0  0  0  0  0  0
   -1.8927   -4.4807    0.3738 C   0  0  0  0  0  0  0  0  0  0  0  0
   -2.9420   -4.9580   -0.4576 C   0  0  0  0  0  0  0  0  0  0  0  0
    0.8097   -4.8996    1.6823 C   0  0  0  0  0  0  0  0  0  0  0  0
  1  4  1  0  0  0  0
  2  3  1  0  0  0  0
  3  5  1  0  0  0  0
  4  6  1  0  0  0  0
  5  8  1  0  0  0  0
  6  7  1  0  0  0  0
  7 10  1  0  0  0  0
  8  9  1  0  0  0  0
  9 12  1  0  0  0  0
  9 13  1  0  0  0  0
 10 11  1  0  0  0  0
 11 14  1  0  0  0  0
 14 15  1  0  0  0  0
 15 16  1  0  0  0  0
 15 17  1  0  0  0  0
 18  2  1  0  0  0  0
 18 20  2  0  0  0  0
 18 24  1  0  0  0  0
 19 25  1  0  0  0  0
 20  1  1  0  0  0  0
 20 21  1  0  0  0  0
 21 22  2  0  0  0  0
 22 19  1  0  0  0  0
 22 23  1  0  0  0  0
 23 24  2  0  0  0  0
M  END
>  <CHROM.1>
-173.70460057,167.21577408,59.48596246,-77.33280358,-160.55028284,126.81934029
-69.86398638,36.74352858,-55.45662824,11.86630272,-115.36253169,87.77406859
-67.34610821,117.29354660,29.71602759,-94.94235288,178.52109326,107.44796864
-4.87558050,-7.60955232,0.34543361,0.16315997,0.53428583,2.03127581

>  <Name>
1uud_lig

>  <RI>
0

>  <Rbt.Current_Directory>
/home/itssahil/PROJECTS/Mol_Feturizer/New_Systems/rnas/1uud

>  <Rbt.Executable>
rbdock ($Id: //depot/dev/client3/rdock/2013.1/src/exe/rbdock.cxx#4 $)

>  <Rbt.Library>
libRbt.so (2013.1, Build901 2013/11/27)

>  <Rbt.Parameter_File>
/export/apps/rDock/src/rDock_2013.1_src/data/scripts/dock_solv.prm

>  <Rbt.Receptor>
prm/pocket_docking_7.prm

>  <SCORE>
-17.8146

>  <SCORE.INTER>
-14.7843

>  <SCORE.INTER.CONST>
1

>  <SCORE.INTER.POLAR>
-3.74765

>  <SCORE.INTER.ROT>
18

>  <SCORE.INTER.SOLV>
6.57994

>  <SCORE.INTER.VDW>
-15.1574

>  <SCORE.INTER.norm>
-0.591373

>  <SCORE.INTRA>
-3.03027

>  <SCORE.INTRA.DIHEDRAL>
1.55597

>  <SCORE.INTRA.DIHEDRAL.0>
30.6762

>  <SCORE.INTRA.POLAR>
0.0288659

>  <SCORE.INTRA.POLAR.0>
-0.0288659

>  <SCORE.INTRA.REPUL>
0

>  <SCORE.INTRA.REPUL.0>
0

>  <SCORE.INTRA.SOLV>
-0.0868991

>  <SCORE.INTRA.SOLV.lig_0>
-25.2195

>  <SCORE.INTRA.VDW>
-3.86295

>  <SCORE.INTRA.VDW.0>
4.14263

>  <SCORE.INTRA.norm>
-0.121211

>  <SCORE.RESTR>
0

>  <SCORE.RESTR.CAVITY>
0

>  <SCORE.RESTR.norm>
0

>  <SCORE.SYSTEM>
0

>  <SCORE.SYSTEM.CONST>
0

>  <SCORE.SYSTEM.DIHEDRAL>
0

>  <SCORE.SYSTEM.SOLV>
0

>  <SCORE.SYSTEM.norm>
0

>  <SCORE.heavy>
25

>  <SCORE.norm>
-0.712584

>  <RMSD>
7.313

$$$$
1uud_lig
 OpenBabel11021811413D
libRbt.so/2013.1/901 2013/11/27
 25 25  0  0  0  0  0  0  0  0999 V2000
   -3.4471  -13.1020   -6.8599 C   0  0  0  0  0  0  0  0  0  0  0  0
   -4.1154  -10.9475   -4.9853 O   0  0  0  0  0  0  0  0  0  0  0  0
   -5.5292  -10.7396   -5.1199 C   0  0  0  0  0  0  0  0  0  0  0  0
   -2.2000  -13.8713   -6.6249 N   0  0  0  0  0  0  0  0  0  0  0  0
   -5.8590   -9.2461   -4.9943 C   0  0  0  0  0  0  0  0  0  0  0  0
   -1.7595  -13.6965   -5.2206 C   0  0  0  0  0  0  0  0  0  0  0  0
   -0.4149  -14.4041   -5.0130 C   0  0  0  0  0  0  0  0  0  0  0  0
   -7.1595   -9.0740   -4.9965 N   0  0  0  0  0  0  0  0  0  0  0  0
   -7.7577   -8.3238   -4.0903 C   0  0  0  0  0  0  0  0  0  0  0  0
   -0.5524  -15.8931   -5.3485 C   0  0  0  0  0  0  0  0  0  0  0  0
    0.8006  -16.5863   -5.1639 C   0  0  0  0  0  0  0  0  0  0  0  0
   -8.0022   -8.7873   -2.8270 N   0  0  0  0  0  0  0  0  0  0  0  0
   -8.1405   -7.0633   -4.4204 N   0  0  0  0  0  0  0  0  0  0  0  0
    0.8596  -17.6567   -5.9202 N   0  0  0  0  0  0  0  0  0  0  0  0
    0.2144  -18.7624   -5.6013 C   0  0  0  0  0  0  0  0  0  0  0  0
    0.8289  -19.6848   -4.8170 N   0  0  0  0  0  0  0  0  0  0  0  0
   -1.0527  -19.0052   -6.0501 N   0  0  0  0  0  0  0  0  0  0  0  0
   -3.4493  -10.6088   -6.2085 C   0  0  0  0  0  0  0  0  0  0  0  0
   -1.4245   -9.5823   -9.8275 O   0  0  0  0  0  0  0  0  0  0  0  0
   -3.1019  -11.6255   -7.1443 C   0  0  0  0  0  0  0  0  0  0  0  0
   -2.4211  -11.2822   -8.3430 C   0  0  0  0  0  0  0  0  0  0  0  0
   -2.1061   -9.9256   -8.6183 C   0  0  0  0  0  0  0  0  0  0  0  0
   -2.4695   -8.9087   -7.6948 C   0  0  0  0  0  0  0  0  0  0  0  0
   -3.1475   -9.2480   -6.4926 C   0  0  0  0  0  0  0  0  0  0  0  0
   -0.0227   -9.8214   -9.6717 C   0  0  0  0  0  0  0  0  0  0  0  0
  1  4  1  0  0  0  0
  2  3  1  0  0  0  0
  3  5  1  0  0  0  0
  4  6  1  0  0  0  0
  5  8  1  0  0  0  0
  6  7  1  0  0  0  0
  7 10  1  0  0  0  0
  8  9  1  0  0  0  0
  9 12  1  0  0  0  0
  9 13  1  0  0  0  0
 10 11  1  0  0  0  0
 11 14  1  0  0  0  0
 14 15  1  0  0  0  0
 15 16  1  0  0  0  0
 15 17  1  0  0  0  0
 18  2  1  0  0  0  0
 18 20  2  0  0  0  0
 18 24  1  0  0  0  0
 19 25  1  0  0  0  0
 20  1  1  0  0  0  0
 20 21  1  0  0  0  0
 21 22  2  0  0  0  0
 22 19  1  0  0  0  0
 22 23  1  0  0  0  0
 23 24  2  0  0  0  0
M  END
>  <CHROM.1>
82.27878238,-78.30201395,-174.31386862,-175.66306290,131.27599845,-58.54963935
178.94214927,-78.72902995,58.56869731,46.24677339,-154.69330537,-75.48870845
-88.98298974,49.60575322,103.88769160,-97.68467782,-111.67424261,-80.79167011
-2.87070776,-12.37333844,-6.04960827,0.74306596,-0.67036397,2.59654789

>  <Name>
1uud_lig

>  <RI>
0

>  <Rbt.Current_Directory>
/home/itssahil/PROJECTS/Mol_Feturizer/New_Systems/rnas/1uud

>  <Rbt.Executable>
rbdock ($Id: //depot/dev/client3/rdock/2013.1/src/exe/rbdock.cxx#4 $)

>  <Rbt.Library>
libRbt.so (2013.1, Build901 2013/11/27)

>  <Rbt.Parameter_File>
/export/apps/rDock/src/rDock_2013.1_src/data/scripts/dock_solv.prm

>  <Rbt.Receptor>
prm/pocket_docking_8.prm

>  <SCORE>
-29.3843

>  <SCORE.INTER>
-20.9358

>  <SCORE.INTER.CONST>
1

>  <SCORE.INTER.POLAR>
-3.26408

>  <SCORE.INTER.ROT>
18

>  <SCORE.INTER.SOLV>
7.67414

>  <SCORE.INTER.VDW>
-21.2349

>  <SCORE.INTER.norm>
-0.837431

>  <SCORE.INTRA>
-8.44851

>  <SCORE.INTRA.DIHEDRAL>
-6.12307

>  <SCORE.INTRA.DIHEDRAL.0>
30.6762

>  <SCORE.INTRA.POLAR>
0.0288659

>  <SCORE.INTRA.POLAR.0>
-0.0288659

>  <SCORE.INTRA.REPUL>
0

>  <SCORE.INTRA.REPUL.0>
0

>  <SCORE.INTRA.SOLV>
-1.1971

>  <SCORE.INTRA.SOLV.lig_0>
-25.2195

>  <SCORE.INTRA.VDW>
-4.88657

>  <SCORE.INTRA.VDW.0>
4.14263

>  <SCORE.INTRA.norm>
-0.337941

>  <SCORE.RESTR>
0

>  <SCORE.RESTR.CAVITY>
0

>  <SCORE.RESTR.norm>
0

>  <SCORE.SYSTEM>
0

>  <SCORE.SYSTEM.CONST>
0

>  <SCORE.SYSTEM.DIHEDRAL>
0

>  <SCORE.SYSTEM.SOLV>
0

>  <SCORE.SYSTEM.norm>
0

>  <SCORE.heavy>
25

>  <SCORE.norm>
-1.17537

>  <RMSD>
7.316

$$$$
1uud_lig
 OpenBabel11021811413D
libRbt.so/2013.1/901 2013/11/27
 25 25  0  0  0  0  0  0  0  0999 V2000
   -3.0806   -9.8778   -2.5577 C   0  0  0  0  0  0  0  0  0  0  0  0
   -0.6985  -10.0311   -0.8534 O   0  0  0  0  0  0  0  0  0  0  0  0
   -0.6160   -9.4450    0.4542 C   0  0  0  0  0  0  0  0  0  0  0  0
   -2.6064  -11.2678   -2.7702 N   0  0  0  0  0  0  0  0  0  0  0  0
   -0.5527  -10.5437    1.5238 C   0  0  0  0  0  0  0  0  0  0  0  0
   -2.7910  -11.6498   -4.1903 C   0  0  0  0  0  0  0  0  0  0  0  0
   -2.7409  -13.1768   -4.3213 C   0  0  0  0  0  0  0  0  0  0  0  0
    0.4077  -11.3904    1.2382 N   0  0  0  0  0  0  0  0  0  0  0  0
    1.6789  -11.0443    1.3172 C   0  0  0  0  0  0  0  0  0  0  0  0
   -1.7375  -13.5739   -5.4096 C   0  0  0  0  0  0  0  0  0  0  0  0
   -1.6689  -15.1005   -5.5099 C   0  0  0  0  0  0  0  0  0  0  0  0
    2.5672  -11.7547    2.0768 N   0  0  0  0  0  0  0  0  0  0  0  0
    2.1143   -9.9572    0.6296 N   0  0  0  0  0  0  0  0  0  0  0  0
   -1.1745  -15.4485   -6.6742 N   0  0  0  0  0  0  0  0  0  0  0  0
   -1.0829  -16.7146   -7.0336 C   0  0  0  0  0  0  0  0  0  0  0  0
   -0.0631  -17.1012   -7.8425 N   0  0  0  0  0  0  0  0  0  0  0  0
   -1.9954  -17.6429   -6.6194 N   0  0  0  0  0  0  0  0  0  0  0  0
   -0.7620   -9.0034   -1.8506 C   0  0  0  0  0  0  0  0  0  0  0  0
   -0.9110   -5.9604   -4.8453 O   0  0  0  0  0  0  0  0  0  0  0  0
   -1.8987   -8.8968   -2.7029 C   0  0  0  0  0  0  0  0  0  0  0  0
   -1.9418   -7.8892   -3.7035 C   0  0  0  0  0  0  0  0  0  0  0  0
   -0.8633   -6.9762   -3.8401 C   0  0  0  0  0  0  0  0  0  0  0  0
    0.2621   -7.0695   -2.9777 C   0  0  0  0  0  0  0  0  0  0  0  0
    0.3111   -8.0782   -1.9776 C   0  0  0  0  0  0  0  0  0  0  0  0
   -1.4683   -6.5010   -6.0468 C   0  0  0  0  0  0  0  0  0  0  0  0
  1  4  1  0  0  0  0
  2  3  1  0  0  0  0
  3  5  1  0  0  0  0
  4  6  1  0  0  0  0
  5  8  1  0  0  0  0
  6  7  1  0  0  0  0
  7 10  1  0  0  0  0
  8  9  1  0  0  0  0
  9 12  1  0  0  0  0
  9 13  1  0  0  0  0
 10 11  1  0  0  0  0
 11 14  1  0  0  0  0
 14 15  1  0  0  0  0
 15 16  1  0  0  0  0
 15 17  1  0  0  0  0
 18  2  1  0  0  0  0
 18 20  2  0  0  0  0
 18 24  1  0  0  0  0
 19 25  1  0  0  0  0
 20  1  1  0  0  0  0
 20 21  1  0  0  0  0
 21 22  2  0  0  0  0
 22 19  1  0  0  0  0
 22 23  1  0  0  0  0
 23 24  2  0  0  0  0
M  END
>  <CHROM.1>
-93.55521807,179.81032789,52.49100115,-161.75974534,69.22147173,-128.51114751
178.63398989,124.97539766,-142.38922871,-52.38531925,159.83938397,-176.18656037
-148.17516563,-169.54388650,-27.46882525,-118.50274942,-59.59910418,-40.00288154
-0.82716914,-11.14409707,-2.98852771,1.12400333,-1.18430874,0.25778896

>  <Name>
1uud_lig

>  <RI>
0

>  <Rbt.Current_Directory>
/home/itssahil/PROJECTS/Mol_Feturizer/New_Systems/rnas/1uud

>  <Rbt.Executable>
rbdock ($Id: //depot/dev/client3/rdock/2013.1/src/exe/rbdock.cxx#4 $)

>  <Rbt.Library>
libRbt.so (2013.1, Build901 2013/11/27)

>  <Rbt.Parameter_File>
/export/apps/rDock/src/rDock_2013.1_src/data/scripts/dock_solv.prm

>  <Rbt.Receptor>
prm/pocket_docking_5.prm

>  <SCORE>
-33.9888

>  <SCORE.INTER>
-30.4379

>  <SCORE.INTER.CONST>
1

>  <SCORE.INTER.POLAR>
-5.61902

>  <SCORE.INTER.ROT>
18

>  <SCORE.INTER.SOLV>
10.4824

>  <SCORE.INTER.VDW>
-20.656

>  <SCORE.INTER.norm>
-1.21751

>  <SCORE.INTRA>
-3.5938

>  <SCORE.INTRA.DIHEDRAL>
-4.91121

>  <SCORE.INTRA.DIHEDRAL.0>
30.6762

>  <SCORE.INTRA.POLAR>
-0.206742

>  <SCORE.INTRA.POLAR.0>
-0.0288659

>  <SCORE.INTRA.REPUL>
0

>  <SCORE.INTRA.REPUL.0>
0

>  <SCORE.INTRA.SOLV>
-0.32687

>  <SCORE.INTRA.SOLV.lig_0>
-25.2195

>  <SCORE.INTRA.VDW>
-0.271842

>  <SCORE.INTRA.VDW.0>
4.14263

>  <SCORE.INTRA.norm>
-0.143752

>  <SCORE.RESTR>
0.0428854

>  <SCORE.RESTR.CAVITY>
0.0428854

>  <SCORE.RESTR.norm>
0.00171541

>  <SCORE.SYSTEM>
0

>  <SCORE.SYSTEM.CONST>
0

>  <SCORE.SYSTEM.DIHEDRAL>
0

>  <SCORE.SYSTEM.SOLV>
0

>  <SCORE.SYSTEM.norm>
0

>  <SCORE.heavy>
25

>  <SCORE.norm>
-1.35955

>  <RMSD>
7.324

$$$$
1uud_lig
 OpenBabel11021811413D
libRbt.so/2013.1/901 2013/11/27
 25 25  0  0  0  0  0  0  0  0999 V2000
   -1.9522   -9.9677   -1.6663 C   0  0  0  0  0  0  0  0  0  0  0  0
   -4.8784  -10.1361   -1.5580 O   0  0  0  0  0  0  0  0  0  0  0  0
   -5.9576   -9.2479   -1.8844 C   0  0  0  0  0  0  0  0  0  0  0  0
   -2.7725  -10.8638   -2.5184 N   0  0  0  0  0  0  0  0  0  0  0  0
   -6.9475   -9.9424   -2.8294 C   0  0  0  0  0  0  0  0  0  0  0  0
   -2.1411  -11.0052   -3.8519 C   0  0  0  0  0  0  0  0  0  0  0  0
   -3.1738  -10.6993   -4.9434 C   0  0  0  0  0  0  0  0  0  0  0  0
   -6.9938   -9.3049   -3.9750 N   0  0  0  0  0  0  0  0  0  0  0  0
   -8.1328   -8.8598   -4.4714 C   0  0  0  0  0  0  0  0  0  0  0  0
   -2.6482  -11.1686   -6.3044 C   0  0  0  0  0  0  0  0  0  0  0  0
   -3.7328  -10.9713   -7.3674 C   0  0  0  0  0  0  0  0  0  0  0  0
   -9.3154   -9.0222   -3.8037 N   0  0  0  0  0  0  0  0  0  0  0  0
   -8.1305   -8.2272   -5.6731 N   0  0  0  0  0  0  0  0  0  0  0  0
   -3.3623  -11.5364   -8.4920 N   0  0  0  0  0  0  0  0  0  0  0  0
   -3.5795  -12.8168   -8.7243 C   0  0  0  0  0  0  0  0  0  0  0  0
   -4.8472  -13.2975   -8.6506 N   0  0  0  0  0  0  0  0  0  0  0  0
   -2.5577  -13.6715   -9.0270 N   0  0  0  0  0  0  0  0  0  0  0  0
   -4.1770   -9.6554   -0.4040 C   0  0  0  0  0  0  0  0  0  0  0  0
   -2.1039   -8.2621    3.0617 O   0  0  0  0  0  0  0  0  0  0  0  0
   -2.7553   -9.5628   -0.4127 C   0  0  0  0  0  0  0  0  0  0  0  0
   -2.0680   -9.1072    0.7441 C   0  0  0  0  0  0  0  0  0  0  0  0
   -2.7978   -8.7243    1.9001 C   0  0  0  0  0  0  0  0  0  0  0  0
   -4.2168   -8.7977    1.9029 C   0  0  0  0  0  0  0  0  0  0  0  0
   -4.9083   -9.2564    0.7490 C   0  0  0  0  0  0  0  0  0  0  0  0
   -2.0628   -6.8322    3.0581 C   0  0  0  0  0  0  0  0  0  0  0  0
  1  4  1  0  0  0  0
  2  3  1  0  0  0  0
  3  5  1  0  0  0  0
  4  6  1  0  0  0  0
  5  8  1  0  0  0  0
  6  7  1  0  0  0  0
  7 10  1  0  0  0  0
  8  9  1  0  0  0  0
  9 12  1  0  0  0  0
  9 13  1  0  0  0  0
 10 11  1  0  0  0  0
 11 14  1  0  0  0  0
 14 15  1  0  0  0  0
 15 16  1  0  0  0  0
 15 17  1  0  0  0  0
 18  2  1  0  0  0  0
 18 20  2  0  0  0  0
 18 24  1  0  0  0  0
 19 25  1  0  0  0  0
 20  1  1  0  0  0  0
 20 21  1  0  0  0  0
 21 22  2  0  0  0  0
 22 19  1  0  0  0  0
 22 23  1  0  0  0  0
 23 24  2  0  0  0  0
M  END
>  <CHROM.1>
167.14532874,-163.36501952,-117.56542065,-128.11006960,-124.80787943,-166.16308010
175.10025262,1.12747134,48.33711210,-134.16501283,-171.36522958,85.45159613
56.34358221,30.01826917,-55.47978836,-131.32248386,-20.78290318,96.01841554
-4.28938199,-10.06599854,-3.12270932,-1.45489654,0.30971346,-1.95112752

>  <Name>
1uud_lig

>  <RI>
0

>  <Rbt.Current_Directory>
/home/itssahil/PROJECTS/Mol_Feturizer/New_Systems/rnas/1uud

>  <Rbt.Executable>
rbdock ($Id: //depot/dev/client3/rdock/2013.1/src/exe/rbdock.cxx#4 $)

>  <Rbt.Library>
libRbt.so (2013.1, Build901 2013/11/27)

>  <Rbt.Parameter_File>
/export/apps/rDock/src/rDock_2013.1_src/data/scripts/dock_solv.prm

>  <Rbt.Receptor>
prm/pocket_docking_5.prm

>  <SCORE>
-47.0348

>  <SCORE.INTER>
-41.7458

>  <SCORE.INTER.CONST>
1

>  <SCORE.INTER.POLAR>
-7.14319

>  <SCORE.INTER.ROT>
18

>  <SCORE.INTER.SOLV>
14.9294

>  <SCORE.INTER.VDW>
-24.5964

>  <SCORE.INTER.norm>
-1.66983

>  <SCORE.INTRA>
-5.28896

>  <SCORE.INTRA.DIHEDRAL>
-1.22628

>  <SCORE.INTRA.DIHEDRAL.0>
30.6762

>  <SCORE.INTRA.POLAR>
-0.543333

>  <SCORE.INTRA.POLAR.0>
-0.0288659

>  <SCORE.INTRA.REPUL>
0

>  <SCORE.INTRA.REPUL.0>
0

>  <SCORE.INTRA.SOLV>
-0.777445

>  <SCORE.INTRA.SOLV.lig_0>
-25.2195

>  <SCORE.INTRA.VDW>
-2.43977

>  <SCORE.INTRA.VDW.0>
4.14263

>  <SCORE.INTRA.norm>
-0.211558

>  <SCORE.RESTR>
0

>  <SCORE.RESTR.CAVITY>
0

>  <SCORE.RESTR.norm>
0

>  <SCORE.SYSTEM>
0

>  <SCORE.SYSTEM.CONST>
0

>  <SCORE.SYSTEM.DIHEDRAL>
0

>  <SCORE.SYSTEM.SOLV>
0

>  <SCORE.SYSTEM.norm>
0

>  <SCORE.heavy>
25

>  <SCORE.norm>
-1.88139

>  <RMSD>
7.340

$$$$
1uud_lig
 OpenBabel11021811413D
libRbt.so/2013.1/901 2013/11/27
 25 25  0  0  0  0  0  0  0  0999 V2000
   -1.9248  -10.1144    0.4208 C   0  0  0  0  0  0  0  0  0  0  0  0
   -4.3669   -9.2499   -0.9546 O   0  0  0  0  0  0  0  0  0  0  0  0
   -5.3451   -8.2661   -1.3229 C   0  0  0  0  0  0  0  0  0  0  0  0
   -2.0709  -11.1603   -0.6218 N   0  0  0  0  0  0  0  0  0  0  0  0
   -5.2692   -7.9823   -2.8292 C   0  0  0  0  0  0  0  0  0  0  0  0
   -2.0322  -10.5378   -1.9663 C   0  0  0  0  0  0  0  0  0  0  0  0
   -2.9056  -11.3480   -2.9319 C   0  0  0  0  0  0  0  0  0  0  0  0
   -6.0469   -6.9704   -3.1329 N   0  0  0  0  0  0  0  0  0  0  0  0
   -6.5345   -6.8158   -4.3496 C   0  0  0  0  0  0  0  0  0  0  0  0
   -2.4515  -11.1038   -4.3751 C   0  0  0  0  0  0  0  0  0  0  0  0
   -3.3490  -11.8914   -5.3341 C   0  0  0  0  0  0  0  0  0  0  0  0
   -5.7931   -6.2503   -5.3502 N   0  0  0  0  0  0  0  0  0  0  0  0
   -7.8018   -7.2264   -4.6133 N   0  0  0  0  0  0  0  0  0  0  0  0
   -3.0018  -11.6427   -6.5746 N   0  0  0  0  0  0  0  0  0  0  0  0
   -3.7806  -10.9492   -7.3826 C   0  0  0  0  0  0  0  0  0  0  0  0
   -5.1283  -11.0646   -7.2639 N   0  0  0  0  0  0  0  0  0  0  0  0
   -3.2628  -10.1260   -8.3420 N   0  0  0  0  0  0  0  0  0  0  0  0
   -4.4273   -9.5003    0.4555 C   0  0  0  0  0  0  0  0  0  0  0  0
   -4.6404  -10.2840    4.6496 O   0  0  0  0  0  0  0  0  0  0  0  0
   -3.2654   -9.9268    1.1611 C   0  0  0  0  0  0  0  0  0  0  0  0
   -3.3412  -10.1949    2.5542 C   0  0  0  0  0  0  0  0  0  0  0  0
   -4.5678  -10.0175    3.2467 C   0  0  0  0  0  0  0  0  0  0  0  0
   -5.7223   -9.5734    2.5476 C   0  0  0  0  0  0  0  0  0  0  0  0
   -5.6519   -9.3075    1.1532 C   0  0  0  0  0  0  0  0  0  0  0  0
   -5.3679  -11.4959    4.8701 C   0  0  0  0  0  0  0  0  0  0  0  0
  1  4  1  0  0  0  0
  2  3  1  0  0  0  0
  3  5  1  0  0  0  0
  4  6  1  0  0  0  0
  5  8  1  0  0  0  0
  6  7  1  0  0  0  0
  7 10  1  0  0  0  0
  8  9  1  0  0  0  0
  9 12  1  0  0  0  0
  9 13  1  0  0  0  0
 10 11  1  0  0  0  0
 11 14  1  0  0  0  0
 14 15  1  0  0  0  0
 15 16  1  0  0  0  0
 15 17  1  0  0  0  0
 18  2  1  0  0  0  0
 18 20  2  0  0  0  0
 18 24  1  0  0  0  0
 19 25  1  0  0  0  0
 20  1  1  0  0  0  0
 20 21  1  0  0  0  0
 21 22  2  0  0  0  0
 22 19  1  0  0  0  0
 22 23  1  0  0  0  0
 23 24  2  0  0  0  0
M  END
>  <CHROM.1>
109.29521714,179.22481742,-172.31122830,-148.68273193,-155.63730161,-156.90188463
-178.71931462,-81.59253861,179.82599420,153.69316218,177.35170570,-110.56465941
-34.11191567,57.90240933,91.30551970,-151.83288931,-61.40074882,-107.20414961
-4.33741490,-9.71169930,-1.97522496,-1.57439599,0.81688896,-1.52159724

>  <Name>
1uud_lig

>  <RI>
0

>  <Rbt.Current_Directory>
/home/itssahil/PROJECTS/Mol_Feturizer/New_Systems/rnas/1uud

>  <Rbt.Executable>
rbdock ($Id: //depot/dev/client3/rdock/2013.1/src/exe/rbdock.cxx#4 $)

>  <Rbt.Library>
libRbt.so (2013.1, Build901 2013/11/27)

>  <Rbt.Parameter_File>
/export/apps/rDock/src/rDock_2013.1_src/data/scripts/dock_solv.prm

>  <Rbt.Receptor>
prm/pocket_docking_7.prm

>  <SCORE>
-29.9404

>  <SCORE.INTER>
-23.7368

>  <SCORE.INTER.CONST>
1

>  <SCORE.INTER.POLAR>
-5.12107

>  <SCORE.INTER.ROT>
18

>  <SCORE.INTER.SOLV>
9.90995

>  <SCORE.INTER.VDW>
-17.6576

>  <SCORE.INTER.norm>
-0.949473

>  <SCORE.INTRA>
-6.20362

>  <SCORE.INTRA.DIHEDRAL>
-7.62861

>  <SCORE.INTRA.DIHEDRAL.0>
30.6762

>  <SCORE.INTRA.POLAR>
0.0288659

>  <SCORE.INTRA.POLAR.0>
-0.0288659

>  <SCORE.INTRA.REPUL>
0

>  <SCORE.INTRA.REPUL.0>
0

>  <SCORE.INTRA.SOLV>
-1.26447

>  <SCORE.INTRA.SOLV.lig_0>
-25.2195

>  <SCORE.INTRA.VDW>
-1.85522

>  <SCORE.INTRA.VDW.0>
4.14263

>  <SCORE.INTRA.norm>
-0.248145

>  <SCORE.RESTR>
0

>  <SCORE.RESTR.CAVITY>
0

>  <SCORE.RESTR.norm>
0

>  <SCORE.SYSTEM>
0

>  <SCORE.SYSTEM.CONST>
0

>  <SCORE.SYSTEM.DIHEDRAL>
0

>  <SCORE.SYSTEM.SOLV>
0

>  <SCORE.SYSTEM.norm>
0

>  <SCORE.heavy>
25

>  <SCORE.norm>
-1.19762

>  <RMSD>
7.341

$$$$
1uud_lig
 OpenBabel11021811413D
libRbt.so/2013.1/901 2013/11/27
 25 25  0  0  0  0  0  0  0  0999 V2000
   -0.9160  -10.1981   -3.4368 C   0  0  0  0  0  0  0  0  0  0  0  0
   -3.5918   -9.2287   -2.7273 O   0  0  0  0  0  0  0  0  0  0  0  0
   -4.7245  -10.0822   -2.5069 C   0  0  0  0  0  0  0  0  0  0  0  0
   -1.5970   -9.2571   -4.3603 N   0  0  0  0  0  0  0  0  0  0  0  0
   -5.7200   -9.9512   -3.6675 C   0  0  0  0  0  0  0  0  0  0  0  0
   -1.6560   -9.8429   -5.7205 C   0  0  0  0  0  0  0  0  0  0  0  0
   -2.5574   -8.9800   -6.6118 C   0  0  0  0  0  0  0  0  0  0  0  0
   -6.0450   -8.6917   -3.8374 N   0  0  0  0  0  0  0  0  0  0  0  0
   -7.0305   -8.3355   -4.6397 C   0  0  0  0  0  0  0  0  0  0  0  0
   -3.9843   -9.5390   -6.6067 C   0  0  0  0  0  0  0  0  0  0  0  0
   -4.0892  -10.6835   -7.6187 C   0  0  0  0  0  0  0  0  0  0  0  0
   -8.2677   -8.9120   -4.5516 N   0  0  0  0  0  0  0  0  0  0  0  0
   -6.8105   -7.3757   -5.5749 N   0  0  0  0  0  0  0  0  0  0  0  0
   -4.1100  -11.8343   -6.9890 N   0  0  0  0  0  0  0  0  0  0  0  0
   -3.6090  -12.9269   -7.5329 C   0  0  0  0  0  0  0  0  0  0  0  0
   -4.3070  -13.5601   -8.5103 N   0  0  0  0  0  0  0  0  0  0  0  0
   -2.4098  -13.4412   -7.1284 N   0  0  0  0  0  0  0  0  0  0  0  0
   -2.6288   -9.4084   -1.6809 C   0  0  0  0  0  0  0  0  0  0  0  0
    0.2114   -9.9790    1.4588 O   0  0  0  0  0  0  0  0  0  0  0  0
   -1.3193   -9.8824   -1.9815 C   0  0  0  0  0  0  0  0  0  0  0  0
   -0.3796  -10.0792   -0.9344 C   0  0  0  0  0  0  0  0  0  0  0  0
   -0.7377   -9.7838    0.4073 C   0  0  0  0  0  0  0  0  0  0  0  0
   -2.0371   -9.2925    0.7057 C   0  0  0  0  0  0  0  0  0  0  0  0
   -2.9816   -9.0975   -0.3383 C   0  0  0  0  0  0  0  0  0  0  0  0
    0.7110  -11.3186    1.4109 C   0  0  0  0  0  0  0  0  0  0  0  0
  1  4  1  0  0  0  0
  2  3  1  0  0  0  0
  3  5  1  0  0  0  0
  4  6  1  0  0  0  0
  5  8  1  0  0  0  0
  6  7  1  0  0  0  0
  7 10  1  0  0  0  0
  8  9  1  0  0  0  0
  9 12  1  0  0  0  0
  9 13  1  0  0  0  0
 10 11  1  0  0  0  0
 11 14  1  0  0  0  0
 14 15  1  0  0  0  0
 15 16  1  0  0  0  0
 15 17  1  0  0  0  0
 18  2  1  0  0  0  0
 18 20  2  0  0  0  0
 18 24  1  0  0  0  0
 19 25  1  0  0  0  0
 20  1  1  0  0  0  0
 20 21  1  0  0  0  0
 21 22  2  0  0  0  0
 22 19  1  0  0  0  0
 22 23  1  0  0  0  0
 23 24  2  0  0  0  0
M  END
>  <CHROM.1>
-158.11195392,-176.76103644,-54.47175704,170.68662403,-169.91621258,-94.16937786
-82.88216737,50.51653128,149.82043116,-99.03659335,104.56150104,-149.07525837
-75.75697706,-96.99592840,-5.25957177,118.47347547,33.99759017,-53.83738914
-3.27677494,-10.08391221,-3.80357181,-0.95271370,0.49624062,-2.01029713

>  <Name>
1uud_lig

>  <RI>
0

>  <Rbt.Current_Directory>
/home/itssahil/PROJECTS/Mol_Feturizer/New_Systems/rnas/1uud

>  <Rbt.Executable>
rbdock ($Id: //depot/dev/client3/rdock/2013.1/src/exe/rbdock.cxx#4 $)

>  <Rbt.Library>
libRbt.so (2013.1, Build901 2013/11/27)

>  <Rbt.Parameter_File>
/export/apps/rDock/src/rDock_2013.1_src/data/scripts/dock_solv.prm

>  <Rbt.Receptor>
prm/pocket_docking_3.prm

>  <SCORE>
-24.4518

>  <SCORE.INTER>
-16.2773

>  <SCORE.INTER.CONST>
1

>  <SCORE.INTER.POLAR>
-3.11196

>  <SCORE.INTER.ROT>
18

>  <SCORE.INTER.SOLV>
9.97361

>  <SCORE.INTER.VDW>
-19.4029

>  <SCORE.INTER.norm>
-0.651093

>  <SCORE.INTRA>
-8.25577

>  <SCORE.INTRA.DIHEDRAL>
-2.0539

>  <SCORE.INTRA.DIHEDRAL.0>
30.6762

>  <SCORE.INTRA.POLAR>
-0.866892

>  <SCORE.INTRA.POLAR.0>
-0.0288659

>  <SCORE.INTRA.REPUL>
0

>  <SCORE.INTRA.REPUL.0>
0

>  <SCORE.INTRA.SOLV>
0.0800801

>  <SCORE.INTRA.SOLV.lig_0>
-25.2195

>  <SCORE.INTRA.VDW>
-4.32142

>  <SCORE.INTRA.VDW.0>
4.14263

>  <SCORE.INTRA.norm>
-0.330231

>  <SCORE.RESTR>
0.0812491

>  <SCORE.RESTR.CAVITY>
0.0812491

>  <SCORE.RESTR.norm>
0.00324996

>  <SCORE.SYSTEM>
0

>  <SCORE.SYSTEM.CONST>
0

>  <SCORE.SYSTEM.DIHEDRAL>
0

>  <SCORE.SYSTEM.SOLV>
0

>  <SCORE.SYSTEM.norm>
0

>  <SCORE.heavy>
25

>  <SCORE.norm>
-0.978073

>  <RMSD>
7.353

$$$$
1uud_lig
 OpenBabel11021811413D
libRbt.so/2013.1/901 2013/11/27
 25 25  0  0  0  0  0  0  0  0999 V2000
   -3.1572  -10.3279   -3.0557 C   0  0  0  0  0  0  0  0  0  0  0  0
   -5.6760   -9.1122   -2.1722 O   0  0  0  0  0  0  0  0  0  0  0  0
   -6.9543   -9.7005   -1.8895 C   0  0  0  0  0  0  0  0  0  0  0  0
   -2.4222  -11.6063   -3.2215 N   0  0  0  0  0  0  0  0  0  0  0  0
   -7.9948   -9.2224   -2.9112 C   0  0  0  0  0  0  0  0  0  0  0  0
   -2.3814  -11.9797   -4.6552 C   0  0  0  0  0  0  0  0  0  0  0  0
   -1.3620  -13.1063   -4.8629 C   0  0  0  0  0  0  0  0  0  0  0  0
   -7.5427   -9.4061   -4.1288 N   0  0  0  0  0  0  0  0  0  0  0  0
   -7.1513   -8.3937   -4.8797 C   0  0  0  0  0  0  0  0  0  0  0  0
   -1.3494  -13.5329   -6.3348 C   0  0  0  0  0  0  0  0  0  0  0  0
   -2.5831  -14.3910   -6.6295 C   0  0  0  0  0  0  0  0  0  0  0  0
   -5.9402   -7.7878   -4.6877 N   0  0  0  0  0  0  0  0  0  0  0  0
   -7.9705   -7.9427   -5.8643 N   0  0  0  0  0  0  0  0  0  0  0  0
   -2.7689  -14.4737   -7.9256 N   0  0  0  0  0  0  0  0  0  0  0  0
   -3.4689  -13.5676   -8.5808 C   0  0  0  0  0  0  0  0  0  0  0  0
   -2.8164  -12.5763   -9.2405 N   0  0  0  0  0  0  0  0  0  0  0  0
   -4.8345  -13.5977   -8.6024 N   0  0  0  0  0  0  0  0  0  0  0  0
   -4.7213   -9.5079   -1.1790 C   0  0  0  0  0  0  0  0  0  0  0  0
   -1.9093  -10.7207    1.7996 O   0  0  0  0  0  0  0  0  0  0  0  0
   -3.4875  -10.1070   -1.5650 C   0  0  0  0  0  0  0  0  0  0  0  0
   -2.5580  -10.5170   -0.5719 C   0  0  0  0  0  0  0  0  0  0  0  0
   -2.8484  -10.3108    0.8023 C   0  0  0  0  0  0  0  0  0  0  0  0
   -4.0700   -9.6957    1.1874 C   0  0  0  0  0  0  0  0  0  0  0  0
   -5.0045   -9.2872    0.1975 C   0  0  0  0  0  0  0  0  0  0  0  0
   -0.5936  -10.3097    1.4166 C   0  0  0  0  0  0  0  0  0  0  0  0
  1  4  1  0  0  0  0
  2  3  1  0  0  0  0
  3  5  1  0  0  0  0
  4  6  1  0  0  0  0
  5  8  1  0  0  0  0
  6  7  1  0  0  0  0
  7 10  1  0  0  0  0
  8  9  1  0  0  0  0
  9 12  1  0  0  0  0
  9 13  1  0  0  0  0
 10 11  1  0  0  0  0
 11 14  1  0  0  0  0
 14 15  1  0  0  0  0
 15 16  1  0  0  0  0
 15 17  1  0  0  0  0
 18  2  1  0  0  0  0
 18 20  2  0  0  0  0
 18 24  1  0  0  0  0
 19 25  1  0  0  0  0
 20  1  1  0  0  0  0
 20 21  1  0  0  0  0
 21 22  2  0  0  0  0
 22 19  1  0  0  0  0
 22 23  1  0  0  0  0
 23 24  2  0  0  0  0
M  END
>  <CHROM.1>
166.82342334,177.17989350,51.45620992,167.01494575,-107.32159771,177.99987650
-76.19967590,77.25747417,-0.61192914,75.81856241,163.89864452,-87.19585883
98.57672150,42.02947854,-26.15518170,126.20123257,-143.27757999,45.44868763
-4.07539049,-10.86240786,-3.60968673,-1.66191425,0.59438584,-1.94989689

>  <Name>
1uud_lig

>  <RI>
0

>  <Rbt.Current_Directory>
/home/itssahil/PROJECTS/Mol_Feturizer/New_Systems/rnas/1uud

>  <Rbt.Executable>
rbdock ($Id: //depot/dev/client3/rdock/2013.1/src/exe/rbdock.cxx#4 $)

>  <Rbt.Library>
libRbt.so (2013.1, Build901 2013/11/27)

>  <Rbt.Parameter_File>
/export/apps/rDock/src/rDock_2013.1_src/data/scripts/dock_solv.prm

>  <Rbt.Receptor>
prm/pocket_docking_8.prm

>  <SCORE>
-46.926

>  <SCORE.INTER>
-35.5354

>  <SCORE.INTER.CONST>
1

>  <SCORE.INTER.POLAR>
-5.86285

>  <SCORE.INTER.ROT>
18

>  <SCORE.INTER.SOLV>
14.1172

>  <SCORE.INTER.VDW>
-24.4532

>  <SCORE.INTER.norm>
-1.42142

>  <SCORE.INTRA>
-11.3906

>  <SCORE.INTRA.DIHEDRAL>
-11.7004

>  <SCORE.INTRA.DIHEDRAL.0>
30.6762

>  <SCORE.INTRA.POLAR>
-0.623054

>  <SCORE.INTRA.POLAR.0>
-0.0288659

>  <SCORE.INTRA.REPUL>
0

>  <SCORE.INTRA.REPUL.0>
0

>  <SCORE.INTRA.SOLV>
-0.351135

>  <SCORE.INTRA.SOLV.lig_0>
-25.2195

>  <SCORE.INTRA.VDW>
-3.24646

>  <SCORE.INTRA.VDW.0>
4.14263

>  <SCORE.INTRA.norm>
-0.455625

>  <SCORE.RESTR>
0

>  <SCORE.RESTR.CAVITY>
0

>  <SCORE.RESTR.norm>
0

>  <SCORE.SYSTEM>
0

>  <SCORE.SYSTEM.CONST>
0

>  <SCORE.SYSTEM.DIHEDRAL>
0

>  <SCORE.SYSTEM.SOLV>
0

>  <SCORE.SYSTEM.norm>
0

>  <SCORE.heavy>
25

>  <SCORE.norm>
-1.87704

>  <RMSD>
7.355

$$$$
1uud_lig
 OpenBabel11021811413D
libRbt.so/2013.1/901 2013/11/27
 25 25  0  0  0  0  0  0  0  0999 V2000
   -3.8030   -9.2125   -2.0453 C   0  0  0  0  0  0  0  0  0  0  0  0
   -1.0228   -8.3772   -2.4636 O   0  0  0  0  0  0  0  0  0  0  0  0
   -0.7025   -8.6704   -1.0955 C   0  0  0  0  0  0  0  0  0  0  0  0
   -3.9662   -9.9122   -0.7468 N   0  0  0  0  0  0  0  0  0  0  0  0
    0.6837   -9.3226   -1.0044 C   0  0  0  0  0  0  0  0  0  0  0  0
   -4.9875   -9.2179    0.0727 C   0  0  0  0  0  0  0  0  0  0  0  0
   -6.3533   -9.3176   -0.6174 C   0  0  0  0  0  0  0  0  0  0  0  0
    0.9916   -9.5441    0.2513 N   0  0  0  0  0  0  0  0  0  0  0  0
    1.5137  -10.6917    0.6417 C   0  0  0  0  0  0  0  0  0  0  0  0
   -7.1135   -7.9960   -0.4620 C   0  0  0  0  0  0  0  0  0  0  0  0
   -7.3523   -7.3777   -1.8426 C   0  0  0  0  0  0  0  0  0  0  0  0
    2.8188  -10.7844    1.0401 N   0  0  0  0  0  0  0  0  0  0  0  0
    0.7375  -11.8060    0.6466 N   0  0  0  0  0  0  0  0  0  0  0  0
   -8.2339   -8.0902   -2.5032 N   0  0  0  0  0  0  0  0  0  0  0  0
   -8.2124   -8.1651   -3.8201 C   0  0  0  0  0  0  0  0  0  0  0  0
   -8.6382   -9.3034   -4.4257 N   0  0  0  0  0  0  0  0  0  0  0  0
   -7.7622   -7.1286   -4.5877 N   0  0  0  0  0  0  0  0  0  0  0  0
   -1.4891   -9.5605   -3.1246 C   0  0  0  0  0  0  0  0  0  0  0  0
   -2.8450  -13.1146   -5.0688 O   0  0  0  0  0  0  0  0  0  0  0  0
   -2.8309  -10.0042   -2.9444 C   0  0  0  0  0  0  0  0  0  0  0  0
   -3.2766  -11.1911   -3.5854 C   0  0  0  0  0  0  0  0  0  0  0  0
   -2.3927  -11.9226   -4.4216 C   0  0  0  0  0  0  0  0  0  0  0  0
   -1.0600  -11.4701   -4.6175 C   0  0  0  0  0  0  0  0  0  0  0  0
   -0.6088  -10.2852   -3.9753 C   0  0  0  0  0  0  0  0  0  0  0  0
   -3.1607  -12.8281   -6.4344 C   0  0  0  0  0  0  0  0  0  0  0  0
  1  4  1  0  0  0  0
  2  3  1  0  0  0  0
  3  5  1  0  0  0  0
  4  6  1  0  0  0  0
  5  8  1  0  0  0  0
  6  7  1  0  0  0  0
  7 10  1  0  0  0  0
  8  9  1  0  0  0  0
  9 12  1  0  0  0  0
  9 13  1  0  0  0  0
 10 11  1  0  0  0  0
 11 14  1  0  0  0  0
 14 15  1  0  0  0  0
 15 16  1  0  0  0  0
 15 17  1  0  0  0  0
 18  2  1  0  0  0  0
 18 20  2  0  0  0  0
 18 24  1  0  0  0  0
 19 25  1  0  0  0  0
 20  1  1  0  0  0  0
 20 21  1  0  0  0  0
 21 22  2  0  0  0  0
 22 19  1  0  0  0  0
 22 23  1  0  0  0  0
 23 24  2  0  0  0  0
M  END
>  <CHROM.1>
-175.13948000,80.32339270,177.72957981,64.73261651,134.96054219,-140.93379404
117.16874187,109.37221029,110.22194890,-164.98593179,70.26000862,-150.35662258
148.65414146,-87.47703667,50.02368391,79.51225601,-103.54054683,100.90448050
-3.18418452,-9.80989373,-2.25436624,3.01436699,0.34231096,-2.07846623

>  <Name>
1uud_lig

>  <RI>
0

>  <Rbt.Current_Directory>
/home/itssahil/PROJECTS/Mol_Feturizer/New_Systems/rnas/1uud

>  <Rbt.Executable>
rbdock ($Id: //depot/dev/client3/rdock/2013.1/src/exe/rbdock.cxx#4 $)

>  <Rbt.Library>
libRbt.so (2013.1, Build901 2013/11/27)

>  <Rbt.Parameter_File>
/export/apps/rDock/src/rDock_2013.1_src/data/scripts/dock_solv.prm

>  <Rbt.Receptor>
prm/pocket_docking_3.prm

>  <SCORE>
-31.3903

>  <SCORE.INTER>
-28.266

>  <SCORE.INTER.CONST>
1

>  <SCORE.INTER.POLAR>
-4.78776

>  <SCORE.INTER.ROT>
18

>  <SCORE.INTER.SOLV>
11.6719

>  <SCORE.INTER.VDW>
-22.3754

>  <SCORE.INTER.norm>
-1.13064

>  <SCORE.INTRA>
-3.58718

>  <SCORE.INTRA.DIHEDRAL>
1.40293

>  <SCORE.INTRA.DIHEDRAL.0>
30.6762

>  <SCORE.INTRA.POLAR>
0.0288659

>  <SCORE.INTRA.POLAR.0>
-0.0288659

>  <SCORE.INTRA.REPUL>
0

>  <SCORE.INTRA.REPUL.0>
0

>  <SCORE.INTRA.SOLV>
-1.20441

>  <SCORE.INTRA.SOLV.lig_0>
-25.2195

>  <SCORE.INTRA.VDW>
-3.78458

>  <SCORE.INTRA.VDW.0>
4.14263

>  <SCORE.INTRA.norm>
-0.143487

>  <SCORE.RESTR>
0.462827

>  <SCORE.RESTR.CAVITY>
0.462827

>  <SCORE.RESTR.norm>
0.0185131

>  <SCORE.SYSTEM>
0

>  <SCORE.SYSTEM.CONST>
0

>  <SCORE.SYSTEM.DIHEDRAL>
0

>  <SCORE.SYSTEM.SOLV>
0

>  <SCORE.SYSTEM.norm>
0

>  <SCORE.heavy>
25

>  <SCORE.norm>
-1.25561

>  <RMSD>
7.365

$$$$
1uud_lig
 OpenBabel11021811413D
libRbt.so/2013.1/901 2013/11/27
 25 25  0  0  0  0  0  0  0  0999 V2000
   -5.1896   -9.3109   -5.3469 C   0  0  0  0  0  0  0  0  0  0  0  0
   -3.6143  -10.6197   -3.2474 O   0  0  0  0  0  0  0  0  0  0  0  0
   -2.3792  -10.8426   -2.5510 C   0  0  0  0  0  0  0  0  0  0  0  0
   -4.4331   -8.0504   -5.5494 N   0  0  0  0  0  0  0  0  0  0  0  0
   -2.3900  -10.1057   -1.2049 C   0  0  0  0  0  0  0  0  0  0  0  0
   -5.2674   -6.8937   -5.1462 C   0  0  0  0  0  0  0  0  0  0  0  0
   -4.3618   -5.7305   -4.7239 C   0  0  0  0  0  0  0  0  0  0  0  0
   -1.2394  -10.2696   -0.5965 N   0  0  0  0  0  0  0  0  0  0  0  0
   -1.1110  -10.0713    0.7020 C   0  0  0  0  0  0  0  0  0  0  0  0
   -4.8120   -5.1867   -3.3637 C   0  0  0  0  0  0  0  0  0  0  0  0
   -6.0997   -4.3761   -3.5375 C   0  0  0  0  0  0  0  0  0  0  0  0
   -0.9542   -8.8157    1.2211 N   0  0  0  0  0  0  0  0  0  0  0  0
   -1.1338  -11.1385    1.5414 N   0  0  0  0  0  0  0  0  0  0  0  0
   -7.0542   -4.8929   -2.8005 N   0  0  0  0  0  0  0  0  0  0  0  0
   -7.6666   -6.0084   -3.1488 C   0  0  0  0  0  0  0  0  0  0  0  0
   -7.5736   -7.0951   -2.3401 N   0  0  0  0  0  0  0  0  0  0  0  0
   -8.3830   -6.0982   -4.3084 N   0  0  0  0  0  0  0  0  0  0  0  0
   -3.5221  -11.1225   -4.5865 C   0  0  0  0  0  0  0  0  0  0  0  0
   -3.2666  -12.6649   -8.5622 O   0  0  0  0  0  0  0  0  0  0  0  0
   -4.2746  -10.5191   -5.6352 C   0  0  0  0  0  0  0  0  0  0  0  0
   -4.1941  -11.0395   -6.9547 C   0  0  0  0  0  0  0  0  0  0  0  0
   -3.3488  -12.1457   -7.2325 C   0  0  0  0  0  0  0  0  0  0  0  0
   -2.5831  -12.7358   -6.1912 C   0  0  0  0  0  0  0  0  0  0  0  0
   -2.6632  -12.2207   -4.8689 C   0  0  0  0  0  0  0  0  0  0  0  0
   -4.0423  -13.8631   -8.6576 C   0  0  0  0  0  0  0  0  0  0  0  0
  1  4  1  0  0  0  0
  2  3  1  0  0  0  0
  3  5  1  0  0  0  0
  4  6  1  0  0  0  0
  5  8  1  0  0  0  0
  6  7  1  0  0  0  0
  7 10  1  0  0  0  0
  8  9  1  0  0  0  0
  9 12  1  0  0  0  0
  9 13  1  0  0  0  0
 10 11  1  0  0  0  0
 11 14  1  0  0  0  0
 14 15  1  0  0  0  0
 15 16  1  0  0  0  0
 15 17  1  0  0  0  0
 18  2  1  0  0  0  0
 18 20  2  0  0  0  0
 18 24  1  0  0  0  0
 19 25  1  0  0  0  0
 20  1  1  0  0  0  0
 20 21  1  0  0  0  0
 21 22  2  0  0  0  0
 22 19  1  0  0  0  0
 22 23  1  0  0  0  0
 23 24  2  0  0  0  0
M  END
>  <CHROM.1>
-174.49551988,170.67626574,-177.53460635,153.64364823,-160.68907772,-130.03363143
-74.29233684,-81.19229472,19.75199338,29.52251172,121.18422124,-75.21819880
117.63032785,-82.78097369,-132.11253534,-150.26739128,91.39617172,-102.42393197
-4.07614888,-9.22506770,-3.81389215,0.85514167,0.85024194,-2.17238296

>  <Name>
1uud_lig

>  <RI>
0

>  <Rbt.Current_Directory>
/home/itssahil/PROJECTS/Mol_Feturizer/New_Systems/rnas/1uud

>  <Rbt.Executable>
rbdock ($Id: //depot/dev/client3/rdock/2013.1/src/exe/rbdock.cxx#4 $)

>  <Rbt.Library>
libRbt.so (2013.1, Build901 2013/11/27)

>  <Rbt.Parameter_File>
/export/apps/rDock/src/rDock_2013.1_src/data/scripts/dock_solv.prm

>  <Rbt.Receptor>
prm/pocket_docking_5.prm

>  <SCORE>
-19.4825

>  <SCORE.INTER>
-16.2066

>  <SCORE.INTER.CONST>
1

>  <SCORE.INTER.POLAR>
-3.4692

>  <SCORE.INTER.ROT>
18

>  <SCORE.INTER.SOLV>
7.53257

>  <SCORE.INTER.VDW>
-17.3513

>  <SCORE.INTER.norm>
-0.648266

>  <SCORE.INTRA>
-3.27584

>  <SCORE.INTRA.DIHEDRAL>
-1.18316

>  <SCORE.INTRA.DIHEDRAL.0>
30.6762

>  <SCORE.INTRA.POLAR>
0.0288659

>  <SCORE.INTRA.POLAR.0>
-0.0288659

>  <SCORE.INTRA.REPUL>
0

>  <SCORE.INTRA.REPUL.0>
0

>  <SCORE.INTRA.SOLV>
-0.50999

>  <SCORE.INTRA.SOLV.lig_0>
-25.2195

>  <SCORE.INTRA.VDW>
-2.5274

>  <SCORE.INTRA.VDW.0>
4.14263

>  <SCORE.INTRA.norm>
-0.131033

>  <SCORE.RESTR>
0

>  <SCORE.RESTR.CAVITY>
0

>  <SCORE.RESTR.norm>
0

>  <SCORE.SYSTEM>
0

>  <SCORE.SYSTEM.CONST>
0

>  <SCORE.SYSTEM.DIHEDRAL>
0

>  <SCORE.SYSTEM.SOLV>
0

>  <SCORE.SYSTEM.norm>
0

>  <SCORE.heavy>
25

>  <SCORE.norm>
-0.779299

>  <RMSD>
7.370

$$$$
1uud_lig
 OpenBabel11021811413D
libRbt.so/2013.1/901 2013/11/27
 25 25  0  0  0  0  0  0  0  0999 V2000
   -5.7917   -9.6319   -3.4733 C   0  0  0  0  0  0  0  0  0  0  0  0
   -6.6462   -6.8850   -4.0455 O   0  0  0  0  0  0  0  0  0  0  0  0
   -7.3169   -6.4411   -2.8566 C   0  0  0  0  0  0  0  0  0  0  0  0
   -5.4561  -10.5684   -4.5744 N   0  0  0  0  0  0  0  0  0  0  0  0
   -8.8007   -6.1825   -3.1512 C   0  0  0  0  0  0  0  0  0  0  0  0
   -4.8254  -11.7897   -4.0200 C   0  0  0  0  0  0  0  0  0  0  0  0
   -3.3148  -11.5673   -3.8776 C   0  0  0  0  0  0  0  0  0  0  0  0
   -8.9189   -5.4076   -4.2031 N   0  0  0  0  0  0  0  0  0  0  0  0
   -8.6746   -4.1123   -4.1369 C   0  0  0  0  0  0  0  0  0  0  0  0
   -2.6361  -11.7088   -5.2444 C   0  0  0  0  0  0  0  0  0  0  0  0
   -2.4629  -13.1932   -5.5785 C   0  0  0  0  0  0  0  0  0  0  0  0
   -9.2317   -3.3287   -3.1641 N   0  0  0  0  0  0  0  0  0  0  0  0
   -7.8523   -3.5446   -5.0565 N   0  0  0  0  0  0  0  0  0  0  0  0
   -2.2563  -13.3388   -6.8659 N   0  0  0  0  0  0  0  0  0  0  0  0
   -3.2401  -13.6378   -7.6925 C   0  0  0  0  0  0  0  0  0  0  0  0
   -3.4220  -12.8825   -8.8061 N   0  0  0  0  0  0  0  0  0  0  0  0
   -4.0857  -14.6826   -7.4488 N   0  0  0  0  0  0  0  0  0  0  0  0
   -5.2610   -7.1275   -3.7679 C   0  0  0  0  0  0  0  0  0  0  0  0
   -1.1360   -7.8206   -2.8995 O   0  0  0  0  0  0  0  0  0  0  0  0
   -4.8047   -8.4461   -3.4798 C   0  0  0  0  0  0  0  0  0  0  0  0
   -3.4340   -8.6723   -3.1831 C   0  0  0  0  0  0  0  0  0  0  0  0
   -2.5159   -7.5895   -3.1945 C   0  0  0  0  0  0  0  0  0  0  0  0
   -2.9664   -6.2772   -3.5008 C   0  0  0  0  0  0  0  0  0  0  0  0
   -4.3376   -6.0457   -3.7948 C   0  0  0  0  0  0  0  0  0  0  0  0
   -0.9131   -7.6624   -1.4953 C   0  0  0  0  0  0  0  0  0  0  0  0
  1  4  1  0  0  0  0
  2  3  1  0  0  0  0
  3  5  1  0  0  0  0
  4  6  1  0  0  0  0
  5  8  1  0  0  0  0
  6  7  1  0  0  0  0
  7 10  1  0  0  0  0
  8  9  1  0  0  0  0
  9 12  1  0  0  0  0
  9 13  1  0  0  0  0
 10 11  1  0  0  0  0
 11 14  1  0  0  0  0
 14 15  1  0  0  0  0
 15 16  1  0  0  0  0
 15 17  1  0  0  0  0
 18  2  1  0  0  0  0
 18 20  2  0  0  0  0
 18 24  1  0  0  0  0
 19 25  1  0  0  0  0
 20  1  1  0  0  0  0
 20 21  1  0  0  0  0
 21 22  2  0  0  0  0
 22 19  1  0  0  0  0
 22 23  1  0  0  0  0
 23 24  2  0  0  0  0
M  END
>  <CHROM.1>
106.28667004,-179.93477123,-50.87960705,-86.70748138,-75.45690066,-78.09551598
-79.39639551,-49.87834160,5.15475195,22.36253501,161.69037224,-96.77951071
128.87052804,-132.92603519,-11.76714175,96.72517914,114.41999274,-90.70200006
-4.84342662,-8.76346007,-4.43114540,2.11631378,-0.38098483,0.54716261

>  <Name>
1uud_lig

>  <RI>
0

>  <Rbt.Current_Directory>
/home/itssahil/PROJECTS/Mol_Feturizer/New_Systems/rnas/1uud

>  <Rbt.Executable>
rbdock ($Id: //depot/dev/client3/rdock/2013.1/src/exe/rbdock.cxx#4 $)

>  <Rbt.Library>
libRbt.so (2013.1, Build901 2013/11/27)

>  <Rbt.Parameter_File>
/export/apps/rDock/src/rDock_2013.1_src/data/scripts/dock_solv.prm

>  <Rbt.Receptor>
prm/pocket_docking_4.prm

>  <SCORE>
-17.5217

>  <SCORE.INTER>
-11.7331

>  <SCORE.INTER.CONST>
1

>  <SCORE.INTER.POLAR>
-3.73838

>  <SCORE.INTER.ROT>
18

>  <SCORE.INTER.SOLV>
7.05794

>  <SCORE.INTER.VDW>
-13.3134

>  <SCORE.INTER.norm>
-0.469322

>  <SCORE.INTRA>
-5.78861

>  <SCORE.INTRA.DIHEDRAL>
-2.13578

>  <SCORE.INTRA.DIHEDRAL.0>
30.6762

>  <SCORE.INTRA.POLAR>
0.0288659

>  <SCORE.INTRA.POLAR.0>
-0.0288659

>  <SCORE.INTRA.REPUL>
0

>  <SCORE.INTRA.REPUL.0>
0

>  <SCORE.INTRA.SOLV>
-0.588834

>  <SCORE.INTRA.SOLV.lig_0>
-25.2195

>  <SCORE.INTRA.VDW>
-4.52445

>  <SCORE.INTRA.VDW.0>
4.14263

>  <SCORE.INTRA.norm>
-0.231544

>  <SCORE.RESTR>
0

>  <SCORE.RESTR.CAVITY>
0

>  <SCORE.RESTR.norm>
0

>  <SCORE.SYSTEM>
0

>  <SCORE.SYSTEM.CONST>
0

>  <SCORE.SYSTEM.DIHEDRAL>
0

>  <SCORE.SYSTEM.SOLV>
0

>  <SCORE.SYSTEM.norm>
0

>  <SCORE.heavy>
25

>  <SCORE.norm>
-0.700866

>  <RMSD>
7.374

$$$$
1uud_lig
 OpenBabel11021811413D
libRbt.so/2013.1/901 2013/11/27
 25 25  0  0  0  0  0  0  0  0999 V2000
   -1.6038   -9.4770   -3.1657 C   0  0  0  0  0  0  0  0  0  0  0  0
   -4.5223   -9.3649   -2.8963 O   0  0  0  0  0  0  0  0  0  0  0  0
   -5.6415  -10.2633   -2.9216 C   0  0  0  0  0  0  0  0  0  0  0  0
   -1.5239  -10.7816   -3.8685 N   0  0  0  0  0  0  0  0  0  0  0  0
   -6.8686   -9.5985   -2.2835 C   0  0  0  0  0  0  0  0  0  0  0  0
   -2.8723  -11.1851   -4.3328 C   0  0  0  0  0  0  0  0  0  0  0  0
   -2.7395  -12.1440   -5.5222 C   0  0  0  0  0  0  0  0  0  0  0  0
   -7.2418   -8.5663   -3.0020 N   0  0  0  0  0  0  0  0  0  0  0  0
   -8.4152   -8.5336   -3.6053 C   0  0  0  0  0  0  0  0  0  0  0  0
   -2.0641  -13.4436   -5.0710 C   0  0  0  0  0  0  0  0  0  0  0  0
   -1.7558  -14.3115   -6.2944 C   0  0  0  0  0  0  0  0  0  0  0  0
   -9.4154   -7.7041   -3.1784 N   0  0  0  0  0  0  0  0  0  0  0  0
   -8.6346   -9.3430   -4.6734 N   0  0  0  0  0  0  0  0  0  0  0  0
   -2.8749  -14.7043   -6.8553 N   0  0  0  0  0  0  0  0  0  0  0  0
   -3.0998  -14.5272   -8.1432 C   0  0  0  0  0  0  0  0  0  0  0  0
   -3.4354  -13.2908   -8.5930 N   0  0  0  0  0  0  0  0  0  0  0  0
   -3.0128  -15.5604   -9.0325 N   0  0  0  0  0  0  0  0  0  0  0  0
   -3.7344   -9.5930   -1.7208 C   0  0  0  0  0  0  0  0  0  0  0  0
   -1.4079  -10.3178    1.7881 O   0  0  0  0  0  0  0  0  0  0  0  0
   -2.3139   -9.6598   -1.8083 C   0  0  0  0  0  0  0  0  0  0  0  0
   -1.5433   -9.9094   -0.6412 C   0  0  0  0  0  0  0  0  0  0  0  0
   -2.1862  -10.0708    0.6143 C   0  0  0  0  0  0  0  0  0  0  0  0
   -3.6015   -9.9849    0.7057 C   0  0  0  0  0  0  0  0  0  0  0  0
   -4.3766   -9.7389   -0.4599 C   0  0  0  0  0  0  0  0  0  0  0  0
   -0.3733  -11.2590    1.4878 C   0  0  0  0  0  0  0  0  0  0  0  0
  1  4  1  0  0  0  0
  2  3  1  0  0  0  0
  3  5  1  0  0  0  0
  4  6  1  0  0  0  0
  5  8  1  0  0  0  0
  6  7  1  0  0  0  0
  7 10  1  0  0  0  0
  8  9  1  0  0  0  0
  9 12  1  0  0  0  0
  9 13  1  0  0  0  0
 10 11  1  0  0  0  0
 11 14  1  0  0  0  0
 14 15  1  0  0  0  0
 15 16  1  0  0  0  0
 15 17  1  0  0  0  0
 18  2  1  0  0  0  0
 18 20  2  0  0  0  0
 18 24  1  0  0  0  0
 19 25  1  0  0  0  0
 20  1  1  0  0  0  0
 20 21  1  0  0  0  0
 21 22  2  0  0  0  0
 22 19  1  0  0  0  0
 22 23  1  0  0  0  0
 23 24  2  0  0  0  0
M  END
>  <CHROM.1>
70.91875296,93.18451955,64.60276360,155.73277696,116.17307469,64.89540623
-172.04065474,109.37037559,122.92378555,164.90746571,-65.94432279,127.85171115
-76.40756725,-50.63413035,98.05263526,135.02909879,-86.67069882,-42.12675083
-3.85009113,-10.96297250,-3.43031399,-1.76566792,0.45601022,-2.09004226

>  <Name>
1uud_lig

>  <RI>
0

>  <Rbt.Current_Directory>
/home/itssahil/PROJECTS/Mol_Feturizer/New_Systems/rnas/1uud

>  <Rbt.Executable>
rbdock ($Id: //depot/dev/client3/rdock/2013.1/src/exe/rbdock.cxx#4 $)

>  <Rbt.Library>
libRbt.so (2013.1, Build901 2013/11/27)

>  <Rbt.Parameter_File>
/export/apps/rDock/src/rDock_2013.1_src/data/scripts/dock_solv.prm

>  <Rbt.Receptor>
prm/pocket_docking_3.prm

>  <SCORE>
-29.31

>  <SCORE.INTER>
-23.152

>  <SCORE.INTER.CONST>
1

>  <SCORE.INTER.POLAR>
-3.98326

>  <SCORE.INTER.ROT>
18

>  <SCORE.INTER.SOLV>
11.5033

>  <SCORE.INTER.VDW>
-21.5915

>  <SCORE.INTER.norm>
-0.926079

>  <SCORE.INTRA>
-6.18007

>  <SCORE.INTRA.DIHEDRAL>
-9.45986

>  <SCORE.INTRA.DIHEDRAL.0>
30.6762

>  <SCORE.INTRA.POLAR>
0.0288659

>  <SCORE.INTRA.POLAR.0>
-0.0288659

>  <SCORE.INTRA.REPUL>
0

>  <SCORE.INTRA.REPUL.0>
0

>  <SCORE.INTRA.SOLV>
-0.459241

>  <SCORE.INTRA.SOLV.lig_0>
-25.2195

>  <SCORE.INTRA.VDW>
-1.31866

>  <SCORE.INTRA.VDW.0>
4.14263

>  <SCORE.INTRA.norm>
-0.247203

>  <SCORE.RESTR>
0.0220079

>  <SCORE.RESTR.CAVITY>
0.0220079

>  <SCORE.RESTR.norm>
0.000880318

>  <SCORE.SYSTEM>
0

>  <SCORE.SYSTEM.CONST>
0

>  <SCORE.SYSTEM.DIHEDRAL>
0

>  <SCORE.SYSTEM.SOLV>
0

>  <SCORE.SYSTEM.norm>
0

>  <SCORE.heavy>
25

>  <SCORE.norm>
-1.1724

>  <RMSD>
7.375

$$$$
1uud_lig
 OpenBabel11021811413D
libRbt.so/2013.1/901 2013/11/27
 25 25  0  0  0  0  0  0  0  0999 V2000
   -2.3831  -10.3611   -3.2697 C   0  0  0  0  0  0  0  0  0  0  0  0
   -4.4926   -8.6669   -2.1373 O   0  0  0  0  0  0  0  0  0  0  0  0
   -5.5172   -9.5202   -2.6687 C   0  0  0  0  0  0  0  0  0  0  0  0
   -0.9527  -10.1101   -3.5746 N   0  0  0  0  0  0  0  0  0  0  0  0
   -6.2577   -8.8106   -3.8103 C   0  0  0  0  0  0  0  0  0  0  0  0
   -0.8137   -9.6285   -4.9693 C   0  0  0  0  0  0  0  0  0  0  0  0
   -1.2027  -10.7499   -5.9403 C   0  0  0  0  0  0  0  0  0  0  0  0
   -7.3480   -9.4730   -4.1155 N   0  0  0  0  0  0  0  0  0  0  0  0
   -8.3756   -9.5287   -3.2892 C   0  0  0  0  0  0  0  0  0  0  0  0
   -0.9985  -10.2822   -7.3854 C   0  0  0  0  0  0  0  0  0  0  0  0
   -1.6627  -11.2754   -8.3433 C   0  0  0  0  0  0  0  0  0  0  0  0
   -8.5097  -10.5443   -2.3830 N   0  0  0  0  0  0  0  0  0  0  0  0
   -9.3219   -8.5561   -3.3410 N   0  0  0  0  0  0  0  0  0  0  0  0
   -2.9615  -11.0898   -8.3471 N   0  0  0  0  0  0  0  0  0  0  0  0
   -3.7879  -11.9903   -7.8505 C   0  0  0  0  0  0  0  0  0  0  0  0
   -3.8749  -12.1378   -6.5036 N   0  0  0  0  0  0  0  0  0  0  0  0
   -4.5501  -12.7842   -8.6599 N   0  0  0  0  0  0  0  0  0  0  0  0
   -3.6527   -9.4056   -1.2409 C   0  0  0  0  0  0  0  0  0  0  0  0
   -1.1896  -11.6327    1.4468 O   0  0  0  0  0  0  0  0  0  0  0  0
   -2.6194  -10.2445   -1.7495 C   0  0  0  0  0  0  0  0  0  0  0  0
   -1.8074  -10.9904   -0.8537 C   0  0  0  0  0  0  0  0  0  0  0  0
   -2.0110  -10.8839    0.5472 C   0  0  0  0  0  0  0  0  0  0  0  0
   -3.0284  -10.0326    1.0561 C   0  0  0  0  0  0  0  0  0  0  0  0
   -3.8455   -9.2872    0.1635 C   0  0  0  0  0  0  0  0  0  0  0  0
    0.1338  -11.0896    1.4521 C   0  0  0  0  0  0  0  0  0  0  0  0
  1  4  1  0  0  0  0
  2  3  1  0  0  0  0
  3  5  1  0  0  0  0
  4  6  1  0  0  0  0
  5  8  1  0  0  0  0
  6  7  1  0  0  0  0
  7 10  1  0  0  0  0
  8  9  1  0  0  0  0
  9 12  1  0  0  0  0
  9 13  1  0  0  0  0
 10 11  1  0  0  0  0
 11 14  1  0  0  0  0
 14 15  1  0  0  0  0
 15 16  1  0  0  0  0
 15 17  1  0  0  0  0
 18  2  1  0  0  0  0
 18 20  2  0  0  0  0
 18 24  1  0  0  0  0
 19 25  1  0  0  0  0
 20  1  1  0  0  0  0
 20 21  1  0  0  0  0
 21 22  2  0  0  0  0
 22 19  1  0  0  0  0
 22 23  1  0  0  0  0
 23 24  2  0  0  0  0
M  END
>  <CHROM.1>
-155.00086671,-169.85354055,-167.67212086,-66.65617958,68.96316432,-177.33544115
-167.91193603,-92.29752003,153.65645564,-158.88230121,76.99977368,-112.08301996
73.63843044,-106.47269146,-87.57053612,80.19254231,128.19906765,70.86044618
-3.69053493,-10.37972071,-3.50011168,-1.44206130,0.20332849,-1.71307444

>  <Name>
1uud_lig

>  <RI>
0

>  <Rbt.Current_Directory>
/home/itssahil/PROJECTS/Mol_Feturizer/New_Systems/rnas/1uud

>  <Rbt.Executable>
rbdock ($Id: //depot/dev/client3/rdock/2013.1/src/exe/rbdock.cxx#4 $)

>  <Rbt.Library>
libRbt.so (2013.1, Build901 2013/11/27)

>  <Rbt.Parameter_File>
/export/apps/rDock/src/rDock_2013.1_src/data/scripts/dock_solv.prm

>  <Rbt.Receptor>
prm/pocket_docking_5.prm

>  <SCORE>
-35.1329

>  <SCORE.INTER>
-26.6548

>  <SCORE.INTER.CONST>
1

>  <SCORE.INTER.POLAR>
-3.79681

>  <SCORE.INTER.ROT>
18

>  <SCORE.INTER.SOLV>
13.911

>  <SCORE.INTER.VDW>
-25.3508

>  <SCORE.INTER.norm>
-1.06619

>  <SCORE.INTRA>
-8.47812

>  <SCORE.INTRA.DIHEDRAL>
-7.27963

>  <SCORE.INTRA.DIHEDRAL.0>
30.6762

>  <SCORE.INTRA.POLAR>
0.0288659

>  <SCORE.INTRA.POLAR.0>
-0.0288659

>  <SCORE.INTRA.REPUL>
0

>  <SCORE.INTRA.REPUL.0>
0

>  <SCORE.INTRA.SOLV>
-0.677637

>  <SCORE.INTRA.SOLV.lig_0>
-25.2195

>  <SCORE.INTRA.VDW>
-4.59763

>  <SCORE.INTRA.VDW.0>
4.14263

>  <SCORE.INTRA.norm>
-0.339125

>  <SCORE.RESTR>
0

>  <SCORE.RESTR.CAVITY>
0

>  <SCORE.RESTR.norm>
0

>  <SCORE.SYSTEM>
0

>  <SCORE.SYSTEM.CONST>
0

>  <SCORE.SYSTEM.DIHEDRAL>
0

>  <SCORE.SYSTEM.SOLV>
0

>  <SCORE.SYSTEM.norm>
0

>  <SCORE.heavy>
25

>  <SCORE.norm>
-1.40532

>  <RMSD>
7.382

$$$$
1uud_lig
 OpenBabel11021811413D
libRbt.so/2013.1/901 2013/11/27
 25 25  0  0  0  0  0  0  0  0999 V2000
   -3.9101   -9.0405   -0.3508 C   0  0  0  0  0  0  0  0  0  0  0  0
   -6.4219   -7.6057    0.1338 O   0  0  0  0  0  0  0  0  0  0  0  0
   -6.7693   -7.5044   -1.2552 C   0  0  0  0  0  0  0  0  0  0  0  0
   -2.9657   -9.1456   -1.4906 N   0  0  0  0  0  0  0  0  0  0  0  0
   -7.0910   -6.0477   -1.6155 C   0  0  0  0  0  0  0  0  0  0  0  0
   -3.1379  -10.4534   -2.1663 C   0  0  0  0  0  0  0  0  0  0  0  0
   -4.4337  -10.4403   -2.9864 C   0  0  0  0  0  0  0  0  0  0  0  0
   -6.6089   -5.7641   -2.8021 N   0  0  0  0  0  0  0  0  0  0  0  0
   -7.3897   -5.6848   -3.8632 C   0  0  0  0  0  0  0  0  0  0  0  0
   -4.1882   -9.7606   -4.3379 C   0  0  0  0  0  0  0  0  0  0  0  0
   -3.2654  -10.6359   -5.1908 C   0  0  0  0  0  0  0  0  0  0  0  0
   -7.8954   -4.4881   -4.2907 N   0  0  0  0  0  0  0  0  0  0  0  0
   -7.6990   -6.8177   -4.5452 N   0  0  0  0  0  0  0  0  0  0  0  0
   -3.2709  -10.2114   -6.4321 N   0  0  0  0  0  0  0  0  0  0  0  0
   -3.9035  -10.8710   -7.3835 C   0  0  0  0  0  0  0  0  0  0  0  0
   -5.2410  -11.0759   -7.2704 N   0  0  0  0  0  0  0  0  0  0  0  0
   -3.2427  -11.3613   -8.4740 N   0  0  0  0  0  0  0  0  0  0  0  0
   -5.1854   -6.9249    0.3830 C   0  0  0  0  0  0  0  0  0  0  0  0
   -1.5125   -4.8919    1.1746 O   0  0  0  0  0  0  0  0  0  0  0  0
   -3.9427   -7.5870    0.1657 C   0  0  0  0  0  0  0  0  0  0  0  0
   -2.7230   -6.9114    0.4378 C   0  0  0  0  0  0  0  0  0  0  0  0
   -2.7416   -5.5710    0.9054 C   0  0  0  0  0  0  0  0  0  0  0  0
   -3.9800   -4.9033    1.1039 C   0  0  0  0  0  0  0  0  0  0  0  0
   -5.2028   -5.5766    0.8363 C   0  0  0  0  0  0  0  0  0  0  0  0
   -0.7833   -5.6014    2.1804 C   0  0  0  0  0  0  0  0  0  0  0  0
  1  4  1  0  0  0  0
  2  3  1  0  0  0  0
  3  5  1  0  0  0  0
  4  6  1  0  0  0  0
  5  8  1  0  0  0  0
  6  7  1  0  0  0  0
  7 10  1  0  0  0  0
  8  9  1  0  0  0  0
  9 12  1  0  0  0  0
  9 13  1  0  0  0  0
 10 11  1  0  0  0  0
 11 14  1  0  0  0  0
 14 15  1  0  0  0  0
 15 16  1  0  0  0  0
 15 17  1  0  0  0  0
 18  2  1  0  0  0  0
 18 20  2  0  0  0  0
 18 24  1  0  0  0  0
 19 25  1  0  0  0  0
 20  1  1  0  0  0  0
 20 21  1  0  0  0  0
 21 22  2  0  0  0  0
 22 19  1  0  0  0  0
 22 23  1  0  0  0  0
 23 24  2  0  0  0  0
M  END
>  <CHROM.1>
-168.25282483,-66.76906989,140.82573634,74.24201803,103.83725022,82.10842237
68.15276174,94.96158528,-20.86298645,175.02908840,166.99395307,-106.00288051
59.44717551,-10.48624351,166.73196529,-84.53275066,131.16780185,-59.81133191
-4.55509926,-7.82370116,-2.39545427,-1.48362453,0.56404784,-2.17496507

>  <Name>
1uud_lig

>  <RI>
0

>  <Rbt.Current_Directory>
/home/itssahil/PROJECTS/Mol_Feturizer/New_Systems/rnas/1uud

>  <Rbt.Executable>
rbdock ($Id: //depot/dev/client3/rdock/2013.1/src/exe/rbdock.cxx#4 $)

>  <Rbt.Library>
libRbt.so (2013.1, Build901 2013/11/27)

>  <Rbt.Parameter_File>
/export/apps/rDock/src/rDock_2013.1_src/data/scripts/dock_solv.prm

>  <Rbt.Receptor>
prm/pocket_docking_5.prm

>  <SCORE>
-20.8424

>  <SCORE.INTER>
-14.5576

>  <SCORE.INTER.CONST>
1

>  <SCORE.INTER.POLAR>
-4.5751

>  <SCORE.INTER.ROT>
18

>  <SCORE.INTER.SOLV>
5.38941

>  <SCORE.INTER.VDW>
-11.8512

>  <SCORE.INTER.norm>
-0.582303

>  <SCORE.INTRA>
-6.29212

>  <SCORE.INTRA.DIHEDRAL>
-4.3992

>  <SCORE.INTRA.DIHEDRAL.0>
30.6762

>  <SCORE.INTRA.POLAR>
0.0288659

>  <SCORE.INTRA.POLAR.0>
-0.0288659

>  <SCORE.INTRA.REPUL>
0

>  <SCORE.INTRA.REPUL.0>
0

>  <SCORE.INTRA.SOLV>
-0.885757

>  <SCORE.INTRA.SOLV.lig_0>
-25.2195

>  <SCORE.INTRA.VDW>
-3.74778

>  <SCORE.INTRA.VDW.0>
4.14263

>  <SCORE.INTRA.norm>
-0.251685

>  <SCORE.RESTR>
0.0072479

>  <SCORE.RESTR.CAVITY>
0.0072479

>  <SCORE.RESTR.norm>
0.000289916

>  <SCORE.SYSTEM>
0

>  <SCORE.SYSTEM.CONST>
0

>  <SCORE.SYSTEM.DIHEDRAL>
0

>  <SCORE.SYSTEM.SOLV>
0

>  <SCORE.SYSTEM.norm>
0

>  <SCORE.heavy>
25

>  <SCORE.norm>
-0.833697

>  <RMSD>
7.402

$$$$
1uud_lig
 OpenBabel11021811413D
libRbt.so/2013.1/901 2013/11/27
 25 25  0  0  0  0  0  0  0  0999 V2000
   -2.4881  -12.9366   -6.1666 C   0  0  0  0  0  0  0  0  0  0  0  0
   -2.0105  -14.9450   -8.2501 O   0  0  0  0  0  0  0  0  0  0  0  0
   -1.1750  -15.4799   -7.2128 C   0  0  0  0  0  0  0  0  0  0  0  0
   -3.6944  -12.1067   -5.9254 N   0  0  0  0  0  0  0  0  0  0  0  0
   -1.4595  -16.9759   -7.0224 C   0  0  0  0  0  0  0  0  0  0  0  0
   -3.3041  -10.8272   -5.2873 C   0  0  0  0  0  0  0  0  0  0  0  0
   -4.4846   -9.8495   -5.3345 C   0  0  0  0  0  0  0  0  0  0  0  0
   -1.3202  -17.3000   -5.7590 N   0  0  0  0  0  0  0  0  0  0  0  0
   -0.1339  -17.5508   -5.2377 C   0  0  0  0  0  0  0  0  0  0  0  0
   -5.7828  -10.5823   -4.9792 C   0  0  0  0  0  0  0  0  0  0  0  0
   -6.7471   -9.6110   -4.2924 C   0  0  0  0  0  0  0  0  0  0  0  0
    0.6508  -16.5509   -4.7327 N   0  0  0  0  0  0  0  0  0  0  0  0
    0.3182  -18.8309   -5.2032 N   0  0  0  0  0  0  0  0  0  0  0  0
   -6.5236   -9.6010   -2.9996 N   0  0  0  0  0  0  0  0  0  0  0  0
   -7.5137   -9.6366   -2.1285 C   0  0  0  0  0  0  0  0  0  0  0  0
   -8.3201  -10.7282   -2.0867 N   0  0  0  0  0  0  0  0  0  0  0  0
   -7.7526   -8.5969   -1.2752 N   0  0  0  0  0  0  0  0  0  0  0  0
   -1.6528  -13.5830   -8.5172 C   0  0  0  0  0  0  0  0  0  0  0  0
   -0.6203   -9.5223   -9.3509 O   0  0  0  0  0  0  0  0  0  0  0  0
   -1.8728  -12.5751   -7.5344 C   0  0  0  0  0  0  0  0  0  0  0  0
   -1.5363  -11.2242   -7.8177 C   0  0  0  0  0  0  0  0  0  0  0  0
   -0.9618  -10.8820   -9.0700 C   0  0  0  0  0  0  0  0  0  0  0  0
   -0.7241  -11.8895  -10.0433 C   0  0  0  0  0  0  0  0  0  0  0  0
   -1.0624  -13.2417   -9.7657 C   0  0  0  0  0  0  0  0  0  0  0  0
   -1.7478   -8.6813   -9.0901 C   0  0  0  0  0  0  0  0  0  0  0  0
  1  4  1  0  0  0  0
  2  3  1  0  0  0  0
  3  5  1  0  0  0  0
  4  6  1  0  0  0  0
  5  8  1  0  0  0  0
  6  7  1  0  0  0  0
  7 10  1  0  0  0  0
  8  9  1  0  0  0  0
  9 12  1  0  0  0  0
  9 13  1  0  0  0  0
 10 11  1  0  0  0  0
 11 14  1  0  0  0  0
 14 15  1  0  0  0  0
 15 16  1  0  0  0  0
 15 17  1  0  0  0  0
 18  2  1  0  0  0  0
 18 20  2  0  0  0  0
 18 24  1  0  0  0  0
 19 25  1  0  0  0  0
 20  1  1  0  0  0  0
 20 21  1  0  0  0  0
 21 22  2  0  0  0  0
 22 19  1  0  0  0  0
 22 23  1  0  0  0  0
 23 24  2  0  0  0  0
M  END
>  <CHROM.1>
-87.42105285,-174.33821336,-146.09558992,167.01138195,-82.07779004,42.84530280
149.24256265,87.05626663,-65.20063642,45.82474009,-87.86753800,-135.72867017
63.52183982,-10.49979769,-44.29558674,-66.85970183,-124.72510859,-51.76746105
-2.92226905,-12.56454440,-6.11130350,0.32635553,-0.81254335,2.56990790

>  <Name>
1uud_lig

>  <RI>
0

>  <Rbt.Current_Directory>
/home/itssahil/PROJECTS/Mol_Feturizer/New_Systems/rnas/1uud

>  <Rbt.Executable>
rbdock ($Id: //depot/dev/client3/rdock/2013.1/src/exe/rbdock.cxx#4 $)

>  <Rbt.Library>
libRbt.so (2013.1, Build901 2013/11/27)

>  <Rbt.Parameter_File>
/export/apps/rDock/src/rDock_2013.1_src/data/scripts/dock_solv.prm

>  <Rbt.Receptor>
prm/pocket_docking_7.prm

>  <SCORE>
-26.3107

>  <SCORE.INTER>
-23.0822

>  <SCORE.INTER.CONST>
1

>  <SCORE.INTER.POLAR>
-3.75389

>  <SCORE.INTER.ROT>
18

>  <SCORE.INTER.SOLV>
8.99314

>  <SCORE.INTER.VDW>
-21.4729

>  <SCORE.INTER.norm>
-0.923288

>  <SCORE.INTRA>
-3.2285

>  <SCORE.INTRA.DIHEDRAL>
-1.1991

>  <SCORE.INTRA.DIHEDRAL.0>
30.6762

>  <SCORE.INTRA.POLAR>
0.0288659

>  <SCORE.INTRA.POLAR.0>
-0.0288659

>  <SCORE.INTRA.REPUL>
0

>  <SCORE.INTRA.REPUL.0>
0

>  <SCORE.INTRA.SOLV>
-1.11286

>  <SCORE.INTRA.SOLV.lig_0>
-25.2195

>  <SCORE.INTRA.VDW>
-2.17067

>  <SCORE.INTRA.VDW.0>
4.14263

>  <SCORE.INTRA.norm>
-0.12914

>  <SCORE.RESTR>
0

>  <SCORE.RESTR.CAVITY>
0

>  <SCORE.RESTR.norm>
0

>  <SCORE.SYSTEM>
0

>  <SCORE.SYSTEM.CONST>
0

>  <SCORE.SYSTEM.DIHEDRAL>
0

>  <SCORE.SYSTEM.SOLV>
0

>  <SCORE.SYSTEM.norm>
0

>  <SCORE.heavy>
25

>  <SCORE.norm>
-1.05243

>  <RMSD>
7.405

$$$$
1uud_lig
 OpenBabel11021811413D
libRbt.so/2013.1/901 2013/11/27
 25 25  0  0  0  0  0  0  0  0999 V2000
   -4.6913  -10.1629   -2.9532 C   0  0  0  0  0  0  0  0  0  0  0  0
   -7.0656   -9.5610   -1.3399 O   0  0  0  0  0  0  0  0  0  0  0  0
   -7.5023   -8.1971   -1.4359 C   0  0  0  0  0  0  0  0  0  0  0  0
   -3.6710  -11.1637   -3.3527 N   0  0  0  0  0  0  0  0  0  0  0  0
   -7.0703   -7.5963   -2.7804 C   0  0  0  0  0  0  0  0  0  0  0  0
   -4.0484  -11.7755   -4.6488 C   0  0  0  0  0  0  0  0  0  0  0  0
   -3.0225  -12.8510   -5.0264 C   0  0  0  0  0  0  0  0  0  0  0  0
   -7.9037   -7.9662   -3.7235 N   0  0  0  0  0  0  0  0  0  0  0  0
   -7.5416   -7.9938   -4.9924 C   0  0  0  0  0  0  0  0  0  0  0  0
   -3.2923  -13.3520   -6.4494 C   0  0  0  0  0  0  0  0  0  0  0  0
   -2.4053  -14.5657   -6.7413 C   0  0  0  0  0  0  0  0  0  0  0  0
   -6.4279   -7.3330   -5.4324 N   0  0  0  0  0  0  0  0  0  0  0  0
   -8.2930   -8.6933   -5.8814 N   0  0  0  0  0  0  0  0  0  0  0  0
   -2.6264  -14.9959   -7.9609 N   0  0  0  0  0  0  0  0  0  0  0  0
   -2.0476  -14.4349   -9.0053 C   0  0  0  0  0  0  0  0  0  0  0  0
   -2.4861  -13.2235   -9.4341 N   0  0  0  0  0  0  0  0  0  0  0  0
   -1.0248  -15.0488   -9.6709 N   0  0  0  0  0  0  0  0  0  0  0  0
   -5.7917   -9.6253   -0.6859 C   0  0  0  0  0  0  0  0  0  0  0  0
   -2.0114   -9.8557    1.2906 O   0  0  0  0  0  0  0  0  0  0  0  0
   -4.6140   -9.9200   -1.4316 C   0  0  0  0  0  0  0  0  0  0  0  0
   -3.3595  -10.0043   -0.7703 C   0  0  0  0  0  0  0  0  0  0  0  0
   -3.2759   -9.7743    0.6282 C   0  0  0  0  0  0  0  0  0  0  0  0
   -4.4470   -9.4611    1.3694 C   0  0  0  0  0  0  0  0  0  0  0  0
   -5.7047   -9.3792    0.7125 C   0  0  0  0  0  0  0  0  0  0  0  0
   -1.5073   -8.5375    1.5247 C   0  0  0  0  0  0  0  0  0  0  0  0
  1  4  1  0  0  0  0
  2  3  1  0  0  0  0
  3  5  1  0  0  0  0
  4  6  1  0  0  0  0
  5  8  1  0  0  0  0
  6  7  1  0  0  0  0
  7 10  1  0  0  0  0
  8  9  1  0  0  0  0
  9 12  1  0  0  0  0
  9 13  1  0  0  0  0
 10 11  1  0  0  0  0
 11 14  1  0  0  0  0
 14 15  1  0  0  0  0
 15 16  1  0  0  0  0
 15 17  1  0  0  0  0
 18  2  1  0  0  0  0
 18 20  2  0  0  0  0
 18 24  1  0  0  0  0
 19 25  1  0  0  0  0
 20  1  1  0  0  0  0
 20 21  1  0  0  0  0
 21 22  2  0  0  0  0
 22 19  1  0  0  0  0
 22 23  1  0  0  0  0
 23 24  2  0  0  0  0
M  END
>  <CHROM.1>
158.83272259,93.15667432,80.60458137,-177.58293703,-156.18539887,-172.18958973
-171.50610154,-16.88144030,-179.98384684,-18.65543598,-179.68403539,82.16064937
-74.46659125,-25.07835705,-31.61054663,-107.18587486,-146.64434881,101.58908375
-4.46341222,-10.64300872,-3.64601798,-1.93975095,0.63646245,-1.94172938

>  <Name>
1uud_lig

>  <RI>
0

>  <Rbt.Current_Directory>
/home/itssahil/PROJECTS/Mol_Feturizer/New_Systems/rnas/1uud

>  <Rbt.Executable>
rbdock ($Id: //depot/dev/client3/rdock/2013.1/src/exe/rbdock.cxx#4 $)

>  <Rbt.Library>
libRbt.so (2013.1, Build901 2013/11/27)

>  <Rbt.Parameter_File>
/export/apps/rDock/src/rDock_2013.1_src/data/scripts/dock_solv.prm

>  <Rbt.Receptor>
prm/pocket_docking_6.prm

>  <SCORE>
-26.687

>  <SCORE.INTER>
-20.1625

>  <SCORE.INTER.CONST>
1

>  <SCORE.INTER.POLAR>
-3.4912

>  <SCORE.INTER.ROT>
18

>  <SCORE.INTER.SOLV>
12.0138

>  <SCORE.INTER.VDW>
-21.4089

>  <SCORE.INTER.norm>
-0.806502

>  <SCORE.INTRA>
-6.52447

>  <SCORE.INTRA.DIHEDRAL>
-4.17354

>  <SCORE.INTRA.DIHEDRAL.0>
30.6762

>  <SCORE.INTRA.POLAR>
0.0288659

>  <SCORE.INTRA.POLAR.0>
-0.0288659

>  <SCORE.INTRA.REPUL>
0

>  <SCORE.INTRA.REPUL.0>
0

>  <SCORE.INTRA.SOLV>
-0.932054

>  <SCORE.INTRA.SOLV.lig_0>
-25.2195

>  <SCORE.INTRA.VDW>
-4.06982

>  <SCORE.INTRA.VDW.0>
4.14263

>  <SCORE.INTRA.norm>
-0.260979

>  <SCORE.RESTR>
0

>  <SCORE.RESTR.CAVITY>
0

>  <SCORE.RESTR.norm>
0

>  <SCORE.SYSTEM>
0

>  <SCORE.SYSTEM.CONST>
0

>  <SCORE.SYSTEM.DIHEDRAL>
0

>  <SCORE.SYSTEM.SOLV>
0

>  <SCORE.SYSTEM.norm>
0

>  <SCORE.heavy>
25

>  <SCORE.norm>
-1.06748

>  <RMSD>
7.416

$$$$
1uud_lig
 OpenBabel11021811413D
libRbt.so/2013.1/901 2013/11/27
 25 25  0  0  0  0  0  0  0  0999 V2000
   -5.7650   -8.5343    1.9609 C   0  0  0  0  0  0  0  0  0  0  0  0
   -2.8625   -8.1848    1.7245 O   0  0  0  0  0  0  0  0  0  0  0  0
   -1.8624   -8.4210    0.7224 C   0  0  0  0  0  0  0  0  0  0  0  0
   -6.1337   -9.4237    0.8316 N   0  0  0  0  0  0  0  0  0  0  0  0
   -1.0140   -9.6432    1.0989 C   0  0  0  0  0  0  0  0  0  0  0  0
   -7.2342   -8.8121    0.0495 C   0  0  0  0  0  0  0  0  0  0  0  0
   -7.4506   -9.6102   -1.2419 C   0  0  0  0  0  0  0  0  0  0  0  0
   -0.0842   -9.8375    0.1942 N   0  0  0  0  0  0  0  0  0  0  0  0
    1.0254  -10.4946    0.4752 C   0  0  0  0  0  0  0  0  0  0  0  0
   -7.8572   -8.6643   -2.3772 C   0  0  0  0  0  0  0  0  0  0  0  0
   -8.0519   -9.4669   -3.6668 C   0  0  0  0  0  0  0  0  0  0  0  0
    1.0158  -11.8389    0.7268 N   0  0  0  0  0  0  0  0  0  0  0  0
    2.2033   -9.8199    0.5169 N   0  0  0  0  0  0  0  0  0  0  0  0
   -7.9456   -8.6729   -4.7058 N   0  0  0  0  0  0  0  0  0  0  0  0
   -6.7798   -8.4364   -5.2763 C   0  0  0  0  0  0  0  0  0  0  0  0
   -6.3186   -7.1607   -5.3362 N   0  0  0  0  0  0  0  0  0  0  0  0
   -6.0313   -9.4432   -5.8169 N   0  0  0  0  0  0  0  0  0  0  0  0
   -3.7170   -7.1064    1.3228 C   0  0  0  0  0  0  0  0  0  0  0  0
   -6.2464   -3.8965    0.0780 O   0  0  0  0  0  0  0  0  0  0  0  0
   -5.1327   -7.2367    1.4163 C   0  0  0  0  0  0  0  0  0  0  0  0
   -5.9716   -6.1708    0.9937 C   0  0  0  0  0  0  0  0  0  0  0  0
   -5.3998   -4.9693    0.4989 C   0  0  0  0  0  0  0  0  0  0  0  0
   -3.9877   -4.8310    0.4234 C   0  0  0  0  0  0  0  0  0  0  0  0
   -3.1447   -5.8961    0.8418 C   0  0  0  0  0  0  0  0  0  0  0  0
   -6.6134   -4.0848   -1.2918 C   0  0  0  0  0  0  0  0  0  0  0  0
  1  4  1  0  0  0  0
  2  3  1  0  0  0  0
  3  5  1  0  0  0  0
  4  6  1  0  0  0  0
  5  8  1  0  0  0  0
  6  7  1  0  0  0  0
  7 10  1  0  0  0  0
  8  9  1  0  0  0  0
  9 12  1  0  0  0  0
  9 13  1  0  0  0  0
 10 11  1  0  0  0  0
 11 14  1  0  0  0  0
 14 15  1  0  0  0  0
 15 16  1  0  0  0  0
 15 17  1  0  0  0  0
 18  2  1  0  0  0  0
 18 20  2  0  0  0  0
 18 24  1  0  0  0  0
 19 25  1  0  0  0  0
 20  1  1  0  0  0  0
 20 21  1  0  0  0  0
 21 22  2  0  0  0  0
 22 19  1  0  0  0  0
 22 23  1  0  0  0  0
 23 24  2  0  0  0  0
M  END
>  <CHROM.1>
-67.19805119,-175.66818470,-178.68789503,170.50229687,156.56934001,-145.32211812
179.20790887,69.08654684,169.13609593,107.04302836,-158.56265787,88.60533356
-120.35822357,-102.88044266,174.75088099,132.69922370,-95.70015727,-86.62015252
-4.42096271,-8.08295352,-0.69618386,0.21228242,-0.52334399,0.86778890

>  <Name>
1uud_lig

>  <RI>
0

>  <Rbt.Current_Directory>
/home/itssahil/PROJECTS/Mol_Feturizer/New_Systems/rnas/1uud

>  <Rbt.Executable>
rbdock ($Id: //depot/dev/client3/rdock/2013.1/src/exe/rbdock.cxx#4 $)

>  <Rbt.Library>
libRbt.so (2013.1, Build901 2013/11/27)

>  <Rbt.Parameter_File>
/export/apps/rDock/src/rDock_2013.1_src/data/scripts/dock_solv.prm

>  <Rbt.Receptor>
prm/pocket_docking_8.prm

>  <SCORE>
-34.3022

>  <SCORE.INTER>
-25.8781

>  <SCORE.INTER.CONST>
1

>  <SCORE.INTER.POLAR>
-4.74177

>  <SCORE.INTER.ROT>
18

>  <SCORE.INTER.SOLV>
10.8297

>  <SCORE.INTER.VDW>
-20.6561

>  <SCORE.INTER.norm>
-1.03512

>  <SCORE.INTRA>
-8.42412

>  <SCORE.INTRA.DIHEDRAL>
-7.48701

>  <SCORE.INTRA.DIHEDRAL.0>
30.6762

>  <SCORE.INTRA.POLAR>
0.0288659

>  <SCORE.INTRA.POLAR.0>
-0.0288659

>  <SCORE.INTRA.REPUL>
0

>  <SCORE.INTRA.REPUL.0>
0

>  <SCORE.INTRA.SOLV>
-1.47794

>  <SCORE.INTRA.SOLV.lig_0>
-25.2195

>  <SCORE.INTRA.VDW>
-4.03979

>  <SCORE.INTRA.VDW.0>
4.14263

>  <SCORE.INTRA.norm>
-0.336965

>  <SCORE.RESTR>
0

>  <SCORE.RESTR.CAVITY>
0

>  <SCORE.RESTR.norm>
0

>  <SCORE.SYSTEM>
0

>  <SCORE.SYSTEM.CONST>
0

>  <SCORE.SYSTEM.DIHEDRAL>
0

>  <SCORE.SYSTEM.SOLV>
0

>  <SCORE.SYSTEM.norm>
0

>  <SCORE.heavy>
25

>  <SCORE.norm>
-1.37209

>  <RMSD>
7.423

$$$$
1uud_lig
 OpenBabel11021811413D
libRbt.so/2013.1/901 2013/11/27
 25 25  0  0  0  0  0  0  0  0999 V2000
   -2.3687   -8.7991   -3.7697 C   0  0  0  0  0  0  0  0  0  0  0  0
   -4.6295  -10.4186   -2.8379 O   0  0  0  0  0  0  0  0  0  0  0  0
   -5.8050   -9.6871   -2.4591 C   0  0  0  0  0  0  0  0  0  0  0  0
   -2.6528   -9.8778   -4.7484 N   0  0  0  0  0  0  0  0  0  0  0  0
   -6.9771  -10.0555   -3.3786 C   0  0  0  0  0  0  0  0  0  0  0  0
   -3.0050   -9.2853   -6.0605 C   0  0  0  0  0  0  0  0  0  0  0  0
   -3.3954  -10.4001   -7.0384 C   0  0  0  0  0  0  0  0  0  0  0  0
   -6.8414   -9.4559   -4.5374 N   0  0  0  0  0  0  0  0  0  0  0  0
   -7.7969   -8.6943   -5.0363 C   0  0  0  0  0  0  0  0  0  0  0  0
   -2.1469  -10.9252   -7.7556 C   0  0  0  0  0  0  0  0  0  0  0  0
   -2.5272  -12.1177   -8.6379 C   0  0  0  0  0  0  0  0  0  0  0  0
   -8.6987   -9.1806   -5.9423 N   0  0  0  0  0  0  0  0  0  0  0  0
   -7.8856   -7.3978   -4.6419 N   0  0  0  0  0  0  0  0  0  0  0  0
   -1.6511  -12.2535   -9.6050 N   0  0  0  0  0  0  0  0  0  0  0  0
   -0.6568  -13.1163   -9.5183 C   0  0  0  0  0  0  0  0  0  0  0  0
   -0.6646  -14.2177  -10.3123 N   0  0  0  0  0  0  0  0  0  0  0  0
    0.3745  -12.9324   -8.6416 N   0  0  0  0  0  0  0  0  0  0  0  0
   -3.5616  -10.1428   -1.9225 C   0  0  0  0  0  0  0  0  0  0  0  0
   -0.3687   -9.3701    0.8085 O   0  0  0  0  0  0  0  0  0  0  0  0
   -2.4421   -9.3645   -2.3361 C   0  0  0  0  0  0  0  0  0  0  0  0
   -1.3779   -9.1163   -1.4284 C   0  0  0  0  0  0  0  0  0  0  0  0
   -1.4393   -9.6248   -0.1044 C   0  0  0  0  0  0  0  0  0  0  0  0
   -2.5644  -10.3846    0.3150 C   0  0  0  0  0  0  0  0  0  0  0  0
   -3.6298  -10.6384   -0.5909 C   0  0  0  0  0  0  0  0  0  0  0  0
    0.8468   -9.9135    0.2852 C   0  0  0  0  0  0  0  0  0  0  0  0
  1  4  1  0  0  0  0
  2  3  1  0  0  0  0
  3  5  1  0  0  0  0
  4  6  1  0  0  0  0
  5  8  1  0  0  0  0
  6  7  1  0  0  0  0
  7 10  1  0  0  0  0
  8  9  1  0  0  0  0
  9 12  1  0  0  0  0
  9 13  1  0  0  0  0
 10 11  1  0  0  0  0
 11 14  1  0  0  0  0
 14 15  1  0  0  0  0
 15 16  1  0  0  0  0
 15 17  1  0  0  0  0
 18  2  1  0  0  0  0
 18 20  2  0  0  0  0
 18 24  1  0  0  0  0
 19 25  1  0  0  0  0
 20  1  1  0  0  0  0
 20 21  1  0  0  0  0
 21 22  2  0  0  0  0
 22 19  1  0  0  0  0
 22 23  1  0  0  0  0
 23 24  2  0  0  0  0
M  END
>  <CHROM.1>
162.24488056,-176.06064706,-76.73981517,-175.94619975,-125.27471796,-88.06307296
175.10255463,-96.41733192,-80.54164471,-70.07391531,156.16877861,97.65756320
110.14251489,-63.12630365,72.74180063,-109.32013749,-49.46737965,-59.93052848
-3.28959248,-10.31520720,-4.49885643,-1.78835066,0.31536645,-1.86377824

>  <Name>
1uud_lig

>  <RI>
0

>  <Rbt.Current_Directory>
/home/itssahil/PROJECTS/Mol_Feturizer/New_Systems/rnas/1uud

>  <Rbt.Executable>
rbdock ($Id: //depot/dev/client3/rdock/2013.1/src/exe/rbdock.cxx#4 $)

>  <Rbt.Library>
libRbt.so (2013.1, Build901 2013/11/27)

>  <Rbt.Parameter_File>
/export/apps/rDock/src/rDock_2013.1_src/data/scripts/dock_solv.prm

>  <Rbt.Receptor>
prm/pocket_docking_5.prm

>  <SCORE>
-28.9802

>  <SCORE.INTER>
-17.1592

>  <SCORE.INTER.CONST>
1

>  <SCORE.INTER.POLAR>
-3.32579

>  <SCORE.INTER.ROT>
18

>  <SCORE.INTER.SOLV>
9.72868

>  <SCORE.INTER.VDW>
-19.1964

>  <SCORE.INTER.norm>
-0.68637

>  <SCORE.INTRA>
-11.821

>  <SCORE.INTRA.DIHEDRAL>
-6.18265

>  <SCORE.INTRA.DIHEDRAL.0>
30.6762

>  <SCORE.INTRA.POLAR>
-0.682788

>  <SCORE.INTRA.POLAR.0>
-0.0288659

>  <SCORE.INTRA.REPUL>
0

>  <SCORE.INTRA.REPUL.0>
0

>  <SCORE.INTRA.SOLV>
-0.656791

>  <SCORE.INTRA.SOLV.lig_0>
-25.2195

>  <SCORE.INTRA.VDW>
-6.07978

>  <SCORE.INTRA.VDW.0>
4.14263

>  <SCORE.INTRA.norm>
-0.472839

>  <SCORE.RESTR>
0

>  <SCORE.RESTR.CAVITY>
0

>  <SCORE.RESTR.norm>
0

>  <SCORE.SYSTEM>
0

>  <SCORE.SYSTEM.CONST>
0

>  <SCORE.SYSTEM.DIHEDRAL>
0

>  <SCORE.SYSTEM.SOLV>
0

>  <SCORE.SYSTEM.norm>
0

>  <SCORE.heavy>
25

>  <SCORE.norm>
-1.15921

>  <RMSD>
7.437

$$$$
1uud_lig
 OpenBabel11021811413D
libRbt.so/2013.1/901 2013/11/27
 25 25  0  0  0  0  0  0  0  0999 V2000
   -1.7927   -9.3277   -3.2364 C   0  0  0  0  0  0  0  0  0  0  0  0
   -4.5374   -9.8859   -2.3662 O   0  0  0  0  0  0  0  0  0  0  0  0
   -5.6427   -9.1147   -1.8723 C   0  0  0  0  0  0  0  0  0  0  0  0
   -0.7097  -10.2238   -3.7122 N   0  0  0  0  0  0  0  0  0  0  0  0
   -6.1396   -8.1478   -2.9554 C   0  0  0  0  0  0  0  0  0  0  0  0
   -0.8323  -10.4265   -5.1753 C   0  0  0  0  0  0  0  0  0  0  0  0
   -2.0563  -11.3016   -5.4711 C   0  0  0  0  0  0  0  0  0  0  0  0
   -6.7542   -8.8155   -3.9026 N   0  0  0  0  0  0  0  0  0  0  0  0
   -6.7377   -8.4064   -5.1574 C   0  0  0  0  0  0  0  0  0  0  0  0
   -2.1097  -11.6349   -6.9660 C   0  0  0  0  0  0  0  0  0  0  0  0
   -3.4292  -12.3436   -7.2854 C   0  0  0  0  0  0  0  0  0  0  0  0
   -5.5628   -8.1914   -5.8237 N   0  0  0  0  0  0  0  0  0  0  0  0
   -7.9144   -8.1927   -5.8008 N   0  0  0  0  0  0  0  0  0  0  0  0
   -3.2439  -13.6423   -7.3049 N   0  0  0  0  0  0  0  0  0  0  0  0
   -3.2414  -14.3214   -8.4360 C   0  0  0  0  0  0  0  0  0  0  0  0
   -2.1754  -14.2147   -9.2701 N   0  0  0  0  0  0  0  0  0  0  0  0
   -4.2904  -15.1208   -8.7918 N   0  0  0  0  0  0  0  0  0  0  0  0
   -3.4885   -9.9241   -1.3901 C   0  0  0  0  0  0  0  0  0  0  0  0
   -0.3717  -10.0869    1.5270 O   0  0  0  0  0  0  0  0  0  0  0  0
   -2.1406   -9.6642   -1.7715 C   0  0  0  0  0  0  0  0  0  0  0  0
   -1.1050   -9.7274   -0.8010 C   0  0  0  0  0  0  0  0  0  0  0  0
   -1.4153  -10.0280    0.5514 C   0  0  0  0  0  0  0  0  0  0  0  0
   -2.7618  -10.2681    0.9365 C   0  0  0  0  0  0  0  0  0  0  0  0
   -3.8005  -10.2094   -0.0318 C   0  0  0  0  0  0  0  0  0  0  0  0
    0.6064  -11.0503    1.1249 C   0  0  0  0  0  0  0  0  0  0  0  0
  1  4  1  0  0  0  0
  2  3  1  0  0  0  0
  3  5  1  0  0  0  0
  4  6  1  0  0  0  0
  5  8  1  0  0  0  0
  6  7  1  0  0  0  0
  7 10  1  0  0  0  0
  8  9  1  0  0  0  0
  9 12  1  0  0  0  0
  9 13  1  0  0  0  0
 10 11  1  0  0  0  0
 11 14  1  0  0  0  0
 14 15  1  0  0  0  0
 15 16  1  0  0  0  0
 15 17  1  0  0  0  0
 18  2  1  0  0  0  0
 18 20  2  0  0  0  0
 18 24  1  0  0  0  0
 19 25  1  0  0  0  0
 20  1  1  0  0  0  0
 20 21  1  0  0  0  0
 21 22  2  0  0  0  0
 22 19  1  0  0  0  0
 22 23  1  0  0  0  0
 23 24  2  0  0  0  0
M  END
>  <CHROM.1>
150.98823852,134.32069805,71.59121368,-70.95661901,-148.61414845,-174.25081193
-172.32761920,56.24319018,12.06689649,23.08058614,-97.22090471,-107.26556609
73.40543148,-4.79157055,-146.56648371,-132.64935095,-127.60269632,-57.23864279
-3.29011382,-10.60386272,-3.84104748,-1.33323902,0.54048031,-2.06095852

>  <Name>
1uud_lig

>  <RI>
0

>  <Rbt.Current_Directory>
/home/itssahil/PROJECTS/Mol_Feturizer/New_Systems/rnas/1uud

>  <Rbt.Executable>
rbdock ($Id: //depot/dev/client3/rdock/2013.1/src/exe/rbdock.cxx#4 $)

>  <Rbt.Library>
libRbt.so (2013.1, Build901 2013/11/27)

>  <Rbt.Parameter_File>
/export/apps/rDock/src/rDock_2013.1_src/data/scripts/dock_solv.prm

>  <Rbt.Receptor>
prm/pocket_docking_5.prm

>  <SCORE>
-34.9437

>  <SCORE.INTER>
-30.8803

>  <SCORE.INTER.CONST>
1

>  <SCORE.INTER.POLAR>
-5.87325

>  <SCORE.INTER.ROT>
18

>  <SCORE.INTER.SOLV>
12.801

>  <SCORE.INTER.VDW>
-20.8763

>  <SCORE.INTER.norm>
-1.23521

>  <SCORE.INTRA>
-4.06345

>  <SCORE.INTRA.DIHEDRAL>
-1.52588

>  <SCORE.INTRA.DIHEDRAL.0>
30.6762

>  <SCORE.INTRA.POLAR>
0.0288659

>  <SCORE.INTRA.POLAR.0>
-0.0288659

>  <SCORE.INTRA.REPUL>
0

>  <SCORE.INTRA.REPUL.0>
0

>  <SCORE.INTRA.SOLV>
-1.08198

>  <SCORE.INTRA.SOLV.lig_0>
-25.2195

>  <SCORE.INTRA.VDW>
-2.85767

>  <SCORE.INTRA.VDW.0>
4.14263

>  <SCORE.INTRA.norm>
-0.162538

>  <SCORE.RESTR>
0

>  <SCORE.RESTR.CAVITY>
0

>  <SCORE.RESTR.norm>
0

>  <SCORE.SYSTEM>
0

>  <SCORE.SYSTEM.CONST>
0

>  <SCORE.SYSTEM.DIHEDRAL>
0

>  <SCORE.SYSTEM.SOLV>
0

>  <SCORE.SYSTEM.norm>
0

>  <SCORE.heavy>
25

>  <SCORE.norm>
-1.39775

>  <RMSD>
7.445

$$$$
1uud_lig
 OpenBabel11021811413D
libRbt.so/2013.1/901 2013/11/27
 25 25  0  0  0  0  0  0  0  0999 V2000
   -7.2619   -7.2710   -4.7748 C   0  0  0  0  0  0  0  0  0  0  0  0
   -8.2707   -6.0142   -2.3242 O   0  0  0  0  0  0  0  0  0  0  0  0
   -9.3436   -5.9471   -3.2753 C   0  0  0  0  0  0  0  0  0  0  0  0
   -6.2803   -8.1035   -5.5135 N   0  0  0  0  0  0  0  0  0  0  0  0
   -9.6117   -4.4882   -3.6689 C   0  0  0  0  0  0  0  0  0  0  0  0
   -6.5840   -9.5395   -5.3071 C   0  0  0  0  0  0  0  0  0  0  0  0
   -6.1974   -9.9454   -3.8797 C   0  0  0  0  0  0  0  0  0  0  0  0
  -10.2263   -4.4436   -4.8270 N   0  0  0  0  0  0  0  0  0  0  0  0
  -10.8403   -3.3509   -5.2406 C   0  0  0  0  0  0  0  0  0  0  0  0
   -4.7272  -10.3762   -3.8405 C   0  0  0  0  0  0  0  0  0  0  0  0
   -4.5837  -11.7643   -4.4713 C   0  0  0  0  0  0  0  0  0  0  0  0
  -10.8778   -3.0099   -6.5646 N   0  0  0  0  0  0  0  0  0  0  0  0
  -11.4475   -2.5464   -4.3305 N   0  0  0  0  0  0  0  0  0  0  0  0
   -3.4860  -12.3385   -4.0394 N   0  0  0  0  0  0  0  0  0  0  0  0
   -2.5582  -12.7673   -4.8735 C   0  0  0  0  0  0  0  0  0  0  0  0
   -1.3187  -12.2149   -4.8262 N   0  0  0  0  0  0  0  0  0  0  0  0
   -2.8184  -13.7462   -5.7900 N   0  0  0  0  0  0  0  0  0  0  0  0
   -7.0636   -5.5066   -2.9071 C   0  0  0  0  0  0  0  0  0  0  0  0
   -3.4405   -4.0071   -4.6026 O   0  0  0  0  0  0  0  0  0  0  0  0
   -6.5363   -6.0917   -4.0944 C   0  0  0  0  0  0  0  0  0  0  0  0
   -5.3268   -5.5964   -4.6512 C   0  0  0  0  0  0  0  0  0  0  0  0
   -4.6555   -4.5062   -4.0378 C   0  0  0  0  0  0  0  0  0  0  0  0
   -5.1910   -3.9095   -2.8647 C   0  0  0  0  0  0  0  0  0  0  0  0
   -6.3989   -4.4040   -2.3021 C   0  0  0  0  0  0  0  0  0  0  0  0
   -2.3727   -4.9172   -4.3231 C   0  0  0  0  0  0  0  0  0  0  0  0
  1  4  1  0  0  0  0
  2  3  1  0  0  0  0
  3  5  1  0  0  0  0
  4  6  1  0  0  0  0
  5  8  1  0  0  0  0
  6  7  1  0  0  0  0
  7 10  1  0  0  0  0
  8  9  1  0  0  0  0
  9 12  1  0  0  0  0
  9 13  1  0  0  0  0
 10 11  1  0  0  0  0
 11 14  1  0  0  0  0
 14 15  1  0  0  0  0
 15 16  1  0  0  0  0
 15 17  1  0  0  0  0
 18  2  1  0  0  0  0
 18 20  2  0  0  0  0
 18 24  1  0  0  0  0
 19 25  1  0  0  0  0
 20  1  1  0  0  0  0
 20 21  1  0  0  0  0
 21 22  2  0  0  0  0
 22 19  1  0  0  0  0
 22 23  1  0  0  0  0
 23 24  2  0  0  0  0
M  END
>  <CHROM.1>
138.29471191,-62.11450194,158.17528657,-72.85516759,164.03295397,-87.77984568
-74.72770417,146.02570199,42.41026313,125.67634858,-157.77968241,-123.57531126
117.38474670,25.88486713,126.00326157,-57.97112664,-152.38675353,-74.47861761
-6.29418837,-7.11831054,-4.33413032,2.23140502,-0.10881934,0.12983849

>  <Name>
1uud_lig

>  <RI>
0

>  <Rbt.Current_Directory>
/home/itssahil/PROJECTS/Mol_Feturizer/New_Systems/rnas/1uud

>  <Rbt.Executable>
rbdock ($Id: //depot/dev/client3/rdock/2013.1/src/exe/rbdock.cxx#4 $)

>  <Rbt.Library>
libRbt.so (2013.1, Build901 2013/11/27)

>  <Rbt.Parameter_File>
/export/apps/rDock/src/rDock_2013.1_src/data/scripts/dock_solv.prm

>  <Rbt.Receptor>
prm/pocket_docking_5.prm

>  <SCORE>
-11.9489

>  <SCORE.INTER>
-10.2604

>  <SCORE.INTER.CONST>
1

>  <SCORE.INTER.POLAR>
-3.26777

>  <SCORE.INTER.ROT>
18

>  <SCORE.INTER.SOLV>
6.42322

>  <SCORE.INTER.VDW>
-13.6888

>  <SCORE.INTER.norm>
-0.410418

>  <SCORE.INTRA>
-1.68845

>  <SCORE.INTRA.DIHEDRAL>
-2.61122

>  <SCORE.INTRA.DIHEDRAL.0>
30.6762

>  <SCORE.INTRA.POLAR>
0.0288659

>  <SCORE.INTRA.POLAR.0>
-0.0288659

>  <SCORE.INTRA.REPUL>
0

>  <SCORE.INTRA.REPUL.0>
0

>  <SCORE.INTRA.SOLV>
-1.25862

>  <SCORE.INTRA.SOLV.lig_0>
-25.2195

>  <SCORE.INTRA.VDW>
0.14833

>  <SCORE.INTRA.VDW.0>
4.14263

>  <SCORE.INTRA.norm>
-0.0675378

>  <SCORE.RESTR>
0

>  <SCORE.RESTR.CAVITY>
0

>  <SCORE.RESTR.norm>
0

>  <SCORE.SYSTEM>
0

>  <SCORE.SYSTEM.CONST>
0

>  <SCORE.SYSTEM.DIHEDRAL>
0

>  <SCORE.SYSTEM.SOLV>
0

>  <SCORE.SYSTEM.norm>
0

>  <SCORE.heavy>
25

>  <SCORE.norm>
-0.477956

>  <RMSD>
7.454

$$$$
1uud_lig
 OpenBabel11021811413D
libRbt.so/2013.1/901 2013/11/27
 25 25  0  0  0  0  0  0  0  0999 V2000
   -1.5627   -8.1648   -7.2164 C   0  0  0  0  0  0  0  0  0  0  0  0
   -0.7626   -9.4134   -4.6859 O   0  0  0  0  0  0  0  0  0  0  0  0
   -1.5836   -9.6504   -3.5326 C   0  0  0  0  0  0  0  0  0  0  0  0
   -2.9513   -7.6695   -7.3854 N   0  0  0  0  0  0  0  0  0  0  0  0
   -0.7994   -9.3377   -2.2511 C   0  0  0  0  0  0  0  0  0  0  0  0
   -3.6627   -7.7164   -6.0860 C   0  0  0  0  0  0  0  0  0  0  0  0
   -4.6510   -8.8890   -6.0845 C   0  0  0  0  0  0  0  0  0  0  0  0
   -0.7563  -10.4003   -1.4831 N   0  0  0  0  0  0  0  0  0  0  0  0
   -0.7005  -10.2996   -0.1683 C   0  0  0  0  0  0  0  0  0  0  0  0
   -5.3410   -8.9873   -4.7196 C   0  0  0  0  0  0  0  0  0  0  0  0
   -6.3181   -7.8197   -4.5549 C   0  0  0  0  0  0  0  0  0  0  0  0
   -0.0539  -11.2338    0.5932 N   0  0  0  0  0  0  0  0  0  0  0  0
   -1.3000   -9.2451    0.4422 N   0  0  0  0  0  0  0  0  0  0  0  0
   -6.6841   -7.7189   -3.2991 N   0  0  0  0  0  0  0  0  0  0  0  0
   -7.9560   -7.7295   -2.9488 C   0  0  0  0  0  0  0  0  0  0  0  0
   -8.8558   -8.3668   -3.7412 N   0  0  0  0  0  0  0  0  0  0  0  0
   -8.3898   -7.1059   -1.8135 N   0  0  0  0  0  0  0  0  0  0  0  0
   -1.1754  -10.2597   -5.7666 C   0  0  0  0  0  0  0  0  0  0  0  0
   -2.4446  -12.7984   -8.9594 O   0  0  0  0  0  0  0  0  0  0  0  0
   -1.5769   -9.6938   -7.0109 C   0  0  0  0  0  0  0  0  0  0  0  0
   -2.0066  -10.5400   -8.0681 C   0  0  0  0  0  0  0  0  0  0  0  0
   -2.0156  -11.9487   -7.8924 C   0  0  0  0  0  0  0  0  0  0  0  0
   -1.5968  -12.5150   -6.6583 C   0  0  0  0  0  0  0  0  0  0  0  0
   -1.1696  -11.6721   -5.5968 C   0  0  0  0  0  0  0  0  0  0  0  0
   -3.7112  -13.3771   -8.6316 C   0  0  0  0  0  0  0  0  0  0  0  0
  1  4  1  0  0  0  0
  2  3  1  0  0  0  0
  3  5  1  0  0  0  0
  4  6  1  0  0  0  0
  5  8  1  0  0  0  0
  6  7  1  0  0  0  0
  7 10  1  0  0  0  0
  8  9  1  0  0  0  0
  9 12  1  0  0  0  0
  9 13  1  0  0  0  0
 10 11  1  0  0  0  0
 11 14  1  0  0  0  0
 14 15  1  0  0  0  0
 15 16  1  0  0  0  0
 15 17  1  0  0  0  0
 18  2  1  0  0  0  0
 18 20  2  0  0  0  0
 18 24  1  0  0  0  0
 19 25  1  0  0  0  0
 20  1  1  0  0  0  0
 20 21  1  0  0  0  0
 21 22  2  0  0  0  0
 22 19  1  0  0  0  0
 22 23  1  0  0  0  0
 23 24  2  0  0  0  0
M  END
>  <CHROM.1>
72.46734214,152.03586472,-122.01983751,-105.33219236,-149.55564999,177.21342499
71.22316020,-148.77814612,117.94331257,126.46749963,-165.87999447,-125.01087556
26.76244724,-73.77345047,28.29765727,122.25947738,-113.58702274,-109.17629322
-3.17671526,-9.67032202,-4.61926255,0.83801855,0.42793621,-1.80281576

>  <Name>
1uud_lig

>  <RI>
0

>  <Rbt.Current_Directory>
/home/itssahil/PROJECTS/Mol_Feturizer/New_Systems/rnas/1uud

>  <Rbt.Executable>
rbdock ($Id: //depot/dev/client3/rdock/2013.1/src/exe/rbdock.cxx#4 $)

>  <Rbt.Library>
libRbt.so (2013.1, Build901 2013/11/27)

>  <Rbt.Parameter_File>
/export/apps/rDock/src/rDock_2013.1_src/data/scripts/dock_solv.prm

>  <Rbt.Receptor>
prm/pocket_docking_6.prm

>  <SCORE>
-16.8545

>  <SCORE.INTER>
-14.0256

>  <SCORE.INTER.CONST>
1

>  <SCORE.INTER.POLAR>
-3.46531

>  <SCORE.INTER.ROT>
18

>  <SCORE.INTER.SOLV>
6.76777

>  <SCORE.INTER.VDW>
-15.6553

>  <SCORE.INTER.norm>
-0.561023

>  <SCORE.INTRA>
-2.82888

>  <SCORE.INTRA.DIHEDRAL>
0.861904

>  <SCORE.INTRA.DIHEDRAL.0>
30.6762

>  <SCORE.INTRA.POLAR>
0.0288659

>  <SCORE.INTRA.POLAR.0>
-0.0288659

>  <SCORE.INTRA.REPUL>
0

>  <SCORE.INTRA.REPUL.0>
0

>  <SCORE.INTRA.SOLV>
-1.28639

>  <SCORE.INTRA.SOLV.lig_0>
-25.2195

>  <SCORE.INTRA.VDW>
-2.71478

>  <SCORE.INTRA.VDW.0>
4.14263

>  <SCORE.INTRA.norm>
-0.113155

>  <SCORE.RESTR>
0

>  <SCORE.RESTR.CAVITY>
0

>  <SCORE.RESTR.norm>
0

>  <SCORE.SYSTEM>
0

>  <SCORE.SYSTEM.CONST>
0

>  <SCORE.SYSTEM.DIHEDRAL>
0

>  <SCORE.SYSTEM.SOLV>
0

>  <SCORE.SYSTEM.norm>
0

>  <SCORE.heavy>
25

>  <SCORE.norm>
-0.674179

>  <RMSD>
7.456

$$$$
1uud_lig
 OpenBabel11021811413D
libRbt.so/2013.1/901 2013/11/27
 25 25  0  0  0  0  0  0  0  0999 V2000
   -0.4228   -9.2861   -3.9192 C   0  0  0  0  0  0  0  0  0  0  0  0
   -2.2525   -7.2744   -2.8201 O   0  0  0  0  0  0  0  0  0  0  0  0
   -3.4629   -7.2907   -2.0488 C   0  0  0  0  0  0  0  0  0  0  0  0
   -1.3515  -10.4418   -3.8570 N   0  0  0  0  0  0  0  0  0  0  0  0
   -4.6829   -7.3284   -2.9790 C   0  0  0  0  0  0  0  0  0  0  0  0
   -1.5016  -11.0383   -5.2055 C   0  0  0  0  0  0  0  0  0  0  0  0
   -2.7645  -11.9074   -5.2442 C   0  0  0  0  0  0  0  0  0  0  0  0
   -4.6460   -6.3107   -3.8058 N   0  0  0  0  0  0  0  0  0  0  0  0
   -4.2928   -6.4601   -5.0687 C   0  0  0  0  0  0  0  0  0  0  0  0
   -2.6211  -13.0789   -4.2666 C   0  0  0  0  0  0  0  0  0  0  0  0
   -1.7245  -14.1551   -4.8857 C   0  0  0  0  0  0  0  0  0  0  0  0
   -3.3353   -7.3630   -5.4411 N   0  0  0  0  0  0  0  0  0  0  0  0
   -4.8929   -5.6988   -6.0198 N   0  0  0  0  0  0  0  0  0  0  0  0
   -2.4466  -14.9684   -5.6194 N   0  0  0  0  0  0  0  0  0  0  0  0
   -1.8907  -15.7853   -6.4935 C   0  0  0  0  0  0  0  0  0  0  0  0
   -1.0634  -15.2766   -7.4423 N   0  0  0  0  0  0  0  0  0  0  0  0
   -2.1362  -17.1290   -6.4724 N   0  0  0  0  0  0  0  0  0  0  0  0
   -1.1495   -7.7096   -2.0147 C   0  0  0  0  0  0  0  0  0  0  0  0
    2.1052   -9.0248    0.4198 O   0  0  0  0  0  0  0  0  0  0  0  0
   -0.2401   -8.6889   -2.5084 C   0  0  0  0  0  0  0  0  0  0  0  0
    0.8364   -9.1306   -1.6933 C   0  0  0  0  0  0  0  0  0  0  0  0
    1.0185   -8.5815   -0.3969 C   0  0  0  0  0  0  0  0  0  0  0  0
    0.1234   -7.5906    0.0888 C   0  0  0  0  0  0  0  0  0  0  0  0
   -0.9570   -7.1483   -0.7218 C   0  0  0  0  0  0  0  0  0  0  0  0
    1.8024  -10.3135    0.9623 C   0  0  0  0  0  0  0  0  0  0  0  0
  1  4  1  0  0  0  0
  2  3  1  0  0  0  0
  3  5  1  0  0  0  0
  4  6  1  0  0  0  0
  5  8  1  0  0  0  0
  6  7  1  0  0  0  0
  7 10  1  0  0  0  0
  8  9  1  0  0  0  0
  9 12  1  0  0  0  0
  9 13  1  0  0  0  0
 10 11  1  0  0  0  0
 11 14  1  0  0  0  0
 14 15  1  0  0  0  0
 15 16  1  0  0  0  0
 15 17  1  0  0  0  0
 18  2  1  0  0  0  0
 18 20  2  0  0  0  0
 18 24  1  0  0  0  0
 19 25  1  0  0  0  0
 20  1  1  0  0  0  0
 20 21  1  0  0  0  0
 21 22  2  0  0  0  0
 22 19  1  0  0  0  0
 22 23  1  0  0  0  0
 23 24  2  0  0  0  0
M  END
>  <CHROM.1>
-178.57402205,-159.62325477,-56.37587913,-161.81909292,103.85426831,-63.46688561
-77.79831388,-35.17034098,153.76611328,-112.87499352,-86.90830712,164.36125313
-54.55629538,-9.51919129,155.17572947,132.07940736,-86.48010834,-76.07296104
-1.72097366,-10.01689524,-3.57484400,-1.52341550,0.76241606,-2.69066894

>  <Name>
1uud_lig

>  <RI>
0

>  <Rbt.Current_Directory>
/home/itssahil/PROJECTS/Mol_Feturizer/New_Systems/rnas/1uud

>  <Rbt.Executable>
rbdock ($Id: //depot/dev/client3/rdock/2013.1/src/exe/rbdock.cxx#4 $)

>  <Rbt.Library>
libRbt.so (2013.1, Build901 2013/11/27)

>  <Rbt.Parameter_File>
/export/apps/rDock/src/rDock_2013.1_src/data/scripts/dock_solv.prm

>  <Rbt.Receptor>
prm/pocket_docking_4.prm

>  <SCORE>
-28.2005

>  <SCORE.INTER>
-18.195

>  <SCORE.INTER.CONST>
1

>  <SCORE.INTER.POLAR>
-4.48073

>  <SCORE.INTER.ROT>
18

>  <SCORE.INTER.SOLV>
7.04096

>  <SCORE.INTER.VDW>
-15.1413

>  <SCORE.INTER.norm>
-0.727802

>  <SCORE.INTRA>
-10.0344

>  <SCORE.INTRA.DIHEDRAL>
-6.88536

>  <SCORE.INTRA.DIHEDRAL.0>
30.6762

>  <SCORE.INTRA.POLAR>
-0.690104

>  <SCORE.INTRA.POLAR.0>
-0.0288659

>  <SCORE.INTRA.REPUL>
0

>  <SCORE.INTRA.REPUL.0>
0

>  <SCORE.INTRA.SOLV>
0.0608289

>  <SCORE.INTRA.SOLV.lig_0>
-25.2195

>  <SCORE.INTRA.VDW>
-4.27581

>  <SCORE.INTRA.VDW.0>
4.14263

>  <SCORE.INTRA.norm>
-0.401377

>  <SCORE.RESTR>
0.0289647

>  <SCORE.RESTR.CAVITY>
0.0289647

>  <SCORE.RESTR.norm>
0.00115859

>  <SCORE.SYSTEM>
0

>  <SCORE.SYSTEM.CONST>
0

>  <SCORE.SYSTEM.DIHEDRAL>
0

>  <SCORE.SYSTEM.SOLV>
0

>  <SCORE.SYSTEM.norm>
0

>  <SCORE.heavy>
25

>  <SCORE.norm>
-1.12802

>  <RMSD>
7.457

$$$$
1uud_lig
 OpenBabel11021811413D
libRbt.so/2013.1/901 2013/11/27
 25 25  0  0  0  0  0  0  0  0999 V2000
   -1.9753  -12.1517   -9.1425 C   0  0  0  0  0  0  0  0  0  0  0  0
   -4.1829  -10.7354   -7.8298 O   0  0  0  0  0  0  0  0  0  0  0  0
   -4.0998  -10.9490   -6.4129 C   0  0  0  0  0  0  0  0  0  0  0  0
   -1.3782  -12.8370   -7.9695 N   0  0  0  0  0  0  0  0  0  0  0  0
   -4.7722   -9.7914   -5.6626 C   0  0  0  0  0  0  0  0  0  0  0  0
   -1.3540  -14.3006   -8.2017 C   0  0  0  0  0  0  0  0  0  0  0  0
   -0.4772  -14.9741   -7.1391 C   0  0  0  0  0  0  0  0  0  0  0  0
   -6.0761   -9.9287   -5.7053 N   0  0  0  0  0  0  0  0  0  0  0  0
   -6.8810   -9.0575   -5.1265 C   0  0  0  0  0  0  0  0  0  0  0  0
   -1.3534  -15.4991   -5.9966 C   0  0  0  0  0  0  0  0  0  0  0  0
   -0.4666  -15.8996   -4.8140 C   0  0  0  0  0  0  0  0  0  0  0  0
   -7.2023   -9.1525   -3.8005 N   0  0  0  0  0  0  0  0  0  0  0  0
   -7.4031   -8.0445   -5.8651 N   0  0  0  0  0  0  0  0  0  0  0  0
    0.3532  -16.8576   -5.1765 N   0  0  0  0  0  0  0  0  0  0  0  0
   -0.0075  -18.1259   -5.1354 C   0  0  0  0  0  0  0  0  0  0  0  0
   -1.1106  -18.5232   -5.8203 N   0  0  0  0  0  0  0  0  0  0  0  0
    0.6967  -19.0461   -4.4119 N   0  0  0  0  0  0  0  0  0  0  0  0
   -3.0538   -9.9760   -8.2803 C   0  0  0  0  0  0  0  0  0  0  0  0
    0.3210   -7.6992   -9.5753 O   0  0  0  0  0  0  0  0  0  0  0  0
   -1.9578  -10.6255   -8.9181 C   0  0  0  0  0  0  0  0  0  0  0  0
   -0.8331   -9.8669   -9.3400 C   0  0  0  0  0  0  0  0  0  0  0  0
   -0.8104   -8.4608   -9.1459 C   0  0  0  0  0  0  0  0  0  0  0  0
   -1.9115   -7.8095   -8.5275 C   0  0  0  0  0  0  0  0  0  0  0  0
   -3.0372   -8.5649   -8.1006 C   0  0  0  0  0  0  0  0  0  0  0  0
    0.9548   -7.1013   -8.4406 C   0  0  0  0  0  0  0  0  0  0  0  0
  1  4  1  0  0  0  0
  2  3  1  0  0  0  0
  3  5  1  0  0  0  0
  4  6  1  0  0  0  0
  5  8  1  0  0  0  0
  6  7  1  0  0  0  0
  7 10  1  0  0  0  0
  8  9  1  0  0  0  0
  9 12  1  0  0  0  0
  9 13  1  0  0  0  0
 10 11  1  0  0  0  0
 11 14  1  0  0  0  0
 14 15  1  0  0  0  0
 15 16  1  0  0  0  0
 15 17  1  0  0  0  0
 18  2  1  0  0  0  0
 18 20  2  0  0  0  0
 18 24  1  0  0  0  0
 19 25  1  0  0  0  0
 20  1  1  0  0  0  0
 20 21  1  0  0  0  0
 21 22  2  0  0  0  0
 22 19  1  0  0  0  0
 22 23  1  0  0  0  0
 23 24  2  0  0  0  0
M  END
>  <CHROM.1>
-178.18089090,88.74041824,77.46030116,168.00903831,179.82362174,96.37795130
-168.13796731,-84.94843418,20.50863648,-50.59861836,-61.24203914,-85.68961501
56.62323372,-71.35500082,124.96786272,101.09554069,-89.65456175,-116.34321187
-2.34040822,-11.90597173,-6.92070708,-2.03256538,-0.50438579,2.72583414

>  <Name>
1uud_lig

>  <RI>
0

>  <Rbt.Current_Directory>
/home/itssahil/PROJECTS/Mol_Feturizer/New_Systems/rnas/1uud

>  <Rbt.Executable>
rbdock ($Id: //depot/dev/client3/rdock/2013.1/src/exe/rbdock.cxx#4 $)

>  <Rbt.Library>
libRbt.so (2013.1, Build901 2013/11/27)

>  <Rbt.Parameter_File>
/export/apps/rDock/src/rDock_2013.1_src/data/scripts/dock_solv.prm

>  <Rbt.Receptor>
prm/pocket_docking_8.prm

>  <SCORE>
-26.7567

>  <SCORE.INTER>
-20.4894

>  <SCORE.INTER.CONST>
1

>  <SCORE.INTER.POLAR>
-3.62608

>  <SCORE.INTER.ROT>
18

>  <SCORE.INTER.SOLV>
9.82683

>  <SCORE.INTER.VDW>
-20.4483

>  <SCORE.INTER.norm>
-0.819578

>  <SCORE.INTRA>
-6.26721

>  <SCORE.INTRA.DIHEDRAL>
-2.85746

>  <SCORE.INTRA.DIHEDRAL.0>
30.6762

>  <SCORE.INTRA.POLAR>
0.0288659

>  <SCORE.INTRA.POLAR.0>
-0.0288659

>  <SCORE.INTRA.REPUL>
0

>  <SCORE.INTRA.REPUL.0>
0

>  <SCORE.INTRA.SOLV>
-0.66872

>  <SCORE.INTRA.SOLV.lig_0>
-25.2195

>  <SCORE.INTRA.VDW>
-4.60227

>  <SCORE.INTRA.VDW.0>
4.14263

>  <SCORE.INTRA.norm>
-0.250688

>  <SCORE.RESTR>
0

>  <SCORE.RESTR.CAVITY>
0

>  <SCORE.RESTR.norm>
0

>  <SCORE.SYSTEM>
0

>  <SCORE.SYSTEM.CONST>
0

>  <SCORE.SYSTEM.DIHEDRAL>
0

>  <SCORE.SYSTEM.SOLV>
0

>  <SCORE.SYSTEM.norm>
0

>  <SCORE.heavy>
25

>  <SCORE.norm>
-1.07027

>  <RMSD>
7.466

$$$$
1uud_lig
 OpenBabel11021811413D
libRbt.so/2013.1/901 2013/11/27
 25 25  0  0  0  0  0  0  0  0999 V2000
   -2.0221   -7.8996   -0.5083 C   0  0  0  0  0  0  0  0  0  0  0  0
   -3.3777  -10.5003   -0.4685 O   0  0  0  0  0  0  0  0  0  0  0  0
   -3.6421  -10.1398   -1.8325 C   0  0  0  0  0  0  0  0  0  0  0  0
   -1.4943   -7.2759   -1.7471 N   0  0  0  0  0  0  0  0  0  0  0  0
   -3.0252  -11.1749   -2.7828 C   0  0  0  0  0  0  0  0  0  0  0  0
   -2.6102   -6.6979   -2.5329 C   0  0  0  0  0  0  0  0  0  0  0  0
   -3.1412   -7.7467   -3.5175 C   0  0  0  0  0  0  0  0  0  0  0  0
   -3.4022  -10.9305   -4.0152 N   0  0  0  0  0  0  0  0  0  0  0  0
   -4.2613  -11.7124   -4.6418 C   0  0  0  0  0  0  0  0  0  0  0  0
   -4.4735   -7.2765   -4.1115 C   0  0  0  0  0  0  0  0  0  0  0  0
   -5.0163   -8.3476   -5.0620 C   0  0  0  0  0  0  0  0  0  0  0  0
   -4.3441  -11.7340   -6.0069 N   0  0  0  0  0  0  0  0  0  0  0  0
   -5.0827  -12.5126   -3.9143 N   0  0  0  0  0  0  0  0  0  0  0  0
   -6.0290   -7.8665   -5.7434 N   0  0  0  0  0  0  0  0  0  0  0  0
   -7.2437   -7.8179   -5.2311 C   0  0  0  0  0  0  0  0  0  0  0  0
   -7.6697   -6.6697   -4.6447 N   0  0  0  0  0  0  0  0  0  0  0  0
   -8.0785   -8.8985   -5.2677 N   0  0  0  0  0  0  0  0  0  0  0  0
   -1.9680  -10.4590   -0.2128 C   0  0  0  0  0  0  0  0  0  0  0  0
    2.2417  -10.3639    0.5082 O   0  0  0  0  0  0  0  0  0  0  0  0
   -1.2698   -9.2171   -0.2278 C   0  0  0  0  0  0  0  0  0  0  0  0
    0.1315   -9.1895    0.0039 C   0  0  0  0  0  0  0  0  0  0  0  0
    0.8320  -10.3950    0.2712 C   0  0  0  0  0  0  0  0  0  0  0  0
    0.1332  -11.6317    0.3058 C   0  0  0  0  0  0  0  0  0  0  0  0
   -1.2681  -11.6645    0.0710 C   0  0  0  0  0  0  0  0  0  0  0  0
    2.5727  -11.2850    1.5515 C   0  0  0  0  0  0  0  0  0  0  0  0
  1  4  1  0  0  0  0
  2  3  1  0  0  0  0
  3  5  1  0  0  0  0
  4  6  1  0  0  0  0
  5  8  1  0  0  0  0
  6  7  1  0  0  0  0
  7 10  1  0  0  0  0
  8  9  1  0  0  0  0
  9 12  1  0  0  0  0
  9 13  1  0  0  0  0
 10 11  1  0  0  0  0
 11 14  1  0  0  0  0
 14 15  1  0  0  0  0
 15 16  1  0  0  0  0
 15 17  1  0  0  0  0
 18  2  1  0  0  0  0
 18 20  2  0  0  0  0
 18 24  1  0  0  0  0
 19 25  1  0  0  0  0
 20  1  1  0  0  0  0
 20 21  1  0  0  0  0
 21 22  2  0  0  0  0
 22 19  1  0  0  0  0
 22 23  1  0  0  0  0
 23 24  2  0  0  0  0
M  END
>  <CHROM.1>
140.37867945,64.17684010,172.53438351,-90.78090409,-108.46180469,167.68410285
-178.36076956,-159.08916316,98.16046137,96.01496255,-169.36761999,-81.55514779
95.63802857,-101.88136456,50.22076338,67.34371152,-117.79956251,140.61762944
-3.01755092,-9.56412581,-2.47166328,-0.12445051,-0.69046009,0.12385324

>  <Name>
1uud_lig

>  <RI>
0

>  <Rbt.Current_Directory>
/home/itssahil/PROJECTS/Mol_Feturizer/New_Systems/rnas/1uud

>  <Rbt.Executable>
rbdock ($Id: //depot/dev/client3/rdock/2013.1/src/exe/rbdock.cxx#4 $)

>  <Rbt.Library>
libRbt.so (2013.1, Build901 2013/11/27)

>  <Rbt.Parameter_File>
/export/apps/rDock/src/rDock_2013.1_src/data/scripts/dock_solv.prm

>  <Rbt.Receptor>
prm/pocket_docking_2.prm

>  <SCORE>
-17.7097

>  <SCORE.INTER>
-13.5684

>  <SCORE.INTER.CONST>
1

>  <SCORE.INTER.POLAR>
-2.04102

>  <SCORE.INTER.ROT>
18

>  <SCORE.INTER.SOLV>
12.9331

>  <SCORE.INTER.VDW>
-22.1532

>  <SCORE.INTER.norm>
-0.542736

>  <SCORE.INTRA>
-5.35068

>  <SCORE.INTRA.DIHEDRAL>
-8.56127

>  <SCORE.INTRA.DIHEDRAL.0>
30.6762

>  <SCORE.INTRA.POLAR>
0.0288659

>  <SCORE.INTRA.POLAR.0>
-0.0288659

>  <SCORE.INTRA.REPUL>
0

>  <SCORE.INTRA.REPUL.0>
0

>  <SCORE.INTRA.SOLV>
-0.0823773

>  <SCORE.INTRA.SOLV.lig_0>
-25.2195

>  <SCORE.INTRA.VDW>
-1.127

>  <SCORE.INTRA.VDW.0>
4.14263

>  <SCORE.INTRA.norm>
-0.214027

>  <SCORE.RESTR>
1.20941

>  <SCORE.RESTR.CAVITY>
1.20941

>  <SCORE.RESTR.norm>
0.0483764

>  <SCORE.SYSTEM>
0

>  <SCORE.SYSTEM.CONST>
0

>  <SCORE.SYSTEM.DIHEDRAL>
0

>  <SCORE.SYSTEM.SOLV>
0

>  <SCORE.SYSTEM.norm>
0

>  <SCORE.heavy>
25

>  <SCORE.norm>
-0.708386

>  <RMSD>
7.469

$$$$
1uud_lig
 OpenBabel11021811413D
libRbt.so/2013.1/901 2013/11/27
 25 25  0  0  0  0  0  0  0  0999 V2000
   -2.9296  -10.6801   -2.6165 C   0  0  0  0  0  0  0  0  0  0  0  0
   -4.7834   -9.0008   -1.0849 O   0  0  0  0  0  0  0  0  0  0  0  0
   -6.0327   -9.3741   -0.4848 C   0  0  0  0  0  0  0  0  0  0  0  0
   -1.6212  -10.4764   -3.2864 N   0  0  0  0  0  0  0  0  0  0  0  0
   -7.2027   -8.8342   -1.3183 C   0  0  0  0  0  0  0  0  0  0  0  0
   -1.8364  -10.0540   -4.6906 C   0  0  0  0  0  0  0  0  0  0  0  0
   -2.5795  -11.1595   -5.4505 C   0  0  0  0  0  0  0  0  0  0  0  0
   -7.3834   -9.5887   -2.3761 N   0  0  0  0  0  0  0  0  0  0  0  0
   -7.4145   -9.0764   -3.5920 C   0  0  0  0  0  0  0  0  0  0  0  0
   -2.9875  -10.6540   -6.8386 C   0  0  0  0  0  0  0  0  0  0  0  0
   -3.8147  -11.7278   -7.5514 C   0  0  0  0  0  0  0  0  0  0  0  0
   -6.6620   -9.5992   -4.6074 N   0  0  0  0  0  0  0  0  0  0  0  0
   -8.2109   -8.0047   -3.8400 N   0  0  0  0  0  0  0  0  0  0  0  0
   -3.0628  -12.7718   -7.8082 N   0  0  0  0  0  0  0  0  0  0  0  0
   -3.4091  -13.9835   -7.4177 C   0  0  0  0  0  0  0  0  0  0  0  0
   -4.2468  -14.7158   -8.1958 N   0  0  0  0  0  0  0  0  0  0  0  0
   -2.9528  -14.5139   -6.2444 N   0  0  0  0  0  0  0  0  0  0  0  0
   -3.6972   -9.6293   -0.3923 C   0  0  0  0  0  0  0  0  0  0  0  0
   -0.4930  -11.5286    1.6996 O   0  0  0  0  0  0  0  0  0  0  0  0
   -2.7769  -10.4573   -1.0976 C   0  0  0  0  0  0  0  0  0  0  0  0
   -1.7173  -11.0944   -0.3978 C   0  0  0  0  0  0  0  0  0  0  0  0
   -1.5628  -10.8894    0.9985 C   0  0  0  0  0  0  0  0  0  0  0  0
   -2.4686  -10.0482    1.6991 C   0  0  0  0  0  0  0  0  0  0  0  0
   -3.5322   -9.4117    1.0038 C   0  0  0  0  0  0  0  0  0  0  0  0
    0.7582  -11.1258    1.1350 C   0  0  0  0  0  0  0  0  0  0  0  0
  1  4  1  0  0  0  0
  2  3  1  0  0  0  0
  3  5  1  0  0  0  0
  4  6  1  0  0  0  0
  5  8  1  0  0  0  0
  6  7  1  0  0  0  0
  7 10  1  0  0  0  0
  8  9  1  0  0  0  0
  9 12  1  0  0  0  0
  9 13  1  0  0  0  0
 10 11  1  0  0  0  0
 11 14  1  0  0  0  0
 14 15  1  0  0  0  0
 15 16  1  0  0  0  0
 15 17  1  0  0  0  0
 18  2  1  0  0  0  0
 18 20  2  0  0  0  0
 18 24  1  0  0  0  0
 19 25  1  0  0  0  0
 20  1  1  0  0  0  0
 20 21  1  0  0  0  0
 21 22  2  0  0  0  0
 22 19  1  0  0  0  0
 22 23  1  0  0  0  0
 23 24  2  0  0  0  0
M  END
>  <CHROM.1>
-153.37010421,-173.55907415,77.88701889,-62.03546363,-126.51015906,171.75085207
-175.98796270,130.24353381,-134.92686677,-131.41305237,-66.66526023,125.92827446
84.83236848,-88.61243430,135.90631393,123.25977055,131.92917459,59.07770232
-3.73091777,-10.76609942,-3.00487922,-1.39883511,0.46989584,-1.96059120

>  <Name>
1uud_lig

>  <RI>
0

>  <Rbt.Current_Directory>
/home/itssahil/PROJECTS/Mol_Feturizer/New_Systems/rnas/1uud

>  <Rbt.Executable>
rbdock ($Id: //depot/dev/client3/rdock/2013.1/src/exe/rbdock.cxx#4 $)

>  <Rbt.Library>
libRbt.so (2013.1, Build901 2013/11/27)

>  <Rbt.Parameter_File>
/export/apps/rDock/src/rDock_2013.1_src/data/scripts/dock_solv.prm

>  <Rbt.Receptor>
prm/pocket_docking_3.prm

>  <SCORE>
-35.4844

>  <SCORE.INTER>
-27.3394

>  <SCORE.INTER.CONST>
1

>  <SCORE.INTER.POLAR>
-4.46648

>  <SCORE.INTER.ROT>
18

>  <SCORE.INTER.SOLV>
9.921

>  <SCORE.INTER.VDW>
-22.245

>  <SCORE.INTER.norm>
-1.09358

>  <SCORE.INTRA>
-8.32074

>  <SCORE.INTRA.DIHEDRAL>
-10.1188

>  <SCORE.INTRA.DIHEDRAL.0>
30.6762

>  <SCORE.INTRA.POLAR>
0.0288659

>  <SCORE.INTRA.POLAR.0>
-0.0288659

>  <SCORE.INTRA.REPUL>
0

>  <SCORE.INTRA.REPUL.0>
0

>  <SCORE.INTRA.SOLV>
-0.766845

>  <SCORE.INTRA.SOLV.lig_0>
-25.2195

>  <SCORE.INTRA.VDW>
-2.97608

>  <SCORE.INTRA.VDW.0>
4.14263

>  <SCORE.INTRA.norm>
-0.33283

>  <SCORE.RESTR>
0.17575

>  <SCORE.RESTR.CAVITY>
0.17575

>  <SCORE.RESTR.norm>
0.00702998

>  <SCORE.SYSTEM>
0

>  <SCORE.SYSTEM.CONST>
0

>  <SCORE.SYSTEM.DIHEDRAL>
0

>  <SCORE.SYSTEM.SOLV>
0

>  <SCORE.SYSTEM.norm>
0

>  <SCORE.heavy>
25

>  <SCORE.norm>
-1.41938

>  <RMSD>
7.473

$$$$
1uud_lig
 OpenBabel11021811413D
libRbt.so/2013.1/901 2013/11/27
 25 25  0  0  0  0  0  0  0  0999 V2000
   -2.3395  -11.0865   -2.9281 C   0  0  0  0  0  0  0  0  0  0  0  0
   -0.2351   -9.1598   -2.2485 O   0  0  0  0  0  0  0  0  0  0  0  0
   -0.0581   -7.7365   -2.3050 C   0  0  0  0  0  0  0  0  0  0  0  0
   -3.3491  -10.3788   -3.7538 N   0  0  0  0  0  0  0  0  0  0  0  0
    1.0538   -7.3805   -3.3011 C   0  0  0  0  0  0  0  0  0  0  0  0
   -4.7108  -10.6905   -3.2584 C   0  0  0  0  0  0  0  0  0  0  0  0
   -5.7356  -10.4089   -4.3639 C   0  0  0  0  0  0  0  0  0  0  0  0
    2.0638   -8.2051   -3.1569 N   0  0  0  0  0  0  0  0  0  0  0  0
    2.2643   -9.2038   -3.9961 C   0  0  0  0  0  0  0  0  0  0  0  0
   -5.6841   -8.9287   -4.7575 C   0  0  0  0  0  0  0  0  0  0  0  0
   -7.0471   -8.4975   -5.3066 C   0  0  0  0  0  0  0  0  0  0  0  0
    1.3016   -9.5942   -4.8857 N   0  0  0  0  0  0  0  0  0  0  0  0
    3.4533   -9.8596   -3.9746 N   0  0  0  0  0  0  0  0  0  0  0  0
   -7.9334   -8.4855   -4.3394 N   0  0  0  0  0  0  0  0  0  0  0  0
   -8.2349   -7.3747   -3.6945 C   0  0  0  0  0  0  0  0  0  0  0  0
   -8.5830   -7.4436   -2.3839 N   0  0  0  0  0  0  0  0  0  0  0  0
   -8.2150   -6.1590   -4.3172 N   0  0  0  0  0  0  0  0  0  0  0  0
   -1.2047   -9.4960   -1.2479 C   0  0  0  0  0  0  0  0  0  0  0  0
   -4.1103  -10.4500    1.7351 O   0  0  0  0  0  0  0  0  0  0  0  0
   -2.2466  -10.4235   -1.5381 C   0  0  0  0  0  0  0  0  0  0  0  0
   -3.2164  -10.7324   -0.5470 C   0  0  0  0  0  0  0  0  0  0  0  0
   -3.1353  -10.1342    0.7380 C   0  0  0  0  0  0  0  0  0  0  0  0
   -2.0853   -9.2241    1.0347 C   0  0  0  0  0  0  0  0  0  0  0  0
   -1.1150   -8.9094    0.0450 C   0  0  0  0  0  0  0  0  0  0  0  0
   -5.3187   -9.7324    1.4680 C   0  0  0  0  0  0  0  0  0  0  0  0
  1  4  1  0  0  0  0
  2  3  1  0  0  0  0
  3  5  1  0  0  0  0
  4  6  1  0  0  0  0
  5  8  1  0  0  0  0
  6  7  1  0  0  0  0
  7 10  1  0  0  0  0
  8  9  1  0  0  0  0
  9 12  1  0  0  0  0
  9 13  1  0  0  0  0
 10 11  1  0  0  0  0
 11 14  1  0  0  0  0
 14 15  1  0  0  0  0
 15 16  1  0  0  0  0
 15 17  1  0  0  0  0
 18  2  1  0  0  0  0
 18 20  2  0  0  0  0
 18 24  1  0  0  0  0
 19 25  1  0  0  0  0
 20  1  1  0  0  0  0
 20 21  1  0  0  0  0
 21 22  2  0  0  0  0
 22 19  1  0  0  0  0
 22 23  1  0  0  0  0
 23 24  2  0  0  0  0
M  END
>  <CHROM.1>
-72.27481904,175.80776105,-42.54289543,-159.41867275,102.18454071,-60.70473117
-153.23180291,-13.32924439,-97.39417212,14.31045845,69.07379760,96.28606203
-147.75105392,120.10792088,-136.70131226,133.13176696,-99.17016530,-77.76313640
-2.99653360,-9.16455211,-2.50727170,0.06968400,-0.08531123,1.81758810

>  <Name>
1uud_lig

>  <RI>
0

>  <Rbt.Current_Directory>
/home/itssahil/PROJECTS/Mol_Feturizer/New_Systems/rnas/1uud

>  <Rbt.Executable>
rbdock ($Id: //depot/dev/client3/rdock/2013.1/src/exe/rbdock.cxx#4 $)

>  <Rbt.Library>
libRbt.so (2013.1, Build901 2013/11/27)

>  <Rbt.Parameter_File>
/export/apps/rDock/src/rDock_2013.1_src/data/scripts/dock_solv.prm

>  <Rbt.Receptor>
prm/pocket_docking_7.prm

>  <SCORE>
-25.0312

>  <SCORE.INTER>
-17.9308

>  <SCORE.INTER.CONST>
1

>  <SCORE.INTER.POLAR>
-3.92176

>  <SCORE.INTER.ROT>
18

>  <SCORE.INTER.SOLV>
6.507

>  <SCORE.INTER.VDW>
-16.6503

>  <SCORE.INTER.norm>
-0.717231

>  <SCORE.INTRA>
-7.10043

>  <SCORE.INTRA.DIHEDRAL>
-7.80315

>  <SCORE.INTRA.DIHEDRAL.0>
30.6762

>  <SCORE.INTRA.POLAR>
0.0288659

>  <SCORE.INTRA.POLAR.0>
-0.0288659

>  <SCORE.INTRA.REPUL>
0

>  <SCORE.INTRA.REPUL.0>
0

>  <SCORE.INTRA.SOLV>
-0.244213

>  <SCORE.INTRA.SOLV.lig_0>
-25.2195

>  <SCORE.INTRA.VDW>
-3.17489

>  <SCORE.INTRA.VDW.0>
4.14263

>  <SCORE.INTRA.norm>
-0.284017

>  <SCORE.RESTR>
0

>  <SCORE.RESTR.CAVITY>
0

>  <SCORE.RESTR.norm>
0

>  <SCORE.SYSTEM>
0

>  <SCORE.SYSTEM.CONST>
0

>  <SCORE.SYSTEM.DIHEDRAL>
0

>  <SCORE.SYSTEM.SOLV>
0

>  <SCORE.SYSTEM.norm>
0

>  <SCORE.heavy>
25

>  <SCORE.norm>
-1.00125

>  <RMSD>
7.489

$$$$
1uud_lig
 OpenBabel11021811413D
libRbt.so/2013.1/901 2013/11/27
 25 25  0  0  0  0  0  0  0  0999 V2000
   -2.2006   -9.6387   -2.7295 C   0  0  0  0  0  0  0  0  0  0  0  0
   -0.3176   -7.8777   -1.3311 O   0  0  0  0  0  0  0  0  0  0  0  0
    0.8638   -8.2580   -2.0522 C   0  0  0  0  0  0  0  0  0  0  0  0
   -1.2890  -10.2710   -3.7151 N   0  0  0  0  0  0  0  0  0  0  0  0
    1.7163   -7.0202   -2.3623 C   0  0  0  0  0  0  0  0  0  0  0  0
   -2.0724  -11.0897   -4.6704 C   0  0  0  0  0  0  0  0  0  0  0  0
   -2.3995  -12.4465   -4.0350 C   0  0  0  0  0  0  0  0  0  0  0  0
    2.4078   -6.6768   -1.3018 N   0  0  0  0  0  0  0  0  0  0  0  0
    2.0898   -5.6154   -0.5846 C   0  0  0  0  0  0  0  0  0  0  0  0
   -3.3203  -13.2476   -4.9619 C   0  0  0  0  0  0  0  0  0  0  0  0
   -2.5120  -13.7852   -6.1463 C   0  0  0  0  0  0  0  0  0  0  0  0
    2.2304   -4.3489   -1.0813 N   0  0  0  0  0  0  0  0  0  0  0  0
    1.6134   -5.7850    0.6757 N   0  0  0  0  0  0  0  0  0  0  0  0
   -3.2473  -14.6156   -6.8471 N   0  0  0  0  0  0  0  0  0  0  0  0
   -3.3214  -14.5299   -8.1615 C   0  0  0  0  0  0  0  0  0  0  0  0
   -4.4236  -13.9752   -8.7279 N   0  0  0  0  0  0  0  0  0  0  0  0
   -2.3199  -14.9954   -8.9655 N   0  0  0  0  0  0  0  0  0  0  0  0
   -1.2715   -7.2888   -2.2244 C   0  0  0  0  0  0  0  0  0  0  0  0
   -4.0766   -5.5172   -4.9157 O   0  0  0  0  0  0  0  0  0  0  0  0
   -2.2006   -8.1087   -2.9275 C   0  0  0  0  0  0  0  0  0  0  0  0
   -3.1267   -7.5176   -3.8283 C   0  0  0  0  0  0  0  0  0  0  0  0
   -3.1407   -6.1099   -4.0116 C   0  0  0  0  0  0  0  0  0  0  0  0
   -2.2275   -5.2896   -3.2961 C   0  0  0  0  0  0  0  0  0  0  0  0
   -1.2969   -5.8770   -2.3966 C   0  0  0  0  0  0  0  0  0  0  0  0
   -5.3845   -5.5433   -4.3367 C   0  0  0  0  0  0  0  0  0  0  0  0
  1  4  1  0  0  0  0
  2  3  1  0  0  0  0
  3  5  1  0  0  0  0
  4  6  1  0  0  0  0
  5  8  1  0  0  0  0
  6  7  1  0  0  0  0
  7 10  1  0  0  0  0
  8  9  1  0  0  0  0
  9 12  1  0  0  0  0
  9 13  1  0  0  0  0
 10 11  1  0  0  0  0
 11 14  1  0  0  0  0
 14 15  1  0  0  0  0
 15 16  1  0  0  0  0
 15 17  1  0  0  0  0
 18  2  1  0  0  0  0
 18 20  2  0  0  0  0
 18 24  1  0  0  0  0
 19 25  1  0  0  0  0
 20  1  1  0  0  0  0
 20 21  1  0  0  0  0
 21 22  2  0  0  0  0
 22 19  1  0  0  0  0
 22 23  1  0  0  0  0
 23 24  2  0  0  0  0
M  END
>  <CHROM.1>
-113.33311604,76.47881891,79.61025936,-80.75151147,-106.44790376,174.67646524
74.55434172,-68.17523078,-110.52011627,-152.34624152,171.66479937,132.39875415
-102.75916883,101.66485947,62.55783303,87.36860384,-90.08650319,73.74931724
-1.54589862,-9.06455782,-3.82269854,-1.99264528,-0.53737274,0.39489330

>  <Name>
1uud_lig

>  <RI>
0

>  <Rbt.Current_Directory>
/home/itssahil/PROJECTS/Mol_Feturizer/New_Systems/rnas/1uud

>  <Rbt.Executable>
rbdock ($Id: //depot/dev/client3/rdock/2013.1/src/exe/rbdock.cxx#4 $)

>  <Rbt.Library>
libRbt.so (2013.1, Build901 2013/11/27)

>  <Rbt.Parameter_File>
/export/apps/rDock/src/rDock_2013.1_src/data/scripts/dock_solv.prm

>  <Rbt.Receptor>
prm/pocket_docking_7.prm

>  <SCORE>
-25.5289

>  <SCORE.INTER>
-18.5253

>  <SCORE.INTER.CONST>
1

>  <SCORE.INTER.POLAR>
-4.34744

>  <SCORE.INTER.ROT>
18

>  <SCORE.INTER.SOLV>
8.95109

>  <SCORE.INTER.VDW>
-16.4425

>  <SCORE.INTER.norm>
-0.741014

>  <SCORE.INTRA>
-7.00355

>  <SCORE.INTRA.DIHEDRAL>
-2.91486

>  <SCORE.INTRA.DIHEDRAL.0>
30.6762

>  <SCORE.INTRA.POLAR>
0.0288659

>  <SCORE.INTRA.POLAR.0>
-0.0288659

>  <SCORE.INTRA.REPUL>
0

>  <SCORE.INTRA.REPUL.0>
0

>  <SCORE.INTRA.SOLV>
-0.545362

>  <SCORE.INTRA.SOLV.lig_0>
-25.2195

>  <SCORE.INTRA.VDW>
-5.37159

>  <SCORE.INTRA.VDW.0>
4.14263

>  <SCORE.INTRA.norm>
-0.280142

>  <SCORE.RESTR>
0

>  <SCORE.RESTR.CAVITY>
0

>  <SCORE.RESTR.norm>
0

>  <SCORE.SYSTEM>
0

>  <SCORE.SYSTEM.CONST>
0

>  <SCORE.SYSTEM.DIHEDRAL>
0

>  <SCORE.SYSTEM.SOLV>
0

>  <SCORE.SYSTEM.norm>
0

>  <SCORE.heavy>
25

>  <SCORE.norm>
-1.02116

>  <RMSD>
7.509

$$$$
1uud_lig
 OpenBabel11021811413D
libRbt.so/2013.1/901 2013/11/27
 25 25  0  0  0  0  0  0  0  0999 V2000
   -6.0789  -10.1067   -5.1052 C   0  0  0  0  0  0  0  0  0  0  0  0
   -4.0068  -10.9182   -3.1945 O   0  0  0  0  0  0  0  0  0  0  0  0
   -3.3019   -9.7456   -2.7607 C   0  0  0  0  0  0  0  0  0  0  0  0
   -5.9873   -8.6364   -5.2831 N   0  0  0  0  0  0  0  0  0  0  0  0
   -3.2618   -9.6889   -1.2276 C   0  0  0  0  0  0  0  0  0  0  0  0
   -6.0832   -7.9643   -3.9656 C   0  0  0  0  0  0  0  0  0  0  0  0
   -7.5074   -8.1129   -3.4166 C   0  0  0  0  0  0  0  0  0  0  0  0
   -2.8445  -10.8367   -0.7488 N   0  0  0  0  0  0  0  0  0  0  0  0
   -2.2102  -10.9130    0.4061 C   0  0  0  0  0  0  0  0  0  0  0  0
   -7.5687   -7.5884   -1.9779 C   0  0  0  0  0  0  0  0  0  0  0  0
   -8.4745   -6.3548   -1.9212 C   0  0  0  0  0  0  0  0  0  0  0  0
   -0.8833  -11.2382    0.4726 N   0  0  0  0  0  0  0  0  0  0  0  0
   -2.8910  -10.6642    1.5545 N   0  0  0  0  0  0  0  0  0  0  0  0
   -7.8793   -5.3383   -2.4990 N   0  0  0  0  0  0  0  0  0  0  0  0
   -8.1254   -5.0184   -3.7550 C   0  0  0  0  0  0  0  0  0  0  0  0
   -7.0981   -4.9797   -4.6420 N   0  0  0  0  0  0  0  0  0  0  0  0
   -9.3874   -4.7155   -4.1813 N   0  0  0  0  0  0  0  0  0  0  0  0
   -3.7761  -11.1428   -4.5913 C   0  0  0  0  0  0  0  0  0  0  0  0
   -3.0868  -11.8619   -8.7456 O   0  0  0  0  0  0  0  0  0  0  0  0
   -4.7589  -10.7684   -5.5524 C   0  0  0  0  0  0  0  0  0  0  0  0
   -4.5306  -11.0164   -6.9325 C   0  0  0  0  0  0  0  0  0  0  0  0
   -3.3158  -11.6171   -7.3555 C   0  0  0  0  0  0  0  0  0  0  0  0
   -2.3268  -11.9731   -6.3995 C   0  0  0  0  0  0  0  0  0  0  0  0
   -2.5525  -11.7300   -5.0174 C   0  0  0  0  0  0  0  0  0  0  0  0
   -2.9640  -13.2694   -8.9704 C   0  0  0  0  0  0  0  0  0  0  0  0
  1  4  1  0  0  0  0
  2  3  1  0  0  0  0
  3  5  1  0  0  0  0
  4  6  1  0  0  0  0
  5  8  1  0  0  0  0
  6  7  1  0  0  0  0
  7 10  1  0  0  0  0
  8  9  1  0  0  0  0
  9 12  1  0  0  0  0
  9 13  1  0  0  0  0
 10 11  1  0  0  0  0
 11 14  1  0  0  0  0
 14 15  1  0  0  0  0
 15 16  1  0  0  0  0
 15 17  1  0  0  0  0
 18  2  1  0  0  0  0
 18 20  2  0  0  0  0
 18 24  1  0  0  0  0
 19 25  1  0  0  0  0
 20  1  1  0  0  0  0
 20 21  1  0  0  0  0
 21 22  2  0  0  0  0
 22 19  1  0  0  0  0
 22 23  1  0  0  0  0
 23 24  2  0  0  0  0
M  END
>  <CHROM.1>
-116.36286517,-166.32968589,50.12518344,-69.56449566,151.81944688,172.43729038
114.73022452,-111.06157794,88.95188073,167.17438675,-71.59984142,96.65948332
-122.33750556,-15.76270366,62.54256744,-100.98638149,99.04626442,-116.89656448
-4.85603121,-9.39320839,-3.78067861,0.40502883,0.78635128,-1.83197060

>  <Name>
1uud_lig

>  <RI>
0

>  <Rbt.Current_Directory>
/home/itssahil/PROJECTS/Mol_Feturizer/New_Systems/rnas/1uud

>  <Rbt.Executable>
rbdock ($Id: //depot/dev/client3/rdock/2013.1/src/exe/rbdock.cxx#4 $)

>  <Rbt.Library>
libRbt.so (2013.1, Build901 2013/11/27)

>  <Rbt.Parameter_File>
/export/apps/rDock/src/rDock_2013.1_src/data/scripts/dock_solv.prm

>  <Rbt.Receptor>
prm/pocket_docking_3.prm

>  <SCORE>
-23.405

>  <SCORE.INTER>
-18.5523

>  <SCORE.INTER.CONST>
1

>  <SCORE.INTER.POLAR>
-3.75372

>  <SCORE.INTER.ROT>
18

>  <SCORE.INTER.SOLV>
7.96213

>  <SCORE.INTER.VDW>
-18.1098

>  <SCORE.INTER.norm>
-0.742093

>  <SCORE.INTRA>
-4.85271

>  <SCORE.INTRA.DIHEDRAL>
-0.178023

>  <SCORE.INTRA.DIHEDRAL.0>
30.6762

>  <SCORE.INTRA.POLAR>
-0.0112151

>  <SCORE.INTRA.POLAR.0>
-0.0288659

>  <SCORE.INTRA.REPUL>
0

>  <SCORE.INTRA.REPUL.0>
0

>  <SCORE.INTRA.SOLV>
0.0113646

>  <SCORE.INTRA.SOLV.lig_0>
-25.2195

>  <SCORE.INTRA.VDW>
-4.73125

>  <SCORE.INTRA.VDW.0>
4.14263

>  <SCORE.INTRA.norm>
-0.194109

>  <SCORE.RESTR>
0

>  <SCORE.RESTR.CAVITY>
0

>  <SCORE.RESTR.norm>
0

>  <SCORE.SYSTEM>
0

>  <SCORE.SYSTEM.CONST>
0

>  <SCORE.SYSTEM.DIHEDRAL>
0

>  <SCORE.SYSTEM.SOLV>
0

>  <SCORE.SYSTEM.norm>
0

>  <SCORE.heavy>
25

>  <SCORE.norm>
-0.936201

>  <RMSD>
7.517

$$$$
1uud_lig
 OpenBabel11021811413D
libRbt.so/2013.1/901 2013/11/27
 25 25  0  0  0  0  0  0  0  0999 V2000
   -0.7516   -8.8259   -2.9004 C   0  0  0  0  0  0  0  0  0  0  0  0
   -3.4447   -7.7558   -2.4481 O   0  0  0  0  0  0  0  0  0  0  0  0
   -4.4770   -8.3690   -3.2347 C   0  0  0  0  0  0  0  0  0  0  0  0
   -0.5367   -9.9913   -3.7936 N   0  0  0  0  0  0  0  0  0  0  0  0
   -5.8045   -8.3613   -2.4646 C   0  0  0  0  0  0  0  0  0  0  0  0
   -1.6861  -10.1337   -4.7185 C   0  0  0  0  0  0  0  0  0  0  0  0
   -1.8121  -11.5973   -5.1585 C   0  0  0  0  0  0  0  0  0  0  0  0
   -6.7452   -8.9175   -3.1903 N   0  0  0  0  0  0  0  0  0  0  0  0
   -7.5813   -8.1925   -3.9094 C   0  0  0  0  0  0  0  0  0  0  0  0
   -2.8364  -11.7142   -6.2924 C   0  0  0  0  0  0  0  0  0  0  0  0
   -3.0582  -13.1911   -6.6313 C   0  0  0  0  0  0  0  0  0  0  0  0
   -8.8658   -7.9650   -3.4983 N   0  0  0  0  0  0  0  0  0  0  0  0
   -7.1568   -7.6616   -5.0850 N   0  0  0  0  0  0  0  0  0  0  0  0
   -3.6220  -13.2976   -7.8111 N   0  0  0  0  0  0  0  0  0  0  0  0
   -3.3619  -14.3146   -8.6102 C   0  0  0  0  0  0  0  0  0  0  0  0
   -2.1123  -14.4506   -9.1237 N   0  0  0  0  0  0  0  0  0  0  0  0
   -4.3228  -15.2275   -8.9410 N   0  0  0  0  0  0  0  0  0  0  0  0
   -2.9161   -8.6996   -1.5077 C   0  0  0  0  0  0  0  0  0  0  0  0
   -1.3777  -11.5446    1.2832 O   0  0  0  0  0  0  0  0  0  0  0  0
   -1.6142   -9.2479   -1.6928 C   0  0  0  0  0  0  0  0  0  0  0  0
   -1.1086  -10.2001   -0.7677 C   0  0  0  0  0  0  0  0  0  0  0  0
   -1.8907  -10.5891    0.3514 C   0  0  0  0  0  0  0  0  0  0  0  0
   -3.1814  -10.0282    0.5475 C   0  0  0  0  0  0  0  0  0  0  0  0
   -3.6927   -9.0778   -0.3774 C   0  0  0  0  0  0  0  0  0  0  0  0
   -0.0380  -11.1932    1.6414 C   0  0  0  0  0  0  0  0  0  0  0  0
  1  4  1  0  0  0  0
  2  3  1  0  0  0  0
  3  5  1  0  0  0  0
  4  6  1  0  0  0  0
  5  8  1  0  0  0  0
  6  7  1  0  0  0  0
  7 10  1  0  0  0  0
  8  9  1  0  0  0  0
  9 12  1  0  0  0  0
  9 13  1  0  0  0  0
 10 11  1  0  0  0  0
 11 14  1  0  0  0  0
 14 15  1  0  0  0  0
 15 16  1  0  0  0  0
 15 17  1  0  0  0  0
 18  2  1  0  0  0  0
 18 20  2  0  0  0  0
 18 24  1  0  0  0  0
 19 25  1  0  0  0  0
 20  1  1  0  0  0  0
 20 21  1  0  0  0  0
 21 22  2  0  0  0  0
 22 19  1  0  0  0  0
 22 23  1  0  0  0  0
 23 24  2  0  0  0  0
M  END
>  <CHROM.1>
84.45305745,81.82035238,179.73253444,-154.01320951,-97.11438578,-170.31957372
-174.45784554,-102.99738497,-178.33173640,35.36595799,-162.47367439,146.85805610
-66.04446267,-82.88960526,-163.86982225,107.82353446,-114.90401422,47.35874285
-3.39985877,-10.45689444,-3.62923722,-1.49401195,0.53463330,-2.11603913

>  <Name>
1uud_lig

>  <RI>
0

>  <Rbt.Current_Directory>
/home/itssahil/PROJECTS/Mol_Feturizer/New_Systems/rnas/1uud

>  <Rbt.Executable>
rbdock ($Id: //depot/dev/client3/rdock/2013.1/src/exe/rbdock.cxx#4 $)

>  <Rbt.Library>
libRbt.so (2013.1, Build901 2013/11/27)

>  <Rbt.Parameter_File>
/export/apps/rDock/src/rDock_2013.1_src/data/scripts/dock_solv.prm

>  <Rbt.Receptor>
prm/pocket_docking_5.prm

>  <SCORE>
-29.0127

>  <SCORE.INTER>
-21.6757

>  <SCORE.INTER.CONST>
1

>  <SCORE.INTER.POLAR>
-4.65113

>  <SCORE.INTER.ROT>
18

>  <SCORE.INTER.SOLV>
10.4813

>  <SCORE.INTER.VDW>
-18.0405

>  <SCORE.INTER.norm>
-0.86703

>  <SCORE.INTRA>
-7.33697

>  <SCORE.INTRA.DIHEDRAL>
-7.06454

>  <SCORE.INTRA.DIHEDRAL.0>
30.6762

>  <SCORE.INTRA.POLAR>
0.0288659

>  <SCORE.INTRA.POLAR.0>
-0.0288659

>  <SCORE.INTRA.REPUL>
0

>  <SCORE.INTRA.REPUL.0>
0

>  <SCORE.INTRA.SOLV>
-1.29072

>  <SCORE.INTRA.SOLV.lig_0>
-25.2195

>  <SCORE.INTRA.VDW>
-3.25748

>  <SCORE.INTRA.VDW.0>
4.14263

>  <SCORE.INTRA.norm>
-0.293479

>  <SCORE.RESTR>
0

>  <SCORE.RESTR.CAVITY>
0

>  <SCORE.RESTR.norm>
0

>  <SCORE.SYSTEM>
0

>  <SCORE.SYSTEM.CONST>
0

>  <SCORE.SYSTEM.DIHEDRAL>
0

>  <SCORE.SYSTEM.SOLV>
0

>  <SCORE.SYSTEM.norm>
0

>  <SCORE.heavy>
25

>  <SCORE.norm>
-1.16051

>  <RMSD>
7.517

$$$$
1uud_lig
 OpenBabel11021811413D
libRbt.so/2013.1/901 2013/11/27
 25 25  0  0  0  0  0  0  0  0999 V2000
   -4.1337  -10.7682   -3.7261 C   0  0  0  0  0  0  0  0  0  0  0  0
   -5.3147   -9.5650   -1.3261 O   0  0  0  0  0  0  0  0  0  0  0  0
   -6.2242   -8.4563   -1.3888 C   0  0  0  0  0  0  0  0  0  0  0  0
   -4.2958  -10.2750   -5.1163 N   0  0  0  0  0  0  0  0  0  0  0  0
   -6.4144   -8.0092   -2.8445 C   0  0  0  0  0  0  0  0  0  0  0  0
   -3.6410  -11.2111   -6.0606 C   0  0  0  0  0  0  0  0  0  0  0  0
   -3.7673  -10.6698   -7.4898 C   0  0  0  0  0  0  0  0  0  0  0  0
   -6.9724   -8.9725   -3.5384 N   0  0  0  0  0  0  0  0  0  0  0  0
   -8.0536   -8.7621   -4.2655 C   0  0  0  0  0  0  0  0  0  0  0  0
   -3.1224  -11.6488   -8.4769 C   0  0  0  0  0  0  0  0  0  0  0  0
   -3.9861  -12.9088   -8.5859 C   0  0  0  0  0  0  0  0  0  0  0  0
   -9.3030   -9.0466   -3.7873 N   0  0  0  0  0  0  0  0  0  0  0  0
   -7.9222   -8.2528   -5.5175 N   0  0  0  0  0  0  0  0  0  0  0  0
   -3.2738  -13.8960   -9.0750 N   0  0  0  0  0  0  0  0  0  0  0  0
   -3.4856  -15.1459   -8.7097 C   0  0  0  0  0  0  0  0  0  0  0  0
   -4.1004  -15.9934   -9.5743 N   0  0  0  0  0  0  0  0  0  0  0  0
   -3.1101  -15.6041   -7.4788 N   0  0  0  0  0  0  0  0  0  0  0  0
   -4.0027   -9.1487   -1.7260 C   0  0  0  0  0  0  0  0  0  0  0  0
   -0.0737   -7.9261   -2.8745 O   0  0  0  0  0  0  0  0  0  0  0  0
   -3.3902   -9.7118   -2.8826 C   0  0  0  0  0  0  0  0  0  0  0  0
   -2.0802   -9.3096   -3.2573 C   0  0  0  0  0  0  0  0  0  0  0  0
   -1.3905   -8.3322   -2.4928 C   0  0  0  0  0  0  0  0  0  0  0  0
   -2.0082   -7.7557   -1.3504 C   0  0  0  0  0  0  0  0  0  0  0  0
   -3.3172   -8.1577   -0.9698 C   0  0  0  0  0  0  0  0  0  0  0  0
    0.8471   -8.9928   -2.6277 C   0  0  0  0  0  0  0  0  0  0  0  0
  1  4  1  0  0  0  0
  2  3  1  0  0  0  0
  3  5  1  0  0  0  0
  4  6  1  0  0  0  0
  5  8  1  0  0  0  0
  6  7  1  0  0  0  0
  7 10  1  0  0  0  0
  8  9  1  0  0  0  0
  9 12  1  0  0  0  0
  9 13  1  0  0  0  0
 10 11  1  0  0  0  0
 11 14  1  0  0  0  0
 14 15  1  0  0  0  0
 15 16  1  0  0  0  0
 15 17  1  0  0  0  0
 18  2  1  0  0  0  0
 18 20  2  0  0  0  0
 18 24  1  0  0  0  0
 19 25  1  0  0  0  0
 20  1  1  0  0  0  0
 20 21  1  0  0  0  0
 21 22  2  0  0  0  0
 22 19  1  0  0  0  0
 22 23  1  0  0  0  0
 23 24  2  0  0  0  0
M  END
>  <CHROM.1>
120.80765347,66.30177286,63.62297452,-177.93831087,127.91162572,-178.63138544
70.81493678,-96.56568350,-146.28467519,55.57620594,-160.53278133,147.03953482
106.09884267,-13.13677206,73.42005316,-117.06049598,120.44361356,-70.32079470
-4.14919862,-10.39749783,-4.68327402,-1.64507965,0.11819603,-2.29683039

>  <Name>
1uud_lig

>  <RI>
0

>  <Rbt.Current_Directory>
/home/itssahil/PROJECTS/Mol_Feturizer/New_Systems/rnas/1uud

>  <Rbt.Executable>
rbdock ($Id: //depot/dev/client3/rdock/2013.1/src/exe/rbdock.cxx#4 $)

>  <Rbt.Library>
libRbt.so (2013.1, Build901 2013/11/27)

>  <Rbt.Parameter_File>
/export/apps/rDock/src/rDock_2013.1_src/data/scripts/dock_solv.prm

>  <Rbt.Receptor>
prm/pocket_docking_6.prm

>  <SCORE>
-33.9284

>  <SCORE.INTER>
-25.77

>  <SCORE.INTER.CONST>
1

>  <SCORE.INTER.POLAR>
-4.49504

>  <SCORE.INTER.ROT>
18

>  <SCORE.INTER.SOLV>
13.2898

>  <SCORE.INTER.VDW>
-22.2265

>  <SCORE.INTER.norm>
-1.0308

>  <SCORE.INTRA>
-8.15838

>  <SCORE.INTRA.DIHEDRAL>
-6.70383

>  <SCORE.INTRA.DIHEDRAL.0>
30.6762

>  <SCORE.INTRA.POLAR>
0.0288659

>  <SCORE.INTRA.POLAR.0>
-0.0288659

>  <SCORE.INTRA.REPUL>
0

>  <SCORE.INTRA.REPUL.0>
0

>  <SCORE.INTRA.SOLV>
-0.187742

>  <SCORE.INTRA.SOLV.lig_0>
-25.2195

>  <SCORE.INTRA.VDW>
-4.81073

>  <SCORE.INTRA.VDW.0>
4.14263

>  <SCORE.INTRA.norm>
-0.326335

>  <SCORE.RESTR>
0

>  <SCORE.RESTR.CAVITY>
0

>  <SCORE.RESTR.norm>
0

>  <SCORE.SYSTEM>
0

>  <SCORE.SYSTEM.CONST>
0

>  <SCORE.SYSTEM.DIHEDRAL>
0

>  <SCORE.SYSTEM.SOLV>
0

>  <SCORE.SYSTEM.norm>
0

>  <SCORE.heavy>
25

>  <SCORE.norm>
-1.35714

>  <RMSD>
7.520

$$$$
1uud_lig
 OpenBabel11021811413D
libRbt.so/2013.1/901 2013/11/27
 25 25  0  0  0  0  0  0  0  0999 V2000
   -5.1392  -10.5107   -4.7892 C   0  0  0  0  0  0  0  0  0  0  0  0
   -2.6862  -10.0308   -3.2546 O   0  0  0  0  0  0  0  0  0  0  0  0
   -1.4644  -10.1629   -2.5129 C   0  0  0  0  0  0  0  0  0  0  0  0
   -5.3459  -10.8966   -3.3713 N   0  0  0  0  0  0  0  0  0  0  0  0
   -1.7595  -10.1906   -1.0071 C   0  0  0  0  0  0  0  0  0  0  0  0
   -6.3550  -10.0059   -2.7506 C   0  0  0  0  0  0  0  0  0  0  0  0
   -7.7529  -10.3855   -3.2540 C   0  0  0  0  0  0  0  0  0  0  0  0
   -0.7052  -10.6162   -0.3529 N   0  0  0  0  0  0  0  0  0  0  0  0
   -0.6100  -10.4926    0.9577 C   0  0  0  0  0  0  0  0  0  0  0  0
   -8.4623   -9.1447   -3.8072 C   0  0  0  0  0  0  0  0  0  0  0  0
   -7.7013   -8.6224   -5.0292 C   0  0  0  0  0  0  0  0  0  0  0  0
   -1.0581   -9.3740    1.6045 N   0  0  0  0  0  0  0  0  0  0  0  0
   -0.0532  -11.4988    1.6800 N   0  0  0  0  0  0  0  0  0  0  0  0
   -7.7196   -7.3106   -5.0381 N   0  0  0  0  0  0  0  0  0  0  0  0
   -6.6806   -6.6039   -4.6362 C   0  0  0  0  0  0  0  0  0  0  0  0
   -6.4903   -6.4034   -3.3068 N   0  0  0  0  0  0  0  0  0  0  0  0
   -5.7982   -6.0609   -5.5265 N   0  0  0  0  0  0  0  0  0  0  0  0
   -2.5902  -10.7460   -4.4930 C   0  0  0  0  0  0  0  0  0  0  0  0
   -2.2872  -12.9183   -8.1591 O   0  0  0  0  0  0  0  0  0  0  0  0
   -3.7580  -11.0051   -5.2669 C   0  0  0  0  0  0  0  0  0  0  0  0
   -3.6554  -11.7351   -6.4814 C   0  0  0  0  0  0  0  0  0  0  0  0
   -2.3882  -12.1873   -6.9343 C   0  0  0  0  0  0  0  0  0  0  0  0
   -1.2204  -11.9125   -6.1730 C   0  0  0  0  0  0  0  0  0  0  0  0
   -1.3188  -11.1857   -4.9556 C   0  0  0  0  0  0  0  0  0  0  0  0
   -1.6872  -12.0928   -9.1617 C   0  0  0  0  0  0  0  0  0  0  0  0
  1  4  1  0  0  0  0
  2  3  1  0  0  0  0
  3  5  1  0  0  0  0
  4  6  1  0  0  0  0
  5  8  1  0  0  0  0
  6  7  1  0  0  0  0
  7 10  1  0  0  0  0
  8  9  1  0  0  0  0
  9 12  1  0  0  0  0
  9 13  1  0  0  0  0
 10 11  1  0  0  0  0
 11 14  1  0  0  0  0
 14 15  1  0  0  0  0
 15 16  1  0  0  0  0
 15 17  1  0  0  0  0
 18  2  1  0  0  0  0
 18 20  2  0  0  0  0
 18 24  1  0  0  0  0
 19 25  1  0  0  0  0
 20  1  1  0  0  0  0
 20 21  1  0  0  0  0
 21 22  2  0  0  0  0
 22 19  1  0  0  0  0
 22 23  1  0  0  0  0
 23 24  2  0  0  0  0
M  END
>  <CHROM.1>
157.35607824,-146.27347824,165.45630382,74.59354633,166.91516262,-127.27668410
63.96125529,-38.84651081,69.21899085,-25.53604419,-142.67675985,101.04037446
-81.04488343,80.93345655,155.81053596,166.49758575,-49.33746123,107.60445398
-3.79487646,-10.03949658,-3.77445245,-2.59340102,-0.54377448,1.26133643

>  <Name>
1uud_lig

>  <RI>
0

>  <Rbt.Current_Directory>
/home/itssahil/PROJECTS/Mol_Feturizer/New_Systems/rnas/1uud

>  <Rbt.Executable>
rbdock ($Id: //depot/dev/client3/rdock/2013.1/src/exe/rbdock.cxx#4 $)

>  <Rbt.Library>
libRbt.so (2013.1, Build901 2013/11/27)

>  <Rbt.Parameter_File>
/export/apps/rDock/src/rDock_2013.1_src/data/scripts/dock_solv.prm

>  <Rbt.Receptor>
prm/pocket_docking_4.prm

>  <SCORE>
-24.6676

>  <SCORE.INTER>
-22.1547

>  <SCORE.INTER.CONST>
1

>  <SCORE.INTER.POLAR>
-3.71906

>  <SCORE.INTER.ROT>
18

>  <SCORE.INTER.SOLV>
10.129

>  <SCORE.INTER.VDW>
-21.3493

>  <SCORE.INTER.norm>
-0.886189

>  <SCORE.INTRA>
-2.51287

>  <SCORE.INTRA.DIHEDRAL>
0.144089

>  <SCORE.INTRA.DIHEDRAL.0>
30.6762

>  <SCORE.INTRA.POLAR>
-0.671132

>  <SCORE.INTRA.POLAR.0>
-0.0288659

>  <SCORE.INTRA.REPUL>
0

>  <SCORE.INTRA.REPUL.0>
0

>  <SCORE.INTRA.SOLV>
-0.592159

>  <SCORE.INTRA.SOLV.lig_0>
-25.2195

>  <SCORE.INTRA.VDW>
-0.006984

>  <SCORE.INTRA.VDW.0>
4.14263

>  <SCORE.INTRA.norm>
-0.100515

>  <SCORE.RESTR>
0

>  <SCORE.RESTR.CAVITY>
0

>  <SCORE.RESTR.norm>
0

>  <SCORE.SYSTEM>
0

>  <SCORE.SYSTEM.CONST>
0

>  <SCORE.SYSTEM.DIHEDRAL>
0

>  <SCORE.SYSTEM.SOLV>
0

>  <SCORE.SYSTEM.norm>
0

>  <SCORE.heavy>
25

>  <SCORE.norm>
-0.986704

>  <RMSD>
7.524

$$$$
1uud_lig
 OpenBabel11021811413D
libRbt.so/2013.1/901 2013/11/27
 25 25  0  0  0  0  0  0  0  0999 V2000
   -5.1930   -8.2725    2.1719 C   0  0  0  0  0  0  0  0  0  0  0  0
   -2.4947   -9.1709    1.4547 O   0  0  0  0  0  0  0  0  0  0  0  0
   -1.5518   -9.0863    0.3758 C   0  0  0  0  0  0  0  0  0  0  0  0
   -6.1770   -7.4929    1.3806 N   0  0  0  0  0  0  0  0  0  0  0  0
   -1.3860  -10.4584   -0.2912 C   0  0  0  0  0  0  0  0  0  0  0  0
   -7.3853   -8.3145    1.1322 C   0  0  0  0  0  0  0  0  0  0  0  0
   -7.1569   -9.2045   -0.0956 C   0  0  0  0  0  0  0  0  0  0  0  0
   -2.5512  -10.8991   -0.7022 N   0  0  0  0  0  0  0  0  0  0  0  0
   -3.0171  -10.6031   -1.9011 C   0  0  0  0  0  0  0  0  0  0  0  0
   -7.1593   -8.3489   -1.3671 C   0  0  0  0  0  0  0  0  0  0  0  0
   -6.9772   -9.2510   -2.5912 C   0  0  0  0  0  0  0  0  0  0  0  0
   -2.3569  -10.9809   -3.0378 N   0  0  0  0  0  0  0  0  0  0  0  0
   -4.1778   -9.9064   -2.0082 N   0  0  0  0  0  0  0  0  0  0  0  0
   -6.3209   -8.6059   -3.5262 N   0  0  0  0  0  0  0  0  0  0  0  0
   -6.6773   -8.6793   -4.7943 C   0  0  0  0  0  0  0  0  0  0  0  0
   -7.6501   -7.8531   -5.2577 N   0  0  0  0  0  0  0  0  0  0  0  0
   -6.0979   -9.5738   -5.6489 N   0  0  0  0  0  0  0  0  0  0  0  0
   -2.6466   -7.8889    2.0776 C   0  0  0  0  0  0  0  0  0  0  0  0
   -3.0806   -4.0461    3.8926 O   0  0  0  0  0  0  0  0  0  0  0  0
   -3.9401   -7.4123    2.4373 C   0  0  0  0  0  0  0  0  0  0  0  0
   -4.0822   -6.1304    3.0330 C   0  0  0  0  0  0  0  0  0  0  0  0
   -2.9351   -5.3342    3.2892 C   0  0  0  0  0  0  0  0  0  0  0  0
   -1.6429   -5.8169    2.9487 C   0  0  0  0  0  0  0  0  0  0  0  0
   -1.4963   -7.0973    2.3493 C   0  0  0  0  0  0  0  0  0  0  0  0
   -2.9488   -3.0311    2.8931 C   0  0  0  0  0  0  0  0  0  0  0  0
  1  4  1  0  0  0  0
  2  3  1  0  0  0  0
  3  5  1  0  0  0  0
  4  6  1  0  0  0  0
  5  8  1  0  0  0  0
  6  7  1  0  0  0  0
  7 10  1  0  0  0  0
  8  9  1  0  0  0  0
  9 12  1  0  0  0  0
  9 13  1  0  0  0  0
 10 11  1  0  0  0  0
 11 14  1  0  0  0  0
 14 15  1  0  0  0  0
 15 16  1  0  0  0  0
 15 17  1  0  0  0  0
 18  2  1  0  0  0  0
 18 20  2  0  0  0  0
 18 24  1  0  0  0  0
 19 25  1  0  0  0  0
 20  1  1  0  0  0  0
 20 21  1  0  0  0  0
 21 22  2  0  0  0  0
 22 19  1  0  0  0  0
 22 23  1  0  0  0  0
 23 24  2  0  0  0  0
M  END
>  <CHROM.1>
-179.62481586,179.91258635,56.64001543,-84.17810881,88.43469272,-71.39043997
-178.13378603,61.32240986,-14.04260621,7.86521293,-147.96816617,-137.52681112
84.54173173,88.99314961,-91.12722397,137.01456240,-125.58027299,-102.66984462
-4.32515140,-8.16895952,-0.17845909,1.13103114,-0.47633197,0.87851959

>  <Name>
1uud_lig

>  <RI>
0

>  <Rbt.Current_Directory>
/home/itssahil/PROJECTS/Mol_Feturizer/New_Systems/rnas/1uud

>  <Rbt.Executable>
rbdock ($Id: //depot/dev/client3/rdock/2013.1/src/exe/rbdock.cxx#4 $)

>  <Rbt.Library>
libRbt.so (2013.1, Build901 2013/11/27)

>  <Rbt.Parameter_File>
/export/apps/rDock/src/rDock_2013.1_src/data/scripts/dock_solv.prm

>  <Rbt.Receptor>
prm/pocket_docking_7.prm

>  <SCORE>
-21.6483

>  <SCORE.INTER>
-11.9966

>  <SCORE.INTER.CONST>
1

>  <SCORE.INTER.POLAR>
-2.74629

>  <SCORE.INTER.ROT>
18

>  <SCORE.INTER.SOLV>
7.58731

>  <SCORE.INTER.VDW>
-16.9725

>  <SCORE.INTER.norm>
-0.479864

>  <SCORE.INTRA>
-9.65174

>  <SCORE.INTRA.DIHEDRAL>
-8.63304

>  <SCORE.INTRA.DIHEDRAL.0>
30.6762

>  <SCORE.INTRA.POLAR>
-0.550747

>  <SCORE.INTRA.POLAR.0>
-0.0288659

>  <SCORE.INTRA.REPUL>
0.00837804

>  <SCORE.INTRA.REPUL.0>
0

>  <SCORE.INTRA.SOLV>
0.804166

>  <SCORE.INTRA.SOLV.lig_0>
-25.2195

>  <SCORE.INTRA.VDW>
-3.90665

>  <SCORE.INTRA.VDW.0>
4.14263

>  <SCORE.INTRA.norm>
-0.386069

>  <SCORE.RESTR>
0

>  <SCORE.RESTR.CAVITY>
0

>  <SCORE.RESTR.norm>
0

>  <SCORE.SYSTEM>
0

>  <SCORE.SYSTEM.CONST>
0

>  <SCORE.SYSTEM.DIHEDRAL>
0

>  <SCORE.SYSTEM.SOLV>
0

>  <SCORE.SYSTEM.norm>
0

>  <SCORE.heavy>
25

>  <SCORE.norm>
-0.865933

>  <RMSD>
7.565

$$$$
1uud_lig
 OpenBabel11021811413D
libRbt.so/2013.1/901 2013/11/27
 25 25  0  0  0  0  0  0  0  0999 V2000
   -1.9418  -11.0363   -3.3006 C   0  0  0  0  0  0  0  0  0  0  0  0
   -4.6790   -9.9931   -3.1525 O   0  0  0  0  0  0  0  0  0  0  0  0
   -4.8463   -8.6678   -3.6778 C   0  0  0  0  0  0  0  0  0  0  0  0
   -2.9334  -11.9315   -3.9467 N   0  0  0  0  0  0  0  0  0  0  0  0
   -5.5769   -8.7211   -5.0263 C   0  0  0  0  0  0  0  0  0  0  0  0
   -2.2916  -12.6721   -5.0587 C   0  0  0  0  0  0  0  0  0  0  0  0
   -3.3473  -13.0339   -6.1105 C   0  0  0  0  0  0  0  0  0  0  0  0
   -6.6732   -9.4326   -4.9126 N   0  0  0  0  0  0  0  0  0  0  0  0
   -7.8670   -8.8707   -4.9459 C   0  0  0  0  0  0  0  0  0  0  0  0
   -3.1747  -12.1471   -7.3485 C   0  0  0  0  0  0  0  0  0  0  0  0
   -4.1503  -12.5967   -8.4400 C   0  0  0  0  0  0  0  0  0  0  0  0
   -8.7319   -9.0907   -5.9823 N   0  0  0  0  0  0  0  0  0  0  0  0
   -8.2443   -8.0543   -3.9283 N   0  0  0  0  0  0  0  0  0  0  0  0
   -4.0683  -13.8959   -8.6030 N   0  0  0  0  0  0  0  0  0  0  0  0
   -2.9902  -14.4600   -9.1129 C   0  0  0  0  0  0  0  0  0  0  0  0
   -1.8893  -13.6986   -9.3410 N   0  0  0  0  0  0  0  0  0  0  0  0
   -2.9594  -15.7893   -9.4261 N   0  0  0  0  0  0  0  0  0  0  0  0
   -3.8673   -9.9560   -1.9717 C   0  0  0  0  0  0  0  0  0  0  0  0
   -1.4805   -9.8763    1.5705 O   0  0  0  0  0  0  0  0  0  0  0  0
   -2.5339  -10.4573   -1.9989 C   0  0  0  0  0  0  0  0  0  0  0  0
   -1.7454  -10.4373   -0.8173 C   0  0  0  0  0  0  0  0  0  0  0  0
   -2.2777   -9.8990    0.3837 C   0  0  0  0  0  0  0  0  0  0  0  0
   -3.6006   -9.3810    0.4069 C   0  0  0  0  0  0  0  0  0  0  0  0
   -4.3943   -9.4023   -0.7720 C   0  0  0  0  0  0  0  0  0  0  0  0
   -0.9990  -11.1942    1.8496 C   0  0  0  0  0  0  0  0  0  0  0  0
  1  4  1  0  0  0  0
  2  3  1  0  0  0  0
  3  5  1  0  0  0  0
  4  6  1  0  0  0  0
  5  8  1  0  0  0  0
  6  7  1  0  0  0  0
  7 10  1  0  0  0  0
  8  9  1  0  0  0  0
  9 12  1  0  0  0  0
  9 13  1  0  0  0  0
 10 11  1  0  0  0  0
 11 14  1  0  0  0  0
 14 15  1  0  0  0  0
 15 16  1  0  0  0  0
 15 17  1  0  0  0  0
 18  2  1  0  0  0  0
 18 20  2  0  0  0  0
 18 24  1  0  0  0  0
 19 25  1  0  0  0  0
 20  1  1  0  0  0  0
 20 21  1  0  0  0  0
 21 22  2  0  0  0  0
 22 19  1  0  0  0  0
 22 23  1  0  0  0  0
 23 24  2  0  0  0  0
M  END
>  <CHROM.1>
-170.05475799,173.53005995,51.23332043,-152.66200702,108.92253906,106.51436791
175.04047276,112.39636660,-57.74064057,-11.33858211,-49.22386479,-68.26530188
7.13180265,-69.73053184,-15.68102367,-108.21695454,-44.76899647,-54.19404042
-3.93039067,-11.02712609,-4.23817375,-1.50249701,0.58483350,-2.03943030

>  <Name>
1uud_lig

>  <RI>
0

>  <Rbt.Current_Directory>
/home/itssahil/PROJECTS/Mol_Feturizer/New_Systems/rnas/1uud

>  <Rbt.Executable>
rbdock ($Id: //depot/dev/client3/rdock/2013.1/src/exe/rbdock.cxx#4 $)

>  <Rbt.Library>
libRbt.so (2013.1, Build901 2013/11/27)

>  <Rbt.Parameter_File>
/export/apps/rDock/src/rDock_2013.1_src/data/scripts/dock_solv.prm

>  <Rbt.Receptor>
prm/pocket_docking_3.prm

>  <SCORE>
-33.1576

>  <SCORE.INTER>
-27.3302

>  <SCORE.INTER.CONST>
1

>  <SCORE.INTER.POLAR>
-4.36351

>  <SCORE.INTER.ROT>
18

>  <SCORE.INTER.SOLV>
14.3731

>  <SCORE.INTER.VDW>
-24.0662

>  <SCORE.INTER.norm>
-1.09321

>  <SCORE.INTRA>
-6.30897

>  <SCORE.INTRA.DIHEDRAL>
-5.2335

>  <SCORE.INTRA.DIHEDRAL.0>
30.6762

>  <SCORE.INTRA.POLAR>
-0.398694

>  <SCORE.INTRA.POLAR.0>
-0.0288659

>  <SCORE.INTRA.REPUL>
0

>  <SCORE.INTRA.REPUL.0>
0

>  <SCORE.INTRA.SOLV>
0.0223894

>  <SCORE.INTRA.SOLV.lig_0>
-25.2195

>  <SCORE.INTRA.VDW>
-2.34785

>  <SCORE.INTRA.VDW.0>
4.14263

>  <SCORE.INTRA.norm>
-0.252359

>  <SCORE.RESTR>
0.481643

>  <SCORE.RESTR.CAVITY>
0.481643

>  <SCORE.RESTR.norm>
0.0192657

>  <SCORE.SYSTEM>
0

>  <SCORE.SYSTEM.CONST>
0

>  <SCORE.SYSTEM.DIHEDRAL>
0

>  <SCORE.SYSTEM.SOLV>
0

>  <SCORE.SYSTEM.norm>
0

>  <SCORE.heavy>
25

>  <SCORE.norm>
-1.3263

>  <RMSD>
7.594

$$$$
1uud_lig
 OpenBabel11021811413D
libRbt.so/2013.1/901 2013/11/27
 25 25  0  0  0  0  0  0  0  0999 V2000
   -3.9580  -10.6171   -2.9166 C   0  0  0  0  0  0  0  0  0  0  0  0
   -4.2435   -7.8138   -2.1026 O   0  0  0  0  0  0  0  0  0  0  0  0
   -5.3851   -7.3601   -1.3601 C   0  0  0  0  0  0  0  0  0  0  0  0
   -3.1180  -11.6954   -3.4943 N   0  0  0  0  0  0  0  0  0  0  0  0
   -6.4416   -6.7844   -2.3128 C   0  0  0  0  0  0  0  0  0  0  0  0
   -3.7846  -12.2656   -4.6890 C   0  0  0  0  0  0  0  0  0  0  0  0
   -2.8007  -13.1678   -5.4437 C   0  0  0  0  0  0  0  0  0  0  0  0
   -7.0259   -7.7565   -2.9719 N   0  0  0  0  0  0  0  0  0  0  0  0
   -8.2114   -7.5969   -3.5296 C   0  0  0  0  0  0  0  0  0  0  0  0
   -3.4641  -13.7166   -6.7115 C   0  0  0  0  0  0  0  0  0  0  0  0
   -3.3519  -12.6832   -7.8361 C   0  0  0  0  0  0  0  0  0  0  0  0
   -9.1324   -8.6077   -3.5525 N   0  0  0  0  0  0  0  0  0  0  0  0
   -8.5231   -6.4020   -4.0947 N   0  0  0  0  0  0  0  0  0  0  0  0
   -4.3668  -11.8536   -7.7816 N   0  0  0  0  0  0  0  0  0  0  0  0
   -4.2966  -10.7219   -7.1072 C   0  0  0  0  0  0  0  0  0  0  0  0
   -5.3814  -10.2991   -6.4085 N   0  0  0  0  0  0  0  0  0  0  0  0
   -3.1621   -9.9611   -7.1040 N   0  0  0  0  0  0  0  0  0  0  0  0
   -3.4432   -8.6841   -1.2922 C   0  0  0  0  0  0  0  0  0  0  0  0
   -1.0900  -11.2707    1.1617 O   0  0  0  0  0  0  0  0  0  0  0  0
   -3.2827  -10.0541   -1.6489 C   0  0  0  0  0  0  0  0  0  0  0  0
   -2.5065  -10.9139   -0.8263 C   0  0  0  0  0  0  0  0  0  0  0  0
   -1.8740  -10.4041    0.3379 C   0  0  0  0  0  0  0  0  0  0  0  0
   -2.0175   -9.0334    0.6838 C   0  0  0  0  0  0  0  0  0  0  0  0
   -2.7960   -8.1704   -0.1342 C   0  0  0  0  0  0  0  0  0  0  0  0
    0.2780  -11.2185    0.7465 C   0  0  0  0  0  0  0  0  0  0  0  0
  1  4  1  0  0  0  0
  2  3  1  0  0  0  0
  3  5  1  0  0  0  0
  4  6  1  0  0  0  0
  5  8  1  0  0  0  0
  6  7  1  0  0  0  0
  7 10  1  0  0  0  0
  8  9  1  0  0  0  0
  9 12  1  0  0  0  0
  9 13  1  0  0  0  0
 10 11  1  0  0  0  0
 11 14  1  0  0  0  0
 14 15  1  0  0  0  0
 15 16  1  0  0  0  0
 15 17  1  0  0  0  0
 18  2  1  0  0  0  0
 18 20  2  0  0  0  0
 18 24  1  0  0  0  0
 19 25  1  0  0  0  0
 20  1  1  0  0  0  0
 20 21  1  0  0  0  0
 21 22  2  0  0  0  0
 22 19  1  0  0  0  0
 22 23  1  0  0  0  0
 23 24  2  0  0  0  0
M  END
>  <CHROM.1>
178.29797717,-163.36060181,73.04179322,168.53519892,158.94388673,-177.71438328
83.37931400,-143.31504251,-88.38533708,113.77182229,-87.45474775,92.14285119
-141.36873479,13.20410979,-66.12591409,115.54773968,148.11190462,92.37936049
-4.18784956,-9.95921920,-3.28850661,-1.03437271,0.64051878,-2.06244290

>  <Name>
1uud_lig

>  <RI>
0

>  <Rbt.Current_Directory>
/home/itssahil/PROJECTS/Mol_Feturizer/New_Systems/rnas/1uud

>  <Rbt.Executable>
rbdock ($Id: //depot/dev/client3/rdock/2013.1/src/exe/rbdock.cxx#4 $)

>  <Rbt.Library>
libRbt.so (2013.1, Build901 2013/11/27)

>  <Rbt.Parameter_File>
/export/apps/rDock/src/rDock_2013.1_src/data/scripts/dock_solv.prm

>  <Rbt.Receptor>
prm/pocket_docking_3.prm

>  <SCORE>
-32.5995

>  <SCORE.INTER>
-26.7895

>  <SCORE.INTER.CONST>
1

>  <SCORE.INTER.POLAR>
-5.04998

>  <SCORE.INTER.ROT>
18

>  <SCORE.INTER.SOLV>
10.5463

>  <SCORE.INTER.VDW>
-20.1418

>  <SCORE.INTER.norm>
-1.07158

>  <SCORE.INTRA>
-5.93023

>  <SCORE.INTRA.DIHEDRAL>
-4.93963

>  <SCORE.INTRA.DIHEDRAL.0>
30.6762

>  <SCORE.INTRA.POLAR>
0.0288659

>  <SCORE.INTRA.POLAR.0>
-0.0288659

>  <SCORE.INTRA.REPUL>
0

>  <SCORE.INTRA.REPUL.0>
0

>  <SCORE.INTRA.SOLV>
0.379741

>  <SCORE.INTRA.SOLV.lig_0>
-25.2195

>  <SCORE.INTRA.VDW>
-3.74843

>  <SCORE.INTRA.VDW.0>
4.14263

>  <SCORE.INTRA.norm>
-0.237209

>  <SCORE.RESTR>
0.12029

>  <SCORE.RESTR.CAVITY>
0.12029

>  <SCORE.RESTR.norm>
0.00481159

>  <SCORE.SYSTEM>
0

>  <SCORE.SYSTEM.CONST>
0

>  <SCORE.SYSTEM.DIHEDRAL>
0

>  <SCORE.SYSTEM.SOLV>
0

>  <SCORE.SYSTEM.norm>
0

>  <SCORE.heavy>
25

>  <SCORE.norm>
-1.30398

>  <RMSD>
7.607

$$$$
1uud_lig
 OpenBabel11021811413D
libRbt.so/2013.1/901 2013/11/27
 25 25  0  0  0  0  0  0  0  0999 V2000
   -2.9309  -11.0568   -4.5192 C   0  0  0  0  0  0  0  0  0  0  0  0
   -3.3280   -8.9921   -2.4743 O   0  0  0  0  0  0  0  0  0  0  0  0
   -4.2244   -7.9019   -2.7355 C   0  0  0  0  0  0  0  0  0  0  0  0
   -2.4410  -12.2472   -3.7809 N   0  0  0  0  0  0  0  0  0  0  0  0
   -4.8343   -8.0422   -4.1368 C   0  0  0  0  0  0  0  0  0  0  0  0
   -2.7432  -13.4760   -4.5525 C   0  0  0  0  0  0  0  0  0  0  0  0
   -1.4346  -14.1887   -4.9149 C   0  0  0  0  0  0  0  0  0  0  0  0
   -5.6664   -7.0537   -4.3629 N   0  0  0  0  0  0  0  0  0  0  0  0
   -6.9229   -7.2733   -4.7021 C   0  0  0  0  0  0  0  0  0  0  0  0
   -1.6934  -15.6868   -5.1083 C   0  0  0  0  0  0  0  0  0  0  0  0
   -1.8962  -15.9831   -6.5970 C   0  0  0  0  0  0  0  0  0  0  0  0
   -7.9598   -6.7371   -3.9893 N   0  0  0  0  0  0  0  0  0  0  0  0
   -7.1921   -8.0506   -5.7826 N   0  0  0  0  0  0  0  0  0  0  0  0
   -2.0525  -17.2732   -6.7771 N   0  0  0  0  0  0  0  0  0  0  0  0
   -1.7917  -17.8438   -7.9377 C   0  0  0  0  0  0  0  0  0  0  0  0
   -0.6605  -18.5826   -8.0730 N   0  0  0  0  0  0  0  0  0  0  0  0
   -2.6275  -17.7002   -9.0086 N   0  0  0  0  0  0  0  0  0  0  0  0
   -2.1791   -8.8999   -3.3263 C   0  0  0  0  0  0  0  0  0  0  0  0
    1.2751   -8.6301   -5.8255 O   0  0  0  0  0  0  0  0  0  0  0  0
   -1.9458   -9.8847   -4.3291 C   0  0  0  0  0  0  0  0  0  0  0  0
   -0.7919   -9.7971   -5.1531 C   0  0  0  0  0  0  0  0  0  0  0  0
    0.1166   -8.7181   -4.9921 C   0  0  0  0  0  0  0  0  0  0  0  0
   -0.1254   -7.7248   -4.0054 C   0  0  0  0  0  0  0  0  0  0  0  0
   -1.2768   -7.8104   -3.1764 C   0  0  0  0  0  0  0  0  0  0  0  0
    0.9481   -7.9275   -7.0280 C   0  0  0  0  0  0  0  0  0  0  0  0
  1  4  1  0  0  0  0
  2  3  1  0  0  0  0
  3  5  1  0  0  0  0
  4  6  1  0  0  0  0
  5  8  1  0  0  0  0
  6  7  1  0  0  0  0
  7 10  1  0  0  0  0
  8  9  1  0  0  0  0
  9 12  1  0  0  0  0
  9 13  1  0  0  0  0
 10 11  1  0  0  0  0
 11 14  1  0  0  0  0
 14 15  1  0  0  0  0
 15 16  1  0  0  0  0
 15 17  1  0  0  0  0
 18  2  1  0  0  0  0
 18 20  2  0  0  0  0
 18 24  1  0  0  0  0
 19 25  1  0  0  0  0
 20  1  1  0  0  0  0
 20 21  1  0  0  0  0
 21 22  2  0  0  0  0
 22 19  1  0  0  0  0
 22 23  1  0  0  0  0
 23 24  2  0  0  0  0
M  END
>  <CHROM.1>
-143.27608323,67.53114841,179.12963277,118.53828274,-124.16271989,154.04315828
96.02835805,124.65869458,4.70967129,130.00761936,176.89939537,-156.46235119
105.15437092,46.55062159,95.16527968,-113.68642241,-96.17118801,87.50334162
-2.62702464,-11.16230967,-5.13233425,1.83420157,0.05054476,0.30198873

>  <Name>
1uud_lig

>  <RI>
0

>  <Rbt.Current_Directory>
/home/itssahil/PROJECTS/Mol_Feturizer/New_Systems/rnas/1uud

>  <Rbt.Executable>
rbdock ($Id: //depot/dev/client3/rdock/2013.1/src/exe/rbdock.cxx#4 $)

>  <Rbt.Library>
libRbt.so (2013.1, Build901 2013/11/27)

>  <Rbt.Parameter_File>
/export/apps/rDock/src/rDock_2013.1_src/data/scripts/dock_solv.prm

>  <Rbt.Receptor>
prm/pocket_docking_6.prm

>  <SCORE>
-20.0027

>  <SCORE.INTER>
-15.9146

>  <SCORE.INTER.CONST>
1

>  <SCORE.INTER.POLAR>
-4.43385

>  <SCORE.INTER.ROT>
18

>  <SCORE.INTER.SOLV>
8.25386

>  <SCORE.INTER.VDW>
-14.1815

>  <SCORE.INTER.norm>
-0.636583

>  <SCORE.INTRA>
-4.08817

>  <SCORE.INTRA.DIHEDRAL>
1.00859

>  <SCORE.INTRA.DIHEDRAL.0>
30.6762

>  <SCORE.INTRA.POLAR>
0.0288659

>  <SCORE.INTRA.POLAR.0>
-0.0288659

>  <SCORE.INTRA.REPUL>
0

>  <SCORE.INTRA.REPUL.0>
0

>  <SCORE.INTRA.SOLV>
-1.49427

>  <SCORE.INTRA.SOLV.lig_0>
-25.2195

>  <SCORE.INTRA.VDW>
-3.94347

>  <SCORE.INTRA.VDW.0>
4.14263

>  <SCORE.INTRA.norm>
-0.163527

>  <SCORE.RESTR>
0

>  <SCORE.RESTR.CAVITY>
0

>  <SCORE.RESTR.norm>
0

>  <SCORE.SYSTEM>
0

>  <SCORE.SYSTEM.CONST>
0

>  <SCORE.SYSTEM.DIHEDRAL>
0

>  <SCORE.SYSTEM.SOLV>
0

>  <SCORE.SYSTEM.norm>
0

>  <SCORE.heavy>
25

>  <SCORE.norm>
-0.80011

>  <RMSD>
7.607

$$$$
1uud_lig
 OpenBabel11021811413D
libRbt.so/2013.1/901 2013/11/27
 25 25  0  0  0  0  0  0  0  0999 V2000
   -3.3790  -11.4369   -3.5930 C   0  0  0  0  0  0  0  0  0  0  0  0
   -1.5577  -11.0586   -1.3254 O   0  0  0  0  0  0  0  0  0  0  0  0
   -2.1044  -11.1759   -0.0034 C   0  0  0  0  0  0  0  0  0  0  0  0
   -3.1567  -11.5221   -5.0578 N   0  0  0  0  0  0  0  0  0  0  0  0
   -1.1426  -10.5631    1.0236 C   0  0  0  0  0  0  0  0  0  0  0  0
   -3.3209  -12.9241   -5.5098 C   0  0  0  0  0  0  0  0  0  0  0  0
   -3.2346  -12.9831   -7.0397 C   0  0  0  0  0  0  0  0  0  0  0  0
   -0.0196  -11.2408    1.0439 N   0  0  0  0  0  0  0  0  0  0  0  0
    1.1526  -10.6345    1.0245 C   0  0  0  0  0  0  0  0  0  0  0  0
   -3.3848  -14.4325   -7.5147 C   0  0  0  0  0  0  0  0  0  0  0  0
   -3.3320  -14.4777   -9.0445 C   0  0  0  0  0  0  0  0  0  0  0  0
    1.2517   -9.2704    1.0123 N   0  0  0  0  0  0  0  0  0  0  0  0
    2.2861  -11.3824    1.0151 N   0  0  0  0  0  0  0  0  0  0  0  0
   -2.1548  -14.0758   -9.4615 N   0  0  0  0  0  0  0  0  0  0  0  0
   -1.1792  -14.9311   -9.7006 C   0  0  0  0  0  0  0  0  0  0  0  0
   -0.5717  -15.5514   -8.6567 N   0  0  0  0  0  0  0  0  0  0  0  0
   -0.7595  -15.1993  -10.9727 N   0  0  0  0  0  0  0  0  0  0  0  0
   -2.0899   -9.8982   -1.9771 C   0  0  0  0  0  0  0  0  0  0  0  0
   -3.6294   -6.4262   -3.9329 O   0  0  0  0  0  0  0  0  0  0  0  0
   -2.9739  -10.0373   -3.0858 C   0  0  0  0  0  0  0  0  0  0  0  0
   -3.4776   -8.8810   -3.7395 C   0  0  0  0  0  0  0  0  0  0  0  0
   -3.1178   -7.5884   -3.2756 C   0  0  0  0  0  0  0  0  0  0  0  0
   -2.2518   -7.4486   -2.1578 C   0  0  0  0  0  0  0  0  0  0  0  0
   -1.7427   -8.6027   -1.5030 C   0  0  0  0  0  0  0  0  0  0  0  0
   -5.0222   -6.2837   -3.6392 C   0  0  0  0  0  0  0  0  0  0  0  0
  1  4  1  0  0  0  0
  2  3  1  0  0  0  0
  3  5  1  0  0  0  0
  4  6  1  0  0  0  0
  5  8  1  0  0  0  0
  6  7  1  0  0  0  0
  7 10  1  0  0  0  0
  8  9  1  0  0  0  0
  9 12  1  0  0  0  0
  9 13  1  0  0  0  0
 10 11  1  0  0  0  0
 11 14  1  0  0  0  0
 14 15  1  0  0  0  0
 15 16  1  0  0  0  0
 15 17  1  0  0  0  0
 18  2  1  0  0  0  0
 18 20  2  0  0  0  0
 18 24  1  0  0  0  0
 19 25  1  0  0  0  0
 20  1  1  0  0  0  0
 20 21  1  0  0  0  0
 21 22  2  0  0  0  0
 22 19  1  0  0  0  0
 22 23  1  0  0  0  0
 23 24  2  0  0  0  0
M  END
>  <CHROM.1>
170.34264878,-96.20017373,-63.98448473,174.16520852,133.54341665,179.25176616
178.61694118,1.47213047,-138.22830622,-172.08716832,63.71883171,93.45144963
-71.37619054,141.87498256,75.31565206,-111.63953800,-128.91961274,71.71252458
-1.90560446,-11.17600647,-3.87988280,1.74756180,0.83567598,-2.21948893

>  <Name>
1uud_lig

>  <RI>
0

>  <Rbt.Current_Directory>
/home/itssahil/PROJECTS/Mol_Feturizer/New_Systems/rnas/1uud

>  <Rbt.Executable>
rbdock ($Id: //depot/dev/client3/rdock/2013.1/src/exe/rbdock.cxx#4 $)

>  <Rbt.Library>
libRbt.so (2013.1, Build901 2013/11/27)

>  <Rbt.Parameter_File>
/export/apps/rDock/src/rDock_2013.1_src/data/scripts/dock_solv.prm

>  <Rbt.Receptor>
prm/pocket_docking_6.prm

>  <SCORE>
-23.0147

>  <SCORE.INTER>
-15.008

>  <SCORE.INTER.CONST>
1

>  <SCORE.INTER.POLAR>
-2.32997

>  <SCORE.INTER.ROT>
18

>  <SCORE.INTER.SOLV>
10.4741

>  <SCORE.INTER.VDW>
-21.3301

>  <SCORE.INTER.norm>
-0.60032

>  <SCORE.INTRA>
-8.00674

>  <SCORE.INTRA.DIHEDRAL>
-6.71173

>  <SCORE.INTRA.DIHEDRAL.0>
30.6762

>  <SCORE.INTRA.POLAR>
0.0288659

>  <SCORE.INTRA.POLAR.0>
-0.0288659

>  <SCORE.INTRA.REPUL>
0

>  <SCORE.INTRA.REPUL.0>
0

>  <SCORE.INTRA.SOLV>
-0.58481

>  <SCORE.INTRA.SOLV.lig_0>
-25.2195

>  <SCORE.INTRA.VDW>
-4.45661

>  <SCORE.INTRA.VDW.0>
4.14263

>  <SCORE.INTRA.norm>
-0.32027

>  <SCORE.RESTR>
0

>  <SCORE.RESTR.CAVITY>
0

>  <SCORE.RESTR.norm>
0

>  <SCORE.SYSTEM>
0

>  <SCORE.SYSTEM.CONST>
0

>  <SCORE.SYSTEM.DIHEDRAL>
0

>  <SCORE.SYSTEM.SOLV>
0

>  <SCORE.SYSTEM.norm>
0

>  <SCORE.heavy>
25

>  <SCORE.norm>
-0.920589

>  <RMSD>
7.613

$$$$
1uud_lig
 OpenBabel11021811413D
libRbt.so/2013.1/901 2013/11/27
 25 25  0  0  0  0  0  0  0  0999 V2000
   -1.6225   -9.4849   -3.5978 C   0  0  0  0  0  0  0  0  0  0  0  0
   -3.4025   -7.5304   -2.3274 O   0  0  0  0  0  0  0  0  0  0  0  0
   -4.7673   -7.3224   -1.9345 C   0  0  0  0  0  0  0  0  0  0  0  0
   -1.5025  -10.8715   -4.1128 N   0  0  0  0  0  0  0  0  0  0  0  0
   -5.4525   -6.3442   -2.8983 C   0  0  0  0  0  0  0  0  0  0  0  0
   -2.7736  -11.2797   -4.7565 C   0  0  0  0  0  0  0  0  0  0  0  0
   -3.0506  -12.7572   -4.4533 C   0  0  0  0  0  0  0  0  0  0  0  0
   -6.7373   -6.2882   -2.6396 N   0  0  0  0  0  0  0  0  0  0  0  0
   -7.5960   -7.0979   -3.2304 C   0  0  0  0  0  0  0  0  0  0  0  0
   -1.8380  -13.6067   -4.8493 C   0  0  0  0  0  0  0  0  0  0  0  0
   -1.7879  -13.7477   -6.3734 C   0  0  0  0  0  0  0  0  0  0  0  0
   -8.1681   -6.7799   -4.4313 N   0  0  0  0  0  0  0  0  0  0  0  0
   -7.9197   -8.2729   -2.6314 N   0  0  0  0  0  0  0  0  0  0  0  0
   -2.8990  -14.2943   -6.8070 N   0  0  0  0  0  0  0  0  0  0  0  0
   -3.4039  -13.9870   -7.9864 C   0  0  0  0  0  0  0  0  0  0  0  0
   -3.7227  -12.6946   -8.2540 N   0  0  0  0  0  0  0  0  0  0  0  0
   -3.6227  -14.9400   -8.9403 N   0  0  0  0  0  0  0  0  0  0  0  0
   -2.8038   -8.5441   -1.5098 C   0  0  0  0  0  0  0  0  0  0  0  0
   -1.0654  -11.5834    0.9378 O   0  0  0  0  0  0  0  0  0  0  0  0
   -1.9372   -9.5161   -2.0878 C   0  0  0  0  0  0  0  0  0  0  0  0
   -1.3673  -10.5307   -1.2729 C   0  0  0  0  0  0  0  0  0  0  0  0
   -1.6436  -10.5636    0.1192 C   0  0  0  0  0  0  0  0  0  0  0  0
   -2.4922   -9.5830    0.7000 C   0  0  0  0  0  0  0  0  0  0  0  0
   -3.0674   -8.5682   -0.1121 C   0  0  0  0  0  0  0  0  0  0  0  0
    0.1355  -11.0913    1.5397 C   0  0  0  0  0  0  0  0  0  0  0  0
  1  4  1  0  0  0  0
  2  3  1  0  0  0  0
  3  5  1  0  0  0  0
  4  6  1  0  0  0  0
  5  8  1  0  0  0  0
  6  7  1  0  0  0  0
  7 10  1  0  0  0  0
  8  9  1  0  0  0  0
  9 12  1  0  0  0  0
  9 13  1  0  0  0  0
 10 11  1  0  0  0  0
 11 14  1  0  0  0  0
 14 15  1  0  0  0  0
 15 16  1  0  0  0  0
 15 17  1  0  0  0  0
 18  2  1  0  0  0  0
 18 20  2  0  0  0  0
 18 24  1  0  0  0  0
 19 25  1  0  0  0  0
 20  1  1  0  0  0  0
 20 21  1  0  0  0  0
 21 22  2  0  0  0  0
 22 19  1  0  0  0  0
 22 23  1  0  0  0  0
 23 24  2  0  0  0  0
M  END
>  <CHROM.1>
98.45952462,-174.20499415,172.01441155,-142.52814239,-90.17621921,-53.48032046
-75.12409362,-87.89238339,38.27802094,-76.22729799,-58.19915385,147.76368209
-58.63367200,-49.27513871,1.09130613,139.32857618,-143.99808054,95.20115834
-3.43140446,-10.31764703,-3.35792112,-1.84571473,0.68693710,-2.19889103

>  <Name>
1uud_lig

>  <RI>
0

>  <Rbt.Current_Directory>
/home/itssahil/PROJECTS/Mol_Feturizer/New_Systems/rnas/1uud

>  <Rbt.Executable>
rbdock ($Id: //depot/dev/client3/rdock/2013.1/src/exe/rbdock.cxx#4 $)

>  <Rbt.Library>
libRbt.so (2013.1, Build901 2013/11/27)

>  <Rbt.Parameter_File>
/export/apps/rDock/src/rDock_2013.1_src/data/scripts/dock_solv.prm

>  <Rbt.Receptor>
prm/pocket_docking_3.prm

>  <SCORE>
-23.2137

>  <SCORE.INTER>
-18.108

>  <SCORE.INTER.CONST>
1

>  <SCORE.INTER.POLAR>
-4.05861

>  <SCORE.INTER.ROT>
18

>  <SCORE.INTER.SOLV>
9.06786

>  <SCORE.INTER.VDW>
-17.1659

>  <SCORE.INTER.norm>
-0.724321

>  <SCORE.INTRA>
-5.12671

>  <SCORE.INTRA.DIHEDRAL>
-7.05087

>  <SCORE.INTRA.DIHEDRAL.0>
30.6762

>  <SCORE.INTRA.POLAR>
0.0288659

>  <SCORE.INTRA.POLAR.0>
-0.0288659

>  <SCORE.INTRA.REPUL>
0

>  <SCORE.INTRA.REPUL.0>
0

>  <SCORE.INTRA.SOLV>
-0.782365

>  <SCORE.INTRA.SOLV.lig_0>
-25.2195

>  <SCORE.INTRA.VDW>
-1.30824

>  <SCORE.INTRA.VDW.0>
4.14263

>  <SCORE.INTRA.norm>
-0.205068

>  <SCORE.RESTR>
0.0209918

>  <SCORE.RESTR.CAVITY>
0.0209918

>  <SCORE.RESTR.norm>
0.000839672

>  <SCORE.SYSTEM>
0

>  <SCORE.SYSTEM.CONST>
0

>  <SCORE.SYSTEM.DIHEDRAL>
0

>  <SCORE.SYSTEM.SOLV>
0

>  <SCORE.SYSTEM.norm>
0

>  <SCORE.heavy>
25

>  <SCORE.norm>
-0.92855

>  <RMSD>
7.614

$$$$
1uud_lig
 OpenBabel11021811413D
libRbt.so/2013.1/901 2013/11/27
 25 25  0  0  0  0  0  0  0  0999 V2000
   -2.4934  -10.1624   -0.5734 C   0  0  0  0  0  0  0  0  0  0  0  0
   -0.5783   -8.1888   -1.5930 O   0  0  0  0  0  0  0  0  0  0  0  0
    0.7515   -8.4807   -1.1385 C   0  0  0  0  0  0  0  0  0  0  0  0
   -3.4457   -9.0344   -0.4219 N   0  0  0  0  0  0  0  0  0  0  0  0
    0.7210   -9.6164   -0.1068 C   0  0  0  0  0  0  0  0  0  0  0  0
   -4.8349   -9.5504   -0.3954 C   0  0  0  0  0  0  0  0  0  0  0  0
   -5.8188   -8.3741   -0.3905 C   0  0  0  0  0  0  0  0  0  0  0  0
    1.9452   -9.9704    0.2043 N   0  0  0  0  0  0  0  0  0  0  0  0
    2.1853  -10.9779    1.0224 C   0  0  0  0  0  0  0  0  0  0  0  0
   -5.7110   -7.5990   -1.7081 C   0  0  0  0  0  0  0  0  0  0  0  0
   -6.9177   -6.6674   -1.8540 C   0  0  0  0  0  0  0  0  0  0  0  0
    3.4561  -11.4342    1.2406 N   0  0  0  0  0  0  0  0  0  0  0  0
    1.1466  -11.5757    1.6611 N   0  0  0  0  0  0  0  0  0  0  0  0
   -8.0001   -7.3729   -2.0822 N   0  0  0  0  0  0  0  0  0  0  0  0
   -8.4203   -7.6131   -3.3094 C   0  0  0  0  0  0  0  0  0  0  0  0
   -9.4374   -8.4920   -3.5010 N   0  0  0  0  0  0  0  0  0  0  0  0
   -7.8495   -7.0061   -4.3919 N   0  0  0  0  0  0  0  0  0  0  0  0
   -1.0341   -9.2208   -2.4772 C   0  0  0  0  0  0  0  0  0  0  0  0
   -2.3452  -12.3140   -5.1160 O   0  0  0  0  0  0  0  0  0  0  0  0
   -1.9602  -10.2025   -2.0206 C   0  0  0  0  0  0  0  0  0  0  0  0
   -2.3880  -11.2349   -2.8978 C   0  0  0  0  0  0  0  0  0  0  0  0
   -1.9099  -11.2762   -4.2339 C   0  0  0  0  0  0  0  0  0  0  0  0
   -1.0014  -10.2863   -4.6960 C   0  0  0  0  0  0  0  0  0  0  0  0
   -0.5680   -9.2537   -3.8208 C   0  0  0  0  0  0  0  0  0  0  0  0
   -1.3211  -13.3063   -5.2307 C   0  0  0  0  0  0  0  0  0  0  0  0
  1  4  1  0  0  0  0
  2  3  1  0  0  0  0
  3  5  1  0  0  0  0
  4  6  1  0  0  0  0
  5  8  1  0  0  0  0
  6  7  1  0  0  0  0
  7 10  1  0  0  0  0
  8  9  1  0  0  0  0
  9 12  1  0  0  0  0
  9 13  1  0  0  0  0
 10 11  1  0  0  0  0
 11 14  1  0  0  0  0
 14 15  1  0  0  0  0
 15 16  1  0  0  0  0
 15 17  1  0  0  0  0
 18  2  1  0  0  0  0
 18 20  2  0  0  0  0
 18 24  1  0  0  0  0
 19 25  1  0  0  0  0
 20  1  1  0  0  0  0
 20 21  1  0  0  0  0
 21 22  2  0  0  0  0
 22 19  1  0  0  0  0
 22 23  1  0  0  0  0
 23 24  2  0  0  0  0
M  END
>  <CHROM.1>
104.21117688,-73.99905965,173.66943234,-173.97157837,-176.42243559,65.24567870
165.52744729,173.23420885,150.95090942,-39.17373296,-70.64383195,-93.67836294
171.27302854,-169.29481666,33.44047000,103.34693089,72.42127357,-101.98370754
-2.65947218,-9.56342509,-1.88086259,0.09622244,-0.39220188,1.10229969

>  <Name>
1uud_lig

>  <RI>
0

>  <Rbt.Current_Directory>
/home/itssahil/PROJECTS/Mol_Feturizer/New_Systems/rnas/1uud

>  <Rbt.Executable>
rbdock ($Id: //depot/dev/client3/rdock/2013.1/src/exe/rbdock.cxx#4 $)

>  <Rbt.Library>
libRbt.so (2013.1, Build901 2013/11/27)

>  <Rbt.Parameter_File>
/export/apps/rDock/src/rDock_2013.1_src/data/scripts/dock_solv.prm

>  <Rbt.Receptor>
prm/pocket_docking_4.prm

>  <SCORE>
-37.2873

>  <SCORE.INTER>
-31.7399

>  <SCORE.INTER.CONST>
1

>  <SCORE.INTER.POLAR>
-5.32642

>  <SCORE.INTER.ROT>
18

>  <SCORE.INTER.SOLV>
13.5501

>  <SCORE.INTER.VDW>
-23.5219

>  <SCORE.INTER.norm>
-1.2696

>  <SCORE.INTRA>
-5.54737

>  <SCORE.INTRA.DIHEDRAL>
-5.70338

>  <SCORE.INTRA.DIHEDRAL.0>
30.6762

>  <SCORE.INTRA.POLAR>
0.0288659

>  <SCORE.INTRA.POLAR.0>
-0.0288659

>  <SCORE.INTRA.REPUL>
0

>  <SCORE.INTRA.REPUL.0>
0

>  <SCORE.INTRA.SOLV>
-0.927899

>  <SCORE.INTRA.SOLV.lig_0>
-25.2195

>  <SCORE.INTRA.VDW>
-2.32988

>  <SCORE.INTRA.VDW.0>
4.14263

>  <SCORE.INTRA.norm>
-0.221895

>  <SCORE.RESTR>
0

>  <SCORE.RESTR.CAVITY>
0

>  <SCORE.RESTR.norm>
0

>  <SCORE.SYSTEM>
0

>  <SCORE.SYSTEM.CONST>
0

>  <SCORE.SYSTEM.DIHEDRAL>
0

>  <SCORE.SYSTEM.SOLV>
0

>  <SCORE.SYSTEM.norm>
0

>  <SCORE.heavy>
25

>  <SCORE.norm>
-1.49149

>  <RMSD>
7.633

$$$$
1uud_lig
 OpenBabel11021811413D
libRbt.so/2013.1/901 2013/11/27
 25 25  0  0  0  0  0  0  0  0999 V2000
   -0.4692   -8.9315   -4.2473 C   0  0  0  0  0  0  0  0  0  0  0  0
    0.7228   -7.3994   -2.0486 O   0  0  0  0  0  0  0  0  0  0  0  0
   -0.0129   -7.9322   -0.9372 C   0  0  0  0  0  0  0  0  0  0  0  0
   -1.0119   -9.3661   -5.5583 N   0  0  0  0  0  0  0  0  0  0  0  0
    0.9310   -8.6841    0.0108 C   0  0  0  0  0  0  0  0  0  0  0  0
   -0.8525  -10.8321   -5.7067 C   0  0  0  0  0  0  0  0  0  0  0  0
   -1.1418  -11.2352   -7.1577 C   0  0  0  0  0  0  0  0  0  0  0  0
    0.2538   -9.1672    1.0251 N   0  0  0  0  0  0  0  0  0  0  0  0
   -0.2305  -10.3949    1.0095 C   0  0  0  0  0  0  0  0  0  0  0  0
   -1.2317  -12.7612   -7.2666 C   0  0  0  0  0  0  0  0  0  0  0  0
   -1.3785  -13.1614   -8.7375 C   0  0  0  0  0  0  0  0  0  0  0  0
    0.4236  -11.4291    1.6203 N   0  0  0  0  0  0  0  0  0  0  0  0
   -1.4045  -10.6367    0.3711 N   0  0  0  0  0  0  0  0  0  0  0  0
   -2.4720  -12.6346   -9.2355 N   0  0  0  0  0  0  0  0  0  0  0  0
   -3.6680  -13.0557   -8.8709 C   0  0  0  0  0  0  0  0  0  0  0  0
   -4.0124  -14.3492   -9.0983 N   0  0  0  0  0  0  0  0  0  0  0  0
   -4.5708  -12.2183   -8.2795 N   0  0  0  0  0  0  0  0  0  0  0  0
   -0.1655   -6.7260   -2.9497 C   0  0  0  0  0  0  0  0  0  0  0  0
   -2.7751   -4.6887   -5.6497 O   0  0  0  0  0  0  0  0  0  0  0  0
   -0.7619   -7.4318   -4.0342 C   0  0  0  0  0  0  0  0  0  0  0  0
   -1.6226   -6.7497   -4.9354 C   0  0  0  0  0  0  0  0  0  0  0  0
   -1.9052   -5.3718   -4.7435 C   0  0  0  0  0  0  0  0  0  0  0  0
   -1.3263   -4.6717   -3.6509 C   0  0  0  0  0  0  0  0  0  0  0  0
   -0.4618   -5.3492   -2.7489 C   0  0  0  0  0  0  0  0  0  0  0  0
   -3.9850   -4.3316   -4.9751 C   0  0  0  0  0  0  0  0  0  0  0  0
  1  4  1  0  0  0  0
  2  3  1  0  0  0  0
  3  5  1  0  0  0  0
  4  6  1  0  0  0  0
  5  8  1  0  0  0  0
  6  7  1  0  0  0  0
  7 10  1  0  0  0  0
  8  9  1  0  0  0  0
  9 12  1  0  0  0  0
  9 13  1  0  0  0  0
 10 11  1  0  0  0  0
 11 14  1  0  0  0  0
 14 15  1  0  0  0  0
 15 16  1  0  0  0  0
 15 17  1  0  0  0  0
 18  2  1  0  0  0  0
 18 20  2  0  0  0  0
 18 24  1  0  0  0  0
 19 25  1  0  0  0  0
 20  1  1  0  0  0  0
 20 21  1  0  0  0  0
 21 22  2  0  0  0  0
 22 19  1  0  0  0  0
 22 23  1  0  0  0  0
 23 24  2  0  0  0  0
M  END
>  <CHROM.1>
-174.38638069,178.57351198,179.91821240,-168.40969922,93.19860348,-169.71919501
-174.29567664,98.19763997,0.42067470,-130.70962353,-60.43567474,-70.13514991
-60.86757983,-12.78766798,124.15561481,-91.22875968,-170.22489253,112.09960854
-1.36004286,-9.26844665,-4.27934863,0.68988612,-1.20512622,0.16537860

>  <Name>
1uud_lig

>  <RI>
0

>  <Rbt.Current_Directory>
/home/itssahil/PROJECTS/Mol_Feturizer/New_Systems/rnas/1uud

>  <Rbt.Executable>
rbdock ($Id: //depot/dev/client3/rdock/2013.1/src/exe/rbdock.cxx#4 $)

>  <Rbt.Library>
libRbt.so (2013.1, Build901 2013/11/27)

>  <Rbt.Parameter_File>
/export/apps/rDock/src/rDock_2013.1_src/data/scripts/dock_solv.prm

>  <Rbt.Receptor>
prm/pocket_docking_6.prm

>  <SCORE>
-32.5371

>  <SCORE.INTER>
-22.715

>  <SCORE.INTER.CONST>
1

>  <SCORE.INTER.POLAR>
-5.01382

>  <SCORE.INTER.ROT>
18

>  <SCORE.INTER.SOLV>
10.5213

>  <SCORE.INTER.VDW>
-17.5377

>  <SCORE.INTER.norm>
-0.908602

>  <SCORE.INTRA>
-9.82206

>  <SCORE.INTRA.DIHEDRAL>
-10.5077

>  <SCORE.INTRA.DIHEDRAL.0>
30.6762

>  <SCORE.INTRA.POLAR>
0.0288659

>  <SCORE.INTRA.POLAR.0>
-0.0288659

>  <SCORE.INTRA.REPUL>
0

>  <SCORE.INTRA.REPUL.0>
0

>  <SCORE.INTRA.SOLV>
-0.887368

>  <SCORE.INTRA.SOLV.lig_0>
-25.2195

>  <SCORE.INTRA.VDW>
-4.22269

>  <SCORE.INTRA.VDW.0>
4.14263

>  <SCORE.INTRA.norm>
-0.392882

>  <SCORE.RESTR>
0

>  <SCORE.RESTR.CAVITY>
0

>  <SCORE.RESTR.norm>
0

>  <SCORE.SYSTEM>
0

>  <SCORE.SYSTEM.CONST>
0

>  <SCORE.SYSTEM.DIHEDRAL>
0

>  <SCORE.SYSTEM.SOLV>
0

>  <SCORE.SYSTEM.norm>
0

>  <SCORE.heavy>
25

>  <SCORE.norm>
-1.30148

>  <RMSD>
7.642

$$$$
1uud_lig
 OpenBabel11021811413D
libRbt.so/2013.1/901 2013/11/27
 25 25  0  0  0  0  0  0  0  0999 V2000
   -2.8004   -6.3342   -6.9850 C   0  0  0  0  0  0  0  0  0  0  0  0
   -5.3761   -6.2340   -5.5855 O   0  0  0  0  0  0  0  0  0  0  0  0
   -5.1581   -5.9835   -4.1891 C   0  0  0  0  0  0  0  0  0  0  0  0
   -3.5779   -7.5610   -7.2896 N   0  0  0  0  0  0  0  0  0  0  0  0
   -6.3492   -5.2187   -3.5962 C   0  0  0  0  0  0  0  0  0  0  0  0
   -3.2769   -8.6084   -6.2851 C   0  0  0  0  0  0  0  0  0  0  0  0
   -1.9460   -9.2858   -6.6335 C   0  0  0  0  0  0  0  0  0  0  0  0
   -7.4726   -5.7114   -4.0610 N   0  0  0  0  0  0  0  0  0  0  0  0
   -8.1081   -6.6866   -3.4389 C   0  0  0  0  0  0  0  0  0  0  0  0
   -2.0857  -10.0653   -7.9456 C   0  0  0  0  0  0  0  0  0  0  0  0
   -3.0617  -11.2287   -7.7481 C   0  0  0  0  0  0  0  0  0  0  0  0
   -8.5449   -6.5472   -2.1503 N   0  0  0  0  0  0  0  0  0  0  0  0
   -8.3320   -7.8555   -4.0928 N   0  0  0  0  0  0  0  0  0  0  0  0
   -3.0386  -12.0128   -8.7997 N   0  0  0  0  0  0  0  0  0  0  0  0
   -3.4995  -13.2479   -8.7489 C   0  0  0  0  0  0  0  0  0  0  0  0
   -4.8354  -13.4513   -8.6160 N   0  0  0  0  0  0  0  0  0  0  0  0
   -2.6634  -14.3261   -8.8167 N   0  0  0  0  0  0  0  0  0  0  0  0
   -4.9722   -5.0967   -6.3587 C   0  0  0  0  0  0  0  0  0  0  0  0
   -3.7679   -1.6788   -8.6210 O   0  0  0  0  0  0  0  0  0  0  0  0
   -3.7263   -5.1019   -7.0498 C   0  0  0  0  0  0  0  0  0  0  0  0
   -3.3246   -3.9606   -7.7944 C   0  0  0  0  0  0  0  0  0  0  0  0
   -4.1728   -2.8245   -7.8675 C   0  0  0  0  0  0  0  0  0  0  0  0
   -5.4243   -2.8259   -7.1946 C   0  0  0  0  0  0  0  0  0  0  0  0
   -5.8286   -3.9641   -6.4455 C   0  0  0  0  0  0  0  0  0  0  0  0
   -4.0202   -1.9056  -10.0108 C   0  0  0  0  0  0  0  0  0  0  0  0
  1  4  1  0  0  0  0
  2  3  1  0  0  0  0
  3  5  1  0  0  0  0
  4  6  1  0  0  0  0
  5  8  1  0  0  0  0
  6  7  1  0  0  0  0
  7 10  1  0  0  0  0
  8  9  1  0  0  0  0
  9 12  1  0  0  0  0
  9 13  1  0  0  0  0
 10 11  1  0  0  0  0
 11 14  1  0  0  0  0
 14 15  1  0  0  0  0
 15 16  1  0  0  0  0
 15 17  1  0  0  0  0
 18  2  1  0  0  0  0
 18 20  2  0  0  0  0
 18 24  1  0  0  0  0
 19 25  1  0  0  0  0
 20  1  1  0  0  0  0
 20 21  1  0  0  0  0
 21 22  2  0  0  0  0
 22 19  1  0  0  0  0
 22 23  1  0  0  0  0
 23 24  2  0  0  0  0
M  END
>  <CHROM.1>
-132.69346825,84.34278567,41.80774424,-79.85376425,90.67562864,-66.52655309
-65.99990365,59.23182990,-174.12254117,93.64704495,-170.82341237,161.71140186
69.46312425,12.62185099,1.10247984,101.83928750,49.51977635,80.21721764,-4.64451763
-7.21199388,-6.65076939,-1.96491421,-0.83913470,3.08000975

>  <Name>
1uud_lig

>  <RI>
0

>  <Rbt.Current_Directory>
/home/itssahil/PROJECTS/Mol_Feturizer/New_Systems/rnas/1uud

>  <Rbt.Executable>
rbdock ($Id: //depot/dev/client3/rdock/2013.1/src/exe/rbdock.cxx#4 $)

>  <Rbt.Library>
libRbt.so (2013.1, Build901 2013/11/27)

>  <Rbt.Parameter_File>
/export/apps/rDock/src/rDock_2013.1_src/data/scripts/dock_solv.prm

>  <Rbt.Receptor>
prm/pocket_docking_8.prm

>  <SCORE>
-32.4781

>  <SCORE.INTER>
-26.5133

>  <SCORE.INTER.CONST>
1

>  <SCORE.INTER.POLAR>
-5.38136

>  <SCORE.INTER.ROT>
18

>  <SCORE.INTER.SOLV>
9.16117

>  <SCORE.INTER.VDW>
-18.3914

>  <SCORE.INTER.norm>
-1.06053

>  <SCORE.INTRA>
-5.96872

>  <SCORE.INTRA.DIHEDRAL>
-2.6446

>  <SCORE.INTRA.DIHEDRAL.0>
30.6762

>  <SCORE.INTRA.POLAR>
-0.334719

>  <SCORE.INTRA.POLAR.0>
-0.0288659

>  <SCORE.INTRA.REPUL>
0

>  <SCORE.INTRA.REPUL.0>
0

>  <SCORE.INTRA.SOLV>
-0.263585

>  <SCORE.INTRA.SOLV.lig_0>
-25.2195

>  <SCORE.INTRA.VDW>
-3.37659

>  <SCORE.INTRA.VDW.0>
4.14263

>  <SCORE.INTRA.norm>
-0.238749

>  <SCORE.RESTR>
0.00399023

>  <SCORE.RESTR.CAVITY>
0.00399023

>  <SCORE.RESTR.norm>
0.000159609

>  <SCORE.SYSTEM>
0

>  <SCORE.SYSTEM.CONST>
0

>  <SCORE.SYSTEM.DIHEDRAL>
0

>  <SCORE.SYSTEM.SOLV>
0

>  <SCORE.SYSTEM.norm>
0

>  <SCORE.heavy>
25

>  <SCORE.norm>
-1.29912

>  <RMSD>
7.695

$$$$
1uud_lig
 OpenBabel11021811413D
libRbt.so/2013.1/901 2013/11/27
 25 25  0  0  0  0  0  0  0  0999 V2000
   -4.8332   -9.9188   -1.4776 C   0  0  0  0  0  0  0  0  0  0  0  0
   -1.9243   -9.5539   -1.3891 O   0  0  0  0  0  0  0  0  0  0  0  0
   -0.5794  -10.0092   -1.1785 C   0  0  0  0  0  0  0  0  0  0  0  0
   -6.2141   -9.7650   -1.9988 N   0  0  0  0  0  0  0  0  0  0  0  0
    0.0744   -9.2189   -0.0369 C   0  0  0  0  0  0  0  0  0  0  0  0
   -6.2652   -8.6383   -2.9603 C   0  0  0  0  0  0  0  0  0  0  0  0
   -7.6432   -8.5994   -3.6320 C   0  0  0  0  0  0  0  0  0  0  0  0
    1.2954   -9.6535    0.1653 N   0  0  0  0  0  0  0  0  0  0  0  0
    1.5277  -10.7952    0.7853 C   0  0  0  0  0  0  0  0  0  0  0  0
   -7.7708   -7.3340   -4.4870 C   0  0  0  0  0  0  0  0  0  0  0  0
   -8.2958   -6.1836   -3.6233 C   0  0  0  0  0  0  0  0  0  0  0  0
    0.5373  -11.4589    1.4557 N   0  0  0  0  0  0  0  0  0  0  0  0
    2.7790  -11.3222    0.7581 N   0  0  0  0  0  0  0  0  0  0  0  0
   -8.1840   -5.0504   -4.2749 N   0  0  0  0  0  0  0  0  0  0  0  0
   -7.1065   -4.2968   -4.1674 C   0  0  0  0  0  0  0  0  0  0  0  0
   -6.5674   -3.7487   -5.2866 N   0  0  0  0  0  0  0  0  0  0  0  0
   -6.5151   -4.0637   -2.9583 N   0  0  0  0  0  0  0  0  0  0  0  0
   -2.4969  -10.2178   -2.5231 C   0  0  0  0  0  0  0  0  0  0  0  0
   -4.1781  -12.2384   -5.8908 O   0  0  0  0  0  0  0  0  0  0  0  0
   -3.9050  -10.4202   -2.6033 C   0  0  0  0  0  0  0  0  0  0  0  0
   -4.4603  -11.1000   -3.7203 C   0  0  0  0  0  0  0  0  0  0  0  0
   -3.6161  -11.5582   -4.7656 C   0  0  0  0  0  0  0  0  0  0  0  0
   -2.2138  -11.3395   -4.6959 C   0  0  0  0  0  0  0  0  0  0  0  0
   -1.6535  -10.6631   -3.5785 C   0  0  0  0  0  0  0  0  0  0  0  0
   -3.9474  -11.4735   -7.0774 C   0  0  0  0  0  0  0  0  0  0  0  0
  1  4  1  0  0  0  0
  2  3  1  0  0  0  0
  3  5  1  0  0  0  0
  4  6  1  0  0  0  0
  5  8  1  0  0  0  0
  6  7  1  0  0  0  0
  7 10  1  0  0  0  0
  8  9  1  0  0  0  0
  9 12  1  0  0  0  0
  9 13  1  0  0  0  0
 10 11  1  0  0  0  0
 11 14  1  0  0  0  0
 14 15  1  0  0  0  0
 15 16  1  0  0  0  0
 15 17  1  0  0  0  0
 18  2  1  0  0  0  0
 18 20  2  0  0  0  0
 18 24  1  0  0  0  0
 19 25  1  0  0  0  0
 20  1  1  0  0  0  0
 20 21  1  0  0  0  0
 21 22  2  0  0  0  0
 22 19  1  0  0  0  0
 22 23  1  0  0  0  0
 23 24  2  0  0  0  0
M  END
>  <CHROM.1>
-68.83691677,175.42498683,179.00037164,172.62850008,-75.61485908,172.56926270
-87.83257207,-11.98344750,-73.67602191,10.74835509,168.83795530,-91.25729387
136.17658998,2.12397952,140.68210686,151.99438222,158.25867633,116.70530820
-3.68325241,-9.09736236,-2.73875628,2.96300273,-0.64277228,0.57852854

>  <Name>
1uud_lig

>  <RI>
0

>  <Rbt.Current_Directory>
/home/itssahil/PROJECTS/Mol_Feturizer/New_Systems/rnas/1uud

>  <Rbt.Executable>
rbdock ($Id: //depot/dev/client3/rdock/2013.1/src/exe/rbdock.cxx#4 $)

>  <Rbt.Library>
libRbt.so (2013.1, Build901 2013/11/27)

>  <Rbt.Parameter_File>
/export/apps/rDock/src/rDock_2013.1_src/data/scripts/dock_solv.prm

>  <Rbt.Receptor>
prm/pocket_docking_2.prm

>  <SCORE>
-22.5277

>  <SCORE.INTER>
-20.394

>  <SCORE.INTER.CONST>
1

>  <SCORE.INTER.POLAR>
-3.74478

>  <SCORE.INTER.ROT>
18

>  <SCORE.INTER.SOLV>
8.87186

>  <SCORE.INTER.VDW>
-19.6707

>  <SCORE.INTER.norm>
-0.815759

>  <SCORE.INTRA>
-6.23959

>  <SCORE.INTRA.DIHEDRAL>
-11.6753

>  <SCORE.INTRA.DIHEDRAL.0>
30.6762

>  <SCORE.INTRA.POLAR>
0.0288659

>  <SCORE.INTRA.POLAR.0>
-0.0288659

>  <SCORE.INTRA.REPUL>
0

>  <SCORE.INTRA.REPUL.0>
0

>  <SCORE.INTRA.SOLV>
-1.12168

>  <SCORE.INTRA.SOLV.lig_0>
-25.2195

>  <SCORE.INTRA.VDW>
0.0607731

>  <SCORE.INTRA.VDW.0>
4.14263

>  <SCORE.INTRA.norm>
-0.249583

>  <SCORE.RESTR>
4.10586

>  <SCORE.RESTR.CAVITY>
4.10586

>  <SCORE.RESTR.norm>
0.164234

>  <SCORE.SYSTEM>
0

>  <SCORE.SYSTEM.CONST>
0

>  <SCORE.SYSTEM.DIHEDRAL>
0

>  <SCORE.SYSTEM.SOLV>
0

>  <SCORE.SYSTEM.norm>
0

>  <SCORE.heavy>
25

>  <SCORE.norm>
-0.901108

>  <RMSD>
7.698

$$$$
1uud_lig
 OpenBabel11021811413D
libRbt.so/2013.1/901 2013/11/27
 25 25  0  0  0  0  0  0  0  0999 V2000
   -5.7000   -9.7953   -4.3139 C   0  0  0  0  0  0  0  0  0  0  0  0
   -6.1021   -6.9554   -3.7010 O   0  0  0  0  0  0  0  0  0  0  0  0
   -6.8615   -5.8083   -4.1107 C   0  0  0  0  0  0  0  0  0  0  0  0
   -5.3446  -11.1125   -4.8977 N   0  0  0  0  0  0  0  0  0  0  0  0
   -7.6610   -5.2516   -2.9249 C   0  0  0  0  0  0  0  0  0  0  0  0
   -3.9913  -11.5135   -4.4454 C   0  0  0  0  0  0  0  0  0  0  0  0
   -3.5670  -12.7960   -5.1713 C   0  0  0  0  0  0  0  0  0  0  0  0
   -8.6393   -6.0711   -2.6216 N   0  0  0  0  0  0  0  0  0  0  0  0
   -9.8874   -5.8127   -2.9645 C   0  0  0  0  0  0  0  0  0  0  0  0
   -3.3281  -12.4998   -6.6558 C   0  0  0  0  0  0  0  0  0  0  0  0
   -3.0418  -13.8079   -7.3989 C   0  0  0  0  0  0  0  0  0  0  0  0
  -10.1840   -5.0438   -4.0561 N   0  0  0  0  0  0  0  0  0  0  0  0
  -10.8998   -6.3207   -2.2155 N   0  0  0  0  0  0  0  0  0  0  0  0
   -3.0313  -13.5919   -8.6929 N   0  0  0  0  0  0  0  0  0  0  0  0
   -1.9012  -13.4561   -9.3600 C   0  0  0  0  0  0  0  0  0  0  0  0
   -1.2465  -14.5665   -9.7866 N   0  0  0  0  0  0  0  0  0  0  0  0
   -1.3697  -12.2254   -9.6224 N   0  0  0  0  0  0  0  0  0  0  0  0
   -5.1566   -7.3091   -4.7185 C   0  0  0  0  0  0  0  0  0  0  0  0
   -2.3016   -8.3427   -7.7237 O   0  0  0  0  0  0  0  0  0  0  0  0
   -4.9272   -8.6771   -5.0437 C   0  0  0  0  0  0  0  0  0  0  0  0
   -3.9710   -9.0182   -6.0375 C   0  0  0  0  0  0  0  0  0  0  0  0
   -3.2604   -7.9968   -6.7209 C   0  0  0  0  0  0  0  0  0  0  0  0
   -3.5027   -6.6314   -6.4111 C   0  0  0  0  0  0  0  0  0  0  0  0
   -4.4558   -6.2856   -5.4151 C   0  0  0  0  0  0  0  0  0  0  0  0
   -2.5593   -7.5905   -8.9129 C   0  0  0  0  0  0  0  0  0  0  0  0
  1  4  1  0  0  0  0
  2  3  1  0  0  0  0
  3  5  1  0  0  0  0
  4  6  1  0  0  0  0
  5  8  1  0  0  0  0
  6  7  1  0  0  0  0
  7 10  1  0  0  0  0
  8  9  1  0  0  0  0
  9 12  1  0  0  0  0
  9 13  1  0  0  0  0
 10 11  1  0  0  0  0
 11 14  1  0  0  0  0
 14 15  1  0  0  0  0
 15 16  1  0  0  0  0
 15 17  1  0  0  0  0
 18  2  1  0  0  0  0
 18 20  2  0  0  0  0
 18 24  1  0  0  0  0
 19 25  1  0  0  0  0
 20  1  1  0  0  0  0
 20 21  1  0  0  0  0
 21 22  2  0  0  0  0
 22 19  1  0  0  0  0
 22 23  1  0  0  0  0
 23 24  2  0  0  0  0
M  END
>  <CHROM.1>
74.87131623,-168.30281097,-70.93903472,-173.79397514,-103.33490345,68.88651457
-174.39552069,27.07517756,87.60515711,169.39165140,170.76396393,100.06640096
84.16166592,-45.76360323,-93.67846123,-139.23566398,176.25931483,129.66685351
-4.94563548,-9.17752525,-5.77945544,2.46889074,0.70291582,-0.04031991

>  <Name>
1uud_lig

>  <RI>
0

>  <Rbt.Current_Directory>
/home/itssahil/PROJECTS/Mol_Feturizer/New_Systems/rnas/1uud

>  <Rbt.Executable>
rbdock ($Id: //depot/dev/client3/rdock/2013.1/src/exe/rbdock.cxx#4 $)

>  <Rbt.Library>
libRbt.so (2013.1, Build901 2013/11/27)

>  <Rbt.Parameter_File>
/export/apps/rDock/src/rDock_2013.1_src/data/scripts/dock_solv.prm

>  <Rbt.Receptor>
prm/pocket_docking_7.prm

>  <SCORE>
-20.3902

>  <SCORE.INTER>
-12.6993

>  <SCORE.INTER.CONST>
1

>  <SCORE.INTER.POLAR>
-2.21237

>  <SCORE.INTER.ROT>
18

>  <SCORE.INTER.SOLV>
7.76674

>  <SCORE.INTER.VDW>
-19.2805

>  <SCORE.INTER.norm>
-0.507971

>  <SCORE.INTRA>
-7.69093

>  <SCORE.INTRA.DIHEDRAL>
-13.0312

>  <SCORE.INTRA.DIHEDRAL.0>
30.6762

>  <SCORE.INTRA.POLAR>
0.0288659

>  <SCORE.INTRA.POLAR.0>
-0.0288659

>  <SCORE.INTRA.REPUL>
0.0046763

>  <SCORE.INTRA.REPUL.0>
0

>  <SCORE.INTRA.SOLV>
-1.0773

>  <SCORE.INTRA.SOLV.lig_0>
-25.2195

>  <SCORE.INTRA.VDW>
-0.758186

>  <SCORE.INTRA.VDW.0>
4.14263

>  <SCORE.INTRA.norm>
-0.307637

>  <SCORE.RESTR>
0

>  <SCORE.RESTR.CAVITY>
0

>  <SCORE.RESTR.norm>
0

>  <SCORE.SYSTEM>
0

>  <SCORE.SYSTEM.CONST>
0

>  <SCORE.SYSTEM.DIHEDRAL>
0

>  <SCORE.SYSTEM.SOLV>
0

>  <SCORE.SYSTEM.norm>
0

>  <SCORE.heavy>
25

>  <SCORE.norm>
-0.815608

>  <RMSD>
7.701

$$$$
1uud_lig
 OpenBabel11021811413D
libRbt.so/2013.1/901 2013/11/27
 25 25  0  0  0  0  0  0  0  0999 V2000
   -4.1683  -12.9342   -8.5936 C   0  0  0  0  0  0  0  0  0  0  0  0
   -5.4426  -10.9547   -6.8441 O   0  0  0  0  0  0  0  0  0  0  0  0
   -5.4745  -10.6049   -5.4524 C   0  0  0  0  0  0  0  0  0  0  0  0
   -3.1299  -13.9288   -8.9605 N   0  0  0  0  0  0  0  0  0  0  0  0
   -6.6620   -9.6755   -5.1673 C   0  0  0  0  0  0  0  0  0  0  0  0
   -2.2844  -14.2302   -7.7812 C   0  0  0  0  0  0  0  0  0  0  0  0
   -1.1481  -15.1743   -8.1926 C   0  0  0  0  0  0  0  0  0  0  0  0
   -7.2310  -10.0123   -4.0343 N   0  0  0  0  0  0  0  0  0  0  0  0
   -7.7249   -9.1043   -3.2136 C   0  0  0  0  0  0  0  0  0  0  0  0
   -1.6503  -16.6222   -8.1996 C   0  0  0  0  0  0  0  0  0  0  0  0
   -1.5868  -17.1927   -6.7798 C   0  0  0  0  0  0  0  0  0  0  0  0
   -7.7079   -9.2819   -1.8575 N   0  0  0  0  0  0  0  0  0  0  0  0
   -8.2635   -7.9685   -3.7276 N   0  0  0  0  0  0  0  0  0  0  0  0
   -0.3468  -17.4953   -6.4765 N   0  0  0  0  0  0  0  0  0  0  0  0
    0.0465  -17.6159   -5.2230 C   0  0  0  0  0  0  0  0  0  0  0  0
    0.6177  -16.5515   -4.6029 N   0  0  0  0  0  0  0  0  0  0  0  0
   -0.0982  -18.7891   -4.5383 N   0  0  0  0  0  0  0  0  0  0  0  0
   -4.1562  -10.6511   -7.3987 C   0  0  0  0  0  0  0  0  0  0  0  0
   -0.3028   -9.7443   -9.0049 O   0  0  0  0  0  0  0  0  0  0  0  0
   -3.4999  -11.5870   -8.2491 C   0  0  0  0  0  0  0  0  0  0  0  0
   -2.2148  -11.2864   -8.7750 C   0  0  0  0  0  0  0  0  0  0  0  0
   -1.5945  -10.0461   -8.4710 C   0  0  0  0  0  0  0  0  0  0  0  0
   -2.2567   -9.1039   -7.6388 C   0  0  0  0  0  0  0  0  0  0  0  0
   -3.5409   -9.4019   -7.1076 C   0  0  0  0  0  0  0  0  0  0  0  0
   -0.4481   -9.0251  -10.2330 C   0  0  0  0  0  0  0  0  0  0  0  0
  1  4  1  0  0  0  0
  2  3  1  0  0  0  0
  3  5  1  0  0  0  0
  4  6  1  0  0  0  0
  5  8  1  0  0  0  0
  6  7  1  0  0  0  0
  7 10  1  0  0  0  0
  8  9  1  0  0  0  0
  9 12  1  0  0  0  0
  9 13  1  0  0  0  0
 10 11  1  0  0  0  0
 11 14  1  0  0  0  0
 14 15  1  0  0  0  0
 15 16  1  0  0  0  0
 15 17  1  0  0  0  0
 18  2  1  0  0  0  0
 18 20  2  0  0  0  0
 18 24  1  0  0  0  0
 19 25  1  0  0  0  0
 20  1  1  0  0  0  0
 20 21  1  0  0  0  0
 21 22  2  0  0  0  0
 22 19  1  0  0  0  0
 22 23  1  0  0  0  0
 23 24  2  0  0  0  0
M  END
>  <CHROM.1>
65.91349863,126.10904850,139.09982689,-175.65404569,143.42666343,-82.73039525
-83.37332094,-147.21838059,-133.56289345,-124.77194236,-76.54754333,159.23584586
-95.20471405,151.37833533,63.69871424,135.24468978,-155.65160375,93.07705615
-3.21787462,-12.40659067,-6.60383420,-0.56930167,0.75678689,-0.57507234

>  <Name>
1uud_lig

>  <RI>
0

>  <Rbt.Current_Directory>
/home/itssahil/PROJECTS/Mol_Feturizer/New_Systems/rnas/1uud

>  <Rbt.Executable>
rbdock ($Id: //depot/dev/client3/rdock/2013.1/src/exe/rbdock.cxx#4 $)

>  <Rbt.Library>
libRbt.so (2013.1, Build901 2013/11/27)

>  <Rbt.Parameter_File>
/export/apps/rDock/src/rDock_2013.1_src/data/scripts/dock_solv.prm

>  <Rbt.Receptor>
prm/pocket_docking_7.prm

>  <SCORE>
-34.9551

>  <SCORE.INTER>
-33.917

>  <SCORE.INTER.CONST>
1

>  <SCORE.INTER.POLAR>
-4.59531

>  <SCORE.INTER.ROT>
18

>  <SCORE.INTER.SOLV>
9.73841

>  <SCORE.INTER.VDW>
-26.1398

>  <SCORE.INTER.norm>
-1.35668

>  <SCORE.INTRA>
-1.03807

>  <SCORE.INTRA.DIHEDRAL>
2.90738

>  <SCORE.INTRA.DIHEDRAL.0>
30.6762

>  <SCORE.INTRA.POLAR>
0.0288659

>  <SCORE.INTRA.POLAR.0>
-0.0288659

>  <SCORE.INTRA.REPUL>
0

>  <SCORE.INTRA.REPUL.0>
0

>  <SCORE.INTRA.SOLV>
-1.32451

>  <SCORE.INTRA.SOLV.lig_0>
-25.2195

>  <SCORE.INTRA.VDW>
-1.92764

>  <SCORE.INTRA.VDW.0>
4.14263

>  <SCORE.INTRA.norm>
-0.0415227

>  <SCORE.RESTR>
0

>  <SCORE.RESTR.CAVITY>
0

>  <SCORE.RESTR.norm>
0

>  <SCORE.SYSTEM>
0

>  <SCORE.SYSTEM.CONST>
0

>  <SCORE.SYSTEM.DIHEDRAL>
0

>  <SCORE.SYSTEM.SOLV>
0

>  <SCORE.SYSTEM.norm>
0

>  <SCORE.heavy>
25

>  <SCORE.norm>
-1.3982

>  <RMSD>
7.709

$$$$
1uud_lig
 OpenBabel11021811413D
libRbt.so/2013.1/901 2013/11/27
 25 25  0  0  0  0  0  0  0  0999 V2000
   -3.2168  -10.2723   -1.6269 C   0  0  0  0  0  0  0  0  0  0  0  0
   -4.6658   -8.0441   -2.8671 O   0  0  0  0  0  0  0  0  0  0  0  0
   -5.6129   -7.3223   -2.0657 C   0  0  0  0  0  0  0  0  0  0  0  0
   -2.5088  -11.2246   -2.5179 N   0  0  0  0  0  0  0  0  0  0  0  0
   -7.0066   -7.3887   -2.7048 C   0  0  0  0  0  0  0  0  0  0  0  0
   -2.7342  -10.8495   -3.9340 C   0  0  0  0  0  0  0  0  0  0  0  0
   -1.8490  -11.7134   -4.8405 C   0  0  0  0  0  0  0  0  0  0  0  0
   -7.8027   -6.5175   -2.1321 N   0  0  0  0  0  0  0  0  0  0  0  0
   -8.5204   -5.6675   -2.8423 C   0  0  0  0  0  0  0  0  0  0  0  0
   -1.9262  -11.2033   -6.2836 C   0  0  0  0  0  0  0  0  0  0  0  0
   -3.3149  -11.4993   -6.8573 C   0  0  0  0  0  0  0  0  0  0  0  0
   -8.7537   -5.8682   -4.1749 N   0  0  0  0  0  0  0  0  0  0  0  0
   -9.0376   -4.5679   -2.2361 N   0  0  0  0  0  0  0  0  0  0  0  0
   -3.2374  -11.6449   -8.1589 N   0  0  0  0  0  0  0  0  0  0  0  0
   -3.5727  -12.7772   -8.7471 C   0  0  0  0  0  0  0  0  0  0  0  0
   -2.6349  -13.4598   -9.4529 N   0  0  0  0  0  0  0  0  0  0  0  0
   -4.8433  -13.2731   -8.6710 N   0  0  0  0  0  0  0  0  0  0  0  0
   -3.3357   -7.8125   -2.3856 C   0  0  0  0  0  0  0  0  0  0  0  0
    0.6103   -7.0887   -0.9175 O   0  0  0  0  0  0  0  0  0  0  0  0
   -2.5988   -8.8662   -1.7719 C   0  0  0  0  0  0  0  0  0  0  0  0
   -1.2900   -8.6204   -1.2770 C   0  0  0  0  0  0  0  0  0  0  0  0
   -0.7087   -7.3323   -1.4128 C   0  0  0  0  0  0  0  0  0  0  0  0
   -1.4354   -6.2860   -2.0422 C   0  0  0  0  0  0  0  0  0  0  0  0
   -2.7464   -6.5265   -2.5356 C   0  0  0  0  0  0  0  0  0  0  0  0
    1.5725   -7.5852   -1.8524 C   0  0  0  0  0  0  0  0  0  0  0  0
  1  4  1  0  0  0  0
  2  3  1  0  0  0  0
  3  5  1  0  0  0  0
  4  6  1  0  0  0  0
  5  8  1  0  0  0  0
  6  7  1  0  0  0  0
  7 10  1  0  0  0  0
  8  9  1  0  0  0  0
  9 12  1  0  0  0  0
  9 13  1  0  0  0  0
 10 11  1  0  0  0  0
 11 14  1  0  0  0  0
 14 15  1  0  0  0  0
 15 16  1  0  0  0  0
 15 17  1  0  0  0  0
 18  2  1  0  0  0  0
 18 20  2  0  0  0  0
 18 24  1  0  0  0  0
 19 25  1  0  0  0  0
 20  1  1  0  0  0  0
 20 21  1  0  0  0  0
 21 22  2  0  0  0  0
 22 19  1  0  0  0  0
 22 23  1  0  0  0  0
 23 24  2  0  0  0  0
M  END
>  <CHROM.1>
-65.03549535,171.17542086,-167.23522935,172.24407239,129.69919446,-172.09601219
-69.75567974,17.67724883,-94.11160749,-111.49243895,-151.73329935,118.77061785
-118.70245174,-32.84110633,47.45589618,111.65958376,111.06455396,79.83027572
-3.70387264,-8.96948197,-3.83656993,-1.93207387,0.30337969,-2.30654393

>  <Name>
1uud_lig

>  <RI>
0

>  <Rbt.Current_Directory>
/home/itssahil/PROJECTS/Mol_Feturizer/New_Systems/rnas/1uud

>  <Rbt.Executable>
rbdock ($Id: //depot/dev/client3/rdock/2013.1/src/exe/rbdock.cxx#4 $)

>  <Rbt.Library>
libRbt.so (2013.1, Build901 2013/11/27)

>  <Rbt.Parameter_File>
/export/apps/rDock/src/rDock_2013.1_src/data/scripts/dock_solv.prm

>  <Rbt.Receptor>
prm/pocket_docking_6.prm

>  <SCORE>
-27.8589

>  <SCORE.INTER>
-19.3877

>  <SCORE.INTER.CONST>
1

>  <SCORE.INTER.POLAR>
-5.10615

>  <SCORE.INTER.ROT>
18

>  <SCORE.INTER.SOLV>
8.28524

>  <SCORE.INTER.VDW>
-14.2664

>  <SCORE.INTER.norm>
-0.775508

>  <SCORE.INTRA>
-8.47119

>  <SCORE.INTRA.DIHEDRAL>
-7.24258

>  <SCORE.INTRA.DIHEDRAL.0>
30.6762

>  <SCORE.INTRA.POLAR>
0.0288659

>  <SCORE.INTRA.POLAR.0>
-0.0288659

>  <SCORE.INTRA.REPUL>
0

>  <SCORE.INTRA.REPUL.0>
0

>  <SCORE.INTRA.SOLV>
-1.4371

>  <SCORE.INTRA.SOLV.lig_0>
-25.2195

>  <SCORE.INTRA.VDW>
-4.22949

>  <SCORE.INTRA.VDW.0>
4.14263

>  <SCORE.INTRA.norm>
-0.338848

>  <SCORE.RESTR>
0

>  <SCORE.RESTR.CAVITY>
0

>  <SCORE.RESTR.norm>
0

>  <SCORE.SYSTEM>
0

>  <SCORE.SYSTEM.CONST>
0

>  <SCORE.SYSTEM.DIHEDRAL>
0

>  <SCORE.SYSTEM.SOLV>
0

>  <SCORE.SYSTEM.norm>
0

>  <SCORE.heavy>
25

>  <SCORE.norm>
-1.11436

>  <RMSD>
7.716

$$$$
1uud_lig
 OpenBabel11021811413D
libRbt.so/2013.1/901 2013/11/27
 25 25  0  0  0  0  0  0  0  0999 V2000
   -2.0379  -10.1819   -7.3542 C   0  0  0  0  0  0  0  0  0  0  0  0
   -2.8021  -11.4438   -4.8193 O   0  0  0  0  0  0  0  0  0  0  0  0
   -4.0716  -11.4744   -4.1502 C   0  0  0  0  0  0  0  0  0  0  0  0
   -3.2202   -9.2875   -7.4210 N   0  0  0  0  0  0  0  0  0  0  0  0
   -4.0575  -10.5251   -2.9444 C   0  0  0  0  0  0  0  0  0  0  0  0
   -3.6044   -8.8605   -6.0547 C   0  0  0  0  0  0  0  0  0  0  0  0
   -4.8698   -7.9970   -6.1242 C   0  0  0  0  0  0  0  0  0  0  0  0
   -3.1496  -10.9133   -2.0808 N   0  0  0  0  0  0  0  0  0  0  0  0
   -2.0989  -10.1652   -1.8011 C   0  0  0  0  0  0  0  0  0  0  0  0
   -5.4588   -7.8217   -4.7203 C   0  0  0  0  0  0  0  0  0  0  0  0
   -6.8309   -7.1491   -4.8214 C   0  0  0  0  0  0  0  0  0  0  0  0
   -1.0152  -10.1149   -2.6340 N   0  0  0  0  0  0  0  0  0  0  0  0
   -2.0933   -9.4297   -0.6594 N   0  0  0  0  0  0  0  0  0  0  0  0
   -7.4268   -7.1749   -3.6529 N   0  0  0  0  0  0  0  0  0  0  0  0
   -8.6174   -7.7218   -3.4982 C   0  0  0  0  0  0  0  0  0  0  0  0
   -9.6016   -7.0063   -2.8957 N   0  0  0  0  0  0  0  0  0  0  0  0
   -8.8797   -8.9941   -3.9206 N   0  0  0  0  0  0  0  0  0  0  0  0
   -2.8586  -12.2270   -6.0184 C   0  0  0  0  0  0  0  0  0  0  0  0
   -3.0767  -14.5666   -9.5862 O   0  0  0  0  0  0  0  0  0  0  0  0
   -2.5009  -11.6513   -7.2716 C   0  0  0  0  0  0  0  0  0  0  0  0
   -2.5825  -12.4292   -8.4575 C   0  0  0  0  0  0  0  0  0  0  0  0
   -2.9994  -13.7846   -8.3916 C   0  0  0  0  0  0  0  0  0  0  0  0
   -3.3376  -14.3654   -7.1397 C   0  0  0  0  0  0  0  0  0  0  0  0
   -3.2608  -13.5899   -5.9511 C   0  0  0  0  0  0  0  0  0  0  0  0
   -2.0580  -15.5708   -9.5684 C   0  0  0  0  0  0  0  0  0  0  0  0
  1  4  1  0  0  0  0
  2  3  1  0  0  0  0
  3  5  1  0  0  0  0
  4  6  1  0  0  0  0
  5  8  1  0  0  0  0
  6  7  1  0  0  0  0
  7 10  1  0  0  0  0
  8  9  1  0  0  0  0
  9 12  1  0  0  0  0
  9 13  1  0  0  0  0
 10 11  1  0  0  0  0
 11 14  1  0  0  0  0
 14 15  1  0  0  0  0
 15 16  1  0  0  0  0
 15 17  1  0  0  0  0
 18  2  1  0  0  0  0
 18 20  2  0  0  0  0
 18 24  1  0  0  0  0
 19 25  1  0  0  0  0
 20  1  1  0  0  0  0
 20 21  1  0  0  0  0
 21 22  2  0  0  0  0
 22 19  1  0  0  0  0
 22 23  1  0  0  0  0
 23 24  2  0  0  0  0
M  END
>  <CHROM.1>
92.13146449,-174.30534727,-61.84369347,-177.04957382,115.60133074,166.94366443
-171.22207298,-79.16175204,-65.00062295,-123.76044022,170.66556955,-123.38874171
-128.09299568,-127.48082189,-128.52263139,125.19347032,-83.77239817,111.14688465
-4.13743428,-10.51638255,-5.21193236,0.92571665,0.53314060,-2.08445196

>  <Name>
1uud_lig

>  <RI>
0

>  <Rbt.Current_Directory>
/home/itssahil/PROJECTS/Mol_Feturizer/New_Systems/rnas/1uud

>  <Rbt.Executable>
rbdock ($Id: //depot/dev/client3/rdock/2013.1/src/exe/rbdock.cxx#4 $)

>  <Rbt.Library>
libRbt.so (2013.1, Build901 2013/11/27)

>  <Rbt.Parameter_File>
/export/apps/rDock/src/rDock_2013.1_src/data/scripts/dock_solv.prm

>  <Rbt.Receptor>
prm/pocket_docking_4.prm

>  <SCORE>
-29.2854

>  <SCORE.INTER>
-18.308

>  <SCORE.INTER.CONST>
1

>  <SCORE.INTER.POLAR>
-3.38055

>  <SCORE.INTER.ROT>
18

>  <SCORE.INTER.SOLV>
9.66893

>  <SCORE.INTER.VDW>
-19.7598

>  <SCORE.INTER.norm>
-0.732322

>  <SCORE.INTRA>
-11.0036

>  <SCORE.INTRA.DIHEDRAL>
-9.47899

>  <SCORE.INTRA.DIHEDRAL.0>
30.6762

>  <SCORE.INTRA.POLAR>
0.0288659

>  <SCORE.INTRA.POLAR.0>
-0.0288659

>  <SCORE.INTRA.REPUL>
0

>  <SCORE.INTRA.REPUL.0>
0

>  <SCORE.INTRA.SOLV>
-0.633873

>  <SCORE.INTRA.SOLV.lig_0>
-25.2195

>  <SCORE.INTRA.VDW>
-6.04532

>  <SCORE.INTRA.VDW.0>
4.14263

>  <SCORE.INTRA.norm>
-0.440144

>  <SCORE.RESTR>
0.0262417

>  <SCORE.RESTR.CAVITY>
0.0262417

>  <SCORE.RESTR.norm>
0.00104967

>  <SCORE.SYSTEM>
0

>  <SCORE.SYSTEM.CONST>
0

>  <SCORE.SYSTEM.DIHEDRAL>
0

>  <SCORE.SYSTEM.SOLV>
0

>  <SCORE.SYSTEM.norm>
0

>  <SCORE.heavy>
25

>  <SCORE.norm>
-1.17142

>  <RMSD>
7.721

$$$$
1uud_lig
 OpenBabel11021811413D
libRbt.so/2013.1/901 2013/11/27
 25 25  0  0  0  0  0  0  0  0999 V2000
   -2.9038  -10.8428   -2.5991 C   0  0  0  0  0  0  0  0  0  0  0  0
   -5.0023  -10.0380   -0.7146 O   0  0  0  0  0  0  0  0  0  0  0  0
   -5.2424   -8.6710   -1.0805 C   0  0  0  0  0  0  0  0  0  0  0  0
   -3.3324   -9.5814   -3.2527 N   0  0  0  0  0  0  0  0  0  0  0  0
   -6.6746   -8.5076   -1.6070 C   0  0  0  0  0  0  0  0  0  0  0  0
   -2.6765   -9.4533   -4.5756 C   0  0  0  0  0  0  0  0  0  0  0  0
   -3.3765  -10.3701   -5.5860 C   0  0  0  0  0  0  0  0  0  0  0  0
   -6.7886   -7.3673   -2.2453 N   0  0  0  0  0  0  0  0  0  0  0  0
   -7.2402   -7.3121   -3.4843 C   0  0  0  0  0  0  0  0  0  0  0  0
   -2.5702  -11.6612   -5.7641 C   0  0  0  0  0  0  0  0  0  0  0  0
   -3.4872  -12.7686   -6.2913 C   0  0  0  0  0  0  0  0  0  0  0  0
   -8.2159   -8.1617   -3.9278 N   0  0  0  0  0  0  0  0  0  0  0  0
   -6.7230   -6.3916   -4.3383 N   0  0  0  0  0  0  0  0  0  0  0  0
   -3.9828  -12.4201   -7.4550 N   0  0  0  0  0  0  0  0  0  0  0  0
   -3.6602  -13.0616   -8.5617 C   0  0  0  0  0  0  0  0  0  0  0  0
   -2.6208  -12.6103   -9.3098 N   0  0  0  0  0  0  0  0  0  0  0  0
   -4.3538  -14.1626   -8.9776 N   0  0  0  0  0  0  0  0  0  0  0  0
   -3.6635  -10.1888   -0.2252 C   0  0  0  0  0  0  0  0  0  0  0  0
    0.3109  -10.6756    1.2640 O   0  0  0  0  0  0  0  0  0  0  0  0
   -2.6154  -10.5834   -1.1059 C   0  0  0  0  0  0  0  0  0  0  0  0
   -1.2964  -10.7527   -0.6062 C   0  0  0  0  0  0  0  0  0  0  0  0
   -1.0184  -10.5084    0.7644 C   0  0  0  0  0  0  0  0  0  0  0  0
   -2.0592  -10.0960    1.6395 C   0  0  0  0  0  0  0  0  0  0  0  0
   -3.3810   -9.9288    1.1446 C   0  0  0  0  0  0  0  0  0  0  0  0
    1.1718   -9.6987    0.6715 C   0  0  0  0  0  0  0  0  0  0  0  0
  1  4  1  0  0  0  0
  2  3  1  0  0  0  0
  3  5  1  0  0  0  0
  4  6  1  0  0  0  0
  5  8  1  0  0  0  0
  6  7  1  0  0  0  0
  7 10  1  0  0  0  0
  8  9  1  0  0  0  0
  9 12  1  0  0  0  0
  9 13  1  0  0  0  0
 10 11  1  0  0  0  0
 11 14  1  0  0  0  0
 14 15  1  0  0  0  0
 15 16  1  0  0  0  0
 15 17  1  0  0  0  0
 18  2  1  0  0  0  0
 18 20  2  0  0  0  0
 18 24  1  0  0  0  0
 19 25  1  0  0  0  0
 20  1  1  0  0  0  0
 20 21  1  0  0  0  0
 21 22  2  0  0  0  0
 22 19  1  0  0  0  0
 22 23  1  0  0  0  0
 23 24  2  0  0  0  0
M  END
>  <CHROM.1>
137.43344569,179.90614392,-164.15975701,76.99933450,125.70464887,-99.74856271
157.50207684,35.26932404,151.68780781,-167.86226564,60.77238160,113.25191049
-92.53268063,126.43613069,-3.94770661,-93.94162067,64.69669321,66.02675796
-3.70257912,-10.22032981,-3.15940943,-1.34272492,0.55829088,-1.98965180

>  <Name>
1uud_lig

>  <RI>
0

>  <Rbt.Current_Directory>
/home/itssahil/PROJECTS/Mol_Feturizer/New_Systems/rnas/1uud

>  <Rbt.Executable>
rbdock ($Id: //depot/dev/client3/rdock/2013.1/src/exe/rbdock.cxx#4 $)

>  <Rbt.Library>
libRbt.so (2013.1, Build901 2013/11/27)

>  <Rbt.Parameter_File>
/export/apps/rDock/src/rDock_2013.1_src/data/scripts/dock_solv.prm

>  <Rbt.Receptor>
prm/pocket_docking_4.prm

>  <SCORE>
-24.8917

>  <SCORE.INTER>
-19.898

>  <SCORE.INTER.CONST>
1

>  <SCORE.INTER.POLAR>
-3.38481

>  <SCORE.INTER.ROT>
18

>  <SCORE.INTER.SOLV>
9.7409

>  <SCORE.INTER.VDW>
-20.8296

>  <SCORE.INTER.norm>
-0.795918

>  <SCORE.INTRA>
-4.99379

>  <SCORE.INTRA.DIHEDRAL>
-1.12011

>  <SCORE.INTRA.DIHEDRAL.0>
30.6762

>  <SCORE.INTRA.POLAR>
0.0288659

>  <SCORE.INTRA.POLAR.0>
-0.0288659

>  <SCORE.INTRA.REPUL>
0

>  <SCORE.INTRA.REPUL.0>
0

>  <SCORE.INTRA.SOLV>
-0.806396

>  <SCORE.INTRA.SOLV.lig_0>
-25.2195

>  <SCORE.INTRA.VDW>
-4.12868

>  <SCORE.INTRA.VDW.0>
4.14263

>  <SCORE.INTRA.norm>
-0.199752

>  <SCORE.RESTR>
0

>  <SCORE.RESTR.CAVITY>
0

>  <SCORE.RESTR.norm>
0

>  <SCORE.SYSTEM>
0

>  <SCORE.SYSTEM.CONST>
0

>  <SCORE.SYSTEM.DIHEDRAL>
0

>  <SCORE.SYSTEM.SOLV>
0

>  <SCORE.SYSTEM.norm>
0

>  <SCORE.heavy>
25

>  <SCORE.norm>
-0.99567

>  <RMSD>
7.766

$$$$
1uud_lig
 OpenBabel11021811413D
libRbt.so/2013.1/901 2013/11/27
 25 25  0  0  0  0  0  0  0  0999 V2000
   -0.2261   -5.8699   -1.6660 C   0  0  0  0  0  0  0  0  0  0  0  0
   -1.6103   -8.0399   -0.2597 O   0  0  0  0  0  0  0  0  0  0  0  0
   -0.3952   -8.2987    0.4593 C   0  0  0  0  0  0  0  0  0  0  0  0
   -0.7213   -5.8122   -3.0637 N   0  0  0  0  0  0  0  0  0  0  0  0
    0.2740   -9.5729   -0.0734 C   0  0  0  0  0  0  0  0  0  0  0  0
   -1.6043   -6.9720   -3.3317 C   0  0  0  0  0  0  0  0  0  0  0  0
   -3.0700   -6.5245   -3.2754 C   0  0  0  0  0  0  0  0  0  0  0  0
    1.3835   -9.8044    0.5870 N   0  0  0  0  0  0  0  0  0  0  0  0
    1.6679  -11.0036    1.0594 C   0  0  0  0  0  0  0  0  0  0  0  0
   -3.9844   -7.6804   -3.6956 C   0  0  0  0  0  0  0  0  0  0  0  0
   -5.3930   -7.1453   -3.9688 C   0  0  0  0  0  0  0  0  0  0  0  0
    0.7653  -11.7106    1.8051 N   0  0  0  0  0  0  0  0  0  0  0  0
    2.8851  -11.5470    0.8000 N   0  0  0  0  0  0  0  0  0  0  0  0
   -6.1411   -8.0976   -4.4734 N   0  0  0  0  0  0  0  0  0  0  0  0
   -7.3291   -7.8418   -4.9871 C   0  0  0  0  0  0  0  0  0  0  0  0
   -7.9902   -6.7206   -4.6006 N   0  0  0  0  0  0  0  0  0  0  0  0
   -7.9133   -8.6837   -5.8904 N   0  0  0  0  0  0  0  0  0  0  0  0
   -2.0402   -6.6918   -0.0308 C   0  0  0  0  0  0  0  0  0  0  0  0
   -3.3087   -2.6784    0.7001 O   0  0  0  0  0  0  0  0  0  0  0  0
   -1.3916   -5.6078   -0.6897 C   0  0  0  0  0  0  0  0  0  0  0  0
   -1.8100   -4.2736   -0.4382 C   0  0  0  0  0  0  0  0  0  0  0  0
   -2.8869   -4.0220    0.4519 C   0  0  0  0  0  0  0  0  0  0  0  0
   -3.5472   -5.1037    1.0945 C   0  0  0  0  0  0  0  0  0  0  0  0
   -3.1296   -6.4398    0.8487 C   0  0  0  0  0  0  0  0  0  0  0  0
   -2.8140   -2.2480    1.9715 C   0  0  0  0  0  0  0  0  0  0  0  0
  1  4  1  0  0  0  0
  2  3  1  0  0  0  0
  3  5  1  0  0  0  0
  4  6  1  0  0  0  0
  5  8  1  0  0  0  0
  6  7  1  0  0  0  0
  7 10  1  0  0  0  0
  8  9  1  0  0  0  0
  9 12  1  0  0  0  0
  9 13  1  0  0  0  0
 10 11  1  0  0  0  0
 11 14  1  0  0  0  0
 14 15  1  0  0  0  0
 15 16  1  0  0  0  0
 15 17  1  0  0  0  0
 18  2  1  0  0  0  0
 18 20  2  0  0  0  0
 18 24  1  0  0  0  0
 19 25  1  0  0  0  0
 20  1  1  0  0  0  0
 20 21  1  0  0  0  0
 21 22  2  0  0  0  0
 22 19  1  0  0  0  0
 22 23  1  0  0  0  0
 23 24  2  0  0  0  0
M  END
>  <CHROM.1>
-69.03288071,-164.29764018,-179.99960574,101.87440627,132.94533498,174.07217578
-166.24380890,-50.16064615,-91.62874604,23.21453718,172.88584118,-169.30666094
-22.83371632,-168.98545132,-112.13347551,76.43728933,100.09004723,-102.81156504
-2.41747403,-7.19316096,-1.26428323,-0.01457618,-0.65945397,0.45889155

>  <Name>
1uud_lig

>  <RI>
0

>  <Rbt.Current_Directory>
/home/itssahil/PROJECTS/Mol_Feturizer/New_Systems/rnas/1uud

>  <Rbt.Executable>
rbdock ($Id: //depot/dev/client3/rdock/2013.1/src/exe/rbdock.cxx#4 $)

>  <Rbt.Library>
libRbt.so (2013.1, Build901 2013/11/27)

>  <Rbt.Parameter_File>
/export/apps/rDock/src/rDock_2013.1_src/data/scripts/dock_solv.prm

>  <Rbt.Receptor>
prm/pocket_docking_7.prm

>  <SCORE>
-33.1035

>  <SCORE.INTER>
-26.1915

>  <SCORE.INTER.CONST>
1

>  <SCORE.INTER.POLAR>
-5.47368

>  <SCORE.INTER.ROT>
18

>  <SCORE.INTER.SOLV>
11.5294

>  <SCORE.INTER.VDW>
-18.6585

>  <SCORE.INTER.norm>
-1.04766

>  <SCORE.INTRA>
-6.91201

>  <SCORE.INTRA.DIHEDRAL>
-5.98378

>  <SCORE.INTRA.DIHEDRAL.0>
30.6762

>  <SCORE.INTRA.POLAR>
0.0288659

>  <SCORE.INTRA.POLAR.0>
-0.0288659

>  <SCORE.INTRA.REPUL>
0

>  <SCORE.INTRA.REPUL.0>
0

>  <SCORE.INTRA.SOLV>
-1.49316

>  <SCORE.INTRA.SOLV.lig_0>
-25.2195

>  <SCORE.INTRA.VDW>
-3.27168

>  <SCORE.INTRA.VDW.0>
4.14263

>  <SCORE.INTRA.norm>
-0.27648

>  <SCORE.RESTR>
0

>  <SCORE.RESTR.CAVITY>
0

>  <SCORE.RESTR.norm>
0

>  <SCORE.SYSTEM>
0

>  <SCORE.SYSTEM.CONST>
0

>  <SCORE.SYSTEM.DIHEDRAL>
0

>  <SCORE.SYSTEM.SOLV>
0

>  <SCORE.SYSTEM.norm>
0

>  <SCORE.heavy>
25

>  <SCORE.norm>
-1.32414

>  <RMSD>
7.784

$$$$
1uud_lig
 OpenBabel11021811413D
libRbt.so/2013.1/901 2013/11/27
 25 25  0  0  0  0  0  0  0  0999 V2000
   -2.0818   -9.3673   -3.3298 C   0  0  0  0  0  0  0  0  0  0  0  0
   -4.5717   -9.3917   -1.7798 O   0  0  0  0  0  0  0  0  0  0  0  0
   -4.9595   -8.1165   -1.2472 C   0  0  0  0  0  0  0  0  0  0  0  0
   -3.2163   -9.9451   -4.0921 N   0  0  0  0  0  0  0  0  0  0  0  0
   -6.4463   -7.8567   -1.5251 C   0  0  0  0  0  0  0  0  0  0  0  0
   -2.8067  -11.2314   -4.7040 C   0  0  0  0  0  0  0  0  0  0  0  0
   -4.0044  -11.8600   -5.4265 C   0  0  0  0  0  0  0  0  0  0  0  0
   -6.6812   -7.9396   -2.8130 N   0  0  0  0  0  0  0  0  0  0  0  0
   -7.5613   -7.1547   -3.4058 C   0  0  0  0  0  0  0  0  0  0  0  0
   -4.4557  -10.9514   -6.5752 C   0  0  0  0  0  0  0  0  0  0  0  0
   -3.8273  -11.4333   -7.8860 C   0  0  0  0  0  0  0  0  0  0  0  0
   -7.1781   -6.0133   -4.0546 N   0  0  0  0  0  0  0  0  0  0  0  0
   -8.8774   -7.4875   -3.3694 N   0  0  0  0  0  0  0  0  0  0  0  0
   -4.3523  -12.5837   -8.2351 N   0  0  0  0  0  0  0  0  0  0  0  0
   -3.6851  -13.7142   -8.1037 C   0  0  0  0  0  0  0  0  0  0  0  0
   -4.2697  -14.8770   -8.4907 N   0  0  0  0  0  0  0  0  0  0  0  0
   -2.4246  -13.7431   -7.5780 N   0  0  0  0  0  0  0  0  0  0  0  0
   -3.3672   -9.8436   -1.1477 C   0  0  0  0  0  0  0  0  0  0  0  0
    0.2023  -11.2364    0.7415 O   0  0  0  0  0  0  0  0  0  0  0  0
   -2.1371   -9.8530   -1.8665 C   0  0  0  0  0  0  0  0  0  0  0  0
   -0.9533  -10.3247   -1.2383 C   0  0  0  0  0  0  0  0  0  0  0  0
   -0.9915  -10.7660    0.1104 C   0  0  0  0  0  0  0  0  0  0  0  0
   -2.2139  -10.7387    0.8342 C   0  0  0  0  0  0  0  0  0  0  0  0
   -3.4013  -10.2710    0.2087 C   0  0  0  0  0  0  0  0  0  0  0  0
    1.1196  -10.1504    0.9015 C   0  0  0  0  0  0  0  0  0  0  0  0
  1  4  1  0  0  0  0
  2  3  1  0  0  0  0
  3  5  1  0  0  0  0
  4  6  1  0  0  0  0
  5  8  1  0  0  0  0
  6  7  1  0  0  0  0
  7 10  1  0  0  0  0
  8  9  1  0  0  0  0
  9 12  1  0  0  0  0
  9 13  1  0  0  0  0
 10 11  1  0  0  0  0
 11 14  1  0  0  0  0
 14 15  1  0  0  0  0
 15 16  1  0  0  0  0
 15 17  1  0  0  0  0
 18  2  1  0  0  0  0
 18 20  2  0  0  0  0
 18 24  1  0  0  0  0
 19 25  1  0  0  0  0
 20  1  1  0  0  0  0
 20 21  1  0  0  0  0
 21 22  2  0  0  0  0
 22 19  1  0  0  0  0
 22 23  1  0  0  0  0
 23 24  2  0  0  0  0
M  END
>  <CHROM.1>
-90.90756614,-160.09222757,-56.30480185,176.96420019,-144.18297814,63.15544815
96.35452686,97.08067146,125.17148220,-129.45455252,69.11808964,-105.51199651
-179.44356492,-18.64556247,91.66036218,-108.17438000,-45.41538447,67.36534547
-3.77947100,-10.27891912,-3.45047521,-1.33574166,0.59033580,-2.11284434

>  <Name>
1uud_lig

>  <RI>
0

>  <Rbt.Current_Directory>
/home/itssahil/PROJECTS/Mol_Feturizer/New_Systems/rnas/1uud

>  <Rbt.Executable>
rbdock ($Id: //depot/dev/client3/rdock/2013.1/src/exe/rbdock.cxx#4 $)

>  <Rbt.Library>
libRbt.so (2013.1, Build901 2013/11/27)

>  <Rbt.Parameter_File>
/export/apps/rDock/src/rDock_2013.1_src/data/scripts/dock_solv.prm

>  <Rbt.Receptor>
prm/pocket_docking_4.prm

>  <SCORE>
-40.7668

>  <SCORE.INTER>
-32.055

>  <SCORE.INTER.CONST>
1

>  <SCORE.INTER.POLAR>
-5.95518

>  <SCORE.INTER.ROT>
18

>  <SCORE.INTER.SOLV>
9.03906

>  <SCORE.INTER.VDW>
-20.1324

>  <SCORE.INTER.norm>
-1.2822

>  <SCORE.INTRA>
-8.71181

>  <SCORE.INTRA.DIHEDRAL>
-3.80342

>  <SCORE.INTRA.DIHEDRAL.0>
30.6762

>  <SCORE.INTRA.POLAR>
-0.687583

>  <SCORE.INTRA.POLAR.0>
-0.0288659

>  <SCORE.INTRA.REPUL>
0.00682712

>  <SCORE.INTRA.REPUL.0>
0

>  <SCORE.INTRA.SOLV>
-0.0839105

>  <SCORE.INTRA.SOLV.lig_0>
-25.2195

>  <SCORE.INTRA.VDW>
-4.4645

>  <SCORE.INTRA.VDW.0>
4.14263

>  <SCORE.INTRA.norm>
-0.348472

>  <SCORE.RESTR>
0

>  <SCORE.RESTR.CAVITY>
0

>  <SCORE.RESTR.norm>
0

>  <SCORE.SYSTEM>
0

>  <SCORE.SYSTEM.CONST>
0

>  <SCORE.SYSTEM.DIHEDRAL>
0

>  <SCORE.SYSTEM.SOLV>
0

>  <SCORE.SYSTEM.norm>
0

>  <SCORE.heavy>
25

>  <SCORE.norm>
-1.63067

>  <RMSD>
7.799

$$$$
1uud_lig
 OpenBabel11021811413D
libRbt.so/2013.1/901 2013/11/27
 25 25  0  0  0  0  0  0  0  0999 V2000
   -3.7052   -9.2021   -1.3347 C   0  0  0  0  0  0  0  0  0  0  0  0
   -2.7122  -10.6163    1.0352 O   0  0  0  0  0  0  0  0  0  0  0  0
   -1.5954  -11.0383    1.8321 C   0  0  0  0  0  0  0  0  0  0  0  0
   -5.0550   -8.7721   -1.7764 N   0  0  0  0  0  0  0  0  0  0  0  0
   -0.2831  -10.7988    1.0735 C   0  0  0  0  0  0  0  0  0  0  0  0
   -6.0858   -9.3700   -0.8951 C   0  0  0  0  0  0  0  0  0  0  0  0
   -7.3733   -8.5409   -0.9759 C   0  0  0  0  0  0  0  0  0  0  0  0
    0.0501   -9.5321    1.1460 N   0  0  0  0  0  0  0  0  0  0  0  0
    0.5870   -8.9000    0.1193 C   0  0  0  0  0  0  0  0  0  0  0  0
   -7.7618   -8.3232   -2.4423 C   0  0  0  0  0  0  0  0  0  0  0  0
   -8.2201   -9.6508   -3.0527 C   0  0  0  0  0  0  0  0  0  0  0  0
   -0.1396   -8.6145   -1.0038 N   0  0  0  0  0  0  0  0  0  0  0  0
    1.8911   -8.5257    0.1790 N   0  0  0  0  0  0  0  0  0  0  0  0
   -8.6836   -9.4481   -4.2632 N   0  0  0  0  0  0  0  0  0  0  0  0
   -7.8827   -9.1400   -5.2654 C   0  0  0  0  0  0  0  0  0  0  0  0
   -8.3236   -8.2902   -6.2282 N   0  0  0  0  0  0  0  0  0  0  0  0
   -6.6249   -9.6640   -5.3621 N   0  0  0  0  0  0  0  0  0  0  0  0
   -2.8499   -9.1909    1.0961 C   0  0  0  0  0  0  0  0  0  0  0  0
   -3.2103   -4.9383    1.2846 O   0  0  0  0  0  0  0  0  0  0  0  0
   -3.3237   -8.4646   -0.0344 C   0  0  0  0  0  0  0  0  0  0  0  0
   -3.4345   -7.0497    0.0284 C   0  0  0  0  0  0  0  0  0  0  0  0
   -3.0940   -6.3620    1.2228 C   0  0  0  0  0  0  0  0  0  0  0  0
   -2.6399   -7.0873    2.3572 C   0  0  0  0  0  0  0  0  0  0  0  0
   -2.5241   -8.5026    2.2977 C   0  0  0  0  0  0  0  0  0  0  0  0
   -4.2197   -4.5807    2.2332 C   0  0  0  0  0  0  0  0  0  0  0  0
  1  4  1  0  0  0  0
  2  3  1  0  0  0  0
  3  5  1  0  0  0  0
  4  6  1  0  0  0  0
  5  8  1  0  0  0  0
  6  7  1  0  0  0  0
  7 10  1  0  0  0  0
  8  9  1  0  0  0  0
  9 12  1  0  0  0  0
  9 13  1  0  0  0  0
 10 11  1  0  0  0  0
 11 14  1  0  0  0  0
 14 15  1  0  0  0  0
 15 16  1  0  0  0  0
 15 17  1  0  0  0  0
 18  2  1  0  0  0  0
 18 20  2  0  0  0  0
 18 24  1  0  0  0  0
 19 25  1  0  0  0  0
 20  1  1  0  0  0  0
 20 21  1  0  0  0  0
 21 22  2  0  0  0  0
 22 19  1  0  0  0  0
 22 23  1  0  0  0  0
 23 24  2  0  0  0  0
M  END
>  <CHROM.1>
-73.56380254,-78.84230727,78.69219581,158.11231941,-141.71412751,50.50093813
69.52336576,69.70980360,81.97490749,120.79026683,173.54283490,71.18277432
-145.15378108,44.03674699,-130.11302429,146.46221940,129.42976058,114.80314381
-3.89947321,-8.58517897,-0.74386272,-2.65725991,-0.45663903,0.79600829

>  <Name>
1uud_lig

>  <RI>
0

>  <Rbt.Current_Directory>
/home/itssahil/PROJECTS/Mol_Feturizer/New_Systems/rnas/1uud

>  <Rbt.Executable>
rbdock ($Id: //depot/dev/client3/rdock/2013.1/src/exe/rbdock.cxx#4 $)

>  <Rbt.Library>
libRbt.so (2013.1, Build901 2013/11/27)

>  <Rbt.Parameter_File>
/export/apps/rDock/src/rDock_2013.1_src/data/scripts/dock_solv.prm

>  <Rbt.Receptor>
prm/pocket_docking_7.prm

>  <SCORE>
-32.7759

>  <SCORE.INTER>
-26.1998

>  <SCORE.INTER.CONST>
1

>  <SCORE.INTER.POLAR>
-4.7293

>  <SCORE.INTER.ROT>
18

>  <SCORE.INTER.SOLV>
12.9406

>  <SCORE.INTER.VDW>
-21.6158

>  <SCORE.INTER.norm>
-1.04799

>  <SCORE.INTRA>
-6.57609

>  <SCORE.INTRA.DIHEDRAL>
-9.6727

>  <SCORE.INTRA.DIHEDRAL.0>
30.6762

>  <SCORE.INTRA.POLAR>
0.0288659

>  <SCORE.INTRA.POLAR.0>
-0.0288659

>  <SCORE.INTRA.REPUL>
0

>  <SCORE.INTRA.REPUL.0>
0

>  <SCORE.INTRA.SOLV>
0.817962

>  <SCORE.INTRA.SOLV.lig_0>
-25.2195

>  <SCORE.INTRA.VDW>
-2.24687

>  <SCORE.INTRA.VDW.0>
4.14263

>  <SCORE.INTRA.norm>
-0.263044

>  <SCORE.RESTR>
0

>  <SCORE.RESTR.CAVITY>
0

>  <SCORE.RESTR.norm>
0

>  <SCORE.SYSTEM>
0

>  <SCORE.SYSTEM.CONST>
0

>  <SCORE.SYSTEM.DIHEDRAL>
0

>  <SCORE.SYSTEM.SOLV>
0

>  <SCORE.SYSTEM.norm>
0

>  <SCORE.heavy>
25

>  <SCORE.norm>
-1.31104

>  <RMSD>
7.811

$$$$
1uud_lig
 OpenBabel11021811413D
libRbt.so/2013.1/901 2013/11/27
 25 25  0  0  0  0  0  0  0  0999 V2000
   -3.2691  -10.5382   -2.3031 C   0  0  0  0  0  0  0  0  0  0  0  0
   -3.9887   -7.7924   -1.5648 O   0  0  0  0  0  0  0  0  0  0  0  0
   -5.2869   -7.7024   -0.9591 C   0  0  0  0  0  0  0  0  0  0  0  0
   -2.1398  -10.9318   -3.1817 N   0  0  0  0  0  0  0  0  0  0  0  0
   -6.1872   -6.7638   -1.7737 C   0  0  0  0  0  0  0  0  0  0  0  0
   -2.5898  -11.9637   -4.1458 C   0  0  0  0  0  0  0  0  0  0  0  0
   -1.3964  -12.4374   -4.9842 C   0  0  0  0  0  0  0  0  0  0  0  0
   -6.2870   -7.1992   -3.0070 N   0  0  0  0  0  0  0  0  0  0  0  0
   -7.4053   -7.7322   -3.4623 C   0  0  0  0  0  0  0  0  0  0  0  0
   -1.7257  -13.7787   -5.6484 C   0  0  0  0  0  0  0  0  0  0  0  0
   -2.8921  -13.5940   -6.6234 C   0  0  0  0  0  0  0  0  0  0  0  0
   -7.9926   -8.8001   -2.8416 N   0  0  0  0  0  0  0  0  0  0  0  0
   -7.9851   -7.2089   -4.5733 N   0  0  0  0  0  0  0  0  0  0  0  0
   -3.3061  -14.7638   -7.0494 N   0  0  0  0  0  0  0  0  0  0  0  0
   -3.2101  -15.1085   -8.3192 C   0  0  0  0  0  0  0  0  0  0  0  0
   -4.2983  -14.9874   -9.1223 N   0  0  0  0  0  0  0  0  0  0  0  0
   -2.0451  -15.5937   -8.8419 N   0  0  0  0  0  0  0  0  0  0  0  0
   -3.0963   -8.5195   -0.7108 C   0  0  0  0  0  0  0  0  0  0  0  0
   -0.4702  -10.6838    1.8719 O   0  0  0  0  0  0  0  0  0  0  0  0
   -2.7252   -9.8576   -1.0299 C   0  0  0  0  0  0  0  0  0  0  0  0
   -1.8585  -10.5777   -0.1648 C   0  0  0  0  0  0  0  0  0  0  0  0
   -1.3457   -9.9581    1.0050 C   0  0  0  0  0  0  0  0  0  0  0  0
   -1.6996   -8.6171    1.3139 C   0  0  0  0  0  0  0  0  0  0  0  0
   -2.5692   -7.8940    0.4531 C   0  0  0  0  0  0  0  0  0  0  0  0
    0.7877  -10.8872    1.2217 C   0  0  0  0  0  0  0  0  0  0  0  0
  1  4  1  0  0  0  0
  2  3  1  0  0  0  0
  3  5  1  0  0  0  0
  4  6  1  0  0  0  0
  5  8  1  0  0  0  0
  6  7  1  0  0  0  0
  7 10  1  0  0  0  0
  8  9  1  0  0  0  0
  9 12  1  0  0  0  0
  9 13  1  0  0  0  0
 10 11  1  0  0  0  0
 11 14  1  0  0  0  0
 14 15  1  0  0  0  0
 15 16  1  0  0  0  0
 15 17  1  0  0  0  0
 18  2  1  0  0  0  0
 18 20  2  0  0  0  0
 18 24  1  0  0  0  0
 19 25  1  0  0  0  0
 20  1  1  0  0  0  0
 20 21  1  0  0  0  0
 21 22  2  0  0  0  0
 22 19  1  0  0  0  0
 22 23  1  0  0  0  0
 23 24  2  0  0  0  0
M  END
>  <CHROM.1>
160.85262491,172.17785516,58.10641617,-176.03507743,108.56312530,161.97842792
63.49426377,-55.84161808,119.96675176,-160.39182810,-170.92674066,-115.75800885
-98.53823780,169.33366845,53.15386944,105.41008916,120.25619500,69.48445644
-3.43989262,-10.60000766,-3.08210784,-1.64560744,0.60380043,-2.22247764

>  <Name>
1uud_lig

>  <RI>
0

>  <Rbt.Current_Directory>
/home/itssahil/PROJECTS/Mol_Feturizer/New_Systems/rnas/1uud

>  <Rbt.Executable>
rbdock ($Id: //depot/dev/client3/rdock/2013.1/src/exe/rbdock.cxx#4 $)

>  <Rbt.Library>
libRbt.so (2013.1, Build901 2013/11/27)

>  <Rbt.Parameter_File>
/export/apps/rDock/src/rDock_2013.1_src/data/scripts/dock_solv.prm

>  <Rbt.Receptor>
prm/pocket_docking_3.prm

>  <SCORE>
-36.0931

>  <SCORE.INTER>
-26.9528

>  <SCORE.INTER.CONST>
1

>  <SCORE.INTER.POLAR>
-5.33958

>  <SCORE.INTER.ROT>
18

>  <SCORE.INTER.SOLV>
10.1751

>  <SCORE.INTER.VDW>
-19.1616

>  <SCORE.INTER.norm>
-1.07811

>  <SCORE.INTRA>
-9.74146

>  <SCORE.INTRA.DIHEDRAL>
-8.99262

>  <SCORE.INTRA.DIHEDRAL.0>
30.6762

>  <SCORE.INTRA.POLAR>
0.0288659

>  <SCORE.INTRA.POLAR.0>
-0.0288659

>  <SCORE.INTRA.REPUL>
0

>  <SCORE.INTRA.REPUL.0>
0

>  <SCORE.INTRA.SOLV>
-1.03263

>  <SCORE.INTRA.SOLV.lig_0>
-25.2195

>  <SCORE.INTRA.VDW>
-4.82698

>  <SCORE.INTRA.VDW.0>
4.14263

>  <SCORE.INTRA.norm>
-0.389658

>  <SCORE.RESTR>
0.601152

>  <SCORE.RESTR.CAVITY>
0.601152

>  <SCORE.RESTR.norm>
0.0240461

>  <SCORE.SYSTEM>
0

>  <SCORE.SYSTEM.CONST>
0

>  <SCORE.SYSTEM.DIHEDRAL>
0

>  <SCORE.SYSTEM.SOLV>
0

>  <SCORE.SYSTEM.norm>
0

>  <SCORE.heavy>
25

>  <SCORE.norm>
-1.44372

>  <RMSD>
7.814

$$$$
1uud_lig
 OpenBabel11021811413D
libRbt.so/2013.1/901 2013/11/27
 25 25  0  0  0  0  0  0  0  0999 V2000
   -5.5229  -11.9332   -3.9081 C   0  0  0  0  0  0  0  0  0  0  0  0
   -3.5005  -10.4114   -2.4260 O   0  0  0  0  0  0  0  0  0  0  0  0
   -2.6608  -10.7922   -1.3260 C   0  0  0  0  0  0  0  0  0  0  0  0
   -6.0414  -10.5632   -3.6712 N   0  0  0  0  0  0  0  0  0  0  0  0
   -1.5284   -9.7721   -1.1464 C   0  0  0  0  0  0  0  0  0  0  0  0
   -7.4310  -10.6337   -3.1605 C   0  0  0  0  0  0  0  0  0  0  0  0
   -7.8598   -9.2533   -2.6484 C   0  0  0  0  0  0  0  0  0  0  0  0
   -0.5664  -10.2950   -0.4239 N   0  0  0  0  0  0  0  0  0  0  0  0
   -0.5872  -10.2424    0.8947 C   0  0  0  0  0  0  0  0  0  0  0  0
   -7.8436   -8.2421   -3.7999 C   0  0  0  0  0  0  0  0  0  0  0  0
   -8.2929   -6.8720   -3.2841 C   0  0  0  0  0  0  0  0  0  0  0  0
   -1.0693   -9.1482    1.5588 N   0  0  0  0  0  0  0  0  0  0  0  0
   -0.1180  -11.2984    1.6081 N   0  0  0  0  0  0  0  0  0  0  0  0
   -8.2232   -5.9874   -4.2505 N   0  0  0  0  0  0  0  0  0  0  0  0
   -7.4426   -4.9277   -4.1601 C   0  0  0  0  0  0  0  0  0  0  0  0
   -6.0969   -5.0872   -4.2452 N   0  0  0  0  0  0  0  0  0  0  0  0
   -7.9561   -3.6758   -3.9727 N   0  0  0  0  0  0  0  0  0  0  0  0
   -3.1002  -11.1057   -3.6144 C   0  0  0  0  0  0  0  0  0  0  0  0
   -1.8759  -13.2038   -7.1286 O   0  0  0  0  0  0  0  0  0  0  0  0
   -4.0498  -11.8610   -4.3612 C   0  0  0  0  0  0  0  0  0  0  0  0
   -3.6381  -12.5645   -5.5246 C   0  0  0  0  0  0  0  0  0  0  0  0
   -2.2868  -12.4980   -5.9549 C   0  0  0  0  0  0  0  0  0  0  0  0
   -1.3432  -11.7292   -5.2218 C   0  0  0  0  0  0  0  0  0  0  0  0
   -1.7499  -11.0266   -4.0552 C   0  0  0  0  0  0  0  0  0  0  0  0
   -2.3317  -12.5062   -8.2915 C   0  0  0  0  0  0  0  0  0  0  0  0
  1  4  1  0  0  0  0
  2  3  1  0  0  0  0
  3  5  1  0  0  0  0
  4  6  1  0  0  0  0
  5  8  1  0  0  0  0
  6  7  1  0  0  0  0
  7 10  1  0  0  0  0
  8  9  1  0  0  0  0
  9 12  1  0  0  0  0
  9 13  1  0  0  0  0
 10 11  1  0  0  0  0
 11 14  1  0  0  0  0
 14 15  1  0  0  0  0
 15 16  1  0  0  0  0
 15 17  1  0  0  0  0
 18  2  1  0  0  0  0
 18 20  2  0  0  0  0
 18 24  1  0  0  0  0
 19 25  1  0  0  0  0
 20  1  1  0  0  0  0
 20 21  1  0  0  0  0
 21 22  2  0  0  0  0
 22 19  1  0  0  0  0
 22 23  1  0  0  0  0
 23 24  2  0  0  0  0
M  END
>  <CHROM.1>
-176.72504158,96.14832540,-162.01538279,168.47500052,-86.68562462,62.15251601
179.16703112,-36.65111024,-120.96008184,114.37797923,177.14631262,-119.16043418
71.57622619,-60.31320027,26.27426707,126.09190534,50.93298343,75.72976463
-4.13809339,-9.75182107,-3.25600262,0.19626283,0.68501103,-2.15569305

>  <Name>
1uud_lig

>  <RI>
0

>  <Rbt.Current_Directory>
/home/itssahil/PROJECTS/Mol_Feturizer/New_Systems/rnas/1uud

>  <Rbt.Executable>
rbdock ($Id: //depot/dev/client3/rdock/2013.1/src/exe/rbdock.cxx#4 $)

>  <Rbt.Library>
libRbt.so (2013.1, Build901 2013/11/27)

>  <Rbt.Parameter_File>
/export/apps/rDock/src/rDock_2013.1_src/data/scripts/dock_solv.prm

>  <Rbt.Receptor>
prm/pocket_docking_5.prm

>  <SCORE>
-28.7868

>  <SCORE.INTER>
-18.5407

>  <SCORE.INTER.CONST>
1

>  <SCORE.INTER.POLAR>
-3.1584

>  <SCORE.INTER.ROT>
18

>  <SCORE.INTER.SOLV>
7.37935

>  <SCORE.INTER.VDW>
-19.8923

>  <SCORE.INTER.norm>
-0.741629

>  <SCORE.INTRA>
-10.2461

>  <SCORE.INTRA.DIHEDRAL>
-6.41563

>  <SCORE.INTRA.DIHEDRAL.0>
30.6762

>  <SCORE.INTRA.POLAR>
-0.590653

>  <SCORE.INTRA.POLAR.0>
-0.0288659

>  <SCORE.INTRA.REPUL>
0

>  <SCORE.INTRA.REPUL.0>
0

>  <SCORE.INTRA.SOLV>
-0.895569

>  <SCORE.INTRA.SOLV.lig_0>
-25.2195

>  <SCORE.INTRA.VDW>
-4.58226

>  <SCORE.INTRA.VDW.0>
4.14263

>  <SCORE.INTRA.norm>
-0.409843

>  <SCORE.RESTR>
0

>  <SCORE.RESTR.CAVITY>
0

>  <SCORE.RESTR.norm>
0

>  <SCORE.SYSTEM>
0

>  <SCORE.SYSTEM.CONST>
0

>  <SCORE.SYSTEM.DIHEDRAL>
0

>  <SCORE.SYSTEM.SOLV>
0

>  <SCORE.SYSTEM.norm>
0

>  <SCORE.heavy>
25

>  <SCORE.norm>
-1.15147

>  <RMSD>
7.835

$$$$
1uud_lig
 OpenBabel11021811413D
libRbt.so/2013.1/901 2013/11/27
 25 25  0  0  0  0  0  0  0  0999 V2000
   -2.6168   -9.9367   -2.4319 C   0  0  0  0  0  0  0  0  0  0  0  0
   -4.7117   -8.7823   -0.7344 O   0  0  0  0  0  0  0  0  0  0  0  0
   -5.7628   -9.4431   -0.0141 C   0  0  0  0  0  0  0  0  0  0  0  0
   -2.2908  -11.3540   -2.7271 N   0  0  0  0  0  0  0  0  0  0  0  0
   -7.1177   -8.8072   -0.3531 C   0  0  0  0  0  0  0  0  0  0  0  0
   -2.7701  -11.7072   -4.0844 C   0  0  0  0  0  0  0  0  0  0  0  0
   -2.1089  -13.0145   -4.5377 C   0  0  0  0  0  0  0  0  0  0  0  0
   -7.8959   -9.6932   -0.9276 N   0  0  0  0  0  0  0  0  0  0  0  0
   -7.9969   -9.7745   -2.2411 C   0  0  0  0  0  0  0  0  0  0  0  0
   -2.9497  -13.6690   -5.6393 C   0  0  0  0  0  0  0  0  0  0  0  0
   -2.0488  -14.0312   -6.8235 C   0  0  0  0  0  0  0  0  0  0  0  0
   -8.5099   -8.7467   -2.9834 N   0  0  0  0  0  0  0  0  0  0  0  0
   -7.5831  -10.9051   -2.8694 N   0  0  0  0  0  0  0  0  0  0  0  0
   -2.7840  -14.3912   -7.8487 N   0  0  0  0  0  0  0  0  0  0  0  0
   -3.4514  -13.5055   -8.5633 C   0  0  0  0  0  0  0  0  0  0  0  0
   -4.8069  -13.5735   -8.6042 N   0  0  0  0  0  0  0  0  0  0  0  0
   -2.8102  -12.5286   -9.2707 N   0  0  0  0  0  0  0  0  0  0  0  0
   -3.4422   -9.0877   -0.1431 C   0  0  0  0  0  0  0  0  0  0  0  0
    0.3190  -10.0316    1.6495 O   0  0  0  0  0  0  0  0  0  0  0  0
   -2.3990   -9.6544   -0.9309 C   0  0  0  0  0  0  0  0  0  0  0  0
   -1.1521   -9.9751   -0.3302 C   0  0  0  0  0  0  0  0  0  0  0  0
   -0.9383   -9.7117    1.0483 C   0  0  0  0  0  0  0  0  0  0  0  0
   -1.9714   -9.1285    1.8304 C   0  0  0  0  0  0  0  0  0  0  0  0
   -3.2216   -8.8094    1.2344 C   0  0  0  0  0  0  0  0  0  0  0  0
    0.6472  -11.3969    1.3761 C   0  0  0  0  0  0  0  0  0  0  0  0
  1  4  1  0  0  0  0
  2  3  1  0  0  0  0
  3  5  1  0  0  0  0
  4  6  1  0  0  0  0
  5  8  1  0  0  0  0
  6  7  1  0  0  0  0
  7 10  1  0  0  0  0
  8  9  1  0  0  0  0
  9 12  1  0  0  0  0
  9 13  1  0  0  0  0
 10 11  1  0  0  0  0
 11 14  1  0  0  0  0
 14 15  1  0  0  0  0
 15 16  1  0  0  0  0
 15 17  1  0  0  0  0
 18  2  1  0  0  0  0
 18 20  2  0  0  0  0
 18 24  1  0  0  0  0
 19 25  1  0  0  0  0
 20  1  1  0  0  0  0
 20 21  1  0  0  0  0
 21 22  2  0  0  0  0
 22 19  1  0  0  0  0
 22 23  1  0  0  0  0
 23 24  2  0  0  0  0
M  END
>  <CHROM.1>
167.87791785,162.97874229,117.54764621,164.49443016,-95.99959888,158.34039919
130.03626505,-63.82793754,-33.97138635,74.23931420,-169.92369277,74.45867260
-117.34527777,-22.14463074,45.71836869,124.32428563,-126.23927129,-52.65037623
-3.66656456,-10.91098919,-2.69627312,-1.54173470,0.26504054,-2.02722708

>  <Name>
1uud_lig

>  <RI>
0

>  <Rbt.Current_Directory>
/home/itssahil/PROJECTS/Mol_Feturizer/New_Systems/rnas/1uud

>  <Rbt.Executable>
rbdock ($Id: //depot/dev/client3/rdock/2013.1/src/exe/rbdock.cxx#4 $)

>  <Rbt.Library>
libRbt.so (2013.1, Build901 2013/11/27)

>  <Rbt.Parameter_File>
/export/apps/rDock/src/rDock_2013.1_src/data/scripts/dock_solv.prm

>  <Rbt.Receptor>
prm/pocket_docking_6.prm

>  <SCORE>
-38.8147

>  <SCORE.INTER>
-35.2835

>  <SCORE.INTER.CONST>
1

>  <SCORE.INTER.POLAR>
-4.83052

>  <SCORE.INTER.ROT>
18

>  <SCORE.INTER.SOLV>
14.3713

>  <SCORE.INTER.VDW>
-27.8111

>  <SCORE.INTER.norm>
-1.41134

>  <SCORE.INTRA>
-3.53114

>  <SCORE.INTRA.DIHEDRAL>
1.38954

>  <SCORE.INTRA.DIHEDRAL.0>
30.6762

>  <SCORE.INTRA.POLAR>
0.0288659

>  <SCORE.INTRA.POLAR.0>
-0.0288659

>  <SCORE.INTRA.REPUL>
0

>  <SCORE.INTRA.REPUL.0>
0

>  <SCORE.INTRA.SOLV>
-1.16344

>  <SCORE.INTRA.SOLV.lig_0>
-25.2195

>  <SCORE.INTRA.VDW>
-3.74233

>  <SCORE.INTRA.VDW.0>
4.14263

>  <SCORE.INTRA.norm>
-0.141246

>  <SCORE.RESTR>
0

>  <SCORE.RESTR.CAVITY>
0

>  <SCORE.RESTR.norm>
0

>  <SCORE.SYSTEM>
0

>  <SCORE.SYSTEM.CONST>
0

>  <SCORE.SYSTEM.DIHEDRAL>
0

>  <SCORE.SYSTEM.SOLV>
0

>  <SCORE.SYSTEM.norm>
0

>  <SCORE.heavy>
25

>  <SCORE.norm>
-1.55259

>  <RMSD>
7.845

$$$$
1uud_lig
 OpenBabel11021811413D
libRbt.so/2013.1/901 2013/11/27
 25 25  0  0  0  0  0  0  0  0999 V2000
   -3.2886   -7.6818   -1.0757 C   0  0  0  0  0  0  0  0  0  0  0  0
   -1.3647   -9.8895   -0.9106 O   0  0  0  0  0  0  0  0  0  0  0  0
   -1.3599  -11.0302   -0.0394 C   0  0  0  0  0  0  0  0  0  0  0  0
   -4.6381   -7.2634   -0.6219 N   0  0  0  0  0  0  0  0  0  0  0  0
   -1.2892  -10.5775    1.4252 C   0  0  0  0  0  0  0  0  0  0  0  0
   -5.3625   -6.6094   -1.7373 C   0  0  0  0  0  0  0  0  0  0  0  0
   -6.8606   -6.5554   -1.4142 C   0  0  0  0  0  0  0  0  0  0  0  0
   -0.1169  -10.0429    1.6716 N   0  0  0  0  0  0  0  0  0  0  0  0
    0.9964  -10.7445    1.5699 C   0  0  0  0  0  0  0  0  0  0  0  0
   -7.6653   -6.3595   -2.7037 C   0  0  0  0  0  0  0  0  0  0  0  0
   -7.2983   -5.0141   -3.3364 C   0  0  0  0  0  0  0  0  0  0  0  0
    1.0902  -12.0131    2.0724 N   0  0  0  0  0  0  0  0  0  0  0  0
    2.0737  -10.1933    0.9536 N   0  0  0  0  0  0  0  0  0  0  0  0
   -8.0143   -4.8208   -4.4186 N   0  0  0  0  0  0  0  0  0  0  0  0
   -9.1607   -4.1692   -4.3795 C   0  0  0  0  0  0  0  0  0  0  0  0
  -10.0996   -4.4236   -5.3268 N   0  0  0  0  0  0  0  0  0  0  0  0
   -9.4209   -3.2379   -3.4146 N   0  0  0  0  0  0  0  0  0  0  0  0
   -2.4441   -9.9905   -1.8483 C   0  0  0  0  0  0  0  0  0  0  0  0
   -5.6786  -10.3323   -4.6181 O   0  0  0  0  0  0  0  0  0  0  0  0
   -3.4037   -8.9430   -1.9568 C   0  0  0  0  0  0  0  0  0  0  0  0
   -4.4830   -9.0631   -2.8727 C   0  0  0  0  0  0  0  0  0  0  0  0
   -4.5936  -10.2157   -3.6941 C   0  0  0  0  0  0  0  0  0  0  0  0
   -3.6262  -11.2522   -3.6005 C   0  0  0  0  0  0  0  0  0  0  0  0
   -2.5467  -11.1379   -2.6830 C   0  0  0  0  0  0  0  0  0  0  0  0
   -6.9200  -10.2604   -3.9109 C   0  0  0  0  0  0  0  0  0  0  0  0
  1  4  1  0  0  0  0
  2  3  1  0  0  0  0
  3  5  1  0  0  0  0
  4  6  1  0  0  0  0
  5  8  1  0  0  0  0
  6  7  1  0  0  0  0
  7 10  1  0  0  0  0
  8  9  1  0  0  0  0
  9 12  1  0  0  0  0
  9 13  1  0  0  0  0
 10 11  1  0  0  0  0
 11 14  1  0  0  0  0
 14 15  1  0  0  0  0
 15 16  1  0  0  0  0
 15 17  1  0  0  0  0
 18  2  1  0  0  0  0
 18 20  2  0  0  0  0
 18 24  1  0  0  0  0
 19 25  1  0  0  0  0
 20  1  1  0  0  0  0
 20 21  1  0  0  0  0
 21 22  2  0  0  0  0
 22 19  1  0  0  0  0
 22 23  1  0  0  0  0
 23 24  2  0  0  0  0
M  END
>  <CHROM.1>
-75.62993443,-129.55163965,-68.43266290,163.33966535,-62.54872847,-159.95245990
-62.89662251,-44.21313948,152.87765456,-144.26766756,-178.02951213,92.57539978
-154.25260750,26.38443041,63.92206432,124.51841571,-140.42887747,-58.51461130
-4.23669113,-8.42735057,-1.85151627,-0.18686700,-0.68864153,0.59439751

>  <Name>
1uud_lig

>  <RI>
0

>  <Rbt.Current_Directory>
/home/itssahil/PROJECTS/Mol_Feturizer/New_Systems/rnas/1uud

>  <Rbt.Executable>
rbdock ($Id: //depot/dev/client3/rdock/2013.1/src/exe/rbdock.cxx#4 $)

>  <Rbt.Library>
libRbt.so (2013.1, Build901 2013/11/27)

>  <Rbt.Parameter_File>
/export/apps/rDock/src/rDock_2013.1_src/data/scripts/dock_solv.prm

>  <Rbt.Receptor>
prm/pocket_docking_3.prm

>  <SCORE>
-17.834

>  <SCORE.INTER>
-15.4643

>  <SCORE.INTER.CONST>
1

>  <SCORE.INTER.POLAR>
-2.97197

>  <SCORE.INTER.ROT>
18

>  <SCORE.INTER.SOLV>
9.61421

>  <SCORE.INTER.VDW>
-19.2077

>  <SCORE.INTER.norm>
-0.618573

>  <SCORE.INTRA>
-2.58158

>  <SCORE.INTRA.DIHEDRAL>
-3.88145

>  <SCORE.INTRA.DIHEDRAL.0>
30.6762

>  <SCORE.INTRA.POLAR>
0.0288659

>  <SCORE.INTRA.POLAR.0>
-0.0288659

>  <SCORE.INTRA.REPUL>
0

>  <SCORE.INTRA.REPUL.0>
0

>  <SCORE.INTRA.SOLV>
-0.772825

>  <SCORE.INTRA.SOLV.lig_0>
-25.2195

>  <SCORE.INTRA.VDW>
-0.352583

>  <SCORE.INTRA.VDW.0>
4.14263

>  <SCORE.INTRA.norm>
-0.103263

>  <SCORE.RESTR>
0.211929

>  <SCORE.RESTR.CAVITY>
0.211929

>  <SCORE.RESTR.norm>
0.00847717

>  <SCORE.SYSTEM>
0

>  <SCORE.SYSTEM.CONST>
0

>  <SCORE.SYSTEM.DIHEDRAL>
0

>  <SCORE.SYSTEM.SOLV>
0

>  <SCORE.SYSTEM.norm>
0

>  <SCORE.heavy>
25

>  <SCORE.norm>
-0.713359

>  <RMSD>
7.865

$$$$
1uud_lig
 OpenBabel11021811413D
libRbt.so/2013.1/901 2013/11/27
 25 25  0  0  0  0  0  0  0  0999 V2000
   -1.2744   -9.9536   -0.3367 C   0  0  0  0  0  0  0  0  0  0  0  0
   -1.9502   -9.1127    2.3907 O   0  0  0  0  0  0  0  0  0  0  0  0
   -3.0099  -10.0299    2.0807 C   0  0  0  0  0  0  0  0  0  0  0  0
   -1.6012  -10.1723   -1.7676 N   0  0  0  0  0  0  0  0  0  0  0  0
   -4.3473   -9.4910    2.6063 C   0  0  0  0  0  0  0  0  0  0  0  0
   -3.0405   -9.9057   -2.0003 C   0  0  0  0  0  0  0  0  0  0  0  0
   -3.3266   -9.9145   -3.5069 C   0  0  0  0  0  0  0  0  0  0  0  0
   -5.0625  -10.4741    3.0990 N   0  0  0  0  0  0  0  0  0  0  0  0
   -6.3566  -10.3415    3.3219 C   0  0  0  0  0  0  0  0  0  0  0  0
   -4.5413   -9.0312   -3.8118 C   0  0  0  0  0  0  0  0  0  0  0  0
   -5.8189   -9.7441   -3.3593 C   0  0  0  0  0  0  0  0  0  0  0  0
   -6.8751   -9.1976    3.8636 N   0  0  0  0  0  0  0  0  0  0  0  0
   -7.1921  -11.3650    3.0076 N   0  0  0  0  0  0  0  0  0  0  0  0
   -6.7958   -8.8761   -3.2426 N   0  0  0  0  0  0  0  0  0  0  0  0
   -7.8480   -8.9114   -4.0376 C   0  0  0  0  0  0  0  0  0  0  0  0
   -9.0442   -9.3119   -3.5354 N   0  0  0  0  0  0  0  0  0  0  0  0
   -7.7596   -8.5644   -5.3559 N   0  0  0  0  0  0  0  0  0  0  0  0
   -1.8516   -8.1112    1.3701 C   0  0  0  0  0  0  0  0  0  0  0  0
   -1.5190   -5.1049   -1.6468 O   0  0  0  0  0  0  0  0  0  0  0  0
   -1.5204   -8.4761    0.0333 C   0  0  0  0  0  0  0  0  0  0  0  0
   -1.4022   -7.4733   -0.9661 C   0  0  0  0  0  0  0  0  0  0  0  0
   -1.6346   -6.1117   -0.6382 C   0  0  0  0  0  0  0  0  0  0  0  0
   -1.9841   -5.7490    0.6905 C   0  0  0  0  0  0  0  0  0  0  0  0
   -2.0999   -6.7485    1.6943 C   0  0  0  0  0  0  0  0  0  0  0  0
   -2.8054   -4.8487   -2.2178 C   0  0  0  0  0  0  0  0  0  0  0  0
  1  4  1  0  0  0  0
  2  3  1  0  0  0  0
  3  5  1  0  0  0  0
  4  6  1  0  0  0  0
  5  8  1  0  0  0  0
  6  7  1  0  0  0  0
  7 10  1  0  0  0  0
  8  9  1  0  0  0  0
  9 12  1  0  0  0  0
  9 13  1  0  0  0  0
 10 11  1  0  0  0  0
 11 14  1  0  0  0  0
 14 15  1  0  0  0  0
 15 16  1  0  0  0  0
 15 17  1  0  0  0  0
 18  2  1  0  0  0  0
 18 20  2  0  0  0  0
 18 24  1  0  0  0  0
 19 25  1  0  0  0  0
 20  1  1  0  0  0  0
 20 21  1  0  0  0  0
 21 22  2  0  0  0  0
 22 19  1  0  0  0  0
 22 23  1  0  0  0  0
 23 24  2  0  0  0  0
M  END
>  <CHROM.1>
-62.88787857,-86.09758896,-140.69147783,171.06652305,-163.75581335,-153.17031337
-73.91475972,-41.46926953,157.63214892,129.76216268,161.41605830,113.70409593
108.72061673,17.40126883,38.30271984,-62.97680482,152.59347491,94.18509818
-4.11997053,-8.71930334,-0.51366904,-0.96333567,-0.44520963,-1.30812051

>  <Name>
1uud_lig

>  <RI>
0

>  <Rbt.Current_Directory>
/home/itssahil/PROJECTS/Mol_Feturizer/New_Systems/rnas/1uud

>  <Rbt.Executable>
rbdock ($Id: //depot/dev/client3/rdock/2013.1/src/exe/rbdock.cxx#4 $)

>  <Rbt.Library>
libRbt.so (2013.1, Build901 2013/11/27)

>  <Rbt.Parameter_File>
/export/apps/rDock/src/rDock_2013.1_src/data/scripts/dock_solv.prm

>  <Rbt.Receptor>
prm/pocket_docking_7.prm

>  <SCORE>
-23.8153

>  <SCORE.INTER>
-20.4095

>  <SCORE.INTER.CONST>
1

>  <SCORE.INTER.POLAR>
-4.4464

>  <SCORE.INTER.ROT>
18

>  <SCORE.INTER.SOLV>
9.67407

>  <SCORE.INTER.VDW>
-17.6097

>  <SCORE.INTER.norm>
-0.816379

>  <SCORE.INTRA>
-3.40588

>  <SCORE.INTRA.DIHEDRAL>
-0.280849

>  <SCORE.INTRA.DIHEDRAL.0>
30.6762

>  <SCORE.INTRA.POLAR>
0.0288659

>  <SCORE.INTRA.POLAR.0>
-0.0288659

>  <SCORE.INTRA.REPUL>
0

>  <SCORE.INTRA.REPUL.0>
0

>  <SCORE.INTRA.SOLV>
-1.40991

>  <SCORE.INTRA.SOLV.lig_0>
-25.2195

>  <SCORE.INTRA.VDW>
-2.65864

>  <SCORE.INTRA.VDW.0>
4.14263

>  <SCORE.INTRA.norm>
-0.136235

>  <SCORE.RESTR>
0

>  <SCORE.RESTR.CAVITY>
0

>  <SCORE.RESTR.norm>
0

>  <SCORE.SYSTEM>
0

>  <SCORE.SYSTEM.CONST>
0

>  <SCORE.SYSTEM.DIHEDRAL>
0

>  <SCORE.SYSTEM.SOLV>
0

>  <SCORE.SYSTEM.norm>
0

>  <SCORE.heavy>
25

>  <SCORE.norm>
-0.952614

>  <RMSD>
7.875

$$$$
1uud_lig
 OpenBabel11021811413D
libRbt.so/2013.1/901 2013/11/27
 25 25  0  0  0  0  0  0  0  0999 V2000
   -4.7253  -10.8959   -5.3097 C   0  0  0  0  0  0  0  0  0  0  0  0
   -2.8779  -11.5163   -3.1177 O   0  0  0  0  0  0  0  0  0  0  0  0
   -2.4034  -10.1787   -3.3322 C   0  0  0  0  0  0  0  0  0  0  0  0
   -5.5729  -11.1285   -4.1141 N   0  0  0  0  0  0  0  0  0  0  0  0
   -1.8604   -9.5930   -2.0218 C   0  0  0  0  0  0  0  0  0  0  0  0
   -6.5740  -10.0426   -3.9895 C   0  0  0  0  0  0  0  0  0  0  0  0
   -5.9860   -8.8958   -3.1585 C   0  0  0  0  0  0  0  0  0  0  0  0
   -2.7340   -9.7672   -1.0587 N   0  0  0  0  0  0  0  0  0  0  0  0
   -2.3658   -9.8057    0.2081 C   0  0  0  0  0  0  0  0  0  0  0  0
   -6.3767   -7.5496   -3.7781 C   0  0  0  0  0  0  0  0  0  0  0  0
   -7.8767   -7.3119   -3.5814 C   0  0  0  0  0  0  0  0  0  0  0  0
   -1.4754  -10.7376    0.6657 N   0  0  0  0  0  0  0  0  0  0  0  0
   -2.8842   -8.9000    1.0772 N   0  0  0  0  0  0  0  0  0  0  0  0
   -8.2608   -6.2780   -4.2919 N   0  0  0  0  0  0  0  0  0  0  0  0
   -7.9751   -5.0439   -3.9234 C   0  0  0  0  0  0  0  0  0  0  0  0
   -8.7202   -4.4528   -2.9544 N   0  0  0  0  0  0  0  0  0  0  0  0
   -6.9542   -4.3438   -4.5012 N   0  0  0  0  0  0  0  0  0  0  0  0
   -2.7802  -12.2738   -4.3306 C   0  0  0  0  0  0  0  0  0  0  0  0
   -2.5010  -14.5736   -7.9200 O   0  0  0  0  0  0  0  0  0  0  0  0
   -3.6618  -12.0083   -5.4180 C   0  0  0  0  0  0  0  0  0  0  0  0
   -3.5722  -12.7803   -6.6072 C   0  0  0  0  0  0  0  0  0  0  0  0
   -2.5917  -13.8008   -6.7204 C   0  0  0  0  0  0  0  0  0  0  0  0
   -1.6993  -14.0532   -5.6439 C   0  0  0  0  0  0  0  0  0  0  0  0
   -1.7876  -13.2857   -4.4509 C   0  0  0  0  0  0  0  0  0  0  0  0
   -2.3951  -13.6986   -9.0468 C   0  0  0  0  0  0  0  0  0  0  0  0
  1  4  1  0  0  0  0
  2  3  1  0  0  0  0
  3  5  1  0  0  0  0
  4  6  1  0  0  0  0
  5  8  1  0  0  0  0
  6  7  1  0  0  0  0
  7 10  1  0  0  0  0
  8  9  1  0  0  0  0
  9 12  1  0  0  0  0
  9 13  1  0  0  0  0
 10 11  1  0  0  0  0
 11 14  1  0  0  0  0
 14 15  1  0  0  0  0
 15 16  1  0  0  0  0
 15 17  1  0  0  0  0
 18  2  1  0  0  0  0
 18 20  2  0  0  0  0
 18 24  1  0  0  0  0
 19 25  1  0  0  0  0
 20  1  1  0  0  0  0
 20 21  1  0  0  0  0
 21 22  2  0  0  0  0
 22 19  1  0  0  0  0
 22 23  1  0  0  0  0
 23 24  2  0  0  0  0
M  END
>  <CHROM.1>
178.61556006,-152.46730760,-49.67540984,-89.16521810,155.47066198,138.91444604
69.97563845,-59.33897071,-29.16466184,-164.60249874,-169.73076576,-74.93970454
-79.33962992,168.53674096,128.17120054,-71.53413590,-55.30126873,52.86659467
-4.30741482,-10.03040983,-3.83220489,0.72999891,0.77115304,-2.12818098

>  <Name>
1uud_lig

>  <RI>
0

>  <Rbt.Current_Directory>
/home/itssahil/PROJECTS/Mol_Feturizer/New_Systems/rnas/1uud

>  <Rbt.Executable>
rbdock ($Id: //depot/dev/client3/rdock/2013.1/src/exe/rbdock.cxx#4 $)

>  <Rbt.Library>
libRbt.so (2013.1, Build901 2013/11/27)

>  <Rbt.Parameter_File>
/export/apps/rDock/src/rDock_2013.1_src/data/scripts/dock_solv.prm

>  <Rbt.Receptor>
prm/pocket_docking_2.prm

>  <SCORE>
-6.60927

>  <SCORE.INTER>
-2.23776

>  <SCORE.INTER.CONST>
1

>  <SCORE.INTER.POLAR>
-0.976274

>  <SCORE.INTER.ROT>
18

>  <SCORE.INTER.SOLV>
5.70208

>  <SCORE.INTER.VDW>
-15.7383

>  <SCORE.INTER.norm>
-0.0895104

>  <SCORE.INTRA>
-5.88581

>  <SCORE.INTRA.DIHEDRAL>
-2.6874

>  <SCORE.INTRA.DIHEDRAL.0>
30.6762

>  <SCORE.INTRA.POLAR>
-0.296512

>  <SCORE.INTRA.POLAR.0>
-0.0288659

>  <SCORE.INTRA.REPUL>
0.0011081

>  <SCORE.INTRA.REPUL.0>
0

>  <SCORE.INTRA.SOLV>
-0.454231

>  <SCORE.INTRA.SOLV.lig_0>
-25.2195

>  <SCORE.INTRA.VDW>
-3.31239

>  <SCORE.INTRA.VDW.0>
4.14263

>  <SCORE.INTRA.norm>
-0.235432

>  <SCORE.RESTR>
1.5143

>  <SCORE.RESTR.CAVITY>
1.5143

>  <SCORE.RESTR.norm>
0.0605718

>  <SCORE.SYSTEM>
0

>  <SCORE.SYSTEM.CONST>
0

>  <SCORE.SYSTEM.DIHEDRAL>
0

>  <SCORE.SYSTEM.SOLV>
0

>  <SCORE.SYSTEM.norm>
0

>  <SCORE.heavy>
25

>  <SCORE.norm>
-0.264371

>  <RMSD>
7.906

$$$$
1uud_lig
 OpenBabel11021811413D
libRbt.so/2013.1/901 2013/11/27
 25 25  0  0  0  0  0  0  0  0999 V2000
   -4.2158   -7.8782    3.4809 C   0  0  0  0  0  0  0  0  0  0  0  0
   -3.2073   -9.9448    1.6604 O   0  0  0  0  0  0  0  0  0  0  0  0
   -3.6783  -10.0302    0.3072 C   0  0  0  0  0  0  0  0  0  0  0  0
   -5.2433   -6.9794    2.8991 N   0  0  0  0  0  0  0  0  0  0  0  0
   -2.6418  -10.7452   -0.5701 C   0  0  0  0  0  0  0  0  0  0  0  0
   -5.6939   -7.5122    1.5914 C   0  0  0  0  0  0  0  0  0  0  0  0
   -6.6278   -6.4987    0.9190 C   0  0  0  0  0  0  0  0  0  0  0  0
   -3.0695  -10.8045   -1.8087 N   0  0  0  0  0  0  0  0  0  0  0  0
   -2.4197  -10.2107   -2.7922 C   0  0  0  0  0  0  0  0  0  0  0  0
   -7.1623   -7.0754   -0.3965 C   0  0  0  0  0  0  0  0  0  0  0  0
   -8.0771   -6.0490   -1.0709 C   0  0  0  0  0  0  0  0  0  0  0  0
   -1.0596  -10.0685   -2.7669 N   0  0  0  0  0  0  0  0  0  0  0  0
   -3.1179   -9.7290   -3.8527 N   0  0  0  0  0  0  0  0  0  0  0  0
   -8.8023   -6.6366   -1.9928 N   0  0  0  0  0  0  0  0  0  0  0  0
   -8.4873   -6.5582   -3.2715 C   0  0  0  0  0  0  0  0  0  0  0  0
   -8.4220   -7.6968   -4.0084 N   0  0  0  0  0  0  0  0  0  0  0  0
   -8.2154   -5.3600   -3.8685 N   0  0  0  0  0  0  0  0  0  0  0  0
   -2.4331   -8.7517    1.8379 C   0  0  0  0  0  0  0  0  0  0  0  0
   -0.1319   -5.1846    2.3182 O   0  0  0  0  0  0  0  0  0  0  0  0
   -2.8893   -7.7207    2.7090 C   0  0  0  0  0  0  0  0  0  0  0  0
   -2.1262   -6.5319    2.8602 C   0  0  0  0  0  0  0  0  0  0  0  0
   -0.9000   -6.3803    2.1610 C   0  0  0  0  0  0  0  0  0  0  0  0
   -0.4345   -7.4162    1.3071 C   0  0  0  0  0  0  0  0  0  0  0  0
   -1.1965   -8.6057    1.1501 C   0  0  0  0  0  0  0  0  0  0  0  0
   -0.8856   -4.0650    1.8438 C   0  0  0  0  0  0  0  0  0  0  0  0
  1  4  1  0  0  0  0
  2  3  1  0  0  0  0
  3  5  1  0  0  0  0
  4  6  1  0  0  0  0
  5  8  1  0  0  0  0
  6  7  1  0  0  0  0
  7 10  1  0  0  0  0
  8  9  1  0  0  0  0
  9 12  1  0  0  0  0
  9 13  1  0  0  0  0
 10 11  1  0  0  0  0
 11 14  1  0  0  0  0
 14 15  1  0  0  0  0
 15 16  1  0  0  0  0
 15 17  1  0  0  0  0
 18  2  1  0  0  0  0
 18 20  2  0  0  0  0
 18 24  1  0  0  0  0
 19 25  1  0  0  0  0
 20  1  1  0  0  0  0
 20 21  1  0  0  0  0
 21 22  2  0  0  0  0
 22 19  1  0  0  0  0
 22 23  1  0  0  0  0
 23 24  2  0  0  0  0
M  END
>  <CHROM.1>
73.09275391,88.39971608,-179.16129440,-173.29150632,117.55459234,-176.76675926
-179.16798600,31.51932875,-109.49779767,-16.81355638,-163.73758558,-100.53247738
129.70500435,-68.81553793,9.57135935,114.86572179,-107.88525014,-62.63174925
-4.10625422,-7.77518257,-0.06183752,0.44119528,-0.44258375,0.93863708

>  <Name>
1uud_lig

>  <RI>
0

>  <Rbt.Current_Directory>
/home/itssahil/PROJECTS/Mol_Feturizer/New_Systems/rnas/1uud

>  <Rbt.Executable>
rbdock ($Id: //depot/dev/client3/rdock/2013.1/src/exe/rbdock.cxx#4 $)

>  <Rbt.Library>
libRbt.so (2013.1, Build901 2013/11/27)

>  <Rbt.Parameter_File>
/export/apps/rDock/src/rDock_2013.1_src/data/scripts/dock_solv.prm

>  <Rbt.Receptor>
prm/pocket_docking_6.prm

>  <SCORE>
-19.0662

>  <SCORE.INTER>
-10.2548

>  <SCORE.INTER.CONST>
1

>  <SCORE.INTER.POLAR>
-3.12799

>  <SCORE.INTER.ROT>
18

>  <SCORE.INTER.SOLV>
5.27071

>  <SCORE.INTER.VDW>
-13.7668

>  <SCORE.INTER.norm>
-0.410192

>  <SCORE.INTRA>
-8.81142

>  <SCORE.INTRA.DIHEDRAL>
-7.82621

>  <SCORE.INTRA.DIHEDRAL.0>
30.6762

>  <SCORE.INTRA.POLAR>
0.0288659

>  <SCORE.INTRA.POLAR.0>
-0.0288659

>  <SCORE.INTRA.REPUL>
0

>  <SCORE.INTRA.REPUL.0>
0

>  <SCORE.INTRA.SOLV>
-1.1649

>  <SCORE.INTRA.SOLV.lig_0>
-25.2195

>  <SCORE.INTRA.VDW>
-4.41401

>  <SCORE.INTRA.VDW.0>
4.14263

>  <SCORE.INTRA.norm>
-0.352457

>  <SCORE.RESTR>
0

>  <SCORE.RESTR.CAVITY>
0

>  <SCORE.RESTR.norm>
0

>  <SCORE.SYSTEM>
0

>  <SCORE.SYSTEM.CONST>
0

>  <SCORE.SYSTEM.DIHEDRAL>
0

>  <SCORE.SYSTEM.SOLV>
0

>  <SCORE.SYSTEM.norm>
0

>  <SCORE.heavy>
25

>  <SCORE.norm>
-0.762649

>  <RMSD>
7.909

$$$$
1uud_lig
 OpenBabel11021811413D
libRbt.so/2013.1/901 2013/11/27
 25 25  0  0  0  0  0  0  0  0999 V2000
   -2.8633  -10.6776   -0.0687 C   0  0  0  0  0  0  0  0  0  0  0  0
   -1.4966   -8.2393    0.8197 O   0  0  0  0  0  0  0  0  0  0  0  0
   -0.4805   -9.1053    1.3468 C   0  0  0  0  0  0  0  0  0  0  0  0
   -2.3899   -9.8862   -1.2313 N   0  0  0  0  0  0  0  0  0  0  0  0
    0.7179   -9.1593    0.3897 C   0  0  0  0  0  0  0  0  0  0  0  0
   -3.5274   -9.1540   -1.8369 C   0  0  0  0  0  0  0  0  0  0  0  0
   -4.3502  -10.1129   -2.7059 C   0  0  0  0  0  0  0  0  0  0  0  0
    1.7549   -9.6805    1.0010 N   0  0  0  0  0  0  0  0  0  0  0  0
    1.8759  -10.9845    1.1646 C   0  0  0  0  0  0  0  0  0  0  0  0
   -5.6421   -9.4255   -3.1611 C   0  0  0  0  0  0  0  0  0  0  0  0
   -6.2562  -10.2093   -4.3246 C   0  0  0  0  0  0  0  0  0  0  0  0
    3.0420  -11.6364    0.8716 N   0  0  0  0  0  0  0  0  0  0  0  0
    0.8178  -11.6953    1.6331 N   0  0  0  0  0  0  0  0  0  0  0  0
   -6.2359   -9.4784   -5.4139 N   0  0  0  0  0  0  0  0  0  0  0  0
   -7.0555   -8.4571   -5.5742 C   0  0  0  0  0  0  0  0  0  0  0  0
   -8.2792   -8.6698   -6.1227 N   0  0  0  0  0  0  0  0  0  0  0  0
   -6.6977   -7.1898   -5.2108 N   0  0  0  0  0  0  0  0  0  0  0  0
   -2.7674   -8.5617    1.3990 C   0  0  0  0  0  0  0  0  0  0  0  0
   -6.5743   -9.4800    3.1062 O   0  0  0  0  0  0  0  0  0  0  0  0
   -3.4673   -9.7340    0.9919 C   0  0  0  0  0  0  0  0  0  0  0  0
   -4.7370  -10.0323    1.5552 C   0  0  0  0  0  0  0  0  0  0  0  0
   -5.2981   -9.1752    2.5379 C   0  0  0  0  0  0  0  0  0  0  0  0
   -4.5920   -8.0162    2.9588 C   0  0  0  0  0  0  0  0  0  0  0  0
   -3.3231   -7.7119    2.3954 C   0  0  0  0  0  0  0  0  0  0  0  0
   -6.4256  -10.4990    4.0992 C   0  0  0  0  0  0  0  0  0  0  0  0
  1  4  1  0  0  0  0
  2  3  1  0  0  0  0
  3  5  1  0  0  0  0
  4  6  1  0  0  0  0
  5  8  1  0  0  0  0
  6  7  1  0  0  0  0
  7 10  1  0  0  0  0
  8  9  1  0  0  0  0
  9 12  1  0  0  0  0
  9 13  1  0  0  0  0
 10 11  1  0  0  0  0
 11 14  1  0  0  0  0
 14 15  1  0  0  0  0
 15 16  1  0  0  0  0
 15 17  1  0  0  0  0
 18  2  1  0  0  0  0
 18 20  2  0  0  0  0
 18 24  1  0  0  0  0
 19 25  1  0  0  0  0
 20  1  1  0  0  0  0
 20 21  1  0  0  0  0
 21 22  2  0  0  0  0
 22 19  1  0  0  0  0
 22 23  1  0  0  0  0
 23 24  2  0  0  0  0
M  END
>  <CHROM.1>
-60.51092454,158.11590923,165.14136695,-78.68620582,79.28872012,171.35087626
164.02286991,132.42872783,12.36046045,-72.09657637,-114.67073820,-73.17310180
-88.40901820,-92.91128653,162.12597149,-74.45068320,-48.00341083,78.85444893
-3.34481303,-9.49596454,-0.44140834,-0.71764984,0.17743570,-1.55889759

>  <Name>
1uud_lig

>  <RI>
0

>  <Rbt.Current_Directory>
/home/itssahil/PROJECTS/Mol_Feturizer/New_Systems/rnas/1uud

>  <Rbt.Executable>
rbdock ($Id: //depot/dev/client3/rdock/2013.1/src/exe/rbdock.cxx#4 $)

>  <Rbt.Library>
libRbt.so (2013.1, Build901 2013/11/27)

>  <Rbt.Parameter_File>
/export/apps/rDock/src/rDock_2013.1_src/data/scripts/dock_solv.prm

>  <Rbt.Receptor>
prm/pocket_docking_6.prm

>  <SCORE>
-39.9389

>  <SCORE.INTER>
-34.2496

>  <SCORE.INTER.CONST>
1

>  <SCORE.INTER.POLAR>
-5.03096

>  <SCORE.INTER.ROT>
18

>  <SCORE.INTER.SOLV>
15.2741

>  <SCORE.INTER.VDW>
-26.7545

>  <SCORE.INTER.norm>
-1.36998

>  <SCORE.INTRA>
-5.68932

>  <SCORE.INTRA.DIHEDRAL>
-0.880146

>  <SCORE.INTRA.DIHEDRAL.0>
30.6762

>  <SCORE.INTRA.POLAR>
-0.31249

>  <SCORE.INTRA.POLAR.0>
-0.0288659

>  <SCORE.INTRA.REPUL>
0

>  <SCORE.INTRA.REPUL.0>
0

>  <SCORE.INTRA.SOLV>
-0.531452

>  <SCORE.INTRA.SOLV.lig_0>
-25.2195

>  <SCORE.INTRA.VDW>
-3.92105

>  <SCORE.INTRA.VDW.0>
4.14263

>  <SCORE.INTRA.norm>
-0.227573

>  <SCORE.RESTR>
0

>  <SCORE.RESTR.CAVITY>
0

>  <SCORE.RESTR.norm>
0

>  <SCORE.SYSTEM>
0

>  <SCORE.SYSTEM.CONST>
0

>  <SCORE.SYSTEM.DIHEDRAL>
0

>  <SCORE.SYSTEM.SOLV>
0

>  <SCORE.SYSTEM.norm>
0

>  <SCORE.heavy>
25

>  <SCORE.norm>
-1.59756

>  <RMSD>
7.949

$$$$
1uud_lig
 OpenBabel11021811413D
libRbt.so/2013.1/901 2013/11/27
 25 25  0  0  0  0  0  0  0  0999 V2000
   -2.3674   -9.3239   -2.5545 C   0  0  0  0  0  0  0  0  0  0  0  0
   -4.7027   -9.8351   -0.8552 O   0  0  0  0  0  0  0  0  0  0  0  0
   -5.0462   -8.4864   -1.2063 C   0  0  0  0  0  0  0  0  0  0  0  0
   -1.6445  -10.3536   -3.3414 N   0  0  0  0  0  0  0  0  0  0  0  0
   -6.4062   -8.4543   -1.9167 C   0  0  0  0  0  0  0  0  0  0  0  0
   -2.6176  -11.2571   -3.9999 C   0  0  0  0  0  0  0  0  0  0  0  0
   -1.8771  -12.1967   -4.9592 C   0  0  0  0  0  0  0  0  0  0  0  0
   -6.7161   -7.2195   -2.2329 N   0  0  0  0  0  0  0  0  0  0  0  0
   -7.6103   -6.9497   -3.1654 C   0  0  0  0  0  0  0  0  0  0  0  0
   -2.8669  -13.1802   -5.5930 C   0  0  0  0  0  0  0  0  0  0  0  0
   -2.1014  -14.2070   -6.4325 C   0  0  0  0  0  0  0  0  0  0  0  0
   -7.4573   -5.8906   -4.0172 N   0  0  0  0  0  0  0  0  0  0  0  0
   -8.7079   -7.7410   -3.2805 N   0  0  0  0  0  0  0  0  0  0  0  0
   -2.9441  -15.0440   -6.9898 N   0  0  0  0  0  0  0  0  0  0  0  0
   -3.0169  -15.1788   -8.3002 C   0  0  0  0  0  0  0  0  0  0  0  0
   -1.9186  -15.5878   -8.9858 N   0  0  0  0  0  0  0  0  0  0  0  0
   -4.1679  -14.9068   -8.9838 N   0  0  0  0  0  0  0  0  0  0  0  0
   -3.4001   -9.8719   -0.2581 C   0  0  0  0  0  0  0  0  0  0  0  0
    0.4751  -10.0303    1.5329 O   0  0  0  0  0  0  0  0  0  0  0  0
   -2.2390   -9.6344   -1.0487 C   0  0  0  0  0  0  0  0  0  0  0  0
   -0.9511   -9.6961   -0.4522 C   0  0  0  0  0  0  0  0  0  0  0  0
   -0.8221   -9.9729    0.9342 C   0  0  0  0  0  0  0  0  0  0  0  0
   -1.9806  -10.1906    1.7276 C   0  0  0  0  0  0  0  0  0  0  0  0
   -3.2709  -10.1333    1.1343 C   0  0  0  0  0  0  0  0  0  0  0  0
    1.1052  -11.2689    1.1932 C   0  0  0  0  0  0  0  0  0  0  0  0
  1  4  1  0  0  0  0
  2  3  1  0  0  0  0
  3  5  1  0  0  0  0
  4  6  1  0  0  0  0
  5  8  1  0  0  0  0
  6  7  1  0  0  0  0
  7 10  1  0  0  0  0
  8  9  1  0  0  0  0
  9 12  1  0  0  0  0
  9 13  1  0  0  0  0
 10 11  1  0  0  0  0
 11 14  1  0  0  0  0
 14 15  1  0  0  0  0
 15 16  1  0  0  0  0
 15 17  1  0  0  0  0
 18  2  1  0  0  0  0
 18 20  2  0  0  0  0
 18 24  1  0  0  0  0
 19 25  1  0  0  0  0
 20  1  1  0  0  0  0
 20 21  1  0  0  0  0
 21 22  2  0  0  0  0
 22 19  1  0  0  0  0
 22 23  1  0  0  0  0
 23 24  2  0  0  0  0
M  END
>  <CHROM.1>
106.48386385,176.84691024,179.88107190,172.37614385,160.10053854,177.23732003
-174.04265317,-142.85985210,157.79797107,-152.97180712,-179.33017538,120.58545292
60.38838557,17.78613021,166.09160760,-70.47763581,-119.90991460,-76.51972398
-3.37149913,-10.68410546,-2.98794596,-1.70291588,0.58581725,-2.17999410

>  <Name>
1uud_lig

>  <RI>
0

>  <Rbt.Current_Directory>
/home/itssahil/PROJECTS/Mol_Feturizer/New_Systems/rnas/1uud

>  <Rbt.Executable>
rbdock ($Id: //depot/dev/client3/rdock/2013.1/src/exe/rbdock.cxx#4 $)

>  <Rbt.Library>
libRbt.so (2013.1, Build901 2013/11/27)

>  <Rbt.Parameter_File>
/export/apps/rDock/src/rDock_2013.1_src/data/scripts/dock_solv.prm

>  <Rbt.Receptor>
prm/pocket_docking_4.prm

>  <SCORE>
-38.6398

>  <SCORE.INTER>
-30.07

>  <SCORE.INTER.CONST>
1

>  <SCORE.INTER.POLAR>
-5.74572

>  <SCORE.INTER.ROT>
18

>  <SCORE.INTER.SOLV>
9.42671

>  <SCORE.INTER.VDW>
-19.6365

>  <SCORE.INTER.norm>
-1.2028

>  <SCORE.INTRA>
-8.6019

>  <SCORE.INTRA.DIHEDRAL>
-8.01034

>  <SCORE.INTRA.DIHEDRAL.0>
30.6762

>  <SCORE.INTRA.POLAR>
0.0288659

>  <SCORE.INTRA.POLAR.0>
-0.0288659

>  <SCORE.INTRA.REPUL>
0

>  <SCORE.INTRA.REPUL.0>
0

>  <SCORE.INTRA.SOLV>
-1.56714

>  <SCORE.INTRA.SOLV.lig_0>
-25.2195

>  <SCORE.INTRA.VDW>
-3.9113

>  <SCORE.INTRA.VDW.0>
4.14263

>  <SCORE.INTRA.norm>
-0.344076

>  <SCORE.RESTR>
0.0321449

>  <SCORE.RESTR.CAVITY>
0.0321449

>  <SCORE.RESTR.norm>
0.0012858

>  <SCORE.SYSTEM>
0

>  <SCORE.SYSTEM.CONST>
0

>  <SCORE.SYSTEM.DIHEDRAL>
0

>  <SCORE.SYSTEM.SOLV>
0

>  <SCORE.SYSTEM.norm>
0

>  <SCORE.heavy>
25

>  <SCORE.norm>
-1.54559

>  <RMSD>
7.962

$$$$
1uud_lig
 OpenBabel11021811413D
libRbt.so/2013.1/901 2013/11/27
 25 25  0  0  0  0  0  0  0  0999 V2000
   -3.0830   -9.5541   -5.3827 C   0  0  0  0  0  0  0  0  0  0  0  0
   -4.6083  -11.1963   -3.4908 O   0  0  0  0  0  0  0  0  0  0  0  0
   -5.9313  -11.1954   -4.0475 C   0  0  0  0  0  0  0  0  0  0  0  0
   -2.0919   -8.9967   -6.3362 N   0  0  0  0  0  0  0  0  0  0  0  0
   -6.8011  -10.1452   -3.3434 C   0  0  0  0  0  0  0  0  0  0  0  0
   -2.0630   -7.5191   -6.2237 C   0  0  0  0  0  0  0  0  0  0  0  0
   -3.4299   -6.9478   -6.6195 C   0  0  0  0  0  0  0  0  0  0  0  0
   -6.3694   -8.9407   -3.6328 N   0  0  0  0  0  0  0  0  0  0  0  0
   -6.7665   -8.3083   -4.7211 C   0  0  0  0  0  0  0  0  0  0  0  0
   -3.6712   -5.6213   -5.8909 C   0  0  0  0  0  0  0  0  0  0  0  0
   -5.1535   -5.2482   -5.9847 C   0  0  0  0  0  0  0  0  0  0  0  0
   -7.7927   -7.4047   -4.6884 N   0  0  0  0  0  0  0  0  0  0  0  0
   -6.1427   -8.5619   -5.9004 N   0  0  0  0  0  0  0  0  0  0  0  0
   -5.3777   -4.1425   -5.3151 N   0  0  0  0  0  0  0  0  0  0  0  0
   -5.6872   -3.0161   -5.9281 C   0  0  0  0  0  0  0  0  0  0  0  0
   -6.9571   -2.8305   -6.3712 N   0  0  0  0  0  0  0  0  0  0  0  0
   -4.7575   -2.0370   -6.1364 N   0  0  0  0  0  0  0  0  0  0  0  0
   -3.6983  -11.8492   -4.3854 C   0  0  0  0  0  0  0  0  0  0  0  0
   -1.0247  -13.8197   -7.0723 O   0  0  0  0  0  0  0  0  0  0  0  0
   -2.9418  -11.0893   -5.3236 C   0  0  0  0  0  0  0  0  0  0  0  0
   -2.0598  -11.7481   -6.2216 C   0  0  0  0  0  0  0  0  0  0  0  0
   -1.9162  -13.1596   -6.1701 C   0  0  0  0  0  0  0  0  0  0  0  0
   -2.6556  -13.9163   -5.2216 C   0  0  0  0  0  0  0  0  0  0  0  0
   -3.5418  -13.2618   -4.3236 C   0  0  0  0  0  0  0  0  0  0  0  0
   -1.6970  -14.0752   -8.3090 C   0  0  0  0  0  0  0  0  0  0  0  0
  1  4  1  0  0  0  0
  2  3  1  0  0  0  0
  3  5  1  0  0  0  0
  4  6  1  0  0  0  0
  5  8  1  0  0  0  0
  6  7  1  0  0  0  0
  7 10  1  0  0  0  0
  8  9  1  0  0  0  0
  9 12  1  0  0  0  0
  9 13  1  0  0  0  0
 10 11  1  0  0  0  0
 11 14  1  0  0  0  0
 14 15  1  0  0  0  0
 15 16  1  0  0  0  0
 15 17  1  0  0  0  0
 18  2  1  0  0  0  0
 18 20  2  0  0  0  0
 18 24  1  0  0  0  0
 19 25  1  0  0  0  0
 20  1  1  0  0  0  0
 20 21  1  0  0  0  0
 21 22  2  0  0  0  0
 22 19  1  0  0  0  0
 22 23  1  0  0  0  0
 23 24  2  0  0  0  0
M  END
>  <CHROM.1>
-170.29039510,-162.20684997,67.71344666,-62.98279130,85.85341042,151.95784113
-164.89784541,96.41694096,-101.85439256,17.32472684,177.35282063,110.90053409
78.65725557,-11.91871920,174.91300771,94.25440784,174.09522742,-85.18343346
-4.29398874,-8.86888289,-5.50041480,-1.16375442,0.55790475,-0.21547362

>  <Name>
1uud_lig

>  <RI>
0

>  <Rbt.Current_Directory>
/home/itssahil/PROJECTS/Mol_Feturizer/New_Systems/rnas/1uud

>  <Rbt.Executable>
rbdock ($Id: //depot/dev/client3/rdock/2013.1/src/exe/rbdock.cxx#4 $)

>  <Rbt.Library>
libRbt.so (2013.1, Build901 2013/11/27)

>  <Rbt.Parameter_File>
/export/apps/rDock/src/rDock_2013.1_src/data/scripts/dock_solv.prm

>  <Rbt.Receptor>
prm/pocket_docking_6.prm

>  <SCORE>
-18.0234

>  <SCORE.INTER>
-9.54573

>  <SCORE.INTER.CONST>
1

>  <SCORE.INTER.POLAR>
-2.83107

>  <SCORE.INTER.ROT>
18

>  <SCORE.INTER.SOLV>
6.43014

>  <SCORE.INTER.VDW>
-14.6703

>  <SCORE.INTER.norm>
-0.381829

>  <SCORE.INTRA>
-8.4777

>  <SCORE.INTRA.DIHEDRAL>
-5.42925

>  <SCORE.INTRA.DIHEDRAL.0>
30.6762

>  <SCORE.INTRA.POLAR>
0.0288659

>  <SCORE.INTRA.POLAR.0>
-0.0288659

>  <SCORE.INTRA.REPUL>
0

>  <SCORE.INTRA.REPUL.0>
0

>  <SCORE.INTRA.SOLV>
0.554761

>  <SCORE.INTRA.SOLV.lig_0>
-25.2195

>  <SCORE.INTRA.VDW>
-6.1386

>  <SCORE.INTRA.VDW.0>
4.14263

>  <SCORE.INTRA.norm>
-0.339108

>  <SCORE.RESTR>
0

>  <SCORE.RESTR.CAVITY>
0

>  <SCORE.RESTR.norm>
0

>  <SCORE.SYSTEM>
0

>  <SCORE.SYSTEM.CONST>
0

>  <SCORE.SYSTEM.DIHEDRAL>
0

>  <SCORE.SYSTEM.SOLV>
0

>  <SCORE.SYSTEM.norm>
0

>  <SCORE.heavy>
25

>  <SCORE.norm>
-0.720937

>  <RMSD>
7.996

$$$$
1uud_lig
 OpenBabel11021811413D
libRbt.so/2013.1/901 2013/11/27
 25 25  0  0  0  0  0  0  0  0999 V2000
   -2.8547   -6.8066   -4.5459 C   0  0  0  0  0  0  0  0  0  0  0  0
   -3.1514   -7.8761   -1.8310 O   0  0  0  0  0  0  0  0  0  0  0  0
   -2.6160   -7.2148   -0.6750 C   0  0  0  0  0  0  0  0  0  0  0  0
   -4.2637   -7.2509   -4.4064 N   0  0  0  0  0  0  0  0  0  0  0  0
   -3.7326   -6.9361    0.3402 C   0  0  0  0  0  0  0  0  0  0  0  0
   -4.5850   -8.2402   -5.4622 C   0  0  0  0  0  0  0  0  0  0  0  0
   -4.2611   -9.6518   -4.9581 C   0  0  0  0  0  0  0  0  0  0  0  0
   -3.2133   -6.5429    1.4789 N   0  0  0  0  0  0  0  0  0  0  0  0
   -2.4238   -7.3299    2.1854 C   0  0  0  0  0  0  0  0  0  0  0  0
   -5.4626  -10.5752   -5.1865 C   0  0  0  0  0  0  0  0  0  0  0  0
   -6.4125  -10.4848   -3.9887 C   0  0  0  0  0  0  0  0  0  0  0  0
   -2.9302   -8.2483    3.0634 N   0  0  0  0  0  0  0  0  0  0  0  0
   -1.0779   -7.2243    2.0382 N   0  0  0  0  0  0  0  0  0  0  0  0
   -6.8924   -9.2676   -3.8918 N   0  0  0  0  0  0  0  0  0  0  0  0
   -8.0564   -8.9414   -4.4203 C   0  0  0  0  0  0  0  0  0  0  0  0
   -9.1931   -9.1795   -3.7168 N   0  0  0  0  0  0  0  0  0  0  0  0
   -8.1450   -8.3796   -5.6623 N   0  0  0  0  0  0  0  0  0  0  0  0
   -2.0864   -8.3744   -2.6506 C   0  0  0  0  0  0  0  0  0  0  0  0
    1.0673   -9.9059   -5.0918 O   0  0  0  0  0  0  0  0  0  0  0  0
   -1.9100   -7.8856   -3.9772 C   0  0  0  0  0  0  0  0  0  0  0  0
   -0.8656   -8.4029   -4.7896 C   0  0  0  0  0  0  0  0  0  0  0  0
    0.0144   -9.3900   -4.2733 C   0  0  0  0  0  0  0  0  0  0  0  0
   -0.1487   -9.8640   -2.9438 C   0  0  0  0  0  0  0  0  0  0  0  0
   -1.1943   -9.3519   -2.1287 C   0  0  0  0  0  0  0  0  0  0  0  0
    0.8470  -11.2985   -5.3345 C   0  0  0  0  0  0  0  0  0  0  0  0
  1  4  1  0  0  0  0
  2  3  1  0  0  0  0
  3  5  1  0  0  0  0
  4  6  1  0  0  0  0
  5  8  1  0  0  0  0
  6  7  1  0  0  0  0
  7 10  1  0  0  0  0
  8  9  1  0  0  0  0
  9 12  1  0  0  0  0
  9 13  1  0  0  0  0
 10 11  1  0  0  0  0
 11 14  1  0  0  0  0
 14 15  1  0  0  0  0
 15 16  1  0  0  0  0
 15 17  1  0  0  0  0
 18  2  1  0  0  0  0
 18 20  2  0  0  0  0
 18 24  1  0  0  0  0
 19 25  1  0  0  0  0
 20  1  1  0  0  0  0
 20 21  1  0  0  0  0
 21 22  2  0  0  0  0
 22 19  1  0  0  0  0
 22 23  1  0  0  0  0
 23 24  2  0  0  0  0
M  END
>  <CHROM.1>
-77.89178697,-168.42327332,169.35753666,89.52935374,-62.71201757,129.57329098
-87.29124215,-84.96260200,-80.70241316,139.29231645,63.42152037,95.08690355
84.37283716,37.98056557,33.76609490,-117.32643753,-53.81711666,-115.57690258
-3.41150658,-8.57075790,-2.79468144,-2.36273188,-0.08007138,1.25583753

>  <Name>
1uud_lig

>  <RI>
0

>  <Rbt.Current_Directory>
/home/itssahil/PROJECTS/Mol_Feturizer/New_Systems/rnas/1uud

>  <Rbt.Executable>
rbdock ($Id: //depot/dev/client3/rdock/2013.1/src/exe/rbdock.cxx#4 $)

>  <Rbt.Library>
libRbt.so (2013.1, Build901 2013/11/27)

>  <Rbt.Parameter_File>
/export/apps/rDock/src/rDock_2013.1_src/data/scripts/dock_solv.prm

>  <Rbt.Receptor>
prm/pocket_docking_7.prm

>  <SCORE>
-25.7878

>  <SCORE.INTER>
-18.7938

>  <SCORE.INTER.CONST>
1

>  <SCORE.INTER.POLAR>
-5.03836

>  <SCORE.INTER.ROT>
18

>  <SCORE.INTER.SOLV>
9.24436

>  <SCORE.INTER.VDW>
-14.4161

>  <SCORE.INTER.norm>
-0.751752

>  <SCORE.INTRA>
-6.99398

>  <SCORE.INTRA.DIHEDRAL>
-1.25282

>  <SCORE.INTRA.DIHEDRAL.0>
30.6762

>  <SCORE.INTRA.POLAR>
-0.619891

>  <SCORE.INTRA.POLAR.0>
-0.0288659

>  <SCORE.INTRA.REPUL>
0

>  <SCORE.INTRA.REPUL.0>
0

>  <SCORE.INTRA.SOLV>
0.248531

>  <SCORE.INTRA.SOLV.lig_0>
-25.2195

>  <SCORE.INTRA.VDW>
-4.3842

>  <SCORE.INTRA.VDW.0>
4.14263

>  <SCORE.INTRA.norm>
-0.279759

>  <SCORE.RESTR>
0

>  <SCORE.RESTR.CAVITY>
0

>  <SCORE.RESTR.norm>
0

>  <SCORE.SYSTEM>
0

>  <SCORE.SYSTEM.CONST>
0

>  <SCORE.SYSTEM.DIHEDRAL>
0

>  <SCORE.SYSTEM.SOLV>
0

>  <SCORE.SYSTEM.norm>
0

>  <SCORE.heavy>
25

>  <SCORE.norm>
-1.03151

>  <RMSD>
8.007

$$$$
1uud_lig
 OpenBabel11021811413D
libRbt.so/2013.1/901 2013/11/27
 25 25  0  0  0  0  0  0  0  0999 V2000
   -4.3942   -9.3579    1.1469 C   0  0  0  0  0  0  0  0  0  0  0  0
   -1.7727   -8.0638    0.9107 O   0  0  0  0  0  0  0  0  0  0  0  0
   -0.6416   -8.9065    1.1768 C   0  0  0  0  0  0  0  0  0  0  0  0
   -4.3614   -8.6260   -0.1436 N   0  0  0  0  0  0  0  0  0  0  0  0
    0.1379   -9.1710   -0.1185 C   0  0  0  0  0  0  0  0  0  0  0  0
   -4.8252   -9.5138   -1.2361 C   0  0  0  0  0  0  0  0  0  0  0  0
   -4.7612   -8.7611   -2.5707 C   0  0  0  0  0  0  0  0  0  0  0  0
    0.2586   -8.0582   -0.8025 N   0  0  0  0  0  0  0  0  0  0  0  0
    1.3312   -7.8082   -1.5298 C   0  0  0  0  0  0  0  0  0  0  0  0
   -5.2640   -9.6636   -3.7027 C   0  0  0  0  0  0  0  0  0  0  0  0
   -4.0791  -10.1163   -4.5607 C   0  0  0  0  0  0  0  0  0  0  0  0
    2.4051   -7.1375   -1.0126 N   0  0  0  0  0  0  0  0  0  0  0  0
    1.3685   -8.2253   -2.8216 N   0  0  0  0  0  0  0  0  0  0  0  0
   -4.4943  -10.9380   -5.4954 N   0  0  0  0  0  0  0  0  0  0  0  0
   -4.1730  -10.7596   -6.7625 C   0  0  0  0  0  0  0  0  0  0  0  0
   -3.4147   -9.6879   -7.1089 N   0  0  0  0  0  0  0  0  0  0  0  0
   -4.5940  -11.6220   -7.7347 N   0  0  0  0  0  0  0  0  0  0  0  0
   -2.5299   -7.8627    2.1110 C   0  0  0  0  0  0  0  0  0  0  0  0
   -4.7892   -7.2136    5.6781 O   0  0  0  0  0  0  0  0  0  0  0  0
   -3.8102   -8.4687    2.2643 C   0  0  0  0  0  0  0  0  0  0  0  0
   -4.5629   -8.2442    3.4481 C   0  0  0  0  0  0  0  0  0  0  0  0
   -4.0313   -7.4346    4.4860 C   0  0  0  0  0  0  0  0  0  0  0  0
   -2.7462   -6.8456    4.3421 C   0  0  0  0  0  0  0  0  0  0  0  0
   -1.9912   -7.0645    3.1581 C   0  0  0  0  0  0  0  0  0  0  0  0
   -4.7403   -8.3830    6.5007 C   0  0  0  0  0  0  0  0  0  0  0  0
  1  4  1  0  0  0  0
  2  3  1  0  0  0  0
  3  5  1  0  0  0  0
  4  6  1  0  0  0  0
  5  8  1  0  0  0  0
  6  7  1  0  0  0  0
  7 10  1  0  0  0  0
  8  9  1  0  0  0  0
  9 12  1  0  0  0  0
  9 13  1  0  0  0  0
 10 11  1  0  0  0  0
 11 14  1  0  0  0  0
 14 15  1  0  0  0  0
 15 16  1  0  0  0  0
 15 17  1  0  0  0  0
 18  2  1  0  0  0  0
 18 20  2  0  0  0  0
 18 24  1  0  0  0  0
 19 25  1  0  0  0  0
 20  1  1  0  0  0  0
 20 21  1  0  0  0  0
 21 22  2  0  0  0  0
 22 19  1  0  0  0  0
 22 23  1  0  0  0  0
 23 24  2  0  0  0  0
M  END
>  <CHROM.1>
175.70197037,177.65190145,43.54325345,-178.82791316,146.34769770,-178.94821955
-107.13455340,-91.40934350,125.47733246,104.23807418,177.15489120,129.41402023
-1.16544585,-81.54246509,-97.13906169,-109.07384547,-52.45676534,75.80482408
-2.78925341,-8.73614014,-0.53781451,1.54207473,0.23587190,1.32563229

>  <Name>
1uud_lig

>  <RI>
0

>  <Rbt.Current_Directory>
/home/itssahil/PROJECTS/Mol_Feturizer/New_Systems/rnas/1uud

>  <Rbt.Executable>
rbdock ($Id: //depot/dev/client3/rdock/2013.1/src/exe/rbdock.cxx#4 $)

>  <Rbt.Library>
libRbt.so (2013.1, Build901 2013/11/27)

>  <Rbt.Parameter_File>
/export/apps/rDock/src/rDock_2013.1_src/data/scripts/dock_solv.prm

>  <Rbt.Receptor>
prm/pocket_docking_8.prm

>  <SCORE>
-21.224

>  <SCORE.INTER>
-11.3269

>  <SCORE.INTER.CONST>
1

>  <SCORE.INTER.POLAR>
-2.54502

>  <SCORE.INTER.ROT>
18

>  <SCORE.INTER.SOLV>
6.29183

>  <SCORE.INTER.VDW>
-16.7652

>  <SCORE.INTER.norm>
-0.453078

>  <SCORE.INTRA>
-9.89709

>  <SCORE.INTRA.DIHEDRAL>
-5.08625

>  <SCORE.INTRA.DIHEDRAL.0>
30.6762

>  <SCORE.INTRA.POLAR>
-0.660891

>  <SCORE.INTRA.POLAR.0>
-0.0288659

>  <SCORE.INTRA.REPUL>
0

>  <SCORE.INTRA.REPUL.0>
0

>  <SCORE.INTRA.SOLV>
-0.963282

>  <SCORE.INTRA.SOLV.lig_0>
-25.2195

>  <SCORE.INTRA.VDW>
-4.62529

>  <SCORE.INTRA.VDW.0>
4.14263

>  <SCORE.INTRA.norm>
-0.395884

>  <SCORE.RESTR>
0

>  <SCORE.RESTR.CAVITY>
0

>  <SCORE.RESTR.norm>
0

>  <SCORE.SYSTEM>
0

>  <SCORE.SYSTEM.CONST>
0

>  <SCORE.SYSTEM.DIHEDRAL>
0

>  <SCORE.SYSTEM.SOLV>
0

>  <SCORE.SYSTEM.norm>
0

>  <SCORE.heavy>
25

>  <SCORE.norm>
-0.848961

>  <RMSD>
8.013

$$$$
1uud_lig
 OpenBabel11021811413D
libRbt.so/2013.1/901 2013/11/27
 25 25  0  0  0  0  0  0  0  0999 V2000
   -4.0861  -11.3468   -7.7313 C   0  0  0  0  0  0  0  0  0  0  0  0
   -1.3610  -12.0970   -6.9479 O   0  0  0  0  0  0  0  0  0  0  0  0
   -0.0269  -12.1411   -7.4757 C   0  0  0  0  0  0  0  0  0  0  0  0
   -4.0155  -11.0369   -6.2818 N   0  0  0  0  0  0  0  0  0  0  0  0
    0.8522  -11.0924   -6.7809 C   0  0  0  0  0  0  0  0  0  0  0  0
   -4.5823   -9.6912   -6.0279 C   0  0  0  0  0  0  0  0  0  0  0  0
   -4.7198   -9.4694   -4.5167 C   0  0  0  0  0  0  0  0  0  0  0  0
    0.9063  -11.3369   -5.4933 N   0  0  0  0  0  0  0  0  0  0  0  0
    0.7180  -10.3826   -4.6012 C   0  0  0  0  0  0  0  0  0  0  0  0
   -5.8115  -10.3852   -3.9527 C   0  0  0  0  0  0  0  0  0  0  0  0
   -7.0602   -9.5574   -3.6354 C   0  0  0  0  0  0  0  0  0  0  0  0
    1.6411   -9.3919   -4.4088 N   0  0  0  0  0  0  0  0  0  0  0  0
   -0.4177  -10.3854   -3.8565 N   0  0  0  0  0  0  0  0  0  0  0  0
   -7.4282   -8.8813   -4.6978 N   0  0  0  0  0  0  0  0  0  0  0  0
   -7.3130   -7.5683   -4.7533 C   0  0  0  0  0  0  0  0  0  0  0  0
   -6.2616   -7.0232   -5.4173 N   0  0  0  0  0  0  0  0  0  0  0  0
   -8.2210   -6.7451   -4.1499 N   0  0  0  0  0  0  0  0  0  0  0  0
   -2.1805  -13.0765   -7.5986 C   0  0  0  0  0  0  0  0  0  0  0  0
   -4.6209  -16.0247   -9.4967 O   0  0  0  0  0  0  0  0  0  0  0  0
   -3.5119  -12.7550   -7.9910 C   0  0  0  0  0  0  0  0  0  0  0  0
   -4.3240  -13.7400   -8.6143 C   0  0  0  0  0  0  0  0  0  0  0  0
   -3.8028  -15.0365   -8.8654 C   0  0  0  0  0  0  0  0  0  0  0  0
   -2.4686  -15.3520   -8.4921 C   0  0  0  0  0  0  0  0  0  0  0  0
   -1.6537  -14.3708   -7.8651 C   0  0  0  0  0  0  0  0  0  0  0  0
   -3.8778  -16.6702  -10.5348 C   0  0  0  0  0  0  0  0  0  0  0  0
  1  4  1  0  0  0  0
  2  3  1  0  0  0  0
  3  5  1  0  0  0  0
  4  6  1  0  0  0  0
  5  8  1  0  0  0  0
  6  7  1  0  0  0  0
  7 10  1  0  0  0  0
  8  9  1  0  0  0  0
  9 12  1  0  0  0  0
  9 13  1  0  0  0  0
 10 11  1  0  0  0  0
 11 14  1  0  0  0  0
 14 15  1  0  0  0  0
 15 16  1  0  0  0  0
 15 17  1  0  0  0  0
 18  2  1  0  0  0  0
 18 20  2  0  0  0  0
 18 24  1  0  0  0  0
 19 25  1  0  0  0  0
 20  1  1  0  0  0  0
 20 21  1  0  0  0  0
 21 22  2  0  0  0  0
 22 19  1  0  0  0  0
 22 23  1  0  0  0  0
 23 24  2  0  0  0  0
M  END
>  <CHROM.1>
-179.29014350,179.96397019,60.51157940,170.76739029,-132.38433217,-68.77454240
-105.83357009,-70.52372612,-83.21350719,66.92712824,54.11862341,-110.48479453
100.12151099,-110.72543373,-68.43377155,-137.82981072,-57.37267980,133.68262039
-3.35252858,-11.34062766,-6.34871061,1.00205835,0.10752539,-2.50747235

>  <Name>
1uud_lig

>  <RI>
0

>  <Rbt.Current_Directory>
/home/itssahil/PROJECTS/Mol_Feturizer/New_Systems/rnas/1uud

>  <Rbt.Executable>
rbdock ($Id: //depot/dev/client3/rdock/2013.1/src/exe/rbdock.cxx#4 $)

>  <Rbt.Library>
libRbt.so (2013.1, Build901 2013/11/27)

>  <Rbt.Parameter_File>
/export/apps/rDock/src/rDock_2013.1_src/data/scripts/dock_solv.prm

>  <Rbt.Receptor>
prm/pocket_docking_6.prm

>  <SCORE>
-28.3459

>  <SCORE.INTER>
-19.5098

>  <SCORE.INTER.CONST>
1

>  <SCORE.INTER.POLAR>
-2.89081

>  <SCORE.INTER.ROT>
18

>  <SCORE.INTER.SOLV>
8.9362

>  <SCORE.INTER.VDW>
-21.9493

>  <SCORE.INTER.norm>
-0.780393

>  <SCORE.INTRA>
-8.83604

>  <SCORE.INTRA.DIHEDRAL>
-9.77149

>  <SCORE.INTRA.DIHEDRAL.0>
30.6762

>  <SCORE.INTRA.POLAR>
-0.440802

>  <SCORE.INTRA.POLAR.0>
-0.0288659

>  <SCORE.INTRA.REPUL>
0

>  <SCORE.INTRA.REPUL.0>
0

>  <SCORE.INTRA.SOLV>
0.217873

>  <SCORE.INTRA.SOLV.lig_0>
-25.2195

>  <SCORE.INTRA.VDW>
-2.56051

>  <SCORE.INTRA.VDW.0>
4.14263

>  <SCORE.INTRA.norm>
-0.353442

>  <SCORE.RESTR>
0

>  <SCORE.RESTR.CAVITY>
0

>  <SCORE.RESTR.norm>
0

>  <SCORE.SYSTEM>
0

>  <SCORE.SYSTEM.CONST>
0

>  <SCORE.SYSTEM.DIHEDRAL>
0

>  <SCORE.SYSTEM.SOLV>
0

>  <SCORE.SYSTEM.norm>
0

>  <SCORE.heavy>
25

>  <SCORE.norm>
-1.13383

>  <RMSD>
8.019

$$$$
1uud_lig
 OpenBabel11021811413D
libRbt.so/2013.1/901 2013/11/27
 25 25  0  0  0  0  0  0  0  0999 V2000
   -3.9153  -12.1989   -4.2225 C   0  0  0  0  0  0  0  0  0  0  0  0
   -2.3409  -10.1051   -2.9035 O   0  0  0  0  0  0  0  0  0  0  0  0
   -1.8953  -10.5051   -1.5990 C   0  0  0  0  0  0  0  0  0  0  0  0
   -4.7833  -11.3146   -5.0390 N   0  0  0  0  0  0  0  0  0  0  0  0
   -2.8269   -9.9320   -0.5225 C   0  0  0  0  0  0  0  0  0  0  0  0
   -4.6814   -9.9196   -4.5489 C   0  0  0  0  0  0  0  0  0  0  0  0
   -4.7017   -8.9546   -5.7406 C   0  0  0  0  0  0  0  0  0  0  0  0
   -2.3627  -10.2207    0.6699 N   0  0  0  0  0  0  0  0  0  0  0  0
   -2.0071   -9.2753    1.5195 C   0  0  0  0  0  0  0  0  0  0  0  0
   -5.6588   -7.7925   -5.4539 C   0  0  0  0  0  0  0  0  0  0  0  0
   -7.1054   -8.2865   -5.5457 C   0  0  0  0  0  0  0  0  0  0  0  0
   -2.7807   -8.9597    2.6023 N   0  0  0  0  0  0  0  0  0  0  0  0
   -0.8474   -8.5997    1.3127 N   0  0  0  0  0  0  0  0  0  0  0  0
   -7.8923   -7.4900   -4.8618 N   0  0  0  0  0  0  0  0  0  0  0  0
   -8.4988   -7.8970   -3.7632 C   0  0  0  0  0  0  0  0  0  0  0  0
   -8.5883   -7.0518   -2.7043 N   0  0  0  0  0  0  0  0  0  0  0  0
   -9.0294   -9.1518   -3.6628 N   0  0  0  0  0  0  0  0  0  0  0  0
   -1.7074  -10.9079   -3.9078 C   0  0  0  0  0  0  0  0  0  0  0  0
    0.2129  -13.3181   -6.8664 O   0  0  0  0  0  0  0  0  0  0  0  0
   -2.4347  -11.9392   -4.5693 C   0  0  0  0  0  0  0  0  0  0  0  0
   -1.7911  -12.7446   -5.5467 C   0  0  0  0  0  0  0  0  0  0  0  0
   -0.4313  -12.5086   -5.8794 C   0  0  0  0  0  0  0  0  0  0  0  0
    0.2892  -11.4677   -5.2342 C   0  0  0  0  0  0  0  0  0  0  0  0
   -0.3496  -10.6617   -4.2533 C   0  0  0  0  0  0  0  0  0  0  0  0
   -0.0102  -12.7595   -8.1644 C   0  0  0  0  0  0  0  0  0  0  0  0
  1  4  1  0  0  0  0
  2  3  1  0  0  0  0
  3  5  1  0  0  0  0
  4  6  1  0  0  0  0
  5  8  1  0  0  0  0
  6  7  1  0  0  0  0
  7 10  1  0  0  0  0
  8  9  1  0  0  0  0
  9 12  1  0  0  0  0
  9 13  1  0  0  0  0
 10 11  1  0  0  0  0
 11 14  1  0  0  0  0
 14 15  1  0  0  0  0
 15 16  1  0  0  0  0
 15 17  1  0  0  0  0
 18  2  1  0  0  0  0
 18 20  2  0  0  0  0
 18 24  1  0  0  0  0
 19 25  1  0  0  0  0
 20  1  1  0  0  0  0
 20 21  1  0  0  0  0
 21 22  2  0  0  0  0
 22 19  1  0  0  0  0
 22 23  1  0  0  0  0
 23 24  2  0  0  0  0
M  END
>  <CHROM.1>
-72.63544964,-164.74690975,-175.56106349,141.82142022,118.09195986,134.29365796
-73.10448609,105.60667180,33.16263645,-136.56225610,157.48544693,-112.47026238
139.86864214,-5.02920452,110.27104334,104.66586624,86.57741881,87.25599973
-3.51691917,-10.11251804,-3.49651468,0.38837616,0.44253880,-1.87276182

>  <Name>
1uud_lig

>  <RI>
0

>  <Rbt.Current_Directory>
/home/itssahil/PROJECTS/Mol_Feturizer/New_Systems/rnas/1uud

>  <Rbt.Executable>
rbdock ($Id: //depot/dev/client3/rdock/2013.1/src/exe/rbdock.cxx#4 $)

>  <Rbt.Library>
libRbt.so (2013.1, Build901 2013/11/27)

>  <Rbt.Parameter_File>
/export/apps/rDock/src/rDock_2013.1_src/data/scripts/dock_solv.prm

>  <Rbt.Receptor>
prm/pocket_docking_5.prm

>  <SCORE>
-25.6106

>  <SCORE.INTER>
-20.0839

>  <SCORE.INTER.CONST>
1

>  <SCORE.INTER.POLAR>
-3.65266

>  <SCORE.INTER.ROT>
18

>  <SCORE.INTER.SOLV>
10.3964

>  <SCORE.INTER.VDW>
-20.2792

>  <SCORE.INTER.norm>
-0.803357

>  <SCORE.INTRA>
-5.52668

>  <SCORE.INTRA.DIHEDRAL>
0.184803

>  <SCORE.INTRA.DIHEDRAL.0>
30.6762

>  <SCORE.INTRA.POLAR>
0.0288659

>  <SCORE.INTRA.POLAR.0>
-0.0288659

>  <SCORE.INTRA.REPUL>
0

>  <SCORE.INTRA.REPUL.0>
0

>  <SCORE.INTRA.SOLV>
-1.1044

>  <SCORE.INTRA.SOLV.lig_0>
-25.2195

>  <SCORE.INTRA.VDW>
-5.16503

>  <SCORE.INTRA.VDW.0>
4.14263

>  <SCORE.INTRA.norm>
-0.221067

>  <SCORE.RESTR>
0

>  <SCORE.RESTR.CAVITY>
0

>  <SCORE.RESTR.norm>
0

>  <SCORE.SYSTEM>
0

>  <SCORE.SYSTEM.CONST>
0

>  <SCORE.SYSTEM.DIHEDRAL>
0

>  <SCORE.SYSTEM.SOLV>
0

>  <SCORE.SYSTEM.norm>
0

>  <SCORE.heavy>
25

>  <SCORE.norm>
-1.02442

>  <RMSD>
8.070

$$$$
1uud_lig
 OpenBabel11021811413D
libRbt.so/2013.1/901 2013/11/27
 25 25  0  0  0  0  0  0  0  0999 V2000
   -1.9752  -14.9032   -6.7860 C   0  0  0  0  0  0  0  0  0  0  0  0
   -0.5285  -13.6085   -8.9844 O   0  0  0  0  0  0  0  0  0  0  0  0
    0.6275  -13.2414   -8.2168 C   0  0  0  0  0  0  0  0  0  0  0  0
   -1.1230  -14.6522   -5.5973 N   0  0  0  0  0  0  0  0  0  0  0  0
    1.1071  -11.8402   -8.6193 C   0  0  0  0  0  0  0  0  0  0  0  0
   -0.7967  -15.9365   -4.9333 C   0  0  0  0  0  0  0  0  0  0  0  0
    0.2895  -16.6659   -5.7331 C   0  0  0  0  0  0  0  0  0  0  0  0
    1.3992  -11.8181   -9.8979 N   0  0  0  0  0  0  0  0  0  0  0  0
    0.5588  -11.3272  -10.7894 C   0  0  0  0  0  0  0  0  0  0  0  0
    0.8641  -17.8178   -4.9015 C   0  0  0  0  0  0  0  0  0  0  0  0
   -0.2166  -18.8810   -4.6846 C   0  0  0  0  0  0  0  0  0  0  0  0
   -0.5147  -12.0491  -11.2331 N   0  0  0  0  0  0  0  0  0  0  0  0
    0.7658  -10.0771  -11.2780 N   0  0  0  0  0  0  0  0  0  0  0  0
   -0.3359  -19.6210   -5.7613 N   0  0  0  0  0  0  0  0  0  0  0  0
   -1.0817  -19.2398   -6.7806 C   0  0  0  0  0  0  0  0  0  0  0  0
   -2.4151  -19.0624   -6.5958 N   0  0  0  0  0  0  0  0  0  0  0  0
   -0.5454  -19.0296   -8.0193 N   0  0  0  0  0  0  0  0  0  0  0  0
   -1.6946  -12.9625   -8.4579 C   0  0  0  0  0  0  0  0  0  0  0  0
   -5.1930  -11.0419   -6.9337 O   0  0  0  0  0  0  0  0  0  0  0  0
   -2.4296  -13.5599   -7.3935 C   0  0  0  0  0  0  0  0  0  0  0  0
   -3.5974  -12.9231   -6.8944 C   0  0  0  0  0  0  0  0  0  0  0  0
   -4.0196  -11.6827   -7.4407 C   0  0  0  0  0  0  0  0  0  0  0  0
   -3.2762  -11.0765   -8.4890 C   0  0  0  0  0  0  0  0  0  0  0  0
   -2.1093  -11.7117   -8.9939 C   0  0  0  0  0  0  0  0  0  0  0  0
   -4.8274  -10.1169   -5.9054 C   0  0  0  0  0  0  0  0  0  0  0  0
  1  4  1  0  0  0  0
  2  3  1  0  0  0  0
  3  5  1  0  0  0  0
  4  6  1  0  0  0  0
  5  8  1  0  0  0  0
  6  7  1  0  0  0  0
  7 10  1  0  0  0  0
  8  9  1  0  0  0  0
  9 12  1  0  0  0  0
  9 13  1  0  0  0  0
 10 11  1  0  0  0  0
 11 14  1  0  0  0  0
 14 15  1  0  0  0  0
 15 16  1  0  0  0  0
 15 17  1  0  0  0  0
 18  2  1  0  0  0  0
 18 20  2  0  0  0  0
 18 24  1  0  0  0  0
 19 25  1  0  0  0  0
 20  1  1  0  0  0  0
 20 21  1  0  0  0  0
 21 22  2  0  0  0  0
 22 19  1  0  0  0  0
 22 23  1  0  0  0  0
 23 24  2  0  0  0  0
M  END
>  <CHROM.1>
174.38891968,-78.25894964,-58.95484427,76.64947349,100.03816939,166.91322401
66.23735482,-78.84088554,166.98649608,-159.09424054,79.02015633,-83.66494893
-61.86583241,-127.90628981,-112.53646478,-86.43907475,94.24873365,93.17094681
-1.21183292,-14.22844095,-7.59019659,1.43386631,-0.57763808,2.65315677

>  <Name>
1uud_lig

>  <RI>
0

>  <Rbt.Current_Directory>
/home/itssahil/PROJECTS/Mol_Feturizer/New_Systems/rnas/1uud

>  <Rbt.Executable>
rbdock ($Id: //depot/dev/client3/rdock/2013.1/src/exe/rbdock.cxx#4 $)

>  <Rbt.Library>
libRbt.so (2013.1, Build901 2013/11/27)

>  <Rbt.Parameter_File>
/export/apps/rDock/src/rDock_2013.1_src/data/scripts/dock_solv.prm

>  <Rbt.Receptor>
prm/pocket_docking_8.prm

>  <SCORE>
-36.2908

>  <SCORE.INTER>
-27.1494

>  <SCORE.INTER.CONST>
1

>  <SCORE.INTER.POLAR>
-5.48176

>  <SCORE.INTER.ROT>
18

>  <SCORE.INTER.SOLV>
6.71908

>  <SCORE.INTER.VDW>
-17.6668

>  <SCORE.INTER.norm>
-1.08598

>  <SCORE.INTRA>
-9.14134

>  <SCORE.INTRA.DIHEDRAL>
-6.52676

>  <SCORE.INTRA.DIHEDRAL.0>
30.6762

>  <SCORE.INTRA.POLAR>
-0.320899

>  <SCORE.INTRA.POLAR.0>
-0.0288659

>  <SCORE.INTRA.REPUL>
0

>  <SCORE.INTRA.REPUL.0>
0

>  <SCORE.INTRA.SOLV>
1.36877

>  <SCORE.INTRA.SOLV.lig_0>
-25.2195

>  <SCORE.INTRA.VDW>
-5.47129

>  <SCORE.INTRA.VDW.0>
4.14263

>  <SCORE.INTRA.norm>
-0.365654

>  <SCORE.RESTR>
0

>  <SCORE.RESTR.CAVITY>
0

>  <SCORE.RESTR.norm>
0

>  <SCORE.SYSTEM>
0

>  <SCORE.SYSTEM.CONST>
0

>  <SCORE.SYSTEM.DIHEDRAL>
0

>  <SCORE.SYSTEM.SOLV>
0

>  <SCORE.SYSTEM.norm>
0

>  <SCORE.heavy>
25

>  <SCORE.norm>
-1.45163

>  <RMSD>
8.118

$$$$
1uud_lig
 OpenBabel11021811413D
libRbt.so/2013.1/901 2013/11/27
 25 25  0  0  0  0  0  0  0  0999 V2000
   -2.1924  -12.1432   -4.6784 C   0  0  0  0  0  0  0  0  0  0  0  0
   -5.0384  -11.5970   -4.2268 O   0  0  0  0  0  0  0  0  0  0  0  0
   -5.6651  -10.5510   -4.9841 C   0  0  0  0  0  0  0  0  0  0  0  0
   -3.0947  -13.3061   -4.8673 N   0  0  0  0  0  0  0  0  0  0  0  0
   -6.7722   -9.8870   -4.1543 C   0  0  0  0  0  0  0  0  0  0  0  0
   -2.7452  -14.0142   -6.1215 C   0  0  0  0  0  0  0  0  0  0  0  0
   -3.3055  -13.2400   -7.3208 C   0  0  0  0  0  0  0  0  0  0  0  0
   -6.5684   -8.5926   -4.0920 N   0  0  0  0  0  0  0  0  0  0  0  0
   -6.7573   -7.8131   -5.1402 C   0  0  0  0  0  0  0  0  0  0  0  0
   -3.8809  -14.2187   -8.3502 C   0  0  0  0  0  0  0  0  0  0  0  0
   -2.7355  -14.8984   -9.1060 C   0  0  0  0  0  0  0  0  0  0  0  0
   -5.8116   -6.9087   -5.5381 N   0  0  0  0  0  0  0  0  0  0  0  0
   -7.9179   -7.9106   -5.8387 N   0  0  0  0  0  0  0  0  0  0  0  0
   -3.2187  -15.6361  -10.0773 N   0  0  0  0  0  0  0  0  0  0  0  0
   -2.6579  -16.7805  -10.4183 C   0  0  0  0  0  0  0  0  0  0  0  0
   -1.5013  -16.7652  -11.1294 N   0  0  0  0  0  0  0  0  0  0  0  0
   -3.2189  -17.9797  -10.0815 N   0  0  0  0  0  0  0  0  0  0  0  0
   -4.0815  -11.0402   -3.3164 C   0  0  0  0  0  0  0  0  0  0  0  0
   -1.2497   -9.4077   -0.5657 O   0  0  0  0  0  0  0  0  0  0  0  0
   -2.6896  -11.2853   -3.4965 C   0  0  0  0  0  0  0  0  0  0  0  0
   -1.7508  -10.7482   -2.5753 C   0  0  0  0  0  0  0  0  0  0  0  0
   -2.1970   -9.9505   -1.4890 C   0  0  0  0  0  0  0  0  0  0  0  0
   -3.5834   -9.6893   -1.3198 C   0  0  0  0  0  0  0  0  0  0  0  0
   -4.5264  -10.2276   -2.2369 C   0  0  0  0  0  0  0  0  0  0  0  0
   -1.1937  -10.2310    0.6029 C   0  0  0  0  0  0  0  0  0  0  0  0
  1  4  1  0  0  0  0
  2  3  1  0  0  0  0
  3  5  1  0  0  0  0
  4  6  1  0  0  0  0
  5  8  1  0  0  0  0
  6  7  1  0  0  0  0
  7 10  1  0  0  0  0
  8  9  1  0  0  0  0
  9 12  1  0  0  0  0
  9 13  1  0  0  0  0
 10 11  1  0  0  0  0
 11 14  1  0  0  0  0
 14 15  1  0  0  0  0
 15 16  1  0  0  0  0
 15 17  1  0  0  0  0
 18  2  1  0  0  0  0
 18 20  2  0  0  0  0
 18 24  1  0  0  0  0
 19 25  1  0  0  0  0
 20  1  1  0  0  0  0
 20 21  1  0  0  0  0
 21 22  2  0  0  0  0
 22 19  1  0  0  0  0
 22 23  1  0  0  0  0
 23 24  2  0  0  0  0
M  END
>  <CHROM.1>
171.37660452,-80.30706055,125.19796650,-77.81020608,71.92130413,-139.23734473
-75.29469584,-130.58667549,162.79319400,-120.02020696,-173.74564673,-144.52974255
-75.43609199,8.08988386,-87.62996911,-112.61764605,-40.78559120,-98.60346777
-3.79635798,-11.82555573,-5.30092795,-1.38386827,-0.68842814,0.92019724

>  <Name>
1uud_lig

>  <RI>
0

>  <Rbt.Current_Directory>
/home/itssahil/PROJECTS/Mol_Feturizer/New_Systems/rnas/1uud

>  <Rbt.Executable>
rbdock ($Id: //depot/dev/client3/rdock/2013.1/src/exe/rbdock.cxx#4 $)

>  <Rbt.Library>
libRbt.so (2013.1, Build901 2013/11/27)

>  <Rbt.Parameter_File>
/export/apps/rDock/src/rDock_2013.1_src/data/scripts/dock_solv.prm

>  <Rbt.Receptor>
prm/pocket_docking_6.prm

>  <SCORE>
-32.7369

>  <SCORE.INTER>
-27.8605

>  <SCORE.INTER.CONST>
1

>  <SCORE.INTER.POLAR>
-4.86408

>  <SCORE.INTER.ROT>
18

>  <SCORE.INTER.SOLV>
13.6115

>  <SCORE.INTER.VDW>
-22.4972

>  <SCORE.INTER.norm>
-1.11442

>  <SCORE.INTRA>
-4.87637

>  <SCORE.INTRA.DIHEDRAL>
1.92162

>  <SCORE.INTRA.DIHEDRAL.0>
30.6762

>  <SCORE.INTRA.POLAR>
-0.698347

>  <SCORE.INTRA.POLAR.0>
-0.0288659

>  <SCORE.INTRA.REPUL>
0

>  <SCORE.INTRA.REPUL.0>
0

>  <SCORE.INTRA.SOLV>
-0.492316

>  <SCORE.INTRA.SOLV.lig_0>
-25.2195

>  <SCORE.INTRA.VDW>
-3.21665

>  <SCORE.INTRA.VDW.0>
4.14263

>  <SCORE.INTRA.norm>
-0.195055

>  <SCORE.RESTR>
0

>  <SCORE.RESTR.CAVITY>
0

>  <SCORE.RESTR.norm>
0

>  <SCORE.SYSTEM>
0

>  <SCORE.SYSTEM.CONST>
0

>  <SCORE.SYSTEM.DIHEDRAL>
0

>  <SCORE.SYSTEM.SOLV>
0

>  <SCORE.SYSTEM.norm>
0

>  <SCORE.heavy>
25

>  <SCORE.norm>
-1.30947

>  <RMSD>
8.122

$$$$
1uud_lig
 OpenBabel11021811413D
libRbt.so/2013.1/901 2013/11/27
 25 25  0  0  0  0  0  0  0  0999 V2000
   -5.8895   -7.8457   -1.7641 C   0  0  0  0  0  0  0  0  0  0  0  0
   -4.1479   -9.7305   -3.1844 O   0  0  0  0  0  0  0  0  0  0  0  0
   -5.0322  -10.7834   -3.5962 C   0  0  0  0  0  0  0  0  0  0  0  0
   -5.7457   -6.4576   -1.2593 N   0  0  0  0  0  0  0  0  0  0  0  0
   -5.8645  -10.3335   -4.8045 C   0  0  0  0  0  0  0  0  0  0  0  0
   -6.1005   -5.4951   -2.3290 C   0  0  0  0  0  0  0  0  0  0  0  0
   -7.6250   -5.3445   -2.3985 C   0  0  0  0  0  0  0  0  0  0  0  0
   -6.6680   -9.3573   -4.4549 N   0  0  0  0  0  0  0  0  0  0  0  0
   -6.9225   -8.3487   -5.2673 C   0  0  0  0  0  0  0  0  0  0  0  0
   -8.0082   -4.4702   -3.5975 C   0  0  0  0  0  0  0  0  0  0  0  0
   -9.5032   -4.1441   -3.5358 C   0  0  0  0  0  0  0  0  0  0  0  0
   -8.0948   -8.2735   -5.9678 N   0  0  0  0  0  0  0  0  0  0  0  0
   -5.9986   -7.3640   -5.4119 N   0  0  0  0  0  0  0  0  0  0  0  0
  -10.2053   -5.2413   -3.6919 N   0  0  0  0  0  0  0  0  0  0  0  0
  -11.2043   -5.5413   -2.8842 C   0  0  0  0  0  0  0  0  0  0  0  0
  -12.4714   -5.2183   -3.2498 N   0  0  0  0  0  0  0  0  0  0  0  0
  -10.9926   -6.1596   -1.6846 N   0  0  0  0  0  0  0  0  0  0  0  0
   -4.0775   -9.6780   -1.7537 C   0  0  0  0  0  0  0  0  0  0  0  0
   -3.8196   -9.5065    2.5071 O   0  0  0  0  0  0  0  0  0  0  0  0
   -4.9023   -8.7730   -1.0252 C   0  0  0  0  0  0  0  0  0  0  0  0
   -4.8083   -8.7121    0.3910 C   0  0  0  0  0  0  0  0  0  0  0  0
   -3.9093   -9.5669    1.0813 C   0  0  0  0  0  0  0  0  0  0  0  0
   -3.1004  -10.4835    0.3572 C   0  0  0  0  0  0  0  0  0  0  0  0
   -3.1885  -10.5453   -1.0600 C   0  0  0  0  0  0  0  0  0  0  0  0
   -4.8713  -10.2839    3.0868 C   0  0  0  0  0  0  0  0  0  0  0  0
  1  4  1  0  0  0  0
  2  3  1  0  0  0  0
  3  5  1  0  0  0  0
  4  6  1  0  0  0  0
  5  8  1  0  0  0  0
  6  7  1  0  0  0  0
  7 10  1  0  0  0  0
  8  9  1  0  0  0  0
  9 12  1  0  0  0  0
  9 13  1  0  0  0  0
 10 11  1  0  0  0  0
 11 14  1  0  0  0  0
 14 15  1  0  0  0  0
 15 16  1  0  0  0  0
 15 17  1  0  0  0  0
 18  2  1  0  0  0  0
 18 20  2  0  0  0  0
 18 24  1  0  0  0  0
 19 25  1  0  0  0  0
 20  1  1  0  0  0  0
 20 21  1  0  0  0  0
 21 22  2  0  0  0  0
 22 19  1  0  0  0  0
 22 23  1  0  0  0  0
 23 24  2  0  0  0  0
M  END
>  <CHROM.1>
151.02654221,140.81294046,-65.74086756,81.36727333,142.42029742,-173.91459995
-171.22151613,102.41436595,-112.57205543,138.15213580,-65.78822163,132.14147453
95.98668483,-113.14899485,-63.73783620,-95.84351504,-131.81272553,82.35631880
-6.61331587,-7.85816937,-2.26261920,0.36583396,-0.69247294,1.39683724

>  <Name>
1uud_lig

>  <RI>
0

>  <Rbt.Current_Directory>
/home/itssahil/PROJECTS/Mol_Feturizer/New_Systems/rnas/1uud

>  <Rbt.Executable>
rbdock ($Id: //depot/dev/client3/rdock/2013.1/src/exe/rbdock.cxx#4 $)

>  <Rbt.Library>
libRbt.so (2013.1, Build901 2013/11/27)

>  <Rbt.Parameter_File>
/export/apps/rDock/src/rDock_2013.1_src/data/scripts/dock_solv.prm

>  <Rbt.Receptor>
prm/pocket_docking_7.prm

>  <SCORE>
-32.302

>  <SCORE.INTER>
-24.4515

>  <SCORE.INTER.CONST>
1

>  <SCORE.INTER.POLAR>
-5.44706

>  <SCORE.INTER.ROT>
18

>  <SCORE.INTER.SOLV>
9.75528

>  <SCORE.INTER.VDW>
-16.9959

>  <SCORE.INTER.norm>
-0.97806

>  <SCORE.INTRA>
-7.85046

>  <SCORE.INTRA.DIHEDRAL>
-2.23099

>  <SCORE.INTRA.DIHEDRAL.0>
30.6762

>  <SCORE.INTRA.POLAR>
0.0288659

>  <SCORE.INTRA.POLAR.0>
-0.0288659

>  <SCORE.INTRA.REPUL>
0

>  <SCORE.INTRA.REPUL.0>
0

>  <SCORE.INTRA.SOLV>
0.35145

>  <SCORE.INTRA.SOLV.lig_0>
-25.2195

>  <SCORE.INTRA.VDW>
-7.00884

>  <SCORE.INTRA.VDW.0>
4.14263

>  <SCORE.INTRA.norm>
-0.314019

>  <SCORE.RESTR>
0

>  <SCORE.RESTR.CAVITY>
0

>  <SCORE.RESTR.norm>
0

>  <SCORE.SYSTEM>
0

>  <SCORE.SYSTEM.CONST>
0

>  <SCORE.SYSTEM.DIHEDRAL>
0

>  <SCORE.SYSTEM.SOLV>
0

>  <SCORE.SYSTEM.norm>
0

>  <SCORE.heavy>
25

>  <SCORE.norm>
-1.29208

>  <RMSD>
8.130

$$$$
1uud_lig
 OpenBabel11021811413D
libRbt.so/2013.1/901 2013/11/27
 25 25  0  0  0  0  0  0  0  0999 V2000
   -4.7131  -11.5419   -3.6569 C   0  0  0  0  0  0  0  0  0  0  0  0
   -2.0698  -10.2908   -3.4329 O   0  0  0  0  0  0  0  0  0  0  0  0
   -1.8688  -10.6968   -2.0709 C   0  0  0  0  0  0  0  0  0  0  0  0
   -5.5509  -10.7420   -4.5845 N   0  0  0  0  0  0  0  0  0  0  0  0
   -1.8950   -9.4736   -1.1445 C   0  0  0  0  0  0  0  0  0  0  0  0
   -6.7548  -10.2485   -3.8748 C   0  0  0  0  0  0  0  0  0  0  0  0
   -7.5682   -9.3463   -4.8109 C   0  0  0  0  0  0  0  0  0  0  0  0
   -1.2495   -9.7402   -0.0340 N   0  0  0  0  0  0  0  0  0  0  0  0
   -1.7520  -10.5506    0.8786 C   0  0  0  0  0  0  0  0  0  0  0  0
   -8.6772   -8.6418   -4.0220 C   0  0  0  0  0  0  0  0  0  0  0  0
   -8.0719   -7.5079   -3.1895 C   0  0  0  0  0  0  0  0  0  0  0  0
   -3.0903  -10.5679    1.1601 N   0  0  0  0  0  0  0  0  0  0  0  0
   -0.9207  -11.3853    1.5543 N   0  0  0  0  0  0  0  0  0  0  0  0
   -9.0293   -6.7829   -2.6614 N   0  0  0  0  0  0  0  0  0  0  0  0
   -9.1463   -5.4961   -2.9276 C   0  0  0  0  0  0  0  0  0  0  0  0
   -9.8926   -5.1053   -3.9925 N   0  0  0  0  0  0  0  0  0  0  0  0
   -8.5261   -4.5489   -2.1633 N   0  0  0  0  0  0  0  0  0  0  0  0
   -2.2131  -11.4426   -4.2739 C   0  0  0  0  0  0  0  0  0  0  0  0
   -2.6082  -14.9007   -6.7511 O   0  0  0  0  0  0  0  0  0  0  0  0
   -3.4785  -12.0838   -4.4067 C   0  0  0  0  0  0  0  0  0  0  0  0
   -3.6050  -13.2386   -5.2245 C   0  0  0  0  0  0  0  0  0  0  0  0
   -2.4772  -13.7406   -5.9254 C   0  0  0  0  0  0  0  0  0  0  0  0
   -1.2192  -13.0903   -5.8090 C   0  0  0  0  0  0  0  0  0  0  0  0
   -1.0872  -11.9368   -4.9892 C   0  0  0  0  0  0  0  0  0  0  0  0
   -3.0299  -14.5111   -8.0614 C   0  0  0  0  0  0  0  0  0  0  0  0
  1  4  1  0  0  0  0
  2  3  1  0  0  0  0
  3  5  1  0  0  0  0
  4  6  1  0  0  0  0
  5  8  1  0  0  0  0
  6  7  1  0  0  0  0
  7 10  1  0  0  0  0
  8  9  1  0  0  0  0
  9 12  1  0  0  0  0
  9 13  1  0  0  0  0
 10 11  1  0  0  0  0
 11 14  1  0  0  0  0
 14 15  1  0  0  0  0
 15 16  1  0  0  0  0
 15 17  1  0  0  0  0
 18  2  1  0  0  0  0
 18 20  2  0  0  0  0
 18 24  1  0  0  0  0
 19 25  1  0  0  0  0
 20  1  1  0  0  0  0
 20 21  1  0  0  0  0
 21 22  2  0  0  0  0
 22 19  1  0  0  0  0
 22 23  1  0  0  0  0
 23 24  2  0  0  0  0
M  END
>  <CHROM.1>
178.59917239,-172.76440533,-156.96836356,176.25572712,-72.31025098,-170.33250478
75.65867974,-37.33700384,59.76538633,-101.93851131,171.12635911,-119.92342107
89.20041727,-32.60341115,26.70562884,83.76737087,100.36287824,86.80520744
-4.47340327,-10.23368913,-3.31902887,0.48483409,0.60408570,-2.15391199

>  <Name>
1uud_lig

>  <RI>
0

>  <Rbt.Current_Directory>
/home/itssahil/PROJECTS/Mol_Feturizer/New_Systems/rnas/1uud

>  <Rbt.Executable>
rbdock ($Id: //depot/dev/client3/rdock/2013.1/src/exe/rbdock.cxx#4 $)

>  <Rbt.Library>
libRbt.so (2013.1, Build901 2013/11/27)

>  <Rbt.Parameter_File>
/export/apps/rDock/src/rDock_2013.1_src/data/scripts/dock_solv.prm

>  <Rbt.Receptor>
prm/pocket_docking_3.prm

>  <SCORE>
-28.1837

>  <SCORE.INTER>
-19.0793

>  <SCORE.INTER.CONST>
1

>  <SCORE.INTER.POLAR>
-3.24981

>  <SCORE.INTER.ROT>
18

>  <SCORE.INTER.SOLV>
8.60727

>  <SCORE.INTER.VDW>
-20.3559

>  <SCORE.INTER.norm>
-0.763171

>  <SCORE.INTRA>
-9.26584

>  <SCORE.INTRA.DIHEDRAL>
-7.15807

>  <SCORE.INTRA.DIHEDRAL.0>
30.6762

>  <SCORE.INTRA.POLAR>
0.0288659

>  <SCORE.INTRA.POLAR.0>
-0.0288659

>  <SCORE.INTRA.REPUL>
0

>  <SCORE.INTRA.REPUL.0>
0

>  <SCORE.INTRA.SOLV>
-1.21103

>  <SCORE.INTRA.SOLV.lig_0>
-25.2195

>  <SCORE.INTRA.VDW>
-5.17944

>  <SCORE.INTRA.VDW.0>
4.14263

>  <SCORE.INTRA.norm>
-0.370634

>  <SCORE.RESTR>
0.161435

>  <SCORE.RESTR.CAVITY>
0.161435

>  <SCORE.RESTR.norm>
0.00645741

>  <SCORE.SYSTEM>
0

>  <SCORE.SYSTEM.CONST>
0

>  <SCORE.SYSTEM.DIHEDRAL>
0

>  <SCORE.SYSTEM.SOLV>
0

>  <SCORE.SYSTEM.norm>
0

>  <SCORE.heavy>
25

>  <SCORE.norm>
-1.12735

>  <RMSD>
8.142

$$$$
1uud_lig
 OpenBabel11021811413D
libRbt.so/2013.1/901 2013/11/27
 25 25  0  0  0  0  0  0  0  0999 V2000
   -4.2370  -11.1289   -7.1220 C   0  0  0  0  0  0  0  0  0  0  0  0
   -3.7022  -11.9136   -4.3469 O   0  0  0  0  0  0  0  0  0  0  0  0
   -2.6165  -11.7479   -3.4228 C   0  0  0  0  0  0  0  0  0  0  0  0
   -5.1582  -10.7183   -6.0334 N   0  0  0  0  0  0  0  0  0  0  0  0
   -3.0013  -10.7432   -2.3285 C   0  0  0  0  0  0  0  0  0  0  0  0
   -5.0181   -9.2650   -5.7788 C   0  0  0  0  0  0  0  0  0  0  0  0
   -5.8887   -8.8681   -4.5803 C   0  0  0  0  0  0  0  0  0  0  0  0
   -2.9843   -9.5249   -2.8144 N   0  0  0  0  0  0  0  0  0  0  0  0
   -2.5006   -8.5118   -2.1203 C   0  0  0  0  0  0  0  0  0  0  0  0
   -6.9670   -7.8744   -5.0257 C   0  0  0  0  0  0  0  0  0  0  0  0
   -7.8043   -7.4513   -3.8153 C   0  0  0  0  0  0  0  0  0  0  0  0
   -3.0921   -7.2789   -2.1485 N   0  0  0  0  0  0  0  0  0  0  0  0
   -1.3895   -8.6978   -1.3620 N   0  0  0  0  0  0  0  0  0  0  0  0
   -8.4840   -6.3662   -4.1013 N   0  0  0  0  0  0  0  0  0  0  0  0
   -7.9966   -5.1641   -3.8610 C   0  0  0  0  0  0  0  0  0  0  0  0
   -6.9642   -4.7054   -4.6143 N   0  0  0  0  0  0  0  0  0  0  0  0
   -8.4993   -4.3748   -2.8659 N   0  0  0  0  0  0  0  0  0  0  0  0
   -3.3219  -12.8112   -5.3977 C   0  0  0  0  0  0  0  0  0  0  0  0
   -2.2205  -15.5209   -8.5113 O   0  0  0  0  0  0  0  0  0  0  0  0
   -3.5682  -12.4711   -6.7591 C   0  0  0  0  0  0  0  0  0  0  0  0
   -3.2086  -13.3779   -7.7920 C   0  0  0  0  0  0  0  0  0  0  0  0
   -2.5852  -14.6119   -7.4696 C   0  0  0  0  0  0  0  0  0  0  0  0
   -2.3214  -14.9434   -6.1133 C   0  0  0  0  0  0  0  0  0  0  0  0
   -2.6827  -14.0408   -5.0765 C   0  0  0  0  0  0  0  0  0  0  0  0
   -1.1123  -14.9903   -9.2441 C   0  0  0  0  0  0  0  0  0  0  0  0
  1  4  1  0  0  0  0
  2  3  1  0  0  0  0
  3  5  1  0  0  0  0
  4  6  1  0  0  0  0
  5  8  1  0  0  0  0
  6  7  1  0  0  0  0
  7 10  1  0  0  0  0
  8  9  1  0  0  0  0
  9 12  1  0  0  0  0
  9 13  1  0  0  0  0
 10 11  1  0  0  0  0
 11 14  1  0  0  0  0
 14 15  1  0  0  0  0
 15 16  1  0  0  0  0
 15 17  1  0  0  0  0
 18  2  1  0  0  0  0
 18 20  2  0  0  0  0
 18 24  1  0  0  0  0
 19 25  1  0  0  0  0
 20  1  1  0  0  0  0
 20 21  1  0  0  0  0
 21 22  2  0  0  0  0
 22 19  1  0  0  0  0
 22 23  1  0  0  0  0
 23 24  2  0  0  0  0
M  END
>  <CHROM.1>
137.92301282,177.70145541,-74.28994112,-175.51699214,-139.29117078,-117.23772912
-178.29813471,-141.14842340,-179.46891717,55.28336188,163.65789721,-91.16202134
70.50203565,118.60650708,-16.02305003,-132.24338385,-30.54512566,71.00630433
-4.32809967,-10.16783005,-4.85835070,0.96306170,0.64924001,-2.32985028

>  <Name>
1uud_lig

>  <RI>
0

>  <Rbt.Current_Directory>
/home/itssahil/PROJECTS/Mol_Feturizer/New_Systems/rnas/1uud

>  <Rbt.Executable>
rbdock ($Id: //depot/dev/client3/rdock/2013.1/src/exe/rbdock.cxx#4 $)

>  <Rbt.Library>
libRbt.so (2013.1, Build901 2013/11/27)

>  <Rbt.Parameter_File>
/export/apps/rDock/src/rDock_2013.1_src/data/scripts/dock_solv.prm

>  <Rbt.Receptor>
prm/pocket_docking_2.prm

>  <SCORE>
-7.31383

>  <SCORE.INTER>
-2.56396

>  <SCORE.INTER.CONST>
1

>  <SCORE.INTER.POLAR>
-0.868114

>  <SCORE.INTER.ROT>
18

>  <SCORE.INTER.SOLV>
5.47256

>  <SCORE.INTER.VDW>
-16.2398

>  <SCORE.INTER.norm>
-0.102558

>  <SCORE.INTRA>
-8.27915

>  <SCORE.INTRA.DIHEDRAL>
-3.34425

>  <SCORE.INTRA.DIHEDRAL.0>
30.6762

>  <SCORE.INTRA.POLAR>
-0.778556

>  <SCORE.INTRA.POLAR.0>
-0.0288659

>  <SCORE.INTRA.REPUL>
0

>  <SCORE.INTRA.REPUL.0>
0

>  <SCORE.INTRA.SOLV>
-0.0479639

>  <SCORE.INTRA.SOLV.lig_0>
-25.2195

>  <SCORE.INTRA.VDW>
-3.93596

>  <SCORE.INTRA.VDW.0>
4.14263

>  <SCORE.INTRA.norm>
-0.331166

>  <SCORE.RESTR>
3.52928

>  <SCORE.RESTR.CAVITY>
3.52928

>  <SCORE.RESTR.norm>
0.141171

>  <SCORE.SYSTEM>
0

>  <SCORE.SYSTEM.CONST>
0

>  <SCORE.SYSTEM.DIHEDRAL>
0

>  <SCORE.SYSTEM.SOLV>
0

>  <SCORE.SYSTEM.norm>
0

>  <SCORE.heavy>
25

>  <SCORE.norm>
-0.292553

>  <RMSD>
8.145

$$$$
1uud_lig
 OpenBabel11021811413D
libRbt.so/2013.1/901 2013/11/27
 25 25  0  0  0  0  0  0  0  0999 V2000
   -3.1105   -8.0081   -6.1778 C   0  0  0  0  0  0  0  0  0  0  0  0
   -5.3666   -9.8814   -6.1225 O   0  0  0  0  0  0  0  0  0  0  0  0
   -5.5079  -10.9459   -5.1700 C   0  0  0  0  0  0  0  0  0  0  0  0
   -3.7178   -6.8617   -6.8982 N   0  0  0  0  0  0  0  0  0  0  0  0
   -4.1920  -11.1524   -4.4079 C   0  0  0  0  0  0  0  0  0  0  0  0
   -3.7126   -5.6621   -6.0278 C   0  0  0  0  0  0  0  0  0  0  0  0
   -4.6575   -4.6030   -6.6085 C   0  0  0  0  0  0  0  0  0  0  0  0
   -3.9140  -10.0844   -3.6987 N   0  0  0  0  0  0  0  0  0  0  0  0
   -2.7444   -9.9350   -3.1058 C   0  0  0  0  0  0  0  0  0  0  0  0
   -4.7641   -3.4155   -5.6456 C   0  0  0  0  0  0  0  0  0  0  0  0
   -5.8675   -2.4670   -6.1232 C   0  0  0  0  0  0  0  0  0  0  0  0
   -1.5881  -10.3829   -3.6829 N   0  0  0  0  0  0  0  0  0  0  0  0
   -2.6881   -9.3237   -1.8944 N   0  0  0  0  0  0  0  0  0  0  0  0
   -7.0441   -2.9876   -5.8668 N   0  0  0  0  0  0  0  0  0  0  0  0
   -7.8422   -2.4707   -4.9523 C   0  0  0  0  0  0  0  0  0  0  0  0
   -7.7093   -2.8631   -3.6593 N   0  0  0  0  0  0  0  0  0  0  0  0
   -8.8053   -1.5582   -5.2776 N   0  0  0  0  0  0  0  0  0  0  0  0
   -4.2719  -10.1539   -7.0067 C   0  0  0  0  0  0  0  0  0  0  0  0
   -1.0403  -10.9618   -9.6815 O   0  0  0  0  0  0  0  0  0  0  0  0
   -3.1586   -9.2669   -7.0684 C   0  0  0  0  0  0  0  0  0  0  0  0
   -2.0894   -9.5336   -7.9650 C   0  0  0  0  0  0  0  0  0  0  0  0
   -2.1198  -10.6936   -8.7830 C   0  0  0  0  0  0  0  0  0  0  0  0
   -3.2205  -11.5890   -8.7080 C   0  0  0  0  0  0  0  0  0  0  0  0
   -4.2940  -11.3243   -7.8150 C   0  0  0  0  0  0  0  0  0  0  0  0
   -0.1959  -11.9748   -9.1272 C   0  0  0  0  0  0  0  0  0  0  0  0
  1  4  1  0  0  0  0
  2  3  1  0  0  0  0
  3  5  1  0  0  0  0
  4  6  1  0  0  0  0
  5  8  1  0  0  0  0
  6  7  1  0  0  0  0
  7 10  1  0  0  0  0
  8  9  1  0  0  0  0
  9 12  1  0  0  0  0
  9 13  1  0  0  0  0
 10 11  1  0  0  0  0
 11 14  1  0  0  0  0
 14 15  1  0  0  0  0
 15 16  1  0  0  0  0
 15 17  1  0  0  0  0
 18  2  1  0  0  0  0
 18 20  2  0  0  0  0
 18 24  1  0  0  0  0
 19 25  1  0  0  0  0
 20  1  1  0  0  0  0
 20 21  1  0  0  0  0
 21 22  2  0  0  0  0
 22 19  1  0  0  0  0
 22 23  1  0  0  0  0
 23 24  2  0  0  0  0
M  END
>  <CHROM.1>
178.16727858,56.02341694,64.25176096,-164.93529599,-170.16097832,174.49381321
-171.30481598,35.88509319,58.58158236,-100.41399788,74.57736777,110.81393972
-86.77463149,-117.24330014,-161.18791194,-119.06969091,-90.78405786,102.41414919
-4.17289254,-7.85537847,-5.99941751,-0.19891332,1.06038631,-1.12125004

>  <Name>
1uud_lig

>  <RI>
0

>  <Rbt.Current_Directory>
/home/itssahil/PROJECTS/Mol_Feturizer/New_Systems/rnas/1uud

>  <Rbt.Executable>
rbdock ($Id: //depot/dev/client3/rdock/2013.1/src/exe/rbdock.cxx#4 $)

>  <Rbt.Library>
libRbt.so (2013.1, Build901 2013/11/27)

>  <Rbt.Parameter_File>
/export/apps/rDock/src/rDock_2013.1_src/data/scripts/dock_solv.prm

>  <Rbt.Receptor>
prm/pocket_docking_8.prm

>  <SCORE>
-22.6971

>  <SCORE.INTER>
-12.9079

>  <SCORE.INTER.CONST>
1

>  <SCORE.INTER.POLAR>
-3.41656

>  <SCORE.INTER.ROT>
18

>  <SCORE.INTER.SOLV>
4.52939

>  <SCORE.INTER.VDW>
-14.3265

>  <SCORE.INTER.norm>
-0.516317

>  <SCORE.INTRA>
-9.78922

>  <SCORE.INTRA.DIHEDRAL>
-10.2402

>  <SCORE.INTRA.DIHEDRAL.0>
30.6762

>  <SCORE.INTRA.POLAR>
0.0288659

>  <SCORE.INTRA.POLAR.0>
-0.0288659

>  <SCORE.INTRA.REPUL>
0

>  <SCORE.INTRA.REPUL.0>
0

>  <SCORE.INTRA.SOLV>
-0.190442

>  <SCORE.INTRA.SOLV.lig_0>
-25.2195

>  <SCORE.INTRA.VDW>
-4.67204

>  <SCORE.INTRA.VDW.0>
4.14263

>  <SCORE.INTRA.norm>
-0.391569

>  <SCORE.RESTR>
0

>  <SCORE.RESTR.CAVITY>
0

>  <SCORE.RESTR.norm>
0

>  <SCORE.SYSTEM>
0

>  <SCORE.SYSTEM.CONST>
0

>  <SCORE.SYSTEM.DIHEDRAL>
0

>  <SCORE.SYSTEM.SOLV>
0

>  <SCORE.SYSTEM.norm>
0

>  <SCORE.heavy>
25

>  <SCORE.norm>
-0.907886

>  <RMSD>
8.187

$$$$
1uud_lig
 OpenBabel11021811413D
libRbt.so/2013.1/901 2013/11/27
 25 25  0  0  0  0  0  0  0  0999 V2000
   -4.6091  -11.2978   -8.1888 C   0  0  0  0  0  0  0  0  0  0  0  0
   -1.9167  -10.7284   -9.2036 O   0  0  0  0  0  0  0  0  0  0  0  0
   -0.5815  -10.6108   -8.6901 C   0  0  0  0  0  0  0  0  0  0  0  0
   -3.9526  -10.4709   -7.1460 N   0  0  0  0  0  0  0  0  0  0  0  0
   -0.3136   -9.1693   -8.2368 C   0  0  0  0  0  0  0  0  0  0  0  0
   -4.0574  -11.1457   -5.8305 C   0  0  0  0  0  0  0  0  0  0  0  0
   -3.5022  -10.2257   -4.7365 C   0  0  0  0  0  0  0  0  0  0  0  0
   -0.5840   -8.3363   -9.2134 N   0  0  0  0  0  0  0  0  0  0  0  0
   -1.6951   -7.6241   -9.2252 C   0  0  0  0  0  0  0  0  0  0  0  0
   -4.4384   -9.0289   -4.5373 C   0  0  0  0  0  0  0  0  0  0  0  0
   -5.7652   -9.5104   -3.9433 C   0  0  0  0  0  0  0  0  0  0  0  0
   -2.1126   -6.9696  -10.3512 N   0  0  0  0  0  0  0  0  0  0  0  0
   -2.4399   -7.5382   -8.0928 N   0  0  0  0  0  0  0  0  0  0  0  0
   -6.6582   -8.5517   -4.0123 N   0  0  0  0  0  0  0  0  0  0  0  0
   -7.8344   -8.7446   -4.5777 C   0  0  0  0  0  0  0  0  0  0  0  0
   -8.1125   -8.1276   -5.7548 N   0  0  0  0  0  0  0  0  0  0  0  0
   -8.7822   -9.5419   -4.0014 N   0  0  0  0  0  0  0  0  0  0  0  0
   -2.3502  -12.0931   -9.1404 C   0  0  0  0  0  0  0  0  0  0  0  0
   -3.6052  -16.1707   -8.9190 O   0  0  0  0  0  0  0  0  0  0  0  0
   -3.6485  -12.4139   -8.6490 C   0  0  0  0  0  0  0  0  0  0  0  0
   -4.0600  -13.7713   -8.5685 C   0  0  0  0  0  0  0  0  0  0  0  0
   -3.1870  -14.8056   -8.9972 C   0  0  0  0  0  0  0  0  0  0  0  0
   -1.8994  -14.4854   -9.5056 C   0  0  0  0  0  0  0  0  0  0  0  0
   -1.4822  -13.1290   -9.5846 C   0  0  0  0  0  0  0  0  0  0  0  0
   -4.1409  -16.5807  -10.1805 C   0  0  0  0  0  0  0  0  0  0  0  0
  1  4  1  0  0  0  0
  2  3  1  0  0  0  0
  3  5  1  0  0  0  0
  4  6  1  0  0  0  0
  5  8  1  0  0  0  0
  6  7  1  0  0  0  0
  7 10  1  0  0  0  0
  8  9  1  0  0  0  0
  9 12  1  0  0  0  0
  9 13  1  0  0  0  0
 10 11  1  0  0  0  0
 11 14  1  0  0  0  0
 14 15  1  0  0  0  0
 15 16  1  0  0  0  0
 15 17  1  0  0  0  0
 18  2  1  0  0  0  0
 18 20  2  0  0  0  0
 18 24  1  0  0  0  0
 19 25  1  0  0  0  0
 20  1  1  0  0  0  0
 20 21  1  0  0  0  0
 21 22  2  0  0  0  0
 22 19  1  0  0  0  0
 22 23  1  0  0  0  0
 23 24  2  0  0  0  0
M  END
>  <CHROM.1>
-81.24000464,-157.71011909,-53.61126709,-174.43202768,102.92088001,69.47380550
67.49595608,-166.43767520,102.51052398,-111.19172197,-167.70415018,126.30396177
-110.62227620,-90.74366877,160.17244104,134.60700292,-55.68880219,95.45323823
-3.71482362,-10.75462655,-7.54545303,0.81426926,-0.65775513,-2.87772270

>  <Name>
1uud_lig

>  <RI>
0

>  <Rbt.Current_Directory>
/home/itssahil/PROJECTS/Mol_Feturizer/New_Systems/rnas/1uud

>  <Rbt.Executable>
rbdock ($Id: //depot/dev/client3/rdock/2013.1/src/exe/rbdock.cxx#4 $)

>  <Rbt.Library>
libRbt.so (2013.1, Build901 2013/11/27)

>  <Rbt.Parameter_File>
/export/apps/rDock/src/rDock_2013.1_src/data/scripts/dock_solv.prm

>  <Rbt.Receptor>
prm/pocket_docking_7.prm

>  <SCORE>
-37.2743

>  <SCORE.INTER>
-28.0335

>  <SCORE.INTER.CONST>
1

>  <SCORE.INTER.POLAR>
-3.66402

>  <SCORE.INTER.ROT>
18

>  <SCORE.INTER.SOLV>
12.1534

>  <SCORE.INTER.VDW>
-26.1268

>  <SCORE.INTER.norm>
-1.12134

>  <SCORE.INTRA>
-9.24074

>  <SCORE.INTRA.DIHEDRAL>
-8.60089

>  <SCORE.INTRA.DIHEDRAL.0>
30.6762

>  <SCORE.INTRA.POLAR>
-0.215363

>  <SCORE.INTRA.POLAR.0>
-0.0288659

>  <SCORE.INTRA.REPUL>
0

>  <SCORE.INTRA.REPUL.0>
0

>  <SCORE.INTRA.SOLV>
0.264159

>  <SCORE.INTRA.SOLV.lig_0>
-25.2195

>  <SCORE.INTRA.VDW>
-4.34014

>  <SCORE.INTRA.VDW.0>
4.14263

>  <SCORE.INTRA.norm>
-0.36963

>  <SCORE.RESTR>
0

>  <SCORE.RESTR.CAVITY>
0

>  <SCORE.RESTR.norm>
0

>  <SCORE.SYSTEM>
0

>  <SCORE.SYSTEM.CONST>
0

>  <SCORE.SYSTEM.DIHEDRAL>
0

>  <SCORE.SYSTEM.SOLV>
0

>  <SCORE.SYSTEM.norm>
0

>  <SCORE.heavy>
25

>  <SCORE.norm>
-1.49097

>  <RMSD>
8.229

$$$$
1uud_lig
 OpenBabel11021811413D
libRbt.so/2013.1/901 2013/11/27
 25 25  0  0  0  0  0  0  0  0999 V2000
   -2.1416   -9.9918   -2.1238 C   0  0  0  0  0  0  0  0  0  0  0  0
   -4.0651   -9.5403    0.0440 O   0  0  0  0  0  0  0  0  0  0  0  0
   -4.0257   -8.1220    0.2613 C   0  0  0  0  0  0  0  0  0  0  0  0
   -3.4938  -10.4802   -2.4914 N   0  0  0  0  0  0  0  0  0  0  0  0
   -5.2511   -7.4544   -0.3772 C   0  0  0  0  0  0  0  0  0  0  0  0
   -3.8472  -10.0046   -3.8500 C   0  0  0  0  0  0  0  0  0  0  0  0
   -4.7864  -11.0154   -4.5191 C   0  0  0  0  0  0  0  0  0  0  0  0
   -6.3449   -7.8630    0.2207 N   0  0  0  0  0  0  0  0  0  0  0  0
   -7.1356   -8.7657   -0.3288 C   0  0  0  0  0  0  0  0  0  0  0  0
   -4.7752  -10.8111   -6.0379 C   0  0  0  0  0  0  0  0  0  0  0  0
   -3.4372  -11.2899   -6.6087 C   0  0  0  0  0  0  0  0  0  0  0  0
   -7.7061   -8.5642   -1.5554 N   0  0  0  0  0  0  0  0  0  0  0  0
   -7.3895   -9.9201    0.3397 N   0  0  0  0  0  0  0  0  0  0  0  0
   -3.5477  -11.4819   -7.9018 N   0  0  0  0  0  0  0  0  0  0  0  0
   -3.6222  -12.6951   -8.4147 C   0  0  0  0  0  0  0  0  0  0  0  0
   -4.8422  -13.2602   -8.6041 N   0  0  0  0  0  0  0  0  0  0  0  0
   -2.5007  -13.3994   -8.7498 N   0  0  0  0  0  0  0  0  0  0  0  0
   -2.7956  -10.1231    0.3653 C   0  0  0  0  0  0  0  0  0  0  0  0
    0.9645  -11.9020    1.3387 O   0  0  0  0  0  0  0  0  0  0  0  0
   -1.8345  -10.3641   -0.6584 C   0  0  0  0  0  0  0  0  0  0  0  0
   -0.5882  -10.9636   -0.3331 C   0  0  0  0  0  0  0  0  0  0  0  0
   -0.2922  -11.3025    1.0134 C   0  0  0  0  0  0  0  0  0  0  0  0
   -1.2423  -11.0446    2.0379 C   0  0  0  0  0  0  0  0  0  0  0  0
   -2.4917  -10.4483    1.7165 C   0  0  0  0  0  0  0  0  0  0  0  0
    1.9934  -10.9087    1.3007 C   0  0  0  0  0  0  0  0  0  0  0  0
  1  4  1  0  0  0  0
  2  3  1  0  0  0  0
  3  5  1  0  0  0  0
  4  6  1  0  0  0  0
  5  8  1  0  0  0  0
  6  7  1  0  0  0  0
  7 10  1  0  0  0  0
  8  9  1  0  0  0  0
  9 12  1  0  0  0  0
  9 13  1  0  0  0  0
 10 11  1  0  0  0  0
 11 14  1  0  0  0  0
 14 15  1  0  0  0  0
 15 16  1  0  0  0  0
 15 17  1  0  0  0  0
 18  2  1  0  0  0  0
 18 20  2  0  0  0  0
 18 24  1  0  0  0  0
 19 25  1  0  0  0  0
 20  1  1  0  0  0  0
 20 21  1  0  0  0  0
 21 22  2  0  0  0  0
 22 19  1  0  0  0  0
 22 23  1  0  0  0  0
 23 24  2  0  0  0  0
M  END
>  <CHROM.1>
174.22881872,166.99428875,64.55293743,150.25568687,-102.68837978,-160.55187629
71.57957540,-58.47045629,-124.15415708,138.26719950,162.02229227,-104.85858052
91.48438034,35.15408806,66.07390635,-95.94308700,-47.11643262,75.23212966
-3.47056249,-10.48322218,-2.23777607,-1.38653033,0.38879095,-1.89061341

>  <Name>
1uud_lig

>  <RI>
0

>  <Rbt.Current_Directory>
/home/itssahil/PROJECTS/Mol_Feturizer/New_Systems/rnas/1uud

>  <Rbt.Executable>
rbdock ($Id: //depot/dev/client3/rdock/2013.1/src/exe/rbdock.cxx#4 $)

>  <Rbt.Library>
libRbt.so (2013.1, Build901 2013/11/27)

>  <Rbt.Parameter_File>
/export/apps/rDock/src/rDock_2013.1_src/data/scripts/dock_solv.prm

>  <Rbt.Receptor>
prm/pocket_docking_4.prm

>  <SCORE>
-43.1023

>  <SCORE.INTER>
-32.1943

>  <SCORE.INTER.CONST>
1

>  <SCORE.INTER.POLAR>
-4.57077

>  <SCORE.INTER.ROT>
18

>  <SCORE.INTER.SOLV>
11.8829

>  <SCORE.INTER.VDW>
-25.788

>  <SCORE.INTER.norm>
-1.28777

>  <SCORE.INTRA>
-11.3824

>  <SCORE.INTRA.DIHEDRAL>
-5.42115

>  <SCORE.INTRA.DIHEDRAL.0>
30.6762

>  <SCORE.INTRA.POLAR>
-0.641677

>  <SCORE.INTRA.POLAR.0>
-0.0288659

>  <SCORE.INTRA.REPUL>
0

>  <SCORE.INTRA.REPUL.0>
0

>  <SCORE.INTRA.SOLV>
-0.372937

>  <SCORE.INTRA.SOLV.lig_0>
-25.2195

>  <SCORE.INTRA.VDW>
-6.30366

>  <SCORE.INTRA.VDW.0>
4.14263

>  <SCORE.INTRA.norm>
-0.455296

>  <SCORE.RESTR>
0.474444

>  <SCORE.RESTR.CAVITY>
0.474444

>  <SCORE.RESTR.norm>
0.0189778

>  <SCORE.SYSTEM>
0

>  <SCORE.SYSTEM.CONST>
0

>  <SCORE.SYSTEM.DIHEDRAL>
0

>  <SCORE.SYSTEM.SOLV>
0

>  <SCORE.SYSTEM.norm>
0

>  <SCORE.heavy>
25

>  <SCORE.norm>
-1.72409

>  <RMSD>
8.237

$$$$
1uud_lig
 OpenBabel11021811413D
libRbt.so/2013.1/901 2013/11/27
 25 25  0  0  0  0  0  0  0  0999 V2000
   -2.7964  -10.6695    0.1079 C   0  0  0  0  0  0  0  0  0  0  0  0
   -4.0096   -8.9343    2.1376 O   0  0  0  0  0  0  0  0  0  0  0  0
   -3.9679   -8.5641    3.5238 C   0  0  0  0  0  0  0  0  0  0  0  0
   -2.7357  -10.8565   -1.3630 N   0  0  0  0  0  0  0  0  0  0  0  0
   -5.2834   -8.9488    4.2142 C   0  0  0  0  0  0  0  0  0  0  0  0
   -3.7750  -10.0272   -2.0178 C   0  0  0  0  0  0  0  0  0  0  0  0
   -3.7410  -10.2641   -3.5325 C   0  0  0  0  0  0  0  0  0  0  0  0
   -5.4404  -10.2508    4.1828 N   0  0  0  0  0  0  0  0  0  0  0  0
   -6.1925  -10.8333    3.2680 C   0  0  0  0  0  0  0  0  0  0  0  0
   -4.2733  -11.6651   -3.8530 C   0  0  0  0  0  0  0  0  0  0  0  0
   -3.9081  -12.0340   -5.2937 C   0  0  0  0  0  0  0  0  0  0  0  0
   -7.5202  -11.0797    3.4854 N   0  0  0  0  0  0  0  0  0  0  0  0
   -5.6349  -11.1975    2.0845 N   0  0  0  0  0  0  0  0  0  0  0  0
   -4.6808  -11.3821   -6.1300 N   0  0  0  0  0  0  0  0  0  0  0  0
   -4.2100  -10.8810   -7.2559 C   0  0  0  0  0  0  0  0  0  0  0  0
   -3.4557   -9.7527   -7.2142 N   0  0  0  0  0  0  0  0  0  0  0  0
   -4.4722  -11.4647   -8.4627 N   0  0  0  0  0  0  0  0  0  0  0  0
   -2.8231   -8.4832    1.4717 C   0  0  0  0  0  0  0  0  0  0  0  0
    0.7375   -7.1389   -0.4687 O   0  0  0  0  0  0  0  0  0  0  0  0
   -2.1989   -9.2975    0.4831 C   0  0  0  0  0  0  0  0  0  0  0  0
   -1.0102   -8.8516   -0.1544 C   0  0  0  0  0  0  0  0  0  0  0  0
   -0.4567   -7.5871    0.1775 C   0  0  0  0  0  0  0  0  0  0  0  0
   -1.0894   -6.7658    1.1492 C   0  0  0  0  0  0  0  0  0  0  0  0
   -2.2768   -7.2094    1.7921 C   0  0  0  0  0  0  0  0  0  0  0  0
    1.8600   -7.8633    0.0430 C   0  0  0  0  0  0  0  0  0  0  0  0
  1  4  1  0  0  0  0
  2  3  1  0  0  0  0
  3  5  1  0  0  0  0
  4  6  1  0  0  0  0
  5  8  1  0  0  0  0
  6  7  1  0  0  0  0
  7 10  1  0  0  0  0
  8  9  1  0  0  0  0
  9 12  1  0  0  0  0
  9 13  1  0  0  0  0
 10 11  1  0  0  0  0
 11 14  1  0  0  0  0
 14 15  1  0  0  0  0
 15 16  1  0  0  0  0
 15 17  1  0  0  0  0
 18  2  1  0  0  0  0
 18 20  2  0  0  0  0
 18 24  1  0  0  0  0
 19 25  1  0  0  0  0
 20  1  1  0  0  0  0
 20 21  1  0  0  0  0
 21 22  2  0  0  0  0
 22 19  1  0  0  0  0
 22 23  1  0  0  0  0
 23 24  2  0  0  0  0
M  END
>  <CHROM.1>
-74.76054914,175.60862196,63.04542406,-177.93265959,-97.83446530,70.94925601
-165.50618747,-91.41270004,119.86371528,-33.92983981,-74.97652701,140.53074831
-75.31359194,5.27791305,-119.96382575,141.15372264,138.39225752,-73.73275082
-3.38098040,-9.73148038,-0.76588725,1.58637556,0.52617216,1.37430834

>  <Name>
1uud_lig

>  <RI>
0

>  <Rbt.Current_Directory>
/home/itssahil/PROJECTS/Mol_Feturizer/New_Systems/rnas/1uud

>  <Rbt.Executable>
rbdock ($Id: //depot/dev/client3/rdock/2013.1/src/exe/rbdock.cxx#4 $)

>  <Rbt.Library>
libRbt.so (2013.1, Build901 2013/11/27)

>  <Rbt.Parameter_File>
/export/apps/rDock/src/rDock_2013.1_src/data/scripts/dock_solv.prm

>  <Rbt.Receptor>
prm/pocket_docking_7.prm

>  <SCORE>
-35.3547

>  <SCORE.INTER>
-23.3454

>  <SCORE.INTER.CONST>
1

>  <SCORE.INTER.POLAR>
-4.02316

>  <SCORE.INTER.ROT>
18

>  <SCORE.INTER.SOLV>
10.0645

>  <SCORE.INTER.VDW>
-21.1079

>  <SCORE.INTER.norm>
-0.933815

>  <SCORE.INTRA>
-12.0094

>  <SCORE.INTRA.DIHEDRAL>
-11.3252

>  <SCORE.INTRA.DIHEDRAL.0>
30.6762

>  <SCORE.INTRA.POLAR>
-0.693711

>  <SCORE.INTRA.POLAR.0>
-0.0288659

>  <SCORE.INTRA.REPUL>
0

>  <SCORE.INTRA.REPUL.0>
0

>  <SCORE.INTRA.SOLV>
-0.096562

>  <SCORE.INTRA.SOLV.lig_0>
-25.2195

>  <SCORE.INTRA.VDW>
-3.93986

>  <SCORE.INTRA.VDW.0>
4.14263

>  <SCORE.INTRA.norm>
-0.480375

>  <SCORE.RESTR>
0

>  <SCORE.RESTR.CAVITY>
0

>  <SCORE.RESTR.norm>
0

>  <SCORE.SYSTEM>
0

>  <SCORE.SYSTEM.CONST>
0

>  <SCORE.SYSTEM.DIHEDRAL>
0

>  <SCORE.SYSTEM.SOLV>
0

>  <SCORE.SYSTEM.norm>
0

>  <SCORE.heavy>
25

>  <SCORE.norm>
-1.41419

>  <RMSD>
8.244

$$$$
1uud_lig
 OpenBabel11021811413D
libRbt.so/2013.1/901 2013/11/27
 25 25  0  0  0  0  0  0  0  0999 V2000
    0.0711   -9.1267   -2.3758 C   0  0  0  0  0  0  0  0  0  0  0  0
    0.9269   -8.8914    0.4197 O   0  0  0  0  0  0  0  0  0  0  0  0
    1.8599   -9.9630    0.6237 C   0  0  0  0  0  0  0  0  0  0  0  0
   -1.2998   -8.7805   -1.9253 N   0  0  0  0  0  0  0  0  0  0  0  0
    1.2651  -11.0087    1.5765 C   0  0  0  0  0  0  0  0  0  0  0  0
   -2.2893   -9.6299   -2.6299 C   0  0  0  0  0  0  0  0  0  0  0  0
   -3.7015   -9.0874   -2.3794 C   0  0  0  0  0  0  0  0  0  0  0  0
    0.5103  -11.8461    0.9059 N   0  0  0  0  0  0  0  0  0  0  0  0
   -0.6923  -11.5044    0.4829 C   0  0  0  0  0  0  0  0  0  0  0  0
   -4.6953   -9.7614   -3.3316 C   0  0  0  0  0  0  0  0  0  0  0  0
   -6.0483   -9.0490   -3.2475 C   0  0  0  0  0  0  0  0  0  0  0  0
   -1.2045  -10.2578    0.7161 N   0  0  0  0  0  0  0  0  0  0  0  0
   -1.4385  -12.4118   -0.1983 N   0  0  0  0  0  0  0  0  0  0  0  0
   -6.8375   -9.4774   -4.2040 N   0  0  0  0  0  0  0  0  0  0  0  0
   -6.9083   -8.8599   -5.3677 C   0  0  0  0  0  0  0  0  0  0  0  0
   -5.7627   -8.5892   -6.0444 N   0  0  0  0  0  0  0  0  0  0  0  0
   -8.1059   -8.4778   -5.9022 N   0  0  0  0  0  0  0  0  0  0  0  0
    1.4484   -7.9599   -0.5368 C   0  0  0  0  0  0  0  0  0  0  0  0
    3.0492   -5.2010   -3.3787 O   0  0  0  0  0  0  0  0  0  0  0  0
    1.0626   -8.0422   -1.9059 C   0  0  0  0  0  0  0  0  0  0  0  0
    1.6031   -7.1287   -2.8502 C   0  0  0  0  0  0  0  0  0  0  0  0
    2.5099   -6.1217   -2.4269 C   0  0  0  0  0  0  0  0  0  0  0  0
    2.8801   -6.0266   -1.0583 C   0  0  0  0  0  0  0  0  0  0  0  0
    2.3446   -6.9406   -0.1108 C   0  0  0  0  0  0  0  0  0  0  0  0
    2.4064   -3.9312   -3.2344 C   0  0  0  0  0  0  0  0  0  0  0  0
  1  4  1  0  0  0  0
  2  3  1  0  0  0  0
  3  5  1  0  0  0  0
  4  6  1  0  0  0  0
  5  8  1  0  0  0  0
  6  7  1  0  0  0  0
  7 10  1  0  0  0  0
  8  9  1  0  0  0  0
  9 12  1  0  0  0  0
  9 13  1  0  0  0  0
 10 11  1  0  0  0  0
 11 14  1  0  0  0  0
 14 15  1  0  0  0  0
 15 16  1  0  0  0  0
 15 17  1  0  0  0  0
 18  2  1  0  0  0  0
 18 20  2  0  0  0  0
 18 24  1  0  0  0  0
 19 25  1  0  0  0  0
 20  1  1  0  0  0  0
 20 21  1  0  0  0  0
 21 22  2  0  0  0  0
 22 19  1  0  0  0  0
 22 23  1  0  0  0  0
 23 24  2  0  0  0  0
M  END
>  <CHROM.1>
166.82290596,-176.28397933,84.30611991,-168.73539389,-75.52552381,167.89760671
-170.26179542,0.44760308,18.79240973,5.27994960,170.06412271,-92.80745618
51.42872133,28.81288132,29.31306343,96.79577723,73.81088646,104.57809889
-1.18284764,-8.76130561,-1.96168974,-0.16831868,-0.42272942,-0.70681893

>  <Name>
1uud_lig

>  <RI>
0

>  <Rbt.Current_Directory>
/home/itssahil/PROJECTS/Mol_Feturizer/New_Systems/rnas/1uud

>  <Rbt.Executable>
rbdock ($Id: //depot/dev/client3/rdock/2013.1/src/exe/rbdock.cxx#4 $)

>  <Rbt.Library>
libRbt.so (2013.1, Build901 2013/11/27)

>  <Rbt.Parameter_File>
/export/apps/rDock/src/rDock_2013.1_src/data/scripts/dock_solv.prm

>  <Rbt.Receptor>
prm/pocket_docking_8.prm

>  <SCORE>
-43.2786

>  <SCORE.INTER>
-29.4115

>  <SCORE.INTER.CONST>
1

>  <SCORE.INTER.POLAR>
-4.74605

>  <SCORE.INTER.ROT>
18

>  <SCORE.INTER.SOLV>
13.2982

>  <SCORE.INTER.VDW>
-23.8203

>  <SCORE.INTER.norm>
-1.17646

>  <SCORE.INTRA>
-13.8671

>  <SCORE.INTRA.DIHEDRAL>
-7.15104

>  <SCORE.INTRA.DIHEDRAL.0>
30.6762

>  <SCORE.INTRA.POLAR>
-1.632

>  <SCORE.INTRA.POLAR.0>
-0.0288659

>  <SCORE.INTRA.REPUL>
0

>  <SCORE.INTRA.REPUL.0>
0

>  <SCORE.INTRA.SOLV>
1.21369

>  <SCORE.INTRA.SOLV.lig_0>
-25.2195

>  <SCORE.INTRA.VDW>
-5.34961

>  <SCORE.INTRA.VDW.0>
4.14263

>  <SCORE.INTRA.norm>
-0.554683

>  <SCORE.RESTR>
0

>  <SCORE.RESTR.CAVITY>
0

>  <SCORE.RESTR.norm>
0

>  <SCORE.SYSTEM>
0

>  <SCORE.SYSTEM.CONST>
0

>  <SCORE.SYSTEM.DIHEDRAL>
0

>  <SCORE.SYSTEM.SOLV>
0

>  <SCORE.SYSTEM.norm>
0

>  <SCORE.heavy>
25

>  <SCORE.norm>
-1.73114

>  <RMSD>
8.256

$$$$
1uud_lig
 OpenBabel11021811413D
libRbt.so/2013.1/901 2013/11/27
 25 25  0  0  0  0  0  0  0  0999 V2000
   -0.8923  -11.8017   -4.6965 C   0  0  0  0  0  0  0  0  0  0  0  0
   -2.3673  -11.3721   -2.1980 O   0  0  0  0  0  0  0  0  0  0  0  0
   -1.6757  -10.1505   -1.8986 C   0  0  0  0  0  0  0  0  0  0  0  0
   -0.7157  -13.1853   -5.2031 N   0  0  0  0  0  0  0  0  0  0  0  0
   -1.0434  -10.2285   -0.5024 C   0  0  0  0  0  0  0  0  0  0  0  0
   -1.0191  -13.2315   -6.6532 C   0  0  0  0  0  0  0  0  0  0  0  0
   -1.6321  -14.5922   -7.0057 C   0  0  0  0  0  0  0  0  0  0  0  0
    0.2361   -9.9485   -0.5751 N   0  0  0  0  0  0  0  0  0  0  0  0
    1.1123  -10.5092    0.2372 C   0  0  0  0  0  0  0  0  0  0  0  0
   -2.1209  -14.5830   -8.4582 C   0  0  0  0  0  0  0  0  0  0  0  0
   -3.0170  -15.8002   -8.7043 C   0  0  0  0  0  0  0  0  0  0  0  0
    0.9019  -11.7522    0.7676 N   0  0  0  0  0  0  0  0  0  0  0  0
    2.2481   -9.8358    0.5544 N   0  0  0  0  0  0  0  0  0  0  0  0
   -3.2403  -15.9363   -9.9899 N   0  0  0  0  0  0  0  0  0  0  0  0
   -2.5460  -16.7843  -10.7242 C   0  0  0  0  0  0  0  0  0  0  0  0
   -1.3140  -16.4231  -11.1663 N   0  0  0  0  0  0  0  0  0  0  0  0
   -3.0417  -18.0126  -11.0584 N   0  0  0  0  0  0  0  0  0  0  0  0
   -3.0725  -11.2471   -3.4396 C   0  0  0  0  0  0  0  0  0  0  0  0
   -5.1834  -10.8259   -7.1297 O   0  0  0  0  0  0  0  0  0  0  0  0
   -2.3926  -11.4425   -4.6763 C   0  0  0  0  0  0  0  0  0  0  0  0
   -3.0951  -11.2934   -5.9021 C   0  0  0  0  0  0  0  0  0  0  0  0
   -4.4777  -10.9712   -5.8946 C   0  0  0  0  0  0  0  0  0  0  0  0
   -5.1612  -10.7954   -4.6614 C   0  0  0  0  0  0  0  0  0  0  0  0
   -4.4615  -10.9400   -3.4327 C   0  0  0  0  0  0  0  0  0  0  0  0
   -4.4400  -11.4471   -8.1823 C   0  0  0  0  0  0  0  0  0  0  0  0
  1  4  1  0  0  0  0
  2  3  1  0  0  0  0
  3  5  1  0  0  0  0
  4  6  1  0  0  0  0
  5  8  1  0  0  0  0
  6  7  1  0  0  0  0
  7 10  1  0  0  0  0
  8  9  1  0  0  0  0
  9 12  1  0  0  0  0
  9 13  1  0  0  0  0
 10 11  1  0  0  0  0
 11 14  1  0  0  0  0
 14 15  1  0  0  0  0
 15 16  1  0  0  0  0
 15 17  1  0  0  0  0
 18  2  1  0  0  0  0
 18 20  2  0  0  0  0
 18 24  1  0  0  0  0
 19 25  1  0  0  0  0
 20  1  1  0  0  0  0
 20 21  1  0  0  0  0
 21 22  2  0  0  0  0
 22 19  1  0  0  0  0
 22 23  1  0  0  0  0
 23 24  2  0  0  0  0
M  END
>  <CHROM.1>
70.66588440,174.01451086,126.30907474,-147.15186831,-147.63462591,172.45830737
-166.68132294,28.49181302,-20.83370470,-38.41061571,-168.57074721,98.24405187
-80.89057399,4.91041098,27.99140719,82.51097035,112.45919540,18.17963417
-2.03617222,-12.57564255,-5.24128074,-1.28791913,0.53471476,-2.23809300

>  <Name>
1uud_lig

>  <RI>
0

>  <Rbt.Current_Directory>
/home/itssahil/PROJECTS/Mol_Feturizer/New_Systems/rnas/1uud

>  <Rbt.Executable>
rbdock ($Id: //depot/dev/client3/rdock/2013.1/src/exe/rbdock.cxx#4 $)

>  <Rbt.Library>
libRbt.so (2013.1, Build901 2013/11/27)

>  <Rbt.Parameter_File>
/export/apps/rDock/src/rDock_2013.1_src/data/scripts/dock_solv.prm

>  <Rbt.Receptor>
prm/pocket_docking_7.prm

>  <SCORE>
-28.7703

>  <SCORE.INTER>
-26.3612

>  <SCORE.INTER.CONST>
1

>  <SCORE.INTER.POLAR>
-4.87945

>  <SCORE.INTER.ROT>
18

>  <SCORE.INTER.SOLV>
12.7769

>  <SCORE.INTER.VDW>
-21.1683

>  <SCORE.INTER.norm>
-1.05445

>  <SCORE.INTRA>
-2.40906

>  <SCORE.INTRA.DIHEDRAL>
-5.8582

>  <SCORE.INTRA.DIHEDRAL.0>
30.6762

>  <SCORE.INTRA.POLAR>
0.0288659

>  <SCORE.INTRA.POLAR.0>
-0.0288659

>  <SCORE.INTRA.REPUL>
0

>  <SCORE.INTRA.REPUL.0>
0

>  <SCORE.INTRA.SOLV>
-1.43286

>  <SCORE.INTRA.SOLV.lig_0>
-25.2195

>  <SCORE.INTRA.VDW>
1.13833

>  <SCORE.INTRA.VDW.0>
4.14263

>  <SCORE.INTRA.norm>
-0.0963625

>  <SCORE.RESTR>
0

>  <SCORE.RESTR.CAVITY>
0

>  <SCORE.RESTR.norm>
0

>  <SCORE.SYSTEM>
0

>  <SCORE.SYSTEM.CONST>
0

>  <SCORE.SYSTEM.DIHEDRAL>
0

>  <SCORE.SYSTEM.SOLV>
0

>  <SCORE.SYSTEM.norm>
0

>  <SCORE.heavy>
25

>  <SCORE.norm>
-1.15081

>  <RMSD>
8.271

$$$$
1uud_lig
 OpenBabel11021811413D
libRbt.so/2013.1/901 2013/11/27
 25 25  0  0  0  0  0  0  0  0999 V2000
   -2.3811   -9.4179   -5.7044 C   0  0  0  0  0  0  0  0  0  0  0  0
   -5.1476  -10.0705   -6.4275 O   0  0  0  0  0  0  0  0  0  0  0  0
   -5.4454  -10.7814   -5.2166 C   0  0  0  0  0  0  0  0  0  0  0  0
   -2.4978   -8.0361   -6.2326 N   0  0  0  0  0  0  0  0  0  0  0  0
   -6.2830   -9.9016   -4.2786 C   0  0  0  0  0  0  0  0  0  0  0  0
   -3.8522   -7.5040   -5.9516 C   0  0  0  0  0  0  0  0  0  0  0  0
   -3.9069   -6.0176   -6.3250 C   0  0  0  0  0  0  0  0  0  0  0  0
   -7.3618   -9.4874   -4.8994 N   0  0  0  0  0  0  0  0  0  0  0  0
   -8.1664   -8.5905   -4.3608 C   0  0  0  0  0  0  0  0  0  0  0  0
   -5.2163   -5.4013   -5.8206 C   0  0  0  0  0  0  0  0  0  0  0  0
   -5.3117   -3.9470   -6.2906 C   0  0  0  0  0  0  0  0  0  0  0  0
   -7.9293   -7.2496   -4.4882 N   0  0  0  0  0  0  0  0  0  0  0  0
   -9.2537   -9.0090   -3.6630 N   0  0  0  0  0  0  0  0  0  0  0  0
   -6.4700   -3.4406   -5.9397 N   0  0  0  0  0  0  0  0  0  0  0  0
   -6.5538   -2.4356   -5.0890 C   0  0  0  0  0  0  0  0  0  0  0  0
   -6.4758   -2.6872   -3.7570 N   0  0  0  0  0  0  0  0  0  0  0  0
   -6.7272   -1.1499   -5.5168 N   0  0  0  0  0  0  0  0  0  0  0  0
   -4.0836  -10.7229   -7.1323 C   0  0  0  0  0  0  0  0  0  0  0  0
   -0.9279  -12.6455   -9.2761 O   0  0  0  0  0  0  0  0  0  0  0  0
   -2.7254  -10.4308   -6.8160 C   0  0  0  0  0  0  0  0  0  0  0  0
   -1.6781  -11.0653   -7.5363 C   0  0  0  0  0  0  0  0  0  0  0  0
   -1.9839  -12.0052   -8.5554 C   0  0  0  0  0  0  0  0  0  0  0  0
   -3.3379  -12.3117   -8.8583 C   0  0  0  0  0  0  0  0  0  0  0  0
   -4.3889  -11.6766   -8.1427 C   0  0  0  0  0  0  0  0  0  0  0  0
   -0.4795  -11.7891  -10.3306 C   0  0  0  0  0  0  0  0  0  0  0  0
  1  4  1  0  0  0  0
  2  3  1  0  0  0  0
  3  5  1  0  0  0  0
  4  6  1  0  0  0  0
  5  8  1  0  0  0  0
  6  7  1  0  0  0  0
  7 10  1  0  0  0  0
  8  9  1  0  0  0  0
  9 12  1  0  0  0  0
  9 13  1  0  0  0  0
 10 11  1  0  0  0  0
 11 14  1  0  0  0  0
 14 15  1  0  0  0  0
 15 16  1  0  0  0  0
 15 17  1  0  0  0  0
 18  2  1  0  0  0  0
 18 20  2  0  0  0  0
 18 24  1  0  0  0  0
 19 25  1  0  0  0  0
 20  1  1  0  0  0  0
 20 21  1  0  0  0  0
 21 22  2  0  0  0  0
 22 19  1  0  0  0  0
 22 23  1  0  0  0  0
 23 24  2  0  0  0  0
M  END
>  <CHROM.1>
93.50106649,164.17003757,55.29323909,172.31626260,-171.96722873,-170.39734281
-175.66476930,85.09992723,-88.11225713,108.66312323,175.76580404,116.04340290
-81.14149270,-134.79967028,-172.57462185,-85.64401800,-80.47392949,-82.83416678
-4.80784580,-8.20621959,-6.21951827,-0.97911633,0.57220930,0.05765295

>  <Name>
1uud_lig

>  <RI>
0

>  <Rbt.Current_Directory>
/home/itssahil/PROJECTS/Mol_Feturizer/New_Systems/rnas/1uud

>  <Rbt.Executable>
rbdock ($Id: //depot/dev/client3/rdock/2013.1/src/exe/rbdock.cxx#4 $)

>  <Rbt.Library>
libRbt.so (2013.1, Build901 2013/11/27)

>  <Rbt.Parameter_File>
/export/apps/rDock/src/rDock_2013.1_src/data/scripts/dock_solv.prm

>  <Rbt.Receptor>
prm/pocket_docking_8.prm

>  <SCORE>
-35.0404

>  <SCORE.INTER>
-24.7167

>  <SCORE.INTER.CONST>
1

>  <SCORE.INTER.POLAR>
-4.45258

>  <SCORE.INTER.ROT>
18

>  <SCORE.INTER.SOLV>
8.95941

>  <SCORE.INTER.VDW>
-20.2224

>  <SCORE.INTER.norm>
-0.98867

>  <SCORE.INTRA>
-10.3236

>  <SCORE.INTRA.DIHEDRAL>
-6.82614

>  <SCORE.INTRA.DIHEDRAL.0>
30.6762

>  <SCORE.INTRA.POLAR>
0.0288659

>  <SCORE.INTRA.POLAR.0>
-0.0288659

>  <SCORE.INTRA.REPUL>
0.0152982

>  <SCORE.INTRA.REPUL.0>
0

>  <SCORE.INTRA.SOLV>
-0.725613

>  <SCORE.INTRA.SOLV.lig_0>
-25.2195

>  <SCORE.INTRA.VDW>
-6.72238

>  <SCORE.INTRA.VDW.0>
4.14263

>  <SCORE.INTRA.norm>
-0.412945

>  <SCORE.RESTR>
0

>  <SCORE.RESTR.CAVITY>
0

>  <SCORE.RESTR.norm>
0

>  <SCORE.SYSTEM>
0

>  <SCORE.SYSTEM.CONST>
0

>  <SCORE.SYSTEM.DIHEDRAL>
0

>  <SCORE.SYSTEM.SOLV>
0

>  <SCORE.SYSTEM.norm>
0

>  <SCORE.heavy>
25

>  <SCORE.norm>
-1.40161

>  <RMSD>
8.291

$$$$
1uud_lig
 OpenBabel11021811413D
libRbt.so/2013.1/901 2013/11/27
 25 25  0  0  0  0  0  0  0  0999 V2000
   -2.8252  -10.9406   -2.3296 C   0  0  0  0  0  0  0  0  0  0  0  0
   -4.1499   -8.9022   -0.6888 O   0  0  0  0  0  0  0  0  0  0  0  0
   -3.8774   -7.4932   -0.7162 C   0  0  0  0  0  0  0  0  0  0  0  0
   -1.7713  -10.5458   -3.2969 N   0  0  0  0  0  0  0  0  0  0  0  0
   -5.1366   -6.7184   -1.1277 C   0  0  0  0  0  0  0  0  0  0  0  0
   -2.2154  -10.8543   -4.6768 C   0  0  0  0  0  0  0  0  0  0  0  0
   -1.6798  -12.2298   -5.0925 C   0  0  0  0  0  0  0  0  0  0  0  0
   -6.0617   -6.8477   -0.2066 N   0  0  0  0  0  0  0  0  0  0  0  0
   -7.2317   -7.3957   -0.4759 C   0  0  0  0  0  0  0  0  0  0  0  0
   -2.6595  -12.8992   -6.0625 C   0  0  0  0  0  0  0  0  0  0  0  0
   -2.1090  -14.2644   -6.4848 C   0  0  0  0  0  0  0  0  0  0  0  0
   -7.4876   -8.7093   -0.1937 N   0  0  0  0  0  0  0  0  0  0  0  0
   -8.2031   -6.6382   -1.0476 N   0  0  0  0  0  0  0  0  0  0  0  0
   -3.0700  -14.9907   -7.0047 N   0  0  0  0  0  0  0  0  0  0  0  0
   -3.1199  -15.2439   -8.2985 C   0  0  0  0  0  0  0  0  0  0  0  0
   -2.0615  -15.8490   -8.8961 N   0  0  0  0  0  0  0  0  0  0  0  0
   -4.2067  -14.9022   -9.0522 N   0  0  0  0  0  0  0  0  0  0  0  0
   -3.0333   -9.6088   -0.1334 C   0  0  0  0  0  0  0  0  0  0  0  0
    0.2643  -11.7339    1.5577 O   0  0  0  0  0  0  0  0  0  0  0  0
   -2.3646  -10.6104   -0.8947 C   0  0  0  0  0  0  0  0  0  0  0  0
   -1.2737  -11.3214   -0.3266 C   0  0  0  0  0  0  0  0  0  0  0  0
   -0.8365  -11.0196    0.9899 C   0  0  0  0  0  0  0  0  0  0  0  0
   -1.4904  -10.0073    1.7427 C   0  0  0  0  0  0  0  0  0  0  0  0
   -2.5845   -9.2960    1.1798 C   0  0  0  0  0  0  0  0  0  0  0  0
    1.4872  -11.0657    1.2342 C   0  0  0  0  0  0  0  0  0  0  0  0
  1  4  1  0  0  0  0
  2  3  1  0  0  0  0
  3  5  1  0  0  0  0
  4  6  1  0  0  0  0
  5  8  1  0  0  0  0
  6  7  1  0  0  0  0
  7 10  1  0  0  0  0
  8  9  1  0  0  0  0
  9 12  1  0  0  0  0
  9 13  1  0  0  0  0
 10 11  1  0  0  0  0
 11 14  1  0  0  0  0
 14 15  1  0  0  0  0
 15 16  1  0  0  0  0
 15 17  1  0  0  0  0
 18  2  1  0  0  0  0
 18 20  2  0  0  0  0
 18 24  1  0  0  0  0
 19 25  1  0  0  0  0
 20  1  1  0  0  0  0
 20 21  1  0  0  0  0
 21 22  2  0  0  0  0
 22 19  1  0  0  0  0
 22 23  1  0  0  0  0
 23 24  2  0  0  0  0
M  END
>  <CHROM.1>
-179.64166861,-172.24829792,65.81489147,-94.70961417,-119.47941294,148.79286192
179.34573966,97.77011943,-177.96054948,-171.34612068,162.90786995,108.20168951
57.06792018,100.00470011,-20.79303419,-120.98501489,113.49418083,88.98683724
-3.15400569,-10.82342858,-2.49084024,-1.37787462,-0.52547536,0.99595451

>  <Name>
1uud_lig

>  <RI>
0

>  <Rbt.Current_Directory>
/home/itssahil/PROJECTS/Mol_Feturizer/New_Systems/rnas/1uud

>  <Rbt.Executable>
rbdock ($Id: //depot/dev/client3/rdock/2013.1/src/exe/rbdock.cxx#4 $)

>  <Rbt.Library>
libRbt.so (2013.1, Build901 2013/11/27)

>  <Rbt.Parameter_File>
/export/apps/rDock/src/rDock_2013.1_src/data/scripts/dock_solv.prm

>  <Rbt.Receptor>
prm/pocket_docking_6.prm

>  <SCORE>
-31.2213

>  <SCORE.INTER>
-22.8067

>  <SCORE.INTER.CONST>
1

>  <SCORE.INTER.POLAR>
-4.56787

>  <SCORE.INTER.ROT>
18

>  <SCORE.INTER.SOLV>
10.0041

>  <SCORE.INTER.VDW>
-18.9129

>  <SCORE.INTER.norm>
-0.912268

>  <SCORE.INTRA>
-8.41463

>  <SCORE.INTRA.DIHEDRAL>
-5.40975

>  <SCORE.INTRA.DIHEDRAL.0>
30.6762

>  <SCORE.INTRA.POLAR>
0.0288659

>  <SCORE.INTRA.POLAR.0>
-0.0288659

>  <SCORE.INTRA.REPUL>
0

>  <SCORE.INTRA.REPUL.0>
0

>  <SCORE.INTRA.SOLV>
-0.916074

>  <SCORE.INTRA.SOLV.lig_0>
-25.2195

>  <SCORE.INTRA.VDW>
-5.34986

>  <SCORE.INTRA.VDW.0>
4.14263

>  <SCORE.INTRA.norm>
-0.336585

>  <SCORE.RESTR>
0

>  <SCORE.RESTR.CAVITY>
0

>  <SCORE.RESTR.norm>
0

>  <SCORE.SYSTEM>
0

>  <SCORE.SYSTEM.CONST>
0

>  <SCORE.SYSTEM.DIHEDRAL>
0

>  <SCORE.SYSTEM.SOLV>
0

>  <SCORE.SYSTEM.norm>
0

>  <SCORE.heavy>
25

>  <SCORE.norm>
-1.24885

>  <RMSD>
8.307

$$$$
1uud_lig
 OpenBabel11021811413D
libRbt.so/2013.1/901 2013/11/27
 25 25  0  0  0  0  0  0  0  0999 V2000
   -1.9363  -13.2289   -5.1358 C   0  0  0  0  0  0  0  0  0  0  0  0
   -0.1955  -15.2452   -3.9083 O   0  0  0  0  0  0  0  0  0  0  0  0
   -0.9731  -16.2112   -4.6311 C   0  0  0  0  0  0  0  0  0  0  0  0
   -2.3759  -11.8117   -5.1513 N   0  0  0  0  0  0  0  0  0  0  0  0
   -0.0542  -17.2687   -5.2576 C   0  0  0  0  0  0  0  0  0  0  0  0
   -3.7830  -11.7275   -5.6094 C   0  0  0  0  0  0  0  0  0  0  0  0
   -4.6748  -11.2762   -4.4464 C   0  0  0  0  0  0  0  0  0  0  0  0
   -0.7745  -18.2177   -5.8066 N   0  0  0  0  0  0  0  0  0  0  0  0
   -0.4204  -18.7806   -6.9467 C   0  0  0  0  0  0  0  0  0  0  0  0
   -5.0023   -9.7858   -4.5887 C   0  0  0  0  0  0  0  0  0  0  0  0
   -5.9942   -9.3735   -3.4972 C   0  0  0  0  0  0  0  0  0  0  0  0
    0.4501  -19.8349   -6.9833 N   0  0  0  0  0  0  0  0  0  0  0  0
   -0.9313  -18.3010   -8.1100 N   0  0  0  0  0  0  0  0  0  0  0  0
   -7.1623   -9.9257   -3.7252 N   0  0  0  0  0  0  0  0  0  0  0  0
   -8.1776   -9.7566   -2.8998 C   0  0  0  0  0  0  0  0  0  0  0  0
   -8.0885  -10.2376   -1.6332 N   0  0  0  0  0  0  0  0  0  0  0  0
   -9.3195   -9.1184   -3.2930 N   0  0  0  0  0  0  0  0  0  0  0  0
    0.3852  -14.3011   -4.8171 C   0  0  0  0  0  0  0  0  0  0  0  0
    2.1285  -11.5251   -7.5567 O   0  0  0  0  0  0  0  0  0  0  0  0
   -0.4257  -13.3085   -5.4393 C   0  0  0  0  0  0  0  0  0  0  0  0
    0.1551  -12.3921   -6.3564 C   0  0  0  0  0  0  0  0  0  0  0  0
    1.5457  -12.4513   -6.6364 C   0  0  0  0  0  0  0  0  0  0  0  0
    2.3588  -13.4284   -6.0014 C   0  0  0  0  0  0  0  0  0  0  0  0
    1.7813  -14.3495   -5.0860 C   0  0  0  0  0  0  0  0  0  0  0  0
    2.9970  -10.6324   -6.8528 C   0  0  0  0  0  0  0  0  0  0  0  0
  1  4  1  0  0  0  0
  2  3  1  0  0  0  0
  3  5  1  0  0  0  0
  4  6  1  0  0  0  0
  5  8  1  0  0  0  0
  6  7  1  0  0  0  0
  7 10  1  0  0  0  0
  8  9  1  0  0  0  0
  9 12  1  0  0  0  0
  9 13  1  0  0  0  0
 10 11  1  0  0  0  0
 11 14  1  0  0  0  0
 14 15  1  0  0  0  0
 15 16  1  0  0  0  0
 15 17  1  0  0  0  0
 18  2  1  0  0  0  0
 18 20  2  0  0  0  0
 18 24  1  0  0  0  0
 19 25  1  0  0  0  0
 20  1  1  0  0  0  0
 20 21  1  0  0  0  0
 21 22  2  0  0  0  0
 22 19  1  0  0  0  0
 22 23  1  0  0  0  0
 23 24  2  0  0  0  0
M  END
>  <CHROM.1>
148.76912258,79.14353054,173.95803669,111.99964636,141.70837656,101.26257292
174.88937293,85.75073049,-122.45558491,141.54867381,-69.09379229,177.86039302
-64.00796565,-137.21585614,-133.38141725,73.29817334,145.35334404,111.88699848
-2.02263317,-13.30641818,-5.20789201,-2.46715462,-0.31495380,-3.07244900

>  <Name>
1uud_lig

>  <RI>
0

>  <Rbt.Current_Directory>
/home/itssahil/PROJECTS/Mol_Feturizer/New_Systems/rnas/1uud

>  <Rbt.Executable>
rbdock ($Id: //depot/dev/client3/rdock/2013.1/src/exe/rbdock.cxx#4 $)

>  <Rbt.Library>
libRbt.so (2013.1, Build901 2013/11/27)

>  <Rbt.Parameter_File>
/export/apps/rDock/src/rDock_2013.1_src/data/scripts/dock_solv.prm

>  <Rbt.Receptor>
prm/pocket_docking_7.prm

>  <SCORE>
-27.1122

>  <SCORE.INTER>
-24.7403

>  <SCORE.INTER.CONST>
1

>  <SCORE.INTER.POLAR>
-4.4732

>  <SCORE.INTER.ROT>
18

>  <SCORE.INTER.SOLV>
10.5381

>  <SCORE.INTER.VDW>
-20.6955

>  <SCORE.INTER.norm>
-0.989611

>  <SCORE.INTRA>
-2.61594

>  <SCORE.INTRA.DIHEDRAL>
0.0273757

>  <SCORE.INTRA.DIHEDRAL.0>
30.6762

>  <SCORE.INTRA.POLAR>
0.0288659

>  <SCORE.INTRA.POLAR.0>
-0.0288659

>  <SCORE.INTRA.REPUL>
0

>  <SCORE.INTRA.REPUL.0>
0

>  <SCORE.INTRA.SOLV>
-1.41747

>  <SCORE.INTRA.SOLV.lig_0>
-25.2195

>  <SCORE.INTRA.VDW>
-2.01903

>  <SCORE.INTRA.VDW.0>
4.14263

>  <SCORE.INTRA.norm>
-0.104638

>  <SCORE.RESTR>
0.244031

>  <SCORE.RESTR.CAVITY>
0.244031

>  <SCORE.RESTR.norm>
0.00976125

>  <SCORE.SYSTEM>
0

>  <SCORE.SYSTEM.CONST>
0

>  <SCORE.SYSTEM.DIHEDRAL>
0

>  <SCORE.SYSTEM.SOLV>
0

>  <SCORE.SYSTEM.norm>
0

>  <SCORE.heavy>
25

>  <SCORE.norm>
-1.08449

>  <RMSD>
8.317

$$$$
1uud_lig
 OpenBabel11021811413D
libRbt.so/2013.1/901 2013/11/27
 25 25  0  0  0  0  0  0  0  0999 V2000
   -3.1108  -10.3275   -1.4944 C   0  0  0  0  0  0  0  0  0  0  0  0
   -3.5072   -7.9345    0.1545 O   0  0  0  0  0  0  0  0  0  0  0  0
   -3.5013   -6.8296   -0.7617 C   0  0  0  0  0  0  0  0  0  0  0  0
   -2.5365  -11.3126   -2.4440 N   0  0  0  0  0  0  0  0  0  0  0  0
   -4.9395   -6.4260   -1.1137 C   0  0  0  0  0  0  0  0  0  0  0  0
   -3.0571  -11.0575   -3.8080 C   0  0  0  0  0  0  0  0  0  0  0  0
   -2.2289  -11.8470   -4.8290 C   0  0  0  0  0  0  0  0  0  0  0  0
   -5.7024   -6.5187   -0.0506 N   0  0  0  0  0  0  0  0  0  0  0  0
   -6.7707   -7.2935   -0.0335 C   0  0  0  0  0  0  0  0  0  0  0  0
   -2.9951  -11.9522   -6.1521 C   0  0  0  0  0  0  0  0  0  0  0  0
   -2.0836  -12.5553   -7.2247 C   0  0  0  0  0  0  0  0  0  0  0  0
   -7.8513   -7.0388   -0.8324 N   0  0  0  0  0  0  0  0  0  0  0  0
   -6.7980   -8.3674    0.7974 N   0  0  0  0  0  0  0  0  0  0  0  0
   -2.7931  -12.8862   -8.2775 N   0  0  0  0  0  0  0  0  0  0  0  0
   -3.1699  -14.1323   -8.4910 C   0  0  0  0  0  0  0  0  0  0  0  0
   -2.5613  -14.8497   -9.4701 N   0  0  0  0  0  0  0  0  0  0  0  0
   -4.1647  -14.7138   -7.7572 N   0  0  0  0  0  0  0  0  0  0  0  0
   -2.2225   -8.5700    0.1677 C   0  0  0  0  0  0  0  0  0  0  0  0
    1.6008  -10.4740    0.2564 O   0  0  0  0  0  0  0  0  0  0  0  0
   -1.9891   -9.7377   -0.6146 C   0  0  0  0  0  0  0  0  0  0  0  0
   -0.7193  -10.3736   -0.5766 C   0  0  0  0  0  0  0  0  0  0  0  0
    0.3224   -9.8343    0.2231 C   0  0  0  0  0  0  0  0  0  0  0  0
    0.0965   -8.6587    0.9885 C   0  0  0  0  0  0  0  0  0  0  0  0
   -1.1734   -8.0212    0.9563 C   0  0  0  0  0  0  0  0  0  0  0  0
    1.7238  -11.2366    1.4605 C   0  0  0  0  0  0  0  0  0  0  0  0
  1  4  1  0  0  0  0
  2  3  1  0  0  0  0
  3  5  1  0  0  0  0
  4  6  1  0  0  0  0
  5  8  1  0  0  0  0
  6  7  1  0  0  0  0
  7 10  1  0  0  0  0
  8  9  1  0  0  0  0
  9 12  1  0  0  0  0
  9 13  1  0  0  0  0
 10 11  1  0  0  0  0
 11 14  1  0  0  0  0
 14 15  1  0  0  0  0
 15 16  1  0  0  0  0
 15 17  1  0  0  0  0
 18  2  1  0  0  0  0
 18 20  2  0  0  0  0
 18 24  1  0  0  0  0
 19 25  1  0  0  0  0
 20  1  1  0  0  0  0
 20 21  1  0  0  0  0
 21 22  2  0  0  0  0
 22 19  1  0  0  0  0
 22 23  1  0  0  0  0
 23 24  2  0  0  0  0
M  END
>  <CHROM.1>
-132.65242513,162.38431820,38.40190751,166.88348386,-121.86453975,162.36607688
171.63928148,-65.60340961,15.02525087,-32.99050684,167.95580003,-99.90485289
-106.75384824,18.38148020,-89.29387485,-97.52901300,166.16519150,-101.84159463
-2.86836517,-10.16241701,-2.42320360,-1.62957424,0.39019816,-2.15385676

>  <Name>
1uud_lig

>  <RI>
0

>  <Rbt.Current_Directory>
/home/itssahil/PROJECTS/Mol_Feturizer/New_Systems/rnas/1uud

>  <Rbt.Executable>
rbdock ($Id: //depot/dev/client3/rdock/2013.1/src/exe/rbdock.cxx#4 $)

>  <Rbt.Library>
libRbt.so (2013.1, Build901 2013/11/27)

>  <Rbt.Parameter_File>
/export/apps/rDock/src/rDock_2013.1_src/data/scripts/dock_solv.prm

>  <Rbt.Receptor>
prm/pocket_docking_5.prm

>  <SCORE>
-24.3445

>  <SCORE.INTER>
-18.8999

>  <SCORE.INTER.CONST>
1

>  <SCORE.INTER.POLAR>
-4.15008

>  <SCORE.INTER.ROT>
18

>  <SCORE.INTER.SOLV>
7.87912

>  <SCORE.INTER.VDW>
-16.9927

>  <SCORE.INTER.norm>
-0.755994

>  <SCORE.INTRA>
-5.44463

>  <SCORE.INTRA.DIHEDRAL>
-2.51656

>  <SCORE.INTRA.DIHEDRAL.0>
30.6762

>  <SCORE.INTRA.POLAR>
0.0288659

>  <SCORE.INTRA.POLAR.0>
-0.0288659

>  <SCORE.INTRA.REPUL>
0

>  <SCORE.INTRA.REPUL.0>
0

>  <SCORE.INTRA.SOLV>
-0.823399

>  <SCORE.INTRA.SOLV.lig_0>
-25.2195

>  <SCORE.INTRA.VDW>
-3.87279

>  <SCORE.INTRA.VDW.0>
4.14263

>  <SCORE.INTRA.norm>
-0.217785

>  <SCORE.RESTR>
0

>  <SCORE.RESTR.CAVITY>
0

>  <SCORE.RESTR.norm>
0

>  <SCORE.SYSTEM>
0

>  <SCORE.SYSTEM.CONST>
0

>  <SCORE.SYSTEM.DIHEDRAL>
0

>  <SCORE.SYSTEM.SOLV>
0

>  <SCORE.SYSTEM.norm>
0

>  <SCORE.heavy>
25

>  <SCORE.norm>
-0.973779

>  <RMSD>
8.358

$$$$
1uud_lig
 OpenBabel11021811413D
libRbt.so/2013.1/901 2013/11/27
 25 25  0  0  0  0  0  0  0  0999 V2000
   -5.3896   -5.0327    0.6764 C   0  0  0  0  0  0  0  0  0  0  0  0
   -4.9700   -7.7280    1.7544 O   0  0  0  0  0  0  0  0  0  0  0  0
   -4.5819   -8.6183    0.6975 C   0  0  0  0  0  0  0  0  0  0  0  0
   -5.2601   -5.4539   -0.7407 N   0  0  0  0  0  0  0  0  0  0  0  0
   -4.8270  -10.0745    1.1152 C   0  0  0  0  0  0  0  0  0  0  0  0
   -6.3258   -4.8197   -1.5523 C   0  0  0  0  0  0  0  0  0  0  0  0
   -6.2330   -5.3178   -2.9997 C   0  0  0  0  0  0  0  0  0  0  0  0
   -6.1034  -10.2626    1.3522 N   0  0  0  0  0  0  0  0  0  0  0  0
   -6.5537  -10.4804    2.5736 C   0  0  0  0  0  0  0  0  0  0  0  0
   -7.0020   -6.6351   -3.1479 C   0  0  0  0  0  0  0  0  0  0  0  0
   -6.9106   -7.1207   -4.5974 C   0  0  0  0  0  0  0  0  0  0  0  0
   -6.4607   -9.5274    3.5502 N   0  0  0  0  0  0  0  0  0  0  0  0
   -7.1211  -11.6787    2.8674 N   0  0  0  0  0  0  0  0  0  0  0  0
   -7.6361   -8.2029   -4.7512 N   0  0  0  0  0  0  0  0  0  0  0  0
   -7.1017   -9.4070   -4.6803 C   0  0  0  0  0  0  0  0  0  0  0  0
   -6.1989   -9.7873   -5.6204 N   0  0  0  0  0  0  0  0  0  0  0  0
   -7.4431  -10.2831   -3.6893 N   0  0  0  0  0  0  0  0  0  0  0  0
   -3.9526   -6.7404    1.9646 C   0  0  0  0  0  0  0  0  0  0  0  0
   -0.8882   -3.8249    2.5643 O   0  0  0  0  0  0  0  0  0  0  0  0
   -4.1143   -5.4204    1.4531 C   0  0  0  0  0  0  0  0  0  0  0  0
   -3.0898   -4.4554    1.6468 C   0  0  0  0  0  0  0  0  0  0  0  0
   -1.9159   -4.7993    2.3673 C   0  0  0  0  0  0  0  0  0  0  0  0
   -1.7624   -6.1098    2.8946 C   0  0  0  0  0  0  0  0  0  0  0  0
   -2.7832   -7.0795    2.7002 C   0  0  0  0  0  0  0  0  0  0  0  0
   -0.0341   -3.7906    1.4171 C   0  0  0  0  0  0  0  0  0  0  0  0
  1  4  1  0  0  0  0
  2  3  1  0  0  0  0
  3  5  1  0  0  0  0
  4  6  1  0  0  0  0
  5  8  1  0  0  0  0
  6  7  1  0  0  0  0
  7 10  1  0  0  0  0
  8  9  1  0  0  0  0
  9 12  1  0  0  0  0
  9 13  1  0  0  0  0
 10 11  1  0  0  0  0
 11 14  1  0  0  0  0
 14 15  1  0  0  0  0
 15 16  1  0  0  0  0
 15 17  1  0  0  0  0
 18  2  1  0  0  0  0
 18 20  2  0  0  0  0
 18 24  1  0  0  0  0
 19 25  1  0  0  0  0
 20  1  1  0  0  0  0
 20 21  1  0  0  0  0
 21 22  2  0  0  0  0
 22 19  1  0  0  0  0
 22 23  1  0  0  0  0
 23 24  2  0  0  0  0
M  END
>  <CHROM.1>
-167.10092177,133.67353301,61.23778763,-176.96026488,-110.82478965,85.61270307
179.68176237,64.72733939,2.80547510,1.51402542,-176.04461716,-96.10067415
-65.35718974,39.38885820,-155.20475490,101.92477551,-82.83445622,-83.93062529
-5.04272330,-7.37697409,-0.05739663,-0.41045623,-0.92037337,-1.01488931

>  <Name>
1uud_lig

>  <RI>
0

>  <Rbt.Current_Directory>
/home/itssahil/PROJECTS/Mol_Feturizer/New_Systems/rnas/1uud

>  <Rbt.Executable>
rbdock ($Id: //depot/dev/client3/rdock/2013.1/src/exe/rbdock.cxx#4 $)

>  <Rbt.Library>
libRbt.so (2013.1, Build901 2013/11/27)

>  <Rbt.Parameter_File>
/export/apps/rDock/src/rDock_2013.1_src/data/scripts/dock_solv.prm

>  <Rbt.Receptor>
prm/pocket_docking_7.prm

>  <SCORE>
-24.3589

>  <SCORE.INTER>
-13.6407

>  <SCORE.INTER.CONST>
1

>  <SCORE.INTER.POLAR>
-2.71861

>  <SCORE.INTER.ROT>
18

>  <SCORE.INTER.SOLV>
7.29054

>  <SCORE.INTER.VDW>
-18.0619

>  <SCORE.INTER.norm>
-0.545628

>  <SCORE.INTRA>
-10.7183

>  <SCORE.INTRA.DIHEDRAL>
-2.09872

>  <SCORE.INTRA.DIHEDRAL.0>
30.6762

>  <SCORE.INTRA.POLAR>
-0.708765

>  <SCORE.INTRA.POLAR.0>
-0.0288659

>  <SCORE.INTRA.REPUL>
0

>  <SCORE.INTRA.REPUL.0>
0

>  <SCORE.INTRA.SOLV>
-0.479222

>  <SCORE.INTRA.SOLV.lig_0>
-25.2195

>  <SCORE.INTRA.VDW>
-7.01949

>  <SCORE.INTRA.VDW.0>
4.14263

>  <SCORE.INTRA.norm>
-0.42873

>  <SCORE.RESTR>
0

>  <SCORE.RESTR.CAVITY>
0

>  <SCORE.RESTR.norm>
0

>  <SCORE.SYSTEM>
0

>  <SCORE.SYSTEM.CONST>
0

>  <SCORE.SYSTEM.DIHEDRAL>
0

>  <SCORE.SYSTEM.SOLV>
0

>  <SCORE.SYSTEM.norm>
0

>  <SCORE.heavy>
25

>  <SCORE.norm>
-0.974358

>  <RMSD>
8.426

$$$$
1uud_lig
 OpenBabel11021811413D
libRbt.so/2013.1/901 2013/11/27
 25 25  0  0  0  0  0  0  0  0999 V2000
   -2.0860   -9.8516   -2.1448 C   0  0  0  0  0  0  0  0  0  0  0  0
   -3.9199   -9.3613    0.0911 O   0  0  0  0  0  0  0  0  0  0  0  0
   -3.9275   -8.0385    0.6483 C   0  0  0  0  0  0  0  0  0  0  0  0
   -2.7465  -10.9805   -2.8458 N   0  0  0  0  0  0  0  0  0  0  0  0
   -5.3294   -7.4245    0.5352 C   0  0  0  0  0  0  0  0  0  0  0  0
   -4.1437  -10.6156   -3.1798 C   0  0  0  0  0  0  0  0  0  0  0  0
   -4.1482   -9.6086   -4.3363 C   0  0  0  0  0  0  0  0  0  0  0  0
   -6.2084   -8.2083    1.1128 N   0  0  0  0  0  0  0  0  0  0  0  0
   -7.4024   -8.4108    0.5880 C   0  0  0  0  0  0  0  0  0  0  0  0
   -4.9668   -8.3726   -3.9478 C   0  0  0  0  0  0  0  0  0  0  0  0
   -6.4595   -8.7118   -3.9954 C   0  0  0  0  0  0  0  0  0  0  0  0
   -7.5703   -9.1784   -0.5315 N   0  0  0  0  0  0  0  0  0  0  0  0
   -8.4887   -7.8426    1.1723 N   0  0  0  0  0  0  0  0  0  0  0  0
   -7.1073   -7.9964   -3.1066 N   0  0  0  0  0  0  0  0  0  0  0  0
   -7.8957   -7.0011   -3.4648 C   0  0  0  0  0  0  0  0  0  0  0  0
   -7.3467   -5.8829   -4.0050 N   0  0  0  0  0  0  0  0  0  0  0  0
   -9.2496   -7.0653   -3.2953 N   0  0  0  0  0  0  0  0  0  0  0  0
   -2.6666  -10.0022    0.3613 C   0  0  0  0  0  0  0  0  0  0  0  0
    1.0439  -11.9537    1.1824 O   0  0  0  0  0  0  0  0  0  0  0  0
   -1.7491  -10.2638   -0.6968 C   0  0  0  0  0  0  0  0  0  0  0  0
   -0.5196  -10.9205   -0.4221 C   0  0  0  0  0  0  0  0  0  0  0  0
   -0.1960  -11.2965    0.9081 C   0  0  0  0  0  0  0  0  0  0  0  0
   -1.1019  -11.0186    1.9669 C   0  0  0  0  0  0  0  0  0  0  0  0
   -2.3346  -10.3650    1.6962 C   0  0  0  0  0  0  0  0  0  0  0  0
    2.0938  -10.9847    1.2558 C   0  0  0  0  0  0  0  0  0  0  0  0
  1  4  1  0  0  0  0
  2  3  1  0  0  0  0
  3  5  1  0  0  0  0
  4  6  1  0  0  0  0
  5  8  1  0  0  0  0
  6  7  1  0  0  0  0
  7 10  1  0  0  0  0
  8  9  1  0  0  0  0
  9 12  1  0  0  0  0
  9 13  1  0  0  0  0
 10 11  1  0  0  0  0
 11 14  1  0  0  0  0
 14 15  1  0  0  0  0
 15 16  1  0  0  0  0
 15 17  1  0  0  0  0
 18  2  1  0  0  0  0
 18 20  2  0  0  0  0
 18 24  1  0  0  0  0
 19 25  1  0  0  0  0
 20  1  1  0  0  0  0
 20 21  1  0  0  0  0
 21 22  2  0  0  0  0
 22 19  1  0  0  0  0
 22 23  1  0  0  0  0
 23 24  2  0  0  0  0
M  END
>  <CHROM.1>
114.61620944,-172.05202975,55.97777334,73.26433720,-140.25415970,-126.82773464
-74.77426679,72.71842347,-160.00181922,-18.97716927,149.22962126,107.89022476
-68.31766699,-73.06082486,-130.48322929,-110.76217544,-92.30924144,80.74641070
-4.27523676,-9.21600885,-1.01211353,-0.36074222,0.43712662,-1.57568619

>  <Name>
1uud_lig

>  <RI>
0

>  <Rbt.Current_Directory>
/home/itssahil/PROJECTS/Mol_Feturizer/New_Systems/rnas/1uud

>  <Rbt.Executable>
rbdock ($Id: //depot/dev/client3/rdock/2013.1/src/exe/rbdock.cxx#4 $)

>  <Rbt.Library>
libRbt.so (2013.1, Build901 2013/11/27)

>  <Rbt.Parameter_File>
/export/apps/rDock/src/rDock_2013.1_src/data/scripts/dock_solv.prm

>  <Rbt.Receptor>
prm/pocket_docking_6.prm

>  <SCORE>
-28.0229

>  <SCORE.INTER>
-20.7644

>  <SCORE.INTER.CONST>
1

>  <SCORE.INTER.POLAR>
-4.06877

>  <SCORE.INTER.ROT>
18

>  <SCORE.INTER.SOLV>
8.17791

>  <SCORE.INTER.VDW>
-18.6064

>  <SCORE.INTER.norm>
-0.830576

>  <SCORE.INTRA>
-7.25848

>  <SCORE.INTRA.DIHEDRAL>
1.94448

>  <SCORE.INTRA.DIHEDRAL.0>
30.6762

>  <SCORE.INTRA.POLAR>
-0.757478

>  <SCORE.INTRA.POLAR.0>
-0.0288659

>  <SCORE.INTRA.REPUL>
0

>  <SCORE.INTRA.REPUL.0>
0

>  <SCORE.INTRA.SOLV>
1.1801

>  <SCORE.INTRA.SOLV.lig_0>
-25.2195

>  <SCORE.INTRA.VDW>
-6.24535

>  <SCORE.INTRA.VDW.0>
4.14263

>  <SCORE.INTRA.norm>
-0.290339

>  <SCORE.RESTR>
0

>  <SCORE.RESTR.CAVITY>
0

>  <SCORE.RESTR.norm>
0

>  <SCORE.SYSTEM>
0

>  <SCORE.SYSTEM.CONST>
0

>  <SCORE.SYSTEM.DIHEDRAL>
0

>  <SCORE.SYSTEM.SOLV>
0

>  <SCORE.SYSTEM.norm>
0

>  <SCORE.heavy>
25

>  <SCORE.norm>
-1.12092

>  <RMSD>
8.448

$$$$
1uud_lig
 OpenBabel11021811413D
libRbt.so/2013.1/901 2013/11/27
 25 25  0  0  0  0  0  0  0  0999 V2000
   -3.0665  -10.5663   -7.6149 C   0  0  0  0  0  0  0  0  0  0  0  0
   -4.7902  -11.4547   -5.4144 O   0  0  0  0  0  0  0  0  0  0  0  0
   -4.5704  -10.6874   -4.2215 C   0  0  0  0  0  0  0  0  0  0  0  0
   -2.7885   -9.3587   -6.7986 N   0  0  0  0  0  0  0  0  0  0  0  0
   -5.7795   -9.7845   -3.9424 C   0  0  0  0  0  0  0  0  0  0  0  0
   -3.0460   -8.1398   -7.6015 C   0  0  0  0  0  0  0  0  0  0  0  0
   -2.8082   -6.8961   -6.7364 C   0  0  0  0  0  0  0  0  0  0  0  0
   -6.8531  -10.5173   -3.7662 N   0  0  0  0  0  0  0  0  0  0  0  0
   -8.0420   -9.9699   -3.5964 C   0  0  0  0  0  0  0  0  0  0  0  0
   -3.1126   -5.6315   -7.5469 C   0  0  0  0  0  0  0  0  0  0  0  0
   -1.8122   -5.0737   -8.1326 C   0  0  0  0  0  0  0  0  0  0  0  0
   -8.6546   -9.2669   -4.5970 N   0  0  0  0  0  0  0  0  0  0  0  0
   -8.6706  -10.1067   -2.4004 N   0  0  0  0  0  0  0  0  0  0  0  0
   -1.3042   -5.9311   -8.9858 N   0  0  0  0  0  0  0  0  0  0  0  0
   -1.8226   -6.0972  -10.1875 C   0  0  0  0  0  0  0  0  0  0  0  0
   -2.0129   -5.0128  -10.9823 N   0  0  0  0  0  0  0  0  0  0  0  0
   -2.1816   -7.3327  -10.6465 N   0  0  0  0  0  0  0  0  0  0  0  0
   -3.6235  -12.2272   -5.7250 C   0  0  0  0  0  0  0  0  0  0  0  0
   -0.1756  -14.5690   -6.6623 O   0  0  0  0  0  0  0  0  0  0  0  0
   -2.7622  -11.8338   -6.7895 C   0  0  0  0  0  0  0  0  0  0  0  0
   -1.6210  -12.6191   -7.1044 C   0  0  0  0  0  0  0  0  0  0  0  0
   -1.3271  -13.7826   -6.3459 C   0  0  0  0  0  0  0  0  0  0  0  0
   -2.1748  -14.1650   -5.2715 C   0  0  0  0  0  0  0  0  0  0  0  0
   -3.3195  -13.3843   -4.9552 C   0  0  0  0  0  0  0  0  0  0  0  0
   -0.5001  -15.4974   -7.7012 C   0  0  0  0  0  0  0  0  0  0  0  0
  1  4  1  0  0  0  0
  2  3  1  0  0  0  0
  3  5  1  0  0  0  0
  4  6  1  0  0  0  0
  5  8  1  0  0  0  0
  6  7  1  0  0  0  0
  7 10  1  0  0  0  0
  8  9  1  0  0  0  0
  9 12  1  0  0  0  0
  9 13  1  0  0  0  0
 10 11  1  0  0  0  0
 11 14  1  0  0  0  0
 14 15  1  0  0  0  0
 15 16  1  0  0  0  0
 15 17  1  0  0  0  0
 18  2  1  0  0  0  0
 18 20  2  0  0  0  0
 18 24  1  0  0  0  0
 19 25  1  0  0  0  0
 20  1  1  0  0  0  0
 20 21  1  0  0  0  0
 21 22  2  0  0  0  0
 22 19  1  0  0  0  0
 22 23  1  0  0  0  0
 23 24  2  0  0  0  0
M  END
>  <CHROM.1>
178.51080066,175.98345375,60.84763040,177.87129735,-175.56269874,-178.32249345
-96.32980144,66.30811704,167.16046221,-38.12504309,64.21150505,74.92999862
52.76963386,-138.18884119,7.19518414,-104.81145121,72.48632124,-85.05962548
-3.51215444,-9.92678981,-6.56797416,-1.14077977,-0.62709022,2.75454975

>  <Name>
1uud_lig

>  <RI>
0

>  <Rbt.Current_Directory>
/home/itssahil/PROJECTS/Mol_Feturizer/New_Systems/rnas/1uud

>  <Rbt.Executable>
rbdock ($Id: //depot/dev/client3/rdock/2013.1/src/exe/rbdock.cxx#4 $)

>  <Rbt.Library>
libRbt.so (2013.1, Build901 2013/11/27)

>  <Rbt.Parameter_File>
/export/apps/rDock/src/rDock_2013.1_src/data/scripts/dock_solv.prm

>  <Rbt.Receptor>
prm/pocket_docking_8.prm

>  <SCORE>
-23.7933

>  <SCORE.INTER>
-15.4477

>  <SCORE.INTER.CONST>
1

>  <SCORE.INTER.POLAR>
-2.5819

>  <SCORE.INTER.ROT>
18

>  <SCORE.INTER.SOLV>
10.6567

>  <SCORE.INTER.VDW>
-20.8444

>  <SCORE.INTER.norm>
-0.617907

>  <SCORE.INTRA>
-8.34566

>  <SCORE.INTRA.DIHEDRAL>
-6.87421

>  <SCORE.INTRA.DIHEDRAL.0>
30.6762

>  <SCORE.INTRA.POLAR>
0.0288659

>  <SCORE.INTRA.POLAR.0>
-0.0288659

>  <SCORE.INTRA.REPUL>
0

>  <SCORE.INTRA.REPUL.0>
0

>  <SCORE.INTRA.SOLV>
-0.0858467

>  <SCORE.INTRA.SOLV.lig_0>
-25.2195

>  <SCORE.INTRA.VDW>
-4.96378

>  <SCORE.INTRA.VDW.0>
4.14263

>  <SCORE.INTRA.norm>
-0.333826

>  <SCORE.RESTR>
0

>  <SCORE.RESTR.CAVITY>
0

>  <SCORE.RESTR.norm>
0

>  <SCORE.SYSTEM>
0

>  <SCORE.SYSTEM.CONST>
0

>  <SCORE.SYSTEM.DIHEDRAL>
0

>  <SCORE.SYSTEM.SOLV>
0

>  <SCORE.SYSTEM.norm>
0

>  <SCORE.heavy>
25

>  <SCORE.norm>
-0.951734

>  <RMSD>
8.490

$$$$
1uud_lig
 OpenBabel11021811413D
libRbt.so/2013.1/901 2013/11/27
 25 25  0  0  0  0  0  0  0  0999 V2000
   -7.7731   -8.8132   -4.9303 C   0  0  0  0  0  0  0  0  0  0  0  0
   -7.0852   -9.2015   -2.1057 O   0  0  0  0  0  0  0  0  0  0  0  0
   -6.5630   -9.4635   -0.7946 C   0  0  0  0  0  0  0  0  0  0  0  0
   -7.8412   -7.3779   -4.5595 N   0  0  0  0  0  0  0  0  0  0  0  0
   -7.6055   -9.1028    0.2723 C   0  0  0  0  0  0  0  0  0  0  0  0
   -8.6264   -7.2182   -3.3126 C   0  0  0  0  0  0  0  0  0  0  0  0
   -8.7085   -5.7317   -2.9451 C   0  0  0  0  0  0  0  0  0  0  0  0
   -7.9738   -7.8516    0.1322 N   0  0  0  0  0  0  0  0  0  0  0  0
   -8.0919   -7.0466    1.1714 C   0  0  0  0  0  0  0  0  0  0  0  0
   -9.6305   -5.5441   -1.7353 C   0  0  0  0  0  0  0  0  0  0  0  0
   -9.5052   -4.1096   -1.2141 C   0  0  0  0  0  0  0  0  0  0  0  0
   -7.0043   -6.6670    1.9087 N   0  0  0  0  0  0  0  0  0  0  0  0
   -9.3218   -6.5859    1.5170 N   0  0  0  0  0  0  0  0  0  0  0  0
  -10.1101   -4.0025   -0.0548 N   0  0  0  0  0  0  0  0  0  0  0  0
   -9.6379   -3.2238    0.8997 C   0  0  0  0  0  0  0  0  0  0  0  0
   -9.5822   -3.6952    2.1719 N   0  0  0  0  0  0  0  0  0  0  0  0
   -9.2135   -1.9516    0.6398 N   0  0  0  0  0  0  0  0  0  0  0  0
   -6.1223   -9.5691   -3.1017 C   0  0  0  0  0  0  0  0  0  0  0  0
   -3.2551  -10.7129   -6.0549 O   0  0  0  0  0  0  0  0  0  0  0  0
   -6.4182   -9.4018   -4.4853 C   0  0  0  0  0  0  0  0  0  0  0  0
   -5.4662   -9.7909   -5.4654 C   0  0  0  0  0  0  0  0  0  0  0  0
   -4.2131  -10.3259   -5.0665 C   0  0  0  0  0  0  0  0  0  0  0  0
   -3.9094  -10.4750   -3.6865 C   0  0  0  0  0  0  0  0  0  0  0  0
   -4.8602  -10.0904   -2.7026 C   0  0  0  0  0  0  0  0  0  0  0  0
   -3.3390  -12.1236   -6.2771 C   0  0  0  0  0  0  0  0  0  0  0  0
  1  4  1  0  0  0  0
  2  3  1  0  0  0  0
  3  5  1  0  0  0  0
  4  6  1  0  0  0  0
  5  8  1  0  0  0  0
  6  7  1  0  0  0  0
  7 10  1  0  0  0  0
  8  9  1  0  0  0  0
  9 12  1  0  0  0  0
  9 13  1  0  0  0  0
 10 11  1  0  0  0  0
 11 14  1  0  0  0  0
 14 15  1  0  0  0  0
 15 16  1  0  0  0  0
 15 17  1  0  0  0  0
 18  2  1  0  0  0  0
 18 20  2  0  0  0  0
 18 24  1  0  0  0  0
 19 25  1  0  0  0  0
 20  1  1  0  0  0  0
 20 21  1  0  0  0  0
 21 22  2  0  0  0  0
 22 19  1  0  0  0  0
 22 23  1  0  0  0  0
 23 24  2  0  0  0  0
M  END
>  <CHROM.1>
-99.71054828,-178.61560051,-56.16938248,-179.26499410,-135.68540854,174.54001776
169.53659047,66.54313871,-106.04705491,-70.30545194,-169.39731014,144.26509709
-134.93873080,-153.72075230,88.46632809,179.87805574,69.00694323,-97.67224379
-7.32850157,-7.51737358,-1.91230501,0.58090816,0.94943142,-1.50103424

>  <Name>
1uud_lig

>  <RI>
0

>  <Rbt.Current_Directory>
/home/itssahil/PROJECTS/Mol_Feturizer/New_Systems/rnas/1uud

>  <Rbt.Executable>
rbdock ($Id: //depot/dev/client3/rdock/2013.1/src/exe/rbdock.cxx#4 $)

>  <Rbt.Library>
libRbt.so (2013.1, Build901 2013/11/27)

>  <Rbt.Parameter_File>
/export/apps/rDock/src/rDock_2013.1_src/data/scripts/dock_solv.prm

>  <Rbt.Receptor>
prm/pocket_docking_8.prm

>  <SCORE>
-13.5507

>  <SCORE.INTER>
-0.0991822

>  <SCORE.INTER.CONST>
1

>  <SCORE.INTER.POLAR>
-1.07118

>  <SCORE.INTER.ROT>
18

>  <SCORE.INTER.SOLV>
3.68188

>  <SCORE.INTER.VDW>
-13.3228

>  <SCORE.INTER.norm>
-0.00396729

>  <SCORE.INTRA>
-13.4516

>  <SCORE.INTRA.DIHEDRAL>
-11.935

>  <SCORE.INTRA.DIHEDRAL.0>
30.6762

>  <SCORE.INTRA.POLAR>
-1.82317

>  <SCORE.INTRA.POLAR.0>
-0.0288659

>  <SCORE.INTRA.REPUL>
0

>  <SCORE.INTRA.REPUL.0>
0

>  <SCORE.INTRA.SOLV>
2.04105

>  <SCORE.INTRA.SOLV.lig_0>
-25.2195

>  <SCORE.INTRA.VDW>
-2.3058

>  <SCORE.INTRA.VDW.0>
4.14263

>  <SCORE.INTRA.norm>
-0.538062

>  <SCORE.RESTR>
0

>  <SCORE.RESTR.CAVITY>
0

>  <SCORE.RESTR.norm>
0

>  <SCORE.SYSTEM>
0

>  <SCORE.SYSTEM.CONST>
0

>  <SCORE.SYSTEM.DIHEDRAL>
0

>  <SCORE.SYSTEM.SOLV>
0

>  <SCORE.SYSTEM.norm>
0

>  <SCORE.heavy>
25

>  <SCORE.norm>
-0.54203

>  <RMSD>
8.617

$$$$
1uud_lig
 OpenBabel11021811413D
libRbt.so/2013.1/901 2013/11/27
 25 25  0  0  0  0  0  0  0  0999 V2000
   -0.9572  -12.7821   -5.3682 C   0  0  0  0  0  0  0  0  0  0  0  0
   -2.6872  -14.6988   -6.7596 O   0  0  0  0  0  0  0  0  0  0  0  0
   -2.3111  -14.2181   -8.0588 C   0  0  0  0  0  0  0  0  0  0  0  0
   -1.9397  -12.4706   -4.3006 N   0  0  0  0  0  0  0  0  0  0  0  0
   -3.5615  -13.8565   -8.8719 C   0  0  0  0  0  0  0  0  0  0  0  0
   -1.9052  -11.0209   -3.9940 C   0  0  0  0  0  0  0  0  0  0  0  0
   -2.7830  -10.2635   -4.9977 C   0  0  0  0  0  0  0  0  0  0  0  0
   -4.3813  -14.8798   -8.9096 N   0  0  0  0  0  0  0  0  0  0  0  0
   -4.1266  -15.9410   -9.6520 C   0  0  0  0  0  0  0  0  0  0  0  0
   -4.2532  -10.3509   -4.5742 C   0  0  0  0  0  0  0  0  0  0  0  0
   -5.0833   -9.3643   -5.4005 C   0  0  0  0  0  0  0  0  0  0  0  0
   -2.8859  -16.5162   -9.6747 N   0  0  0  0  0  0  0  0  0  0  0  0
   -5.1188  -16.4727  -10.4115 N   0  0  0  0  0  0  0  0  0  0  0  0
   -6.2828   -9.8542   -5.6060 N   0  0  0  0  0  0  0  0  0  0  0  0
   -7.3590   -9.2725   -5.1120 C   0  0  0  0  0  0  0  0  0  0  0  0
   -7.6886   -9.4843   -3.8120 N   0  0  0  0  0  0  0  0  0  0  0  0
   -8.1545   -8.4708   -5.8805 N   0  0  0  0  0  0  0  0  0  0  0  0
   -1.5353  -15.1946   -6.0656 C   0  0  0  0  0  0  0  0  0  0  0  0
    1.9170  -16.6889   -4.0409 O   0  0  0  0  0  0  0  0  0  0  0  0
   -0.6657  -14.2971   -5.3813 C   0  0  0  0  0  0  0  0  0  0  0  0
    0.4861  -14.7959   -4.7160 C   0  0  0  0  0  0  0  0  0  0  0  0
    0.7591  -16.1891   -4.7148 C   0  0  0  0  0  0  0  0  0  0  0  0
   -0.1180  -17.0871   -5.3805 C   0  0  0  0  0  0  0  0  0  0  0  0
   -1.2697  -16.5921   -6.0504 C   0  0  0  0  0  0  0  0  0  0  0  0
    3.0880  -16.3656   -4.7964 C   0  0  0  0  0  0  0  0  0  0  0  0
  1  4  1  0  0  0  0
  2  3  1  0  0  0  0
  3  5  1  0  0  0  0
  4  6  1  0  0  0  0
  5  8  1  0  0  0  0
  6  7  1  0  0  0  0
  7 10  1  0  0  0  0
  8  9  1  0  0  0  0
  9 12  1  0  0  0  0
  9 13  1  0  0  0  0
 10 11  1  0  0  0  0
 11 14  1  0  0  0  0
 14 15  1  0  0  0  0
 15 16  1  0  0  0  0
 15 17  1  0  0  0  0
 18  2  1  0  0  0  0
 18 20  2  0  0  0  0
 18 24  1  0  0  0  0
 19 25  1  0  0  0  0
 20  1  1  0  0  0  0
 20 21  1  0  0  0  0
 21 22  2  0  0  0  0
 22 19  1  0  0  0  0
 22 23  1  0  0  0  0
 23 24  2  0  0  0  0
M  END
>  <CHROM.1>
162.24219301,172.68149697,-54.18011224,83.42521196,-73.56668605,81.26028975
168.32502235,45.27198088,-91.77017844,142.49315152,146.78995693,115.61917037
-80.36496982,-136.20160470,-179.31361946,82.22246667,83.10656633,-73.48639313
-2.84042872,-13.44732864,-6.12610894,-0.59390025,-0.55466923,0.76295639

>  <Name>
1uud_lig

>  <RI>
0

>  <Rbt.Current_Directory>
/home/itssahil/PROJECTS/Mol_Feturizer/New_Systems/rnas/1uud

>  <Rbt.Executable>
rbdock ($Id: //depot/dev/client3/rdock/2013.1/src/exe/rbdock.cxx#4 $)

>  <Rbt.Library>
libRbt.so (2013.1, Build901 2013/11/27)

>  <Rbt.Parameter_File>
/export/apps/rDock/src/rDock_2013.1_src/data/scripts/dock_solv.prm

>  <Rbt.Receptor>
prm/pocket_docking_8.prm

>  <SCORE>
-40.1596

>  <SCORE.INTER>
-33.0327

>  <SCORE.INTER.CONST>
1

>  <SCORE.INTER.POLAR>
-5.0988

>  <SCORE.INTER.ROT>
18

>  <SCORE.INTER.SOLV>
16.3016

>  <SCORE.INTER.VDW>
-26.0596

>  <SCORE.INTER.norm>
-1.32131

>  <SCORE.INTRA>
-7.12696

>  <SCORE.INTRA.DIHEDRAL>
-3.64805

>  <SCORE.INTRA.DIHEDRAL.0>
30.6762

>  <SCORE.INTRA.POLAR>
0.0288659

>  <SCORE.INTRA.POLAR.0>
-0.0288659

>  <SCORE.INTRA.REPUL>
0

>  <SCORE.INTRA.REPUL.0>
0

>  <SCORE.INTRA.SOLV>
-0.457657

>  <SCORE.INTRA.SOLV.lig_0>
-25.2195

>  <SCORE.INTRA.VDW>
-5.17225

>  <SCORE.INTRA.VDW.0>
4.14263

>  <SCORE.INTRA.norm>
-0.285079

>  <SCORE.RESTR>
0

>  <SCORE.RESTR.CAVITY>
0

>  <SCORE.RESTR.norm>
0

>  <SCORE.SYSTEM>
0

>  <SCORE.SYSTEM.CONST>
0

>  <SCORE.SYSTEM.DIHEDRAL>
0

>  <SCORE.SYSTEM.SOLV>
0

>  <SCORE.SYSTEM.norm>
0

>  <SCORE.heavy>
25

>  <SCORE.norm>
-1.60639

>  <RMSD>
8.659

$$$$
1uud_lig
 OpenBabel11021811413D
libRbt.so/2013.1/901 2013/11/27
 25 25  0  0  0  0  0  0  0  0999 V2000
   -4.0316  -11.1224   -8.1175 C   0  0  0  0  0  0  0  0  0  0  0  0
   -3.0996   -8.4995   -7.1930 O   0  0  0  0  0  0  0  0  0  0  0  0
   -2.9957   -7.1225   -7.5845 C   0  0  0  0  0  0  0  0  0  0  0  0
   -4.1411  -12.5378   -8.5496 N   0  0  0  0  0  0  0  0  0  0  0  0
   -3.8895   -6.2498   -6.6929 C   0  0  0  0  0  0  0  0  0  0  0  0
   -3.4986  -13.4201   -7.5468 C   0  0  0  0  0  0  0  0  0  0  0  0
   -3.0605  -14.7268   -8.2193 C   0  0  0  0  0  0  0  0  0  0  0  0
   -4.0680   -5.0764   -7.2514 N   0  0  0  0  0  0  0  0  0  0  0  0
   -4.9480   -4.2139   -6.7786 C   0  0  0  0  0  0  0  0  0  0  0  0
   -2.4714  -15.6793   -7.1731 C   0  0  0  0  0  0  0  0  0  0  0  0
   -2.0115  -16.9698   -7.8574 C   0  0  0  0  0  0  0  0  0  0  0  0
   -5.7697   -4.5320   -5.7325 N   0  0  0  0  0  0  0  0  0  0  0  0
   -5.0405   -2.9829   -7.3447 N   0  0  0  0  0  0  0  0  0  0  0  0
   -1.7485  -17.8838   -6.9537 N   0  0  0  0  0  0  0  0  0  0  0  0
   -0.6642  -17.8207   -6.2048 C   0  0  0  0  0  0  0  0  0  0  0  0
   -0.7627  -17.3494   -4.9353 N   0  0  0  0  0  0  0  0  0  0  0  0
    0.5563  -18.2088   -6.6802 N   0  0  0  0  0  0  0  0  0  0  0  0
   -2.2114   -9.3035   -7.9800 C   0  0  0  0  0  0  0  0  0  0  0  0
    0.4679  -11.7017  -10.2866 O   0  0  0  0  0  0  0  0  0  0  0  0
   -2.6226  -10.5860   -8.4448 C   0  0  0  0  0  0  0  0  0  0  0  0
   -1.7264  -11.3848   -9.2044 C   0  0  0  0  0  0  0  0  0  0  0  0
   -0.4306  -10.8973   -9.5183 C   0  0  0  0  0  0  0  0  0  0  0  0
   -0.0266   -9.6103   -9.0718 C   0  0  0  0  0  0  0  0  0  0  0  0
   -0.9186   -8.8091   -8.3086 C   0  0  0  0  0  0  0  0  0  0  0  0
    0.3289  -11.3834  -11.6743 C   0  0  0  0  0  0  0  0  0  0  0  0
  1  4  1  0  0  0  0
  2  3  1  0  0  0  0
  3  5  1  0  0  0  0
  4  6  1  0  0  0  0
  5  8  1  0  0  0  0
  6  7  1  0  0  0  0
  7 10  1  0  0  0  0
  8  9  1  0  0  0  0
  9 12  1  0  0  0  0
  9 13  1  0  0  0  0
 10 11  1  0  0  0  0
 11 14  1  0  0  0  0
 14 15  1  0  0  0  0
 15 16  1  0  0  0  0
 15 17  1  0  0  0  0
 18  2  1  0  0  0  0
 18 20  2  0  0  0  0
 18 24  1  0  0  0  0
 19 25  1  0  0  0  0
 20  1  1  0  0  0  0
 20 21  1  0  0  0  0
 21 22  2  0  0  0  0
 22 19  1  0  0  0  0
 22 23  1  0  0  0  0
 23 24  2  0  0  0  0
M  END
>  <CHROM.1>
79.61521444,-176.96968429,-163.68478854,-155.37418343,170.28140404,-176.60864454
-178.89447139,-3.86068376,-101.44171788,84.64457369,-167.88950433,-73.73998150
100.27796250,29.11633977,-8.66697609,-140.12196270,-172.21357758,92.45717193
-2.37570191,-11.13996316,-7.78331299,1.93880057,0.76799942,-0.26488386

>  <Name>
1uud_lig

>  <RI>
0

>  <Rbt.Current_Directory>
/home/itssahil/PROJECTS/Mol_Feturizer/New_Systems/rnas/1uud

>  <Rbt.Executable>
rbdock ($Id: //depot/dev/client3/rdock/2013.1/src/exe/rbdock.cxx#4 $)

>  <Rbt.Library>
libRbt.so (2013.1, Build901 2013/11/27)

>  <Rbt.Parameter_File>
/export/apps/rDock/src/rDock_2013.1_src/data/scripts/dock_solv.prm

>  <Rbt.Receptor>
prm/pocket_docking_8.prm

>  <SCORE>
-24.8956

>  <SCORE.INTER>
-18.6248

>  <SCORE.INTER.CONST>
1

>  <SCORE.INTER.POLAR>
-3.16019

>  <SCORE.INTER.ROT>
18

>  <SCORE.INTER.SOLV>
8.40504

>  <SCORE.INTER.VDW>
-20.2842

>  <SCORE.INTER.norm>
-0.74499

>  <SCORE.INTRA>
-6.27088

>  <SCORE.INTRA.DIHEDRAL>
-9.89642

>  <SCORE.INTRA.DIHEDRAL.0>
30.6762

>  <SCORE.INTRA.POLAR>
0.0288659

>  <SCORE.INTRA.POLAR.0>
-0.0288659

>  <SCORE.INTRA.REPUL>
0

>  <SCORE.INTRA.REPUL.0>
0

>  <SCORE.INTRA.SOLV>
-1.49105

>  <SCORE.INTRA.SOLV.lig_0>
-25.2195

>  <SCORE.INTRA.VDW>
-0.675289

>  <SCORE.INTRA.VDW.0>
4.14263

>  <SCORE.INTRA.norm>
-0.250835

>  <SCORE.RESTR>
0

>  <SCORE.RESTR.CAVITY>
0

>  <SCORE.RESTR.norm>
0

>  <SCORE.SYSTEM>
0

>  <SCORE.SYSTEM.CONST>
0

>  <SCORE.SYSTEM.DIHEDRAL>
0

>  <SCORE.SYSTEM.SOLV>
0

>  <SCORE.SYSTEM.norm>
0

>  <SCORE.heavy>
25

>  <SCORE.norm>
-0.995825

>  <RMSD>
8.712

$$$$
1uud_lig
 OpenBabel11021811413D
libRbt.so/2013.1/901 2013/11/27
 25 25  0  0  0  0  0  0  0  0999 V2000
   -7.5524   -8.4718   -4.1693 C   0  0  0  0  0  0  0  0  0  0  0  0
   -5.9052   -8.3148   -1.7475 O   0  0  0  0  0  0  0  0  0  0  0  0
   -6.5783   -9.5464   -1.4468 C   0  0  0  0  0  0  0  0  0  0  0  0
   -8.0403   -7.0878   -4.3901 N   0  0  0  0  0  0  0  0  0  0  0  0
   -7.3980   -9.4005   -0.1576 C   0  0  0  0  0  0  0  0  0  0  0  0
   -7.5785   -6.2109   -3.2880 C   0  0  0  0  0  0  0  0  0  0  0  0
   -7.9416   -4.7550   -3.6047 C   0  0  0  0  0  0  0  0  0  0  0  0
   -6.5948   -9.2349    0.8662 N   0  0  0  0  0  0  0  0  0  0  0  0
   -6.2295  -10.2490    1.6279 C   0  0  0  0  0  0  0  0  0  0  0  0
   -9.0579   -4.2807   -2.6679 C   0  0  0  0  0  0  0  0  0  0  0  0
  -10.3481   -5.0437   -2.9818 C   0  0  0  0  0  0  0  0  0  0  0  0
   -4.9121  -10.5684    1.8094 N   0  0  0  0  0  0  0  0  0  0  0  0
   -7.1839  -10.9930    2.2443 N   0  0  0  0  0  0  0  0  0  0  0  0
  -10.6612   -4.8879   -4.2463 N   0  0  0  0  0  0  0  0  0  0  0  0
  -11.4490   -3.9081   -4.6458 C   0  0  0  0  0  0  0  0  0  0  0  0
  -10.9251   -2.6684   -4.8254 N   0  0  0  0  0  0  0  0  0  0  0  0
  -12.7810   -4.1094   -4.8727 N   0  0  0  0  0  0  0  0  0  0  0  0
   -5.2479   -8.4104   -3.0177 C   0  0  0  0  0  0  0  0  0  0  0  0
   -3.2688   -8.7396   -6.7893 O   0  0  0  0  0  0  0  0  0  0  0  0
   -6.0106   -8.4940   -4.2183 C   0  0  0  0  0  0  0  0  0  0  0  0
   -5.3498   -8.6120   -5.4704 C   0  0  0  0  0  0  0  0  0  0  0  0
   -3.9313   -8.6250   -5.5274 C   0  0  0  0  0  0  0  0  0  0  0  0
   -3.1697   -8.5220   -4.3323 C   0  0  0  0  0  0  0  0  0  0  0  0
   -3.8266   -8.4075   -3.0771 C   0  0  0  0  0  0  0  0  0  0  0  0
   -2.8843   -7.4404   -7.2485 C   0  0  0  0  0  0  0  0  0  0  0  0
  1  4  1  0  0  0  0
  2  3  1  0  0  0  0
  3  5  1  0  0  0  0
  4  6  1  0  0  0  0
  5  8  1  0  0  0  0
  6  7  1  0  0  0  0
  7 10  1  0  0  0  0
  8  9  1  0  0  0  0
  9 12  1  0  0  0  0
  9 13  1  0  0  0  0
 10 11  1  0  0  0  0
 11 14  1  0  0  0  0
 14 15  1  0  0  0  0
 15 16  1  0  0  0  0
 15 17  1  0  0  0  0
 18  2  1  0  0  0  0
 18 20  2  0  0  0  0
 18 24  1  0  0  0  0
 19 25  1  0  0  0  0
 20  1  1  0  0  0  0
 20 21  1  0  0  0  0
 21 22  2  0  0  0  0
 22 19  1  0  0  0  0
 22 23  1  0  0  0  0
 23 24  2  0  0  0  0
M  END
>  <CHROM.1>
-63.62738778,-174.32884921,-66.67250978,173.31561986,-96.15320675,109.57820644
-67.10423204,122.51663557,-39.54475906,-29.48168464,-56.29080690,-91.26870332
81.42268745,115.72031527,-21.20090928,68.40492307,95.34283390,97.45292656
-7.06103767,-7.45170009,-3.01658598,-2.42228668,-0.54455621,2.04794163

>  <Name>
1uud_lig

>  <RI>
0

>  <Rbt.Current_Directory>
/home/itssahil/PROJECTS/Mol_Feturizer/New_Systems/rnas/1uud

>  <Rbt.Executable>
rbdock ($Id: //depot/dev/client3/rdock/2013.1/src/exe/rbdock.cxx#4 $)

>  <Rbt.Library>
libRbt.so (2013.1, Build901 2013/11/27)

>  <Rbt.Parameter_File>
/export/apps/rDock/src/rDock_2013.1_src/data/scripts/dock_solv.prm

>  <Rbt.Receptor>
prm/pocket_docking_6.prm

>  <SCORE>
-23.3911

>  <SCORE.INTER>
-16.0651

>  <SCORE.INTER.CONST>
1

>  <SCORE.INTER.POLAR>
-3.69399

>  <SCORE.INTER.ROT>
18

>  <SCORE.INTER.SOLV>
6.04951

>  <SCORE.INTER.VDW>
-16.0133

>  <SCORE.INTER.norm>
-0.642603

>  <SCORE.INTRA>
-7.32602

>  <SCORE.INTRA.DIHEDRAL>
-5.71122

>  <SCORE.INTRA.DIHEDRAL.0>
30.6762

>  <SCORE.INTRA.POLAR>
0.0288659

>  <SCORE.INTRA.POLAR.0>
-0.0288659

>  <SCORE.INTRA.REPUL>
0.0175471

>  <SCORE.INTRA.REPUL.0>
0

>  <SCORE.INTRA.SOLV>
0.0360477

>  <SCORE.INTRA.SOLV.lig_0>
-25.2195

>  <SCORE.INTRA.VDW>
-4.67431

>  <SCORE.INTRA.VDW.0>
4.14263

>  <SCORE.INTRA.norm>
-0.293041

>  <SCORE.RESTR>
0

>  <SCORE.RESTR.CAVITY>
0

>  <SCORE.RESTR.norm>
0

>  <SCORE.SYSTEM>
0

>  <SCORE.SYSTEM.CONST>
0

>  <SCORE.SYSTEM.DIHEDRAL>
0

>  <SCORE.SYSTEM.SOLV>
0

>  <SCORE.SYSTEM.norm>
0

>  <SCORE.heavy>
25

>  <SCORE.norm>
-0.935644

>  <RMSD>
8.747

$$$$
1uud_lig
 OpenBabel11021811413D
libRbt.so/2013.1/901 2013/11/27
 25 25  0  0  0  0  0  0  0  0999 V2000
   -1.8920   -7.0485   -0.4428 C   0  0  0  0  0  0  0  0  0  0  0  0
   -3.2261   -6.4785    2.1062 O   0  0  0  0  0  0  0  0  0  0  0  0
   -2.9425   -7.2877    3.2573 C   0  0  0  0  0  0  0  0  0  0  0  0
   -3.0680   -6.5488   -1.1975 N   0  0  0  0  0  0  0  0  0  0  0  0
   -4.2353   -7.9173    3.7934 C   0  0  0  0  0  0  0  0  0  0  0  0
   -3.2780   -7.3790   -2.4072 C   0  0  0  0  0  0  0  0  0  0  0  0
   -4.5980   -6.9818   -3.0789 C   0  0  0  0  0  0  0  0  0  0  0  0
   -3.9810   -9.1035    4.2926 N   0  0  0  0  0  0  0  0  0  0  0  0
   -4.3568  -10.2073    3.6743 C   0  0  0  0  0  0  0  0  0  0  0  0
   -5.6492   -8.0729   -2.8482 C   0  0  0  0  0  0  0  0  0  0  0  0
   -5.7802   -8.9320   -4.1092 C   0  0  0  0  0  0  0  0  0  0  0  0
   -5.2798  -11.0548    4.2226 N   0  0  0  0  0  0  0  0  0  0  0  0
   -3.8134  -10.5091    2.4669 N   0  0  0  0  0  0  0  0  0  0  0  0
   -6.6040   -9.9284   -3.8857 N   0  0  0  0  0  0  0  0  0  0  0  0
   -7.9089   -9.7440   -3.8266 C   0  0  0  0  0  0  0  0  0  0  0  0
   -8.5731  -10.0710   -2.6884 N   0  0  0  0  0  0  0  0  0  0  0  0
   -8.6084   -9.2415   -4.8869 N   0  0  0  0  0  0  0  0  0  0  0  0
   -2.0717   -5.7072    1.7501 C   0  0  0  0  0  0  0  0  0  0  0  0
    1.3933   -3.4264    0.7291 O   0  0  0  0  0  0  0  0  0  0  0  0
   -1.3908   -5.9552    0.5234 C   0  0  0  0  0  0  0  0  0  0  0  0
   -0.2338   -5.2009    0.1904 C   0  0  0  0  0  0  0  0  0  0  0  0
    0.2310   -4.1869    1.0685 C   0  0  0  0  0  0  0  0  0  0  0  0
   -0.4588   -3.9256    2.2830 C   0  0  0  0  0  0  0  0  0  0  0  0
   -1.6146   -4.6801    2.6218 C   0  0  0  0  0  0  0  0  0  0  0  0
    0.9998   -2.2135    0.0805 C   0  0  0  0  0  0  0  0  0  0  0  0
  1  4  1  0  0  0  0
  2  3  1  0  0  0  0
  3  5  1  0  0  0  0
  4  6  1  0  0  0  0
  5  8  1  0  0  0  0
  6  7  1  0  0  0  0
  7 10  1  0  0  0  0
  8  9  1  0  0  0  0
  9 12  1  0  0  0  0
  9 13  1  0  0  0  0
 10 11  1  0  0  0  0
 11 14  1  0  0  0  0
 14 15  1  0  0  0  0
 15 16  1  0  0  0  0
 15 17  1  0  0  0  0
 18  2  1  0  0  0  0
 18 20  2  0  0  0  0
 18 24  1  0  0  0  0
 19 25  1  0  0  0  0
 20  1  1  0  0  0  0
 20 21  1  0  0  0  0
 21 22  2  0  0  0  0
 22 19  1  0  0  0  0
 22 23  1  0  0  0  0
 23 24  2  0  0  0  0
M  END
>  <CHROM.1>
161.48509111,169.79403430,146.48501972,172.38124311,-107.51837076,-107.01684374
-101.41573958,-115.14224982,-53.28901433,-110.21653738,175.29109365,74.96331445
-120.51885069,113.71620267,-179.50267348,113.58893776,77.85636445,94.77387518
-3.56536507,-7.34969989,0.12005841,-0.30078608,-0.75041844,-1.21846767

>  <Name>
1uud_lig

>  <RI>
0

>  <Rbt.Current_Directory>
/home/itssahil/PROJECTS/Mol_Feturizer/New_Systems/rnas/1uud

>  <Rbt.Executable>
rbdock ($Id: //depot/dev/client3/rdock/2013.1/src/exe/rbdock.cxx#4 $)

>  <Rbt.Library>
libRbt.so (2013.1, Build901 2013/11/27)

>  <Rbt.Parameter_File>
/export/apps/rDock/src/rDock_2013.1_src/data/scripts/dock_solv.prm

>  <Rbt.Receptor>
prm/pocket_docking_8.prm

>  <SCORE>
-19.4355

>  <SCORE.INTER>
-14.7829

>  <SCORE.INTER.CONST>
1

>  <SCORE.INTER.POLAR>
-2.81922

>  <SCORE.INTER.ROT>
18

>  <SCORE.INTER.SOLV>
10.6706

>  <SCORE.INTER.VDW>
-19.6147

>  <SCORE.INTER.norm>
-0.591315

>  <SCORE.INTRA>
-4.65266

>  <SCORE.INTRA.DIHEDRAL>
2.92273

>  <SCORE.INTRA.DIHEDRAL.0>
30.6762

>  <SCORE.INTRA.POLAR>
0.0288659

>  <SCORE.INTRA.POLAR.0>
-0.0288659

>  <SCORE.INTRA.REPUL>
0

>  <SCORE.INTRA.REPUL.0>
0

>  <SCORE.INTRA.SOLV>
-1.08735

>  <SCORE.INTRA.SOLV.lig_0>
-25.2195

>  <SCORE.INTRA.VDW>
-5.66849

>  <SCORE.INTRA.VDW.0>
4.14263

>  <SCORE.INTRA.norm>
-0.186106

>  <SCORE.RESTR>
0

>  <SCORE.RESTR.CAVITY>
0

>  <SCORE.RESTR.norm>
0

>  <SCORE.SYSTEM>
0

>  <SCORE.SYSTEM.CONST>
0

>  <SCORE.SYSTEM.DIHEDRAL>
0

>  <SCORE.SYSTEM.SOLV>
0

>  <SCORE.SYSTEM.norm>
0

>  <SCORE.heavy>
25

>  <SCORE.norm>
-0.777421

>  <RMSD>
8.763

$$$$
1uud_lig
 OpenBabel11021811413D
libRbt.so/2013.1/901 2013/11/27
 25 25  0  0  0  0  0  0  0  0999 V2000
   -2.6491  -12.9904   -7.3921 C   0  0  0  0  0  0  0  0  0  0  0  0
   -1.5881  -15.0334   -5.5747 O   0  0  0  0  0  0  0  0  0  0  0  0
   -0.2086  -14.8113   -5.2462 C   0  0  0  0  0  0  0  0  0  0  0  0
   -3.2390  -13.0886   -6.0340 N   0  0  0  0  0  0  0  0  0  0  0  0
    0.4092  -16.0893   -4.6631 C   0  0  0  0  0  0  0  0  0  0  0  0
   -3.6882  -11.7498   -5.5837 C   0  0  0  0  0  0  0  0  0  0  0  0
   -4.4102  -11.8773   -4.2368 C   0  0  0  0  0  0  0  0  0  0  0  0
    1.3331  -16.5488   -5.4730 N   0  0  0  0  0  0  0  0  0  0  0  0
    2.5727  -16.7457   -5.0648 C   0  0  0  0  0  0  0  0  0  0  0  0
   -4.9231  -10.5045   -3.7884 C   0  0  0  0  0  0  0  0  0  0  0  0
   -6.2858  -10.2323   -4.4319 C   0  0  0  0  0  0  0  0  0  0  0  0
    3.4229  -15.7000   -4.8316 N   0  0  0  0  0  0  0  0  0  0  0  0
    3.0142  -18.0156   -4.8733 N   0  0  0  0  0  0  0  0  0  0  0  0
   -6.7391   -9.0657   -4.0383 N   0  0  0  0  0  0  0  0  0  0  0  0
   -7.7416   -8.9673   -3.1864 C   0  0  0  0  0  0  0  0  0  0  0  0
   -7.5609   -9.3687   -1.9019 N   0  0  0  0  0  0  0  0  0  0  0  0
   -8.9595   -8.4810   -3.5690 N   0  0  0  0  0  0  0  0  0  0  0  0
   -1.7175  -15.3548   -6.9656 C   0  0  0  0  0  0  0  0  0  0  0  0
   -2.1363  -16.3491  -11.0991 O   0  0  0  0  0  0  0  0  0  0  0  0
   -2.2333  -14.3931   -7.8816 C   0  0  0  0  0  0  0  0  0  0  0  0
   -2.3794  -14.7294   -9.2541 C   0  0  0  0  0  0  0  0  0  0  0  0
   -1.9921  -16.0146   -9.7164 C   0  0  0  0  0  0  0  0  0  0  0  0
   -1.4593  -16.9676   -8.8071 C   0  0  0  0  0  0  0  0  0  0  0  0
   -1.3147  -16.6368   -7.4325 C   0  0  0  0  0  0  0  0  0  0  0  0
   -0.8599  -16.6962  -11.6439 C   0  0  0  0  0  0  0  0  0  0  0  0
  1  4  1  0  0  0  0
  2  3  1  0  0  0  0
  3  5  1  0  0  0  0
  4  6  1  0  0  0  0
  5  8  1  0  0  0  0
  6  7  1  0  0  0  0
  7 10  1  0  0  0  0
  8  9  1  0  0  0  0
  9 12  1  0  0  0  0
  9 13  1  0  0  0  0
 10 11  1  0  0  0  0
 11 14  1  0  0  0  0
 14 15  1  0  0  0  0
 15 16  1  0  0  0  0
 15 17  1  0  0  0  0
 18  2  1  0  0  0  0
 18 20  2  0  0  0  0
 18 24  1  0  0  0  0
 19 25  1  0  0  0  0
 20  1  1  0  0  0  0
 20 21  1  0  0  0  0
 21 22  2  0  0  0  0
 22 19  1  0  0  0  0
 22 23  1  0  0  0  0
 23 24  2  0  0  0  0
M  END
>  <CHROM.1>
-177.77055026,-96.50182390,114.35525747,174.90830339,123.44561886,-177.94085060
84.91916879,-73.33773032,-161.93199698,-143.69453213,179.17936811,-107.46726082
67.91031237,178.03783925,-9.97059754,-105.53806859,-35.52131935,120.95093704
-2.46233975,-13.81727070,-6.04292214,2.55191864,-0.58359636,1.16239699

>  <Name>
1uud_lig

>  <RI>
0

>  <Rbt.Current_Directory>
/home/itssahil/PROJECTS/Mol_Feturizer/New_Systems/rnas/1uud

>  <Rbt.Executable>
rbdock ($Id: //depot/dev/client3/rdock/2013.1/src/exe/rbdock.cxx#4 $)

>  <Rbt.Library>
libRbt.so (2013.1, Build901 2013/11/27)

>  <Rbt.Parameter_File>
/export/apps/rDock/src/rDock_2013.1_src/data/scripts/dock_solv.prm

>  <Rbt.Receptor>
prm/pocket_docking_8.prm

>  <SCORE>
-26.3322

>  <SCORE.INTER>
-19.3177

>  <SCORE.INTER.CONST>
1

>  <SCORE.INTER.POLAR>
-3.22451

>  <SCORE.INTER.ROT>
18

>  <SCORE.INTER.SOLV>
9.76686

>  <SCORE.INTER.VDW>
-20.9857

>  <SCORE.INTER.norm>
-0.772707

>  <SCORE.INTRA>
-7.01452

>  <SCORE.INTRA.DIHEDRAL>
0.131943

>  <SCORE.INTRA.DIHEDRAL.0>
30.6762

>  <SCORE.INTRA.POLAR>
-0.482235

>  <SCORE.INTRA.POLAR.0>
-0.0288659

>  <SCORE.INTRA.REPUL>
0

>  <SCORE.INTRA.REPUL.0>
0

>  <SCORE.INTRA.SOLV>
-0.551275

>  <SCORE.INTRA.SOLV.lig_0>
-25.2195

>  <SCORE.INTRA.VDW>
-5.16525

>  <SCORE.INTRA.VDW.0>
4.14263

>  <SCORE.INTRA.norm>
-0.280581

>  <SCORE.RESTR>
0

>  <SCORE.RESTR.CAVITY>
0

>  <SCORE.RESTR.norm>
0

>  <SCORE.SYSTEM>
0

>  <SCORE.SYSTEM.CONST>
0

>  <SCORE.SYSTEM.DIHEDRAL>
0

>  <SCORE.SYSTEM.SOLV>
0

>  <SCORE.SYSTEM.norm>
0

>  <SCORE.heavy>
25

>  <SCORE.norm>
-1.05329

>  <RMSD>
8.809

$$$$
1uud_lig
 OpenBabel11021811413D
libRbt.so/2013.1/901 2013/11/27
 25 25  0  0  0  0  0  0  0  0999 V2000
   -2.5369   -8.9347    0.1255 C   0  0  0  0  0  0  0  0  0  0  0  0
   -4.2236   -8.4529    2.4761 O   0  0  0  0  0  0  0  0  0  0  0  0
   -3.8777   -9.6304    3.2206 C   0  0  0  0  0  0  0  0  0  0  0  0
   -3.6169   -8.4688   -0.7792 N   0  0  0  0  0  0  0  0  0  0  0  0
   -5.0661  -10.6006    3.2589 C   0  0  0  0  0  0  0  0  0  0  0  0
   -4.9327   -8.6351   -0.1176 C   0  0  0  0  0  0  0  0  0  0  0  0
   -5.9938   -8.9867   -1.1673 C   0  0  0  0  0  0  0  0  0  0  0  0
   -4.9451  -11.4152    4.2800 N   0  0  0  0  0  0  0  0  0  0  0  0
   -5.8685  -11.4846    5.2205 C   0  0  0  0  0  0  0  0  0  0  0  0
   -6.3804   -7.7321   -1.9582 C   0  0  0  0  0  0  0  0  0  0  0  0
   -7.3540   -8.1126   -3.0773 C   0  0  0  0  0  0  0  0  0  0  0  0
   -6.9123  -10.6019    5.2638 N   0  0  0  0  0  0  0  0  0  0  0  0
   -5.7790  -12.4538    6.1676 N   0  0  0  0  0  0  0  0  0  0  0  0
   -6.7276   -8.8112   -3.9943 N   0  0  0  0  0  0  0  0  0  0  0  0
   -6.8201   -8.5081   -5.2749 C   0  0  0  0  0  0  0  0  0  0  0  0
   -5.6919   -8.4688   -6.0293 N   0  0  0  0  0  0  0  0  0  0  0  0
   -8.0228   -8.2229   -5.8566 N   0  0  0  0  0  0  0  0  0  0  0  0
   -3.0638   -7.6324    2.2858 C   0  0  0  0  0  0  0  0  0  0  0  0
    0.4121   -5.2047    1.7615 O   0  0  0  0  0  0  0  0  0  0  0  0
   -2.2147   -7.8365    1.1601 C   0  0  0  0  0  0  0  0  0  0  0  0
   -1.0549   -7.0333    0.9928 C   0  0  0  0  0  0  0  0  0  0  0  0
   -0.7537   -6.0144    1.9344 C   0  0  0  0  0  0  0  0  0  0  0  0
   -1.6105   -5.7972    3.0469 C   0  0  0  0  0  0  0  0  0  0  0  0
   -2.7700   -6.6007    3.2201 C   0  0  0  0  0  0  0  0  0  0  0  0
    0.2746   -4.4133    0.5778 C   0  0  0  0  0  0  0  0  0  0  0  0
  1  4  1  0  0  0  0
  2  3  1  0  0  0  0
  3  5  1  0  0  0  0
  4  6  1  0  0  0  0
  5  8  1  0  0  0  0
  6  7  1  0  0  0  0
  7 10  1  0  0  0  0
  8  9  1  0  0  0  0
  9 12  1  0  0  0  0
  9 13  1  0  0  0  0
 10 11  1  0  0  0  0
 11 14  1  0  0  0  0
 14 15  1  0  0  0  0
 15 16  1  0  0  0  0
 15 17  1  0  0  0  0
 18  2  1  0  0  0  0
 18 20  2  0  0  0  0
 18 24  1  0  0  0  0
 19 25  1  0  0  0  0
 20  1  1  0  0  0  0
 20 21  1  0  0  0  0
 21 22  2  0  0  0  0
 22 19  1  0  0  0  0
 22 23  1  0  0  0  0
 23 24  2  0  0  0  0
M  END
>  <CHROM.1>
-80.35892407,-172.17628865,-157.93354610,-146.06623192,121.15794163,-76.15852478
175.43579853,-8.00577105,119.73815439,111.69176449,-69.59241951,-130.37544327
133.76094017,-138.93688493,20.31139082,88.24272803,78.03660481,65.43450250
-4.28548886,-8.44803364,0.62393408,-1.17165188,-0.64077912,-1.21522767

>  <Name>
1uud_lig

>  <RI>
0

>  <Rbt.Current_Directory>
/home/itssahil/PROJECTS/Mol_Feturizer/New_Systems/rnas/1uud

>  <Rbt.Executable>
rbdock ($Id: //depot/dev/client3/rdock/2013.1/src/exe/rbdock.cxx#4 $)

>  <Rbt.Library>
libRbt.so (2013.1, Build901 2013/11/27)

>  <Rbt.Parameter_File>
/export/apps/rDock/src/rDock_2013.1_src/data/scripts/dock_solv.prm

>  <Rbt.Receptor>
prm/pocket_docking_8.prm

>  <SCORE>
-30.1748

>  <SCORE.INTER>
-24.0284

>  <SCORE.INTER.CONST>
1

>  <SCORE.INTER.POLAR>
-4.53715

>  <SCORE.INTER.ROT>
18

>  <SCORE.INTER.SOLV>
10.379

>  <SCORE.INTER.VDW>
-19.9548

>  <SCORE.INTER.norm>
-0.961135

>  <SCORE.INTRA>
-6.14643

>  <SCORE.INTRA.DIHEDRAL>
-5.18919

>  <SCORE.INTRA.DIHEDRAL.0>
30.6762

>  <SCORE.INTRA.POLAR>
0.0288659

>  <SCORE.INTRA.POLAR.0>
-0.0288659

>  <SCORE.INTRA.REPUL>
0

>  <SCORE.INTRA.REPUL.0>
0

>  <SCORE.INTRA.SOLV>
-1.04852

>  <SCORE.INTRA.SOLV.lig_0>
-25.2195

>  <SCORE.INTRA.VDW>
-3.12572

>  <SCORE.INTRA.VDW.0>
4.14263

>  <SCORE.INTRA.norm>
-0.245857

>  <SCORE.RESTR>
0

>  <SCORE.RESTR.CAVITY>
0

>  <SCORE.RESTR.norm>
0

>  <SCORE.SYSTEM>
0

>  <SCORE.SYSTEM.CONST>
0

>  <SCORE.SYSTEM.DIHEDRAL>
0

>  <SCORE.SYSTEM.SOLV>
0

>  <SCORE.SYSTEM.norm>
0

>  <SCORE.heavy>
25

>  <SCORE.norm>
-1.20699

>  <RMSD>
8.873

$$$$
1uud_lig
 OpenBabel11021811413D
libRbt.so/2013.1/901 2013/11/27
 25 25  0  0  0  0  0  0  0  0999 V2000
   -0.2171   -8.9444   -3.4469 C   0  0  0  0  0  0  0  0  0  0  0  0
    1.5871   -6.9317   -2.3085 O   0  0  0  0  0  0  0  0  0  0  0  0
    0.5334   -5.9704   -2.4691 C   0  0  0  0  0  0  0  0  0  0  0  0
   -1.6808   -9.1831   -3.5005 N   0  0  0  0  0  0  0  0  0  0  0  0
    0.5437   -4.9736   -1.3024 C   0  0  0  0  0  0  0  0  0  0  0  0
   -2.0831   -9.5262   -4.8852 C   0  0  0  0  0  0  0  0  0  0  0  0
   -3.5872   -9.8222   -4.9237 C   0  0  0  0  0  0  0  0  0  0  0  0
   -0.0591   -5.4975   -0.2617 N   0  0  0  0  0  0  0  0  0  0  0  0
    0.0963   -4.9975    0.9498 C   0  0  0  0  0  0  0  0  0  0  0  0
   -4.3691   -8.5214   -5.1366 C   0  0  0  0  0  0  0  0  0  0  0  0
   -5.5394   -8.4607   -4.1506 C   0  0  0  0  0  0  0  0  0  0  0  0
    0.7180   -5.7059    1.9410 N   0  0  0  0  0  0  0  0  0  0  0  0
   -0.3730   -3.7518    1.2185 N   0  0  0  0  0  0  0  0  0  0  0  0
   -6.4820   -9.2923   -4.5265 N   0  0  0  0  0  0  0  0  0  0  0  0
   -7.6919   -8.8679   -4.8373 C   0  0  0  0  0  0  0  0  0  0  0  0
   -8.7600   -9.3544   -4.1547 N   0  0  0  0  0  0  0  0  0  0  0  0
   -7.8955   -7.9588   -5.8364 N   0  0  0  0  0  0  0  0  0  0  0  0
    1.1475   -8.0089   -1.4713 C   0  0  0  0  0  0  0  0  0  0  0  0
   -0.1857  -11.1862    1.0542 O   0  0  0  0  0  0  0  0  0  0  0  0
    0.2667   -9.0049   -1.9832 C   0  0  0  0  0  0  0  0  0  0  0  0
   -0.1817  -10.0556   -1.1386 C   0  0  0  0  0  0  0  0  0  0  0  0
    0.2640  -10.1253    0.2075 C   0  0  0  0  0  0  0  0  0  0  0  0
    1.1578   -9.1434    0.7133 C   0  0  0  0  0  0  0  0  0  0  0  0
    1.6062   -8.0885   -0.1270 C   0  0  0  0  0  0  0  0  0  0  0  0
   -1.4195  -10.8136    1.6750 C   0  0  0  0  0  0  0  0  0  0  0  0
  1  4  1  0  0  0  0
  2  3  1  0  0  0  0
  3  5  1  0  0  0  0
  4  6  1  0  0  0  0
  5  8  1  0  0  0  0
  6  7  1  0  0  0  0
  7 10  1  0  0  0  0
  8  9  1  0  0  0  0
  9 12  1  0  0  0  0
  9 13  1  0  0  0  0
 10 11  1  0  0  0  0
 11 14  1  0  0  0  0
 14 15  1  0  0  0  0
 15 16  1  0  0  0  0
 15 17  1  0  0  0  0
 18  2  1  0  0  0  0
 18 20  2  0  0  0  0
 18 24  1  0  0  0  0
 19 25  1  0  0  0  0
 20  1  1  0  0  0  0
 20 21  1  0  0  0  0
 21 22  2  0  0  0  0
 22 19  1  0  0  0  0
 22 23  1  0  0  0  0
 23 24  2  0  0  0  0
M  END
>  <CHROM.1>
-163.24093827,85.29477910,-81.10651064,177.92027973,163.05172547,87.28501926
-133.67406194,-114.35281984,116.36754515,31.84543017,-73.95397035,-118.64310289
-121.90655834,-2.89715726,-96.71224931,75.75375289,-134.05213128,-87.24554959
-1.79226324,-8.14008908,-1.95461290,-0.21832619,0.60750902,-3.12570550

>  <Name>
1uud_lig

>  <RI>
0

>  <Rbt.Current_Directory>
/home/itssahil/PROJECTS/Mol_Feturizer/New_Systems/rnas/1uud

>  <Rbt.Executable>
rbdock ($Id: //depot/dev/client3/rdock/2013.1/src/exe/rbdock.cxx#4 $)

>  <Rbt.Library>
libRbt.so (2013.1, Build901 2013/11/27)

>  <Rbt.Parameter_File>
/export/apps/rDock/src/rDock_2013.1_src/data/scripts/dock_solv.prm

>  <Rbt.Receptor>
prm/pocket_docking_7.prm

>  <SCORE>
-24.6135

>  <SCORE.INTER>
-19.5917

>  <SCORE.INTER.CONST>
1

>  <SCORE.INTER.POLAR>
-3.68775

>  <SCORE.INTER.ROT>
18

>  <SCORE.INTER.SOLV>
9.19745

>  <SCORE.INTER.VDW>
-19.4344

>  <SCORE.INTER.norm>
-0.783667

>  <SCORE.INTRA>
-5.02183

>  <SCORE.INTRA.DIHEDRAL>
2.24983

>  <SCORE.INTRA.DIHEDRAL.0>
30.6762

>  <SCORE.INTRA.POLAR>
0.0288659

>  <SCORE.INTRA.POLAR.0>
-0.0288659

>  <SCORE.INTRA.REPUL>
0

>  <SCORE.INTRA.REPUL.0>
0

>  <SCORE.INTRA.SOLV>
-0.0905009

>  <SCORE.INTRA.SOLV.lig_0>
-25.2195

>  <SCORE.INTRA.VDW>
-6.19964

>  <SCORE.INTRA.VDW.0>
4.14263

>  <SCORE.INTRA.norm>
-0.200873

>  <SCORE.RESTR>
0

>  <SCORE.RESTR.CAVITY>
0

>  <SCORE.RESTR.norm>
0

>  <SCORE.SYSTEM>
0

>  <SCORE.SYSTEM.CONST>
0

>  <SCORE.SYSTEM.DIHEDRAL>
0

>  <SCORE.SYSTEM.SOLV>
0

>  <SCORE.SYSTEM.norm>
0

>  <SCORE.heavy>
25

>  <SCORE.norm>
-0.98454

>  <RMSD>
8.898

$$$$
1uud_lig
 OpenBabel11021811413D
libRbt.so/2013.1/901 2013/11/27
 25 25  0  0  0  0  0  0  0  0999 V2000
   -3.4559   -7.8253    1.0833 C   0  0  0  0  0  0  0  0  0  0  0  0
   -3.1429   -5.8286    3.2088 O   0  0  0  0  0  0  0  0  0  0  0  0
   -4.2098   -4.9319    3.5521 C   0  0  0  0  0  0  0  0  0  0  0  0
   -4.4203   -8.5934    0.2575 N   0  0  0  0  0  0  0  0  0  0  0  0
   -3.9303   -3.5342    2.9834 C   0  0  0  0  0  0  0  0  0  0  0  0
   -4.7267   -7.8440   -0.9840 C   0  0  0  0  0  0  0  0  0  0  0  0
   -5.4181   -8.7749   -1.9875 C   0  0  0  0  0  0  0  0  0  0  0  0
   -2.7802   -3.0909    3.4325 N   0  0  0  0  0  0  0  0  0  0  0  0
   -1.6959   -3.0998    2.6800 C   0  0  0  0  0  0  0  0  0  0  0  0
   -4.3732   -9.6380   -2.7032 C   0  0  0  0  0  0  0  0  0  0  0  0
   -3.7092   -8.8206   -3.8151 C   0  0  0  0  0  0  0  0  0  0  0  0
   -1.2189   -1.9565    2.1003 N   0  0  0  0  0  0  0  0  0  0  0  0
   -1.0399   -4.2712    2.4758 N   0  0  0  0  0  0  0  0  0  0  0  0
   -4.1881   -9.1836   -4.9813 N   0  0  0  0  0  0  0  0  0  0  0  0
   -4.8392   -8.3349   -5.7535 C   0  0  0  0  0  0  0  0  0  0  0  0
   -4.1537   -7.3331   -6.3619 N   0  0  0  0  0  0  0  0  0  0  0  0
   -6.1879   -8.4346   -5.9468 N   0  0  0  0  0  0  0  0  0  0  0  0
   -3.4901   -7.1701    3.5753 C   0  0  0  0  0  0  0  0  0  0  0  0
   -4.5687  -11.1516    4.6864 O   0  0  0  0  0  0  0  0  0  0  0  0
   -3.6570   -8.1696    2.5736 C   0  0  0  0  0  0  0  0  0  0  0  0
   -4.0240   -9.4907    2.9454 C   0  0  0  0  0  0  0  0  0  0  0  0
   -4.2034   -9.8202    4.3146 C   0  0  0  0  0  0  0  0  0  0  0  0
   -4.0181   -8.8289    5.3157 C   0  0  0  0  0  0  0  0  0  0  0  0
   -3.6544   -7.5051    4.9480 C   0  0  0  0  0  0  0  0  0  0  0  0
   -5.9560  -11.1886    5.0338 C   0  0  0  0  0  0  0  0  0  0  0  0
  1  4  1  0  0  0  0
  2  3  1  0  0  0  0
  3  5  1  0  0  0  0
  4  6  1  0  0  0  0
  5  8  1  0  0  0  0
  6  7  1  0  0  0  0
  7 10  1  0  0  0  0
  8  9  1  0  0  0  0
  9 12  1  0  0  0  0
  9 13  1  0  0  0  0
 10 11  1  0  0  0  0
 11 14  1  0  0  0  0
 14 15  1  0  0  0  0
 15 16  1  0  0  0  0
 15 17  1  0  0  0  0
 18  2  1  0  0  0  0
 18 20  2  0  0  0  0
 18 24  1  0  0  0  0
 19 25  1  0  0  0  0
 20  1  1  0  0  0  0
 20 21  1  0  0  0  0
 21 22  2  0  0  0  0
 22 19  1  0  0  0  0
 22 23  1  0  0  0  0
 23 24  2  0  0  0  0
M  END
>  <CHROM.1>
151.82777775,-171.93406394,-57.34270065,165.40806510,102.73966342,-80.37340684
-79.73272706,103.51939410,-84.60187856,-171.43218059,-103.61053414,118.03187680
70.78945750,-12.45397078,-171.23283019,115.25298271,-144.35939426,-103.85744734
-3.87724416,-7.35814999,0.81378402,1.12302814,1.19665828,1.73959035

>  <Name>
1uud_lig

>  <RI>
0

>  <Rbt.Current_Directory>
/home/itssahil/PROJECTS/Mol_Feturizer/New_Systems/rnas/1uud

>  <Rbt.Executable>
rbdock ($Id: //depot/dev/client3/rdock/2013.1/src/exe/rbdock.cxx#4 $)

>  <Rbt.Library>
libRbt.so (2013.1, Build901 2013/11/27)

>  <Rbt.Parameter_File>
/export/apps/rDock/src/rDock_2013.1_src/data/scripts/dock_solv.prm

>  <Rbt.Receptor>
prm/pocket_docking_8.prm

>  <SCORE>
-19.1998

>  <SCORE.INTER>
-9.96984

>  <SCORE.INTER.CONST>
1

>  <SCORE.INTER.POLAR>
-2.59032

>  <SCORE.INTER.ROT>
18

>  <SCORE.INTER.SOLV>
8.87772

>  <SCORE.INTER.VDW>
-16.5714

>  <SCORE.INTER.norm>
-0.398794

>  <SCORE.INTRA>
-9.23

>  <SCORE.INTRA.DIHEDRAL>
-1.91009

>  <SCORE.INTRA.DIHEDRAL.0>
30.6762

>  <SCORE.INTRA.POLAR>
-0.756063

>  <SCORE.INTRA.POLAR.0>
-0.0288659

>  <SCORE.INTRA.REPUL>
0

>  <SCORE.INTRA.REPUL.0>
0

>  <SCORE.INTRA.SOLV>
-0.295272

>  <SCORE.INTRA.SOLV.lig_0>
-25.2195

>  <SCORE.INTRA.VDW>
-5.5567

>  <SCORE.INTRA.VDW.0>
4.14263

>  <SCORE.INTRA.norm>
-0.3692

>  <SCORE.RESTR>
0

>  <SCORE.RESTR.CAVITY>
0

>  <SCORE.RESTR.norm>
0

>  <SCORE.SYSTEM>
0

>  <SCORE.SYSTEM.CONST>
0

>  <SCORE.SYSTEM.DIHEDRAL>
0

>  <SCORE.SYSTEM.SOLV>
0

>  <SCORE.SYSTEM.norm>
0

>  <SCORE.heavy>
25

>  <SCORE.norm>
-0.767994

>  <RMSD>
9.493

$$$$
1uud_lig
 OpenBabel11021811413D
libRbt.so/2013.1/901 2013/11/27
 25 25  0  0  0  0  0  0  0  0999 V2000
   -1.8198   -5.9290   -1.8120 C   0  0  0  0  0  0  0  0  0  0  0  0
   -1.5400   -7.0311    0.8916 O   0  0  0  0  0  0  0  0  0  0  0  0
   -1.5625   -6.0698    1.9572 C   0  0  0  0  0  0  0  0  0  0  0  0
   -2.7489   -7.0846   -1.7532 N   0  0  0  0  0  0  0  0  0  0  0  0
   -2.8040   -6.2809    2.8345 C   0  0  0  0  0  0  0  0  0  0  0  0
   -4.0985   -6.6671   -2.2014 C   0  0  0  0  0  0  0  0  0  0  0  0
   -4.0862   -6.4342   -3.7171 C   0  0  0  0  0  0  0  0  0  0  0  0
   -2.8438   -5.3711    3.7787 N   0  0  0  0  0  0  0  0  0  0  0  0
   -3.7035   -4.3706    3.7370 C   0  0  0  0  0  0  0  0  0  0  0  0
   -5.5131   -6.1844   -4.2176 C   0  0  0  0  0  0  0  0  0  0  0  0
   -6.2515   -7.5199   -4.3455 C   0  0  0  0  0  0  0  0  0  0  0  0
   -5.0335   -4.5599    3.9935 N   0  0  0  0  0  0  0  0  0  0  0  0
   -3.2573   -3.1249    3.4311 N   0  0  0  0  0  0  0  0  0  0  0  0
   -7.5373   -7.3055   -4.4939 N   0  0  0  0  0  0  0  0  0  0  0  0
   -8.4213   -7.8053   -3.6518 C   0  0  0  0  0  0  0  0  0  0  0  0
   -8.8615   -9.0772   -3.8314 N   0  0  0  0  0  0  0  0  0  0  0  0
   -8.9112   -7.0699   -2.6101 N   0  0  0  0  0  0  0  0  0  0  0  0
   -0.3596   -6.8580    0.0972 C   0  0  0  0  0  0  0  0  0  0  0  0
    3.1664   -6.3920   -2.2694 O   0  0  0  0  0  0  0  0  0  0  0  0
   -0.4516   -6.3308   -1.2232 C   0  0  0  0  0  0  0  0  0  0  0  0
    0.7217   -6.1849   -2.0110 C   0  0  0  0  0  0  0  0  0  0  0  0
    1.9867   -6.5437   -1.4758 C   0  0  0  0  0  0  0  0  0  0  0  0
    2.0817   -7.0513   -0.1521 C   0  0  0  0  0  0  0  0  0  0  0  0
    0.9102   -7.2024    0.6383 C   0  0  0  0  0  0  0  0  0  0  0  0
    3.8014   -5.1501   -1.9513 C   0  0  0  0  0  0  0  0  0  0  0  0
  1  4  1  0  0  0  0
  2  3  1  0  0  0  0
  3  5  1  0  0  0  0
  4  6  1  0  0  0  0
  5  8  1  0  0  0  0
  6  7  1  0  0  0  0
  7 10  1  0  0  0  0
  8  9  1  0  0  0  0
  9 12  1  0  0  0  0
  9 13  1  0  0  0  0
 10 11  1  0  0  0  0
 11 14  1  0  0  0  0
 14 15  1  0  0  0  0
 15 16  1  0  0  0  0
 15 17  1  0  0  0  0
 18  2  1  0  0  0  0
 18 20  2  0  0  0  0
 18 24  1  0  0  0  0
 19 25  1  0  0  0  0
 20  1  1  0  0  0  0
 20 21  1  0  0  0  0
 21 22  2  0  0  0  0
 22 19  1  0  0  0  0
 22 23  1  0  0  0  0
 23 24  2  0  0  0  0
M  END
>  <CHROM.1>
174.80189258,-178.27964439,-177.82429416,71.88021053,106.41861496,172.52360228
-79.11560413,73.63918413,-70.34563145,-2.65813019,166.64856464,-121.81590688
-84.20074366,-108.06634483,-7.42443183,-109.13476504,-55.83095743,96.51860106
-2.79680177,-6.37361468,-0.79897012,-0.43339393,-0.03771690,-1.87753049

>  <Name>
1uud_lig

>  <RI>
0

>  <Rbt.Current_Directory>
/home/itssahil/PROJECTS/Mol_Feturizer/New_Systems/rnas/1uud

>  <Rbt.Executable>
rbdock ($Id: //depot/dev/client3/rdock/2013.1/src/exe/rbdock.cxx#4 $)

>  <Rbt.Library>
libRbt.so (2013.1, Build901 2013/11/27)

>  <Rbt.Parameter_File>
/export/apps/rDock/src/rDock_2013.1_src/data/scripts/dock_solv.prm

>  <Rbt.Receptor>
prm/pocket_docking_8.prm

>  <SCORE>
-25.6857

>  <SCORE.INTER>
-13.5935

>  <SCORE.INTER.CONST>
1

>  <SCORE.INTER.POLAR>
-3.46723

>  <SCORE.INTER.ROT>
18

>  <SCORE.INTER.SOLV>
5.87974

>  <SCORE.INTER.VDW>
-15.0648

>  <SCORE.INTER.norm>
-0.543739

>  <SCORE.INTRA>
-12.0922

>  <SCORE.INTRA.DIHEDRAL>
-8.6432

>  <SCORE.INTRA.DIHEDRAL.0>
30.6762

>  <SCORE.INTRA.POLAR>
-0.571129

>  <SCORE.INTRA.POLAR.0>
-0.0288659

>  <SCORE.INTRA.REPUL>
0

>  <SCORE.INTRA.REPUL.0>
0

>  <SCORE.INTRA.SOLV>
-1.14335

>  <SCORE.INTRA.SOLV.lig_0>
-25.2195

>  <SCORE.INTRA.VDW>
-5.25708

>  <SCORE.INTRA.VDW.0>
4.14263

>  <SCORE.INTRA.norm>
-0.483688

>  <SCORE.RESTR>
0

>  <SCORE.RESTR.CAVITY>
0

>  <SCORE.RESTR.norm>
0

>  <SCORE.SYSTEM>
0

>  <SCORE.SYSTEM.CONST>
0

>  <SCORE.SYSTEM.DIHEDRAL>
0

>  <SCORE.SYSTEM.SOLV>
0

>  <SCORE.SYSTEM.norm>
0

>  <SCORE.heavy>
25

>  <SCORE.norm>
-1.02743

>  <RMSD>
9.575

$$$$
1uud_lig
 OpenBabel11021811413D
libRbt.so/2013.1/901 2013/11/27
 25 25  0  0  0  0  0  0  0  0999 V2000
   -7.7429   -5.2705   -3.6603 C   0  0  0  0  0  0  0  0  0  0  0  0
   -9.5501   -3.2018   -4.6885 O   0  0  0  0  0  0  0  0  0  0  0  0
   -9.6636   -2.2029   -3.6640 C   0  0  0  0  0  0  0  0  0  0  0  0
   -7.5266   -6.6404   -4.1882 N   0  0  0  0  0  0  0  0  0  0  0  0
  -11.1251   -2.0682   -3.2156 C   0  0  0  0  0  0  0  0  0  0  0  0
   -8.4880   -7.5779   -3.5607 C   0  0  0  0  0  0  0  0  0  0  0  0
   -7.9462   -9.0092   -3.6576 C   0  0  0  0  0  0  0  0  0  0  0  0
  -11.2469   -1.0586   -2.3870 N   0  0  0  0  0  0  0  0  0  0  0  0
  -11.9651    0.0048   -2.6960 C   0  0  0  0  0  0  0  0  0  0  0  0
   -7.3417   -9.2448   -5.0461 C   0  0  0  0  0  0  0  0  0  0  0  0
   -5.9169   -9.7864   -4.8986 C   0  0  0  0  0  0  0  0  0  0  0  0
  -13.3201    0.0305   -2.5112 N   0  0  0  0  0  0  0  0  0  0  0  0
  -11.3446    1.0977   -3.2104 N   0  0  0  0  0  0  0  0  0  0  0  0
   -5.3103   -9.7666   -6.0618 N   0  0  0  0  0  0  0  0  0  0  0  0
   -4.6827  -10.8283   -6.5301 C   0  0  0  0  0  0  0  0  0  0  0  0
   -4.7201  -11.0854   -7.8628 N   0  0  0  0  0  0  0  0  0  0  0  0
   -4.0051  -11.6800   -5.7045 N   0  0  0  0  0  0  0  0  0  0  0  0
   -8.2066   -3.2463   -5.1861 C   0  0  0  0  0  0  0  0  0  0  0  0
   -4.1940   -3.3330   -6.6498 O   0  0  0  0  0  0  0  0  0  0  0  0
   -7.2948   -4.2318   -4.7093 C   0  0  0  0  0  0  0  0  0  0  0  0
   -5.9586   -4.2529   -5.1916 C   0  0  0  0  0  0  0  0  0  0  0  0
   -5.5383   -3.3069   -6.1631 C   0  0  0  0  0  0  0  0  0  0  0  0
   -6.4524   -2.3360   -6.6536 C   0  0  0  0  0  0  0  0  0  0  0  0
   -7.7891   -2.3089   -6.1713 C   0  0  0  0  0  0  0  0  0  0  0  0
   -3.9963   -4.5031   -7.4487 C   0  0  0  0  0  0  0  0  0  0  0  0
  1  4  1  0  0  0  0
  2  3  1  0  0  0  0
  3  5  1  0  0  0  0
  4  6  1  0  0  0  0
  5  8  1  0  0  0  0
  6  7  1  0  0  0  0
  7 10  1  0  0  0  0
  8  9  1  0  0  0  0
  9 12  1  0  0  0  0
  9 13  1  0  0  0  0
 10 11  1  0  0  0  0
 11 14  1  0  0  0  0
 14 15  1  0  0  0  0
 15 16  1  0  0  0  0
 15 17  1  0  0  0  0
 18  2  1  0  0  0  0
 18 20  2  0  0  0  0
 18 24  1  0  0  0  0
 19 25  1  0  0  0  0
 20  1  1  0  0  0  0
 20 21  1  0  0  0  0
 21 22  2  0  0  0  0
 22 19  1  0  0  0  0
 22 23  1  0  0  0  0
 23 24  2  0  0  0  0
M  END
>  <CHROM.1>
-152.80551504,175.09291977,-173.21513623,-158.03364402,115.29629192,-42.26702645
127.46181515,83.57050996,-130.30932848,152.64200911,-168.84911070,-130.01292063
143.67857775,-83.93616153,-39.04556065,98.48422568,122.98632725,69.25681029
-7.66389369,-5.06918249,-4.86302076,2.25645022,0.59488067,-0.13983150

>  <Name>
1uud_lig

>  <RI>
0

>  <Rbt.Current_Directory>
/home/itssahil/PROJECTS/Mol_Feturizer/New_Systems/rnas/1uud

>  <Rbt.Executable>
rbdock ($Id: //depot/dev/client3/rdock/2013.1/src/exe/rbdock.cxx#4 $)

>  <Rbt.Library>
libRbt.so (2013.1, Build901 2013/11/27)

>  <Rbt.Parameter_File>
/export/apps/rDock/src/rDock_2013.1_src/data/scripts/dock_solv.prm

>  <Rbt.Receptor>
prm/pocket_docking_8.prm

>  <SCORE>
-15.1659

>  <SCORE.INTER>
-9.59643

>  <SCORE.INTER.CONST>
1

>  <SCORE.INTER.POLAR>
-2.70477

>  <SCORE.INTER.ROT>
18

>  <SCORE.INTER.SOLV>
6.23035

>  <SCORE.INTER.VDW>
-15.0585

>  <SCORE.INTER.norm>
-0.383857

>  <SCORE.INTRA>
-5.56944

>  <SCORE.INTRA.DIHEDRAL>
-1.08881

>  <SCORE.INTRA.DIHEDRAL.0>
30.6762

>  <SCORE.INTRA.POLAR>
0.0288659

>  <SCORE.INTRA.POLAR.0>
-0.0288659

>  <SCORE.INTRA.REPUL>
0

>  <SCORE.INTRA.REPUL.0>
0

>  <SCORE.INTRA.SOLV>
-1.37048

>  <SCORE.INTRA.SOLV.lig_0>
-25.2195

>  <SCORE.INTRA.VDW>
-4.43794

>  <SCORE.INTRA.VDW.0>
4.14263

>  <SCORE.INTRA.norm>
-0.222777

>  <SCORE.RESTR>
0

>  <SCORE.RESTR.CAVITY>
0

>  <SCORE.RESTR.norm>
0

>  <SCORE.SYSTEM>
0

>  <SCORE.SYSTEM.CONST>
0

>  <SCORE.SYSTEM.DIHEDRAL>
0

>  <SCORE.SYSTEM.SOLV>
0

>  <SCORE.SYSTEM.norm>
0

>  <SCORE.heavy>
25

>  <SCORE.norm>
-0.606634

>  <RMSD>
9.595

$$$$
1uud_lig
 OpenBabel11021811413D
libRbt.so/2013.1/901 2013/11/27
 25 25  0  0  0  0  0  0  0  0999 V2000
    0.5112  -10.6723   -5.1267 C   0  0  0  0  0  0  0  0  0  0  0  0
    2.2343   -8.7344   -3.7561 O   0  0  0  0  0  0  0  0  0  0  0  0
    2.9500   -7.5583   -4.1619 C   0  0  0  0  0  0  0  0  0  0  0  0
    0.1568  -10.4003   -6.5418 N   0  0  0  0  0  0  0  0  0  0  0  0
    2.5498   -6.3655   -3.2831 C   0  0  0  0  0  0  0  0  0  0  0  0
    0.1786  -11.6636   -7.3165 C   0  0  0  0  0  0  0  0  0  0  0  0
   -1.1477  -12.4082   -7.1209 C   0  0  0  0  0  0  0  0  0  0  0  0
    2.9448   -6.5676   -2.0487 N   0  0  0  0  0  0  0  0  0  0  0  0
    2.3310   -6.0017   -1.0264 C   0  0  0  0  0  0  0  0  0  0  0  0
   -2.2297  -11.7880   -8.0115 C   0  0  0  0  0  0  0  0  0  0  0  0
   -3.3938  -12.7716   -8.1627 C   0  0  0  0  0  0  0  0  0  0  0  0
    2.1536   -4.6472   -0.9600 N   0  0  0  0  0  0  0  0  0  0  0  0
    1.8664   -6.7823   -0.0169 N   0  0  0  0  0  0  0  0  0  0  0  0
   -3.0346  -13.7720   -8.9316 N   0  0  0  0  0  0  0  0  0  0  0  0
   -3.3125  -15.0215   -8.6121 C   0  0  0  0  0  0  0  0  0  0  0  0
   -3.9249  -15.8181   -9.5254 N   0  0  0  0  0  0  0  0  0  0  0  0
   -3.0079  -15.5289   -7.3809 N   0  0  0  0  0  0  0  0  0  0  0  0
    2.8376   -9.9007   -4.3309 C   0  0  0  0  0  0  0  0  0  0  0  0
    4.6504  -13.3914   -5.9979 O   0  0  0  0  0  0  0  0  0  0  0  0
    2.0361  -10.8696   -5.0008 C   0  0  0  0  0  0  0  0  0  0  0  0
    2.6406  -12.0336   -5.5468 C   0  0  0  0  0  0  0  0  0  0  0  0
    4.0441  -12.2210   -5.4439 C   0  0  0  0  0  0  0  0  0  0  0  0
    4.8467  -11.2458   -4.7930 C   0  0  0  0  0  0  0  0  0  0  0  0
    4.2458  -10.0815   -4.2422 C   0  0  0  0  0  0  0  0  0  0  0  0
    4.5812  -13.3369   -7.4257 C   0  0  0  0  0  0  0  0  0  0  0  0
  1  4  1  0  0  0  0
  2  3  1  0  0  0  0
  3  5  1  0  0  0  0
  4  6  1  0  0  0  0
  5  8  1  0  0  0  0
  6  7  1  0  0  0  0
  7 10  1  0  0  0  0
  8  9  1  0  0  0  0
  9 12  1  0  0  0  0
  9 13  1  0  0  0  0
 10 11  1  0  0  0  0
 11 14  1  0  0  0  0
 14 15  1  0  0  0  0
 15 16  1  0  0  0  0
 15 17  1  0  0  0  0
 18  2  1  0  0  0  0
 18 20  2  0  0  0  0
 18 24  1  0  0  0  0
 19 25  1  0  0  0  0
 20  1  1  0  0  0  0
 20 21  1  0  0  0  0
 21 22  2  0  0  0  0
 22 19  1  0  0  0  0
 22 23  1  0  0  0  0
 23 24  2  0  0  0  0
M  END
>  <CHROM.1>
77.26570756,-165.46340676,65.94520603,82.39718881,-153.93494245,79.25029087
162.00775514,-54.77416882,65.20585103,68.21067817,-71.94902028,135.00452892
128.49124917,170.28617379,-103.89163336,-130.95410945,110.71884593,69.01069456
1.04560220,-10.78072638,-5.39297753,2.08595476,0.14767785,-2.51525369

>  <Name>
1uud_lig

>  <RI>
0

>  <Rbt.Current_Directory>
/home/itssahil/PROJECTS/Mol_Feturizer/New_Systems/rnas/1uud

>  <Rbt.Executable>
rbdock ($Id: //depot/dev/client3/rdock/2013.1/src/exe/rbdock.cxx#4 $)

>  <Rbt.Library>
libRbt.so (2013.1, Build901 2013/11/27)

>  <Rbt.Parameter_File>
/export/apps/rDock/src/rDock_2013.1_src/data/scripts/dock_solv.prm

>  <Rbt.Receptor>
prm/pocket_docking_8.prm

>  <SCORE>
-27.244

>  <SCORE.INTER>
-20.3562

>  <SCORE.INTER.CONST>
1

>  <SCORE.INTER.POLAR>
-3.43999

>  <SCORE.INTER.ROT>
18

>  <SCORE.INTER.SOLV>
8.5294

>  <SCORE.INTER.VDW>
-20.5473

>  <SCORE.INTER.norm>
-0.814248

>  <SCORE.INTRA>
-6.8878

>  <SCORE.INTRA.DIHEDRAL>
-7.48544

>  <SCORE.INTRA.DIHEDRAL.0>
30.6762

>  <SCORE.INTRA.POLAR>
0.0288659

>  <SCORE.INTRA.POLAR.0>
-0.0288659

>  <SCORE.INTRA.REPUL>
0

>  <SCORE.INTRA.REPUL.0>
0

>  <SCORE.INTRA.SOLV>
-0.902003

>  <SCORE.INTRA.SOLV.lig_0>
-25.2195

>  <SCORE.INTRA.VDW>
-2.79222

>  <SCORE.INTRA.VDW.0>
4.14263

>  <SCORE.INTRA.norm>
-0.275512

>  <SCORE.RESTR>
0

>  <SCORE.RESTR.CAVITY>
0

>  <SCORE.RESTR.norm>
0

>  <SCORE.SYSTEM>
0

>  <SCORE.SYSTEM.CONST>
0

>  <SCORE.SYSTEM.DIHEDRAL>
0

>  <SCORE.SYSTEM.SOLV>
0

>  <SCORE.SYSTEM.norm>
0

>  <SCORE.heavy>
25

>  <SCORE.norm>
-1.08976

>  <RMSD>
10.141

$$$$
1uud_lig
 OpenBabel11021811413D
libRbt.so/2013.1/901 2013/11/27
 25 25  0  0  0  0  0  0  0  0999 V2000
   -7.4660  -10.6744    6.8100 C   0  0  0  0  0  0  0  0  0  0  0  0
   -8.5582  -11.3019    9.4588 O   0  0  0  0  0  0  0  0  0  0  0  0
   -9.8890  -10.9325    9.0680 C   0  0  0  0  0  0  0  0  0  0  0  0
   -6.3910  -11.6652    6.5555 N   0  0  0  0  0  0  0  0  0  0  0  0
  -10.6567  -12.1654    8.5722 C   0  0  0  0  0  0  0  0  0  0  0  0
   -5.3355  -11.5372    7.5880 C   0  0  0  0  0  0  0  0  0  0  0  0
   -5.2676  -12.8270    8.4148 C   0  0  0  0  0  0  0  0  0  0  0  0
  -11.0515  -12.8867    9.5943 N   0  0  0  0  0  0  0  0  0  0  0  0
  -10.4413  -14.0098    9.9230 C   0  0  0  0  0  0  0  0  0  0  0  0
   -6.2205  -12.7299    9.6111 C   0  0  0  0  0  0  0  0  0  0  0  0
   -5.6407  -11.7659   10.6502 C   0  0  0  0  0  0  0  0  0  0  0  0
  -11.0684  -14.9738   10.6634 N   0  0  0  0  0  0  0  0  0  0  0  0
   -9.1610  -14.2121    9.5179 N   0  0  0  0  0  0  0  0  0  0  0  0
   -5.5725  -12.3588   11.8186 N   0  0  0  0  0  0  0  0  0  0  0  0
   -4.4151  -12.7012   12.3514 C   0  0  0  0  0  0  0  0  0  0  0  0
   -3.5042  -13.3593   11.5894 N   0  0  0  0  0  0  0  0  0  0  0  0
   -4.1164  -12.4182   13.6540 N   0  0  0  0  0  0  0  0  0  0  0  0
   -7.6774  -10.1785    9.3299 C   0  0  0  0  0  0  0  0  0  0  0  0
   -5.0194   -6.8527    8.9769 O   0  0  0  0  0  0  0  0  0  0  0  0
   -7.1207   -9.8421    8.0623 C   0  0  0  0  0  0  0  0  0  0  0  0
   -6.2304   -8.7407    7.9495 C   0  0  0  0  0  0  0  0  0  0  0  0
   -5.9125   -7.9632    9.0940 C   0  0  0  0  0  0  0  0  0  0  0  0
   -6.4826   -8.2861   10.3548 C   0  0  0  0  0  0  0  0  0  0  0  0
   -7.3709   -9.3892   10.4731 C   0  0  0  0  0  0  0  0  0  0  0  0
   -5.4499   -6.0019    7.9104 C   0  0  0  0  0  0  0  0  0  0  0  0
  1  4  1  0  0  0  0
  2  3  1  0  0  0  0
  3  5  1  0  0  0  0
  4  6  1  0  0  0  0
  5  8  1  0  0  0  0
  6  7  1  0  0  0  0
  7 10  1  0  0  0  0
  8  9  1  0  0  0  0
  9 12  1  0  0  0  0
  9 13  1  0  0  0  0
 10 11  1  0  0  0  0
 11 14  1  0  0  0  0
 14 15  1  0  0  0  0
 15 16  1  0  0  0  0
 15 17  1  0  0  0  0
 18  2  1  0  0  0  0
 18 20  2  0  0  0  0
 18 24  1  0  0  0  0
 19 25  1  0  0  0  0
 20  1  1  0  0  0  0
 20 21  1  0  0  0  0
 21 22  2  0  0  0  0
 22 19  1  0  0  0  0
 22 23  1  0  0  0  0
 23 24  2  0  0  0  0
M  END
>  <CHROM.1>
0.14004029,153.59375104,77.42970892,115.94163907,-103.99411933,-89.53412406
-72.90586269,-158.04927702,175.65899744,25.80554534,-125.97930835,109.32609231
-47.72164612,-158.16625206,56.78549179,-81.89991757,-97.57120650,51.35678681
-7.03889045,-11.26516205,9.54700712,0.80156655,-0.43145693,-0.56572288

>  <Name>
1uud_lig

>  <RI>
0

>  <Rbt.Current_Directory>
/home/itssahil/PROJECTS/Mol_Feturizer/New_Systems/rnas/1uud

>  <Rbt.Executable>
rbdock ($Id: //depot/dev/client3/rdock/2013.1/src/exe/rbdock.cxx#4 $)

>  <Rbt.Library>
libRbt.so (2013.1, Build901 2013/11/27)

>  <Rbt.Parameter_File>
/export/apps/rDock/src/rDock_2013.1_src/data/scripts/dock_solv.prm

>  <Rbt.Receptor>
prm/blind_docking_100.prm

>  <SCORE>
-0.107228

>  <SCORE.INTER>
-9.35714

>  <SCORE.INTER.CONST>
1

>  <SCORE.INTER.POLAR>
-2.26011

>  <SCORE.INTER.ROT>
18

>  <SCORE.INTER.SOLV>
7.99213

>  <SCORE.INTER.VDW>
-16.9684

>  <SCORE.INTER.norm>
-0.374286

>  <SCORE.INTRA>
6.1591

>  <SCORE.INTRA.DIHEDRAL>
7.2221

>  <SCORE.INTRA.DIHEDRAL.0>
30.6762

>  <SCORE.INTRA.POLAR>
-0.7881

>  <SCORE.INTRA.POLAR.0>
-0.0288659

>  <SCORE.INTRA.REPUL>
0

>  <SCORE.INTRA.REPUL.0>
0

>  <SCORE.INTRA.SOLV>
0.442559

>  <SCORE.INTRA.SOLV.lig_0>
-25.2195

>  <SCORE.INTRA.VDW>
5.00631

>  <SCORE.INTRA.VDW.0>
4.14263

>  <SCORE.INTRA.norm>
0.246364

>  <SCORE.RESTR>
3.09081

>  <SCORE.RESTR.CAVITY>
3.09081

>  <SCORE.RESTR.norm>
0.123633

>  <SCORE.SYSTEM>
0

>  <SCORE.SYSTEM.CONST>
0

>  <SCORE.SYSTEM.DIHEDRAL>
0

>  <SCORE.SYSTEM.SOLV>
0

>  <SCORE.SYSTEM.norm>
0

>  <SCORE.heavy>
25

>  <SCORE.norm>
-0.00428911

>  <RMSD>
13.656

$$$$
1uud_lig
 OpenBabel11021811413D
libRbt.so/2013.1/901 2013/11/27
 25 25  0  0  0  0  0  0  0  0999 V2000
   -5.6158  -12.6853    8.3273 C   0  0  0  0  0  0  0  0  0  0  0  0
   -6.3541   -9.9342    7.6282 O   0  0  0  0  0  0  0  0  0  0  0  0
   -6.4594   -8.7410    8.4191 C   0  0  0  0  0  0  0  0  0  0  0  0
   -5.1147  -12.7546    9.7223 N   0  0  0  0  0  0  0  0  0  0  0  0
   -5.4282   -7.7043    7.9533 C   0  0  0  0  0  0  0  0  0  0  0  0
   -5.8059  -11.7419   10.5550 C   0  0  0  0  0  0  0  0  0  0  0  0
   -4.7672  -10.8473   11.2422 C   0  0  0  0  0  0  0  0  0  0  0  0
   -5.8867   -6.4931    8.1618 N   0  0  0  0  0  0  0  0  0  0  0  0
   -7.1259   -6.1614    7.8512 C   0  0  0  0  0  0  0  0  0  0  0  0
   -5.4743   -9.7601   12.0587 C   0  0  0  0  0  0  0  0  0  0  0  0
   -4.6887   -8.4497   11.9546 C   0  0  0  0  0  0  0  0  0  0  0  0
   -7.8641   -5.3295    8.6472 N   0  0  0  0  0  0  0  0  0  0  0  0
   -7.6808   -6.6588    6.7158 N   0  0  0  0  0  0  0  0  0  0  0  0
   -3.5317   -8.5747   12.5604 N   0  0  0  0  0  0  0  0  0  0  0  0
   -2.8510   -7.5216   12.9706 C   0  0  0  0  0  0  0  0  0  0  0  0
   -3.3561   -6.2804   12.7520 N   0  0  0  0  0  0  0  0  0  0  0  0
   -1.6458   -7.6507   13.6006 N   0  0  0  0  0  0  0  0  0  0  0  0
   -7.3951  -10.8534    7.9827 C   0  0  0  0  0  0  0  0  0  0  0  0
  -10.5175  -13.5884    8.9931 O   0  0  0  0  0  0  0  0  0  0  0  0
   -7.0804  -12.2005    8.3239 C   0  0  0  0  0  0  0  0  0  0  0  0
   -8.1215  -13.1100    8.6512 C   0  0  0  0  0  0  0  0  0  0  0  0
   -9.4719  -12.6720    8.6593 C   0  0  0  0  0  0  0  0  0  0  0  0
   -9.7850  -11.3238    8.3382 C   0  0  0  0  0  0  0  0  0  0  0  0
   -8.7470  -10.4113    8.0066 C   0  0  0  0  0  0  0  0  0  0  0  0
  -10.2809  -14.1317   10.2952 C   0  0  0  0  0  0  0  0  0  0  0  0
  1  4  1  0  0  0  0
  2  3  1  0  0  0  0
  3  5  1  0  0  0  0
  4  6  1  0  0  0  0
  5  8  1  0  0  0  0
  6  7  1  0  0  0  0
  7 10  1  0  0  0  0
  8  9  1  0  0  0  0
  9 12  1  0  0  0  0
  9 13  1  0  0  0  0
 10 11  1  0  0  0  0
 11 14  1  0  0  0  0
 14 15  1  0  0  0  0
 15 16  1  0  0  0  0
 15 17  1  0  0  0  0
 18  2  1  0  0  0  0
 18 20  2  0  0  0  0
 18 24  1  0  0  0  0
 19 25  1  0  0  0  0
 20  1  1  0  0  0  0
 20 21  1  0  0  0  0
 21 22  2  0  0  0  0
 22 19  1  0  0  0  0
 22 23  1  0  0  0  0
 23 24  2  0  0  0  0
M  END
>  <CHROM.1>
-29.55179531,-174.79281043,149.86975781,-125.06872375,-44.90006939,177.63331818
-142.43740838,141.60038618,-44.46150235,-176.25074526,-67.31616671,-159.08722808
-0.46548760,-126.08216615,1.75999548,-127.78735710,102.29524443,57.67817695
-6.38618235,-9.75178947,9.65642556,-2.64567094,-0.74830062,-0.35870056

>  <Name>
1uud_lig

>  <RI>
0

>  <Rbt.Current_Directory>
/home/itssahil/PROJECTS/Mol_Feturizer/New_Systems/rnas/1uud

>  <Rbt.Executable>
rbdock ($Id: //depot/dev/client3/rdock/2013.1/src/exe/rbdock.cxx#4 $)

>  <Rbt.Library>
libRbt.so (2013.1, Build901 2013/11/27)

>  <Rbt.Parameter_File>
/export/apps/rDock/src/rDock_2013.1_src/data/scripts/dock_solv.prm

>  <Rbt.Receptor>
prm/blind_docking_60.prm

>  <SCORE>
-17.9722

>  <SCORE.INTER>
-26.3712

>  <SCORE.INTER.CONST>
1

>  <SCORE.INTER.POLAR>
-3.64308

>  <SCORE.INTER.ROT>
18

>  <SCORE.INTER.SOLV>
12.5195

>  <SCORE.INTER.VDW>
-25.2103

>  <SCORE.INTER.norm>
-1.05485

>  <SCORE.INTRA>
3.8746

>  <SCORE.INTRA.DIHEDRAL>
-1.17954

>  <SCORE.INTRA.DIHEDRAL.0>
30.6762

>  <SCORE.INTRA.POLAR>
0.0288659

>  <SCORE.INTRA.POLAR.0>
-0.0288659

>  <SCORE.INTRA.REPUL>
0

>  <SCORE.INTRA.REPUL.0>
0

>  <SCORE.INTRA.SOLV>
-0.594025

>  <SCORE.INTRA.SOLV.lig_0>
-25.2195

>  <SCORE.INTRA.VDW>
4.66323

>  <SCORE.INTRA.VDW.0>
4.14263

>  <SCORE.INTRA.norm>
0.154984

>  <SCORE.RESTR>
4.52441

>  <SCORE.RESTR.CAVITY>
4.52441

>  <SCORE.RESTR.norm>
0.180976

>  <SCORE.SYSTEM>
0

>  <SCORE.SYSTEM.CONST>
0

>  <SCORE.SYSTEM.DIHEDRAL>
0

>  <SCORE.SYSTEM.SOLV>
0

>  <SCORE.SYSTEM.norm>
0

>  <SCORE.heavy>
25

>  <SCORE.norm>
-0.718886

>  <RMSD>
13.822

$$$$
1uud_lig
 OpenBabel11021811413D
libRbt.so/2013.1/901 2013/11/27
 25 25  0  0  0  0  0  0  0  0999 V2000
   -8.0166  -12.3765    9.7325 C   0  0  0  0  0  0  0  0  0  0  0  0
   -7.0316  -10.2267    7.9974 O   0  0  0  0  0  0  0  0  0  0  0  0
   -6.8695   -9.2156    9.0033 C   0  0  0  0  0  0  0  0  0  0  0  0
   -6.9018  -13.0423    9.0141 N   0  0  0  0  0  0  0  0  0  0  0  0
   -5.6464   -8.3447    8.6862 C   0  0  0  0  0  0  0  0  0  0  0  0
   -5.6637  -12.2397    9.1544 C   0  0  0  0  0  0  0  0  0  0  0  0
   -5.2690  -12.1600   10.6341 C   0  0  0  0  0  0  0  0  0  0  0  0
   -4.7916   -8.3960    9.6799 N   0  0  0  0  0  0  0  0  0  0  0  0
   -4.9640   -7.6812   10.7760 C   0  0  0  0  0  0  0  0  0  0  0  0
   -4.1731  -11.1059   10.8251 C   0  0  0  0  0  0  0  0  0  0  0  0
   -3.9130  -10.9035   12.3207 C   0  0  0  0  0  0  0  0  0  0  0  0
   -6.1950   -7.5503   11.3576 N   0  0  0  0  0  0  0  0  0  0  0  0
   -3.8949   -7.0607   11.3382 N   0  0  0  0  0  0  0  0  0  0  0  0
   -3.2373   -9.7948   12.5092 N   0  0  0  0  0  0  0  0  0  0  0  0
   -3.5128   -8.9815   13.5107 C   0  0  0  0  0  0  0  0  0  0  0  0
   -2.4946   -8.3532   14.1528 N   0  0  0  0  0  0  0  0  0  0  0  0
   -4.7970   -8.7649   13.9230 N   0  0  0  0  0  0  0  0  0  0  0  0
   -8.4099  -10.6079    7.9001 C   0  0  0  0  0  0  0  0  0  0  0  0
  -12.5102  -11.7583    7.5620 O   0  0  0  0  0  0  0  0  0  0  0  0
   -8.9278  -11.6509    8.7209 C   0  0  0  0  0  0  0  0  0  0  0  0
  -10.2897  -12.0371    8.6003 C   0  0  0  0  0  0  0  0  0  0  0  0
  -11.1389  -11.3704    7.6785 C   0  0  0  0  0  0  0  0  0  0  0  0
  -10.6281  -10.3169    6.8733 C   0  0  0  0  0  0  0  0  0  0  0  0
   -9.2654   -9.9297    6.9881 C   0  0  0  0  0  0  0  0  0  0  0  0
  -13.3329  -10.8306    8.2757 C   0  0  0  0  0  0  0  0  0  0  0  0
  1  4  1  0  0  0  0
  2  3  1  0  0  0  0
  3  5  1  0  0  0  0
  4  6  1  0  0  0  0
  5  8  1  0  0  0  0
  6  7  1  0  0  0  0
  7 10  1  0  0  0  0
  8  9  1  0  0  0  0
  9 12  1  0  0  0  0
  9 13  1  0  0  0  0
 10 11  1  0  0  0  0
 11 14  1  0  0  0  0
 14 15  1  0  0  0  0
 15 16  1  0  0  0  0
 15 17  1  0  0  0  0
 18  2  1  0  0  0  0
 18 20  2  0  0  0  0
 18 24  1  0  0  0  0
 19 25  1  0  0  0  0
 20  1  1  0  0  0  0
 20 21  1  0  0  0  0
 21 22  2  0  0  0  0
 22 19  1  0  0  0  0
 22 23  1  0  0  0  0
 23 24  2  0  0  0  0
M  END
>  <CHROM.1>
102.15455533,-152.91056906,-121.37102596,62.43537488,-79.47196845,-168.31787524
172.74205896,41.86346635,-128.00535507,-8.20989507,-164.42766194,139.52060926
142.47361352,-140.77205909,-50.76660557,-88.54765053,-60.89322448,101.11517747
-6.79324826,-10.14709825,9.96404797,-2.83547100,-0.57290171,0.04540550

>  <Name>
1uud_lig

>  <RI>
0

>  <Rbt.Current_Directory>
/home/itssahil/PROJECTS/Mol_Feturizer/New_Systems/rnas/1uud

>  <Rbt.Executable>
rbdock ($Id: //depot/dev/client3/rdock/2013.1/src/exe/rbdock.cxx#4 $)

>  <Rbt.Library>
libRbt.so (2013.1, Build901 2013/11/27)

>  <Rbt.Parameter_File>
/export/apps/rDock/src/rDock_2013.1_src/data/scripts/dock_solv.prm

>  <Rbt.Receptor>
prm/blind_docking_20.prm

>  <SCORE>
-22.5584

>  <SCORE.INTER>
-20.6356

>  <SCORE.INTER.CONST>
1

>  <SCORE.INTER.POLAR>
-3.72393

>  <SCORE.INTER.ROT>
18

>  <SCORE.INTER.SOLV>
7.88262

>  <SCORE.INTER.VDW>
-19.5715

>  <SCORE.INTER.norm>
-0.825422

>  <SCORE.INTRA>
-2.55829

>  <SCORE.INTRA.DIHEDRAL>
2.04449

>  <SCORE.INTRA.DIHEDRAL.0>
30.6762

>  <SCORE.INTRA.POLAR>
-0.215121

>  <SCORE.INTRA.POLAR.0>
-0.0288659

>  <SCORE.INTRA.REPUL>
0

>  <SCORE.INTRA.REPUL.0>
0

>  <SCORE.INTRA.SOLV>
3.81952

>  <SCORE.INTRA.SOLV.lig_0>
-25.2195

>  <SCORE.INTRA.VDW>
-4.75889

>  <SCORE.INTRA.VDW.0>
4.14263

>  <SCORE.INTRA.norm>
-0.102332

>  <SCORE.RESTR>
0.635469

>  <SCORE.RESTR.CAVITY>
0.635469

>  <SCORE.RESTR.norm>
0.0254188

>  <SCORE.SYSTEM>
0

>  <SCORE.SYSTEM.CONST>
0

>  <SCORE.SYSTEM.DIHEDRAL>
0

>  <SCORE.SYSTEM.SOLV>
0

>  <SCORE.SYSTEM.norm>
0

>  <SCORE.heavy>
25

>  <SCORE.norm>
-0.902335

>  <RMSD>
13.945

$$$$
1uud_lig
 OpenBabel11021811413D
libRbt.so/2013.1/901 2013/11/27
 25 25  0  0  0  0  0  0  0  0999 V2000
   -8.7594  -11.2942    7.7327 C   0  0  0  0  0  0  0  0  0  0  0  0
  -11.0824  -11.7741    9.4578 O   0  0  0  0  0  0  0  0  0  0  0  0
  -12.0827  -12.7451    9.7997 C   0  0  0  0  0  0  0  0  0  0  0  0
   -8.5301  -10.6254    9.0374 N   0  0  0  0  0  0  0  0  0  0  0  0
  -11.9315  -13.9933    8.9197 C   0  0  0  0  0  0  0  0  0  0  0  0
   -7.0921  -10.6923    9.3901 C   0  0  0  0  0  0  0  0  0  0  0  0
   -6.7925   -9.6922   10.5133 C   0  0  0  0  0  0  0  0  0  0  0  0
  -10.6633  -14.3086    8.8057 N   0  0  0  0  0  0  0  0  0  0  0  0
   -9.9868  -14.8234    9.8153 C   0  0  0  0  0  0  0  0  0  0  0  0
   -5.3519   -9.8749   11.0033 C   0  0  0  0  0  0  0  0  0  0  0  0
   -5.3237   -9.8392   12.5340 C   0  0  0  0  0  0  0  0  0  0  0  0
   -9.0046  -14.1161   10.4521 N   0  0  0  0  0  0  0  0  0  0  0  0
  -10.2718  -16.0848   10.2301 N   0  0  0  0  0  0  0  0  0  0  0  0
   -6.0537   -8.8400   12.9698 N   0  0  0  0  0  0  0  0  0  0  0  0
   -5.5035   -7.7623   13.4955 C   0  0  0  0  0  0  0  0  0  0  0  0
   -5.1433   -6.7379   12.6805 N   0  0  0  0  0  0  0  0  0  0  0  0
   -5.2787   -7.6576   14.8389 N   0  0  0  0  0  0  0  0  0  0  0  0
  -11.3055  -11.2840    8.1295 C   0  0  0  0  0  0  0  0  0  0  0  0
  -11.9910   -9.7812    4.1897 O   0  0  0  0  0  0  0  0  0  0  0  0
  -10.2047  -11.0326    7.2607 C   0  0  0  0  0  0  0  0  0  0  0  0
  -10.4352  -10.5248    5.9540 C   0  0  0  0  0  0  0  0  0  0  0  0
  -11.7616  -10.2884    5.5067 C   0  0  0  0  0  0  0  0  0  0  0  0
  -12.8612  -10.5573    6.3656 C   0  0  0  0  0  0  0  0  0  0  0  0
  -12.6351  -11.0620    7.6749 C   0  0  0  0  0  0  0  0  0  0  0  0
  -13.0016  -10.5618    3.5448 C   0  0  0  0  0  0  0  0  0  0  0  0
  1  4  1  0  0  0  0
  2  3  1  0  0  0  0
  3  5  1  0  0  0  0
  4  6  1  0  0  0  0
  5  8  1  0  0  0  0
  6  7  1  0  0  0  0
  7 10  1  0  0  0  0
  8  9  1  0  0  0  0
  9 12  1  0  0  0  0
  9 13  1  0  0  0  0
 10 11  1  0  0  0  0
 11 14  1  0  0  0  0
 14 15  1  0  0  0  0
 15 16  1  0  0  0  0
 15 17  1  0  0  0  0
 18  2  1  0  0  0  0
 18 20  2  0  0  0  0
 18 24  1  0  0  0  0
 19 25  1  0  0  0  0
 20  1  1  0  0  0  0
 20 21  1  0  0  0  0
 21 22  2  0  0  0  0
 22 19  1  0  0  0  0
 22 23  1  0  0  0  0
 23 24  2  0  0  0  0
M  END
>  <CHROM.1>
-171.11998278,66.15046237,42.62225268,164.58641404,71.90718579,173.03939935
-135.97319685,-110.64932440,155.26155202,-54.60305892,-45.52881082,-107.98971096
87.90796839,88.94374327,128.65259032,-140.96626158,-51.19979389,131.78419079
-9.26218068,-11.03834159,9.28982819,-3.08380328,0.83941059,2.58721547

>  <Name>
1uud_lig

>  <RI>
0

>  <Rbt.Current_Directory>
/home/itssahil/PROJECTS/Mol_Feturizer/New_Systems/rnas/1uud

>  <Rbt.Executable>
rbdock ($Id: //depot/dev/client3/rdock/2013.1/src/exe/rbdock.cxx#4 $)

>  <Rbt.Library>
libRbt.so (2013.1, Build901 2013/11/27)

>  <Rbt.Parameter_File>
/export/apps/rDock/src/rDock_2013.1_src/data/scripts/dock_solv.prm

>  <Rbt.Receptor>
prm/blind_docking_40.prm

>  <SCORE>
-28.0061

>  <SCORE.INTER>
-21.8742

>  <SCORE.INTER.CONST>
1

>  <SCORE.INTER.POLAR>
-3.77193

>  <SCORE.INTER.ROT>
18

>  <SCORE.INTER.SOLV>
9.80856

>  <SCORE.INTER.VDW>
-20.8792

>  <SCORE.INTER.norm>
-0.874968

>  <SCORE.INTRA>
-6.52553

>  <SCORE.INTRA.DIHEDRAL>
-7.77644

>  <SCORE.INTRA.DIHEDRAL.0>
30.6762

>  <SCORE.INTRA.POLAR>
-0.432544

>  <SCORE.INTRA.POLAR.0>
-0.0288659

>  <SCORE.INTRA.REPUL>
0

>  <SCORE.INTRA.REPUL.0>
0

>  <SCORE.INTRA.SOLV>
0.891088

>  <SCORE.INTRA.SOLV.lig_0>
-25.2195

>  <SCORE.INTRA.VDW>
-1.6122

>  <SCORE.INTRA.VDW.0>
4.14263

>  <SCORE.INTRA.norm>
-0.261021

>  <SCORE.RESTR>
0.393581

>  <SCORE.RESTR.CAVITY>
0.393581

>  <SCORE.RESTR.norm>
0.0157432

>  <SCORE.SYSTEM>
0

>  <SCORE.SYSTEM.CONST>
0

>  <SCORE.SYSTEM.DIHEDRAL>
0

>  <SCORE.SYSTEM.SOLV>
0

>  <SCORE.SYSTEM.norm>
0

>  <SCORE.heavy>
25

>  <SCORE.norm>
-1.12025

>  <RMSD>
13.999

$$$$
1uud_lig
 OpenBabel11021811413D
libRbt.so/2013.1/901 2013/11/27
 25 25  0  0  0  0  0  0  0  0999 V2000
   -5.4096  -12.1079   11.2156 C   0  0  0  0  0  0  0  0  0  0  0  0
   -7.9491  -13.2314   10.2715 O   0  0  0  0  0  0  0  0  0  0  0  0
   -9.2691  -12.7767    9.9380 C   0  0  0  0  0  0  0  0  0  0  0  0
   -4.7562  -10.8052   11.4950 N   0  0  0  0  0  0  0  0  0  0  0  0
  -10.1085  -13.9408    9.3947 C   0  0  0  0  0  0  0  0  0  0  0  0
   -5.7071   -9.6996   11.2302 C   0  0  0  0  0  0  0  0  0  0  0  0
   -4.9578   -8.3618   11.2544 C   0  0  0  0  0  0  0  0  0  0  0  0
   -9.7618  -15.0575    9.9894 N   0  0  0  0  0  0  0  0  0  0  0  0
   -9.9342  -15.2309   11.2864 C   0  0  0  0  0  0  0  0  0  0  0  0
   -4.2482   -8.1375    9.9147 C   0  0  0  0  0  0  0  0  0  0  0  0
   -5.2906   -7.9702    8.8053 C   0  0  0  0  0  0  0  0  0  0  0  0
  -11.0923  -14.8559   11.9099 N   0  0  0  0  0  0  0  0  0  0  0  0
   -8.9382  -15.7932   12.0185 N   0  0  0  0  0  0  0  0  0  0  0  0
   -5.7728   -6.7502    8.8276 N   0  0  0  0  0  0  0  0  0  0  0  0
   -6.9838   -6.4958    9.2849 C   0  0  0  0  0  0  0  0  0  0  0  0
   -7.3445   -6.9714   10.5045 N   0  0  0  0  0  0  0  0  0  0  0  0
   -7.8861   -5.7743    8.5560 N   0  0  0  0  0  0  0  0  0  0  0  0
   -7.0060  -12.7598    9.3006 C   0  0  0  0  0  0  0  0  0  0  0  0
   -4.2285  -11.3194    6.3918 O   0  0  0  0  0  0  0  0  0  0  0  0
   -5.7627  -12.2020    9.7167 C   0  0  0  0  0  0  0  0  0  0  0  0
   -4.8447  -11.7161    8.7475 C   0  0  0  0  0  0  0  0  0  0  0  0
   -5.1561  -11.8055    7.3653 C   0  0  0  0  0  0  0  0  0  0  0  0
   -6.3873  -12.3794    6.9486 C   0  0  0  0  0  0  0  0  0  0  0  0
   -7.3103  -12.8636    7.9148 C   0  0  0  0  0  0  0  0  0  0  0  0
   -4.5543   -9.9684    6.0521 C   0  0  0  0  0  0  0  0  0  0  0  0
  1  4  1  0  0  0  0
  2  3  1  0  0  0  0
  3  5  1  0  0  0  0
  4  6  1  0  0  0  0
  5  8  1  0  0  0  0
  6  7  1  0  0  0  0
  7 10  1  0  0  0  0
  8  9  1  0  0  0  0
  9 12  1  0  0  0  0
  9 13  1  0  0  0  0
 10 11  1  0  0  0  0
 11 14  1  0  0  0  0
 14 15  1  0  0  0  0
 15 16  1  0  0  0  0
 15 17  1  0  0  0  0
 18  2  1  0  0  0  0
 18 20  2  0  0  0  0
 18 24  1  0  0  0  0
 19 25  1  0  0  0  0
 20  1  1  0  0  0  0
 20 21  1  0  0  0  0
 21 22  2  0  0  0  0
 22 19  1  0  0  0  0
 22 23  1  0  0  0  0
 23 24  2  0  0  0  0
M  END
>  <CHROM.1>
63.93346122,106.55555304,33.53872352,-169.08158234,63.71677934,80.56076552
65.86885841,43.89238424,33.44222373,-34.22272492,79.45145834,-105.72484136
51.07349589,-90.99253045,8.54879870,134.96611022,-138.94559283,-93.82174156
-6.85768304,-11.13028469,9.57251470,-2.27106341,0.75493828,0.27868106

>  <Name>
1uud_lig

>  <RI>
0

>  <Rbt.Current_Directory>
/home/itssahil/PROJECTS/Mol_Feturizer/New_Systems/rnas/1uud

>  <Rbt.Executable>
rbdock ($Id: //depot/dev/client3/rdock/2013.1/src/exe/rbdock.cxx#4 $)

>  <Rbt.Library>
libRbt.so (2013.1, Build901 2013/11/27)

>  <Rbt.Parameter_File>
/export/apps/rDock/src/rDock_2013.1_src/data/scripts/dock_solv.prm

>  <Rbt.Receptor>
prm/blind_docking_100.prm

>  <SCORE>
-21.0187

>  <SCORE.INTER>
-21.055

>  <SCORE.INTER.CONST>
1

>  <SCORE.INTER.POLAR>
-3.66514

>  <SCORE.INTER.ROT>
18

>  <SCORE.INTER.SOLV>
11.5537

>  <SCORE.INTER.VDW>
-21.2708

>  <SCORE.INTER.norm>
-0.8422

>  <SCORE.INTRA>
-2.92567

>  <SCORE.INTRA.DIHEDRAL>
-1.35407

>  <SCORE.INTRA.DIHEDRAL.0>
30.6762

>  <SCORE.INTRA.POLAR>
0.0288659

>  <SCORE.INTRA.POLAR.0>
-0.0288659

>  <SCORE.INTRA.REPUL>
0

>  <SCORE.INTRA.REPUL.0>
0

>  <SCORE.INTRA.SOLV>
0.57988

>  <SCORE.INTRA.SOLV.lig_0>
-25.2195

>  <SCORE.INTRA.VDW>
-2.63672

>  <SCORE.INTRA.VDW.0>
4.14263

>  <SCORE.INTRA.norm>
-0.117027

>  <SCORE.RESTR>
2.96198

>  <SCORE.RESTR.CAVITY>
2.96198

>  <SCORE.RESTR.norm>
0.118479

>  <SCORE.SYSTEM>
0

>  <SCORE.SYSTEM.CONST>
0

>  <SCORE.SYSTEM.DIHEDRAL>
0

>  <SCORE.SYSTEM.SOLV>
0

>  <SCORE.SYSTEM.norm>
0

>  <SCORE.heavy>
25

>  <SCORE.norm>
-0.840748

>  <RMSD>
14.216

$$$$
1uud_lig
 OpenBabel11021811413D
libRbt.so/2013.1/901 2013/11/27
 25 25  0  0  0  0  0  0  0  0999 V2000
   -6.7111   -9.8112    7.5538 C   0  0  0  0  0  0  0  0  0  0  0  0
   -5.4357  -12.4409    7.7999 O   0  0  0  0  0  0  0  0  0  0  0  0
   -4.7974  -12.8564    9.0166 C   0  0  0  0  0  0  0  0  0  0  0  0
   -6.7316   -8.8875    8.7150 N   0  0  0  0  0  0  0  0  0  0  0  0
   -5.0832  -11.8463   10.1360 C   0  0  0  0  0  0  0  0  0  0  0  0
   -5.5800   -7.9577    8.6374 C   0  0  0  0  0  0  0  0  0  0  0  0
   -4.8852   -7.8868   10.0026 C   0  0  0  0  0  0  0  0  0  0  0  0
   -6.0492  -12.2915   10.9037 N   0  0  0  0  0  0  0  0  0  0  0  0
   -5.8319  -13.2165   11.8198 C   0  0  0  0  0  0  0  0  0  0  0  0
   -5.9224   -7.6380   11.1030 C   0  0  0  0  0  0  0  0  0  0  0  0
   -5.5913   -8.5024   12.3231 C   0  0  0  0  0  0  0  0  0  0  0  0
   -6.7155  -14.2400   12.0257 N   0  0  0  0  0  0  0  0  0  0  0  0
   -4.7059  -13.1494   12.5760 N   0  0  0  0  0  0  0  0  0  0  0  0
   -4.4267   -8.1515   12.8147 N   0  0  0  0  0  0  0  0  0  0  0  0
   -4.3297   -7.4861   13.9498 C   0  0  0  0  0  0  0  0  0  0  0  0
   -5.4508   -6.9607   14.5073 N   0  0  0  0  0  0  0  0  0  0  0  0
   -3.1269   -7.3049   14.5715 N   0  0  0  0  0  0  0  0  0  0  0  0
   -6.8526  -12.3461    7.9948 C   0  0  0  0  0  0  0  0  0  0  0  0
  -11.0697  -12.0793    8.6233 O   0  0  0  0  0  0  0  0  0  0  0  0
   -7.5110  -11.0870    7.8895 C   0  0  0  0  0  0  0  0  0  0  0  0
   -8.9121  -10.9999    8.1073 C   0  0  0  0  0  0  0  0  0  0  0  0
   -9.6589  -12.1691    8.4085 C   0  0  0  0  0  0  0  0  0  0  0  0
   -9.0063  -13.4283    8.4946 C   0  0  0  0  0  0  0  0  0  0  0  0
   -7.6042  -13.5196    8.2809 C   0  0  0  0  0  0  0  0  0  0  0  0
  -11.4577  -12.9977    9.6492 C   0  0  0  0  0  0  0  0  0  0  0  0
  1  4  1  0  0  0  0
  2  3  1  0  0  0  0
  3  5  1  0  0  0  0
  4  6  1  0  0  0  0
  5  8  1  0  0  0  0
  6  7  1  0  0  0  0
  7 10  1  0  0  0  0
  8  9  1  0  0  0  0
  9 12  1  0  0  0  0
  9 13  1  0  0  0  0
 10 11  1  0  0  0  0
 11 14  1  0  0  0  0
 14 15  1  0  0  0  0
 15 16  1  0  0  0  0
 15 17  1  0  0  0  0
 18  2  1  0  0  0  0
 18 20  2  0  0  0  0
 18 24  1  0  0  0  0
 19 25  1  0  0  0  0
 20  1  1  0  0  0  0
 20 21  1  0  0  0  0
 21 22  2  0  0  0  0
 22 19  1  0  0  0  0
 22 23  1  0  0  0  0
 23 24  2  0  0  0  0
M  END
>  <CHROM.1>
157.57509063,-59.65967332,99.73700693,-133.09790525,78.21744762,-49.51992063
138.85921570,-138.53792603,-4.46841437,-138.37435605,63.05524960,107.36178011
-11.08636779,-102.63418802,24.24016301,115.61780455,-113.81104205,-143.50529859
-6.49867659,-10.73942965,10.32680341,2.62936316,0.90913573,2.93898378

>  <Name>
1uud_lig

>  <RI>
0

>  <Rbt.Current_Directory>
/home/itssahil/PROJECTS/Mol_Feturizer/New_Systems/rnas/1uud

>  <Rbt.Executable>
rbdock ($Id: //depot/dev/client3/rdock/2013.1/src/exe/rbdock.cxx#4 $)

>  <Rbt.Library>
libRbt.so (2013.1, Build901 2013/11/27)

>  <Rbt.Parameter_File>
/export/apps/rDock/src/rDock_2013.1_src/data/scripts/dock_solv.prm

>  <Rbt.Receptor>
prm/blind_docking_60.prm

>  <SCORE>
-19.5445

>  <SCORE.INTER>
-20.8362

>  <SCORE.INTER.CONST>
1

>  <SCORE.INTER.POLAR>
-3.01847

>  <SCORE.INTER.ROT>
18

>  <SCORE.INTER.SOLV>
8.86217

>  <SCORE.INTER.VDW>
-22.3833

>  <SCORE.INTER.norm>
-0.833449

>  <SCORE.INTRA>
-0.917884

>  <SCORE.INTRA.DIHEDRAL>
-1.0926

>  <SCORE.INTRA.DIHEDRAL.0>
30.6762

>  <SCORE.INTRA.POLAR>
0.0288659

>  <SCORE.INTRA.POLAR.0>
-0.0288659

>  <SCORE.INTRA.REPUL>
0

>  <SCORE.INTRA.REPUL.0>
0

>  <SCORE.INTRA.SOLV>
0.431499

>  <SCORE.INTRA.SOLV.lig_0>
-25.2195

>  <SCORE.INTRA.VDW>
-0.685476

>  <SCORE.INTRA.VDW.0>
4.14263

>  <SCORE.INTRA.norm>
-0.0367153

>  <SCORE.RESTR>
2.20961

>  <SCORE.RESTR.CAVITY>
2.20961

>  <SCORE.RESTR.norm>
0.0883842

>  <SCORE.SYSTEM>
0

>  <SCORE.SYSTEM.CONST>
0

>  <SCORE.SYSTEM.DIHEDRAL>
0

>  <SCORE.SYSTEM.SOLV>
0

>  <SCORE.SYSTEM.norm>
0

>  <SCORE.heavy>
25

>  <SCORE.norm>
-0.78178

>  <RMSD>
14.216

$$$$
1uud_lig
 OpenBabel11021811413D
libRbt.so/2013.1/901 2013/11/27
 25 25  0  0  0  0  0  0  0  0999 V2000
   -4.8937  -12.7858   10.1049 C   0  0  0  0  0  0  0  0  0  0  0  0
   -4.9910  -10.6474    8.0997 O   0  0  0  0  0  0  0  0  0  0  0  0
   -5.3246   -9.3974    7.4782 C   0  0  0  0  0  0  0  0  0  0  0  0
   -5.0405  -12.3249   11.5078 N   0  0  0  0  0  0  0  0  0  0  0  0
   -6.1291   -8.5218    8.4485 C   0  0  0  0  0  0  0  0  0  0  0  0
   -5.0347  -10.8435   11.5528 C   0  0  0  0  0  0  0  0  0  0  0  0
   -5.5405  -10.3700   12.9208 C   0  0  0  0  0  0  0  0  0  0  0  0
   -5.5265   -7.3684    8.6140 N   0  0  0  0  0  0  0  0  0  0  0  0
   -6.1505   -6.2262    8.3948 C   0  0  0  0  0  0  0  0  0  0  0  0
   -4.5911   -9.3095   13.4890 C   0  0  0  0  0  0  0  0  0  0  0  0
   -5.4071   -8.1550   14.0778 C   0  0  0  0  0  0  0  0  0  0  0  0
   -5.5903   -5.2413    7.6288 N   0  0  0  0  0  0  0  0  0  0  0  0
   -7.3761   -6.0240    8.9437 N   0  0  0  0  0  0  0  0  0  0  0  0
   -4.9511   -7.0111   13.6252 N   0  0  0  0  0  0  0  0  0  0  0  0
   -4.6773   -6.8356   12.3466 C   0  0  0  0  0  0  0  0  0  0  0  0
   -3.3962   -6.5863   11.9720 N   0  0  0  0  0  0  0  0  0  0  0  0
   -5.6537   -6.8886   11.3928 N   0  0  0  0  0  0  0  0  0  0  0  0
   -6.1811  -11.4059    8.3502 C   0  0  0  0  0  0  0  0  0  0  0  0
   -9.7275  -13.6831    9.0489 O   0  0  0  0  0  0  0  0  0  0  0  0
   -6.1757  -12.4568    9.3122 C   0  0  0  0  0  0  0  0  0  0  0  0
   -7.3542  -13.2180    9.5364 C   0  0  0  0  0  0  0  0  0  0  0  0
   -8.5416  -12.9182    8.8184 C   0  0  0  0  0  0  0  0  0  0  0  0
   -8.5534  -11.8576    7.8728 C   0  0  0  0  0  0  0  0  0  0  0  0
   -7.3758  -11.0958    7.6428 C   0  0  0  0  0  0  0  0  0  0  0  0
  -10.0986  -13.5882   10.4272 C   0  0  0  0  0  0  0  0  0  0  0  0
  1  4  1  0  0  0  0
  2  3  1  0  0  0  0
  3  5  1  0  0  0  0
  4  6  1  0  0  0  0
  5  8  1  0  0  0  0
  6  7  1  0  0  0  0
  7 10  1  0  0  0  0
  8  9  1  0  0  0  0
  9 12  1  0  0  0  0
  9 13  1  0  0  0  0
 10 11  1  0  0  0  0
 11 14  1  0  0  0  0
 14 15  1  0  0  0  0
 15 16  1  0  0  0  0
 15 17  1  0  0  0  0
 18  2  1  0  0  0  0
 18 20  2  0  0  0  0
 18 24  1  0  0  0  0
 19 25  1  0  0  0  0
 20  1  1  0  0  0  0
 20 21  1  0  0  0  0
 21 22  2  0  0  0  0
 22 19  1  0  0  0  0
 22 23  1  0  0  0  0
 23 24  2  0  0  0  0
M  END
>  <CHROM.1>
-69.61672167,65.72885506,123.48210955,165.54438357,124.89360177,131.87578703
136.02735299,-131.06191334,-67.68988080,-31.47060587,-130.62578651,45.68400094
-116.17143919,-63.07092305,-136.51665435,-160.09784683,107.04454310,58.75419943
-6.14442597,-9.70084972,10.09685376,-2.65644900,-1.08770800,-0.71650609

>  <Name>
1uud_lig

>  <RI>
0

>  <Rbt.Current_Directory>
/home/itssahil/PROJECTS/Mol_Feturizer/New_Systems/rnas/1uud

>  <Rbt.Executable>
rbdock ($Id: //depot/dev/client3/rdock/2013.1/src/exe/rbdock.cxx#4 $)

>  <Rbt.Library>
libRbt.so (2013.1, Build901 2013/11/27)

>  <Rbt.Parameter_File>
/export/apps/rDock/src/rDock_2013.1_src/data/scripts/dock_solv.prm

>  <Rbt.Receptor>
prm/blind_docking_60.prm

>  <SCORE>
-28.6356

>  <SCORE.INTER>
-35.1527

>  <SCORE.INTER.CONST>
1

>  <SCORE.INTER.POLAR>
-6.57955

>  <SCORE.INTER.ROT>
18

>  <SCORE.INTER.SOLV>
12.2976

>  <SCORE.INTER.VDW>
-21.2025

>  <SCORE.INTER.norm>
-1.40611

>  <SCORE.INTRA>
3.4769

>  <SCORE.INTRA.DIHEDRAL>
5.22517

>  <SCORE.INTRA.DIHEDRAL.0>
30.6762

>  <SCORE.INTRA.POLAR>
-0.620977

>  <SCORE.INTRA.POLAR.0>
-0.0288659

>  <SCORE.INTRA.REPUL>
0

>  <SCORE.INTRA.REPUL.0>
0

>  <SCORE.INTRA.SOLV>
1.74662

>  <SCORE.INTRA.SOLV.lig_0>
-25.2195

>  <SCORE.INTRA.VDW>
2.10233

>  <SCORE.INTRA.VDW.0>
4.14263

>  <SCORE.INTRA.norm>
0.139076

>  <SCORE.RESTR>
3.04023

>  <SCORE.RESTR.CAVITY>
3.04023

>  <SCORE.RESTR.norm>
0.121609

>  <SCORE.SYSTEM>
0

>  <SCORE.SYSTEM.CONST>
0

>  <SCORE.SYSTEM.DIHEDRAL>
0

>  <SCORE.SYSTEM.SOLV>
0

>  <SCORE.SYSTEM.norm>
0

>  <SCORE.heavy>
25

>  <SCORE.norm>
-1.14542

>  <RMSD>
14.260

$$$$
1uud_lig
 OpenBabel11021811413D
libRbt.so/2013.1/901 2013/11/27
 25 25  0  0  0  0  0  0  0  0999 V2000
   -8.0594  -10.5021    9.3956 C   0  0  0  0  0  0  0  0  0  0  0  0
   -8.1127  -13.4189    9.6986 O   0  0  0  0  0  0  0  0  0  0  0  0
   -8.0615  -13.5939   11.1224 C   0  0  0  0  0  0  0  0  0  0  0  0
   -6.9759  -11.0159    8.5215 N   0  0  0  0  0  0  0  0  0  0  0  0
   -6.6185  -13.8604   11.5715 C   0  0  0  0  0  0  0  0  0  0  0  0
   -5.7347  -10.2392    8.7512 C   0  0  0  0  0  0  0  0  0  0  0  0
   -5.9628   -8.7771    8.3489 C   0  0  0  0  0  0  0  0  0  0  0  0
   -5.8294  -12.9122   11.1256 N   0  0  0  0  0  0  0  0  0  0  0  0
   -4.5232  -13.0830   11.0440 C   0  0  0  0  0  0  0  0  0  0  0  0
   -4.7536   -7.9292    8.7581 C   0  0  0  0  0  0  0  0  0  0  0  0
   -4.6865   -7.8370   10.2853 C   0  0  0  0  0  0  0  0  0  0  0  0
   -3.7026  -12.8398   12.1108 N   0  0  0  0  0  0  0  0  0  0  0  0
   -3.9817  -13.5086    9.8736 N   0  0  0  0  0  0  0  0  0  0  0  0
   -5.8741   -7.5565   10.7671 N   0  0  0  0  0  0  0  0  0  0  0  0
   -6.3171   -8.1149   11.8773 C   0  0  0  0  0  0  0  0  0  0  0  0
   -7.6128   -7.9317   12.2394 N   0  0  0  0  0  0  0  0  0  0  0  0
   -5.5001   -8.8641   12.6757 N   0  0  0  0  0  0  0  0  0  0  0  0
   -9.3233  -12.7468    9.3284 C   0  0  0  0  0  0  0  0  0  0  0  0
  -12.9531  -10.7592    8.2676 O   0  0  0  0  0  0  0  0  0  0  0  0
   -9.3423  -11.3303    9.1756 C   0  0  0  0  0  0  0  0  0  0  0  0
  -10.5528  -10.6712    8.8311 C   0  0  0  0  0  0  0  0  0  0  0  0
  -11.7370  -11.4247    8.6183 C   0  0  0  0  0  0  0  0  0  0  0  0
  -11.7145  -12.8392    8.7513 C   0  0  0  0  0  0  0  0  0  0  0  0
  -10.5066  -13.5024    9.0993 C   0  0  0  0  0  0  0  0  0  0  0  0
  -13.5769  -10.2472    9.4488 C   0  0  0  0  0  0  0  0  0  0  0  0
  1  4  1  0  0  0  0
  2  3  1  0  0  0  0
  3  5  1  0  0  0  0
  4  6  1  0  0  0  0
  5  8  1  0  0  0  0
  6  7  1  0  0  0  0
  7 10  1  0  0  0  0
  8  9  1  0  0  0  0
  9 12  1  0  0  0  0
  9 13  1  0  0  0  0
 10 11  1  0  0  0  0
 11 14  1  0  0  0  0
 14 15  1  0  0  0  0
 15 16  1  0  0  0  0
 15 17  1  0  0  0  0
 18  2  1  0  0  0  0
 18 20  2  0  0  0  0
 18 24  1  0  0  0  0
 19 25  1  0  0  0  0
 20  1  1  0  0  0  0
 20 21  1  0  0  0  0
 21 22  2  0  0  0  0
 22 19  1  0  0  0  0
 22 23  1  0  0  0  0
 23 24  2  0  0  0  0
M  END
>  <CHROM.1>
-178.86169808,-160.85627606,53.78663401,-63.36260629,-160.80409624,172.36631789
-68.53446390,-86.14117301,130.26007599,39.19392023,-46.40318628,140.81012419
-171.30180746,-59.42113457,-51.12753059,93.85207755,55.28597575,-81.75229672
-7.60396944,-10.99746013,10.02567492,2.95406775,0.28286941,3.12376642

>  <Name>
1uud_lig

>  <RI>
0

>  <Rbt.Current_Directory>
/home/itssahil/PROJECTS/Mol_Feturizer/New_Systems/rnas/1uud

>  <Rbt.Executable>
rbdock ($Id: //depot/dev/client3/rdock/2013.1/src/exe/rbdock.cxx#4 $)

>  <Rbt.Library>
libRbt.so (2013.1, Build901 2013/11/27)

>  <Rbt.Parameter_File>
/export/apps/rDock/src/rDock_2013.1_src/data/scripts/dock_solv.prm

>  <Rbt.Receptor>
prm/blind_docking_60.prm

>  <SCORE>
-32.5672

>  <SCORE.INTER>
-23.8999

>  <SCORE.INTER.CONST>
1

>  <SCORE.INTER.POLAR>
-2.84558

>  <SCORE.INTER.ROT>
18

>  <SCORE.INTER.SOLV>
11.229

>  <SCORE.INTER.VDW>
-25.791

>  <SCORE.INTER.norm>
-0.955994

>  <SCORE.INTRA>
-9.19022

>  <SCORE.INTRA.DIHEDRAL>
-7.85657

>  <SCORE.INTRA.DIHEDRAL.0>
30.6762

>  <SCORE.INTRA.POLAR>
-0.536072

>  <SCORE.INTRA.POLAR.0>
-0.0288659

>  <SCORE.INTRA.REPUL>
0

>  <SCORE.INTRA.REPUL.0>
0

>  <SCORE.INTRA.SOLV>
1.15228

>  <SCORE.INTRA.SOLV.lig_0>
-25.2195

>  <SCORE.INTRA.VDW>
-4.01543

>  <SCORE.INTRA.VDW.0>
4.14263

>  <SCORE.INTRA.norm>
-0.367609

>  <SCORE.RESTR>
0.522883

>  <SCORE.RESTR.CAVITY>
0.522883

>  <SCORE.RESTR.norm>
0.0209153

>  <SCORE.SYSTEM>
0

>  <SCORE.SYSTEM.CONST>
0

>  <SCORE.SYSTEM.DIHEDRAL>
0

>  <SCORE.SYSTEM.SOLV>
0

>  <SCORE.SYSTEM.norm>
0

>  <SCORE.heavy>
25

>  <SCORE.norm>
-1.30269

>  <RMSD>
14.300

$$$$
1uud_lig
 OpenBabel11021811413D
libRbt.so/2013.1/901 2013/11/27
 25 25  0  0  0  0  0  0  0  0999 V2000
   -4.8980   -9.5777   11.4082 C   0  0  0  0  0  0  0  0  0  0  0  0
   -5.6613  -11.9323    9.8347 O   0  0  0  0  0  0  0  0  0  0  0  0
   -7.0556  -12.2554    9.9440 C   0  0  0  0  0  0  0  0  0  0  0  0
   -3.5099  -10.0256   11.6813 N   0  0  0  0  0  0  0  0  0  0  0  0
   -7.5500  -12.9118    8.6479 C   0  0  0  0  0  0  0  0  0  0  0  0
   -3.1866   -9.8146   13.1123 C   0  0  0  0  0  0  0  0  0  0  0  0
   -3.0127   -8.3152   13.3830 C   0  0  0  0  0  0  0  0  0  0  0  0
   -8.8614  -12.9404    8.6336 N   0  0  0  0  0  0  0  0  0  0  0  0
   -9.5398  -13.8328    9.3303 C   0  0  0  0  0  0  0  0  0  0  0  0
   -2.2245   -8.1079   14.6809 C   0  0  0  0  0  0  0  0  0  0  0  0
   -0.8214   -8.7022   14.5280 C   0  0  0  0  0  0  0  0  0  0  0  0
   -8.9456  -14.5726   10.3153 N   0  0  0  0  0  0  0  0  0  0  0  0
  -10.8576  -14.0215    9.0619 N   0  0  0  0  0  0  0  0  0  0  0  0
   -0.1897   -8.6540   15.6768 N   0  0  0  0  0  0  0  0  0  0  0  0
    0.9605   -8.0205   15.8050 C   0  0  0  0  0  0  0  0  0  0  0  0
    2.1136   -8.6766   15.5160 N   0  0  0  0  0  0  0  0  0  0  0  0
    1.0186   -6.7240   16.2313 N   0  0  0  0  0  0  0  0  0  0  0  0
   -5.4978  -10.6797    9.1574 C   0  0  0  0  0  0  0  0  0  0  0  0
   -5.0594   -6.9474    7.1255 O   0  0  0  0  0  0  0  0  0  0  0  0
   -5.1329   -9.5103    9.8849 C   0  0  0  0  0  0  0  0  0  0  0  0
   -4.9961   -8.2688    9.2079 C   0  0  0  0  0  0  0  0  0  0  0  0
   -5.2017   -8.1974    7.8051 C   0  0  0  0  0  0  0  0  0  0  0  0
   -5.5467   -9.3670    7.0756 C   0  0  0  0  0  0  0  0  0  0  0  0
   -5.6881  -10.6104    7.7493 C   0  0  0  0  0  0  0  0  0  0  0  0
   -5.9318   -5.9792    7.7155 C   0  0  0  0  0  0  0  0  0  0  0  0
  1  4  1  0  0  0  0
  2  3  1  0  0  0  0
  3  5  1  0  0  0  0
  4  6  1  0  0  0  0
  5  8  1  0  0  0  0
  6  7  1  0  0  0  0
  7 10  1  0  0  0  0
  8  9  1  0  0  0  0
  9 12  1  0  0  0  0
  9 13  1  0  0  0  0
 10 11  1  0  0  0  0
 11 14  1  0  0  0  0
 14 15  1  0  0  0  0
 15 16  1  0  0  0  0
 15 17  1  0  0  0  0
 18  2  1  0  0  0  0
 18 20  2  0  0  0  0
 18 24  1  0  0  0  0
 19 25  1  0  0  0  0
 20  1  1  0  0  0  0
 20 21  1  0  0  0  0
 21 22  2  0  0  0  0
 22 19  1  0  0  0  0
 22 23  1  0  0  0  0
 23 24  2  0  0  0  0
M  END
>  <CHROM.1>
167.88529333,83.02415405,-166.36797591,-72.28346253,-77.82178836,-160.48804677
62.68301905,14.50778795,62.41315522,-128.39535171,-173.45020226,-122.02922334
-86.14754222,36.80438767,153.38280173,105.83889751,83.96768852,-56.36056391
-4.58962352,-9.96614603,11.00580928,-0.15529218,-0.73738474,-0.80652936

>  <Name>
1uud_lig

>  <RI>
0

>  <Rbt.Current_Directory>
/home/itssahil/PROJECTS/Mol_Feturizer/New_Systems/rnas/1uud

>  <Rbt.Executable>
rbdock ($Id: //depot/dev/client3/rdock/2013.1/src/exe/rbdock.cxx#4 $)

>  <Rbt.Library>
libRbt.so (2013.1, Build901 2013/11/27)

>  <Rbt.Parameter_File>
/export/apps/rDock/src/rDock_2013.1_src/data/scripts/dock_solv.prm

>  <Rbt.Receptor>
prm/blind_docking_80.prm

>  <SCORE>
-27.3626

>  <SCORE.INTER>
-24.9539

>  <SCORE.INTER.CONST>
1

>  <SCORE.INTER.POLAR>
-3.67204

>  <SCORE.INTER.ROT>
18

>  <SCORE.INTER.SOLV>
10.9739

>  <SCORE.INTER.VDW>
-23.6537

>  <SCORE.INTER.norm>
-0.998155

>  <SCORE.INTRA>
-5.60392

>  <SCORE.INTRA.DIHEDRAL>
-7.4016

>  <SCORE.INTRA.DIHEDRAL.0>
30.6762

>  <SCORE.INTRA.POLAR>
0.0288659

>  <SCORE.INTRA.POLAR.0>
-0.0288659

>  <SCORE.INTRA.REPUL>
0

>  <SCORE.INTRA.REPUL.0>
0

>  <SCORE.INTRA.SOLV>
-0.967695

>  <SCORE.INTRA.SOLV.lig_0>
-25.2195

>  <SCORE.INTRA.VDW>
-1.51742

>  <SCORE.INTRA.VDW.0>
4.14263

>  <SCORE.INTRA.norm>
-0.224157

>  <SCORE.RESTR>
3.1952

>  <SCORE.RESTR.CAVITY>
3.1952

>  <SCORE.RESTR.norm>
0.127808

>  <SCORE.SYSTEM>
0

>  <SCORE.SYSTEM.CONST>
0

>  <SCORE.SYSTEM.DIHEDRAL>
0

>  <SCORE.SYSTEM.SOLV>
0

>  <SCORE.SYSTEM.norm>
0

>  <SCORE.heavy>
25

>  <SCORE.norm>
-1.0945

>  <RMSD>
14.316

$$$$
1uud_lig
 OpenBabel11021811413D
libRbt.so/2013.1/901 2013/11/27
 25 25  0  0  0  0  0  0  0  0999 V2000
   -6.1065  -13.4309   11.4920 C   0  0  0  0  0  0  0  0  0  0  0  0
   -8.3572  -14.2065    9.7787 O   0  0  0  0  0  0  0  0  0  0  0  0
   -9.6320  -13.7395   10.2447 C   0  0  0  0  0  0  0  0  0  0  0  0
   -4.7010  -13.9053   11.4501 N   0  0  0  0  0  0  0  0  0  0  0  0
  -10.5664  -13.4768    9.0560 C   0  0  0  0  0  0  0  0  0  0  0  0
   -3.7781  -12.7480   11.5236 C   0  0  0  0  0  0  0  0  0  0  0  0
   -4.0100  -11.9896   12.8361 C   0  0  0  0  0  0  0  0  0  0  0  0
  -11.0414  -12.2559    9.1224 N   0  0  0  0  0  0  0  0  0  0  0  0
  -10.9207  -11.4127    8.1142 C   0  0  0  0  0  0  0  0  0  0  0  0
   -4.6816  -10.6425   12.5481 C   0  0  0  0  0  0  0  0  0  0  0  0
   -3.6733   -9.6995   11.8853 C   0  0  0  0  0  0  0  0  0  0  0  0
  -10.0566  -10.3539    8.1674 N   0  0  0  0  0  0  0  0  0  0  0  0
  -11.6728  -11.6002    6.9991 N   0  0  0  0  0  0  0  0  0  0  0  0
   -3.3755   -8.7189   12.7045 N   0  0  0  0  0  0  0  0  0  0  0  0
   -3.9212   -7.5245   12.5771 C   0  0  0  0  0  0  0  0  0  0  0  0
   -3.4269   -6.6663   11.6482 N   0  0  0  0  0  0  0  0  0  0  0  0
   -4.9645   -7.1278   13.3645 N   0  0  0  0  0  0  0  0  0  0  0  0
   -7.5427  -13.0970    9.3786 C   0  0  0  0  0  0  0  0  0  0  0  0
   -5.1551   -9.7599    8.1898 O   0  0  0  0  0  0  0  0  0  0  0  0
   -6.4427  -12.6841   10.1845 C   0  0  0  0  0  0  0  0  0  0  0  0
   -5.6557  -11.5687    9.7911 C   0  0  0  0  0  0  0  0  0  0  0  0
   -5.9514  -10.8796    8.5856 C   0  0  0  0  0  0  0  0  0  0  0  0
   -7.0361  -11.3028    7.7712 C   0  0  0  0  0  0  0  0  0  0  0  0
   -7.8284  -12.4159    8.1628 C   0  0  0  0  0  0  0  0  0  0  0  0
   -5.5776   -8.5949    8.9045 C   0  0  0  0  0  0  0  0  0  0  0  0
  1  4  1  0  0  0  0
  2  3  1  0  0  0  0
  3  5  1  0  0  0  0
  4  6  1  0  0  0  0
  5  8  1  0  0  0  0
  6  7  1  0  0  0  0
  7 10  1  0  0  0  0
  8  9  1  0  0  0  0
  9 12  1  0  0  0  0
  9 13  1  0  0  0  0
 10 11  1  0  0  0  0
 11 14  1  0  0  0  0
 14 15  1  0  0  0  0
 15 16  1  0  0  0  0
 15 17  1  0  0  0  0
 18  2  1  0  0  0  0
 18 20  2  0  0  0  0
 18 24  1  0  0  0  0
 19 25  1  0  0  0  0
 20  1  1  0  0  0  0
 20 21  1  0  0  0  0
 21 22  2  0  0  0  0
 22 19  1  0  0  0  0
 22 23  1  0  0  0  0
 23 24  2  0  0  0  0
M  END
>  <CHROM.1>
69.20174698,82.09468199,-126.37286523,60.34342335,125.66665061,-109.13143926
-71.64774879,-107.66253227,-3.14221194,-62.29232354,-111.62814902,-100.75032975
-80.17859588,-97.04855134,-42.91071180,106.79298651,123.81100710,-80.50918109
-6.64673955,-11.14028325,10.19838074,-2.78033760,-0.60018762,-0.17735136

>  <Name>
1uud_lig

>  <RI>
0

>  <Rbt.Current_Directory>
/home/itssahil/PROJECTS/Mol_Feturizer/New_Systems/rnas/1uud

>  <Rbt.Executable>
rbdock ($Id: //depot/dev/client3/rdock/2013.1/src/exe/rbdock.cxx#4 $)

>  <Rbt.Library>
libRbt.so (2013.1, Build901 2013/11/27)

>  <Rbt.Parameter_File>
/export/apps/rDock/src/rDock_2013.1_src/data/scripts/dock_solv.prm

>  <Rbt.Receptor>
prm/blind_docking_60.prm

>  <SCORE>
-24.9702

>  <SCORE.INTER>
-27.2537

>  <SCORE.INTER.CONST>
1

>  <SCORE.INTER.POLAR>
-4.524

>  <SCORE.INTER.ROT>
18

>  <SCORE.INTER.SOLV>
11.7062

>  <SCORE.INTER.VDW>
-22.5912

>  <SCORE.INTER.norm>
-1.09015

>  <SCORE.INTRA>
0.672407

>  <SCORE.INTRA.DIHEDRAL>
7.309

>  <SCORE.INTRA.DIHEDRAL.0>
30.6762

>  <SCORE.INTRA.POLAR>
0.0288659

>  <SCORE.INTRA.POLAR.0>
-0.0288659

>  <SCORE.INTRA.REPUL>
0

>  <SCORE.INTRA.REPUL.0>
0

>  <SCORE.INTRA.SOLV>
0.0787291

>  <SCORE.INTRA.SOLV.lig_0>
-25.2195

>  <SCORE.INTRA.VDW>
-3.1196

>  <SCORE.INTRA.VDW.0>
4.14263

>  <SCORE.INTRA.norm>
0.0268963

>  <SCORE.RESTR>
1.61108

>  <SCORE.RESTR.CAVITY>
1.61108

>  <SCORE.RESTR.norm>
0.0644432

>  <SCORE.SYSTEM>
0

>  <SCORE.SYSTEM.CONST>
0

>  <SCORE.SYSTEM.DIHEDRAL>
0

>  <SCORE.SYSTEM.SOLV>
0

>  <SCORE.SYSTEM.norm>
0

>  <SCORE.heavy>
25

>  <SCORE.norm>
-0.998807

>  <RMSD>
14.318

$$$$
1uud_lig
 OpenBabel11021811413D
libRbt.so/2013.1/901 2013/11/27
 25 25  0  0  0  0  0  0  0  0999 V2000
   -6.6324  -12.1228   10.3693 C   0  0  0  0  0  0  0  0  0  0  0  0
   -6.1801   -9.9340    8.4700 O   0  0  0  0  0  0  0  0  0  0  0  0
   -6.3331   -8.5298    8.7248 C   0  0  0  0  0  0  0  0  0  0  0  0
   -5.6235  -12.9380    9.6485 N   0  0  0  0  0  0  0  0  0  0  0  0
   -5.2046   -8.0313    9.6376 C   0  0  0  0  0  0  0  0  0  0  0  0
   -4.2710  -12.6496   10.1819 C   0  0  0  0  0  0  0  0  0  0  0  0
   -4.2332  -12.9655   11.6820 C   0  0  0  0  0  0  0  0  0  0  0  0
   -5.2229   -8.6907   10.7715 N   0  0  0  0  0  0  0  0  0  0  0  0
   -6.2542   -8.6232   11.5923 C   0  0  0  0  0  0  0  0  0  0  0  0
   -2.8259  -12.7113   12.2329 C   0  0  0  0  0  0  0  0  0  0  0  0
   -2.6284  -11.2095   12.4588 C   0  0  0  0  0  0  0  0  0  0  0  0
   -6.4123   -9.5161   12.6162 N   0  0  0  0  0  0  0  0  0  0  0  0
   -7.1800   -7.6455   11.4153 N   0  0  0  0  0  0  0  0  0  0  0  0
   -1.3682  -10.9612   12.7259 N   0  0  0  0  0  0  0  0  0  0  0  0
   -0.9070  -10.9887   13.9617 C   0  0  0  0  0  0  0  0  0  0  0  0
   -0.0392  -10.0260   14.3662 N   0  0  0  0  0  0  0  0  0  0  0  0
   -1.2743  -11.9685   14.8399 N   0  0  0  0  0  0  0  0  0  0  0  0
   -7.4603  -10.5786    8.4797 C   0  0  0  0  0  0  0  0  0  0  0  0
  -11.2683  -12.5149    8.4612 O   0  0  0  0  0  0  0  0  0  0  0  0
   -7.7201  -11.6495    9.3828 C   0  0  0  0  0  0  0  0  0  0  0  0
   -8.9845  -12.2971    9.3686 C   0  0  0  0  0  0  0  0  0  0  0  0
   -9.9952  -11.8640    8.4706 C   0  0  0  0  0  0  0  0  0  0  0  0
   -9.7436  -10.7833    7.5830 C   0  0  0  0  0  0  0  0  0  0  0  0
   -8.4789  -10.1348    7.5914 C   0  0  0  0  0  0  0  0  0  0  0  0
  -12.2227  -11.7109    9.1606 C   0  0  0  0  0  0  0  0  0  0  0  0
  1  4  1  0  0  0  0
  2  3  1  0  0  0  0
  3  5  1  0  0  0  0
  4  6  1  0  0  0  0
  5  8  1  0  0  0  0
  6  7  1  0  0  0  0
  7 10  1  0  0  0  0
  8  9  1  0  0  0  0
  9 12  1  0  0  0  0
  9 13  1  0  0  0  0
 10 11  1  0  0  0  0
 11 14  1  0  0  0  0
 14 15  1  0  0  0  0
 15 16  1  0  0  0  0
 15 17  1  0  0  0  0
 18  2  1  0  0  0  0
 18 20  2  0  0  0  0
 18 24  1  0  0  0  0
 19 25  1  0  0  0  0
 20  1  1  0  0  0  0
 20 21  1  0  0  0  0
 21 22  2  0  0  0  0
 22 19  1  0  0  0  0
 22 23  1  0  0  0  0
 23 24  2  0  0  0  0
M  END
>  <CHROM.1>
142.15655352,140.51232233,-59.01553292,58.86385418,-62.82013810,178.25656756
79.06671090,165.49966761,25.19866125,100.24499379,-170.06479010,-88.96118182
-138.09535140,64.14474126,-79.74277164,-122.03046250,-76.45275951,102.01542957
-5.86435017,-10.82911951,10.64183360,3.13898782,-0.53840711,-0.03310004

>  <Name>
1uud_lig

>  <RI>
0

>  <Rbt.Current_Directory>
/home/itssahil/PROJECTS/Mol_Feturizer/New_Systems/rnas/1uud

>  <Rbt.Executable>
rbdock ($Id: //depot/dev/client3/rdock/2013.1/src/exe/rbdock.cxx#4 $)

>  <Rbt.Library>
libRbt.so (2013.1, Build901 2013/11/27)

>  <Rbt.Parameter_File>
/export/apps/rDock/src/rDock_2013.1_src/data/scripts/dock_solv.prm

>  <Rbt.Receptor>
prm/blind_docking_80.prm

>  <SCORE>
-28.8266

>  <SCORE.INTER>
-28.5728

>  <SCORE.INTER.CONST>
1

>  <SCORE.INTER.POLAR>
-4.20894

>  <SCORE.INTER.ROT>
18

>  <SCORE.INTER.SOLV>
10.2527

>  <SCORE.INTER.VDW>
-24.0363

>  <SCORE.INTER.norm>
-1.14291

>  <SCORE.INTRA>
-3.85167

>  <SCORE.INTRA.DIHEDRAL>
-2.73989

>  <SCORE.INTRA.DIHEDRAL.0>
30.6762

>  <SCORE.INTRA.POLAR>
0.0288659

>  <SCORE.INTRA.POLAR.0>
-0.0288659

>  <SCORE.INTRA.REPUL>
0

>  <SCORE.INTRA.REPUL.0>
0

>  <SCORE.INTRA.SOLV>
0.605749

>  <SCORE.INTRA.SOLV.lig_0>
-25.2195

>  <SCORE.INTRA.VDW>
-2.88274

>  <SCORE.INTRA.VDW.0>
4.14263

>  <SCORE.INTRA.norm>
-0.154067

>  <SCORE.RESTR>
3.59788

>  <SCORE.RESTR.CAVITY>
3.59788

>  <SCORE.RESTR.norm>
0.143915

>  <SCORE.SYSTEM>
0

>  <SCORE.SYSTEM.CONST>
0

>  <SCORE.SYSTEM.DIHEDRAL>
0

>  <SCORE.SYSTEM.SOLV>
0

>  <SCORE.SYSTEM.norm>
0

>  <SCORE.heavy>
25

>  <SCORE.norm>
-1.15306

>  <RMSD>
14.332

$$$$
1uud_lig
 OpenBabel11021811413D
libRbt.so/2013.1/901 2013/11/27
 25 25  0  0  0  0  0  0  0  0999 V2000
   -4.5184  -12.7686    8.8696 C   0  0  0  0  0  0  0  0  0  0  0  0
   -5.0289   -9.8805    8.9019 O   0  0  0  0  0  0  0  0  0  0  0  0
   -5.3750   -8.6033    8.3460 C   0  0  0  0  0  0  0  0  0  0  0  0
   -4.3356  -13.4802   10.1589 N   0  0  0  0  0  0  0  0  0  0  0  0
   -5.2132   -7.5038    9.4043 C   0  0  0  0  0  0  0  0  0  0  0  0
   -3.9792  -12.5104   11.2215 C   0  0  0  0  0  0  0  0  0  0  0  0
   -5.2461  -12.0856   11.9740 C   0  0  0  0  0  0  0  0  0  0  0  0
   -6.3191   -6.8041    9.4944 N   0  0  0  0  0  0  0  0  0  0  0  0
   -6.6760   -5.9531    8.5508 C   0  0  0  0  0  0  0  0  0  0  0  0
   -5.2866  -10.5594   12.1065 C   0  0  0  0  0  0  0  0  0  0  0  0
   -6.2841  -10.1670   13.2002 C   0  0  0  0  0  0  0  0  0  0  0  0
   -7.9809   -5.5799    8.3812 N   0  0  0  0  0  0  0  0  0  0  0  0
   -5.7259   -5.4374    7.7289 N   0  0  0  0  0  0  0  0  0  0  0  0
   -6.5442   -8.8832   13.1260 N   0  0  0  0  0  0  0  0  0  0  0  0
   -5.6344   -7.9769   13.4281 C   0  0  0  0  0  0  0  0  0  0  0  0
   -6.0134   -6.6813   13.5743 N   0  0  0  0  0  0  0  0  0  0  0  0
   -4.3191   -8.3099   13.5869 N   0  0  0  0  0  0  0  0  0  0  0  0
   -6.1477  -10.7727    8.8198 C   0  0  0  0  0  0  0  0  0  0  0  0
   -9.4939  -13.4127    8.5298 O   0  0  0  0  0  0  0  0  0  0  0  0
   -5.9437  -12.1826    8.7962 C   0  0  0  0  0  0  0  0  0  0  0  0
   -7.0578  -13.0578    8.6911 C   0  0  0  0  0  0  0  0  0  0  0  0
   -8.3741  -12.5294    8.6313 C   0  0  0  0  0  0  0  0  0  0  0  0
   -8.5797  -11.1241    8.6745 C   0  0  0  0  0  0  0  0  0  0  0  0
   -7.4679  -10.2446    8.7760 C   0  0  0  0  0  0  0  0  0  0  0  0
  -10.5909  -12.8839    9.2805 C   0  0  0  0  0  0  0  0  0  0  0  0
  1  4  1  0  0  0  0
  2  3  1  0  0  0  0
  3  5  1  0  0  0  0
  4  6  1  0  0  0  0
  5  8  1  0  0  0  0
  6  7  1  0  0  0  0
  7 10  1  0  0  0  0
  8  9  1  0  0  0  0
  9 12  1  0  0  0  0
  9 13  1  0  0  0  0
 10 11  1  0  0  0  0
 11 14  1  0  0  0  0
 14 15  1  0  0  0  0
 15 16  1  0  0  0  0
 15 17  1  0  0  0  0
 18  2  1  0  0  0  0
 18 20  2  0  0  0  0
 18 24  1  0  0  0  0
 19 25  1  0  0  0  0
 20  1  1  0  0  0  0
 20 21  1  0  0  0  0
 21 22  2  0  0  0  0
 22 19  1  0  0  0  0
 22 23  1  0  0  0  0
 23 24  2  0  0  0  0
M  END
>  <CHROM.1>
-83.09179664,120.64089758,-127.22169637,95.07577459,-72.74997794,-132.04922655
-162.62379899,156.82329847,-165.61795280,120.12591947,-166.32173202,-69.02795680
-168.00871416,149.55246119,117.98053077,155.09393057,112.21032639,143.85038857
-6.31439605,-9.90433394,10.12580272,-1.94011341,-1.02189287,-0.10672774

>  <Name>
1uud_lig

>  <RI>
0

>  <Rbt.Current_Directory>
/home/itssahil/PROJECTS/Mol_Feturizer/New_Systems/rnas/1uud

>  <Rbt.Executable>
rbdock ($Id: //depot/dev/client3/rdock/2013.1/src/exe/rbdock.cxx#4 $)

>  <Rbt.Library>
libRbt.so (2013.1, Build901 2013/11/27)

>  <Rbt.Parameter_File>
/export/apps/rDock/src/rDock_2013.1_src/data/scripts/dock_solv.prm

>  <Rbt.Receptor>
prm/blind_docking_60.prm

>  <SCORE>
-28.5709

>  <SCORE.INTER>
-33.8373

>  <SCORE.INTER.CONST>
1

>  <SCORE.INTER.POLAR>
-5.28446

>  <SCORE.INTER.ROT>
18

>  <SCORE.INTER.SOLV>
13.0771

>  <SCORE.INTER.VDW>
-24.9024

>  <SCORE.INTER.norm>
-1.35349

>  <SCORE.INTRA>
3.9537

>  <SCORE.INTRA.DIHEDRAL>
4.96179

>  <SCORE.INTRA.DIHEDRAL.0>
30.6762

>  <SCORE.INTRA.POLAR>
0.0288659

>  <SCORE.INTRA.POLAR.0>
-0.0288659

>  <SCORE.INTRA.REPUL>
0

>  <SCORE.INTRA.REPUL.0>
0

>  <SCORE.INTRA.SOLV>
-0.0395449

>  <SCORE.INTRA.SOLV.lig_0>
-25.2195

>  <SCORE.INTRA.VDW>
1.39443

>  <SCORE.INTRA.VDW.0>
4.14263

>  <SCORE.INTRA.norm>
0.158148

>  <SCORE.RESTR>
1.31277

>  <SCORE.RESTR.CAVITY>
1.31277

>  <SCORE.RESTR.norm>
0.052511

>  <SCORE.SYSTEM>
0

>  <SCORE.SYSTEM.CONST>
0

>  <SCORE.SYSTEM.DIHEDRAL>
0

>  <SCORE.SYSTEM.SOLV>
0

>  <SCORE.SYSTEM.norm>
0

>  <SCORE.heavy>
25

>  <SCORE.norm>
-1.14283

>  <RMSD>
14.337

$$$$
1uud_lig
 OpenBabel11021811413D
libRbt.so/2013.1/901 2013/11/27
 25 25  0  0  0  0  0  0  0  0999 V2000
   -5.2129  -12.3451   11.0644 C   0  0  0  0  0  0  0  0  0  0  0  0
   -6.3612  -11.9776    8.3907 O   0  0  0  0  0  0  0  0  0  0  0  0
   -7.2825  -11.4501    7.4246 C   0  0  0  0  0  0  0  0  0  0  0  0
   -5.2517  -10.9069   10.7008 N   0  0  0  0  0  0  0  0  0  0  0  0
   -8.3257  -10.5630    8.1174 C   0  0  0  0  0  0  0  0  0  0  0  0
   -3.9373  -10.2823   10.9820 C   0  0  0  0  0  0  0  0  0  0  0  0
   -4.0854   -8.7560   10.9870 C   0  0  0  0  0  0  0  0  0  0  0  0
   -9.3428  -10.3589    7.3144 N   0  0  0  0  0  0  0  0  0  0  0  0
  -10.5257  -10.8951    7.5491 C   0  0  0  0  0  0  0  0  0  0  0  0
   -4.3222   -8.2506    9.5597 C   0  0  0  0  0  0  0  0  0  0  0  0
   -5.8263   -8.2068    9.2754 C   0  0  0  0  0  0  0  0  0  0  0  0
  -11.6703  -10.3569    7.0288 N   0  0  0  0  0  0  0  0  0  0  0  0
  -10.6081  -12.0058    8.3262 N   0  0  0  0  0  0  0  0  0  0  0  0
   -6.2687   -6.9786    9.4058 N   0  0  0  0  0  0  0  0  0  0  0  0
   -6.2453   -6.1268    8.3987 C   0  0  0  0  0  0  0  0  0  0  0  0
   -5.0494   -5.7499    7.8778 N   0  0  0  0  0  0  0  0  0  0  0  0
   -7.3952   -5.6077    7.8748 N   0  0  0  0  0  0  0  0  0  0  0  0
   -7.0531  -12.8176    9.3235 C   0  0  0  0  0  0  0  0  0  0  0  0
   -9.1085  -15.3606   12.0728 O   0  0  0  0  0  0  0  0  0  0  0  0
   -6.5271  -13.0271   10.6309 C   0  0  0  0  0  0  0  0  0  0  0  0
   -7.2083  -13.8800   11.5401 C   0  0  0  0  0  0  0  0  0  0  0  0
   -8.4227  -14.5059   11.1542 C   0  0  0  0  0  0  0  0  0  0  0  0
   -8.9583  -14.2821    9.8573 C   0  0  0  0  0  0  0  0  0  0  0  0
   -8.2783  -13.4324    8.9432 C   0  0  0  0  0  0  0  0  0  0  0  0
   -9.6717  -14.5762   13.1282 C   0  0  0  0  0  0  0  0  0  0  0  0
  1  4  1  0  0  0  0
  2  3  1  0  0  0  0
  3  5  1  0  0  0  0
  4  6  1  0  0  0  0
  5  8  1  0  0  0  0
  6  7  1  0  0  0  0
  7 10  1  0  0  0  0
  8  9  1  0  0  0  0
  9 12  1  0  0  0  0
  9 13  1  0  0  0  0
 10 11  1  0  0  0  0
 11 14  1  0  0  0  0
 14 15  1  0  0  0  0
 15 16  1  0  0  0  0
 15 17  1  0  0  0  0
 18  2  1  0  0  0  0
 18 20  2  0  0  0  0
 18 24  1  0  0  0  0
 19 25  1  0  0  0  0
 20  1  1  0  0  0  0
 20 21  1  0  0  0  0
 21 22  2  0  0  0  0
 22 19  1  0  0  0  0
 22 23  1  0  0  0  0
 23 24  2  0  0  0  0
M  END
>  <CHROM.1>
-173.91457481,62.89416068,-164.23431243,-164.16989112,110.19055417,-71.00607384
90.58709476,157.14622340,120.64153607,87.86996473,100.05226256,87.52738876
-63.67398183,75.32375335,-142.36540042,-155.08492728,47.49492476,70.48941045
-7.34288931,-10.82165660,9.44366174,-2.02427194,-0.50357337,-0.51171231

>  <Name>
1uud_lig

>  <RI>
0

>  <Rbt.Current_Directory>
/home/itssahil/PROJECTS/Mol_Feturizer/New_Systems/rnas/1uud

>  <Rbt.Executable>
rbdock ($Id: //depot/dev/client3/rdock/2013.1/src/exe/rbdock.cxx#4 $)

>  <Rbt.Library>
libRbt.so (2013.1, Build901 2013/11/27)

>  <Rbt.Parameter_File>
/export/apps/rDock/src/rDock_2013.1_src/data/scripts/dock_solv.prm

>  <Rbt.Receptor>
prm/blind_docking_100.prm

>  <SCORE>
-33.7425

>  <SCORE.INTER>
-29.0675

>  <SCORE.INTER.CONST>
1

>  <SCORE.INTER.POLAR>
-4.34642

>  <SCORE.INTER.ROT>
18

>  <SCORE.INTER.SOLV>
10.5944

>  <SCORE.INTER.VDW>
-24.0217

>  <SCORE.INTER.norm>
-1.1627

>  <SCORE.INTRA>
-6.47801

>  <SCORE.INTRA.DIHEDRAL>
-5.87246

>  <SCORE.INTRA.DIHEDRAL.0>
30.6762

>  <SCORE.INTRA.POLAR>
-0.639786

>  <SCORE.INTRA.POLAR.0>
-0.0288659

>  <SCORE.INTRA.REPUL>
0

>  <SCORE.INTRA.REPUL.0>
0

>  <SCORE.INTRA.SOLV>
0.419209

>  <SCORE.INTRA.SOLV.lig_0>
-25.2195

>  <SCORE.INTRA.VDW>
-1.57611

>  <SCORE.INTRA.VDW.0>
4.14263

>  <SCORE.INTRA.norm>
-0.25912

>  <SCORE.RESTR>
1.803

>  <SCORE.RESTR.CAVITY>
1.803

>  <SCORE.RESTR.norm>
0.0721199

>  <SCORE.SYSTEM>
0

>  <SCORE.SYSTEM.CONST>
0

>  <SCORE.SYSTEM.DIHEDRAL>
0

>  <SCORE.SYSTEM.SOLV>
0

>  <SCORE.SYSTEM.norm>
0

>  <SCORE.heavy>
25

>  <SCORE.norm>
-1.3497

>  <RMSD>
14.359

$$$$
1uud_lig
 OpenBabel11021811413D
libRbt.so/2013.1/901 2013/11/27
 25 25  0  0  0  0  0  0  0  0999 V2000
   -4.7301  -11.7005   10.5479 C   0  0  0  0  0  0  0  0  0  0  0  0
   -5.1680  -10.4124    7.9495 O   0  0  0  0  0  0  0  0  0  0  0  0
   -5.4153   -9.1185    8.5195 C   0  0  0  0  0  0  0  0  0  0  0  0
   -4.2690  -12.9442   11.2131 N   0  0  0  0  0  0  0  0  0  0  0  0
   -6.6035   -8.4485    7.8163 C   0  0  0  0  0  0  0  0  0  0  0  0
   -3.0991  -12.6490   12.0740 C   0  0  0  0  0  0  0  0  0  0  0  0
   -3.4745  -11.5701   13.0970 C   0  0  0  0  0  0  0  0  0  0  0  0
   -6.4760   -7.1440    7.8687 N   0  0  0  0  0  0  0  0  0  0  0  0
   -7.0597   -6.4311    8.8137 C   0  0  0  0  0  0  0  0  0  0  0  0
   -2.7761  -10.2522   12.7445 C   0  0  0  0  0  0  0  0  0  0  0  0
   -3.4438   -9.1008   13.5018 C   0  0  0  0  0  0  0  0  0  0  0  0
   -6.6737   -6.5265   10.1223 N   0  0  0  0  0  0  0  0  0  0  0  0
   -8.0674   -5.5845    8.4789 N   0  0  0  0  0  0  0  0  0  0  0  0
   -2.5371   -8.4096   14.1510 N   0  0  0  0  0  0  0  0  0  0  0  0
   -1.9545   -7.3570   13.6097 C   0  0  0  0  0  0  0  0  0  0  0  0
   -0.7863   -6.9044   14.1333 N   0  0  0  0  0  0  0  0  0  0  0  0
   -2.5041   -6.7063   12.5417 N   0  0  0  0  0  0  0  0  0  0  0  0
   -6.1422  -11.3524    8.4206 C   0  0  0  0  0  0  0  0  0  0  0  0
   -9.0357  -14.1836    9.7852 O   0  0  0  0  0  0  0  0  0  0  0  0
   -5.9654  -12.0044    9.6750 C   0  0  0  0  0  0  0  0  0  0  0  0
   -6.9249  -12.9518   10.1223 C   0  0  0  0  0  0  0  0  0  0  0  0
   -8.0694  -13.2327    9.3307 C   0  0  0  0  0  0  0  0  0  0  0  0
   -8.2565  -12.5684    8.0886 C   0  0  0  0  0  0  0  0  0  0  0  0
   -7.2973  -11.6226    7.6355 C   0  0  0  0  0  0  0  0  0  0  0  0
  -10.3328  -13.5803    9.7971 C   0  0  0  0  0  0  0  0  0  0  0  0
  1  4  1  0  0  0  0
  2  3  1  0  0  0  0
  3  5  1  0  0  0  0
  4  6  1  0  0  0  0
  5  8  1  0  0  0  0
  6  7  1  0  0  0  0
  7 10  1  0  0  0  0
  8  9  1  0  0  0  0
  9 12  1  0  0  0  0
  9 13  1  0  0  0  0
 10 11  1  0  0  0  0
 11 14  1  0  0  0  0
 14 15  1  0  0  0  0
 15 16  1  0  0  0  0
 15 17  1  0  0  0  0
 18  2  1  0  0  0  0
 18 20  2  0  0  0  0
 18 24  1  0  0  0  0
 19 25  1  0  0  0  0
 20  1  1  0  0  0  0
 20 21  1  0  0  0  0
 21 22  2  0  0  0  0
 22 19  1  0  0  0  0
 22 23  1  0  0  0  0
 23 24  2  0  0  0  0
M  END
>  <CHROM.1>
-178.84913914,-76.36205081,-151.84537422,57.22363211,-95.15789562,-108.66502329
164.00105179,67.59901851,-2.87542087,144.69488560,127.58541109,91.92838864
-161.56741661,-2.25111293,138.78051493,-83.68264125,-142.74373624,125.63029833
-5.44665788,-10.02698463,10.44440509,-2.74311333,-0.74215278,-0.21638971

>  <Name>
1uud_lig

>  <RI>
0

>  <Rbt.Current_Directory>
/home/itssahil/PROJECTS/Mol_Feturizer/New_Systems/rnas/1uud

>  <Rbt.Executable>
rbdock ($Id: //depot/dev/client3/rdock/2013.1/src/exe/rbdock.cxx#4 $)

>  <Rbt.Library>
libRbt.so (2013.1, Build901 2013/11/27)

>  <Rbt.Parameter_File>
/export/apps/rDock/src/rDock_2013.1_src/data/scripts/dock_solv.prm

>  <Rbt.Receptor>
prm/blind_docking_80.prm

>  <SCORE>
-39.0136

>  <SCORE.INTER>
-39.821

>  <SCORE.INTER.CONST>
1

>  <SCORE.INTER.POLAR>
-6.63848

>  <SCORE.INTER.ROT>
18

>  <SCORE.INTER.SOLV>
13.7526

>  <SCORE.INTER.VDW>
-24.6033

>  <SCORE.INTER.norm>
-1.59284

>  <SCORE.INTRA>
-0.42416

>  <SCORE.INTRA.DIHEDRAL>
2.69503

>  <SCORE.INTRA.DIHEDRAL.0>
30.6762

>  <SCORE.INTRA.POLAR>
0.0288659

>  <SCORE.INTRA.POLAR.0>
-0.0288659

>  <SCORE.INTRA.REPUL>
0

>  <SCORE.INTRA.REPUL.0>
0

>  <SCORE.INTRA.SOLV>
-1.18772

>  <SCORE.INTRA.SOLV.lig_0>
-25.2195

>  <SCORE.INTRA.VDW>
-1.27596

>  <SCORE.INTRA.VDW.0>
4.14263

>  <SCORE.INTRA.norm>
-0.0169664

>  <SCORE.RESTR>
1.23153

>  <SCORE.RESTR.CAVITY>
1.23153

>  <SCORE.RESTR.norm>
0.0492613

>  <SCORE.SYSTEM>
0

>  <SCORE.SYSTEM.CONST>
0

>  <SCORE.SYSTEM.DIHEDRAL>
0

>  <SCORE.SYSTEM.SOLV>
0

>  <SCORE.SYSTEM.norm>
0

>  <SCORE.heavy>
25

>  <SCORE.norm>
-1.56054

>  <RMSD>
14.377

$$$$
1uud_lig
 OpenBabel11021811413D
libRbt.so/2013.1/901 2013/11/27
 25 25  0  0  0  0  0  0  0  0999 V2000
   -6.3631  -13.0424    7.9155 C   0  0  0  0  0  0  0  0  0  0  0  0
   -8.2105  -14.0713    9.9481 O   0  0  0  0  0  0  0  0  0  0  0  0
   -9.3388  -14.7876   10.4716 C   0  0  0  0  0  0  0  0  0  0  0  0
   -5.5155  -12.6424    9.0660 N   0  0  0  0  0  0  0  0  0  0  0  0
   -8.9682  -15.4616   11.7996 C   0  0  0  0  0  0  0  0  0  0  0  0
   -5.2515  -11.1849    9.0122 C   0  0  0  0  0  0  0  0  0  0  0  0
   -4.6145  -10.7301   10.3309 C   0  0  0  0  0  0  0  0  0  0  0  0
   -8.2951  -14.6247   12.5529 N   0  0  0  0  0  0  0  0  0  0  0  0
   -6.9826  -14.7028   12.6686 C   0  0  0  0  0  0  0  0  0  0  0  0
   -4.2571   -9.2420   10.2512 C   0  0  0  0  0  0  0  0  0  0  0  0
   -4.8775   -8.5023   11.4400 C   0  0  0  0  0  0  0  0  0  0  0  0
   -6.3947  -15.4847   13.6245 N   0  0  0  0  0  0  0  0  0  0  0  0
   -6.1983  -13.9895   11.8199 N   0  0  0  0  0  0  0  0  0  0  0  0
   -6.0043   -7.9383   11.0749 N   0  0  0  0  0  0  0  0  0  0  0  0
   -7.1704   -8.5021   11.3254 C   0  0  0  0  0  0  0  0  0  0  0  0
   -7.9112   -8.0545   12.3716 N   0  0  0  0  0  0  0  0  0  0  0  0
   -7.6447   -9.5320   10.5635 N   0  0  0  0  0  0  0  0  0  0  0  0
   -8.6546  -13.0095    9.0938 C   0  0  0  0  0  0  0  0  0  0  0  0
   -9.9833   -9.8148    6.5880 O   0  0  0  0  0  0  0  0  0  0  0  0
   -7.7871  -12.4771    8.0968 C   0  0  0  0  0  0  0  0  0  0  0  0
   -8.2287  -11.4090    7.2707 C   0  0  0  0  0  0  0  0  0  0  0  0
   -9.5400  -10.8870    7.4236 C   0  0  0  0  0  0  0  0  0  0  0  0
  -10.4127  -11.4304    8.4044 C   0  0  0  0  0  0  0  0  0  0  0  0
   -9.9739  -12.4965    9.2356 C   0  0  0  0  0  0  0  0  0  0  0  0
   -8.9345   -8.8521    6.4468 C   0  0  0  0  0  0  0  0  0  0  0  0
  1  4  1  0  0  0  0
  2  3  1  0  0  0  0
  3  5  1  0  0  0  0
  4  6  1  0  0  0  0
  5  8  1  0  0  0  0
  6  7  1  0  0  0  0
  7 10  1  0  0  0  0
  8  9  1  0  0  0  0
  9 12  1  0  0  0  0
  9 13  1  0  0  0  0
 10 11  1  0  0  0  0
 11 14  1  0  0  0  0
 14 15  1  0  0  0  0
 15 16  1  0  0  0  0
 15 17  1  0  0  0  0
 18  2  1  0  0  0  0
 18 20  2  0  0  0  0
 18 24  1  0  0  0  0
 19 25  1  0  0  0  0
 20  1  1  0  0  0  0
 20 21  1  0  0  0  0
 21 22  2  0  0  0  0
 22 19  1  0  0  0  0
 22 23  1  0  0  0  0
 23 24  2  0  0  0  0
M  END
>  <CHROM.1>
-69.79143524,-154.77158410,44.46875463,169.07588767,-101.80452600,176.45128996
126.63384617,-88.73557293,-166.80939590,-88.23814509,-97.66871584,98.72702468
100.92465152,23.38668337,66.69437903,-157.13417410,-70.93078398,-41.91557204
-7.46407080,-11.70524826,10.01194958,1.61977835,0.82393994,2.65877768

>  <Name>
1uud_lig

>  <RI>
0

>  <Rbt.Current_Directory>
/home/itssahil/PROJECTS/Mol_Feturizer/New_Systems/rnas/1uud

>  <Rbt.Executable>
rbdock ($Id: //depot/dev/client3/rdock/2013.1/src/exe/rbdock.cxx#4 $)

>  <Rbt.Library>
libRbt.so (2013.1, Build901 2013/11/27)

>  <Rbt.Parameter_File>
/export/apps/rDock/src/rDock_2013.1_src/data/scripts/dock_solv.prm

>  <Rbt.Receptor>
prm/blind_docking_100.prm

>  <SCORE>
-22.1527

>  <SCORE.INTER>
-18.6523

>  <SCORE.INTER.CONST>
1

>  <SCORE.INTER.POLAR>
-3.06087

>  <SCORE.INTER.ROT>
18

>  <SCORE.INTER.SOLV>
11.7078

>  <SCORE.INTER.VDW>
-21.7346

>  <SCORE.INTER.norm>
-0.746093

>  <SCORE.INTRA>
-6.57723

>  <SCORE.INTRA.DIHEDRAL>
-3.57496

>  <SCORE.INTRA.DIHEDRAL.0>
30.6762

>  <SCORE.INTRA.POLAR>
-0.971134

>  <SCORE.INTRA.POLAR.0>
-0.0288659

>  <SCORE.INTRA.REPUL>
0

>  <SCORE.INTRA.REPUL.0>
0

>  <SCORE.INTRA.SOLV>
1.81756

>  <SCORE.INTRA.SOLV.lig_0>
-25.2195

>  <SCORE.INTRA.VDW>
-2.39668

>  <SCORE.INTRA.VDW.0>
4.14263

>  <SCORE.INTRA.norm>
-0.263089

>  <SCORE.RESTR>
3.0768

>  <SCORE.RESTR.CAVITY>
3.0768

>  <SCORE.RESTR.norm>
0.123072

>  <SCORE.SYSTEM>
0

>  <SCORE.SYSTEM.CONST>
0

>  <SCORE.SYSTEM.DIHEDRAL>
0

>  <SCORE.SYSTEM.SOLV>
0

>  <SCORE.SYSTEM.norm>
0

>  <SCORE.heavy>
25

>  <SCORE.norm>
-0.88611

>  <RMSD>
14.383

$$$$
1uud_lig
 OpenBabel11021811413D
libRbt.so/2013.1/901 2013/11/27
 25 25  0  0  0  0  0  0  0  0999 V2000
   -6.3454  -10.0857    7.4761 C   0  0  0  0  0  0  0  0  0  0  0  0
   -5.4952  -12.7902    8.2281 O   0  0  0  0  0  0  0  0  0  0  0  0
   -4.6853  -12.3349    9.3222 C   0  0  0  0  0  0  0  0  0  0  0  0
   -5.6511   -9.3413    8.5558 N   0  0  0  0  0  0  0  0  0  0  0  0
   -4.4957  -13.4627   10.3456 C   0  0  0  0  0  0  0  0  0  0  0  0
   -6.4621   -8.1677    8.9581 C   0  0  0  0  0  0  0  0  0  0  0  0
   -5.9378   -7.6138   10.2885 C   0  0  0  0  0  0  0  0  0  0  0  0
   -4.5786  -12.9801   11.5626 N   0  0  0  0  0  0  0  0  0  0  0  0
   -5.7241  -12.9534   12.2178 C   0  0  0  0  0  0  0  0  0  0  0  0
   -6.4602   -8.4663   11.4500 C   0  0  0  0  0  0  0  0  0  0  0  0
   -6.7222   -7.5710   12.6645 C   0  0  0  0  0  0  0  0  0  0  0  0
   -6.0818  -13.9588   13.0732 N   0  0  0  0  0  0  0  0  0  0  0  0
   -6.5671  -11.9042   12.0371 N   0  0  0  0  0  0  0  0  0  0  0  0
   -5.5844   -7.1300   13.1465 N   0  0  0  0  0  0  0  0  0  0  0  0
   -4.7563   -7.9255   13.7959 C   0  0  0  0  0  0  0  0  0  0  0  0
   -3.4248   -7.8442   13.5428 N   0  0  0  0  0  0  0  0  0  0  0  0
   -5.2081   -8.8356   14.7089 N   0  0  0  0  0  0  0  0  0  0  0  0
   -6.8632  -12.4187    8.4402 C   0  0  0  0  0  0  0  0  0  0  0  0
  -10.9343  -11.3179    9.1221 O   0  0  0  0  0  0  0  0  0  0  0  0
   -7.3165  -11.1132    8.0937 C   0  0  0  0  0  0  0  0  0  0  0  0
   -8.6688  -10.7471    8.3295 C   0  0  0  0  0  0  0  0  0  0  0  0
   -9.5728  -11.6876    8.8897 C   0  0  0  0  0  0  0  0  0  0  0  0
   -9.1264  -12.9961    9.2174 C   0  0  0  0  0  0  0  0  0  0  0  0
   -7.7735  -13.3655    8.9866 C   0  0  0  0  0  0  0  0  0  0  0  0
  -11.6020  -11.1364    7.8700 C   0  0  0  0  0  0  0  0  0  0  0  0
  1  4  1  0  0  0  0
  2  3  1  0  0  0  0
  3  5  1  0  0  0  0
  4  6  1  0  0  0  0
  5  8  1  0  0  0  0
  6  7  1  0  0  0  0
  7 10  1  0  0  0  0
  8  9  1  0  0  0  0
  9 12  1  0  0  0  0
  9 13  1  0  0  0  0
 10 11  1  0  0  0  0
 11 14  1  0  0  0  0
 14 15  1  0  0  0  0
 15 16  1  0  0  0  0
 15 17  1  0  0  0  0
 18  2  1  0  0  0  0
 18 20  2  0  0  0  0
 18 24  1  0  0  0  0
 19 25  1  0  0  0  0
 20  1  1  0  0  0  0
 20 21  1  0  0  0  0
 21 22  2  0  0  0  0
 22 19  1  0  0  0  0
 22 23  1  0  0  0  0
 23 24  2  0  0  0  0
M  END
>  <CHROM.1>
-87.40598865,95.93899608,-139.46302829,165.66949638,92.20395695,-79.47303836
-145.11327839,94.19927911,-23.99856365,54.68801289,-69.00937186,-72.06293193
137.32332363,68.69444954,-37.56402649,82.96071557,-87.37310980,68.48415277
-6.59420731,-10.69755913,10.48885057,2.41658177,0.77996118,-2.90267149

>  <Name>
1uud_lig

>  <RI>
0

>  <Rbt.Current_Directory>
/home/itssahil/PROJECTS/Mol_Feturizer/New_Systems/rnas/1uud

>  <Rbt.Executable>
rbdock ($Id: //depot/dev/client3/rdock/2013.1/src/exe/rbdock.cxx#4 $)

>  <Rbt.Library>
libRbt.so (2013.1, Build901 2013/11/27)

>  <Rbt.Parameter_File>
/export/apps/rDock/src/rDock_2013.1_src/data/scripts/dock_solv.prm

>  <Rbt.Receptor>
prm/blind_docking_60.prm

>  <SCORE>
-16.817

>  <SCORE.INTER>
-14.2935

>  <SCORE.INTER.CONST>
1

>  <SCORE.INTER.POLAR>
-1.85908

>  <SCORE.INTER.ROT>
18

>  <SCORE.INTER.SOLV>
8.14026

>  <SCORE.INTER.VDW>
-21.6455

>  <SCORE.INTER.norm>
-0.571739

>  <SCORE.INTRA>
-4.25181

>  <SCORE.INTRA.DIHEDRAL>
4.92874

>  <SCORE.INTRA.DIHEDRAL.0>
30.6762

>  <SCORE.INTRA.POLAR>
0.0288659

>  <SCORE.INTRA.POLAR.0>
-0.0288659

>  <SCORE.INTRA.REPUL>
0

>  <SCORE.INTRA.REPUL.0>
0

>  <SCORE.INTRA.SOLV>
0.371935

>  <SCORE.INTRA.SOLV.lig_0>
-25.2195

>  <SCORE.INTRA.VDW>
-7.00029

>  <SCORE.INTRA.VDW.0>
4.14263

>  <SCORE.INTRA.norm>
-0.170072

>  <SCORE.RESTR>
1.72827

>  <SCORE.RESTR.CAVITY>
1.72827

>  <SCORE.RESTR.norm>
0.0691309

>  <SCORE.SYSTEM>
0

>  <SCORE.SYSTEM.CONST>
0

>  <SCORE.SYSTEM.DIHEDRAL>
0

>  <SCORE.SYSTEM.SOLV>
0

>  <SCORE.SYSTEM.norm>
0

>  <SCORE.heavy>
25

>  <SCORE.norm>
-0.67268

>  <RMSD>
14.387

$$$$
1uud_lig
 OpenBabel11021811413D
libRbt.so/2013.1/901 2013/11/27
 25 25  0  0  0  0  0  0  0  0999 V2000
   -6.7730   -9.1185   10.0809 C   0  0  0  0  0  0  0  0  0  0  0  0
   -8.6933  -10.2158    8.1545 O   0  0  0  0  0  0  0  0  0  0  0  0
   -9.8543  -10.8438    7.5907 C   0  0  0  0  0  0  0  0  0  0  0  0
   -7.4138   -8.5365   11.2863 N   0  0  0  0  0  0  0  0  0  0  0  0
  -10.3497  -10.0473    6.3761 C   0  0  0  0  0  0  0  0  0  0  0  0
   -6.5345   -8.7274   12.4640 C   0  0  0  0  0  0  0  0  0  0  0  0
   -5.3120   -7.8092   12.3454 C   0  0  0  0  0  0  0  0  0  0  0  0
  -11.4753  -10.5575    5.9361 N   0  0  0  0  0  0  0  0  0  0  0  0
  -12.3900  -11.0272    6.7635 C   0  0  0  0  0  0  0  0  0  0  0  0
   -4.0347   -8.6004   12.6472 C   0  0  0  0  0  0  0  0  0  0  0  0
   -3.9303   -9.7892   11.6874 C   0  0  0  0  0  0  0  0  0  0  0  0
  -12.6639  -12.3649    6.8414 N   0  0  0  0  0  0  0  0  0  0  0  0
  -13.0757  -10.1621    7.5545 N   0  0  0  0  0  0  0  0  0  0  0  0
   -2.7932  -10.4157   11.8763 N   0  0  0  0  0  0  0  0  0  0  0  0
   -2.7568  -11.6816   12.2459 C   0  0  0  0  0  0  0  0  0  0  0  0
   -3.5636  -12.5773   11.6212 N   0  0  0  0  0  0  0  0  0  0  0  0
   -1.9340  -12.1099   13.2488 N   0  0  0  0  0  0  0  0  0  0  0  0
   -8.0330  -11.1172    9.0524 C   0  0  0  0  0  0  0  0  0  0  0  0
   -6.0437  -13.8269   11.6888 O   0  0  0  0  0  0  0  0  0  0  0  0
   -7.0893  -10.6264   10.0002 C   0  0  0  0  0  0  0  0  0  0  0  0
   -6.4230  -11.5308   10.8699 C   0  0  0  0  0  0  0  0  0  0  0  0
   -6.7127  -12.9192   10.8095 C   0  0  0  0  0  0  0  0  0  0  0  0
   -7.6682  -13.4073    9.8779 C   0  0  0  0  0  0  0  0  0  0  0  0
   -8.3345  -12.5066    9.0035 C   0  0  0  0  0  0  0  0  0  0  0  0
   -6.7975  -13.9673   12.8966 C   0  0  0  0  0  0  0  0  0  0  0  0
  1  4  1  0  0  0  0
  2  3  1  0  0  0  0
  3  5  1  0  0  0  0
  4  6  1  0  0  0  0
  5  8  1  0  0  0  0
  6  7  1  0  0  0  0
  7 10  1  0  0  0  0
  8  9  1  0  0  0  0
  9 12  1  0  0  0  0
  9 13  1  0  0  0  0
 10 11  1  0  0  0  0
 11 14  1  0  0  0  0
 14 15  1  0  0  0  0
 15 16  1  0  0  0  0
 15 17  1  0  0  0  0
 18  2  1  0  0  0  0
 18 20  2  0  0  0  0
 18 24  1  0  0  0  0
 19 25  1  0  0  0  0
 20  1  1  0  0  0  0
 20 21  1  0  0  0  0
 21 22  2  0  0  0  0
 22 19  1  0  0  0  0
 22 23  1  0  0  0  0
 23 24  2  0  0  0  0
M  END
>  <CHROM.1>
85.02140937,-165.22490626,-174.52107537,71.21459737,37.57782999,-132.93806470
57.54738829,-110.95640291,-132.55683300,178.12822665,175.53660460,119.40638810
45.56502290,-103.90403505,-122.85128891,-162.81807774,105.60544260,90.03007972
-7.23801578,-10.97771074,10.12292765,-0.01200648,-0.60293843,-0.00994539

>  <Name>
1uud_lig

>  <RI>
0

>  <Rbt.Current_Directory>
/home/itssahil/PROJECTS/Mol_Feturizer/New_Systems/rnas/1uud

>  <Rbt.Executable>
rbdock ($Id: //depot/dev/client3/rdock/2013.1/src/exe/rbdock.cxx#4 $)

>  <Rbt.Library>
libRbt.so (2013.1, Build901 2013/11/27)

>  <Rbt.Parameter_File>
/export/apps/rDock/src/rDock_2013.1_src/data/scripts/dock_solv.prm

>  <Rbt.Receptor>
prm/blind_docking_40.prm

>  <SCORE>
-21.8566

>  <SCORE.INTER>
-19.9391

>  <SCORE.INTER.CONST>
1

>  <SCORE.INTER.POLAR>
-3.00072

>  <SCORE.INTER.ROT>
18

>  <SCORE.INTER.SOLV>
10.3946

>  <SCORE.INTER.VDW>
-22.3552

>  <SCORE.INTER.norm>
-0.797564

>  <SCORE.INTRA>
-2.9872

>  <SCORE.INTRA.DIHEDRAL>
-7.39856

>  <SCORE.INTRA.DIHEDRAL.0>
30.6762

>  <SCORE.INTRA.POLAR>
-0.767802

>  <SCORE.INTRA.POLAR.0>
-0.0288659

>  <SCORE.INTRA.REPUL>
0.123029

>  <SCORE.INTRA.REPUL.0>
0

>  <SCORE.INTRA.SOLV>
0.217666

>  <SCORE.INTRA.SOLV.lig_0>
-25.2195

>  <SCORE.INTRA.VDW>
2.59863

>  <SCORE.INTRA.VDW.0>
4.14263

>  <SCORE.INTRA.norm>
-0.119488

>  <SCORE.RESTR>
1.06974

>  <SCORE.RESTR.CAVITY>
1.06974

>  <SCORE.RESTR.norm>
0.0427896

>  <SCORE.SYSTEM>
0

>  <SCORE.SYSTEM.CONST>
0

>  <SCORE.SYSTEM.DIHEDRAL>
0

>  <SCORE.SYSTEM.SOLV>
0

>  <SCORE.SYSTEM.norm>
0

>  <SCORE.heavy>
25

>  <SCORE.norm>
-0.874263

>  <RMSD>
14.396

$$$$
1uud_lig
 OpenBabel11021811413D
libRbt.so/2013.1/901 2013/11/27
 25 25  0  0  0  0  0  0  0  0999 V2000
   -7.7750  -13.3249    7.9639 C   0  0  0  0  0  0  0  0  0  0  0  0
   -9.3112  -10.8575    8.3570 O   0  0  0  0  0  0  0  0  0  0  0  0
   -9.3844  -10.4314    6.9883 C   0  0  0  0  0  0  0  0  0  0  0  0
   -9.1120  -13.5969    8.5475 N   0  0  0  0  0  0  0  0  0  0  0  0
  -10.7107  -10.8843    6.3630 C   0  0  0  0  0  0  0  0  0  0  0  0
   -8.9731  -14.4764    9.7325 C   0  0  0  0  0  0  0  0  0  0  0  0
   -9.5869  -13.7874   10.9573 C   0  0  0  0  0  0  0  0  0  0  0  0
  -11.7109  -10.5407    7.1390 N   0  0  0  0  0  0  0  0  0  0  0  0
  -12.4594  -11.4456    7.7413 C   0  0  0  0  0  0  0  0  0  0  0  0
   -8.7681  -14.1224   12.2086 C   0  0  0  0  0  0  0  0  0  0  0  0
   -7.5097  -13.2505   12.2452 C   0  0  0  0  0  0  0  0  0  0  0  0
  -11.9044  -12.4946    8.4211 N   0  0  0  0  0  0  0  0  0  0  0  0
  -13.8115  -11.3330    7.6835 N   0  0  0  0  0  0  0  0  0  0  0  0
   -6.5919  -13.7598   11.4582 N   0  0  0  0  0  0  0  0  0  0  0  0
   -5.3513  -13.9373   11.8705 C   0  0  0  0  0  0  0  0  0  0  0  0
   -4.3452  -13.9452   10.9588 N   0  0  0  0  0  0  0  0  0  0  0  0
   -5.0570  -14.1233   13.1914 N   0  0  0  0  0  0  0  0  0  0  0  0
   -7.9453  -10.8900    8.7902 C   0  0  0  0  0  0  0  0  0  0  0  0
   -3.8895  -10.9796   10.1291 O   0  0  0  0  0  0  0  0  0  0  0  0
   -7.1651  -12.0703    8.6229 C   0  0  0  0  0  0  0  0  0  0  0  0
   -5.8192  -12.1000    9.0767 C   0  0  0  0  0  0  0  0  0  0  0  0
   -5.2456  -10.9484    9.6769 C   0  0  0  0  0  0  0  0  0  0  0  0
   -6.0169   -9.7645    9.8265 C   0  0  0  0  0  0  0  0  0  0  0  0
   -7.3649   -9.7314    9.3772 C   0  0  0  0  0  0  0  0  0  0  0  0
   -3.8616  -10.9993   11.5593 C   0  0  0  0  0  0  0  0  0  0  0  0
  1  4  1  0  0  0  0
  2  3  1  0  0  0  0
  3  5  1  0  0  0  0
  4  6  1  0  0  0  0
  5  8  1  0  0  0  0
  6  7  1  0  0  0  0
  7 10  1  0  0  0  0
  8  9  1  0  0  0  0
  9 12  1  0  0  0  0
  9 13  1  0  0  0  0
 10 11  1  0  0  0  0
 11 14  1  0  0  0  0
 14 15  1  0  0  0  0
 15 16  1  0  0  0  0
 15 17  1  0  0  0  0
 18  2  1  0  0  0  0
 18 20  2  0  0  0  0
 18 24  1  0  0  0  0
 19 25  1  0  0  0  0
 20  1  1  0  0  0  0
 20 21  1  0  0  0  0
 21 22  2  0  0  0  0
 22 19  1  0  0  0  0
 22 23  1  0  0  0  0
 23 24  2  0  0  0  0
M  END
>  <CHROM.1>
-89.33651650,158.74293413,50.19107334,122.70708032,-114.19437652,-144.20455209
79.09566842,47.66224085,-59.75637975,47.32069582,-80.60988811,-131.00412638
-153.93579268,141.23016742,6.15910331,-89.17074809,-46.45905395,-107.99049463
-8.02212706,-12.18564014,9.56930344,-2.67489646,0.29719432,2.43730256

>  <Name>
1uud_lig

>  <RI>
0

>  <Rbt.Current_Directory>
/home/itssahil/PROJECTS/Mol_Feturizer/New_Systems/rnas/1uud

>  <Rbt.Executable>
rbdock ($Id: //depot/dev/client3/rdock/2013.1/src/exe/rbdock.cxx#4 $)

>  <Rbt.Library>
libRbt.so (2013.1, Build901 2013/11/27)

>  <Rbt.Parameter_File>
/export/apps/rDock/src/rDock_2013.1_src/data/scripts/dock_solv.prm

>  <Rbt.Receptor>
prm/blind_docking_100.prm

>  <SCORE>
-20.8007

>  <SCORE.INTER>
-18.2889

>  <SCORE.INTER.CONST>
1

>  <SCORE.INTER.POLAR>
-3.91982

>  <SCORE.INTER.ROT>
18

>  <SCORE.INTER.SOLV>
9.61558

>  <SCORE.INTER.VDW>
-17.9317

>  <SCORE.INTER.norm>
-0.731556

>  <SCORE.INTRA>
-5.18566

>  <SCORE.INTRA.DIHEDRAL>
2.93308

>  <SCORE.INTRA.DIHEDRAL.0>
30.6762

>  <SCORE.INTRA.POLAR>
-0.778059

>  <SCORE.INTRA.POLAR.0>
-0.0288659

>  <SCORE.INTRA.REPUL>
0

>  <SCORE.INTRA.REPUL.0>
0

>  <SCORE.INTRA.SOLV>
3.23979

>  <SCORE.INTRA.SOLV.lig_0>
-25.2195

>  <SCORE.INTRA.VDW>
-5.62669

>  <SCORE.INTRA.VDW.0>
4.14263

>  <SCORE.INTRA.norm>
-0.207426

>  <SCORE.RESTR>
2.67391

>  <SCORE.RESTR.CAVITY>
2.67391

>  <SCORE.RESTR.norm>
0.106956

>  <SCORE.SYSTEM>
0

>  <SCORE.SYSTEM.CONST>
0

>  <SCORE.SYSTEM.DIHEDRAL>
0

>  <SCORE.SYSTEM.SOLV>
0

>  <SCORE.SYSTEM.norm>
0

>  <SCORE.heavy>
25

>  <SCORE.norm>
-0.832026

>  <RMSD>
14.408

$$$$
1uud_lig
 OpenBabel11021811413D
libRbt.so/2013.1/901 2013/11/27
 25 25  0  0  0  0  0  0  0  0999 V2000
   -7.3039  -13.0396    8.1352 C   0  0  0  0  0  0  0  0  0  0  0  0
   -8.2879  -14.4855   10.4897 O   0  0  0  0  0  0  0  0  0  0  0  0
   -7.9201  -13.8087   11.7009 C   0  0  0  0  0  0  0  0  0  0  0  0
   -6.5951  -11.7940    8.5205 N   0  0  0  0  0  0  0  0  0  0  0  0
   -6.6652  -14.4517   12.3065 C   0  0  0  0  0  0  0  0  0  0  0  0
   -6.4688  -11.7240    9.9956 C   0  0  0  0  0  0  0  0  0  0  0  0
   -6.6900  -10.2798   10.4613 C   0  0  0  0  0  0  0  0  0  0  0  0
   -5.6056  -14.0976   11.6191 N   0  0  0  0  0  0  0  0  0  0  0  0
   -4.7062  -13.2688   12.1155 C   0  0  0  0  0  0  0  0  0  0  0  0
   -5.5664   -9.3830    9.9301 C   0  0  0  0  0  0  0  0  0  0  0  0
   -5.9218   -7.9147   10.1809 C   0  0  0  0  0  0  0  0  0  0  0  0
   -3.8189  -12.6106   11.3093 N   0  0  0  0  0  0  0  0  0  0  0  0
   -4.6602  -13.0663   13.4575 N   0  0  0  0  0  0  0  0  0  0  0  0
   -5.0762   -7.1372    9.5472 N   0  0  0  0  0  0  0  0  0  0  0  0
   -5.3601   -6.6309    8.3625 C   0  0  0  0  0  0  0  0  0  0  0  0
   -4.3628   -6.0874    7.6183 N   0  0  0  0  0  0  0  0  0  0  0  0
   -6.6350   -6.6315    7.8719 N   0  0  0  0  0  0  0  0  0  0  0  0
   -9.2128  -13.6868    9.7407 C   0  0  0  0  0  0  0  0  0  0  0  0
  -11.9767  -11.2770    7.5489 O   0  0  0  0  0  0  0  0  0  0  0  0
   -8.7751  -12.9641    8.5935 C   0  0  0  0  0  0  0  0  0  0  0  0
   -9.6946  -12.1569    7.8715 C   0  0  0  0  0  0  0  0  0  0  0  0
  -11.0525  -12.0870    8.2798 C   0  0  0  0  0  0  0  0  0  0  0  0
  -11.4943  -12.8228    9.4122 C   0  0  0  0  0  0  0  0  0  0  0  0
  -10.5771  -13.6289   10.1396 C   0  0  0  0  0  0  0  0  0  0  0  0
  -12.6025  -10.3450    8.4357 C   0  0  0  0  0  0  0  0  0  0  0  0
  1  4  1  0  0  0  0
  2  3  1  0  0  0  0
  3  5  1  0  0  0  0
  4  6  1  0  0  0  0
  5  8  1  0  0  0  0
  6  7  1  0  0  0  0
  7 10  1  0  0  0  0
  8  9  1  0  0  0  0
  9 12  1  0  0  0  0
  9 13  1  0  0  0  0
 10 11  1  0  0  0  0
 11 14  1  0  0  0  0
 14 15  1  0  0  0  0
 15 16  1  0  0  0  0
 15 17  1  0  0  0  0
 18  2  1  0  0  0  0
 18 20  2  0  0  0  0
 18 24  1  0  0  0  0
 19 25  1  0  0  0  0
 20  1  1  0  0  0  0
 20 21  1  0  0  0  0
 21 22  2  0  0  0  0
 22 19  1  0  0  0  0
 22 23  1  0  0  0  0
 23 24  2  0  0  0  0
M  END
>  <CHROM.1>
68.06307049,-164.36844855,75.19872430,-140.80106200,109.26742189,-65.42832944
169.88664572,-161.61279115,-7.06132710,-76.46703704,-170.08196186,96.69537810
-165.46200946,75.29785632,73.31694643,103.41350072,-103.71178745,-124.41980719
-7.39460300,-11.35115328,9.75120477,2.24700591,0.40335711,2.67355208

>  <Name>
1uud_lig

>  <RI>
0

>  <Rbt.Current_Directory>
/home/itssahil/PROJECTS/Mol_Feturizer/New_Systems/rnas/1uud

>  <Rbt.Executable>
rbdock ($Id: //depot/dev/client3/rdock/2013.1/src/exe/rbdock.cxx#4 $)

>  <Rbt.Library>
libRbt.so (2013.1, Build901 2013/11/27)

>  <Rbt.Parameter_File>
/export/apps/rDock/src/rDock_2013.1_src/data/scripts/dock_solv.prm

>  <Rbt.Receptor>
prm/blind_docking_100.prm

>  <SCORE>
-24.5237

>  <SCORE.INTER>
-20.6088

>  <SCORE.INTER.CONST>
1

>  <SCORE.INTER.POLAR>
-4.5781

>  <SCORE.INTER.ROT>
18

>  <SCORE.INTER.SOLV>
10.3733

>  <SCORE.INTER.VDW>
-17.5366

>  <SCORE.INTER.norm>
-0.824352

>  <SCORE.INTRA>
-6.86357

>  <SCORE.INTRA.DIHEDRAL>
-6.82161

>  <SCORE.INTRA.DIHEDRAL.0>
30.6762

>  <SCORE.INTRA.POLAR>
0.0288659

>  <SCORE.INTRA.POLAR.0>
-0.0288659

>  <SCORE.INTRA.REPUL>
0

>  <SCORE.INTRA.REPUL.0>
0

>  <SCORE.INTRA.SOLV>
0.416448

>  <SCORE.INTRA.SOLV.lig_0>
-25.2195

>  <SCORE.INTRA.VDW>
-3.75913

>  <SCORE.INTRA.VDW.0>
4.14263

>  <SCORE.INTRA.norm>
-0.274543

>  <SCORE.RESTR>
2.94871

>  <SCORE.RESTR.CAVITY>
2.94871

>  <SCORE.RESTR.norm>
0.117948

>  <SCORE.SYSTEM>
0

>  <SCORE.SYSTEM.CONST>
0

>  <SCORE.SYSTEM.DIHEDRAL>
0

>  <SCORE.SYSTEM.SOLV>
0

>  <SCORE.SYSTEM.norm>
0

>  <SCORE.heavy>
25

>  <SCORE.norm>
-0.980947

>  <RMSD>
14.418

$$$$
1uud_lig
 OpenBabel11021811413D
libRbt.so/2013.1/901 2013/11/27
 25 25  0  0  0  0  0  0  0  0999 V2000
   -4.0310  -11.2061   11.0452 C   0  0  0  0  0  0  0  0  0  0  0  0
   -4.4973  -11.0504    8.1536 O   0  0  0  0  0  0  0  0  0  0  0  0
   -5.5088  -11.7740    7.4370 C   0  0  0  0  0  0  0  0  0  0  0  0
   -2.9802  -10.5844   11.8886 N   0  0  0  0  0  0  0  0  0  0  0  0
   -6.4164  -12.5276    8.4185 C   0  0  0  0  0  0  0  0  0  0  0  0
   -2.2075  -11.6390   12.5868 C   0  0  0  0  0  0  0  0  0  0  0  0
   -0.9365  -11.0291   13.1901 C   0  0  0  0  0  0  0  0  0  0  0  0
   -7.5323  -12.8717    7.8210 N   0  0  0  0  0  0  0  0  0  0  0  0
   -8.6136  -13.1890    8.5082 C   0  0  0  0  0  0  0  0  0  0  0  0
   -1.0052  -11.0888   14.7200 C   0  0  0  0  0  0  0  0  0  0  0  0
   -0.9523   -9.6686   15.2904 C   0  0  0  0  0  0  0  0  0  0  0  0
   -9.7666  -12.4608    8.4029 N   0  0  0  0  0  0  0  0  0  0  0  0
   -8.5799  -14.2621    9.3397 N   0  0  0  0  0  0  0  0  0  0  0  0
    0.2199   -9.1332   15.0445 N   0  0  0  0  0  0  0  0  0  0  0  0
    0.3539   -7.8400   14.8209 C   0  0  0  0  0  0  0  0  0  0  0  0
    1.5828   -7.2730   14.9296 N   0  0  0  0  0  0  0  0  0  0  0  0
   -0.7162   -7.0568   14.4929 N   0  0  0  0  0  0  0  0  0  0  0  0
   -5.1031  -10.0641    8.9990 C   0  0  0  0  0  0  0  0  0  0  0  0
   -6.9544   -7.1406   11.5043 O   0  0  0  0  0  0  0  0  0  0  0  0
   -4.9065  -10.1063   10.4095 C   0  0  0  0  0  0  0  0  0  0  0  0
   -5.5302   -9.1378   11.2409 C   0  0  0  0  0  0  0  0  0  0  0  0
   -6.3311   -8.1166   10.6655 C   0  0  0  0  0  0  0  0  0  0  0  0
   -6.5119   -8.0621    9.2572 C   0  0  0  0  0  0  0  0  0  0  0  0
   -5.8927   -9.0310    8.4219 C   0  0  0  0  0  0  0  0  0  0  0  0
   -7.6265   -7.7957   12.5840 C   0  0  0  0  0  0  0  0  0  0  0  0
  1  4  1  0  0  0  0
  2  3  1  0  0  0  0
  3  5  1  0  0  0  0
  4  6  1  0  0  0  0
  5  8  1  0  0  0  0
  6  7  1  0  0  0  0
  7 10  1  0  0  0  0
  8  9  1  0  0  0  0
  9 12  1  0  0  0  0
  9 13  1  0  0  0  0
 10 11  1  0  0  0  0
 11 14  1  0  0  0  0
 14 15  1  0  0  0  0
 15 16  1  0  0  0  0
 15 17  1  0  0  0  0
 18  2  1  0  0  0  0
 18 20  2  0  0  0  0
 18 24  1  0  0  0  0
 19 25  1  0  0  0  0
 20  1  1  0  0  0  0
 20 21  1  0  0  0  0
 21 22  2  0  0  0  0
 22 19  1  0  0  0  0
 22 23  1  0  0  0  0
 23 24  2  0  0  0  0
M  END
>  <CHROM.1>
175.43468269,-62.44314545,162.50537451,166.97996693,-160.92702510,114.02853716
-119.05378477,117.82658582,94.97975413,-139.83840623,-66.28563688,146.93503629
162.33997886,134.13295768,25.53450386,119.82405023,126.00141266,-48.82429639
-4.39813434,-10.17389167,11.20366696,-2.61439706,-0.54307867,0.36180539

>  <Name>
1uud_lig

>  <RI>
0

>  <Rbt.Current_Directory>
/home/itssahil/PROJECTS/Mol_Feturizer/New_Systems/rnas/1uud

>  <Rbt.Executable>
rbdock ($Id: //depot/dev/client3/rdock/2013.1/src/exe/rbdock.cxx#4 $)

>  <Rbt.Library>
libRbt.so (2013.1, Build901 2013/11/27)

>  <Rbt.Parameter_File>
/export/apps/rDock/src/rDock_2013.1_src/data/scripts/dock_solv.prm

>  <Rbt.Receptor>
prm/blind_docking_80.prm

>  <SCORE>
-38.88

>  <SCORE.INTER>
-38.7856

>  <SCORE.INTER.CONST>
1

>  <SCORE.INTER.POLAR>
-6.56884

>  <SCORE.INTER.ROT>
18

>  <SCORE.INTER.SOLV>
13.7626

>  <SCORE.INTER.VDW>
-24.1485

>  <SCORE.INTER.norm>
-1.55142

>  <SCORE.INTRA>
-1.7247

>  <SCORE.INTRA.DIHEDRAL>
-0.809545

>  <SCORE.INTRA.DIHEDRAL.0>
30.6762

>  <SCORE.INTRA.POLAR>
0.0288659

>  <SCORE.INTRA.POLAR.0>
-0.0288659

>  <SCORE.INTRA.REPUL>
0

>  <SCORE.INTRA.REPUL.0>
0

>  <SCORE.INTRA.SOLV>
-1.21177

>  <SCORE.INTRA.SOLV.lig_0>
-25.2195

>  <SCORE.INTRA.VDW>
-0.812187

>  <SCORE.INTRA.VDW.0>
4.14263

>  <SCORE.INTRA.norm>
-0.0689881

>  <SCORE.RESTR>
1.63027

>  <SCORE.RESTR.CAVITY>
1.63027

>  <SCORE.RESTR.norm>
0.0652106

>  <SCORE.SYSTEM>
0

>  <SCORE.SYSTEM.CONST>
0

>  <SCORE.SYSTEM.DIHEDRAL>
0

>  <SCORE.SYSTEM.SOLV>
0

>  <SCORE.SYSTEM.norm>
0

>  <SCORE.heavy>
25

>  <SCORE.norm>
-1.5552

>  <RMSD>
14.468

$$$$
1uud_lig
 OpenBabel11021811413D
libRbt.so/2013.1/901 2013/11/27
 25 25  0  0  0  0  0  0  0  0999 V2000
   -7.4847   -9.9668    9.7681 C   0  0  0  0  0  0  0  0  0  0  0  0
   -5.7410  -11.9813    8.5417 O   0  0  0  0  0  0  0  0  0  0  0  0
   -4.9354  -12.9470    9.2336 C   0  0  0  0  0  0  0  0  0  0  0  0
   -6.2576   -9.6195    9.0093 N   0  0  0  0  0  0  0  0  0  0  0  0
   -4.4964  -12.3920   10.5953 C   0  0  0  0  0  0  0  0  0  0  0  0
   -6.0572   -8.1511    9.0235 C   0  0  0  0  0  0  0  0  0  0  0  0
   -4.5704   -7.8343    8.8219 C   0  0  0  0  0  0  0  0  0  0  0  0
   -5.5290  -12.3162   11.4008 N   0  0  0  0  0  0  0  0  0  0  0  0
   -5.4836  -11.6123   12.5164 C   0  0  0  0  0  0  0  0  0  0  0  0
   -3.7624   -8.3396   10.0221 C   0  0  0  0  0  0  0  0  0  0  0  0
   -3.8394   -7.3158   11.1583 C   0  0  0  0  0  0  0  0  0  0  0  0
   -6.1125  -10.4025   12.6242 N   0  0  0  0  0  0  0  0  0  0  0  0
   -4.7957  -12.1000   13.5809 N   0  0  0  0  0  0  0  0  0  0  0  0
   -4.8752   -7.5738   11.9210 N   0  0  0  0  0  0  0  0  0  0  0  0
   -4.8277   -7.4047   13.2285 C   0  0  0  0  0  0  0  0  0  0  0  0
   -3.6502   -7.5919   13.8781 N   0  0  0  0  0  0  0  0  0  0  0  0
   -5.9375   -7.0561   13.9448 N   0  0  0  0  0  0  0  0  0  0  0  0
   -7.1309  -12.2892    8.7090 C   0  0  0  0  0  0  0  0  0  0  0  0
  -11.2609  -13.2448    9.2384 O   0  0  0  0  0  0  0  0  0  0  0  0
   -8.0115  -11.3409    9.3049 C   0  0  0  0  0  0  0  0  0  0  0  0
   -9.3827  -11.6647    9.4874 C   0  0  0  0  0  0  0  0  0  0  0  0
   -9.8795  -12.9231    9.0572 C   0  0  0  0  0  0  0  0  0  0  0  0
   -9.0061  -13.8619    8.4450 C   0  0  0  0  0  0  0  0  0  0  0  0
   -7.6329  -13.5436    8.2637 C   0  0  0  0  0  0  0  0  0  0  0  0
  -12.0704  -12.2851    8.5527 C   0  0  0  0  0  0  0  0  0  0  0  0
  1  4  1  0  0  0  0
  2  3  1  0  0  0  0
  3  5  1  0  0  0  0
  4  6  1  0  0  0  0
  5  8  1  0  0  0  0
  6  7  1  0  0  0  0
  7 10  1  0  0  0  0
  8  9  1  0  0  0  0
  9 12  1  0  0  0  0
  9 13  1  0  0  0  0
 10 11  1  0  0  0  0
 11 14  1  0  0  0  0
 14 15  1  0  0  0  0
 15 16  1  0  0  0  0
 15 17  1  0  0  0  0
 18  2  1  0  0  0  0
 18 20  2  0  0  0  0
 18 24  1  0  0  0  0
 19 25  1  0  0  0  0
 20  1  1  0  0  0  0
 20 21  1  0  0  0  0
 21 22  2  0  0  0  0
 22 19  1  0  0  0  0
 22 23  1  0  0  0  0
 23 24  2  0  0  0  0
M  END
>  <CHROM.1>
157.31462729,-98.67945805,69.97069833,155.06461351,-165.12658304,-65.91809100
-82.09960016,105.01297186,87.22835337,-159.56352203,89.38083023,143.15400487
-31.54168185,150.91017761,-51.35606016,121.17669621,24.13298835,59.15719685
-6.46794037,-10.57971754,10.48503206,2.48894999,0.63421781,3.11591859

>  <Name>
1uud_lig

>  <RI>
0

>  <Rbt.Current_Directory>
/home/itssahil/PROJECTS/Mol_Feturizer/New_Systems/rnas/1uud

>  <Rbt.Executable>
rbdock ($Id: //depot/dev/client3/rdock/2013.1/src/exe/rbdock.cxx#4 $)

>  <Rbt.Library>
libRbt.so (2013.1, Build901 2013/11/27)

>  <Rbt.Parameter_File>
/export/apps/rDock/src/rDock_2013.1_src/data/scripts/dock_solv.prm

>  <Rbt.Receptor>
prm/blind_docking_60.prm

>  <SCORE>
-12.4371

>  <SCORE.INTER>
-8.19151

>  <SCORE.INTER.CONST>
1

>  <SCORE.INTER.POLAR>
-2.37831

>  <SCORE.INTER.ROT>
18

>  <SCORE.INTER.SOLV>
9.03305

>  <SCORE.INTER.VDW>
-16.1443

>  <SCORE.INTER.norm>
-0.32766

>  <SCORE.INTRA>
-6.14286

>  <SCORE.INTRA.DIHEDRAL>
-0.630034

>  <SCORE.INTRA.DIHEDRAL.0>
30.6762

>  <SCORE.INTRA.POLAR>
-0.971134

>  <SCORE.INTRA.POLAR.0>
-0.0288659

>  <SCORE.INTRA.REPUL>
0.0231332

>  <SCORE.INTRA.REPUL.0>
0

>  <SCORE.INTRA.SOLV>
2.83396

>  <SCORE.INTRA.SOLV.lig_0>
-25.2195

>  <SCORE.INTRA.VDW>
-4.05863

>  <SCORE.INTRA.VDW.0>
4.14263

>  <SCORE.INTRA.norm>
-0.245714

>  <SCORE.RESTR>
1.89726

>  <SCORE.RESTR.CAVITY>
1.89726

>  <SCORE.RESTR.norm>
0.0758906

>  <SCORE.SYSTEM>
0

>  <SCORE.SYSTEM.CONST>
0

>  <SCORE.SYSTEM.DIHEDRAL>
0

>  <SCORE.SYSTEM.SOLV>
0

>  <SCORE.SYSTEM.norm>
0

>  <SCORE.heavy>
25

>  <SCORE.norm>
-0.497484

>  <RMSD>
14.477

$$$$
1uud_lig
 OpenBabel11021811413D
libRbt.so/2013.1/901 2013/11/27
 25 25  0  0  0  0  0  0  0  0999 V2000
   -7.0777  -10.4485    8.0021 C   0  0  0  0  0  0  0  0  0  0  0  0
   -6.2699  -13.2676    8.0596 O   0  0  0  0  0  0  0  0  0  0  0  0
   -5.3401  -12.5486    8.8835 C   0  0  0  0  0  0  0  0  0  0  0  0
   -7.1662   -9.3291    8.9723 N   0  0  0  0  0  0  0  0  0  0  0  0
   -5.5063  -12.9602   10.3525 C   0  0  0  0  0  0  0  0  0  0  0  0
   -5.8175   -8.7620    9.2090 C   0  0  0  0  0  0  0  0  0  0  0  0
   -5.8898   -7.7171   10.3290 C   0  0  0  0  0  0  0  0  0  0  0  0
   -4.8274  -12.1453   11.1244 N   0  0  0  0  0  0  0  0  0  0  0  0
   -4.2541  -12.5655   12.2365 C   0  0  0  0  0  0  0  0  0  0  0  0
   -4.6353   -7.8043   11.2050 C   0  0  0  0  0  0  0  0  0  0  0  0
   -4.8170   -6.9280   12.4477 C   0  0  0  0  0  0  0  0  0  0  0  0
   -3.0740  -12.0331   12.6776 N   0  0  0  0  0  0  0  0  0  0  0  0
   -4.8492  -13.5499   12.9584 N   0  0  0  0  0  0  0  0  0  0  0  0
   -3.9170   -7.2416   13.3493 N   0  0  0  0  0  0  0  0  0  0  0  0
   -4.0470   -8.3115   14.1100 C   0  0  0  0  0  0  0  0  0  0  0  0
   -3.0655   -9.2497   14.1068 N   0  0  0  0  0  0  0  0  0  0  0  0
   -5.1504   -8.5022   14.8927 N   0  0  0  0  0  0  0  0  0  0  0  0
   -7.6144  -12.9329    8.4270 C   0  0  0  0  0  0  0  0  0  0  0  0
  -11.6128  -11.9533    9.5685 O   0  0  0  0  0  0  0  0  0  0  0  0
   -8.0462  -11.5752    8.4177 C   0  0  0  0  0  0  0  0  0  0  0  0
   -9.3740  -11.2516    8.8059 C   0  0  0  0  0  0  0  0  0  0  0  0
  -10.2758  -12.2814    9.1821 C   0  0  0  0  0  0  0  0  0  0  0  0
   -9.8518  -13.6376    9.1730 C   0  0  0  0  0  0  0  0  0  0  0  0
   -8.5234  -13.9656    8.7887 C   0  0  0  0  0  0  0  0  0  0  0  0
  -12.4717  -12.0201    8.4264 C   0  0  0  0  0  0  0  0  0  0  0  0
  1  4  1  0  0  0  0
  2  3  1  0  0  0  0
  3  5  1  0  0  0  0
  4  6  1  0  0  0  0
  5  8  1  0  0  0  0
  6  7  1  0  0  0  0
  7 10  1  0  0  0  0
  8  9  1  0  0  0  0
  9 12  1  0  0  0  0
  9 13  1  0  0  0  0
 10 11  1  0  0  0  0
 11 14  1  0  0  0  0
 14 15  1  0  0  0  0
 15 16  1  0  0  0  0
 15 17  1  0  0  0  0
 18  2  1  0  0  0  0
 18 20  2  0  0  0  0
 18 24  1  0  0  0  0
 19 25  1  0  0  0  0
 20  1  1  0  0  0  0
 20 21  1  0  0  0  0
 21 22  2  0  0  0  0
 22 19  1  0  0  0  0
 22 23  1  0  0  0  0
 23 24  2  0  0  0  0
M  END
>  <CHROM.1>
141.52552246,62.81068454,-169.13683768,-173.51955204,-146.31397002,142.24443306
-170.64848891,146.33674800,-24.76325071,-42.17713545,164.54904021,-78.35626065
122.92233755,-88.07362441,-155.51984256,56.21122595,-133.80490673,92.56155502
-6.47193169,-10.88405145,10.62894558,2.56117893,0.58523237,-2.93709314

>  <Name>
1uud_lig

>  <RI>
0

>  <Rbt.Current_Directory>
/home/itssahil/PROJECTS/Mol_Feturizer/New_Systems/rnas/1uud

>  <Rbt.Executable>
rbdock ($Id: //depot/dev/client3/rdock/2013.1/src/exe/rbdock.cxx#4 $)

>  <Rbt.Library>
libRbt.so (2013.1, Build901 2013/11/27)

>  <Rbt.Parameter_File>
/export/apps/rDock/src/rDock_2013.1_src/data/scripts/dock_solv.prm

>  <Rbt.Receptor>
prm/blind_docking_20.prm

>  <SCORE>
-19.8308

>  <SCORE.INTER>
-12.2603

>  <SCORE.INTER.CONST>
1

>  <SCORE.INTER.POLAR>
-1.4436

>  <SCORE.INTER.ROT>
18

>  <SCORE.INTER.SOLV>
7.97119

>  <SCORE.INTER.VDW>
-21.6186

>  <SCORE.INTER.norm>
-0.49041

>  <SCORE.INTRA>
-8.12393

>  <SCORE.INTRA.DIHEDRAL>
-4.08495

>  <SCORE.INTRA.DIHEDRAL.0>
30.6762

>  <SCORE.INTRA.POLAR>
-0.922971

>  <SCORE.INTRA.POLAR.0>
-0.0288659

>  <SCORE.INTRA.REPUL>
0

>  <SCORE.INTRA.REPUL.0>
0

>  <SCORE.INTRA.SOLV>
0.126578

>  <SCORE.INTRA.SOLV.lig_0>
-25.2195

>  <SCORE.INTRA.VDW>
-3.00664

>  <SCORE.INTRA.VDW.0>
4.14263

>  <SCORE.INTRA.norm>
-0.324957

>  <SCORE.RESTR>
0.553388

>  <SCORE.RESTR.CAVITY>
0.553388

>  <SCORE.RESTR.norm>
0.0221355

>  <SCORE.SYSTEM>
0

>  <SCORE.SYSTEM.CONST>
0

>  <SCORE.SYSTEM.DIHEDRAL>
0

>  <SCORE.SYSTEM.SOLV>
0

>  <SCORE.SYSTEM.norm>
0

>  <SCORE.heavy>
25

>  <SCORE.norm>
-0.793232

>  <RMSD>
14.495

$$$$
1uud_lig
 OpenBabel11021811413D
libRbt.so/2013.1/901 2013/11/27
 25 25  0  0  0  0  0  0  0  0999 V2000
   -6.5777  -13.2624   11.6642 C   0  0  0  0  0  0  0  0  0  0  0  0
   -8.7251  -14.3623    9.9965 O   0  0  0  0  0  0  0  0  0  0  0  0
   -9.5471  -13.6080   10.8996 C   0  0  0  0  0  0  0  0  0  0  0  0
   -5.1946  -13.7002   11.9764 N   0  0  0  0  0  0  0  0  0  0  0  0
  -10.9910  -14.1262   10.8596 C   0  0  0  0  0  0  0  0  0  0  0  0
   -4.4893  -12.6366   12.7301 C   0  0  0  0  0  0  0  0  0  0  0  0
   -4.0052  -11.5540   11.7579 C   0  0  0  0  0  0  0  0  0  0  0  0
  -11.5315  -13.8533    9.6958 N   0  0  0  0  0  0  0  0  0  0  0  0
  -11.5706  -12.6209    9.2251 C   0  0  0  0  0  0  0  0  0  0  0  0
   -4.9102  -10.3213   11.8578 C   0  0  0  0  0  0  0  0  0  0  0  0
   -4.3577   -9.2072   10.9641 C   0  0  0  0  0  0  0  0  0  0  0  0
  -12.5934  -11.7685    9.5379 N   0  0  0  0  0  0  0  0  0  0  0  0
  -10.5731  -12.1901    8.4105 N   0  0  0  0  0  0  0  0  0  0  0  0
   -5.0544   -8.1093   11.1389 N   0  0  0  0  0  0  0  0  0  0  0  0
   -6.2084   -7.9206   10.5281 C   0  0  0  0  0  0  0  0  0  0  0  0
   -6.3140   -8.2136    9.2065 N   0  0  0  0  0  0  0  0  0  0  0  0
   -7.2960   -7.4278   11.1918 N   0  0  0  0  0  0  0  0  0  0  0  0
   -7.7526  -13.5059    9.3837 C   0  0  0  0  0  0  0  0  0  0  0  0
   -4.8908  -10.9203    7.5466 O   0  0  0  0  0  0  0  0  0  0  0  0
   -6.6962  -12.9463   10.1588 C   0  0  0  0  0  0  0  0  0  0  0  0
   -5.7509  -12.0800    9.5470 C   0  0  0  0  0  0  0  0  0  0  0  0
   -5.8460  -11.7892    8.1607 C   0  0  0  0  0  0  0  0  0  0  0  0
   -6.8877  -12.3624    7.3828 C   0  0  0  0  0  0  0  0  0  0  0  0
   -7.8377  -13.2267    7.9914 C   0  0  0  0  0  0  0  0  0  0  0  0
   -5.5619  -10.0218    6.6584 C   0  0  0  0  0  0  0  0  0  0  0  0
  1  4  1  0  0  0  0
  2  3  1  0  0  0  0
  3  5  1  0  0  0  0
  4  6  1  0  0  0  0
  5  8  1  0  0  0  0
  6  7  1  0  0  0  0
  7 10  1  0  0  0  0
  8  9  1  0  0  0  0
  9 12  1  0  0  0  0
  9 13  1  0  0  0  0
 10 11  1  0  0  0  0
 11 14  1  0  0  0  0
 14 15  1  0  0  0  0
 15 16  1  0  0  0  0
 15 17  1  0  0  0  0
 18  2  1  0  0  0  0
 18 20  2  0  0  0  0
 18 24  1  0  0  0  0
 19 25  1  0  0  0  0
 20  1  1  0  0  0  0
 20 21  1  0  0  0  0
 21 22  2  0  0  0  0
 22 19  1  0  0  0  0
 22 23  1  0  0  0  0
 23 24  2  0  0  0  0
M  END
>  <CHROM.1>
107.84956039,143.70127935,-68.01049773,-79.56271478,-55.30816464,104.08576022
175.70099708,-86.97371101,58.18654386,73.51576495,-174.16416820,-81.48789196
-45.26659773,-17.18764893,-139.57185993,68.45552271,129.72612931,-137.20876626
-7.27856059,-11.62559131,9.94586426,-2.68264063,-0.36723050,-0.38180228

>  <Name>
1uud_lig

>  <RI>
0

>  <Rbt.Current_Directory>
/home/itssahil/PROJECTS/Mol_Feturizer/New_Systems/rnas/1uud

>  <Rbt.Executable>
rbdock ($Id: //depot/dev/client3/rdock/2013.1/src/exe/rbdock.cxx#4 $)

>  <Rbt.Library>
libRbt.so (2013.1, Build901 2013/11/27)

>  <Rbt.Parameter_File>
/export/apps/rDock/src/rDock_2013.1_src/data/scripts/dock_solv.prm

>  <Rbt.Receptor>
prm/blind_docking_100.prm

>  <SCORE>
-19.0017

>  <SCORE.INTER>
-21.058

>  <SCORE.INTER.CONST>
1

>  <SCORE.INTER.POLAR>
-3.62634

>  <SCORE.INTER.ROT>
18

>  <SCORE.INTER.SOLV>
7.55881

>  <SCORE.INTER.VDW>
-20.0705

>  <SCORE.INTER.norm>
-0.84232

>  <SCORE.INTRA>
0.0130266

>  <SCORE.INTRA.DIHEDRAL>
-0.08216

>  <SCORE.INTRA.DIHEDRAL.0>
30.6762

>  <SCORE.INTRA.POLAR>
0.0288659

>  <SCORE.INTRA.POLAR.0>
-0.0288659

>  <SCORE.INTRA.REPUL>
0

>  <SCORE.INTRA.REPUL.0>
0

>  <SCORE.INTRA.SOLV>
0.901133

>  <SCORE.INTRA.SOLV.lig_0>
-25.2195

>  <SCORE.INTRA.VDW>
-0.494604

>  <SCORE.INTRA.VDW.0>
4.14263

>  <SCORE.INTRA.norm>
0.000521065

>  <SCORE.RESTR>
2.04331

>  <SCORE.RESTR.CAVITY>
2.04331

>  <SCORE.RESTR.norm>
0.0817325

>  <SCORE.SYSTEM>
0

>  <SCORE.SYSTEM.CONST>
0

>  <SCORE.SYSTEM.DIHEDRAL>
0

>  <SCORE.SYSTEM.SOLV>
0

>  <SCORE.SYSTEM.norm>
0

>  <SCORE.heavy>
25

>  <SCORE.norm>
-0.760067

>  <RMSD>
14.507

$$$$
1uud_lig
 OpenBabel11021811413D
libRbt.so/2013.1/901 2013/11/27
 25 25  0  0  0  0  0  0  0  0999 V2000
   -7.7024  -10.5383    8.0683 C   0  0  0  0  0  0  0  0  0  0  0  0
   -8.4290  -12.3508   10.2567 O   0  0  0  0  0  0  0  0  0  0  0  0
   -8.4231  -13.7725   10.4547 C   0  0  0  0  0  0  0  0  0  0  0  0
   -7.3170   -9.8035    9.2987 N   0  0  0  0  0  0  0  0  0  0  0  0
   -7.7772  -14.1165   11.8036 C   0  0  0  0  0  0  0  0  0  0  0  0
   -5.9384   -9.2778    9.1584 C   0  0  0  0  0  0  0  0  0  0  0  0
   -5.6102   -8.3741   10.3530 C   0  0  0  0  0  0  0  0  0  0  0  0
   -6.6631  -13.4399   11.9510 N   0  0  0  0  0  0  0  0  0  0  0  0
   -5.5603  -14.0144   12.3933 C   0  0  0  0  0  0  0  0  0  0  0  0
   -4.1041   -8.0936   10.3961 C   0  0  0  0  0  0  0  0  0  0  0  0
   -3.7627   -7.3277   11.6775 C   0  0  0  0  0  0  0  0  0  0  0  0
   -5.5920  -14.9483   13.3921 N   0  0  0  0  0  0  0  0  0  0  0  0
   -4.3667  -13.6693   11.8450 N   0  0  0  0  0  0  0  0  0  0  0  0
   -4.0997   -8.0409   12.7259 N   0  0  0  0  0  0  0  0  0  0  0  0
   -5.2535   -7.8613   13.3399 C   0  0  0  0  0  0  0  0  0  0  0  0
   -5.7987   -6.6183   13.3746 N   0  0  0  0  0  0  0  0  0  0  0  0
   -5.9068   -8.8943   13.9500 N   0  0  0  0  0  0  0  0  0  0  0  0
   -9.4364  -11.9907    9.3029 C   0  0  0  0  0  0  0  0  0  0  0  0
  -12.4657  -10.8953    6.4968 O   0  0  0  0  0  0  0  0  0  0  0  0
   -9.1270  -11.1087    8.2275 C   0  0  0  0  0  0  0  0  0  0  0  0
  -10.1385  -10.7395    7.3008 C   0  0  0  0  0  0  0  0  0  0  0  0
  -11.4505  -11.2653    7.4333 C   0  0  0  0  0  0  0  0  0  0  0  0
  -11.7552  -12.1602    8.4940 C   0  0  0  0  0  0  0  0  0  0  0  0
  -10.7473  -12.5296    9.4256 C   0  0  0  0  0  0  0  0  0  0  0  0
  -12.6874  -11.9712    5.5804 C   0  0  0  0  0  0  0  0  0  0  0  0
  1  4  1  0  0  0  0
  2  3  1  0  0  0  0
  3  5  1  0  0  0  0
  4  6  1  0  0  0  0
  5  8  1  0  0  0  0
  6  7  1  0  0  0  0
  7 10  1  0  0  0  0
  8  9  1  0  0  0  0
  9 12  1  0  0  0  0
  9 13  1  0  0  0  0
 10 11  1  0  0  0  0
 11 14  1  0  0  0  0
 14 15  1  0  0  0  0
 15 16  1  0  0  0  0
 15 17  1  0  0  0  0
 18  2  1  0  0  0  0
 18 20  2  0  0  0  0
 18 24  1  0  0  0  0
 19 25  1  0  0  0  0
 20  1  1  0  0  0  0
 20 21  1  0  0  0  0
 21 22  2  0  0  0  0
 22 19  1  0  0  0  0
 22 23  1  0  0  0  0
 23 24  2  0  0  0  0
M  END
>  <CHROM.1>
178.87066647,-158.22485988,-46.32763534,172.93886307,-134.90740378,166.73792167
-173.51746905,-39.22432418,-173.47562101,-8.12934223,60.03104227,-96.09698980
-32.33134424,-59.39835432,151.88774889,-132.03927031,-57.65736739,103.80167971
-7.53160399,-10.94045615,10.34352125,3.00347374,0.71552040,2.86229834

>  <Name>
1uud_lig

>  <RI>
0

>  <Rbt.Current_Directory>
/home/itssahil/PROJECTS/Mol_Feturizer/New_Systems/rnas/1uud

>  <Rbt.Executable>
rbdock ($Id: //depot/dev/client3/rdock/2013.1/src/exe/rbdock.cxx#4 $)

>  <Rbt.Library>
libRbt.so (2013.1, Build901 2013/11/27)

>  <Rbt.Parameter_File>
/export/apps/rDock/src/rDock_2013.1_src/data/scripts/dock_solv.prm

>  <Rbt.Receptor>
prm/blind_docking_60.prm

>  <SCORE>
-41.2126

>  <SCORE.INTER>
-34.3934

>  <SCORE.INTER.CONST>
1

>  <SCORE.INTER.POLAR>
-5.329

>  <SCORE.INTER.ROT>
18

>  <SCORE.INTER.SOLV>
10.8548

>  <SCORE.INTER.VDW>
-24.3839

>  <SCORE.INTER.norm>
-1.37574

>  <SCORE.INTRA>
-9.81863

>  <SCORE.INTRA.DIHEDRAL>
-9.49993

>  <SCORE.INTRA.DIHEDRAL.0>
30.6762

>  <SCORE.INTRA.POLAR>
-0.468494

>  <SCORE.INTRA.POLAR.0>
-0.0288659

>  <SCORE.INTRA.REPUL>
0

>  <SCORE.INTRA.REPUL.0>
0

>  <SCORE.INTRA.SOLV>
-0.286809

>  <SCORE.INTRA.SOLV.lig_0>
-25.2195

>  <SCORE.INTRA.VDW>
-3.33238

>  <SCORE.INTRA.VDW.0>
4.14263

>  <SCORE.INTRA.norm>
-0.392745

>  <SCORE.RESTR>
2.99942

>  <SCORE.RESTR.CAVITY>
2.99942

>  <SCORE.RESTR.norm>
0.119977

>  <SCORE.SYSTEM>
0

>  <SCORE.SYSTEM.CONST>
0

>  <SCORE.SYSTEM.DIHEDRAL>
0

>  <SCORE.SYSTEM.SOLV>
0

>  <SCORE.SYSTEM.norm>
0

>  <SCORE.heavy>
25

>  <SCORE.norm>
-1.64851

>  <RMSD>
14.510

$$$$
1uud_lig
 OpenBabel11021811413D
libRbt.so/2013.1/901 2013/11/27
 25 25  0  0  0  0  0  0  0  0999 V2000
   -6.5318   -8.5992    7.3729 C   0  0  0  0  0  0  0  0  0  0  0  0
   -4.3954   -9.2879    9.2608 O   0  0  0  0  0  0  0  0  0  0  0  0
   -5.0311   -8.7816   10.4439 C   0  0  0  0  0  0  0  0  0  0  0  0
   -7.9133   -8.2425    7.7808 N   0  0  0  0  0  0  0  0  0  0  0  0
   -4.0031   -8.6286   11.5731 C   0  0  0  0  0  0  0  0  0  0  0  0
   -8.0799   -8.4643    9.2367 C   0  0  0  0  0  0  0  0  0  0  0  0
   -8.4667   -9.9261    9.4919 C   0  0  0  0  0  0  0  0  0  0  0  0
   -3.4192   -9.7801   11.8048 N   0  0  0  0  0  0  0  0  0  0  0  0
   -4.0783  -10.7941   12.3334 C   0  0  0  0  0  0  0  0  0  0  0  0
   -9.7583  -10.2625    8.7386 C   0  0  0  0  0  0  0  0  0  0  0  0
  -10.2257  -11.6682    9.1269 C   0  0  0  0  0  0  0  0  0  0  0  0
   -4.3117  -10.8712   13.6788 N   0  0  0  0  0  0  0  0  0  0  0  0
   -4.5339  -11.7838   11.5228 N   0  0  0  0  0  0  0  0  0  0  0  0
  -11.3006  -11.9845    8.4443 N   0  0  0  0  0  0  0  0  0  0  0  0
  -12.1616  -12.8793    8.8898 C   0  0  0  0  0  0  0  0  0  0  0  0
  -13.4741  -12.7541    8.5657 N   0  0  0  0  0  0  0  0  0  0  0  0
  -11.7648  -13.9225    9.6775 N   0  0  0  0  0  0  0  0  0  0  0  0
   -5.1782  -10.3476    8.6963 C   0  0  0  0  0  0  0  0  0  0  0  0
   -7.5279  -13.5181    7.0600 O   0  0  0  0  0  0  0  0  0  0  0  0
   -6.2290  -10.0564    7.7792 C   0  0  0  0  0  0  0  0  0  0  0  0
   -7.0143  -11.1120    7.2432 C   0  0  0  0  0  0  0  0  0  0  0  0
   -6.7387  -12.4571    7.6041 C   0  0  0  0  0  0  0  0  0  0  0  0
   -5.6784  -12.7501    8.5034 C   0  0  0  0  0  0  0  0  0  0  0  0
   -4.8926  -11.6969    9.0449 C   0  0  0  0  0  0  0  0  0  0  0  0
   -6.6979  -14.6583    6.8200 C   0  0  0  0  0  0  0  0  0  0  0  0
  1  4  1  0  0  0  0
  2  3  1  0  0  0  0
  3  5  1  0  0  0  0
  4  6  1  0  0  0  0
  5  8  1  0  0  0  0
  6  7  1  0  0  0  0
  7 10  1  0  0  0  0
  8  9  1  0  0  0  0
  9 12  1  0  0  0  0
  9 13  1  0  0  0  0
 10 11  1  0  0  0  0
 11 14  1  0  0  0  0
 14 15  1  0  0  0  0
 15 16  1  0  0  0  0
 15 17  1  0  0  0  0
 18  2  1  0  0  0  0
 18 20  2  0  0  0  0
 18 24  1  0  0  0  0
 19 25  1  0  0  0  0
 20  1  1  0  0  0  0
 20 21  1  0  0  0  0
 21 22  2  0  0  0  0
 22 19  1  0  0  0  0
 22 23  1  0  0  0  0
 23 24  2  0  0  0  0
M  END
>  <CHROM.1>
56.23715474,133.86575199,-57.15248124,-86.00226424,-68.43733427,-58.05334963
-173.43976316,-80.02712167,125.47099650,102.73210942,-177.40603293,-155.53999505
149.15514529,0.72219377,108.89098083,87.04869679,-118.54731423,143.69222654
-7.22516462,-11.02827175,9.26021500,0.35041377,-0.34716002,0.02995491

>  <Name>
1uud_lig

>  <RI>
0

>  <Rbt.Current_Directory>
/home/itssahil/PROJECTS/Mol_Feturizer/New_Systems/rnas/1uud

>  <Rbt.Executable>
rbdock ($Id: //depot/dev/client3/rdock/2013.1/src/exe/rbdock.cxx#4 $)

>  <Rbt.Library>
libRbt.so (2013.1, Build901 2013/11/27)

>  <Rbt.Parameter_File>
/export/apps/rDock/src/rDock_2013.1_src/data/scripts/dock_solv.prm

>  <Rbt.Receptor>
prm/blind_docking_60.prm

>  <SCORE>
200.786

>  <SCORE.INTER>
184.101

>  <SCORE.INTER.CONST>
1

>  <SCORE.INTER.POLAR>
-1.01146

>  <SCORE.INTER.ROT>
18

>  <SCORE.INTER.SOLV>
8.63482

>  <SCORE.INTER.VDW>
107.627

>  <SCORE.INTER.norm>
7.36404

>  <SCORE.INTRA>
7.87083

>  <SCORE.INTRA.DIHEDRAL>
-5.885

>  <SCORE.INTRA.DIHEDRAL.0>
30.6762

>  <SCORE.INTRA.POLAR>
0.0288659

>  <SCORE.INTRA.POLAR.0>
-0.0288659

>  <SCORE.INTRA.REPUL>
0

>  <SCORE.INTRA.REPUL.0>
0

>  <SCORE.INTRA.SOLV>
0.319322

>  <SCORE.INTRA.SOLV.lig_0>
-25.2195

>  <SCORE.INTRA.VDW>
10.5555

>  <SCORE.INTRA.VDW.0>
4.14263

>  <SCORE.INTRA.norm>
0.314833

>  <SCORE.RESTR>
8.81445

>  <SCORE.RESTR.CAVITY>
8.81445

>  <SCORE.RESTR.norm>
0.352578

>  <SCORE.SYSTEM>
0

>  <SCORE.SYSTEM.CONST>
0

>  <SCORE.SYSTEM.DIHEDRAL>
0

>  <SCORE.SYSTEM.SOLV>
0

>  <SCORE.SYSTEM.norm>
0

>  <SCORE.heavy>
25

>  <SCORE.norm>
8.03145

>  <RMSD>
14.527

$$$$
1uud_lig
 OpenBabel11021811413D
libRbt.so/2013.1/901 2013/11/27
 25 25  0  0  0  0  0  0  0  0999 V2000
   -7.4950  -11.8922    8.3988 C   0  0  0  0  0  0  0  0  0  0  0  0
   -8.2139  -14.1838   10.0824 O   0  0  0  0  0  0  0  0  0  0  0  0
   -8.4558  -14.2021   11.4971 C   0  0  0  0  0  0  0  0  0  0  0  0
   -7.3792  -10.4440    8.7011 N   0  0  0  0  0  0  0  0  0  0  0  0
   -7.1606  -14.5314   12.2515 C   0  0  0  0  0  0  0  0  0  0  0  0
   -5.9519  -10.0765    8.8578 C   0  0  0  0  0  0  0  0  0  0  0  0
   -5.8175   -8.5495    8.9033 C   0  0  0  0  0  0  0  0  0  0  0  0
   -6.1248  -14.1077   11.5670 N   0  0  0  0  0  0  0  0  0  0  0  0
   -5.1720  -13.3894   12.1311 C   0  0  0  0  0  0  0  0  0  0  0  0
   -4.4048   -8.1639    9.3552 C   0  0  0  0  0  0  0  0  0  0  0  0
   -4.2586   -8.4256   10.8569 C   0  0  0  0  0  0  0  0  0  0  0  0
   -5.4504  -12.4751   13.1094 N   0  0  0  0  0  0  0  0  0  0  0  0
   -3.8861  -13.5613   11.7298 N   0  0  0  0  0  0  0  0  0  0  0  0
   -5.2010   -7.7914   11.5134 N   0  0  0  0  0  0  0  0  0  0  0  0
   -6.3490   -8.3725   11.8045 C   0  0  0  0  0  0  0  0  0  0  0  0
   -6.3522   -9.6715   12.1999 N   0  0  0  0  0  0  0  0  0  0  0  0
   -7.5347   -7.7011   11.7076 N   0  0  0  0  0  0  0  0  0  0  0  0
   -9.2616  -13.4706    9.4129 C   0  0  0  0  0  0  0  0  0  0  0  0
  -12.4037  -11.3322    7.4623 O   0  0  0  0  0  0  0  0  0  0  0  0
   -8.9564  -12.3484    8.5897 C   0  0  0  0  0  0  0  0  0  0  0  0
  -10.0040  -11.6341    7.9491 C   0  0  0  0  0  0  0  0  0  0  0  0
  -11.3515  -12.0505    8.1115 C   0  0  0  0  0  0  0  0  0  0  0  0
  -11.6552  -13.1813    8.9165 C   0  0  0  0  0  0  0  0  0  0  0  0
  -10.6106  -13.8968    9.5621 C   0  0  0  0  0  0  0  0  0  0  0  0
  -12.8591  -10.2763    8.3132 C   0  0  0  0  0  0  0  0  0  0  0  0
  1  4  1  0  0  0  0
  2  3  1  0  0  0  0
  3  5  1  0  0  0  0
  4  6  1  0  0  0  0
  5  8  1  0  0  0  0
  6  7  1  0  0  0  0
  7 10  1  0  0  0  0
  8  9  1  0  0  0  0
  9 12  1  0  0  0  0
  9 13  1  0  0  0  0
 10 11  1  0  0  0  0
 11 14  1  0  0  0  0
 14 15  1  0  0  0  0
 15 16  1  0  0  0  0
 15 17  1  0  0  0  0
 18  2  1  0  0  0  0
 18 20  2  0  0  0  0
 18 24  1  0  0  0  0
 19 25  1  0  0  0  0
 20  1  1  0  0  0  0
 20 21  1  0  0  0  0
 21 22  2  0  0  0  0
 22 19  1  0  0  0  0
 22 23  1  0  0  0  0
 23 24  2  0  0  0  0
M  END
>  <CHROM.1>
165.65613657,-161.26163175,29.38417298,169.31307635,130.87831303,168.20621407
-73.86303135,-35.56348283,-57.88565214,-115.16877389,-55.16690955,92.23365026
40.02766557,-23.99781625,118.77242338,123.05002757,-127.74032011,-89.05377025
-7.63120937,-11.38555764,10.17045471,2.89430013,0.50884729,2.87201934

>  <Name>
1uud_lig

>  <RI>
0

>  <Rbt.Current_Directory>
/home/itssahil/PROJECTS/Mol_Feturizer/New_Systems/rnas/1uud

>  <Rbt.Executable>
rbdock ($Id: //depot/dev/client3/rdock/2013.1/src/exe/rbdock.cxx#4 $)

>  <Rbt.Library>
libRbt.so (2013.1, Build901 2013/11/27)

>  <Rbt.Parameter_File>
/export/apps/rDock/src/rDock_2013.1_src/data/scripts/dock_solv.prm

>  <Rbt.Receptor>
prm/blind_docking_100.prm

>  <SCORE>
-33.6292

>  <SCORE.INTER>
-27.4089

>  <SCORE.INTER.CONST>
1

>  <SCORE.INTER.POLAR>
-4.04583

>  <SCORE.INTER.ROT>
18

>  <SCORE.INTER.SOLV>
10.5862

>  <SCORE.INTER.VDW>
-23.9152

>  <SCORE.INTER.norm>
-1.09636

>  <SCORE.INTRA>
-8.32334

>  <SCORE.INTRA.DIHEDRAL>
-5.57334

>  <SCORE.INTRA.DIHEDRAL.0>
30.6762

>  <SCORE.INTRA.POLAR>
-0.905879

>  <SCORE.INTRA.POLAR.0>
-0.0288659

>  <SCORE.INTRA.REPUL>
0

>  <SCORE.INTRA.REPUL.0>
0

>  <SCORE.INTRA.SOLV>
1.54133

>  <SCORE.INTRA.SOLV.lig_0>
-25.2195

>  <SCORE.INTRA.VDW>
-3.22734

>  <SCORE.INTRA.VDW.0>
4.14263

>  <SCORE.INTRA.norm>
-0.332933

>  <SCORE.RESTR>
2.10301

>  <SCORE.RESTR.CAVITY>
2.10301

>  <SCORE.RESTR.norm>
0.0841203

>  <SCORE.SYSTEM>
0

>  <SCORE.SYSTEM.CONST>
0

>  <SCORE.SYSTEM.DIHEDRAL>
0

>  <SCORE.SYSTEM.SOLV>
0

>  <SCORE.SYSTEM.norm>
0

>  <SCORE.heavy>
25

>  <SCORE.norm>
-1.34517

>  <RMSD>
14.545

$$$$
1uud_lig
 OpenBabel11021811413D
libRbt.so/2013.1/901 2013/11/27
 25 25  0  0  0  0  0  0  0  0999 V2000
   -7.3197  -11.4887    9.3263 C   0  0  0  0  0  0  0  0  0  0  0  0
   -8.3205  -14.2241    9.6706 O   0  0  0  0  0  0  0  0  0  0  0  0
   -8.3741  -14.3693   11.0976 C   0  0  0  0  0  0  0  0  0  0  0  0
   -7.0696  -10.1017    8.8619 N   0  0  0  0  0  0  0  0  0  0  0  0
   -7.4118  -13.3788   11.7670 C   0  0  0  0  0  0  0  0  0  0  0  0
   -5.6659   -9.7217    9.1484 C   0  0  0  0  0  0  0  0  0  0  0  0
   -5.6071   -8.9254   10.4575 C   0  0  0  0  0  0  0  0  0  0  0  0
   -6.1956  -13.5591   11.3097 N   0  0  0  0  0  0  0  0  0  0  0  0
   -5.1450  -13.0462   11.9222 C   0  0  0  0  0  0  0  0  0  0  0  0
   -4.3235   -8.0893   10.5018 C   0  0  0  0  0  0  0  0  0  0  0  0
   -4.2203   -7.3816   11.8560 C   0  0  0  0  0  0  0  0  0  0  0  0
   -5.2760  -12.0623   12.8631 N   0  0  0  0  0  0  0  0  0  0  0  0
   -3.9056  -13.5052   11.6099 N   0  0  0  0  0  0  0  0  0  0  0  0
   -3.4851   -8.0944   12.6761 N   0  0  0  0  0  0  0  0  0  0  0  0
   -2.5267   -7.5449   13.3973 C   0  0  0  0  0  0  0  0  0  0  0  0
   -2.1955   -8.0999   14.5914 N   0  0  0  0  0  0  0  0  0  0  0  0
   -1.8675   -6.4253   12.9755 N   0  0  0  0  0  0  0  0  0  0  0  0
   -9.2373  -13.2082    9.2442 C   0  0  0  0  0  0  0  0  0  0  0  0
  -11.9966  -10.1871    8.0156 O   0  0  0  0  0  0  0  0  0  0  0  0
   -8.7936  -11.8656    9.0697 C   0  0  0  0  0  0  0  0  0  0  0  0
   -9.7153  -10.8614    8.6693 C   0  0  0  0  0  0  0  0  0  0  0  0
  -11.0719  -11.1990    8.4225 C   0  0  0  0  0  0  0  0  0  0  0  0
  -11.5111  -12.5414    8.5774 C   0  0  0  0  0  0  0  0  0  0  0  0
  -10.5933  -13.5486    8.9812 C   0  0  0  0  0  0  0  0  0  0  0  0
  -13.2393  -10.3702    8.7003 C   0  0  0  0  0  0  0  0  0  0  0  0
  1  4  1  0  0  0  0
  2  3  1  0  0  0  0
  3  5  1  0  0  0  0
  4  6  1  0  0  0  0
  5  8  1  0  0  0  0
  6  7  1  0  0  0  0
  7 10  1  0  0  0  0
  8  9  1  0  0  0  0
  9 12  1  0  0  0  0
  9 13  1  0  0  0  0
 10 11  1  0  0  0  0
 11 14  1  0  0  0  0
 14 15  1  0  0  0  0
 15 16  1  0  0  0  0
 15 17  1  0  0  0  0
 18  2  1  0  0  0  0
 18 20  2  0  0  0  0
 18 24  1  0  0  0  0
 19 25  1  0  0  0  0
 20  1  1  0  0  0  0
 20 21  1  0  0  0  0
 21 22  2  0  0  0  0
 22 19  1  0  0  0  0
 22 23  1  0  0  0  0
 23 24  2  0  0  0  0
M  END
>  <CHROM.1>
178.13202248,-87.06807808,-56.67362360,-97.21902320,-165.03316266,-158.56093725
-175.69037508,-15.39739453,117.41308737,-116.84123346,95.02034400,133.04715507
151.43059565,67.37245536,-154.40272460,93.90049277,170.66229483,-138.35861958
-6.90064431,-10.91077092,10.60855015,-2.78672875,-0.52462766,-0.14259038

>  <Name>
1uud_lig

>  <RI>
0

>  <Rbt.Current_Directory>
/home/itssahil/PROJECTS/Mol_Feturizer/New_Systems/rnas/1uud

>  <Rbt.Executable>
rbdock ($Id: //depot/dev/client3/rdock/2013.1/src/exe/rbdock.cxx#4 $)

>  <Rbt.Library>
libRbt.so (2013.1, Build901 2013/11/27)

>  <Rbt.Parameter_File>
/export/apps/rDock/src/rDock_2013.1_src/data/scripts/dock_solv.prm

>  <Rbt.Receptor>
prm/blind_docking_40.prm

>  <SCORE>
-31.2386

>  <SCORE.INTER>
-30.2687

>  <SCORE.INTER.CONST>
1

>  <SCORE.INTER.POLAR>
-4.21464

>  <SCORE.INTER.ROT>
18

>  <SCORE.INTER.SOLV>
12.0323

>  <SCORE.INTER.VDW>
-25.7411

>  <SCORE.INTER.norm>
-1.21075

>  <SCORE.INTRA>
-2.01346

>  <SCORE.INTRA.DIHEDRAL>
-2.77471

>  <SCORE.INTRA.DIHEDRAL.0>
30.6762

>  <SCORE.INTRA.POLAR>
0.0261531

>  <SCORE.INTRA.POLAR.0>
-0.0288659

>  <SCORE.INTRA.REPUL>
0.0294451

>  <SCORE.INTRA.REPUL.0>
0

>  <SCORE.INTRA.SOLV>
-0.339135

>  <SCORE.INTRA.SOLV.lig_0>
-25.2195

>  <SCORE.INTRA.VDW>
-0.692683

>  <SCORE.INTRA.VDW.0>
4.14263

>  <SCORE.INTRA.norm>
-0.0805384

>  <SCORE.RESTR>
1.04348

>  <SCORE.RESTR.CAVITY>
1.04348

>  <SCORE.RESTR.norm>
0.0417391

>  <SCORE.SYSTEM>
0

>  <SCORE.SYSTEM.CONST>
0

>  <SCORE.SYSTEM.DIHEDRAL>
0

>  <SCORE.SYSTEM.SOLV>
0

>  <SCORE.SYSTEM.norm>
0

>  <SCORE.heavy>
25

>  <SCORE.norm>
-1.24955

>  <RMSD>
14.551

$$$$
1uud_lig
 OpenBabel11021811413D
libRbt.so/2013.1/901 2013/11/27
 25 25  0  0  0  0  0  0  0  0999 V2000
   -7.2626   -9.5865    9.5364 C   0  0  0  0  0  0  0  0  0  0  0  0
   -5.8403  -12.0632    8.8692 O   0  0  0  0  0  0  0  0  0  0  0  0
   -5.3002  -12.9532    9.8574 C   0  0  0  0  0  0  0  0  0  0  0  0
   -5.9012   -9.6323    8.9477 N   0  0  0  0  0  0  0  0  0  0  0  0
   -4.5515  -12.1566   10.9345 C   0  0  0  0  0  0  0  0  0  0  0  0
   -5.3468   -8.2607    8.8575 C   0  0  0  0  0  0  0  0  0  0  0  0
   -3.8954   -8.2606    9.3525 C   0  0  0  0  0  0  0  0  0  0  0  0
   -5.3844  -11.3596   11.5606 N   0  0  0  0  0  0  0  0  0  0  0  0
   -6.1576  -11.7983   12.5362 C   0  0  0  0  0  0  0  0  0  0  0  0
   -3.8610   -8.4975   10.8662 C   0  0  0  0  0  0  0  0  0  0  0  0
   -3.7358   -7.1545   11.5916 C   0  0  0  0  0  0  0  0  0  0  0  0
   -6.4885  -11.0030   13.5985 N   0  0  0  0  0  0  0  0  0  0  0  0
   -6.6343  -13.0689   12.4844 N   0  0  0  0  0  0  0  0  0  0  0  0
   -3.9683   -7.3168   12.8725 N   0  0  0  0  0  0  0  0  0  0  0  0
   -5.1941   -7.4646   13.3373 C   0  0  0  0  0  0  0  0  0  0  0  0
   -6.1256   -8.0802   12.5646 N   0  0  0  0  0  0  0  0  0  0  0  0
   -5.5503   -7.0038   14.5730 N   0  0  0  0  0  0  0  0  0  0  0  0
   -7.2727  -12.0874    8.9151 C   0  0  0  0  0  0  0  0  0  0  0  0
  -11.5399  -12.1926    9.0900 O   0  0  0  0  0  0  0  0  0  0  0  0
   -8.0024  -10.9076    9.2403 C   0  0  0  0  0  0  0  0  0  0  0  0
   -9.4209  -10.9477    9.3060 C   0  0  0  0  0  0  0  0  0  0  0  0
  -10.1119  -12.1561    9.0272 C   0  0  0  0  0  0  0  0  0  0  0  0
   -9.3860  -13.3283    8.6838 C   0  0  0  0  0  0  0  0  0  0  0  0
   -7.9665  -13.2938    8.6203 C   0  0  0  0  0  0  0  0  0  0  0  0
  -12.0796  -12.1278    7.7668 C   0  0  0  0  0  0  0  0  0  0  0  0
  1  4  1  0  0  0  0
  2  3  1  0  0  0  0
  3  5  1  0  0  0  0
  4  6  1  0  0  0  0
  5  8  1  0  0  0  0
  6  7  1  0  0  0  0
  7 10  1  0  0  0  0
  8  9  1  0  0  0  0
  9 12  1  0  0  0  0
  9 13  1  0  0  0  0
 10 11  1  0  0  0  0
 11 14  1  0  0  0  0
 14 15  1  0  0  0  0
 15 16  1  0  0  0  0
 15 17  1  0  0  0  0
 18  2  1  0  0  0  0
 18 20  2  0  0  0  0
 18 24  1  0  0  0  0
 19 25  1  0  0  0  0
 20  1  1  0  0  0  0
 20 21  1  0  0  0  0
 21 22  2  0  0  0  0
 22 19  1  0  0  0  0
 22 23  1  0  0  0  0
 23 24  2  0  0  0  0
M  END
>  <CHROM.1>
162.73693166,-113.76717136,62.72209734,135.00038956,81.56168679,-69.62901398
-97.56904005,146.26304029,99.38763427,115.85754894,167.66403087,-76.67736630
31.76998682,-83.59676008,-135.59197778,117.59386743,21.06100643,101.26237218
-6.64747531,-10.47194456,10.58588318,-2.91703064,0.81922954,1.95138471

>  <Name>
1uud_lig

>  <RI>
0

>  <Rbt.Current_Directory>
/home/itssahil/PROJECTS/Mol_Feturizer/New_Systems/rnas/1uud

>  <Rbt.Executable>
rbdock ($Id: //depot/dev/client3/rdock/2013.1/src/exe/rbdock.cxx#4 $)

>  <Rbt.Library>
libRbt.so (2013.1, Build901 2013/11/27)

>  <Rbt.Parameter_File>
/export/apps/rDock/src/rDock_2013.1_src/data/scripts/dock_solv.prm

>  <Rbt.Receptor>
prm/blind_docking_60.prm

>  <SCORE>
-7.08466

>  <SCORE.INTER>
-3.50818

>  <SCORE.INTER.CONST>
1

>  <SCORE.INTER.POLAR>
-1.66666

>  <SCORE.INTER.ROT>
18

>  <SCORE.INTER.SOLV>
10.198

>  <SCORE.INTER.VDW>
-15.7826

>  <SCORE.INTER.norm>
-0.140327

>  <SCORE.INTRA>
-3.61827

>  <SCORE.INTRA.DIHEDRAL>
3.97851

>  <SCORE.INTRA.DIHEDRAL.0>
30.6762

>  <SCORE.INTRA.POLAR>
-0.989509

>  <SCORE.INTRA.POLAR.0>
-0.0288659

>  <SCORE.INTRA.REPUL>
0

>  <SCORE.INTRA.REPUL.0>
0

>  <SCORE.INTRA.SOLV>
3.38632

>  <SCORE.INTRA.SOLV.lig_0>
-25.2195

>  <SCORE.INTRA.VDW>
-3.93635

>  <SCORE.INTRA.VDW.0>
4.14263

>  <SCORE.INTRA.norm>
-0.144731

>  <SCORE.RESTR>
0.0417932

>  <SCORE.RESTR.CAVITY>
0.0417932

>  <SCORE.RESTR.norm>
0.00167173

>  <SCORE.SYSTEM>
0

>  <SCORE.SYSTEM.CONST>
0

>  <SCORE.SYSTEM.DIHEDRAL>
0

>  <SCORE.SYSTEM.SOLV>
0

>  <SCORE.SYSTEM.norm>
0

>  <SCORE.heavy>
25

>  <SCORE.norm>
-0.283386

>  <RMSD>
14.558

$$$$
1uud_lig
 OpenBabel11021811413D
libRbt.so/2013.1/901 2013/11/27
 25 25  0  0  0  0  0  0  0  0999 V2000
   -4.0742  -10.6966   11.0659 C   0  0  0  0  0  0  0  0  0  0  0  0
   -5.8371  -12.1340    9.2144 O   0  0  0  0  0  0  0  0  0  0  0  0
   -6.1876  -12.6426    7.9187 C   0  0  0  0  0  0  0  0  0  0  0  0
   -3.5315   -9.7328   12.0553 N   0  0  0  0  0  0  0  0  0  0  0  0
   -7.5459  -13.3543    7.9790 C   0  0  0  0  0  0  0  0  0  0  0  0
   -3.0417  -10.4615   13.2494 C   0  0  0  0  0  0  0  0  0  0  0  0
   -1.5850  -10.8869   13.0289 C   0  0  0  0  0  0  0  0  0  0  0  0
   -8.3154  -12.7738    8.8687 N   0  0  0  0  0  0  0  0  0  0  0  0
   -8.4930  -13.2909   10.0699 C   0  0  0  0  0  0  0  0  0  0  0  0
   -0.7795  -10.6741   14.3152 C   0  0  0  0  0  0  0  0  0  0  0  0
   -0.4029   -9.1953   14.4444 C   0  0  0  0  0  0  0  0  0  0  0  0
   -9.7331  -13.6605   10.5128 N   0  0  0  0  0  0  0  0  0  0  0  0
   -7.4199  -13.4585   10.8851 N   0  0  0  0  0  0  0  0  0  0  0  0
    0.3787   -9.0239   15.4840 N   0  0  0  0  0  0  0  0  0  0  0  0
    0.1657   -8.0557   16.3544 C   0  0  0  0  0  0  0  0  0  0  0  0
    0.9017   -8.0166   17.4948 N   0  0  0  0  0  0  0  0  0  0  0  0
   -0.7845   -7.0980   16.1398 N   0  0  0  0  0  0  0  0  0  0  0  0
   -5.8531  -10.7008    9.2016 C   0  0  0  0  0  0  0  0  0  0  0  0
   -5.9493   -6.4299    9.1776 O   0  0  0  0  0  0  0  0  0  0  0  0
   -5.0163   -9.9638   10.0883 C   0  0  0  0  0  0  0  0  0  0  0  0
   -5.0566   -8.5437   10.0840 C   0  0  0  0  0  0  0  0  0  0  0  0
   -5.9137   -7.8593    9.1827 C   0  0  0  0  0  0  0  0  0  0  0  0
   -6.7344   -8.5933    8.2845 C   0  0  0  0  0  0  0  0  0  0  0  0
   -6.6999  -10.0141    8.2877 C   0  0  0  0  0  0  0  0  0  0  0  0
   -7.2607   -5.9845    8.8193 C   0  0  0  0  0  0  0  0  0  0  0  0
  1  4  1  0  0  0  0
  2  3  1  0  0  0  0
  3  5  1  0  0  0  0
  4  6  1  0  0  0  0
  5  8  1  0  0  0  0
  6  7  1  0  0  0  0
  7 10  1  0  0  0  0
  8  9  1  0  0  0  0
  9 12  1  0  0  0  0
  9 13  1  0  0  0  0
 10 11  1  0  0  0  0
 11 14  1  0  0  0  0
 14 15  1  0  0  0  0
 15 16  1  0  0  0  0
 15 17  1  0  0  0  0
 18  2  1  0  0  0  0
 18 20  2  0  0  0  0
 18 24  1  0  0  0  0
 19 25  1  0  0  0  0
 20  1  1  0  0  0  0
 20 21  1  0  0  0  0
 21 22  2  0  0  0  0
 22 19  1  0  0  0  0
 22 23  1  0  0  0  0
 23 24  2  0  0  0  0
M  END
>  <CHROM.1>
159.85509495,-112.38407390,32.61588012,87.29115197,-101.40280765,138.90772644
-79.59872341,-119.57474710,135.35161263,114.34386555,-174.85188111,-133.02896502
172.16764502,-97.22746459,-146.51134320,-151.90344515,-168.37110971,-148.40132795
-4.56775346,-10.13203980,11.36644440,-3.05093003,-0.77576692,-0.29675697

>  <Name>
1uud_lig

>  <RI>
0

>  <Rbt.Current_Directory>
/home/itssahil/PROJECTS/Mol_Feturizer/New_Systems/rnas/1uud

>  <Rbt.Executable>
rbdock ($Id: //depot/dev/client3/rdock/2013.1/src/exe/rbdock.cxx#4 $)

>  <Rbt.Library>
libRbt.so (2013.1, Build901 2013/11/27)

>  <Rbt.Parameter_File>
/export/apps/rDock/src/rDock_2013.1_src/data/scripts/dock_solv.prm

>  <Rbt.Receptor>
prm/blind_docking_40.prm

>  <SCORE>
-20.2822

>  <SCORE.INTER>
-24.5466

>  <SCORE.INTER.CONST>
1

>  <SCORE.INTER.POLAR>
-4.64888

>  <SCORE.INTER.ROT>
18

>  <SCORE.INTER.SOLV>
7.91751

>  <SCORE.INTER.VDW>
-19.1073

>  <SCORE.INTER.norm>
-0.981865

>  <SCORE.INTRA>
3.0874

>  <SCORE.INTRA.DIHEDRAL>
-0.390194

>  <SCORE.INTRA.DIHEDRAL.0>
30.6762

>  <SCORE.INTRA.POLAR>
0.0288659

>  <SCORE.INTRA.POLAR.0>
-0.0288659

>  <SCORE.INTRA.REPUL>
0

>  <SCORE.INTRA.REPUL.0>
0

>  <SCORE.INTRA.SOLV>
0.0028642

>  <SCORE.INTRA.SOLV.lig_0>
-25.2195

>  <SCORE.INTRA.VDW>
3.18292

>  <SCORE.INTRA.VDW.0>
4.14263

>  <SCORE.INTRA.norm>
0.123496

>  <SCORE.RESTR>
1.17705

>  <SCORE.RESTR.CAVITY>
1.17705

>  <SCORE.RESTR.norm>
0.047082

>  <SCORE.SYSTEM>
0

>  <SCORE.SYSTEM.CONST>
0

>  <SCORE.SYSTEM.DIHEDRAL>
0

>  <SCORE.SYSTEM.SOLV>
0

>  <SCORE.SYSTEM.norm>
0

>  <SCORE.heavy>
25

>  <SCORE.norm>
-0.811287

>  <RMSD>
14.577

$$$$
1uud_lig
 OpenBabel11021811413D
libRbt.so/2013.1/901 2013/11/27
 25 25  0  0  0  0  0  0  0  0999 V2000
   -4.0943  -10.8213   12.0097 C   0  0  0  0  0  0  0  0  0  0  0  0
   -5.0619  -12.5321    9.8327 O   0  0  0  0  0  0  0  0  0  0  0  0
   -5.9119  -12.8526   10.9441 C   0  0  0  0  0  0  0  0  0  0  0  0
   -5.0505  -10.4494   13.0820 N   0  0  0  0  0  0  0  0  0  0  0  0
   -7.3859  -12.7611   10.5268 C   0  0  0  0  0  0  0  0  0  0  0  0
   -4.7457   -9.0856   13.5756 C   0  0  0  0  0  0  0  0  0  0  0  0
   -3.3805   -9.0862   14.2742 C   0  0  0  0  0  0  0  0  0  0  0  0
   -7.6104  -11.6158    9.9279 N   0  0  0  0  0  0  0  0  0  0  0  0
   -8.1400  -11.5610    8.7202 C   0  0  0  0  0  0  0  0  0  0  0  0
   -2.8495   -7.6526   14.3817 C   0  0  0  0  0  0  0  0  0  0  0  0
   -1.3578   -7.6322   14.0354 C   0  0  0  0  0  0  0  0  0  0  0  0
   -9.1333  -10.6716    8.4150 N   0  0  0  0  0  0  0  0  0  0  0  0
   -7.6891  -12.4079    7.7591 N   0  0  0  0  0  0  0  0  0  0  0  0
   -0.6760   -8.2570   14.9660 N   0  0  0  0  0  0  0  0  0  0  0  0
    0.6168   -8.0506   15.1292 C   0  0  0  0  0  0  0  0  0  0  0  0
    1.0632   -6.7871   15.3478 N   0  0  0  0  0  0  0  0  0  0  0  0
    1.5169   -9.0766   15.0732 N   0  0  0  0  0  0  0  0  0  0  0  0
   -5.0332  -11.1138    9.6278 C   0  0  0  0  0  0  0  0  0  0  0  0
   -4.9978   -6.8865    9.0118 O   0  0  0  0  0  0  0  0  0  0  0  0
   -4.5754  -10.2464   10.6613 C   0  0  0  0  0  0  0  0  0  0  0  0
   -4.5727   -8.8406   10.4567 C   0  0  0  0  0  0  0  0  0  0  0  0
   -5.0054   -8.3016    9.2166 C   0  0  0  0  0  0  0  0  0  0  0  0
   -5.4437   -9.1670    8.1784 C   0  0  0  0  0  0  0  0  0  0  0  0
   -5.4514  -10.5739    8.3799 C   0  0  0  0  0  0  0  0  0  0  0  0
   -6.2289   -6.4836    8.4047 C   0  0  0  0  0  0  0  0  0  0  0  0
  1  4  1  0  0  0  0
  2  3  1  0  0  0  0
  3  5  1  0  0  0  0
  4  6  1  0  0  0  0
  5  8  1  0  0  0  0
  6  7  1  0  0  0  0
  7 10  1  0  0  0  0
  8  9  1  0  0  0  0
  9 12  1  0  0  0  0
  9 13  1  0  0  0  0
 10 11  1  0  0  0  0
 11 14  1  0  0  0  0
 14 15  1  0  0  0  0
 15 16  1  0  0  0  0
 15 17  1  0  0  0  0
 18  2  1  0  0  0  0
 18 20  2  0  0  0  0
 18 24  1  0  0  0  0
 19 25  1  0  0  0  0
 20  1  1  0  0  0  0
 20 21  1  0  0  0  0
 21 22  2  0  0  0  0
 22 19  1  0  0  0  0
 22 23  1  0  0  0  0
 23 24  2  0  0  0  0
M  END
>  <CHROM.1>
-83.39350327,77.07797587,-50.22247718,-66.20115586,124.89815456,161.74798910
-137.21001202,135.75514014,54.31420668,-170.20212118,-68.21321390,-159.49067514
56.30685885,139.13268252,-36.85238827,59.70142236,-111.58771325,-134.54644736
-4.43345533,-9.71212302,11.31570649,0.00854656,0.77575357,2.65558805

>  <Name>
1uud_lig

>  <RI>
0

>  <Rbt.Current_Directory>
/home/itssahil/PROJECTS/Mol_Feturizer/New_Systems/rnas/1uud

>  <Rbt.Executable>
rbdock ($Id: //depot/dev/client3/rdock/2013.1/src/exe/rbdock.cxx#4 $)

>  <Rbt.Library>
libRbt.so (2013.1, Build901 2013/11/27)

>  <Rbt.Parameter_File>
/export/apps/rDock/src/rDock_2013.1_src/data/scripts/dock_solv.prm

>  <Rbt.Receptor>
prm/blind_docking_20.prm

>  <SCORE>
-31.812

>  <SCORE.INTER>
-30.9059

>  <SCORE.INTER.CONST>
1

>  <SCORE.INTER.POLAR>
-6.18184

>  <SCORE.INTER.ROT>
18

>  <SCORE.INTER.SOLV>
11.5611

>  <SCORE.INTER.VDW>
-19.4515

>  <SCORE.INTER.norm>
-1.23624

>  <SCORE.INTRA>
-1.31991

>  <SCORE.INTRA.DIHEDRAL>
-4.97687

>  <SCORE.INTRA.DIHEDRAL.0>
30.6762

>  <SCORE.INTRA.POLAR>
0.0288659

>  <SCORE.INTRA.POLAR.0>
-0.0288659

>  <SCORE.INTRA.REPUL>
0

>  <SCORE.INTRA.REPUL.0>
0

>  <SCORE.INTRA.SOLV>
1.06628

>  <SCORE.INTRA.SOLV.lig_0>
-25.2195

>  <SCORE.INTRA.VDW>
0.53724

>  <SCORE.INTRA.VDW.0>
4.14263

>  <SCORE.INTRA.norm>
-0.0527965

>  <SCORE.RESTR>
0.413858

>  <SCORE.RESTR.CAVITY>
0.413858

>  <SCORE.RESTR.norm>
0.0165543

>  <SCORE.SYSTEM>
0

>  <SCORE.SYSTEM.CONST>
0

>  <SCORE.SYSTEM.DIHEDRAL>
0

>  <SCORE.SYSTEM.SOLV>
0

>  <SCORE.SYSTEM.norm>
0

>  <SCORE.heavy>
25

>  <SCORE.norm>
-1.27248

>  <RMSD>
14.581

$$$$
1uud_lig
 OpenBabel11021811413D
libRbt.so/2013.1/901 2013/11/27
 25 25  0  0  0  0  0  0  0  0999 V2000
   -5.7277  -10.9359    7.6061 C   0  0  0  0  0  0  0  0  0  0  0  0
   -5.4487  -11.6831   10.4286 O   0  0  0  0  0  0  0  0  0  0  0  0
   -6.1921  -11.9968   11.6156 C   0  0  0  0  0  0  0  0  0  0  0  0
   -7.0356  -11.6351    7.5536 N   0  0  0  0  0  0  0  0  0  0  0  0
   -6.0528  -13.4884   11.9488 C   0  0  0  0  0  0  0  0  0  0  0  0
   -6.9866  -12.8553    8.3935 C   0  0  0  0  0  0  0  0  0  0  0  0
   -8.4012  -13.4258    8.5521 C   0  0  0  0  0  0  0  0  0  0  0  0
   -4.8077  -13.7630   12.2570 N   0  0  0  0  0  0  0  0  0  0  0  0
   -3.8165  -13.4964   11.4272 C   0  0  0  0  0  0  0  0  0  0  0  0
   -9.1437  -12.6767    9.6639 C   0  0  0  0  0  0  0  0  0  0  0  0
  -10.6147  -12.5078    9.2731 C   0  0  0  0  0  0  0  0  0  0  0  0
   -2.6281  -12.9873   11.8735 N   0  0  0  0  0  0  0  0  0  0  0  0
   -3.9812  -13.7318   10.0999 N   0  0  0  0  0  0  0  0  0  0  0  0
  -10.8009  -11.3235    8.7402 N   0  0  0  0  0  0  0  0  0  0  0  0
  -11.9341  -11.0062    8.1439 C   0  0  0  0  0  0  0  0  0  0  0  0
  -12.1582  -11.4366    6.8758 N   0  0  0  0  0  0  0  0  0  0  0  0
  -12.8822  -10.2467    8.7687 N   0  0  0  0  0  0  0  0  0  0  0  0
   -5.6081  -10.2971   10.0997 C   0  0  0  0  0  0  0  0  0  0  0  0
   -6.0375   -6.1567    9.1388 O   0  0  0  0  0  0  0  0  0  0  0  0
   -5.7417   -9.8906    8.7407 C   0  0  0  0  0  0  0  0  0  0  0  0
   -5.8758   -8.5123    8.4236 C   0  0  0  0  0  0  0  0  0  0  0  0
   -5.8982   -7.5429    9.4605 C   0  0  0  0  0  0  0  0  0  0  0  0
   -5.7847   -7.9491   10.8174 C   0  0  0  0  0  0  0  0  0  0  0  0
   -5.6467   -9.3266   11.1391 C   0  0  0  0  0  0  0  0  0  0  0  0
   -7.2658   -5.9490    8.4356 C   0  0  0  0  0  0  0  0  0  0  0  0
  1  4  1  0  0  0  0
  2  3  1  0  0  0  0
  3  5  1  0  0  0  0
  4  6  1  0  0  0  0
  5  8  1  0  0  0  0
  6  7  1  0  0  0  0
  7 10  1  0  0  0  0
  8  9  1  0  0  0  0
  9 12  1  0  0  0  0
  9 13  1  0  0  0  0
 10 11  1  0  0  0  0
 11 14  1  0  0  0  0
 14 15  1  0  0  0  0
 15 16  1  0  0  0  0
 15 17  1  0  0  0  0
 18  2  1  0  0  0  0
 18 20  2  0  0  0  0
 18 24  1  0  0  0  0
 19 25  1  0  0  0  0
 20  1  1  0  0  0  0
 20 21  1  0  0  0  0
 21 22  2  0  0  0  0
 22 19  1  0  0  0  0
 22 23  1  0  0  0  0
 23 24  2  0  0  0  0
M  END
>  <CHROM.1>
-91.75255409,178.51176340,65.28009543,169.31134050,-56.47218228,-82.14989853
142.69592021,139.21339348,-76.88553161,144.09604783,-96.60243372,169.92240003
-79.29629996,39.39761216,29.03120972,-140.91182859,76.51823057,59.56224556
-7.09688433,-11.03252861,9.56235849,-0.29860517,-0.35706916,-0.21545019

>  <Name>
1uud_lig

>  <RI>
0

>  <Rbt.Current_Directory>
/home/itssahil/PROJECTS/Mol_Feturizer/New_Systems/rnas/1uud

>  <Rbt.Executable>
rbdock ($Id: //depot/dev/client3/rdock/2013.1/src/exe/rbdock.cxx#4 $)

>  <Rbt.Library>
libRbt.so (2013.1, Build901 2013/11/27)

>  <Rbt.Parameter_File>
/export/apps/rDock/src/rDock_2013.1_src/data/scripts/dock_solv.prm

>  <Rbt.Receptor>
prm/blind_docking_60.prm

>  <SCORE>
-34.9069

>  <SCORE.INTER>
-33.2592

>  <SCORE.INTER.CONST>
1

>  <SCORE.INTER.POLAR>
-5.01242

>  <SCORE.INTER.ROT>
18

>  <SCORE.INTER.SOLV>
12.2888

>  <SCORE.INTER.VDW>
-25.161

>  <SCORE.INTER.norm>
-1.33037

>  <SCORE.INTRA>
-2.28433

>  <SCORE.INTRA.DIHEDRAL>
-3.02411

>  <SCORE.INTRA.DIHEDRAL.0>
30.6762

>  <SCORE.INTRA.POLAR>
0.0288659

>  <SCORE.INTRA.POLAR.0>
-0.0288659

>  <SCORE.INTRA.REPUL>
0.0281617

>  <SCORE.INTRA.REPUL.0>
0

>  <SCORE.INTRA.SOLV>
0.645311

>  <SCORE.INTRA.SOLV.lig_0>
-25.2195

>  <SCORE.INTRA.VDW>
-1.33389

>  <SCORE.INTRA.VDW.0>
4.14263

>  <SCORE.INTRA.norm>
-0.0913734

>  <SCORE.RESTR>
0.63671

>  <SCORE.RESTR.CAVITY>
0.63671

>  <SCORE.RESTR.norm>
0.0254684

>  <SCORE.SYSTEM>
0

>  <SCORE.SYSTEM.CONST>
0

>  <SCORE.SYSTEM.DIHEDRAL>
0

>  <SCORE.SYSTEM.SOLV>
0

>  <SCORE.SYSTEM.norm>
0

>  <SCORE.heavy>
25

>  <SCORE.norm>
-1.39627

>  <RMSD>
14.592

$$$$
1uud_lig
 OpenBabel11021811413D
libRbt.so/2013.1/901 2013/11/27
 25 25  0  0  0  0  0  0  0  0999 V2000
   -7.8643  -11.5597    9.0052 C   0  0  0  0  0  0  0  0  0  0  0  0
   -7.2667  -13.7688   10.8396 O   0  0  0  0  0  0  0  0  0  0  0  0
   -7.2111  -13.7963   12.2736 C   0  0  0  0  0  0  0  0  0  0  0  0
   -6.8609  -12.3122    8.2121 N   0  0  0  0  0  0  0  0  0  0  0  0
   -5.7672  -14.0189   12.7434 C   0  0  0  0  0  0  0  0  0  0  0  0
   -6.4287  -11.5008    7.0496 C   0  0  0  0  0  0  0  0  0  0  0  0
   -5.4321  -10.4313    7.5128 C   0  0  0  0  0  0  0  0  0  0  0  0
   -5.0331  -12.9745   12.4415 N   0  0  0  0  0  0  0  0  0  0  0  0
   -4.6841  -12.7132   11.1957 C   0  0  0  0  0  0  0  0  0  0  0  0
   -6.1808   -9.1457    7.8808 C   0  0  0  0  0  0  0  0  0  0  0  0
   -5.2062   -8.1501    8.5166 C   0  0  0  0  0  0  0  0  0  0  0  0
   -5.0010  -11.5239   10.5992 N   0  0  0  0  0  0  0  0  0  0  0  0
   -3.9959  -13.6473   10.4899 N   0  0  0  0  0  0  0  0  0  0  0  0
   -5.8515   -7.3606    9.3422 N   0  0  0  0  0  0  0  0  0  0  0  0
   -6.0817   -7.7113   10.5930 C   0  0  0  0  0  0  0  0  0  0  0  0
   -5.1479   -8.4371   11.2599 N   0  0  0  0  0  0  0  0  0  0  0  0
   -7.2416   -7.3700   11.2289 N   0  0  0  0  0  0  0  0  0  0  0  0
   -8.6199  -13.5886   10.4026 C   0  0  0  0  0  0  0  0  0  0  0  0
  -12.6669  -13.0430    9.1481 O   0  0  0  0  0  0  0  0  0  0  0  0
   -8.9542  -12.5248    9.5158 C   0  0  0  0  0  0  0  0  0  0  0  0
  -10.3023  -12.3407    9.1070 C   0  0  0  0  0  0  0  0  0  0  0  0
  -11.3116  -13.2281    9.5643 C   0  0  0  0  0  0  0  0  0  0  0  0
  -10.9759  -14.3011   10.4333 C   0  0  0  0  0  0  0  0  0  0  0  0
   -9.6291  -14.4870   10.8477 C   0  0  0  0  0  0  0  0  0  0  0  0
  -12.8122  -13.4632    7.7884 C   0  0  0  0  0  0  0  0  0  0  0  0
  1  4  1  0  0  0  0
  2  3  1  0  0  0  0
  3  5  1  0  0  0  0
  4  6  1  0  0  0  0
  5  8  1  0  0  0  0
  6  7  1  0  0  0  0
  7 10  1  0  0  0  0
  8  9  1  0  0  0  0
  9 12  1  0  0  0  0
  9 13  1  0  0  0  0
 10 11  1  0  0  0  0
 11 14  1  0  0  0  0
 14 15  1  0  0  0  0
 15 16  1  0  0  0  0
 15 17  1  0  0  0  0
 18  2  1  0  0  0  0
 18 20  2  0  0  0  0
 18 24  1  0  0  0  0
 19 25  1  0  0  0  0
 20  1  1  0  0  0  0
 20 21  1  0  0  0  0
 21 22  2  0  0  0  0
 22 19  1  0  0  0  0
 22 23  1  0  0  0  0
 23 24  2  0  0  0  0
M  END
>  <CHROM.1>
141.56960399,178.80443995,67.26912902,77.69412437,-72.05893604,-90.95054438
172.49693522,122.43665851,159.65863113,94.66108261,-151.99473498,85.16282550
35.53891596,-65.70393411,-107.75487611,125.59059196,62.40548505,74.54713088
-7.39153304,-11.68808624,9.92824733,2.57311306,0.38113261,2.70669407

>  <Name>
1uud_lig

>  <RI>
0

>  <Rbt.Current_Directory>
/home/itssahil/PROJECTS/Mol_Feturizer/New_Systems/rnas/1uud

>  <Rbt.Executable>
rbdock ($Id: //depot/dev/client3/rdock/2013.1/src/exe/rbdock.cxx#4 $)

>  <Rbt.Library>
libRbt.so (2013.1, Build901 2013/11/27)

>  <Rbt.Parameter_File>
/export/apps/rDock/src/rDock_2013.1_src/data/scripts/dock_solv.prm

>  <Rbt.Receptor>
prm/blind_docking_100.prm

>  <SCORE>
-26.3506

>  <SCORE.INTER>
-18.9101

>  <SCORE.INTER.CONST>
1

>  <SCORE.INTER.POLAR>
-2.89518

>  <SCORE.INTER.ROT>
18

>  <SCORE.INTER.SOLV>
7.27311

>  <SCORE.INTER.VDW>
-20.9805

>  <SCORE.INTER.norm>
-0.756403

>  <SCORE.INTRA>
-9.05151

>  <SCORE.INTRA.DIHEDRAL>
-3.59271

>  <SCORE.INTRA.DIHEDRAL.0>
30.6762

>  <SCORE.INTRA.POLAR>
-1.12678

>  <SCORE.INTRA.POLAR.0>
-0.0288659

>  <SCORE.INTRA.REPUL>
0

>  <SCORE.INTRA.REPUL.0>
0

>  <SCORE.INTRA.SOLV>
2.22759

>  <SCORE.INTRA.SOLV.lig_0>
-25.2195

>  <SCORE.INTRA.VDW>
-4.53788

>  <SCORE.INTRA.VDW.0>
4.14263

>  <SCORE.INTRA.norm>
-0.36206

>  <SCORE.RESTR>
1.61094

>  <SCORE.RESTR.CAVITY>
1.61094

>  <SCORE.RESTR.norm>
0.0644377

>  <SCORE.SYSTEM>
0

>  <SCORE.SYSTEM.CONST>
0

>  <SCORE.SYSTEM.DIHEDRAL>
0

>  <SCORE.SYSTEM.SOLV>
0

>  <SCORE.SYSTEM.norm>
0

>  <SCORE.heavy>
25

>  <SCORE.norm>
-1.05403

>  <RMSD>
14.595

$$$$
1uud_lig
 OpenBabel11021811413D
libRbt.so/2013.1/901 2013/11/27
 25 25  0  0  0  0  0  0  0  0999 V2000
   -8.0798  -13.8319    8.7387 C   0  0  0  0  0  0  0  0  0  0  0  0
   -9.9586  -14.8048   10.7700 O   0  0  0  0  0  0  0  0  0  0  0  0
   -9.1739  -14.3527   11.8836 C   0  0  0  0  0  0  0  0  0  0  0  0
   -7.2428  -12.9481    7.8899 N   0  0  0  0  0  0  0  0  0  0  0  0
   -7.7760  -14.9843   11.8374 C   0  0  0  0  0  0  0  0  0  0  0  0
   -6.8959  -11.7160    8.6371 C   0  0  0  0  0  0  0  0  0  0  0  0
   -6.0504  -10.7973    7.7468 C   0  0  0  0  0  0  0  0  0  0  0  0
   -6.9579  -14.3160   12.6152 N   0  0  0  0  0  0  0  0  0  0  0  0
   -6.2077  -13.3359   12.1477 C   0  0  0  0  0  0  0  0  0  0  0  0
   -5.8408   -9.4473    8.4413 C   0  0  0  0  0  0  0  0  0  0  0  0
   -5.0794   -9.6594    9.7530 C   0  0  0  0  0  0  0  0  0  0  0  0
   -6.7608  -12.2091   11.6046 N   0  0  0  0  0  0  0  0  0  0  0  0
   -4.8557  -13.4497   12.2062 N   0  0  0  0  0  0  0  0  0  0  0  0
   -5.0674   -8.5456   10.4461 N   0  0  0  0  0  0  0  0  0  0  0  0
   -6.1213   -8.1505   11.1343 C   0  0  0  0  0  0  0  0  0  0  0  0
   -6.6522   -6.9254   10.8876 N   0  0  0  0  0  0  0  0  0  0  0  0
   -6.6842   -8.9408   12.0960 N   0  0  0  0  0  0  0  0  0  0  0  0
  -10.3465  -13.6904    9.9562 C   0  0  0  0  0  0  0  0  0  0  0  0
  -11.5050  -10.3401    7.5722 O   0  0  0  0  0  0  0  0  0  0  0  0
   -9.4617  -13.1831    8.9614 C   0  0  0  0  0  0  0  0  0  0  0  0
   -9.8462  -12.0636    8.1759 C   0  0  0  0  0  0  0  0  0  0  0  0
  -11.1189  -11.4642    8.3670 C   0  0  0  0  0  0  0  0  0  0  0  0
  -12.0098  -11.9817    9.3455 C   0  0  0  0  0  0  0  0  0  0  0  0
  -11.6279  -13.0993   10.1361 C   0  0  0  0  0  0  0  0  0  0  0  0
  -11.5074  -10.7087    6.1900 C   0  0  0  0  0  0  0  0  0  0  0  0
  1  4  1  0  0  0  0
  2  3  1  0  0  0  0
  3  5  1  0  0  0  0
  4  6  1  0  0  0  0
  5  8  1  0  0  0  0
  6  7  1  0  0  0  0
  7 10  1  0  0  0  0
  8  9  1  0  0  0  0
  9 12  1  0  0  0  0
  9 13  1  0  0  0  0
 10 11  1  0  0  0  0
 11 14  1  0  0  0  0
 14 15  1  0  0  0  0
 15 16  1  0  0  0  0
 15 17  1  0  0  0  0
 18  2  1  0  0  0  0
 18 20  2  0  0  0  0
 18 24  1  0  0  0  0
 19 25  1  0  0  0  0
 20  1  1  0  0  0  0
 20 21  1  0  0  0  0
 21 22  2  0  0  0  0
 22 19  1  0  0  0  0
 22 23  1  0  0  0  0
 23 24  2  0  0  0  0
M  END
>  <CHROM.1>
68.33442799,-119.26423284,162.99365695,-179.09097697,-93.19854979,172.66938799
61.73743852,62.00431583,135.51396936,-27.13108646,-170.77946150,77.81926857
-123.57140595,57.60257600,-121.53072953,84.08880421,-167.04656038,60.29717214
-8.03832654,-11.75723486,9.93070966,-2.77251019,-0.55554808,-0.48795291

>  <Name>
1uud_lig

>  <RI>
0

>  <Rbt.Current_Directory>
/home/itssahil/PROJECTS/Mol_Feturizer/New_Systems/rnas/1uud

>  <Rbt.Executable>
rbdock ($Id: //depot/dev/client3/rdock/2013.1/src/exe/rbdock.cxx#4 $)

>  <Rbt.Library>
libRbt.so (2013.1, Build901 2013/11/27)

>  <Rbt.Parameter_File>
/export/apps/rDock/src/rDock_2013.1_src/data/scripts/dock_solv.prm

>  <Rbt.Receptor>
prm/blind_docking_100.prm

>  <SCORE>
-30.4241

>  <SCORE.INTER>
-24.8642

>  <SCORE.INTER.CONST>
1

>  <SCORE.INTER.POLAR>
-4.69256

>  <SCORE.INTER.ROT>
18

>  <SCORE.INTER.SOLV>
9.07981

>  <SCORE.INTER.VDW>
-19.5609

>  <SCORE.INTER.norm>
-0.99457

>  <SCORE.INTRA>
-6.09117

>  <SCORE.INTRA.DIHEDRAL>
-3.06641

>  <SCORE.INTRA.DIHEDRAL.0>
30.6762

>  <SCORE.INTRA.POLAR>
-0.333531

>  <SCORE.INTRA.POLAR.0>
-0.0288659

>  <SCORE.INTRA.REPUL>
0

>  <SCORE.INTRA.REPUL.0>
0

>  <SCORE.INTRA.SOLV>
0.97354

>  <SCORE.INTRA.SOLV.lig_0>
-25.2195

>  <SCORE.INTRA.VDW>
-3.91073

>  <SCORE.INTRA.VDW.0>
4.14263

>  <SCORE.INTRA.norm>
-0.243647

>  <SCORE.RESTR>
0.531275

>  <SCORE.RESTR.CAVITY>
0.531275

>  <SCORE.RESTR.norm>
0.021251

>  <SCORE.SYSTEM>
0

>  <SCORE.SYSTEM.CONST>
0

>  <SCORE.SYSTEM.DIHEDRAL>
0

>  <SCORE.SYSTEM.SOLV>
0

>  <SCORE.SYSTEM.norm>
0

>  <SCORE.heavy>
25

>  <SCORE.norm>
-1.21697

>  <RMSD>
14.595

$$$$
1uud_lig
 OpenBabel11021811413D
libRbt.so/2013.1/901 2013/11/27
 25 25  0  0  0  0  0  0  0  0999 V2000
   -7.4978  -11.0634    8.0036 C   0  0  0  0  0  0  0  0  0  0  0  0
   -7.9068  -13.4375    9.6765 O   0  0  0  0  0  0  0  0  0  0  0  0
   -7.8240  -13.3928   11.1088 C   0  0  0  0  0  0  0  0  0  0  0  0
   -6.7434  -10.6317    9.2064 N   0  0  0  0  0  0  0  0  0  0  0  0
   -6.3878  -13.6829   11.5654 C   0  0  0  0  0  0  0  0  0  0  0  0
   -5.4461  -10.0411    8.8002 C   0  0  0  0  0  0  0  0  0  0  0  0
   -4.6758   -9.5889   10.0467 C   0  0  0  0  0  0  0  0  0  0  0  0
   -6.1063  -12.9736   12.6323 N   0  0  0  0  0  0  0  0  0  0  0  0
   -5.4706  -11.8202   12.5461 C   0  0  0  0  0  0  0  0  0  0  0  0
   -4.4853   -8.0685   10.0185 C   0  0  0  0  0  0  0  0  0  0  0  0
   -3.9476   -7.5950   11.3720 C   0  0  0  0  0  0  0  0  0  0  0  0
   -4.1737  -11.7491   12.1175 N   0  0  0  0  0  0  0  0  0  0  0  0
   -6.1188  -10.6781   12.8922 N   0  0  0  0  0  0  0  0  0  0  0  0
   -4.8505   -7.7917   12.3034 N   0  0  0  0  0  0  0  0  0  0  0  0
   -4.5894   -7.5622   13.5760 C   0  0  0  0  0  0  0  0  0  0  0  0
   -3.3695   -7.8933   14.0719 N   0  0  0  0  0  0  0  0  0  0  0  0
   -5.5208   -7.0091   14.4082 N   0  0  0  0  0  0  0  0  0  0  0  0
   -9.0572  -12.7103    9.2269 C   0  0  0  0  0  0  0  0  0  0  0  0
  -12.4977  -10.5323    7.9348 O   0  0  0  0  0  0  0  0  0  0  0  0
   -8.9029  -11.5484    8.4169 C   0  0  0  0  0  0  0  0  0  0  0  0
  -10.0484  -10.8213    7.9958 C   0  0  0  0  0  0  0  0  0  0  0  0
  -11.3463  -11.2636    8.3635 C   0  0  0  0  0  0  0  0  0  0  0  0
  -11.5021  -12.4333    9.1550 C   0  0  0  0  0  0  0  0  0  0  0  0
  -10.3588  -13.1619    9.5815 C   0  0  0  0  0  0  0  0  0  0  0  0
  -12.5414  -10.5020    6.5052 C   0  0  0  0  0  0  0  0  0  0  0  0
  1  4  1  0  0  0  0
  2  3  1  0  0  0  0
  3  5  1  0  0  0  0
  4  6  1  0  0  0  0
  5  8  1  0  0  0  0
  6  7  1  0  0  0  0
  7 10  1  0  0  0  0
  8  9  1  0  0  0  0
  9 12  1  0  0  0  0
  9 13  1  0  0  0  0
 10 11  1  0  0  0  0
 11 14  1  0  0  0  0
 14 15  1  0  0  0  0
 15 16  1  0  0  0  0
 15 17  1  0  0  0  0
 18  2  1  0  0  0  0
 18 20  2  0  0  0  0
 18 24  1  0  0  0  0
 19 25  1  0  0  0  0
 20  1  1  0  0  0  0
 20 21  1  0  0  0  0
 21 22  2  0  0  0  0
 22 19  1  0  0  0  0
 22 23  1  0  0  0  0
 23 24  2  0  0  0  0
M  END
>  <CHROM.1>
-174.42957643,-158.79948654,145.05096408,179.62991748,-96.30346677,-116.50139849
169.78714545,-65.92457633,-135.25906230,-5.95639497,-65.98844974,174.63335598
-39.13847061,-40.76558045,-84.02120777,116.53573758,-65.24876182,60.28028536
-7.17825797,-10.67202968,10.53713224,2.89204615,0.66832939,2.93791560

>  <Name>
1uud_lig

>  <RI>
0

>  <Rbt.Current_Directory>
/home/itssahil/PROJECTS/Mol_Feturizer/New_Systems/rnas/1uud

>  <Rbt.Executable>
rbdock ($Id: //depot/dev/client3/rdock/2013.1/src/exe/rbdock.cxx#4 $)

>  <Rbt.Library>
libRbt.so (2013.1, Build901 2013/11/27)

>  <Rbt.Parameter_File>
/export/apps/rDock/src/rDock_2013.1_src/data/scripts/dock_solv.prm

>  <Rbt.Receptor>
prm/blind_docking_60.prm

>  <SCORE>
-19.4077

>  <SCORE.INTER>
-12.6818

>  <SCORE.INTER.CONST>
1

>  <SCORE.INTER.POLAR>
-2.24349

>  <SCORE.INTER.ROT>
18

>  <SCORE.INTER.SOLV>
8.43661

>  <SCORE.INTER.VDW>
-19.3884

>  <SCORE.INTER.norm>
-0.507271

>  <SCORE.INTRA>
-8.21678

>  <SCORE.INTRA.DIHEDRAL>
-1.30594

>  <SCORE.INTRA.DIHEDRAL.0>
30.6762

>  <SCORE.INTRA.POLAR>
-0.802134

>  <SCORE.INTRA.POLAR.0>
-0.0288659

>  <SCORE.INTRA.REPUL>
0.016987

>  <SCORE.INTRA.REPUL.0>
0

>  <SCORE.INTRA.SOLV>
2.02985

>  <SCORE.INTRA.SOLV.lig_0>
-25.2195

>  <SCORE.INTRA.VDW>
-5.93641

>  <SCORE.INTRA.VDW.0>
4.14263

>  <SCORE.INTRA.norm>
-0.328671

>  <SCORE.RESTR>
1.49082

>  <SCORE.RESTR.CAVITY>
1.49082

>  <SCORE.RESTR.norm>
0.0596327

>  <SCORE.SYSTEM>
0

>  <SCORE.SYSTEM.CONST>
0

>  <SCORE.SYSTEM.DIHEDRAL>
0

>  <SCORE.SYSTEM.SOLV>
0

>  <SCORE.SYSTEM.norm>
0

>  <SCORE.heavy>
25

>  <SCORE.norm>
-0.77631

>  <RMSD>
14.602

$$$$
1uud_lig
 OpenBabel11021811413D
libRbt.so/2013.1/901 2013/11/27
 25 25  0  0  0  0  0  0  0  0999 V2000
   -5.7182  -12.2120    7.3827 C   0  0  0  0  0  0  0  0  0  0  0  0
   -8.2285  -12.7493    8.8013 O   0  0  0  0  0  0  0  0  0  0  0  0
   -9.2414  -13.5698    9.4023 C   0  0  0  0  0  0  0  0  0  0  0  0
   -5.7676  -10.7319    7.2884 N   0  0  0  0  0  0  0  0  0  0  0  0
  -10.6351  -13.0804    8.9861 C   0  0  0  0  0  0  0  0  0  0  0  0
   -6.0755  -10.1541    8.6181 C   0  0  0  0  0  0  0  0  0  0  0  0
   -6.1730   -8.6280    8.5040 C   0  0  0  0  0  0  0  0  0  0  0  0
  -10.6025  -11.7913    8.7454 N   0  0  0  0  0  0  0  0  0  0  0  0
  -11.7005  -11.1129    8.4693 C   0  0  0  0  0  0  0  0  0  0  0  0
   -6.2516   -8.0048    9.9020 C   0  0  0  0  0  0  0  0  0  0  0  0
   -4.9178   -8.2054   10.6273 C   0  0  0  0  0  0  0  0  0  0  0  0
  -12.5262  -10.6558    9.4592 N   0  0  0  0  0  0  0  0  0  0  0  0
  -12.0181  -10.8645    7.1725 N   0  0  0  0  0  0  0  0  0  0  0  0
   -5.0580   -7.9287   11.9021 N   0  0  0  0  0  0  0  0  0  0  0  0
   -4.2116   -7.1375   12.5329 C   0  0  0  0  0  0  0  0  0  0  0  0
   -4.5181   -6.7009   13.7815 N   0  0  0  0  0  0  0  0  0  0  0  0
   -3.0395   -6.7392   11.9552 N   0  0  0  0  0  0  0  0  0  0  0  0
   -6.9945  -12.8869    9.5173 C   0  0  0  0  0  0  0  0  0  0  0  0
   -3.3261  -13.3460   11.6580 O   0  0  0  0  0  0  0  0  0  0  0  0
   -5.7523  -12.6405    8.8645 C   0  0  0  0  0  0  0  0  0  0  0  0
   -4.5336  -12.8022    9.5765 C   0  0  0  0  0  0  0  0  0  0  0  0
   -4.5540  -13.1880   10.9425 C   0  0  0  0  0  0  0  0  0  0  0  0
   -5.7931  -13.4150   11.5999 C   0  0  0  0  0  0  0  0  0  0  0  0
   -7.0146  -13.2579   10.8905 C   0  0  0  0  0  0  0  0  0  0  0  0
   -2.9827  -12.1138   12.2985 C   0  0  0  0  0  0  0  0  0  0  0  0
  1  4  1  0  0  0  0
  2  3  1  0  0  0  0
  3  5  1  0  0  0  0
  4  6  1  0  0  0  0
  5  8  1  0  0  0  0
  6  7  1  0  0  0  0
  7 10  1  0  0  0  0
  8  9  1  0  0  0  0
  9 12  1  0  0  0  0
  9 13  1  0  0  0  0
 10 11  1  0  0  0  0
 11 14  1  0  0  0  0
 14 15  1  0  0  0  0
 15 16  1  0  0  0  0
 15 17  1  0  0  0  0
 18  2  1  0  0  0  0
 18 20  2  0  0  0  0
 18 24  1  0  0  0  0
 19 25  1  0  0  0  0
 20  1  1  0  0  0  0
 20 21  1  0  0  0  0
 21 22  2  0  0  0  0
 22 19  1  0  0  0  0
 22 23  1  0  0  0  0
 23 24  2  0  0  0  0
M  END
>  <CHROM.1>
-10.03069429,160.21623183,-28.76913653,-178.05832474,-174.71961617,-170.37336772
67.81886806,82.68663441,99.52566082,-79.42691553,-167.07813437,-131.29568895
168.98238359,91.79488481,148.90707901,154.64119910,90.10425258,91.83458554
-6.73158445,-10.87953310,9.95932726,-2.65292353,-0.38354895,0.20369619

>  <Name>
1uud_lig

>  <RI>
0

>  <Rbt.Current_Directory>
/home/itssahil/PROJECTS/Mol_Feturizer/New_Systems/rnas/1uud

>  <Rbt.Executable>
rbdock ($Id: //depot/dev/client3/rdock/2013.1/src/exe/rbdock.cxx#4 $)

>  <Rbt.Library>
libRbt.so (2013.1, Build901 2013/11/27)

>  <Rbt.Parameter_File>
/export/apps/rDock/src/rDock_2013.1_src/data/scripts/dock_solv.prm

>  <Rbt.Receptor>
prm/blind_docking_60.prm

>  <SCORE>
-28.1141

>  <SCORE.INTER>
-29.8906

>  <SCORE.INTER.CONST>
1

>  <SCORE.INTER.POLAR>
-4.12904

>  <SCORE.INTER.ROT>
18

>  <SCORE.INTER.SOLV>
12.2941

>  <SCORE.INTER.VDW>
-25.8616

>  <SCORE.INTER.norm>
-1.19563

>  <SCORE.INTRA>
1.28087

>  <SCORE.INTRA.DIHEDRAL>
-5.37716

>  <SCORE.INTRA.DIHEDRAL.0>
30.6762

>  <SCORE.INTRA.POLAR>
-0.127085

>  <SCORE.INTRA.POLAR.0>
-0.0288659

>  <SCORE.INTRA.REPUL>
0

>  <SCORE.INTRA.REPUL.0>
0

>  <SCORE.INTRA.SOLV>
-1.01418

>  <SCORE.INTRA.SOLV.lig_0>
-25.2195

>  <SCORE.INTRA.VDW>
4.90864

>  <SCORE.INTRA.VDW.0>
4.14263

>  <SCORE.INTRA.norm>
0.051235

>  <SCORE.RESTR>
0.495625

>  <SCORE.RESTR.CAVITY>
0.495625

>  <SCORE.RESTR.norm>
0.019825

>  <SCORE.SYSTEM>
0

>  <SCORE.SYSTEM.CONST>
0

>  <SCORE.SYSTEM.DIHEDRAL>
0

>  <SCORE.SYSTEM.SOLV>
0

>  <SCORE.SYSTEM.norm>
0

>  <SCORE.heavy>
25

>  <SCORE.norm>
-1.12457

>  <RMSD>
14.607

$$$$
1uud_lig
 OpenBabel11021811413D
libRbt.so/2013.1/901 2013/11/27
 25 25  0  0  0  0  0  0  0  0999 V2000
   -6.3325   -8.9546   12.7358 C   0  0  0  0  0  0  0  0  0  0  0  0
   -5.1592  -11.0175   11.0124 O   0  0  0  0  0  0  0  0  0  0  0  0
   -5.5432  -12.0751   10.1211 C   0  0  0  0  0  0  0  0  0  0  0  0
   -6.0822   -7.7037   13.4939 N   0  0  0  0  0  0  0  0  0  0  0  0
   -7.0727  -12.1813   10.0533 C   0  0  0  0  0  0  0  0  0  0  0  0
   -4.9471   -7.9004   14.4264 C   0  0  0  0  0  0  0  0  0  0  0  0
   -3.6301   -7.5940   13.7031 C   0  0  0  0  0  0  0  0  0  0  0  0
   -7.4167  -13.2553    9.3833 N   0  0  0  0  0  0  0  0  0  0  0  0
   -8.5413  -13.3080    8.6944 C   0  0  0  0  0  0  0  0  0  0  0  0
   -2.4449   -7.9177   14.6191 C   0  0  0  0  0  0  0  0  0  0  0  0
   -1.1418   -7.4809   13.9435 C   0  0  0  0  0  0  0  0  0  0  0  0
   -8.9851  -12.2377    7.9677 N   0  0  0  0  0  0  0  0  0  0  0  0
   -9.2749  -14.4508    8.7087 N   0  0  0  0  0  0  0  0  0  0  0  0
   -0.1443   -7.5872   14.7890 N   0  0  0  0  0  0  0  0  0  0  0  0
    0.4585   -8.7411   15.0025 C   0  0  0  0  0  0  0  0  0  0  0  0
    1.5519   -8.7783   15.8066 N   0  0  0  0  0  0  0  0  0  0  0  0
    0.0144   -9.8969   14.4253 N   0  0  0  0  0  0  0  0  0  0  0  0
   -5.4823   -9.7458   10.4354 C   0  0  0  0  0  0  0  0  0  0  0  0
   -6.4786   -5.9782    8.6854 O   0  0  0  0  0  0  0  0  0  0  0  0
   -6.0586   -8.7178   11.2361 C   0  0  0  0  0  0  0  0  0  0  0  0
   -6.3967   -7.4688   10.6495 C   0  0  0  0  0  0  0  0  0  0  0  0
   -6.1412   -7.2376    9.2723 C   0  0  0  0  0  0  0  0  0  0  0  0
   -5.5485   -8.2554    8.4774 C   0  0  0  0  0  0  0  0  0  0  0  0
   -5.2119   -9.5077    9.0593 C   0  0  0  0  0  0  0  0  0  0  0  0
   -7.4916   -6.1680    7.6932 C   0  0  0  0  0  0  0  0  0  0  0  0
  1  4  1  0  0  0  0
  2  3  1  0  0  0  0
  3  5  1  0  0  0  0
  4  6  1  0  0  0  0
  5  8  1  0  0  0  0
  6  7  1  0  0  0  0
  7 10  1  0  0  0  0
  8  9  1  0  0  0  0
  9 12  1  0  0  0  0
  9 13  1  0  0  0  0
 10 11  1  0  0  0  0
 11 14  1  0  0  0  0
 14 15  1  0  0  0  0
 15 16  1  0  0  0  0
 15 17  1  0  0  0  0
 18  2  1  0  0  0  0
 18 20  2  0  0  0  0
 18 24  1  0  0  0  0
 19 25  1  0  0  0  0
 20  1  1  0  0  0  0
 20 21  1  0  0  0  0
 21 22  2  0  0  0  0
 22 19  1  0  0  0  0
 22 23  1  0  0  0  0
 23 24  2  0  0  0  0
M  END
>  <CHROM.1>
-115.53096754,-70.13275972,-171.61793396,87.35186969,-150.40162960,-174.83993246
-174.46834721,39.92124490,79.98499526,-177.88371941,171.53960530,82.15191082
174.85397436,-11.06090565,175.80940758,137.63686314,143.95958041,-115.89570793
-4.92231460,-9.40046421,11.40431688,2.86328605,0.71338445,3.06048396

>  <Name>
1uud_lig

>  <RI>
0

>  <Rbt.Current_Directory>
/home/itssahil/PROJECTS/Mol_Feturizer/New_Systems/rnas/1uud

>  <Rbt.Executable>
rbdock ($Id: //depot/dev/client3/rdock/2013.1/src/exe/rbdock.cxx#4 $)

>  <Rbt.Library>
libRbt.so (2013.1, Build901 2013/11/27)

>  <Rbt.Parameter_File>
/export/apps/rDock/src/rDock_2013.1_src/data/scripts/dock_solv.prm

>  <Rbt.Receptor>
prm/blind_docking_20.prm

>  <SCORE>
-35.2024

>  <SCORE.INTER>
-31.8909

>  <SCORE.INTER.CONST>
1

>  <SCORE.INTER.POLAR>
-4.59034

>  <SCORE.INTER.ROT>
18

>  <SCORE.INTER.SOLV>
13.0931

>  <SCORE.INTER.VDW>
-25.9238

>  <SCORE.INTER.norm>
-1.27563

>  <SCORE.INTRA>
-3.88972

>  <SCORE.INTRA.DIHEDRAL>
-7.86287

>  <SCORE.INTRA.DIHEDRAL.0>
30.6762

>  <SCORE.INTRA.POLAR>
0.0288659

>  <SCORE.INTRA.POLAR.0>
-0.0288659

>  <SCORE.INTRA.REPUL>
0

>  <SCORE.INTRA.REPUL.0>
0

>  <SCORE.INTRA.SOLV>
-1.32233

>  <SCORE.INTRA.SOLV.lig_0>
-25.2195

>  <SCORE.INTRA.VDW>
0.604742

>  <SCORE.INTRA.VDW.0>
4.14263

>  <SCORE.INTRA.norm>
-0.155589

>  <SCORE.RESTR>
0.578223

>  <SCORE.RESTR.CAVITY>
0.578223

>  <SCORE.RESTR.norm>
0.0231289

>  <SCORE.SYSTEM>
0

>  <SCORE.SYSTEM.CONST>
0

>  <SCORE.SYSTEM.DIHEDRAL>
0

>  <SCORE.SYSTEM.SOLV>
0

>  <SCORE.SYSTEM.norm>
0

>  <SCORE.heavy>
25

>  <SCORE.norm>
-1.40809

>  <RMSD>
14.613

$$$$
1uud_lig
 OpenBabel11021811413D
libRbt.so/2013.1/901 2013/11/27
 25 25  0  0  0  0  0  0  0  0999 V2000
   -7.5759  -11.1467    8.2517 C   0  0  0  0  0  0  0  0  0  0  0  0
   -7.6476  -13.2950   10.2472 O   0  0  0  0  0  0  0  0  0  0  0  0
   -7.8185  -13.5458   11.6501 C   0  0  0  0  0  0  0  0  0  0  0  0
   -6.8030  -10.7093    9.4407 N   0  0  0  0  0  0  0  0  0  0  0  0
   -6.4962  -14.0199   12.2681 C   0  0  0  0  0  0  0  0  0  0  0  0
   -5.6928   -9.8223    9.0193 C   0  0  0  0  0  0  0  0  0  0  0  0
   -4.8911   -9.3838   10.2508 C   0  0  0  0  0  0  0  0  0  0  0  0
   -5.5794  -13.0924   12.1275 N   0  0  0  0  0  0  0  0  0  0  0  0
   -4.6230  -13.1988   11.2242 C   0  0  0  0  0  0  0  0  0  0  0  0
   -4.8428   -7.8538   10.3236 C   0  0  0  0  0  0  0  0  0  0  0  0
   -3.9456   -7.4249   11.4882 C   0  0  0  0  0  0  0  0  0  0  0  0
   -3.3472  -13.5483   11.5717 N   0  0  0  0  0  0  0  0  0  0  0  0
   -4.9123  -12.9543    9.9200 N   0  0  0  0  0  0  0  0  0  0  0  0
   -4.2044   -8.1598   12.5438 N   0  0  0  0  0  0  0  0  0  0  0  0
   -5.2783   -7.9527   13.2815 C   0  0  0  0  0  0  0  0  0  0  0  0
   -5.8480   -9.0004   13.9306 N   0  0  0  0  0  0  0  0  0  0  0  0
   -5.8359   -6.7112   13.3991 N   0  0  0  0  0  0  0  0  0  0  0  0
   -8.8839  -12.8535    9.6718 C   0  0  0  0  0  0  0  0  0  0  0  0
  -12.5841  -11.5224    8.0024 O   0  0  0  0  0  0  0  0  0  0  0  0
   -8.8942  -11.8089    8.7029 C   0  0  0  0  0  0  0  0  0  0  0  0
  -10.1270  -11.3626    8.1557 C   0  0  0  0  0  0  0  0  0  0  0  0
  -11.3451  -11.9708    8.5577 C   0  0  0  0  0  0  0  0  0  0  0  0
  -11.3340  -13.0258    9.5094 C   0  0  0  0  0  0  0  0  0  0  0  0
  -10.1034  -13.4732   10.0621 C   0  0  0  0  0  0  0  0  0  0  0  0
  -13.1284  -10.4836    8.8216 C   0  0  0  0  0  0  0  0  0  0  0  0
  1  4  1  0  0  0  0
  2  3  1  0  0  0  0
  3  5  1  0  0  0  0
  4  6  1  0  0  0  0
  5  8  1  0  0  0  0
  6  7  1  0  0  0  0
  7 10  1  0  0  0  0
  8  9  1  0  0  0  0
  9 12  1  0  0  0  0
  9 13  1  0  0  0  0
 10 11  1  0  0  0  0
 11 14  1  0  0  0  0
 14 15  1  0  0  0  0
 15 16  1  0  0  0  0
 15 17  1  0  0  0  0
 18  2  1  0  0  0  0
 18 20  2  0  0  0  0
 18 24  1  0  0  0  0
 19 25  1  0  0  0  0
 20  1  1  0  0  0  0
 20 21  1  0  0  0  0
 21 22  2  0  0  0  0
 22 19  1  0  0  0  0
 22 23  1  0  0  0  0
 23 24  2  0  0  0  0
M  END
>  <CHROM.1>
-167.83238051,179.95107763,60.91077913,-179.51243969,-104.12027777,-123.86190301
-175.36996483,-103.59392636,-175.87780666,-52.99378597,-43.72489278,-76.66004509
150.02135942,11.30450200,-60.21268971,139.72399647,-51.62205064,-90.72274215
-7.19430591,-11.09968838,10.55109003,2.69675221,0.42899216,-3.03441552

>  <Name>
1uud_lig

>  <RI>
0

>  <Rbt.Current_Directory>
/home/itssahil/PROJECTS/Mol_Feturizer/New_Systems/rnas/1uud

>  <Rbt.Executable>
rbdock ($Id: //depot/dev/client3/rdock/2013.1/src/exe/rbdock.cxx#4 $)

>  <Rbt.Library>
libRbt.so (2013.1, Build901 2013/11/27)

>  <Rbt.Parameter_File>
/export/apps/rDock/src/rDock_2013.1_src/data/scripts/dock_solv.prm

>  <Rbt.Receptor>
prm/blind_docking_60.prm

>  <SCORE>
-39.135

>  <SCORE.INTER>
-27.4609

>  <SCORE.INTER.CONST>
1

>  <SCORE.INTER.POLAR>
-3.86366

>  <SCORE.INTER.ROT>
18

>  <SCORE.INTER.SOLV>
9.79017

>  <SCORE.INTER.VDW>
-24.2918

>  <SCORE.INTER.norm>
-1.09844

>  <SCORE.INTRA>
-12.3708

>  <SCORE.INTRA.DIHEDRAL>
-6.72466

>  <SCORE.INTRA.DIHEDRAL.0>
30.6762

>  <SCORE.INTRA.POLAR>
-1.35195

>  <SCORE.INTRA.POLAR.0>
-0.0288659

>  <SCORE.INTRA.REPUL>
0

>  <SCORE.INTRA.REPUL.0>
0

>  <SCORE.INTRA.SOLV>
1.693

>  <SCORE.INTRA.SOLV.lig_0>
-25.2195

>  <SCORE.INTRA.VDW>
-5.2583

>  <SCORE.INTRA.VDW.0>
4.14263

>  <SCORE.INTRA.norm>
-0.49483

>  <SCORE.RESTR>
0.69668

>  <SCORE.RESTR.CAVITY>
0.69668

>  <SCORE.RESTR.norm>
0.0278672

>  <SCORE.SYSTEM>
0

>  <SCORE.SYSTEM.CONST>
0

>  <SCORE.SYSTEM.DIHEDRAL>
0

>  <SCORE.SYSTEM.SOLV>
0

>  <SCORE.SYSTEM.norm>
0

>  <SCORE.heavy>
25

>  <SCORE.norm>
-1.5654

>  <RMSD>
14.625

$$$$
1uud_lig
 OpenBabel11021811413D
libRbt.so/2013.1/901 2013/11/27
 25 25  0  0  0  0  0  0  0  0999 V2000
   -6.5198  -12.1960   10.5459 C   0  0  0  0  0  0  0  0  0  0  0  0
   -8.1284  -12.3748    8.0998 O   0  0  0  0  0  0  0  0  0  0  0  0
   -8.7541  -11.1044    8.3340 C   0  0  0  0  0  0  0  0  0  0  0  0
   -5.4706  -12.4447    9.5263 N   0  0  0  0  0  0  0  0  0  0  0  0
   -9.4425  -10.6095    7.0548 C   0  0  0  0  0  0  0  0  0  0  0  0
   -5.5095  -11.3800    8.4959 C   0  0  0  0  0  0  0  0  0  0  0  0
   -5.5315  -10.0067    9.1780 C   0  0  0  0  0  0  0  0  0  0  0  0
  -10.6639  -10.2167    7.3280 N   0  0  0  0  0  0  0  0  0  0  0  0
  -11.5527  -11.0401    7.8514 C   0  0  0  0  0  0  0  0  0  0  0  0
   -5.4968   -8.8986    8.1200 C   0  0  0  0  0  0  0  0  0  0  0  0
   -5.9334   -7.5738    8.7520 C   0  0  0  0  0  0  0  0  0  0  0  0
  -11.9178  -10.9556    9.1667 N   0  0  0  0  0  0  0  0  0  0  0  0
  -12.1164  -11.9939    7.0660 N   0  0  0  0  0  0  0  0  0  0  0  0
   -5.3157   -7.4014    9.8966 N   0  0  0  0  0  0  0  0  0  0  0  0
   -5.8459   -7.8083   11.0341 C   0  0  0  0  0  0  0  0  0  0  0  0
   -7.1155   -7.4389   11.3425 N   0  0  0  0  0  0  0  0  0  0  0  0
   -5.1438   -8.5836   11.9128 N   0  0  0  0  0  0  0  0  0  0  0  0
   -8.4195  -13.2733    9.1780 C   0  0  0  0  0  0  0  0  0  0  0  0
   -9.2753  -15.9902   12.3617 O   0  0  0  0  0  0  0  0  0  0  0  0
   -7.6589  -13.2235   10.3817 C   0  0  0  0  0  0  0  0  0  0  0  0
   -7.9402  -14.1339   11.4354 C   0  0  0  0  0  0  0  0  0  0  0  0
   -8.9916  -15.0778   11.2980 C   0  0  0  0  0  0  0  0  0  0  0  0
   -9.7634  -15.1152   10.1056 C   0  0  0  0  0  0  0  0  0  0  0  0
   -9.4833  -14.2088    9.0474 C   0  0  0  0  0  0  0  0  0  0  0  0
   -8.0550  -16.5652   12.8381 C   0  0  0  0  0  0  0  0  0  0  0  0
  1  4  1  0  0  0  0
  2  3  1  0  0  0  0
  3  5  1  0  0  0  0
  4  6  1  0  0  0  0
  5  8  1  0  0  0  0
  6  7  1  0  0  0  0
  7 10  1  0  0  0  0
  8  9  1  0  0  0  0
  9 12  1  0  0  0  0
  9 13  1  0  0  0  0
 10 11  1  0  0  0  0
 11 14  1  0  0  0  0
 14 15  1  0  0  0  0
 15 16  1  0  0  0  0
 15 17  1  0  0  0  0
 18  2  1  0  0  0  0
 18 20  2  0  0  0  0
 18 24  1  0  0  0  0
 19 25  1  0  0  0  0
 20  1  1  0  0  0  0
 20 21  1  0  0  0  0
 21 22  2  0  0  0  0
 22 19  1  0  0  0  0
 22 23  1  0  0  0  0
 23 24  2  0  0  0  0
M  END
>  <CHROM.1>
107.80422762,-134.65355457,131.73083112,49.22534225,-59.41892503,177.02072585
163.24985175,105.49374774,41.69326285,-108.04144128,46.51319979,-91.87355169
-51.71976884,-101.16464705,-161.20215664,-82.23248604,-62.06999449,-46.31041245
-7.99966993,-11.52602545,9.61735071,-0.94080175,0.54744730,2.68297947

>  <Name>
1uud_lig

>  <RI>
0

>  <Rbt.Current_Directory>
/home/itssahil/PROJECTS/Mol_Feturizer/New_Systems/rnas/1uud

>  <Rbt.Executable>
rbdock ($Id: //depot/dev/client3/rdock/2013.1/src/exe/rbdock.cxx#4 $)

>  <Rbt.Library>
libRbt.so (2013.1, Build901 2013/11/27)

>  <Rbt.Parameter_File>
/export/apps/rDock/src/rDock_2013.1_src/data/scripts/dock_solv.prm

>  <Rbt.Receptor>
prm/blind_docking_100.prm

>  <SCORE>
-26.913

>  <SCORE.INTER>
-32.6755

>  <SCORE.INTER.CONST>
1

>  <SCORE.INTER.POLAR>
-5.31251

>  <SCORE.INTER.ROT>
18

>  <SCORE.INTER.SOLV>
10.4706

>  <SCORE.INTER.VDW>
-23.1655

>  <SCORE.INTER.norm>
-1.30702

>  <SCORE.INTRA>
3.09634

>  <SCORE.INTRA.DIHEDRAL>
3.3792

>  <SCORE.INTRA.DIHEDRAL.0>
30.6762

>  <SCORE.INTRA.POLAR>
0.0288659

>  <SCORE.INTRA.POLAR.0>
-0.0288659

>  <SCORE.INTRA.REPUL>
0

>  <SCORE.INTRA.REPUL.0>
0

>  <SCORE.INTRA.SOLV>
0.406321

>  <SCORE.INTRA.SOLV.lig_0>
-25.2195

>  <SCORE.INTRA.VDW>
1.10544

>  <SCORE.INTRA.VDW.0>
4.14263

>  <SCORE.INTRA.norm>
0.123854

>  <SCORE.RESTR>
2.66619

>  <SCORE.RESTR.CAVITY>
2.66619

>  <SCORE.RESTR.norm>
0.106648

>  <SCORE.SYSTEM>
0

>  <SCORE.SYSTEM.CONST>
0

>  <SCORE.SYSTEM.DIHEDRAL>
0

>  <SCORE.SYSTEM.SOLV>
0

>  <SCORE.SYSTEM.norm>
0

>  <SCORE.heavy>
25

>  <SCORE.norm>
-1.07652

>  <RMSD>
14.632

$$$$
1uud_lig
 OpenBabel11021811413D
libRbt.so/2013.1/901 2013/11/27
 25 25  0  0  0  0  0  0  0  0999 V2000
   -6.5249   -9.3204    9.5052 C   0  0  0  0  0  0  0  0  0  0  0  0
   -4.8855  -11.5467    8.5263 O   0  0  0  0  0  0  0  0  0  0  0  0
   -4.2756  -12.6676    9.1834 C   0  0  0  0  0  0  0  0  0  0  0  0
   -7.2272   -8.8803   10.7362 N   0  0  0  0  0  0  0  0  0  0  0  0
   -4.5230  -12.5934   10.6962 C   0  0  0  0  0  0  0  0  0  0  0  0
   -6.5391   -7.7006   11.3121 C   0  0  0  0  0  0  0  0  0  0  0  0
   -6.7494   -7.6752   12.8309 C   0  0  0  0  0  0  0  0  0  0  0  0
   -5.5426  -13.3527   11.0199 N   0  0  0  0  0  0  0  0  0  0  0  0
   -5.9940  -13.4104   12.2588 C   0  0  0  0  0  0  0  0  0  0  0  0
   -5.6333   -8.4634   13.5249 C   0  0  0  0  0  0  0  0  0  0  0  0
   -4.7015   -7.4938   14.2577 C   0  0  0  0  0  0  0  0  0  0  0  0
   -7.3145  -13.2037   12.5487 N   0  0  0  0  0  0  0  0  0  0  0  0
   -5.1270  -13.6801   13.2687 N   0  0  0  0  0  0  0  0  0  0  0  0
   -4.2554   -6.5869   13.4213 N   0  0  0  0  0  0  0  0  0  0  0  0
   -3.1811   -6.7973   12.6850 C   0  0  0  0  0  0  0  0  0  0  0  0
   -3.3298   -7.1777   11.3901 N   0  0  0  0  0  0  0  0  0  0  0  0
   -1.9234   -6.6513   13.1978 N   0  0  0  0  0  0  0  0  0  0  0  0
   -6.3113  -11.6935    8.5238 C   0  0  0  0  0  0  0  0  0  0  0  0
  -10.5567  -12.1694    8.5492 O   0  0  0  0  0  0  0  0  0  0  0  0
   -7.1443  -10.6384    8.9958 C   0  0  0  0  0  0  0  0  0  0  0  0
   -8.5553  -10.8027    9.0109 C   0  0  0  0  0  0  0  0  0  0  0  0
   -9.1360  -12.0082    8.5366 C   0  0  0  0  0  0  0  0  0  0  0  0
   -8.3071  -13.0535    8.0476 C   0  0  0  0  0  0  0  0  0  0  0  0
   -6.8947  -12.8949    8.0339 C   0  0  0  0  0  0  0  0  0  0  0  0
  -10.9301  -13.0460    9.6162 C   0  0  0  0  0  0  0  0  0  0  0  0
  1  4  1  0  0  0  0
  2  3  1  0  0  0  0
  3  5  1  0  0  0  0
  4  6  1  0  0  0  0
  5  8  1  0  0  0  0
  6  7  1  0  0  0  0
  7 10  1  0  0  0  0
  8  9  1  0  0  0  0
  9 12  1  0  0  0  0
  9 13  1  0  0  0  0
 10 11  1  0  0  0  0
 11 14  1  0  0  0  0
 14 15  1  0  0  0  0
 15 16  1  0  0  0  0
 15 17  1  0  0  0  0
 18  2  1  0  0  0  0
 18 20  2  0  0  0  0
 18 24  1  0  0  0  0
 19 25  1  0  0  0  0
 20  1  1  0  0  0  0
 20 21  1  0  0  0  0
 21 22  2  0  0  0  0
 22 19  1  0  0  0  0
 22 23  1  0  0  0  0
 23 24  2  0  0  0  0
M  END
>  <CHROM.1>
173.68280712,-72.00961305,97.63105424,-151.34519511,-176.81674372,89.41552762
108.91895697,127.45948855,75.51119956,162.67024882,-54.88085478,-86.42591781
99.45344481,-164.17931775,-96.11206231,128.23636999,-137.69165165,-104.95727456
-6.18709670,-10.51514234,10.85399082,2.27645038,0.57460744,-2.97130154

>  <Name>
1uud_lig

>  <RI>
0

>  <Rbt.Current_Directory>
/home/itssahil/PROJECTS/Mol_Feturizer/New_Systems/rnas/1uud

>  <Rbt.Executable>
rbdock ($Id: //depot/dev/client3/rdock/2013.1/src/exe/rbdock.cxx#4 $)

>  <Rbt.Library>
libRbt.so (2013.1, Build901 2013/11/27)

>  <Rbt.Parameter_File>
/export/apps/rDock/src/rDock_2013.1_src/data/scripts/dock_solv.prm

>  <Rbt.Receptor>
prm/blind_docking_60.prm

>  <SCORE>
-40.3923

>  <SCORE.INTER>
-38.5542

>  <SCORE.INTER.CONST>
1

>  <SCORE.INTER.POLAR>
-6.39113

>  <SCORE.INTER.ROT>
18

>  <SCORE.INTER.SOLV>
13.8345

>  <SCORE.INTER.VDW>
-24.6105

>  <SCORE.INTER.norm>
-1.54217

>  <SCORE.INTRA>
-3.06727

>  <SCORE.INTRA.DIHEDRAL>
1.77082

>  <SCORE.INTRA.DIHEDRAL.0>
30.6762

>  <SCORE.INTRA.POLAR>
0.0288659

>  <SCORE.INTRA.POLAR.0>
-0.0288659

>  <SCORE.INTRA.REPUL>
0

>  <SCORE.INTRA.REPUL.0>
0

>  <SCORE.INTRA.SOLV>
0.284796

>  <SCORE.INTRA.SOLV.lig_0>
-25.2195

>  <SCORE.INTRA.VDW>
-4.19322

>  <SCORE.INTRA.VDW.0>
4.14263

>  <SCORE.INTRA.norm>
-0.122691

>  <SCORE.RESTR>
1.22912

>  <SCORE.RESTR.CAVITY>
1.22912

>  <SCORE.RESTR.norm>
0.0491648

>  <SCORE.SYSTEM>
0

>  <SCORE.SYSTEM.CONST>
0

>  <SCORE.SYSTEM.DIHEDRAL>
0

>  <SCORE.SYSTEM.SOLV>
0

>  <SCORE.SYSTEM.norm>
0

>  <SCORE.heavy>
25

>  <SCORE.norm>
-1.61569

>  <RMSD>
14.647

$$$$
1uud_lig
 OpenBabel11021811413D
libRbt.so/2013.1/901 2013/11/27
 25 25  0  0  0  0  0  0  0  0999 V2000
   -6.7880   -9.7421    9.1908 C   0  0  0  0  0  0  0  0  0  0  0  0
   -9.4231  -11.0279    9.1151 O   0  0  0  0  0  0  0  0  0  0  0  0
  -10.1283  -11.8613    8.1833 C   0  0  0  0  0  0  0  0  0  0  0  0
   -7.0549   -8.7429   10.2550 N   0  0  0  0  0  0  0  0  0  0  0  0
  -11.4606  -11.2080    7.7917 C   0  0  0  0  0  0  0  0  0  0  0  0
   -5.7879   -8.0877   10.6576 C   0  0  0  0  0  0  0  0  0  0  0  0
   -5.9667   -7.4244   12.0286 C   0  0  0  0  0  0  0  0  0  0  0  0
  -11.8343  -11.6304    6.6073 N   0  0  0  0  0  0  0  0  0  0  0  0
  -12.3846  -10.8161    5.7264 C   0  0  0  0  0  0  0  0  0  0  0  0
   -5.6578   -8.4335   13.1400 C   0  0  0  0  0  0  0  0  0  0  0  0
   -4.7316   -7.7877   14.1745 C   0  0  0  0  0  0  0  0  0  0  0  0
  -12.4090  -11.1172    4.3924 N   0  0  0  0  0  0  0  0  0  0  0  0
  -12.9382   -9.6522    6.1543 N   0  0  0  0  0  0  0  0  0  0  0  0
   -3.8877   -6.9815   13.5751 N   0  0  0  0  0  0  0  0  0  0  0  0
   -2.6346   -7.3325   13.3584 C   0  0  0  0  0  0  0  0  0  0  0  0
   -1.7650   -6.4131   12.8663 N   0  0  0  0  0  0  0  0  0  0  0  0
   -2.1945   -8.6014   13.6078 N   0  0  0  0  0  0  0  0  0  0  0  0
   -8.3253  -11.7496    9.6883 C   0  0  0  0  0  0  0  0  0  0  0  0
   -5.0581  -13.9357   11.3605 O   0  0  0  0  0  0  0  0  0  0  0  0
   -7.0276  -11.1638    9.7401 C   0  0  0  0  0  0  0  0  0  0  0  0
   -5.9412  -11.8964   10.2890 C   0  0  0  0  0  0  0  0  0  0  0  0
   -6.1524  -13.2021   10.8048 C   0  0  0  0  0  0  0  0  0  0  0  0
   -7.4503  -13.7795   10.7713 C   0  0  0  0  0  0  0  0  0  0  0  0
   -8.5393  -13.0516   10.2198 C   0  0  0  0  0  0  0  0  0  0  0  0
   -3.8655  -13.6480   10.6247 C   0  0  0  0  0  0  0  0  0  0  0  0
  1  4  1  0  0  0  0
  2  3  1  0  0  0  0
  3  5  1  0  0  0  0
  4  6  1  0  0  0  0
  5  8  1  0  0  0  0
  6  7  1  0  0  0  0
  7 10  1  0  0  0  0
  8  9  1  0  0  0  0
  9 12  1  0  0  0  0
  9 13  1  0  0  0  0
 10 11  1  0  0  0  0
 11 14  1  0  0  0  0
 14 15  1  0  0  0  0
 15 16  1  0  0  0  0
 15 17  1  0  0  0  0
 18  2  1  0  0  0  0
 18 20  2  0  0  0  0
 18 24  1  0  0  0  0
 19 25  1  0  0  0  0
 20  1  1  0  0  0  0
 20 21  1  0  0  0  0
 21 22  2  0  0  0  0
 22 19  1  0  0  0  0
 22 23  1  0  0  0  0
 23 24  2  0  0  0  0
M  END
>  <CHROM.1>
111.81309200,168.16816897,154.35113358,-161.32980515,-140.32369925,87.70476534
132.80170388,160.08420328,62.15661462,41.40512854,-35.73019787,-102.52584902
-172.95963528,142.48183491,101.07369368,131.43132760,87.73959479,-35.69447774
-7.17321121,-10.31308414,10.15480626,2.78923884,0.64145293,-3.04252631

>  <Name>
1uud_lig

>  <RI>
0

>  <Rbt.Current_Directory>
/home/itssahil/PROJECTS/Mol_Feturizer/New_Systems/rnas/1uud

>  <Rbt.Executable>
rbdock ($Id: //depot/dev/client3/rdock/2013.1/src/exe/rbdock.cxx#4 $)

>  <Rbt.Library>
libRbt.so (2013.1, Build901 2013/11/27)

>  <Rbt.Parameter_File>
/export/apps/rDock/src/rDock_2013.1_src/data/scripts/dock_solv.prm

>  <Rbt.Receptor>
prm/blind_docking_20.prm

>  <SCORE>
-25.7266

>  <SCORE.INTER>
-28.8132

>  <SCORE.INTER.CONST>
1

>  <SCORE.INTER.POLAR>
-4.85538

>  <SCORE.INTER.ROT>
18

>  <SCORE.INTER.SOLV>
13.0233

>  <SCORE.INTER.VDW>
-22.9653

>  <SCORE.INTER.norm>
-1.15253

>  <SCORE.INTRA>
2.32593

>  <SCORE.INTRA.DIHEDRAL>
0.847981

>  <SCORE.INTRA.DIHEDRAL.0>
30.6762

>  <SCORE.INTRA.POLAR>
0.0288659

>  <SCORE.INTRA.POLAR.0>
-0.0288659

>  <SCORE.INTRA.REPUL>
0

>  <SCORE.INTRA.REPUL.0>
0

>  <SCORE.INTRA.SOLV>
-0.943989

>  <SCORE.INTRA.SOLV.lig_0>
-25.2195

>  <SCORE.INTRA.VDW>
2.27579

>  <SCORE.INTRA.VDW.0>
4.14263

>  <SCORE.INTRA.norm>
0.0930373

>  <SCORE.RESTR>
0.760615

>  <SCORE.RESTR.CAVITY>
0.760615

>  <SCORE.RESTR.norm>
0.0304246

>  <SCORE.SYSTEM>
0

>  <SCORE.SYSTEM.CONST>
0

>  <SCORE.SYSTEM.DIHEDRAL>
0

>  <SCORE.SYSTEM.SOLV>
0

>  <SCORE.SYSTEM.norm>
0

>  <SCORE.heavy>
25

>  <SCORE.norm>
-1.02906

>  <RMSD>
14.651

$$$$
1uud_lig
 OpenBabel11021811413D
libRbt.so/2013.1/901 2013/11/27
 25 25  0  0  0  0  0  0  0  0999 V2000
   -6.9752  -10.2169    8.6818 C   0  0  0  0  0  0  0  0  0  0  0  0
   -8.8616  -12.3721    8.0497 O   0  0  0  0  0  0  0  0  0  0  0  0
   -9.8586  -11.3656    8.2802 C   0  0  0  0  0  0  0  0  0  0  0  0
   -5.5467   -9.8457    8.5281 N   0  0  0  0  0  0  0  0  0  0  0  0
  -10.5222  -10.9645    6.9558 C   0  0  0  0  0  0  0  0  0  0  0  0
   -5.4172   -8.3715    8.4454 C   0  0  0  0  0  0  0  0  0  0  0  0
   -5.8933   -7.7404    9.7594 C   0  0  0  0  0  0  0  0  0  0  0  0
  -11.4870  -10.1050    7.1818 N   0  0  0  0  0  0  0  0  0  0  0  0
  -12.6793  -10.4974    7.5898 C   0  0  0  0  0  0  0  0  0  0  0  0
   -4.9489   -8.1358   10.8997 C   0  0  0  0  0  0  0  0  0  0  0  0
   -5.5415   -7.6799   12.2362 C   0  0  0  0  0  0  0  0  0  0  0  0
  -13.2887   -9.9246    8.6719 N   0  0  0  0  0  0  0  0  0  0  0  0
  -13.3145  -11.4938    6.9204 N   0  0  0  0  0  0  0  0  0  0  0  0
   -4.7095   -6.8623   12.8366 N   0  0  0  0  0  0  0  0  0  0  0  0
   -3.5386   -7.2752   13.2827 C   0  0  0  0  0  0  0  0  0  0  0  0
   -2.4128   -6.6286   12.8851 N   0  0  0  0  0  0  0  0  0  0  0  0
   -3.4320   -8.3440   14.1268 N   0  0  0  0  0  0  0  0  0  0  0  0
   -8.0256  -12.5110    9.2057 C   0  0  0  0  0  0  0  0  0  0  0  0
   -5.5127  -12.9657   12.6304 O   0  0  0  0  0  0  0  0  0  0  0  0
   -7.0920  -11.4899    9.5457 C   0  0  0  0  0  0  0  0  0  0  0  0
   -6.2517  -11.6477   10.6802 C   0  0  0  0  0  0  0  0  0  0  0  0
   -6.3568  -12.8113   11.4867 C   0  0  0  0  0  0  0  0  0  0  0  0
   -7.3012  -13.8213   11.1596 C   0  0  0  0  0  0  0  0  0  0  0  0
   -8.1414  -13.6693   10.0234 C   0  0  0  0  0  0  0  0  0  0  0  0
   -4.1427  -12.8551   12.2334 C   0  0  0  0  0  0  0  0  0  0  0  0
  1  4  1  0  0  0  0
  2  3  1  0  0  0  0
  3  5  1  0  0  0  0
  4  6  1  0  0  0  0
  5  8  1  0  0  0  0
  6  7  1  0  0  0  0
  7 10  1  0  0  0  0
  8  9  1  0  0  0  0
  9 12  1  0  0  0  0
  9 13  1  0  0  0  0
 10 11  1  0  0  0  0
 11 14  1  0  0  0  0
 14 15  1  0  0  0  0
 15 16  1  0  0  0  0
 15 17  1  0  0  0  0
 18  2  1  0  0  0  0
 18 20  2  0  0  0  0
 18 24  1  0  0  0  0
 19 25  1  0  0  0  0
 20  1  1  0  0  0  0
 20 21  1  0  0  0  0
 21 22  2  0  0  0  0
 22 19  1  0  0  0  0
 22 23  1  0  0  0  0
 23 24  2  0  0  0  0
M  END
>  <CHROM.1>
-147.16717512,165.92104372,176.19284351,63.33151912,-80.52454366,66.17114983
-171.59859541,129.80648373,-0.20053915,87.01219868,-121.03480388,-66.57057865
125.64159385,20.74556546,107.15903324,-71.35077801,-139.21843331,-55.77975571
-7.24959525,-10.32614178,10.09927953,2.89022436,0.59134916,3.03992534

>  <Name>
1uud_lig

>  <RI>
0

>  <Rbt.Current_Directory>
/home/itssahil/PROJECTS/Mol_Feturizer/New_Systems/rnas/1uud

>  <Rbt.Executable>
rbdock ($Id: //depot/dev/client3/rdock/2013.1/src/exe/rbdock.cxx#4 $)

>  <Rbt.Library>
libRbt.so (2013.1, Build901 2013/11/27)

>  <Rbt.Parameter_File>
/export/apps/rDock/src/rDock_2013.1_src/data/scripts/dock_solv.prm

>  <Rbt.Receptor>
prm/blind_docking_20.prm

>  <SCORE>
-27.5833

>  <SCORE.INTER>
-24.3806

>  <SCORE.INTER.CONST>
1

>  <SCORE.INTER.POLAR>
-3.7004

>  <SCORE.INTER.ROT>
18

>  <SCORE.INTER.SOLV>
11.3751

>  <SCORE.INTER.VDW>
-23.3108

>  <SCORE.INTER.norm>
-0.975222

>  <SCORE.INTRA>
-3.36786

>  <SCORE.INTRA.DIHEDRAL>
-3.76188

>  <SCORE.INTRA.DIHEDRAL.0>
30.6762

>  <SCORE.INTRA.POLAR>
0.0288659

>  <SCORE.INTRA.POLAR.0>
-0.0288659

>  <SCORE.INTRA.REPUL>
0

>  <SCORE.INTRA.REPUL.0>
0

>  <SCORE.INTRA.SOLV>
-1.07004

>  <SCORE.INTRA.SOLV.lig_0>
-25.2195

>  <SCORE.INTRA.VDW>
-1.05004

>  <SCORE.INTRA.VDW.0>
4.14263

>  <SCORE.INTRA.norm>
-0.134714

>  <SCORE.RESTR>
0.165113

>  <SCORE.RESTR.CAVITY>
0.165113

>  <SCORE.RESTR.norm>
0.00660452

>  <SCORE.SYSTEM>
0

>  <SCORE.SYSTEM.CONST>
0

>  <SCORE.SYSTEM.DIHEDRAL>
0

>  <SCORE.SYSTEM.SOLV>
0

>  <SCORE.SYSTEM.norm>
0

>  <SCORE.heavy>
25

>  <SCORE.norm>
-1.10333

>  <RMSD>
14.653

$$$$
1uud_lig
 OpenBabel11021811413D
libRbt.so/2013.1/901 2013/11/27
 25 25  0  0  0  0  0  0  0  0999 V2000
   -5.5565  -12.6462    7.7389 C   0  0  0  0  0  0  0  0  0  0  0  0
   -5.9310   -9.9508    8.8331 O   0  0  0  0  0  0  0  0  0  0  0  0
   -6.3774   -8.6075    9.0709 C   0  0  0  0  0  0  0  0  0  0  0  0
   -4.4701  -12.2777    8.6802 N   0  0  0  0  0  0  0  0  0  0  0  0
   -5.1948   -7.7227    9.4878 C   0  0  0  0  0  0  0  0  0  0  0  0
   -4.3853  -13.2821    9.7669 C   0  0  0  0  0  0  0  0  0  0  0  0
   -4.3384  -12.5677   11.1230 C   0  0  0  0  0  0  0  0  0  0  0  0
   -4.7378   -8.1086   10.6553 N   0  0  0  0  0  0  0  0  0  0  0  0
   -5.0995   -7.5048   11.7718 C   0  0  0  0  0  0  0  0  0  0  0  0
   -5.6008  -11.7188   11.3088 C   0  0  0  0  0  0  0  0  0  0  0  0
   -6.0257  -11.7488   12.7798 C   0  0  0  0  0  0  0  0  0  0  0  0
   -6.3567   -7.6531   12.2896 N   0  0  0  0  0  0  0  0  0  0  0  0
   -4.2031   -6.7173   12.4203 N   0  0  0  0  0  0  0  0  0  0  0  0
   -6.9781  -12.6350   12.9503 N   0  0  0  0  0  0  0  0  0  0  0  0
   -6.8322  -13.8872   12.5615 C   0  0  0  0  0  0  0  0  0  0  0  0
   -6.0421  -14.7185   13.2883 N   0  0  0  0  0  0  0  0  0  0  0  0
   -7.4491  -14.3636   11.4396 N   0  0  0  0  0  0  0  0  0  0  0  0
   -7.0498  -10.8467    8.8216 C   0  0  0  0  0  0  0  0  0  0  0  0
  -10.4090  -13.4853    8.7562 O   0  0  0  0  0  0  0  0  0  0  0  0
   -6.9124  -12.1631    8.2942 C   0  0  0  0  0  0  0  0  0  0  0  0
   -8.0333  -13.0354    8.2660 C   0  0  0  0  0  0  0  0  0  0  0  0
   -9.2834  -12.6038    8.7820 C   0  0  0  0  0  0  0  0  0  0  0  0
   -9.4165  -11.2979    9.3260 C   0  0  0  0  0  0  0  0  0  0  0  0
   -8.2987  -10.4206    9.3531 C   0  0  0  0  0  0  0  0  0  0  0  0
  -10.4099  -14.2961    9.9348 C   0  0  0  0  0  0  0  0  0  0  0  0
  1  4  1  0  0  0  0
  2  3  1  0  0  0  0
  3  5  1  0  0  0  0
  4  6  1  0  0  0  0
  5  8  1  0  0  0  0
  6  7  1  0  0  0  0
  7 10  1  0  0  0  0
  8  9  1  0  0  0  0
  9 12  1  0  0  0  0
  9 13  1  0  0  0  0
 10 11  1  0  0  0  0
 11 14  1  0  0  0  0
 14 15  1  0  0  0  0
 15 16  1  0  0  0  0
 15 17  1  0  0  0  0
 18  2  1  0  0  0  0
 18 20  2  0  0  0  0
 18 24  1  0  0  0  0
 19 25  1  0  0  0  0
 20  1  1  0  0  0  0
 20 21  1  0  0  0  0
 21 22  2  0  0  0  0
 22 19  1  0  0  0  0
 22 23  1  0  0  0  0
 23 24  2  0  0  0  0
M  END
>  <CHROM.1>
82.49640858,163.57775569,-66.37015766,-131.34560513,-97.47920364,59.68644197
144.12286121,71.99649027,-116.95357451,-11.97328428,-98.18001133,53.89852060
74.88130356,-25.41888435,-85.87312780,164.89040171,45.88292035,87.22694844
-6.58067619,-11.36423305,10.36714866,2.42576272,0.86434450,2.60660393

>  <Name>
1uud_lig

>  <RI>
0

>  <Rbt.Current_Directory>
/home/itssahil/PROJECTS/Mol_Feturizer/New_Systems/rnas/1uud

>  <Rbt.Executable>
rbdock ($Id: //depot/dev/client3/rdock/2013.1/src/exe/rbdock.cxx#4 $)

>  <Rbt.Library>
libRbt.so (2013.1, Build901 2013/11/27)

>  <Rbt.Parameter_File>
/export/apps/rDock/src/rDock_2013.1_src/data/scripts/dock_solv.prm

>  <Rbt.Receptor>
prm/blind_docking_60.prm

>  <SCORE>
-23.3206

>  <SCORE.INTER>
-18.6597

>  <SCORE.INTER.CONST>
1

>  <SCORE.INTER.POLAR>
-2.94626

>  <SCORE.INTER.ROT>
18

>  <SCORE.INTER.SOLV>
10.4368

>  <SCORE.INTER.VDW>
-21.6979

>  <SCORE.INTER.norm>
-0.746388

>  <SCORE.INTRA>
-5.31299

>  <SCORE.INTRA.DIHEDRAL>
-1.53721

>  <SCORE.INTRA.DIHEDRAL.0>
30.6762

>  <SCORE.INTRA.POLAR>
-0.719286

>  <SCORE.INTRA.POLAR.0>
-0.0288659

>  <SCORE.INTRA.REPUL>
0

>  <SCORE.INTRA.REPUL.0>
0

>  <SCORE.INTRA.SOLV>
1.52458

>  <SCORE.INTRA.SOLV.lig_0>
-25.2195

>  <SCORE.INTRA.VDW>
-2.86111

>  <SCORE.INTRA.VDW.0>
4.14263

>  <SCORE.INTRA.norm>
-0.21252

>  <SCORE.RESTR>
0.652071

>  <SCORE.RESTR.CAVITY>
0.652071

>  <SCORE.RESTR.norm>
0.0260828

>  <SCORE.SYSTEM>
0

>  <SCORE.SYSTEM.CONST>
0

>  <SCORE.SYSTEM.DIHEDRAL>
0

>  <SCORE.SYSTEM.SOLV>
0

>  <SCORE.SYSTEM.norm>
0

>  <SCORE.heavy>
25

>  <SCORE.norm>
-0.932825

>  <RMSD>
14.679

$$$$
1uud_lig
 OpenBabel11021811413D
libRbt.so/2013.1/901 2013/11/27
 25 25  0  0  0  0  0  0  0  0999 V2000
   -6.6912  -11.6616   10.1072 C   0  0  0  0  0  0  0  0  0  0  0  0
   -7.5727  -14.3060   11.0197 O   0  0  0  0  0  0  0  0  0  0  0  0
   -7.5525  -13.7597   12.3469 C   0  0  0  0  0  0  0  0  0  0  0  0
   -5.8618  -11.4938    8.8882 N   0  0  0  0  0  0  0  0  0  0  0  0
   -6.2859  -14.2116   13.0862 C   0  0  0  0  0  0  0  0  0  0  0  0
   -6.3142  -10.3010    8.1335 C   0  0  0  0  0  0  0  0  0  0  0  0
   -5.4087   -9.1092    8.4671 C   0  0  0  0  0  0  0  0  0  0  0  0
   -5.2217  -13.7589   12.4671 N   0  0  0  0  0  0  0  0  0  0  0  0
   -4.8933  -12.4811   12.5039 C   0  0  0  0  0  0  0  0  0  0  0  0
   -5.4283   -8.8463    9.9768 C   0  0  0  0  0  0  0  0  0  0  0  0
   -6.7709   -8.2233   10.3702 C   0  0  0  0  0  0  0  0  0  0  0  0
   -5.6941  -11.5546   13.1130 N   0  0  0  0  0  0  0  0  0  0  0  0
   -3.7343  -12.0772   11.9227 N   0  0  0  0  0  0  0  0  0  0  0  0
   -6.7350   -6.9267   10.1733 N   0  0  0  0  0  0  0  0  0  0  0  0
   -6.6211   -6.4163    8.9622 C   0  0  0  0  0  0  0  0  0  0  0  0
   -7.7432   -6.1776    8.2359 N   0  0  0  0  0  0  0  0  0  0  0  0
   -5.4006   -6.1320    8.4183 N   0  0  0  0  0  0  0  0  0  0  0  0
   -8.4524  -13.5411   10.1857 C   0  0  0  0  0  0  0  0  0  0  0  0
  -11.1081  -11.2598    7.7375 O   0  0  0  0  0  0  0  0  0  0  0  0
   -8.0653  -12.2497    9.7248 C   0  0  0  0  0  0  0  0  0  0  0  0
   -8.9539  -11.4899    8.9178 C   0  0  0  0  0  0  0  0  0  0  0  0
  -10.2173  -12.0251    8.5532 C   0  0  0  0  0  0  0  0  0  0  0  0
  -10.5963  -13.3209    8.9962 C   0  0  0  0  0  0  0  0  0  0  0  0
   -9.7119  -14.0831    9.8067 C   0  0  0  0  0  0  0  0  0  0  0  0
  -12.2607  -10.8923    8.5010 C   0  0  0  0  0  0  0  0  0  0  0  0
  1  4  1  0  0  0  0
  2  3  1  0  0  0  0
  3  5  1  0  0  0  0
  4  6  1  0  0  0  0
  5  8  1  0  0  0  0
  6  7  1  0  0  0  0
  7 10  1  0  0  0  0
  8  9  1  0  0  0  0
  9 12  1  0  0  0  0
  9 13  1  0  0  0  0
 10 11  1  0  0  0  0
 11 14  1  0  0  0  0
 14 15  1  0  0  0  0
 15 16  1  0  0  0  0
 15 17  1  0  0  0  0
 18  2  1  0  0  0  0
 18 20  2  0  0  0  0
 18 24  1  0  0  0  0
 19 25  1  0  0  0  0
 20  1  1  0  0  0  0
 20 21  1  0  0  0  0
 21 22  2  0  0  0  0
 22 19  1  0  0  0  0
 22 23  1  0  0  0  0
 23 24  2  0  0  0  0
M  END
>  <CHROM.1>
76.58136253,-159.46450192,62.23329039,98.16712612,72.25420682,-57.72077975
-72.99310367,-4.46784509,-93.55209466,4.20014109,-84.04171583,65.58214957
88.19202372,-68.46003560,-116.39850101,74.01302585,115.48118380,-112.75909293
-7.27110873,-10.98771117,10.03195730,-1.68992992,-0.48941998,-0.43205032

>  <Name>
1uud_lig

>  <RI>
0

>  <Rbt.Current_Directory>
/home/itssahil/PROJECTS/Mol_Feturizer/New_Systems/rnas/1uud

>  <Rbt.Executable>
rbdock ($Id: //depot/dev/client3/rdock/2013.1/src/exe/rbdock.cxx#4 $)

>  <Rbt.Library>
libRbt.so (2013.1, Build901 2013/11/27)

>  <Rbt.Parameter_File>
/export/apps/rDock/src/rDock_2013.1_src/data/scripts/dock_solv.prm

>  <Rbt.Receptor>
prm/blind_docking_60.prm

>  <SCORE>
-15.2658

>  <SCORE.INTER>
-14.6177

>  <SCORE.INTER.CONST>
1

>  <SCORE.INTER.POLAR>
-2.79116

>  <SCORE.INTER.ROT>
18

>  <SCORE.INTER.SOLV>
9.66024

>  <SCORE.INTER.VDW>
-19.2613

>  <SCORE.INTER.norm>
-0.584707

>  <SCORE.INTRA>
-1.41426

>  <SCORE.INTRA.DIHEDRAL>
-4.12025

>  <SCORE.INTRA.DIHEDRAL.0>
30.6762

>  <SCORE.INTRA.POLAR>
0.0288659

>  <SCORE.INTRA.POLAR.0>
-0.0288659

>  <SCORE.INTRA.REPUL>
0

>  <SCORE.INTRA.REPUL.0>
0

>  <SCORE.INTRA.SOLV>
1.45296

>  <SCORE.INTRA.SOLV.lig_0>
-25.2195

>  <SCORE.INTRA.VDW>
-0.17876

>  <SCORE.INTRA.VDW.0>
4.14263

>  <SCORE.INTRA.norm>
-0.0565704

>  <SCORE.RESTR>
0.766103

>  <SCORE.RESTR.CAVITY>
0.766103

>  <SCORE.RESTR.norm>
0.0306441

>  <SCORE.SYSTEM>
0

>  <SCORE.SYSTEM.CONST>
0

>  <SCORE.SYSTEM.DIHEDRAL>
0

>  <SCORE.SYSTEM.SOLV>
0

>  <SCORE.SYSTEM.norm>
0

>  <SCORE.heavy>
25

>  <SCORE.norm>
-0.610633

>  <RMSD>
14.681

$$$$
1uud_lig
 OpenBabel11021811413D
libRbt.so/2013.1/901 2013/11/27
 25 25  0  0  0  0  0  0  0  0999 V2000
   -6.2204   -9.4311    9.3077 C   0  0  0  0  0  0  0  0  0  0  0  0
   -8.9023  -10.5221    8.8387 O   0  0  0  0  0  0  0  0  0  0  0  0
   -9.5295  -11.2637    7.7819 C   0  0  0  0  0  0  0  0  0  0  0  0
   -6.6863   -8.4419   10.3111 N   0  0  0  0  0  0  0  0  0  0  0  0
  -10.4056  -10.3346    6.9308 C   0  0  0  0  0  0  0  0  0  0  0  0
   -6.2569   -8.8612   11.6663 C   0  0  0  0  0  0  0  0  0  0  0  0
   -6.8956   -7.9414   12.7140 C   0  0  0  0  0  0  0  0  0  0  0  0
  -11.3760  -11.0206    6.3753 N   0  0  0  0  0  0  0  0  0  0  0  0
  -12.3092  -10.4329    5.6503 C   0  0  0  0  0  0  0  0  0  0  0  0
   -5.8283   -7.0266   13.3244 C   0  0  0  0  0  0  0  0  0  0  0  0
   -4.9112   -7.8474   14.2356 C   0  0  0  0  0  0  0  0  0  0  0  0
  -13.0156   -9.3626    6.1260 N   0  0  0  0  0  0  0  0  0  0  0  0
  -12.5749  -10.9025    4.4040 N   0  0  0  0  0  0  0  0  0  0  0  0
   -3.8574   -8.2467   13.5639 N   0  0  0  0  0  0  0  0  0  0  0  0
   -2.8072   -7.4651   13.4002 C   0  0  0  0  0  0  0  0  0  0  0  0
   -2.6986   -6.7315   12.2628 N   0  0  0  0  0  0  0  0  0  0  0  0
   -1.8223   -7.3847   14.3433 N   0  0  0  0  0  0  0  0  0  0  0  0
   -7.9373  -11.3421    9.5102 C   0  0  0  0  0  0  0  0  0  0  0  0
   -5.0635  -13.8193   11.4737 O   0  0  0  0  0  0  0  0  0  0  0  0
   -6.6215  -10.8526    9.7533 C   0  0  0  0  0  0  0  0  0  0  0  0
   -5.6654  -11.6818   10.3989 C   0  0  0  0  0  0  0  0  0  0  0  0
   -6.0266  -12.9884   10.8205 C   0  0  0  0  0  0  0  0  0  0  0  0
   -7.3443  -13.4702   10.5959 C   0  0  0  0  0  0  0  0  0  0  0  0
   -8.3030  -12.6455    9.9472 C   0  0  0  0  0  0  0  0  0  0  0  0
   -4.7355  -13.2609   12.7492 C   0  0  0  0  0  0  0  0  0  0  0  0
  1  4  1  0  0  0  0
  2  3  1  0  0  0  0
  3  5  1  0  0  0  0
  4  6  1  0  0  0  0
  5  8  1  0  0  0  0
  6  7  1  0  0  0  0
  7 10  1  0  0  0  0
  8  9  1  0  0  0  0
  9 12  1  0  0  0  0
  9 13  1  0  0  0  0
 10 11  1  0  0  0  0
 11 14  1  0  0  0  0
 14 15  1  0  0  0  0
 15 16  1  0  0  0  0
 15 17  1  0  0  0  0
 18  2  1  0  0  0  0
 18 20  2  0  0  0  0
 18 24  1  0  0  0  0
 19 25  1  0  0  0  0
 20  1  1  0  0  0  0
 20 21  1  0  0  0  0
 21 22  2  0  0  0  0
 22 19  1  0  0  0  0
 22 23  1  0  0  0  0
 23 24  2  0  0  0  0
M  END
>  <CHROM.1>
50.47662636,-171.58406656,-153.20703995,-172.54004040,176.32574246,-108.64161579
-71.72410911,-51.97999309,-170.12989748,44.48241693,93.90212651,83.40821741
-95.69488928,124.71446671,155.56880466,131.13129601,81.72995121,66.92169781
-7.11667702,-10.07423619,10.24636669,0.28370370,-0.71924075,0.08083581

>  <Name>
1uud_lig

>  <RI>
0

>  <Rbt.Current_Directory>
/home/itssahil/PROJECTS/Mol_Feturizer/New_Systems/rnas/1uud

>  <Rbt.Executable>
rbdock ($Id: //depot/dev/client3/rdock/2013.1/src/exe/rbdock.cxx#4 $)

>  <Rbt.Library>
libRbt.so (2013.1, Build901 2013/11/27)

>  <Rbt.Parameter_File>
/export/apps/rDock/src/rDock_2013.1_src/data/scripts/dock_solv.prm

>  <Rbt.Receptor>
prm/blind_docking_40.prm

>  <SCORE>
-29.4021

>  <SCORE.INTER>
-26.0777

>  <SCORE.INTER.CONST>
1

>  <SCORE.INTER.POLAR>
-3.67979

>  <SCORE.INTER.ROT>
18

>  <SCORE.INTER.SOLV>
11.0425

>  <SCORE.INTER.VDW>
-24.4

>  <SCORE.INTER.norm>
-1.04311

>  <SCORE.INTRA>
-3.40869

>  <SCORE.INTRA.DIHEDRAL>
-1.61069

>  <SCORE.INTRA.DIHEDRAL.0>
30.6762

>  <SCORE.INTRA.POLAR>
0.0288659

>  <SCORE.INTRA.POLAR.0>
-0.0288659

>  <SCORE.INTRA.REPUL>
0

>  <SCORE.INTRA.REPUL.0>
0

>  <SCORE.INTRA.SOLV>
-0.873354

>  <SCORE.INTRA.SOLV.lig_0>
-25.2195

>  <SCORE.INTRA.VDW>
-2.26481

>  <SCORE.INTRA.VDW.0>
4.14263

>  <SCORE.INTRA.norm>
-0.136348

>  <SCORE.RESTR>
0.0842303

>  <SCORE.RESTR.CAVITY>
0.0842303

>  <SCORE.RESTR.norm>
0.00336921

>  <SCORE.SYSTEM>
0

>  <SCORE.SYSTEM.CONST>
0

>  <SCORE.SYSTEM.DIHEDRAL>
0

>  <SCORE.SYSTEM.SOLV>
0

>  <SCORE.SYSTEM.norm>
0

>  <SCORE.heavy>
25

>  <SCORE.norm>
-1.17609

>  <RMSD>
14.685

$$$$
1uud_lig
 OpenBabel11021811413D
libRbt.so/2013.1/901 2013/11/27
 25 25  0  0  0  0  0  0  0  0999 V2000
   -5.6472  -10.6960    7.3843 C   0  0  0  0  0  0  0  0  0  0  0  0
   -4.0638  -11.1865    9.8040 O   0  0  0  0  0  0  0  0  0  0  0  0
   -4.8435  -12.2226   10.4194 C   0  0  0  0  0  0  0  0  0  0  0  0
   -6.9650  -11.3776    7.3494 N   0  0  0  0  0  0  0  0  0  0  0  0
   -4.3662  -12.4605   11.8584 C   0  0  0  0  0  0  0  0  0  0  0  0
   -7.0812  -12.3048    8.4998 C   0  0  0  0  0  0  0  0  0  0  0  0
   -8.4166  -12.0689    9.2157 C   0  0  0  0  0  0  0  0  0  0  0  0
   -4.6757  -13.6779   12.2363 N   0  0  0  0  0  0  0  0  0  0  0  0
   -5.9315  -14.0565   12.3834 C   0  0  0  0  0  0  0  0  0  0  0  0
   -9.3984  -13.1943    8.8717 C   0  0  0  0  0  0  0  0  0  0  0  0
  -10.7025  -12.9909    9.6484 C   0  0  0  0  0  0  0  0  0  0  0  0
   -6.8421  -13.9205   11.3720 N   0  0  0  0  0  0  0  0  0  0  0  0
   -6.3286  -14.5921   13.5665 N   0  0  0  0  0  0  0  0  0  0  0  0
  -11.6254  -12.5084    8.8505 N   0  0  0  0  0  0  0  0  0  0  0  0
  -11.7159  -11.2157    8.6033 C   0  0  0  0  0  0  0  0  0  0  0  0
  -10.8898  -10.6584    7.6810 N   0  0  0  0  0  0  0  0  0  0  0  0
  -12.6138  -10.4235    9.2608 N   0  0  0  0  0  0  0  0  0  0  0  0
   -4.8297   -9.9778    9.7202 C   0  0  0  0  0  0  0  0  0  0  0  0
   -7.0697   -6.3485    9.4729 O   0  0  0  0  0  0  0  0  0  0  0  0
   -5.6085   -9.6982    8.5604 C   0  0  0  0  0  0  0  0  0  0  0  0
   -6.3457   -8.4866    8.4773 C   0  0  0  0  0  0  0  0  0  0  0  0
   -6.3236   -7.5654    9.5573 C   0  0  0  0  0  0  0  0  0  0  0  0
   -5.5628   -7.8524   10.7225 C   0  0  0  0  0  0  0  0  0  0  0  0
   -4.8209   -9.0616   10.8084 C   0  0  0  0  0  0  0  0  0  0  0  0
   -7.0315   -5.8552    8.1306 C   0  0  0  0  0  0  0  0  0  0  0  0
  1  4  1  0  0  0  0
  2  3  1  0  0  0  0
  3  5  1  0  0  0  0
  4  6  1  0  0  0  0
  5  8  1  0  0  0  0
  6  7  1  0  0  0  0
  7 10  1  0  0  0  0
  8  9  1  0  0  0  0
  9 12  1  0  0  0  0
  9 13  1  0  0  0  0
 10 11  1  0  0  0  0
 11 14  1  0  0  0  0
 14 15  1  0  0  0  0
 15 16  1  0  0  0  0
 15 17  1  0  0  0  0
 18  2  1  0  0  0  0
 18 20  2  0  0  0  0
 18 24  1  0  0  0  0
 19 25  1  0  0  0  0
 20  1  1  0  0  0  0
 20 21  1  0  0  0  0
 21 22  2  0  0  0  0
 22 19  1  0  0  0  0
 22 23  1  0  0  0  0
 23 24  2  0  0  0  0
M  END
>  <CHROM.1>
-70.25069085,-105.34039937,-155.67229017,130.70932007,-66.07144286,104.48727662
177.02135430,54.55831689,-134.44959121,-124.33315619,103.28444149,-83.99699638
80.81368890,-108.62409453,139.30523859,-91.43218126,107.45068309,-36.44507281
-7.25451464,-11.02815669,9.69864084,-0.44102992,-0.32592892,-0.41790536

>  <Name>
1uud_lig

>  <RI>
0

>  <Rbt.Current_Directory>
/home/itssahil/PROJECTS/Mol_Feturizer/New_Systems/rnas/1uud

>  <Rbt.Executable>
rbdock ($Id: //depot/dev/client3/rdock/2013.1/src/exe/rbdock.cxx#4 $)

>  <Rbt.Library>
libRbt.so (2013.1, Build901 2013/11/27)

>  <Rbt.Parameter_File>
/export/apps/rDock/src/rDock_2013.1_src/data/scripts/dock_solv.prm

>  <Rbt.Receptor>
prm/blind_docking_60.prm

>  <SCORE>
-21.5202

>  <SCORE.INTER>
-24.6268

>  <SCORE.INTER.CONST>
1

>  <SCORE.INTER.POLAR>
-3.90786

>  <SCORE.INTER.ROT>
18

>  <SCORE.INTER.SOLV>
9.20491

>  <SCORE.INTER.VDW>
-22.0599

>  <SCORE.INTER.norm>
-0.985071

>  <SCORE.INTRA>
2.44202

>  <SCORE.INTRA.DIHEDRAL>
7.04079

>  <SCORE.INTRA.DIHEDRAL.0>
30.6762

>  <SCORE.INTRA.POLAR>
0.0288659

>  <SCORE.INTRA.POLAR.0>
-0.0288659

>  <SCORE.INTRA.REPUL>
0

>  <SCORE.INTRA.REPUL.0>
0

>  <SCORE.INTRA.SOLV>
0.296192

>  <SCORE.INTRA.SOLV.lig_0>
-25.2195

>  <SCORE.INTRA.VDW>
-1.32461

>  <SCORE.INTRA.VDW.0>
4.14263

>  <SCORE.INTRA.norm>
0.097681

>  <SCORE.RESTR>
0.6646

>  <SCORE.RESTR.CAVITY>
0.6646

>  <SCORE.RESTR.norm>
0.026584

>  <SCORE.SYSTEM>
0

>  <SCORE.SYSTEM.CONST>
0

>  <SCORE.SYSTEM.DIHEDRAL>
0

>  <SCORE.SYSTEM.SOLV>
0

>  <SCORE.SYSTEM.norm>
0

>  <SCORE.heavy>
25

>  <SCORE.norm>
-0.860806

>  <RMSD>
14.687

$$$$
1uud_lig
 OpenBabel11021811413D
libRbt.so/2013.1/901 2013/11/27
 25 25  0  0  0  0  0  0  0  0999 V2000
   -5.2500  -12.5174   11.9020 C   0  0  0  0  0  0  0  0  0  0  0  0
   -6.8696  -11.4110    9.7213 O   0  0  0  0  0  0  0  0  0  0  0  0
   -7.8877  -10.9068    8.8441 C   0  0  0  0  0  0  0  0  0  0  0  0
   -5.2945  -11.0552   11.6529 N   0  0  0  0  0  0  0  0  0  0  0  0
   -7.3005  -10.6350    7.4525 C   0  0  0  0  0  0  0  0  0  0  0  0
   -6.1871  -10.4045   12.6412 C   0  0  0  0  0  0  0  0  0  0  0  0
   -6.2785   -8.9037   12.3398 C   0  0  0  0  0  0  0  0  0  0  0  0
   -6.6473  -11.6909    7.0292 N   0  0  0  0  0  0  0  0  0  0  0  0
   -5.4084  -11.9356    7.4129 C   0  0  0  0  0  0  0  0  0  0  0  0
   -7.0269   -8.6817   11.0209 C   0  0  0  0  0  0  0  0  0  0  0  0
   -6.8935   -7.2161   10.5974 C   0  0  0  0  0  0  0  0  0  0  0  0
   -5.1248  -12.8980    8.3423 N   0  0  0  0  0  0  0  0  0  0  0  0
   -4.3923  -11.2141    6.8732 N   0  0  0  0  0  0  0  0  0  0  0  0
   -5.8256   -7.0636    9.8507 N   0  0  0  0  0  0  0  0  0  0  0  0
   -5.9145   -6.6899    8.5886 C   0  0  0  0  0  0  0  0  0  0  0  0
   -7.0282   -7.0088    7.8804 N   0  0  0  0  0  0  0  0  0  0  0  0
   -4.9083   -5.9988    7.9754 N   0  0  0  0  0  0  0  0  0  0  0  0
   -7.3359  -12.5897   10.3906 C   0  0  0  0  0  0  0  0  0  0  0  0
   -8.7218  -16.1283   12.3419 O   0  0  0  0  0  0  0  0  0  0  0  0
   -6.5770  -13.1627   11.4516 C   0  0  0  0  0  0  0  0  0  0  0  0
   -7.0361  -14.3442   12.0930 C   0  0  0  0  0  0  0  0  0  0  0  0
   -8.2600  -14.9414   11.6919 C   0  0  0  0  0  0  0  0  0  0  0  0
   -9.0273  -14.3596   10.6470 C   0  0  0  0  0  0  0  0  0  0  0  0
   -8.5700  -13.1796   10.0001 C   0  0  0  0  0  0  0  0  0  0  0  0
   -9.9415  -15.8508   13.0361 C   0  0  0  0  0  0  0  0  0  0  0  0
  1  4  1  0  0  0  0
  2  3  1  0  0  0  0
  3  5  1  0  0  0  0
  4  6  1  0  0  0  0
  5  8  1  0  0  0  0
  6  7  1  0  0  0  0
  7 10  1  0  0  0  0
  8  9  1  0  0  0  0
  9 12  1  0  0  0  0
  9 13  1  0  0  0  0
 10 11  1  0  0  0  0
 11 14  1  0  0  0  0
 14 15  1  0  0  0  0
 15 16  1  0  0  0  0
 15 17  1  0  0  0  0
 18  2  1  0  0  0  0
 18 20  2  0  0  0  0
 18 24  1  0  0  0  0
 19 25  1  0  0  0  0
 20  1  1  0  0  0  0
 20 21  1  0  0  0  0
 21 22  2  0  0  0  0
 22 19  1  0  0  0  0
 22 23  1  0  0  0  0
 23 24  2  0  0  0  0
M  END
>  <CHROM.1>
73.33610897,-130.71137858,50.92625156,-177.47299166,-81.73096511,68.14743679
-169.74120041,104.10889226,-142.95048893,-152.92801960,89.72333181,116.06765206
-28.69240512,35.99715677,-75.42362827,-171.05688549,29.16766878,115.31793898
-6.74376762,-11.16611233,10.01917118,2.70461656,-1.24856018,-2.42995865

>  <Name>
1uud_lig

>  <RI>
0

>  <Rbt.Current_Directory>
/home/itssahil/PROJECTS/Mol_Feturizer/New_Systems/rnas/1uud

>  <Rbt.Executable>
rbdock ($Id: //depot/dev/client3/rdock/2013.1/src/exe/rbdock.cxx#4 $)

>  <Rbt.Library>
libRbt.so (2013.1, Build901 2013/11/27)

>  <Rbt.Parameter_File>
/export/apps/rDock/src/rDock_2013.1_src/data/scripts/dock_solv.prm

>  <Rbt.Receptor>
prm/blind_docking_100.prm

>  <SCORE>
-27.5873

>  <SCORE.INTER>
-24.7897

>  <SCORE.INTER.CONST>
1

>  <SCORE.INTER.POLAR>
-4.61652

>  <SCORE.INTER.ROT>
18

>  <SCORE.INTER.SOLV>
11.1763

>  <SCORE.INTER.VDW>
-20.4635

>  <SCORE.INTER.norm>
-0.991588

>  <SCORE.INTRA>
-5.89971

>  <SCORE.INTRA.DIHEDRAL>
-5.52388

>  <SCORE.INTRA.DIHEDRAL.0>
30.6762

>  <SCORE.INTRA.POLAR>
-0.74075

>  <SCORE.INTRA.POLAR.0>
-0.0288659

>  <SCORE.INTRA.REPUL>
0

>  <SCORE.INTRA.REPUL.0>
0

>  <SCORE.INTRA.SOLV>
1.51773

>  <SCORE.INTRA.SOLV.lig_0>
-25.2195

>  <SCORE.INTRA.VDW>
-1.37808

>  <SCORE.INTRA.VDW.0>
4.14263

>  <SCORE.INTRA.norm>
-0.235988

>  <SCORE.RESTR>
3.10214

>  <SCORE.RESTR.CAVITY>
3.10214

>  <SCORE.RESTR.norm>
0.124086

>  <SCORE.SYSTEM>
0

>  <SCORE.SYSTEM.CONST>
0

>  <SCORE.SYSTEM.DIHEDRAL>
0

>  <SCORE.SYSTEM.SOLV>
0

>  <SCORE.SYSTEM.norm>
0

>  <SCORE.heavy>
25

>  <SCORE.norm>
-1.10349

>  <RMSD>
14.691

$$$$
1uud_lig
 OpenBabel11021811413D
libRbt.so/2013.1/901 2013/11/27
 25 25  0  0  0  0  0  0  0  0999 V2000
   -7.7578  -12.8232   10.6335 C   0  0  0  0  0  0  0  0  0  0  0  0
  -10.6423  -12.7963   10.1033 O   0  0  0  0  0  0  0  0  0  0  0  0
  -11.0690  -14.0964    9.6700 C   0  0  0  0  0  0  0  0  0  0  0  0
   -6.4247  -13.4031   10.3357 N   0  0  0  0  0  0  0  0  0  0  0  0
  -10.9055  -15.1136   10.8075 C   0  0  0  0  0  0  0  0  0  0  0  0
   -5.4300  -12.3166   10.1711 C   0  0  0  0  0  0  0  0  0  0  0  0
   -4.7982  -11.9897   11.5296 C   0  0  0  0  0  0  0  0  0  0  0  0
   -9.6411  -15.4373   10.9391 N   0  0  0  0  0  0  0  0  0  0  0  0
   -8.9940  -15.2449   12.0732 C   0  0  0  0  0  0  0  0  0  0  0  0
   -5.4856  -10.7649   12.1429 C   0  0  0  0  0  0  0  0  0  0  0  0
   -5.2801   -9.5524   11.2303 C   0  0  0  0  0  0  0  0  0  0  0  0
   -7.9971  -16.0886   12.4794 N   0  0  0  0  0  0  0  0  0  0  0  0
   -9.3267  -14.1856   12.8552 N   0  0  0  0  0  0  0  0  0  0  0  0
   -5.5743   -8.4511   11.8798 N   0  0  0  0  0  0  0  0  0  0  0  0
   -6.6537   -7.7490   11.5928 C   0  0  0  0  0  0  0  0  0  0  0  0
   -7.7483   -7.8623   12.3883 N   0  0  0  0  0  0  0  0  0  0  0  0
   -6.6992   -6.9191   10.5087 N   0  0  0  0  0  0  0  0  0  0  0  0
   -9.7620  -12.2176    9.1313 C   0  0  0  0  0  0  0  0  0  0  0  0
   -7.1601  -10.4481    6.2418 O   0  0  0  0  0  0  0  0  0  0  0  0
   -8.3545  -12.2052    9.3521 C   0  0  0  0  0  0  0  0  0  0  0  0
   -7.4924  -11.6085    8.3934 C   0  0  0  0  0  0  0  0  0  0  0  0
   -8.0304  -11.0444    7.2070 C   0  0  0  0  0  0  0  0  0  0  0  0
   -9.4323  -11.0737    6.9768 C   0  0  0  0  0  0  0  0  0  0  0  0
  -10.2988  -11.6664    7.9348 C   0  0  0  0  0  0  0  0  0  0  0  0
   -6.0464  -11.3132    6.0017 C   0  0  0  0  0  0  0  0  0  0  0  0
  1  4  1  0  0  0  0
  2  3  1  0  0  0  0
  3  5  1  0  0  0  0
  4  6  1  0  0  0  0
  5  8  1  0  0  0  0
  6  7  1  0  0  0  0
  7 10  1  0  0  0  0
  8  9  1  0  0  0  0
  9 12  1  0  0  0  0
  9 13  1  0  0  0  0
 10 11  1  0  0  0  0
 11 14  1  0  0  0  0
 14 15  1  0  0  0  0
 15 16  1  0  0  0  0
 15 17  1  0  0  0  0
 18  2  1  0  0  0  0
 18 20  2  0  0  0  0
 18 24  1  0  0  0  0
 19 25  1  0  0  0  0
 20  1  1  0  0  0  0
 20 21  1  0  0  0  0
 21 22  2  0  0  0  0
 22 19  1  0  0  0  0
 22 23  1  0  0  0  0
 23 24  2  0  0  0  0
M  END
>  <CHROM.1>
74.24279677,131.68791543,-76.18449602,89.72307230,121.13308439,-98.21738692
-61.90360062,147.26521244,165.65873587,54.95457087,-164.94078607,-109.20153169
101.30571055,127.43422906,-144.16235997,-102.45466292,147.18820333,46.47021182
-7.85137947,-11.85435724,10.16014215,-2.59946844,-0.95401432,-1.01910185

>  <Name>
1uud_lig

>  <RI>
0

>  <Rbt.Current_Directory>
/home/itssahil/PROJECTS/Mol_Feturizer/New_Systems/rnas/1uud

>  <Rbt.Executable>
rbdock ($Id: //depot/dev/client3/rdock/2013.1/src/exe/rbdock.cxx#4 $)

>  <Rbt.Library>
libRbt.so (2013.1, Build901 2013/11/27)

>  <Rbt.Parameter_File>
/export/apps/rDock/src/rDock_2013.1_src/data/scripts/dock_solv.prm

>  <Rbt.Receptor>
prm/blind_docking_100.prm

>  <SCORE>
-18.3101

>  <SCORE.INTER>
-20.6996

>  <SCORE.INTER.CONST>
1

>  <SCORE.INTER.POLAR>
-4.02345

>  <SCORE.INTER.ROT>
18

>  <SCORE.INTER.SOLV>
9.73668

>  <SCORE.INTER.VDW>
-19.2338

>  <SCORE.INTER.norm>
-0.827985

>  <SCORE.INTRA>
-0.202785

>  <SCORE.INTRA.DIHEDRAL>
1.2062

>  <SCORE.INTRA.DIHEDRAL.0>
30.6762

>  <SCORE.INTRA.POLAR>
0.0288659

>  <SCORE.INTRA.POLAR.0>
-0.0288659

>  <SCORE.INTRA.REPUL>
0

>  <SCORE.INTRA.REPUL.0>
0

>  <SCORE.INTRA.SOLV>
0.558059

>  <SCORE.INTRA.SOLV.lig_0>
-25.2195

>  <SCORE.INTRA.VDW>
-1.18306

>  <SCORE.INTRA.VDW.0>
4.14263

>  <SCORE.INTRA.norm>
-0.0081114

>  <SCORE.RESTR>
2.59235

>  <SCORE.RESTR.CAVITY>
2.59235

>  <SCORE.RESTR.norm>
0.103694

>  <SCORE.SYSTEM>
0

>  <SCORE.SYSTEM.CONST>
0

>  <SCORE.SYSTEM.DIHEDRAL>
0

>  <SCORE.SYSTEM.SOLV>
0

>  <SCORE.SYSTEM.norm>
0

>  <SCORE.heavy>
25

>  <SCORE.norm>
-0.732402

>  <RMSD>
14.691

$$$$
1uud_lig
 OpenBabel11021811413D
libRbt.so/2013.1/901 2013/11/27
 25 25  0  0  0  0  0  0  0  0999 V2000
   -5.8636  -13.4610   12.0217 C   0  0  0  0  0  0  0  0  0  0  0  0
   -7.1666  -11.6554   10.1126 O   0  0  0  0  0  0  0  0  0  0  0  0
   -8.0637  -10.7766    9.4176 C   0  0  0  0  0  0  0  0  0  0  0  0
   -5.7779  -12.0270   12.3937 N   0  0  0  0  0  0  0  0  0  0  0  0
   -8.1507  -11.1715    7.9372 C   0  0  0  0  0  0  0  0  0  0  0  0
   -4.6760  -11.3788   11.6437 C   0  0  0  0  0  0  0  0  0  0  0  0
   -5.0629   -9.9324   11.3119 C   0  0  0  0  0  0  0  0  0  0  0  0
   -6.9781  -11.0281    7.3669 N   0  0  0  0  0  0  0  0  0  0  0  0
   -6.0211  -11.9237    7.5221 C   0  0  0  0  0  0  0  0  0  0  0  0
   -3.9217   -9.2493   10.5504 C   0  0  0  0  0  0  0  0  0  0  0  0
   -4.2836   -7.7836   10.2932 C   0  0  0  0  0  0  0  0  0  0  0  0
   -6.1838  -13.2206    7.1194 N   0  0  0  0  0  0  0  0  0  0  0  0
   -4.8487  -11.5489    8.0960 N   0  0  0  0  0  0  0  0  0  0  0  0
   -5.1648   -7.7058    9.3244 N   0  0  0  0  0  0  0  0  0  0  0  0
   -6.3911   -7.2704    9.5413 C   0  0  0  0  0  0  0  0  0  0  0  0
   -6.9330   -7.4067   10.7788 N   0  0  0  0  0  0  0  0  0  0  0  0
   -7.1315   -6.6953    8.5477 N   0  0  0  0  0  0  0  0  0  0  0  0
   -7.8519  -12.8535   10.4992 C   0  0  0  0  0  0  0  0  0  0  0  0
   -9.8928  -16.4403   11.6036 O   0  0  0  0  0  0  0  0  0  0  0  0
   -7.2523  -13.7604   11.4200 C   0  0  0  0  0  0  0  0  0  0  0  0
   -7.9296  -14.9565   11.7789 C   0  0  0  0  0  0  0  0  0  0  0  0
   -9.2115  -15.2377   11.2375 C   0  0  0  0  0  0  0  0  0  0  0  0
   -9.8188  -14.3243   10.3342 C   0  0  0  0  0  0  0  0  0  0  0  0
   -9.1433  -13.1282    9.9696 C   0  0  0  0  0  0  0  0  0  0  0  0
  -11.2620  -16.1456   11.8952 C   0  0  0  0  0  0  0  0  0  0  0  0
  1  4  1  0  0  0  0
  2  3  1  0  0  0  0
  3  5  1  0  0  0  0
  4  6  1  0  0  0  0
  5  8  1  0  0  0  0
  6  7  1  0  0  0  0
  7 10  1  0  0  0  0
  8  9  1  0  0  0  0
  9 12  1  0  0  0  0
  9 13  1  0  0  0  0
 10 11  1  0  0  0  0
 11 14  1  0  0  0  0
 14 15  1  0  0  0  0
 15 16  1  0  0  0  0
 15 17  1  0  0  0  0
 18  2  1  0  0  0  0
 18 20  2  0  0  0  0
 18 24  1  0  0  0  0
 19 25  1  0  0  0  0
 20  1  1  0  0  0  0
 20 21  1  0  0  0  0
 21 22  2  0  0  0  0
 22 19  1  0  0  0  0
 22 23  1  0  0  0  0
 23 24  2  0  0  0  0
M  END
>  <CHROM.1>
-119.96740780,-83.45201863,-63.14008015,145.34007786,78.63369622,179.33432471
-176.80690915,60.74166154,-141.38795751,-147.77295840,-75.61852232,114.33594512
-26.56937175,-79.48025128,-64.84834378,-167.80003860,42.30631109,135.11195317
-6.97039395,-11.57820503,10.07888822,-2.38446467,-0.88564078,-0.92159653

>  <Name>
1uud_lig

>  <RI>
0

>  <Rbt.Current_Directory>
/home/itssahil/PROJECTS/Mol_Feturizer/New_Systems/rnas/1uud

>  <Rbt.Executable>
rbdock ($Id: //depot/dev/client3/rdock/2013.1/src/exe/rbdock.cxx#4 $)

>  <Rbt.Library>
libRbt.so (2013.1, Build901 2013/11/27)

>  <Rbt.Parameter_File>
/export/apps/rDock/src/rDock_2013.1_src/data/scripts/dock_solv.prm

>  <Rbt.Receptor>
prm/blind_docking_100.prm

>  <SCORE>
-23.4592

>  <SCORE.INTER>
-21.5714

>  <SCORE.INTER.CONST>
1

>  <SCORE.INTER.POLAR>
-3.82247

>  <SCORE.INTER.ROT>
18

>  <SCORE.INTER.SOLV>
10.3572

>  <SCORE.INTER.VDW>
-20.6918

>  <SCORE.INTER.norm>
-0.862856

>  <SCORE.INTRA>
-4.04297

>  <SCORE.INTRA.DIHEDRAL>
-8.54504

>  <SCORE.INTRA.DIHEDRAL.0>
30.6762

>  <SCORE.INTRA.POLAR>
-0.205143

>  <SCORE.INTRA.POLAR.0>
-0.0288659

>  <SCORE.INTRA.REPUL>
0

>  <SCORE.INTRA.REPUL.0>
0

>  <SCORE.INTRA.SOLV>
1.84074

>  <SCORE.INTRA.SOLV.lig_0>
-25.2195

>  <SCORE.INTRA.VDW>
0.00666983

>  <SCORE.INTRA.VDW.0>
4.14263

>  <SCORE.INTRA.norm>
-0.161719

>  <SCORE.RESTR>
2.15516

>  <SCORE.RESTR.CAVITY>
2.15516

>  <SCORE.RESTR.norm>
0.0862065

>  <SCORE.SYSTEM>
0

>  <SCORE.SYSTEM.CONST>
0

>  <SCORE.SYSTEM.DIHEDRAL>
0

>  <SCORE.SYSTEM.SOLV>
0

>  <SCORE.SYSTEM.norm>
0

>  <SCORE.heavy>
25

>  <SCORE.norm>
-0.938369

>  <RMSD>
14.704

$$$$
1uud_lig
 OpenBabel11021811413D
libRbt.so/2013.1/901 2013/11/27
 25 25  0  0  0  0  0  0  0  0999 V2000
   -6.5667  -12.3292    7.7179 C   0  0  0  0  0  0  0  0  0  0  0  0
   -8.6722  -13.3292    9.4982 O   0  0  0  0  0  0  0  0  0  0  0  0
   -9.2287  -12.0100    9.3965 C   0  0  0  0  0  0  0  0  0  0  0  0
   -5.8608  -11.0528    7.4446 N   0  0  0  0  0  0  0  0  0  0  0  0
  -10.7413  -12.0911    9.1499 C   0  0  0  0  0  0  0  0  0  0  0  0
   -6.4234   -9.9762    8.2937 C   0  0  0  0  0  0  0  0  0  0  0  0
   -5.4839   -9.7119    9.4765 C   0  0  0  0  0  0  0  0  0  0  0  0
  -11.2392  -10.8838    9.0262 N   0  0  0  0  0  0  0  0  0  0  0  0
  -12.1231  -10.5946    8.0897 C   0  0  0  0  0  0  0  0  0  0  0  0
   -6.1226   -8.6995   10.4334 C   0  0  0  0  0  0  0  0  0  0  0  0
   -5.3397   -8.6748   11.7494 C   0  0  0  0  0  0  0  0  0  0  0  0
  -13.2262   -9.8323    8.3590 N   0  0  0  0  0  0  0  0  0  0  0  0
  -11.9333  -11.0659    6.8303 N   0  0  0  0  0  0  0  0  0  0  0  0
   -4.1580   -8.1394   11.5547 N   0  0  0  0  0  0  0  0  0  0  0  0
   -3.5405   -7.4669   12.5070 C   0  0  0  0  0  0  0  0  0  0  0  0
   -2.8103   -8.1447   13.4296 N   0  0  0  0  0  0  0  0  0  0  0  0
   -3.6270   -6.1062   12.5923 N   0  0  0  0  0  0  0  0  0  0  0  0
   -7.3299  -13.2602    9.9963 C   0  0  0  0  0  0  0  0  0  0  0  0
   -3.3293  -13.1049   11.4865 O   0  0  0  0  0  0  0  0  0  0  0  0
   -6.2764  -12.7855    9.1628 C   0  0  0  0  0  0  0  0  0  0  0  0
   -4.9457  -12.7429    9.6582 C   0  0  0  0  0  0  0  0  0  0  0  0
   -4.6689  -13.1526   10.9890 C   0  0  0  0  0  0  0  0  0  0  0  0
   -5.7220  -13.6078   11.8274 C   0  0  0  0  0  0  0  0  0  0  0  0
   -7.0543  -13.6554   11.3348 C   0  0  0  0  0  0  0  0  0  0  0  0
   -3.1287  -11.8851   12.2067 C   0  0  0  0  0  0  0  0  0  0  0  0
  1  4  1  0  0  0  0
  2  3  1  0  0  0  0
  3  5  1  0  0  0  0
  4  6  1  0  0  0  0
  5  8  1  0  0  0  0
  6  7  1  0  0  0  0
  7 10  1  0  0  0  0
  8  9  1  0  0  0  0
  9 12  1  0  0  0  0
  9 13  1  0  0  0  0
 10 11  1  0  0  0  0
 11 14  1  0  0  0  0
 14 15  1  0  0  0  0
 15 16  1  0  0  0  0
 15 17  1  0  0  0  0
 18  2  1  0  0  0  0
 18 20  2  0  0  0  0
 18 24  1  0  0  0  0
 19 25  1  0  0  0  0
 20  1  1  0  0  0  0
 20 21  1  0  0  0  0
 21 22  2  0  0  0  0
 22 19  1  0  0  0  0
 22 23  1  0  0  0  0
 23 24  2  0  0  0  0
M  END
>  <CHROM.1>
-65.70011600,-168.18571724,-178.51068560,102.00308584,136.81241405,-174.44488093
167.44143795,136.51506699,-86.08191384,-84.32933550,69.40300142,149.41150503
84.21220532,148.42368015,72.74397219,-73.18142028,135.12906440,96.04224527
-6.79723414,-10.89432018,10.07937233,-2.82594474,-0.42687073,0.16564390

>  <Name>
1uud_lig

>  <RI>
0

>  <Rbt.Current_Directory>
/home/itssahil/PROJECTS/Mol_Feturizer/New_Systems/rnas/1uud

>  <Rbt.Executable>
rbdock ($Id: //depot/dev/client3/rdock/2013.1/src/exe/rbdock.cxx#4 $)

>  <Rbt.Library>
libRbt.so (2013.1, Build901 2013/11/27)

>  <Rbt.Parameter_File>
/export/apps/rDock/src/rDock_2013.1_src/data/scripts/dock_solv.prm

>  <Rbt.Receptor>
prm/blind_docking_60.prm

>  <SCORE>
-29.3113

>  <SCORE.INTER>
-21.844

>  <SCORE.INTER.CONST>
1

>  <SCORE.INTER.POLAR>
-3.42894

>  <SCORE.INTER.ROT>
18

>  <SCORE.INTER.SOLV>
12.1174

>  <SCORE.INTER.VDW>
-22.772

>  <SCORE.INTER.norm>
-0.873761

>  <SCORE.INTRA>
-8.28317

>  <SCORE.INTRA.DIHEDRAL>
-6.52897

>  <SCORE.INTRA.DIHEDRAL.0>
30.6762

>  <SCORE.INTRA.POLAR>
0.0288659

>  <SCORE.INTRA.POLAR.0>
-0.0288659

>  <SCORE.INTRA.REPUL>
0

>  <SCORE.INTRA.REPUL.0>
0

>  <SCORE.INTRA.SOLV>
-1.22717

>  <SCORE.INTRA.SOLV.lig_0>
-25.2195

>  <SCORE.INTRA.VDW>
-4.50324

>  <SCORE.INTRA.VDW.0>
4.14263

>  <SCORE.INTRA.norm>
-0.331327

>  <SCORE.RESTR>
0.815945

>  <SCORE.RESTR.CAVITY>
0.815945

>  <SCORE.RESTR.norm>
0.0326378

>  <SCORE.SYSTEM>
0

>  <SCORE.SYSTEM.CONST>
0

>  <SCORE.SYSTEM.DIHEDRAL>
0

>  <SCORE.SYSTEM.SOLV>
0

>  <SCORE.SYSTEM.norm>
0

>  <SCORE.heavy>
25

>  <SCORE.norm>
-1.17245

>  <RMSD>
14.718

$$$$
1uud_lig
 OpenBabel11021811413D
libRbt.so/2013.1/901 2013/11/27
 25 25  0  0  0  0  0  0  0  0999 V2000
   -4.4571  -11.9025   10.5442 C   0  0  0  0  0  0  0  0  0  0  0  0
   -6.3122  -12.0239    8.2757 O   0  0  0  0  0  0  0  0  0  0  0  0
   -7.4938  -11.5983    7.5808 C   0  0  0  0  0  0  0  0  0  0  0  0
   -4.7069  -10.4441   10.6579 N   0  0  0  0  0  0  0  0  0  0  0  0
   -8.3253  -10.6660    8.4722 C   0  0  0  0  0  0  0  0  0  0  0  0
   -4.3282   -9.9739   12.0115 C   0  0  0  0  0  0  0  0  0  0  0  0
   -4.1610   -8.4496   11.9967 C   0  0  0  0  0  0  0  0  0  0  0  0
   -9.4765  -10.4086    7.8983 N   0  0  0  0  0  0  0  0  0  0  0  0
  -10.3423  -11.3673    7.6279 C   0  0  0  0  0  0  0  0  0  0  0  0
   -5.4813   -7.7767   12.3875 C   0  0  0  0  0  0  0  0  0  0  0  0
   -6.5382   -8.0633   11.3169 C   0  0  0  0  0  0  0  0  0  0  0  0
  -11.0317  -11.3955    6.4469 N   0  0  0  0  0  0  0  0  0  0  0  0
  -10.5544  -12.3472    8.5438 N   0  0  0  0  0  0  0  0  0  0  0  0
   -6.6494   -7.0320   10.5135 N   0  0  0  0  0  0  0  0  0  0  0  0
   -6.3692   -7.1265    9.2278 C   0  0  0  0  0  0  0  0  0  0  0  0
   -6.3413   -8.3522    8.6444 N   0  0  0  0  0  0  0  0  0  0  0  0
   -6.0966   -6.0212    8.4727 N   0  0  0  0  0  0  0  0  0  0  0  0
   -6.6703  -12.6963    9.4898 C   0  0  0  0  0  0  0  0  0  0  0  0
   -7.7372  -14.7445   13.0839 O   0  0  0  0  0  0  0  0  0  0  0  0
   -5.7954  -12.6667   10.6139 C   0  0  0  0  0  0  0  0  0  0  0  0
   -6.1490  -13.3558   11.8049 C   0  0  0  0  0  0  0  0  0  0  0  0
   -7.3820  -14.0552   11.8825 C   0  0  0  0  0  0  0  0  0  0  0  0
   -8.2640  -14.0690   10.7686 C   0  0  0  0  0  0  0  0  0  0  0  0
   -7.9128  -13.3839    9.5739 C   0  0  0  0  0  0  0  0  0  0  0  0
   -7.9681  -16.1261   12.7932 C   0  0  0  0  0  0  0  0  0  0  0  0
  1  4  1  0  0  0  0
  2  3  1  0  0  0  0
  3  5  1  0  0  0  0
  4  6  1  0  0  0  0
  5  8  1  0  0  0  0
  6  7  1  0  0  0  0
  7 10  1  0  0  0  0
  8  9  1  0  0  0  0
  9 12  1  0  0  0  0
  9 13  1  0  0  0  0
 10 11  1  0  0  0  0
 11 14  1  0  0  0  0
 14 15  1  0  0  0  0
 15 16  1  0  0  0  0
 15 17  1  0  0  0  0
 18  2  1  0  0  0  0
 18 20  2  0  0  0  0
 18 24  1  0  0  0  0
 19 25  1  0  0  0  0
 20  1  1  0  0  0  0
 20 21  1  0  0  0  0
 21 22  2  0  0  0  0
 22 19  1  0  0  0  0
 22 23  1  0  0  0  0
 23 24  2  0  0  0  0
M  END
>  <CHROM.1>
104.60193408,58.47558166,-172.48317878,162.24274614,61.46134809,92.47794351
-65.45900062,-138.31612164,36.41046038,43.49939586,-99.64845071,117.53471145
19.17220088,116.04076107,-84.16629038,-150.84067604,76.18811732,-122.41500053
-7.08966843,-10.98021006,9.98154501,-1.07088858,0.75144510,2.69664797

>  <Name>
1uud_lig

>  <RI>
0

>  <Rbt.Current_Directory>
/home/itssahil/PROJECTS/Mol_Feturizer/New_Systems/rnas/1uud

>  <Rbt.Executable>
rbdock ($Id: //depot/dev/client3/rdock/2013.1/src/exe/rbdock.cxx#4 $)

>  <Rbt.Library>
libRbt.so (2013.1, Build901 2013/11/27)

>  <Rbt.Parameter_File>
/export/apps/rDock/src/rDock_2013.1_src/data/scripts/dock_solv.prm

>  <Rbt.Receptor>
prm/blind_docking_60.prm

>  <SCORE>
-15.8646

>  <SCORE.INTER>
-16.5593

>  <SCORE.INTER.CONST>
1

>  <SCORE.INTER.POLAR>
-2.42515

>  <SCORE.INTER.ROT>
18

>  <SCORE.INTER.SOLV>
9.46368

>  <SCORE.INTER.VDW>
-21.7102

>  <SCORE.INTER.norm>
-0.662371

>  <SCORE.INTRA>
-0.0135231

>  <SCORE.INTRA.DIHEDRAL>
-4.49213

>  <SCORE.INTRA.DIHEDRAL.0>
30.6762

>  <SCORE.INTRA.POLAR>
0.0288659

>  <SCORE.INTRA.POLAR.0>
-0.0288659

>  <SCORE.INTRA.REPUL>
0

>  <SCORE.INTRA.REPUL.0>
0

>  <SCORE.INTRA.SOLV>
1.73836

>  <SCORE.INTRA.SOLV.lig_0>
-25.2195

>  <SCORE.INTRA.VDW>
1.26522

>  <SCORE.INTRA.VDW.0>
4.14263

>  <SCORE.INTRA.norm>
-0.000540924

>  <SCORE.RESTR>
0.708242

>  <SCORE.RESTR.CAVITY>
0.708242

>  <SCORE.RESTR.norm>
0.0283297

>  <SCORE.SYSTEM>
0

>  <SCORE.SYSTEM.CONST>
0

>  <SCORE.SYSTEM.DIHEDRAL>
0

>  <SCORE.SYSTEM.SOLV>
0

>  <SCORE.SYSTEM.norm>
0

>  <SCORE.heavy>
25

>  <SCORE.norm>
-0.634582

>  <RMSD>
14.718

$$$$
1uud_lig
 OpenBabel11021811413D
libRbt.so/2013.1/901 2013/11/27
 25 25  0  0  0  0  0  0  0  0999 V2000
   -7.1364  -11.1743    8.0352 C   0  0  0  0  0  0  0  0  0  0  0  0
   -9.7873  -12.0205    8.9619 O   0  0  0  0  0  0  0  0  0  0  0  0
  -10.8910  -12.9149    9.1676 C   0  0  0  0  0  0  0  0  0  0  0  0
   -7.0172   -9.7705    8.5015 N   0  0  0  0  0  0  0  0  0  0  0  0
  -12.1672  -12.3329    8.5450 C   0  0  0  0  0  0  0  0  0  0  0  0
   -5.8082   -9.6230    9.3461 C   0  0  0  0  0  0  0  0  0  0  0  0
   -5.4251   -8.1410    9.4387 C   0  0  0  0  0  0  0  0  0  0  0  0
  -11.9415  -11.9936    7.2981 N   0  0  0  0  0  0  0  0  0  0  0  0
  -12.6188  -11.0234    6.7135 C   0  0  0  0  0  0  0  0  0  0  0  0
   -4.0438   -7.9994   10.0875 C   0  0  0  0  0  0  0  0  0  0  0  0
   -4.2080   -7.7002   11.5804 C   0  0  0  0  0  0  0  0  0  0  0  0
  -13.0999  -11.1544    5.4399 N   0  0  0  0  0  0  0  0  0  0  0  0
  -12.8418   -9.8682    7.3917 N   0  0  0  0  0  0  0  0  0  0  0  0
   -4.3089   -8.8231   12.2513 N   0  0  0  0  0  0  0  0  0  0  0  0
   -5.3277   -9.0559   13.0565 C   0  0  0  0  0  0  0  0  0  0  0  0
   -6.2368  -10.0054   12.7168 N   0  0  0  0  0  0  0  0  0  0  0  0
   -5.4946   -8.3569   14.2183 N   0  0  0  0  0  0  0  0  0  0  0  0
   -8.6324  -12.4934    9.6668 C   0  0  0  0  0  0  0  0  0  0  0  0
   -5.2021  -13.9502   11.7552 O   0  0  0  0  0  0  0  0  0  0  0  0
   -7.3259  -12.1107    9.2466 C   0  0  0  0  0  0  0  0  0  0  0  0
   -6.1868  -12.6035    9.9378 C   0  0  0  0  0  0  0  0  0  0  0  0
   -6.3503  -13.4590   11.0588 C   0  0  0  0  0  0  0  0  0  0  0  0
   -7.6534  -13.8256   11.4907 C   0  0  0  0  0  0  0  0  0  0  0  0
   -8.7958  -13.3378   10.8000 C   0  0  0  0  0  0  0  0  0  0  0  0
   -5.1138  -13.3214   13.0371 C   0  0  0  0  0  0  0  0  0  0  0  0
  1  4  1  0  0  0  0
  2  3  1  0  0  0  0
  3  5  1  0  0  0  0
  4  6  1  0  0  0  0
  5  8  1  0  0  0  0
  6  7  1  0  0  0  0
  7 10  1  0  0  0  0
  8  9  1  0  0  0  0
  9 12  1  0  0  0  0
  9 13  1  0  0  0  0
 10 11  1  0  0  0  0
 11 14  1  0  0  0  0
 14 15  1  0  0  0  0
 15 16  1  0  0  0  0
 15 17  1  0  0  0  0
 18  2  1  0  0  0  0
 18 20  2  0  0  0  0
 18 24  1  0  0  0  0
 19 25  1  0  0  0  0
 20  1  1  0  0  0  0
 20 21  1  0  0  0  0
 21 22  2  0  0  0  0
 22 19  1  0  0  0  0
 22 23  1  0  0  0  0
 23 24  2  0  0  0  0
M  END
>  <CHROM.1>
63.07565884,173.74020789,51.67888396,161.30568193,-151.93187668,-169.65427555
-96.95341716,-136.43165472,-16.58697921,66.60829240,87.06372448,-125.51778978
111.04773061,37.68126968,156.06587160,156.13462043,94.52309036,109.19396905
-7.77177583,-11.03043383,9.98399214,3.13562329,0.62394719,2.78274262

>  <Name>
1uud_lig

>  <RI>
0

>  <Rbt.Current_Directory>
/home/itssahil/PROJECTS/Mol_Feturizer/New_Systems/rnas/1uud

>  <Rbt.Executable>
rbdock ($Id: //depot/dev/client3/rdock/2013.1/src/exe/rbdock.cxx#4 $)

>  <Rbt.Library>
libRbt.so (2013.1, Build901 2013/11/27)

>  <Rbt.Parameter_File>
/export/apps/rDock/src/rDock_2013.1_src/data/scripts/dock_solv.prm

>  <Rbt.Receptor>
prm/blind_docking_20.prm

>  <SCORE>
-22.8174

>  <SCORE.INTER>
-17.0263

>  <SCORE.INTER.CONST>
1

>  <SCORE.INTER.POLAR>
-3.36137

>  <SCORE.INTER.ROT>
18

>  <SCORE.INTER.SOLV>
7.06175

>  <SCORE.INTER.VDW>
-18.1002

>  <SCORE.INTER.norm>
-0.681051

>  <SCORE.INTRA>
-5.86991

>  <SCORE.INTRA.DIHEDRAL>
-7.09656

>  <SCORE.INTRA.DIHEDRAL.0>
30.6762

>  <SCORE.INTRA.POLAR>
0.0288659

>  <SCORE.INTRA.POLAR.0>
-0.0288659

>  <SCORE.INTRA.REPUL>
0

>  <SCORE.INTRA.REPUL.0>
0

>  <SCORE.INTRA.SOLV>
0.0446625

>  <SCORE.INTRA.SOLV.lig_0>
-25.2195

>  <SCORE.INTRA.VDW>
-2.44211

>  <SCORE.INTRA.VDW.0>
4.14263

>  <SCORE.INTRA.norm>
-0.234796

>  <SCORE.RESTR>
0.0787502

>  <SCORE.RESTR.CAVITY>
0.0787502

>  <SCORE.RESTR.norm>
0.00315001

>  <SCORE.SYSTEM>
0

>  <SCORE.SYSTEM.CONST>
0

>  <SCORE.SYSTEM.DIHEDRAL>
0

>  <SCORE.SYSTEM.SOLV>
0

>  <SCORE.SYSTEM.norm>
0

>  <SCORE.heavy>
25

>  <SCORE.norm>
-0.912697

>  <RMSD>
14.725

$$$$
1uud_lig
 OpenBabel11021811413D
libRbt.so/2013.1/901 2013/11/27
 25 25  0  0  0  0  0  0  0  0999 V2000
   -5.2496  -10.8557    9.3187 C   0  0  0  0  0  0  0  0  0  0  0  0
   -6.7297  -10.7316   11.8479 O   0  0  0  0  0  0  0  0  0  0  0  0
   -5.6937  -10.7367   12.8413 C   0  0  0  0  0  0  0  0  0  0  0  0
   -6.0205  -11.4185    8.1825 N   0  0  0  0  0  0  0  0  0  0  0  0
   -4.3646  -11.1839   12.2178 C   0  0  0  0  0  0  0  0  0  0  0  0
   -6.5700  -12.7434    8.5559 C   0  0  0  0  0  0  0  0  0  0  0  0
   -8.0641  -12.7937    8.2145 C   0  0  0  0  0  0  0  0  0  0  0  0
   -4.5483  -12.2700   11.5055 N   0  0  0  0  0  0  0  0  0  0  0  0
   -3.5548  -13.0975   11.2403 C   0  0  0  0  0  0  0  0  0  0  0  0
   -8.8239  -11.7539    9.0454 C   0  0  0  0  0  0  0  0  0  0  0  0
   -9.8106  -11.0027    8.1469 C   0  0  0  0  0  0  0  0  0  0  0  0
   -2.4364  -13.1465   12.0260 N   0  0  0  0  0  0  0  0  0  0  0  0
   -3.6448  -13.9178   10.1617 N   0  0  0  0  0  0  0  0  0  0  0  0
  -10.8948  -10.7085    8.8245 N   0  0  0  0  0  0  0  0  0  0  0  0
  -12.0908  -11.0736    8.4041 C   0  0  0  0  0  0  0  0  0  0  0  0
  -13.0945  -10.1593    8.3872 N   0  0  0  0  0  0  0  0  0  0  0  0
  -12.3452  -12.3520    7.9953 N   0  0  0  0  0  0  0  0  0  0  0  0
   -6.6395   -9.5454   11.0484 C   0  0  0  0  0  0  0  0  0  0  0  0
   -6.3454   -5.9868    8.7031 O   0  0  0  0  0  0  0  0  0  0  0  0
   -5.9255   -9.5609    9.8155 C   0  0  0  0  0  0  0  0  0  0  0  0
   -5.8222   -8.3738    9.0419 C   0  0  0  0  0  0  0  0  0  0  0  0
   -6.4474   -7.1791    9.4858 C   0  0  0  0  0  0  0  0  0  0  0  0
   -7.1761   -7.1676   10.7055 C   0  0  0  0  0  0  0  0  0  0  0  0
   -7.2791   -8.3519   11.4845 C   0  0  0  0  0  0  0  0  0  0  0  0
   -7.6216   -5.6742    8.1374 C   0  0  0  0  0  0  0  0  0  0  0  0
  1  4  1  0  0  0  0
  2  3  1  0  0  0  0
  3  5  1  0  0  0  0
  4  6  1  0  0  0  0
  5  8  1  0  0  0  0
  6  7  1  0  0  0  0
  7 10  1  0  0  0  0
  8  9  1  0  0  0  0
  9 12  1  0  0  0  0
  9 13  1  0  0  0  0
 10 11  1  0  0  0  0
 11 14  1  0  0  0  0
 14 15  1  0  0  0  0
 15 16  1  0  0  0  0
 15 17  1  0  0  0  0
 18  2  1  0  0  0  0
 18 20  2  0  0  0  0
 18 24  1  0  0  0  0
 19 25  1  0  0  0  0
 20  1  1  0  0  0  0
 20 21  1  0  0  0  0
 21 22  2  0  0  0  0
 22 19  1  0  0  0  0
 22 23  1  0  0  0  0
 23 24  2  0  0  0  0
M  END
>  <CHROM.1>
-116.30025214,-79.64397033,-47.91816178,130.49141089,-157.06702215,-63.18154738
135.18137303,22.81459601,4.64070353,144.08490122,145.24804931,-124.82299736
-132.26397155,34.09093458,-35.79308817,94.50319267,106.85824864,110.50414355
-7.11298387,-10.52982674,9.78957729,-0.25098226,-0.38171314,-0.03953870

>  <Name>
1uud_lig

>  <RI>
0

>  <Rbt.Current_Directory>
/home/itssahil/PROJECTS/Mol_Feturizer/New_Systems/rnas/1uud

>  <Rbt.Executable>
rbdock ($Id: //depot/dev/client3/rdock/2013.1/src/exe/rbdock.cxx#4 $)

>  <Rbt.Library>
libRbt.so (2013.1, Build901 2013/11/27)

>  <Rbt.Parameter_File>
/export/apps/rDock/src/rDock_2013.1_src/data/scripts/dock_solv.prm

>  <Rbt.Receptor>
prm/blind_docking_60.prm

>  <SCORE>
-20.6693

>  <SCORE.INTER>
-22.5766

>  <SCORE.INTER.CONST>
1

>  <SCORE.INTER.POLAR>
-3.67831

>  <SCORE.INTER.ROT>
18

>  <SCORE.INTER.SOLV>
13.9931

>  <SCORE.INTER.VDW>
-23.0544

>  <SCORE.INTER.norm>
-0.903063

>  <SCORE.INTRA>
0.597831

>  <SCORE.INTRA.DIHEDRAL>
6.5041

>  <SCORE.INTRA.DIHEDRAL.0>
30.6762

>  <SCORE.INTRA.POLAR>
-0.00368514

>  <SCORE.INTRA.POLAR.0>
-0.0288659

>  <SCORE.INTRA.REPUL>
0

>  <SCORE.INTRA.REPUL.0>
0

>  <SCORE.INTRA.SOLV>
0.395036

>  <SCORE.INTRA.SOLV.lig_0>
-25.2195

>  <SCORE.INTRA.VDW>
-2.83921

>  <SCORE.INTRA.VDW.0>
4.14263

>  <SCORE.INTRA.norm>
0.0239133

>  <SCORE.RESTR>
1.3094

>  <SCORE.RESTR.CAVITY>
1.3094

>  <SCORE.RESTR.norm>
0.0523759

>  <SCORE.SYSTEM>
0

>  <SCORE.SYSTEM.CONST>
0

>  <SCORE.SYSTEM.DIHEDRAL>
0

>  <SCORE.SYSTEM.SOLV>
0

>  <SCORE.SYSTEM.norm>
0

>  <SCORE.heavy>
25

>  <SCORE.norm>
-0.826773

>  <RMSD>
14.747

$$$$
1uud_lig
 OpenBabel11021811413D
libRbt.so/2013.1/901 2013/11/27
 25 25  0  0  0  0  0  0  0  0999 V2000
   -6.9383  -12.3167    8.7239 C   0  0  0  0  0  0  0  0  0  0  0  0
   -7.4399  -14.2311   10.8886 O   0  0  0  0  0  0  0  0  0  0  0  0
   -7.5940  -14.1774   12.3147 C   0  0  0  0  0  0  0  0  0  0  0  0
   -7.0111  -11.4151    7.5475 N   0  0  0  0  0  0  0  0  0  0  0  0
   -6.9903  -12.8777   12.8638 C   0  0  0  0  0  0  0  0  0  0  0  0
   -5.6854  -10.7984    7.3048 C   0  0  0  0  0  0  0  0  0  0  0  0
   -5.6611   -9.3846    7.8983 C   0  0  0  0  0  0  0  0  0  0  0  0
   -6.3138  -12.2660   11.9209 N   0  0  0  0  0  0  0  0  0  0  0  0
   -4.9946  -12.2930   11.8898 C   0  0  0  0  0  0  0  0  0  0  0  0
   -5.5313   -9.4617    9.4234 C   0  0  0  0  0  0  0  0  0  0  0  0
   -5.1850   -8.0769    9.9781 C   0  0  0  0  0  0  0  0  0  0  0  0
   -4.3088  -13.4531   11.6564 N   0  0  0  0  0  0  0  0  0  0  0  0
   -4.3027  -11.1427   12.0957 N   0  0  0  0  0  0  0  0  0  0  0  0
   -4.7748   -8.1843   11.2196 N   0  0  0  0  0  0  0  0  0  0  0  0
   -5.5100   -7.7564   12.2280 C   0  0  0  0  0  0  0  0  0  0  0  0
   -4.8999   -7.1737   13.2919 N   0  0  0  0  0  0  0  0  0  0  0  0
   -6.8690   -7.8952   12.2310 N   0  0  0  0  0  0  0  0  0  0  0  0
   -8.5628  -13.6120   10.2483 C   0  0  0  0  0  0  0  0  0  0  0  0
  -11.9226  -11.7450    8.3837 O   0  0  0  0  0  0  0  0  0  0  0  0
   -8.3634  -12.6724    9.1960 C   0  0  0  0  0  0  0  0  0  0  0  0
   -9.4822  -12.0468    8.5835 C   0  0  0  0  0  0  0  0  0  0  0  0
  -10.7981  -12.3731    9.0047 C   0  0  0  0  0  0  0  0  0  0  0  0
  -10.9988  -13.3245   10.0407 C   0  0  0  0  0  0  0  0  0  0  0  0
   -9.8822  -13.9502   10.6587 C   0  0  0  0  0  0  0  0  0  0  0  0
  -12.8108  -11.2495    9.3898 C   0  0  0  0  0  0  0  0  0  0  0  0
  1  4  1  0  0  0  0
  2  3  1  0  0  0  0
  3  5  1  0  0  0  0
  4  6  1  0  0  0  0
  5  8  1  0  0  0  0
  6  7  1  0  0  0  0
  7 10  1  0  0  0  0
  8  9  1  0  0  0  0
  9 12  1  0  0  0  0
  9 13  1  0  0  0  0
 10 11  1  0  0  0  0
 11 14  1  0  0  0  0
 14 15  1  0  0  0  0
 15 16  1  0  0  0  0
 15 17  1  0  0  0  0
 18  2  1  0  0  0  0
 18 20  2  0  0  0  0
 18 24  1  0  0  0  0
 19 25  1  0  0  0  0
 20  1  1  0  0  0  0
 20 21  1  0  0  0  0
 21 22  2  0  0  0  0
 22 19  1  0  0  0  0
 22 23  1  0  0  0  0
 23 24  2  0  0  0  0
M  END
>  <CHROM.1>
165.61835960,-88.94293325,-9.83814264,-99.03958569,-103.66818003,75.50098490
167.04654851,66.69825512,-103.37998629,157.95304891,-165.64873680,-109.42564881
-142.69203033,84.19260645,62.30248021,132.79082835,175.02352187,-131.15201774
-7.24935276,-11.29979034,10.39251212,2.74094894,0.55999661,2.75871410

>  <Name>
1uud_lig

>  <RI>
0

>  <Rbt.Current_Directory>
/home/itssahil/PROJECTS/Mol_Feturizer/New_Systems/rnas/1uud

>  <Rbt.Executable>
rbdock ($Id: //depot/dev/client3/rdock/2013.1/src/exe/rbdock.cxx#4 $)

>  <Rbt.Library>
libRbt.so (2013.1, Build901 2013/11/27)

>  <Rbt.Parameter_File>
/export/apps/rDock/src/rDock_2013.1_src/data/scripts/dock_solv.prm

>  <Rbt.Receptor>
prm/blind_docking_60.prm

>  <SCORE>
-27.9812

>  <SCORE.INTER>
-24.101

>  <SCORE.INTER.CONST>
1

>  <SCORE.INTER.POLAR>
-3.82855

>  <SCORE.INTER.ROT>
18

>  <SCORE.INTER.SOLV>
7.92063

>  <SCORE.INTER.VDW>
-21.5457

>  <SCORE.INTER.norm>
-0.964041

>  <SCORE.INTRA>
-5.06174

>  <SCORE.INTRA.DIHEDRAL>
-1.08033

>  <SCORE.INTRA.DIHEDRAL.0>
30.6762

>  <SCORE.INTRA.POLAR>
-0.813487

>  <SCORE.INTRA.POLAR.0>
-0.0288659

>  <SCORE.INTRA.REPUL>
0.04014

>  <SCORE.INTRA.REPUL.0>
0

>  <SCORE.INTRA.SOLV>
1.72572

>  <SCORE.INTRA.SOLV.lig_0>
-25.2195

>  <SCORE.INTRA.VDW>
-2.81928

>  <SCORE.INTRA.VDW.0>
4.14263

>  <SCORE.INTRA.norm>
-0.20247

>  <SCORE.RESTR>
1.18154

>  <SCORE.RESTR.CAVITY>
1.18154

>  <SCORE.RESTR.norm>
0.0472618

>  <SCORE.SYSTEM>
0

>  <SCORE.SYSTEM.CONST>
0

>  <SCORE.SYSTEM.DIHEDRAL>
0

>  <SCORE.SYSTEM.SOLV>
0

>  <SCORE.SYSTEM.norm>
0

>  <SCORE.heavy>
25

>  <SCORE.norm>
-1.11925

>  <RMSD>
14.747

$$$$
1uud_lig
 OpenBabel11021811413D
libRbt.so/2013.1/901 2013/11/27
 25 25  0  0  0  0  0  0  0  0999 V2000
   -4.1085   -9.8323   12.5025 C   0  0  0  0  0  0  0  0  0  0  0  0
   -4.7117  -11.8606   10.4716 O   0  0  0  0  0  0  0  0  0  0  0  0
   -5.8019  -12.4122   11.2248 C   0  0  0  0  0  0  0  0  0  0  0  0
   -2.6484   -9.5674   12.5079 N   0  0  0  0  0  0  0  0  0  0  0  0
   -7.0813  -12.4183   10.3773 C   0  0  0  0  0  0  0  0  0  0  0  0
   -1.9091  -10.8344   12.7199 C   0  0  0  0  0  0  0  0  0  0  0  0
   -1.4358  -10.9144   14.1764 C   0  0  0  0  0  0  0  0  0  0  0  0
   -6.8537  -13.0101    9.2289 N   0  0  0  0  0  0  0  0  0  0  0  0
   -7.3305  -12.5268    8.0971 C   0  0  0  0  0  0  0  0  0  0  0  0
   -0.1962  -10.0344   14.3706 C   0  0  0  0  0  0  0  0  0  0  0  0
   -0.5586   -8.8236   15.2354 C   0  0  0  0  0  0  0  0  0  0  0  0
   -6.5855  -12.5262    6.9501 N   0  0  0  0  0  0  0  0  0  0  0  0
   -8.5890  -12.0172    8.0715 N   0  0  0  0  0  0  0  0  0  0  0  0
    0.5294   -8.3037   15.7523 N   0  0  0  0  0  0  0  0  0  0  0  0
    0.4933   -7.1891   16.4570 C   0  0  0  0  0  0  0  0  0  0  0  0
    0.9601   -7.1963   17.7321 N   0  0  0  0  0  0  0  0  0  0  0  0
   -0.0120   -6.0311   15.9375 N   0  0  0  0  0  0  0  0  0  0  0  0
   -4.9719  -10.4850   10.1640 C   0  0  0  0  0  0  0  0  0  0  0  0
   -5.7969   -6.3959    9.2427 O   0  0  0  0  0  0  0  0  0  0  0  0
   -4.6983   -9.4686   11.1241 C   0  0  0  0  0  0  0  0  0  0  0  0
   -4.9815   -8.1105   10.8181 C   0  0  0  0  0  0  0  0  0  0  0  0
   -5.5166   -7.7640    9.5496 C   0  0  0  0  0  0  0  0  0  0  0  0
   -5.7716   -8.7750    8.5842 C   0  0  0  0  0  0  0  0  0  0  0  0
   -5.4931  -10.1353    8.8873 C   0  0  0  0  0  0  0  0  0  0  0  0
   -7.0153   -6.3119    8.4977 C   0  0  0  0  0  0  0  0  0  0  0  0
  1  4  1  0  0  0  0
  2  3  1  0  0  0  0
  3  5  1  0  0  0  0
  4  6  1  0  0  0  0
  5  8  1  0  0  0  0
  6  7  1  0  0  0  0
  7 10  1  0  0  0  0
  8  9  1  0  0  0  0
  9 12  1  0  0  0  0
  9 13  1  0  0  0  0
 10 11  1  0  0  0  0
 11 14  1  0  0  0  0
 14 15  1  0  0  0  0
 15 16  1  0  0  0  0
 15 17  1  0  0  0  0
 18  2  1  0  0  0  0
 18 20  2  0  0  0  0
 18 24  1  0  0  0  0
 19 25  1  0  0  0  0
 20  1  1  0  0  0  0
 20 21  1  0  0  0  0
 21 22  2  0  0  0  0
 22 19  1  0  0  0  0
 22 23  1  0  0  0  0
 23 24  2  0  0  0  0
M  END
>  <CHROM.1>
-117.26656579,64.13269217,52.65952287,-102.01138703,-137.95705305,-78.08281521
110.36397984,139.81718158,-38.98589043,-96.80106834,160.32830561,174.86857151
122.33540186,-6.37815933,152.38074942,82.40967195,100.48431670,-140.88119174
-3.97261527,-9.71037324,11.57820131,-0.25187525,0.81934503,3.07606093

>  <Name>
1uud_lig

>  <RI>
0

>  <Rbt.Current_Directory>
/home/itssahil/PROJECTS/Mol_Feturizer/New_Systems/rnas/1uud

>  <Rbt.Executable>
rbdock ($Id: //depot/dev/client3/rdock/2013.1/src/exe/rbdock.cxx#4 $)

>  <Rbt.Library>
libRbt.so (2013.1, Build901 2013/11/27)

>  <Rbt.Parameter_File>
/export/apps/rDock/src/rDock_2013.1_src/data/scripts/dock_solv.prm

>  <Rbt.Receptor>
prm/blind_docking_20.prm

>  <SCORE>
-27.9297

>  <SCORE.INTER>
-29.0214

>  <SCORE.INTER.CONST>
1

>  <SCORE.INTER.POLAR>
-5.36357

>  <SCORE.INTER.ROT>
18

>  <SCORE.INTER.SOLV>
8.47872

>  <SCORE.INTER.VDW>
-19.8953

>  <SCORE.INTER.norm>
-1.16085

>  <SCORE.INTRA>
-0.530926

>  <SCORE.INTRA.DIHEDRAL>
1.20827

>  <SCORE.INTRA.DIHEDRAL.0>
30.6762

>  <SCORE.INTRA.POLAR>
0.0288659

>  <SCORE.INTRA.POLAR.0>
-0.0288659

>  <SCORE.INTRA.REPUL>
0

>  <SCORE.INTRA.REPUL.0>
0

>  <SCORE.INTRA.SOLV>
-0.089231

>  <SCORE.INTRA.SOLV.lig_0>
-25.2195

>  <SCORE.INTRA.VDW>
-1.18859

>  <SCORE.INTRA.VDW.0>
4.14263

>  <SCORE.INTRA.norm>
-0.0212371

>  <SCORE.RESTR>
1.62263

>  <SCORE.RESTR.CAVITY>
1.62263

>  <SCORE.RESTR.norm>
0.0649051

>  <SCORE.SYSTEM>
0

>  <SCORE.SYSTEM.CONST>
0

>  <SCORE.SYSTEM.DIHEDRAL>
0

>  <SCORE.SYSTEM.SOLV>
0

>  <SCORE.SYSTEM.norm>
0

>  <SCORE.heavy>
25

>  <SCORE.norm>
-1.11719

>  <RMSD>
14.762

$$$$
1uud_lig
 OpenBabel11021811413D
libRbt.so/2013.1/901 2013/11/27
 25 25  0  0  0  0  0  0  0  0999 V2000
   -5.4396  -11.9196    9.6808 C   0  0  0  0  0  0  0  0  0  0  0  0
   -6.4385   -9.4545    8.4445 O   0  0  0  0  0  0  0  0  0  0  0  0
   -5.5519   -9.4634    9.5732 C   0  0  0  0  0  0  0  0  0  0  0  0
   -5.3033  -13.2002   10.4181 N   0  0  0  0  0  0  0  0  0  0  0  0
   -5.1206   -8.0317    9.9189 C   0  0  0  0  0  0  0  0  0  0  0  0
   -6.2612  -13.2330   11.5486 C   0  0  0  0  0  0  0  0  0  0  0  0
   -5.5857  -13.8579   12.7752 C   0  0  0  0  0  0  0  0  0  0  0  0
   -6.0192   -7.4686   10.6911 N   0  0  0  0  0  0  0  0  0  0  0  0
   -6.1539   -7.8134   11.9580 C   0  0  0  0  0  0  0  0  0  0  0  0
   -4.9618  -12.7593   13.6428 C   0  0  0  0  0  0  0  0  0  0  0  0
   -3.6873  -12.2393   12.9717 C   0  0  0  0  0  0  0  0  0  0  0  0
   -6.6036   -9.0542   12.3170 N   0  0  0  0  0  0  0  0  0  0  0  0
   -5.8402   -6.9151   12.9269 N   0  0  0  0  0  0  0  0  0  0  0  0
   -3.0458  -11.4412   13.7920 N   0  0  0  0  0  0  0  0  0  0  0  0
   -2.0864  -10.6419   13.3665 C   0  0  0  0  0  0  0  0  0  0  0  0
   -0.8045  -11.0893   13.3631 N   0  0  0  0  0  0  0  0  0  0  0  0
   -2.3515   -9.3717   12.9393 N   0  0  0  0  0  0  0  0  0  0  0  0
   -7.3024  -10.5975    8.4880 C   0  0  0  0  0  0  0  0  0  0  0  0
   -9.8777  -14.0051    8.5672 O   0  0  0  0  0  0  0  0  0  0  0  0
   -6.8547  -11.8161    9.0748 C   0  0  0  0  0  0  0  0  0  0  0  0
   -7.7102  -12.9502    9.0922 C   0  0  0  0  0  0  0  0  0  0  0  0
   -9.0172  -12.8633    8.5448 C   0  0  0  0  0  0  0  0  0  0  0  0
   -9.4716  -11.6427    7.9769 C   0  0  0  0  0  0  0  0  0  0  0  0
   -8.6179  -10.5067    7.9542 C   0  0  0  0  0  0  0  0  0  0  0  0
  -10.1934  -14.3407    9.9216 C   0  0  0  0  0  0  0  0  0  0  0  0
  1  4  1  0  0  0  0
  2  3  1  0  0  0  0
  3  5  1  0  0  0  0
  4  6  1  0  0  0  0
  5  8  1  0  0  0  0
  6  7  1  0  0  0  0
  7 10  1  0  0  0  0
  8  9  1  0  0  0  0
  9 12  1  0  0  0  0
  9 13  1  0  0  0  0
 10 11  1  0  0  0  0
 11 14  1  0  0  0  0
 14 15  1  0  0  0  0
 15 16  1  0  0  0  0
 15 17  1  0  0  0  0
 18  2  1  0  0  0  0
 18 20  2  0  0  0  0
 18 24  1  0  0  0  0
 19 25  1  0  0  0  0
 20  1  1  0  0  0  0
 20 21  1  0  0  0  0
 21 22  2  0  0  0  0
 22 19  1  0  0  0  0
 22 23  1  0  0  0  0
 23 24  2  0  0  0  0
M  END
>  <CHROM.1>
-62.71622322,-153.35564563,84.77566545,-139.70300779,73.00261581,92.52445011
-74.56464490,-67.08932321,95.02880293,58.73946412,-170.97577556,-165.07350799
-90.36477779,-61.93184651,-118.00098503,-30.71828669,170.67100244,65.12476859
-5.94620629,-11.03554493,10.87122241,-2.90233879,-0.68548915,-0.15552782

>  <Name>
1uud_lig

>  <RI>
0

>  <Rbt.Current_Directory>
/home/itssahil/PROJECTS/Mol_Feturizer/New_Systems/rnas/1uud

>  <Rbt.Executable>
rbdock ($Id: //depot/dev/client3/rdock/2013.1/src/exe/rbdock.cxx#4 $)

>  <Rbt.Library>
libRbt.so (2013.1, Build901 2013/11/27)

>  <Rbt.Parameter_File>
/export/apps/rDock/src/rDock_2013.1_src/data/scripts/dock_solv.prm

>  <Rbt.Receptor>
prm/blind_docking_20.prm

>  <SCORE>
-15.625

>  <SCORE.INTER>
-27.1748

>  <SCORE.INTER.CONST>
1

>  <SCORE.INTER.POLAR>
-3.92332

>  <SCORE.INTER.ROT>
18

>  <SCORE.INTER.SOLV>
9.22858

>  <SCORE.INTER.VDW>
-23.715

>  <SCORE.INTER.norm>
-1.08699

>  <SCORE.INTRA>
10.4175

>  <SCORE.INTRA.DIHEDRAL>
-3.10017

>  <SCORE.INTRA.DIHEDRAL.0>
30.6762

>  <SCORE.INTRA.POLAR>
0.0288659

>  <SCORE.INTRA.POLAR.0>
-0.0288659

>  <SCORE.INTRA.REPUL>
0

>  <SCORE.INTRA.REPUL.0>
0

>  <SCORE.INTRA.SOLV>
-0.151984

>  <SCORE.INTRA.SOLV.lig_0>
-25.2195

>  <SCORE.INTRA.VDW>
11.9454

>  <SCORE.INTRA.VDW.0>
4.14263

>  <SCORE.INTRA.norm>
0.4167

>  <SCORE.RESTR>
1.13233

>  <SCORE.RESTR.CAVITY>
1.13233

>  <SCORE.RESTR.norm>
0.0452932

>  <SCORE.SYSTEM>
0

>  <SCORE.SYSTEM.CONST>
0

>  <SCORE.SYSTEM.DIHEDRAL>
0

>  <SCORE.SYSTEM.SOLV>
0

>  <SCORE.SYSTEM.norm>
0

>  <SCORE.heavy>
25

>  <SCORE.norm>
-0.624999

>  <RMSD>
14.775

$$$$
1uud_lig
 OpenBabel11021811413D
libRbt.so/2013.1/901 2013/11/27
 25 25  0  0  0  0  0  0  0  0999 V2000
   -7.9675  -13.8673    8.3317 C   0  0  0  0  0  0  0  0  0  0  0  0
   -7.5239  -14.5276   11.1549 O   0  0  0  0  0  0  0  0  0  0  0  0
   -7.3936  -14.4074   12.5792 C   0  0  0  0  0  0  0  0  0  0  0  0
   -7.4785  -12.5021    8.0169 N   0  0  0  0  0  0  0  0  0  0  0  0
   -6.0140  -14.9072   13.0287 C   0  0  0  0  0  0  0  0  0  0  0  0
   -6.0266  -12.4109    8.3005 C   0  0  0  0  0  0  0  0  0  0  0  0
   -5.3629  -11.4760    7.2821 C   0  0  0  0  0  0  0  0  0  0  0  0
   -5.1210  -13.9601   12.8664 N   0  0  0  0  0  0  0  0  0  0  0  0
   -5.0597  -13.2528   11.7537 C   0  0  0  0  0  0  0  0  0  0  0  0
   -6.1241  -10.1473    7.2211 C   0  0  0  0  0  0  0  0  0  0  0  0
   -6.0424   -9.4478    8.5810 C   0  0  0  0  0  0  0  0  0  0  0  0
   -5.5427  -11.9747   11.6918 N   0  0  0  0  0  0  0  0  0  0  0  0
   -4.5057  -13.8075   10.6448 N   0  0  0  0  0  0  0  0  0  0  0  0
   -5.1024   -8.5328    8.5555 N   0  0  0  0  0  0  0  0  0  0  0  0
   -5.1516   -7.4721    9.3383 C   0  0  0  0  0  0  0  0  0  0  0  0
   -5.7900   -6.3560    8.9019 N   0  0  0  0  0  0  0  0  0  0  0  0
   -4.5665   -7.4672   10.5727 N   0  0  0  0  0  0  0  0  0  0  0  0
   -8.8360  -14.1218   10.7445 C   0  0  0  0  0  0  0  0  0  0  0  0
  -12.7432  -12.8722    9.5517 O   0  0  0  0  0  0  0  0  0  0  0  0
   -9.0932  -13.7872    9.3837 C   0  0  0  0  0  0  0  0  0  0  0  0
  -10.3914  -13.3639    8.9915 C   0  0  0  0  0  0  0  0  0  0  0  0
  -11.4365  -13.2947    9.9499 C   0  0  0  0  0  0  0  0  0  0  0  0
  -11.1858  -13.6469   11.3034 C   0  0  0  0  0  0  0  0  0  0  0  0
   -9.8877  -14.0675   11.7009 C   0  0  0  0  0  0  0  0  0  0  0  0
  -12.6680  -11.5684    8.9676 C   0  0  0  0  0  0  0  0  0  0  0  0
  1  4  1  0  0  0  0
  2  3  1  0  0  0  0
  3  5  1  0  0  0  0
  4  6  1  0  0  0  0
  5  8  1  0  0  0  0
  6  7  1  0  0  0  0
  7 10  1  0  0  0  0
  8  9  1  0  0  0  0
  9 12  1  0  0  0  0
  9 13  1  0  0  0  0
 10 11  1  0  0  0  0
 11 14  1  0  0  0  0
 14 15  1  0  0  0  0
 15 16  1  0  0  0  0
 15 17  1  0  0  0  0
 18  2  1  0  0  0  0
 18 20  2  0  0  0  0
 18 24  1  0  0  0  0
 19 25  1  0  0  0  0
 20  1  1  0  0  0  0
 20 21  1  0  0  0  0
 21 22  2  0  0  0  0
 22 19  1  0  0  0  0
 22 23  1  0  0  0  0
 23 24  2  0  0  0  0
M  END
>  <CHROM.1>
121.81034855,177.18573356,82.31445194,145.53956135,-45.89768981,51.26161843
63.04681960,103.25785264,74.78972686,-77.69648653,98.83517574,153.03434174
-89.05838330,-80.96356693,101.27837068,162.04011732,-103.40568684,-57.63333990
-7.40487088,-12.05566428,9.97013314,2.36391528,0.28366623,2.59180604

>  <Name>
1uud_lig

>  <RI>
0

>  <Rbt.Current_Directory>
/home/itssahil/PROJECTS/Mol_Feturizer/New_Systems/rnas/1uud

>  <Rbt.Executable>
rbdock ($Id: //depot/dev/client3/rdock/2013.1/src/exe/rbdock.cxx#4 $)

>  <Rbt.Library>
libRbt.so (2013.1, Build901 2013/11/27)

>  <Rbt.Parameter_File>
/export/apps/rDock/src/rDock_2013.1_src/data/scripts/dock_solv.prm

>  <Rbt.Receptor>
prm/blind_docking_100.prm

>  <SCORE>
-8.11365

>  <SCORE.INTER>
-10.1546

>  <SCORE.INTER.CONST>
1

>  <SCORE.INTER.POLAR>
-2.14291

>  <SCORE.INTER.ROT>
18

>  <SCORE.INTER.SOLV>
10.1757

>  <SCORE.INTER.VDW>
-18.6186

>  <SCORE.INTER.norm>
-0.406183

>  <SCORE.INTRA>
-0.0630997

>  <SCORE.INTRA.DIHEDRAL>
-4.63418

>  <SCORE.INTRA.DIHEDRAL.0>
30.6762

>  <SCORE.INTRA.POLAR>
0.0288659

>  <SCORE.INTRA.POLAR.0>
-0.0288659

>  <SCORE.INTRA.REPUL>
0

>  <SCORE.INTRA.REPUL.0>
0

>  <SCORE.INTRA.SOLV>
0.762479

>  <SCORE.INTRA.SOLV.lig_0>
-25.2195

>  <SCORE.INTRA.VDW>
1.77461

>  <SCORE.INTRA.VDW.0>
4.14263

>  <SCORE.INTRA.norm>
-0.00252399

>  <SCORE.RESTR>
2.10402

>  <SCORE.RESTR.CAVITY>
2.10402

>  <SCORE.RESTR.norm>
0.0841608

>  <SCORE.SYSTEM>
0

>  <SCORE.SYSTEM.CONST>
0

>  <SCORE.SYSTEM.DIHEDRAL>
0

>  <SCORE.SYSTEM.SOLV>
0

>  <SCORE.SYSTEM.norm>
0

>  <SCORE.heavy>
25

>  <SCORE.norm>
-0.324546

>  <RMSD>
14.798

$$$$
1uud_lig
 OpenBabel11021811413D
libRbt.so/2013.1/901 2013/11/27
 25 25  0  0  0  0  0  0  0  0999 V2000
   -5.7257  -10.9869   11.0862 C   0  0  0  0  0  0  0  0  0  0  0  0
   -6.8466   -8.9325    9.3184 O   0  0  0  0  0  0  0  0  0  0  0  0
   -5.6338   -8.7614    8.5700 C   0  0  0  0  0  0  0  0  0  0  0  0
   -4.4178  -11.5461   10.6630 N   0  0  0  0  0  0  0  0  0  0  0  0
   -4.5732   -8.0642    9.4327 C   0  0  0  0  0  0  0  0  0  0  0  0
   -4.1153  -12.7658   11.4489 C   0  0  0  0  0  0  0  0  0  0  0  0
   -3.9738  -12.3988   12.9311 C   0  0  0  0  0  0  0  0  0  0  0  0
   -5.1463   -7.4714   10.4530 N   0  0  0  0  0  0  0  0  0  0  0  0
   -4.5244   -7.3324   11.6087 C   0  0  0  0  0  0  0  0  0  0  0  0
   -2.4978  -12.1666   13.2719 C   0  0  0  0  0  0  0  0  0  0  0  0
   -2.1408  -10.6978   13.0259 C   0  0  0  0  0  0  0  0  0  0  0  0
   -5.1519   -7.5982   12.7946 N   0  0  0  0  0  0  0  0  0  0  0  0
   -3.2323   -6.9145   11.6206 N   0  0  0  0  0  0  0  0  0  0  0  0
   -0.9350  -10.4505   13.4798 N   0  0  0  0  0  0  0  0  0  0  0  0
   -0.7160   -9.5084   14.3771 C   0  0  0  0  0  0  0  0  0  0  0  0
   -1.1670   -8.2500   14.1395 N   0  0  0  0  0  0  0  0  0  0  0  0
   -0.0374   -9.7673   15.5340 N   0  0  0  0  0  0  0  0  0  0  0  0
   -7.3193  -10.2794    9.1888 C   0  0  0  0  0  0  0  0  0  0  0  0
   -8.7100  -14.2955    8.7552 O   0  0  0  0  0  0  0  0  0  0  0  0
   -6.7974  -11.3088   10.0242 C   0  0  0  0  0  0  0  0  0  0  0  0
   -7.2556  -12.6450    9.8720 C   0  0  0  0  0  0  0  0  0  0  0  0
   -8.2476  -12.9506    8.9035 C   0  0  0  0  0  0  0  0  0  0  0  0
   -8.7828  -11.9212    8.0832 C   0  0  0  0  0  0  0  0  0  0  0  0
   -8.3247  -10.5837    8.2295 C   0  0  0  0  0  0  0  0  0  0  0  0
   -9.8931  -14.4843    9.5369 C   0  0  0  0  0  0  0  0  0  0  0  0
  1  4  1  0  0  0  0
  2  3  1  0  0  0  0
  3  5  1  0  0  0  0
  4  6  1  0  0  0  0
  5  8  1  0  0  0  0
  6  7  1  0  0  0  0
  7 10  1  0  0  0  0
  8  9  1  0  0  0  0
  9 12  1  0  0  0  0
  9 13  1  0  0  0  0
 10 11  1  0  0  0  0
 11 14  1  0  0  0  0
 14 15  1  0  0  0  0
 15 16  1  0  0  0  0
 15 17  1  0  0  0  0
 18  2  1  0  0  0  0
 18 20  2  0  0  0  0
 18 24  1  0  0  0  0
 19 25  1  0  0  0  0
 20  1  1  0  0  0  0
 20 21  1  0  0  0  0
 21 22  2  0  0  0  0
 22 19  1  0  0  0  0
 22 23  1  0  0  0  0
 23 24  2  0  0  0  0
M  END
>  <CHROM.1>
-104.43703130,-131.76395806,-18.21178554,-63.34975043,149.09881733,-94.92209390
88.84515890,-134.97835864,76.14074460,117.77084105,171.70004444,-123.01123889
-53.19129273,72.73752722,50.45175992,83.54482785,-108.44589997,94.66252649
-4.95998190,-10.43251795,11.12350472,-2.91704643,-0.67384209,-0.21698246

>  <Name>
1uud_lig

>  <RI>
0

>  <Rbt.Current_Directory>
/home/itssahil/PROJECTS/Mol_Feturizer/New_Systems/rnas/1uud

>  <Rbt.Executable>
rbdock ($Id: //depot/dev/client3/rdock/2013.1/src/exe/rbdock.cxx#4 $)

>  <Rbt.Library>
libRbt.so (2013.1, Build901 2013/11/27)

>  <Rbt.Parameter_File>
/export/apps/rDock/src/rDock_2013.1_src/data/scripts/dock_solv.prm

>  <Rbt.Receptor>
prm/blind_docking_80.prm

>  <SCORE>
-21.1838

>  <SCORE.INTER>
-21.9777

>  <SCORE.INTER.CONST>
1

>  <SCORE.INTER.POLAR>
-3.04057

>  <SCORE.INTER.ROT>
18

>  <SCORE.INTER.SOLV>
11.6336

>  <SCORE.INTER.VDW>
-23.9945

>  <SCORE.INTER.norm>
-0.879108

>  <SCORE.INTRA>
0.24312

>  <SCORE.INTRA.DIHEDRAL>
9.69901

>  <SCORE.INTRA.DIHEDRAL.0>
30.6762

>  <SCORE.INTRA.POLAR>
0.0288659

>  <SCORE.INTRA.POLAR.0>
-0.0288659

>  <SCORE.INTRA.REPUL>
0

>  <SCORE.INTRA.REPUL.0>
0

>  <SCORE.INTRA.SOLV>
0.446216

>  <SCORE.INTRA.SOLV.lig_0>
-25.2195

>  <SCORE.INTRA.VDW>
-4.92764

>  <SCORE.INTRA.VDW.0>
4.14263

>  <SCORE.INTRA.norm>
0.00972481

>  <SCORE.RESTR>
0.55076

>  <SCORE.RESTR.CAVITY>
0.55076

>  <SCORE.RESTR.norm>
0.0220304

>  <SCORE.SYSTEM>
0

>  <SCORE.SYSTEM.CONST>
0

>  <SCORE.SYSTEM.DIHEDRAL>
0

>  <SCORE.SYSTEM.SOLV>
0

>  <SCORE.SYSTEM.norm>
0

>  <SCORE.heavy>
25

>  <SCORE.norm>
-0.847353

>  <RMSD>
14.812

$$$$
1uud_lig
 OpenBabel11021811413D
libRbt.so/2013.1/901 2013/11/27
 25 25  0  0  0  0  0  0  0  0999 V2000
   -5.3132  -12.6512   10.0154 C   0  0  0  0  0  0  0  0  0  0  0  0
   -6.1928   -9.8721    9.6912 O   0  0  0  0  0  0  0  0  0  0  0  0
   -5.7672   -9.3133    8.4394 C   0  0  0  0  0  0  0  0  0  0  0  0
   -4.7219  -11.5445   10.8076 N   0  0  0  0  0  0  0  0  0  0  0  0
   -4.9468   -8.0388    8.6802 C   0  0  0  0  0  0  0  0  0  0  0  0
   -4.5998  -11.9527   12.2272 C   0  0  0  0  0  0  0  0  0  0  0  0
   -3.7251  -10.9415   12.9782 C   0  0  0  0  0  0  0  0  0  0  0  0
   -4.2973   -8.1335    9.8159 N   0  0  0  0  0  0  0  0  0  0  0  0
   -4.8375   -7.7416   10.9546 C   0  0  0  0  0  0  0  0  0  0  0  0
   -2.3510  -11.5551   13.2681 C   0  0  0  0  0  0  0  0  0  0  0  0
   -1.2933  -10.4481   13.3027 C   0  0  0  0  0  0  0  0  0  0  0  0
   -6.0867   -7.1864   10.9993 N   0  0  0  0  0  0  0  0  0  0  0  0
   -4.1362   -7.8917   12.1078 N   0  0  0  0  0  0  0  0  0  0  0  0
   -1.4894   -9.6771   14.3459 N   0  0  0  0  0  0  0  0  0  0  0  0
   -0.4963   -9.0204   14.9142 C   0  0  0  0  0  0  0  0  0  0  0  0
    0.3088   -9.6692   15.7942 N   0  0  0  0  0  0  0  0  0  0  0  0
   -0.2658   -7.7010   14.6456 N   0  0  0  0  0  0  0  0  0  0  0  0
   -7.1423  -10.9216    9.4644 C   0  0  0  0  0  0  0  0  0  0  0  0
   -9.9764  -14.0352    8.7403 O   0  0  0  0  0  0  0  0  0  0  0  0
   -6.7550  -12.2854    9.6059 C   0  0  0  0  0  0  0  0  0  0  0  0
   -7.6973  -13.3189    9.3562 C   0  0  0  0  0  0  0  0  0  0  0  0
   -9.0288  -12.9931    8.9870 C   0  0  0  0  0  0  0  0  0  0  0  0
   -9.4212  -11.6330    8.8646 C   0  0  0  0  0  0  0  0  0  0  0  0
   -8.4809  -10.5959    9.1100 C   0  0  0  0  0  0  0  0  0  0  0  0
  -10.3434  -14.6520    9.9778 C   0  0  0  0  0  0  0  0  0  0  0  0
  1  4  1  0  0  0  0
  2  3  1  0  0  0  0
  3  5  1  0  0  0  0
  4  6  1  0  0  0  0
  5  8  1  0  0  0  0
  6  7  1  0  0  0  0
  7 10  1  0  0  0  0
  8  9  1  0  0  0  0
  9 12  1  0  0  0  0
  9 13  1  0  0  0  0
 10 11  1  0  0  0  0
 11 14  1  0  0  0  0
 14 15  1  0  0  0  0
 15 16  1  0  0  0  0
 15 17  1  0  0  0  0
 18  2  1  0  0  0  0
 18 20  2  0  0  0  0
 18 24  1  0  0  0  0
 19 25  1  0  0  0  0
 20  1  1  0  0  0  0
 20 21  1  0  0  0  0
 21 22  2  0  0  0  0
 22 19  1  0  0  0  0
 22 23  1  0  0  0  0
 23 24  2  0  0  0  0
M  END
>  <CHROM.1>
108.58092199,170.15087632,31.33281571,167.97324149,-88.93696746,-106.49031501
150.05099938,-1.70726339,-151.44900775,24.68604402,67.98705962,152.60354867
-81.58935660,67.55700328,100.29063213,104.66222575,26.87497368,72.13304882
-5.07714823,-10.49102589,11.15463376,-3.00387139,-0.66917434,-0.37785821

>  <Name>
1uud_lig

>  <RI>
0

>  <Rbt.Current_Directory>
/home/itssahil/PROJECTS/Mol_Feturizer/New_Systems/rnas/1uud

>  <Rbt.Executable>
rbdock ($Id: //depot/dev/client3/rdock/2013.1/src/exe/rbdock.cxx#4 $)

>  <Rbt.Library>
libRbt.so (2013.1, Build901 2013/11/27)

>  <Rbt.Parameter_File>
/export/apps/rDock/src/rDock_2013.1_src/data/scripts/dock_solv.prm

>  <Rbt.Receptor>
prm/blind_docking_80.prm

>  <SCORE>
-19.1436

>  <SCORE.INTER>
-16.2827

>  <SCORE.INTER.CONST>
1

>  <SCORE.INTER.POLAR>
-2.23952

>  <SCORE.INTER.ROT>
18

>  <SCORE.INTER.SOLV>
8.87294

>  <SCORE.INTER.VDW>
-21.9477

>  <SCORE.INTER.norm>
-0.651307

>  <SCORE.INTRA>
-3.73062

>  <SCORE.INTRA.DIHEDRAL>
3.27297

>  <SCORE.INTRA.DIHEDRAL.0>
30.6762

>  <SCORE.INTRA.POLAR>
-0.685515

>  <SCORE.INTRA.POLAR.0>
-0.0288659

>  <SCORE.INTRA.REPUL>
0

>  <SCORE.INTRA.REPUL.0>
0

>  <SCORE.INTRA.SOLV>
1.43727

>  <SCORE.INTRA.SOLV.lig_0>
-25.2195

>  <SCORE.INTRA.VDW>
-3.75499

>  <SCORE.INTRA.VDW.0>
4.14263

>  <SCORE.INTRA.norm>
-0.149225

>  <SCORE.RESTR>
0.869741

>  <SCORE.RESTR.CAVITY>
0.869741

>  <SCORE.RESTR.norm>
0.0347896

>  <SCORE.SYSTEM>
0

>  <SCORE.SYSTEM.CONST>
0

>  <SCORE.SYSTEM.DIHEDRAL>
0

>  <SCORE.SYSTEM.SOLV>
0

>  <SCORE.SYSTEM.norm>
0

>  <SCORE.heavy>
25

>  <SCORE.norm>
-0.765742

>  <RMSD>
14.829

$$$$
1uud_lig
 OpenBabel11021811413D
libRbt.so/2013.1/901 2013/11/27
 25 25  0  0  0  0  0  0  0  0999 V2000
   -7.8610  -12.7533    8.1763 C   0  0  0  0  0  0  0  0  0  0  0  0
   -9.4851  -14.9649    9.2123 O   0  0  0  0  0  0  0  0  0  0  0  0
  -10.7956  -14.9674    9.7979 C   0  0  0  0  0  0  0  0  0  0  0  0
   -6.7463  -13.3015    7.3644 N   0  0  0  0  0  0  0  0  0  0  0  0
  -11.6396  -13.8277    9.2116 C   0  0  0  0  0  0  0  0  0  0  0  0
   -5.9938  -12.1927    6.7312 C   0  0  0  0  0  0  0  0  0  0  0  0
   -5.2365  -11.4062    7.8080 C   0  0  0  0  0  0  0  0  0  0  0  0
  -11.0377  -12.6789    9.4087 N   0  0  0  0  0  0  0  0  0  0  0  0
  -11.2916  -11.6280    8.6517 C   0  0  0  0  0  0  0  0  0  0  0  0
   -6.1111  -10.2602    8.3282 C   0  0  0  0  0  0  0  0  0  0  0  0
   -5.2795   -9.3567    9.2434 C   0  0  0  0  0  0  0  0  0  0  0  0
  -10.7118  -11.4759    7.4223 N   0  0  0  0  0  0  0  0  0  0  0  0
  -12.1471  -10.6755    9.1046 N   0  0  0  0  0  0  0  0  0  0  0  0
   -5.9854   -8.3081    9.5948 N   0  0  0  0  0  0  0  0  0  0  0  0
   -6.1806   -8.0021   10.8631 C   0  0  0  0  0  0  0  0  0  0  0  0
   -7.3820   -7.4980   11.2453 N   0  0  0  0  0  0  0  0  0  0  0  0
   -5.1993   -8.1710   11.7983 N   0  0  0  0  0  0  0  0  0  0  0  0
   -8.5525  -14.3282   10.0951 C   0  0  0  0  0  0  0  0  0  0  0  0
   -5.7479  -12.4740   12.7307 O   0  0  0  0  0  0  0  0  0  0  0  0
   -7.7405  -13.2535    9.6307 C   0  0  0  0  0  0  0  0  0  0  0  0
   -6.8027  -12.6444   10.5070 C   0  0  0  0  0  0  0  0  0  0  0  0
   -6.6897  -13.0915   11.8497 C   0  0  0  0  0  0  0  0  0  0  0  0
   -7.5129  -14.1502   12.3192 C   0  0  0  0  0  0  0  0  0  0  0  0
   -8.4499  -14.7649   11.4451 C   0  0  0  0  0  0  0  0  0  0  0  0
   -4.4536  -12.4690   12.1213 C   0  0  0  0  0  0  0  0  0  0  0  0
  1  4  1  0  0  0  0
  2  3  1  0  0  0  0
  3  5  1  0  0  0  0
  4  6  1  0  0  0  0
  5  8  1  0  0  0  0
  6  7  1  0  0  0  0
  7 10  1  0  0  0  0
  8  9  1  0  0  0  0
  9 12  1  0  0  0  0
  9 13  1  0  0  0  0
 10 11  1  0  0  0  0
 11 14  1  0  0  0  0
 14 15  1  0  0  0  0
 15 16  1  0  0  0  0
 15 17  1  0  0  0  0
 18  2  1  0  0  0  0
 18 20  2  0  0  0  0
 18 24  1  0  0  0  0
 19 25  1  0  0  0  0
 20  1  1  0  0  0  0
 20 21  1  0  0  0  0
 21 22  2  0  0  0  0
 22 19  1  0  0  0  0
 22 23  1  0  0  0  0
 23 24  2  0  0  0  0
M  END
>  <CHROM.1>
-123.69962480,99.44798479,-57.31141680,69.12311246,157.08209557,-90.70683318
-171.54588348,-80.78548507,50.65623229,-78.25882902,174.28682261,124.44380679
-142.85755194,35.07813737,-69.20088078,-126.41160477,-101.13217425,-52.31375900
-7.81002271,-11.87762208,9.76800413,2.55303885,0.47931323,2.85602731

>  <Name>
1uud_lig

>  <RI>
0

>  <Rbt.Current_Directory>
/home/itssahil/PROJECTS/Mol_Feturizer/New_Systems/rnas/1uud

>  <Rbt.Executable>
rbdock ($Id: //depot/dev/client3/rdock/2013.1/src/exe/rbdock.cxx#4 $)

>  <Rbt.Library>
libRbt.so (2013.1, Build901 2013/11/27)

>  <Rbt.Parameter_File>
/export/apps/rDock/src/rDock_2013.1_src/data/scripts/dock_solv.prm

>  <Rbt.Receptor>
prm/blind_docking_100.prm

>  <SCORE>
-29.311

>  <SCORE.INTER>
-26.0749

>  <SCORE.INTER.CONST>
1

>  <SCORE.INTER.POLAR>
-4.00136

>  <SCORE.INTER.ROT>
18

>  <SCORE.INTER.SOLV>
10.2393

>  <SCORE.INTER.VDW>
-23.0585

>  <SCORE.INTER.norm>
-1.043

>  <SCORE.INTRA>
-4.50309

>  <SCORE.INTRA.DIHEDRAL>
-1.89484

>  <SCORE.INTRA.DIHEDRAL.0>
30.6762

>  <SCORE.INTRA.POLAR>
0.0288659

>  <SCORE.INTRA.POLAR.0>
-0.0288659

>  <SCORE.INTRA.REPUL>
0

>  <SCORE.INTRA.REPUL.0>
0

>  <SCORE.INTRA.SOLV>
-0.179165

>  <SCORE.INTRA.SOLV.lig_0>
-25.2195

>  <SCORE.INTRA.VDW>
-3.56423

>  <SCORE.INTRA.VDW.0>
4.14263

>  <SCORE.INTRA.norm>
-0.180124

>  <SCORE.RESTR>
1.267

>  <SCORE.RESTR.CAVITY>
1.267

>  <SCORE.RESTR.norm>
0.05068

>  <SCORE.SYSTEM>
0

>  <SCORE.SYSTEM.CONST>
0

>  <SCORE.SYSTEM.DIHEDRAL>
0

>  <SCORE.SYSTEM.SOLV>
0

>  <SCORE.SYSTEM.norm>
0

>  <SCORE.heavy>
25

>  <SCORE.norm>
-1.17244

>  <RMSD>
14.831

$$$$
1uud_lig
 OpenBabel11021811413D
libRbt.so/2013.1/901 2013/11/27
 25 25  0  0  0  0  0  0  0  0999 V2000
   -4.4225  -12.2038    9.9026 C   0  0  0  0  0  0  0  0  0  0  0  0
   -5.0104   -9.5124    8.8962 O   0  0  0  0  0  0  0  0  0  0  0  0
   -5.2448   -8.7669    7.6922 C   0  0  0  0  0  0  0  0  0  0  0  0
   -4.4569  -13.4980   10.6279 N   0  0  0  0  0  0  0  0  0  0  0  0
   -4.8997   -7.2875    7.9098 C   0  0  0  0  0  0  0  0  0  0  0  0
   -4.5395  -13.2535   12.0874 C   0  0  0  0  0  0  0  0  0  0  0  0
   -5.7143  -14.0453   12.6744 C   0  0  0  0  0  0  0  0  0  0  0  0
   -5.8402   -6.7088    8.6180 N   0  0  0  0  0  0  0  0  0  0  0  0
   -6.5231   -5.6811    8.1494 C   0  0  0  0  0  0  0  0  0  0  0  0
   -6.8590  -13.0911   13.0320 C   0  0  0  0  0  0  0  0  0  0  0  0
   -8.1574  -13.8871   13.1926 C   0  0  0  0  0  0  0  0  0  0  0  0
   -5.9398   -4.7437    7.3421 N   0  0  0  0  0  0  0  0  0  0  0  0
   -7.8344   -5.5510    8.4777 N   0  0  0  0  0  0  0  0  0  0  0  0
   -8.4982  -14.4199   12.0431 N   0  0  0  0  0  0  0  0  0  0  0  0
   -9.6055  -15.1250   11.9114 C   0  0  0  0  0  0  0  0  0  0  0  0
   -9.5429  -16.4785   11.9988 N   0  0  0  0  0  0  0  0  0  0  0  0
  -10.8109  -14.5258   11.6792 N   0  0  0  0  0  0  0  0  0  0  0  0
   -6.1042  -10.4050    9.1435 C   0  0  0  0  0  0  0  0  0  0  0  0
   -9.3763  -13.0640    9.8315 O   0  0  0  0  0  0  0  0  0  0  0  0
   -5.8624  -11.7230    9.6276 C   0  0  0  0  0  0  0  0  0  0  0  0
   -6.9518  -12.6079    9.8474 C   0  0  0  0  0  0  0  0  0  0  0  0
   -8.2813  -12.1727    9.6055 C   0  0  0  0  0  0  0  0  0  0  0  0
   -8.5249  -10.8521    9.1413 C   0  0  0  0  0  0  0  0  0  0  0  0
   -7.4377   -9.9646    8.9166 C   0  0  0  0  0  0  0  0  0  0  0  0
   -9.3185  -14.1419    8.8926 C   0  0  0  0  0  0  0  0  0  0  0  0
  1  4  1  0  0  0  0
  2  3  1  0  0  0  0
  3  5  1  0  0  0  0
  4  6  1  0  0  0  0
  5  8  1  0  0  0  0
  6  7  1  0  0  0  0
  7 10  1  0  0  0  0
  8  9  1  0  0  0  0
  9 12  1  0  0  0  0
  9 13  1  0  0  0  0
 10 11  1  0  0  0  0
 11 14  1  0  0  0  0
 14 15  1  0  0  0  0
 15 16  1  0  0  0  0
 15 17  1  0  0  0  0
 18  2  1  0  0  0  0
 18 20  2  0  0  0  0
 18 24  1  0  0  0  0
 19 25  1  0  0  0  0
 20  1  1  0  0  0  0
 20 21  1  0  0  0  0
 21 22  2  0  0  0  0
 22 19  1  0  0  0  0
 22 23  1  0  0  0  0
 23 24  2  0  0  0  0
M  END
>  <CHROM.1>
-87.27270399,135.52258017,-75.29070154,127.66897697,-120.42496047,-107.08555661
162.30268496,-35.01732423,-49.00208448,-174.51166457,-64.86149410,-178.05247501
-96.29409863,-74.63188125,-132.12447893,139.86426241,169.53792014,-66.60552903
-7.05499397,-11.34906350,10.05372941,-1.30058829,0.11783947,2.67765088

>  <Name>
1uud_lig

>  <RI>
0

>  <Rbt.Current_Directory>
/home/itssahil/PROJECTS/Mol_Feturizer/New_Systems/rnas/1uud

>  <Rbt.Executable>
rbdock ($Id: //depot/dev/client3/rdock/2013.1/src/exe/rbdock.cxx#4 $)

>  <Rbt.Library>
libRbt.so (2013.1, Build901 2013/11/27)

>  <Rbt.Parameter_File>
/export/apps/rDock/src/rDock_2013.1_src/data/scripts/dock_solv.prm

>  <Rbt.Receptor>
prm/blind_docking_100.prm

>  <SCORE>
-26.4553

>  <SCORE.INTER>
-28.9989

>  <SCORE.INTER.CONST>
1

>  <SCORE.INTER.POLAR>
-4.99139

>  <SCORE.INTER.ROT>
18

>  <SCORE.INTER.SOLV>
10.44

>  <SCORE.INTER.VDW>
-21.7747

>  <SCORE.INTER.norm>
-1.15996

>  <SCORE.INTRA>
-0.457264

>  <SCORE.INTRA.DIHEDRAL>
3.84997

>  <SCORE.INTRA.DIHEDRAL.0>
30.6762

>  <SCORE.INTRA.POLAR>
-0.499807

>  <SCORE.INTRA.POLAR.0>
-0.0288659

>  <SCORE.INTRA.REPUL>
0

>  <SCORE.INTRA.REPUL.0>
0

>  <SCORE.INTRA.SOLV>
1.1815

>  <SCORE.INTRA.SOLV.lig_0>
-25.2195

>  <SCORE.INTRA.VDW>
-1.27365

>  <SCORE.INTRA.VDW.0>
4.14263

>  <SCORE.INTRA.norm>
-0.0182906

>  <SCORE.RESTR>
3.00085

>  <SCORE.RESTR.CAVITY>
3.00085

>  <SCORE.RESTR.norm>
0.120034

>  <SCORE.SYSTEM>
0

>  <SCORE.SYSTEM.CONST>
0

>  <SCORE.SYSTEM.DIHEDRAL>
0

>  <SCORE.SYSTEM.SOLV>
0

>  <SCORE.SYSTEM.norm>
0

>  <SCORE.heavy>
25

>  <SCORE.norm>
-1.05821

>  <RMSD>
14.840

$$$$
1uud_lig
 OpenBabel11021811413D
libRbt.so/2013.1/901 2013/11/27
 25 25  0  0  0  0  0  0  0  0999 V2000
   -7.3668  -12.9473    9.0246 C   0  0  0  0  0  0  0  0  0  0  0  0
   -7.4391  -14.8607   11.2464 O   0  0  0  0  0  0  0  0  0  0  0  0
   -7.3715  -14.5412   12.6441 C   0  0  0  0  0  0  0  0  0  0  0  0
   -7.6476  -11.8517    8.0639 N   0  0  0  0  0  0  0  0  0  0  0  0
   -7.1661  -13.0321   12.8328 C   0  0  0  0  0  0  0  0  0  0  0  0
   -6.4396  -11.0096    7.8957 C   0  0  0  0  0  0  0  0  0  0  0  0
   -6.3939   -9.9510    9.0042 C   0  0  0  0  0  0  0  0  0  0  0  0
   -6.3413  -12.5759   11.9204 N   0  0  0  0  0  0  0  0  0  0  0  0
   -5.0944  -13.0016   11.8427 C   0  0  0  0  0  0  0  0  0  0  0  0
   -5.2275   -8.9880    8.7575 C   0  0  0  0  0  0  0  0  0  0  0  0
   -5.2300   -7.8956    9.8308 C   0  0  0  0  0  0  0  0  0  0  0  0
   -4.5554  -13.4223   10.6581 N   0  0  0  0  0  0  0  0  0  0  0  0
   -4.3299  -13.0236   12.9648 N   0  0  0  0  0  0  0  0  0  0  0  0
   -6.2468   -7.0883    9.6421 N   0  0  0  0  0  0  0  0  0  0  0  0
   -6.5578   -6.6404    8.4408 C   0  0  0  0  0  0  0  0  0  0  0  0
   -6.0006   -5.4831    8.0008 N   0  0  0  0  0  0  0  0  0  0  0  0
   -7.4348   -7.3084    7.6340 N   0  0  0  0  0  0  0  0  0  0  0  0
   -8.6810  -14.4030   10.6962 C   0  0  0  0  0  0  0  0  0  0  0  0
  -12.3942  -13.0183    9.1009 O   0  0  0  0  0  0  0  0  0  0  0  0
   -8.6909  -13.4697    9.6198 C   0  0  0  0  0  0  0  0  0  0  0  0
   -9.9272  -13.0045    9.0969 C   0  0  0  0  0  0  0  0  0  0  0  0
  -11.1513  -13.4850    9.6317 C   0  0  0  0  0  0  0  0  0  0  0  0
  -11.1425  -14.4307   10.6922 C   0  0  0  0  0  0  0  0  0  0  0  0
   -9.9080  -14.8961   11.2208 C   0  0  0  0  0  0  0  0  0  0  0  0
  -12.1488  -12.2090    7.9470 C   0  0  0  0  0  0  0  0  0  0  0  0
  1  4  1  0  0  0  0
  2  3  1  0  0  0  0
  3  5  1  0  0  0  0
  4  6  1  0  0  0  0
  5  8  1  0  0  0  0
  6  7  1  0  0  0  0
  7 10  1  0  0  0  0
  8  9  1  0  0  0  0
  9 12  1  0  0  0  0
  9 13  1  0  0  0  0
 10 11  1  0  0  0  0
 11 14  1  0  0  0  0
 14 15  1  0  0  0  0
 15 16  1  0  0  0  0
 15 17  1  0  0  0  0
 18  2  1  0  0  0  0
 18 20  2  0  0  0  0
 18 24  1  0  0  0  0
 19 25  1  0  0  0  0
 20  1  1  0  0  0  0
 20 21  1  0  0  0  0
 21 22  2  0  0  0  0
 22 19  1  0  0  0  0
 22 23  1  0  0  0  0
 23 24  2  0  0  0  0
M  END
>  <CHROM.1>
158.02586104,-72.21301797,-38.80136751,-85.00695276,-62.02042433,-174.30512239
177.30325780,130.29061696,113.14947615,118.43069737,-70.66754246,-44.39662523
-89.86319054,50.12274094,42.36379087,120.93328878,-171.79484382,6.92483240
-7.57914364,-11.62740551,9.91562432,2.03268479,0.41184622,2.63782150

>  <Name>
1uud_lig

>  <RI>
0

>  <Rbt.Current_Directory>
/home/itssahil/PROJECTS/Mol_Feturizer/New_Systems/rnas/1uud

>  <Rbt.Executable>
rbdock ($Id: //depot/dev/client3/rdock/2013.1/src/exe/rbdock.cxx#4 $)

>  <Rbt.Library>
libRbt.so (2013.1, Build901 2013/11/27)

>  <Rbt.Parameter_File>
/export/apps/rDock/src/rDock_2013.1_src/data/scripts/dock_solv.prm

>  <Rbt.Receptor>
prm/blind_docking_100.prm

>  <SCORE>
-18.1052

>  <SCORE.INTER>
-19.808

>  <SCORE.INTER.CONST>
1

>  <SCORE.INTER.POLAR>
-3.66674

>  <SCORE.INTER.ROT>
18

>  <SCORE.INTER.SOLV>
8.66292

>  <SCORE.INTER.VDW>
-19.4705

>  <SCORE.INTER.norm>
-0.792319

>  <SCORE.INTRA>
0.0352823

>  <SCORE.INTRA.DIHEDRAL>
-11.5106

>  <SCORE.INTRA.DIHEDRAL.0>
30.6762

>  <SCORE.INTRA.POLAR>
0.0288659

>  <SCORE.INTRA.POLAR.0>
-0.0288659

>  <SCORE.INTRA.REPUL>
0

>  <SCORE.INTRA.REPUL.0>
0

>  <SCORE.INTRA.SOLV>
1.45242

>  <SCORE.INTRA.SOLV.lig_0>
-25.2195

>  <SCORE.INTRA.VDW>
4.9662

>  <SCORE.INTRA.VDW.0>
4.14263

>  <SCORE.INTRA.norm>
0.00141129

>  <SCORE.RESTR>
1.66751

>  <SCORE.RESTR.CAVITY>
1.66751

>  <SCORE.RESTR.norm>
0.0667003

>  <SCORE.SYSTEM>
0

>  <SCORE.SYSTEM.CONST>
0

>  <SCORE.SYSTEM.DIHEDRAL>
0

>  <SCORE.SYSTEM.SOLV>
0

>  <SCORE.SYSTEM.norm>
0

>  <SCORE.heavy>
25

>  <SCORE.norm>
-0.724208

>  <RMSD>
14.858

$$$$
1uud_lig
 OpenBabel11021811413D
libRbt.so/2013.1/901 2013/11/27
 25 25  0  0  0  0  0  0  0  0999 V2000
   -7.6867  -14.4778   11.3455 C   0  0  0  0  0  0  0  0  0  0  0  0
   -9.1980  -14.2826    8.8393 O   0  0  0  0  0  0  0  0  0  0  0  0
  -10.2616  -13.7882    9.6668 C   0  0  0  0  0  0  0  0  0  0  0  0
   -7.8890  -13.7014   12.5938 N   0  0  0  0  0  0  0  0  0  0  0  0
  -10.9479  -12.5942    8.9896 C   0  0  0  0  0  0  0  0  0  0  0  0
   -6.5803  -13.2441   13.1182 C   0  0  0  0  0  0  0  0  0  0  0  0
   -6.7399  -11.8603   13.7595 C   0  0  0  0  0  0  0  0  0  0  0  0
  -10.1491  -11.5537    9.0022 N   0  0  0  0  0  0  0  0  0  0  0  0
  -10.1422  -10.6772    8.0154 C   0  0  0  0  0  0  0  0  0  0  0  0
   -5.6160  -10.9330   13.2843 C   0  0  0  0  0  0  0  0  0  0  0  0
   -6.0630   -9.4748   13.4227 C   0  0  0  0  0  0  0  0  0  0  0  0
   -9.0033  -10.0069    7.6629 N   0  0  0  0  0  0  0  0  0  0  0  0
  -11.2926  -10.4346    7.3357 N   0  0  0  0  0  0  0  0  0  0  0  0
   -5.1429   -8.6785   12.9323 N   0  0  0  0  0  0  0  0  0  0  0  0
   -5.4579   -7.5372   12.3502 C   0  0  0  0  0  0  0  0  0  0  0  0
   -6.6193   -7.4482   11.6524 N   0  0  0  0  0  0  0  0  0  0  0  0
   -4.6384   -6.4469   12.4247 N   0  0  0  0  0  0  0  0  0  0  0  0
   -8.0299  -13.4675    8.9998 C   0  0  0  0  0  0  0  0  0  0  0  0
   -4.5772  -10.9969    9.4746 O   0  0  0  0  0  0  0  0  0  0  0  0
   -7.2700  -13.5277   10.2035 C   0  0  0  0  0  0  0  0  0  0  0  0
   -6.1272  -12.6988   10.3620 C   0  0  0  0  0  0  0  0  0  0  0  0
   -5.7302  -11.8271    9.3141 C   0  0  0  0  0  0  0  0  0  0  0  0
   -6.4761  -11.7806    8.1056 C   0  0  0  0  0  0  0  0  0  0  0  0
   -7.6222  -12.6055    7.9441 C   0  0  0  0  0  0  0  0  0  0  0  0
   -4.9827   -9.6879    9.8853 C   0  0  0  0  0  0  0  0  0  0  0  0
  1  4  1  0  0  0  0
  2  3  1  0  0  0  0
  3  5  1  0  0  0  0
  4  6  1  0  0  0  0
  5  8  1  0  0  0  0
  6  7  1  0  0  0  0
  7 10  1  0  0  0  0
  8  9  1  0  0  0  0
  9 12  1  0  0  0  0
  9 13  1  0  0  0  0
 10 11  1  0  0  0  0
 11 14  1  0  0  0  0
 14 15  1  0  0  0  0
 15 16  1  0  0  0  0
 15 17  1  0  0  0  0
 18  2  1  0  0  0  0
 18 20  2  0  0  0  0
 18 24  1  0  0  0  0
 19 25  1  0  0  0  0
 20  1  1  0  0  0  0
 20 21  1  0  0  0  0
 21 22  2  0  0  0  0
 22 19  1  0  0  0  0
 22 23  1  0  0  0  0
 23 24  2  0  0  0  0
M  END
>  <CHROM.1>
-71.51642779,80.39569248,-70.81506631,144.82550190,146.21687395,-133.55893991
156.65666605,-148.55873619,102.86960574,116.35524147,-175.66943903,147.46151897
-33.20919073,-33.14901887,80.96584614,71.97477097,-123.25124662,-97.27877282
-7.38203660,-11.27577244,10.44340369,-2.80776326,-0.85917741,-0.38222186

>  <Name>
1uud_lig

>  <RI>
0

>  <Rbt.Current_Directory>
/home/itssahil/PROJECTS/Mol_Feturizer/New_Systems/rnas/1uud

>  <Rbt.Executable>
rbdock ($Id: //depot/dev/client3/rdock/2013.1/src/exe/rbdock.cxx#4 $)

>  <Rbt.Library>
libRbt.so (2013.1, Build901 2013/11/27)

>  <Rbt.Parameter_File>
/export/apps/rDock/src/rDock_2013.1_src/data/scripts/dock_solv.prm

>  <Rbt.Receptor>
prm/blind_docking_60.prm

>  <SCORE>
-23.654

>  <SCORE.INTER>
-21.8955

>  <SCORE.INTER.CONST>
1

>  <SCORE.INTER.POLAR>
-4.38135

>  <SCORE.INTER.ROT>
18

>  <SCORE.INTER.SOLV>
11.1196

>  <SCORE.INTER.VDW>
-19.299

>  <SCORE.INTER.norm>
-0.875819

>  <SCORE.INTRA>
-3.20503

>  <SCORE.INTRA.DIHEDRAL>
0.491701

>  <SCORE.INTRA.DIHEDRAL.0>
30.6762

>  <SCORE.INTRA.POLAR>
0.0288659

>  <SCORE.INTRA.POLAR.0>
-0.0288659

>  <SCORE.INTRA.REPUL>
0

>  <SCORE.INTRA.REPUL.0>
0

>  <SCORE.INTRA.SOLV>
0.84685

>  <SCORE.INTRA.SOLV.lig_0>
-25.2195

>  <SCORE.INTRA.VDW>
-3.97245

>  <SCORE.INTRA.VDW.0>
4.14263

>  <SCORE.INTRA.norm>
-0.128201

>  <SCORE.RESTR>
1.44653

>  <SCORE.RESTR.CAVITY>
1.44653

>  <SCORE.RESTR.norm>
0.0578613

>  <SCORE.SYSTEM>
0

>  <SCORE.SYSTEM.CONST>
0

>  <SCORE.SYSTEM.DIHEDRAL>
0

>  <SCORE.SYSTEM.SOLV>
0

>  <SCORE.SYSTEM.norm>
0

>  <SCORE.heavy>
25

>  <SCORE.norm>
-0.946159

>  <RMSD>
14.863

$$$$
1uud_lig
 OpenBabel11021811413D
libRbt.so/2013.1/901 2013/11/27
 25 25  0  0  0  0  0  0  0  0999 V2000
   -6.6542  -12.8629   11.7568 C   0  0  0  0  0  0  0  0  0  0  0  0
   -6.4444  -12.2110    8.9049 O   0  0  0  0  0  0  0  0  0  0  0  0
   -6.9226  -10.9168    8.5091 C   0  0  0  0  0  0  0  0  0  0  0  0
   -5.3132  -13.4237   11.4580 N   0  0  0  0  0  0  0  0  0  0  0  0
   -6.0639   -9.8170    9.1481 C   0  0  0  0  0  0  0  0  0  0  0  0
   -4.3979  -12.3377   11.0342 C   0  0  0  0  0  0  0  0  0  0  0  0
   -4.2223  -11.3375   12.1833 C   0  0  0  0  0  0  0  0  0  0  0  0
   -6.6749   -8.6603    9.0513 N   0  0  0  0  0  0  0  0  0  0  0  0
   -6.0388   -7.5238    9.2655 C   0  0  0  0  0  0  0  0  0  0  0  0
   -3.7586   -9.9852   11.6309 C   0  0  0  0  0  0  0  0  0  0  0  0
   -4.0498   -8.8863   12.6570 C   0  0  0  0  0  0  0  0  0  0  0  0
   -4.7071   -7.3864    8.9853 N   0  0  0  0  0  0  0  0  0  0  0  0
   -6.7219   -6.4675    9.7770 N   0  0  0  0  0  0  0  0  0  0  0  0
   -2.9578   -8.6007   13.3258 N   0  0  0  0  0  0  0  0  0  0  0  0
   -2.4814   -7.3715   13.3753 C   0  0  0  0  0  0  0  0  0  0  0  0
   -1.2367   -7.1633   13.8763 N   0  0  0  0  0  0  0  0  0  0  0  0
   -3.2149   -6.3028   12.9439 N   0  0  0  0  0  0  0  0  0  0  0  0
   -7.5383  -13.0276    9.3419 C   0  0  0  0  0  0  0  0  0  0  0  0
  -10.7813  -15.4994   10.6160 O   0  0  0  0  0  0  0  0  0  0  0  0
   -7.6745  -13.3722   10.7177 C   0  0  0  0  0  0  0  0  0  0  0  0
   -8.7492  -14.2013   11.1372 C   0  0  0  0  0  0  0  0  0  0  0  0
   -9.6983  -14.6685   10.1905 C   0  0  0  0  0  0  0  0  0  0  0  0
   -9.5744  -14.3093    8.8213 C   0  0  0  0  0  0  0  0  0  0  0  0
   -8.4989  -13.4830    8.3966 C   0  0  0  0  0  0  0  0  0  0  0  0
  -11.9215  -15.2638    9.7847 C   0  0  0  0  0  0  0  0  0  0  0  0
  1  4  1  0  0  0  0
  2  3  1  0  0  0  0
  3  5  1  0  0  0  0
  4  6  1  0  0  0  0
  5  8  1  0  0  0  0
  6  7  1  0  0  0  0
  7 10  1  0  0  0  0
  8  9  1  0  0  0  0
  9 12  1  0  0  0  0
  9 13  1  0  0  0  0
 10 11  1  0  0  0  0
 11 14  1  0  0  0  0
 14 15  1  0  0  0  0
 15 16  1  0  0  0  0
 15 17  1  0  0  0  0
 18  2  1  0  0  0  0
 18 20  2  0  0  0  0
 18 24  1  0  0  0  0
 19 25  1  0  0  0  0
 20  1  1  0  0  0  0
 20 21  1  0  0  0  0
 21 22  2  0  0  0  0
 22 19  1  0  0  0  0
 22 23  1  0  0  0  0
 23 24  2  0  0  0  0
M  END
>  <CHROM.1>
112.81473354,132.00085704,-165.17790572,62.66721700,-165.57501110,-158.17001910
160.33938260,31.00537911,-94.91905580,-101.50356228,99.52840041,123.93529903
-168.58556118,-19.54883004,-126.84205639,-110.12670863,-63.61266527,148.88066250
-6.18152236,-10.90303334,10.70453146,-2.60325280,-0.71222185,-0.49575040

>  <Name>
1uud_lig

>  <RI>
0

>  <Rbt.Current_Directory>
/home/itssahil/PROJECTS/Mol_Feturizer/New_Systems/rnas/1uud

>  <Rbt.Executable>
rbdock ($Id: //depot/dev/client3/rdock/2013.1/src/exe/rbdock.cxx#4 $)

>  <Rbt.Library>
libRbt.so (2013.1, Build901 2013/11/27)

>  <Rbt.Parameter_File>
/export/apps/rDock/src/rDock_2013.1_src/data/scripts/dock_solv.prm

>  <Rbt.Receptor>
prm/blind_docking_40.prm

>  <SCORE>
-35.63

>  <SCORE.INTER>
-37.3742

>  <SCORE.INTER.CONST>
1

>  <SCORE.INTER.POLAR>
-6.55561

>  <SCORE.INTER.ROT>
18

>  <SCORE.INTER.SOLV>
12.1278

>  <SCORE.INTER.VDW>
-22.7068

>  <SCORE.INTER.norm>
-1.49497

>  <SCORE.INTRA>
1.16484

>  <SCORE.INTRA.DIHEDRAL>
3.11695

>  <SCORE.INTRA.DIHEDRAL.0>
30.6762

>  <SCORE.INTRA.POLAR>
0.0288659

>  <SCORE.INTRA.POLAR.0>
-0.0288659

>  <SCORE.INTRA.REPUL>
0

>  <SCORE.INTRA.REPUL.0>
0

>  <SCORE.INTRA.SOLV>
-0.726191

>  <SCORE.INTRA.SOLV.lig_0>
-25.2195

>  <SCORE.INTRA.VDW>
-0.128687

>  <SCORE.INTRA.VDW.0>
4.14263

>  <SCORE.INTRA.norm>
0.0465934

>  <SCORE.RESTR>
0.579385

>  <SCORE.RESTR.CAVITY>
0.579385

>  <SCORE.RESTR.norm>
0.0231754

>  <SCORE.SYSTEM>
0

>  <SCORE.SYSTEM.CONST>
0

>  <SCORE.SYSTEM.DIHEDRAL>
0

>  <SCORE.SYSTEM.SOLV>
0

>  <SCORE.SYSTEM.norm>
0

>  <SCORE.heavy>
25

>  <SCORE.norm>
-1.4252

>  <RMSD>
14.875

$$$$
1uud_lig
 OpenBabel11021811413D
libRbt.so/2013.1/901 2013/11/27
 25 25  0  0  0  0  0  0  0  0999 V2000
   -6.3778   -9.3032    8.9305 C   0  0  0  0  0  0  0  0  0  0  0  0
   -5.3755  -11.8977    9.8614 O   0  0  0  0  0  0  0  0  0  0  0  0
   -5.3533  -12.8427   10.9416 C   0  0  0  0  0  0  0  0  0  0  0  0
   -5.9376   -9.1022   10.3333 N   0  0  0  0  0  0  0  0  0  0  0  0
   -3.9053  -13.1509   11.3458 C   0  0  0  0  0  0  0  0  0  0  0  0
   -7.0884   -8.6758   11.1644 C   0  0  0  0  0  0  0  0  0  0  0  0
   -6.5762   -7.9744   12.4283 C   0  0  0  0  0  0  0  0  0  0  0  0
   -3.3273  -12.0645   11.8000 N   0  0  0  0  0  0  0  0  0  0  0  0
   -2.6320  -12.0703   12.9218 C   0  0  0  0  0  0  0  0  0  0  0  0
   -5.7830   -8.9641   13.2885 C   0  0  0  0  0  0  0  0  0  0  0  0
   -5.1426   -8.2210   14.4645 C   0  0  0  0  0  0  0  0  0  0  0  0
   -3.2332  -12.2683   14.1343 N   0  0  0  0  0  0  0  0  0  0  0  0
   -1.2893  -11.8737   12.8710 N   0  0  0  0  0  0  0  0  0  0  0  0
   -4.4505   -7.1983   14.0213 N   0  0  0  0  0  0  0  0  0  0  0  0
   -3.2290   -7.3466   13.5457 C   0  0  0  0  0  0  0  0  0  0  0  0
   -2.3352   -8.0981   14.2386 N   0  0  0  0  0  0  0  0  0  0  0  0
   -2.8398   -6.7537   12.3782 N   0  0  0  0  0  0  0  0  0  0  0  0
   -6.6876  -11.8364    9.2877 C   0  0  0  0  0  0  0  0  0  0  0  0
  -10.6179  -11.6686    7.6219 O   0  0  0  0  0  0  0  0  0  0  0  0
   -7.2147  -10.5952    8.8278 C   0  0  0  0  0  0  0  0  0  0  0  0
   -8.5253  -10.5409    8.2821 C   0  0  0  0  0  0  0  0  0  0  0  0
   -9.3007  -11.7253    8.1754 C   0  0  0  0  0  0  0  0  0  0  0  0
   -8.7684  -12.9669    8.6158 C   0  0  0  0  0  0  0  0  0  0  0  0
   -7.4591  -13.0253    9.1657 C   0  0  0  0  0  0  0  0  0  0  0  0
  -11.5821  -11.6692    8.6787 C   0  0  0  0  0  0  0  0  0  0  0  0
  1  4  1  0  0  0  0
  2  3  1  0  0  0  0
  3  5  1  0  0  0  0
  4  6  1  0  0  0  0
  5  8  1  0  0  0  0
  6  7  1  0  0  0  0
  7 10  1  0  0  0  0
  8  9  1  0  0  0  0
  9 12  1  0  0  0  0
  9 13  1  0  0  0  0
 10 11  1  0  0  0  0
 11 14  1  0  0  0  0
 14 15  1  0  0  0  0
 15 16  1  0  0  0  0
 15 17  1  0  0  0  0
 18  2  1  0  0  0  0
 18 20  2  0  0  0  0
 18 24  1  0  0  0  0
 19 25  1  0  0  0  0
 20  1  1  0  0  0  0
 20 21  1  0  0  0  0
 21 22  2  0  0  0  0
 22 19  1  0  0  0  0
 22 23  1  0  0  0  0
 23 24  2  0  0  0  0
M  END
>  <CHROM.1>
-73.11643658,167.09666168,63.38218806,-158.82954813,132.71495465,-64.13455482
173.61388769,-67.35286045,81.24868479,-96.29763248,-53.01139073,-81.27904389
-46.59898945,-83.12869110,66.67890958,143.15790175,-54.76853218,-100.28559486
-5.71320836,-10.43289345,11.16667943,2.61182131,0.56268121,-2.78007810

>  <Name>
1uud_lig

>  <RI>
0

>  <Rbt.Current_Directory>
/home/itssahil/PROJECTS/Mol_Feturizer/New_Systems/rnas/1uud

>  <Rbt.Executable>
rbdock ($Id: //depot/dev/client3/rdock/2013.1/src/exe/rbdock.cxx#4 $)

>  <Rbt.Library>
libRbt.so (2013.1, Build901 2013/11/27)

>  <Rbt.Parameter_File>
/export/apps/rDock/src/rDock_2013.1_src/data/scripts/dock_solv.prm

>  <Rbt.Receptor>
prm/blind_docking_20.prm

>  <SCORE>
-42.1682

>  <SCORE.INTER>
-31.3268

>  <SCORE.INTER.CONST>
1

>  <SCORE.INTER.POLAR>
-3.89969

>  <SCORE.INTER.ROT>
18

>  <SCORE.INTER.SOLV>
11.983

>  <SCORE.INTER.VDW>
-27.4799

>  <SCORE.INTER.norm>
-1.25307

>  <SCORE.INTRA>
-10.8421

>  <SCORE.INTRA.DIHEDRAL>
-11.3335

>  <SCORE.INTRA.DIHEDRAL.0>
30.6762

>  <SCORE.INTRA.POLAR>
-0.408531

>  <SCORE.INTRA.POLAR.0>
-0.0288659

>  <SCORE.INTRA.REPUL>
0.0322623

>  <SCORE.INTRA.REPUL.0>
0

>  <SCORE.INTRA.SOLV>
0.3518

>  <SCORE.INTRA.SOLV.lig_0>
-25.2195

>  <SCORE.INTRA.VDW>
-4.12352

>  <SCORE.INTRA.VDW.0>
4.14263

>  <SCORE.INTRA.norm>
-0.433683

>  <SCORE.RESTR>
0.000647472

>  <SCORE.RESTR.CAVITY>
0.000647472

>  <SCORE.RESTR.norm>
2.58989e-05

>  <SCORE.SYSTEM>
0

>  <SCORE.SYSTEM.CONST>
0

>  <SCORE.SYSTEM.DIHEDRAL>
0

>  <SCORE.SYSTEM.SOLV>
0

>  <SCORE.SYSTEM.norm>
0

>  <SCORE.heavy>
25

>  <SCORE.norm>
-1.68673

>  <RMSD>
14.880

$$$$
1uud_lig
 OpenBabel11021811413D
libRbt.so/2013.1/901 2013/11/27
 25 25  0  0  0  0  0  0  0  0999 V2000
   -5.0639  -12.4220   10.0580 C   0  0  0  0  0  0  0  0  0  0  0  0
   -5.1323   -9.8772    8.6013 O   0  0  0  0  0  0  0  0  0  0  0  0
   -5.3223   -8.4681    8.7977 C   0  0  0  0  0  0  0  0  0  0  0  0
   -5.3722  -13.4551   11.0777 N   0  0  0  0  0  0  0  0  0  0  0  0
   -5.3767   -8.1450   10.2969 C   0  0  0  0  0  0  0  0  0  0  0  0
   -6.2278  -12.8733   12.1390 C   0  0  0  0  0  0  0  0  0  0  0  0
   -5.3660  -12.0334   13.0895 C   0  0  0  0  0  0  0  0  0  0  0  0
   -4.1781   -7.8359   10.7312 N   0  0  0  0  0  0  0  0  0  0  0  0
   -4.0019   -7.1843   11.8653 C   0  0  0  0  0  0  0  0  0  0  0  0
   -4.7112  -12.9397   14.1376 C   0  0  0  0  0  0  0  0  0  0  0  0
   -3.6250  -12.1586   14.8827 C   0  0  0  0  0  0  0  0  0  0  0  0
   -5.0418   -6.9443   12.7208 N   0  0  0  0  0  0  0  0  0  0  0  0
   -2.7599   -6.7408   12.1895 N   0  0  0  0  0  0  0  0  0  0  0  0
   -2.4469  -12.4462   14.3822 N   0  0  0  0  0  0  0  0  0  0  0  0
   -2.1055  -12.0724   13.1640 C   0  0  0  0  0  0  0  0  0  0  0  0
   -2.6431  -12.7189   12.0978 N   0  0  0  0  0  0  0  0  0  0  0  0
   -1.2164  -11.0574   12.9507 N   0  0  0  0  0  0  0  0  0  0  0  0
   -6.3653  -10.5752    8.8186 C   0  0  0  0  0  0  0  0  0  0  0  0
  -10.0456  -12.6605    9.4162 O   0  0  0  0  0  0  0  0  0  0  0  0
   -6.3759  -11.8170    9.5169 C   0  0  0  0  0  0  0  0  0  0  0  0
   -7.6001  -12.5124    9.7067 C   0  0  0  0  0  0  0  0  0  0  0  0
   -8.8143  -11.9605    9.2202 C   0  0  0  0  0  0  0  0  0  0  0  0
   -8.8073  -10.7126    8.5408 C   0  0  0  0  0  0  0  0  0  0  0  0
   -7.5844  -10.0152    8.3454 C   0  0  0  0  0  0  0  0  0  0  0  0
   -9.8403  -14.0602    9.2031 C   0  0  0  0  0  0  0  0  0  0  0  0
  1  4  1  0  0  0  0
  2  3  1  0  0  0  0
  3  5  1  0  0  0  0
  4  6  1  0  0  0  0
  5  8  1  0  0  0  0
  6  7  1  0  0  0  0
  7 10  1  0  0  0  0
  8  9  1  0  0  0  0
  9 12  1  0  0  0  0
  9 13  1  0  0  0  0
 10 11  1  0  0  0  0
 11 14  1  0  0  0  0
 14 15  1  0  0  0  0
 15 16  1  0  0  0  0
 15 17  1  0  0  0  0
 18  2  1  0  0  0  0
 18 20  2  0  0  0  0
 18 24  1  0  0  0  0
 19 25  1  0  0  0  0
 20  1  1  0  0  0  0
 20 21  1  0  0  0  0
 21 22  2  0  0  0  0
 22 19  1  0  0  0  0
 22 23  1  0  0  0  0
 23 24  2  0  0  0  0
M  END
>  <CHROM.1>
-55.00645935,77.24554112,92.48399072,-77.93162269,161.62696892,-83.34133171
167.67664182,8.12742077,35.47261576,-102.22970947,-99.01872075,68.13988502
-73.89735790,137.65489575,122.77858186,-139.26414579,162.57164080,-40.67529904
-5.36437437,-10.93492283,11.09279480,-3.11228984,-0.66381546,-0.37676129

>  <Name>
1uud_lig

>  <RI>
0

>  <Rbt.Current_Directory>
/home/itssahil/PROJECTS/Mol_Feturizer/New_Systems/rnas/1uud

>  <Rbt.Executable>
rbdock ($Id: //depot/dev/client3/rdock/2013.1/src/exe/rbdock.cxx#4 $)

>  <Rbt.Library>
libRbt.so (2013.1, Build901 2013/11/27)

>  <Rbt.Parameter_File>
/export/apps/rDock/src/rDock_2013.1_src/data/scripts/dock_solv.prm

>  <Rbt.Receptor>
prm/blind_docking_20.prm

>  <SCORE>
-27.4087

>  <SCORE.INTER>
-28.6202

>  <SCORE.INTER.CONST>
1

>  <SCORE.INTER.POLAR>
-4.33107

>  <SCORE.INTER.ROT>
18

>  <SCORE.INTER.SOLV>
13.6842

>  <SCORE.INTER.VDW>
-24.8046

>  <SCORE.INTER.norm>
-1.14481

>  <SCORE.INTRA>
0.320143

>  <SCORE.INTRA.DIHEDRAL>
-4.57025

>  <SCORE.INTRA.DIHEDRAL.0>
30.6762

>  <SCORE.INTRA.POLAR>
-0.546624

>  <SCORE.INTRA.POLAR.0>
-0.0288659

>  <SCORE.INTRA.REPUL>
0

>  <SCORE.INTRA.REPUL.0>
0

>  <SCORE.INTRA.SOLV>
0.225939

>  <SCORE.INTRA.SOLV.lig_0>
-25.2195

>  <SCORE.INTRA.VDW>
4.35082

>  <SCORE.INTRA.VDW.0>
4.14263

>  <SCORE.INTRA.norm>
0.0128057

>  <SCORE.RESTR>
0.891298

>  <SCORE.RESTR.CAVITY>
0.891298

>  <SCORE.RESTR.norm>
0.0356519

>  <SCORE.SYSTEM>
0

>  <SCORE.SYSTEM.CONST>
0

>  <SCORE.SYSTEM.DIHEDRAL>
0

>  <SCORE.SYSTEM.SOLV>
0

>  <SCORE.SYSTEM.norm>
0

>  <SCORE.heavy>
25

>  <SCORE.norm>
-1.09635

>  <RMSD>
14.882

$$$$
1uud_lig
 OpenBabel11021811413D
libRbt.so/2013.1/901 2013/11/27
 25 25  0  0  0  0  0  0  0  0999 V2000
   -6.2715  -12.8899    7.9506 C   0  0  0  0  0  0  0  0  0  0  0  0
   -8.3361  -13.8384    9.8055 O   0  0  0  0  0  0  0  0  0  0  0  0
   -9.3248  -12.8063    9.9380 C   0  0  0  0  0  0  0  0  0  0  0  0
   -7.0134  -11.6583    7.5832 N   0  0  0  0  0  0  0  0  0  0  0  0
  -10.3043  -12.8569    8.7577 C   0  0  0  0  0  0  0  0  0  0  0  0
   -6.1107  -10.4856    7.6638 C   0  0  0  0  0  0  0  0  0  0  0  0
   -6.8261   -9.3363    8.3843 C   0  0  0  0  0  0  0  0  0  0  0  0
  -11.4502  -12.3209    9.1048 N   0  0  0  0  0  0  0  0  0  0  0  0
  -11.7394  -11.0653    8.8189 C   0  0  0  0  0  0  0  0  0  0  0  0
   -6.9462   -9.6528    9.8790 C   0  0  0  0  0  0  0  0  0  0  0  0
   -5.6358   -9.2928   10.5851 C   0  0  0  0  0  0  0  0  0  0  0  0
  -11.1462  -10.4159    7.7714 N   0  0  0  0  0  0  0  0  0  0  0  0
  -12.6456  -10.4028    9.5831 N   0  0  0  0  0  0  0  0  0  0  0  0
   -5.5620   -7.9936   10.7518 N   0  0  0  0  0  0  0  0  0  0  0  0
   -5.5110   -7.4547   11.9549 C   0  0  0  0  0  0  0  0  0  0  0  0
   -6.5999   -7.5330   12.7623 N   0  0  0  0  0  0  0  0  0  0  0  0
   -4.3924   -6.8113   12.4029 N   0  0  0  0  0  0  0  0  0  0  0  0
   -7.0844  -13.3931   10.3436 C   0  0  0  0  0  0  0  0  0  0  0  0
   -3.3454  -12.1126   11.9656 O   0  0  0  0  0  0  0  0  0  0  0  0
   -6.0526  -12.9295    9.4773 C   0  0  0  0  0  0  0  0  0  0  0  0
   -4.8073  -12.5123   10.0189 C   0  0  0  0  0  0  0  0  0  0  0  0
   -4.5984  -12.5369   11.4229 C   0  0  0  0  0  0  0  0  0  0  0  0
   -5.6337  -12.9807   12.2891 C   0  0  0  0  0  0  0  0  0  0  0  0
   -6.8799  -13.4024   11.7514 C   0  0  0  0  0  0  0  0  0  0  0  0
   -3.4571  -10.7648   12.4321 C   0  0  0  0  0  0  0  0  0  0  0  0
  1  4  1  0  0  0  0
  2  3  1  0  0  0  0
  3  5  1  0  0  0  0
  4  6  1  0  0  0  0
  5  8  1  0  0  0  0
  6  7  1  0  0  0  0
  7 10  1  0  0  0  0
  8  9  1  0  0  0  0
  9 12  1  0  0  0  0
  9 13  1  0  0  0  0
 10 11  1  0  0  0  0
 11 14  1  0  0  0  0
 14 15  1  0  0  0  0
 15 16  1  0  0  0  0
 15 17  1  0  0  0  0
 18  2  1  0  0  0  0
 18 20  2  0  0  0  0
 18 24  1  0  0  0  0
 19 25  1  0  0  0  0
 20  1  1  0  0  0  0
 20 21  1  0  0  0  0
 21 22  2  0  0  0  0
 22 19  1  0  0  0  0
 22 23  1  0  0  0  0
 23 24  2  0  0  0  0
M  END
>  <CHROM.1>
74.67346251,146.83176217,155.40357295,-134.86662771,96.95263848,72.14124765
82.21895444,24.63353690,-22.35524628,-47.10848611,77.06673939,117.65171161
-67.77505232,-98.60043552,-23.68920653,-100.48333629,82.02311060,98.97857856
-7.15407464,-11.02301177,10.13007778,-2.73791133,-0.38112822,0.20315758

>  <Name>
1uud_lig

>  <RI>
0

>  <Rbt.Current_Directory>
/home/itssahil/PROJECTS/Mol_Feturizer/New_Systems/rnas/1uud

>  <Rbt.Executable>
rbdock ($Id: //depot/dev/client3/rdock/2013.1/src/exe/rbdock.cxx#4 $)

>  <Rbt.Library>
libRbt.so (2013.1, Build901 2013/11/27)

>  <Rbt.Parameter_File>
/export/apps/rDock/src/rDock_2013.1_src/data/scripts/dock_solv.prm

>  <Rbt.Receptor>
prm/blind_docking_60.prm

>  <SCORE>
-29.3175

>  <SCORE.INTER>
-24.6147

>  <SCORE.INTER.CONST>
1

>  <SCORE.INTER.POLAR>
-4.18635

>  <SCORE.INTER.ROT>
18

>  <SCORE.INTER.SOLV>
10.7692

>  <SCORE.INTER.VDW>
-21.6451

>  <SCORE.INTER.norm>
-0.984588

>  <SCORE.INTRA>
-5.49748

>  <SCORE.INTRA.DIHEDRAL>
2.14501

>  <SCORE.INTRA.DIHEDRAL.0>
30.6762

>  <SCORE.INTRA.POLAR>
0.0288659

>  <SCORE.INTRA.POLAR.0>
-0.0288659

>  <SCORE.INTRA.REPUL>
0

>  <SCORE.INTRA.REPUL.0>
0

>  <SCORE.INTRA.SOLV>
-0.410816

>  <SCORE.INTRA.SOLV.lig_0>
-25.2195

>  <SCORE.INTRA.VDW>
-6.46272

>  <SCORE.INTRA.VDW.0>
4.14263

>  <SCORE.INTRA.norm>
-0.219899

>  <SCORE.RESTR>
0.79472

>  <SCORE.RESTR.CAVITY>
0.79472

>  <SCORE.RESTR.norm>
0.0317888

>  <SCORE.SYSTEM>
0

>  <SCORE.SYSTEM.CONST>
0

>  <SCORE.SYSTEM.DIHEDRAL>
0

>  <SCORE.SYSTEM.SOLV>
0

>  <SCORE.SYSTEM.norm>
0

>  <SCORE.heavy>
25

>  <SCORE.norm>
-1.1727

>  <RMSD>
14.885

$$$$
1uud_lig
 OpenBabel11021811413D
libRbt.so/2013.1/901 2013/11/27
 25 25  0  0  0  0  0  0  0  0999 V2000
   -7.3084   -9.0815   10.6689 C   0  0  0  0  0  0  0  0  0  0  0  0
   -8.6379  -10.4448    8.4381 O   0  0  0  0  0  0  0  0  0  0  0  0
   -9.4631  -11.4802    7.8838 C   0  0  0  0  0  0  0  0  0  0  0  0
   -6.8127   -8.9460   12.0610 N   0  0  0  0  0  0  0  0  0  0  0  0
  -10.8085  -10.8983    7.4292 C   0  0  0  0  0  0  0  0  0  0  0  0
   -6.2746   -7.5811   12.2718 C   0  0  0  0  0  0  0  0  0  0  0  0
   -5.8815   -7.4065   13.7437 C   0  0  0  0  0  0  0  0  0  0  0  0
  -11.4787  -10.4582    8.4674 N   0  0  0  0  0  0  0  0  0  0  0  0
  -12.7980  -10.4818    8.4976 C   0  0  0  0  0  0  0  0  0  0  0  0
   -4.5299   -8.0797   14.0056 C   0  0  0  0  0  0  0  0  0  0  0  0
   -4.7551   -9.5397   14.4091 C   0  0  0  0  0  0  0  0  0  0  0  0
  -13.4940  -10.1099    9.6147 N   0  0  0  0  0  0  0  0  0  0  0  0
  -13.4795  -10.8860    7.3948 N   0  0  0  0  0  0  0  0  0  0  0  0
   -4.3362  -10.3355   13.4539 N   0  0  0  0  0  0  0  0  0  0  0  0
   -3.0760  -10.3402   13.0636 C   0  0  0  0  0  0  0  0  0  0  0  0
   -2.0961  -10.4933   13.9910 N   0  0  0  0  0  0  0  0  0  0  0  0
   -2.7340  -10.1844   11.7503 N   0  0  0  0  0  0  0  0  0  0  0  0
   -7.4271  -11.0068    8.9603 C   0  0  0  0  0  0  0  0  0  0  0  0
   -3.7961  -12.6747   10.4717 O   0  0  0  0  0  0  0  0  0  0  0  0
   -6.7467  -10.3734   10.0400 C   0  0  0  0  0  0  0  0  0  0  0  0
   -5.5349  -10.9257   10.5349 C   0  0  0  0  0  0  0  0  0  0  0  0
   -5.0137  -12.1187    9.9689 C   0  0  0  0  0  0  0  0  0  0  0  0
   -5.7019  -12.7619    8.9051 C   0  0  0  0  0  0  0  0  0  0  0  0
   -6.9126  -12.2110    8.4044 C   0  0  0  0  0  0  0  0  0  0  0  0
   -4.0866  -13.5658   11.5525 C   0  0  0  0  0  0  0  0  0  0  0  0
  1  4  1  0  0  0  0
  2  3  1  0  0  0  0
  3  5  1  0  0  0  0
  4  6  1  0  0  0  0
  5  8  1  0  0  0  0
  6  7  1  0  0  0  0
  7 10  1  0  0  0  0
  8  9  1  0  0  0  0
  9 12  1  0  0  0  0
  9 13  1  0  0  0  0
 10 11  1  0  0  0  0
 11 14  1  0  0  0  0
 14 15  1  0  0  0  0
 15 16  1  0  0  0  0
 15 17  1  0  0  0  0
 18  2  1  0  0  0  0
 18 20  2  0  0  0  0
 18 24  1  0  0  0  0
 19 25  1  0  0  0  0
 20  1  1  0  0  0  0
 20 21  1  0  0  0  0
 21 22  2  0  0  0  0
 22 19  1  0  0  0  0
 22 23  1  0  0  0  0
 23 24  2  0  0  0  0
M  END
>  <CHROM.1>
131.13512514,175.34566565,-65.11027491,174.91207445,-148.67181952,78.69276707
-89.54774402,175.40027648,-139.27026275,96.48241489,110.48242318,60.70270088
52.47946109,98.76197036,125.67439296,-151.81097426,155.79252727,88.63370157
-6.95050519,-10.48476050,10.66954601,2.73580306,0.35775428,-2.36473473

>  <Name>
1uud_lig

>  <RI>
0

>  <Rbt.Current_Directory>
/home/itssahil/PROJECTS/Mol_Feturizer/New_Systems/rnas/1uud

>  <Rbt.Executable>
rbdock ($Id: //depot/dev/client3/rdock/2013.1/src/exe/rbdock.cxx#4 $)

>  <Rbt.Library>
libRbt.so (2013.1, Build901 2013/11/27)

>  <Rbt.Parameter_File>
/export/apps/rDock/src/rDock_2013.1_src/data/scripts/dock_solv.prm

>  <Rbt.Receptor>
prm/blind_docking_20.prm

>  <SCORE>
-16.9331

>  <SCORE.INTER>
-12.1792

>  <SCORE.INTER.CONST>
1

>  <SCORE.INTER.POLAR>
-2.11752

>  <SCORE.INTER.ROT>
18

>  <SCORE.INTER.SOLV>
9.39445

>  <SCORE.INTER.VDW>
-19.7926

>  <SCORE.INTER.norm>
-0.487168

>  <SCORE.INTRA>
-5.09927

>  <SCORE.INTRA.DIHEDRAL>
-1.52606

>  <SCORE.INTRA.DIHEDRAL.0>
30.6762

>  <SCORE.INTRA.POLAR>
-1.6703

>  <SCORE.INTRA.POLAR.0>
-0.0288659

>  <SCORE.INTRA.REPUL>
0

>  <SCORE.INTRA.REPUL.0>
0

>  <SCORE.INTRA.SOLV>
1.51807

>  <SCORE.INTRA.SOLV.lig_0>
-25.2195

>  <SCORE.INTRA.VDW>
0.58374

>  <SCORE.INTRA.VDW.0>
4.14263

>  <SCORE.INTRA.norm>
-0.203971

>  <SCORE.RESTR>
0.345351

>  <SCORE.RESTR.CAVITY>
0.345351

>  <SCORE.RESTR.norm>
0.013814

>  <SCORE.SYSTEM>
0

>  <SCORE.SYSTEM.CONST>
0

>  <SCORE.SYSTEM.DIHEDRAL>
0

>  <SCORE.SYSTEM.SOLV>
0

>  <SCORE.SYSTEM.norm>
0

>  <SCORE.heavy>
25

>  <SCORE.norm>
-0.677325

>  <RMSD>
14.886

$$$$
1uud_lig
 OpenBabel11021811413D
libRbt.so/2013.1/901 2013/11/27
 25 25  0  0  0  0  0  0  0  0999 V2000
   -5.4150   -9.0479    9.8765 C   0  0  0  0  0  0  0  0  0  0  0  0
   -5.6141  -11.2756    7.9791 O   0  0  0  0  0  0  0  0  0  0  0  0
   -6.8967  -10.6319    7.9499 C   0  0  0  0  0  0  0  0  0  0  0  0
   -4.4222   -8.1434   10.5077 N   0  0  0  0  0  0  0  0  0  0  0  0
   -8.0115  -11.6626    8.1736 C   0  0  0  0  0  0  0  0  0  0  0  0
   -4.9133   -7.7081   11.8366 C   0  0  0  0  0  0  0  0  0  0  0  0
   -3.8386   -6.8606   12.5282 C   0  0  0  0  0  0  0  0  0  0  0  0
   -8.9672  -11.4853    7.2927 N   0  0  0  0  0  0  0  0  0  0  0  0
  -10.1877  -11.1411    7.6586 C   0  0  0  0  0  0  0  0  0  0  0  0
   -2.9553   -7.7539   13.4060 C   0  0  0  0  0  0  0  0  0  0  0  0
   -1.5782   -7.1053   13.5736 C   0  0  0  0  0  0  0  0  0  0  0  0
  -10.9917  -10.3888    6.8472 N   0  0  0  0  0  0  0  0  0  0  0  0
  -10.6552  -11.5420    8.8690 N   0  0  0  0  0  0  0  0  0  0  0  0
   -1.0731   -7.4278   14.7407 N   0  0  0  0  0  0  0  0  0  0  0  0
    0.1294   -7.9597   14.8483 C   0  0  0  0  0  0  0  0  0  0  0  0
    1.2123   -7.1425   14.9048 N   0  0  0  0  0  0  0  0  0  0  0  0
    0.3108   -9.3129   14.8938 N   0  0  0  0  0  0  0  0  0  0  0  0
   -5.2367  -11.5603    9.3322 C   0  0  0  0  0  0  0  0  0  0  0  0
   -4.0673  -12.4260   13.3489 O   0  0  0  0  0  0  0  0  0  0  0  0
   -5.1232  -10.5068   10.2846 C   0  0  0  0  0  0  0  0  0  0  0  0
   -4.7259  -10.7966   11.6175 C   0  0  0  0  0  0  0  0  0  0  0  0
   -4.4631  -12.1366   12.0057 C   0  0  0  0  0  0  0  0  0  0  0  0
   -4.5950  -13.1903   11.0616 C   0  0  0  0  0  0  0  0  0  0  0  0
   -4.9887  -12.9046    9.7262 C   0  0  0  0  0  0  0  0  0  0  0  0
   -5.1753  -12.9772   14.0666 C   0  0  0  0  0  0  0  0  0  0  0  0
  1  4  1  0  0  0  0
  2  3  1  0  0  0  0
  3  5  1  0  0  0  0
  4  6  1  0  0  0  0
  5  8  1  0  0  0  0
  6  7  1  0  0  0  0
  7 10  1  0  0  0  0
  8  9  1  0  0  0  0
  9 12  1  0  0  0  0
  9 13  1  0  0  0  0
 10 11  1  0  0  0  0
 11 14  1  0  0  0  0
 14 15  1  0  0  0  0
 15 16  1  0  0  0  0
 15 17  1  0  0  0  0
 18  2  1  0  0  0  0
 18 20  2  0  0  0  0
 18 24  1  0  0  0  0
 19 25  1  0  0  0  0
 20  1  1  0  0  0  0
 20 21  1  0  0  0  0
 21 22  2  0  0  0  0
 22 19  1  0  0  0  0
 22 23  1  0  0  0  0
 23 24  2  0  0  0  0
M  END
>  <CHROM.1>
-89.28294743,-77.00114944,-133.52638630,175.74916178,-116.60596859,-92.43670675
154.50342196,149.73919761,-90.43147579,130.66073970,149.16548280,126.80343453
85.47757406,137.44511600,-160.96758484,-58.76022934,-139.54066334,103.47473951
-4.88857800,-10.08654748,11.10970461,2.95116112,0.70371110,2.95944929

>  <Name>
1uud_lig

>  <RI>
0

>  <Rbt.Current_Directory>
/home/itssahil/PROJECTS/Mol_Feturizer/New_Systems/rnas/1uud

>  <Rbt.Executable>
rbdock ($Id: //depot/dev/client3/rdock/2013.1/src/exe/rbdock.cxx#4 $)

>  <Rbt.Library>
libRbt.so (2013.1, Build901 2013/11/27)

>  <Rbt.Parameter_File>
/export/apps/rDock/src/rDock_2013.1_src/data/scripts/dock_solv.prm

>  <Rbt.Receptor>
prm/blind_docking_20.prm

>  <SCORE>
-29.2828

>  <SCORE.INTER>
-27.6556

>  <SCORE.INTER.CONST>
1

>  <SCORE.INTER.POLAR>
-3.85896

>  <SCORE.INTER.ROT>
18

>  <SCORE.INTER.SOLV>
11.4833

>  <SCORE.INTER.VDW>
-25.0016

>  <SCORE.INTER.norm>
-1.10622

>  <SCORE.INTRA>
-1.63838

>  <SCORE.INTRA.DIHEDRAL>
4.00296

>  <SCORE.INTRA.DIHEDRAL.0>
30.6762

>  <SCORE.INTRA.POLAR>
0.0288659

>  <SCORE.INTRA.POLAR.0>
-0.0288659

>  <SCORE.INTRA.REPUL>
0

>  <SCORE.INTRA.REPUL.0>
0

>  <SCORE.INTRA.SOLV>
-1.39835

>  <SCORE.INTRA.SOLV.lig_0>
-25.2195

>  <SCORE.INTRA.VDW>
-3.03883

>  <SCORE.INTRA.VDW.0>
4.14263

>  <SCORE.INTRA.norm>
-0.0655353

>  <SCORE.RESTR>
0.0112175

>  <SCORE.RESTR.CAVITY>
0.0112175

>  <SCORE.RESTR.norm>
0.0004487

>  <SCORE.SYSTEM>
0

>  <SCORE.SYSTEM.CONST>
0

>  <SCORE.SYSTEM.DIHEDRAL>
0

>  <SCORE.SYSTEM.SOLV>
0

>  <SCORE.SYSTEM.norm>
0

>  <SCORE.heavy>
25

>  <SCORE.norm>
-1.17131

>  <RMSD>
14.887

$$$$
1uud_lig
 OpenBabel11021811413D
libRbt.so/2013.1/901 2013/11/27
 25 25  0  0  0  0  0  0  0  0999 V2000
   -7.0022  -10.9454    7.5185 C   0  0  0  0  0  0  0  0  0  0  0  0
   -6.5455   -8.6748    9.3181 O   0  0  0  0  0  0  0  0  0  0  0  0
   -5.2442   -8.0731    9.2487 C   0  0  0  0  0  0  0  0  0  0  0  0
   -8.1013   -9.9591    7.3723 N   0  0  0  0  0  0  0  0  0  0  0  0
   -5.1642   -7.1218    8.0471 C   0  0  0  0  0  0  0  0  0  0  0  0
   -9.3789  -10.6654    7.1163 C   0  0  0  0  0  0  0  0  0  0  0  0
  -10.1737  -10.7777    8.4230 C   0  0  0  0  0  0  0  0  0  0  0  0
   -5.8470   -6.0297    8.2957 N   0  0  0  0  0  0  0  0  0  0  0  0
   -7.1645   -6.0423    8.3733 C   0  0  0  0  0  0  0  0  0  0  0  0
  -11.3757  -11.7073    8.2237 C   0  0  0  0  0  0  0  0  0  0  0  0
  -11.6860  -12.4311    9.5371 C   0  0  0  0  0  0  0  0  0  0  0  0
   -7.9422   -6.3142    7.2816 N   0  0  0  0  0  0  0  0  0  0  0  0
   -7.7613   -5.7779    9.5642 N   0  0  0  0  0  0  0  0  0  0  0  0
  -10.6283  -13.0939    9.9411 N   0  0  0  0  0  0  0  0  0  0  0  0
  -10.5844  -14.4119    9.9024 C   0  0  0  0  0  0  0  0  0  0  0  0
  -10.9540  -15.1193   11.0009 N   0  0  0  0  0  0  0  0  0  0  0  0
  -10.1662  -15.0806    8.7870 N   0  0  0  0  0  0  0  0  0  0  0  0
   -6.4466  -10.0017    9.8511 C   0  0  0  0  0  0  0  0  0  0  0  0
   -6.1906  -13.9466   11.4707 O   0  0  0  0  0  0  0  0  0  0  0  0
   -6.6662  -11.1324    9.0126 C   0  0  0  0  0  0  0  0  0  0  0  0
   -6.5887  -12.4429    9.5558 C   0  0  0  0  0  0  0  0  0  0  0  0
   -6.2720  -12.6264   10.9274 C   0  0  0  0  0  0  0  0  0  0  0  0
   -6.0336  -11.5000   11.7601 C   0  0  0  0  0  0  0  0  0  0  0  0
   -6.1135  -10.1871   11.2217 C   0  0  0  0  0  0  0  0  0  0  0  0
   -7.3382  -14.2007   12.2862 C   0  0  0  0  0  0  0  0  0  0  0  0
  1  4  1  0  0  0  0
  2  3  1  0  0  0  0
  3  5  1  0  0  0  0
  4  6  1  0  0  0  0
  5  8  1  0  0  0  0
  6  7  1  0  0  0  0
  7 10  1  0  0  0  0
  8  9  1  0  0  0  0
  9 12  1  0  0  0  0
  9 13  1  0  0  0  0
 10 11  1  0  0  0  0
 11 14  1  0  0  0  0
 14 15  1  0  0  0  0
 15 16  1  0  0  0  0
 15 17  1  0  0  0  0
 18  2  1  0  0  0  0
 18 20  2  0  0  0  0
 18 24  1  0  0  0  0
 19 25  1  0  0  0  0
 20  1  1  0  0  0  0
 20 21  1  0  0  0  0
 21 22  2  0  0  0  0
 22 19  1  0  0  0  0
 22 23  1  0  0  0  0
 23 24  2  0  0  0  0
M  END
>  <CHROM.1>
-101.92491026,147.43540026,73.57245448,98.95411818,-69.39386814,-170.41770380
148.62761784,-66.14158120,-106.68465290,-17.36275975,-57.27186047,-109.13754189
-92.92911048,162.99638531,-49.29149851,-109.49203777,-49.53775480,-106.18298017
-7.94026089,-10.71663187,9.34485140,1.11678033,-0.45510798,-0.45000674

>  <Name>
1uud_lig

>  <RI>
0

>  <Rbt.Current_Directory>
/home/itssahil/PROJECTS/Mol_Feturizer/New_Systems/rnas/1uud

>  <Rbt.Executable>
rbdock ($Id: //depot/dev/client3/rdock/2013.1/src/exe/rbdock.cxx#4 $)

>  <Rbt.Library>
libRbt.so (2013.1, Build901 2013/11/27)

>  <Rbt.Parameter_File>
/export/apps/rDock/src/rDock_2013.1_src/data/scripts/dock_solv.prm

>  <Rbt.Receptor>
prm/blind_docking_100.prm

>  <SCORE>
-29.7247

>  <SCORE.INTER>
-25.3918

>  <SCORE.INTER.CONST>
1

>  <SCORE.INTER.POLAR>
-4.57562

>  <SCORE.INTER.ROT>
18

>  <SCORE.INTER.SOLV>
11.0867

>  <SCORE.INTER.VDW>
-20.9714

>  <SCORE.INTER.norm>
-1.01567

>  <SCORE.INTRA>
-6.41228

>  <SCORE.INTRA.DIHEDRAL>
2.14478

>  <SCORE.INTRA.DIHEDRAL.0>
30.6762

>  <SCORE.INTRA.POLAR>
-0.448756

>  <SCORE.INTRA.POLAR.0>
-0.0288659

>  <SCORE.INTRA.REPUL>
0

>  <SCORE.INTRA.REPUL.0>
0

>  <SCORE.INTRA.SOLV>
0.857437

>  <SCORE.INTRA.SOLV.lig_0>
-25.2195

>  <SCORE.INTRA.VDW>
-6.38761

>  <SCORE.INTRA.VDW.0>
4.14263

>  <SCORE.INTRA.norm>
-0.256491

>  <SCORE.RESTR>
2.07941

>  <SCORE.RESTR.CAVITY>
2.07941

>  <SCORE.RESTR.norm>
0.0831764

>  <SCORE.SYSTEM>
0

>  <SCORE.SYSTEM.CONST>
0

>  <SCORE.SYSTEM.DIHEDRAL>
0

>  <SCORE.SYSTEM.SOLV>
0

>  <SCORE.SYSTEM.norm>
0

>  <SCORE.heavy>
25

>  <SCORE.norm>
-1.18899

>  <RMSD>
14.897

$$$$
1uud_lig
 OpenBabel11021811413D
libRbt.so/2013.1/901 2013/11/27
 25 25  0  0  0  0  0  0  0  0999 V2000
   -6.7870  -12.6658    8.4036 C   0  0  0  0  0  0  0  0  0  0  0  0
   -6.9011  -14.0524   10.9856 O   0  0  0  0  0  0  0  0  0  0  0  0
   -6.9673  -13.7456   12.3862 C   0  0  0  0  0  0  0  0  0  0  0  0
   -6.9828  -11.5121    7.4911 N   0  0  0  0  0  0  0  0  0  0  0  0
   -5.7868  -12.8513   12.7886 C   0  0  0  0  0  0  0  0  0  0  0  0
   -7.4762  -10.3436    8.2579 C   0  0  0  0  0  0  0  0  0  0  0  0
   -6.4053   -9.8996    9.2617 C   0  0  0  0  0  0  0  0  0  0  0  0
   -5.6829  -11.8457   11.9528 N   0  0  0  0  0  0  0  0  0  0  0  0
   -5.3765  -10.6312   12.3691 C   0  0  0  0  0  0  0  0  0  0  0  0
   -5.4778   -8.8671    8.6117 C   0  0  0  0  0  0  0  0  0  0  0  0
   -5.0594   -7.8268    9.6548 C   0  0  0  0  0  0  0  0  0  0  0  0
   -4.1782  -10.0500   12.0579 N   0  0  0  0  0  0  0  0  0  0  0  0
   -6.2712   -9.9438   13.1249 N   0  0  0  0  0  0  0  0  0  0  0  0
   -6.1230   -7.2387   10.1489 N   0  0  0  0  0  0  0  0  0  0  0  0
   -6.5994   -7.5601   11.3364 C   0  0  0  0  0  0  0  0  0  0  0  0
   -7.7370   -8.2971   11.4162 N   0  0  0  0  0  0  0  0  0  0  0  0
   -5.9808   -7.1602   12.4868 N   0  0  0  0  0  0  0  0  0  0  0  0
   -8.1327  -13.6960   10.3448 C   0  0  0  0  0  0  0  0  0  0  0  0
  -11.8147  -12.6037    8.4738 O   0  0  0  0  0  0  0  0  0  0  0  0
   -8.1222  -13.0170    9.0923 C   0  0  0  0  0  0  0  0  0  0  0  0
   -9.3480  -12.6475    8.4766 C   0  0  0  0  0  0  0  0  0  0  0  0
  -10.5823  -12.9732    9.0977 C   0  0  0  0  0  0  0  0  0  0  0  0
  -10.5941  -13.6676   10.3373 C   0  0  0  0  0  0  0  0  0  0  0  0
   -9.3702  -14.0361   10.9587 C   0  0  0  0  0  0  0  0  0  0  0  0
  -11.8306  -11.1919    8.2431 C   0  0  0  0  0  0  0  0  0  0  0  0
  1  4  1  0  0  0  0
  2  3  1  0  0  0  0
  3  5  1  0  0  0  0
  4  6  1  0  0  0  0
  5  8  1  0  0  0  0
  6  7  1  0  0  0  0
  7 10  1  0  0  0  0
  8  9  1  0  0  0  0
  9 12  1  0  0  0  0
  9 13  1  0  0  0  0
 10 11  1  0  0  0  0
 11 14  1  0  0  0  0
 14 15  1  0  0  0  0
 15 16  1  0  0  0  0
 15 17  1  0  0  0  0
 18  2  1  0  0  0  0
 18 20  2  0  0  0  0
 18 24  1  0  0  0  0
 19 25  1  0  0  0  0
 20  1  1  0  0  0  0
 20 21  1  0  0  0  0
 21 22  2  0  0  0  0
 22 19  1  0  0  0  0
 22 23  1  0  0  0  0
 23 24  2  0  0  0  0
M  END
>  <CHROM.1>
59.17536852,-125.73211978,48.99823227,64.42547701,140.59919396,89.77578755
144.29164855,111.55206530,33.16148647,174.85328331,-58.61503415,102.35100927
-105.84236873,-27.55020982,156.93239921,135.96876562,-155.63654773,-56.17347538
-7.37945511,-11.05277345,10.33437305,2.63362190,0.72932724,2.70613180

>  <Name>
1uud_lig

>  <RI>
0

>  <Rbt.Current_Directory>
/home/itssahil/PROJECTS/Mol_Feturizer/New_Systems/rnas/1uud

>  <Rbt.Executable>
rbdock ($Id: //depot/dev/client3/rdock/2013.1/src/exe/rbdock.cxx#4 $)

>  <Rbt.Library>
libRbt.so (2013.1, Build901 2013/11/27)

>  <Rbt.Parameter_File>
/export/apps/rDock/src/rDock_2013.1_src/data/scripts/dock_solv.prm

>  <Rbt.Receptor>
prm/blind_docking_60.prm

>  <SCORE>
-24.0746

>  <SCORE.INTER>
-21.3648

>  <SCORE.INTER.CONST>
1

>  <SCORE.INTER.POLAR>
-3.47115

>  <SCORE.INTER.ROT>
18

>  <SCORE.INTER.SOLV>
9.23211

>  <SCORE.INTER.VDW>
-21.3501

>  <SCORE.INTER.norm>
-0.854593

>  <SCORE.INTRA>
-3.3649

>  <SCORE.INTRA.DIHEDRAL>
-0.478238

>  <SCORE.INTRA.DIHEDRAL.0>
30.6762

>  <SCORE.INTRA.POLAR>
-0.63256

>  <SCORE.INTRA.POLAR.0>
-0.0288659

>  <SCORE.INTRA.REPUL>
0

>  <SCORE.INTRA.REPUL.0>
0

>  <SCORE.INTRA.SOLV>
4.18736

>  <SCORE.INTRA.SOLV.lig_0>
-25.2195

>  <SCORE.INTRA.VDW>
-3.06876

>  <SCORE.INTRA.VDW.0>
4.14263

>  <SCORE.INTRA.norm>
-0.134596

>  <SCORE.RESTR>
0.655177

>  <SCORE.RESTR.CAVITY>
0.655177

>  <SCORE.RESTR.norm>
0.0262071

>  <SCORE.SYSTEM>
0

>  <SCORE.SYSTEM.CONST>
0

>  <SCORE.SYSTEM.DIHEDRAL>
0

>  <SCORE.SYSTEM.SOLV>
0

>  <SCORE.SYSTEM.norm>
0

>  <SCORE.heavy>
25

>  <SCORE.norm>
-0.962982

>  <RMSD>
14.899

$$$$
1uud_lig
 OpenBabel11021811413D
libRbt.so/2013.1/901 2013/11/27
 25 25  0  0  0  0  0  0  0  0999 V2000
   -7.7741  -13.4283    8.1782 C   0  0  0  0  0  0  0  0  0  0  0  0
   -8.0990  -14.5325   10.8759 O   0  0  0  0  0  0  0  0  0  0  0  0
   -7.1781  -13.5730   11.4160 C   0  0  0  0  0  0  0  0  0  0  0  0
   -7.4426  -12.1251    7.5504 N   0  0  0  0  0  0  0  0  0  0  0  0
   -6.3420  -14.2121   12.5329 C   0  0  0  0  0  0  0  0  0  0  0  0
   -6.5851  -11.3321    8.4628 C   0  0  0  0  0  0  0  0  0  0  0  0
   -6.4931   -9.8882    7.9544 C   0  0  0  0  0  0  0  0  0  0  0  0
   -5.1179  -13.7418   12.4996 N   0  0  0  0  0  0  0  0  0  0  0  0
   -4.8762  -12.4611   12.2919 C   0  0  0  0  0  0  0  0  0  0  0  0
   -5.3593   -9.1525    8.6769 C   0  0  0  0  0  0  0  0  0  0  0  0
   -5.5849   -9.2246   10.1899 C   0  0  0  0  0  0  0  0  0  0  0  0
   -3.9942  -12.0466   11.3322 N   0  0  0  0  0  0  0  0  0  0  0  0
   -5.5169  -11.5338   13.0495 N   0  0  0  0  0  0  0  0  0  0  0  0
   -6.6777   -8.5724   10.5088 N   0  0  0  0  0  0  0  0  0  0  0  0
   -6.7263   -7.7839   11.5654 C   0  0  0  0  0  0  0  0  0  0  0  0
   -7.7662   -7.8997   12.4307 N   0  0  0  0  0  0  0  0  0  0  0  0
   -5.7607   -6.8474   11.8034 N   0  0  0  0  0  0  0  0  0  0  0  0
   -9.2122  -13.8609   10.2723 C   0  0  0  0  0  0  0  0  0  0  0  0
  -12.5285  -11.8246    8.5100 O   0  0  0  0  0  0  0  0  0  0  0  0
   -9.0952  -13.3054    8.9655 C   0  0  0  0  0  0  0  0  0  0  0  0
  -10.1970  -12.6215    8.3854 C   0  0  0  0  0  0  0  0  0  0  0  0
  -11.4199  -12.5100    9.0979 C   0  0  0  0  0  0  0  0  0  0  0  0
  -11.5437  -13.0806   10.3933 C   0  0  0  0  0  0  0  0  0  0  0  0
  -10.4429  -13.7627   10.9790 C   0  0  0  0  0  0  0  0  0  0  0  0
  -12.4470  -10.4297    8.8169 C   0  0  0  0  0  0  0  0  0  0  0  0
  1  4  1  0  0  0  0
  2  3  1  0  0  0  0
  3  5  1  0  0  0  0
  4  6  1  0  0  0  0
  5  8  1  0  0  0  0
  6  7  1  0  0  0  0
  7 10  1  0  0  0  0
  8  9  1  0  0  0  0
  9 12  1  0  0  0  0
  9 13  1  0  0  0  0
 10 11  1  0  0  0  0
 11 14  1  0  0  0  0
 14 15  1  0  0  0  0
 15 16  1  0  0  0  0
 15 17  1  0  0  0  0
 18  2  1  0  0  0  0
 18 20  2  0  0  0  0
 18 24  1  0  0  0  0
 19 25  1  0  0  0  0
 20  1  1  0  0  0  0
 20 21  1  0  0  0  0
 21 22  2  0  0  0  0
 22 19  1  0  0  0  0
 22 23  1  0  0  0  0
 23 24  2  0  0  0  0
M  END
>  <CHROM.1>
91.58193839,156.15429414,143.70661456,-167.94747497,41.85569106,-166.38875392
-56.10467781,-128.76010579,37.92474673,59.90192885,-64.87758498,-137.49070983
-131.74450341,-137.91675202,-38.46616536,79.93034289,-135.39523254,-87.74736053
-7.70198950,-11.52379329,10.29807132,-2.73181868,-0.46848663,-0.16402309

>  <Name>
1uud_lig

>  <RI>
0

>  <Rbt.Current_Directory>
/home/itssahil/PROJECTS/Mol_Feturizer/New_Systems/rnas/1uud

>  <Rbt.Executable>
rbdock ($Id: //depot/dev/client3/rdock/2013.1/src/exe/rbdock.cxx#4 $)

>  <Rbt.Library>
libRbt.so (2013.1, Build901 2013/11/27)

>  <Rbt.Parameter_File>
/export/apps/rDock/src/rDock_2013.1_src/data/scripts/dock_solv.prm

>  <Rbt.Receptor>
prm/blind_docking_60.prm

>  <SCORE>
-23.0646

>  <SCORE.INTER>
-23.0876

>  <SCORE.INTER.CONST>
1

>  <SCORE.INTER.POLAR>
-4.30579

>  <SCORE.INTER.ROT>
18

>  <SCORE.INTER.SOLV>
10.6171

>  <SCORE.INTER.VDW>
-20.1781

>  <SCORE.INTER.norm>
-0.923504

>  <SCORE.INTRA>
-1.77065

>  <SCORE.INTRA.DIHEDRAL>
-1.68003

>  <SCORE.INTRA.DIHEDRAL.0>
30.6762

>  <SCORE.INTRA.POLAR>
0.0288659

>  <SCORE.INTRA.POLAR.0>
-0.0288659

>  <SCORE.INTRA.REPUL>
0

>  <SCORE.INTRA.REPUL.0>
0

>  <SCORE.INTRA.SOLV>
0.150036

>  <SCORE.INTRA.SOLV.lig_0>
-25.2195

>  <SCORE.INTRA.VDW>
-1.1038

>  <SCORE.INTRA.VDW.0>
4.14263

>  <SCORE.INTRA.norm>
-0.0708259

>  <SCORE.RESTR>
1.79362

>  <SCORE.RESTR.CAVITY>
1.79362

>  <SCORE.RESTR.norm>
0.0717447

>  <SCORE.SYSTEM>
0

>  <SCORE.SYSTEM.CONST>
0

>  <SCORE.SYSTEM.DIHEDRAL>
0

>  <SCORE.SYSTEM.SOLV>
0

>  <SCORE.SYSTEM.norm>
0

>  <SCORE.heavy>
25

>  <SCORE.norm>
-0.922585

>  <RMSD>
14.899

$$$$
1uud_lig
 OpenBabel11021811413D
libRbt.so/2013.1/901 2013/11/27
 25 25  0  0  0  0  0  0  0  0999 V2000
   -6.3193  -13.2104   11.0058 C   0  0  0  0  0  0  0  0  0  0  0  0
   -5.8739  -10.8493    9.3238 O   0  0  0  0  0  0  0  0  0  0  0  0
   -5.8501   -9.7373    8.4166 C   0  0  0  0  0  0  0  0  0  0  0  0
   -5.4113  -12.1541   11.5174 N   0  0  0  0  0  0  0  0  0  0  0  0
   -4.9814   -8.6077    8.9863 C   0  0  0  0  0  0  0  0  0  0  0  0
   -4.1414  -12.7637   11.9783 C   0  0  0  0  0  0  0  0  0  0  0  0
   -3.1397  -11.6574   12.3308 C   0  0  0  0  0  0  0  0  0  0  0  0
   -5.3931   -8.2917   10.1910 N   0  0  0  0  0  0  0  0  0  0  0  0
   -6.4478   -7.5209   10.3798 C   0  0  0  0  0  0  0  0  0  0  0  0
   -3.7181  -10.7621   13.4319 C   0  0  0  0  0  0  0  0  0  0  0  0
   -3.0532   -9.3838   13.3727 C   0  0  0  0  0  0  0  0  0  0  0  0
   -7.3413   -7.7659   11.3859 N   0  0  0  0  0  0  0  0  0  0  0  0
   -6.6509   -6.4611    9.5552 N   0  0  0  0  0  0  0  0  0  0  0  0
   -3.7245   -8.5333   14.1125 N   0  0  0  0  0  0  0  0  0  0  0  0
   -4.6758   -7.7757   13.6008 C   0  0  0  0  0  0  0  0  0  0  0  0
   -5.9741   -8.0805   13.8559 N   0  0  0  0  0  0  0  0  0  0  0  0
   -4.3851   -6.6986   12.8125 N   0  0  0  0  0  0  0  0  0  0  0  0
   -7.1887  -11.4179    9.3713 C   0  0  0  0  0  0  0  0  0  0  0  0
  -11.1047  -13.1230    9.4635 O   0  0  0  0  0  0  0  0  0  0  0  0
   -7.4470  -12.5681   10.1716 C   0  0  0  0  0  0  0  0  0  0  0  0
   -8.7482  -13.1380   10.1937 C   0  0  0  0  0  0  0  0  0  0  0  0
   -9.7950  -12.5498    9.4363 C   0  0  0  0  0  0  0  0  0  0  0  0
   -9.5431  -11.3912    8.6532 C   0  0  0  0  0  0  0  0  0  0  0  0
   -8.2420  -10.8198    8.6253 C   0  0  0  0  0  0  0  0  0  0  0  0
  -11.0286  -14.5088    9.1165 C   0  0  0  0  0  0  0  0  0  0  0  0
  1  4  1  0  0  0  0
  2  3  1  0  0  0  0
  3  5  1  0  0  0  0
  4  6  1  0  0  0  0
  5  8  1  0  0  0  0
  6  7  1  0  0  0  0
  7 10  1  0  0  0  0
  8  9  1  0  0  0  0
  9 12  1  0  0  0  0
  9 13  1  0  0  0  0
 10 11  1  0  0  0  0
 11 14  1  0  0  0  0
 14 15  1  0  0  0  0
 15 16  1  0  0  0  0
 15 17  1  0  0  0  0
 18  2  1  0  0  0  0
 18 20  2  0  0  0  0
 18 24  1  0  0  0  0
 19 25  1  0  0  0  0
 20  1  1  0  0  0  0
 20 21  1  0  0  0  0
 21 22  2  0  0  0  0
 22 19  1  0  0  0  0
 22 23  1  0  0  0  0
 23 24  2  0  0  0  0
M  END
>  <CHROM.1>
-163.99946788,140.52653966,-54.16897350,172.54944755,-79.40275811,59.18842266
-156.10621877,140.92898563,131.83598804,3.13373355,166.91958420,-92.95255080
105.17397862,-122.87671558,52.93988857,177.78128829,35.18232196,-54.13683042
-6.37797333,-10.31639386,10.89739540,-2.60250138,-0.67632359,-0.15927365

>  <Name>
1uud_lig

>  <RI>
0

>  <Rbt.Current_Directory>
/home/itssahil/PROJECTS/Mol_Feturizer/New_Systems/rnas/1uud

>  <Rbt.Executable>
rbdock ($Id: //depot/dev/client3/rdock/2013.1/src/exe/rbdock.cxx#4 $)

>  <Rbt.Library>
libRbt.so (2013.1, Build901 2013/11/27)

>  <Rbt.Parameter_File>
/export/apps/rDock/src/rDock_2013.1_src/data/scripts/dock_solv.prm

>  <Rbt.Receptor>
prm/blind_docking_20.prm

>  <SCORE>
-30.5624

>  <SCORE.INTER>
-21.3763

>  <SCORE.INTER.CONST>
1

>  <SCORE.INTER.POLAR>
-3.2863

>  <SCORE.INTER.ROT>
18

>  <SCORE.INTER.SOLV>
9.11534

>  <SCORE.INTER.VDW>
-21.935

>  <SCORE.INTER.norm>
-0.855053

>  <SCORE.INTRA>
-9.89537

>  <SCORE.INTRA.DIHEDRAL>
-8.33382

>  <SCORE.INTRA.DIHEDRAL.0>
30.6762

>  <SCORE.INTRA.POLAR>
-1.71994

>  <SCORE.INTRA.POLAR.0>
-0.0288659

>  <SCORE.INTRA.REPUL>
0

>  <SCORE.INTRA.REPUL.0>
0

>  <SCORE.INTRA.SOLV>
3.26295

>  <SCORE.INTRA.SOLV.lig_0>
-25.2195

>  <SCORE.INTRA.VDW>
-1.51215

>  <SCORE.INTRA.VDW.0>
4.14263

>  <SCORE.INTRA.norm>
-0.395815

>  <SCORE.RESTR>
0.709248

>  <SCORE.RESTR.CAVITY>
0.709248

>  <SCORE.RESTR.norm>
0.0283699

>  <SCORE.SYSTEM>
0

>  <SCORE.SYSTEM.CONST>
0

>  <SCORE.SYSTEM.DIHEDRAL>
0

>  <SCORE.SYSTEM.SOLV>
0

>  <SCORE.SYSTEM.norm>
0

>  <SCORE.heavy>
25

>  <SCORE.norm>
-1.2225

>  <RMSD>
14.906

$$$$
1uud_lig
 OpenBabel11021811413D
libRbt.so/2013.1/901 2013/11/27
 25 25  0  0  0  0  0  0  0  0999 V2000
   -7.1899  -11.0678    8.4236 C   0  0  0  0  0  0  0  0  0  0  0  0
   -5.7872  -11.6074   10.9423 O   0  0  0  0  0  0  0  0  0  0  0  0
   -4.4936  -12.1656   10.6678 C   0  0  0  0  0  0  0  0  0  0  0  0
   -8.4462  -10.5578    7.8205 N   0  0  0  0  0  0  0  0  0  0  0  0
   -4.5129  -13.6833   10.8945 C   0  0  0  0  0  0  0  0  0  0  0  0
   -9.5238  -11.5629    7.9801 C   0  0  0  0  0  0  0  0  0  0  0  0
  -10.6901  -10.9448    8.7607 C   0  0  0  0  0  0  0  0  0  0  0  0
   -5.0261  -13.9528   12.0712 N   0  0  0  0  0  0  0  0  0  0  0  0
   -6.3296  -14.0618   12.2470 C   0  0  0  0  0  0  0  0  0  0  0  0
  -11.9834  -11.7089    8.4572 C   0  0  0  0  0  0  0  0  0  0  0  0
  -12.0862  -12.9274    9.3792 C   0  0  0  0  0  0  0  0  0  0  0  0
   -6.8594  -14.4422   13.4493 N   0  0  0  0  0  0  0  0  0  0  0  0
   -7.1637  -13.7914   11.2100 N   0  0  0  0  0  0  0  0  0  0  0  0
  -11.2323  -13.8477    8.9979 N   0  0  0  0  0  0  0  0  0  0  0  0
  -10.2206  -14.2090    9.7636 C   0  0  0  0  0  0  0  0  0  0  0  0
   -9.1979  -14.9170    9.2192 N   0  0  0  0  0  0  0  0  0  0  0  0
  -10.1831  -13.8964   11.0929 N   0  0  0  0  0  0  0  0  0  0  0  0
   -5.8505  -10.2556   10.4698 C   0  0  0  0  0  0  0  0  0  0  0  0
   -5.9889   -6.2262    9.0575 O   0  0  0  0  0  0  0  0  0  0  0  0
   -6.5176   -9.9507    9.2483 C   0  0  0  0  0  0  0  0  0  0  0  0
   -6.5547   -8.6110    8.7769 C   0  0  0  0  0  0  0  0  0  0  0  0
   -5.9465   -7.5743    9.5323 C   0  0  0  0  0  0  0  0  0  0  0  0
   -5.2979   -7.8746   10.7603 C   0  0  0  0  0  0  0  0  0  0  0  0
   -5.2552   -9.2139   11.2340 C   0  0  0  0  0  0  0  0  0  0  0  0
   -7.2849   -5.9481    8.5194 C   0  0  0  0  0  0  0  0  0  0  0  0
  1  4  1  0  0  0  0
  2  3  1  0  0  0  0
  3  5  1  0  0  0  0
  4  6  1  0  0  0  0
  5  8  1  0  0  0  0
  6  7  1  0  0  0  0
  7 10  1  0  0  0  0
  8  9  1  0  0  0  0
  9 12  1  0  0  0  0
  9 13  1  0  0  0  0
 10 11  1  0  0  0  0
 11 14  1  0  0  0  0
 14 15  1  0  0  0  0
 15 16  1  0  0  0  0
 15 17  1  0  0  0  0
 18  2  1  0  0  0  0
 18 20  2  0  0  0  0
 18 24  1  0  0  0  0
 19 25  1  0  0  0  0
 20  1  1  0  0  0  0
 20 21  1  0  0  0  0
 21 22  2  0  0  0  0
 22 19  1  0  0  0  0
 22 23  1  0  0  0  0
 23 24  2  0  0  0  0
M  END
>  <CHROM.1>
-135.89489026,-168.01263231,-50.47154079,121.42027922,85.40104421,157.13538086
85.02603380,174.95997551,-36.66312044,-74.83608793,-73.25936952,114.96564791
-164.59978186,-98.25017128,38.81060421,101.94658354,142.92259476,41.28271169
-7.62709514,-11.47477672,9.97057945,0.98092239,-0.43382008,-0.39237049

>  <Name>
1uud_lig

>  <RI>
0

>  <Rbt.Current_Directory>
/home/itssahil/PROJECTS/Mol_Feturizer/New_Systems/rnas/1uud

>  <Rbt.Executable>
rbdock ($Id: //depot/dev/client3/rdock/2013.1/src/exe/rbdock.cxx#4 $)

>  <Rbt.Library>
libRbt.so (2013.1, Build901 2013/11/27)

>  <Rbt.Parameter_File>
/export/apps/rDock/src/rDock_2013.1_src/data/scripts/dock_solv.prm

>  <Rbt.Receptor>
prm/blind_docking_100.prm

>  <SCORE>
-25.1801

>  <SCORE.INTER>
-19.758

>  <SCORE.INTER.CONST>
1

>  <SCORE.INTER.POLAR>
-3.1892

>  <SCORE.INTER.ROT>
18

>  <SCORE.INTER.SOLV>
8.26211

>  <SCORE.INTER.VDW>
-20.8954

>  <SCORE.INTER.norm>
-0.790319

>  <SCORE.INTRA>
-5.92592

>  <SCORE.INTRA.DIHEDRAL>
-1.32177

>  <SCORE.INTRA.DIHEDRAL.0>
30.6762

>  <SCORE.INTRA.POLAR>
-1.51374

>  <SCORE.INTRA.POLAR.0>
-0.0288659

>  <SCORE.INTRA.REPUL>
0

>  <SCORE.INTRA.REPUL.0>
0

>  <SCORE.INTRA.SOLV>
2.68522

>  <SCORE.INTRA.SOLV.lig_0>
-25.2195

>  <SCORE.INTRA.VDW>
-1.46092

>  <SCORE.INTRA.VDW.0>
4.14263

>  <SCORE.INTRA.norm>
-0.237037

>  <SCORE.RESTR>
0.503799

>  <SCORE.RESTR.CAVITY>
0.503799

>  <SCORE.RESTR.norm>
0.020152

>  <SCORE.SYSTEM>
0

>  <SCORE.SYSTEM.CONST>
0

>  <SCORE.SYSTEM.DIHEDRAL>
0

>  <SCORE.SYSTEM.SOLV>
0

>  <SCORE.SYSTEM.norm>
0

>  <SCORE.heavy>
25

>  <SCORE.norm>
-1.0072

>  <RMSD>
14.914

$$$$
1uud_lig
 OpenBabel11021811413D
libRbt.so/2013.1/901 2013/11/27
 25 25  0  0  0  0  0  0  0  0999 V2000
   -6.6278  -11.9154    7.8023 C   0  0  0  0  0  0  0  0  0  0  0  0
   -9.0346  -13.1542    8.9314 O   0  0  0  0  0  0  0  0  0  0  0  0
   -9.6825  -11.8839    9.0955 C   0  0  0  0  0  0  0  0  0  0  0  0
   -5.9908  -10.5796    7.9120 N   0  0  0  0  0  0  0  0  0  0  0  0
  -11.1340  -11.9624    8.6034 C   0  0  0  0  0  0  0  0  0  0  0  0
   -6.7408   -9.7437    8.8792 C   0  0  0  0  0  0  0  0  0  0  0  0
   -6.1080   -8.3487    8.9502 C   0  0  0  0  0  0  0  0  0  0  0  0
  -11.6973  -10.7804    8.6829 N   0  0  0  0  0  0  0  0  0  0  0  0
  -12.8838  -10.6173    9.2375 C   0  0  0  0  0  0  0  0  0  0  0  0
   -4.7018   -8.4443    9.5522 C   0  0  0  0  0  0  0  0  0  0  0  0
   -4.8043   -8.8069   11.0365 C   0  0  0  0  0  0  0  0  0  0  0  0
  -13.4544  -11.5950   10.0051 N   0  0  0  0  0  0  0  0  0  0  0  0
  -13.5538   -9.4527    9.0401 N   0  0  0  0  0  0  0  0  0  0  0  0
   -3.6873   -8.4943   11.6495 N   0  0  0  0  0  0  0  0  0  0  0  0
   -3.6395   -7.5256   12.5438 C   0  0  0  0  0  0  0  0  0  0  0  0
   -4.7765   -7.1682   13.1942 N   0  0  0  0  0  0  0  0  0  0  0  0
   -2.4755   -6.8673   12.8228 N   0  0  0  0  0  0  0  0  0  0  0  0
   -7.8227  -13.1911    9.6957 C   0  0  0  0  0  0  0  0  0  0  0  0
   -4.2106  -13.3518   11.9712 O   0  0  0  0  0  0  0  0  0  0  0  0
   -6.6296  -12.6059    9.1819 C   0  0  0  0  0  0  0  0  0  0  0  0
   -5.4279  -12.6683    9.9371 C   0  0  0  0  0  0  0  0  0  0  0  0
   -5.4205  -13.2940   11.2114 C   0  0  0  0  0  0  0  0  0  0  0  0
   -6.6145  -13.8608   11.7332 C   0  0  0  0  0  0  0  0  0  0  0  0
   -7.8182  -13.8038   10.9796 C   0  0  0  0  0  0  0  0  0  0  0  0
   -3.9017  -12.0510   12.4799 C   0  0  0  0  0  0  0  0  0  0  0  0
  1  4  1  0  0  0  0
  2  3  1  0  0  0  0
  3  5  1  0  0  0  0
  4  6  1  0  0  0  0
  5  8  1  0  0  0  0
  6  7  1  0  0  0  0
  7 10  1  0  0  0  0
  8  9  1  0  0  0  0
  9 12  1  0  0  0  0
  9 13  1  0  0  0  0
 10 11  1  0  0  0  0
 11 14  1  0  0  0  0
 14 15  1  0  0  0  0
 15 16  1  0  0  0  0
 15 17  1  0  0  0  0
 18  2  1  0  0  0  0
 18 20  2  0  0  0  0
 18 24  1  0  0  0  0
 19 25  1  0  0  0  0
 20  1  1  0  0  0  0
 20 21  1  0  0  0  0
 21 22  2  0  0  0  0
 22 19  1  0  0  0  0
 22 23  1  0  0  0  0
 23 24  2  0  0  0  0
M  END
>  <CHROM.1>
-59.76808431,-164.86063143,-176.33469067,-177.97619854,-131.51022377,-66.25295312
-69.40576839,14.34009307,99.29491408,123.31652704,-160.63593807,112.22320922
23.76269299,-131.88552874,-79.44838532,-81.63998589,130.92161058,72.33924959
-7.16989405,-10.80811960,10.21812042,-2.83025784,-0.31010259,0.08292183

>  <Name>
1uud_lig

>  <RI>
0

>  <Rbt.Current_Directory>
/home/itssahil/PROJECTS/Mol_Feturizer/New_Systems/rnas/1uud

>  <Rbt.Executable>
rbdock ($Id: //depot/dev/client3/rdock/2013.1/src/exe/rbdock.cxx#4 $)

>  <Rbt.Library>
libRbt.so (2013.1, Build901 2013/11/27)

>  <Rbt.Parameter_File>
/export/apps/rDock/src/rDock_2013.1_src/data/scripts/dock_solv.prm

>  <Rbt.Receptor>
prm/blind_docking_60.prm

>  <SCORE>
-32.7423

>  <SCORE.INTER>
-24.5124

>  <SCORE.INTER.CONST>
1

>  <SCORE.INTER.POLAR>
-3.27729

>  <SCORE.INTER.ROT>
18

>  <SCORE.INTER.SOLV>
12.4147

>  <SCORE.INTER.VDW>
-25.1555

>  <SCORE.INTER.norm>
-0.980497

>  <SCORE.INTRA>
-8.26357

>  <SCORE.INTRA.DIHEDRAL>
-8.32974

>  <SCORE.INTRA.DIHEDRAL.0>
30.6762

>  <SCORE.INTRA.POLAR>
0.0288659

>  <SCORE.INTRA.POLAR.0>
-0.0288659

>  <SCORE.INTRA.REPUL>
0

>  <SCORE.INTRA.REPUL.0>
0

>  <SCORE.INTRA.SOLV>
-1.13081

>  <SCORE.INTRA.SOLV.lig_0>
-25.2195

>  <SCORE.INTRA.VDW>
-3.63145

>  <SCORE.INTRA.VDW.0>
4.14263

>  <SCORE.INTRA.norm>
-0.330543

>  <SCORE.RESTR>
0.0336636

>  <SCORE.RESTR.CAVITY>
0.0336636

>  <SCORE.RESTR.norm>
0.00134654

>  <SCORE.SYSTEM>
0

>  <SCORE.SYSTEM.CONST>
0

>  <SCORE.SYSTEM.DIHEDRAL>
0

>  <SCORE.SYSTEM.SOLV>
0

>  <SCORE.SYSTEM.norm>
0

>  <SCORE.heavy>
25

>  <SCORE.norm>
-1.30969

>  <RMSD>
14.916

$$$$
1uud_lig
 OpenBabel11021811413D
libRbt.so/2013.1/901 2013/11/27
 25 25  0  0  0  0  0  0  0  0999 V2000
   -5.7000  -12.2299    7.8787 C   0  0  0  0  0  0  0  0  0  0  0  0
   -6.6747   -9.6269    8.8151 O   0  0  0  0  0  0  0  0  0  0  0  0
   -6.2718   -8.2745    9.0779 C   0  0  0  0  0  0  0  0  0  0  0  0
   -6.9812  -12.9478    7.6658 N   0  0  0  0  0  0  0  0  0  0  0  0
   -6.9511   -7.3180    8.0886 C   0  0  0  0  0  0  0  0  0  0  0  0
   -8.1177  -12.0534    7.9900 C   0  0  0  0  0  0  0  0  0  0  0  0
   -8.8546  -12.5872    9.2243 C   0  0  0  0  0  0  0  0  0  0  0  0
   -6.6678   -6.0760    8.4018 N   0  0  0  0  0  0  0  0  0  0  0  0
   -5.9478   -5.3102    7.6037 C   0  0  0  0  0  0  0  0  0  0  0  0
   -9.8646  -13.6608    8.8046 C   0  0  0  0  0  0  0  0  0  0  0  0
  -10.3629  -14.4076   10.0452 C   0  0  0  0  0  0  0  0  0  0  0  0
   -4.6223   -5.5603    7.3777 N   0  0  0  0  0  0  0  0  0  0  0  0
   -6.5363   -4.2489    6.9942 N   0  0  0  0  0  0  0  0  0  0  0  0
   -9.3622  -15.0293   10.6226 N   0  0  0  0  0  0  0  0  0  0  0  0
   -8.6639  -14.4633   11.5883 C   0  0  0  0  0  0  0  0  0  0  0  0
   -9.1266  -14.5243   12.8634 N   0  0  0  0  0  0  0  0  0  0  0  0
   -7.4922  -13.8089   11.3336 N   0  0  0  0  0  0  0  0  0  0  0  0
   -6.0707  -10.5140    9.7652 C   0  0  0  0  0  0  0  0  0  0  0  0
   -4.3144  -13.1605   12.6221 O   0  0  0  0  0  0  0  0  0  0  0  0
   -5.5888  -11.7900    9.3533 C   0  0  0  0  0  0  0  0  0  0  0  0
   -5.0129  -12.6713   10.3071 C   0  0  0  0  0  0  0  0  0  0  0  0
   -4.8982  -12.2731   11.6649 C   0  0  0  0  0  0  0  0  0  0  0  0
   -5.3607  -10.9931   12.0730 C   0  0  0  0  0  0  0  0  0  0  0  0
   -5.9408  -10.1095   11.1228 C   0  0  0  0  0  0  0  0  0  0  0  0
   -5.3341  -13.9818   13.1984 C   0  0  0  0  0  0  0  0  0  0  0  0
  1  4  1  0  0  0  0
  2  3  1  0  0  0  0
  3  5  1  0  0  0  0
  4  6  1  0  0  0  0
  5  8  1  0  0  0  0
  6  7  1  0  0  0  0
  7 10  1  0  0  0  0
  8  9  1  0  0  0  0
  9 12  1  0  0  0  0
  9 13  1  0  0  0  0
 10 11  1  0  0  0  0
 11 14  1  0  0  0  0
 14 15  1  0  0  0  0
 15 16  1  0  0  0  0
 15 17  1  0  0  0  0
 18  2  1  0  0  0  0
 18 20  2  0  0  0  0
 18 24  1  0  0  0  0
 19 25  1  0  0  0  0
 20  1  1  0  0  0  0
 20 21  1  0  0  0  0
 21 22  2  0  0  0  0
 22 19  1  0  0  0  0
 22 23  1  0  0  0  0
 23 24  2  0  0  0  0
M  END
>  <CHROM.1>
60.20718140,-178.27252427,174.79194218,-113.56737716,114.46356240,-84.10468670
167.27955920,-67.63942892,-141.90338773,-176.66145715,-62.84495841,92.43909273
83.82156408,-162.15488637,-43.37442831,-140.81326002,-90.81604904,-89.95972667
-6.84874387,-11.08859413,9.76495197,1.83061642,0.60846371,2.58863426

>  <Name>
1uud_lig

>  <RI>
0

>  <Rbt.Current_Directory>
/home/itssahil/PROJECTS/Mol_Feturizer/New_Systems/rnas/1uud

>  <Rbt.Executable>
rbdock ($Id: //depot/dev/client3/rdock/2013.1/src/exe/rbdock.cxx#4 $)

>  <Rbt.Library>
libRbt.so (2013.1, Build901 2013/11/27)

>  <Rbt.Parameter_File>
/export/apps/rDock/src/rDock_2013.1_src/data/scripts/dock_solv.prm

>  <Rbt.Receptor>
prm/blind_docking_100.prm

>  <SCORE>
-34.1057

>  <SCORE.INTER>
-32.5364

>  <SCORE.INTER.CONST>
1

>  <SCORE.INTER.POLAR>
-5.74088

>  <SCORE.INTER.ROT>
18

>  <SCORE.INTER.SOLV>
10.1456

>  <SCORE.INTER.VDW>
-21.5365

>  <SCORE.INTER.norm>
-1.30146

>  <SCORE.INTRA>
-5.93977

>  <SCORE.INTRA.DIHEDRAL>
-7.39394

>  <SCORE.INTRA.DIHEDRAL.0>
30.6762

>  <SCORE.INTRA.POLAR>
0.0288659

>  <SCORE.INTRA.POLAR.0>
-0.0288659

>  <SCORE.INTRA.REPUL>
0

>  <SCORE.INTRA.REPUL.0>
0

>  <SCORE.INTRA.SOLV>
1.18728

>  <SCORE.INTRA.SOLV.lig_0>
-25.2195

>  <SCORE.INTRA.VDW>
-2.93459

>  <SCORE.INTRA.VDW.0>
4.14263

>  <SCORE.INTRA.norm>
-0.237591

>  <SCORE.RESTR>
4.37049

>  <SCORE.RESTR.CAVITY>
4.37049

>  <SCORE.RESTR.norm>
0.17482

>  <SCORE.SYSTEM>
0

>  <SCORE.SYSTEM.CONST>
0

>  <SCORE.SYSTEM.DIHEDRAL>
0

>  <SCORE.SYSTEM.SOLV>
0

>  <SCORE.SYSTEM.norm>
0

>  <SCORE.heavy>
25

>  <SCORE.norm>
-1.36423

>  <RMSD>
14.928

$$$$
1uud_lig
 OpenBabel11021811413D
libRbt.so/2013.1/901 2013/11/27
 25 25  0  0  0  0  0  0  0  0999 V2000
   -6.9301  -12.7750    8.4114 C   0  0  0  0  0  0  0  0  0  0  0  0
   -9.6946  -13.2726    9.2555 O   0  0  0  0  0  0  0  0  0  0  0  0
  -10.8242  -14.0777    9.6245 C   0  0  0  0  0  0  0  0  0  0  0  0
   -7.8763  -11.7317    7.9444 N   0  0  0  0  0  0  0  0  0  0  0  0
  -12.1295  -13.3412    9.2948 C   0  0  0  0  0  0  0  0  0  0  0  0
   -7.7350  -10.5156    8.7797 C   0  0  0  0  0  0  0  0  0  0  0  0
   -6.3817   -9.8527    8.4957 C   0  0  0  0  0  0  0  0  0  0  0  0
  -12.0307  -12.7596    8.1231 N   0  0  0  0  0  0  0  0  0  0  0  0
  -11.5248  -11.5473    7.9950 C   0  0  0  0  0  0  0  0  0  0  0  0
   -6.3281   -8.4721    9.1590 C   0  0  0  0  0  0  0  0  0  0  0  0
   -5.3120   -7.5914    8.4261 C   0  0  0  0  0  0  0  0  0  0  0  0
  -10.9836  -10.8824    9.0607 N   0  0  0  0  0  0  0  0  0  0  0  0
  -11.5434  -10.9461    6.7775 N   0  0  0  0  0  0  0  0  0  0  0  0
   -5.6967   -6.3379    8.4685 N   0  0  0  0  0  0  0  0  0  0  0  0
   -6.9728   -6.0104    8.5387 C   0  0  0  0  0  0  0  0  0  0  0  0
   -7.5999   -6.0443    9.7426 N   0  0  0  0  0  0  0  0  0  0  0  0
   -7.6798   -5.6481    7.4275 N   0  0  0  0  0  0  0  0  0  0  0  0
   -8.6462  -13.4231   10.2213 C   0  0  0  0  0  0  0  0  0  0  0  0
   -5.5331  -13.9205   13.1042 O   0  0  0  0  0  0  0  0  0  0  0  0
   -7.2891  -13.1961    9.8516 C   0  0  0  0  0  0  0  0  0  0  0  0
   -6.2552  -13.3705   10.8102 C   0  0  0  0  0  0  0  0  0  0  0  0
   -6.5753  -13.7497   12.1403 C   0  0  0  0  0  0  0  0  0  0  0  0
   -7.9301  -13.9573   12.5150 C   0  0  0  0  0  0  0  0  0  0  0  0
   -8.9674  -13.7874   11.5583 C   0  0  0  0  0  0  0  0  0  0  0  0
   -4.6344  -12.8093   13.0403 C   0  0  0  0  0  0  0  0  0  0  0  0
  1  4  1  0  0  0  0
  2  3  1  0  0  0  0
  3  5  1  0  0  0  0
  4  6  1  0  0  0  0
  5  8  1  0  0  0  0
  6  7  1  0  0  0  0
  7 10  1  0  0  0  0
  8  9  1  0  0  0  0
  9 12  1  0  0  0  0
  9 13  1  0  0  0  0
 10 11  1  0  0  0  0
 11 14  1  0  0  0  0
 14 15  1  0  0  0  0
 15 16  1  0  0  0  0
 15 17  1  0  0  0  0
 18  2  1  0  0  0  0
 18 20  2  0  0  0  0
 18 24  1  0  0  0  0
 19 25  1  0  0  0  0
 20  1  1  0  0  0  0
 20 21  1  0  0  0  0
 21 22  2  0  0  0  0
 22 19  1  0  0  0  0
 22 23  1  0  0  0  0
 23 24  2  0  0  0  0
M  END
>  <CHROM.1>
63.57066215,142.44191211,42.07136664,69.27268393,-86.96332590,169.95563997
-155.90886557,5.22589149,-105.65619274,46.66294763,147.90003216,-28.93439294
81.13700830,23.65672111,63.91658685,154.59513776,43.87135975,46.86984053
-8.15026066,-11.11317100,9.49801772,-1.88011592,-0.48695695,-0.45700722

>  <Name>
1uud_lig

>  <RI>
0

>  <Rbt.Current_Directory>
/home/itssahil/PROJECTS/Mol_Feturizer/New_Systems/rnas/1uud

>  <Rbt.Executable>
rbdock ($Id: //depot/dev/client3/rdock/2013.1/src/exe/rbdock.cxx#4 $)

>  <Rbt.Library>
libRbt.so (2013.1, Build901 2013/11/27)

>  <Rbt.Parameter_File>
/export/apps/rDock/src/rDock_2013.1_src/data/scripts/dock_solv.prm

>  <Rbt.Receptor>
prm/blind_docking_100.prm

>  <SCORE>
-18.0217

>  <SCORE.INTER>
-19.3759

>  <SCORE.INTER.CONST>
1

>  <SCORE.INTER.POLAR>
-3.59453

>  <SCORE.INTER.ROT>
18

>  <SCORE.INTER.SOLV>
11.3957

>  <SCORE.INTER.VDW>
-20.3341

>  <SCORE.INTER.norm>
-0.775036

>  <SCORE.INTRA>
0.349989

>  <SCORE.INTRA.DIHEDRAL>
-4.93974

>  <SCORE.INTRA.DIHEDRAL.0>
30.6762

>  <SCORE.INTRA.POLAR>
-0.893947

>  <SCORE.INTRA.POLAR.0>
-0.0288659

>  <SCORE.INTRA.REPUL>
0

>  <SCORE.INTRA.REPUL.0>
0

>  <SCORE.INTRA.SOLV>
1.35443

>  <SCORE.INTRA.SOLV.lig_0>
-25.2195

>  <SCORE.INTRA.VDW>
5.18207

>  <SCORE.INTRA.VDW.0>
4.14263

>  <SCORE.INTRA.norm>
0.0139996

>  <SCORE.RESTR>
1.00417

>  <SCORE.RESTR.CAVITY>
1.00417

>  <SCORE.RESTR.norm>
0.0401669

>  <SCORE.SYSTEM>
0

>  <SCORE.SYSTEM.CONST>
0

>  <SCORE.SYSTEM.DIHEDRAL>
0

>  <SCORE.SYSTEM.SOLV>
0

>  <SCORE.SYSTEM.norm>
0

>  <SCORE.heavy>
25

>  <SCORE.norm>
-0.720869

>  <RMSD>
14.932

$$$$
1uud_lig
 OpenBabel11021811413D
libRbt.so/2013.1/901 2013/11/27
 25 25  0  0  0  0  0  0  0  0999 V2000
   -3.7818  -10.4016   11.2727 C   0  0  0  0  0  0  0  0  0  0  0  0
   -5.2047  -12.0725    9.3269 O   0  0  0  0  0  0  0  0  0  0  0  0
   -6.4459  -12.7793    9.1853 C   0  0  0  0  0  0  0  0  0  0  0  0
   -3.8805   -9.6554   12.5516 N   0  0  0  0  0  0  0  0  0  0  0  0
   -7.1229  -12.9394   10.5532 C   0  0  0  0  0  0  0  0  0  0  0  0
   -3.1040  -10.3552   13.6024 C   0  0  0  0  0  0  0  0  0  0  0  0
   -1.6348   -9.9221   13.5285 C   0  0  0  0  0  0  0  0  0  0  0  0
   -6.3807  -13.6876   11.3343 N   0  0  0  0  0  0  0  0  0  0  0  0
   -5.3626  -13.1850   12.0071 C   0  0  0  0  0  0  0  0  0  0  0  0
   -1.0606   -9.7835   14.9427 C   0  0  0  0  0  0  0  0  0  0  0  0
    0.4060   -9.3506   14.8593 C   0  0  0  0  0  0  0  0  0  0  0  0
   -4.0701  -13.4046   11.6175 N   0  0  0  0  0  0  0  0  0  0  0  0
   -5.6041  -12.4336   13.1123 N   0  0  0  0  0  0  0  0  0  0  0  0
    0.6523   -8.4347   15.7657 N   0  0  0  0  0  0  0  0  0  0  0  0
    0.3865   -7.1609   15.5486 C   0  0  0  0  0  0  0  0  0  0  0  0
    1.0401   -6.2154   16.2714 N   0  0  0  0  0  0  0  0  0  0  0  0
   -0.5380   -6.7718   14.6212 N   0  0  0  0  0  0  0  0  0  0  0  0
   -5.4393  -10.6585    9.3164 C   0  0  0  0  0  0  0  0  0  0  0  0
   -6.1871   -6.4524    9.2967 O   0  0  0  0  0  0  0  0  0  0  0  0
   -4.7726   -9.8113   10.2480 C   0  0  0  0  0  0  0  0  0  0  0  0
   -5.0297   -8.4141   10.2447 C   0  0  0  0  0  0  0  0  0  0  0  0
   -5.9333   -7.8596    9.3006 C   0  0  0  0  0  0  0  0  0  0  0  0
   -6.5838   -8.7010    8.3584 C   0  0  0  0  0  0  0  0  0  0  0  0
   -6.3324  -10.0999    8.3603 C   0  0  0  0  0  0  0  0  0  0  0  0
   -6.0463   -5.9437    7.9671 C   0  0  0  0  0  0  0  0  0  0  0  0
  1  4  1  0  0  0  0
  2  3  1  0  0  0  0
  3  5  1  0  0  0  0
  4  6  1  0  0  0  0
  5  8  1  0  0  0  0
  6  7  1  0  0  0  0
  7 10  1  0  0  0  0
  8  9  1  0  0  0  0
  9 12  1  0  0  0  0
  9 13  1  0  0  0  0
 10 11  1  0  0  0  0
 11 14  1  0  0  0  0
 14 15  1  0  0  0  0
 15 16  1  0  0  0  0
 15 17  1  0  0  0  0
 18  2  1  0  0  0  0
 18 20  2  0  0  0  0
 18 24  1  0  0  0  0
 19 25  1  0  0  0  0
 20  1  1  0  0  0  0
 20 21  1  0  0  0  0
 21 22  2  0  0  0  0
 22 19  1  0  0  0  0
 22 23  1  0  0  0  0
 23 24  2  0  0  0  0
M  END
>  <CHROM.1>
170.54991432,-84.71137560,-64.15893243,85.04995005,82.56355201,141.54300254
-179.98896978,-104.62316247,52.28724897,-66.14178139,137.88291245,-83.66370946
-157.86312528,-166.57602031,-133.63312525,136.54754662,-144.47236817,130.21775826
-3.86981494,-9.85292826,11.80543703,-3.04339062,-0.79643849,-0.33417559

>  <Name>
1uud_lig

>  <RI>
0

>  <Rbt.Current_Directory>
/home/itssahil/PROJECTS/Mol_Feturizer/New_Systems/rnas/1uud

>  <Rbt.Executable>
rbdock ($Id: //depot/dev/client3/rdock/2013.1/src/exe/rbdock.cxx#4 $)

>  <Rbt.Library>
libRbt.so (2013.1, Build901 2013/11/27)

>  <Rbt.Parameter_File>
/export/apps/rDock/src/rDock_2013.1_src/data/scripts/dock_solv.prm

>  <Rbt.Receptor>
prm/blind_docking_40.prm

>  <SCORE>
-28.4369

>  <SCORE.INTER>
-25.2261

>  <SCORE.INTER.CONST>
1

>  <SCORE.INTER.POLAR>
-4.44718

>  <SCORE.INTER.ROT>
18

>  <SCORE.INTER.SOLV>
8.85723

>  <SCORE.INTER.VDW>
-20.5459

>  <SCORE.INTER.norm>
-1.00905

>  <SCORE.INTRA>
-4.34049

>  <SCORE.INTRA.DIHEDRAL>
-2.70861

>  <SCORE.INTRA.DIHEDRAL.0>
30.6762

>  <SCORE.INTRA.POLAR>
-0.210693

>  <SCORE.INTRA.POLAR.0>
-0.0288659

>  <SCORE.INTRA.REPUL>
0

>  <SCORE.INTRA.REPUL.0>
0

>  <SCORE.INTRA.SOLV>
1.54205

>  <SCORE.INTRA.SOLV.lig_0>
-25.2195

>  <SCORE.INTRA.VDW>
-3.04085

>  <SCORE.INTRA.VDW.0>
4.14263

>  <SCORE.INTRA.norm>
-0.173619

>  <SCORE.RESTR>
1.1297

>  <SCORE.RESTR.CAVITY>
1.1297

>  <SCORE.RESTR.norm>
0.0451881

>  <SCORE.SYSTEM>
0

>  <SCORE.SYSTEM.CONST>
0

>  <SCORE.SYSTEM.DIHEDRAL>
0

>  <SCORE.SYSTEM.SOLV>
0

>  <SCORE.SYSTEM.norm>
0

>  <SCORE.heavy>
25

>  <SCORE.norm>
-1.13748

>  <RMSD>
14.949

$$$$
1uud_lig
 OpenBabel11021811413D
libRbt.so/2013.1/901 2013/11/27
 25 25  0  0  0  0  0  0  0  0999 V2000
   -6.2978  -13.3610   12.2516 C   0  0  0  0  0  0  0  0  0  0  0  0
   -7.4831  -12.6264    9.6713 O   0  0  0  0  0  0  0  0  0  0  0  0
   -8.3720  -11.5945    9.2182 C   0  0  0  0  0  0  0  0  0  0  0  0
   -5.2163  -13.7713   11.3219 N   0  0  0  0  0  0  0  0  0  0  0  0
   -7.7300  -10.8115    8.0650 C   0  0  0  0  0  0  0  0  0  0  0  0
   -4.7362  -12.5944   10.5596 C   0  0  0  0  0  0  0  0  0  0  0  0
   -3.9280  -11.6780   11.4862 C   0  0  0  0  0  0  0  0  0  0  0  0
   -6.4229  -10.8673    8.1601 N   0  0  0  0  0  0  0  0  0  0  0  0
   -5.6937  -11.5188    7.2736 C   0  0  0  0  0  0  0  0  0  0  0  0
   -3.9567  -10.2415   10.9531 C   0  0  0  0  0  0  0  0  0  0  0  0
   -5.3449   -9.6375   11.1844 C   0  0  0  0  0  0  0  0  0  0  0  0
   -4.3360  -11.6221    7.4022 N   0  0  0  0  0  0  0  0  0  0  0  0
   -6.3057  -12.0986    6.2089 N   0  0  0  0  0  0  0  0  0  0  0  0
   -5.3021   -8.3393   11.0002 N   0  0  0  0  0  0  0  0  0  0  0  0
   -6.0358   -7.7497   10.0758 C   0  0  0  0  0  0  0  0  0  0  0  0
   -7.1027   -7.0005   10.4554 N   0  0  0  0  0  0  0  0  0  0  0  0
   -5.7532   -7.8838    8.7460 N   0  0  0  0  0  0  0  0  0  0  0  0
   -8.1881  -13.5501   10.5105 C   0  0  0  0  0  0  0  0  0  0  0  0
  -10.2845  -16.3386   12.9761 O   0  0  0  0  0  0  0  0  0  0  0  0
   -7.6451  -13.9376   11.7694 C   0  0  0  0  0  0  0  0  0  0  0  0
   -8.3403  -14.8716   12.5835 C   0  0  0  0  0  0  0  0  0  0  0  0
   -9.5849  -15.4019   12.1530 C   0  0  0  0  0  0  0  0  0  0  0  0
  -10.1367  -15.0012   10.9065 C   0  0  0  0  0  0  0  0  0  0  0  0
   -9.4429  -14.0698   10.0872 C   0  0  0  0  0  0  0  0  0  0  0  0
  -10.1199  -17.6577   12.4474 C   0  0  0  0  0  0  0  0  0  0  0  0
  1  4  1  0  0  0  0
  2  3  1  0  0  0  0
  3  5  1  0  0  0  0
  4  6  1  0  0  0  0
  5  8  1  0  0  0  0
  6  7  1  0  0  0  0
  7 10  1  0  0  0  0
  8  9  1  0  0  0  0
  9 12  1  0  0  0  0
  9 13  1  0  0  0  0
 10 11  1  0  0  0  0
 11 14  1  0  0  0  0
 14 15  1  0  0  0  0
 15 16  1  0  0  0  0
 15 17  1  0  0  0  0
 18  2  1  0  0  0  0
 18 20  2  0  0  0  0
 18 24  1  0  0  0  0
 19 25  1  0  0  0  0
 20  1  1  0  0  0  0
 20 21  1  0  0  0  0
 21 22  2  0  0  0  0
 22 19  1  0  0  0  0
 22 23  1  0  0  0  0
 23 24  2  0  0  0  0
M  END
>  <CHROM.1>
110.11850602,-166.18976470,-26.74730086,72.07267865,112.43607443,-155.03313120
72.63918673,-177.34387827,57.00392201,167.18559422,166.58991140,119.68594922
107.69895570,-139.71929053,-92.40063556,-131.48667525,-62.72854641,-103.34295334
-6.89720388,-12.10611068,10.25204126,-2.60535383,-0.98281160,-1.33887039

>  <Name>
1uud_lig

>  <RI>
0

>  <Rbt.Current_Directory>
/home/itssahil/PROJECTS/Mol_Feturizer/New_Systems/rnas/1uud

>  <Rbt.Executable>
rbdock ($Id: //depot/dev/client3/rdock/2013.1/src/exe/rbdock.cxx#4 $)

>  <Rbt.Library>
libRbt.so (2013.1, Build901 2013/11/27)

>  <Rbt.Parameter_File>
/export/apps/rDock/src/rDock_2013.1_src/data/scripts/dock_solv.prm

>  <Rbt.Receptor>
prm/blind_docking_100.prm

>  <SCORE>
-24.5045

>  <SCORE.INTER>
-22.3691

>  <SCORE.INTER.CONST>
1

>  <SCORE.INTER.POLAR>
-3.81833

>  <SCORE.INTER.ROT>
18

>  <SCORE.INTER.SOLV>
8.40687

>  <SCORE.INTER.VDW>
-20.5872

>  <SCORE.INTER.norm>
-0.894764

>  <SCORE.INTRA>
-5.44451

>  <SCORE.INTRA.DIHEDRAL>
-1.94748

>  <SCORE.INTRA.DIHEDRAL.0>
30.6762

>  <SCORE.INTRA.POLAR>
-0.738923

>  <SCORE.INTRA.POLAR.0>
-0.0288659

>  <SCORE.INTRA.REPUL>
0

>  <SCORE.INTRA.REPUL.0>
0

>  <SCORE.INTRA.SOLV>
2.08572

>  <SCORE.INTRA.SOLV.lig_0>
-25.2195

>  <SCORE.INTRA.VDW>
-3.00129

>  <SCORE.INTRA.VDW.0>
4.14263

>  <SCORE.INTRA.norm>
-0.21778

>  <SCORE.RESTR>
3.30914

>  <SCORE.RESTR.CAVITY>
3.30914

>  <SCORE.RESTR.norm>
0.132365

>  <SCORE.SYSTEM>
0

>  <SCORE.SYSTEM.CONST>
0

>  <SCORE.SYSTEM.DIHEDRAL>
0

>  <SCORE.SYSTEM.SOLV>
0

>  <SCORE.SYSTEM.norm>
0

>  <SCORE.heavy>
25

>  <SCORE.norm>
-0.980179

>  <RMSD>
14.960

$$$$
1uud_lig
 OpenBabel11021811413D
libRbt.so/2013.1/901 2013/11/27
 25 25  0  0  0  0  0  0  0  0999 V2000
   -6.7431  -10.5421    8.8481 C   0  0  0  0  0  0  0  0  0  0  0  0
   -8.9036  -12.1757    7.7228 O   0  0  0  0  0  0  0  0  0  0  0  0
   -9.6980  -10.9955    7.9137 C   0  0  0  0  0  0  0  0  0  0  0  0
   -6.9265   -9.3733    9.7438 N   0  0  0  0  0  0  0  0  0  0  0  0
  -11.0697  -11.1671    7.2474 C   0  0  0  0  0  0  0  0  0  0  0  0
   -6.1923   -8.2054    9.2019 C   0  0  0  0  0  0  0  0  0  0  0  0
   -4.6862   -8.4937    9.2186 C   0  0  0  0  0  0  0  0  0  0  0  0
  -11.9453  -10.3729    7.8162 N   0  0  0  0  0  0  0  0  0  0  0  0
  -12.5976  -10.7327    8.9056 C   0  0  0  0  0  0  0  0  0  0  0  0
   -4.0240   -7.7393   10.3767 C   0  0  0  0  0  0  0  0  0  0  0  0
   -4.4220   -8.3895   11.7049 C   0  0  0  0  0  0  0  0  0  0  0  0
  -12.5025  -12.0005    9.4098 N   0  0  0  0  0  0  0  0  0  0  0  0
  -13.3822   -9.8234    9.5396 N   0  0  0  0  0  0  0  0  0  0  0  0
   -5.3341   -7.6600   12.3024 N   0  0  0  0  0  0  0  0  0  0  0  0
   -6.3423   -8.2114   12.9504 C   0  0  0  0  0  0  0  0  0  0  0  0
   -6.0848   -9.0286   14.0037 N   0  0  0  0  0  0  0  0  0  0  0  0
   -7.6380   -7.9876   12.5800 N   0  0  0  0  0  0  0  0  0  0  0  0
   -8.3159  -12.5800    8.9660 C   0  0  0  0  0  0  0  0  0  0  0  0
   -6.5483  -13.8279   12.6495 O   0  0  0  0  0  0  0  0  0  0  0  0
   -7.2604  -11.8178    9.5447 C   0  0  0  0  0  0  0  0  0  0  0  0
   -6.6687  -12.2399   10.7654 C   0  0  0  0  0  0  0  0  0  0  0  0
   -7.1427  -13.4076   11.4189 C   0  0  0  0  0  0  0  0  0  0  0  0
   -8.2085  -14.1576   10.8525 C   0  0  0  0  0  0  0  0  0  0  0  0
   -8.8009  -13.7410    9.6296 C   0  0  0  0  0  0  0  0  0  0  0  0
   -5.1288  -13.9113   12.4921 C   0  0  0  0  0  0  0  0  0  0  0  0
  1  4  1  0  0  0  0
  2  3  1  0  0  0  0
  3  5  1  0  0  0  0
  4  6  1  0  0  0  0
  5  8  1  0  0  0  0
  6  7  1  0  0  0  0
  7 10  1  0  0  0  0
  8  9  1  0  0  0  0
  9 12  1  0  0  0  0
  9 13  1  0  0  0  0
 10 11  1  0  0  0  0
 11 14  1  0  0  0  0
 14 15  1  0  0  0  0
 15 16  1  0  0  0  0
 15 17  1  0  0  0  0
 18  2  1  0  0  0  0
 18 20  2  0  0  0  0
 18 24  1  0  0  0  0
 19 25  1  0  0  0  0
 20  1  1  0  0  0  0
 20 21  1  0  0  0  0
 21 22  2  0  0  0  0
 22 19  1  0  0  0  0
 22 23  1  0  0  0  0
 23 24  2  0  0  0  0
M  END
>  <CHROM.1>
168.66737269,-132.28334995,156.18226522,-64.90069539,-85.40685867,-103.83310225
71.61584974,-7.24930998,78.47815904,-75.67498268,-103.30279654,141.16148000
60.35924039,135.89526423,-52.72114420,-71.48230521,119.85567180,-52.13082311
-7.89932243,-10.68678948,10.26435954,0.27719877,-0.51199278,-0.11075286

>  <Name>
1uud_lig

>  <RI>
0

>  <Rbt.Current_Directory>
/home/itssahil/PROJECTS/Mol_Feturizer/New_Systems/rnas/1uud

>  <Rbt.Executable>
rbdock ($Id: //depot/dev/client3/rdock/2013.1/src/exe/rbdock.cxx#4 $)

>  <Rbt.Library>
libRbt.so (2013.1, Build901 2013/11/27)

>  <Rbt.Parameter_File>
/export/apps/rDock/src/rDock_2013.1_src/data/scripts/dock_solv.prm

>  <Rbt.Receptor>
prm/blind_docking_60.prm

>  <SCORE>
-29.411

>  <SCORE.INTER>
-29.5255

>  <SCORE.INTER.CONST>
1

>  <SCORE.INTER.POLAR>
-4.51166

>  <SCORE.INTER.ROT>
18

>  <SCORE.INTER.SOLV>
12.3028

>  <SCORE.INTER.VDW>
-24.3457

>  <SCORE.INTER.norm>
-1.18102

>  <SCORE.INTRA>
0.0874486

>  <SCORE.INTRA.DIHEDRAL>
5.32197

>  <SCORE.INTRA.DIHEDRAL.0>
30.6762

>  <SCORE.INTRA.POLAR>
0.0288659

>  <SCORE.INTRA.POLAR.0>
-0.0288659

>  <SCORE.INTRA.REPUL>
0

>  <SCORE.INTRA.REPUL.0>
0

>  <SCORE.INTRA.SOLV>
0.412872

>  <SCORE.INTRA.SOLV.lig_0>
-25.2195

>  <SCORE.INTRA.VDW>
-2.87812

>  <SCORE.INTRA.VDW.0>
4.14263

>  <SCORE.INTRA.norm>
0.00349794

>  <SCORE.RESTR>
0.0270707

>  <SCORE.RESTR.CAVITY>
0.0270707

>  <SCORE.RESTR.norm>
0.00108283

>  <SCORE.SYSTEM>
0

>  <SCORE.SYSTEM.CONST>
0

>  <SCORE.SYSTEM.DIHEDRAL>
0

>  <SCORE.SYSTEM.SOLV>
0

>  <SCORE.SYSTEM.norm>
0

>  <SCORE.heavy>
25

>  <SCORE.norm>
-1.17644

>  <RMSD>
14.973

$$$$
1uud_lig
 OpenBabel11021811413D
libRbt.so/2013.1/901 2013/11/27
 25 25  0  0  0  0  0  0  0  0999 V2000
   -6.8643  -12.9853   11.9427 C   0  0  0  0  0  0  0  0  0  0  0  0
   -6.4071  -10.7663   10.0801 O   0  0  0  0  0  0  0  0  0  0  0  0
   -6.1395   -9.9211    8.9512 C   0  0  0  0  0  0  0  0  0  0  0  0
   -5.8724  -14.0864   11.8649 N   0  0  0  0  0  0  0  0  0  0  0  0
   -5.7384   -8.5173    9.4242 C   0  0  0  0  0  0  0  0  0  0  0  0
   -4.6540  -13.7192   12.6247 C   0  0  0  0  0  0  0  0  0  0  0  0
   -3.8161  -12.7313   11.8041 C   0  0  0  0  0  0  0  0  0  0  0  0
   -6.7576   -7.9350   10.0099 N   0  0  0  0  0  0  0  0  0  0  0  0
   -6.7038   -7.5573   11.2734 C   0  0  0  0  0  0  0  0  0  0  0  0
   -4.1539  -11.2941   12.2155 C   0  0  0  0  0  0  0  0  0  0  0  0
   -2.8955  -10.4263   12.1233 C   0  0  0  0  0  0  0  0  0  0  0  0
   -5.6498   -6.8334   11.7587 N   0  0  0  0  0  0  0  0  0  0  0  0
   -7.7176   -7.8967   12.1108 N   0  0  0  0  0  0  0  0  0  0  0  0
   -2.3641  -10.2842   13.3144 N   0  0  0  0  0  0  0  0  0  0  0  0
   -1.1267  -10.6654   13.5672 C   0  0  0  0  0  0  0  0  0  0  0  0
   -0.4153  -10.0142   14.5230 N   0  0  0  0  0  0  0  0  0  0  0  0
   -0.5415  -11.6927   12.8829 N   0  0  0  0  0  0  0  0  0  0  0  0
   -7.3681  -11.7695    9.7272 C   0  0  0  0  0  0  0  0  0  0  0  0
  -10.2044  -14.7718    8.6355 O   0  0  0  0  0  0  0  0  0  0  0  0
   -7.6168  -12.8670   10.6011 C   0  0  0  0  0  0  0  0  0  0  0  0
   -8.5543  -13.8683   10.2315 C   0  0  0  0  0  0  0  0  0  0  0  0
   -9.2583  -13.7647    9.0031 C   0  0  0  0  0  0  0  0  0  0  0  0
   -9.0253  -12.6603    8.1399 C   0  0  0  0  0  0  0  0  0  0  0  0
   -8.0857  -11.6580    8.5039 C   0  0  0  0  0  0  0  0  0  0  0  0
  -11.4833  -14.4540    9.1922 C   0  0  0  0  0  0  0  0  0  0  0  0
  1  4  1  0  0  0  0
  2  3  1  0  0  0  0
  3  5  1  0  0  0  0
  4  6  1  0  0  0  0
  5  8  1  0  0  0  0
  6  7  1  0  0  0  0
  7 10  1  0  0  0  0
  8  9  1  0  0  0  0
  9 12  1  0  0  0  0
  9 13  1  0  0  0  0
 10 11  1  0  0  0  0
 11 14  1  0  0  0  0
 14 15  1  0  0  0  0
 15 16  1  0  0  0  0
 15 17  1  0  0  0  0
 18  2  1  0  0  0  0
 18 20  2  0  0  0  0
 18 24  1  0  0  0  0
 19 25  1  0  0  0  0
 20  1  1  0  0  0  0
 20 21  1  0  0  0  0
 21 22  2  0  0  0  0
 22 19  1  0  0  0  0
 22 23  1  0  0  0  0
 23 24  2  0  0  0  0
M  END
>  <CHROM.1>
143.66787823,151.24696571,-66.48725016,-77.09601866,119.06279853,94.85566605
145.75465044,48.82579890,125.58228887,58.29616687,-99.25419934,121.42297330
150.57825083,-174.38271343,102.06671688,168.75504312,-108.06806888,86.88217104
-5.91142727,-11.28080432,11.03868328,-2.80570596,-0.51010480,-0.05025091

>  <Name>
1uud_lig

>  <RI>
0

>  <Rbt.Current_Directory>
/home/itssahil/PROJECTS/Mol_Feturizer/New_Systems/rnas/1uud

>  <Rbt.Executable>
rbdock ($Id: //depot/dev/client3/rdock/2013.1/src/exe/rbdock.cxx#4 $)

>  <Rbt.Library>
libRbt.so (2013.1, Build901 2013/11/27)

>  <Rbt.Parameter_File>
/export/apps/rDock/src/rDock_2013.1_src/data/scripts/dock_solv.prm

>  <Rbt.Receptor>
prm/blind_docking_80.prm

>  <SCORE>
-32.2503

>  <SCORE.INTER>
-32.0825

>  <SCORE.INTER.CONST>
1

>  <SCORE.INTER.POLAR>
-5.21971

>  <SCORE.INTER.ROT>
18

>  <SCORE.INTER.SOLV>
13.5537

>  <SCORE.INTER.VDW>
-24.1072

>  <SCORE.INTER.norm>
-1.2833

>  <SCORE.INTRA>
-1.29781

>  <SCORE.INTRA.DIHEDRAL>
2.43488

>  <SCORE.INTRA.DIHEDRAL.0>
30.6762

>  <SCORE.INTRA.POLAR>
0.0288659

>  <SCORE.INTRA.POLAR.0>
-0.0288659

>  <SCORE.INTRA.REPUL>
0

>  <SCORE.INTRA.REPUL.0>
0

>  <SCORE.INTRA.SOLV>
-0.42691

>  <SCORE.INTRA.SOLV.lig_0>
-25.2195

>  <SCORE.INTRA.VDW>
-2.39994

>  <SCORE.INTRA.VDW.0>
4.14263

>  <SCORE.INTRA.norm>
-0.0519124

>  <SCORE.RESTR>
1.12998

>  <SCORE.RESTR.CAVITY>
1.12998

>  <SCORE.RESTR.norm>
0.0451994

>  <SCORE.SYSTEM>
0

>  <SCORE.SYSTEM.CONST>
0

>  <SCORE.SYSTEM.DIHEDRAL>
0

>  <SCORE.SYSTEM.SOLV>
0

>  <SCORE.SYSTEM.norm>
0

>  <SCORE.heavy>
25

>  <SCORE.norm>
-1.29001

>  <RMSD>
14.984

$$$$
1uud_lig
 OpenBabel11021811413D
libRbt.so/2013.1/901 2013/11/27
 25 25  0  0  0  0  0  0  0  0999 V2000
   -4.8290   -8.8760   12.5967 C   0  0  0  0  0  0  0  0  0  0  0  0
   -6.7353  -10.8529   11.5669 O   0  0  0  0  0  0  0  0  0  0  0  0
   -5.8394  -11.9731   11.6211 C   0  0  0  0  0  0  0  0  0  0  0  0
   -4.8597   -7.4922   13.1317 N   0  0  0  0  0  0  0  0  0  0  0  0
   -6.4721  -13.1907   10.9338 C   0  0  0  0  0  0  0  0  0  0  0  0
   -3.8164   -7.3331   14.1724 C   0  0  0  0  0  0  0  0  0  0  0  0
   -2.4289   -7.4341   13.5272 C   0  0  0  0  0  0  0  0  0  0  0  0
   -7.5552  -12.8272   10.2892 N   0  0  0  0  0  0  0  0  0  0  0  0
   -8.3841  -13.7170    9.7760 C   0  0  0  0  0  0  0  0  0  0  0  0
   -1.9225   -8.8785   13.6037 C   0  0  0  0  0  0  0  0  0  0  0  0
   -1.3110   -9.1340   14.9843 C   0  0  0  0  0  0  0  0  0  0  0  0
   -8.9711  -14.6780   10.5522 N   0  0  0  0  0  0  0  0  0  0  0  0
   -8.6591  -13.6779    8.4467 N   0  0  0  0  0  0  0  0  0  0  0  0
   -0.0888   -8.6589   15.0249 N   0  0  0  0  0  0  0  0  0  0  0  0
    0.2599   -7.7262   15.8904 C   0  0  0  0  0  0  0  0  0  0  0  0
   -0.0942   -6.4370   15.6531 N   0  0  0  0  0  0  0  0  0  0  0  0
    0.9772   -8.0258   17.0137 N   0  0  0  0  0  0  0  0  0  0  0  0
   -6.2270   -9.8589   10.6679 C   0  0  0  0  0  0  0  0  0  0  0  0
   -4.7588   -6.8785    7.9824 O   0  0  0  0  0  0  0  0  0  0  0  0
   -5.3032   -8.8769   11.1285 C   0  0  0  0  0  0  0  0  0  0  0  0
   -4.8232   -7.8819   10.2354 C   0  0  0  0  0  0  0  0  0  0  0  0
   -5.2467   -7.8786    8.8803 C   0  0  0  0  0  0  0  0  0  0  0  0
   -6.1528   -8.8693    8.4152 C   0  0  0  0  0  0  0  0  0  0  0  0
   -6.6384   -9.8646    9.3061 C   0  0  0  0  0  0  0  0  0  0  0  0
   -5.8337   -6.0184    7.5933 C   0  0  0  0  0  0  0  0  0  0  0  0
  1  4  1  0  0  0  0
  2  3  1  0  0  0  0
  3  5  1  0  0  0  0
  4  6  1  0  0  0  0
  5  8  1  0  0  0  0
  6  7  1  0  0  0  0
  7 10  1  0  0  0  0
  8  9  1  0  0  0  0
  9 12  1  0  0  0  0
  9 13  1  0  0  0  0
 10 11  1  0  0  0  0
 11 14  1  0  0  0  0
 14 15  1  0  0  0  0
 15 16  1  0  0  0  0
 15 17  1  0  0  0  0
 18  2  1  0  0  0  0
 18 20  2  0  0  0  0
 18 24  1  0  0  0  0
 19 25  1  0  0  0  0
 20  1  1  0  0  0  0
 20 21  1  0  0  0  0
 21 22  2  0  0  0  0
 22 19  1  0  0  0  0
 22 23  1  0  0  0  0
 23 24  2  0  0  0  0
M  END
>  <CHROM.1>
-150.42103717,-109.69157376,10.52437445,67.10029548,-170.20769581,-93.41002418
-82.17750672,57.32891549,51.85955120,-144.91590548,-80.56315015,120.04908905
-77.63818138,141.02910480,-75.52797500,-86.28431559,-135.11693536,-112.91532888
-4.60937985,-9.49249074,11.76348869,0.02099297,-0.80299893,-0.62379913

>  <Name>
1uud_lig

>  <RI>
0

>  <Rbt.Current_Directory>
/home/itssahil/PROJECTS/Mol_Feturizer/New_Systems/rnas/1uud

>  <Rbt.Executable>
rbdock ($Id: //depot/dev/client3/rdock/2013.1/src/exe/rbdock.cxx#4 $)

>  <Rbt.Library>
libRbt.so (2013.1, Build901 2013/11/27)

>  <Rbt.Parameter_File>
/export/apps/rDock/src/rDock_2013.1_src/data/scripts/dock_solv.prm

>  <Rbt.Receptor>
prm/blind_docking_80.prm

>  <SCORE>
-27.4483

>  <SCORE.INTER>
-31.1053

>  <SCORE.INTER.CONST>
1

>  <SCORE.INTER.POLAR>
-5.2446

>  <SCORE.INTER.ROT>
18

>  <SCORE.INTER.SOLV>
9.9137

>  <SCORE.INTER.VDW>
-22.1594

>  <SCORE.INTER.norm>
-1.24421

>  <SCORE.INTRA>
1.84455

>  <SCORE.INTRA.DIHEDRAL>
8.72007

>  <SCORE.INTRA.DIHEDRAL.0>
30.6762

>  <SCORE.INTRA.POLAR>
-0.0269616

>  <SCORE.INTRA.POLAR.0>
-0.0288659

>  <SCORE.INTRA.REPUL>
0

>  <SCORE.INTRA.REPUL.0>
0

>  <SCORE.INTRA.SOLV>
-0.304538

>  <SCORE.INTRA.SOLV.lig_0>
-25.2195

>  <SCORE.INTRA.VDW>
-2.27155

>  <SCORE.INTRA.VDW.0>
4.14263

>  <SCORE.INTRA.norm>
0.0737819

>  <SCORE.RESTR>
1.81248

>  <SCORE.RESTR.CAVITY>
1.81248

>  <SCORE.RESTR.norm>
0.0724994

>  <SCORE.SYSTEM>
0

>  <SCORE.SYSTEM.CONST>
0

>  <SCORE.SYSTEM.DIHEDRAL>
0

>  <SCORE.SYSTEM.SOLV>
0

>  <SCORE.SYSTEM.norm>
0

>  <SCORE.heavy>
25

>  <SCORE.norm>
-1.09793

>  <RMSD>
14.999

$$$$
1uud_lig
 OpenBabel11021811413D
libRbt.so/2013.1/901 2013/11/27
 25 25  0  0  0  0  0  0  0  0999 V2000
   -7.4273  -13.0463    8.8608 C   0  0  0  0  0  0  0  0  0  0  0  0
   -6.9024  -14.3110   11.4546 O   0  0  0  0  0  0  0  0  0  0  0  0
   -6.9239  -14.0078   12.8574 C   0  0  0  0  0  0  0  0  0  0  0  0
   -7.1437  -11.7038    9.4259 N   0  0  0  0  0  0  0  0  0  0  0  0
   -5.6570  -13.2367   13.2518 C   0  0  0  0  0  0  0  0  0  0  0  0
   -6.2996  -10.9308    8.4842 C   0  0  0  0  0  0  0  0  0  0  0  0
   -5.8322   -9.6356    9.1592 C   0  0  0  0  0  0  0  0  0  0  0  0
   -4.6417  -13.6458   12.5289 N   0  0  0  0  0  0  0  0  0  0  0  0
   -4.3390  -13.0740   11.3785 C   0  0  0  0  0  0  0  0  0  0  0  0
   -5.3300   -8.6480    8.1004 C   0  0  0  0  0  0  0  0  0  0  0  0
   -5.0036   -7.3075    8.7650 C   0  0  0  0  0  0  0  0  0  0  0  0
   -4.2551  -13.7975   10.2209 N   0  0  0  0  0  0  0  0  0  0  0  0
   -4.1040  -11.7369   11.3441 N   0  0  0  0  0  0  0  0  0  0  0  0
   -6.1135   -6.7030    9.1171 N   0  0  0  0  0  0  0  0  0  0  0  0
   -6.6478   -5.7541    8.3723 C   0  0  0  0  0  0  0  0  0  0  0  0
   -5.8384   -4.9803    7.6044 N   0  0  0  0  0  0  0  0  0  0  0  0
   -7.9945   -5.5255    8.3638 N   0  0  0  0  0  0  0  0  0  0  0  0
   -8.2386  -14.3400   10.9366 C   0  0  0  0  0  0  0  0  0  0  0  0
  -12.2366  -14.3990    9.4323 O   0  0  0  0  0  0  0  0  0  0  0  0
   -8.5378  -13.7329    9.6828 C   0  0  0  0  0  0  0  0  0  0  0  0
   -9.8698  -13.7467    9.1891 C   0  0  0  0  0  0  0  0  0  0  0  0
  -10.8975  -14.3830    9.9335 C   0  0  0  0  0  0  0  0  0  0  0  0
  -10.5964  -15.0057   11.1747 C   0  0  0  0  0  0  0  0  0  0  0  0
   -9.2659  -14.9913   11.6742 C   0  0  0  0  0  0  0  0  0  0  0  0
  -12.6184  -13.0764    9.0432 C   0  0  0  0  0  0  0  0  0  0  0  0
  1  4  1  0  0  0  0
  2  3  1  0  0  0  0
  3  5  1  0  0  0  0
  4  6  1  0  0  0  0
  5  8  1  0  0  0  0
  6  7  1  0  0  0  0
  7 10  1  0  0  0  0
  8  9  1  0  0  0  0
  9 12  1  0  0  0  0
  9 13  1  0  0  0  0
 10 11  1  0  0  0  0
 11 14  1  0  0  0  0
 14 15  1  0  0  0  0
 15 16  1  0  0  0  0
 15 17  1  0  0  0  0
 18  2  1  0  0  0  0
 18 20  2  0  0  0  0
 18 24  1  0  0  0  0
 19 25  1  0  0  0  0
 20  1  1  0  0  0  0
 20 21  1  0  0  0  0
 21 22  2  0  0  0  0
 22 19  1  0  0  0  0
 22 23  1  0  0  0  0
 23 24  2  0  0  0  0
M  END
>  <CHROM.1>
-167.96377777,-148.80889964,-33.77194656,-171.37465860,90.35696794,-163.08961733
174.11281900,-123.92817351,-111.69215570,11.28493654,-71.64850499,-98.67013064
-29.41938546,-39.90092818,-156.52927379,137.05956868,-78.56504136,-49.42831215
-7.25453430,-11.57922434,9.99775976,1.94642158,0.30481009,2.72440040

>  <Name>
1uud_lig

>  <RI>
0

>  <Rbt.Current_Directory>
/home/itssahil/PROJECTS/Mol_Feturizer/New_Systems/rnas/1uud

>  <Rbt.Executable>
rbdock ($Id: //depot/dev/client3/rdock/2013.1/src/exe/rbdock.cxx#4 $)

>  <Rbt.Library>
libRbt.so (2013.1, Build901 2013/11/27)

>  <Rbt.Parameter_File>
/export/apps/rDock/src/rDock_2013.1_src/data/scripts/dock_solv.prm

>  <Rbt.Receptor>
prm/blind_docking_100.prm

>  <SCORE>
-32.4659

>  <SCORE.INTER>
-28.0729

>  <SCORE.INTER.CONST>
1

>  <SCORE.INTER.POLAR>
-4.41988

>  <SCORE.INTER.ROT>
18

>  <SCORE.INTER.SOLV>
11.1824

>  <SCORE.INTER.VDW>
-23.3098

>  <SCORE.INTER.norm>
-1.12292

>  <SCORE.INTRA>
-6.44929

>  <SCORE.INTRA.DIHEDRAL>
-7.10126

>  <SCORE.INTRA.DIHEDRAL.0>
30.6762

>  <SCORE.INTRA.POLAR>
-0.00244452

>  <SCORE.INTRA.POLAR.0>
-0.0288659

>  <SCORE.INTRA.REPUL>
0

>  <SCORE.INTRA.REPUL.0>
0

>  <SCORE.INTRA.SOLV>
1.27879

>  <SCORE.INTRA.SOLV.lig_0>
-25.2195

>  <SCORE.INTRA.VDW>
-3.52974

>  <SCORE.INTRA.VDW.0>
4.14263

>  <SCORE.INTRA.norm>
-0.257971

>  <SCORE.RESTR>
2.05627

>  <SCORE.RESTR.CAVITY>
2.05627

>  <SCORE.RESTR.norm>
0.0822508

>  <SCORE.SYSTEM>
0

>  <SCORE.SYSTEM.CONST>
0

>  <SCORE.SYSTEM.DIHEDRAL>
0

>  <SCORE.SYSTEM.SOLV>
0

>  <SCORE.SYSTEM.norm>
0

>  <SCORE.heavy>
25

>  <SCORE.norm>
-1.29864

>  <RMSD>
15.018

$$$$
1uud_lig
 OpenBabel11021811413D
libRbt.so/2013.1/901 2013/11/27
 25 25  0  0  0  0  0  0  0  0999 V2000
   -6.4003  -11.9667   11.3673 C   0  0  0  0  0  0  0  0  0  0  0  0
   -6.2867  -12.0561    8.4378 O   0  0  0  0  0  0  0  0  0  0  0  0
   -7.6137  -12.1520    7.8993 C   0  0  0  0  0  0  0  0  0  0  0  0
   -5.4210  -13.0163   10.9911 N   0  0  0  0  0  0  0  0  0  0  0  0
   -8.6517  -12.0100    9.0207 C   0  0  0  0  0  0  0  0  0  0  0  0
   -5.1912  -13.9235   12.1404 C   0  0  0  0  0  0  0  0  0  0  0  0
   -6.4714  -14.7157   12.4324 C   0  0  0  0  0  0  0  0  0  0  0  0
   -9.5431  -11.1052    8.6926 N   0  0  0  0  0  0  0  0  0  0  0  0
  -10.7547  -11.4434    8.2931 C   0  0  0  0  0  0  0  0  0  0  0  0
   -7.3446  -13.9461   13.4293 C   0  0  0  0  0  0  0  0  0  0  0  0
   -8.7147  -14.6215   13.5372 C   0  0  0  0  0  0  0  0  0  0  0  0
  -11.5546  -10.5655    7.6148 N   0  0  0  0  0  0  0  0  0  0  0  0
  -11.2180  -12.6911    8.5629 N   0  0  0  0  0  0  0  0  0  0  0  0
   -9.5867  -13.9813   12.7950 N   0  0  0  0  0  0  0  0  0  0  0  0
   -9.8578  -14.3665   11.5627 C   0  0  0  0  0  0  0  0  0  0  0  0
  -11.1497  -14.3900   11.1453 N   0  0  0  0  0  0  0  0  0  0  0  0
   -8.8705  -14.7519   10.7009 N   0  0  0  0  0  0  0  0  0  0  0  0
   -6.1108  -10.7927    9.0916 C   0  0  0  0  0  0  0  0  0  0  0  0
   -5.6282   -7.0101   11.0177 O   0  0  0  0  0  0  0  0  0  0  0  0
   -6.1639  -10.7041   10.5127 C   0  0  0  0  0  0  0  0  0  0  0  0
   -6.0115   -9.4436   11.1500 C   0  0  0  0  0  0  0  0  0  0  0  0
   -5.7853   -8.2769   10.3734 C   0  0  0  0  0  0  0  0  0  0  0  0
   -5.7127   -8.3672    8.9573 C   0  0  0  0  0  0  0  0  0  0  0  0
   -5.8681   -9.6257    8.3152 C   0  0  0  0  0  0  0  0  0  0  0  0
   -4.8203   -7.1647   12.1881 C   0  0  0  0  0  0  0  0  0  0  0  0
  1  4  1  0  0  0  0
  2  3  1  0  0  0  0
  3  5  1  0  0  0  0
  4  6  1  0  0  0  0
  5  8  1  0  0  0  0
  6  7  1  0  0  0  0
  7 10  1  0  0  0  0
  8  9  1  0  0  0  0
  9 12  1  0  0  0  0
  9 13  1  0  0  0  0
 10 11  1  0  0  0  0
 11 14  1  0  0  0  0
 14 15  1  0  0  0  0
 15 16  1  0  0  0  0
 15 17  1  0  0  0  0
 18  2  1  0  0  0  0
 18 20  2  0  0  0  0
 18 24  1  0  0  0  0
 19 25  1  0  0  0  0
 20  1  1  0  0  0  0
 20 21  1  0  0  0  0
 21 22  2  0  0  0  0
 22 19  1  0  0  0  0
 22 23  1  0  0  0  0
 23 24  2  0  0  0  0
M  END
>  <CHROM.1>
153.46552902,-59.27708861,129.26133210,66.95987985,104.29606332,-89.67183201
170.63509185,-161.93475068,172.89748587,-17.32386027,-99.23787678,94.96668612
136.84117275,109.20298305,120.84023121,102.13135379,52.61920435,41.28149500
-7.69939793,-11.77169148,10.40403692,-0.79827939,0.56673846,2.49954900

>  <Name>
1uud_lig

>  <RI>
0

>  <Rbt.Current_Directory>
/home/itssahil/PROJECTS/Mol_Feturizer/New_Systems/rnas/1uud

>  <Rbt.Executable>
rbdock ($Id: //depot/dev/client3/rdock/2013.1/src/exe/rbdock.cxx#4 $)

>  <Rbt.Library>
libRbt.so (2013.1, Build901 2013/11/27)

>  <Rbt.Parameter_File>
/export/apps/rDock/src/rDock_2013.1_src/data/scripts/dock_solv.prm

>  <Rbt.Receptor>
prm/blind_docking_100.prm

>  <SCORE>
-14.6495

>  <SCORE.INTER>
-12.8631

>  <SCORE.INTER.CONST>
1

>  <SCORE.INTER.POLAR>
-2.87604

>  <SCORE.INTER.ROT>
18

>  <SCORE.INTER.SOLV>
7.90184

>  <SCORE.INTER.VDW>
-17.2225

>  <SCORE.INTER.norm>
-0.514524

>  <SCORE.INTRA>
-2.89293

>  <SCORE.INTRA.DIHEDRAL>
0.292985

>  <SCORE.INTRA.DIHEDRAL.0>
30.6762

>  <SCORE.INTRA.POLAR>
-1.009

>  <SCORE.INTRA.POLAR.0>
-0.0288659

>  <SCORE.INTRA.REPUL>
0

>  <SCORE.INTRA.REPUL.0>
0

>  <SCORE.INTRA.SOLV>
2.2769

>  <SCORE.INTRA.SOLV.lig_0>
-25.2195

>  <SCORE.INTRA.VDW>
-0.747286

>  <SCORE.INTRA.VDW.0>
4.14263

>  <SCORE.INTRA.norm>
-0.115717

>  <SCORE.RESTR>
1.10655

>  <SCORE.RESTR.CAVITY>
1.10655

>  <SCORE.RESTR.norm>
0.044262

>  <SCORE.SYSTEM>
0

>  <SCORE.SYSTEM.CONST>
0

>  <SCORE.SYSTEM.DIHEDRAL>
0

>  <SCORE.SYSTEM.SOLV>
0

>  <SCORE.SYSTEM.norm>
0

>  <SCORE.heavy>
25

>  <SCORE.norm>
-0.585979

>  <RMSD>
15.023

$$$$
1uud_lig
 OpenBabel11021811413D
libRbt.so/2013.1/901 2013/11/27
 25 25  0  0  0  0  0  0  0  0999 V2000
   -8.4775  -12.7287    8.4666 C   0  0  0  0  0  0  0  0  0  0  0  0
  -10.0787  -14.6563    9.9908 O   0  0  0  0  0  0  0  0  0  0  0  0
  -11.0349  -13.6591   10.3800 C   0  0  0  0  0  0  0  0  0  0  0  0
   -7.3264  -12.3273    7.6205 N   0  0  0  0  0  0  0  0  0  0  0  0
  -12.0896  -13.4790    9.2798 C   0  0  0  0  0  0  0  0  0  0  0  0
   -7.1569  -10.8557    7.6687 C   0  0  0  0  0  0  0  0  0  0  0  0
   -5.6658  -10.5145    7.7777 C   0  0  0  0  0  0  0  0  0  0  0  0
  -12.3105  -12.2019    9.0773 N   0  0  0  0  0  0  0  0  0  0  0  0
  -11.5502  -11.4902    8.2666 C   0  0  0  0  0  0  0  0  0  0  0  0
   -5.2874  -10.2948    9.2464 C   0  0  0  0  0  0  0  0  0  0  0  0
   -5.5232   -8.8289    9.6218 C   0  0  0  0  0  0  0  0  0  0  0  0
  -11.6246  -11.6325    6.9083 N   0  0  0  0  0  0  0  0  0  0  0  0
  -10.6731  -10.5972    8.7933 N   0  0  0  0  0  0  0  0  0  0  0  0
   -6.7279   -8.6852   10.1211 N   0  0  0  0  0  0  0  0  0  0  0  0
   -6.9545   -8.7912   11.4164 C   0  0  0  0  0  0  0  0  0  0  0  0
   -6.5341   -9.9026   12.0735 N   0  0  0  0  0  0  0  0  0  0  0  0
   -7.6108   -7.8139   12.1094 N   0  0  0  0  0  0  0  0  0  0  0  0
   -8.7773  -14.3083   10.4805 C   0  0  0  0  0  0  0  0  0  0  0  0
   -4.8840  -13.3189   11.9342 O   0  0  0  0  0  0  0  0  0  0  0  0
   -7.9647  -13.3800    9.7678 C   0  0  0  0  0  0  0  0  0  0  0  0
   -6.6671  -13.0593   10.2491 C   0  0  0  0  0  0  0  0  0  0  0  0
   -6.1888  -13.6465   11.4499 C   0  0  0  0  0  0  0  0  0  0  0  0
   -7.0062  -14.5575   12.1717 C   0  0  0  0  0  0  0  0  0  0  0  0
   -8.3036  -14.8839   11.6920 C   0  0  0  0  0  0  0  0  0  0  0  0
   -4.9964  -12.4388   13.0565 C   0  0  0  0  0  0  0  0  0  0  0  0
  1  4  1  0  0  0  0
  2  3  1  0  0  0  0
  3  5  1  0  0  0  0
  4  6  1  0  0  0  0
  5  8  1  0  0  0  0
  6  7  1  0  0  0  0
  7 10  1  0  0  0  0
  8  9  1  0  0  0  0
  9 12  1  0  0  0  0
  9 13  1  0  0  0  0
 10 11  1  0  0  0  0
 11 14  1  0  0  0  0
 14 15  1  0  0  0  0
 15 16  1  0  0  0  0
 15 17  1  0  0  0  0
 18  2  1  0  0  0  0
 18 20  2  0  0  0  0
 18 24  1  0  0  0  0
 19 25  1  0  0  0  0
 20  1  1  0  0  0  0
 20 21  1  0  0  0  0
 21 22  2  0  0  0  0
 22 19  1  0  0  0  0
 22 23  1  0  0  0  0
 23 24  2  0  0  0  0
M  END
>  <CHROM.1>
-105.68186168,144.97815250,-135.48054030,138.16186283,84.96631951,-95.70046387
-87.87102878,73.03649995,107.60933980,-30.40501370,92.60120682,90.91794392
-53.31903614,-19.03497271,-42.81279844,-82.15717155,-154.58699897,105.29479146
-8.07672919,-11.85573580,9.96668876,2.93937895,0.50320650,2.74817642

>  <Name>
1uud_lig

>  <RI>
0

>  <Rbt.Current_Directory>
/home/itssahil/PROJECTS/Mol_Feturizer/New_Systems/rnas/1uud

>  <Rbt.Executable>
rbdock ($Id: //depot/dev/client3/rdock/2013.1/src/exe/rbdock.cxx#4 $)

>  <Rbt.Library>
libRbt.so (2013.1, Build901 2013/11/27)

>  <Rbt.Parameter_File>
/export/apps/rDock/src/rDock_2013.1_src/data/scripts/dock_solv.prm

>  <Rbt.Receptor>
prm/blind_docking_100.prm

>  <SCORE>
-18.5339

>  <SCORE.INTER>
-20.5813

>  <SCORE.INTER.CONST>
1

>  <SCORE.INTER.POLAR>
-3.51458

>  <SCORE.INTER.ROT>
18

>  <SCORE.INTER.SOLV>
10.5817

>  <SCORE.INTER.VDW>
-21.1328

>  <SCORE.INTER.norm>
-0.823252

>  <SCORE.INTRA>
1.58255

>  <SCORE.INTRA.DIHEDRAL>
13.4521

>  <SCORE.INTRA.DIHEDRAL.0>
30.6762

>  <SCORE.INTRA.POLAR>
0.0288659

>  <SCORE.INTRA.POLAR.0>
-0.0288659

>  <SCORE.INTRA.REPUL>
0

>  <SCORE.INTRA.REPUL.0>
0

>  <SCORE.INTRA.SOLV>
0.928233

>  <SCORE.INTRA.SOLV.lig_0>
-25.2195

>  <SCORE.INTRA.VDW>
-5.70574

>  <SCORE.INTRA.VDW.0>
4.14263

>  <SCORE.INTRA.norm>
0.0633021

>  <SCORE.RESTR>
0.464871

>  <SCORE.RESTR.CAVITY>
0.464871

>  <SCORE.RESTR.norm>
0.0185949

>  <SCORE.SYSTEM>
0

>  <SCORE.SYSTEM.CONST>
0

>  <SCORE.SYSTEM.DIHEDRAL>
0

>  <SCORE.SYSTEM.SOLV>
0

>  <SCORE.SYSTEM.norm>
0

>  <SCORE.heavy>
25

>  <SCORE.norm>
-0.741355

>  <RMSD>
15.055

$$$$
1uud_lig
 OpenBabel11021811413D
libRbt.so/2013.1/901 2013/11/27
 25 25  0  0  0  0  0  0  0  0999 V2000
   -7.6075  -12.6881   10.1922 C   0  0  0  0  0  0  0  0  0  0  0  0
   -6.7596  -10.0380   11.1197 O   0  0  0  0  0  0  0  0  0  0  0  0
   -7.3297   -8.7421   11.3560 C   0  0  0  0  0  0  0  0  0  0  0  0
   -8.9610  -13.1500    9.7960 N   0  0  0  0  0  0  0  0  0  0  0  0
   -6.8320   -8.1808   12.6948 C   0  0  0  0  0  0  0  0  0  0  0  0
   -9.2116  -14.5024   10.3481 C   0  0  0  0  0  0  0  0  0  0  0  0
   -9.1421  -14.4522   11.8792 C   0  0  0  0  0  0  0  0  0  0  0  0
   -6.0394   -7.1572   12.4831 N   0  0  0  0  0  0  0  0  0  0  0  0
   -4.7271   -7.2722   12.5641 C   0  0  0  0  0  0  0  0  0  0  0  0
   -7.9411  -15.2660   12.3734 C   0  0  0  0  0  0  0  0  0  0  0  0
   -7.1761  -14.4606   13.4275 C   0  0  0  0  0  0  0  0  0  0  0  0
   -3.9775   -7.6749   11.4933 N   0  0  0  0  0  0  0  0  0  0  0  0
   -4.1074   -6.9856   13.7379 N   0  0  0  0  0  0  0  0  0  0  0  0
   -5.9368  -14.2795   13.0368 N   0  0  0  0  0  0  0  0  0  0  0  0
   -5.4777  -13.0804   12.7340 C   0  0  0  0  0  0  0  0  0  0  0  0
   -6.2346  -11.9899   13.0194 N   0  0  0  0  0  0  0  0  0  0  0  0
   -4.2636  -12.9113   12.1310 N   0  0  0  0  0  0  0  0  0  0  0  0
   -6.7289  -10.3134    9.7134 C   0  0  0  0  0  0  0  0  0  0  0  0
   -6.5873  -11.1278    5.5221 O   0  0  0  0  0  0  0  0  0  0  0  0
   -7.1275  -11.5897    9.2211 C   0  0  0  0  0  0  0  0  0  0  0  0
   -7.0713  -11.8604    7.8276 C   0  0  0  0  0  0  0  0  0  0  0  0
   -6.6390  -10.8540    6.9245 C   0  0  0  0  0  0  0  0  0  0  0  0
   -6.2599   -9.5745    7.4126 C   0  0  0  0  0  0  0  0  0  0  0  0
   -6.3111   -9.3004    8.8063 C   0  0  0  0  0  0  0  0  0  0  0  0
   -5.4262  -11.9104    5.2291 C   0  0  0  0  0  0  0  0  0  0  0  0
  1  4  1  0  0  0  0
  2  3  1  0  0  0  0
  3  5  1  0  0  0  0
  4  6  1  0  0  0  0
  5  8  1  0  0  0  0
  6  7  1  0  0  0  0
  7 10  1  0  0  0  0
  8  9  1  0  0  0  0
  9 12  1  0  0  0  0
  9 13  1  0  0  0  0
 10 11  1  0  0  0  0
 11 14  1  0  0  0  0
 14 15  1  0  0  0  0
 15 16  1  0  0  0  0
 15 17  1  0  0  0  0
 18  2  1  0  0  0  0
 18 20  2  0  0  0  0
 18 24  1  0  0  0  0
 19 25  1  0  0  0  0
 20  1  1  0  0  0  0
 20 21  1  0  0  0  0
 21 22  2  0  0  0  0
 22 19  1  0  0  0  0
 22 23  1  0  0  0  0
 23 24  2  0  0  0  0
M  END
>  <CHROM.1>
158.22785720,-155.28536285,111.29161996,60.88505059,-101.95829267,-113.85606219
133.80259477,86.41402484,55.42538356,-153.09003059,-121.06442283,113.24591516
9.90576530,55.14692027,-35.67125077,-135.78618978,124.12004540,-77.43447124
-6.52214851,-11.16329483,10.65428307,3.09880911,-1.19262970,-1.31643571

>  <Name>
1uud_lig

>  <RI>
0

>  <Rbt.Current_Directory>
/home/itssahil/PROJECTS/Mol_Feturizer/New_Systems/rnas/1uud

>  <Rbt.Executable>
rbdock ($Id: //depot/dev/client3/rdock/2013.1/src/exe/rbdock.cxx#4 $)

>  <Rbt.Library>
libRbt.so (2013.1, Build901 2013/11/27)

>  <Rbt.Parameter_File>
/export/apps/rDock/src/rDock_2013.1_src/data/scripts/dock_solv.prm

>  <Rbt.Receptor>
prm/blind_docking_60.prm

>  <SCORE>
-11.1081

>  <SCORE.INTER>
-14.1407

>  <SCORE.INTER.CONST>
1

>  <SCORE.INTER.POLAR>
-2.26892

>  <SCORE.INTER.ROT>
18

>  <SCORE.INTER.SOLV>
9.43554

>  <SCORE.INTER.VDW>
-20.6092

>  <SCORE.INTER.norm>
-0.565628

>  <SCORE.INTRA>
-0.739947

>  <SCORE.INTRA.DIHEDRAL>
11.675

>  <SCORE.INTRA.DIHEDRAL.0>
30.6762

>  <SCORE.INTRA.POLAR>
-0.971134

>  <SCORE.INTRA.POLAR.0>
-0.0288659

>  <SCORE.INTRA.REPUL>
0.0504679

>  <SCORE.INTRA.REPUL.0>
0

>  <SCORE.INTRA.SOLV>
0.874014

>  <SCORE.INTRA.SOLV.lig_0>
-25.2195

>  <SCORE.INTRA.VDW>
-3.96495

>  <SCORE.INTRA.VDW.0>
4.14263

>  <SCORE.INTRA.norm>
-0.0295979

>  <SCORE.RESTR>
3.77255

>  <SCORE.RESTR.CAVITY>
3.77255

>  <SCORE.RESTR.norm>
0.150902

>  <SCORE.SYSTEM>
0

>  <SCORE.SYSTEM.CONST>
0

>  <SCORE.SYSTEM.DIHEDRAL>
0

>  <SCORE.SYSTEM.SOLV>
0

>  <SCORE.SYSTEM.norm>
0

>  <SCORE.heavy>
25

>  <SCORE.norm>
-0.444323

>  <RMSD>
15.057

$$$$
1uud_lig
 OpenBabel11021811413D
libRbt.so/2013.1/901 2013/11/27
 25 25  0  0  0  0  0  0  0  0999 V2000
   -4.6711  -12.1825    9.7341 C   0  0  0  0  0  0  0  0  0  0  0  0
   -5.6670   -9.4840    9.1603 O   0  0  0  0  0  0  0  0  0  0  0  0
   -6.3682   -8.2594    9.4225 C   0  0  0  0  0  0  0  0  0  0  0  0
   -4.5993  -13.0470   10.9381 N   0  0  0  0  0  0  0  0  0  0  0  0
   -6.1804   -7.8452   10.8882 C   0  0  0  0  0  0  0  0  0  0  0  0
   -4.3637  -12.2140   12.1411 C   0  0  0  0  0  0  0  0  0  0  0  0
   -2.8933  -11.7809   12.1850 C   0  0  0  0  0  0  0  0  0  0  0  0
   -4.9025   -7.7225   11.1576 N   0  0  0  0  0  0  0  0  0  0  0  0
   -4.4841   -7.2300   12.3084 C   0  0  0  0  0  0  0  0  0  0  0  0
   -2.5476  -11.2511   13.5809 C   0  0  0  0  0  0  0  0  0  0  0  0
   -1.2784  -10.3976   13.5044 C   0  0  0  0  0  0  0  0  0  0  0  0
   -3.1577   -6.9952   12.5454 N   0  0  0  0  0  0  0  0  0  0  0  0
   -5.3914   -6.9513   13.2797 N   0  0  0  0  0  0  0  0  0  0  0  0
   -1.4896   -9.2335   14.0714 N   0  0  0  0  0  0  0  0  0  0  0  0
   -0.4965   -8.4082   14.3418 C   0  0  0  0  0  0  0  0  0  0  0  0
    0.6623   -8.9080   14.8427 N   0  0  0  0  0  0  0  0  0  0  0  0
   -0.6108   -7.0620   14.1393 N   0  0  0  0  0  0  0  0  0  0  0  0
   -6.5902  -10.5794    9.1116 C   0  0  0  0  0  0  0  0  0  0  0  0
   -9.3495  -13.8349    8.9174 O   0  0  0  0  0  0  0  0  0  0  0  0
   -6.1468  -11.9068    9.3786 C   0  0  0  0  0  0  0  0  0  0  0  0
   -7.0648  -12.9885    9.3049 C   0  0  0  0  0  0  0  0  0  0  0  0
   -8.4268  -12.7449    8.9868 C   0  0  0  0  0  0  0  0  0  0  0  0
   -8.8740  -11.4191    8.7395 C   0  0  0  0  0  0  0  0  0  0  0  0
   -7.9584  -10.3343    8.8086 C   0  0  0  0  0  0  0  0  0  0  0  0
  -10.2574  -13.7652   10.0207 C   0  0  0  0  0  0  0  0  0  0  0  0
  1  4  1  0  0  0  0
  2  3  1  0  0  0  0
  3  5  1  0  0  0  0
  4  6  1  0  0  0  0
  5  8  1  0  0  0  0
  6  7  1  0  0  0  0
  7 10  1  0  0  0  0
  8  9  1  0  0  0  0
  9 12  1  0  0  0  0
  9 13  1  0  0  0  0
 10 11  1  0  0  0  0
 11 14  1  0  0  0  0
 14 15  1  0  0  0  0
 15 16  1  0  0  0  0
 15 17  1  0  0  0  0
 18  2  1  0  0  0  0
 18 20  2  0  0  0  0
 18 24  1  0  0  0  0
 19 25  1  0  0  0  0
 20  1  1  0  0  0  0
 20 21  1  0  0  0  0
 21 22  2  0  0  0  0
 22 19  1  0  0  0  0
 22 23  1  0  0  0  0
 23 24  2  0  0  0  0
M  END
>  <CHROM.1>
-98.07568123,103.04722407,57.34912766,-76.42145840,172.26858219,-164.91827486
-160.79268812,-174.31377700,98.33998401,-134.01277039,128.39710836,168.14522878
-41.27458822,4.46608694,-176.21888567,-155.78492458,131.61310376,109.84418745
-4.84374998,-10.20871686,11.33801971,-2.66651823,-0.57470199,0.05802562

>  <Name>
1uud_lig

>  <RI>
0

>  <Rbt.Current_Directory>
/home/itssahil/PROJECTS/Mol_Feturizer/New_Systems/rnas/1uud

>  <Rbt.Executable>
rbdock ($Id: //depot/dev/client3/rdock/2013.1/src/exe/rbdock.cxx#4 $)

>  <Rbt.Library>
libRbt.so (2013.1, Build901 2013/11/27)

>  <Rbt.Parameter_File>
/export/apps/rDock/src/rDock_2013.1_src/data/scripts/dock_solv.prm

>  <Rbt.Receptor>
prm/blind_docking_80.prm

>  <SCORE>
-31.2404

>  <SCORE.INTER>
-28.9671

>  <SCORE.INTER.CONST>
1

>  <SCORE.INTER.POLAR>
-3.93232

>  <SCORE.INTER.ROT>
18

>  <SCORE.INTER.SOLV>
11.002

>  <SCORE.INTER.VDW>
-25.471

>  <SCORE.INTER.norm>
-1.15869

>  <SCORE.INTRA>
-2.88187

>  <SCORE.INTRA.DIHEDRAL>
1.22563

>  <SCORE.INTRA.DIHEDRAL.0>
30.6762

>  <SCORE.INTRA.POLAR>
-1.69804

>  <SCORE.INTRA.POLAR.0>
-0.0288659

>  <SCORE.INTRA.REPUL>
0

>  <SCORE.INTRA.REPUL.0>
0

>  <SCORE.INTRA.SOLV>
0.863712

>  <SCORE.INTRA.SOLV.lig_0>
-25.2195

>  <SCORE.INTRA.VDW>
1.84679

>  <SCORE.INTRA.VDW.0>
4.14263

>  <SCORE.INTRA.norm>
-0.115275

>  <SCORE.RESTR>
0.60858

>  <SCORE.RESTR.CAVITY>
0.60858

>  <SCORE.RESTR.norm>
0.0243432

>  <SCORE.SYSTEM>
0

>  <SCORE.SYSTEM.CONST>
0

>  <SCORE.SYSTEM.DIHEDRAL>
0

>  <SCORE.SYSTEM.SOLV>
0

>  <SCORE.SYSTEM.norm>
0

>  <SCORE.heavy>
25

>  <SCORE.norm>
-1.24962

>  <RMSD>
15.057

$$$$
1uud_lig
 OpenBabel11021811413D
libRbt.so/2013.1/901 2013/11/27
 25 25  0  0  0  0  0  0  0  0999 V2000
   -5.4255  -12.4605    8.7181 C   0  0  0  0  0  0  0  0  0  0  0  0
   -7.7215  -12.3743   10.5411 O   0  0  0  0  0  0  0  0  0  0  0  0
   -8.2618  -13.7032   10.4918 C   0  0  0  0  0  0  0  0  0  0  0  0
   -6.3290  -11.3592    8.3022 N   0  0  0  0  0  0  0  0  0  0  0  0
   -9.2828  -13.8176    9.3518 C   0  0  0  0  0  0  0  0  0  0  0  0
   -5.6697  -10.0529    8.5378 C   0  0  0  0  0  0  0  0  0  0  0  0
   -6.1873   -9.4459    9.8475 C   0  0  0  0  0  0  0  0  0  0  0  0
  -10.2392  -12.9354    9.5184 N   0  0  0  0  0  0  0  0  0  0  0  0
  -10.2436  -11.7902    8.8624 C   0  0  0  0  0  0  0  0  0  0  0  0
   -5.5970   -8.0450   10.0418 C   0  0  0  0  0  0  0  0  0  0  0  0
   -4.1275   -8.1620   10.4566 C   0  0  0  0  0  0  0  0  0  0  0  0
  -11.1674  -11.5278    7.8886 N   0  0  0  0  0  0  0  0  0  0  0  0
   -9.3084  -10.8516    9.1603 N   0  0  0  0  0  0  0  0  0  0  0  0
   -4.0466   -8.4385   11.7366 N   0  0  0  0  0  0  0  0  0  0  0  0
   -3.7396   -7.5117   12.6239 C   0  0  0  0  0  0  0  0  0  0  0  0
   -4.6042   -7.2542   13.6387 N   0  0  0  0  0  0  0  0  0  0  0  0
   -2.5774   -6.7987   12.5396 N   0  0  0  0  0  0  0  0  0  0  0  0
   -6.4026  -12.3995   11.1018 C   0  0  0  0  0  0  0  0  0  0  0  0
   -2.4822  -12.5188   12.7948 O   0  0  0  0  0  0  0  0  0  0  0  0
   -5.2600  -12.4468   10.2519 C   0  0  0  0  0  0  0  0  0  0  0  0
   -3.9579  -12.4950   10.8179 C   0  0  0  0  0  0  0  0  0  0  0  0
   -3.7941  -12.4744   12.2279 C   0  0  0  0  0  0  0  0  0  0  0  0
   -4.9322  -12.4075   13.0759 C   0  0  0  0  0  0  0  0  0  0  0  0
   -6.2370  -12.3627   12.5142 C   0  0  0  0  0  0  0  0  0  0  0  0
   -2.0698  -11.1966   13.1528 C   0  0  0  0  0  0  0  0  0  0  0  0
  1  4  1  0  0  0  0
  2  3  1  0  0  0  0
  3  5  1  0  0  0  0
  4  6  1  0  0  0  0
  5  8  1  0  0  0  0
  6  7  1  0  0  0  0
  7 10  1  0  0  0  0
  8  9  1  0  0  0  0
  9 12  1  0  0  0  0
  9 13  1  0  0  0  0
 10 11  1  0  0  0  0
 11 14  1  0  0  0  0
 14 15  1  0  0  0  0
 15 16  1  0  0  0  0
 15 17  1  0  0  0  0
 18  2  1  0  0  0  0
 18 20  2  0  0  0  0
 18 24  1  0  0  0  0
 19 25  1  0  0  0  0
 20  1  1  0  0  0  0
 20 21  1  0  0  0  0
 21 22  2  0  0  0  0
 22 19  1  0  0  0  0
 22 23  1  0  0  0  0
 23 24  2  0  0  0  0
M  END
>  <CHROM.1>
68.28142167,-152.64917526,-57.81519385,-99.51752953,99.23600221,-175.43442459
-74.53195238,110.78356007,-59.19145265,-179.77962885,-79.69415238,-102.56611323
122.05814782,59.82909587,99.19114380,95.45729379,50.42007631,99.01853611
-6.01635304,-10.93799397,10.71459727,-2.75313492,-0.55829700,-0.12582857

>  <Name>
1uud_lig

>  <RI>
0

>  <Rbt.Current_Directory>
/home/itssahil/PROJECTS/Mol_Feturizer/New_Systems/rnas/1uud

>  <Rbt.Executable>
rbdock ($Id: //depot/dev/client3/rdock/2013.1/src/exe/rbdock.cxx#4 $)

>  <Rbt.Library>
libRbt.so (2013.1, Build901 2013/11/27)

>  <Rbt.Parameter_File>
/export/apps/rDock/src/rDock_2013.1_src/data/scripts/dock_solv.prm

>  <Rbt.Receptor>
prm/blind_docking_20.prm

>  <SCORE>
-42.4213

>  <SCORE.INTER>
-26.3875

>  <SCORE.INTER.CONST>
1

>  <SCORE.INTER.POLAR>
-3.93916

>  <SCORE.INTER.ROT>
18

>  <SCORE.INTER.SOLV>
10.9513

>  <SCORE.INTER.VDW>
-23.7115

>  <SCORE.INTER.norm>
-1.0555

>  <SCORE.INTRA>
-16.0338

>  <SCORE.INTRA.DIHEDRAL>
-2.70287

>  <SCORE.INTRA.DIHEDRAL.0>
30.6762

>  <SCORE.INTRA.POLAR>
-2.36719

>  <SCORE.INTRA.POLAR.0>
-0.0288659

>  <SCORE.INTRA.REPUL>
0

>  <SCORE.INTRA.REPUL.0>
0

>  <SCORE.INTRA.SOLV>
1.37684

>  <SCORE.INTRA.SOLV.lig_0>
-25.2195

>  <SCORE.INTRA.VDW>
-7.32233

>  <SCORE.INTRA.VDW.0>
4.14263

>  <SCORE.INTRA.norm>
-0.641352

>  <SCORE.RESTR>
0

>  <SCORE.RESTR.CAVITY>
0

>  <SCORE.RESTR.norm>
0

>  <SCORE.SYSTEM>
0

>  <SCORE.SYSTEM.CONST>
0

>  <SCORE.SYSTEM.DIHEDRAL>
0

>  <SCORE.SYSTEM.SOLV>
0

>  <SCORE.SYSTEM.norm>
0

>  <SCORE.heavy>
25

>  <SCORE.norm>
-1.69685

>  <RMSD>
15.076

$$$$
1uud_lig
 OpenBabel11021811413D
libRbt.so/2013.1/901 2013/11/27
 25 25  0  0  0  0  0  0  0  0999 V2000
   -5.6337  -12.7369    9.9497 C   0  0  0  0  0  0  0  0  0  0  0  0
   -8.3120  -12.7256    8.7542 O   0  0  0  0  0  0  0  0  0  0  0  0
   -8.6489  -11.3600    9.0400 C   0  0  0  0  0  0  0  0  0  0  0  0
   -5.1193  -11.7163   10.8963 N   0  0  0  0  0  0  0  0  0  0  0  0
   -8.1031  -10.4388    7.9406 C   0  0  0  0  0  0  0  0  0  0  0  0
   -6.0285  -10.5460   10.9155 C   0  0  0  0  0  0  0  0  0  0  0  0
   -5.2208   -9.2650   10.6737 C   0  0  0  0  0  0  0  0  0  0  0  0
   -6.8338  -10.6959    7.7317 N   0  0  0  0  0  0  0  0  0  0  0  0
   -6.4375  -11.4274    6.7071 C   0  0  0  0  0  0  0  0  0  0  0  0
   -4.5463   -8.8206   11.9761 C   0  0  0  0  0  0  0  0  0  0  0  0
   -4.0438   -7.3817   11.8269 C   0  0  0  0  0  0  0  0  0  0  0  0
   -6.3284  -12.7876    6.7996 N   0  0  0  0  0  0  0  0  0  0  0  0
   -6.1297  -10.8151    5.5346 N   0  0  0  0  0  0  0  0  0  0  0  0
   -4.5958   -6.6200   12.7414 N   0  0  0  0  0  0  0  0  0  0  0  0
   -5.3029   -7.1324   13.7303 C   0  0  0  0  0  0  0  0  0  0  0  0
   -6.5902   -7.4996   13.5030 N   0  0  0  0  0  0  0  0  0  0  0  0
   -4.7734   -7.2924   14.9793 N   0  0  0  0  0  0  0  0  0  0  0  0
   -8.1102  -13.4488    9.9752 C   0  0  0  0  0  0  0  0  0  0  0  0
   -7.5208  -15.6472   13.5904 O   0  0  0  0  0  0  0  0  0  0  0  0
   -6.8237  -13.4843   10.5865 C   0  0  0  0  0  0  0  0  0  0  0  0
   -6.6287  -14.2232   11.7841 C   0  0  0  0  0  0  0  0  0  0  0  0
   -7.7189  -14.9077   12.3828 C   0  0  0  0  0  0  0  0  0  0  0  0
   -9.0066  -14.8568   11.7844 C   0  0  0  0  0  0  0  0  0  0  0  0
   -9.2055  -14.1218   10.5843 C   0  0  0  0  0  0  0  0  0  0  0  0
   -6.9925  -14.7828   14.6005 C   0  0  0  0  0  0  0  0  0  0  0  0
  1  4  1  0  0  0  0
  2  3  1  0  0  0  0
  3  5  1  0  0  0  0
  4  6  1  0  0  0  0
  5  8  1  0  0  0  0
  6  7  1  0  0  0  0
  7 10  1  0  0  0  0
  8  9  1  0  0  0  0
  9 12  1  0  0  0  0
  9 13  1  0  0  0  0
 10 11  1  0  0  0  0
 11 14  1  0  0  0  0
 14 15  1  0  0  0  0
 15 16  1  0  0  0  0
 15 17  1  0  0  0  0
 18  2  1  0  0  0  0
 18 20  2  0  0  0  0
 18 24  1  0  0  0  0
 19 25  1  0  0  0  0
 20  1  1  0  0  0  0
 20 21  1  0  0  0  0
 21 22  2  0  0  0  0
 22 19  1  0  0  0  0
 22 23  1  0  0  0  0
 23 24  2  0  0  0  0
M  END
>  <CHROM.1>
-76.27153288,147.62827488,-50.37500023,-127.77575301,100.94892785,-80.67184662
-165.83642060,-89.05914331,120.16820948,26.43837371,121.41688376,9.38220047
-79.97336716,-60.48897523,-60.87783058,-88.35488342,119.41086589,57.02774883
-6.54381634,-11.31860314,10.75769963,-2.87689537,1.18622699,1.76903510

>  <Name>
1uud_lig

>  <RI>
0

>  <Rbt.Current_Directory>
/home/itssahil/PROJECTS/Mol_Feturizer/New_Systems/rnas/1uud

>  <Rbt.Executable>
rbdock ($Id: //depot/dev/client3/rdock/2013.1/src/exe/rbdock.cxx#4 $)

>  <Rbt.Library>
libRbt.so (2013.1, Build901 2013/11/27)

>  <Rbt.Parameter_File>
/export/apps/rDock/src/rDock_2013.1_src/data/scripts/dock_solv.prm

>  <Rbt.Receptor>
prm/blind_docking_60.prm

>  <SCORE>
-10.0197

>  <SCORE.INTER>
-17.828

>  <SCORE.INTER.CONST>
1

>  <SCORE.INTER.POLAR>
-2.43509

>  <SCORE.INTER.ROT>
18

>  <SCORE.INTER.SOLV>
10.2971

>  <SCORE.INTER.VDW>
-22.8007

>  <SCORE.INTER.norm>
-0.713119

>  <SCORE.INTRA>
3.86278

>  <SCORE.INTRA.DIHEDRAL>
4.04888

>  <SCORE.INTRA.DIHEDRAL.0>
30.6762

>  <SCORE.INTRA.POLAR>
0.0288659

>  <SCORE.INTRA.POLAR.0>
-0.0288659

>  <SCORE.INTRA.REPUL>
0

>  <SCORE.INTRA.REPUL.0>
0

>  <SCORE.INTRA.SOLV>
1.35247

>  <SCORE.INTRA.SOLV.lig_0>
-25.2195

>  <SCORE.INTRA.VDW>
1.06396

>  <SCORE.INTRA.VDW.0>
4.14263

>  <SCORE.INTRA.norm>
0.154511

>  <SCORE.RESTR>
3.94546

>  <SCORE.RESTR.CAVITY>
3.94546

>  <SCORE.RESTR.norm>
0.157818

>  <SCORE.SYSTEM>
0

>  <SCORE.SYSTEM.CONST>
0

>  <SCORE.SYSTEM.DIHEDRAL>
0

>  <SCORE.SYSTEM.SOLV>
0

>  <SCORE.SYSTEM.norm>
0

>  <SCORE.heavy>
25

>  <SCORE.norm>
-0.40079

>  <RMSD>
15.079

$$$$
1uud_lig
 OpenBabel11021811413D
libRbt.so/2013.1/901 2013/11/27
 25 25  0  0  0  0  0  0  0  0999 V2000
   -5.1674  -11.7441    9.0173 C   0  0  0  0  0  0  0  0  0  0  0  0
   -6.8023  -11.6179   11.4491 O   0  0  0  0  0  0  0  0  0  0  0  0
   -5.9202  -11.9729   12.5243 C   0  0  0  0  0  0  0  0  0  0  0  0
   -6.2335  -12.1943    8.0883 N   0  0  0  0  0  0  0  0  0  0  0  0
   -5.4488  -13.4247   12.3650 C   0  0  0  0  0  0  0  0  0  0  0  0
   -7.3419  -12.8092    8.8563 C   0  0  0  0  0  0  0  0  0  0  0  0
   -8.6826  -12.4253    8.2184 C   0  0  0  0  0  0  0  0  0  0  0  0
   -6.2925  -14.0881   11.6108 N   0  0  0  0  0  0  0  0  0  0  0  0
   -7.4364  -14.5410   12.0887 C   0  0  0  0  0  0  0  0  0  0  0  0
   -9.0657  -10.9994    8.6289 C   0  0  0  0  0  0  0  0  0  0  0  0
  -10.3623  -10.5943    7.9218 C   0  0  0  0  0  0  0  0  0  0  0  0
   -7.4744  -15.4566   13.1041 N   0  0  0  0  0  0  0  0  0  0  0  0
   -8.6021  -14.0884   11.5591 N   0  0  0  0  0  0  0  0  0  0  0  0
  -11.3845  -10.7861    8.7216 N   0  0  0  0  0  0  0  0  0  0  0  0
  -11.9765  -11.9614    8.8139 C   0  0  0  0  0  0  0  0  0  0  0  0
  -12.4916  -12.5331    7.6953 N   0  0  0  0  0  0  0  0  0  0  0  0
  -12.0922  -12.6113   10.0099 N   0  0  0  0  0  0  0  0  0  0  0  0
   -6.3749  -10.3894   10.8468 C   0  0  0  0  0  0  0  0  0  0  0  0
   -5.0749   -6.7170    9.0936 O   0  0  0  0  0  0  0  0  0  0  0  0
   -5.5751  -10.4059    9.6678 C   0  0  0  0  0  0  0  0  0  0  0  0
   -5.1372   -9.1833    9.0918 C   0  0  0  0  0  0  0  0  0  0  0  0
   -5.5136   -7.9462    9.6777 C   0  0  0  0  0  0  0  0  0  0  0  0
   -6.3274   -7.9283   10.8423 C   0  0  0  0  0  0  0  0  0  0  0  0
   -6.7649   -9.1491   11.4240 C   0  0  0  0  0  0  0  0  0  0  0  0
   -5.9422   -6.3640    8.0120 C   0  0  0  0  0  0  0  0  0  0  0  0
  1  4  1  0  0  0  0
  2  3  1  0  0  0  0
  3  5  1  0  0  0  0
  4  6  1  0  0  0  0
  5  8  1  0  0  0  0
  6  7  1  0  0  0  0
  7 10  1  0  0  0  0
  8  9  1  0  0  0  0
  9 12  1  0  0  0  0
  9 13  1  0  0  0  0
 10 11  1  0  0  0  0
 11 14  1  0  0  0  0
 14 15  1  0  0  0  0
 15 16  1  0  0  0  0
 15 17  1  0  0  0  0
 18  2  1  0  0  0  0
 18 20  2  0  0  0  0
 18 24  1  0  0  0  0
 19 25  1  0  0  0  0
 20  1  1  0  0  0  0
 20 21  1  0  0  0  0
 21 22  2  0  0  0  0
 22 19  1  0  0  0  0
 22 23  1  0  0  0  0
 23 24  2  0  0  0  0
M  END
>  <CHROM.1>
-78.90083277,-129.19291319,-21.98462946,142.04946387,-78.68331166,-78.67798977
176.65679778,-61.79145288,118.75898009,-43.06700269,97.03760126,-85.31929059
-57.49931426,-77.51119072,110.59763442,96.98091493,86.26827084,82.72220114
-7.64848231,-11.34569437,9.96363928,-0.76810199,0.41499500,2.62192560

>  <Name>
1uud_lig

>  <RI>
0

>  <Rbt.Current_Directory>
/home/itssahil/PROJECTS/Mol_Feturizer/New_Systems/rnas/1uud

>  <Rbt.Executable>
rbdock ($Id: //depot/dev/client3/rdock/2013.1/src/exe/rbdock.cxx#4 $)

>  <Rbt.Library>
libRbt.so (2013.1, Build901 2013/11/27)

>  <Rbt.Parameter_File>
/export/apps/rDock/src/rDock_2013.1_src/data/scripts/dock_solv.prm

>  <Rbt.Receptor>
prm/blind_docking_100.prm

>  <SCORE>
-27.3765

>  <SCORE.INTER>
-25.3567

>  <SCORE.INTER.CONST>
1

>  <SCORE.INTER.POLAR>
-4.26971

>  <SCORE.INTER.ROT>
18

>  <SCORE.INTER.SOLV>
9.07932

>  <SCORE.INTER.VDW>
-21.2985

>  <SCORE.INTER.norm>
-1.01427

>  <SCORE.INTRA>
-3.14781

>  <SCORE.INTRA.DIHEDRAL>
8.08545

>  <SCORE.INTRA.DIHEDRAL.0>
30.6762

>  <SCORE.INTRA.POLAR>
-0.0403793

>  <SCORE.INTRA.POLAR.0>
-0.0288659

>  <SCORE.INTRA.REPUL>
0

>  <SCORE.INTRA.REPUL.0>
0

>  <SCORE.INTRA.SOLV>
1.32363

>  <SCORE.INTRA.SOLV.lig_0>
-25.2195

>  <SCORE.INTRA.VDW>
-7.71507

>  <SCORE.INTRA.VDW.0>
4.14263

>  <SCORE.INTRA.norm>
-0.125913

>  <SCORE.RESTR>
1.12801

>  <SCORE.RESTR.CAVITY>
1.12801

>  <SCORE.RESTR.norm>
0.0451205

>  <SCORE.SYSTEM>
0

>  <SCORE.SYSTEM.CONST>
0

>  <SCORE.SYSTEM.DIHEDRAL>
0

>  <SCORE.SYSTEM.SOLV>
0

>  <SCORE.SYSTEM.norm>
0

>  <SCORE.heavy>
25

>  <SCORE.norm>
-1.09506

>  <RMSD>
15.087

$$$$
1uud_lig
 OpenBabel11021811413D
libRbt.so/2013.1/901 2013/11/27
 25 25  0  0  0  0  0  0  0  0999 V2000
   -4.4166  -12.9523    9.1264 C   0  0  0  0  0  0  0  0  0  0  0  0
   -4.3673  -10.0202    9.1806 O   0  0  0  0  0  0  0  0  0  0  0  0
   -4.2499   -9.6974   10.5742 C   0  0  0  0  0  0  0  0  0  0  0  0
   -4.1134  -13.0081   10.5780 N   0  0  0  0  0  0  0  0  0  0  0  0
   -4.6496   -8.2353   10.8145 C   0  0  0  0  0  0  0  0  0  0  0  0
   -5.2718  -13.5709   11.3116 C   0  0  0  0  0  0  0  0  0  0  0  0
   -6.2936  -12.4608   11.5859 C   0  0  0  0  0  0  0  0  0  0  0  0
   -5.6159   -8.1760   11.6997 N   0  0  0  0  0  0  0  0  0  0  0  0
   -6.7677   -7.5926   11.4259 C   0  0  0  0  0  0  0  0  0  0  0  0
   -6.0880  -11.9005   12.9975 C   0  0  0  0  0  0  0  0  0  0  0  0
   -6.7860  -12.8079   14.0148 C   0  0  0  0  0  0  0  0  0  0  0  0
   -6.9074   -6.7545   10.3541 N   0  0  0  0  0  0  0  0  0  0  0  0
   -7.8380   -7.8289   12.2276 N   0  0  0  0  0  0  0  0  0  0  0  0
   -8.0111  -13.0607   13.6193 N   0  0  0  0  0  0  0  0  0  0  0  0
   -8.3444  -14.2331   13.1144 C   0  0  0  0  0  0  0  0  0  0  0  0
   -9.6109  -14.4241   12.6637 N   0  0  0  0  0  0  0  0  0  0  0  0
   -7.4483  -15.2618   13.0442 N   0  0  0  0  0  0  0  0  0  0  0  0
   -5.6154  -10.6796    8.9314 C   0  0  0  0  0  0  0  0  0  0  0  0
   -9.3370  -12.6233    8.1430 O   0  0  0  0  0  0  0  0  0  0  0  0
   -5.6824  -12.1022    8.8915 C   0  0  0  0  0  0  0  0  0  0  0  0
   -6.9197  -12.7457    8.6207 C   0  0  0  0  0  0  0  0  0  0  0  0
   -8.0922  -11.9731    8.4113 C   0  0  0  0  0  0  0  0  0  0  0  0
   -8.0302  -10.5547    8.4702 C   0  0  0  0  0  0  0  0  0  0  0  0
   -6.7938   -9.9066    8.7373 C   0  0  0  0  0  0  0  0  0  0  0  0
  -10.0098  -12.8976    9.3754 C   0  0  0  0  0  0  0  0  0  0  0  0
  1  4  1  0  0  0  0
  2  3  1  0  0  0  0
  3  5  1  0  0  0  0
  4  6  1  0  0  0  0
  5  8  1  0  0  0  0
  6  7  1  0  0  0  0
  7 10  1  0  0  0  0
  8  9  1  0  0  0  0
  9 12  1  0  0  0  0
  9 13  1  0  0  0  0
 10 11  1  0  0  0  0
 11 14  1  0  0  0  0
 14 15  1  0  0  0  0
 15 16  1  0  0  0  0
 15 17  1  0  0  0  0
 18  2  1  0  0  0  0
 18 20  2  0  0  0  0
 18 24  1  0  0  0  0
 19 25  1  0  0  0  0
 20  1  1  0  0  0  0
 20 21  1  0  0  0  0
 21 22  2  0  0  0  0
 22 19  1  0  0  0  0
 22 23  1  0  0  0  0
 23 24  2  0  0  0  0
M  END
>  <CHROM.1>
57.88483205,-97.83345081,123.53960364,-83.42013012,-123.11924157,-96.38281251
-82.21779690,-15.87650293,-132.45914794,124.63893516,-48.55848190,105.18666631
-177.02452603,-164.24213241,71.40563042,-95.81456351,77.85724846,89.28225277
-6.71221145,-11.42088662,10.77546881,2.80957464,1.20649191,1.61432405

>  <Name>
1uud_lig

>  <RI>
0

>  <Rbt.Current_Directory>
/home/itssahil/PROJECTS/Mol_Feturizer/New_Systems/rnas/1uud

>  <Rbt.Executable>
rbdock ($Id: //depot/dev/client3/rdock/2013.1/src/exe/rbdock.cxx#4 $)

>  <Rbt.Library>
libRbt.so (2013.1, Build901 2013/11/27)

>  <Rbt.Parameter_File>
/export/apps/rDock/src/rDock_2013.1_src/data/scripts/dock_solv.prm

>  <Rbt.Receptor>
prm/blind_docking_100.prm

>  <SCORE>
-21.1187

>  <SCORE.INTER>
-22.8844

>  <SCORE.INTER.CONST>
1

>  <SCORE.INTER.POLAR>
-3.46875

>  <SCORE.INTER.ROT>
18

>  <SCORE.INTER.SOLV>
10.6961

>  <SCORE.INTER.VDW>
-22.8591

>  <SCORE.INTER.norm>
-0.915375

>  <SCORE.INTRA>
0.916732

>  <SCORE.INTRA.DIHEDRAL>
6.91258

>  <SCORE.INTRA.DIHEDRAL.0>
30.6762

>  <SCORE.INTRA.POLAR>
0.0288659

>  <SCORE.INTRA.POLAR.0>
-0.0288659

>  <SCORE.INTRA.REPUL>
0

>  <SCORE.INTRA.REPUL.0>
0

>  <SCORE.INTRA.SOLV>
0.753712

>  <SCORE.INTRA.SOLV.lig_0>
-25.2195

>  <SCORE.INTRA.VDW>
-3.01456

>  <SCORE.INTRA.VDW.0>
4.14263

>  <SCORE.INTRA.norm>
0.0366693

>  <SCORE.RESTR>
0.848899

>  <SCORE.RESTR.CAVITY>
0.848899

>  <SCORE.RESTR.norm>
0.033956

>  <SCORE.SYSTEM>
0

>  <SCORE.SYSTEM.CONST>
0

>  <SCORE.SYSTEM.DIHEDRAL>
0

>  <SCORE.SYSTEM.SOLV>
0

>  <SCORE.SYSTEM.norm>
0

>  <SCORE.heavy>
25

>  <SCORE.norm>
-0.844749

>  <RMSD>
15.097

$$$$
1uud_lig
 OpenBabel11021811413D
libRbt.so/2013.1/901 2013/11/27
 25 25  0  0  0  0  0  0  0  0999 V2000
   -4.6636  -12.4436   11.6993 C   0  0  0  0  0  0  0  0  0  0  0  0
   -7.5624  -12.7508   11.3751 O   0  0  0  0  0  0  0  0  0  0  0  0
   -7.7569  -13.9926   10.6820 C   0  0  0  0  0  0  0  0  0  0  0  0
   -4.3611  -11.5883   12.8736 N   0  0  0  0  0  0  0  0  0  0  0  0
   -9.1151  -14.6009   11.0566 C   0  0  0  0  0  0  0  0  0  0  0  0
   -3.2284  -10.6857   12.5589 C   0  0  0  0  0  0  0  0  0  0  0  0
   -3.1766   -9.5498   13.5878 C   0  0  0  0  0  0  0  0  0  0  0  0
  -10.0758  -13.9764   10.4179 N   0  0  0  0  0  0  0  0  0  0  0  0
  -10.8380  -14.5990    9.5384 C   0  0  0  0  0  0  0  0  0  0  0  0
   -1.7514   -8.9936   13.6788 C   0  0  0  0  0  0  0  0  0  0  0  0
   -1.0265   -9.6352   14.8654 C   0  0  0  0  0  0  0  0  0  0  0  0
  -11.7252  -13.9170    8.7520 N   0  0  0  0  0  0  0  0  0  0  0  0
  -10.7399  -15.9476    9.4128 N   0  0  0  0  0  0  0  0  0  0  0  0
    0.1209   -9.0314   15.0657 N   0  0  0  0  0  0  0  0  0  0  0  0
    0.1870   -7.7326   15.2873 C   0  0  0  0  0  0  0  0  0  0  0  0
    1.2781   -7.0434   14.8650 N   0  0  0  0  0  0  0  0  0  0  0  0
   -0.8114   -7.0674   15.9405 N   0  0  0  0  0  0  0  0  0  0  0  0
   -6.8741  -11.8186   10.5315 C   0  0  0  0  0  0  0  0  0  0  0  0
   -4.8496   -9.0025    8.0373 O   0  0  0  0  0  0  0  0  0  0  0  0
   -5.4670  -11.6349   10.6597 C   0  0  0  0  0  0  0  0  0  0  0  0
   -4.7978  -10.6916    9.8347 C   0  0  0  0  0  0  0  0  0  0  0  0
   -5.5263   -9.9483    8.8692 C   0  0  0  0  0  0  0  0  0  0  0  0
   -6.9264  -10.1449    8.7273 C   0  0  0  0  0  0  0  0  0  0  0  0
   -7.6006  -11.0850    9.5529 C   0  0  0  0  0  0  0  0  0  0  0  0
   -5.2292   -7.6755    8.4136 C   0  0  0  0  0  0  0  0  0  0  0  0
  1  4  1  0  0  0  0
  2  3  1  0  0  0  0
  3  5  1  0  0  0  0
  4  6  1  0  0  0  0
  5  8  1  0  0  0  0
  6  7  1  0  0  0  0
  7 10  1  0  0  0  0
  8  9  1  0  0  0  0
  9 12  1  0  0  0  0
  9 13  1  0  0  0  0
 10 11  1  0  0  0  0
 11 14  1  0  0  0  0
 14 15  1  0  0  0  0
 15 16  1  0  0  0  0
 15 17  1  0  0  0  0
 18  2  1  0  0  0  0
 18 20  2  0  0  0  0
 18 24  1  0  0  0  0
 19 25  1  0  0  0  0
 20  1  1  0  0  0  0
 20 21  1  0  0  0  0
 21 22  2  0  0  0  0
 22 19  1  0  0  0  0
 22 23  1  0  0  0  0
 23 24  2  0  0  0  0
M  END
>  <CHROM.1>
-78.36906342,-143.43103826,77.23583267,163.80203126,116.48115694,155.32968116
-97.25791497,-171.68584218,178.15885450,-62.33075768,-171.13291665,57.07150238
-148.40619061,-70.24240807,140.13060542,-98.17539063,-102.50592808,-109.73948196
-5.28813569,-11.01441264,11.49482216,3.09963880,-0.68582930,-0.91323687

>  <Name>
1uud_lig

>  <RI>
0

>  <Rbt.Current_Directory>
/home/itssahil/PROJECTS/Mol_Feturizer/New_Systems/rnas/1uud

>  <Rbt.Executable>
rbdock ($Id: //depot/dev/client3/rdock/2013.1/src/exe/rbdock.cxx#4 $)

>  <Rbt.Library>
libRbt.so (2013.1, Build901 2013/11/27)

>  <Rbt.Parameter_File>
/export/apps/rDock/src/rDock_2013.1_src/data/scripts/dock_solv.prm

>  <Rbt.Receptor>
prm/blind_docking_40.prm

>  <SCORE>
-23.532

>  <SCORE.INTER>
-22.1771

>  <SCORE.INTER.CONST>
1

>  <SCORE.INTER.POLAR>
-4.93541

>  <SCORE.INTER.ROT>
18

>  <SCORE.INTER.SOLV>
7.74361

>  <SCORE.INTER.VDW>
-16.5146

>  <SCORE.INTER.norm>
-0.887086

>  <SCORE.INTRA>
-1.56739

>  <SCORE.INTRA.DIHEDRAL>
2.3456

>  <SCORE.INTRA.DIHEDRAL.0>
30.6762

>  <SCORE.INTRA.POLAR>
0.0288659

>  <SCORE.INTRA.POLAR.0>
-0.0288659

>  <SCORE.INTRA.REPUL>
0

>  <SCORE.INTRA.REPUL.0>
0

>  <SCORE.INTRA.SOLV>
-0.718282

>  <SCORE.INTRA.SOLV.lig_0>
-25.2195

>  <SCORE.INTRA.VDW>
-2.47919

>  <SCORE.INTRA.VDW.0>
4.14263

>  <SCORE.INTRA.norm>
-0.0626957

>  <SCORE.RESTR>
0.212554

>  <SCORE.RESTR.CAVITY>
0.212554

>  <SCORE.RESTR.norm>
0.00850217

>  <SCORE.SYSTEM>
0

>  <SCORE.SYSTEM.CONST>
0

>  <SCORE.SYSTEM.DIHEDRAL>
0

>  <SCORE.SYSTEM.SOLV>
0

>  <SCORE.SYSTEM.norm>
0

>  <SCORE.heavy>
25

>  <SCORE.norm>
-0.941279

>  <RMSD>
15.099

$$$$
1uud_lig
 OpenBabel11021811413D
libRbt.so/2013.1/901 2013/11/27
 25 25  0  0  0  0  0  0  0  0999 V2000
   -7.0077  -10.9069    7.4931 C   0  0  0  0  0  0  0  0  0  0  0  0
   -7.1036   -8.7448    9.4726 O   0  0  0  0  0  0  0  0  0  0  0  0
   -6.3506   -8.1666    8.3961 C   0  0  0  0  0  0  0  0  0  0  0  0
   -8.4089  -10.4208    7.5410 N   0  0  0  0  0  0  0  0  0  0  0  0
   -5.1603   -7.3718    8.9498 C   0  0  0  0  0  0  0  0  0  0  0  0
   -9.3336  -11.5687    7.6959 C   0  0  0  0  0  0  0  0  0  0  0  0
  -10.1556  -11.3955    8.9789 C   0  0  0  0  0  0  0  0  0  0  0  0
   -4.6193   -8.0190    9.9544 N   0  0  0  0  0  0  0  0  0  0  0  0
   -4.6043   -7.5132   11.1733 C   0  0  0  0  0  0  0  0  0  0  0  0
  -10.4072  -12.7622    9.6251 C   0  0  0  0  0  0  0  0  0  0  0  0
   -9.0895  -13.3214   10.1691 C   0  0  0  0  0  0  0  0  0  0  0  0
   -5.7564   -7.3425   11.8905 N   0  0  0  0  0  0  0  0  0  0  0  0
   -3.4180   -7.1528   11.7274 N   0  0  0  0  0  0  0  0  0  0  0  0
   -9.3308  -14.3386   10.9619 N   0  0  0  0  0  0  0  0  0  0  0  0
   -8.4384  -14.7553   11.8397 C   0  0  0  0  0  0  0  0  0  0  0  0
   -7.5649  -13.8619   12.3711 N   0  0  0  0  0  0  0  0  0  0  0  0
   -8.3663  -16.0659   12.2182 N   0  0  0  0  0  0  0  0  0  0  0  0
   -6.5286  -10.0002    9.8571 C   0  0  0  0  0  0  0  0  0  0  0  0
   -4.8509  -13.7475   11.0379 O   0  0  0  0  0  0  0  0  0  0  0  0
   -6.4670  -11.0784    8.9278 C   0  0  0  0  0  0  0  0  0  0  0  0
   -5.9163  -12.3260    9.3258 C   0  0  0  0  0  0  0  0  0  0  0  0
   -5.4084  -12.4919   10.6411 C   0  0  0  0  0  0  0  0  0  0  0  0
   -5.4516  -11.4112   11.5626 C   0  0  0  0  0  0  0  0  0  0  0  0
   -6.0049  -10.1624   11.1698 C   0  0  0  0  0  0  0  0  0  0  0  0
   -3.4781  -13.5696   11.3986 C   0  0  0  0  0  0  0  0  0  0  0  0
  1  4  1  0  0  0  0
  2  3  1  0  0  0  0
  3  5  1  0  0  0  0
  4  6  1  0  0  0  0
  5  8  1  0  0  0  0
  6  7  1  0  0  0  0
  7 10  1  0  0  0  0
  8  9  1  0  0  0  0
  9 12  1  0  0  0  0
  9 13  1  0  0  0  0
 10 11  1  0  0  0  0
 11 14  1  0  0  0  0
 14 15  1  0  0  0  0
 15 16  1  0  0  0  0
 15 17  1  0  0  0  0
 18  2  1  0  0  0  0
 18 20  2  0  0  0  0
 18 24  1  0  0  0  0
 19 25  1  0  0  0  0
 20  1  1  0  0  0  0
 20 21  1  0  0  0  0
 21 22  2  0  0  0  0
 22 19  1  0  0  0  0
 22 23  1  0  0  0  0
 23 24  2  0  0  0  0
M  END
>  <CHROM.1>
-84.88509743,-85.26244705,40.18270460,121.01355160,-116.88553012,-144.72136364
68.91408509,67.28512362,86.62452667,176.90001144,166.73905968,-160.58152646
29.66535736,-116.11772242,55.75076166,-61.99730732,-53.64654093,118.95105981
-6.77081111,-11.14139506,10.20632705,0.96884164,-0.57585582,-0.45396700

>  <Name>
1uud_lig

>  <RI>
0

>  <Rbt.Current_Directory>
/home/itssahil/PROJECTS/Mol_Feturizer/New_Systems/rnas/1uud

>  <Rbt.Executable>
rbdock ($Id: //depot/dev/client3/rdock/2013.1/src/exe/rbdock.cxx#4 $)

>  <Rbt.Library>
libRbt.so (2013.1, Build901 2013/11/27)

>  <Rbt.Parameter_File>
/export/apps/rDock/src/rDock_2013.1_src/data/scripts/dock_solv.prm

>  <Rbt.Receptor>
prm/blind_docking_60.prm

>  <SCORE>
-15.4876

>  <SCORE.INTER>
-10.4459

>  <SCORE.INTER.CONST>
1

>  <SCORE.INTER.POLAR>
-2.87801

>  <SCORE.INTER.ROT>
18

>  <SCORE.INTER.SOLV>
10.785

>  <SCORE.INTER.VDW>
-16.5656

>  <SCORE.INTER.norm>
-0.417838

>  <SCORE.INTRA>
-6.34904

>  <SCORE.INTRA.DIHEDRAL>
0.565241

>  <SCORE.INTRA.DIHEDRAL.0>
30.6762

>  <SCORE.INTRA.POLAR>
-1.22752

>  <SCORE.INTRA.POLAR.0>
-0.0288659

>  <SCORE.INTRA.REPUL>
0

>  <SCORE.INTRA.REPUL.0>
0

>  <SCORE.INTRA.SOLV>
2.00282

>  <SCORE.INTRA.SOLV.lig_0>
-25.2195

>  <SCORE.INTRA.VDW>
-3.4595

>  <SCORE.INTRA.VDW.0>
4.14263

>  <SCORE.INTRA.norm>
-0.253962

>  <SCORE.RESTR>
1.30738

>  <SCORE.RESTR.CAVITY>
1.30738

>  <SCORE.RESTR.norm>
0.0522951

>  <SCORE.SYSTEM>
0

>  <SCORE.SYSTEM.CONST>
0

>  <SCORE.SYSTEM.DIHEDRAL>
0

>  <SCORE.SYSTEM.SOLV>
0

>  <SCORE.SYSTEM.norm>
0

>  <SCORE.heavy>
25

>  <SCORE.norm>
-0.619504

>  <RMSD>
15.109

$$$$
1uud_lig
 OpenBabel11021811413D
libRbt.so/2013.1/901 2013/11/27
 25 25  0  0  0  0  0  0  0  0999 V2000
   -7.6616  -13.0531    9.6350 C   0  0  0  0  0  0  0  0  0  0  0  0
   -8.8239  -13.8719   12.2004 O   0  0  0  0  0  0  0  0  0  0  0  0
   -8.0237  -15.0334   11.9338 C   0  0  0  0  0  0  0  0  0  0  0  0
   -7.3759  -12.7389    8.2131 N   0  0  0  0  0  0  0  0  0  0  0  0
   -6.6491  -14.8939   12.6016 C   0  0  0  0  0  0  0  0  0  0  0  0
   -5.9108  -12.6818    7.9961 C   0  0  0  0  0  0  0  0  0  0  0  0
   -5.3095  -11.5580    8.8489 C   0  0  0  0  0  0  0  0  0  0  0  0
   -6.1088  -13.7437   12.2759 N   0  0  0  0  0  0  0  0  0  0  0  0
   -4.8679  -13.4446   12.6115 C   0  0  0  0  0  0  0  0  0  0  0  0
   -5.7650  -10.1964    8.3129 C   0  0  0  0  0  0  0  0  0  0  0  0
   -6.6699   -9.5170    9.3447 C   0  0  0  0  0  0  0  0  0  0  0  0
   -4.5294  -13.1431   13.9020 N   0  0  0  0  0  0  0  0  0  0  0  0
   -3.9056  -13.4347   11.6533 N   0  0  0  0  0  0  0  0  0  0  0  0
   -5.9406   -8.9996   10.3047 N   0  0  0  0  0  0  0  0  0  0  0  0
   -6.4280   -8.0904   11.1271 C   0  0  0  0  0  0  0  0  0  0  0  0
   -5.6224   -7.0847   11.5551 N   0  0  0  0  0  0  0  0  0  0  0  0
   -7.7207   -8.1431   11.5657 N   0  0  0  0  0  0  0  0  0  0  0  0
   -9.7055  -13.6180   11.0991 C   0  0  0  0  0  0  0  0  0  0  0  0
  -12.3542  -12.8235    7.8428 O   0  0  0  0  0  0  0  0  0  0  0  0
   -9.1827  -13.2132    9.8371 C   0  0  0  0  0  0  0  0  0  0  0  0
  -10.0664  -12.9415    8.7585 C   0  0  0  0  0  0  0  0  0  0  0  0
  -11.4673  -13.0937    8.9313 C   0  0  0  0  0  0  0  0  0  0  0  0
  -11.9884  -13.5162   10.1838 C   0  0  0  0  0  0  0  0  0  0  0  0
  -11.1082  -13.7857   11.2667 C   0  0  0  0  0  0  0  0  0  0  0  0
  -12.2784  -11.4378    7.4955 C   0  0  0  0  0  0  0  0  0  0  0  0
  1  4  1  0  0  0  0
  2  3  1  0  0  0  0
  3  5  1  0  0  0  0
  4  6  1  0  0  0  0
  5  8  1  0  0  0  0
  6  7  1  0  0  0  0
  7 10  1  0  0  0  0
  8  9  1  0  0  0  0
  9 12  1  0  0  0  0
  9 13  1  0  0  0  0
 10 11  1  0  0  0  0
 11 14  1  0  0  0  0
 14 15  1  0  0  0  0
 15 16  1  0  0  0  0
 15 17  1  0  0  0  0
 18  2  1  0  0  0  0
 18 20  2  0  0  0  0
 18 24  1  0  0  0  0
 19 25  1  0  0  0  0
 20  1  1  0  0  0  0
 20 21  1  0  0  0  0
 21 22  2  0  0  0  0
 22 19  1  0  0  0  0
 22 23  1  0  0  0  0
 23 24  2  0  0  0  0
M  END
>  <CHROM.1>
-175.91957513,148.38670362,-51.34616202,-62.06050200,-172.92789311,-68.69392432
113.57380024,-73.01722163,-47.11320800,43.55424119,78.00921055,162.93518169
-143.42483014,169.61190305,131.06698047,-67.30786509,175.20934941,-64.38684476
-7.74155009,-12.10769917,10.40107670,-2.96831830,-0.47380944,-0.41604001

>  <Name>
1uud_lig

>  <RI>
0

>  <Rbt.Current_Directory>
/home/itssahil/PROJECTS/Mol_Feturizer/New_Systems/rnas/1uud

>  <Rbt.Executable>
rbdock ($Id: //depot/dev/client3/rdock/2013.1/src/exe/rbdock.cxx#4 $)

>  <Rbt.Library>
libRbt.so (2013.1, Build901 2013/11/27)

>  <Rbt.Parameter_File>
/export/apps/rDock/src/rDock_2013.1_src/data/scripts/dock_solv.prm

>  <Rbt.Receptor>
prm/blind_docking_100.prm

>  <SCORE>
-18.2946

>  <SCORE.INTER>
-18.3856

>  <SCORE.INTER.CONST>
1

>  <SCORE.INTER.POLAR>
-3.07067

>  <SCORE.INTER.ROT>
18

>  <SCORE.INTER.SOLV>
10.5751

>  <SCORE.INTER.VDW>
-21.1465

>  <SCORE.INTER.norm>
-0.735424

>  <SCORE.INTRA>
-1.3873

>  <SCORE.INTRA.DIHEDRAL>
-0.757145

>  <SCORE.INTRA.DIHEDRAL.0>
30.6762

>  <SCORE.INTRA.POLAR>
0.0273693

>  <SCORE.INTRA.POLAR.0>
-0.0288659

>  <SCORE.INTRA.REPUL>
0

>  <SCORE.INTRA.REPUL.0>
0

>  <SCORE.INTRA.SOLV>
-0.21235

>  <SCORE.INTRA.SOLV.lig_0>
-25.2195

>  <SCORE.INTRA.VDW>
-0.995611

>  <SCORE.INTRA.VDW.0>
4.14263

>  <SCORE.INTRA.norm>
-0.0554921

>  <SCORE.RESTR>
1.47826

>  <SCORE.RESTR.CAVITY>
1.47826

>  <SCORE.RESTR.norm>
0.0591304

>  <SCORE.SYSTEM>
0

>  <SCORE.SYSTEM.CONST>
0

>  <SCORE.SYSTEM.DIHEDRAL>
0

>  <SCORE.SYSTEM.SOLV>
0

>  <SCORE.SYSTEM.norm>
0

>  <SCORE.heavy>
25

>  <SCORE.norm>
-0.731785

>  <RMSD>
15.112

$$$$
1uud_lig
 OpenBabel11021811413D
libRbt.so/2013.1/901 2013/11/27
 25 25  0  0  0  0  0  0  0  0999 V2000
   -7.2716  -13.2315    8.1848 C   0  0  0  0  0  0  0  0  0  0  0  0
   -6.5845  -13.7833   10.9823 O   0  0  0  0  0  0  0  0  0  0  0  0
   -6.4836  -13.4003   12.3620 C   0  0  0  0  0  0  0  0  0  0  0  0
   -7.6363  -11.9614    7.5095 N   0  0  0  0  0  0  0  0  0  0  0  0
   -5.1203  -12.7497   12.6324 C   0  0  0  0  0  0  0  0  0  0  0  0
   -6.9353  -10.8283    8.1587 C   0  0  0  0  0  0  0  0  0  0  0  0
   -7.6669  -10.4452    9.4509 C   0  0  0  0  0  0  0  0  0  0  0  0
   -4.5195  -12.4829   11.4972 N   0  0  0  0  0  0  0  0  0  0  0  0
   -3.8996  -11.3349   11.2977 C   0  0  0  0  0  0  0  0  0  0  0  0
   -6.6732   -9.8535   10.4565 C   0  0  0  0  0  0  0  0  0  0  0  0
   -6.2917   -8.4347   10.0245 C   0  0  0  0  0  0  0  0  0  0  0  0
   -4.0187  -10.6539   10.1176 N   0  0  0  0  0  0  0  0  0  0  0  0
   -3.1247  -10.8189   12.2864 N   0  0  0  0  0  0  0  0  0  0  0  0
   -5.9054   -7.7400   11.0682 N   0  0  0  0  0  0  0  0  0  0  0  0
   -6.6207   -7.7052   12.1762 C   0  0  0  0  0  0  0  0  0  0  0  0
   -7.9755   -7.6825   12.0894 N   0  0  0  0  0  0  0  0  0  0  0  0
   -6.0300   -7.6810   13.4077 N   0  0  0  0  0  0  0  0  0  0  0  0
   -7.9614  -13.8502   10.5894 C   0  0  0  0  0  0  0  0  0  0  0  0
  -12.0755  -14.0117    9.4498 O   0  0  0  0  0  0  0  0  0  0  0  0
   -8.3389  -13.5842    9.2416 C   0  0  0  0  0  0  0  0  0  0  0  0
   -9.7086  -13.6303    8.8674 C   0  0  0  0  0  0  0  0  0  0  0  0
  -10.6980  -13.9620    9.8300 C   0  0  0  0  0  0  0  0  0  0  0  0
  -10.3204  -14.2466   11.1700 C   0  0  0  0  0  0  0  0  0  0  0  0
   -8.9517  -14.1981   11.5496 C   0  0  0  0  0  0  0  0  0  0  0  0
  -12.4669  -12.7500    8.9009 C   0  0  0  0  0  0  0  0  0  0  0  0
  1  4  1  0  0  0  0
  2  3  1  0  0  0  0
  3  5  1  0  0  0  0
  4  6  1  0  0  0  0
  5  8  1  0  0  0  0
  6  7  1  0  0  0  0
  7 10  1  0  0  0  0
  8  9  1  0  0  0  0
  9 12  1  0  0  0  0
  9 13  1  0  0  0  0
 10 11  1  0  0  0  0
 11 14  1  0  0  0  0
 14 15  1  0  0  0  0
 15 16  1  0  0  0  0
 15 17  1  0  0  0  0
 18  2  1  0  0  0  0
 18 20  2  0  0  0  0
 18 24  1  0  0  0  0
 19 25  1  0  0  0  0
 20  1  1  0  0  0  0
 20 21  1  0  0  0  0
 21 22  2  0  0  0  0
 22 19  1  0  0  0  0
 22 23  1  0  0  0  0
 23 24  2  0  0  0  0
M  END
>  <CHROM.1>
95.68372664,-155.62774234,12.12736989,-79.23449186,136.49173307,151.04933103
74.37627569,-137.38327589,170.66132836,-82.85442376,155.06681417,-49.11473338
-37.48294058,-156.96045962,-148.70156465,150.37158925,-126.65539462,-57.15869297
-7.27560782,-11.56065945,10.54483485,-2.43532588,-0.34011684,0.09316159

>  <Name>
1uud_lig

>  <RI>
0

>  <Rbt.Current_Directory>
/home/itssahil/PROJECTS/Mol_Feturizer/New_Systems/rnas/1uud

>  <Rbt.Executable>
rbdock ($Id: //depot/dev/client3/rdock/2013.1/src/exe/rbdock.cxx#4 $)

>  <Rbt.Library>
libRbt.so (2013.1, Build901 2013/11/27)

>  <Rbt.Parameter_File>
/export/apps/rDock/src/rDock_2013.1_src/data/scripts/dock_solv.prm

>  <Rbt.Receptor>
prm/blind_docking_100.prm

>  <SCORE>
-9.33649

>  <SCORE.INTER>
-14.0609

>  <SCORE.INTER.CONST>
1

>  <SCORE.INTER.POLAR>
-2.06383

>  <SCORE.INTER.ROT>
18

>  <SCORE.INTER.SOLV>
10.4489

>  <SCORE.INTER.VDW>
-21.5775

>  <SCORE.INTER.norm>
-0.562436

>  <SCORE.INTRA>
2.18387

>  <SCORE.INTRA.DIHEDRAL>
0.410246

>  <SCORE.INTRA.DIHEDRAL.0>
30.6762

>  <SCORE.INTRA.POLAR>
0.0288659

>  <SCORE.INTRA.POLAR.0>
-0.0288659

>  <SCORE.INTRA.REPUL>
0

>  <SCORE.INTRA.REPUL.0>
0

>  <SCORE.INTRA.SOLV>
1.26018

>  <SCORE.INTRA.SOLV.lig_0>
-25.2195

>  <SCORE.INTRA.VDW>
1.25051

>  <SCORE.INTRA.VDW.0>
4.14263

>  <SCORE.INTRA.norm>
0.0873547

>  <SCORE.RESTR>
2.54055

>  <SCORE.RESTR.CAVITY>
2.54055

>  <SCORE.RESTR.norm>
0.101622

>  <SCORE.SYSTEM>
0

>  <SCORE.SYSTEM.CONST>
0

>  <SCORE.SYSTEM.DIHEDRAL>
0

>  <SCORE.SYSTEM.SOLV>
0

>  <SCORE.SYSTEM.norm>
0

>  <SCORE.heavy>
25

>  <SCORE.norm>
-0.37346

>  <RMSD>
15.122

$$$$
1uud_lig
 OpenBabel11021811413D
libRbt.so/2013.1/901 2013/11/27
 25 25  0  0  0  0  0  0  0  0999 V2000
   -6.2735   -9.0294   10.2933 C   0  0  0  0  0  0  0  0  0  0  0  0
   -7.4038  -11.1603    8.6247 O   0  0  0  0  0  0  0  0  0  0  0  0
   -8.7800  -11.3207    8.9998 C   0  0  0  0  0  0  0  0  0  0  0  0
   -7.2645   -8.5401   11.2835 N   0  0  0  0  0  0  0  0  0  0  0  0
   -9.6870  -11.1412    7.7750 C   0  0  0  0  0  0  0  0  0  0  0  0
   -6.6515   -7.4895   12.1302 C   0  0  0  0  0  0  0  0  0  0  0  0
   -5.7573   -8.1427   13.1911 C   0  0  0  0  0  0  0  0  0  0  0  0
  -10.9327  -11.3920    8.1008 N   0  0  0  0  0  0  0  0  0  0  0  0
  -11.9348  -11.0441    7.3156 C   0  0  0  0  0  0  0  0  0  0  0  0
   -5.3376   -7.0999   14.2327 C   0  0  0  0  0  0  0  0  0  0  0  0
   -3.9695   -7.4750   14.8097 C   0  0  0  0  0  0  0  0  0  0  0  0
  -12.8774  -10.1386    7.7184 N   0  0  0  0  0  0  0  0  0  0  0  0
  -12.0328  -11.5989    6.0800 N   0  0  0  0  0  0  0  0  0  0  0  0
   -3.0422   -7.3184   13.8949 N   0  0  0  0  0  0  0  0  0  0  0  0
   -2.1215   -8.2390   13.6820 C   0  0  0  0  0  0  0  0  0  0  0  0
   -2.4268   -9.3156   12.9130 N   0  0  0  0  0  0  0  0  0  0  0  0
   -0.8721   -8.1392   14.2253 N   0  0  0  0  0  0  0  0  0  0  0  0
   -6.5500  -11.5257    9.7165 C   0  0  0  0  0  0  0  0  0  0  0  0
   -3.9725  -12.6347   12.9378 O   0  0  0  0  0  0  0  0  0  0  0  0
   -5.9760  -10.5216   10.5485 C   0  0  0  0  0  0  0  0  0  0  0  0
   -5.1125  -10.8929   11.6137 C   0  0  0  0  0  0  0  0  0  0  0  0
   -4.8387  -12.2635   11.8624 C   0  0  0  0  0  0  0  0  0  0  0  0
   -5.4263  -13.2666   11.0454 C   0  0  0  0  0  0  0  0  0  0  0  0
   -6.2880  -12.8996    9.9763 C   0  0  0  0  0  0  0  0  0  0  0  0
   -2.6184  -12.3333   12.5883 C   0  0  0  0  0  0  0  0  0  0  0  0
  1  4  1  0  0  0  0
  2  3  1  0  0  0  0
  3  5  1  0  0  0  0
  4  6  1  0  0  0  0
  5  8  1  0  0  0  0
  6  7  1  0  0  0  0
  7 10  1  0  0  0  0
  8  9  1  0  0  0  0
  9 12  1  0  0  0  0
  9 13  1  0  0  0  0
 10 11  1  0  0  0  0
 11 14  1  0  0  0  0
 14 15  1  0  0  0  0
 15 16  1  0  0  0  0
 15 17  1  0  0  0  0
 18  2  1  0  0  0  0
 18 20  2  0  0  0  0
 18 24  1  0  0  0  0
 19 25  1  0  0  0  0
 20  1  1  0  0  0  0
 20 21  1  0  0  0  0
 21 22  2  0  0  0  0
 22 19  1  0  0  0  0
 22 23  1  0  0  0  0
 23 24  2  0  0  0  0
M  END
>  <CHROM.1>
116.63682692,-171.28279225,175.06520648,-78.18527895,165.62407421,-169.08932867
-150.60359807,-116.80903645,69.43026193,64.20334129,69.35434959,-133.90755505
81.22597587,106.71663380,-11.29121896,-99.86790954,102.95096366,-73.57195811
-6.34868878,-10.16411413,11.01624392,2.67676750,0.52069256,-2.72282252

>  <Name>
1uud_lig

>  <RI>
0

>  <Rbt.Current_Directory>
/home/itssahil/PROJECTS/Mol_Feturizer/New_Systems/rnas/1uud

>  <Rbt.Executable>
rbdock ($Id: //depot/dev/client3/rdock/2013.1/src/exe/rbdock.cxx#4 $)

>  <Rbt.Library>
libRbt.so (2013.1, Build901 2013/11/27)

>  <Rbt.Parameter_File>
/export/apps/rDock/src/rDock_2013.1_src/data/scripts/dock_solv.prm

>  <Rbt.Receptor>
prm/blind_docking_20.prm

>  <SCORE>
-23.5732

>  <SCORE.INTER>
-18.2341

>  <SCORE.INTER.CONST>
1

>  <SCORE.INTER.POLAR>
-2.83654

>  <SCORE.INTER.ROT>
18

>  <SCORE.INTER.SOLV>
10.7353

>  <SCORE.INTER.VDW>
-21.8794

>  <SCORE.INTER.norm>
-0.729364

>  <SCORE.INTRA>
-5.96372

>  <SCORE.INTRA.DIHEDRAL>
-2.77303

>  <SCORE.INTRA.DIHEDRAL.0>
30.6762

>  <SCORE.INTRA.POLAR>
0.0288659

>  <SCORE.INTRA.POLAR.0>
-0.0288659

>  <SCORE.INTRA.REPUL>
0

>  <SCORE.INTRA.REPUL.0>
0

>  <SCORE.INTRA.SOLV>
-0.497642

>  <SCORE.INTRA.SOLV.lig_0>
-25.2195

>  <SCORE.INTRA.VDW>
-4.42652

>  <SCORE.INTRA.VDW.0>
4.14263

>  <SCORE.INTRA.norm>
-0.238549

>  <SCORE.RESTR>
0.624595

>  <SCORE.RESTR.CAVITY>
0.624595

>  <SCORE.RESTR.norm>
0.0249838

>  <SCORE.SYSTEM>
0

>  <SCORE.SYSTEM.CONST>
0

>  <SCORE.SYSTEM.DIHEDRAL>
0

>  <SCORE.SYSTEM.SOLV>
0

>  <SCORE.SYSTEM.norm>
0

>  <SCORE.heavy>
25

>  <SCORE.norm>
-0.942929

>  <RMSD>
15.154

$$$$
1uud_lig
 OpenBabel11021811413D
libRbt.so/2013.1/901 2013/11/27
 25 25  0  0  0  0  0  0  0  0999 V2000
   -4.8727   -8.8256   10.1355 C   0  0  0  0  0  0  0  0  0  0  0  0
   -6.1090  -11.0257    8.6409 O   0  0  0  0  0  0  0  0  0  0  0  0
   -7.4041  -11.5774    8.9214 C   0  0  0  0  0  0  0  0  0  0  0  0
   -3.9720   -7.9532   10.9291 N   0  0  0  0  0  0  0  0  0  0  0  0
   -8.3896  -11.2093    7.8039 C   0  0  0  0  0  0  0  0  0  0  0  0
   -4.4621   -7.8629   12.3249 C   0  0  0  0  0  0  0  0  0  0  0  0
   -3.3505   -7.3082   13.2239 C   0  0  0  0  0  0  0  0  0  0  0  0
   -9.5727  -11.7102    8.0687 N   0  0  0  0  0  0  0  0  0  0  0  0
  -10.6639  -10.9699    8.0120 C   0  0  0  0  0  0  0  0  0  0  0  0
   -2.3855   -8.4331   13.6138 C   0  0  0  0  0  0  0  0  0  0  0  0
   -1.3387   -7.8930   14.5925 C   0  0  0  0  0  0  0  0  0  0  0  0
  -10.9783  -10.2447    6.8958 N   0  0  0  0  0  0  0  0  0  0  0  0
  -11.4925  -10.9264    9.0870 N   0  0  0  0  0  0  0  0  0  0  0  0
   -0.2639   -8.6444   14.5545 N   0  0  0  0  0  0  0  0  0  0  0  0
    0.8807   -8.2368   15.0686 C   0  0  0  0  0  0  0  0  0  0  0  0
    1.3927   -7.0408   14.6798 N   0  0  0  0  0  0  0  0  0  0  0  0
    1.5673   -8.9944   15.9745 N   0  0  0  0  0  0  0  0  0  0  0  0
   -5.1980  -11.3447    9.7006 C   0  0  0  0  0  0  0  0  0  0  0  0
   -2.4520  -12.3173   12.8253 O   0  0  0  0  0  0  0  0  0  0  0  0
   -4.5715  -10.3061   10.4482 C   0  0  0  0  0  0  0  0  0  0  0  0
   -3.6523  -10.6324   11.4811 C   0  0  0  0  0  0  0  0  0  0  0  0
   -3.3744  -11.9916   11.7824 C   0  0  0  0  0  0  0  0  0  0  0  0
   -4.0136  -13.0282   11.0504 C   0  0  0  0  0  0  0  0  0  0  0  0
   -4.9312  -12.7064   10.0138 C   0  0  0  0  0  0  0  0  0  0  0  0
   -2.9599  -11.8487   14.0779 C   0  0  0  0  0  0  0  0  0  0  0  0
  1  4  1  0  0  0  0
  2  3  1  0  0  0  0
  3  5  1  0  0  0  0
  4  6  1  0  0  0  0
  5  8  1  0  0  0  0
  6  7  1  0  0  0  0
  7 10  1  0  0  0  0
  8  9  1  0  0  0  0
  9 12  1  0  0  0  0
  9 13  1  0  0  0  0
 10 11  1  0  0  0  0
 11 14  1  0  0  0  0
 14 15  1  0  0  0  0
 15 16  1  0  0  0  0
 15 17  1  0  0  0  0
 18  2  1  0  0  0  0
 18 20  2  0  0  0  0
 18 24  1  0  0  0  0
 19 25  1  0  0  0  0
 20  1  1  0  0  0  0
 20 21  1  0  0  0  0
 21 22  2  0  0  0  0
 22 19  1  0  0  0  0
 22 23  1  0  0  0  0
 23 24  2  0  0  0  0
M  END
>  <CHROM.1>
-78.13908995,178.68620708,-179.68230862,164.12057567,130.32371842,-81.75573414
-175.89734422,53.42508169,44.02986960,129.98236598,-156.89646147,164.71410961
-53.55752199,179.91701537,-155.40493401,-119.64317795,-172.82205000,63.49010403
-4.50355662,-10.08168876,11.37589199,2.83929103,0.57557203,-3.00098732

>  <Name>
1uud_lig

>  <RI>
0

>  <Rbt.Current_Directory>
/home/itssahil/PROJECTS/Mol_Feturizer/New_Systems/rnas/1uud

>  <Rbt.Executable>
rbdock ($Id: //depot/dev/client3/rdock/2013.1/src/exe/rbdock.cxx#4 $)

>  <Rbt.Library>
libRbt.so (2013.1, Build901 2013/11/27)

>  <Rbt.Parameter_File>
/export/apps/rDock/src/rDock_2013.1_src/data/scripts/dock_solv.prm

>  <Rbt.Receptor>
prm/blind_docking_20.prm

>  <SCORE>
-43.1241

>  <SCORE.INTER>
-35.6334

>  <SCORE.INTER.CONST>
1

>  <SCORE.INTER.POLAR>
-4.19219

>  <SCORE.INTER.ROT>
18

>  <SCORE.INTER.SOLV>
13.9293

>  <SCORE.INTER.VDW>
-30.0247

>  <SCORE.INTER.norm>
-1.42533

>  <SCORE.INTRA>
-7.49072

>  <SCORE.INTRA.DIHEDRAL>
-8.12929

>  <SCORE.INTRA.DIHEDRAL.0>
30.6762

>  <SCORE.INTRA.POLAR>
0.0288659

>  <SCORE.INTRA.POLAR.0>
-0.0288659

>  <SCORE.INTRA.REPUL>
0

>  <SCORE.INTRA.REPUL.0>
0

>  <SCORE.INTRA.SOLV>
-1.50766

>  <SCORE.INTRA.SOLV.lig_0>
-25.2195

>  <SCORE.INTRA.VDW>
-2.7704

>  <SCORE.INTRA.VDW.0>
4.14263

>  <SCORE.INTRA.norm>
-0.299629

>  <SCORE.RESTR>
0

>  <SCORE.RESTR.CAVITY>
0

>  <SCORE.RESTR.norm>
0

>  <SCORE.SYSTEM>
0

>  <SCORE.SYSTEM.CONST>
0

>  <SCORE.SYSTEM.DIHEDRAL>
0

>  <SCORE.SYSTEM.SOLV>
0

>  <SCORE.SYSTEM.norm>
0

>  <SCORE.heavy>
25

>  <SCORE.norm>
-1.72496

>  <RMSD>
15.164

$$$$
1uud_lig
 OpenBabel11021811413D
libRbt.so/2013.1/901 2013/11/27
 25 25  0  0  0  0  0  0  0  0999 V2000
   -5.3892  -10.9683   13.0876 C   0  0  0  0  0  0  0  0  0  0  0  0
   -5.7439  -13.2041   11.2226 O   0  0  0  0  0  0  0  0  0  0  0  0
   -6.7909  -13.5751   12.1317 C   0  0  0  0  0  0  0  0  0  0  0  0
   -4.4510   -9.8963   13.5032 N   0  0  0  0  0  0  0  0  0  0  0  0
   -8.1525  -13.5073   11.4270 C   0  0  0  0  0  0  0  0  0  0  0  0
   -3.2366   -9.9350   12.6544 C   0  0  0  0  0  0  0  0  0  0  0  0
   -2.0380   -9.4034   13.4496 C   0  0  0  0  0  0  0  0  0  0  0  0
   -8.0356  -13.9225   10.1881 N   0  0  0  0  0  0  0  0  0  0  0  0
   -9.0820  -14.0117    9.3887 C   0  0  0  0  0  0  0  0  0  0  0  0
   -2.1899   -7.8952   13.6754 C   0  0  0  0  0  0  0  0  0  0  0  0
   -0.8601   -7.3147   14.1650 C   0  0  0  0  0  0  0  0  0  0  0  0
   -9.3969  -13.0125    8.5094 N   0  0  0  0  0  0  0  0  0  0  0  0
   -9.8644  -15.1204    9.4415 N   0  0  0  0  0  0  0  0  0  0  0  0
   -0.5924   -7.7667   15.3672 N   0  0  0  0  0  0  0  0  0  0  0  0
    0.5393   -8.3905   15.6330 C   0  0  0  0  0  0  0  0  0  0  0  0
    1.1885   -8.1186   16.7941 N   0  0  0  0  0  0  0  0  0  0  0  0
    1.0779   -9.2955   14.7629 N   0  0  0  0  0  0  0  0  0  0  0  0
   -5.9586  -11.8709   10.7420 C   0  0  0  0  0  0  0  0  0  0  0  0
   -6.6470   -7.9088    9.3004 O   0  0  0  0  0  0  0  0  0  0  0  0
   -5.8021  -10.7567   11.6162 C   0  0  0  0  0  0  0  0  0  0  0  0
   -6.0400   -9.4409   11.1362 C   0  0  0  0  0  0  0  0  0  0  0  0
   -6.4122   -9.2345    9.7819 C   0  0  0  0  0  0  0  0  0  0  0  0
   -6.5496  -10.3435    8.9043 C   0  0  0  0  0  0  0  0  0  0  0  0
   -6.3161  -11.6619    9.3811 C   0  0  0  0  0  0  0  0  0  0  0  0
   -5.4584   -7.4056    8.6834 C   0  0  0  0  0  0  0  0  0  0  0  0
  1  4  1  0  0  0  0
  2  3  1  0  0  0  0
  3  5  1  0  0  0  0
  4  6  1  0  0  0  0
  5  8  1  0  0  0  0
  6  7  1  0  0  0  0
  7 10  1  0  0  0  0
  8  9  1  0  0  0  0
  9 12  1  0  0  0  0
  9 13  1  0  0  0  0
 10 11  1  0  0  0  0
 11 14  1  0  0  0  0
 14 15  1  0  0  0  0
 15 16  1  0  0  0  0
 15 17  1  0  0  0  0
 18  2  1  0  0  0  0
 18 20  2  0  0  0  0
 18 24  1  0  0  0  0
 19 25  1  0  0  0  0
 20  1  1  0  0  0  0
 20 21  1  0  0  0  0
 21 22  2  0  0  0  0
 22 19  1  0  0  0  0
 22 23  1  0  0  0  0
 23 24  2  0  0  0  0
M  END
>  <CHROM.1>
-60.39748450,59.57028033,37.64128820,-151.13573131,177.14080099,-69.86672061
-166.62712852,96.49551343,-3.46151829,143.65109066,-67.60934532,124.36004713
138.47736992,77.27708100,-34.23151202,69.80202728,141.52014163,95.44482549
-4.85557679,-10.56150499,11.83373293,-0.13874319,0.71614490,2.62689099

>  <Name>
1uud_lig

>  <RI>
0

>  <Rbt.Current_Directory>
/home/itssahil/PROJECTS/Mol_Feturizer/New_Systems/rnas/1uud

>  <Rbt.Executable>
rbdock ($Id: //depot/dev/client3/rdock/2013.1/src/exe/rbdock.cxx#4 $)

>  <Rbt.Library>
libRbt.so (2013.1, Build901 2013/11/27)

>  <Rbt.Parameter_File>
/export/apps/rDock/src/rDock_2013.1_src/data/scripts/dock_solv.prm

>  <Rbt.Receptor>
prm/blind_docking_80.prm

>  <SCORE>
-23.9454

>  <SCORE.INTER>
-18.1357

>  <SCORE.INTER.CONST>
1

>  <SCORE.INTER.POLAR>
-3.61445

>  <SCORE.INTER.ROT>
18

>  <SCORE.INTER.SOLV>
9.70721

>  <SCORE.INTER.VDW>
-18.878

>  <SCORE.INTER.norm>
-0.72543

>  <SCORE.INTRA>
-6.29615

>  <SCORE.INTRA.DIHEDRAL>
-6.71702

>  <SCORE.INTRA.DIHEDRAL.0>
30.6762

>  <SCORE.INTRA.POLAR>
0.0170873

>  <SCORE.INTRA.POLAR.0>
-0.0288659

>  <SCORE.INTRA.REPUL>
0

>  <SCORE.INTRA.REPUL.0>
0

>  <SCORE.INTRA.SOLV>
0.101618

>  <SCORE.INTRA.SOLV.lig_0>
-25.2195

>  <SCORE.INTRA.VDW>
-3.04655

>  <SCORE.INTRA.VDW.0>
4.14263

>  <SCORE.INTRA.norm>
-0.251846

>  <SCORE.RESTR>
0.486497

>  <SCORE.RESTR.CAVITY>
0.486497

>  <SCORE.RESTR.norm>
0.0194599

>  <SCORE.SYSTEM>
0

>  <SCORE.SYSTEM.CONST>
0

>  <SCORE.SYSTEM.DIHEDRAL>
0

>  <SCORE.SYSTEM.SOLV>
0

>  <SCORE.SYSTEM.norm>
0

>  <SCORE.heavy>
25

>  <SCORE.norm>
-0.957816

>  <RMSD>
15.168

$$$$
1uud_lig
 OpenBabel11021811413D
libRbt.so/2013.1/901 2013/11/27
 25 25  0  0  0  0  0  0  0  0999 V2000
   -4.9859  -12.0164    8.5720 C   0  0  0  0  0  0  0  0  0  0  0  0
   -5.2338  -12.8067   11.3856 O   0  0  0  0  0  0  0  0  0  0  0  0
   -6.5008  -13.4766   11.3061 C   0  0  0  0  0  0  0  0  0  0  0  0
   -6.2671  -12.5455    8.0421 N   0  0  0  0  0  0  0  0  0  0  0  0
   -7.2455  -13.3613   12.6430 C   0  0  0  0  0  0  0  0  0  0  0  0
   -7.0893  -11.4320    7.5123 C   0  0  0  0  0  0  0  0  0  0  0  0
   -8.5703  -11.7053    7.8016 C   0  0  0  0  0  0  0  0  0  0  0  0
   -8.4728  -13.8050   12.5104 N   0  0  0  0  0  0  0  0  0  0  0  0
   -8.7232  -15.0105   12.0350 C   0  0  0  0  0  0  0  0  0  0  0  0
   -9.4128  -10.4899    7.3994 C   0  0  0  0  0  0  0  0  0  0  0  0
  -10.8980  -10.8114    7.5895 C   0  0  0  0  0  0  0  0  0  0  0  0
   -9.6212  -15.2070   11.0222 N   0  0  0  0  0  0  0  0  0  0  0  0
   -8.0754  -16.0801   12.5646 N   0  0  0  0  0  0  0  0  0  0  0  0
  -11.1464  -11.0351    8.8581 N   0  0  0  0  0  0  0  0  0  0  0  0
  -11.3736  -12.2530    9.3117 C   0  0  0  0  0  0  0  0  0  0  0  0
  -10.6066  -13.2801    8.8642 N   0  0  0  0  0  0  0  0  0  0  0  0
  -12.3687  -12.5059   10.2128 N   0  0  0  0  0  0  0  0  0  0  0  0
   -5.3867  -11.4223   11.0473 C   0  0  0  0  0  0  0  0  0  0  0  0
   -5.8019   -7.2851   10.0668 O   0  0  0  0  0  0  0  0  0  0  0  0
   -5.2687  -10.9951    9.6932 C   0  0  0  0  0  0  0  0  0  0  0  0
   -5.3988   -9.6175    9.3712 C   0  0  0  0  0  0  0  0  0  0  0  0
   -5.6673   -8.6704   10.3942 C   0  0  0  0  0  0  0  0  0  0  0  0
   -5.8046   -9.0981   11.7422 C   0  0  0  0  0  0  0  0  0  0  0  0
   -5.6716  -10.4748   12.0694 C   0  0  0  0  0  0  0  0  0  0  0  0
   -6.4648   -7.1528    8.8060 C   0  0  0  0  0  0  0  0  0  0  0  0
  1  4  1  0  0  0  0
  2  3  1  0  0  0  0
  3  5  1  0  0  0  0
  4  6  1  0  0  0  0
  5  8  1  0  0  0  0
  6  7  1  0  0  0  0
  7 10  1  0  0  0  0
  8  9  1  0  0  0  0
  9 12  1  0  0  0  0
  9 13  1  0  0  0  0
 10 11  1  0  0  0  0
 11 14  1  0  0  0  0
 14 15  1  0  0  0  0
 15 16  1  0  0  0  0
 15 17  1  0  0  0  0
 18  2  1  0  0  0  0
 18 20  2  0  0  0  0
 18 24  1  0  0  0  0
 19 25  1  0  0  0  0
 20  1  1  0  0  0  0
 20 21  1  0  0  0  0
 21 22  2  0  0  0  0
 22 19  1  0  0  0  0
 22 23  1  0  0  0  0
 23 24  2  0  0  0  0
M  END
>  <CHROM.1>
59.20106583,-87.58429966,171.07402397,-143.92314708,54.23705776,173.68511847
175.63383955,-129.72445225,-47.90288562,103.50105995,63.29720768,-106.37184367
42.19087650,111.95582213,177.90487493,-89.07078635,89.27902577,36.89468361
-7.76046266,-11.76975843,10.02794546,-0.79029223,0.42000300,2.55515310

>  <Name>
1uud_lig

>  <RI>
0

>  <Rbt.Current_Directory>
/home/itssahil/PROJECTS/Mol_Feturizer/New_Systems/rnas/1uud

>  <Rbt.Executable>
rbdock ($Id: //depot/dev/client3/rdock/2013.1/src/exe/rbdock.cxx#4 $)

>  <Rbt.Library>
libRbt.so (2013.1, Build901 2013/11/27)

>  <Rbt.Parameter_File>
/export/apps/rDock/src/rDock_2013.1_src/data/scripts/dock_solv.prm

>  <Rbt.Receptor>
prm/blind_docking_100.prm

>  <SCORE>
-20.2401

>  <SCORE.INTER>
-14.521

>  <SCORE.INTER.CONST>
1

>  <SCORE.INTER.POLAR>
-2.46526

>  <SCORE.INTER.ROT>
18

>  <SCORE.INTER.SOLV>
8.54897

>  <SCORE.INTER.VDW>
-19.9128

>  <SCORE.INTER.norm>
-0.580842

>  <SCORE.INTRA>
-6.50459

>  <SCORE.INTRA.DIHEDRAL>
-7.78826

>  <SCORE.INTRA.DIHEDRAL.0>
30.6762

>  <SCORE.INTRA.POLAR>
-0.959967

>  <SCORE.INTRA.POLAR.0>
-0.0288659

>  <SCORE.INTRA.REPUL>
0

>  <SCORE.INTRA.REPUL.0>
0

>  <SCORE.INTRA.SOLV>
1.05085

>  <SCORE.INTRA.SOLV.lig_0>
-25.2195

>  <SCORE.INTRA.VDW>
0.128001

>  <SCORE.INTRA.VDW.0>
4.14263

>  <SCORE.INTRA.norm>
-0.260184

>  <SCORE.RESTR>
0.785523

>  <SCORE.RESTR.CAVITY>
0.785523

>  <SCORE.RESTR.norm>
0.0314209

>  <SCORE.SYSTEM>
0

>  <SCORE.SYSTEM.CONST>
0

>  <SCORE.SYSTEM.DIHEDRAL>
0

>  <SCORE.SYSTEM.SOLV>
0

>  <SCORE.SYSTEM.norm>
0

>  <SCORE.heavy>
25

>  <SCORE.norm>
-0.809604

>  <RMSD>
15.174

$$$$
1uud_lig
 OpenBabel11021811413D
libRbt.so/2013.1/901 2013/11/27
 25 25  0  0  0  0  0  0  0  0999 V2000
   -5.7026   -8.6504   12.2505 C   0  0  0  0  0  0  0  0  0  0  0  0
   -6.1359  -11.1151   10.7208 O   0  0  0  0  0  0  0  0  0  0  0  0
   -4.8075  -11.6297   10.5451 C   0  0  0  0  0  0  0  0  0  0  0  0
   -5.4501   -7.2642   12.7163 N   0  0  0  0  0  0  0  0  0  0  0  0
   -4.2796  -12.1960   11.8702 C   0  0  0  0  0  0  0  0  0  0  0  0
   -5.2175   -7.2611   14.1801 C   0  0  0  0  0  0  0  0  0  0  0  0
   -3.9750   -8.0996   14.5037 C   0  0  0  0  0  0  0  0  0  0  0  0
   -5.2781  -12.6413   12.5951 N   0  0  0  0  0  0  0  0  0  0  0  0
   -5.9091  -13.7591   12.2880 C   0  0  0  0  0  0  0  0  0  0  0  0
   -2.7241   -7.4168   13.9403 C   0  0  0  0  0  0  0  0  0  0  0  0
   -1.4851   -7.9251   14.6831 C   0  0  0  0  0  0  0  0  0  0  0  0
   -6.8606  -13.7962   11.3062 N   0  0  0  0  0  0  0  0  0  0  0  0
   -5.6077  -14.8980   12.9635 N   0  0  0  0  0  0  0  0  0  0  0  0
   -0.5159   -7.0462   14.5862 N   0  0  0  0  0  0  0  0  0  0  0  0
    0.5906   -7.1592   15.2956 C   0  0  0  0  0  0  0  0  0  0  0  0
    0.8991   -6.1942   16.1996 N   0  0  0  0  0  0  0  0  0  0  0  0
    1.4377   -8.2187   15.1346 N   0  0  0  0  0  0  0  0  0  0  0  0
   -6.2701   -9.8578   10.0458 C   0  0  0  0  0  0  0  0  0  0  0  0
   -6.7188   -6.1207    8.0250 O   0  0  0  0  0  0  0  0  0  0  0  0
   -6.0733   -8.6366   10.7529 C   0  0  0  0  0  0  0  0  0  0  0  0
   -6.2315   -7.3953   10.0804 C   0  0  0  0  0  0  0  0  0  0  0  0
   -6.5643   -7.3715    8.7005 C   0  0  0  0  0  0  0  0  0  0  0  0
   -6.7416   -8.5890    7.9898 C   0  0  0  0  0  0  0  0  0  0  0  0
   -6.5879   -9.8332    8.6594 C   0  0  0  0  0  0  0  0  0  0  0  0
   -7.9544   -5.5146    8.4158 C   0  0  0  0  0  0  0  0  0  0  0  0
  1  4  1  0  0  0  0
  2  3  1  0  0  0  0
  3  5  1  0  0  0  0
  4  6  1  0  0  0  0
  5  8  1  0  0  0  0
  6  7  1  0  0  0  0
  7 10  1  0  0  0  0
  8  9  1  0  0  0  0
  9 12  1  0  0  0  0
  9 13  1  0  0  0  0
 10 11  1  0  0  0  0
 11 14  1  0  0  0  0
 14 15  1  0  0  0  0
 15 16  1  0  0  0  0
 15 17  1  0  0  0  0
 18  2  1  0  0  0  0
 18 20  2  0  0  0  0
 18 24  1  0  0  0  0
 19 25  1  0  0  0  0
 20  1  1  0  0  0  0
 20 21  1  0  0  0  0
 21 22  2  0  0  0  0
 22 19  1  0  0  0  0
 22 23  1  0  0  0  0
 23 24  2  0  0  0  0
M  END
>  <CHROM.1>
174.77794239,136.93729898,29.52758784,61.73324378,73.25766833,66.89295404
158.68876909,-79.59516192,-83.32419135,155.78834690,-156.86337894,170.27025378
-117.17604267,-4.92578614,-4.15763577,-94.71545454,175.51750401,-74.13849736
-4.51159709,-9.15973702,12.00736253,2.98670564,0.74397537,2.89421612

>  <Name>
1uud_lig

>  <RI>
0

>  <Rbt.Current_Directory>
/home/itssahil/PROJECTS/Mol_Feturizer/New_Systems/rnas/1uud

>  <Rbt.Executable>
rbdock ($Id: //depot/dev/client3/rdock/2013.1/src/exe/rbdock.cxx#4 $)

>  <Rbt.Library>
libRbt.so (2013.1, Build901 2013/11/27)

>  <Rbt.Parameter_File>
/export/apps/rDock/src/rDock_2013.1_src/data/scripts/dock_solv.prm

>  <Rbt.Receptor>
prm/blind_docking_80.prm

>  <SCORE>
-37.0607

>  <SCORE.INTER>
-36.1902

>  <SCORE.INTER.CONST>
1

>  <SCORE.INTER.POLAR>
-5.75769

>  <SCORE.INTER.ROT>
18

>  <SCORE.INTER.SOLV>
12.0705

>  <SCORE.INTER.VDW>
-24.558

>  <SCORE.INTER.norm>
-1.44761

>  <SCORE.INTRA>
-2.09045

>  <SCORE.INTRA.DIHEDRAL>
1.2988

>  <SCORE.INTRA.DIHEDRAL.0>
30.6762

>  <SCORE.INTRA.POLAR>
0.0288659

>  <SCORE.INTRA.POLAR.0>
-0.0288659

>  <SCORE.INTRA.REPUL>
0

>  <SCORE.INTRA.REPUL.0>
0

>  <SCORE.INTRA.SOLV>
-0.433691

>  <SCORE.INTRA.SOLV.lig_0>
-25.2195

>  <SCORE.INTRA.VDW>
-2.62115

>  <SCORE.INTRA.VDW.0>
4.14263

>  <SCORE.INTRA.norm>
-0.0836182

>  <SCORE.RESTR>
1.21993

>  <SCORE.RESTR.CAVITY>
1.21993

>  <SCORE.RESTR.norm>
0.0487971

>  <SCORE.SYSTEM>
0

>  <SCORE.SYSTEM.CONST>
0

>  <SCORE.SYSTEM.DIHEDRAL>
0

>  <SCORE.SYSTEM.SOLV>
0

>  <SCORE.SYSTEM.norm>
0

>  <SCORE.heavy>
25

>  <SCORE.norm>
-1.48243

>  <RMSD>
15.175

$$$$
1uud_lig
 OpenBabel11021811413D
libRbt.so/2013.1/901 2013/11/27
 25 25  0  0  0  0  0  0  0  0999 V2000
   -4.8509  -13.2804   11.1965 C   0  0  0  0  0  0  0  0  0  0  0  0
   -7.4818  -13.6703    9.9600 O   0  0  0  0  0  0  0  0  0  0  0  0
   -7.7708  -14.1397   11.2853 C   0  0  0  0  0  0  0  0  0  0  0  0
   -4.1997  -12.8536   12.4598 N   0  0  0  0  0  0  0  0  0  0  0  0
   -9.2713  -14.0066   11.5786 C   0  0  0  0  0  0  0  0  0  0  0  0
   -2.8271  -12.3703   12.1788 C   0  0  0  0  0  0  0  0  0  0  0  0
   -2.3144  -11.5586   13.3746 C   0  0  0  0  0  0  0  0  0  0  0  0
   -9.9469  -14.8609   10.8476 N   0  0  0  0  0  0  0  0  0  0  0  0
  -10.4621  -14.5160    9.6824 C   0  0  0  0  0  0  0  0  0  0  0  0
   -2.4389  -10.0599   13.0791 C   0  0  0  0  0  0  0  0  0  0  0  0
   -2.2147   -9.2639   14.3680 C   0  0  0  0  0  0  0  0  0  0  0  0
   -9.6947  -13.9536    8.7000 N   0  0  0  0  0  0  0  0  0  0  0  0
  -11.7848  -14.7231    9.4547 N   0  0  0  0  0  0  0  0  0  0  0  0
   -2.0258   -7.9975   14.0822 N   0  0  0  0  0  0  0  0  0  0  0  0
   -2.9693   -7.2707   13.5148 C   0  0  0  0  0  0  0  0  0  0  0  0
   -4.1605   -7.1199   14.1489 N   0  0  0  0  0  0  0  0  0  0  0  0
   -2.7794   -6.6753   12.3001 N   0  0  0  0  0  0  0  0  0  0  0  0
   -6.9406  -12.3442   10.0145 C   0  0  0  0  0  0  0  0  0  0  0  0
   -5.3663   -8.3774   10.2060 O   0  0  0  0  0  0  0  0  0  0  0  0
   -5.6681  -12.1100   10.6112 C   0  0  0  0  0  0  0  0  0  0  0  0
   -5.1509  -10.7887   10.6810 C   0  0  0  0  0  0  0  0  0  0  0  0
   -5.8910   -9.7057   10.1380 C   0  0  0  0  0  0  0  0  0  0  0  0
   -7.1513   -9.9409    9.5253 C   0  0  0  0  0  0  0  0  0  0  0  0
   -7.6742  -11.2607    9.4564 C   0  0  0  0  0  0  0  0  0  0  0  0
   -5.6931   -7.7973   11.4722 C   0  0  0  0  0  0  0  0  0  0  0  0
  1  4  1  0  0  0  0
  2  3  1  0  0  0  0
  3  5  1  0  0  0  0
  4  6  1  0  0  0  0
  5  8  1  0  0  0  0
  6  7  1  0  0  0  0
  7 10  1  0  0  0  0
  8  9  1  0  0  0  0
  9 12  1  0  0  0  0
  9 13  1  0  0  0  0
 10 11  1  0  0  0  0
 11 14  1  0  0  0  0
 14 15  1  0  0  0  0
 15 16  1  0  0  0  0
 15 17  1  0  0  0  0
 18  2  1  0  0  0  0
 18 20  2  0  0  0  0
 18 24  1  0  0  0  0
 19 25  1  0  0  0  0
 20  1  1  0  0  0  0
 20 21  1  0  0  0  0
 21 22  2  0  0  0  0
 22 19  1  0  0  0  0
 22 23  1  0  0  0  0
 23 24  2  0  0  0  0
M  END
>  <CHROM.1>
-93.68969625,100.66669610,69.06398112,163.34020412,-94.11819355,-100.82830418
167.92867746,53.75346770,1.03780315,26.20577344,166.16115565,63.50511314
59.68881483,-22.99090324,67.63255879,66.23399967,-140.34027116,-84.56661152
-5.87976063,-11.21370847,11.39704949,-2.55028702,-0.54518809,-0.14250654

>  <Name>
1uud_lig

>  <RI>
0

>  <Rbt.Current_Directory>
/home/itssahil/PROJECTS/Mol_Feturizer/New_Systems/rnas/1uud

>  <Rbt.Executable>
rbdock ($Id: //depot/dev/client3/rdock/2013.1/src/exe/rbdock.cxx#4 $)

>  <Rbt.Library>
libRbt.so (2013.1, Build901 2013/11/27)

>  <Rbt.Parameter_File>
/export/apps/rDock/src/rDock_2013.1_src/data/scripts/dock_solv.prm

>  <Rbt.Receptor>
prm/blind_docking_40.prm

>  <SCORE>
-26.6907

>  <SCORE.INTER>
-21.0767

>  <SCORE.INTER.CONST>
1

>  <SCORE.INTER.POLAR>
-3.75681

>  <SCORE.INTER.ROT>
18

>  <SCORE.INTER.SOLV>
10.0578

>  <SCORE.INTER.VDW>
-20.481

>  <SCORE.INTER.norm>
-0.843067

>  <SCORE.INTRA>
-6.30995

>  <SCORE.INTRA.DIHEDRAL>
2.50382

>  <SCORE.INTRA.DIHEDRAL.0>
30.6762

>  <SCORE.INTRA.POLAR>
-0.902436

>  <SCORE.INTRA.POLAR.0>
-0.0288659

>  <SCORE.INTRA.REPUL>
0

>  <SCORE.INTRA.REPUL.0>
0

>  <SCORE.INTRA.SOLV>
0.736287

>  <SCORE.INTRA.SOLV.lig_0>
-25.2195

>  <SCORE.INTRA.VDW>
-4.86172

>  <SCORE.INTRA.VDW.0>
4.14263

>  <SCORE.INTRA.norm>
-0.252398

>  <SCORE.RESTR>
0.695947

>  <SCORE.RESTR.CAVITY>
0.695947

>  <SCORE.RESTR.norm>
0.0278379

>  <SCORE.SYSTEM>
0

>  <SCORE.SYSTEM.CONST>
0

>  <SCORE.SYSTEM.DIHEDRAL>
0

>  <SCORE.SYSTEM.SOLV>
0

>  <SCORE.SYSTEM.norm>
0

>  <SCORE.heavy>
25

>  <SCORE.norm>
-1.06763

>  <RMSD>
15.181

$$$$
1uud_lig
 OpenBabel11021811413D
libRbt.so/2013.1/901 2013/11/27
 25 25  0  0  0  0  0  0  0  0999 V2000
   -7.7254  -13.3752    8.3812 C   0  0  0  0  0  0  0  0  0  0  0  0
   -7.1873  -13.9174   11.2131 O   0  0  0  0  0  0  0  0  0  0  0  0
   -7.1377  -14.1667   12.6257 C   0  0  0  0  0  0  0  0  0  0  0  0
   -7.6214  -11.9026    8.2310 N   0  0  0  0  0  0  0  0  0  0  0  0
   -5.6896  -14.4150   13.0690 C   0  0  0  0  0  0  0  0  0  0  0  0
   -6.7234  -11.3536    9.2745 C   0  0  0  0  0  0  0  0  0  0  0  0
   -6.2138   -9.9744    8.8387 C   0  0  0  0  0  0  0  0  0  0  0  0
   -4.9632  -13.3468   12.8411 N   0  0  0  0  0  0  0  0  0  0  0  0
   -4.1775  -13.2592   11.7842 C   0  0  0  0  0  0  0  0  0  0  0  0
   -5.1119   -9.5007    9.7927 C   0  0  0  0  0  0  0  0  0  0  0  0
   -4.9287   -7.9869    9.6514 C   0  0  0  0  0  0  0  0  0  0  0  0
   -2.8416  -12.9928   11.9069 N   0  0  0  0  0  0  0  0  0  0  0  0
   -4.7082  -13.4363   10.5468 N   0  0  0  0  0  0  0  0  0  0  0  0
   -6.0157   -7.3679   10.0472 N   0  0  0  0  0  0  0  0  0  0  0  0
   -6.5850   -7.6463   11.2043 C   0  0  0  0  0  0  0  0  0  0  0  0
   -6.1098   -7.0615   12.3338 N   0  0  0  0  0  0  0  0  0  0  0  0
   -7.6341   -8.5166   11.2935 N   0  0  0  0  0  0  0  0  0  0  0  0
   -8.5422  -13.9798   10.7493 C   0  0  0  0  0  0  0  0  0  0  0  0
  -12.5922  -14.1278    9.3980 O   0  0  0  0  0  0  0  0  0  0  0  0
   -8.8479  -13.7182    9.3826 C   0  0  0  0  0  0  0  0  0  0  0  0
  -10.1965  -13.7598    8.9379 C   0  0  0  0  0  0  0  0  0  0  0  0
  -11.2361  -14.0826    9.8492 C   0  0  0  0  0  0  0  0  0  0  0  0
  -10.9301  -14.3627   11.2081 C   0  0  0  0  0  0  0  0  0  0  0  0
   -9.5827  -14.3188   11.6582 C   0  0  0  0  0  0  0  0  0  0  0  0
  -12.9204  -12.8992    8.7427 C   0  0  0  0  0  0  0  0  0  0  0  0
  1  4  1  0  0  0  0
  2  3  1  0  0  0  0
  3  5  1  0  0  0  0
  4  6  1  0  0  0  0
  5  8  1  0  0  0  0
  6  7  1  0  0  0  0
  7 10  1  0  0  0  0
  8  9  1  0  0  0  0
  9 12  1  0  0  0  0
  9 13  1  0  0  0  0
 10 11  1  0  0  0  0
 11 14  1  0  0  0  0
 14 15  1  0  0  0  0
 15 16  1  0  0  0  0
 15 17  1  0  0  0  0
 18  2  1  0  0  0  0
 18 20  2  0  0  0  0
 18 24  1  0  0  0  0
 19 25  1  0  0  0  0
 20  1  1  0  0  0  0
 20 21  1  0  0  0  0
 21 22  2  0  0  0  0
 22 19  1  0  0  0  0
 22 23  1  0  0  0  0
 23 24  2  0  0  0  0
M  END
>  <CHROM.1>
86.89091021,167.26281549,62.25760977,159.63117202,-100.17883539,-170.72312532
-161.66234115,-124.40994373,121.07768356,-33.79837607,64.93797010,49.72015946
83.00447688,98.21631379,-25.08365556,177.80367242,-96.59873178,-53.24896615
-7.38877932,-11.99183302,10.52649871,2.50909920,0.36632245,2.91107768

>  <Name>
1uud_lig

>  <RI>
0

>  <Rbt.Current_Directory>
/home/itssahil/PROJECTS/Mol_Feturizer/New_Systems/rnas/1uud

>  <Rbt.Executable>
rbdock ($Id: //depot/dev/client3/rdock/2013.1/src/exe/rbdock.cxx#4 $)

>  <Rbt.Library>
libRbt.so (2013.1, Build901 2013/11/27)

>  <Rbt.Parameter_File>
/export/apps/rDock/src/rDock_2013.1_src/data/scripts/dock_solv.prm

>  <Rbt.Receptor>
prm/blind_docking_100.prm

>  <SCORE>
-28.6591

>  <SCORE.INTER>
-24.401

>  <SCORE.INTER.CONST>
1

>  <SCORE.INTER.POLAR>
-3.63535

>  <SCORE.INTER.ROT>
18

>  <SCORE.INTER.SOLV>
11.364

>  <SCORE.INTER.VDW>
-23.5375

>  <SCORE.INTER.norm>
-0.976038

>  <SCORE.INTRA>
-6.59743

>  <SCORE.INTRA.DIHEDRAL>
-12.3351

>  <SCORE.INTRA.DIHEDRAL.0>
30.6762

>  <SCORE.INTRA.POLAR>
-0.474689

>  <SCORE.INTRA.POLAR.0>
-0.0288659

>  <SCORE.INTRA.REPUL>
0

>  <SCORE.INTRA.REPUL.0>
0

>  <SCORE.INTRA.SOLV>
1.04863

>  <SCORE.INTRA.SOLV.lig_0>
-25.2195

>  <SCORE.INTRA.VDW>
0.659754

>  <SCORE.INTRA.VDW.0>
4.14263

>  <SCORE.INTRA.norm>
-0.263897

>  <SCORE.RESTR>
2.33929

>  <SCORE.RESTR.CAVITY>
2.33929

>  <SCORE.RESTR.norm>
0.0935716

>  <SCORE.SYSTEM>
0

>  <SCORE.SYSTEM.CONST>
0

>  <SCORE.SYSTEM.DIHEDRAL>
0

>  <SCORE.SYSTEM.SOLV>
0

>  <SCORE.SYSTEM.norm>
0

>  <SCORE.heavy>
25

>  <SCORE.norm>
-1.14636

>  <RMSD>
15.190

$$$$
1uud_lig
 OpenBabel11021811413D
libRbt.so/2013.1/901 2013/11/27
 25 25  0  0  0  0  0  0  0  0999 V2000
   -7.0782  -12.2393    9.2956 C   0  0  0  0  0  0  0  0  0  0  0  0
   -9.9812  -12.2506    9.7144 O   0  0  0  0  0  0  0  0  0  0  0  0
  -11.2466  -12.8811    9.4669 C   0  0  0  0  0  0  0  0  0  0  0  0
   -7.5526  -10.8392    9.4248 N   0  0  0  0  0  0  0  0  0  0  0  0
  -12.1089  -11.9977    8.5552 C   0  0  0  0  0  0  0  0  0  0  0  0
   -6.9295   -9.9991    8.3747 C   0  0  0  0  0  0  0  0  0  0  0  0
   -5.6866   -9.3044    8.9441 C   0  0  0  0  0  0  0  0  0  0  0  0
  -11.5704  -11.9283    7.3610 N   0  0  0  0  0  0  0  0  0  0  0  0
  -11.0566  -10.8034    6.9001 C   0  0  0  0  0  0  0  0  0  0  0  0
   -4.9474  -10.2542    9.8929 C   0  0  0  0  0  0  0  0  0  0  0  0
   -4.8156   -9.6003   11.2714 C   0  0  0  0  0  0  0  0  0  0  0  0
  -11.8520   -9.7609    6.5113 N   0  0  0  0  0  0  0  0  0  0  0  0
   -9.7074  -10.6789    6.8086 N   0  0  0  0  0  0  0  0  0  0  0  0
   -6.0057   -9.4111   11.7902 N   0  0  0  0  0  0  0  0  0  0  0  0
   -6.5275   -8.2041   11.8965 C   0  0  0  0  0  0  0  0  0  0  0  0
   -5.8038   -7.1313   11.4855 N   0  0  0  0  0  0  0  0  0  0  0  0
   -7.7741   -8.0079   12.4196 N   0  0  0  0  0  0  0  0  0  0  0  0
   -9.1666  -13.0899   10.5430 C   0  0  0  0  0  0  0  0  0  0  0  0
   -6.7620  -15.6321   12.9936 O   0  0  0  0  0  0  0  0  0  0  0  0
   -7.7527  -13.1184   10.3692 C   0  0  0  0  0  0  0  0  0  0  0  0
   -6.9565  -13.9711   11.1798 C   0  0  0  0  0  0  0  0  0  0  0  0
   -7.5662  -14.7779   12.1762 C   0  0  0  0  0  0  0  0  0  0  0  0
   -8.9741  -14.7356   12.3634 C   0  0  0  0  0  0  0  0  0  0  0  0
   -9.7750  -13.8866   11.5523 C   0  0  0  0  0  0  0  0  0  0  0  0
   -6.0280  -14.8431   13.9344 C   0  0  0  0  0  0  0  0  0  0  0  0
  1  4  1  0  0  0  0
  2  3  1  0  0  0  0
  3  5  1  0  0  0  0
  4  6  1  0  0  0  0
  5  8  1  0  0  0  0
  6  7  1  0  0  0  0
  7 10  1  0  0  0  0
  8  9  1  0  0  0  0
  9 12  1  0  0  0  0
  9 13  1  0  0  0  0
 10 11  1  0  0  0  0
 11 14  1  0  0  0  0
 14 15  1  0  0  0  0
 15 16  1  0  0  0  0
 15 17  1  0  0  0  0
 18  2  1  0  0  0  0
 18 20  2  0  0  0  0
 18 24  1  0  0  0  0
 19 25  1  0  0  0  0
 20  1  1  0  0  0  0
 20 21  1  0  0  0  0
 21 22  2  0  0  0  0
 22 19  1  0  0  0  0
 22 23  1  0  0  0  0
 23 24  2  0  0  0  0
M  END
>  <CHROM.1>
-178.71140758,-178.78744512,66.94012377,-95.65557598,-112.08174440,37.74338062
-123.08196650,-72.97285368,130.16756016,-129.89534711,63.50525705,-108.29750547
-1.42669086,28.47973686,175.77833655,145.94729625,50.33425767,72.94842058
-8.15205111,-11.49258517,10.18294167,0.35383833,0.65413186,2.65886703

>  <Name>
1uud_lig

>  <RI>
0

>  <Rbt.Current_Directory>
/home/itssahil/PROJECTS/Mol_Feturizer/New_Systems/rnas/1uud

>  <Rbt.Executable>
rbdock ($Id: //depot/dev/client3/rdock/2013.1/src/exe/rbdock.cxx#4 $)

>  <Rbt.Library>
libRbt.so (2013.1, Build901 2013/11/27)

>  <Rbt.Parameter_File>
/export/apps/rDock/src/rDock_2013.1_src/data/scripts/dock_solv.prm

>  <Rbt.Receptor>
prm/blind_docking_100.prm

>  <SCORE>
-29.4904

>  <SCORE.INTER>
-24.8435

>  <SCORE.INTER.CONST>
1

>  <SCORE.INTER.POLAR>
-4.95087

>  <SCORE.INTER.ROT>
18

>  <SCORE.INTER.SOLV>
10.5247

>  <SCORE.INTER.VDW>
-19.1677

>  <SCORE.INTER.norm>
-0.993741

>  <SCORE.INTRA>
-6.62447

>  <SCORE.INTRA.DIHEDRAL>
-4.13947

>  <SCORE.INTRA.DIHEDRAL.0>
30.6762

>  <SCORE.INTRA.POLAR>
-1.4606

>  <SCORE.INTRA.POLAR.0>
-0.0288659

>  <SCORE.INTRA.REPUL>
0

>  <SCORE.INTRA.REPUL.0>
0

>  <SCORE.INTRA.SOLV>
1.61434

>  <SCORE.INTRA.SOLV.lig_0>
-25.2195

>  <SCORE.INTRA.VDW>
-0.39585

>  <SCORE.INTRA.VDW.0>
4.14263

>  <SCORE.INTRA.norm>
-0.264979

>  <SCORE.RESTR>
1.97764

>  <SCORE.RESTR.CAVITY>
1.97764

>  <SCORE.RESTR.norm>
0.0791057

>  <SCORE.SYSTEM>
0

>  <SCORE.SYSTEM.CONST>
0

>  <SCORE.SYSTEM.DIHEDRAL>
0

>  <SCORE.SYSTEM.SOLV>
0

>  <SCORE.SYSTEM.norm>
0

>  <SCORE.heavy>
25

>  <SCORE.norm>
-1.17961

>  <RMSD>
15.197

$$$$
1uud_lig
 OpenBabel11021811413D
libRbt.so/2013.1/901 2013/11/27
 25 25  0  0  0  0  0  0  0  0999 V2000
   -6.4555  -10.8986    8.2851 C   0  0  0  0  0  0  0  0  0  0  0  0
   -7.9935  -13.3616    8.6982 O   0  0  0  0  0  0  0  0  0  0  0  0
   -9.1354  -12.5361    8.4246 C   0  0  0  0  0  0  0  0  0  0  0  0
   -6.8505   -9.4808    8.4750 N   0  0  0  0  0  0  0  0  0  0  0  0
  -10.3479  -13.0267    9.2273 C   0  0  0  0  0  0  0  0  0  0  0  0
   -5.7414   -8.7317    9.1117 C   0  0  0  0  0  0  0  0  0  0  0  0
   -6.3123   -7.7371   10.1298 C   0  0  0  0  0  0  0  0  0  0  0  0
  -11.4518  -12.7883    8.5599 N   0  0  0  0  0  0  0  0  0  0  0  0
  -12.1491  -11.6842    8.7514 C   0  0  0  0  0  0  0  0  0  0  0  0
   -7.0710   -8.4920   11.2268 C   0  0  0  0  0  0  0  0  0  0  0  0
   -6.8742   -7.7795   12.5680 C   0  0  0  0  0  0  0  0  0  0  0  0
  -11.5432  -10.4605    8.8285 N   0  0  0  0  0  0  0  0  0  0  0  0
  -13.4990  -11.7656    8.8761 N   0  0  0  0  0  0  0  0  0  0  0  0
   -5.8420   -8.2904   13.1965 N   0  0  0  0  0  0  0  0  0  0  0  0
   -5.0566   -7.5457   13.9509 C   0  0  0  0  0  0  0  0  0  0  0  0
   -5.0530   -7.7379   15.2950 N   0  0  0  0  0  0  0  0  0  0  0  0
   -4.2550   -6.5795   13.4123 N   0  0  0  0  0  0  0  0  0  0  0  0
   -7.2509  -12.8251    9.8005 C   0  0  0  0  0  0  0  0  0  0  0  0
   -5.0092  -11.2679   13.0870 O   0  0  0  0  0  0  0  0  0  0  0  0
   -6.4863  -11.6335    9.6413 C   0  0  0  0  0  0  0  0  0  0  0  0
   -5.7350  -11.1227   10.7335 C   0  0  0  0  0  0  0  0  0  0  0  0
   -5.7630  -11.7865   11.9881 C   0  0  0  0  0  0  0  0  0  0  0  0
   -6.5407  -12.9641   12.1534 C   0  0  0  0  0  0  0  0  0  0  0  0
   -7.2910  -13.4807   11.0624 C   0  0  0  0  0  0  0  0  0  0  0  0
   -3.6113  -11.3803   12.8046 C   0  0  0  0  0  0  0  0  0  0  0  0
  1  4  1  0  0  0  0
  2  3  1  0  0  0  0
  3  5  1  0  0  0  0
  4  6  1  0  0  0  0
  5  8  1  0  0  0  0
  6  7  1  0  0  0  0
  7 10  1  0  0  0  0
  8  9  1  0  0  0  0
  9 12  1  0  0  0  0
  9 13  1  0  0  0  0
 10 11  1  0  0  0  0
 11 14  1  0  0  0  0
 14 15  1  0  0  0  0
 15 16  1  0  0  0  0
 15 17  1  0  0  0  0
 18  2  1  0  0  0  0
 18 20  2  0  0  0  0
 18 24  1  0  0  0  0
 19 25  1  0  0  0  0
 20  1  1  0  0  0  0
 20 21  1  0  0  0  0
 21 22  2  0  0  0  0
 22 19  1  0  0  0  0
 22 23  1  0  0  0  0
 23 24  2  0  0  0  0
M  END
>  <CHROM.1>
74.53320483,-90.53593439,-148.62488238,-141.13225989,-93.42247202,61.29555779
144.51466181,45.20283017,-127.99747529,108.08828548,-92.05097845,145.69814093
111.80926086,-48.39371496,81.39664219,-72.11556282,125.47572641,-66.60820548
-7.36273199,-10.55930316,10.74177758,-2.50465932,-0.49290530,0.30083046

>  <Name>
1uud_lig

>  <RI>
0

>  <Rbt.Current_Directory>
/home/itssahil/PROJECTS/Mol_Feturizer/New_Systems/rnas/1uud

>  <Rbt.Executable>
rbdock ($Id: //depot/dev/client3/rdock/2013.1/src/exe/rbdock.cxx#4 $)

>  <Rbt.Library>
libRbt.so (2013.1, Build901 2013/11/27)

>  <Rbt.Parameter_File>
/export/apps/rDock/src/rDock_2013.1_src/data/scripts/dock_solv.prm

>  <Rbt.Receptor>
prm/blind_docking_20.prm

>  <SCORE>
-27.162

>  <SCORE.INTER>
-22.942

>  <SCORE.INTER.CONST>
1

>  <SCORE.INTER.POLAR>
-3.96711

>  <SCORE.INTER.ROT>
18

>  <SCORE.INTER.SOLV>
9.93496

>  <SCORE.INTER.VDW>
-20.9827

>  <SCORE.INTER.norm>
-0.917681

>  <SCORE.INTRA>
-4.71976

>  <SCORE.INTRA.DIHEDRAL>
4.75381

>  <SCORE.INTRA.DIHEDRAL.0>
30.6762

>  <SCORE.INTRA.POLAR>
-0.962136

>  <SCORE.INTRA.POLAR.0>
-0.0288659

>  <SCORE.INTRA.REPUL>
0.00638914

>  <SCORE.INTRA.REPUL.0>
0

>  <SCORE.INTRA.SOLV>
-0.231778

>  <SCORE.INTRA.SOLV.lig_0>
-25.2195

>  <SCORE.INTRA.VDW>
-3.74147

>  <SCORE.INTRA.VDW.0>
4.14263

>  <SCORE.INTRA.norm>
-0.188791

>  <SCORE.RESTR>
0.499744

>  <SCORE.RESTR.CAVITY>
0.499744

>  <SCORE.RESTR.norm>
0.0199898

>  <SCORE.SYSTEM>
0

>  <SCORE.SYSTEM.CONST>
0

>  <SCORE.SYSTEM.DIHEDRAL>
0

>  <SCORE.SYSTEM.SOLV>
0

>  <SCORE.SYSTEM.norm>
0

>  <SCORE.heavy>
25

>  <SCORE.norm>
-1.08648

>  <RMSD>
15.225

$$$$
1uud_lig
 OpenBabel11021811413D
libRbt.so/2013.1/901 2013/11/27
 25 25  0  0  0  0  0  0  0  0999 V2000
   -5.0028   -7.8662   11.1451 C   0  0  0  0  0  0  0  0  0  0  0  0
   -7.1235   -9.4601    9.8942 O   0  0  0  0  0  0  0  0  0  0  0  0
   -7.3684  -10.1171    8.6417 C   0  0  0  0  0  0  0  0  0  0  0  0
   -5.4300   -7.2823   12.4407 N   0  0  0  0  0  0  0  0  0  0  0  0
   -8.5279  -11.1123    8.7839 C   0  0  0  0  0  0  0  0  0  0  0  0
   -4.2393   -6.8944   13.2335 C   0  0  0  0  0  0  0  0  0  0  0  0
   -3.7450   -8.1012   14.0403 C   0  0  0  0  0  0  0  0  0  0  0  0
   -8.4267  -12.0494    7.8715 N   0  0  0  0  0  0  0  0  0  0  0  0
   -7.9347  -13.2403    8.1572 C   0  0  0  0  0  0  0  0  0  0  0  0
   -2.4474   -7.7425   14.7726 C   0  0  0  0  0  0  0  0  0  0  0  0
   -1.2815   -7.7470   13.7797 C   0  0  0  0  0  0  0  0  0  0  0  0
   -6.8870  -13.7682    7.4541 N   0  0  0  0  0  0  0  0  0  0  0  0
   -8.4822  -13.9583    9.1716 N   0  0  0  0  0  0  0  0  0  0  0  0
   -0.1672   -7.4389   14.3998 N   0  0  0  0  0  0  0  0  0  0  0  0
    0.5251   -8.3443   15.0642 C   0  0  0  0  0  0  0  0  0  0  0  0
    1.8797   -8.2546   15.0900 N   0  0  0  0  0  0  0  0  0  0  0  0
   -0.0885   -9.3751   15.7177 N   0  0  0  0  0  0  0  0  0  0  0  0
   -6.0883  -10.1421   10.6138 C   0  0  0  0  0  0  0  0  0  0  0  0
   -2.9890  -12.1978   12.7158 O   0  0  0  0  0  0  0  0  0  0  0  0
   -5.0365   -9.4061   11.2319 C   0  0  0  0  0  0  0  0  0  0  0  0
   -4.0027  -10.0929   11.9231 C   0  0  0  0  0  0  0  0  0  0  0  0
   -4.0286  -11.5093   12.0161 C   0  0  0  0  0  0  0  0  0  0  0  0
   -5.0876  -12.2429   11.4166 C   0  0  0  0  0  0  0  0  0  0  0  0
   -6.1221  -11.5602   10.7212 C   0  0  0  0  0  0  0  0  0  0  0  0
   -1.8340  -11.3584   12.8049 C   0  0  0  0  0  0  0  0  0  0  0  0
  1  4  1  0  0  0  0
  2  3  1  0  0  0  0
  3  5  1  0  0  0  0
  4  6  1  0  0  0  0
  5  8  1  0  0  0  0
  6  7  1  0  0  0  0
  7 10  1  0  0  0  0
  8  9  1  0  0  0  0
  9 12  1  0  0  0  0
  9 13  1  0  0  0  0
 10 11  1  0  0  0  0
 11 14  1  0  0  0  0
 14 15  1  0  0  0  0
 15 16  1  0  0  0  0
 15 17  1  0  0  0  0
 18  2  1  0  0  0  0
 18 20  2  0  0  0  0
 18 24  1  0  0  0  0
 19 25  1  0  0  0  0
 20  1  1  0  0  0  0
 20 21  1  0  0  0  0
 21 22  2  0  0  0  0
 22 19  1  0  0  0  0
 22 23  1  0  0  0  0
 23 24  2  0  0  0  0
M  END
>  <CHROM.1>
98.72846529,94.69203412,-155.52468222,-86.35280011,100.45282466,175.33836894
-76.49429861,-125.21696536,-25.83647857,135.60008842,179.91984234,82.66675130
145.98758235,75.29596698,150.34515068,134.43614838,104.15643352,-20.78775886
-4.36792203,-10.05552309,11.73775393,0.57600175,-0.56675621,0.29525486

>  <Name>
1uud_lig

>  <RI>
0

>  <Rbt.Current_Directory>
/home/itssahil/PROJECTS/Mol_Feturizer/New_Systems/rnas/1uud

>  <Rbt.Executable>
rbdock ($Id: //depot/dev/client3/rdock/2013.1/src/exe/rbdock.cxx#4 $)

>  <Rbt.Library>
libRbt.so (2013.1, Build901 2013/11/27)

>  <Rbt.Parameter_File>
/export/apps/rDock/src/rDock_2013.1_src/data/scripts/dock_solv.prm

>  <Rbt.Receptor>
prm/blind_docking_20.prm

>  <SCORE>
-37.8913

>  <SCORE.INTER>
-37.7298

>  <SCORE.INTER.CONST>
1

>  <SCORE.INTER.POLAR>
-5.79296

>  <SCORE.INTER.ROT>
18

>  <SCORE.INTER.SOLV>
14.8606

>  <SCORE.INTER.VDW>
-26.3969

>  <SCORE.INTER.norm>
-1.50919

>  <SCORE.INTRA>
-0.33418

>  <SCORE.INTRA.DIHEDRAL>
-5.60075

>  <SCORE.INTRA.DIHEDRAL.0>
30.6762

>  <SCORE.INTRA.POLAR>
0.0288659

>  <SCORE.INTRA.POLAR.0>
-0.0288659

>  <SCORE.INTRA.REPUL>
0

>  <SCORE.INTRA.REPUL.0>
0

>  <SCORE.INTRA.SOLV>
-0.435236

>  <SCORE.INTRA.SOLV.lig_0>
-25.2195

>  <SCORE.INTRA.VDW>
2.58567

>  <SCORE.INTRA.VDW.0>
4.14263

>  <SCORE.INTRA.norm>
-0.0133672

>  <SCORE.RESTR>
0.172595

>  <SCORE.RESTR.CAVITY>
0.172595

>  <SCORE.RESTR.norm>
0.00690379

>  <SCORE.SYSTEM>
0

>  <SCORE.SYSTEM.CONST>
0

>  <SCORE.SYSTEM.DIHEDRAL>
0

>  <SCORE.SYSTEM.SOLV>
0

>  <SCORE.SYSTEM.norm>
0

>  <SCORE.heavy>
25

>  <SCORE.norm>
-1.51565

>  <RMSD>
15.233

$$$$
1uud_lig
 OpenBabel11021811413D
libRbt.so/2013.1/901 2013/11/27
 25 25  0  0  0  0  0  0  0  0999 V2000
   -4.3177  -12.4823    9.0742 C   0  0  0  0  0  0  0  0  0  0  0  0
   -4.6652  -10.2751   10.9741 O   0  0  0  0  0  0  0  0  0  0  0  0
   -3.9492   -9.1806   10.3827 C   0  0  0  0  0  0  0  0  0  0  0  0
   -4.2632  -13.5566   10.0965 N   0  0  0  0  0  0  0  0  0  0  0  0
   -4.8205   -7.9173   10.3808 C   0  0  0  0  0  0  0  0  0  0  0  0
   -4.2420  -12.9586   11.4525 C   0  0  0  0  0  0  0  0  0  0  0  0
   -5.0616  -13.8312   12.4107 C   0  0  0  0  0  0  0  0  0  0  0  0
   -5.3321   -7.7256   11.5734 N   0  0  0  0  0  0  0  0  0  0  0  0
   -4.6360   -7.1560   12.5393 C   0  0  0  0  0  0  0  0  0  0  0  0
   -6.5245  -13.3744   12.4095 C   0  0  0  0  0  0  0  0  0  0  0  0
   -7.1751  -13.7448   11.0736 C   0  0  0  0  0  0  0  0  0  0  0  0
   -3.3124   -6.8496   12.3814 N   0  0  0  0  0  0  0  0  0  0  0  0
   -5.2478   -6.8690   13.7173 N   0  0  0  0  0  0  0  0  0  0  0  0
   -8.4502  -13.4371   11.0987 N   0  0  0  0  0  0  0  0  0  0  0  0
   -9.3391  -14.2277   11.6689 C   0  0  0  0  0  0  0  0  0  0  0  0
   -9.8018  -13.9191   12.9076 N   0  0  0  0  0  0  0  0  0  0  0  0
   -9.7967  -15.3544   11.0467 N   0  0  0  0  0  0  0  0  0  0  0  0
   -5.7735  -10.6446   10.1437 C   0  0  0  0  0  0  0  0  0  0  0  0
   -9.0756  -11.7000    7.6472 O   0  0  0  0  0  0  0  0  0  0  0  0
   -5.6456  -11.7076    9.2037 C   0  0  0  0  0  0  0  0  0  0  0  0
   -6.7427  -12.0508    8.3689 C   0  0  0  0  0  0  0  0  0  0  0  0
   -7.9716  -11.3498    8.4858 C   0  0  0  0  0  0  0  0  0  0  0  0
   -8.1063  -10.3024    9.4365 C   0  0  0  0  0  0  0  0  0  0  0  0
   -7.0102   -9.9533   10.2712 C   0  0  0  0  0  0  0  0  0  0  0  0
  -10.2411  -11.9063    8.4506 C   0  0  0  0  0  0  0  0  0  0  0  0
  1  4  1  0  0  0  0
  2  3  1  0  0  0  0
  3  5  1  0  0  0  0
  4  6  1  0  0  0  0
  5  8  1  0  0  0  0
  6  7  1  0  0  0  0
  7 10  1  0  0  0  0
  8  9  1  0  0  0  0
  9 12  1  0  0  0  0
  9 13  1  0  0  0  0
 10 11  1  0  0  0  0
 11 14  1  0  0  0  0
 14 15  1  0  0  0  0
 15 16  1  0  0  0  0
 15 17  1  0  0  0  0
 18  2  1  0  0  0  0
 18 20  2  0  0  0  0
 18 24  1  0  0  0  0
 19 25  1  0  0  0  0
 20  1  1  0  0  0  0
 20 21  1  0  0  0  0
 21 22  2  0  0  0  0
 22 19  1  0  0  0  0
 22 23  1  0  0  0  0
 23 24  2  0  0  0  0
M  END
>  <CHROM.1>
-64.49654856,66.88473310,49.32816251,143.14725880,81.15801037,-89.49403743
70.62814156,-6.03940740,119.30870294,68.43166420,175.82808128,-81.16037352
101.39926268,158.78013890,50.23154931,95.57781956,84.18338471,128.93436418
-6.47210387,-11.30478178,10.73665156,-0.77630519,0.61582830,2.82299067

>  <Name>
1uud_lig

>  <RI>
0

>  <Rbt.Current_Directory>
/home/itssahil/PROJECTS/Mol_Feturizer/New_Systems/rnas/1uud

>  <Rbt.Executable>
rbdock ($Id: //depot/dev/client3/rdock/2013.1/src/exe/rbdock.cxx#4 $)

>  <Rbt.Library>
libRbt.so (2013.1, Build901 2013/11/27)

>  <Rbt.Parameter_File>
/export/apps/rDock/src/rDock_2013.1_src/data/scripts/dock_solv.prm

>  <Rbt.Receptor>
prm/blind_docking_60.prm

>  <SCORE>
-28.4678

>  <SCORE.INTER>
-24.877

>  <SCORE.INTER.CONST>
1

>  <SCORE.INTER.POLAR>
-3.93389

>  <SCORE.INTER.ROT>
18

>  <SCORE.INTER.SOLV>
11.6693

>  <SCORE.INTER.VDW>
-22.9614

>  <SCORE.INTER.norm>
-0.995079

>  <SCORE.INTRA>
-4.48402

>  <SCORE.INTRA.DIHEDRAL>
-6.36041

>  <SCORE.INTRA.DIHEDRAL.0>
30.6762

>  <SCORE.INTRA.POLAR>
0.0288659

>  <SCORE.INTRA.POLAR.0>
-0.0288659

>  <SCORE.INTRA.REPUL>
0

>  <SCORE.INTRA.REPUL.0>
0

>  <SCORE.INTRA.SOLV>
1.16949

>  <SCORE.INTRA.SOLV.lig_0>
-25.2195

>  <SCORE.INTRA.VDW>
-1.98671

>  <SCORE.INTRA.VDW.0>
4.14263

>  <SCORE.INTRA.norm>
-0.179361

>  <SCORE.RESTR>
0.893244

>  <SCORE.RESTR.CAVITY>
0.893244

>  <SCORE.RESTR.norm>
0.0357298

>  <SCORE.SYSTEM>
0

>  <SCORE.SYSTEM.CONST>
0

>  <SCORE.SYSTEM.DIHEDRAL>
0

>  <SCORE.SYSTEM.SOLV>
0

>  <SCORE.SYSTEM.norm>
0

>  <SCORE.heavy>
25

>  <SCORE.norm>
-1.13871

>  <RMSD>
15.233

$$$$
1uud_lig
 OpenBabel11021811413D
libRbt.so/2013.1/901 2013/11/27
 25 25  0  0  0  0  0  0  0  0999 V2000
   -7.6625  -13.3177    8.5984 C   0  0  0  0  0  0  0  0  0  0  0  0
   -7.8972  -14.9804   11.0032 O   0  0  0  0  0  0  0  0  0  0  0  0
   -7.3051  -14.1129   11.9816 C   0  0  0  0  0  0  0  0  0  0  0  0
   -7.7808  -12.1608    7.6767 N   0  0  0  0  0  0  0  0  0  0  0  0
   -6.5317  -12.9831   11.2884 C   0  0  0  0  0  0  0  0  0  0  0  0
   -6.4485  -11.5451    7.4703 C   0  0  0  0  0  0  0  0  0  0  0  0
   -6.3345  -10.2727    8.3187 C   0  0  0  0  0  0  0  0  0  0  0  0
   -5.3741  -12.8060   11.8795 N   0  0  0  0  0  0  0  0  0  0  0  0
   -5.2937  -12.4802   13.1559 C   0  0  0  0  0  0  0  0  0  0  0  0
   -5.3334  -10.4937    9.4578 C   0  0  0  0  0  0  0  0  0  0  0  0
   -5.2287   -9.2199   10.3014 C   0  0  0  0  0  0  0  0  0  0  0  0
   -4.7811  -13.3448   14.0834 N   0  0  0  0  0  0  0  0  0  0  0  0
   -5.7314  -11.2589   13.5575 N   0  0  0  0  0  0  0  0  0  0  0  0
   -6.1858   -9.2000   11.1985 N   0  0  0  0  0  0  0  0  0  0  0  0
   -6.5412   -8.0824   11.8027 C   0  0  0  0  0  0  0  0  0  0  0  0
   -7.7744   -7.9965   12.3645 N   0  0  0  0  0  0  0  0  0  0  0  0
   -5.7016   -7.0067   11.8671 N   0  0  0  0  0  0  0  0  0  0  0  0
   -9.0835  -14.3807   10.4669 C   0  0  0  0  0  0  0  0  0  0  0  0
  -12.6248  -12.5669    8.9115 O   0  0  0  0  0  0  0  0  0  0  0  0
   -9.0130  -13.5616    9.3033 C   0  0  0  0  0  0  0  0  0  0  0  0
  -10.1910  -12.9529    8.7932 C   0  0  0  0  0  0  0  0  0  0  0  0
  -11.4401  -13.1775    9.4294 C   0  0  0  0  0  0  0  0  0  0  0  0
  -11.5144  -14.0100   10.5785 C   0  0  0  0  0  0  0  0  0  0  0  0
  -10.3380  -14.6181   11.0943 C   0  0  0  0  0  0  0  0  0  0  0  0
  -13.2326  -13.4373    7.9526 C   0  0  0  0  0  0  0  0  0  0  0  0
  1  4  1  0  0  0  0
  2  3  1  0  0  0  0
  3  5  1  0  0  0  0
  4  6  1  0  0  0  0
  5  8  1  0  0  0  0
  6  7  1  0  0  0  0
  7 10  1  0  0  0  0
  8  9  1  0  0  0  0
  9 12  1  0  0  0  0
  9 13  1  0  0  0  0
 10 11  1  0  0  0  0
 11 14  1  0  0  0  0
 14 15  1  0  0  0  0
 15 16  1  0  0  0  0
 15 17  1  0  0  0  0
 18  2  1  0  0  0  0
 18 20  2  0  0  0  0
 18 24  1  0  0  0  0
 19 25  1  0  0  0  0
 20  1  1  0  0  0  0
 20 21  1  0  0  0  0
 21 22  2  0  0  0  0
 22 19  1  0  0  0  0
 22 23  1  0  0  0  0
 23 24  2  0  0  0  0
M  END
>  <CHROM.1>
154.86983668,-78.32346448,-136.03356694,-101.98160623,-59.86318428,110.48190926
-179.85519122,112.47131637,-131.47489493,145.79111052,84.56622688,-161.63876955
158.29645071,-154.57010175,163.34910220,91.08539970,-164.15923251,90.17575432
-7.75843402,-11.93428844,10.53986184,2.80853109,0.64401135,2.71227951

>  <Name>
1uud_lig

>  <RI>
0

>  <Rbt.Current_Directory>
/home/itssahil/PROJECTS/Mol_Feturizer/New_Systems/rnas/1uud

>  <Rbt.Executable>
rbdock ($Id: //depot/dev/client3/rdock/2013.1/src/exe/rbdock.cxx#4 $)

>  <Rbt.Library>
libRbt.so (2013.1, Build901 2013/11/27)

>  <Rbt.Parameter_File>
/export/apps/rDock/src/rDock_2013.1_src/data/scripts/dock_solv.prm

>  <Rbt.Receptor>
prm/blind_docking_100.prm

>  <SCORE>
-19.4665

>  <SCORE.INTER>
-21.8551

>  <SCORE.INTER.CONST>
1

>  <SCORE.INTER.POLAR>
-4.37387

>  <SCORE.INTER.ROT>
18

>  <SCORE.INTER.SOLV>
9.11048

>  <SCORE.INTER.VDW>
-18.6273

>  <SCORE.INTER.norm>
-0.874206

>  <SCORE.INTRA>
-1.24093

>  <SCORE.INTRA.DIHEDRAL>
6.76046

>  <SCORE.INTRA.DIHEDRAL.0>
30.6762

>  <SCORE.INTRA.POLAR>
-0.811503

>  <SCORE.INTRA.POLAR.0>
-0.0288659

>  <SCORE.INTRA.REPUL>
0

>  <SCORE.INTRA.REPUL.0>
0

>  <SCORE.INTRA.SOLV>
1.1033

>  <SCORE.INTRA.SOLV.lig_0>
-25.2195

>  <SCORE.INTRA.VDW>
-2.4137

>  <SCORE.INTRA.VDW.0>
4.14263

>  <SCORE.INTRA.norm>
-0.0496371

>  <SCORE.RESTR>
3.62959

>  <SCORE.RESTR.CAVITY>
3.62959

>  <SCORE.RESTR.norm>
0.145184

>  <SCORE.SYSTEM>
0

>  <SCORE.SYSTEM.CONST>
0

>  <SCORE.SYSTEM.DIHEDRAL>
0

>  <SCORE.SYSTEM.SOLV>
0

>  <SCORE.SYSTEM.norm>
0

>  <SCORE.heavy>
25

>  <SCORE.norm>
-0.778659

>  <RMSD>
15.244

$$$$
1uud_lig
 OpenBabel11021811413D
libRbt.so/2013.1/901 2013/11/27
 25 25  0  0  0  0  0  0  0  0999 V2000
   -6.0347   -9.4543   10.6313 C   0  0  0  0  0  0  0  0  0  0  0  0
   -6.8421  -11.8958    9.2206 O   0  0  0  0  0  0  0  0  0  0  0  0
   -7.1937  -10.5288    8.9598 C   0  0  0  0  0  0  0  0  0  0  0  0
   -6.1634   -8.7850   11.9494 N   0  0  0  0  0  0  0  0  0  0  0  0
   -8.4192  -10.4640    8.0382 C   0  0  0  0  0  0  0  0  0  0  0  0
   -5.0621   -7.8090   12.1266 C   0  0  0  0  0  0  0  0  0  0  0  0
   -4.2395   -8.1833   13.3655 C   0  0  0  0  0  0  0  0  0  0  0  0
   -9.4427  -11.0484    8.6141 N   0  0  0  0  0  0  0  0  0  0  0  0
  -10.5827  -11.2310    7.9745 C   0  0  0  0  0  0  0  0  0  0  0  0
   -2.7673   -7.8204   13.1428 C   0  0  0  0  0  0  0  0  0  0  0  0
   -2.0637   -7.6835   14.4961 C   0  0  0  0  0  0  0  0  0  0  0  0
  -11.3756  -12.3173    8.2231 N   0  0  0  0  0  0  0  0  0  0  0  0
  -10.9763  -10.3201    7.0474 N   0  0  0  0  0  0  0  0  0  0  0  0
   -0.8463   -7.2269   14.3209 N   0  0  0  0  0  0  0  0  0  0  0  0
    0.2124   -7.9452   14.6430 C   0  0  0  0  0  0  0  0  0  0  0  0
    1.4016   -7.3203   14.8400 N   0  0  0  0  0  0  0  0  0  0  0  0
    0.1420   -9.3033   14.7727 N   0  0  0  0  0  0  0  0  0  0  0  0
   -5.7094  -11.9542   10.0970 C   0  0  0  0  0  0  0  0  0  0  0  0
   -2.3038  -12.1399   12.6695 O   0  0  0  0  0  0  0  0  0  0  0  0
   -5.2805  -10.7899   10.7974 C   0  0  0  0  0  0  0  0  0  0  0  0
   -4.1426  -10.8526   11.6456 C   0  0  0  0  0  0  0  0  0  0  0  0
   -3.4463  -12.0786   11.8120 C   0  0  0  0  0  0  0  0  0  0  0  0
   -3.8850  -13.2449   11.1291 C   0  0  0  0  0  0  0  0  0  0  0  0
   -5.0208  -13.1859   10.2767 C   0  0  0  0  0  0  0  0  0  0  0  0
   -2.6985  -11.8551   14.0148 C   0  0  0  0  0  0  0  0  0  0  0  0
  1  4  1  0  0  0  0
  2  3  1  0  0  0  0
  3  5  1  0  0  0  0
  4  6  1  0  0  0  0
  5  8  1  0  0  0  0
  6  7  1  0  0  0  0
  7 10  1  0  0  0  0
  8  9  1  0  0  0  0
  9 12  1  0  0  0  0
  9 13  1  0  0  0  0
 10 11  1  0  0  0  0
 11 14  1  0  0  0  0
 14 15  1  0  0  0  0
 15 16  1  0  0  0  0
 15 17  1  0  0  0  0
 18  2  1  0  0  0  0
 18 20  2  0  0  0  0
 18 24  1  0  0  0  0
 19 25  1  0  0  0  0
 20  1  1  0  0  0  0
 20 21  1  0  0  0  0
 21 22  2  0  0  0  0
 22 19  1  0  0  0  0
 22 23  1  0  0  0  0
 23 24  2  0  0  0  0
M  END
>  <CHROM.1>
95.16066923,-179.16725320,60.81322859,-120.32573959,-173.79046759,146.45168483
158.54808171,147.47189693,86.86325620,135.61726799,-172.91003663,-116.54341124
-159.83360139,-58.72326873,-171.35893684,13.33876432,138.54529765,63.50562524
-4.92129359,-10.18110990,11.40948738,2.76280866,0.53874077,-2.91522622

>  <Name>
1uud_lig

>  <RI>
0

>  <Rbt.Current_Directory>
/home/itssahil/PROJECTS/Mol_Feturizer/New_Systems/rnas/1uud

>  <Rbt.Executable>
rbdock ($Id: //depot/dev/client3/rdock/2013.1/src/exe/rbdock.cxx#4 $)

>  <Rbt.Library>
libRbt.so (2013.1, Build901 2013/11/27)

>  <Rbt.Parameter_File>
/export/apps/rDock/src/rDock_2013.1_src/data/scripts/dock_solv.prm

>  <Rbt.Receptor>
prm/blind_docking_20.prm

>  <SCORE>
-20.152

>  <SCORE.INTER>
-30.3323

>  <SCORE.INTER.CONST>
1

>  <SCORE.INTER.POLAR>
-4.25981

>  <SCORE.INTER.ROT>
18

>  <SCORE.INTER.SOLV>
11.8652

>  <SCORE.INTER.VDW>
-25.5772

>  <SCORE.INTER.norm>
-1.21329

>  <SCORE.INTRA>
10.1748

>  <SCORE.INTRA.DIHEDRAL>
-5.17258

>  <SCORE.INTRA.DIHEDRAL.0>
30.6762

>  <SCORE.INTRA.POLAR>
0.0288659

>  <SCORE.INTRA.POLAR.0>
-0.0288659

>  <SCORE.INTRA.REPUL>
0

>  <SCORE.INTRA.REPUL.0>
0

>  <SCORE.INTRA.SOLV>
-0.991577

>  <SCORE.INTRA.SOLV.lig_0>
-25.2195

>  <SCORE.INTRA.VDW>
13.1587

>  <SCORE.INTRA.VDW.0>
4.14263

>  <SCORE.INTRA.norm>
0.406992

>  <SCORE.RESTR>
0.00545937

>  <SCORE.RESTR.CAVITY>
0.00545937

>  <SCORE.RESTR.norm>
0.000218375

>  <SCORE.SYSTEM>
0

>  <SCORE.SYSTEM.CONST>
0

>  <SCORE.SYSTEM.DIHEDRAL>
0

>  <SCORE.SYSTEM.SOLV>
0

>  <SCORE.SYSTEM.norm>
0

>  <SCORE.heavy>
25

>  <SCORE.norm>
-0.806081

>  <RMSD>
15.249

$$$$
1uud_lig
 OpenBabel11021811413D
libRbt.so/2013.1/901 2013/11/27
 25 25  0  0  0  0  0  0  0  0999 V2000
   -7.0802  -10.8438    8.5960 C   0  0  0  0  0  0  0  0  0  0  0  0
   -4.3489  -10.4708    9.5979 O   0  0  0  0  0  0  0  0  0  0  0  0
   -4.0998   -9.5211   10.6449 C   0  0  0  0  0  0  0  0  0  0  0  0
   -7.8186  -11.6433    7.5872 N   0  0  0  0  0  0  0  0  0  0  0  0
   -4.2558   -8.0909   10.1107 C   0  0  0  0  0  0  0  0  0  0  0  0
   -9.2545  -11.2766    7.6092 C   0  0  0  0  0  0  0  0  0  0  0  0
   -9.9522  -12.0049    8.7643 C   0  0  0  0  0  0  0  0  0  0  0  0
   -5.4006   -7.9715    9.4814 N   0  0  0  0  0  0  0  0  0  0  0  0
   -5.5917   -7.0381    8.5680 C   0  0  0  0  0  0  0  0  0  0  0  0
  -11.4643  -11.7655    8.6938 C   0  0  0  0  0  0  0  0  0  0  0  0
  -12.1644  -12.5929    9.7757 C   0  0  0  0  0  0  0  0  0  0  0  0
   -4.5653   -6.5793    7.7892 N   0  0  0  0  0  0  0  0  0  0  0  0
   -6.8359   -6.5206    8.3988 N   0  0  0  0  0  0  0  0  0  0  0  0
  -12.0845  -13.8691    9.4818 N   0  0  0  0  0  0  0  0  0  0  0  0
  -11.0660  -14.6061    9.8817 C   0  0  0  0  0  0  0  0  0  0  0  0
  -10.2021  -15.0990    8.9574 N   0  0  0  0  0  0  0  0  0  0  0  0
  -10.8666  -14.8932   11.2022 N   0  0  0  0  0  0  0  0  0  0  0  0
   -5.1192  -11.5692   10.1024 C   0  0  0  0  0  0  0  0  0  0  0  0
   -7.4129  -14.8229   11.6525 O   0  0  0  0  0  0  0  0  0  0  0  0
   -6.4519  -11.7833    9.6462 C   0  0  0  0  0  0  0  0  0  0  0  0
   -7.2152  -12.8611   10.1697 C   0  0  0  0  0  0  0  0  0  0  0  0
   -6.6438  -13.7365   11.1303 C   0  0  0  0  0  0  0  0  0  0  0  0
   -5.3082  -13.5354   11.5713 C   0  0  0  0  0  0  0  0  0  0  0  0
   -4.5421  -12.4563   11.0530 C   0  0  0  0  0  0  0  0  0  0  0  0
   -7.6779  -14.5989   13.0403 C   0  0  0  0  0  0  0  0  0  0  0  0
  1  4  1  0  0  0  0
  2  3  1  0  0  0  0
  3  5  1  0  0  0  0
  4  6  1  0  0  0  0
  5  8  1  0  0  0  0
  6  7  1  0  0  0  0
  7 10  1  0  0  0  0
  8  9  1  0  0  0  0
  9 12  1  0  0  0  0
  9 13  1  0  0  0  0
 10 11  1  0  0  0  0
 11 14  1  0  0  0  0
 14 15  1  0  0  0  0
 15 16  1  0  0  0  0
 15 17  1  0  0  0  0
 18  2  1  0  0  0  0
 18 20  2  0  0  0  0
 18 24  1  0  0  0  0
 19 25  1  0  0  0  0
 20  1  1  0  0  0  0
 20 21  1  0  0  0  0
 21 22  2  0  0  0  0
 22 19  1  0  0  0  0
 22 23  1  0  0  0  0
 23 24  2  0  0  0  0
M  END
>  <CHROM.1>
118.36996597,-138.82934835,50.72223945,-80.71412432,-156.78906012,-173.24478622
175.11851405,30.78192846,32.92741997,143.48137434,-69.18173212,88.97743896
-112.88321276,-159.87280748,-83.41610119,113.39496356,136.96191383,-112.92795512
-7.53794303,-11.58874515,9.71063649,0.78274326,-0.35571620,-0.50876085

>  <Name>
1uud_lig

>  <RI>
0

>  <Rbt.Current_Directory>
/home/itssahil/PROJECTS/Mol_Feturizer/New_Systems/rnas/1uud

>  <Rbt.Executable>
rbdock ($Id: //depot/dev/client3/rdock/2013.1/src/exe/rbdock.cxx#4 $)

>  <Rbt.Library>
libRbt.so (2013.1, Build901 2013/11/27)

>  <Rbt.Parameter_File>
/export/apps/rDock/src/rDock_2013.1_src/data/scripts/dock_solv.prm

>  <Rbt.Receptor>
prm/blind_docking_100.prm

>  <SCORE>
-32.0247

>  <SCORE.INTER>
-28.4505

>  <SCORE.INTER.CONST>
1

>  <SCORE.INTER.POLAR>
-4.81576

>  <SCORE.INTER.ROT>
18

>  <SCORE.INTER.SOLV>
9.2075

>  <SCORE.INTER.VDW>
-21.5836

>  <SCORE.INTER.norm>
-1.13802

>  <SCORE.INTRA>
-4.20203

>  <SCORE.INTRA.DIHEDRAL>
-1.1309

>  <SCORE.INTRA.DIHEDRAL.0>
30.6762

>  <SCORE.INTRA.POLAR>
0.0288659

>  <SCORE.INTRA.POLAR.0>
-0.0288659

>  <SCORE.INTRA.REPUL>
0

>  <SCORE.INTRA.REPUL.0>
0

>  <SCORE.INTRA.SOLV>
0.636522

>  <SCORE.INTRA.SOLV.lig_0>
-25.2195

>  <SCORE.INTRA.VDW>
-4.05299

>  <SCORE.INTRA.VDW.0>
4.14263

>  <SCORE.INTRA.norm>
-0.168081

>  <SCORE.RESTR>
0.627875

>  <SCORE.RESTR.CAVITY>
0.627875

>  <SCORE.RESTR.norm>
0.025115

>  <SCORE.SYSTEM>
0

>  <SCORE.SYSTEM.CONST>
0

>  <SCORE.SYSTEM.DIHEDRAL>
0

>  <SCORE.SYSTEM.SOLV>
0

>  <SCORE.SYSTEM.norm>
0

>  <SCORE.heavy>
25

>  <SCORE.norm>
-1.28099

>  <RMSD>
15.253

$$$$
1uud_lig
 OpenBabel11021811413D
libRbt.so/2013.1/901 2013/11/27
 25 25  0  0  0  0  0  0  0  0999 V2000
   -7.8471  -10.2963    9.0299 C   0  0  0  0  0  0  0  0  0  0  0  0
   -7.2405   -8.5242   11.2870 O   0  0  0  0  0  0  0  0  0  0  0  0
   -6.3934   -7.5056   10.7346 C   0  0  0  0  0  0  0  0  0  0  0  0
   -7.8044  -11.3048    7.9422 N   0  0  0  0  0  0  0  0  0  0  0  0
   -6.2151   -7.7259    9.2263 C   0  0  0  0  0  0  0  0  0  0  0  0
   -8.9279  -12.2589    8.0978 C   0  0  0  0  0  0  0  0  0  0  0  0
   -8.3760  -13.6526    8.4210 C   0  0  0  0  0  0  0  0  0  0  0  0
   -6.0039   -6.5773    8.6289 N   0  0  0  0  0  0  0  0  0  0  0  0
   -6.9697   -5.9440    7.9900 C   0  0  0  0  0  0  0  0  0  0  0  0
   -9.0578  -14.2046    9.6777 C   0  0  0  0  0  0  0  0  0  0  0  0
   -8.6478  -13.3667   10.8922 C   0  0  0  0  0  0  0  0  0  0  0  0
   -7.0193   -5.9086    6.6236 N   0  0  0  0  0  0  0  0  0  0  0  0
   -7.9353   -5.3121    8.7058 N   0  0  0  0  0  0  0  0  0  0  0  0
   -8.2397  -14.1539   11.8592 N   0  0  0  0  0  0  0  0  0  0  0  0
   -9.0844  -14.9050   12.5394 C   0  0  0  0  0  0  0  0  0  0  0  0
   -9.5471  -14.4632   13.7371 N   0  0  0  0  0  0  0  0  0  0  0  0
   -9.4961  -16.1207   12.0718 N   0  0  0  0  0  0  0  0  0  0  0  0
   -6.5861   -9.7978   11.2213 C   0  0  0  0  0  0  0  0  0  0  0  0
   -4.6584  -13.6071   11.0687 O   0  0  0  0  0  0  0  0  0  0  0  0
   -6.8562  -10.6910   10.1447 C   0  0  0  0  0  0  0  0  0  0  0  0
   -6.2201  -11.9606   10.1010 C   0  0  0  0  0  0  0  0  0  0  0  0
   -5.3003  -12.3304   11.1173 C   0  0  0  0  0  0  0  0  0  0  0  0
   -5.0156  -11.4324   12.1810 C   0  0  0  0  0  0  0  0  0  0  0  0
   -5.6523  -10.1627   12.2306 C   0  0  0  0  0  0  0  0  0  0  0  0
   -3.8005  -13.6690    9.9256 C   0  0  0  0  0  0  0  0  0  0  0  0
  1  4  1  0  0  0  0
  2  3  1  0  0  0  0
  3  5  1  0  0  0  0
  4  6  1  0  0  0  0
  5  8  1  0  0  0  0
  6  7  1  0  0  0  0
  7 10  1  0  0  0  0
  8  9  1  0  0  0  0
  9 12  1  0  0  0  0
  9 13  1  0  0  0  0
 10 11  1  0  0  0  0
 11 14  1  0  0  0  0
 14 15  1  0  0  0  0
 15 16  1  0  0  0  0
 15 17  1  0  0  0  0
 18  2  1  0  0  0  0
 18 20  2  0  0  0  0
 18 24  1  0  0  0  0
 19 25  1  0  0  0  0
 20  1  1  0  0  0  0
 20 21  1  0  0  0  0
 21 22  2  0  0  0  0
 22 19  1  0  0  0  0
 22 23  1  0  0  0  0
 23 24  2  0  0  0  0
M  END
>  <CHROM.1>
98.57111829,67.01914205,151.31018461,-113.96914780,-100.33409462,127.65576592
-66.92402789,-105.85751430,-57.26520459,-12.09327824,-129.89929540,-71.72855722
-97.26080941,47.89918011,-160.26285283,-96.54568576,172.02618588,65.43651531
-7.18627452,-11.03063090,10.19378675,1.38273173,-0.57518846,-0.46537668

>  <Name>
1uud_lig

>  <RI>
0

>  <Rbt.Current_Directory>
/home/itssahil/PROJECTS/Mol_Feturizer/New_Systems/rnas/1uud

>  <Rbt.Executable>
rbdock ($Id: //depot/dev/client3/rdock/2013.1/src/exe/rbdock.cxx#4 $)

>  <Rbt.Library>
libRbt.so (2013.1, Build901 2013/11/27)

>  <Rbt.Parameter_File>
/export/apps/rDock/src/rDock_2013.1_src/data/scripts/dock_solv.prm

>  <Rbt.Receptor>
prm/blind_docking_100.prm

>  <SCORE>
-4.70645

>  <SCORE.INTER>
-9.50751

>  <SCORE.INTER.CONST>
1

>  <SCORE.INTER.POLAR>
-2.0576

>  <SCORE.INTER.ROT>
18

>  <SCORE.INTER.SOLV>
10.3063

>  <SCORE.INTER.VDW>
-18.5151

>  <SCORE.INTER.norm>
-0.380301

>  <SCORE.INTRA>
2.66099

>  <SCORE.INTRA.DIHEDRAL>
7.86889

>  <SCORE.INTRA.DIHEDRAL.0>
30.6762

>  <SCORE.INTRA.POLAR>
0.0288659

>  <SCORE.INTRA.POLAR.0>
-0.0288659

>  <SCORE.INTRA.REPUL>
0

>  <SCORE.INTRA.REPUL.0>
0

>  <SCORE.INTRA.SOLV>
-0.204594

>  <SCORE.INTRA.SOLV.lig_0>
-25.2195

>  <SCORE.INTRA.VDW>
-1.2693

>  <SCORE.INTRA.VDW.0>
4.14263

>  <SCORE.INTRA.norm>
0.10644

>  <SCORE.RESTR>
2.14007

>  <SCORE.RESTR.CAVITY>
2.14007

>  <SCORE.RESTR.norm>
0.0856028

>  <SCORE.SYSTEM>
0

>  <SCORE.SYSTEM.CONST>
0

>  <SCORE.SYSTEM.DIHEDRAL>
0

>  <SCORE.SYSTEM.SOLV>
0

>  <SCORE.SYSTEM.norm>
0

>  <SCORE.heavy>
25

>  <SCORE.norm>
-0.188258

>  <RMSD>
15.268

$$$$
1uud_lig
 OpenBabel11021811413D
libRbt.so/2013.1/901 2013/11/27
 25 25  0  0  0  0  0  0  0  0999 V2000
   -3.3960   -9.8502   11.1231 C   0  0  0  0  0  0  0  0  0  0  0  0
   -4.8511  -11.8646    9.5651 O   0  0  0  0  0  0  0  0  0  0  0  0
   -5.9917  -12.7292    9.4565 C   0  0  0  0  0  0  0  0  0  0  0  0
   -3.6952   -9.4451   12.5189 N   0  0  0  0  0  0  0  0  0  0  0  0
   -6.7998  -12.7058   10.7609 C   0  0  0  0  0  0  0  0  0  0  0  0
   -2.4855   -9.6087   13.3595 C   0  0  0  0  0  0  0  0  0  0  0  0
   -2.3665   -8.4220   14.3234 C   0  0  0  0  0  0  0  0  0  0  0  0
   -6.1124  -13.2743   11.7227 N   0  0  0  0  0  0  0  0  0  0  0  0
   -5.4621  -12.5595   12.6216 C   0  0  0  0  0  0  0  0  0  0  0  0
   -1.0178   -8.4735   15.0494 C   0  0  0  0  0  0  0  0  0  0  0  0
   -1.0715   -7.5811   16.2928 C   0  0  0  0  0  0  0  0  0  0  0  0
   -4.1380  -12.7772   12.8862 N   0  0  0  0  0  0  0  0  0  0  0  0
   -6.1232  -11.5864   13.3000 N   0  0  0  0  0  0  0  0  0  0  0  0
    0.1455   -7.3272   16.7117 N   0  0  0  0  0  0  0  0  0  0  0  0
    0.9831   -6.6004   15.9970 C   0  0  0  0  0  0  0  0  0  0  0  0
    1.4348   -5.4233   16.5010 N   0  0  0  0  0  0  0  0  0  0  0  0
    1.3979   -6.9995   14.7582 N   0  0  0  0  0  0  0  0  0  0  0  0
   -5.2606  -10.4946    9.4652 C   0  0  0  0  0  0  0  0  0  0  0  0
   -6.5260   -6.4237    9.1870 O   0  0  0  0  0  0  0  0  0  0  0  0
   -4.5842   -9.4852   10.2092 C   0  0  0  0  0  0  0  0  0  0  0  0
   -5.0126   -8.1335   10.1212 C   0  0  0  0  0  0  0  0  0  0  0  0
   -6.0995   -7.7855    9.2769 C   0  0  0  0  0  0  0  0  0  0  0  0
   -6.7623   -8.7886    8.5196 C   0  0  0  0  0  0  0  0  0  0  0  0
   -6.3393  -10.1427    8.6072 C   0  0  0  0  0  0  0  0  0  0  0  0
   -6.3014   -5.9377    7.8604 C   0  0  0  0  0  0  0  0  0  0  0  0
  1  4  1  0  0  0  0
  2  3  1  0  0  0  0
  3  5  1  0  0  0  0
  4  6  1  0  0  0  0
  5  8  1  0  0  0  0
  6  7  1  0  0  0  0
  7 10  1  0  0  0  0
  8  9  1  0  0  0  0
  9 12  1  0  0  0  0
  9 13  1  0  0  0  0
 10 11  1  0  0  0  0
 11 14  1  0  0  0  0
 14 15  1  0  0  0  0
 15 16  1  0  0  0  0
 15 17  1  0  0  0  0
 18  2  1  0  0  0  0
 18 20  2  0  0  0  0
 18 24  1  0  0  0  0
 19 25  1  0  0  0  0
 20  1  1  0  0  0  0
 20 21  1  0  0  0  0
 21 22  2  0  0  0  0
 22 19  1  0  0  0  0
 22 23  1  0  0  0  0
 23 24  2  0  0  0  0
M  END
>  <CHROM.1>
-171.67073763,-75.25841325,-68.16109441,139.43295321,100.75599602,-171.68033647
-162.42039840,-127.75595543,139.04364508,-0.00750567,-162.97880202,66.60223022
117.19102640,-21.13409429,-67.27570848,145.75720168,-120.98803197,115.18085686
-3.79893818,-9.36941954,12.09070638,3.08831962,0.82788322,2.70111773

>  <Name>
1uud_lig

>  <RI>
0

>  <Rbt.Current_Directory>
/home/itssahil/PROJECTS/Mol_Feturizer/New_Systems/rnas/1uud

>  <Rbt.Executable>
rbdock ($Id: //depot/dev/client3/rdock/2013.1/src/exe/rbdock.cxx#4 $)

>  <Rbt.Library>
libRbt.so (2013.1, Build901 2013/11/27)

>  <Rbt.Parameter_File>
/export/apps/rDock/src/rDock_2013.1_src/data/scripts/dock_solv.prm

>  <Rbt.Receptor>
prm/blind_docking_80.prm

>  <SCORE>
-28.6291

>  <SCORE.INTER>
-22.6651

>  <SCORE.INTER.CONST>
1

>  <SCORE.INTER.POLAR>
-3.9771

>  <SCORE.INTER.ROT>
18

>  <SCORE.INTER.SOLV>
9.86585

>  <SCORE.INTER.VDW>
-20.7417

>  <SCORE.INTER.norm>
-0.906603

>  <SCORE.INTRA>
-6.74583

>  <SCORE.INTRA.DIHEDRAL>
-8.11478

>  <SCORE.INTRA.DIHEDRAL.0>
30.6762

>  <SCORE.INTRA.POLAR>
-0.181458

>  <SCORE.INTRA.POLAR.0>
-0.0288659

>  <SCORE.INTRA.REPUL>
0

>  <SCORE.INTRA.REPUL.0>
0

>  <SCORE.INTRA.SOLV>
1.18239

>  <SCORE.INTRA.SOLV.lig_0>
-25.2195

>  <SCORE.INTRA.VDW>
-2.66268

>  <SCORE.INTRA.VDW.0>
4.14263

>  <SCORE.INTRA.norm>
-0.269833

>  <SCORE.RESTR>
0.781806

>  <SCORE.RESTR.CAVITY>
0.781806

>  <SCORE.RESTR.norm>
0.0312723

>  <SCORE.SYSTEM>
0

>  <SCORE.SYSTEM.CONST>
0

>  <SCORE.SYSTEM.DIHEDRAL>
0

>  <SCORE.SYSTEM.SOLV>
0

>  <SCORE.SYSTEM.norm>
0

>  <SCORE.heavy>
25

>  <SCORE.norm>
-1.14516

>  <RMSD>
15.275

$$$$
1uud_lig
 OpenBabel11021811413D
libRbt.so/2013.1/901 2013/11/27
 25 25  0  0  0  0  0  0  0  0999 V2000
   -6.0646   -8.7934   12.9601 C   0  0  0  0  0  0  0  0  0  0  0  0
   -5.5296  -11.1006   11.2300 O   0  0  0  0  0  0  0  0  0  0  0  0
   -4.4227  -11.6811   10.5243 C   0  0  0  0  0  0  0  0  0  0  0  0
   -4.6339   -8.8172   13.3537 N   0  0  0  0  0  0  0  0  0  0  0  0
   -4.1094  -13.0747   11.0854 C   0  0  0  0  0  0  0  0  0  0  0  0
   -4.1537   -7.4342   13.5846 C   0  0  0  0  0  0  0  0  0  0  0  0
   -2.7134   -7.2998   13.0756 C   0  0  0  0  0  0  0  0  0  0  0  0
   -5.1997  -13.8038   11.1055 N   0  0  0  0  0  0  0  0  0  0  0  0
   -5.8017  -14.1138   12.2384 C   0  0  0  0  0  0  0  0  0  0  0  0
   -1.8245   -8.3556   13.7417 C   0  0  0  0  0  0  0  0  0  0  0  0
   -1.2313   -7.7843   15.0328 C   0  0  0  0  0  0  0  0  0  0  0  0
   -6.8933  -14.9374   12.2656 N   0  0  0  0  0  0  0  0  0  0  0  0
   -5.3272  -13.6020   13.4033 N   0  0  0  0  0  0  0  0  0  0  0  0
   -0.4204   -8.6608   15.5764 N   0  0  0  0  0  0  0  0  0  0  0  0
    0.8361   -8.3628   15.8465 C   0  0  0  0  0  0  0  0  0  0  0  0
    1.1743   -8.0040   17.1116 N   0  0  0  0  0  0  0  0  0  0  0  0
    1.8020   -8.3969   14.8812 N   0  0  0  0  0  0  0  0  0  0  0  0
   -5.9065   -9.8597   10.6195 C   0  0  0  0  0  0  0  0  0  0  0  0
   -7.0715   -6.1834    8.7816 O   0  0  0  0  0  0  0  0  0  0  0  0
   -6.1803   -8.7159   11.4236 C   0  0  0  0  0  0  0  0  0  0  0  0
   -6.5757   -7.4970   10.8101 C   0  0  0  0  0  0  0  0  0  0  0  0
   -6.6773   -7.4125    9.3966 C   0  0  0  0  0  0  0  0  0  0  0  0
   -6.3855   -8.5473    8.5928 C   0  0  0  0  0  0  0  0  0  0  0  0
   -5.9930   -9.7697    9.2024 C   0  0  0  0  0  0  0  0  0  0  0  0
   -6.0533   -5.7541    7.8730 C   0  0  0  0  0  0  0  0  0  0  0  0
  1  4  1  0  0  0  0
  2  3  1  0  0  0  0
  3  5  1  0  0  0  0
  4  6  1  0  0  0  0
  5  8  1  0  0  0  0
  6  7  1  0  0  0  0
  7 10  1  0  0  0  0
  8  9  1  0  0  0  0
  9 12  1  0  0  0  0
  9 13  1  0  0  0  0
 10 11  1  0  0  0  0
 11 14  1  0  0  0  0
 14 15  1  0  0  0  0
 15 16  1  0  0  0  0
 15 17  1  0  0  0  0
 18  2  1  0  0  0  0
 18 20  2  0  0  0  0
 18 24  1  0  0  0  0
 19 25  1  0  0  0  0
 20  1  1  0  0  0  0
 20 21  1  0  0  0  0
 21 22  2  0  0  0  0
 22 19  1  0  0  0  0
 22 23  1  0  0  0  0
 23 24  2  0  0  0  0
M  END
>  <CHROM.1>
91.18782539,-174.24706965,52.17615628,-142.42020194,-108.62125458,-55.58228047
-90.19709927,-176.15724239,-7.20628304,99.03951861,-177.10376084,123.99435211
98.39069975,-161.02251528,93.46590933,-135.37504985,74.29513821,121.95648659
-4.15056277,-9.56083598,12.21835773,3.09353791,0.72323365,2.87936025

>  <Name>
1uud_lig

>  <RI>
0

>  <Rbt.Current_Directory>
/home/itssahil/PROJECTS/Mol_Feturizer/New_Systems/rnas/1uud

>  <Rbt.Executable>
rbdock ($Id: //depot/dev/client3/rdock/2013.1/src/exe/rbdock.cxx#4 $)

>  <Rbt.Library>
libRbt.so (2013.1, Build901 2013/11/27)

>  <Rbt.Parameter_File>
/export/apps/rDock/src/rDock_2013.1_src/data/scripts/dock_solv.prm

>  <Rbt.Receptor>
prm/blind_docking_80.prm

>  <SCORE>
-26.3002

>  <SCORE.INTER>
-21.3676

>  <SCORE.INTER.CONST>
1

>  <SCORE.INTER.POLAR>
-3.29987

>  <SCORE.INTER.ROT>
18

>  <SCORE.INTER.SOLV>
10.8892

>  <SCORE.INTER.VDW>
-22.4752

>  <SCORE.INTER.norm>
-0.854704

>  <SCORE.INTRA>
-5.87408

>  <SCORE.INTRA.DIHEDRAL>
-6.58475

>  <SCORE.INTRA.DIHEDRAL.0>
30.6762

>  <SCORE.INTRA.POLAR>
0.0288659

>  <SCORE.INTRA.POLAR.0>
-0.0288659

>  <SCORE.INTRA.REPUL>
0

>  <SCORE.INTRA.REPUL.0>
0

>  <SCORE.INTRA.SOLV>
-0.576893

>  <SCORE.INTRA.SOLV.lig_0>
-25.2195

>  <SCORE.INTRA.VDW>
-2.3914

>  <SCORE.INTRA.VDW.0>
4.14263

>  <SCORE.INTRA.norm>
-0.234963

>  <SCORE.RESTR>
0.941452

>  <SCORE.RESTR.CAVITY>
0.941452

>  <SCORE.RESTR.norm>
0.0376581

>  <SCORE.SYSTEM>
0

>  <SCORE.SYSTEM.CONST>
0

>  <SCORE.SYSTEM.DIHEDRAL>
0

>  <SCORE.SYSTEM.SOLV>
0

>  <SCORE.SYSTEM.norm>
0

>  <SCORE.heavy>
25

>  <SCORE.norm>
-1.05201

>  <RMSD>
15.311

$$$$
1uud_lig
 OpenBabel11021811413D
libRbt.so/2013.1/901 2013/11/27
 25 25  0  0  0  0  0  0  0  0999 V2000
   -5.5132  -12.3789    9.8790 C   0  0  0  0  0  0  0  0  0  0  0  0
   -6.8146   -9.7541    9.7412 O   0  0  0  0  0  0  0  0  0  0  0  0
   -6.6365   -8.9852    8.5423 C   0  0  0  0  0  0  0  0  0  0  0  0
   -5.2667  -11.8358   11.2378 N   0  0  0  0  0  0  0  0  0  0  0  0
   -6.4699   -7.4990    8.8863 C   0  0  0  0  0  0  0  0  0  0  0  0
   -4.4861  -12.8118   12.0346 C   0  0  0  0  0  0  0  0  0  0  0  0
   -5.4429  -13.6910   12.8490 C   0  0  0  0  0  0  0  0  0  0  0  0
   -5.4873   -7.3458    9.7418 N   0  0  0  0  0  0  0  0  0  0  0  0
   -5.5420   -7.8620   10.9552 C   0  0  0  0  0  0  0  0  0  0  0  0
   -6.4669  -14.3485   11.9174 C   0  0  0  0  0  0  0  0  0  0  0  0
   -7.3746  -15.2772   12.7291 C   0  0  0  0  0  0  0  0  0  0  0  0
   -4.6617   -8.8264   11.3620 N   0  0  0  0  0  0  0  0  0  0  0  0
   -6.4952   -7.4265   11.8189 N   0  0  0  0  0  0  0  0  0  0  0  0
   -7.9588  -14.6011   13.6897 N   0  0  0  0  0  0  0  0  0  0  0  0
   -8.8833  -13.6960   13.4320 C   0  0  0  0  0  0  0  0  0  0  0  0
   -9.0258  -12.6376   14.2705 N   0  0  0  0  0  0  0  0  0  0  0  0
   -9.7068  -13.8043   12.3474 N   0  0  0  0  0  0  0  0  0  0  0  0
   -7.5982  -10.9221    9.4652 C   0  0  0  0  0  0  0  0  0  0  0  0
   -9.9411  -14.3869    8.5955 O   0  0  0  0  0  0  0  0  0  0  0  0
   -7.0038  -12.2160    9.5160 C   0  0  0  0  0  0  0  0  0  0  0  0
   -7.7833  -13.3657    9.2180 C   0  0  0  0  0  0  0  0  0  0  0  0
   -9.1578  -13.2277    8.8910 C   0  0  0  0  0  0  0  0  0  0  0  0
   -9.7562  -11.9394    8.8592 C   0  0  0  0  0  0  0  0  0  0  0  0
   -8.9794  -10.7861    9.1531 C   0  0  0  0  0  0  0  0  0  0  0  0
  -11.1553  -14.3501    9.3511 C   0  0  0  0  0  0  0  0  0  0  0  0
  1  4  1  0  0  0  0
  2  3  1  0  0  0  0
  3  5  1  0  0  0  0
  4  6  1  0  0  0  0
  5  8  1  0  0  0  0
  6  7  1  0  0  0  0
  7 10  1  0  0  0  0
  8  9  1  0  0  0  0
  9 12  1  0  0  0  0
  9 13  1  0  0  0  0
 10 11  1  0  0  0  0
 11 14  1  0  0  0  0
 14 15  1  0  0  0  0
 15 16  1  0  0  0  0
 15 17  1  0  0  0  0
 18  2  1  0  0  0  0
 18 20  2  0  0  0  0
 18 24  1  0  0  0  0
 19 25  1  0  0  0  0
 20  1  1  0  0  0  0
 20 21  1  0  0  0  0
 21 22  2  0  0  0  0
 22 19  1  0  0  0  0
 22 23  1  0  0  0  0
 23 24  2  0  0  0  0
M  END
>  <CHROM.1>
131.81880382,151.30877285,54.95846745,-93.85190613,-63.68631199,54.88176024
177.25727387,116.17557748,7.02456230,-35.19071089,57.05780807,69.44114707
-150.17891080,112.08372597,-95.29527728,111.03160139,60.33342571,130.98146835
-7.33282485,-11.73386615,10.80005814,-0.95052273,0.74621299,2.43841574

>  <Name>
1uud_lig

>  <RI>
0

>  <Rbt.Current_Directory>
/home/itssahil/PROJECTS/Mol_Feturizer/New_Systems/rnas/1uud

>  <Rbt.Executable>
rbdock ($Id: //depot/dev/client3/rdock/2013.1/src/exe/rbdock.cxx#4 $)

>  <Rbt.Library>
libRbt.so (2013.1, Build901 2013/11/27)

>  <Rbt.Parameter_File>
/export/apps/rDock/src/rDock_2013.1_src/data/scripts/dock_solv.prm

>  <Rbt.Receptor>
prm/blind_docking_100.prm

>  <SCORE>
-15.509

>  <SCORE.INTER>
-10.8296

>  <SCORE.INTER.CONST>
1

>  <SCORE.INTER.POLAR>
-2.5054

>  <SCORE.INTER.ROT>
18

>  <SCORE.INTER.SOLV>
8.3121

>  <SCORE.INTER.VDW>
-17.2391

>  <SCORE.INTER.norm>
-0.433184

>  <SCORE.INTRA>
-5.8156

>  <SCORE.INTRA.DIHEDRAL>
-4.36604

>  <SCORE.INTRA.DIHEDRAL.0>
30.6762

>  <SCORE.INTRA.POLAR>
-0.964365

>  <SCORE.INTRA.POLAR.0>
-0.0288659

>  <SCORE.INTRA.REPUL>
0

>  <SCORE.INTRA.REPUL.0>
0

>  <SCORE.INTRA.SOLV>
2.10505

>  <SCORE.INTRA.SOLV.lig_0>
-25.2195

>  <SCORE.INTRA.VDW>
-1.40627

>  <SCORE.INTRA.VDW.0>
4.14263

>  <SCORE.INTRA.norm>
-0.232624

>  <SCORE.RESTR>
1.13618

>  <SCORE.RESTR.CAVITY>
1.13618

>  <SCORE.RESTR.norm>
0.0454472

>  <SCORE.SYSTEM>
0

>  <SCORE.SYSTEM.CONST>
0

>  <SCORE.SYSTEM.DIHEDRAL>
0

>  <SCORE.SYSTEM.SOLV>
0

>  <SCORE.SYSTEM.norm>
0

>  <SCORE.heavy>
25

>  <SCORE.norm>
-0.620361

>  <RMSD>
15.312

$$$$
1uud_lig
 OpenBabel11021811413D
libRbt.so/2013.1/901 2013/11/27
 25 25  0  0  0  0  0  0  0  0999 V2000
   -5.1976  -12.1611   12.3418 C   0  0  0  0  0  0  0  0  0  0  0  0
   -3.9428  -10.8173   10.0566 O   0  0  0  0  0  0  0  0  0  0  0  0
   -4.1780   -9.6380   10.8403 C   0  0  0  0  0  0  0  0  0  0  0  0
   -3.7535  -12.4942   12.2667 N   0  0  0  0  0  0  0  0  0  0  0  0
   -4.7665   -8.5265    9.9608 C   0  0  0  0  0  0  0  0  0  0  0  0
   -3.0080  -11.7304   13.2951 C   0  0  0  0  0  0  0  0  0  0  0  0
   -1.5679  -11.5016   12.8203 C   0  0  0  0  0  0  0  0  0  0  0  0
   -5.1265   -7.5096   10.7071 N   0  0  0  0  0  0  0  0  0  0  0  0
   -6.3844   -7.3249   11.0615 C   0  0  0  0  0  0  0  0  0  0  0  0
   -0.7594  -10.8092   13.9228 C   0  0  0  0  0  0  0  0  0  0  0  0
   -1.3123   -9.4000   14.1545 C   0  0  0  0  0  0  0  0  0  0  0  0
   -7.2552   -6.6286   10.2693 N   0  0  0  0  0  0  0  0  0  0  0  0
   -6.8234   -7.8368   12.2402 N   0  0  0  0  0  0  0  0  0  0  0  0
   -0.8604   -8.9255   15.2910 N   0  0  0  0  0  0  0  0  0  0  0  0
    0.1450   -8.0721   15.3307 C   0  0  0  0  0  0  0  0  0  0  0  0
    1.4145   -8.5475   15.4066 N   0  0  0  0  0  0  0  0  0  0  0  0
   -0.0623   -6.7221   15.3076 N   0  0  0  0  0  0  0  0  0  0  0  0
   -5.1732  -11.5217    9.8456 C   0  0  0  0  0  0  0  0  0  0  0  0
   -8.8166  -13.6525    9.1850 O   0  0  0  0  0  0  0  0  0  0  0  0
   -5.8132  -12.1925   10.9275 C   0  0  0  0  0  0  0  0  0  0  0  0
   -7.0202  -12.9074   10.7030 C   0  0  0  0  0  0  0  0  0  0  0  0
   -7.5995  -12.9356    9.4072 C   0  0  0  0  0  0  0  0  0  0  0  0
   -6.9723  -12.2507    8.3319 C   0  0  0  0  0  0  0  0  0  0  0  0
   -5.7628  -11.5372    8.5510 C   0  0  0  0  0  0  0  0  0  0  0  0
   -9.9113  -12.7331    9.1319 C   0  0  0  0  0  0  0  0  0  0  0  0
  1  4  1  0  0  0  0
  2  3  1  0  0  0  0
  3  5  1  0  0  0  0
  4  6  1  0  0  0  0
  5  8  1  0  0  0  0
  6  7  1  0  0  0  0
  7 10  1  0  0  0  0
  8  9  1  0  0  0  0
  9 12  1  0  0  0  0
  9 13  1  0  0  0  0
 10 11  1  0  0  0  0
 11 14  1  0  0  0  0
 14 15  1  0  0  0  0
 15 16  1  0  0  0  0
 15 17  1  0  0  0  0
 18  2  1  0  0  0  0
 18 20  2  0  0  0  0
 18 24  1  0  0  0  0
 19 25  1  0  0  0  0
 20  1  1  0  0  0  0
 20 21  1  0  0  0  0
 21 22  2  0  0  0  0
 22 19  1  0  0  0  0
 22 23  1  0  0  0  0
 23 24  2  0  0  0  0
M  END
>  <CHROM.1>
145.84767641,-78.47562479,172.55140175,-151.98382518,-99.69038187,-175.58870773
-65.87947127,-87.37183697,-90.07207017,-133.54450717,164.65901169,100.58031078
-89.15554086,18.99101496,-91.85681472,-70.17557196,-48.17287336,101.74139079
-4.37540652,-10.26413716,11.71358796,-2.74567270,-0.59697901,0.09454001

>  <Name>
1uud_lig

>  <RI>
0

>  <Rbt.Current_Directory>
/home/itssahil/PROJECTS/Mol_Feturizer/New_Systems/rnas/1uud

>  <Rbt.Executable>
rbdock ($Id: //depot/dev/client3/rdock/2013.1/src/exe/rbdock.cxx#4 $)

>  <Rbt.Library>
libRbt.so (2013.1, Build901 2013/11/27)

>  <Rbt.Parameter_File>
/export/apps/rDock/src/rDock_2013.1_src/data/scripts/dock_solv.prm

>  <Rbt.Receptor>
prm/blind_docking_40.prm

>  <SCORE>
-45.5066

>  <SCORE.INTER>
-36.7838

>  <SCORE.INTER.CONST>
1

>  <SCORE.INTER.POLAR>
-5.48497

>  <SCORE.INTER.ROT>
18

>  <SCORE.INTER.SOLV>
12.3016

>  <SCORE.INTER.VDW>
-25.9398

>  <SCORE.INTER.norm>
-1.47135

>  <SCORE.INTRA>
-9.10691

>  <SCORE.INTRA.DIHEDRAL>
-4.87489

>  <SCORE.INTRA.DIHEDRAL.0>
30.6762

>  <SCORE.INTRA.POLAR>
-0.32965

>  <SCORE.INTRA.POLAR.0>
-0.0288659

>  <SCORE.INTRA.REPUL>
0

>  <SCORE.INTRA.REPUL.0>
0

>  <SCORE.INTRA.SOLV>
-0.781609

>  <SCORE.INTRA.SOLV.lig_0>
-25.2195

>  <SCORE.INTRA.VDW>
-5.15785

>  <SCORE.INTRA.VDW.0>
4.14263

>  <SCORE.INTRA.norm>
-0.364276

>  <SCORE.RESTR>
0.384059

>  <SCORE.RESTR.CAVITY>
0.384059

>  <SCORE.RESTR.norm>
0.0153624

>  <SCORE.SYSTEM>
0

>  <SCORE.SYSTEM.CONST>
0

>  <SCORE.SYSTEM.DIHEDRAL>
0

>  <SCORE.SYSTEM.SOLV>
0

>  <SCORE.SYSTEM.norm>
0

>  <SCORE.heavy>
25

>  <SCORE.norm>
-1.82026

>  <RMSD>
15.314

$$$$
1uud_lig
 OpenBabel11021811413D
libRbt.so/2013.1/901 2013/11/27
 25 25  0  0  0  0  0  0  0  0999 V2000
   -4.5391  -11.4504   10.3832 C   0  0  0  0  0  0  0  0  0  0  0  0
   -7.0534  -11.2301    8.8890 O   0  0  0  0  0  0  0  0  0  0  0  0
   -8.1624  -11.5124    8.0227 C   0  0  0  0  0  0  0  0  0  0  0  0
   -5.0038  -10.0412   10.3926 N   0  0  0  0  0  0  0  0  0  0  0  0
   -9.4773  -11.0879    8.6904 C   0  0  0  0  0  0  0  0  0  0  0  0
   -5.0785   -9.5465   11.7878 C   0  0  0  0  0  0  0  0  0  0  0  0
   -6.1644   -8.4689   11.8925 C   0  0  0  0  0  0  0  0  0  0  0  0
  -10.4857  -11.7095    8.1268 N   0  0  0  0  0  0  0  0  0  0  0  0
  -11.6699  -11.1387    8.0100 C   0  0  0  0  0  0  0  0  0  0  0  0
   -6.3070   -8.0123   13.3485 C   0  0  0  0  0  0  0  0  0  0  0  0
   -5.2998   -6.8948   13.6352 C   0  0  0  0  0  0  0  0  0  0  0  0
  -12.2497  -10.9391    6.7875 N   0  0  0  0  0  0  0  0  0  0  0  0
  -12.3270  -10.7392    9.1294 N   0  0  0  0  0  0  0  0  0  0  0  0
   -4.1006   -7.4045   13.7878 N   0  0  0  0  0  0  0  0  0  0  0  0
   -3.1068   -7.0817   12.9824 C   0  0  0  0  0  0  0  0  0  0  0  0
   -1.9079   -6.7336   13.5164 N   0  0  0  0  0  0  0  0  0  0  0  0
   -3.2590   -7.0797   11.6248 N   0  0  0  0  0  0  0  0  0  0  0  0
   -6.9391  -12.2491    9.8906 C   0  0  0  0  0  0  0  0  0  0  0  0
   -6.6043  -15.3214   12.8400 O   0  0  0  0  0  0  0  0  0  0  0  0
   -5.7333  -12.3939   10.6357 C   0  0  0  0  0  0  0  0  0  0  0  0
   -5.6219  -13.4219   11.6099 C   0  0  0  0  0  0  0  0  0  0  0  0
   -6.7178  -14.2902   11.8560 C   0  0  0  0  0  0  0  0  0  0  0  0
   -7.9275  -14.1341   11.1271 C   0  0  0  0  0  0  0  0  0  0  0  0
   -8.0422  -13.1094   10.1490 C   0  0  0  0  0  0  0  0  0  0  0  0
   -6.9731  -14.8035   14.1215 C   0  0  0  0  0  0  0  0  0  0  0  0
  1  4  1  0  0  0  0
  2  3  1  0  0  0  0
  3  5  1  0  0  0  0
  4  6  1  0  0  0  0
  5  8  1  0  0  0  0
  6  7  1  0  0  0  0
  7 10  1  0  0  0  0
  8  9  1  0  0  0  0
  9 12  1  0  0  0  0
  9 13  1  0  0  0  0
 10 11  1  0  0  0  0
 11 14  1  0  0  0  0
 14 15  1  0  0  0  0
 15 16  1  0  0  0  0
 15 17  1  0  0  0  0
 18  2  1  0  0  0  0
 18 20  2  0  0  0  0
 18 24  1  0  0  0  0
 19 25  1  0  0  0  0
 20  1  1  0  0  0  0
 20 21  1  0  0  0  0
 21 22  2  0  0  0  0
 22 19  1  0  0  0  0
 22 23  1  0  0  0  0
 23 24  2  0  0  0  0
M  END
>  <CHROM.1>
83.30880633,79.70418213,-159.93987297,-151.10353697,-146.96173813,176.58866709
86.52011914,120.37605763,94.98523312,-100.07133801,-76.71783028,118.46171740
132.03714810,43.38785666,45.45232598,163.21881254,49.26778007,87.58786180
-6.83663396,-10.76546942,10.92098776,-0.40238457,0.65100923,2.94450850

>  <Name>
1uud_lig

>  <RI>
0

>  <Rbt.Current_Directory>
/home/itssahil/PROJECTS/Mol_Feturizer/New_Systems/rnas/1uud

>  <Rbt.Executable>
rbdock ($Id: //depot/dev/client3/rdock/2013.1/src/exe/rbdock.cxx#4 $)

>  <Rbt.Library>
libRbt.so (2013.1, Build901 2013/11/27)

>  <Rbt.Parameter_File>
/export/apps/rDock/src/rDock_2013.1_src/data/scripts/dock_solv.prm

>  <Rbt.Receptor>
prm/blind_docking_60.prm

>  <SCORE>
-26.149

>  <SCORE.INTER>
-21.6823

>  <SCORE.INTER.CONST>
1

>  <SCORE.INTER.POLAR>
-3.17547

>  <SCORE.INTER.ROT>
18

>  <SCORE.INTER.SOLV>
12.3359

>  <SCORE.INTER.VDW>
-23.5819

>  <SCORE.INTER.norm>
-0.86729

>  <SCORE.INTRA>
-5.71756

>  <SCORE.INTRA.DIHEDRAL>
-5.56924

>  <SCORE.INTRA.DIHEDRAL.0>
30.6762

>  <SCORE.INTRA.POLAR>
-0.661647

>  <SCORE.INTRA.POLAR.0>
-0.0288659

>  <SCORE.INTRA.REPUL>
0

>  <SCORE.INTRA.REPUL.0>
0

>  <SCORE.INTRA.SOLV>
0.120649

>  <SCORE.INTRA.SOLV.lig_0>
-25.2195

>  <SCORE.INTRA.VDW>
-0.743667

>  <SCORE.INTRA.VDW.0>
4.14263

>  <SCORE.INTRA.norm>
-0.228702

>  <SCORE.RESTR>
1.25081

>  <SCORE.RESTR.CAVITY>
1.25081

>  <SCORE.RESTR.norm>
0.0500323

>  <SCORE.SYSTEM>
0

>  <SCORE.SYSTEM.CONST>
0

>  <SCORE.SYSTEM.DIHEDRAL>
0

>  <SCORE.SYSTEM.SOLV>
0

>  <SCORE.SYSTEM.norm>
0

>  <SCORE.heavy>
25

>  <SCORE.norm>
-1.04596

>  <RMSD>
15.319

$$$$
1uud_lig
 OpenBabel11021811413D
libRbt.so/2013.1/901 2013/11/27
 25 25  0  0  0  0  0  0  0  0999 V2000
   -6.1298   -9.2446   10.2178 C   0  0  0  0  0  0  0  0  0  0  0  0
   -8.0469  -11.4458    9.9313 O   0  0  0  0  0  0  0  0  0  0  0  0
   -8.0055  -11.2927    8.5048 C   0  0  0  0  0  0  0  0  0  0  0  0
   -6.2800   -8.4405   11.4559 N   0  0  0  0  0  0  0  0  0  0  0  0
   -9.3264  -10.6984    7.9976 C   0  0  0  0  0  0  0  0  0  0  0  0
   -4.9526   -7.9573   11.9048 C   0  0  0  0  0  0  0  0  0  0  0  0
   -4.6580   -8.4981   13.3092 C   0  0  0  0  0  0  0  0  0  0  0  0
  -10.2570  -11.6228    7.9862 N   0  0  0  0  0  0  0  0  0  0  0  0
  -11.4967  -11.3584    8.3541 C   0  0  0  0  0  0  0  0  0  0  0  0
   -3.7414   -7.5263   14.0602 C   0  0  0  0  0  0  0  0  0  0  0  0
   -2.3219   -7.6199   13.4930 C   0  0  0  0  0  0  0  0  0  0  0  0
  -12.2240  -10.3671    7.7550 N   0  0  0  0  0  0  0  0  0  0  0  0
  -12.0622  -12.0865    9.3512 N   0  0  0  0  0  0  0  0  0  0  0  0
   -1.6142   -8.4675   14.2015 N   0  0  0  0  0  0  0  0  0  0  0  0
   -0.4930   -8.1032   14.7937 C   0  0  0  0  0  0  0  0  0  0  0  0
   -0.2859   -6.7898   15.0690 N   0  0  0  0  0  0  0  0  0  0  0  0
    0.4683   -9.0149   15.1267 N   0  0  0  0  0  0  0  0  0  0  0  0
   -6.7368  -11.7397   10.4332 C   0  0  0  0  0  0  0  0  0  0  0  0
   -2.8238  -12.6451   11.8888 O   0  0  0  0  0  0  0  0  0  0  0  0
   -5.7736  -10.7006   10.5829 C   0  0  0  0  0  0  0  0  0  0  0  0
   -4.4704  -11.0060   11.0591 C   0  0  0  0  0  0  0  0  0  0  0  0
   -4.1348  -12.3411   11.4058 C   0  0  0  0  0  0  0  0  0  0  0  0
   -5.1009  -13.3749   11.2754 C   0  0  0  0  0  0  0  0  0  0  0  0
   -6.4047  -13.0746   10.7959 C   0  0  0  0  0  0  0  0  0  0  0  0
   -2.6021  -11.9701   13.1305 C   0  0  0  0  0  0  0  0  0  0  0  0
  1  4  1  0  0  0  0
  2  3  1  0  0  0  0
  3  5  1  0  0  0  0
  4  6  1  0  0  0  0
  5  8  1  0  0  0  0
  6  7  1  0  0  0  0
  7 10  1  0  0  0  0
  8  9  1  0  0  0  0
  9 12  1  0  0  0  0
  9 13  1  0  0  0  0
 10 11  1  0  0  0  0
 11 14  1  0  0  0  0
 14 15  1  0  0  0  0
 15 16  1  0  0  0  0
 15 17  1  0  0  0  0
 18  2  1  0  0  0  0
 18 20  2  0  0  0  0
 18 24  1  0  0  0  0
 19 25  1  0  0  0  0
 20  1  1  0  0  0  0
 20 21  1  0  0  0  0
 21 22  2  0  0  0  0
 22 19  1  0  0  0  0
 22 23  1  0  0  0  0
 23 24  2  0  0  0  0
M  END
>  <CHROM.1>
84.48897810,-168.33205001,-76.59835436,-119.77363067,140.20225643,-151.25550985
-73.39944412,56.33719233,-43.53605075,-134.40244248,-94.15555983,-122.18510283
22.45316268,-67.71872604,26.81584453,78.15154343,107.45337868,63.65348561
-5.58864401,-10.25721063,11.38671479,2.75246257,0.48595913,-2.88785604

>  <Name>
1uud_lig

>  <RI>
0

>  <Rbt.Current_Directory>
/home/itssahil/PROJECTS/Mol_Feturizer/New_Systems/rnas/1uud

>  <Rbt.Executable>
rbdock ($Id: //depot/dev/client3/rdock/2013.1/src/exe/rbdock.cxx#4 $)

>  <Rbt.Library>
libRbt.so (2013.1, Build901 2013/11/27)

>  <Rbt.Parameter_File>
/export/apps/rDock/src/rDock_2013.1_src/data/scripts/dock_solv.prm

>  <Rbt.Receptor>
prm/blind_docking_20.prm

>  <SCORE>
-29.6126

>  <SCORE.INTER>
-26.1784

>  <SCORE.INTER.CONST>
1

>  <SCORE.INTER.POLAR>
-3.79108

>  <SCORE.INTER.ROT>
18

>  <SCORE.INTER.SOLV>
9.99166

>  <SCORE.INTER.VDW>
-23.7459

>  <SCORE.INTER.norm>
-1.04714

>  <SCORE.INTRA>
-3.44093

>  <SCORE.INTRA.DIHEDRAL>
1.23364

>  <SCORE.INTRA.DIHEDRAL.0>
30.6762

>  <SCORE.INTRA.POLAR>
0.0288659

>  <SCORE.INTRA.POLAR.0>
-0.0288659

>  <SCORE.INTRA.REPUL>
0

>  <SCORE.INTRA.REPUL.0>
0

>  <SCORE.INTRA.SOLV>
-0.933171

>  <SCORE.INTRA.SOLV.lig_0>
-25.2195

>  <SCORE.INTRA.VDW>
-3.68932

>  <SCORE.INTRA.VDW.0>
4.14263

>  <SCORE.INTRA.norm>
-0.137637

>  <SCORE.RESTR>
0.00672562

>  <SCORE.RESTR.CAVITY>
0.00672562

>  <SCORE.RESTR.norm>
0.000269025

>  <SCORE.SYSTEM>
0

>  <SCORE.SYSTEM.CONST>
0

>  <SCORE.SYSTEM.DIHEDRAL>
0

>  <SCORE.SYSTEM.SOLV>
0

>  <SCORE.SYSTEM.norm>
0

>  <SCORE.heavy>
25

>  <SCORE.norm>
-1.1845

>  <RMSD>
15.327

$$$$
1uud_lig
 OpenBabel11021811413D
libRbt.so/2013.1/901 2013/11/27
 25 25  0  0  0  0  0  0  0  0999 V2000
   -6.6004   -9.0571   12.8332 C   0  0  0  0  0  0  0  0  0  0  0  0
   -7.0583  -11.3308   11.0379 O   0  0  0  0  0  0  0  0  0  0  0  0
   -6.0678  -11.9173   11.8953 C   0  0  0  0  0  0  0  0  0  0  0  0
   -5.3907   -8.6289   13.5784 N   0  0  0  0  0  0  0  0  0  0  0  0
   -6.5094  -13.3208   12.3316 C   0  0  0  0  0  0  0  0  0  0  0  0
   -4.1833   -9.2294   12.9633 C   0  0  0  0  0  0  0  0  0  0  0  0
   -3.0214   -9.1830   13.9630 C   0  0  0  0  0  0  0  0  0  0  0  0
   -6.8178  -14.0397   11.2786 N   0  0  0  0  0  0  0  0  0  0  0  0
   -8.0553  -14.1018   10.8238 C   0  0  0  0  0  0  0  0  0  0  0  0
   -2.9630   -7.8047   14.6306 C   0  0  0  0  0  0  0  0  0  0  0  0
   -1.7748   -7.7534   15.5954 C   0  0  0  0  0  0  0  0  0  0  0  0
   -9.1005  -14.4374   11.6396 N   0  0  0  0  0  0  0  0  0  0  0  0
   -8.2957  -13.8274    9.5157 N   0  0  0  0  0  0  0  0  0  0  0  0
   -0.7483   -7.1853   15.0080 N   0  0  0  0  0  0  0  0  0  0  0  0
    0.4654   -7.2570   15.5200 C   0  0  0  0  0  0  0  0  0  0  0  0
    1.4862   -7.7037   14.7441 N   0  0  0  0  0  0  0  0  0  0  0  0
    0.7168   -6.9020   16.8150 N   0  0  0  0  0  0  0  0  0  0  0  0
   -6.5639  -10.1065   10.4800 C   0  0  0  0  0  0  0  0  0  0  0  0
   -5.1324   -6.4537    8.7893 O   0  0  0  0  0  0  0  0  0  0  0  0
   -6.3327   -8.9762   11.3160 C   0  0  0  0  0  0  0  0  0  0  0  0
   -5.8647   -7.7603   10.7497 C   0  0  0  0  0  0  0  0  0  0  0  0
   -5.6073   -7.6776    9.3560 C   0  0  0  0  0  0  0  0  0  0  0  0
   -5.8189   -8.8102    8.5245 C   0  0  0  0  0  0  0  0  0  0  0  0
   -6.2905  -10.0276    9.0862 C   0  0  0  0  0  0  0  0  0  0  0  0
   -6.0838   -5.9645    7.8396 C   0  0  0  0  0  0  0  0  0  0  0  0
  1  4  1  0  0  0  0
  2  3  1  0  0  0  0
  3  5  1  0  0  0  0
  4  6  1  0  0  0  0
  5  8  1  0  0  0  0
  6  7  1  0  0  0  0
  7 10  1  0  0  0  0
  8  9  1  0  0  0  0
  9 12  1  0  0  0  0
  9 13  1  0  0  0  0
 10 11  1  0  0  0  0
 11 14  1  0  0  0  0
 14 15  1  0  0  0  0
 15 16  1  0  0  0  0
 15 17  1  0  0  0  0
 18  2  1  0  0  0  0
 18 20  2  0  0  0  0
 18 24  1  0  0  0  0
 19 25  1  0  0  0  0
 20  1  1  0  0  0  0
 20 21  1  0  0  0  0
 21 22  2  0  0  0  0
 22 19  1  0  0  0  0
 22 23  1  0  0  0  0
 23 24  2  0  0  0  0
M  END
>  <CHROM.1>
-43.49896599,-171.82486782,52.65931110,-161.42200686,-92.62935345,-44.89161364
-178.30032610,-52.96062800,-89.57876038,54.81073799,97.17711078,-166.28555309
126.87910698,-90.87334038,6.59261127,-67.37446207,126.69332345,-118.04370014
-4.82744303,-9.59567312,12.06051548,3.02453050,0.76482669,2.50664094

>  <Name>
1uud_lig

>  <RI>
0

>  <Rbt.Current_Directory>
/home/itssahil/PROJECTS/Mol_Feturizer/New_Systems/rnas/1uud

>  <Rbt.Executable>
rbdock ($Id: //depot/dev/client3/rdock/2013.1/src/exe/rbdock.cxx#4 $)

>  <Rbt.Library>
libRbt.so (2013.1, Build901 2013/11/27)

>  <Rbt.Parameter_File>
/export/apps/rDock/src/rDock_2013.1_src/data/scripts/dock_solv.prm

>  <Rbt.Receptor>
prm/blind_docking_80.prm

>  <SCORE>
-27.6254

>  <SCORE.INTER>
-24.84

>  <SCORE.INTER.CONST>
1

>  <SCORE.INTER.POLAR>
-4.37911

>  <SCORE.INTER.ROT>
18

>  <SCORE.INTER.SOLV>
10.888

>  <SCORE.INTER.VDW>
-21.1923

>  <SCORE.INTER.norm>
-0.9936

>  <SCORE.INTRA>
-4.32005

>  <SCORE.INTRA.DIHEDRAL>
-5.951

>  <SCORE.INTRA.DIHEDRAL.0>
30.6762

>  <SCORE.INTRA.POLAR>
0.0288659

>  <SCORE.INTRA.POLAR.0>
-0.0288659

>  <SCORE.INTRA.REPUL>
0

>  <SCORE.INTRA.REPUL.0>
0

>  <SCORE.INTRA.SOLV>
-0.44039

>  <SCORE.INTRA.SOLV.lig_0>
-25.2195

>  <SCORE.INTRA.VDW>
-1.2225

>  <SCORE.INTRA.VDW.0>
4.14263

>  <SCORE.INTRA.norm>
-0.172802

>  <SCORE.RESTR>
1.53463

>  <SCORE.RESTR.CAVITY>
1.53463

>  <SCORE.RESTR.norm>
0.0613852

>  <SCORE.SYSTEM>
0

>  <SCORE.SYSTEM.CONST>
0

>  <SCORE.SYSTEM.DIHEDRAL>
0

>  <SCORE.SYSTEM.SOLV>
0

>  <SCORE.SYSTEM.norm>
0

>  <SCORE.heavy>
25

>  <SCORE.norm>
-1.10502

>  <RMSD>
15.328

$$$$
1uud_lig
 OpenBabel11021811413D
libRbt.so/2013.1/901 2013/11/27
 25 25  0  0  0  0  0  0  0  0999 V2000
   -7.9453  -12.5624    8.3539 C   0  0  0  0  0  0  0  0  0  0  0  0
   -7.6696  -14.1848   10.7817 O   0  0  0  0  0  0  0  0  0  0  0  0
   -7.7451  -15.0833   11.8986 C   0  0  0  0  0  0  0  0  0  0  0  0
   -6.6972  -12.9049    9.0800 N   0  0  0  0  0  0  0  0  0  0  0  0
   -6.8429  -14.5892   13.0374 C   0  0  0  0  0  0  0  0  0  0  0  0
   -5.6443  -11.9102    8.7654 C   0  0  0  0  0  0  0  0  0  0  0  0
   -5.2452  -11.1641   10.0444 C   0  0  0  0  0  0  0  0  0  0  0  0
   -7.0663  -13.3167   13.2645 N   0  0  0  0  0  0  0  0  0  0  0  0
   -6.1280  -12.4074   13.0783 C   0  0  0  0  0  0  0  0  0  0  0  0
   -4.9256   -9.7016    9.7164 C   0  0  0  0  0  0  0  0  0  0  0  0
   -4.2560   -9.0407   10.9247 C   0  0  0  0  0  0  0  0  0  0  0  0
   -4.9333  -12.7228   12.4919 N   0  0  0  0  0  0  0  0  0  0  0  0
   -6.3537  -11.1297   13.4793 N   0  0  0  0  0  0  0  0  0  0  0  0
   -4.6513   -7.7939   11.0263 N   0  0  0  0  0  0  0  0  0  0  0  0
   -5.6708   -7.4542   11.7916 C   0  0  0  0  0  0  0  0  0  0  0  0
   -6.9115   -7.3758   11.2456 N   0  0  0  0  0  0  0  0  0  0  0  0
   -5.5055   -7.1697   13.1175 N   0  0  0  0  0  0  0  0  0  0  0  0
   -8.9875  -13.8590   10.3219 C   0  0  0  0  0  0  0  0  0  0  0  0
  -12.9238  -12.8624    8.9942 O   0  0  0  0  0  0  0  0  0  0  0  0
   -9.1660  -13.0688    9.1499 C   0  0  0  0  0  0  0  0  0  0  0  0
  -10.4760  -12.7318    8.7155 C   0  0  0  0  0  0  0  0  0  0  0  0
  -11.6063  -13.1996    9.4359 C   0  0  0  0  0  0  0  0  0  0  0  0
  -11.4297  -14.0041   10.5938 C   0  0  0  0  0  0  0  0  0  0  0  0
  -10.1209  -14.3407   11.0340 C   0  0  0  0  0  0  0  0  0  0  0  0
  -12.9989  -11.4567    8.7399 C   0  0  0  0  0  0  0  0  0  0  0  0
  1  4  1  0  0  0  0
  2  3  1  0  0  0  0
  3  5  1  0  0  0  0
  4  6  1  0  0  0  0
  5  8  1  0  0  0  0
  6  7  1  0  0  0  0
  7 10  1  0  0  0  0
  8  9  1  0  0  0  0
  9 12  1  0  0  0  0
  9 13  1  0  0  0  0
 10 11  1  0  0  0  0
 11 14  1  0  0  0  0
 14 15  1  0  0  0  0
 15 16  1  0  0  0  0
 15 17  1  0  0  0  0
 18  2  1  0  0  0  0
 18 20  2  0  0  0  0
 18 24  1  0  0  0  0
 19 25  1  0  0  0  0
 20  1  1  0  0  0  0
 20 21  1  0  0  0  0
 21 22  2  0  0  0  0
 22 19  1  0  0  0  0
 22 23  1  0  0  0  0
 23 24  2  0  0  0  0
M  END
>  <CHROM.1>
-151.38727654,-131.74824210,48.82037213,116.91483261,-116.44952514,-144.36201052
-168.38124476,7.86056114,-129.12163148,-33.19692396,-143.65499205,93.82841810
-93.40469153,-130.86894796,-106.82154530,-174.75544748,-5.89262904,-48.64651011
-7.61286573,-11.77378009,10.80480440,2.60752294,0.50215145,2.86921681

>  <Name>
1uud_lig

>  <RI>
0

>  <Rbt.Current_Directory>
/home/itssahil/PROJECTS/Mol_Feturizer/New_Systems/rnas/1uud

>  <Rbt.Executable>
rbdock ($Id: //depot/dev/client3/rdock/2013.1/src/exe/rbdock.cxx#4 $)

>  <Rbt.Library>
libRbt.so (2013.1, Build901 2013/11/27)

>  <Rbt.Parameter_File>
/export/apps/rDock/src/rDock_2013.1_src/data/scripts/dock_solv.prm

>  <Rbt.Receptor>
prm/blind_docking_100.prm

>  <SCORE>
-13.9578

>  <SCORE.INTER>
-19.6636

>  <SCORE.INTER.CONST>
1

>  <SCORE.INTER.POLAR>
-3.83405

>  <SCORE.INTER.ROT>
18

>  <SCORE.INTER.SOLV>
8.40017

>  <SCORE.INTER.VDW>
-18.7289

>  <SCORE.INTER.norm>
-0.786542

>  <SCORE.INTRA>
1.99181

>  <SCORE.INTRA.DIHEDRAL>
2.40513

>  <SCORE.INTRA.DIHEDRAL.0>
30.6762

>  <SCORE.INTRA.POLAR>
-0.357477

>  <SCORE.INTRA.POLAR.0>
-0.0288659

>  <SCORE.INTRA.REPUL>
0

>  <SCORE.INTRA.REPUL.0>
0

>  <SCORE.INTRA.SOLV>
1.47756

>  <SCORE.INTRA.SOLV.lig_0>
-25.2195

>  <SCORE.INTRA.VDW>
1.26589

>  <SCORE.INTRA.VDW.0>
4.14263

>  <SCORE.INTRA.norm>
0.0796723

>  <SCORE.RESTR>
3.71399

>  <SCORE.RESTR.CAVITY>
3.71399

>  <SCORE.RESTR.norm>
0.14856

>  <SCORE.SYSTEM>
0

>  <SCORE.SYSTEM.CONST>
0

>  <SCORE.SYSTEM.DIHEDRAL>
0

>  <SCORE.SYSTEM.SOLV>
0

>  <SCORE.SYSTEM.norm>
0

>  <SCORE.heavy>
25

>  <SCORE.norm>
-0.55831

>  <RMSD>
15.334

$$$$
1uud_lig
 OpenBabel11021811413D
libRbt.so/2013.1/901 2013/11/27
 25 25  0  0  0  0  0  0  0  0999 V2000
   -4.6742  -12.6181   10.6070 C   0  0  0  0  0  0  0  0  0  0  0  0
   -4.7978   -9.9671    9.3581 O   0  0  0  0  0  0  0  0  0  0  0  0
   -5.2505   -8.6224    9.5748 C   0  0  0  0  0  0  0  0  0  0  0  0
   -4.1594  -11.4994   11.4351 N   0  0  0  0  0  0  0  0  0  0  0  0
   -5.9780   -8.5193   10.9221 C   0  0  0  0  0  0  0  0  0  0  0  0
   -3.0381  -11.9747   12.2798 C   0  0  0  0  0  0  0  0  0  0  0  0
   -2.9211  -11.0863   13.5242 C   0  0  0  0  0  0  0  0  0  0  0  0
   -5.1050   -8.3872   11.8923 N   0  0  0  0  0  0  0  0  0  0  0  0
   -5.2483   -7.4687   12.8292 C   0  0  0  0  0  0  0  0  0  0  0  0
   -1.8809   -9.9868   13.2837 C   0  0  0  0  0  0  0  0  0  0  0  0
   -1.4520   -9.3859   14.6254 C   0  0  0  0  0  0  0  0  0  0  0  0
   -4.2646   -6.5551   13.0908 N   0  0  0  0  0  0  0  0  0  0  0  0
   -6.3981   -7.4310   13.5507 N   0  0  0  0  0  0  0  0  0  0  0  0
   -0.6270   -8.3862   14.4222 N   0  0  0  0  0  0  0  0  0  0  0  0
    0.4286   -8.1965   15.1905 C   0  0  0  0  0  0  0  0  0  0  0  0
    1.1608   -7.0628   15.0418 N   0  0  0  0  0  0  0  0  0  0  0  0
    0.8076   -9.1185   16.1245 N   0  0  0  0  0  0  0  0  0  0  0  0
   -5.9199  -10.8466    9.2103 C   0  0  0  0  0  0  0  0  0  0  0  0
   -9.2569  -13.4685    8.7198 O   0  0  0  0  0  0  0  0  0  0  0  0
   -5.8988  -12.1450    9.7966 C   0  0  0  0  0  0  0  0  0  0  0  0
   -7.0064  -13.0179    9.6246 C   0  0  0  0  0  0  0  0  0  0  0  0
   -8.1417  -12.5895    8.8878 C   0  0  0  0  0  0  0  0  0  0  0  0
   -8.1718  -11.2876    8.3193 C   0  0  0  0  0  0  0  0  0  0  0  0
   -7.0645  -10.4123    8.4857 C   0  0  0  0  0  0  0  0  0  0  0  0
   -9.7469  -13.8715   10.0020 C   0  0  0  0  0  0  0  0  0  0  0  0
  1  4  1  0  0  0  0
  2  3  1  0  0  0  0
  3  5  1  0  0  0  0
  4  6  1  0  0  0  0
  5  8  1  0  0  0  0
  6  7  1  0  0  0  0
  7 10  1  0  0  0  0
  8  9  1  0  0  0  0
  9 12  1  0  0  0  0
  9 13  1  0  0  0  0
 10 11  1  0  0  0  0
 11 14  1  0  0  0  0
 14 15  1  0  0  0  0
 15 16  1  0  0  0  0
 15 17  1  0  0  0  0
 18  2  1  0  0  0  0
 18 20  2  0  0  0  0
 18 24  1  0  0  0  0
 19 25  1  0  0  0  0
 20  1  1  0  0  0  0
 20 21  1  0  0  0  0
 21 22  2  0  0  0  0
 22 19  1  0  0  0  0
 22 23  1  0  0  0  0
 23 24  2  0  0  0  0
M  END
>  <CHROM.1>
176.36111016,66.04984972,82.08853227,-154.87074140,132.68295513,-95.19936149
-162.65676455,-124.73636512,-54.62358901,78.48056818,-175.93792296,-139.88221025
-172.19860423,-175.58934304,89.63492756,-140.21172076,39.79321615,57.09893561
-4.51068439,-10.08981404,11.72074026,-2.61435521,-0.56509119,0.21863678

>  <Name>
1uud_lig

>  <RI>
0

>  <Rbt.Current_Directory>
/home/itssahil/PROJECTS/Mol_Feturizer/New_Systems/rnas/1uud

>  <Rbt.Executable>
rbdock ($Id: //depot/dev/client3/rdock/2013.1/src/exe/rbdock.cxx#4 $)

>  <Rbt.Library>
libRbt.so (2013.1, Build901 2013/11/27)

>  <Rbt.Parameter_File>
/export/apps/rDock/src/rDock_2013.1_src/data/scripts/dock_solv.prm

>  <Rbt.Receptor>
prm/blind_docking_40.prm

>  <SCORE>
-47.072

>  <SCORE.INTER>
-38.9487

>  <SCORE.INTER.CONST>
1

>  <SCORE.INTER.POLAR>
-6.31334

>  <SCORE.INTER.ROT>
18

>  <SCORE.INTER.SOLV>
10.2873

>  <SCORE.INTER.VDW>
-23.9504

>  <SCORE.INTER.norm>
-1.55795

>  <SCORE.INTRA>
-8.12335

>  <SCORE.INTRA.DIHEDRAL>
-7.05238

>  <SCORE.INTRA.DIHEDRAL.0>
30.6762

>  <SCORE.INTRA.POLAR>
-0.491303

>  <SCORE.INTRA.POLAR.0>
-0.0288659

>  <SCORE.INTRA.REPUL>
0

>  <SCORE.INTRA.REPUL.0>
0

>  <SCORE.INTRA.SOLV>
0.282663

>  <SCORE.INTRA.SOLV.lig_0>
-25.2195

>  <SCORE.INTRA.VDW>
-3.06806

>  <SCORE.INTRA.VDW.0>
4.14263

>  <SCORE.INTRA.norm>
-0.324934

>  <SCORE.RESTR>
0

>  <SCORE.RESTR.CAVITY>
0

>  <SCORE.RESTR.norm>
0

>  <SCORE.SYSTEM>
0

>  <SCORE.SYSTEM.CONST>
0

>  <SCORE.SYSTEM.DIHEDRAL>
0

>  <SCORE.SYSTEM.SOLV>
0

>  <SCORE.SYSTEM.norm>
0

>  <SCORE.heavy>
25

>  <SCORE.norm>
-1.88288

>  <RMSD>
15.340

$$$$
1uud_lig
 OpenBabel11021811413D
libRbt.so/2013.1/901 2013/11/27
 25 25  0  0  0  0  0  0  0  0999 V2000
   -3.7508  -10.5839   11.0588 C   0  0  0  0  0  0  0  0  0  0  0  0
   -6.3394  -10.5014    9.6822 O   0  0  0  0  0  0  0  0  0  0  0  0
   -7.7035  -10.4077    9.2455 C   0  0  0  0  0  0  0  0  0  0  0  0
   -4.0111  -11.8801   11.7327 N   0  0  0  0  0  0  0  0  0  0  0  0
   -7.9575  -11.3845    8.0894 C   0  0  0  0  0  0  0  0  0  0  0  0
   -3.7006  -11.7660   13.1775 C   0  0  0  0  0  0  0  0  0  0  0  0
   -2.2107  -12.0481   13.4057 C   0  0  0  0  0  0  0  0  0  0  0  0
   -9.0611  -12.0589    8.3085 N   0  0  0  0  0  0  0  0  0  0  0  0
   -9.0507  -13.2055    8.9621 C   0  0  0  0  0  0  0  0  0  0  0  0
   -1.3721  -10.8791   12.8777 C   0  0  0  0  0  0  0  0  0  0  0  0
   -1.2618   -9.7994   13.9582 C   0  0  0  0  0  0  0  0  0  0  0  0
  -10.0907  -14.0892    8.8717 N   0  0  0  0  0  0  0  0  0  0  0  0
   -7.9836  -13.5140    9.7433 N   0  0  0  0  0  0  0  0  0  0  0  0
   -0.0584   -9.8135   14.4807 N   0  0  0  0  0  0  0  0  0  0  0  0
    0.5048   -8.7141   14.9441 C   0  0  0  0  0  0  0  0  0  0  0  0
    1.5410   -8.8176   15.8154 N   0  0  0  0  0  0  0  0  0  0  0  0
    0.0632   -7.4750   14.5757 N   0  0  0  0  0  0  0  0  0  0  0  0
   -6.0945   -9.5621   10.7369 C   0  0  0  0  0  0  0  0  0  0  0  0
   -5.4026   -6.7830   13.9067 O   0  0  0  0  0  0  0  0  0  0  0  0
   -4.8525   -9.5714   11.4349 C   0  0  0  0  0  0  0  0  0  0  0  0
   -4.6284   -8.6516   12.4942 C   0  0  0  0  0  0  0  0  0  0  0  0
   -5.6323   -7.7103   12.8429 C   0  0  0  0  0  0  0  0  0  0  0  0
   -6.8637   -7.6874   12.1344 C   0  0  0  0  0  0  0  0  0  0  0  0
   -7.0936   -8.6080   11.0763 C   0  0  0  0  0  0  0  0  0  0  0  0
   -4.9909   -7.4914   15.0794 C   0  0  0  0  0  0  0  0  0  0  0  0
  1  4  1  0  0  0  0
  2  3  1  0  0  0  0
  3  5  1  0  0  0  0
  4  6  1  0  0  0  0
  5  8  1  0  0  0  0
  6  7  1  0  0  0  0
  7 10  1  0  0  0  0
  8  9  1  0  0  0  0
  9 12  1  0  0  0  0
  9 13  1  0  0  0  0
 10 11  1  0  0  0  0
 11 14  1  0  0  0  0
 14 15  1  0  0  0  0
 15 16  1  0  0  0  0
 15 17  1  0  0  0  0
 18  2  1  0  0  0  0
 18 20  2  0  0  0  0
 18 24  1  0  0  0  0
 19 25  1  0  0  0  0
 20  1  1  0  0  0  0
 20 21  1  0  0  0  0
 21 22  2  0  0  0  0
 22 19  1  0  0  0  0
 22 23  1  0  0  0  0
 23 24  2  0  0  0  0
M  END
>  <CHROM.1>
-73.41375422,178.39767184,132.62514794,-86.41838120,-90.03269574,71.83891377
85.57807417,-161.10604309,43.29106506,91.09023984,105.91559988,149.16568053
160.46795524,176.37761135,165.42948057,172.97672021,-83.21594967,-52.43913490
-4.69243122,-10.16456914,11.96039287,-0.53368507,0.44405019,-2.72729909

>  <Name>
1uud_lig

>  <RI>
0

>  <Rbt.Current_Directory>
/home/itssahil/PROJECTS/Mol_Feturizer/New_Systems/rnas/1uud

>  <Rbt.Executable>
rbdock ($Id: //depot/dev/client3/rdock/2013.1/src/exe/rbdock.cxx#4 $)

>  <Rbt.Library>
libRbt.so (2013.1, Build901 2013/11/27)

>  <Rbt.Parameter_File>
/export/apps/rDock/src/rDock_2013.1_src/data/scripts/dock_solv.prm

>  <Rbt.Receptor>
prm/blind_docking_20.prm

>  <SCORE>
-24.6491

>  <SCORE.INTER>
-26.2544

>  <SCORE.INTER.CONST>
1

>  <SCORE.INTER.POLAR>
-3.34891

>  <SCORE.INTER.ROT>
18

>  <SCORE.INTER.SOLV>
11.6838

>  <SCORE.INTER.VDW>
-25.8345

>  <SCORE.INTER.norm>
-1.05018

>  <SCORE.INTRA>
1.20287

>  <SCORE.INTRA.DIHEDRAL>
-2.78738

>  <SCORE.INTRA.DIHEDRAL.0>
30.6762

>  <SCORE.INTRA.POLAR>
0.0288659

>  <SCORE.INTRA.POLAR.0>
-0.0288659

>  <SCORE.INTRA.REPUL>
0

>  <SCORE.INTRA.REPUL.0>
0

>  <SCORE.INTRA.SOLV>
-0.838049

>  <SCORE.INTRA.SOLV.lig_0>
-25.2195

>  <SCORE.INTRA.VDW>
2.91744

>  <SCORE.INTRA.VDW.0>
4.14263

>  <SCORE.INTRA.norm>
0.0481147

>  <SCORE.RESTR>
0.402458

>  <SCORE.RESTR.CAVITY>
0.402458

>  <SCORE.RESTR.norm>
0.0160983

>  <SCORE.SYSTEM>
0

>  <SCORE.SYSTEM.CONST>
0

>  <SCORE.SYSTEM.DIHEDRAL>
0

>  <SCORE.SYSTEM.SOLV>
0

>  <SCORE.SYSTEM.norm>
0

>  <SCORE.heavy>
25

>  <SCORE.norm>
-0.985964

>  <RMSD>
15.349

$$$$
1uud_lig
 OpenBabel11021811413D
libRbt.so/2013.1/901 2013/11/27
 25 25  0  0  0  0  0  0  0  0999 V2000
   -6.8760   -8.6323   11.7161 C   0  0  0  0  0  0  0  0  0  0  0  0
   -6.6702  -10.0197    9.1401 O   0  0  0  0  0  0  0  0  0  0  0  0
   -7.1457  -11.0310    8.2394 C   0  0  0  0  0  0  0  0  0  0  0  0
   -6.0839   -7.7346   12.5929 N   0  0  0  0  0  0  0  0  0  0  0  0
   -8.3968  -10.5365    7.5009 C   0  0  0  0  0  0  0  0  0  0  0  0
   -4.7913   -7.4112   11.9436 C   0  0  0  0  0  0  0  0  0  0  0  0
   -3.7203   -8.4047   12.4101 C   0  0  0  0  0  0  0  0  0  0  0  0
   -9.3985  -10.4297    8.3411 N   0  0  0  0  0  0  0  0  0  0  0  0
  -10.5372  -11.0665    8.1417 C   0  0  0  0  0  0  0  0  0  0  0  0
   -3.2059   -8.0034   13.7969 C   0  0  0  0  0  0  0  0  0  0  0  0
   -1.8264   -7.3522   13.6622 C   0  0  0  0  0  0  0  0  0  0  0  0
  -10.7565  -12.3158    8.6534 N   0  0  0  0  0  0  0  0  0  0  0  0
  -11.5127  -10.4680    7.4107 N   0  0  0  0  0  0  0  0  0  0  0  0
   -1.1558   -7.4941   14.7808 N   0  0  0  0  0  0  0  0  0  0  0  0
    0.0749   -7.9692   14.7913 C   0  0  0  0  0  0  0  0  0  0  0  0
    0.2661   -9.3133   14.7694 N   0  0  0  0  0  0  0  0  0  0  0  0
    1.1604   -7.1409   14.8339 N   0  0  0  0  0  0  0  0  0  0  0  0
   -6.0773  -10.6279   10.2947 C   0  0  0  0  0  0  0  0  0  0  0  0
   -4.2647  -12.4368   13.7141 O   0  0  0  0  0  0  0  0  0  0  0  0
   -6.1498   -9.9850   11.5641 C   0  0  0  0  0  0  0  0  0  0  0  0
   -5.5388  -10.5848   12.6978 C   0  0  0  0  0  0  0  0  0  0  0  0
   -4.8753  -11.8334   12.5707 C   0  0  0  0  0  0  0  0  0  0  0  0
   -4.8193  -12.4847   11.3091 C   0  0  0  0  0  0  0  0  0  0  0  0
   -5.4260  -11.8866   10.1715 C   0  0  0  0  0  0  0  0  0  0  0  0
   -5.2286  -13.2356   14.4065 C   0  0  0  0  0  0  0  0  0  0  0  0
  1  4  1  0  0  0  0
  2  3  1  0  0  0  0
  3  5  1  0  0  0  0
  4  6  1  0  0  0  0
  5  8  1  0  0  0  0
  6  7  1  0  0  0  0
  7 10  1  0  0  0  0
  8  9  1  0  0  0  0
  9 12  1  0  0  0  0
  9 13  1  0  0  0  0
 10 11  1  0  0  0  0
 11 14  1  0  0  0  0
 14 15  1  0  0  0  0
 15 16  1  0  0  0  0
 15 17  1  0  0  0  0
 18  2  1  0  0  0  0
 18 20  2  0  0  0  0
 18 24  1  0  0  0  0
 19 25  1  0  0  0  0
 20  1  1  0  0  0  0
 20 21  1  0  0  0  0
 21 22  2  0  0  0  0
 22 19  1  0  0  0  0
 22 23  1  0  0  0  0
 23 24  2  0  0  0  0
M  END
>  <CHROM.1>
64.84227796,147.45334375,-68.47301871,-93.06268318,-123.51147593,-79.58419589
-103.92182533,91.13756708,72.29604789,159.08162872,-154.67908092,129.40676608
-83.09076258,33.81250954,132.85256024,-147.90412378,-137.81031140,87.58295625
-5.31746322,-9.91080158,11.59759824,3.03391709,0.65514684,2.88787279

>  <Name>
1uud_lig

>  <RI>
0

>  <Rbt.Current_Directory>
/home/itssahil/PROJECTS/Mol_Feturizer/New_Systems/rnas/1uud

>  <Rbt.Executable>
rbdock ($Id: //depot/dev/client3/rdock/2013.1/src/exe/rbdock.cxx#4 $)

>  <Rbt.Library>
libRbt.so (2013.1, Build901 2013/11/27)

>  <Rbt.Parameter_File>
/export/apps/rDock/src/rDock_2013.1_src/data/scripts/dock_solv.prm

>  <Rbt.Receptor>
prm/blind_docking_20.prm

>  <SCORE>
-34.5736

>  <SCORE.INTER>
-33.3911

>  <SCORE.INTER.CONST>
1

>  <SCORE.INTER.POLAR>
-5.51216

>  <SCORE.INTER.ROT>
18

>  <SCORE.INTER.SOLV>
10.6552

>  <SCORE.INTER.VDW>
-23.0386

>  <SCORE.INTER.norm>
-1.33565

>  <SCORE.INTRA>
-1.61559

>  <SCORE.INTRA.DIHEDRAL>
0.753435

>  <SCORE.INTRA.DIHEDRAL.0>
30.6762

>  <SCORE.INTRA.POLAR>
0.0288659

>  <SCORE.INTRA.POLAR.0>
-0.0288659

>  <SCORE.INTRA.REPUL>
0

>  <SCORE.INTRA.REPUL.0>
0

>  <SCORE.INTRA.SOLV>
-1.19881

>  <SCORE.INTRA.SOLV.lig_0>
-25.2195

>  <SCORE.INTRA.VDW>
-1.49105

>  <SCORE.INTRA.VDW.0>
4.14263

>  <SCORE.INTRA.norm>
-0.0646237

>  <SCORE.RESTR>
0.433117

>  <SCORE.RESTR.CAVITY>
0.433117

>  <SCORE.RESTR.norm>
0.0173247

>  <SCORE.SYSTEM>
0

>  <SCORE.SYSTEM.CONST>
0

>  <SCORE.SYSTEM.DIHEDRAL>
0

>  <SCORE.SYSTEM.SOLV>
0

>  <SCORE.SYSTEM.norm>
0

>  <SCORE.heavy>
25

>  <SCORE.norm>
-1.38294

>  <RMSD>
15.363

$$$$
1uud_lig
 OpenBabel11021811413D
libRbt.so/2013.1/901 2013/11/27
 25 25  0  0  0  0  0  0  0  0999 V2000
   -8.2368  -13.6278    9.0306 C   0  0  0  0  0  0  0  0  0  0  0  0
  -10.7890  -12.9737   10.3195 O   0  0  0  0  0  0  0  0  0  0  0  0
  -11.5469  -13.9829    9.6359 C   0  0  0  0  0  0  0  0  0  0  0  0
   -7.3869  -12.4180    8.9037 N   0  0  0  0  0  0  0  0  0  0  0  0
  -12.6556  -13.3344    8.7961 C   0  0  0  0  0  0  0  0  0  0  0  0
   -8.2290  -11.2015    8.9911 C   0  0  0  0  0  0  0  0  0  0  0  0
   -7.4120   -9.9798    8.5533 C   0  0  0  0  0  0  0  0  0  0  0  0
  -12.1321  -12.7244    7.7595 N   0  0  0  0  0  0  0  0  0  0  0  0
  -11.6758  -11.4888    7.8439 C   0  0  0  0  0  0  0  0  0  0  0  0
   -6.4043   -9.6077    9.6464 C   0  0  0  0  0  0  0  0  0  0  0  0
   -5.3645   -8.6392    9.0755 C   0  0  0  0  0  0  0  0  0  0  0  0
  -11.4427  -10.8940    9.0532 N   0  0  0  0  0  0  0  0  0  0  0  0
  -11.4335  -10.7919    6.7037 N   0  0  0  0  0  0  0  0  0  0  0  0
   -5.6802   -7.4068    9.3963 N   0  0  0  0  0  0  0  0  0  0  0  0
   -5.8561   -6.4783    8.4757 C   0  0  0  0  0  0  0  0  0  0  0  0
   -7.1189   -6.1068    8.1427 N   0  0  0  0  0  0  0  0  0  0  0  0
   -4.7981   -5.8899    7.8430 N   0  0  0  0  0  0  0  0  0  0  0  0
   -9.7590  -13.5819   11.1093 C   0  0  0  0  0  0  0  0  0  0  0  0
   -6.7193  -15.4345   13.4712 O   0  0  0  0  0  0  0  0  0  0  0  0
   -8.5063  -13.9205   10.5212 C   0  0  0  0  0  0  0  0  0  0  0  0
   -7.5004  -14.5442   11.3070 C   0  0  0  0  0  0  0  0  0  0  0  0
   -7.7349  -14.8104   12.6816 C   0  0  0  0  0  0  0  0  0  0  0  0
   -8.9768  -14.4553   13.2738 C   0  0  0  0  0  0  0  0  0  0  0  0
   -9.9873  -13.8344   12.4906 C   0  0  0  0  0  0  0  0  0  0  0  0
   -5.6502  -14.5104   13.6942 C   0  0  0  0  0  0  0  0  0  0  0  0
  1  4  1  0  0  0  0
  2  3  1  0  0  0  0
  3  5  1  0  0  0  0
  4  6  1  0  0  0  0
  5  8  1  0  0  0  0
  6  7  1  0  0  0  0
  7 10  1  0  0  0  0
  8  9  1  0  0  0  0
  9 12  1  0  0  0  0
  9 13  1  0  0  0  0
 10 11  1  0  0  0  0
 11 14  1  0  0  0  0
 14 15  1  0  0  0  0
 15 16  1  0  0  0  0
 15 17  1  0  0  0  0
 18  2  1  0  0  0  0
 18 20  2  0  0  0  0
 18 24  1  0  0  0  0
 19 25  1  0  0  0  0
 20  1  1  0  0  0  0
 20 21  1  0  0  0  0
 21 22  2  0  0  0  0
 22 19  1  0  0  0  0
 22 23  1  0  0  0  0
 23 24  2  0  0  0  0
M  END
>  <CHROM.1>
-82.55631752,179.66155862,71.57927714,-167.51709540,-85.18726162,-73.88727550
165.56690740,15.10657121,41.94238342,-36.56276960,98.48356214,-123.04553975
102.88919146,149.60950958,63.37118314,84.83442419,102.38577667,71.36802544
-8.50398289,-11.61140617,9.80606024,-2.00547851,-0.46032250,-0.60890982

>  <Name>
1uud_lig

>  <RI>
0

>  <Rbt.Current_Directory>
/home/itssahil/PROJECTS/Mol_Feturizer/New_Systems/rnas/1uud

>  <Rbt.Executable>
rbdock ($Id: //depot/dev/client3/rdock/2013.1/src/exe/rbdock.cxx#4 $)

>  <Rbt.Library>
libRbt.so (2013.1, Build901 2013/11/27)

>  <Rbt.Parameter_File>
/export/apps/rDock/src/rDock_2013.1_src/data/scripts/dock_solv.prm

>  <Rbt.Receptor>
prm/blind_docking_100.prm

>  <SCORE>
-23.2261

>  <SCORE.INTER>
-15.5817

>  <SCORE.INTER.CONST>
1

>  <SCORE.INTER.POLAR>
-4.03179

>  <SCORE.INTER.ROT>
18

>  <SCORE.INTER.SOLV>
10.5255

>  <SCORE.INTER.VDW>
-16.057

>  <SCORE.INTER.norm>
-0.62327

>  <SCORE.INTRA>
-10.5538

>  <SCORE.INTRA.DIHEDRAL>
-3.8473

>  <SCORE.INTRA.DIHEDRAL.0>
30.6762

>  <SCORE.INTRA.POLAR>
-0.789674

>  <SCORE.INTRA.POLAR.0>
-0.0288659

>  <SCORE.INTRA.REPUL>
0

>  <SCORE.INTRA.REPUL.0>
0

>  <SCORE.INTRA.SOLV>
0.518288

>  <SCORE.INTRA.SOLV.lig_0>
-25.2195

>  <SCORE.INTRA.VDW>
-6.20443

>  <SCORE.INTRA.VDW.0>
4.14263

>  <SCORE.INTRA.norm>
-0.422153

>  <SCORE.RESTR>
2.90948

>  <SCORE.RESTR.CAVITY>
2.90948

>  <SCORE.RESTR.norm>
0.116379

>  <SCORE.SYSTEM>
0

>  <SCORE.SYSTEM.CONST>
0

>  <SCORE.SYSTEM.DIHEDRAL>
0

>  <SCORE.SYSTEM.SOLV>
0

>  <SCORE.SYSTEM.norm>
0

>  <SCORE.heavy>
25

>  <SCORE.norm>
-0.929043

>  <RMSD>
15.371

$$$$
1uud_lig
 OpenBabel11021811413D
libRbt.so/2013.1/901 2013/11/27
 25 25  0  0  0  0  0  0  0  0999 V2000
   -5.2540  -11.6100   11.7054 C   0  0  0  0  0  0  0  0  0  0  0  0
   -4.8253  -10.2561    9.1391 O   0  0  0  0  0  0  0  0  0  0  0  0
   -5.4565   -8.9927    8.8830 C   0  0  0  0  0  0  0  0  0  0  0  0
   -4.1065  -12.5369   11.8669 N   0  0  0  0  0  0  0  0  0  0  0  0
   -6.1864   -8.5010   10.1403 C   0  0  0  0  0  0  0  0  0  0  0  0
   -3.3762  -12.2187   13.1168 C   0  0  0  0  0  0  0  0  0  0  0  0
   -2.5307  -10.9563   12.9096 C   0  0  0  0  0  0  0  0  0  0  0  0
   -5.3472   -8.4325   11.1461 N   0  0  0  0  0  0  0  0  0  0  0  0
   -5.5114   -7.5611   12.1237 C   0  0  0  0  0  0  0  0  0  0  0  0
   -1.8527  -10.5611   14.2260 C   0  0  0  0  0  0  0  0  0  0  0  0
   -1.1168   -9.2306   14.0433 C   0  0  0  0  0  0  0  0  0  0  0  0
   -6.6614   -7.5248   12.8631 N   0  0  0  0  0  0  0  0  0  0  0  0
   -4.5161   -6.6795   12.4005 N   0  0  0  0  0  0  0  0  0  0  0  0
   -0.9218   -8.6655   15.2111 N   0  0  0  0  0  0  0  0  0  0  0  0
    0.2089   -8.0496   15.4987 C   0  0  0  0  0  0  0  0  0  0  0  0
    0.7864   -8.2569   16.7099 N   0  0  0  0  0  0  0  0  0  0  0  0
    0.8063   -7.2007   14.6106 N   0  0  0  0  0  0  0  0  0  0  0  0
   -5.8115  -11.2939    9.2095 C   0  0  0  0  0  0  0  0  0  0  0  0
   -8.7241  -14.4142    9.3858 O   0  0  0  0  0  0  0  0  0  0  0  0
   -6.0475  -11.9806   10.4353 C   0  0  0  0  0  0  0  0  0  0  0  0
   -7.0107  -13.0235   10.4889 C   0  0  0  0  0  0  0  0  0  0  0  0
   -7.7523  -13.3669    9.3281 C   0  0  0  0  0  0  0  0  0  0  0  0
   -7.5314  -12.6695    8.1099 C   0  0  0  0  0  0  0  0  0  0  0  0
   -6.5663  -11.6278    8.0508 C   0  0  0  0  0  0  0  0  0  0  0  0
   -9.9941  -13.8696    9.7559 C   0  0  0  0  0  0  0  0  0  0  0  0
  1  4  1  0  0  0  0
  2  3  1  0  0  0  0
  3  5  1  0  0  0  0
  4  6  1  0  0  0  0
  5  8  1  0  0  0  0
  6  7  1  0  0  0  0
  7 10  1  0  0  0  0
  8  9  1  0  0  0  0
  9 12  1  0  0  0  0
  9 13  1  0  0  0  0
 10 11  1  0  0  0  0
 11 14  1  0  0  0  0
 14 15  1  0  0  0  0
 15 16  1  0  0  0  0
 15 17  1  0  0  0  0
 18  2  1  0  0  0  0
 18 20  2  0  0  0  0
 18 24  1  0  0  0  0
 19 25  1  0  0  0  0
 20  1  1  0  0  0  0
 20 21  1  0  0  0  0
 21 22  2  0  0  0  0
 22 19  1  0  0  0  0
 22 23  1  0  0  0  0
 23 24  2  0  0  0  0
M  END
>  <CHROM.1>
-177.62666505,73.25482740,56.29560165,-75.90832653,150.76651058,175.86601322
-174.80193036,57.06179378,45.40133679,-11.02686074,159.05758267,139.96830318
-136.13586846,-33.60990739,-115.95774027,-114.12996604,-96.75665920,89.50402138
-4.54527986,-10.31331041,11.73567730,-2.71488515,-0.68321176,-0.02680714

>  <Name>
1uud_lig

>  <RI>
0

>  <Rbt.Current_Directory>
/home/itssahil/PROJECTS/Mol_Feturizer/New_Systems/rnas/1uud

>  <Rbt.Executable>
rbdock ($Id: //depot/dev/client3/rdock/2013.1/src/exe/rbdock.cxx#4 $)

>  <Rbt.Library>
libRbt.so (2013.1, Build901 2013/11/27)

>  <Rbt.Parameter_File>
/export/apps/rDock/src/rDock_2013.1_src/data/scripts/dock_solv.prm

>  <Rbt.Receptor>
prm/blind_docking_40.prm

>  <SCORE>
-43.4144

>  <SCORE.INTER>
-34.3589

>  <SCORE.INTER.CONST>
1

>  <SCORE.INTER.POLAR>
-5.06855

>  <SCORE.INTER.ROT>
18

>  <SCORE.INTER.SOLV>
9.31088

>  <SCORE.INTER.VDW>
-24.7144

>  <SCORE.INTER.norm>
-1.37436

>  <SCORE.INTRA>
-9.58032

>  <SCORE.INTRA.DIHEDRAL>
-8.44138

>  <SCORE.INTRA.DIHEDRAL.0>
30.6762

>  <SCORE.INTRA.POLAR>
0.022303

>  <SCORE.INTRA.POLAR.0>
-0.0288659

>  <SCORE.INTRA.REPUL>
0

>  <SCORE.INTRA.REPUL.0>
0

>  <SCORE.INTRA.SOLV>
-0.705682

>  <SCORE.INTRA.SOLV.lig_0>
-25.2195

>  <SCORE.INTRA.VDW>
-5.08262

>  <SCORE.INTRA.VDW.0>
4.14263

>  <SCORE.INTRA.norm>
-0.383213

>  <SCORE.RESTR>
0.524852

>  <SCORE.RESTR.CAVITY>
0.524852

>  <SCORE.RESTR.norm>
0.0209941

>  <SCORE.SYSTEM>
0

>  <SCORE.SYSTEM.CONST>
0

>  <SCORE.SYSTEM.DIHEDRAL>
0

>  <SCORE.SYSTEM.SOLV>
0

>  <SCORE.SYSTEM.norm>
0

>  <SCORE.heavy>
25

>  <SCORE.norm>
-1.73657

>  <RMSD>
15.380

$$$$
1uud_lig
 OpenBabel11021811413D
libRbt.so/2013.1/901 2013/11/27
 25 25  0  0  0  0  0  0  0  0999 V2000
   -5.7067   -9.0870    8.6351 C   0  0  0  0  0  0  0  0  0  0  0  0
   -5.7512  -11.8261    9.6828 O   0  0  0  0  0  0  0  0  0  0  0  0
   -6.3781  -12.7553   10.5795 C   0  0  0  0  0  0  0  0  0  0  0  0
   -7.1391   -9.4688    8.7029 N   0  0  0  0  0  0  0  0  0  0  0  0
   -7.7457  -13.1817   10.0291 C   0  0  0  0  0  0  0  0  0  0  0  0
   -7.6883   -9.6025    7.3328 C   0  0  0  0  0  0  0  0  0  0  0  0
   -8.0429  -11.0699    7.0632 C   0  0  0  0  0  0  0  0  0  0  0  0
   -8.1775  -14.2386   10.6750 N   0  0  0  0  0  0  0  0  0  0  0  0
   -8.4004  -14.2091   11.9755 C   0  0  0  0  0  0  0  0  0  0  0  0
   -9.4058  -11.3989    7.6821 C   0  0  0  0  0  0  0  0  0  0  0  0
  -10.4968  -10.5869    6.9783 C   0  0  0  0  0  0  0  0  0  0  0  0
   -9.6073  -13.8162   12.4851 N   0  0  0  0  0  0  0  0  0  0  0  0
   -7.4082  -14.5761   12.8270 N   0  0  0  0  0  0  0  0  0  0  0  0
  -11.6669  -11.1454    7.1786 N   0  0  0  0  0  0  0  0  0  0  0  0
  -12.2073  -11.2012    8.3808 C   0  0  0  0  0  0  0  0  0  0  0  0
  -13.0426  -10.2072    8.7782 N   0  0  0  0  0  0  0  0  0  0  0  0
  -11.9381  -12.2300    9.2383 N   0  0  0  0  0  0  0  0  0  0  0  0
   -5.0518  -10.8199   10.4264 C   0  0  0  0  0  0  0  0  0  0  0  0
   -2.9239   -7.8463   12.6355 O   0  0  0  0  0  0  0  0  0  0  0  0
   -5.0012   -9.4780    9.9503 C   0  0  0  0  0  0  0  0  0  0  0  0
   -4.2857   -8.4931   10.6826 C   0  0  0  0  0  0  0  0  0  0  0  0
   -3.6399   -8.8405   11.8982 C   0  0  0  0  0  0  0  0  0  0  0  0
   -3.7062  -10.1742   12.3839 C   0  0  0  0  0  0  0  0  0  0  0  0
   -4.4179  -11.1635   11.6527 C   0  0  0  0  0  0  0  0  0  0  0  0
   -3.8155   -7.1831   13.5364 C   0  0  0  0  0  0  0  0  0  0  0  0
  1  4  1  0  0  0  0
  2  3  1  0  0  0  0
  3  5  1  0  0  0  0
  4  6  1  0  0  0  0
  5  8  1  0  0  0  0
  6  7  1  0  0  0  0
  7 10  1  0  0  0  0
  8  9  1  0  0  0  0
  9 12  1  0  0  0  0
  9 13  1  0  0  0  0
 10 11  1  0  0  0  0
 11 14  1  0  0  0  0
 14 15  1  0  0  0  0
 15 16  1  0  0  0  0
 15 17  1  0  0  0  0
 18  2  1  0  0  0  0
 18 20  2  0  0  0  0
 18 24  1  0  0  0  0
 19 25  1  0  0  0  0
 20  1  1  0  0  0  0
 20 21  1  0  0  0  0
 21 22  2  0  0  0  0
 22 19  1  0  0  0  0
 22 23  1  0  0  0  0
 23 24  2  0  0  0  0
M  END
>  <CHROM.1>
-157.84586423,142.29725980,165.77617800,113.11603611,61.11396322,81.03378940
64.93460440,87.57410473,-157.83684572,-176.61198854,159.94076549,65.95073754
92.06568742,-100.43700980,-94.57819241,-144.57412732,55.19617196,88.25325949
-7.44917174,-11.02468696,10.06031859,0.00013772,-0.53045559,-0.65932521

>  <Name>
1uud_lig

>  <RI>
0

>  <Rbt.Current_Directory>
/home/itssahil/PROJECTS/Mol_Feturizer/New_Systems/rnas/1uud

>  <Rbt.Executable>
rbdock ($Id: //depot/dev/client3/rdock/2013.1/src/exe/rbdock.cxx#4 $)

>  <Rbt.Library>
libRbt.so (2013.1, Build901 2013/11/27)

>  <Rbt.Parameter_File>
/export/apps/rDock/src/rDock_2013.1_src/data/scripts/dock_solv.prm

>  <Rbt.Receptor>
prm/blind_docking_60.prm

>  <SCORE>
-7.91105

>  <SCORE.INTER>
-6.8839

>  <SCORE.INTER.CONST>
1

>  <SCORE.INTER.POLAR>
-1.70184

>  <SCORE.INTER.ROT>
18

>  <SCORE.INTER.SOLV>
8.98608

>  <SCORE.INTER.VDW>
-17.5118

>  <SCORE.INTER.norm>
-0.275356

>  <SCORE.INTRA>
-3.23897

>  <SCORE.INTRA.DIHEDRAL>
-0.636761

>  <SCORE.INTRA.DIHEDRAL.0>
30.6762

>  <SCORE.INTRA.POLAR>
-0.317502

>  <SCORE.INTRA.POLAR.0>
-0.0288659

>  <SCORE.INTRA.REPUL>
0

>  <SCORE.INTRA.REPUL.0>
0

>  <SCORE.INTRA.SOLV>
-0.239291

>  <SCORE.INTRA.SOLV.lig_0>
-25.2195

>  <SCORE.INTRA.VDW>
-1.72144

>  <SCORE.INTRA.VDW.0>
4.14263

>  <SCORE.INTRA.norm>
-0.129559

>  <SCORE.RESTR>
2.21182

>  <SCORE.RESTR.CAVITY>
2.21182

>  <SCORE.RESTR.norm>
0.0884726

>  <SCORE.SYSTEM>
0

>  <SCORE.SYSTEM.CONST>
0

>  <SCORE.SYSTEM.DIHEDRAL>
0

>  <SCORE.SYSTEM.SOLV>
0

>  <SCORE.SYSTEM.norm>
0

>  <SCORE.heavy>
25

>  <SCORE.norm>
-0.316442

>  <RMSD>
15.394

$$$$
1uud_lig
 OpenBabel11021811413D
libRbt.so/2013.1/901 2013/11/27
 25 25  0  0  0  0  0  0  0  0999 V2000
   -5.9144  -11.1325    9.0265 C   0  0  0  0  0  0  0  0  0  0  0  0
   -7.9252  -12.4511   10.7060 O   0  0  0  0  0  0  0  0  0  0  0  0
   -8.1291  -13.2574    9.5362 C   0  0  0  0  0  0  0  0  0  0  0  0
   -6.8240  -10.0049    9.3479 N   0  0  0  0  0  0  0  0  0  0  0  0
   -9.4002  -12.8116    8.8008 C   0  0  0  0  0  0  0  0  0  0  0  0
   -6.1103   -8.7180    9.1711 C   0  0  0  0  0  0  0  0  0  0  0  0
   -5.1212   -8.5173   10.3257 C   0  0  0  0  0  0  0  0  0  0  0  0
  -10.4430  -12.9557    9.5835 N   0  0  0  0  0  0  0  0  0  0  0  0
  -11.6506  -12.5868    9.1991 C   0  0  0  0  0  0  0  0  0  0  0  0
   -5.8411   -7.8933   11.5261 C   0  0  0  0  0  0  0  0  0  0  0  0
   -4.8407   -7.0889   12.3612 C   0  0  0  0  0  0  0  0  0  0  0  0
  -12.6269  -13.5061    8.9300 N   0  0  0  0  0  0  0  0  0  0  0  0
  -11.9293  -11.2643    9.0665 N   0  0  0  0  0  0  0  0  0  0  0  0
   -4.0444   -7.9049   13.0102 N   0  0  0  0  0  0  0  0  0  0  0  0
   -2.9427   -7.4738   13.5940 C   0  0  0  0  0  0  0  0  0  0  0  0
   -2.6458   -7.9035   14.8474 N   0  0  0  0  0  0  0  0  0  0  0  0
   -2.0996   -6.5978   12.9712 N   0  0  0  0  0  0  0  0  0  0  0  0
   -6.5512  -12.5085   11.1101 C   0  0  0  0  0  0  0  0  0  0  0  0
   -2.4571  -12.7299   12.3099 O   0  0  0  0  0  0  0  0  0  0  0  0
   -5.5420  -11.8858   10.3204 C   0  0  0  0  0  0  0  0  0  0  0  0
   -4.1805  -11.9683   10.7173 C   0  0  0  0  0  0  0  0  0  0  0  0
   -3.8278  -12.6519   11.9105 C   0  0  0  0  0  0  0  0  0  0  0  0
   -4.8356  -13.2565   12.7091 C   0  0  0  0  0  0  0  0  0  0  0  0
   -6.1987  -13.1795   12.3139 C   0  0  0  0  0  0  0  0  0  0  0  0
   -2.1721  -11.6904   13.2505 C   0  0  0  0  0  0  0  0  0  0  0  0
  1  4  1  0  0  0  0
  2  3  1  0  0  0  0
  3  5  1  0  0  0  0
  4  6  1  0  0  0  0
  5  8  1  0  0  0  0
  6  7  1  0  0  0  0
  7 10  1  0  0  0  0
  8  9  1  0  0  0  0
  9 12  1  0  0  0  0
  9 13  1  0  0  0  0
 10 11  1  0  0  0  0
 11 14  1  0  0  0  0
 14 15  1  0  0  0  0
 15 16  1  0  0  0  0
 15 17  1  0  0  0  0
 18  2  1  0  0  0  0
 18 20  2  0  0  0  0
 18 24  1  0  0  0  0
 19 25  1  0  0  0  0
 20  1  1  0  0  0  0
 20 21  1  0  0  0  0
 21 22  2  0  0  0  0
 22 19  1  0  0  0  0
 22 23  1  0  0  0  0
 23 24  2  0  0  0  0
M  END
>  <CHROM.1>
109.35317019,-158.86433373,-60.90622271,-73.88920223,177.11552555,-84.82765916
-152.61393619,110.17768669,82.72439033,-164.60453651,-72.65370916,166.89500469
135.54509740,95.67162997,-136.08510466,69.85639932,61.00442079,95.97539073
-6.20482624,-10.83361377,11.07149991,-2.69392310,-0.46079514,0.00985822

>  <Name>
1uud_lig

>  <RI>
0

>  <Rbt.Current_Directory>
/home/itssahil/PROJECTS/Mol_Feturizer/New_Systems/rnas/1uud

>  <Rbt.Executable>
rbdock ($Id: //depot/dev/client3/rdock/2013.1/src/exe/rbdock.cxx#4 $)

>  <Rbt.Library>
libRbt.so (2013.1, Build901 2013/11/27)

>  <Rbt.Parameter_File>
/export/apps/rDock/src/rDock_2013.1_src/data/scripts/dock_solv.prm

>  <Rbt.Receptor>
prm/blind_docking_40.prm

>  <SCORE>
-20.9608

>  <SCORE.INTER>
-16.2633

>  <SCORE.INTER.CONST>
1

>  <SCORE.INTER.POLAR>
-1.9257

>  <SCORE.INTER.ROT>
18

>  <SCORE.INTER.SOLV>
9.45807

>  <SCORE.INTER.VDW>
-23.1759

>  <SCORE.INTER.norm>
-0.65053

>  <SCORE.INTRA>
-4.79583

>  <SCORE.INTRA.DIHEDRAL>
-0.403202

>  <SCORE.INTRA.DIHEDRAL.0>
30.6762

>  <SCORE.INTRA.POLAR>
0.0288659

>  <SCORE.INTRA.POLAR.0>
-0.0288659

>  <SCORE.INTRA.REPUL>
0

>  <SCORE.INTRA.REPUL.0>
0

>  <SCORE.INTRA.SOLV>
-0.719965

>  <SCORE.INTRA.SOLV.lig_0>
-25.2195

>  <SCORE.INTRA.VDW>
-4.33239

>  <SCORE.INTRA.VDW.0>
4.14263

>  <SCORE.INTRA.norm>
-0.191833

>  <SCORE.RESTR>
0.098245

>  <SCORE.RESTR.CAVITY>
0.098245

>  <SCORE.RESTR.norm>
0.0039298

>  <SCORE.SYSTEM>
0

>  <SCORE.SYSTEM.CONST>
0

>  <SCORE.SYSTEM.DIHEDRAL>
0

>  <SCORE.SYSTEM.SOLV>
0

>  <SCORE.SYSTEM.norm>
0

>  <SCORE.heavy>
25

>  <SCORE.norm>
-0.838434

>  <RMSD>
15.401

$$$$
1uud_lig
 OpenBabel11021811413D
libRbt.so/2013.1/901 2013/11/27
 25 25  0  0  0  0  0  0  0  0999 V2000
   -4.2539  -10.8405   12.9614 C   0  0  0  0  0  0  0  0  0  0  0  0
   -5.2026   -9.0358   10.8529 O   0  0  0  0  0  0  0  0  0  0  0  0
   -5.4223   -8.0637    9.8200 C   0  0  0  0  0  0  0  0  0  0  0  0
   -3.4336  -11.7131   12.0851 N   0  0  0  0  0  0  0  0  0  0  0  0
   -5.0968   -8.6672    8.4470 C   0  0  0  0  0  0  0  0  0  0  0  0
   -4.0265  -13.0704   12.0315 C   0  0  0  0  0  0  0  0  0  0  0  0
   -4.6268  -13.3133   10.6415 C   0  0  0  0  0  0  0  0  0  0  0  0
   -5.3922   -9.9453    8.4394 N   0  0  0  0  0  0  0  0  0  0  0  0
   -6.4258  -10.4106    7.7632 C   0  0  0  0  0  0  0  0  0  0  0  0
   -5.7796  -12.3344   10.3933 C   0  0  0  0  0  0  0  0  0  0  0  0
   -7.1131  -13.0318   10.6773 C   0  0  0  0  0  0  0  0  0  0  0  0
   -6.3260  -11.5328    6.9878 N   0  0  0  0  0  0  0  0  0  0  0  0
   -7.6151   -9.7592    7.8383 N   0  0  0  0  0  0  0  0  0  0  0  0
   -8.0845  -12.4050   10.0569 N   0  0  0  0  0  0  0  0  0  0  0  0
   -9.0339  -13.0635    9.4202 C   0  0  0  0  0  0  0  0  0  0  0  0
   -9.9952  -12.3670    8.7611 N   0  0  0  0  0  0  0  0  0  0  0  0
   -9.0779  -14.4289    9.4172 N   0  0  0  0  0  0  0  0  0  0  0  0
   -4.2500   -8.5392   11.8018 C   0  0  0  0  0  0  0  0  0  0  0  0
   -1.4447   -7.0251   14.6458 O   0  0  0  0  0  0  0  0  0  0  0  0
   -3.7673   -9.3811   12.8449 C   0  0  0  0  0  0  0  0  0  0  0  0
   -2.8409   -8.8723   13.7943 C   0  0  0  0  0  0  0  0  0  0  0  0
   -2.3803   -7.5334   13.6914 C   0  0  0  0  0  0  0  0  0  0  0  0
   -2.8462   -6.6990   12.6399 C   0  0  0  0  0  0  0  0  0  0  0  0
   -3.7758   -7.2027   11.6900 C   0  0  0  0  0  0  0  0  0  0  0  0
   -0.2351   -7.7864   14.5834 C   0  0  0  0  0  0  0  0  0  0  0  0
  1  4  1  0  0  0  0
  2  3  1  0  0  0  0
  3  5  1  0  0  0  0
  4  6  1  0  0  0  0
  5  8  1  0  0  0  0
  6  7  1  0  0  0  0
  7 10  1  0  0  0  0
  8  9  1  0  0  0  0
  9 12  1  0  0  0  0
  9 13  1  0  0  0  0
 10 11  1  0  0  0  0
 11 14  1  0  0  0  0
 14 15  1  0  0  0  0
 15 16  1  0  0  0  0
 15 17  1  0  0  0  0
 18  2  1  0  0  0  0
 18 20  2  0  0  0  0
 18 24  1  0  0  0  0
 19 25  1  0  0  0  0
 20  1  1  0  0  0  0
 20 21  1  0  0  0  0
 21 22  2  0  0  0  0
 22 19  1  0  0  0  0
 22 23  1  0  0  0  0
 23 24  2  0  0  0  0
M  END
>  <CHROM.1>
-171.27138705,122.14750383,33.16889456,109.68590044,108.38492483,-63.75246390
-98.52173903,134.90487673,-170.05124384,-39.04355287,-158.56075217,137.05748517
-178.10122330,-22.36583868,-150.91177466,-173.57406877,85.14242066,61.34337862
-5.20349125,-10.34629099,10.82350134,-0.19594028,0.82226450,2.63233118

>  <Name>
1uud_lig

>  <RI>
0

>  <Rbt.Current_Directory>
/home/itssahil/PROJECTS/Mol_Feturizer/New_Systems/rnas/1uud

>  <Rbt.Executable>
rbdock ($Id: //depot/dev/client3/rdock/2013.1/src/exe/rbdock.cxx#4 $)

>  <Rbt.Library>
libRbt.so (2013.1, Build901 2013/11/27)

>  <Rbt.Parameter_File>
/export/apps/rDock/src/rDock_2013.1_src/data/scripts/dock_solv.prm

>  <Rbt.Receptor>
prm/blind_docking_80.prm

>  <SCORE>
-20.3521

>  <SCORE.INTER>
-22.9324

>  <SCORE.INTER.CONST>
1

>  <SCORE.INTER.POLAR>
-3.5205

>  <SCORE.INTER.ROT>
18

>  <SCORE.INTER.SOLV>
8.65774

>  <SCORE.INTER.VDW>
-22.0392

>  <SCORE.INTER.norm>
-0.917298

>  <SCORE.INTRA>
1.48034

>  <SCORE.INTRA.DIHEDRAL>
2.37611

>  <SCORE.INTRA.DIHEDRAL.0>
30.6762

>  <SCORE.INTRA.POLAR>
0.0288659

>  <SCORE.INTRA.POLAR.0>
-0.0288659

>  <SCORE.INTRA.REPUL>
0

>  <SCORE.INTRA.REPUL.0>
0

>  <SCORE.INTRA.SOLV>
1.9035

>  <SCORE.INTRA.SOLV.lig_0>
-25.2195

>  <SCORE.INTRA.VDW>
-0.757613

>  <SCORE.INTRA.VDW.0>
4.14263

>  <SCORE.INTRA.norm>
0.0592136

>  <SCORE.RESTR>
1.10005

>  <SCORE.RESTR.CAVITY>
1.10005

>  <SCORE.RESTR.norm>
0.0440019

>  <SCORE.SYSTEM>
0

>  <SCORE.SYSTEM.CONST>
0

>  <SCORE.SYSTEM.DIHEDRAL>
0

>  <SCORE.SYSTEM.SOLV>
0

>  <SCORE.SYSTEM.norm>
0

>  <SCORE.heavy>
25

>  <SCORE.norm>
-0.814082

>  <RMSD>
15.401

$$$$
1uud_lig
 OpenBabel11021811413D
libRbt.so/2013.1/901 2013/11/27
 25 25  0  0  0  0  0  0  0  0999 V2000
   -4.8104  -11.7042   11.9103 C   0  0  0  0  0  0  0  0  0  0  0  0
   -4.8579  -11.0155    9.0596 O   0  0  0  0  0  0  0  0  0  0  0  0
   -5.4796   -9.8968    8.4098 C   0  0  0  0  0  0  0  0  0  0  0  0
   -3.6905  -12.6675   12.0518 N   0  0  0  0  0  0  0  0  0  0  0  0
   -5.4069   -8.6551    9.3086 C   0  0  0  0  0  0  0  0  0  0  0  0
   -2.7441  -12.1886   13.0871 C   0  0  0  0  0  0  0  0  0  0  0  0
   -1.9941  -10.9568   12.5658 C   0  0  0  0  0  0  0  0  0  0  0  0
   -6.1935   -8.8086   10.3471 N   0  0  0  0  0  0  0  0  0  0  0  0
   -6.8958   -7.8034   10.8353 C   0  0  0  0  0  0  0  0  0  0  0  0
   -0.9987  -10.4667   13.6231 C   0  0  0  0  0  0  0  0  0  0  0  0
   -1.5951   -9.2718   14.3725 C   0  0  0  0  0  0  0  0  0  0  0  0
   -6.9296   -6.5861   10.2126 N   0  0  0  0  0  0  0  0  0  0  0  0
   -7.5998   -7.9817   11.9829 N   0  0  0  0  0  0  0  0  0  0  0  0
   -0.7926   -8.2386   14.2740 N   0  0  0  0  0  0  0  0  0  0  0  0
   -0.0739   -7.8238   15.2996 C   0  0  0  0  0  0  0  0  0  0  0  0
   -0.5284   -6.7884   16.0512 N   0  0  0  0  0  0  0  0  0  0  0  0
    1.1212   -8.4048   15.6164 N   0  0  0  0  0  0  0  0  0  0  0  0
   -5.8580  -11.9095    9.5649 C   0  0  0  0  0  0  0  0  0  0  0  0
   -8.8209  -14.6103   11.0405 O   0  0  0  0  0  0  0  0  0  0  0  0
   -5.8678  -12.2741   10.9422 C   0  0  0  0  0  0  0  0  0  0  0  0
   -6.8491  -13.1791   11.4283 C   0  0  0  0  0  0  0  0  0  0  0  0
   -7.8318  -13.7028   10.5477 C   0  0  0  0  0  0  0  0  0  0  0  0
   -7.8347  -13.3246    9.1781 C   0  0  0  0  0  0  0  0  0  0  0  0
   -6.8527  -12.4223    8.6866 C   0  0  0  0  0  0  0  0  0  0  0  0
  -10.1250  -14.0699   10.8087 C   0  0  0  0  0  0  0  0  0  0  0  0
  1  4  1  0  0  0  0
  2  3  1  0  0  0  0
  3  5  1  0  0  0  0
  4  6  1  0  0  0  0
  5  8  1  0  0  0  0
  6  7  1  0  0  0  0
  7 10  1  0  0  0  0
  8  9  1  0  0  0  0
  9 12  1  0  0  0  0
  9 13  1  0  0  0  0
 10 11  1  0  0  0  0
 11 14  1  0  0  0  0
 14 15  1  0  0  0  0
 15 16  1  0  0  0  0
 15 17  1  0  0  0  0
 18  2  1  0  0  0  0
 18 20  2  0  0  0  0
 18 24  1  0  0  0  0
 19 25  1  0  0  0  0
 20  1  1  0  0  0  0
 20 21  1  0  0  0  0
 21 22  2  0  0  0  0
 22 19  1  0  0  0  0
 22 23  1  0  0  0  0
 23 24  2  0  0  0  0
M  END
>  <CHROM.1>
-174.10086579,103.96519425,-69.61108513,-70.36013996,-141.77465755,-179.20388514
-100.15693963,5.89875246,23.94136863,153.31204912,-123.08370096,-107.12739904
-97.66977788,-120.72730998,133.86087476,-124.63267266,-95.80212568,121.36500619
-4.73315619,-10.51595398,11.70497186,-2.75626197,-0.61482525,-0.09408313

>  <Name>
1uud_lig

>  <RI>
0

>  <Rbt.Current_Directory>
/home/itssahil/PROJECTS/Mol_Feturizer/New_Systems/rnas/1uud

>  <Rbt.Executable>
rbdock ($Id: //depot/dev/client3/rdock/2013.1/src/exe/rbdock.cxx#4 $)

>  <Rbt.Library>
libRbt.so (2013.1, Build901 2013/11/27)

>  <Rbt.Parameter_File>
/export/apps/rDock/src/rDock_2013.1_src/data/scripts/dock_solv.prm

>  <Rbt.Receptor>
prm/blind_docking_80.prm

>  <SCORE>
-39.0013

>  <SCORE.INTER>
-38.0458

>  <SCORE.INTER.CONST>
1

>  <SCORE.INTER.POLAR>
-6.36526

>  <SCORE.INTER.ROT>
18

>  <SCORE.INTER.SOLV>
11.5869

>  <SCORE.INTER.VDW>
-23.6086

>  <SCORE.INTER.norm>
-1.52183

>  <SCORE.INTRA>
-1.6924

>  <SCORE.INTRA.DIHEDRAL>
3.15092

>  <SCORE.INTRA.DIHEDRAL.0>
30.6762

>  <SCORE.INTRA.POLAR>
0.0288659

>  <SCORE.INTRA.POLAR.0>
-0.0288659

>  <SCORE.INTRA.REPUL>
0

>  <SCORE.INTRA.REPUL.0>
0

>  <SCORE.INTRA.SOLV>
-0.620437

>  <SCORE.INTRA.SOLV.lig_0>
-25.2195

>  <SCORE.INTRA.VDW>
-3.05578

>  <SCORE.INTRA.VDW.0>
4.14263

>  <SCORE.INTRA.norm>
-0.0676958

>  <SCORE.RESTR>
0.736914

>  <SCORE.RESTR.CAVITY>
0.736914

>  <SCORE.RESTR.norm>
0.0294766

>  <SCORE.SYSTEM>
0

>  <SCORE.SYSTEM.CONST>
0

>  <SCORE.SYSTEM.DIHEDRAL>
0

>  <SCORE.SYSTEM.SOLV>
0

>  <SCORE.SYSTEM.norm>
0

>  <SCORE.heavy>
25

>  <SCORE.norm>
-1.56005

>  <RMSD>
15.407

$$$$
1uud_lig
 OpenBabel11021811413D
libRbt.so/2013.1/901 2013/11/27
 25 25  0  0  0  0  0  0  0  0999 V2000
   -5.6721  -12.2029    7.7915 C   0  0  0  0  0  0  0  0  0  0  0  0
   -4.6367   -9.6383    8.7680 O   0  0  0  0  0  0  0  0  0  0  0  0
   -4.4982   -8.4116    9.5004 C   0  0  0  0  0  0  0  0  0  0  0  0
   -6.8349  -11.3160    7.5395 N   0  0  0  0  0  0  0  0  0  0  0  0
   -5.5391   -7.3898    9.0234 C   0  0  0  0  0  0  0  0  0  0  0  0
   -8.0938  -12.0483    7.8143 C   0  0  0  0  0  0  0  0  0  0  0  0
   -8.6288  -11.6487    9.1947 C   0  0  0  0  0  0  0  0  0  0  0  0
   -6.6881   -7.6128    9.6157 N   0  0  0  0  0  0  0  0  0  0  0  0
   -6.7869   -7.6710   10.9305 C   0  0  0  0  0  0  0  0  0  0  0  0
   -9.3222  -12.8471    9.8519 C   0  0  0  0  0  0  0  0  0  0  0  0
   -8.2688  -13.7784   10.4584 C   0  0  0  0  0  0  0  0  0  0  0  0
   -7.6609   -8.5252   11.5445 N   0  0  0  0  0  0  0  0  0  0  0  0
   -6.0036   -6.8631   11.6909 N   0  0  0  0  0  0  0  0  0  0  0  0
   -8.8495  -14.8466   10.9514 N   0  0  0  0  0  0  0  0  0  0  0  0
   -9.2685  -14.8885   12.2016 C   0  0  0  0  0  0  0  0  0  0  0  0
   -9.5413  -16.0917   12.7686 N   0  0  0  0  0  0  0  0  0  0  0  0
   -9.4438  -13.7495   12.9351 N   0  0  0  0  0  0  0  0  0  0  0  0
   -4.6759  -10.7498    9.6721 C   0  0  0  0  0  0  0  0  0  0  0  0
   -4.8249  -14.0373   12.3962 O   0  0  0  0  0  0  0  0  0  0  0  0
   -5.1762  -12.0119    9.2399 C   0  0  0  0  0  0  0  0  0  0  0  0
   -5.2325  -13.1010   10.1504 C   0  0  0  0  0  0  0  0  0  0  0  0
   -4.7709  -12.9383   11.4831 C   0  0  0  0  0  0  0  0  0  0  0  0
   -4.2537  -11.6855   11.9095 C   0  0  0  0  0  0  0  0  0  0  0  0
   -4.1988  -10.5922   11.0030 C   0  0  0  0  0  0  0  0  0  0  0  0
   -6.0138  -13.9457   13.1866 C   0  0  0  0  0  0  0  0  0  0  0  0
  1  4  1  0  0  0  0
  2  3  1  0  0  0  0
  3  5  1  0  0  0  0
  4  6  1  0  0  0  0
  5  8  1  0  0  0  0
  6  7  1  0  0  0  0
  7 10  1  0  0  0  0
  8  9  1  0  0  0  0
  9 12  1  0  0  0  0
  9 13  1  0  0  0  0
 10 11  1  0  0  0  0
 11 14  1  0  0  0  0
 14 15  1  0  0  0  0
 15 16  1  0  0  0  0
 15 17  1  0  0  0  0
 18  2  1  0  0  0  0
 18 20  2  0  0  0  0
 18 24  1  0  0  0  0
 19 25  1  0  0  0  0
 20  1  1  0  0  0  0
 20 21  1  0  0  0  0
 21 22  2  0  0  0  0
 22 19  1  0  0  0  0
 22 23  1  0  0  0  0
 23 24  2  0  0  0  0
M  END
>  <CHROM.1>
-92.97191361,-130.74694639,82.37995398,100.59071287,54.42690609,-146.20094618
79.89132402,-145.01083198,-19.88175894,110.84730173,-176.19040015,-89.91541454
-163.17649171,171.00438035,127.62773109,162.30598973,-62.55854229,-96.22876962
-6.65794342,-11.53830595,10.49205887,1.13176190,-0.40454414,-0.49681344

>  <Name>
1uud_lig

>  <RI>
0

>  <Rbt.Current_Directory>
/home/itssahil/PROJECTS/Mol_Feturizer/New_Systems/rnas/1uud

>  <Rbt.Executable>
rbdock ($Id: //depot/dev/client3/rdock/2013.1/src/exe/rbdock.cxx#4 $)

>  <Rbt.Library>
libRbt.so (2013.1, Build901 2013/11/27)

>  <Rbt.Parameter_File>
/export/apps/rDock/src/rDock_2013.1_src/data/scripts/dock_solv.prm

>  <Rbt.Receptor>
prm/blind_docking_100.prm

>  <SCORE>
-19.3975

>  <SCORE.INTER>
-20.6671

>  <SCORE.INTER.CONST>
1

>  <SCORE.INTER.POLAR>
-3.61028

>  <SCORE.INTER.ROT>
18

>  <SCORE.INTER.SOLV>
10.1346

>  <SCORE.INTER.VDW>
-20.722

>  <SCORE.INTER.norm>
-0.826684

>  <SCORE.INTRA>
0.221879

>  <SCORE.INTRA.DIHEDRAL>
2.86306

>  <SCORE.INTRA.DIHEDRAL.0>
30.6762

>  <SCORE.INTRA.POLAR>
-0.0641587

>  <SCORE.INTRA.POLAR.0>
-0.0288659

>  <SCORE.INTRA.REPUL>
0

>  <SCORE.INTRA.REPUL.0>
0

>  <SCORE.INTRA.SOLV>
0.701698

>  <SCORE.INTRA.SOLV.lig_0>
-25.2195

>  <SCORE.INTRA.VDW>
-1.34236

>  <SCORE.INTRA.VDW.0>
4.14263

>  <SCORE.INTRA.norm>
0.00887518

>  <SCORE.RESTR>
1.04766

>  <SCORE.RESTR.CAVITY>
1.04766

>  <SCORE.RESTR.norm>
0.0419065

>  <SCORE.SYSTEM>
0

>  <SCORE.SYSTEM.CONST>
0

>  <SCORE.SYSTEM.DIHEDRAL>
0

>  <SCORE.SYSTEM.SOLV>
0

>  <SCORE.SYSTEM.norm>
0

>  <SCORE.heavy>
25

>  <SCORE.norm>
-0.775902

>  <RMSD>
15.417

$$$$
1uud_lig
 OpenBabel11021811413D
libRbt.so/2013.1/901 2013/11/27
 25 25  0  0  0  0  0  0  0  0999 V2000
   -5.0236  -11.7123   11.4346 C   0  0  0  0  0  0  0  0  0  0  0  0
   -6.2770   -9.2929   10.3492 O   0  0  0  0  0  0  0  0  0  0  0  0
   -5.2250   -8.9980    9.4182 C   0  0  0  0  0  0  0  0  0  0  0  0
   -5.1346  -12.7185   12.5196 N   0  0  0  0  0  0  0  0  0  0  0  0
   -4.4123   -7.7898    9.9030 C   0  0  0  0  0  0  0  0  0  0  0  0
   -4.7448  -12.1077   13.8125 C   0  0  0  0  0  0  0  0  0  0  0  0
   -3.2440  -11.7928   13.7992 C   0  0  0  0  0  0  0  0  0  0  0  0
   -3.9278   -8.0279   11.0985 N   0  0  0  0  0  0  0  0  0  0  0  0
   -4.4650   -7.4944   12.1796 C   0  0  0  0  0  0  0  0  0  0  0  0
   -3.0184  -10.3498   13.3349 C   0  0  0  0  0  0  0  0  0  0  0  0
   -1.5272  -10.0119   13.4209 C   0  0  0  0  0  0  0  0  0  0  0  0
   -4.0970   -6.2540   12.6229 N   0  0  0  0  0  0  0  0  0  0  0  0
   -5.4036   -8.1939   12.8681 N   0  0  0  0  0  0  0  0  0  0  0  0
   -1.3392   -9.0426   14.2847 N   0  0  0  0  0  0  0  0  0  0  0  0
   -1.9184   -7.8663   14.1378 C   0  0  0  0  0  0  0  0  0  0  0  0
   -1.4110   -6.9863   13.2369 N   0  0  0  0  0  0  0  0  0  0  0  0
   -3.0097   -7.5097   14.8780 N   0  0  0  0  0  0  0  0  0  0  0  0
   -6.8636  -10.5643   10.0428 C   0  0  0  0  0  0  0  0  0  0  0  0
   -8.6024  -14.3460    9.0806 O   0  0  0  0  0  0  0  0  0  0  0  0
   -6.2833  -11.7645   10.5455 C   0  0  0  0  0  0  0  0  0  0  0  0
   -6.8588  -13.0212   10.2169 C   0  0  0  0  0  0  0  0  0  0  0  0
   -8.0229  -13.0801    9.4064 C   0  0  0  0  0  0  0  0  0  0  0  0
   -8.6136  -11.8825    8.9207 C   0  0  0  0  0  0  0  0  0  0  0  0
   -8.0392  -10.6233    9.2440 C   0  0  0  0  0  0  0  0  0  0  0  0
   -9.9975  -14.3300    9.3972 C   0  0  0  0  0  0  0  0  0  0  0  0
  1  4  1  0  0  0  0
  2  3  1  0  0  0  0
  3  5  1  0  0  0  0
  4  6  1  0  0  0  0
  5  8  1  0  0  0  0
  6  7  1  0  0  0  0
  7 10  1  0  0  0  0
  8  9  1  0  0  0  0
  9 12  1  0  0  0  0
  9 13  1  0  0  0  0
 10 11  1  0  0  0  0
 11 14  1  0  0  0  0
 14 15  1  0  0  0  0
 15 16  1  0  0  0  0
 15 17  1  0  0  0  0
 18  2  1  0  0  0  0
 18 20  2  0  0  0  0
 18 24  1  0  0  0  0
 19 25  1  0  0  0  0
 20  1  1  0  0  0  0
 20 21  1  0  0  0  0
 21 22  2  0  0  0  0
 22 19  1  0  0  0  0
 22 23  1  0  0  0  0
 23 24  2  0  0  0  0
M  END
>  <CHROM.1>
-134.16850965,-168.58808338,57.42182915,-68.00661645,-103.22115244,93.15027822
175.95342663,-86.60759960,150.94526903,157.52917758,-117.09622259,-58.89098737
-77.63965136,92.90972525,22.54573000,85.03694848,140.68105771,128.26117219
-5.04230913,-10.17286241,11.67101659,-2.72134541,-0.75144096,-0.31080542

>  <Name>
1uud_lig

>  <RI>
0

>  <Rbt.Current_Directory>
/home/itssahil/PROJECTS/Mol_Feturizer/New_Systems/rnas/1uud

>  <Rbt.Executable>
rbdock ($Id: //depot/dev/client3/rdock/2013.1/src/exe/rbdock.cxx#4 $)

>  <Rbt.Library>
libRbt.so (2013.1, Build901 2013/11/27)

>  <Rbt.Parameter_File>
/export/apps/rDock/src/rDock_2013.1_src/data/scripts/dock_solv.prm

>  <Rbt.Receptor>
prm/blind_docking_20.prm

>  <SCORE>
-24.3953

>  <SCORE.INTER>
-20.0747

>  <SCORE.INTER.CONST>
1

>  <SCORE.INTER.POLAR>
-3.55288

>  <SCORE.INTER.ROT>
18

>  <SCORE.INTER.SOLV>
10.5798

>  <SCORE.INTER.VDW>
-20.6668

>  <SCORE.INTER.norm>
-0.802989

>  <SCORE.INTRA>
-5.26376

>  <SCORE.INTRA.DIHEDRAL>
0.0442304

>  <SCORE.INTRA.DIHEDRAL.0>
30.6762

>  <SCORE.INTRA.POLAR>
-1.09585

>  <SCORE.INTRA.POLAR.0>
-0.0288659

>  <SCORE.INTRA.REPUL>
0

>  <SCORE.INTRA.REPUL.0>
0

>  <SCORE.INTRA.SOLV>
4.72111

>  <SCORE.INTRA.SOLV.lig_0>
-25.2195

>  <SCORE.INTRA.VDW>
-3.92053

>  <SCORE.INTRA.VDW.0>
4.14263

>  <SCORE.INTRA.norm>
-0.21055

>  <SCORE.RESTR>
0.943219

>  <SCORE.RESTR.CAVITY>
0.943219

>  <SCORE.RESTR.norm>
0.0377288

>  <SCORE.SYSTEM>
0

>  <SCORE.SYSTEM.CONST>
0

>  <SCORE.SYSTEM.DIHEDRAL>
0

>  <SCORE.SYSTEM.SOLV>
0

>  <SCORE.SYSTEM.norm>
0

>  <SCORE.heavy>
25

>  <SCORE.norm>
-0.975811

>  <RMSD>
15.419

$$$$
1uud_lig
 OpenBabel11021811413D
libRbt.so/2013.1/901 2013/11/27
 25 25  0  0  0  0  0  0  0  0999 V2000
   -6.4227   -9.0187   12.6322 C   0  0  0  0  0  0  0  0  0  0  0  0
   -7.1338  -11.2226   10.8322 O   0  0  0  0  0  0  0  0  0  0  0  0
   -7.6689  -12.0912    9.8226 C   0  0  0  0  0  0  0  0  0  0  0  0
   -6.3095   -7.6863   13.2757 N   0  0  0  0  0  0  0  0  0  0  0  0
   -8.0397  -13.4489   10.4345 C   0  0  0  0  0  0  0  0  0  0  0  0
   -4.8813   -7.3138   13.4109 C   0  0  0  0  0  0  0  0  0  0  0  0
   -4.1891   -8.2794   14.3805 C   0  0  0  0  0  0  0  0  0  0  0  0
   -6.9798  -13.9985   10.9779 N   0  0  0  0  0  0  0  0  0  0  0  0
   -6.8177  -14.0385   12.2871 C   0  0  0  0  0  0  0  0  0  0  0  0
   -3.3392   -7.4910   15.3830 C   0  0  0  0  0  0  0  0  0  0  0  0
   -1.8802   -7.9464   15.2864 C   0  0  0  0  0  0  0  0  0  0  0  0
   -6.7186  -15.2256   12.9591 N   0  0  0  0  0  0  0  0  0  0  0  0
   -6.7492  -12.8742   12.9828 N   0  0  0  0  0  0  0  0  0  0  0  0
   -1.1237   -7.1791   16.0349 N   0  0  0  0  0  0  0  0  0  0  0  0
    0.1603   -7.0167   15.7789 C   0  0  0  0  0  0  0  0  0  0  0  0
    0.6282   -7.2966   14.5354 N   0  0  0  0  0  0  0  0  0  0  0  0
    1.0310   -6.5834   16.7381 N   0  0  0  0  0  0  0  0  0  0  0  0
   -6.7919   -9.9539   10.2595 C   0  0  0  0  0  0  0  0  0  0  0  0
   -5.8195   -6.1691    8.5332 O   0  0  0  0  0  0  0  0  0  0  0  0
   -6.4454   -8.8555   11.0982 C   0  0  0  0  0  0  0  0  0  0  0  0
   -6.1308   -7.5958   10.5217 C   0  0  0  0  0  0  0  0  0  0  0  0
   -6.1406   -7.4370    9.1110 C   0  0  0  0  0  0  0  0  0  0  0  0
   -6.4670   -8.5371    8.2729 C   0  0  0  0  0  0  0  0  0  0  0  0
   -6.7859   -9.7982    8.8455 C   0  0  0  0  0  0  0  0  0  0  0  0
   -6.9477   -5.6744    7.8059 C   0  0  0  0  0  0  0  0  0  0  0  0
  1  4  1  0  0  0  0
  2  3  1  0  0  0  0
  3  5  1  0  0  0  0
  4  6  1  0  0  0  0
  5  8  1  0  0  0  0
  6  7  1  0  0  0  0
  7 10  1  0  0  0  0
  8  9  1  0  0  0  0
  9 12  1  0  0  0  0
  9 13  1  0  0  0  0
 10 11  1  0  0  0  0
 11 14  1  0  0  0  0
 14 15  1  0  0  0  0
 15 16  1  0  0  0  0
 15 17  1  0  0  0  0
 18  2  1  0  0  0  0
 18 20  2  0  0  0  0
 18 24  1  0  0  0  0
 19 25  1  0  0  0  0
 20  1  1  0  0  0  0
 20 21  1  0  0  0  0
 21 22  2  0  0  0  0
 22 19  1  0  0  0  0
 22 23  1  0  0  0  0
 23 24  2  0  0  0  0
M  END
>  <CHROM.1>
-87.67528550,-179.82601622,-58.84967083,-65.33981749,105.52994702,-133.45774147
-121.55169366,119.01567197,-70.26220018,-1.90893309,173.21535641,-154.75631317
20.06440815,97.52767123,-42.07651536,169.82171271,-168.47099303,-117.90552505
-5.06564536,-9.32263072,12.16328596,2.97844076,0.80875193,2.64039293

>  <Name>
1uud_lig

>  <RI>
0

>  <Rbt.Current_Directory>
/home/itssahil/PROJECTS/Mol_Feturizer/New_Systems/rnas/1uud

>  <Rbt.Executable>
rbdock ($Id: //depot/dev/client3/rdock/2013.1/src/exe/rbdock.cxx#4 $)

>  <Rbt.Library>
libRbt.so (2013.1, Build901 2013/11/27)

>  <Rbt.Parameter_File>
/export/apps/rDock/src/rDock_2013.1_src/data/scripts/dock_solv.prm

>  <Rbt.Receptor>
prm/blind_docking_80.prm

>  <SCORE>
-33.7812

>  <SCORE.INTER>
-33.9927

>  <SCORE.INTER.CONST>
1

>  <SCORE.INTER.POLAR>
-5.83015

>  <SCORE.INTER.ROT>
18

>  <SCORE.INTER.SOLV>
10.8155

>  <SCORE.INTER.VDW>
-22.4331

>  <SCORE.INTER.norm>
-1.35971

>  <SCORE.INTRA>
-2.28854

>  <SCORE.INTRA.DIHEDRAL>
-3.61799

>  <SCORE.INTRA.DIHEDRAL.0>
30.6762

>  <SCORE.INTRA.POLAR>
-0.844447

>  <SCORE.INTRA.POLAR.0>
-0.0288659

>  <SCORE.INTRA.REPUL>
0

>  <SCORE.INTRA.REPUL.0>
0

>  <SCORE.INTRA.SOLV>
-0.586587

>  <SCORE.INTRA.SOLV.lig_0>
-25.2195

>  <SCORE.INTRA.VDW>
2.68487

>  <SCORE.INTRA.VDW.0>
4.14263

>  <SCORE.INTRA.norm>
-0.0915414

>  <SCORE.RESTR>
2.5

>  <SCORE.RESTR.CAVITY>
2.5

>  <SCORE.RESTR.norm>
0.0999999

>  <SCORE.SYSTEM>
0

>  <SCORE.SYSTEM.CONST>
0

>  <SCORE.SYSTEM.DIHEDRAL>
0

>  <SCORE.SYSTEM.SOLV>
0

>  <SCORE.SYSTEM.norm>
0

>  <SCORE.heavy>
25

>  <SCORE.norm>
-1.35125

>  <RMSD>
15.428

$$$$
1uud_lig
 OpenBabel11021811413D
libRbt.so/2013.1/901 2013/11/27
 25 25  0  0  0  0  0  0  0  0999 V2000
   -5.7435  -13.3093   11.0774 C   0  0  0  0  0  0  0  0  0  0  0  0
   -4.2265  -10.9229   10.2986 O   0  0  0  0  0  0  0  0  0  0  0  0
   -4.1190   -9.5340   10.6446 C   0  0  0  0  0  0  0  0  0  0  0  0
   -6.8707  -14.1438   11.5627 N   0  0  0  0  0  0  0  0  0  0  0  0
   -5.2606   -9.1337   11.5888 C   0  0  0  0  0  0  0  0  0  0  0  0
   -7.1397  -13.8438   12.9890 C   0  0  0  0  0  0  0  0  0  0  0  0
   -8.6425  -13.6146   13.1902 C   0  0  0  0  0  0  0  0  0  0  0  0
   -5.5709   -7.8725   11.4051 N   0  0  0  0  0  0  0  0  0  0  0  0
   -6.8272   -7.4749   11.3295 C   0  0  0  0  0  0  0  0  0  0  0  0
   -9.4371  -14.7210   12.4879 C   0  0  0  0  0  0  0  0  0  0  0  0
  -10.6219  -14.1037   11.7392 C   0  0  0  0  0  0  0  0  0  0  0  0
   -7.2661   -6.6839   10.3037 N   0  0  0  0  0  0  0  0  0  0  0  0
   -7.7035   -7.8590   12.2933 N   0  0  0  0  0  0  0  0  0  0  0  0
  -11.0484  -14.9346   10.8179 N   0  0  0  0  0  0  0  0  0  0  0  0
  -10.8259  -14.7160    9.5361 C   0  0  0  0  0  0  0  0  0  0  0  0
  -11.2234  -13.5399    8.9861 N   0  0  0  0  0  0  0  0  0  0  0  0
  -10.2145  -15.6491    8.7476 N   0  0  0  0  0  0  0  0  0  0  0  0
   -5.4834  -11.1748    9.6574 C   0  0  0  0  0  0  0  0  0  0  0  0
   -9.2058  -11.9297    7.7017 O   0  0  0  0  0  0  0  0  0  0  0  0
   -6.2497  -12.3253   10.0024 C   0  0  0  0  0  0  0  0  0  0  0  0
   -7.4831  -12.5783    9.3443 C   0  0  0  0  0  0  0  0  0  0  0  0
   -7.9621  -11.6749    8.3595 C   0  0  0  0  0  0  0  0  0  0  0  0
   -7.2080  -10.5169    8.0287 C   0  0  0  0  0  0  0  0  0  0  0  0
   -5.9718  -10.2617    8.6820 C   0  0  0  0  0  0  0  0  0  0  0  0
   -9.9533  -10.7140    7.6024 C   0  0  0  0  0  0  0  0  0  0  0  0
  1  4  1  0  0  0  0
  2  3  1  0  0  0  0
  3  5  1  0  0  0  0
  4  6  1  0  0  0  0
  5  8  1  0  0  0  0
  6  7  1  0  0  0  0
  7 10  1  0  0  0  0
  8  9  1  0  0  0  0
  9 12  1  0  0  0  0
  9 13  1  0  0  0  0
 10 11  1  0  0  0  0
 11 14  1  0  0  0  0
 14 15  1  0  0  0  0
 15 16  1  0  0  0  0
 15 17  1  0  0  0  0
 18  2  1  0  0  0  0
 18 20  2  0  0  0  0
 18 24  1  0  0  0  0
 19 25  1  0  0  0  0
 20  1  1  0  0  0  0
 20 21  1  0  0  0  0
 21 22  2  0  0  0  0
 22 19  1  0  0  0  0
 22 23  1  0  0  0  0
 23 24  2  0  0  0  0
M  END
>  <CHROM.1>
-114.52697061,59.32486007,-149.62873310,131.70941342,135.67233157,46.79175582
-136.28549913,-129.65092439,87.87653445,113.86731667,160.21284838,-106.95721254
-55.28868040,-13.74402194,-53.81166231,-136.69255506,161.79297150,137.09209013
-7.73915872,-11.72709286,10.34427108,-2.45316379,-0.71663429,-0.60119840

>  <Name>
1uud_lig

>  <RI>
0

>  <Rbt.Current_Directory>
/home/itssahil/PROJECTS/Mol_Feturizer/New_Systems/rnas/1uud

>  <Rbt.Executable>
rbdock ($Id: //depot/dev/client3/rdock/2013.1/src/exe/rbdock.cxx#4 $)

>  <Rbt.Library>
libRbt.so (2013.1, Build901 2013/11/27)

>  <Rbt.Parameter_File>
/export/apps/rDock/src/rDock_2013.1_src/data/scripts/dock_solv.prm

>  <Rbt.Receptor>
prm/blind_docking_100.prm

>  <SCORE>
-15.4201

>  <SCORE.INTER>
-18.4044

>  <SCORE.INTER.CONST>
1

>  <SCORE.INTER.POLAR>
-2.9986

>  <SCORE.INTER.ROT>
18

>  <SCORE.INTER.SOLV>
11.3202

>  <SCORE.INTER.VDW>
-21.6477

>  <SCORE.INTER.norm>
-0.736178

>  <SCORE.INTRA>
1.55016

>  <SCORE.INTRA.DIHEDRAL>
0.753977

>  <SCORE.INTRA.DIHEDRAL.0>
30.6762

>  <SCORE.INTRA.POLAR>
-0.426553

>  <SCORE.INTRA.POLAR.0>
-0.0288659

>  <SCORE.INTRA.REPUL>
0

>  <SCORE.INTRA.REPUL.0>
0

>  <SCORE.INTRA.SOLV>
0.16621

>  <SCORE.INTRA.SOLV.lig_0>
-25.2195

>  <SCORE.INTRA.VDW>
2.54034

>  <SCORE.INTRA.VDW.0>
4.14263

>  <SCORE.INTRA.norm>
0.0620062

>  <SCORE.RESTR>
1.43423

>  <SCORE.RESTR.CAVITY>
1.43423

>  <SCORE.RESTR.norm>
0.0573693

>  <SCORE.SYSTEM>
0

>  <SCORE.SYSTEM.CONST>
0

>  <SCORE.SYSTEM.DIHEDRAL>
0

>  <SCORE.SYSTEM.SOLV>
0

>  <SCORE.SYSTEM.norm>
0

>  <SCORE.heavy>
25

>  <SCORE.norm>
-0.616802

>  <RMSD>
15.436

$$$$
1uud_lig
 OpenBabel11021811413D
libRbt.so/2013.1/901 2013/11/27
 25 25  0  0  0  0  0  0  0  0999 V2000
   -6.1648   -9.0280   11.3440 C   0  0  0  0  0  0  0  0  0  0  0  0
   -4.8789  -10.1988    8.9823 O   0  0  0  0  0  0  0  0  0  0  0  0
   -5.8348  -10.4665    7.9456 C   0  0  0  0  0  0  0  0  0  0  0  0
   -4.9584   -8.1747   11.4809 N   0  0  0  0  0  0  0  0  0  0  0  0
   -7.2125   -9.9185    8.3415 C   0  0  0  0  0  0  0  0  0  0  0  0
   -4.3864   -8.3284   12.8395 C   0  0  0  0  0  0  0  0  0  0  0  0
   -3.0613   -7.5615   12.9277 C   0  0  0  0  0  0  0  0  0  0  0  0
   -7.7683  -10.7068    9.2306 N   0  0  0  0  0  0  0  0  0  0  0  0
   -8.1330  -11.9387    8.9285 C   0  0  0  0  0  0  0  0  0  0  0  0
   -2.3618   -7.8805   14.2535 C   0  0  0  0  0  0  0  0  0  0  0  0
   -0.9139   -7.3847   14.2003 C   0  0  0  0  0  0  0  0  0  0  0  0
   -8.8302  -12.2177    7.7854 N   0  0  0  0  0  0  0  0  0  0  0  0
   -7.8096  -12.9521    9.7727 N   0  0  0  0  0  0  0  0  0  0  0  0
   -0.5081   -7.0647   15.4062 N   0  0  0  0  0  0  0  0  0  0  0  0
    0.7746   -6.9627   15.6976 C   0  0  0  0  0  0  0  0  0  0  0  0
    1.5837   -8.0369   15.5102 N   0  0  0  0  0  0  0  0  0  0  0  0
    1.3051   -5.8053   16.1927 N   0  0  0  0  0  0  0  0  0  0  0  0
   -5.1304  -11.0421   10.1137 C   0  0  0  0  0  0  0  0  0  0  0  0
   -5.8304  -13.5627   13.4911 O   0  0  0  0  0  0  0  0  0  0  0  0
   -5.7483  -10.5122   11.2831 C   0  0  0  0  0  0  0  0  0  0  0  0
   -5.9721  -11.3507   12.4078 C   0  0  0  0  0  0  0  0  0  0  0  0
   -5.6002  -12.7200   12.3592 C   0  0  0  0  0  0  0  0  0  0  0  0
   -5.0017  -13.2540   11.1863 C   0  0  0  0  0  0  0  0  0  0  0  0
   -4.7727  -12.4179   10.0600 C   0  0  0  0  0  0  0  0  0  0  0  0
   -5.0160  -13.1295   14.5845 C   0  0  0  0  0  0  0  0  0  0  0  0
  1  4  1  0  0  0  0
  2  3  1  0  0  0  0
  3  5  1  0  0  0  0
  4  6  1  0  0  0  0
  5  8  1  0  0  0  0
  6  7  1  0  0  0  0
  7 10  1  0  0  0  0
  8  9  1  0  0  0  0
  9 12  1  0  0  0  0
  9 13  1  0  0  0  0
 10 11  1  0  0  0  0
 11 14  1  0  0  0  0
 14 15  1  0  0  0  0
 15 16  1  0  0  0  0
 15 17  1  0  0  0  0
 18  2  1  0  0  0  0
 18 20  2  0  0  0  0
 18 24  1  0  0  0  0
 19 25  1  0  0  0  0
 20  1  1  0  0  0  0
 20 21  1  0  0  0  0
 21 22  2  0  0  0  0
 22 19  1  0  0  0  0
 22 23  1  0  0  0  0
 23 24  2  0  0  0  0
M  END
>  <CHROM.1>
-71.43812946,72.19190351,-76.04559338,174.09400163,-66.28313954,-171.71647542
166.89453995,-46.40732992,-104.11753451,62.16579201,150.56568469,161.20658833
-58.36898237,105.11030986,19.54448871,-104.27094602,-73.22349566,-65.67152310
-4.45757865,-10.06876039,11.87989781,3.11567327,0.80642681,2.50264162

>  <Name>
1uud_lig

>  <RI>
0

>  <Rbt.Current_Directory>
/home/itssahil/PROJECTS/Mol_Feturizer/New_Systems/rnas/1uud

>  <Rbt.Executable>
rbdock ($Id: //depot/dev/client3/rdock/2013.1/src/exe/rbdock.cxx#4 $)

>  <Rbt.Library>
libRbt.so (2013.1, Build901 2013/11/27)

>  <Rbt.Parameter_File>
/export/apps/rDock/src/rDock_2013.1_src/data/scripts/dock_solv.prm

>  <Rbt.Receptor>
prm/blind_docking_80.prm

>  <SCORE>
-30.2017

>  <SCORE.INTER>
-23.4634

>  <SCORE.INTER.CONST>
1

>  <SCORE.INTER.POLAR>
-3.90055

>  <SCORE.INTER.ROT>
18

>  <SCORE.INTER.SOLV>
11.1144

>  <SCORE.INTER.VDW>
-21.9452

>  <SCORE.INTER.norm>
-0.938534

>  <SCORE.INTRA>
-7.66079

>  <SCORE.INTRA.DIHEDRAL>
-6.24518

>  <SCORE.INTRA.DIHEDRAL.0>
30.6762

>  <SCORE.INTRA.POLAR>
0.0288659

>  <SCORE.INTRA.POLAR.0>
-0.0288659

>  <SCORE.INTRA.REPUL>
0

>  <SCORE.INTRA.REPUL.0>
0

>  <SCORE.INTRA.SOLV>
1.09029

>  <SCORE.INTRA.SOLV.lig_0>
-25.2195

>  <SCORE.INTRA.VDW>
-5.18149

>  <SCORE.INTRA.VDW.0>
4.14263

>  <SCORE.INTRA.norm>
-0.306431

>  <SCORE.RESTR>
0.92243

>  <SCORE.RESTR.CAVITY>
0.92243

>  <SCORE.RESTR.norm>
0.0368972

>  <SCORE.SYSTEM>
0

>  <SCORE.SYSTEM.CONST>
0

>  <SCORE.SYSTEM.DIHEDRAL>
0

>  <SCORE.SYSTEM.SOLV>
0

>  <SCORE.SYSTEM.norm>
0

>  <SCORE.heavy>
25

>  <SCORE.norm>
-1.20807

>  <RMSD>
15.457

$$$$
1uud_lig
 OpenBabel11021811413D
libRbt.so/2013.1/901 2013/11/27
 25 25  0  0  0  0  0  0  0  0999 V2000
   -5.3757  -12.3419    9.4907 C   0  0  0  0  0  0  0  0  0  0  0  0
   -6.8266  -10.2128   10.8922 O   0  0  0  0  0  0  0  0  0  0  0  0
   -6.4856   -9.5609    9.6597 C   0  0  0  0  0  0  0  0  0  0  0  0
   -6.7869  -12.7926    9.5779 N   0  0  0  0  0  0  0  0  0  0  0  0
   -5.4865   -8.4255    9.9202 C   0  0  0  0  0  0  0  0  0  0  0  0
   -7.4308  -12.6870    8.2471 C   0  0  0  0  0  0  0  0  0  0  0  0
   -8.9516  -12.5910    8.4195 C   0  0  0  0  0  0  0  0  0  0  0  0
   -6.0919   -7.2660    9.8208 N   0  0  0  0  0  0  0  0  0  0  0  0
   -6.1685   -6.6239    8.6703 C   0  0  0  0  0  0  0  0  0  0  0  0
   -9.4504  -11.2378    7.9010 C   0  0  0  0  0  0  0  0  0  0  0  0
  -10.9818  -11.2226    7.9015 C   0  0  0  0  0  0  0  0  0  0  0  0
   -5.0482   -6.3075    7.9524 N   0  0  0  0  0  0  0  0  0  0  0  0
   -7.3876   -6.2682    8.1891 N   0  0  0  0  0  0  0  0  0  0  0  0
  -11.4201  -10.4756    6.9161 N   0  0  0  0  0  0  0  0  0  0  0  0
  -11.9709  -11.0063    5.8411 C   0  0  0  0  0  0  0  0  0  0  0  0
  -11.2182  -11.1686    4.7228 N   0  0  0  0  0  0  0  0  0  0  0  0
  -13.2829  -11.3864    5.8240 N   0  0  0  0  0  0  0  0  0  0  0  0
   -5.6498  -10.7566   11.5036 C   0  0  0  0  0  0  0  0  0  0  0  0
   -2.1703  -12.3936   13.3647 O   0  0  0  0  0  0  0  0  0  0  0  0
   -4.9184  -11.7956   10.8591 C   0  0  0  0  0  0  0  0  0  0  0  0
   -3.7666  -12.3439   11.4843 C   0  0  0  0  0  0  0  0  0  0  0  0
   -3.3323  -11.8428   12.7396 C   0  0  0  0  0  0  0  0  0  0  0  0
   -4.0498  -10.7932   13.3740 C   0  0  0  0  0  0  0  0  0  0  0  0
   -5.2047  -10.2440   12.7538 C   0  0  0  0  0  0  0  0  0  0  0  0
   -1.0508  -11.5320   13.1390 C   0  0  0  0  0  0  0  0  0  0  0  0
  1  4  1  0  0  0  0
  2  3  1  0  0  0  0
  3  5  1  0  0  0  0
  4  6  1  0  0  0  0
  5  8  1  0  0  0  0
  6  7  1  0  0  0  0
  7 10  1  0  0  0  0
  8  9  1  0  0  0  0
  9 12  1  0  0  0  0
  9 13  1  0  0  0  0
 10 11  1  0  0  0  0
 11 14  1  0  0  0  0
 14 15  1  0  0  0  0
 15 16  1  0  0  0  0
 15 17  1  0  0  0  0
 18  2  1  0  0  0  0
 18 20  2  0  0  0  0
 18 24  1  0  0  0  0
 19 25  1  0  0  0  0
 20  1  1  0  0  0  0
 20 21  1  0  0  0  0
 21 22  2  0  0  0  0
 22 19  1  0  0  0  0
 22 23  1  0  0  0  0
 23 24  2  0  0  0  0
M  END
>  <CHROM.1>
152.50399557,-59.70021854,-105.73233790,-157.18640985,-89.72341337,116.42041104
172.45136469,-55.94238937,55.70075909,141.48486447,-148.03652758,107.10329314
-98.54001064,-48.21574087,-16.78811163,-64.20445234,-55.08225935,100.25153739
-6.89210977,-10.49248081,9.48580086,0.18827464,0.62270146,2.87285459

>  <Name>
1uud_lig

>  <RI>
0

>  <Rbt.Current_Directory>
/home/itssahil/PROJECTS/Mol_Feturizer/New_Systems/rnas/1uud

>  <Rbt.Executable>
rbdock ($Id: //depot/dev/client3/rdock/2013.1/src/exe/rbdock.cxx#4 $)

>  <Rbt.Library>
libRbt.so (2013.1, Build901 2013/11/27)

>  <Rbt.Parameter_File>
/export/apps/rDock/src/rDock_2013.1_src/data/scripts/dock_solv.prm

>  <Rbt.Receptor>
prm/blind_docking_20.prm

>  <SCORE>
-32.1096

>  <SCORE.INTER>
-29.5536

>  <SCORE.INTER.CONST>
1

>  <SCORE.INTER.POLAR>
-4.53909

>  <SCORE.INTER.ROT>
18

>  <SCORE.INTER.SOLV>
11.0281

>  <SCORE.INTER.VDW>
-23.8481

>  <SCORE.INTER.norm>
-1.18214

>  <SCORE.INTRA>
-3.7681

>  <SCORE.INTRA.DIHEDRAL>
4.4336

>  <SCORE.INTRA.DIHEDRAL.0>
30.6762

>  <SCORE.INTRA.POLAR>
-0.235521

>  <SCORE.INTRA.POLAR.0>
-0.0288659

>  <SCORE.INTRA.REPUL>
0

>  <SCORE.INTRA.REPUL.0>
0

>  <SCORE.INTRA.SOLV>
-0.687061

>  <SCORE.INTRA.SOLV.lig_0>
-25.2195

>  <SCORE.INTRA.VDW>
-4.8406

>  <SCORE.INTRA.VDW.0>
4.14263

>  <SCORE.INTRA.norm>
-0.150724

>  <SCORE.RESTR>
1.2121

>  <SCORE.RESTR.CAVITY>
1.2121

>  <SCORE.RESTR.norm>
0.0484841

>  <SCORE.SYSTEM>
0

>  <SCORE.SYSTEM.CONST>
0

>  <SCORE.SYSTEM.DIHEDRAL>
0

>  <SCORE.SYSTEM.SOLV>
0

>  <SCORE.SYSTEM.norm>
0

>  <SCORE.heavy>
25

>  <SCORE.norm>
-1.28438

>  <RMSD>
15.461

$$$$
1uud_lig
 OpenBabel11021811413D
libRbt.so/2013.1/901 2013/11/27
 25 25  0  0  0  0  0  0  0  0999 V2000
   -4.9825  -11.5822   12.0850 C   0  0  0  0  0  0  0  0  0  0  0  0
   -4.5001   -9.3131   10.2902 O   0  0  0  0  0  0  0  0  0  0  0  0
   -5.0081   -8.0565    9.8180 C   0  0  0  0  0  0  0  0  0  0  0  0
   -3.5012  -11.5855   11.9963 N   0  0  0  0  0  0  0  0  0  0  0  0
   -6.3898   -7.7817   10.4267 C   0  0  0  0  0  0  0  0  0  0  0  0
   -2.9248  -12.1419   13.2433 C   0  0  0  0  0  0  0  0  0  0  0  0
   -1.4962  -11.6158   13.4272 C   0  0  0  0  0  0  0  0  0  0  0  0
   -6.2627   -7.0655   11.5184 N   0  0  0  0  0  0  0  0  0  0  0  0
   -5.5791   -7.5069   12.5575 C   0  0  0  0  0  0  0  0  0  0  0  0
   -1.5238  -10.2901   14.1956 C   0  0  0  0  0  0  0  0  0  0  0  0
   -0.0899   -9.8241   14.4636 C   0  0  0  0  0  0  0  0  0  0  0  0
   -6.0939   -8.4507   13.4030 N   0  0  0  0  0  0  0  0  0  0  0  0
   -4.3368   -7.0115   12.7931 N   0  0  0  0  0  0  0  0  0  0  0  0
   -0.1044   -8.7439   15.2081 N   0  0  0  0  0  0  0  0  0  0  0  0
   -1.1054   -7.8859   15.1586 C   0  0  0  0  0  0  0  0  0  0  0  0
   -1.9932   -7.8441   16.1851 N   0  0  0  0  0  0  0  0  0  0  0  0
   -1.2750   -7.0464   14.0944 N   0  0  0  0  0  0  0  0  0  0  0  0
   -5.3329  -10.3852    9.8301 C   0  0  0  0  0  0  0  0  0  0  0  0
   -7.7817  -13.5899    8.4218 O   0  0  0  0  0  0  0  0  0  0  0  0
   -5.5886  -11.5086   10.6682 C   0  0  0  0  0  0  0  0  0  0  0  0
   -6.3963  -12.5768   10.1940 C   0  0  0  0  0  0  0  0  0  0  0  0
   -6.9657  -12.5153    8.8950 C   0  0  0  0  0  0  0  0  0  0  0  0
   -6.7273  -11.3864    8.0658 C   0  0  0  0  0  0  0  0  0  0  0  0
   -5.9169  -10.3171    8.5347 C   0  0  0  0  0  0  0  0  0  0  0  0
   -9.0119  -13.6147    9.1516 C   0  0  0  0  0  0  0  0  0  0  0  0
  1  4  1  0  0  0  0
  2  3  1  0  0  0  0
  3  5  1  0  0  0  0
  4  6  1  0  0  0  0
  5  8  1  0  0  0  0
  6  7  1  0  0  0  0
  7 10  1  0  0  0  0
  8  9  1  0  0  0  0
  9 12  1  0  0  0  0
  9 13  1  0  0  0  0
 10 11  1  0  0  0  0
 11 14  1  0  0  0  0
 14 15  1  0  0  0  0
 15 16  1  0  0  0  0
 15 17  1  0  0  0  0
 18  2  1  0  0  0  0
 18 20  2  0  0  0  0
 18 24  1  0  0  0  0
 19 25  1  0  0  0  0
 20  1  1  0  0  0  0
 20 21  1  0  0  0  0
 21 22  2  0  0  0  0
 22 19  1  0  0  0  0
 22 23  1  0  0  0  0
 23 24  2  0  0  0  0
M  END
>  <CHROM.1>
-159.39375534,64.44013601,93.40220043,-155.79011719,-60.71878865,88.47581789
175.90984426,-76.31246965,73.11583381,-103.61374322,-175.23908546,-29.72439388
106.13259889,176.85922036,-54.69577858,-142.94549023,-61.77816788,69.20386478
-4.39453545,-9.92638761,11.86044284,-2.58401801,-0.68636470,0.22754906

>  <Name>
1uud_lig

>  <RI>
0

>  <Rbt.Current_Directory>
/home/itssahil/PROJECTS/Mol_Feturizer/New_Systems/rnas/1uud

>  <Rbt.Executable>
rbdock ($Id: //depot/dev/client3/rdock/2013.1/src/exe/rbdock.cxx#4 $)

>  <Rbt.Library>
libRbt.so (2013.1, Build901 2013/11/27)

>  <Rbt.Parameter_File>
/export/apps/rDock/src/rDock_2013.1_src/data/scripts/dock_solv.prm

>  <Rbt.Receptor>
prm/blind_docking_80.prm

>  <SCORE>
-30.6294

>  <SCORE.INTER>
-29.2762

>  <SCORE.INTER.CONST>
1

>  <SCORE.INTER.POLAR>
-4.73624

>  <SCORE.INTER.ROT>
18

>  <SCORE.INTER.SOLV>
10.153

>  <SCORE.INTER.VDW>
-22.7144

>  <SCORE.INTER.norm>
-1.17105

>  <SCORE.INTRA>
-2.71631

>  <SCORE.INTRA.DIHEDRAL>
-6.15729

>  <SCORE.INTRA.DIHEDRAL.0>
30.6762

>  <SCORE.INTRA.POLAR>
-0.565712

>  <SCORE.INTRA.POLAR.0>
-0.0288659

>  <SCORE.INTRA.REPUL>
0

>  <SCORE.INTRA.REPUL.0>
0

>  <SCORE.INTRA.SOLV>
1.13941

>  <SCORE.INTRA.SOLV.lig_0>
-25.2195

>  <SCORE.INTRA.VDW>
1.71605

>  <SCORE.INTRA.VDW.0>
4.14263

>  <SCORE.INTRA.norm>
-0.108652

>  <SCORE.RESTR>
1.36316

>  <SCORE.RESTR.CAVITY>
1.36316

>  <SCORE.RESTR.norm>
0.0545265

>  <SCORE.SYSTEM>
0

>  <SCORE.SYSTEM.CONST>
0

>  <SCORE.SYSTEM.DIHEDRAL>
0

>  <SCORE.SYSTEM.SOLV>
0

>  <SCORE.SYSTEM.norm>
0

>  <SCORE.heavy>
25

>  <SCORE.norm>
-1.22518

>  <RMSD>
15.466

$$$$
1uud_lig
 OpenBabel11021811413D
libRbt.so/2013.1/901 2013/11/27
 25 25  0  0  0  0  0  0  0  0999 V2000
   -5.1341   -9.1970    9.9470 C   0  0  0  0  0  0  0  0  0  0  0  0
   -6.7515  -11.5350    9.2255 O   0  0  0  0  0  0  0  0  0  0  0  0
   -7.9092  -12.2997    9.5930 C   0  0  0  0  0  0  0  0  0  0  0  0
   -4.8101   -8.1329   10.9293 N   0  0  0  0  0  0  0  0  0  0  0  0
   -8.1717  -13.3963    8.5519 C   0  0  0  0  0  0  0  0  0  0  0  0
   -6.0599   -7.5934   11.5154 C   0  0  0  0  0  0  0  0  0  0  0  0
   -6.6007   -8.5747   12.5624 C   0  0  0  0  0  0  0  0  0  0  0  0
   -8.8865  -14.3577    9.0862 N   0  0  0  0  0  0  0  0  0  0  0  0
  -10.0212  -14.1076    9.7122 C   0  0  0  0  0  0  0  0  0  0  0  0
   -5.5184   -8.8725   13.6058 C   0  0  0  0  0  0  0  0  0  0  0  0
   -5.2683   -7.6226   14.4546 C   0  0  0  0  0  0  0  0  0  0  0  0
  -10.0723  -13.9714   11.0721 N   0  0  0  0  0  0  0  0  0  0  0  0
  -11.1642  -13.9842    8.9893 N   0  0  0  0  0  0  0  0  0  0  0  0
   -4.4816   -6.7953   13.8082 N   0  0  0  0  0  0  0  0  0  0  0  0
   -3.2334   -7.1127   13.5221 C   0  0  0  0  0  0  0  0  0  0  0  0
   -2.6890   -6.6749   12.3578 N   0  0  0  0  0  0  0  0  0  0  0  0
   -2.4798   -7.8795   14.3648 N   0  0  0  0  0  0  0  0  0  0  0  0
   -5.7242  -11.6913   10.2128 C   0  0  0  0  0  0  0  0  0  0  0  0
   -2.6390  -12.1901   13.1254 O   0  0  0  0  0  0  0  0  0  0  0  0
   -4.9123  -10.5825   10.5886 C   0  0  0  0  0  0  0  0  0  0  0  0
   -3.8816  -10.7533   11.5512 C   0  0  0  0  0  0  0  0  0  0  0  0
   -3.6745  -12.0219   12.1538 C   0  0  0  0  0  0  0  0  0  0  0  0
   -4.4965  -13.1237   11.7940 C   0  0  0  0  0  0  0  0  0  0  0  0
   -5.5265  -12.9582   10.8289 C   0  0  0  0  0  0  0  0  0  0  0  0
   -1.5629  -11.2920   12.8392 C   0  0  0  0  0  0  0  0  0  0  0  0
  1  4  1  0  0  0  0
  2  3  1  0  0  0  0
  3  5  1  0  0  0  0
  4  6  1  0  0  0  0
  5  8  1  0  0  0  0
  6  7  1  0  0  0  0
  7 10  1  0  0  0  0
  8  9  1  0  0  0  0
  9 12  1  0  0  0  0
  9 13  1  0  0  0  0
 10 11  1  0  0  0  0
 11 14  1  0  0  0  0
 14 15  1  0  0  0  0
 15 16  1  0  0  0  0
 15 17  1  0  0  0  0
 18  2  1  0  0  0  0
 18 20  2  0  0  0  0
 18 24  1  0  0  0  0
 19 25  1  0  0  0  0
 20  1  1  0  0  0  0
 20 21  1  0  0  0  0
 21 22  2  0  0  0  0
 22 19  1  0  0  0  0
 22 23  1  0  0  0  0
 23 24  2  0  0  0  0
M  END
>  <CHROM.1>
-101.02379968,-116.50858403,157.75720117,77.14718539,52.48099535,54.81109710
69.17681210,-96.24990525,-12.05536381,-179.46550885,-80.40111593,-64.95918720
145.21708537,71.74133980,116.62346562,-141.37974669,147.72690204,-30.50617476
-5.68153722,-10.64116048,11.46684589,0.82158816,-0.34574159,0.27347599

>  <Name>
1uud_lig

>  <RI>
0

>  <Rbt.Current_Directory>
/home/itssahil/PROJECTS/Mol_Feturizer/New_Systems/rnas/1uud

>  <Rbt.Executable>
rbdock ($Id: //depot/dev/client3/rdock/2013.1/src/exe/rbdock.cxx#4 $)

>  <Rbt.Library>
libRbt.so (2013.1, Build901 2013/11/27)

>  <Rbt.Parameter_File>
/export/apps/rDock/src/rDock_2013.1_src/data/scripts/dock_solv.prm

>  <Rbt.Receptor>
prm/blind_docking_80.prm

>  <SCORE>
-22.9975

>  <SCORE.INTER>
-27.501

>  <SCORE.INTER.CONST>
1

>  <SCORE.INTER.POLAR>
-3.85262

>  <SCORE.INTER.ROT>
18

>  <SCORE.INTER.SOLV>
11.1691

>  <SCORE.INTER.VDW>
-24.8149

>  <SCORE.INTER.norm>
-1.10004

>  <SCORE.INTRA>
4.41617

>  <SCORE.INTRA.DIHEDRAL>
-3.15128

>  <SCORE.INTRA.DIHEDRAL.0>
30.6762

>  <SCORE.INTRA.POLAR>
0.0288659

>  <SCORE.INTRA.POLAR.0>
-0.0288659

>  <SCORE.INTRA.REPUL>
0

>  <SCORE.INTRA.REPUL.0>
0

>  <SCORE.INTRA.SOLV>
1.40736

>  <SCORE.INTRA.SOLV.lig_0>
-25.2195

>  <SCORE.INTRA.VDW>
5.18999

>  <SCORE.INTRA.VDW.0>
4.14263

>  <SCORE.INTRA.norm>
0.176647

>  <SCORE.RESTR>
0.0872753

>  <SCORE.RESTR.CAVITY>
0.0872753

>  <SCORE.RESTR.norm>
0.00349101

>  <SCORE.SYSTEM>
0

>  <SCORE.SYSTEM.CONST>
0

>  <SCORE.SYSTEM.DIHEDRAL>
0

>  <SCORE.SYSTEM.SOLV>
0

>  <SCORE.SYSTEM.norm>
0

>  <SCORE.heavy>
25

>  <SCORE.norm>
-0.9199

>  <RMSD>
15.486

$$$$
1uud_lig
 OpenBabel11021811413D
libRbt.so/2013.1/901 2013/11/27
 25 25  0  0  0  0  0  0  0  0999 V2000
   -5.7403  -12.1239   12.0307 C   0  0  0  0  0  0  0  0  0  0  0  0
   -4.7933  -10.4074    9.8491 O   0  0  0  0  0  0  0  0  0  0  0  0
   -5.1658   -9.1195    9.3365 C   0  0  0  0  0  0  0  0  0  0  0  0
   -4.2785  -11.8749   11.9742 N   0  0  0  0  0  0  0  0  0  0  0  0
   -6.1973   -8.4596   10.2616 C   0  0  0  0  0  0  0  0  0  0  0  0
   -3.8023  -11.3800   13.2876 C   0  0  0  0  0  0  0  0  0  0  0  0
   -2.2841  -11.1704   13.2369 C   0  0  0  0  0  0  0  0  0  0  0  0
   -5.6541   -8.2078   11.4288 N   0  0  0  0  0  0  0  0  0  0  0  0
   -6.3513   -8.2897   12.5464 C   0  0  0  0  0  0  0  0  0  0  0  0
   -1.8341  -10.3271   14.4348 C   0  0  0  0  0  0  0  0  0  0  0  0
   -0.3427  -10.0054   14.3027 C   0  0  0  0  0  0  0  0  0  0  0  0
   -5.7677   -8.6571   13.7276 N   0  0  0  0  0  0  0  0  0  0  0  0
   -7.6787   -8.0040   12.5225 N   0  0  0  0  0  0  0  0  0  0  0  0
   -0.1289   -8.7488   14.6134 N   0  0  0  0  0  0  0  0  0  0  0  0
    0.4608   -8.4088   15.7435 C   0  0  0  0  0  0  0  0  0  0  0  0
    1.6376   -8.9970   16.0795 N   0  0  0  0  0  0  0  0  0  0  0  0
   -0.0900   -7.4870   16.5878 N   0  0  0  0  0  0  0  0  0  0  0  0
   -5.8223  -11.3652    9.5694 C   0  0  0  0  0  0  0  0  0  0  0  0
   -8.8584  -14.2431    8.7032 O   0  0  0  0  0  0  0  0  0  0  0  0
   -6.3073  -12.2220   10.5993 C   0  0  0  0  0  0  0  0  0  0  0  0
   -7.3109  -13.1838   10.3063 C   0  0  0  0  0  0  0  0  0  0  0  0
   -7.8454  -13.2769    8.9944 C   0  0  0  0  0  0  0  0  0  0  0  0
   -7.3763  -12.4096    7.9713 C   0  0  0  0  0  0  0  0  0  0  0  0
   -6.3697  -11.4482    8.2590 C   0  0  0  0  0  0  0  0  0  0  0  0
  -10.1288  -13.7521    9.1408 C   0  0  0  0  0  0  0  0  0  0  0  0
  1  4  1  0  0  0  0
  2  3  1  0  0  0  0
  3  5  1  0  0  0  0
  4  6  1  0  0  0  0
  5  8  1  0  0  0  0
  6  7  1  0  0  0  0
  7 10  1  0  0  0  0
  8  9  1  0  0  0  0
  9 12  1  0  0  0  0
  9 13  1  0  0  0  0
 10 11  1  0  0  0  0
 11 14  1  0  0  0  0
 14 15  1  0  0  0  0
 15 16  1  0  0  0  0
 15 17  1  0  0  0  0
 18  2  1  0  0  0  0
 18 20  2  0  0  0  0
 18 24  1  0  0  0  0
 19 25  1  0  0  0  0
 20  1  1  0  0  0  0
 20 21  1  0  0  0  0
 21 22  2  0  0  0  0
 22 19  1  0  0  0  0
 22 23  1  0  0  0  0
 23 24  2  0  0  0  0
M  END
>  <CHROM.1>
163.05265413,77.15146746,65.17209291,178.07877848,-145.52709767,165.24412805
-174.40464207,148.59484132,177.07032880,94.65932942,136.82932810,107.27117420
50.85611311,-54.75676225,-51.82894295,-131.39119393,-38.50252072,80.26453347
-4.66210114,-10.48181526,11.90530575,-2.58242059,-0.52533333,0.36233316

>  <Name>
1uud_lig

>  <RI>
0

>  <Rbt.Current_Directory>
/home/itssahil/PROJECTS/Mol_Feturizer/New_Systems/rnas/1uud

>  <Rbt.Executable>
rbdock ($Id: //depot/dev/client3/rdock/2013.1/src/exe/rbdock.cxx#4 $)

>  <Rbt.Library>
libRbt.so (2013.1, Build901 2013/11/27)

>  <Rbt.Parameter_File>
/export/apps/rDock/src/rDock_2013.1_src/data/scripts/dock_solv.prm

>  <Rbt.Receptor>
prm/blind_docking_20.prm

>  <SCORE>
-38.1678

>  <SCORE.INTER>
-28.8243

>  <SCORE.INTER.CONST>
1

>  <SCORE.INTER.POLAR>
-4.35954

>  <SCORE.INTER.ROT>
18

>  <SCORE.INTER.SOLV>
9.75262

>  <SCORE.INTER.VDW>
-23.5352

>  <SCORE.INTER.norm>
-1.15297

>  <SCORE.INTRA>
-10.1953

>  <SCORE.INTRA.DIHEDRAL>
-5.44381

>  <SCORE.INTRA.DIHEDRAL.0>
30.6762

>  <SCORE.INTRA.POLAR>
-0.800215

>  <SCORE.INTRA.POLAR.0>
-0.0288659

>  <SCORE.INTRA.REPUL>
0

>  <SCORE.INTRA.REPUL.0>
0

>  <SCORE.INTRA.SOLV>
0.213759

>  <SCORE.INTRA.SOLV.lig_0>
-25.2195

>  <SCORE.INTRA.VDW>
-4.85951

>  <SCORE.INTRA.VDW.0>
4.14263

>  <SCORE.INTRA.norm>
-0.407811

>  <SCORE.RESTR>
0.851744

>  <SCORE.RESTR.CAVITY>
0.851744

>  <SCORE.RESTR.norm>
0.0340697

>  <SCORE.SYSTEM>
0

>  <SCORE.SYSTEM.CONST>
0

>  <SCORE.SYSTEM.DIHEDRAL>
0

>  <SCORE.SYSTEM.SOLV>
0

>  <SCORE.SYSTEM.norm>
0

>  <SCORE.heavy>
25

>  <SCORE.norm>
-1.52671

>  <RMSD>
15.495

$$$$
1uud_lig
 OpenBabel11021811413D
libRbt.so/2013.1/901 2013/11/27
 25 25  0  0  0  0  0  0  0  0999 V2000
   -6.1946  -11.4726    7.7635 C   0  0  0  0  0  0  0  0  0  0  0  0
   -4.1148  -11.1421    9.8050 O   0  0  0  0  0  0  0  0  0  0  0  0
   -3.8800  -10.2676   10.9188 C   0  0  0  0  0  0  0  0  0  0  0  0
   -7.5611  -11.3643    7.1951 N   0  0  0  0  0  0  0  0  0  0  0  0
   -5.2074   -9.6874   11.4253 C   0  0  0  0  0  0  0  0  0  0  0  0
   -8.3793  -10.4494    8.0259 C   0  0  0  0  0  0  0  0  0  0  0  0
   -9.8662  -10.6777    7.7278 C   0  0  0  0  0  0  0  0  0  0  0  0
   -5.8695   -9.1501   10.4284 N   0  0  0  0  0  0  0  0  0  0  0  0
   -5.8240   -7.8529   10.1894 C   0  0  0  0  0  0  0  0  0  0  0  0
  -10.3824  -11.8726    8.5368 C   0  0  0  0  0  0  0  0  0  0  0  0
  -11.9120  -11.8274    8.5969 C   0  0  0  0  0  0  0  0  0  0  0  0
   -6.8864   -7.0373   10.4666 N   0  0  0  0  0  0  0  0  0  0  0  0
   -4.6970   -7.3161    9.6547 N   0  0  0  0  0  0  0  0  0  0  0  0
  -12.3032  -10.6992    9.1404 N   0  0  0  0  0  0  0  0  0  0  0  0
  -13.5504  -10.2813    9.0392 C   0  0  0  0  0  0  0  0  0  0  0  0
  -13.8125   -9.1389    8.3538 N   0  0  0  0  0  0  0  0  0  0  0  0
  -14.5824  -10.9654    9.6164 N   0  0  0  0  0  0  0  0  0  0  0  0
   -5.2184  -12.0124   10.0864 C   0  0  0  0  0  0  0  0  0  0  0  0
   -8.5209  -14.5764   10.9635 O   0  0  0  0  0  0  0  0  0  0  0  0
   -6.2529  -12.1971    9.1243 C   0  0  0  0  0  0  0  0  0  0  0  0
   -7.3542  -13.0437    9.4221 C   0  0  0  0  0  0  0  0  0  0  0  0
   -7.4134  -13.7217   10.6680 C   0  0  0  0  0  0  0  0  0  0  0  0
   -6.3724  -13.5534   11.6203 C   0  0  0  0  0  0  0  0  0  0  0  0
   -5.2705  -12.7046   11.3281 C   0  0  0  0  0  0  0  0  0  0  0  0
   -9.0413  -14.2565   12.2571 C   0  0  0  0  0  0  0  0  0  0  0  0
  1  4  1  0  0  0  0
  2  3  1  0  0  0  0
  3  5  1  0  0  0  0
  4  6  1  0  0  0  0
  5  8  1  0  0  0  0
  6  7  1  0  0  0  0
  7 10  1  0  0  0  0
  8  9  1  0  0  0  0
  9 12  1  0  0  0  0
  9 13  1  0  0  0  0
 10 11  1  0  0  0  0
 11 14  1  0  0  0  0
 14 15  1  0  0  0  0
 15 16  1  0  0  0  0
 15 17  1  0  0  0  0
 18  2  1  0  0  0  0
 18 20  2  0  0  0  0
 18 24  1  0  0  0  0
 19 25  1  0  0  0  0
 20  1  1  0  0  0  0
 20 21  1  0  0  0  0
 21 22  2  0  0  0  0
 22 19  1  0  0  0  0
 22 23  1  0  0  0  0
 23 24  2  0  0  0  0
M  END
>  <CHROM.1>
67.45692684,-45.33782226,-52.25667798,-161.96458797,-97.45327964,82.65839222
161.95404699,-106.71456255,107.23062363,89.06137777,-58.38377618,164.60347160
-115.21423131,178.32455975,-70.63238101,132.55890059,-156.98538975,-130.91955778
-8.08774451,-11.02493383,9.67458671,0.01411055,-0.18742387,-0.24094414

>  <Name>
1uud_lig

>  <RI>
0

>  <Rbt.Current_Directory>
/home/itssahil/PROJECTS/Mol_Feturizer/New_Systems/rnas/1uud

>  <Rbt.Executable>
rbdock ($Id: //depot/dev/client3/rdock/2013.1/src/exe/rbdock.cxx#4 $)

>  <Rbt.Library>
libRbt.so (2013.1, Build901 2013/11/27)

>  <Rbt.Parameter_File>
/export/apps/rDock/src/rDock_2013.1_src/data/scripts/dock_solv.prm

>  <Rbt.Receptor>
prm/blind_docking_60.prm

>  <SCORE>
-28.323

>  <SCORE.INTER>
-25.3597

>  <SCORE.INTER.CONST>
1

>  <SCORE.INTER.POLAR>
-4.61212

>  <SCORE.INTER.ROT>
18

>  <SCORE.INTER.SOLV>
10.27

>  <SCORE.INTER.VDW>
-20.5561

>  <SCORE.INTER.norm>
-1.01439

>  <SCORE.INTRA>
-4.42774

>  <SCORE.INTRA.DIHEDRAL>
-9.91944

>  <SCORE.INTRA.DIHEDRAL.0>
30.6762

>  <SCORE.INTRA.POLAR>
0.0288659

>  <SCORE.INTRA.POLAR.0>
-0.0288659

>  <SCORE.INTRA.REPUL>
0

>  <SCORE.INTRA.REPUL.0>
0

>  <SCORE.INTRA.SOLV>
0.138257

>  <SCORE.INTRA.SOLV.lig_0>
-25.2195

>  <SCORE.INTRA.VDW>
0.364708

>  <SCORE.INTRA.VDW.0>
4.14263

>  <SCORE.INTRA.norm>
-0.17711

>  <SCORE.RESTR>
1.46439

>  <SCORE.RESTR.CAVITY>
1.46439

>  <SCORE.RESTR.norm>
0.0585757

>  <SCORE.SYSTEM>
0

>  <SCORE.SYSTEM.CONST>
0

>  <SCORE.SYSTEM.DIHEDRAL>
0

>  <SCORE.SYSTEM.SOLV>
0

>  <SCORE.SYSTEM.norm>
0

>  <SCORE.heavy>
25

>  <SCORE.norm>
-1.13292

>  <RMSD>
15.506

$$$$
1uud_lig
 OpenBabel11021811413D
libRbt.so/2013.1/901 2013/11/27
 25 25  0  0  0  0  0  0  0  0999 V2000
   -6.4555   -9.0059    8.6112 C   0  0  0  0  0  0  0  0  0  0  0  0
   -4.7240  -11.3464    8.9671 O   0  0  0  0  0  0  0  0  0  0  0  0
   -4.9705  -12.5797    9.6588 C   0  0  0  0  0  0  0  0  0  0  0  0
   -7.1983  -10.2840    8.4813 N   0  0  0  0  0  0  0  0  0  0  0  0
   -6.3252  -12.5220   10.3776 C   0  0  0  0  0  0  0  0  0  0  0  0
   -8.3447  -10.1069    7.5588 C   0  0  0  0  0  0  0  0  0  0  0  0
   -9.2730  -11.3237    7.6548 C   0  0  0  0  0  0  0  0  0  0  0  0
   -6.5332  -13.6412   11.0294 N   0  0  0  0  0  0  0  0  0  0  0  0
   -7.1895  -13.6612   12.1743 C   0  0  0  0  0  0  0  0  0  0  0  0
  -10.7356  -10.8687    7.6044 C   0  0  0  0  0  0  0  0  0  0  0  0
  -11.6233  -11.9254    8.2682 C   0  0  0  0  0  0  0  0  0  0  0  0
   -8.2376  -14.5149   12.3825 N   0  0  0  0  0  0  0  0  0  0  0  0
   -6.8164  -12.8136   13.1676 N   0  0  0  0  0  0  0  0  0  0  0  0
  -12.8602  -11.4927    8.3304 N   0  0  0  0  0  0  0  0  0  0  0  0
  -13.2541  -10.6651    9.2793 C   0  0  0  0  0  0  0  0  0  0  0  0
  -13.4248  -11.1371   10.5409 N   0  0  0  0  0  0  0  0  0  0  0  0
  -13.5038   -9.3473    9.0199 N   0  0  0  0  0  0  0  0  0  0  0  0
   -4.6191  -10.2680    9.9056 C   0  0  0  0  0  0  0  0  0  0  0  0
   -4.2587   -7.0465   12.6880 O   0  0  0  0  0  0  0  0  0  0  0  0
   -5.4379   -9.1104    9.7661 C   0  0  0  0  0  0  0  0  0  0  0  0
   -5.3099   -8.0371   10.6880 C   0  0  0  0  0  0  0  0  0  0  0  0
   -4.3826   -8.1265   11.7592 C   0  0  0  0  0  0  0  0  0  0  0  0
   -3.5794   -9.2888   11.9105 C   0  0  0  0  0  0  0  0  0  0  0  0
   -3.7016  -10.3636   10.9885 C   0  0  0  0  0  0  0  0  0  0  0  0
   -2.8765   -6.7227   12.8648 C   0  0  0  0  0  0  0  0  0  0  0  0
  1  4  1  0  0  0  0
  2  3  1  0  0  0  0
  3  5  1  0  0  0  0
  4  6  1  0  0  0  0
  5  8  1  0  0  0  0
  6  7  1  0  0  0  0
  7 10  1  0  0  0  0
  8  9  1  0  0  0  0
  9 12  1  0  0  0  0
  9 13  1  0  0  0  0
 10 11  1  0  0  0  0
 11 14  1  0  0  0  0
 14 15  1  0  0  0  0
 15 16  1  0  0  0  0
 15 17  1  0  0  0  0
 18  2  1  0  0  0  0
 18 20  2  0  0  0  0
 18 24  1  0  0  0  0
 19 25  1  0  0  0  0
 20  1  1  0  0  0  0
 20 21  1  0  0  0  0
 21 22  2  0  0  0  0
 22 19  1  0  0  0  0
 22 23  1  0  0  0  0
 23 24  2  0  0  0  0
M  END
>  <CHROM.1>
169.16552424,63.82596904,-178.75782290,-168.10461704,146.27716921,140.14599426
-156.35660262,128.91238533,120.77155730,178.03571538,174.68097219,-80.99755940
-73.86362886,5.05687726,59.35563264,-125.70844965,44.89917191,-131.67401031
-7.51837452,-10.69154774,10.16099621,0.13400880,-0.35615984,-0.28763778

>  <Name>
1uud_lig

>  <RI>
0

>  <Rbt.Current_Directory>
/home/itssahil/PROJECTS/Mol_Feturizer/New_Systems/rnas/1uud

>  <Rbt.Executable>
rbdock ($Id: //depot/dev/client3/rdock/2013.1/src/exe/rbdock.cxx#4 $)

>  <Rbt.Library>
libRbt.so (2013.1, Build901 2013/11/27)

>  <Rbt.Parameter_File>
/export/apps/rDock/src/rDock_2013.1_src/data/scripts/dock_solv.prm

>  <Rbt.Receptor>
prm/blind_docking_60.prm

>  <SCORE>
-15.6505

>  <SCORE.INTER>
-9.10472

>  <SCORE.INTER.CONST>
1

>  <SCORE.INTER.POLAR>
-2.17889

>  <SCORE.INTER.ROT>
18

>  <SCORE.INTER.SOLV>
9.79828

>  <SCORE.INTER.VDW>
-17.6729

>  <SCORE.INTER.norm>
-0.364189

>  <SCORE.INTRA>
-7.35244

>  <SCORE.INTRA.DIHEDRAL>
-7.59243

>  <SCORE.INTRA.DIHEDRAL.0>
30.6762

>  <SCORE.INTRA.POLAR>
-0.286964

>  <SCORE.INTRA.POLAR.0>
-0.0288659

>  <SCORE.INTRA.REPUL>
0

>  <SCORE.INTRA.REPUL.0>
0

>  <SCORE.INTRA.SOLV>
-0.785798

>  <SCORE.INTRA.SOLV.lig_0>
-25.2195

>  <SCORE.INTRA.VDW>
-2.18765

>  <SCORE.INTRA.VDW.0>
4.14263

>  <SCORE.INTRA.norm>
-0.294098

>  <SCORE.RESTR>
0.806657

>  <SCORE.RESTR.CAVITY>
0.806657

>  <SCORE.RESTR.norm>
0.0322663

>  <SCORE.SYSTEM>
0

>  <SCORE.SYSTEM.CONST>
0

>  <SCORE.SYSTEM.DIHEDRAL>
0

>  <SCORE.SYSTEM.SOLV>
0

>  <SCORE.SYSTEM.norm>
0

>  <SCORE.heavy>
25

>  <SCORE.norm>
-0.62602

>  <RMSD>
15.524

$$$$
1uud_lig
 OpenBabel11021811413D
libRbt.so/2013.1/901 2013/11/27
 25 25  0  0  0  0  0  0  0  0999 V2000
   -4.5204  -11.5983   12.5479 C   0  0  0  0  0  0  0  0  0  0  0  0
   -4.3967  -10.8456    9.7158 O   0  0  0  0  0  0  0  0  0  0  0  0
   -5.6379  -10.7688    8.9991 C   0  0  0  0  0  0  0  0  0  0  0  0
   -3.1720  -12.2116   12.6360 N   0  0  0  0  0  0  0  0  0  0  0  0
   -5.8908  -12.0764    8.2366 C   0  0  0  0  0  0  0  0  0  0  0  0
   -2.3861  -11.5456   13.7016 C   0  0  0  0  0  0  0  0  0  0  0  0
   -1.5306  -10.4310   13.0873 C   0  0  0  0  0  0  0  0  0  0  0  0
   -7.1124  -12.0859    7.7587 N   0  0  0  0  0  0  0  0  0  0  0  0
   -8.1609  -11.9135    8.5415 C   0  0  0  0  0  0  0  0  0  0  0  0
   -1.4362   -9.2503   14.0598 C   0  0  0  0  0  0  0  0  0  0  0  0
   -0.0842   -9.2858   14.7781 C   0  0  0  0  0  0  0  0  0  0  0  0
   -8.9748  -10.8215    8.4160 N   0  0  0  0  0  0  0  0  0  0  0  0
   -8.4370  -12.8411    9.4941 N   0  0  0  0  0  0  0  0  0  0  0  0
    0.4248   -8.0777   14.8295 N   0  0  0  0  0  0  0  0  0  0  0  0
    0.4657   -7.3943   15.9572 C   0  0  0  0  0  0  0  0  0  0  0  0
    0.0019   -6.1183   15.9756 N   0  0  0  0  0  0  0  0  0  0  0  0
    0.9730   -7.9370   17.1037 N   0  0  0  0  0  0  0  0  0  0  0  0
   -4.3333   -9.8086   10.7033 C   0  0  0  0  0  0  0  0  0  0  0  0
   -4.1876   -6.6985   13.6285 O   0  0  0  0  0  0  0  0  0  0  0  0
   -4.3954  -10.1303   12.0899 C   0  0  0  0  0  0  0  0  0  0  0  0
   -4.3552   -9.0934   13.0601 C   0  0  0  0  0  0  0  0  0  0  0  0
   -4.2319   -7.7399   12.6497 C   0  0  0  0  0  0  0  0  0  0  0  0
   -4.1504   -7.4196   11.2678 C   0  0  0  0  0  0  0  0  0  0  0  0
   -4.1937   -8.4535   10.2935 C   0  0  0  0  0  0  0  0  0  0  0  0
   -5.0916   -7.0039   14.6944 C   0  0  0  0  0  0  0  0  0  0  0  0
  1  4  1  0  0  0  0
  2  3  1  0  0  0  0
  3  5  1  0  0  0  0
  4  6  1  0  0  0  0
  5  8  1  0  0  0  0
  6  7  1  0  0  0  0
  7 10  1  0  0  0  0
  8  9  1  0  0  0  0
  9 12  1  0  0  0  0
  9 13  1  0  0  0  0
 10 11  1  0  0  0  0
 11 14  1  0  0  0  0
 14 15  1  0  0  0  0
 15 16  1  0  0  0  0
 15 17  1  0  0  0  0
 18  2  1  0  0  0  0
 18 20  2  0  0  0  0
 18 24  1  0  0  0  0
 19 25  1  0  0  0  0
 20  1  1  0  0  0  0
 20 21  1  0  0  0  0
 21 22  2  0  0  0  0
 22 19  1  0  0  0  0
 22 23  1  0  0  0  0
 23 24  2  0  0  0  0
M  END
>  <CHROM.1>
65.21301531,-164.04028855,170.09530779,-94.49161272,-55.57191998,144.48333303
101.33296755,115.12440947,-80.11659838,-177.26557573,136.65798903,107.33190123
-130.01317801,-31.04197621,90.49088419,110.72617719,85.79093341,-38.27077109
-3.79024231,-9.67479682,12.18937150,-2.51167693,-0.60270837,0.39174397

>  <Name>
1uud_lig

>  <RI>
0

>  <Rbt.Current_Directory>
/home/itssahil/PROJECTS/Mol_Feturizer/New_Systems/rnas/1uud

>  <Rbt.Executable>
rbdock ($Id: //depot/dev/client3/rdock/2013.1/src/exe/rbdock.cxx#4 $)

>  <Rbt.Library>
libRbt.so (2013.1, Build901 2013/11/27)

>  <Rbt.Parameter_File>
/export/apps/rDock/src/rDock_2013.1_src/data/scripts/dock_solv.prm

>  <Rbt.Receptor>
prm/blind_docking_80.prm

>  <SCORE>
-35.641

>  <SCORE.INTER>
-36.4227

>  <SCORE.INTER.CONST>
1

>  <SCORE.INTER.POLAR>
-6.04997

>  <SCORE.INTER.ROT>
18

>  <SCORE.INTER.SOLV>
9.84743

>  <SCORE.INTER.VDW>
-22.9977

>  <SCORE.INTER.norm>
-1.45691

>  <SCORE.INTRA>
0.0950556

>  <SCORE.INTRA.DIHEDRAL>
2.40066

>  <SCORE.INTRA.DIHEDRAL.0>
30.6762

>  <SCORE.INTRA.POLAR>
0.0288659

>  <SCORE.INTRA.POLAR.0>
-0.0288659

>  <SCORE.INTRA.REPUL>
0

>  <SCORE.INTRA.REPUL.0>
0

>  <SCORE.INTRA.SOLV>
-1.12146

>  <SCORE.INTRA.SOLV.lig_0>
-25.2195

>  <SCORE.INTRA.VDW>
-0.642691

>  <SCORE.INTRA.VDW.0>
4.14263

>  <SCORE.INTRA.norm>
0.00380222

>  <SCORE.RESTR>
0.68659

>  <SCORE.RESTR.CAVITY>
0.68659

>  <SCORE.RESTR.norm>
0.0274636

>  <SCORE.SYSTEM>
0

>  <SCORE.SYSTEM.CONST>
0

>  <SCORE.SYSTEM.DIHEDRAL>
0

>  <SCORE.SYSTEM.SOLV>
0

>  <SCORE.SYSTEM.norm>
0

>  <SCORE.heavy>
25

>  <SCORE.norm>
-1.42564

>  <RMSD>
15.524

$$$$
1uud_lig
 OpenBabel11021811413D
libRbt.so/2013.1/901 2013/11/27
 25 25  0  0  0  0  0  0  0  0999 V2000
   -6.1719   -9.0180   10.3687 C   0  0  0  0  0  0  0  0  0  0  0  0
   -7.2372  -11.7469   10.5113 O   0  0  0  0  0  0  0  0  0  0  0  0
   -7.3015  -11.6119    9.0838 C   0  0  0  0  0  0  0  0  0  0  0  0
   -7.1905   -8.6189   11.3713 N   0  0  0  0  0  0  0  0  0  0  0  0
   -8.4762  -12.4276    8.5272 C   0  0  0  0  0  0  0  0  0  0  0  0
   -6.6356   -7.5719   12.2616 C   0  0  0  0  0  0  0  0  0  0  0  0
   -5.6384   -8.2056   13.2391 C   0  0  0  0  0  0  0  0  0  0  0  0
   -8.3562  -13.6843    8.8837 N   0  0  0  0  0  0  0  0  0  0  0  0
   -9.3051  -14.3029    9.5612 C   0  0  0  0  0  0  0  0  0  0  0  0
   -4.9529   -7.1125   14.0661 C   0  0  0  0  0  0  0  0  0  0  0  0
   -3.7492   -7.7072   14.8027 C   0  0  0  0  0  0  0  0  0  0  0  0
  -10.5605  -14.4684    9.0443 N   0  0  0  0  0  0  0  0  0  0  0  0
   -9.0286  -14.7849   10.8004 N   0  0  0  0  0  0  0  0  0  0  0  0
   -2.8499   -8.1081   13.9355 N   0  0  0  0  0  0  0  0  0  0  0  0
   -1.6438   -7.5749   13.8969 C   0  0  0  0  0  0  0  0  0  0  0  0
   -1.4417   -6.4462   13.1696 N   0  0  0  0  0  0  0  0  0  0  0  0
   -0.5921   -8.1374   14.5628 N   0  0  0  0  0  0  0  0  0  0  0  0
   -5.8998  -11.5092   10.9687 C   0  0  0  0  0  0  0  0  0  0  0  0
   -1.8960  -10.8316   12.2956 O   0  0  0  0  0  0  0  0  0  0  0  0
   -5.3418  -10.1995   10.9121 C   0  0  0  0  0  0  0  0  0  0  0  0
   -4.0072   -9.9787   11.3461 C   0  0  0  0  0  0  0  0  0  0  0  0
   -3.2376  -11.0574   11.8556 C   0  0  0  0  0  0  0  0  0  0  0  0
   -3.7998  -12.3602   11.9306 C   0  0  0  0  0  0  0  0  0  0  0  0
   -5.1333  -12.5863   11.4942 C   0  0  0  0  0  0  0  0  0  0  0  0
   -1.6529  -11.5754   13.4933 C   0  0  0  0  0  0  0  0  0  0  0  0
  1  4  1  0  0  0  0
  2  3  1  0  0  0  0
  3  5  1  0  0  0  0
  4  6  1  0  0  0  0
  5  8  1  0  0  0  0
  6  7  1  0  0  0  0
  7 10  1  0  0  0  0
  8  9  1  0  0  0  0
  9 12  1  0  0  0  0
  9 13  1  0  0  0  0
 10 11  1  0  0  0  0
 11 14  1  0  0  0  0
 14 15  1  0  0  0  0
 15 16  1  0  0  0  0
 15 17  1  0  0  0  0
 18  2  1  0  0  0  0
 18 20  2  0  0  0  0
 18 24  1  0  0  0  0
 19 25  1  0  0  0  0
 20  1  1  0  0  0  0
 20 21  1  0  0  0  0
 21 22  2  0  0  0  0
 22 19  1  0  0  0  0
 22 23  1  0  0  0  0
 23 24  2  0  0  0  0
M  END
>  <CHROM.1>
90.89158715,155.11066437,-56.89156791,-74.29156379,122.88835075,174.21067199
-167.28097702,61.75379371,-149.85424245,-80.96902307,64.51740830,117.48680544
-85.93652637,1.18858839,162.33459881,69.63933747,74.29512494,139.44906004
-5.29673351,-10.46487606,11.70562015,2.39672794,0.37194362,-2.85406943

>  <Name>
1uud_lig

>  <RI>
0

>  <Rbt.Current_Directory>
/home/itssahil/PROJECTS/Mol_Feturizer/New_Systems/rnas/1uud

>  <Rbt.Executable>
rbdock ($Id: //depot/dev/client3/rdock/2013.1/src/exe/rbdock.cxx#4 $)

>  <Rbt.Library>
libRbt.so (2013.1, Build901 2013/11/27)

>  <Rbt.Parameter_File>
/export/apps/rDock/src/rDock_2013.1_src/data/scripts/dock_solv.prm

>  <Rbt.Receptor>
prm/blind_docking_40.prm

>  <SCORE>
-45.3406

>  <SCORE.INTER>
-38.3741

>  <SCORE.INTER.CONST>
1

>  <SCORE.INTER.POLAR>
-5.34823

>  <SCORE.INTER.ROT>
18

>  <SCORE.INTER.SOLV>
12.1191

>  <SCORE.INTER.VDW>
-27.395

>  <SCORE.INTER.norm>
-1.53496

>  <SCORE.INTRA>
-7.31483

>  <SCORE.INTRA.DIHEDRAL>
-8.23922

>  <SCORE.INTRA.DIHEDRAL.0>
30.6762

>  <SCORE.INTRA.POLAR>
0.0288659

>  <SCORE.INTRA.POLAR.0>
-0.0288659

>  <SCORE.INTRA.REPUL>
0

>  <SCORE.INTRA.REPUL.0>
0

>  <SCORE.INTRA.SOLV>
0.513804

>  <SCORE.INTRA.SOLV.lig_0>
-25.2195

>  <SCORE.INTRA.VDW>
-3.55026

>  <SCORE.INTRA.VDW.0>
4.14263

>  <SCORE.INTRA.norm>
-0.292593

>  <SCORE.RESTR>
0.348319

>  <SCORE.RESTR.CAVITY>
0.348319

>  <SCORE.RESTR.norm>
0.0139327

>  <SCORE.SYSTEM>
0

>  <SCORE.SYSTEM.CONST>
0

>  <SCORE.SYSTEM.DIHEDRAL>
0

>  <SCORE.SYSTEM.SOLV>
0

>  <SCORE.SYSTEM.norm>
0

>  <SCORE.heavy>
25

>  <SCORE.norm>
-1.81362

>  <RMSD>
15.540

$$$$
1uud_lig
 OpenBabel11021811413D
libRbt.so/2013.1/901 2013/11/27
 25 25  0  0  0  0  0  0  0  0999 V2000
   -3.8215  -10.2111   10.6144 C   0  0  0  0  0  0  0  0  0  0  0  0
   -6.0727   -8.3656   10.2554 O   0  0  0  0  0  0  0  0  0  0  0  0
   -7.1538   -9.1762   10.7397 C   0  0  0  0  0  0  0  0  0  0  0  0
   -4.6527  -11.3415   11.0975 N   0  0  0  0  0  0  0  0  0  0  0  0
   -7.2366  -10.4821    9.9379 C   0  0  0  0  0  0  0  0  0  0  0  0
   -3.7796  -12.4204   11.6173 C   0  0  0  0  0  0  0  0  0  0  0  0
   -4.5679  -13.2855   12.6082 C   0  0  0  0  0  0  0  0  0  0  0  0
   -7.9001  -10.2813    8.8242 N   0  0  0  0  0  0  0  0  0  0  0  0
   -8.0633  -11.2431    7.9352 C   0  0  0  0  0  0  0  0  0  0  0  0
   -5.7475  -13.9535   11.8932 C   0  0  0  0  0  0  0  0  0  0  0  0
   -6.9764  -13.0432   11.9735 C   0  0  0  0  0  0  0  0  0  0  0  0
   -7.1675  -11.4377    6.9202 N   0  0  0  0  0  0  0  0  0  0  0  0
   -9.1462  -12.0571    8.0300 N   0  0  0  0  0  0  0  0  0  0  0  0
   -7.8754  -13.4305   11.0999 N   0  0  0  0  0  0  0  0  0  0  0  0
   -8.7727  -14.3511   11.3962 C   0  0  0  0  0  0  0  0  0  0  0  0
  -10.0815  -13.9986   11.4765 N   0  0  0  0  0  0  0  0  0  0  0  0
   -8.4146  -15.6478   11.6339 N   0  0  0  0  0  0  0  0  0  0  0  0
   -5.1385   -8.1087   11.3117 C   0  0  0  0  0  0  0  0  0  0  0  0
   -2.3910   -7.3491   14.4937 O   0  0  0  0  0  0  0  0  0  0  0  0
   -4.0338   -8.9831   11.5240 C   0  0  0  0  0  0  0  0  0  0  0  0
   -3.1266   -8.7328   12.5882 C   0  0  0  0  0  0  0  0  0  0  0  0
   -3.3080   -7.6010   13.4258 C   0  0  0  0  0  0  0  0  0  0  0  0
   -4.3982   -6.7176   13.2028 C   0  0  0  0  0  0  0  0  0  0  0  0
   -5.3104   -6.9661   12.1415 C   0  0  0  0  0  0  0  0  0  0  0  0
   -1.0511   -7.5368   14.0290 C   0  0  0  0  0  0  0  0  0  0  0  0
  1  4  1  0  0  0  0
  2  3  1  0  0  0  0
  3  5  1  0  0  0  0
  4  6  1  0  0  0  0
  5  8  1  0  0  0  0
  6  7  1  0  0  0  0
  7 10  1  0  0  0  0
  8  9  1  0  0  0  0
  9 12  1  0  0  0  0
  9 13  1  0  0  0  0
 10 11  1  0  0  0  0
 11 14  1  0  0  0  0
 14 15  1  0  0  0  0
 15 16  1  0  0  0  0
 15 17  1  0  0  0  0
 18  2  1  0  0  0  0
 18 20  2  0  0  0  0
 18 24  1  0  0  0  0
 19 25  1  0  0  0  0
 20  1  1  0  0  0  0
 20 21  1  0  0  0  0
 21 22  2  0  0  0  0
 22 19  1  0  0  0  0
 22 23  1  0  0  0  0
 23 24  2  0  0  0  0
M  END
>  <CHROM.1>
-112.53400122,-121.01546225,-82.87570191,156.75435749,177.34846796,62.18995411
-89.84032024,-90.29944913,-152.60934978,-49.18327153,164.24385000,87.53142059
112.89514342,64.82343301,-111.92387836,90.95911894,-83.67280045,44.42175393
-5.91883742,-10.75469340,11.18319932,0.46018728,-0.77671915,-0.47369104

>  <Name>
1uud_lig

>  <RI>
0

>  <Rbt.Current_Directory>
/home/itssahil/PROJECTS/Mol_Feturizer/New_Systems/rnas/1uud

>  <Rbt.Executable>
rbdock ($Id: //depot/dev/client3/rdock/2013.1/src/exe/rbdock.cxx#4 $)

>  <Rbt.Library>
libRbt.so (2013.1, Build901 2013/11/27)

>  <Rbt.Parameter_File>
/export/apps/rDock/src/rDock_2013.1_src/data/scripts/dock_solv.prm

>  <Rbt.Receptor>
prm/blind_docking_60.prm

>  <SCORE>
-2.79858

>  <SCORE.INTER>
-5.13726

>  <SCORE.INTER.CONST>
1

>  <SCORE.INTER.POLAR>
-2.53235

>  <SCORE.INTER.ROT>
18

>  <SCORE.INTER.SOLV>
9.95626

>  <SCORE.INTER.VDW>
-13.9024

>  <SCORE.INTER.norm>
-0.20549

>  <SCORE.INTRA>
-0.350709

>  <SCORE.INTRA.DIHEDRAL>
4.36287

>  <SCORE.INTRA.DIHEDRAL.0>
30.6762

>  <SCORE.INTRA.POLAR>
0.0288659

>  <SCORE.INTRA.POLAR.0>
-0.0288659

>  <SCORE.INTRA.REPUL>
0.0182306

>  <SCORE.INTRA.REPUL.0>
0

>  <SCORE.INTRA.SOLV>
1.1641

>  <SCORE.INTRA.SOLV.lig_0>
-25.2195

>  <SCORE.INTRA.VDW>
-3.30349

>  <SCORE.INTRA.VDW.0>
4.14263

>  <SCORE.INTRA.norm>
-0.0140283

>  <SCORE.RESTR>
2.68939

>  <SCORE.RESTR.CAVITY>
2.68939

>  <SCORE.RESTR.norm>
0.107575

>  <SCORE.SYSTEM>
0

>  <SCORE.SYSTEM.CONST>
0

>  <SCORE.SYSTEM.DIHEDRAL>
0

>  <SCORE.SYSTEM.SOLV>
0

>  <SCORE.SYSTEM.norm>
0

>  <SCORE.heavy>
25

>  <SCORE.norm>
-0.111943

>  <RMSD>
15.540

$$$$
1uud_lig
 OpenBabel11021811413D
libRbt.so/2013.1/901 2013/11/27
 25 25  0  0  0  0  0  0  0  0999 V2000
   -4.2142  -12.6208   10.7228 C   0  0  0  0  0  0  0  0  0  0  0  0
   -4.1011   -9.8662    9.7217 O   0  0  0  0  0  0  0  0  0  0  0  0
   -4.0971   -9.2514   11.0187 C   0  0  0  0  0  0  0  0  0  0  0  0
   -3.7174  -11.7257   11.7971 N   0  0  0  0  0  0  0  0  0  0  0  0
   -4.8502   -7.9150   10.9735 C   0  0  0  0  0  0  0  0  0  0  0  0
   -2.5999  -12.3795   12.5186 C   0  0  0  0  0  0  0  0  0  0  0  0
   -1.6576  -11.3092   13.0825 C   0  0  0  0  0  0  0  0  0  0  0  0
   -4.5380   -7.1905   12.0215 N   0  0  0  0  0  0  0  0  0  0  0  0
   -4.9705   -7.5016   13.2291 C   0  0  0  0  0  0  0  0  0  0  0  0
   -2.3734  -10.5081   14.1754 C   0  0  0  0  0  0  0  0  0  0  0  0
   -1.3368   -9.8046   15.0562 C   0  0  0  0  0  0  0  0  0  0  0  0
   -4.1077   -7.8686   14.2248 N   0  0  0  0  0  0  0  0  0  0  0  0
   -6.3029   -7.4574   13.4881 N   0  0  0  0  0  0  0  0  0  0  0  0
   -0.8499   -8.7625   14.4253 N   0  0  0  0  0  0  0  0  0  0  0  0
    0.0712   -7.9933   14.9732 C   0  0  0  0  0  0  0  0  0  0  0  0
    1.2531   -8.5433   15.3529 N   0  0  0  0  0  0  0  0  0  0  0  0
   -0.1404   -6.6591   15.1767 N   0  0  0  0  0  0  0  0  0  0  0  0
   -5.3098  -10.6136    9.5348 C   0  0  0  0  0  0  0  0  0  0  0  0
   -8.9063  -12.8378    8.9277 O   0  0  0  0  0  0  0  0  0  0  0  0
   -5.4051  -11.9565   10.0012 C   0  0  0  0  0  0  0  0  0  0  0  0
   -6.5993  -12.6965    9.7904 C   0  0  0  0  0  0  0  0  0  0  0  0
   -7.7041  -12.0921    9.1349 C   0  0  0  0  0  0  0  0  0  0  0  0
   -7.6169  -10.7465    8.6868 C   0  0  0  0  0  0  0  0  0  0  0  0
   -6.4229  -10.0036    8.8924 C   0  0  0  0  0  0  0  0  0  0  0  0
   -9.3915  -13.3232   10.1829 C   0  0  0  0  0  0  0  0  0  0  0  0
  1  4  1  0  0  0  0
  2  3  1  0  0  0  0
  3  5  1  0  0  0  0
  4  6  1  0  0  0  0
  5  8  1  0  0  0  0
  6  7  1  0  0  0  0
  7 10  1  0  0  0  0
  8  9  1  0  0  0  0
  9 12  1  0  0  0  0
  9 13  1  0  0  0  0
 10 11  1  0  0  0  0
 11 14  1  0  0  0  0
 14 15  1  0  0  0  0
 15 16  1  0  0  0  0
 15 17  1  0  0  0  0
 18  2  1  0  0  0  0
 18 20  2  0  0  0  0
 18 24  1  0  0  0  0
 19 25  1  0  0  0  0
 20  1  1  0  0  0  0
 20 21  1  0  0  0  0
 21 22  2  0  0  0  0
 22 19  1  0  0  0  0
 22 23  1  0  0  0  0
 23 24  2  0  0  0  0
M  END
>  <CHROM.1>
178.28538599,-84.65977939,-162.50591959,151.55028521,-71.86535863,66.78281828
160.29267007,115.28359286,88.58509426,157.10890366,75.99746129,-179.53788623
58.57392300,-177.60186567,100.56826267,-85.36903350,49.67339106,56.31283820
-4.17585551,-10.00363709,11.97004197,-2.55548227,-0.52784379,0.32320310

>  <Name>
1uud_lig

>  <RI>
0

>  <Rbt.Current_Directory>
/home/itssahil/PROJECTS/Mol_Feturizer/New_Systems/rnas/1uud

>  <Rbt.Executable>
rbdock ($Id: //depot/dev/client3/rdock/2013.1/src/exe/rbdock.cxx#4 $)

>  <Rbt.Library>
libRbt.so (2013.1, Build901 2013/11/27)

>  <Rbt.Parameter_File>
/export/apps/rDock/src/rDock_2013.1_src/data/scripts/dock_solv.prm

>  <Rbt.Receptor>
prm/blind_docking_40.prm

>  <SCORE>
-29.7148

>  <SCORE.INTER>
-36.3256

>  <SCORE.INTER.CONST>
1

>  <SCORE.INTER.POLAR>
-5.51603

>  <SCORE.INTER.ROT>
18

>  <SCORE.INTER.SOLV>
10.4123

>  <SCORE.INTER.VDW>
-24.9011

>  <SCORE.INTER.norm>
-1.45302

>  <SCORE.INTRA>
5.81862

>  <SCORE.INTRA.DIHEDRAL>
-4.33727

>  <SCORE.INTRA.DIHEDRAL.0>
30.6762

>  <SCORE.INTRA.POLAR>
0.0288659

>  <SCORE.INTRA.POLAR.0>
-0.0288659

>  <SCORE.INTRA.REPUL>
0

>  <SCORE.INTRA.REPUL.0>
0

>  <SCORE.INTRA.SOLV>
0.462505

>  <SCORE.INTRA.SOLV.lig_0>
-25.2195

>  <SCORE.INTRA.VDW>
7.65786

>  <SCORE.INTRA.VDW.0>
4.14263

>  <SCORE.INTRA.norm>
0.232745

>  <SCORE.RESTR>
0.792216

>  <SCORE.RESTR.CAVITY>
0.792216

>  <SCORE.RESTR.norm>
0.0316887

>  <SCORE.SYSTEM>
0

>  <SCORE.SYSTEM.CONST>
0

>  <SCORE.SYSTEM.DIHEDRAL>
0

>  <SCORE.SYSTEM.SOLV>
0

>  <SCORE.SYSTEM.norm>
0

>  <SCORE.heavy>
25

>  <SCORE.norm>
-1.18859

>  <RMSD>
15.542

$$$$
1uud_lig
 OpenBabel11021811413D
libRbt.so/2013.1/901 2013/11/27
 25 25  0  0  0  0  0  0  0  0999 V2000
   -6.2444  -12.9205    9.9828 C   0  0  0  0  0  0  0  0  0  0  0  0
   -5.9349  -10.1230    9.1575 O   0  0  0  0  0  0  0  0  0  0  0  0
   -5.3770   -8.9071    8.6374 C   0  0  0  0  0  0  0  0  0  0  0  0
   -7.5430  -12.2329    9.7749 N   0  0  0  0  0  0  0  0  0  0  0  0
   -6.0560   -7.6932    9.2860 C   0  0  0  0  0  0  0  0  0  0  0  0
   -8.1868  -12.7388    8.5395 C   0  0  0  0  0  0  0  0  0  0  0  0
   -9.5489  -12.0587    8.3556 C   0  0  0  0  0  0  0  0  0  0  0  0
   -5.3780   -7.3138   10.3430 N   0  0  0  0  0  0  0  0  0  0  0  0
   -5.9244   -7.2985   11.5443 C   0  0  0  0  0  0  0  0  0  0  0  0
   -9.3504  -10.5758    8.0237 C   0  0  0  0  0  0  0  0  0  0  0  0
   -9.8541  -10.2972    6.6046 C   0  0  0  0  0  0  0  0  0  0  0  0
   -5.1680   -7.1310   12.6714 N   0  0  0  0  0  0  0  0  0  0  0  0
   -7.2682   -7.4539   11.6638 N   0  0  0  0  0  0  0  0  0  0  0  0
  -11.1532  -10.1150    6.6208 N   0  0  0  0  0  0  0  0  0  0  0  0
  -11.9703  -10.9194    5.9681 C   0  0  0  0  0  0  0  0  0  0  0  0
  -12.2952  -10.6315    4.6816 N   0  0  0  0  0  0  0  0  0  0  0  0
  -12.5046  -12.0287    6.5596 N   0  0  0  0  0  0  0  0  0  0  0  0
   -5.1302  -10.6110   10.2386 C   0  0  0  0  0  0  0  0  0  0  0  0
   -2.7540  -12.0324   13.4919 O   0  0  0  0  0  0  0  0  0  0  0  0
   -5.2530  -11.9619   10.6744 C   0  0  0  0  0  0  0  0  0  0  0  0
   -4.4676  -12.4295   11.7620 C   0  0  0  0  0  0  0  0  0  0  0  0
   -3.5462  -11.5581   12.4001 C   0  0  0  0  0  0  0  0  0  0  0  0
   -3.4090  -10.2162   11.9535 C   0  0  0  0  0  0  0  0  0  0  0  0
   -4.1952   -9.7432   10.8681 C   0  0  0  0  0  0  0  0  0  0  0  0
   -1.3752  -11.7409   13.2457 C   0  0  0  0  0  0  0  0  0  0  0  0
  1  4  1  0  0  0  0
  2  3  1  0  0  0  0
  3  5  1  0  0  0  0
  4  6  1  0  0  0  0
  5  8  1  0  0  0  0
  6  7  1  0  0  0  0
  7 10  1  0  0  0  0
  8  9  1  0  0  0  0
  9 12  1  0  0  0  0
  9 13  1  0  0  0  0
 10 11  1  0  0  0  0
 11 14  1  0  0  0  0
 14 15  1  0  0  0  0
 15 16  1  0  0  0  0
 15 17  1  0  0  0  0
 18  2  1  0  0  0  0
 18 20  2  0  0  0  0
 18 24  1  0  0  0  0
 19 25  1  0  0  0  0
 20  1  1  0  0  0  0
 20 21  1  0  0  0  0
 21 22  2  0  0  0  0
 22 19  1  0  0  0  0
 22 23  1  0  0  0  0
 23 24  2  0  0  0  0
M  END
>  <CHROM.1>
147.94142501,-95.23609602,92.36682913,178.12491741,-119.85237138,68.85154316
114.69343531,168.44524467,95.56361236,-142.75206580,82.87080613,-117.78319803
-89.99275246,144.83807986,99.11819833,-162.74170687,-44.57850330,128.30275404
-6.87221571,-10.40043306,9.69556273,-0.11144583,0.64786124,-3.07835731

>  <Name>
1uud_lig

>  <RI>
0

>  <Rbt.Current_Directory>
/home/itssahil/PROJECTS/Mol_Feturizer/New_Systems/rnas/1uud

>  <Rbt.Executable>
rbdock ($Id: //depot/dev/client3/rdock/2013.1/src/exe/rbdock.cxx#4 $)

>  <Rbt.Library>
libRbt.so (2013.1, Build901 2013/11/27)

>  <Rbt.Parameter_File>
/export/apps/rDock/src/rDock_2013.1_src/data/scripts/dock_solv.prm

>  <Rbt.Receptor>
prm/blind_docking_20.prm

>  <SCORE>
-26.2348

>  <SCORE.INTER>
-24.4188

>  <SCORE.INTER.CONST>
1

>  <SCORE.INTER.POLAR>
-3.84729

>  <SCORE.INTER.ROT>
18

>  <SCORE.INTER.SOLV>
9.86754

>  <SCORE.INTER.VDW>
-22.3441

>  <SCORE.INTER.norm>
-0.976753

>  <SCORE.INTRA>
-1.84373

>  <SCORE.INTRA.DIHEDRAL>
0.704861

>  <SCORE.INTRA.DIHEDRAL.0>
30.6762

>  <SCORE.INTRA.POLAR>
-0.679175

>  <SCORE.INTRA.POLAR.0>
-0.0288659

>  <SCORE.INTRA.REPUL>
0

>  <SCORE.INTRA.REPUL.0>
0

>  <SCORE.INTRA.SOLV>
0.738828

>  <SCORE.INTRA.SOLV.lig_0>
-25.2195

>  <SCORE.INTRA.VDW>
-0.256384

>  <SCORE.INTRA.VDW.0>
4.14263

>  <SCORE.INTRA.norm>
-0.0737493

>  <SCORE.RESTR>
0.0277909

>  <SCORE.RESTR.CAVITY>
0.0277909

>  <SCORE.RESTR.norm>
0.00111163

>  <SCORE.SYSTEM>
0

>  <SCORE.SYSTEM.CONST>
0

>  <SCORE.SYSTEM.DIHEDRAL>
0

>  <SCORE.SYSTEM.SOLV>
0

>  <SCORE.SYSTEM.norm>
0

>  <SCORE.heavy>
25

>  <SCORE.norm>
-1.04939

>  <RMSD>
15.551

$$$$
1uud_lig
 OpenBabel11021811413D
libRbt.so/2013.1/901 2013/11/27
 25 25  0  0  0  0  0  0  0  0999 V2000
   -8.5755  -12.8969   10.0640 C   0  0  0  0  0  0  0  0  0  0  0  0
   -9.2147  -14.3740   12.5160 O   0  0  0  0  0  0  0  0  0  0  0  0
   -9.5823  -15.4971   11.7013 C   0  0  0  0  0  0  0  0  0  0  0  0
   -8.0702  -11.7916    9.2126 N   0  0  0  0  0  0  0  0  0  0  0  0
  -11.0627  -15.4036   11.3078 C   0  0  0  0  0  0  0  0  0  0  0  0
   -7.3532  -12.3480    8.0408 C   0  0  0  0  0  0  0  0  0  0  0  0
   -5.8853  -11.9061    8.0805 C   0  0  0  0  0  0  0  0  0  0  0  0
  -11.2812  -14.2888   10.6519 N   0  0  0  0  0  0  0  0  0  0  0  0
  -10.9924  -14.1749    9.3691 C   0  0  0  0  0  0  0  0  0  0  0  0
   -5.7968  -10.3808    7.9614 C   0  0  0  0  0  0  0  0  0  0  0  0
   -5.6483   -9.7664    9.3563 C   0  0  0  0  0  0  0  0  0  0  0  0
  -10.3480  -15.1723    8.6903 N   0  0  0  0  0  0  0  0  0  0  0  0
  -11.3418  -13.0410    8.7086 N   0  0  0  0  0  0  0  0  0  0  0  0
   -6.7126   -9.0560    9.6457 N   0  0  0  0  0  0  0  0  0  0  0  0
   -6.6173   -7.8826   10.2410 C   0  0  0  0  0  0  0  0  0  0  0  0
   -6.3063   -6.7877    9.5007 N   0  0  0  0  0  0  0  0  0  0  0  0
   -6.8140   -7.7455   11.5859 N   0  0  0  0  0  0  0  0  0  0  0  0
   -7.8494  -14.0133   12.2702 C   0  0  0  0  0  0  0  0  0  0  0  0
   -3.7680  -12.9871   11.5357 O   0  0  0  0  0  0  0  0  0  0  0  0
   -7.4950  -13.3001   11.0888 C   0  0  0  0  0  0  0  0  0  0  0  0
   -6.1358  -12.9677   10.8430 C   0  0  0  0  0  0  0  0  0  0  0  0
   -5.1347  -13.3266   11.7835 C   0  0  0  0  0  0  0  0  0  0  0  0
   -5.4899  -14.0207   12.9714 C   0  0  0  0  0  0  0  0  0  0  0  0
   -6.8479  -14.3585   13.2196 C   0  0  0  0  0  0  0  0  0  0  0  0
   -3.5090  -11.6635   12.0125 C   0  0  0  0  0  0  0  0  0  0  0  0
  1  4  1  0  0  0  0
  2  3  1  0  0  0  0
  3  5  1  0  0  0  0
  4  6  1  0  0  0  0
  5  8  1  0  0  0  0
  6  7  1  0  0  0  0
  7 10  1  0  0  0  0
  8  9  1  0  0  0  0
  9 12  1  0  0  0  0
  9 13  1  0  0  0  0
 10 11  1  0  0  0  0
 11 14  1  0  0  0  0
 14 15  1  0  0  0  0
 15 16  1  0  0  0  0
 15 17  1  0  0  0  0
 18  2  1  0  0  0  0
 18 20  2  0  0  0  0
 18 24  1  0  0  0  0
 19 25  1  0  0  0  0
 20  1  1  0  0  0  0
 20 21  1  0  0  0  0
 21 22  2  0  0  0  0
 22 19  1  0  0  0  0
 22 23  1  0  0  0  0
 23 24  2  0  0  0  0
M  END
>  <CHROM.1>
88.31234716,-147.20683988,58.88822651,-117.71822512,80.32314829,-63.31684817
97.67798421,-5.65198160,-40.25369614,6.07153367,-114.06007903,-138.16206334
80.38255707,-61.67021860,20.64677984,76.52680225,159.97706958,86.30268256
-7.54771560,-12.30218361,10.45421035,2.34860066,0.46199609,2.62265356

>  <Name>
1uud_lig

>  <RI>
0

>  <Rbt.Current_Directory>
/home/itssahil/PROJECTS/Mol_Feturizer/New_Systems/rnas/1uud

>  <Rbt.Executable>
rbdock ($Id: //depot/dev/client3/rdock/2013.1/src/exe/rbdock.cxx#4 $)

>  <Rbt.Library>
libRbt.so (2013.1, Build901 2013/11/27)

>  <Rbt.Parameter_File>
/export/apps/rDock/src/rDock_2013.1_src/data/scripts/dock_solv.prm

>  <Rbt.Receptor>
prm/blind_docking_100.prm

>  <SCORE>
-18.3254

>  <SCORE.INTER>
-21.7901

>  <SCORE.INTER.CONST>
1

>  <SCORE.INTER.POLAR>
-3.69142

>  <SCORE.INTER.ROT>
18

>  <SCORE.INTER.SOLV>
7.39618

>  <SCORE.INTER.VDW>
-20.2874

>  <SCORE.INTER.norm>
-0.871603

>  <SCORE.INTRA>
2.13968

>  <SCORE.INTRA.DIHEDRAL>
8.05407

>  <SCORE.INTRA.DIHEDRAL.0>
30.6762

>  <SCORE.INTRA.POLAR>
-0.544291

>  <SCORE.INTRA.POLAR.0>
-0.0288659

>  <SCORE.INTRA.REPUL>
0

>  <SCORE.INTRA.REPUL.0>
0

>  <SCORE.INTRA.SOLV>
1.56934

>  <SCORE.INTRA.SOLV.lig_0>
-25.2195

>  <SCORE.INTRA.VDW>
-0.821437

>  <SCORE.INTRA.VDW.0>
4.14263

>  <SCORE.INTRA.norm>
0.0855871

>  <SCORE.RESTR>
1.32503

>  <SCORE.RESTR.CAVITY>
1.32503

>  <SCORE.RESTR.norm>
0.0530014

>  <SCORE.SYSTEM>
0

>  <SCORE.SYSTEM.CONST>
0

>  <SCORE.SYSTEM.DIHEDRAL>
0

>  <SCORE.SYSTEM.SOLV>
0

>  <SCORE.SYSTEM.norm>
0

>  <SCORE.heavy>
25

>  <SCORE.norm>
-0.733015

>  <RMSD>
15.552

$$$$
1uud_lig
 OpenBabel11021811413D
libRbt.so/2013.1/901 2013/11/27
 25 25  0  0  0  0  0  0  0  0999 V2000
   -5.0221  -10.0841   12.0965 C   0  0  0  0  0  0  0  0  0  0  0  0
   -4.6470   -9.7036    9.2126 O   0  0  0  0  0  0  0  0  0  0  0  0
   -5.4357   -8.8645    8.3558 C   0  0  0  0  0  0  0  0  0  0  0  0
   -3.5837  -10.3948   12.2873 N   0  0  0  0  0  0  0  0  0  0  0  0
   -5.2389   -7.3897    8.7320 C   0  0  0  0  0  0  0  0  0  0  0  0
   -3.1441   -9.9354   13.6262 C   0  0  0  0  0  0  0  0  0  0  0  0
   -1.7004   -9.4249   13.5447 C   0  0  0  0  0  0  0  0  0  0  0  0
   -5.6435   -7.1848    9.9629 N   0  0  0  0  0  0  0  0  0  0  0  0
   -6.9133   -6.9588   10.2433 C   0  0  0  0  0  0  0  0  0  0  0  0
   -1.6133   -8.0119   14.1316 C   0  0  0  0  0  0  0  0  0  0  0  0
   -0.2031   -7.7707   14.6778 C   0  0  0  0  0  0  0  0  0  0  0  0
   -7.5473   -7.6127   11.2636 N   0  0  0  0  0  0  0  0  0  0  0  0
   -7.6062   -6.0574    9.5006 N   0  0  0  0  0  0  0  0  0  0  0  0
   -0.0626   -6.5083   15.0065 N   0  0  0  0  0  0  0  0  0  0  0  0
    0.3040   -6.1491   16.2218 C   0  0  0  0  0  0  0  0  0  0  0  0
   -0.4338   -6.5604   17.2848 N   0  0  0  0  0  0  0  0  0  0  0  0
    1.4022   -5.3650   16.4345 N   0  0  0  0  0  0  0  0  0  0  0  0
   -5.4256  -10.8206    9.6603 C   0  0  0  0  0  0  0  0  0  0  0  0
   -7.7127  -14.1813   10.9740 O   0  0  0  0  0  0  0  0  0  0  0  0
   -5.6281  -11.0450   11.0526 C   0  0  0  0  0  0  0  0  0  0  0  0
   -6.3819  -12.1681   11.4868 C   0  0  0  0  0  0  0  0  0  0  0  0
   -6.9509  -13.0539   10.5344 C   0  0  0  0  0  0  0  0  0  0  0  0
   -6.7659  -12.8200    9.1451 C   0  0  0  0  0  0  0  0  0  0  0  0
   -6.0095  -11.6996    8.7063 C   0  0  0  0  0  0  0  0  0  0  0  0
   -9.1067  -13.8625   10.9345 C   0  0  0  0  0  0  0  0  0  0  0  0
  1  4  1  0  0  0  0
  2  3  1  0  0  0  0
  3  5  1  0  0  0  0
  4  6  1  0  0  0  0
  5  8  1  0  0  0  0
  6  7  1  0  0  0  0
  7 10  1  0  0  0  0
  8  9  1  0  0  0  0
  9 12  1  0  0  0  0
  9 13  1  0  0  0  0
 10 11  1  0  0  0  0
 11 14  1  0  0  0  0
 14 15  1  0  0  0  0
 15 16  1  0  0  0  0
 15 17  1  0  0  0  0
 18  2  1  0  0  0  0
 18 20  2  0  0  0  0
 18 24  1  0  0  0  0
 19 25  1  0  0  0  0
 20  1  1  0  0  0  0
 20 21  1  0  0  0  0
 21 22  2  0  0  0  0
 22 19  1  0  0  0  0
 22 23  1  0  0  0  0
 23 24  2  0  0  0  0
M  END
>  <CHROM.1>
-155.57618956,135.01308772,-61.81499371,-144.60183055,-83.92944366,127.11922401
152.58765475,132.94181500,121.84015655,-178.63687721,171.03858527,124.12999946
-56.73077856,152.31988522,135.16523139,-121.52698885,-79.32858462,97.23420621
-4.40363140,-9.26340049,11.86255161,-2.85162861,-0.77575906,-0.28560617

>  <Name>
1uud_lig

>  <RI>
0

>  <Rbt.Current_Directory>
/home/itssahil/PROJECTS/Mol_Feturizer/New_Systems/rnas/1uud

>  <Rbt.Executable>
rbdock ($Id: //depot/dev/client3/rdock/2013.1/src/exe/rbdock.cxx#4 $)

>  <Rbt.Library>
libRbt.so (2013.1, Build901 2013/11/27)

>  <Rbt.Parameter_File>
/export/apps/rDock/src/rDock_2013.1_src/data/scripts/dock_solv.prm

>  <Rbt.Receptor>
prm/blind_docking_20.prm

>  <SCORE>
-33.9274

>  <SCORE.INTER>
-31.4107

>  <SCORE.INTER.CONST>
1

>  <SCORE.INTER.POLAR>
-5.78102

>  <SCORE.INTER.ROT>
18

>  <SCORE.INTER.SOLV>
14.1978

>  <SCORE.INTER.VDW>
-22.003

>  <SCORE.INTER.norm>
-1.25643

>  <SCORE.INTRA>
-2.70851

>  <SCORE.INTRA.DIHEDRAL>
5.83167

>  <SCORE.INTRA.DIHEDRAL.0>
30.6762

>  <SCORE.INTRA.POLAR>
0.0288659

>  <SCORE.INTRA.POLAR.0>
-0.0288659

>  <SCORE.INTRA.REPUL>
0

>  <SCORE.INTRA.REPUL.0>
0

>  <SCORE.INTRA.SOLV>
-0.32142

>  <SCORE.INTRA.SOLV.lig_0>
-25.2195

>  <SCORE.INTRA.VDW>
-5.56178

>  <SCORE.INTRA.VDW.0>
4.14263

>  <SCORE.INTRA.norm>
-0.108341

>  <SCORE.RESTR>
0.191774

>  <SCORE.RESTR.CAVITY>
0.191774

>  <SCORE.RESTR.norm>
0.00767095

>  <SCORE.SYSTEM>
0

>  <SCORE.SYSTEM.CONST>
0

>  <SCORE.SYSTEM.DIHEDRAL>
0

>  <SCORE.SYSTEM.SOLV>
0

>  <SCORE.SYSTEM.norm>
0

>  <SCORE.heavy>
25

>  <SCORE.norm>
-1.3571

>  <RMSD>
15.552

$$$$
1uud_lig
 OpenBabel11021811413D
libRbt.so/2013.1/901 2013/11/27
 25 25  0  0  0  0  0  0  0  0999 V2000
   -4.7377  -12.7727    8.9889 C   0  0  0  0  0  0  0  0  0  0  0  0
   -5.2040  -10.1323   10.1777 O   0  0  0  0  0  0  0  0  0  0  0  0
   -4.0592   -9.4332   10.6885 C   0  0  0  0  0  0  0  0  0  0  0  0
   -5.8763  -13.0453    8.0770 N   0  0  0  0  0  0  0  0  0  0  0  0
   -4.1186   -7.9538   10.2846 C   0  0  0  0  0  0  0  0  0  0  0  0
   -6.2762  -11.7965    7.3860 C   0  0  0  0  0  0  0  0  0  0  0  0
   -7.3297  -11.0617    8.2238 C   0  0  0  0  0  0  0  0  0  0  0  0
   -5.1356   -7.3705   10.8730 N   0  0  0  0  0  0  0  0  0  0  0  0
   -6.3770   -7.5880   10.4811 C   0  0  0  0  0  0  0  0  0  0  0  0
   -8.5610  -11.9544    8.4123 C   0  0  0  0  0  0  0  0  0  0  0  0
   -9.7040  -11.1297    9.0114 C   0  0  0  0  0  0  0  0  0  0  0  0
   -6.7146   -7.6108    9.1559 N   0  0  0  0  0  0  0  0  0  0  0  0
   -7.3413   -7.7924   11.4153 N   0  0  0  0  0  0  0  0  0  0  0  0
  -10.2566  -10.3910    8.0786 N   0  0  0  0  0  0  0  0  0  0  0  0
  -11.4906  -10.6101    7.6666 C   0  0  0  0  0  0  0  0  0  0  0  0
  -11.6909  -11.2726    6.4984 N   0  0  0  0  0  0  0  0  0  0  0  0
  -12.5705  -10.1773    8.3825 N   0  0  0  0  0  0  0  0  0  0  0  0
   -5.4647  -11.2966   10.9721 C   0  0  0  0  0  0  0  0  0  0  0  0
   -6.2906  -14.7536   13.3421 O   0  0  0  0  0  0  0  0  0  0  0  0
   -5.2565  -12.5982   10.4313 C   0  0  0  0  0  0  0  0  0  0  0  0
   -5.5401  -13.7460   11.2189 C   0  0  0  0  0  0  0  0  0  0  0  0
   -6.0099  -13.5966   12.5502 C   0  0  0  0  0  0  0  0  0  0  0  0
   -6.1993  -12.2989   13.0970 C   0  0  0  0  0  0  0  0  0  0  0  0
   -5.9203  -11.1477   12.3115 C   0  0  0  0  0  0  0  0  0  0  0  0
   -7.5469  -15.3119   12.9463 C   0  0  0  0  0  0  0  0  0  0  0  0
  1  4  1  0  0  0  0
  2  3  1  0  0  0  0
  3  5  1  0  0  0  0
  4  6  1  0  0  0  0
  5  8  1  0  0  0  0
  6  7  1  0  0  0  0
  7 10  1  0  0  0  0
  8  9  1  0  0  0  0
  9 12  1  0  0  0  0
  9 13  1  0  0  0  0
 10 11  1  0  0  0  0
 11 14  1  0  0  0  0
 14 15  1  0  0  0  0
 15 16  1  0  0  0  0
 15 17  1  0  0  0  0
 18  2  1  0  0  0  0
 18 20  2  0  0  0  0
 18 24  1  0  0  0  0
 19 25  1  0  0  0  0
 20  1  1  0  0  0  0
 20 21  1  0  0  0  0
 21 22  2  0  0  0  0
 22 19  1  0  0  0  0
 22 23  1  0  0  0  0
 23 24  2  0  0  0  0
M  END
>  <CHROM.1>
98.80546538,-155.68893240,65.94769711,-89.36043651,-73.89300323,-59.85498307
-169.25891402,-43.88459645,-170.86334444,-104.37257552,77.59437878,112.66916693
-101.17836797,-100.25167081,-81.77397273,-110.96013628,-98.34881388,-77.47290451
-7.09688946,-11.03396623,9.97810166,0.40191802,0.54617292,2.83277388

>  <Name>
1uud_lig

>  <RI>
0

>  <Rbt.Current_Directory>
/home/itssahil/PROJECTS/Mol_Feturizer/New_Systems/rnas/1uud

>  <Rbt.Executable>
rbdock ($Id: //depot/dev/client3/rdock/2013.1/src/exe/rbdock.cxx#4 $)

>  <Rbt.Library>
libRbt.so (2013.1, Build901 2013/11/27)

>  <Rbt.Parameter_File>
/export/apps/rDock/src/rDock_2013.1_src/data/scripts/dock_solv.prm

>  <Rbt.Receptor>
prm/blind_docking_100.prm

>  <SCORE>
-26.3783

>  <SCORE.INTER>
-21.1974

>  <SCORE.INTER.CONST>
1

>  <SCORE.INTER.POLAR>
-3.16988

>  <SCORE.INTER.ROT>
18

>  <SCORE.INTER.SOLV>
11.0236

>  <SCORE.INTER.VDW>
-22.8399

>  <SCORE.INTER.norm>
-0.847896

>  <SCORE.INTRA>
-6.84174

>  <SCORE.INTRA.DIHEDRAL>
-3.0299

>  <SCORE.INTRA.DIHEDRAL.0>
30.6762

>  <SCORE.INTRA.POLAR>
0.0288659

>  <SCORE.INTRA.POLAR.0>
-0.0288659

>  <SCORE.INTRA.REPUL>
0

>  <SCORE.INTRA.REPUL.0>
0

>  <SCORE.INTRA.SOLV>
0.365795

>  <SCORE.INTRA.SOLV.lig_0>
-25.2195

>  <SCORE.INTRA.VDW>
-5.60783

>  <SCORE.INTRA.VDW.0>
4.14263

>  <SCORE.INTRA.norm>
-0.27367

>  <SCORE.RESTR>
1.66085

>  <SCORE.RESTR.CAVITY>
1.66085

>  <SCORE.RESTR.norm>
0.066434

>  <SCORE.SYSTEM>
0

>  <SCORE.SYSTEM.CONST>
0

>  <SCORE.SYSTEM.DIHEDRAL>
0

>  <SCORE.SYSTEM.SOLV>
0

>  <SCORE.SYSTEM.norm>
0

>  <SCORE.heavy>
25

>  <SCORE.norm>
-1.05513

>  <RMSD>
15.554

$$$$
1uud_lig
 OpenBabel11021811413D
libRbt.so/2013.1/901 2013/11/27
 25 25  0  0  0  0  0  0  0  0999 V2000
   -6.0976   -9.4937   10.9534 C   0  0  0  0  0  0  0  0  0  0  0  0
   -6.5206  -11.5045    8.8604 O   0  0  0  0  0  0  0  0  0  0  0  0
   -7.4481  -12.5961    8.7694 C   0  0  0  0  0  0  0  0  0  0  0  0
   -5.1627   -8.3575   11.1459 N   0  0  0  0  0  0  0  0  0  0  0  0
   -8.8798  -12.0953    9.0032 C   0  0  0  0  0  0  0  0  0  0  0  0
   -4.7576   -8.2764   12.5693 C   0  0  0  0  0  0  0  0  0  0  0  0
   -3.4904   -7.4219   12.6940 C   0  0  0  0  0  0  0  0  0  0  0  0
   -9.7339  -13.0676    8.7889 N   0  0  0  0  0  0  0  0  0  0  0  0
  -10.1162  -13.8765    9.7592 C   0  0  0  0  0  0  0  0  0  0  0  0
   -2.8976   -7.5706   14.0994 C   0  0  0  0  0  0  0  0  0  0  0  0
   -1.4722   -8.1212   13.9979 C   0  0  0  0  0  0  0  0  0  0  0  0
  -11.4347  -14.0178   10.0941 N   0  0  0  0  0  0  0  0  0  0  0  0
   -9.1786  -14.5836   10.4414 N   0  0  0  0  0  0  0  0  0  0  0  0
   -0.9333   -8.1850   15.1923 N   0  0  0  0  0  0  0  0  0  0  0  0
    0.1945   -7.5610   15.4740 C   0  0  0  0  0  0  0  0  0  0  0  0
    1.0483   -7.2488   14.4655 N   0  0  0  0  0  0  0  0  0  0  0  0
    0.5275   -7.2312   16.7572 N   0  0  0  0  0  0  0  0  0  0  0  0
   -5.5464  -11.7696    9.8777 C   0  0  0  0  0  0  0  0  0  0  0  0
   -2.6065  -12.5608   12.8747 O   0  0  0  0  0  0  0  0  0  0  0  0
   -5.3060  -10.8173   10.9098 C   0  0  0  0  0  0  0  0  0  0  0  0
   -4.3218  -11.0793   11.9002 C   0  0  0  0  0  0  0  0  0  0  0  0
   -3.5936  -12.2977   11.8742 C   0  0  0  0  0  0  0  0  0  0  0  0
   -3.8464  -13.2566   10.8566 C   0  0  0  0  0  0  0  0  0  0  0  0
   -4.8276  -12.9971    9.8617 C   0  0  0  0  0  0  0  0  0  0  0  0
   -1.7283  -11.4372   12.9884 C   0  0  0  0  0  0  0  0  0  0  0  0
  1  4  1  0  0  0  0
  2  3  1  0  0  0  0
  3  5  1  0  0  0  0
  4  6  1  0  0  0  0
  5  8  1  0  0  0  0
  6  7  1  0  0  0  0
  7 10  1  0  0  0  0
  8  9  1  0  0  0  0
  9 12  1  0  0  0  0
  9 13  1  0  0  0  0
 10 11  1  0  0  0  0
 11 14  1  0  0  0  0
 14 15  1  0  0  0  0
 15 16  1  0  0  0  0
 15 17  1  0  0  0  0
 18  2  1  0  0  0  0
 18 20  2  0  0  0  0
 18 24  1  0  0  0  0
 19 25  1  0  0  0  0
 20  1  1  0  0  0  0
 20 21  1  0  0  0  0
 21 22  2  0  0  0  0
 22 19  1  0  0  0  0
 22 23  1  0  0  0  0
 23 24  2  0  0  0  0
M  END
>  <CHROM.1>
-78.24289112,122.05176304,173.78615343,162.25973424,90.29674895,-168.15630686
120.49636864,122.54975448,-150.48563604,-106.55736880,176.70562677,-122.76924204
-23.24216658,-113.38181615,157.17732719,-127.17489020,-131.82283384,-49.71873529
-4.72160589,-10.67139211,11.80318069,2.54152727,0.45206148,-2.92958505

>  <Name>
1uud_lig

>  <RI>
0

>  <Rbt.Current_Directory>
/home/itssahil/PROJECTS/Mol_Feturizer/New_Systems/rnas/1uud

>  <Rbt.Executable>
rbdock ($Id: //depot/dev/client3/rdock/2013.1/src/exe/rbdock.cxx#4 $)

>  <Rbt.Library>
libRbt.so (2013.1, Build901 2013/11/27)

>  <Rbt.Parameter_File>
/export/apps/rDock/src/rDock_2013.1_src/data/scripts/dock_solv.prm

>  <Rbt.Receptor>
prm/blind_docking_40.prm

>  <SCORE>
-28.5158

>  <SCORE.INTER>
-26.7167

>  <SCORE.INTER.CONST>
1

>  <SCORE.INTER.POLAR>
-3.18852

>  <SCORE.INTER.ROT>
18

>  <SCORE.INTER.SOLV>
8.77317

>  <SCORE.INTER.VDW>
-25.7072

>  <SCORE.INTER.norm>
-1.06867

>  <SCORE.INTRA>
-1.79907

>  <SCORE.INTRA.DIHEDRAL>
0.959459

>  <SCORE.INTRA.DIHEDRAL.0>
30.6762

>  <SCORE.INTRA.POLAR>
0.0288659

>  <SCORE.INTRA.POLAR.0>
-0.0288659

>  <SCORE.INTRA.REPUL>
0

>  <SCORE.INTRA.REPUL.0>
0

>  <SCORE.INTRA.SOLV>
-1.28609

>  <SCORE.INTRA.SOLV.lig_0>
-25.2195

>  <SCORE.INTRA.VDW>
-1.7339

>  <SCORE.INTRA.VDW.0>
4.14263

>  <SCORE.INTRA.norm>
-0.0719627

>  <SCORE.RESTR>
0

>  <SCORE.RESTR.CAVITY>
0

>  <SCORE.RESTR.norm>
0

>  <SCORE.SYSTEM>
0

>  <SCORE.SYSTEM.CONST>
0

>  <SCORE.SYSTEM.DIHEDRAL>
0

>  <SCORE.SYSTEM.SOLV>
0

>  <SCORE.SYSTEM.norm>
0

>  <SCORE.heavy>
25

>  <SCORE.norm>
-1.14063

>  <RMSD>
15.557

$$$$
1uud_lig
 OpenBabel11021811413D
libRbt.so/2013.1/901 2013/11/27
 25 25  0  0  0  0  0  0  0  0999 V2000
   -4.7576  -12.5160   12.0755 C   0  0  0  0  0  0  0  0  0  0  0  0
   -4.4795  -11.1430    9.4986 O   0  0  0  0  0  0  0  0  0  0  0  0
   -4.2970   -9.9272   10.2395 C   0  0  0  0  0  0  0  0  0  0  0  0
   -4.7525  -11.3198   12.9537 N   0  0  0  0  0  0  0  0  0  0  0  0
   -5.2594   -8.8465    9.7285 C   0  0  0  0  0  0  0  0  0  0  0  0
   -3.3751  -10.7837   13.0639 C   0  0  0  0  0  0  0  0  0  0  0  0
   -3.4119   -9.4124   13.7494 C   0  0  0  0  0  0  0  0  0  0  0  0
   -6.4103   -8.9429   10.3504 N   0  0  0  0  0  0  0  0  0  0  0  0
   -6.9834   -7.8929   10.9082 C   0  0  0  0  0  0  0  0  0  0  0  0
   -2.0571   -8.7138   13.5903 C   0  0  0  0  0  0  0  0  0  0  0  0
   -1.8287   -7.7654   14.7709 C   0  0  0  0  0  0  0  0  0  0  0  0
   -7.6563   -7.9921   12.0947 N   0  0  0  0  0  0  0  0  0  0  0  0
   -6.9040   -6.6869   10.2889 N   0  0  0  0  0  0  0  0  0  0  0  0
   -0.7305   -7.0735   14.5803 N   0  0  0  0  0  0  0  0  0  0  0  0
    0.3788   -7.3453   15.2406 C   0  0  0  0  0  0  0  0  0  0  0  0
    1.0762   -8.4682   14.9299 N   0  0  0  0  0  0  0  0  0  0  0  0
    0.8363   -6.5291   16.2359 N   0  0  0  0  0  0  0  0  0  0  0  0
   -5.7433  -11.7345    9.8265 C   0  0  0  0  0  0  0  0  0  0  0  0
   -9.5054  -13.5283   10.7642 O   0  0  0  0  0  0  0  0  0  0  0  0
   -5.9196  -12.4152   11.0656 C   0  0  0  0  0  0  0  0  0  0  0  0
   -7.1692  -13.0181   11.3711 C   0  0  0  0  0  0  0  0  0  0  0  0
   -8.2475  -12.9242   10.4525 C   0  0  0  0  0  0  0  0  0  0  0  0
   -8.0785  -12.2287    9.2250 C   0  0  0  0  0  0  0  0  0  0  0  0
   -6.8291  -11.6270    8.9137 C   0  0  0  0  0  0  0  0  0  0  0  0
   -9.4146  -14.9446   10.5836 C   0  0  0  0  0  0  0  0  0  0  0  0
  1  4  1  0  0  0  0
  2  3  1  0  0  0  0
  3  5  1  0  0  0  0
  4  6  1  0  0  0  0
  5  8  1  0  0  0  0
  6  7  1  0  0  0  0
  7 10  1  0  0  0  0
  8  9  1  0  0  0  0
  9 12  1  0  0  0  0
  9 13  1  0  0  0  0
 10 11  1  0  0  0  0
 11 14  1  0  0  0  0
 14 15  1  0  0  0  0
 15 16  1  0  0  0  0
 15 17  1  0  0  0  0
 18  2  1  0  0  0  0
 18 20  2  0  0  0  0
 18 24  1  0  0  0  0
 19 25  1  0  0  0  0
 20  1  1  0  0  0  0
 20 21  1  0  0  0  0
 21 22  2  0  0  0  0
 22 19  1  0  0  0  0
 22 23  1  0  0  0  0
 23 24  2  0  0  0  0
M  END
>  <CHROM.1>
-133.59122403,-69.77958622,86.97309095,169.54583228,129.86469607,-167.40907402
-151.80303039,-142.30848033,-12.11273706,16.21425158,-174.22299210,-104.89978007
72.17166598,-47.21965059,24.61015602,-75.57305601,87.02932953,-75.87639840
-4.81176244,-10.07854543,11.91756135,-2.71285675,-0.60464975,-0.11747459

>  <Name>
1uud_lig

>  <RI>
0

>  <Rbt.Current_Directory>
/home/itssahil/PROJECTS/Mol_Feturizer/New_Systems/rnas/1uud

>  <Rbt.Executable>
rbdock ($Id: //depot/dev/client3/rdock/2013.1/src/exe/rbdock.cxx#4 $)

>  <Rbt.Library>
libRbt.so (2013.1, Build901 2013/11/27)

>  <Rbt.Parameter_File>
/export/apps/rDock/src/rDock_2013.1_src/data/scripts/dock_solv.prm

>  <Rbt.Receptor>
prm/blind_docking_40.prm

>  <SCORE>
-42.5797

>  <SCORE.INTER>
-37.3502

>  <SCORE.INTER.CONST>
1

>  <SCORE.INTER.POLAR>
-7.15809

>  <SCORE.INTER.ROT>
18

>  <SCORE.INTER.SOLV>
11.9637

>  <SCORE.INTER.VDW>
-20.6278

>  <SCORE.INTER.norm>
-1.49401

>  <SCORE.INTRA>
-5.22952

>  <SCORE.INTRA.DIHEDRAL>
-1.67063

>  <SCORE.INTRA.DIHEDRAL.0>
30.6762

>  <SCORE.INTRA.POLAR>
0.0288659

>  <SCORE.INTRA.POLAR.0>
-0.0288659

>  <SCORE.INTRA.REPUL>
0

>  <SCORE.INTRA.REPUL.0>
0

>  <SCORE.INTRA.SOLV>
0.030294

>  <SCORE.INTRA.SOLV.lig_0>
-25.2195

>  <SCORE.INTRA.VDW>
-4.5075

>  <SCORE.INTRA.VDW.0>
4.14263

>  <SCORE.INTRA.norm>
-0.209181

>  <SCORE.RESTR>
0

>  <SCORE.RESTR.CAVITY>
0

>  <SCORE.RESTR.norm>
0

>  <SCORE.SYSTEM>
0

>  <SCORE.SYSTEM.CONST>
0

>  <SCORE.SYSTEM.DIHEDRAL>
0

>  <SCORE.SYSTEM.SOLV>
0

>  <SCORE.SYSTEM.norm>
0

>  <SCORE.heavy>
25

>  <SCORE.norm>
-1.70319

>  <RMSD>
15.568

$$$$
1uud_lig
 OpenBabel11021811413D
libRbt.so/2013.1/901 2013/11/27
 25 25  0  0  0  0  0  0  0  0999 V2000
   -7.5826  -12.3282    9.0604 C   0  0  0  0  0  0  0  0  0  0  0  0
   -6.2277  -12.5735   11.6501 O   0  0  0  0  0  0  0  0  0  0  0  0
   -5.1097  -13.0556   10.8899 C   0  0  0  0  0  0  0  0  0  0  0  0
   -7.8014  -10.9264    9.4954 N   0  0  0  0  0  0  0  0  0  0  0  0
   -4.0656  -11.9437   10.7207 C   0  0  0  0  0  0  0  0  0  0  0  0
   -7.3900   -9.9961    8.4174 C   0  0  0  0  0  0  0  0  0  0  0  0
   -5.8593   -9.9394    8.3455 C   0  0  0  0  0  0  0  0  0  0  0  0
   -4.0619  -11.1693   11.7795 N   0  0  0  0  0  0  0  0  0  0  0  0
   -3.0333  -11.1354   12.6059 C   0  0  0  0  0  0  0  0  0  0  0  0
   -5.2990   -9.3317    9.6361 C   0  0  0  0  0  0  0  0  0  0  0  0
   -5.8932   -7.9357    9.8443 C   0  0  0  0  0  0  0  0  0  0  0  0
   -2.1487  -10.0923   12.6036 N   0  0  0  0  0  0  0  0  0  0  0  0
   -2.8486  -12.1604   13.4774 N   0  0  0  0  0  0  0  0  0  0  0  0
   -6.7804   -7.9687   10.8102 N   0  0  0  0  0  0  0  0  0  0  0  0
   -6.4303   -7.8179   12.0732 C   0  0  0  0  0  0  0  0  0  0  0  0
   -6.9174   -8.6794   13.0028 N   0  0  0  0  0  0  0  0  0  0  0  0
   -5.5977   -6.8096   12.4685 N   0  0  0  0  0  0  0  0  0  0  0  0
   -7.3806  -13.3878   11.4006 C   0  0  0  0  0  0  0  0  0  0  0  0
  -10.8408  -15.7919   10.6952 O   0  0  0  0  0  0  0  0  0  0  0  0
   -8.0714  -13.2960   10.1579 C   0  0  0  0  0  0  0  0  0  0  0  0
   -9.2267  -14.0905    9.9293 C   0  0  0  0  0  0  0  0  0  0  0  0
   -9.6801  -14.9904   10.9294 C   0  0  0  0  0  0  0  0  0  0  0  0
   -8.9804  -15.0969   12.1615 C   0  0  0  0  0  0  0  0  0  0  0  0
   -7.8262  -14.3014   12.3959 C   0  0  0  0  0  0  0  0  0  0  0  0
  -11.9742  -14.9444   10.4864 C   0  0  0  0  0  0  0  0  0  0  0  0
  1  4  1  0  0  0  0
  2  3  1  0  0  0  0
  3  5  1  0  0  0  0
  4  6  1  0  0  0  0
  5  8  1  0  0  0  0
  6  7  1  0  0  0  0
  7 10  1  0  0  0  0
  8  9  1  0  0  0  0
  9 12  1  0  0  0  0
  9 13  1  0  0  0  0
 10 11  1  0  0  0  0
 11 14  1  0  0  0  0
 14 15  1  0  0  0  0
 15 16  1  0  0  0  0
 15 17  1  0  0  0  0
 18  2  1  0  0  0  0
 18 20  2  0  0  0  0
 18 24  1  0  0  0  0
 19 25  1  0  0  0  0
 20  1  1  0  0  0  0
 20 21  1  0  0  0  0
 21 22  2  0  0  0  0
 22 19  1  0  0  0  0
 22 23  1  0  0  0  0
 23 24  2  0  0  0  0
M  END
>  <CHROM.1>
-177.42280159,158.67812934,32.88995328,-74.34735290,112.11143876,-64.90399686
-57.70802819,104.13169077,153.60317721,-128.01264025,106.33979884,86.71167557
-133.01961412,-169.32219487,-104.19794018,-73.05841401,-68.71537161,-61.26330916
-6.63280744,-11.51125657,11.03584722,2.41807840,0.44559954,2.85944900

>  <Name>
1uud_lig

>  <RI>
0

>  <Rbt.Current_Directory>
/home/itssahil/PROJECTS/Mol_Feturizer/New_Systems/rnas/1uud

>  <Rbt.Executable>
rbdock ($Id: //depot/dev/client3/rdock/2013.1/src/exe/rbdock.cxx#4 $)

>  <Rbt.Library>
libRbt.so (2013.1, Build901 2013/11/27)

>  <Rbt.Parameter_File>
/export/apps/rDock/src/rDock_2013.1_src/data/scripts/dock_solv.prm

>  <Rbt.Receptor>
prm/blind_docking_60.prm

>  <SCORE>
-21.4685

>  <SCORE.INTER>
-23.9655

>  <SCORE.INTER.CONST>
1

>  <SCORE.INTER.POLAR>
-4.28546

>  <SCORE.INTER.ROT>
18

>  <SCORE.INTER.SOLV>
9.43924

>  <SCORE.INTER.VDW>
-20.4386

>  <SCORE.INTER.norm>
-0.95862

>  <SCORE.INTRA>
-4.76585

>  <SCORE.INTRA.DIHEDRAL>
-2.39005

>  <SCORE.INTRA.DIHEDRAL.0>
30.6762

>  <SCORE.INTRA.POLAR>
0.00835661

>  <SCORE.INTRA.POLAR.0>
-0.0288659

>  <SCORE.INTRA.REPUL>
0.00192393

>  <SCORE.INTRA.REPUL.0>
0

>  <SCORE.INTRA.SOLV>
1.21083

>  <SCORE.INTRA.SOLV.lig_0>
-25.2195

>  <SCORE.INTRA.VDW>
-4.21427

>  <SCORE.INTRA.VDW.0>
4.14263

>  <SCORE.INTRA.norm>
-0.190634

>  <SCORE.RESTR>
7.26286

>  <SCORE.RESTR.CAVITY>
7.26286

>  <SCORE.RESTR.norm>
0.290514

>  <SCORE.SYSTEM>
0

>  <SCORE.SYSTEM.CONST>
0

>  <SCORE.SYSTEM.DIHEDRAL>
0

>  <SCORE.SYSTEM.SOLV>
0

>  <SCORE.SYSTEM.norm>
0

>  <SCORE.heavy>
25

>  <SCORE.norm>
-0.85874

>  <RMSD>
15.577

$$$$
1uud_lig
 OpenBabel11021811413D
libRbt.so/2013.1/901 2013/11/27
 25 25  0  0  0  0  0  0  0  0999 V2000
   -4.6371  -11.8699   13.1078 C   0  0  0  0  0  0  0  0  0  0  0  0
   -5.3916  -11.3218   10.3270 O   0  0  0  0  0  0  0  0  0  0  0  0
   -6.6268  -11.5102    9.6206 C   0  0  0  0  0  0  0  0  0  0  0  0
   -3.4730  -12.2465   12.2681 N   0  0  0  0  0  0  0  0  0  0  0  0
   -6.5284  -12.7333    8.6989 C   0  0  0  0  0  0  0  0  0  0  0  0
   -2.4460  -11.1795   12.3261 C   0  0  0  0  0  0  0  0  0  0  0  0
   -1.2171  -11.6912   13.0875 C   0  0  0  0  0  0  0  0  0  0  0  0
   -7.6332  -12.8583    8.0028 N   0  0  0  0  0  0  0  0  0  0  0  0
   -8.7857  -13.1378    8.5819 C   0  0  0  0  0  0  0  0  0  0  0  0
   -1.2882  -11.2450   14.5519 C   0  0  0  0  0  0  0  0  0  0  0  0
   -0.2486  -10.1490   14.8038 C   0  0  0  0  0  0  0  0  0  0  0  0
   -8.9318  -14.2291    9.3933 N   0  0  0  0  0  0  0  0  0  0  0  0
   -9.8511  -12.3238    8.3661 N   0  0  0  0  0  0  0  0  0  0  0  0
   -0.6361   -9.0295   14.2401 N   0  0  0  0  0  0  0  0  0  0  0  0
   -0.2644   -7.8552   14.7125 C   0  0  0  0  0  0  0  0  0  0  0  0
   -1.0492   -7.2312   15.6282 N   0  0  0  0  0  0  0  0  0  0  0  0
    0.8857   -7.2482   14.2944 N   0  0  0  0  0  0  0  0  0  0  0  0
   -5.5325  -10.2733   11.2941 C   0  0  0  0  0  0  0  0  0  0  0  0
   -6.0021   -7.1478   14.1684 O   0  0  0  0  0  0  0  0  0  0  0  0
   -5.1824  -10.4990   12.6566 C   0  0  0  0  0  0  0  0  0  0  0  0
   -5.3476   -9.4605   13.6118 C   0  0  0  0  0  0  0  0  0  0  0  0
   -5.8407   -8.1927   13.2057 C   0  0  0  0  0  0  0  0  0  0  0  0
   -6.1717   -7.9605   11.8435 C   0  0  0  0  0  0  0  0  0  0  0  0
   -6.0113   -8.9977   10.8851 C   0  0  0  0  0  0  0  0  0  0  0  0
   -4.8183   -7.0428   14.9646 C   0  0  0  0  0  0  0  0  0  0  0  0
  1  4  1  0  0  0  0
  2  3  1  0  0  0  0
  3  5  1  0  0  0  0
  4  6  1  0  0  0  0
  5  8  1  0  0  0  0
  6  7  1  0  0  0  0
  7 10  1  0  0  0  0
  8  9  1  0  0  0  0
  9 12  1  0  0  0  0
  9 13  1  0  0  0  0
 10 11  1  0  0  0  0
 11 14  1  0  0  0  0
 14 15  1  0  0  0  0
 15 16  1  0  0  0  0
 15 17  1  0  0  0  0
 18  2  1  0  0  0  0
 18 20  2  0  0  0  0
 18 24  1  0  0  0  0
 19 25  1  0  0  0  0
 20  1  1  0  0  0  0
 20 21  1  0  0  0  0
 21 22  2  0  0  0  0
 22 19  1  0  0  0  0
 22 23  1  0  0  0  0
 23 24  2  0  0  0  0
M  END
>  <CHROM.1>
55.81747856,-173.61519595,-176.60681784,111.09570821,-65.77390726,-96.55543178
-107.95103381,-54.50580544,-61.63764813,148.72556900,72.82223048,152.25971749
-91.40555305,-23.51372253,-76.48318227,126.99772151,53.79079108,47.81438106
-4.50664660,-10.31306621,12.17853287,-2.43754043,-0.37355341,0.53483318

>  <Name>
1uud_lig

>  <RI>
0

>  <Rbt.Current_Directory>
/home/itssahil/PROJECTS/Mol_Feturizer/New_Systems/rnas/1uud

>  <Rbt.Executable>
rbdock ($Id: //depot/dev/client3/rdock/2013.1/src/exe/rbdock.cxx#4 $)

>  <Rbt.Library>
libRbt.so (2013.1, Build901 2013/11/27)

>  <Rbt.Parameter_File>
/export/apps/rDock/src/rDock_2013.1_src/data/scripts/dock_solv.prm

>  <Rbt.Receptor>
prm/blind_docking_80.prm

>  <SCORE>
-30.5605

>  <SCORE.INTER>
-27.7325

>  <SCORE.INTER.CONST>
1

>  <SCORE.INTER.POLAR>
-3.6561

>  <SCORE.INTER.ROT>
18

>  <SCORE.INTER.SOLV>
11.518

>  <SCORE.INTER.VDW>
-25.7407

>  <SCORE.INTER.norm>
-1.1093

>  <SCORE.INTRA>
-3.94765

>  <SCORE.INTRA.DIHEDRAL>
-1.15466

>  <SCORE.INTRA.DIHEDRAL.0>
30.6762

>  <SCORE.INTRA.POLAR>
-0.487043

>  <SCORE.INTRA.POLAR.0>
-0.0288659

>  <SCORE.INTRA.REPUL>
0

>  <SCORE.INTRA.REPUL.0>
0

>  <SCORE.INTRA.SOLV>
-0.593926

>  <SCORE.INTRA.SOLV.lig_0>
-25.2195

>  <SCORE.INTRA.VDW>
-1.41741

>  <SCORE.INTRA.VDW.0>
4.14263

>  <SCORE.INTRA.norm>
-0.157906

>  <SCORE.RESTR>
1.11966

>  <SCORE.RESTR.CAVITY>
1.11966

>  <SCORE.RESTR.norm>
0.0447866

>  <SCORE.SYSTEM>
0

>  <SCORE.SYSTEM.CONST>
0

>  <SCORE.SYSTEM.DIHEDRAL>
0

>  <SCORE.SYSTEM.SOLV>
0

>  <SCORE.SYSTEM.norm>
0

>  <SCORE.heavy>
25

>  <SCORE.norm>
-1.22242

>  <RMSD>
15.580

$$$$
1uud_lig
 OpenBabel11021811413D
libRbt.so/2013.1/901 2013/11/27
 25 25  0  0  0  0  0  0  0  0999 V2000
   -5.4494  -10.2303    8.2907 C   0  0  0  0  0  0  0  0  0  0  0  0
   -5.2848  -12.4801   10.1653 O   0  0  0  0  0  0  0  0  0  0  0  0
   -5.5747  -13.4094   11.2201 C   0  0  0  0  0  0  0  0  0  0  0  0
   -6.3794  -11.3574    8.0322 N   0  0  0  0  0  0  0  0  0  0  0  0
   -7.0605  -13.3357   11.5971 C   0  0  0  0  0  0  0  0  0  0  0  0
   -7.7751  -10.9229    8.2768 C   0  0  0  0  0  0  0  0  0  0  0  0
   -8.4449  -11.8827    9.2676 C   0  0  0  0  0  0  0  0  0  0  0  0
   -7.3153  -14.1718   12.5752 N   0  0  0  0  0  0  0  0  0  0  0  0
   -8.1206  -15.2041   12.4084 C   0  0  0  0  0  0  0  0  0  0  0  0
   -8.7620  -13.2114    8.5727 C   0  0  0  0  0  0  0  0  0  0  0  0
   -9.9180  -13.9054    9.2989 C   0  0  0  0  0  0  0  0  0  0  0  0
   -9.4360  -15.0375   12.0730 N   0  0  0  0  0  0  0  0  0  0  0  0
   -7.6320  -16.4602   12.5751 N   0  0  0  0  0  0  0  0  0  0  0  0
  -10.7102  -13.0077    9.8352 N   0  0  0  0  0  0  0  0  0  0  0  0
  -11.4895  -12.2446    9.0930 C   0  0  0  0  0  0  0  0  0  0  0  0
  -12.6426  -11.7618    9.6231 N   0  0  0  0  0  0  0  0  0  0  0  0
  -11.1686  -11.9377    7.8012 N   0  0  0  0  0  0  0  0  0  0  0  0
   -5.2185  -11.1471   10.6880 C   0  0  0  0  0  0  0  0  0  0  0  0
   -4.9743   -7.1834   12.2627 O   0  0  0  0  0  0  0  0  0  0  0  0
   -5.2894  -10.0260    9.8116 C   0  0  0  0  0  0  0  0  0  0  0  0
   -5.1994   -8.7092   10.3372 C   0  0  0  0  0  0  0  0  0  0  0  0
   -5.0605   -8.5098   11.7359 C   0  0  0  0  0  0  0  0  0  0  0  0
   -5.0093   -9.6268   12.6127 C   0  0  0  0  0  0  0  0  0  0  0  0
   -5.0954  -10.9460   12.0909 C   0  0  0  0  0  0  0  0  0  0  0  0
   -3.6054   -6.8586   12.5215 C   0  0  0  0  0  0  0  0  0  0  0  0
  1  4  1  0  0  0  0
  2  3  1  0  0  0  0
  3  5  1  0  0  0  0
  4  6  1  0  0  0  0
  5  8  1  0  0  0  0
  6  7  1  0  0  0  0
  7 10  1  0  0  0  0
  8  9  1  0  0  0  0
  9 12  1  0  0  0  0
  9 13  1  0  0  0  0
 10 11  1  0  0  0  0
 11 14  1  0  0  0  0
 14 15  1  0  0  0  0
 15 16  1  0  0  0  0
 15 17  1  0  0  0  0
 18  2  1  0  0  0  0
 18 20  2  0  0  0  0
 18 24  1  0  0  0  0
 19 25  1  0  0  0  0
 20  1  1  0  0  0  0
 20 21  1  0  0  0  0
 21 22  2  0  0  0  0
 22 19  1  0  0  0  0
 22 23  1  0  0  0  0
 23 24  2  0  0  0  0
M  END
>  <CHROM.1>
75.74115614,76.35077609,-179.02112582,-126.16722900,-115.41863488,-73.75801559
-155.43011692,-61.49163361,18.29393926,-116.83315970,30.08981406,71.05504530
152.60596985,114.87512298,70.79365533,-163.69173111,39.00825824,-99.62727718
-7.38144445,-11.80191145,10.50132017,0.51376531,-0.57460599,-0.50172160

>  <Name>
1uud_lig

>  <RI>
0

>  <Rbt.Current_Directory>
/home/itssahil/PROJECTS/Mol_Feturizer/New_Systems/rnas/1uud

>  <Rbt.Executable>
rbdock ($Id: //depot/dev/client3/rdock/2013.1/src/exe/rbdock.cxx#4 $)

>  <Rbt.Library>
libRbt.so (2013.1, Build901 2013/11/27)

>  <Rbt.Parameter_File>
/export/apps/rDock/src/rDock_2013.1_src/data/scripts/dock_solv.prm

>  <Rbt.Receptor>
prm/blind_docking_60.prm

>  <SCORE>
-3.48653

>  <SCORE.INTER>
-2.02111

>  <SCORE.INTER.CONST>
1

>  <SCORE.INTER.POLAR>
-0.790287

>  <SCORE.INTER.ROT>
18

>  <SCORE.INTER.SOLV>
7.32729

>  <SCORE.INTER.VDW>
-16.7556

>  <SCORE.INTER.norm>
-0.0808446

>  <SCORE.INTRA>
-2.45318

>  <SCORE.INTRA.DIHEDRAL>
-4.35056

>  <SCORE.INTRA.DIHEDRAL.0>
30.6762

>  <SCORE.INTRA.POLAR>
-1.19073

>  <SCORE.INTRA.POLAR.0>
-0.0288659

>  <SCORE.INTRA.REPUL>
0.0788535

>  <SCORE.INTRA.REPUL.0>
0

>  <SCORE.INTRA.SOLV>
1.60703

>  <SCORE.INTRA.SOLV.lig_0>
-25.2195

>  <SCORE.INTRA.VDW>
2.57278

>  <SCORE.INTRA.VDW.0>
4.14263

>  <SCORE.INTRA.norm>
-0.0981273

>  <SCORE.RESTR>
0.987767

>  <SCORE.RESTR.CAVITY>
0.987767

>  <SCORE.RESTR.norm>
0.0395107

>  <SCORE.SYSTEM>
0

>  <SCORE.SYSTEM.CONST>
0

>  <SCORE.SYSTEM.DIHEDRAL>
0

>  <SCORE.SYSTEM.SOLV>
0

>  <SCORE.SYSTEM.norm>
0

>  <SCORE.heavy>
25

>  <SCORE.norm>
-0.139461

>  <RMSD>
15.581

$$$$
1uud_lig
 OpenBabel11021811413D
libRbt.so/2013.1/901 2013/11/27
 25 25  0  0  0  0  0  0  0  0999 V2000
   -4.7561  -12.9219    9.6319 C   0  0  0  0  0  0  0  0  0  0  0  0
   -4.3373  -10.8615   11.6769 O   0  0  0  0  0  0  0  0  0  0  0  0
   -4.6887  -10.1132   10.5035 C   0  0  0  0  0  0  0  0  0  0  0  0
   -5.6926  -12.9987    8.4833 N   0  0  0  0  0  0  0  0  0  0  0  0
   -6.1152   -9.5627   10.6342 C   0  0  0  0  0  0  0  0  0  0  0  0
   -6.6447  -11.8640    8.5350 C   0  0  0  0  0  0  0  0  0  0  0  0
   -8.0483  -12.3547    8.1601 C   0  0  0  0  0  0  0  0  0  0  0  0
   -6.0806   -8.2575   10.7607 N   0  0  0  0  0  0  0  0  0  0  0  0
   -6.2415   -7.4591    9.7221 C   0  0  0  0  0  0  0  0  0  0  0  0
   -8.7987  -12.7995    9.4202 C   0  0  0  0  0  0  0  0  0  0  0  0
  -10.2504  -13.1297    9.0614 C   0  0  0  0  0  0  0  0  0  0  0  0
   -6.9428   -6.2891    9.8219 N   0  0  0  0  0  0  0  0  0  0  0  0
   -5.6995   -7.8082    8.5269 N   0  0  0  0  0  0  0  0  0  0  0  0
  -10.9552  -12.0251    8.9949 N   0  0  0  0  0  0  0  0  0  0  0  0
  -10.9444  -11.2643    7.9172 C   0  0  0  0  0  0  0  0  0  0  0  0
  -11.6936  -11.6256    6.8440 N   0  0  0  0  0  0  0  0  0  0  0  0
  -10.1893  -10.1277    7.8523 N   0  0  0  0  0  0  0  0  0  0  0  0
   -5.3148  -11.8807   11.9219 C   0  0  0  0  0  0  0  0  0  0  0  0
   -8.2645  -14.8832   12.6535 O   0  0  0  0  0  0  0  0  0  0  0  0
   -5.5533  -12.8973   10.9525 C   0  0  0  0  0  0  0  0  0  0  0  0
   -6.5407  -13.8895   11.1949 C   0  0  0  0  0  0  0  0  0  0  0  0
   -7.2741  -13.8809   12.4104 C   0  0  0  0  0  0  0  0  0  0  0  0
   -7.0233  -12.8790   13.3862 C   0  0  0  0  0  0  0  0  0  0  0  0
   -6.0388  -11.8823   13.1465 C   0  0  0  0  0  0  0  0  0  0  0  0
   -9.5645  -14.2864   12.6359 C   0  0  0  0  0  0  0  0  0  0  0  0
  1  4  1  0  0  0  0
  2  3  1  0  0  0  0
  3  5  1  0  0  0  0
  4  6  1  0  0  0  0
  5  8  1  0  0  0  0
  6  7  1  0  0  0  0
  7 10  1  0  0  0  0
  8  9  1  0  0  0  0
  9 12  1  0  0  0  0
  9 13  1  0  0  0  0
 10 11  1  0  0  0  0
 11 14  1  0  0  0  0
 14 15  1  0  0  0  0
 15 16  1  0  0  0  0
 15 17  1  0  0  0  0
 18  2  1  0  0  0  0
 18 20  2  0  0  0  0
 18 24  1  0  0  0  0
 19 25  1  0  0  0  0
 20  1  1  0  0  0  0
 20 21  1  0  0  0  0
 21 22  2  0  0  0  0
 22 19  1  0  0  0  0
 22 23  1  0  0  0  0
 23 24  2  0  0  0  0
M  END
>  <CHROM.1>
56.55329042,54.49563731,110.98118681,-139.09357993,96.10476394,90.47034744
173.32468982,141.83711641,-170.43195322,145.30697250,-81.15003611,81.52931826
78.96710767,-60.37218031,20.04876058,60.53087594,-127.87643758,-111.11865347
-7.39016970,-11.45862944,10.12678047,-0.54013563,0.55256830,2.62654560

>  <Name>
1uud_lig

>  <RI>
0

>  <Rbt.Current_Directory>
/home/itssahil/PROJECTS/Mol_Feturizer/New_Systems/rnas/1uud

>  <Rbt.Executable>
rbdock ($Id: //depot/dev/client3/rdock/2013.1/src/exe/rbdock.cxx#4 $)

>  <Rbt.Library>
libRbt.so (2013.1, Build901 2013/11/27)

>  <Rbt.Parameter_File>
/export/apps/rDock/src/rDock_2013.1_src/data/scripts/dock_solv.prm

>  <Rbt.Receptor>
prm/blind_docking_100.prm

>  <SCORE>
-15.8147

>  <SCORE.INTER>
-14.7157

>  <SCORE.INTER.CONST>
1

>  <SCORE.INTER.POLAR>
-2.90019

>  <SCORE.INTER.ROT>
18

>  <SCORE.INTER.SOLV>
9.42043

>  <SCORE.INTER.VDW>
-18.8833

>  <SCORE.INTER.norm>
-0.58863

>  <SCORE.INTRA>
-1.79134

>  <SCORE.INTRA.DIHEDRAL>
0.187114

>  <SCORE.INTRA.DIHEDRAL.0>
30.6762

>  <SCORE.INTRA.POLAR>
0.0288659

>  <SCORE.INTRA.POLAR.0>
-0.0288659

>  <SCORE.INTRA.REPUL>
0

>  <SCORE.INTRA.REPUL.0>
0

>  <SCORE.INTRA.SOLV>
0.0187755

>  <SCORE.INTRA.SOLV.lig_0>
-25.2195

>  <SCORE.INTRA.VDW>
-1.99243

>  <SCORE.INTRA.VDW.0>
4.14263

>  <SCORE.INTRA.norm>
-0.0716536

>  <SCORE.RESTR>
0.69241

>  <SCORE.RESTR.CAVITY>
0.69241

>  <SCORE.RESTR.norm>
0.0276964

>  <SCORE.SYSTEM>
0

>  <SCORE.SYSTEM.CONST>
0

>  <SCORE.SYSTEM.DIHEDRAL>
0

>  <SCORE.SYSTEM.SOLV>
0

>  <SCORE.SYSTEM.norm>
0

>  <SCORE.heavy>
25

>  <SCORE.norm>
-0.632587

>  <RMSD>
15.622

$$$$
1uud_lig
 OpenBabel11021811413D
libRbt.so/2013.1/901 2013/11/27
 25 25  0  0  0  0  0  0  0  0999 V2000
   -4.8165  -11.6783   10.3892 C   0  0  0  0  0  0  0  0  0  0  0  0
   -6.4777   -9.2961    9.9785 O   0  0  0  0  0  0  0  0  0  0  0  0
   -7.0938   -8.7129   11.1363 C   0  0  0  0  0  0  0  0  0  0  0  0
   -4.6497  -12.5123   11.6052 N   0  0  0  0  0  0  0  0  0  0  0  0
   -6.4656   -7.3456   11.4381 C   0  0  0  0  0  0  0  0  0  0  0  0
   -3.2452  -12.4423   12.0732 C   0  0  0  0  0  0  0  0  0  0  0  0
   -3.0467  -11.1741   12.9122 C   0  0  0  0  0  0  0  0  0  0  0  0
   -5.2953   -7.5075   12.0081 N   0  0  0  0  0  0  0  0  0  0  0  0
   -5.1806   -7.6786   13.3118 C   0  0  0  0  0  0  0  0  0  0  0  0
   -1.6000  -11.1012   13.4125 C   0  0  0  0  0  0  0  0  0  0  0  0
   -1.4244   -9.8594   14.2913 C   0  0  0  0  0  0  0  0  0  0  0  0
   -4.5669   -6.7475   14.1036 N   0  0  0  0  0  0  0  0  0  0  0  0
   -5.6821   -8.8057   13.8795 N   0  0  0  0  0  0  0  0  0  0  0  0
   -0.1498   -9.6575   14.5275 N   0  0  0  0  0  0  0  0  0  0  0  0
    0.3105   -8.4646   14.8526 C   0  0  0  0  0  0  0  0  0  0  0  0
    1.0996   -8.3358   15.9500 N   0  0  0  0  0  0  0  0  0  0  0  0
    0.0034   -7.3553   14.1170 N   0  0  0  0  0  0  0  0  0  0  0  0
   -7.0491  -10.5835    9.7126 C   0  0  0  0  0  0  0  0  0  0  0  0
   -8.7578  -14.4076    8.8715 O   0  0  0  0  0  0  0  0  0  0  0  0
   -6.2751  -11.7659    9.8941 C   0  0  0  0  0  0  0  0  0  0  0  0
   -6.8432  -13.0356    9.6055 C   0  0  0  0  0  0  0  0  0  0  0  0
   -8.1871  -13.1280    9.1573 C   0  0  0  0  0  0  0  0  0  0  0  0
   -8.9660  -11.9508    8.9948 C   0  0  0  0  0  0  0  0  0  0  0  0
   -8.4006  -10.6782    9.2789 C   0  0  0  0  0  0  0  0  0  0  0  0
   -9.8417  -14.6604    9.7702 C   0  0  0  0  0  0  0  0  0  0  0  0
  1  4  1  0  0  0  0
  2  3  1  0  0  0  0
  3  5  1  0  0  0  0
  4  6  1  0  0  0  0
  5  8  1  0  0  0  0
  6  7  1  0  0  0  0
  7 10  1  0  0  0  0
  8  9  1  0  0  0  0
  9 12  1  0  0  0  0
  9 13  1  0  0  0  0
 10 11  1  0  0  0  0
 11 14  1  0  0  0  0
 14 15  1  0  0  0  0
 15 16  1  0  0  0  0
 15 17  1  0  0  0  0
 18  2  1  0  0  0  0
 18 20  2  0  0  0  0
 18 24  1  0  0  0  0
 19 25  1  0  0  0  0
 20  1  1  0  0  0  0
 20 21  1  0  0  0  0
 21 22  2  0  0  0  0
 22 19  1  0  0  0  0
 22 23  1  0  0  0  0
 23 24  2  0  0  0  0
M  END
>  <CHROM.1>
179.33075460,178.96622324,-76.89640328,82.53515258,-85.43752248,179.41853539
-177.93406021,-113.91242268,-113.82852210,69.25897200,-168.84587322,156.81313087
129.14088651,130.09792521,23.70105752,-111.27751170,124.60362270,116.41942058
-4.82178624,-10.30617353,11.89559206,-2.57857374,-0.47720018,0.27478472

>  <Name>
1uud_lig

>  <RI>
0

>  <Rbt.Current_Directory>
/home/itssahil/PROJECTS/Mol_Feturizer/New_Systems/rnas/1uud

>  <Rbt.Executable>
rbdock ($Id: //depot/dev/client3/rdock/2013.1/src/exe/rbdock.cxx#4 $)

>  <Rbt.Library>
libRbt.so (2013.1, Build901 2013/11/27)

>  <Rbt.Parameter_File>
/export/apps/rDock/src/rDock_2013.1_src/data/scripts/dock_solv.prm

>  <Rbt.Receptor>
prm/blind_docking_80.prm

>  <SCORE>
-39.5412

>  <SCORE.INTER>
-30.7112

>  <SCORE.INTER.CONST>
1

>  <SCORE.INTER.POLAR>
-4.62985

>  <SCORE.INTER.ROT>
18

>  <SCORE.INTER.SOLV>
11.4628

>  <SCORE.INTER.VDW>
-24.4622

>  <SCORE.INTER.norm>
-1.22845

>  <SCORE.INTRA>
-9.85329

>  <SCORE.INTRA.DIHEDRAL>
-9.80024

>  <SCORE.INTRA.DIHEDRAL.0>
30.6762

>  <SCORE.INTRA.POLAR>
0.0288659

>  <SCORE.INTRA.POLAR.0>
-0.0288659

>  <SCORE.INTRA.REPUL>
0

>  <SCORE.INTRA.REPUL.0>
0

>  <SCORE.INTRA.SOLV>
-0.730268

>  <SCORE.INTRA.SOLV.lig_0>
-25.2195

>  <SCORE.INTRA.VDW>
-4.68618

>  <SCORE.INTRA.VDW.0>
4.14263

>  <SCORE.INTRA.norm>
-0.394131

>  <SCORE.RESTR>
1.0233

>  <SCORE.RESTR.CAVITY>
1.0233

>  <SCORE.RESTR.norm>
0.0409319

>  <SCORE.SYSTEM>
0

>  <SCORE.SYSTEM.CONST>
0

>  <SCORE.SYSTEM.DIHEDRAL>
0

>  <SCORE.SYSTEM.SOLV>
0

>  <SCORE.SYSTEM.norm>
0

>  <SCORE.heavy>
25

>  <SCORE.norm>
-1.58165

>  <RMSD>
15.622

$$$$
1uud_lig
 OpenBabel11021811413D
libRbt.so/2013.1/901 2013/11/27
 25 25  0  0  0  0  0  0  0  0999 V2000
   -4.7848  -10.8003   12.1253 C   0  0  0  0  0  0  0  0  0  0  0  0
   -5.4989   -8.1489   11.0947 O   0  0  0  0  0  0  0  0  0  0  0  0
   -5.1188   -8.5295    9.7639 C   0  0  0  0  0  0  0  0  0  0  0  0
   -4.1260  -11.4716   10.9775 N   0  0  0  0  0  0  0  0  0  0  0  0
   -5.2727   -7.3387    8.8083 C   0  0  0  0  0  0  0  0  0  0  0  0
   -5.0507  -12.4620   10.3769 C   0  0  0  0  0  0  0  0  0  0  0  0
   -6.1378  -11.7311    9.5797 C   0  0  0  0  0  0  0  0  0  0  0  0
   -6.3723   -6.6804    9.0881 N   0  0  0  0  0  0  0  0  0  0  0  0
   -7.0101   -5.9800    8.1690 C   0  0  0  0  0  0  0  0  0  0  0  0
   -6.7416  -12.6756    8.5346 C   0  0  0  0  0  0  0  0  0  0  0  0
   -8.2182  -12.3286    8.3238 C   0  0  0  0  0  0  0  0  0  0  0  0
   -8.1293   -5.2546    8.4720 N   0  0  0  0  0  0  0  0  0  0  0  0
   -6.5449   -5.9809    6.8931 N   0  0  0  0  0  0  0  0  0  0  0  0
   -8.9003  -12.6056    9.4097 N   0  0  0  0  0  0  0  0  0  0  0  0
   -9.3550  -13.8211    9.6469 C   0  0  0  0  0  0  0  0  0  0  0  0
  -10.3699  -14.3083    8.8877 N   0  0  0  0  0  0  0  0  0  0  0  0
   -8.8357  -14.5964   10.6445 N   0  0  0  0  0  0  0  0  0  0  0  0
   -4.3760   -8.2603   11.9784 C   0  0  0  0  0  0  0  0  0  0  0  0
   -1.0529   -8.5631   14.6460 O   0  0  0  0  0  0  0  0  0  0  0  0
   -3.9983   -9.5288   12.5059 C   0  0  0  0  0  0  0  0  0  0  0  0
   -2.8980   -9.6252   13.3995 C   0  0  0  0  0  0  0  0  0  0  0  0
   -2.1624   -8.4626   13.7497 C   0  0  0  0  0  0  0  0  0  0  0  0
   -2.5262   -7.2001   13.2088 C   0  0  0  0  0  0  0  0  0  0  0  0
   -3.6284   -7.0984   12.3173 C   0  0  0  0  0  0  0  0  0  0  0  0
   -0.1757   -7.4503   14.4494 C   0  0  0  0  0  0  0  0  0  0  0  0
  1  4  1  0  0  0  0
  2  3  1  0  0  0  0
  3  5  1  0  0  0  0
  4  6  1  0  0  0  0
  5  8  1  0  0  0  0
  6  7  1  0  0  0  0
  7 10  1  0  0  0  0
  8  9  1  0  0  0  0
  9 12  1  0  0  0  0
  9 13  1  0  0  0  0
 10 11  1  0  0  0  0
 11 14  1  0  0  0  0
 14 15  1  0  0  0  0
 15 16  1  0  0  0  0
 15 17  1  0  0  0  0
 18  2  1  0  0  0  0
 18 20  2  0  0  0  0
 18 24  1  0  0  0  0
 19 25  1  0  0  0  0
 20  1  1  0  0  0  0
 20 21  1  0  0  0  0
 21 22  2  0  0  0  0
 22 19  1  0  0  0  0
 22 23  1  0  0  0  0
 23 24  2  0  0  0  0
M  END
>  <CHROM.1>
-164.74096071,-117.30267038,-40.57081194,74.19887534,-153.26533385,157.74030039
147.73602053,-177.59176548,-27.58707373,107.88178777,-67.24676889,-84.37633229
-70.10695757,33.82662784,33.10550796,-80.29691196,94.44523331,157.38582922
-5.56283008,-9.66116118,10.62419801,-0.40653047,0.71361751,2.80211218

>  <Name>
1uud_lig

>  <RI>
0

>  <Rbt.Current_Directory>
/home/itssahil/PROJECTS/Mol_Feturizer/New_Systems/rnas/1uud

>  <Rbt.Executable>
rbdock ($Id: //depot/dev/client3/rdock/2013.1/src/exe/rbdock.cxx#4 $)

>  <Rbt.Library>
libRbt.so (2013.1, Build901 2013/11/27)

>  <Rbt.Parameter_File>
/export/apps/rDock/src/rDock_2013.1_src/data/scripts/dock_solv.prm

>  <Rbt.Receptor>
prm/blind_docking_80.prm

>  <SCORE>
-26.0051

>  <SCORE.INTER>
-28.0825

>  <SCORE.INTER.CONST>
1

>  <SCORE.INTER.POLAR>
-3.53756

>  <SCORE.INTER.ROT>
18

>  <SCORE.INTER.SOLV>
11.1213

>  <SCORE.INTER.VDW>
-26.2369

>  <SCORE.INTER.norm>
-1.1233

>  <SCORE.INTRA>
0.412081

>  <SCORE.INTRA.DIHEDRAL>
-0.220712

>  <SCORE.INTRA.DIHEDRAL.0>
30.6762

>  <SCORE.INTRA.POLAR>
-0.083618

>  <SCORE.INTRA.POLAR.0>
-0.0288659

>  <SCORE.INTRA.REPUL>
0

>  <SCORE.INTRA.REPUL.0>
0

>  <SCORE.INTRA.SOLV>
-0.446696

>  <SCORE.INTRA.SOLV.lig_0>
-25.2195

>  <SCORE.INTRA.VDW>
1.03009

>  <SCORE.INTRA.VDW.0>
4.14263

>  <SCORE.INTRA.norm>
0.0164833

>  <SCORE.RESTR>
1.66532

>  <SCORE.RESTR.CAVITY>
1.66532

>  <SCORE.RESTR.norm>
0.0666128

>  <SCORE.SYSTEM>
0

>  <SCORE.SYSTEM.CONST>
0

>  <SCORE.SYSTEM.DIHEDRAL>
0

>  <SCORE.SYSTEM.SOLV>
0

>  <SCORE.SYSTEM.norm>
0

>  <SCORE.heavy>
25

>  <SCORE.norm>
-1.0402

>  <RMSD>
15.625

$$$$
1uud_lig
 OpenBabel11021811413D
libRbt.so/2013.1/901 2013/11/27
 25 25  0  0  0  0  0  0  0  0999 V2000
   -5.7841   -9.4135   12.8354 C   0  0  0  0  0  0  0  0  0  0  0  0
   -7.0822  -10.9639   10.7109 O   0  0  0  0  0  0  0  0  0  0  0  0
   -7.2007  -11.1637    9.2944 C   0  0  0  0  0  0  0  0  0  0  0  0
   -5.5280   -8.2073   12.0096 N   0  0  0  0  0  0  0  0  0  0  0  0
   -6.9421   -9.8466    8.5505 C   0  0  0  0  0  0  0  0  0  0  0  0
   -4.0712   -8.0533   11.7842 C   0  0  0  0  0  0  0  0  0  0  0  0
   -3.4136   -7.4873   13.0487 C   0  0  0  0  0  0  0  0  0  0  0  0
   -5.9133   -9.2288    9.0802 N   0  0  0  0  0  0  0  0  0  0  0  0
   -5.5915   -7.9980    8.7286 C   0  0  0  0  0  0  0  0  0  0  0  0
   -3.2522   -8.5969   14.0934 C   0  0  0  0  0  0  0  0  0  0  0  0
   -2.2323   -8.1609   15.1494 C   0  0  0  0  0  0  0  0  0  0  0  0
   -4.3052   -7.6585    8.4113 N   0  0  0  0  0  0  0  0  0  0  0  0
   -6.5597   -7.0469    8.6823 N   0  0  0  0  0  0  0  0  0  0  0  0
   -1.0227   -8.4906   14.7632 N   0  0  0  0  0  0  0  0  0  0  0  0
    0.0390   -7.8283   15.1813 C   0  0  0  0  0  0  0  0  0  0  0  0
   -0.0126   -6.4736   15.2557 N   0  0  0  0  0  0  0  0  0  0  0  0
    1.1915   -8.4730   15.5310 N   0  0  0  0  0  0  0  0  0  0  0  0
   -5.7825  -11.3700   11.1583 C   0  0  0  0  0  0  0  0  0  0  0  0
   -1.8902  -12.5713   12.4458 O   0  0  0  0  0  0  0  0  0  0  0  0
   -5.1144  -10.6415   12.1845 C   0  0  0  0  0  0  0  0  0  0  0  0
   -3.8166  -11.0382   12.6046 C   0  0  0  0  0  0  0  0  0  0  0  0
   -3.1948  -12.1717   12.0181 C   0  0  0  0  0  0  0  0  0  0  0  0
   -3.8684  -12.9105   11.0084 C   0  0  0  0  0  0  0  0  0  0  0  0
   -5.1654  -12.5151   10.5825 C   0  0  0  0  0  0  0  0  0  0  0  0
   -1.5669  -11.9148   13.6750 C   0  0  0  0  0  0  0  0  0  0  0  0
  1  4  1  0  0  0  0
  2  3  1  0  0  0  0
  3  5  1  0  0  0  0
  4  6  1  0  0  0  0
  5  8  1  0  0  0  0
  6  7  1  0  0  0  0
  7 10  1  0  0  0  0
  8  9  1  0  0  0  0
  9 12  1  0  0  0  0
  9 13  1  0  0  0  0
 10 11  1  0  0  0  0
 11 14  1  0  0  0  0
 14 15  1  0  0  0  0
 15 16  1  0  0  0  0
 15 17  1  0  0  0  0
 18  2  1  0  0  0  0
 18 20  2  0  0  0  0
 18 24  1  0  0  0  0
 19 25  1  0  0  0  0
 20  1  1  0  0  0  0
 20 21  1  0  0  0  0
 21 22  2  0  0  0  0
 22 19  1  0  0  0  0
 22 23  1  0  0  0  0
 23 24  2  0  0  0  0
M  END
>  <CHROM.1>
-53.86463846,-98.03426836,42.91238206,-77.09020899,-171.41366469,77.67739623
162.55541505,-132.13874838,130.66735775,5.71117377,-87.73446464,153.85530392
-41.58400037,-62.40568443,14.66505678,142.97453830,-84.66927406,14.72806227
-3.88353133,-9.53323429,11.95944846,3.00845568,0.76748773,3.08546355

>  <Name>
1uud_lig

>  <RI>
0

>  <Rbt.Current_Directory>
/home/itssahil/PROJECTS/Mol_Feturizer/New_Systems/rnas/1uud

>  <Rbt.Executable>
rbdock ($Id: //depot/dev/client3/rdock/2013.1/src/exe/rbdock.cxx#4 $)

>  <Rbt.Library>
libRbt.so (2013.1, Build901 2013/11/27)

>  <Rbt.Parameter_File>
/export/apps/rDock/src/rDock_2013.1_src/data/scripts/dock_solv.prm

>  <Rbt.Receptor>
prm/blind_docking_40.prm

>  <SCORE>
-31.2092

>  <SCORE.INTER>
-32.6455

>  <SCORE.INTER.CONST>
1

>  <SCORE.INTER.POLAR>
-5.199

>  <SCORE.INTER.ROT>
18

>  <SCORE.INTER.SOLV>
10.5682

>  <SCORE.INTER.VDW>
-23.5564

>  <SCORE.INTER.norm>
-1.30582

>  <SCORE.INTRA>
1.2343

>  <SCORE.INTRA.DIHEDRAL>
-6.68172

>  <SCORE.INTRA.DIHEDRAL.0>
30.6762

>  <SCORE.INTRA.POLAR>
-0.638244

>  <SCORE.INTRA.POLAR.0>
-0.0288659

>  <SCORE.INTRA.REPUL>
0

>  <SCORE.INTRA.REPUL.0>
0

>  <SCORE.INTRA.SOLV>
1.30881

>  <SCORE.INTRA.SOLV.lig_0>
-25.2195

>  <SCORE.INTRA.VDW>
6.09079

>  <SCORE.INTRA.VDW.0>
4.14263

>  <SCORE.INTRA.norm>
0.0493721

>  <SCORE.RESTR>
0.20194

>  <SCORE.RESTR.CAVITY>
0.20194

>  <SCORE.RESTR.norm>
0.0080776

>  <SCORE.SYSTEM>
0

>  <SCORE.SYSTEM.CONST>
0

>  <SCORE.SYSTEM.DIHEDRAL>
0

>  <SCORE.SYSTEM.SOLV>
0

>  <SCORE.SYSTEM.norm>
0

>  <SCORE.heavy>
25

>  <SCORE.norm>
-1.24837

>  <RMSD>
15.632

$$$$
1uud_lig
 OpenBabel11021811413D
libRbt.so/2013.1/901 2013/11/27
 25 25  0  0  0  0  0  0  0  0999 V2000
   -4.7612  -11.3133   10.6789 C   0  0  0  0  0  0  0  0  0  0  0  0
   -6.1912   -9.2917   12.2508 O   0  0  0  0  0  0  0  0  0  0  0  0
   -6.3748   -7.9033   11.9364 C   0  0  0  0  0  0  0  0  0  0  0  0
   -6.2016  -11.4991   10.9837 N   0  0  0  0  0  0  0  0  0  0  0  0
   -6.4602   -7.7114   10.4162 C   0  0  0  0  0  0  0  0  0  0  0  0
   -6.8991  -12.0485    9.7970 C   0  0  0  0  0  0  0  0  0  0  0  0
   -8.0034  -11.0796    9.3571 C   0  0  0  0  0  0  0  0  0  0  0  0
   -5.3674   -8.1616    9.8470 N   0  0  0  0  0  0  0  0  0  0  0  0
   -5.2142   -8.1430    8.5362 C   0  0  0  0  0  0  0  0  0  0  0  0
   -8.7589  -11.6607    8.1569 C   0  0  0  0  0  0  0  0  0  0  0  0
  -10.0196  -10.8315    7.8957 C   0  0  0  0  0  0  0  0  0  0  0  0
   -5.5713   -9.2108    7.7597 N   0  0  0  0  0  0  0  0  0  0  0  0
   -4.6888   -7.0388    7.9455 N   0  0  0  0  0  0  0  0  0  0  0  0
  -10.6391  -11.2859    6.8322 N   0  0  0  0  0  0  0  0  0  0  0  0
  -10.6759  -10.5959    5.7084 C   0  0  0  0  0  0  0  0  0  0  0  0
   -9.5293  -10.4164    5.0036 N   0  0  0  0  0  0  0  0  0  0  0  0
  -11.8383  -10.0495    5.2430 N   0  0  0  0  0  0  0  0  0  0  0  0
   -4.8148   -9.5494   12.5567 C   0  0  0  0  0  0  0  0  0  0  0  0
   -0.7260  -10.3332   13.5148 O   0  0  0  0  0  0  0  0  0  0  0  0
   -4.0848  -10.5271   11.8210 C   0  0  0  0  0  0  0  0  0  0  0  0
   -2.7277  -10.7916   12.1474 C   0  0  0  0  0  0  0  0  0  0  0  0
   -2.0932  -10.0679   13.1911 C   0  0  0  0  0  0  0  0  0  0  0  0
   -2.8148   -9.0790   13.9125 C   0  0  0  0  0  0  0  0  0  0  0  0
   -4.1737   -8.8135   13.5917 C   0  0  0  0  0  0  0  0  0  0  0  0
   -0.5368  -10.2162   14.9280 C   0  0  0  0  0  0  0  0  0  0  0  0
  1  4  1  0  0  0  0
  2  3  1  0  0  0  0
  3  5  1  0  0  0  0
  4  6  1  0  0  0  0
  5  8  1  0  0  0  0
  6  7  1  0  0  0  0
  7 10  1  0  0  0  0
  8  9  1  0  0  0  0
  9 12  1  0  0  0  0
  9 13  1  0  0  0  0
 10 11  1  0  0  0  0
 11 14  1  0  0  0  0
 14 15  1  0  0  0  0
 15 16  1  0  0  0  0
 15 17  1  0  0  0  0
 18  2  1  0  0  0  0
 18 20  2  0  0  0  0
 18 24  1  0  0  0  0
 19 25  1  0  0  0  0
 20  1  1  0  0  0  0
 20 21  1  0  0  0  0
 21 22  2  0  0  0  0
 22 19  1  0  0  0  0
 22 23  1  0  0  0  0
 23 24  2  0  0  0  0
M  END
>  <CHROM.1>
170.55752336,101.04424611,-58.50766790,-120.32227692,178.08938699,-178.23208865
169.05167205,-91.86538717,130.08426313,-64.27795599,177.12859454,-109.98516870
68.01297890,-126.19661672,-53.59988688,-123.10342944,-31.91666242,-143.91188475
-6.03091437,-9.90101852,10.06699896,0.35700101,0.66759918,2.49180687

>  <Name>
1uud_lig

>  <RI>
0

>  <Rbt.Current_Directory>
/home/itssahil/PROJECTS/Mol_Feturizer/New_Systems/rnas/1uud

>  <Rbt.Executable>
rbdock ($Id: //depot/dev/client3/rdock/2013.1/src/exe/rbdock.cxx#4 $)

>  <Rbt.Library>
libRbt.so (2013.1, Build901 2013/11/27)

>  <Rbt.Parameter_File>
/export/apps/rDock/src/rDock_2013.1_src/data/scripts/dock_solv.prm

>  <Rbt.Receptor>
prm/blind_docking_40.prm

>  <SCORE>
-22.3199

>  <SCORE.INTER>
-16.6526

>  <SCORE.INTER.CONST>
1

>  <SCORE.INTER.POLAR>
-2.96966

>  <SCORE.INTER.ROT>
18

>  <SCORE.INTER.SOLV>
8.77595

>  <SCORE.INTER.VDW>
-19.7282

>  <SCORE.INTER.norm>
-0.666105

>  <SCORE.INTRA>
-7.56452

>  <SCORE.INTRA.DIHEDRAL>
-5.4492

>  <SCORE.INTRA.DIHEDRAL.0>
30.6762

>  <SCORE.INTRA.POLAR>
-0.685437

>  <SCORE.INTRA.POLAR.0>
-0.0288659

>  <SCORE.INTRA.REPUL>
0

>  <SCORE.INTRA.REPUL.0>
0

>  <SCORE.INTRA.SOLV>
0.860083

>  <SCORE.INTRA.SOLV.lig_0>
-25.2195

>  <SCORE.INTRA.VDW>
-2.93947

>  <SCORE.INTRA.VDW.0>
4.14263

>  <SCORE.INTRA.norm>
-0.302581

>  <SCORE.RESTR>
1.89722

>  <SCORE.RESTR.CAVITY>
1.89722

>  <SCORE.RESTR.norm>
0.0758889

>  <SCORE.SYSTEM>
0

>  <SCORE.SYSTEM.CONST>
0

>  <SCORE.SYSTEM.DIHEDRAL>
0

>  <SCORE.SYSTEM.SOLV>
0

>  <SCORE.SYSTEM.norm>
0

>  <SCORE.heavy>
25

>  <SCORE.norm>
-0.892797

>  <RMSD>
15.633

$$$$
1uud_lig
 OpenBabel11021811413D
libRbt.so/2013.1/901 2013/11/27
 25 25  0  0  0  0  0  0  0  0999 V2000
   -5.6213   -8.4402   11.5114 C   0  0  0  0  0  0  0  0  0  0  0  0
   -6.9862  -10.8887   10.6485 O   0  0  0  0  0  0  0  0  0  0  0  0
   -6.6659  -10.4478    9.3206 C   0  0  0  0  0  0  0  0  0  0  0  0
   -6.4670   -7.9308   12.6192 N   0  0  0  0  0  0  0  0  0  0  0  0
   -7.9042  -10.5406    8.4189 C   0  0  0  0  0  0  0  0  0  0  0  0
   -5.7792   -8.1437   13.9147 C   0  0  0  0  0  0  0  0  0  0  0  0
   -4.8123   -6.9832   14.1788 C   0  0  0  0  0  0  0  0  0  0  0  0
   -7.7982  -11.5752    7.6194 N   0  0  0  0  0  0  0  0  0  0  0  0
   -7.4300  -12.7601    8.0693 C   0  0  0  0  0  0  0  0  0  0  0  0
   -3.3918   -7.3841   13.7665 C   0  0  0  0  0  0  0  0  0  0  0  0
   -2.6558   -7.9736   14.9732 C   0  0  0  0  0  0  0  0  0  0  0  0
   -6.6707  -13.6082    7.3111 N   0  0  0  0  0  0  0  0  0  0  0  0
   -7.8151  -13.1463    9.3130 N   0  0  0  0  0  0  0  0  0  0  0  0
   -1.5372   -8.5360   14.5815 N   0  0  0  0  0  0  0  0  0  0  0  0
   -0.3635   -7.9961   14.8489 C   0  0  0  0  0  0  0  0  0  0  0  0
    0.7058   -8.8062   15.0586 N   0  0  0  0  0  0  0  0  0  0  0  0
   -0.2016   -6.6421   14.9298 N   0  0  0  0  0  0  0  0  0  0  0  0
   -5.7900  -11.0103   11.4289 C   0  0  0  0  0  0  0  0  0  0  0  0
   -2.2025  -11.3961   13.7160 O   0  0  0  0  0  0  0  0  0  0  0  0
   -5.0932   -9.8462   11.8640 C   0  0  0  0  0  0  0  0  0  0  0  0
   -3.8958   -9.9777   12.6172 C   0  0  0  0  0  0  0  0  0  0  0  0
   -3.4056  -11.2667   12.9543 C   0  0  0  0  0  0  0  0  0  0  0  0
   -4.1105  -12.4279   12.5374 C   0  0  0  0  0  0  0  0  0  0  0  0
   -5.3068  -12.3012   11.7806 C   0  0  0  0  0  0  0  0  0  0  0  0
   -1.1366  -11.8181   12.8602 C   0  0  0  0  0  0  0  0  0  0  0  0
  1  4  1  0  0  0  0
  2  3  1  0  0  0  0
  3  5  1  0  0  0  0
  4  6  1  0  0  0  0
  5  8  1  0  0  0  0
  6  7  1  0  0  0  0
  7 10  1  0  0  0  0
  8  9  1  0  0  0  0
  9 12  1  0  0  0  0
  9 13  1  0  0  0  0
 10 11  1  0  0  0  0
 11 14  1  0  0  0  0
 14 15  1  0  0  0  0
 15 16  1  0  0  0  0
 15 17  1  0  0  0  0
 18  2  1  0  0  0  0
 18 20  2  0  0  0  0
 18 24  1  0  0  0  0
 19 25  1  0  0  0  0
 20  1  1  0  0  0  0
 20 21  1  0  0  0  0
 21 22  2  0  0  0  0
 22 19  1  0  0  0  0
 22 23  1  0  0  0  0
 23 24  2  0  0  0  0
M  END
>  <CHROM.1>
47.02031122,170.58687091,-104.57849183,84.54823210,46.75001632,-97.70633287
-92.18680594,-145.44621419,-23.53186547,-159.52352032,168.71713793,108.33968749
147.29130845,-168.55369009,-78.43766830,71.95516667,94.14214121,-105.33115259
-4.47440818,-10.06614427,12.02444781,2.39884898,0.50348489,-2.62666342

>  <Name>
1uud_lig

>  <RI>
0

>  <Rbt.Current_Directory>
/home/itssahil/PROJECTS/Mol_Feturizer/New_Systems/rnas/1uud

>  <Rbt.Executable>
rbdock ($Id: //depot/dev/client3/rdock/2013.1/src/exe/rbdock.cxx#4 $)

>  <Rbt.Library>
libRbt.so (2013.1, Build901 2013/11/27)

>  <Rbt.Parameter_File>
/export/apps/rDock/src/rDock_2013.1_src/data/scripts/dock_solv.prm

>  <Rbt.Receptor>
prm/blind_docking_40.prm

>  <SCORE>
-39.8217

>  <SCORE.INTER>
-39.3346

>  <SCORE.INTER.CONST>
1

>  <SCORE.INTER.POLAR>
-6.26808

>  <SCORE.INTER.ROT>
18

>  <SCORE.INTER.SOLV>
11.2844

>  <SCORE.INTER.VDW>
-24.6909

>  <SCORE.INTER.norm>
-1.57339

>  <SCORE.INTRA>
-0.64265

>  <SCORE.INTRA.DIHEDRAL>
2.93296

>  <SCORE.INTRA.DIHEDRAL.0>
30.6762

>  <SCORE.INTRA.POLAR>
-0.75262

>  <SCORE.INTRA.POLAR.0>
-0.0288659

>  <SCORE.INTRA.REPUL>
0

>  <SCORE.INTRA.REPUL.0>
0

>  <SCORE.INTRA.SOLV>
0.928224

>  <SCORE.INTRA.SOLV.lig_0>
-25.2195

>  <SCORE.INTRA.VDW>
-0.0143357

>  <SCORE.INTRA.VDW.0>
4.14263

>  <SCORE.INTRA.norm>
-0.025706

>  <SCORE.RESTR>
0.155631

>  <SCORE.RESTR.CAVITY>
0.155631

>  <SCORE.RESTR.norm>
0.00622524

>  <SCORE.SYSTEM>
0

>  <SCORE.SYSTEM.CONST>
0

>  <SCORE.SYSTEM.DIHEDRAL>
0

>  <SCORE.SYSTEM.SOLV>
0

>  <SCORE.SYSTEM.norm>
0

>  <SCORE.heavy>
25

>  <SCORE.norm>
-1.59287

>  <RMSD>
15.638

$$$$
1uud_lig
 OpenBabel11021811413D
libRbt.so/2013.1/901 2013/11/27
 25 25  0  0  0  0  0  0  0  0999 V2000
   -4.5637  -11.0102   12.1006 C   0  0  0  0  0  0  0  0  0  0  0  0
   -6.4552   -9.3518   13.6088 O   0  0  0  0  0  0  0  0  0  0  0  0
   -5.3211   -8.9235   14.3774 C   0  0  0  0  0  0  0  0  0  0  0  0
   -4.4868  -12.1465   11.1493 N   0  0  0  0  0  0  0  0  0  0  0  0
   -5.2539   -7.3907   14.4127 C   0  0  0  0  0  0  0  0  0  0  0  0
   -5.7051  -12.9824   11.2661 C   0  0  0  0  0  0  0  0  0  0  0  0
   -6.7659  -12.4838   10.2774 C   0  0  0  0  0  0  0  0  0  0  0  0
   -4.8383   -6.9349   13.2549 N   0  0  0  0  0  0  0  0  0  0  0  0
   -3.5890   -7.0929   12.8594 C   0  0  0  0  0  0  0  0  0  0  0  0
   -7.9739  -13.4268   10.2896 C   0  0  0  0  0  0  0  0  0  0  0  0
   -8.8024  -13.2135    9.0194 C   0  0  0  0  0  0  0  0  0  0  0  0
   -3.1536   -6.6089   11.6566 N   0  0  0  0  0  0  0  0  0  0  0  0
   -2.7167   -7.7523   13.6646 N   0  0  0  0  0  0  0  0  0  0  0  0
   -9.6628  -12.2410    9.2069 N   0  0  0  0  0  0  0  0  0  0  0  0
   -9.6288  -11.1407    8.4797 C   0  0  0  0  0  0  0  0  0  0  0  0
   -8.4754  -10.4277    8.4110 N   0  0  0  0  0  0  0  0  0  0  0  0
  -10.7295  -10.6971    7.8030 N   0  0  0  0  0  0  0  0  0  0  0  0
   -6.2468   -9.0625   12.2205 C   0  0  0  0  0  0  0  0  0  0  0  0
   -5.6075   -8.1547    8.0953 O   0  0  0  0  0  0  0  0  0  0  0  0
   -5.3328   -9.8402   11.4525 C   0  0  0  0  0  0  0  0  0  0  0  0
   -5.1159   -9.5307   10.0831 C   0  0  0  0  0  0  0  0  0  0  0  0
   -5.8246   -8.4615    9.4748 C   0  0  0  0  0  0  0  0  0  0  0  0
   -6.7508   -7.6977   10.2349 C   0  0  0  0  0  0  0  0  0  0  0  0
   -6.9683   -8.0015   11.6062 C   0  0  0  0  0  0  0  0  0  0  0  0
   -5.4572   -6.7409    7.9367 C   0  0  0  0  0  0  0  0  0  0  0  0
  1  4  1  0  0  0  0
  2  3  1  0  0  0  0
  3  5  1  0  0  0  0
  4  6  1  0  0  0  0
  5  8  1  0  0  0  0
  6  7  1  0  0  0  0
  7 10  1  0  0  0  0
  8  9  1  0  0  0  0
  9 12  1  0  0  0  0
  9 13  1  0  0  0  0
 10 11  1  0  0  0  0
 11 14  1  0  0  0  0
 14 15  1  0  0  0  0
 15 16  1  0  0  0  0
 15 17  1  0  0  0  0
 18  2  1  0  0  0  0
 18 20  2  0  0  0  0
 18 24  1  0  0  0  0
 19 25  1  0  0  0  0
 20  1  1  0  0  0  0
 20 21  1  0  0  0  0
 21 22  2  0  0  0  0
 22 19  1  0  0  0  0
 22 23  1  0  0  0  0
 23 24  2  0  0  0  0
M  END
>  <CHROM.1>
-85.90733255,69.81202965,-74.48473843,90.98111310,-70.84130916,174.30104395
-161.53040865,-179.50589026,-67.61362065,113.64776372,-86.66974527,118.44956340
-54.72398789,-132.80826311,156.21713605,73.60026025,140.46619477,-134.48714554
-6.21275045,-9.65063275,10.89695425,-0.20798999,0.88089191,2.59813931

>  <Name>
1uud_lig

>  <RI>
0

>  <Rbt.Current_Directory>
/home/itssahil/PROJECTS/Mol_Feturizer/New_Systems/rnas/1uud

>  <Rbt.Executable>
rbdock ($Id: //depot/dev/client3/rdock/2013.1/src/exe/rbdock.cxx#4 $)

>  <Rbt.Library>
libRbt.so (2013.1, Build901 2013/11/27)

>  <Rbt.Parameter_File>
/export/apps/rDock/src/rDock_2013.1_src/data/scripts/dock_solv.prm

>  <Rbt.Receptor>
prm/blind_docking_60.prm

>  <SCORE>
-22.7327

>  <SCORE.INTER>
-20.6491

>  <SCORE.INTER.CONST>
1

>  <SCORE.INTER.POLAR>
-2.58592

>  <SCORE.INTER.ROT>
18

>  <SCORE.INTER.SOLV>
11.8775

>  <SCORE.INTER.VDW>
-24.7055

>  <SCORE.INTER.norm>
-0.825962

>  <SCORE.INTRA>
-4.23024

>  <SCORE.INTRA.DIHEDRAL>
-5.24372

>  <SCORE.INTRA.DIHEDRAL.0>
30.6762

>  <SCORE.INTRA.POLAR>
0.0288659

>  <SCORE.INTRA.POLAR.0>
-0.0288659

>  <SCORE.INTRA.REPUL>
0

>  <SCORE.INTRA.REPUL.0>
0

>  <SCORE.INTRA.SOLV>
1.73177

>  <SCORE.INTRA.SOLV.lig_0>
-25.2195

>  <SCORE.INTRA.VDW>
-2.57241

>  <SCORE.INTRA.VDW.0>
4.14263

>  <SCORE.INTRA.norm>
-0.16921

>  <SCORE.RESTR>
2.14657

>  <SCORE.RESTR.CAVITY>
2.14657

>  <SCORE.RESTR.norm>
0.085863

>  <SCORE.SYSTEM>
0

>  <SCORE.SYSTEM.CONST>
0

>  <SCORE.SYSTEM.DIHEDRAL>
0

>  <SCORE.SYSTEM.SOLV>
0

>  <SCORE.SYSTEM.norm>
0

>  <SCORE.heavy>
25

>  <SCORE.norm>
-0.909309

>  <RMSD>
15.664

$$$$
1uud_lig
 OpenBabel11021811413D
libRbt.so/2013.1/901 2013/11/27
 25 25  0  0  0  0  0  0  0  0999 V2000
   -6.6063  -12.3942    8.9435 C   0  0  0  0  0  0  0  0  0  0  0  0
   -5.3851  -10.4509   10.7696 O   0  0  0  0  0  0  0  0  0  0  0  0
   -5.9322   -9.2038   11.2232 C   0  0  0  0  0  0  0  0  0  0  0  0
   -7.8284  -12.9312    8.2952 N   0  0  0  0  0  0  0  0  0  0  0  0
   -5.0409   -8.0391   10.7712 C   0  0  0  0  0  0  0  0  0  0  0  0
   -8.7017  -11.8131    7.8662 C   0  0  0  0  0  0  0  0  0  0  0  0
   -9.4105  -11.2178    9.0887 C   0  0  0  0  0  0  0  0  0  0  0  0
   -4.8468   -8.1017    9.4754 N   0  0  0  0  0  0  0  0  0  0  0  0
   -5.3537   -7.1985    8.6573 C   0  0  0  0  0  0  0  0  0  0  0  0
  -10.9145  -11.1060    8.8160 C   0  0  0  0  0  0  0  0  0  0  0  0
  -11.6254  -12.3529    9.3497 C   0  0  0  0  0  0  0  0  0  0  0  0
   -4.6112   -6.6530    7.6465 N   0  0  0  0  0  0  0  0  0  0  0  0
   -6.6415   -6.8009    8.8240 N   0  0  0  0  0  0  0  0  0  0  0  0
  -11.2752  -13.4018    8.6437 N   0  0  0  0  0  0  0  0  0  0  0  0
  -11.0254  -14.5647    9.2143 C   0  0  0  0  0  0  0  0  0  0  0  0
   -9.8939  -14.7117    9.9504 N   0  0  0  0  0  0  0  0  0  0  0  0
  -11.8730  -15.6267    9.0733 N   0  0  0  0  0  0  0  0  0  0  0  0
   -6.1239  -11.5448   11.3281 C   0  0  0  0  0  0  0  0  0  0  0  0
   -8.3588  -14.7725   13.0127 O   0  0  0  0  0  0  0  0  0  0  0  0
   -6.7374  -12.5083   10.4764 C   0  0  0  0  0  0  0  0  0  0  0  0
   -7.4871  -13.5758   11.0392 C   0  0  0  0  0  0  0  0  0  0  0  0
   -7.6071  -13.6948   12.4488 C   0  0  0  0  0  0  0  0  0  0  0  0
   -6.9793  -12.7455   13.2994 C   0  0  0  0  0  0  0  0  0  0  0  0
   -6.2313  -11.6739   12.7407 C   0  0  0  0  0  0  0  0  0  0  0  0
   -7.8471  -16.0180   12.5295 C   0  0  0  0  0  0  0  0  0  0  0  0
  1  4  1  0  0  0  0
  2  3  1  0  0  0  0
  3  5  1  0  0  0  0
  4  6  1  0  0  0  0
  5  8  1  0  0  0  0
  6  7  1  0  0  0  0
  7 10  1  0  0  0  0
  8  9  1  0  0  0  0
  9 12  1  0  0  0  0
  9 13  1  0  0  0  0
 10 11  1  0  0  0  0
 11 14  1  0  0  0  0
 14 15  1  0  0  0  0
 15 16  1  0  0  0  0
 15 17  1  0  0  0  0
 18  2  1  0  0  0  0
 18 20  2  0  0  0  0
 18 24  1  0  0  0  0
 19 25  1  0  0  0  0
 20  1  1  0  0  0  0
 20 21  1  0  0  0  0
 21 22  2  0  0  0  0
 22 19  1  0  0  0  0
 22 23  1  0  0  0  0
 23 24  2  0  0  0  0
M  END
>  <CHROM.1>
101.66390663,172.94895492,53.28945849,-75.54527882,112.04289718,-130.11569681
94.05843053,135.47159924,23.83978057,-46.40026776,-67.59100546,138.77755723
-71.38680265,52.72036139,127.33996341,122.77423510,-148.17885099,55.72407287
-7.79713362,-11.71787952,10.08235010,0.77560650,-0.63375211,-0.67716525

>  <Name>
1uud_lig

>  <RI>
0

>  <Rbt.Current_Directory>
/home/itssahil/PROJECTS/Mol_Feturizer/New_Systems/rnas/1uud

>  <Rbt.Executable>
rbdock ($Id: //depot/dev/client3/rdock/2013.1/src/exe/rbdock.cxx#4 $)

>  <Rbt.Library>
libRbt.so (2013.1, Build901 2013/11/27)

>  <Rbt.Parameter_File>
/export/apps/rDock/src/rDock_2013.1_src/data/scripts/dock_solv.prm

>  <Rbt.Receptor>
prm/blind_docking_100.prm

>  <SCORE>
-22.4017

>  <SCORE.INTER>
-19.8475

>  <SCORE.INTER.CONST>
1

>  <SCORE.INTER.POLAR>
-3.50732

>  <SCORE.INTER.ROT>
18

>  <SCORE.INTER.SOLV>
9.50312

>  <SCORE.INTER.VDW>
-20.3083

>  <SCORE.INTER.norm>
-0.793901

>  <SCORE.INTRA>
-4.60211

>  <SCORE.INTRA.DIHEDRAL>
-0.82371

>  <SCORE.INTRA.DIHEDRAL.0>
30.6762

>  <SCORE.INTRA.POLAR>
-0.64808

>  <SCORE.INTRA.POLAR.0>
-0.0288659

>  <SCORE.INTRA.REPUL>
0

>  <SCORE.INTRA.REPUL.0>
0

>  <SCORE.INTRA.SOLV>
1.19671

>  <SCORE.INTRA.SOLV.lig_0>
-25.2195

>  <SCORE.INTRA.VDW>
-2.58514

>  <SCORE.INTRA.VDW.0>
4.14263

>  <SCORE.INTRA.norm>
-0.184084

>  <SCORE.RESTR>
2.0479

>  <SCORE.RESTR.CAVITY>
2.0479

>  <SCORE.RESTR.norm>
0.081916

>  <SCORE.SYSTEM>
0

>  <SCORE.SYSTEM.CONST>
0

>  <SCORE.SYSTEM.DIHEDRAL>
0

>  <SCORE.SYSTEM.SOLV>
0

>  <SCORE.SYSTEM.norm>
0

>  <SCORE.heavy>
25

>  <SCORE.norm>
-0.896069

>  <RMSD>
15.683

$$$$
1uud_lig
 OpenBabel11021811413D
libRbt.so/2013.1/901 2013/11/27
 25 25  0  0  0  0  0  0  0  0999 V2000
   -5.7041  -12.5135   12.5010 C   0  0  0  0  0  0  0  0  0  0  0  0
   -5.9096  -10.3933   10.4847 O   0  0  0  0  0  0  0  0  0  0  0  0
   -6.5371   -9.2531    9.8794 C   0  0  0  0  0  0  0  0  0  0  0  0
   -4.3315  -12.8510   12.0493 N   0  0  0  0  0  0  0  0  0  0  0  0
   -6.1195   -7.9693   10.6092 C   0  0  0  0  0  0  0  0  0  0  0  0
   -3.5512  -11.6081   11.8420 C   0  0  0  0  0  0  0  0  0  0  0  0
   -3.2465  -10.9616   13.1988 C   0  0  0  0  0  0  0  0  0  0  0  0
   -4.9076   -8.1044   11.0928 N   0  0  0  0  0  0  0  0  0  0  0  0
   -4.3950   -7.2195   11.9272 C   0  0  0  0  0  0  0  0  0  0  0  0
   -1.7341  -10.7717   13.3577 C   0  0  0  0  0  0  0  0  0  0  0  0
   -1.4535   -9.9097   14.5919 C   0  0  0  0  0  0  0  0  0  0  0  0
   -5.1247   -6.7103   12.9659 N   0  0  0  0  0  0  0  0  0  0  0  0
   -3.1144   -6.8043   11.7493 N   0  0  0  0  0  0  0  0  0  0  0  0
   -0.1741   -9.6264   14.6559 N   0  0  0  0  0  0  0  0  0  0  0  0
    0.2493   -8.4048   14.9182 C   0  0  0  0  0  0  0  0  0  0  0  0
   -0.3447   -7.3513   14.3011 N   0  0  0  0  0  0  0  0  0  0  0  0
    1.2775   -8.1762   15.7881 N   0  0  0  0  0  0  0  0  0  0  0  0
   -6.7521  -11.5457   10.3549 C   0  0  0  0  0  0  0  0  0  0  0  0
   -9.2404  -14.9914    9.9242 O   0  0  0  0  0  0  0  0  0  0  0  0
   -6.6803  -12.6009   11.3096 C   0  0  0  0  0  0  0  0  0  0  0  0
   -7.5029  -13.7493   11.1591 C   0  0  0  0  0  0  0  0  0  0  0  0
   -8.4107  -13.8362   10.0710 C   0  0  0  0  0  0  0  0  0  0  0  0
   -8.4969  -12.7757    9.1293 C   0  0  0  0  0  0  0  0  0  0  0  0
   -7.6733  -11.6264    9.2739 C   0  0  0  0  0  0  0  0  0  0  0  0
  -10.5109  -14.7497   10.5359 C   0  0  0  0  0  0  0  0  0  0  0  0
  1  4  1  0  0  0  0
  2  3  1  0  0  0  0
  3  5  1  0  0  0  0
  4  6  1  0  0  0  0
  5  8  1  0  0  0  0
  6  7  1  0  0  0  0
  7 10  1  0  0  0  0
  8  9  1  0  0  0  0
  9 12  1  0  0  0  0
  9 13  1  0  0  0  0
 10 11  1  0  0  0  0
 11 14  1  0  0  0  0
 14 15  1  0  0  0  0
 15 16  1  0  0  0  0
 15 17  1  0  0  0  0
 18  2  1  0  0  0  0
 18 20  2  0  0  0  0
 18 24  1  0  0  0  0
 19 25  1  0  0  0  0
 20  1  1  0  0  0  0
 20 21  1  0  0  0  0
 21 22  2  0  0  0  0
 22 19  1  0  0  0  0
 22 23  1  0  0  0  0
 23 24  2  0  0  0  0
M  END
>  <CHROM.1>
100.30201010,149.18415866,30.72323294,70.58803590,-169.92333241,123.96920919
170.09914970,43.81604507,135.49776515,-26.27648856,-173.44720611,134.58485857
-43.92456220,46.08627899,134.51252597,-152.57194656,-78.62297122,94.39336823
-4.72096181,-10.50924711,11.96244980,-2.70806228,-0.57576311,-0.18241500

>  <Name>
1uud_lig

>  <RI>
0

>  <Rbt.Current_Directory>
/home/itssahil/PROJECTS/Mol_Feturizer/New_Systems/rnas/1uud

>  <Rbt.Executable>
rbdock ($Id: //depot/dev/client3/rdock/2013.1/src/exe/rbdock.cxx#4 $)

>  <Rbt.Library>
libRbt.so (2013.1, Build901 2013/11/27)

>  <Rbt.Parameter_File>
/export/apps/rDock/src/rDock_2013.1_src/data/scripts/dock_solv.prm

>  <Rbt.Receptor>
prm/blind_docking_40.prm

>  <SCORE>
-39.0368

>  <SCORE.INTER>
-38.304

>  <SCORE.INTER.CONST>
1

>  <SCORE.INTER.POLAR>
-5.90444

>  <SCORE.INTER.ROT>
18

>  <SCORE.INTER.SOLV>
11.9419

>  <SCORE.INTER.VDW>
-25.4352

>  <SCORE.INTER.norm>
-1.53216

>  <SCORE.INTRA>
-1.04247

>  <SCORE.INTRA.DIHEDRAL>
0.839476

>  <SCORE.INTRA.DIHEDRAL.0>
30.6762

>  <SCORE.INTRA.POLAR>
-0.00708632

>  <SCORE.INTRA.POLAR.0>
-0.0288659

>  <SCORE.INTRA.REPUL>
0.061795

>  <SCORE.INTRA.REPUL.0>
0

>  <SCORE.INTRA.SOLV>
-0.34301

>  <SCORE.INTRA.SOLV.lig_0>
-25.2195

>  <SCORE.INTRA.VDW>
-1.57558

>  <SCORE.INTRA.VDW.0>
4.14263

>  <SCORE.INTRA.norm>
-0.0416988

>  <SCORE.RESTR>
0.309662

>  <SCORE.RESTR.CAVITY>
0.309662

>  <SCORE.RESTR.norm>
0.0123865

>  <SCORE.SYSTEM>
0

>  <SCORE.SYSTEM.CONST>
0

>  <SCORE.SYSTEM.DIHEDRAL>
0

>  <SCORE.SYSTEM.SOLV>
0

>  <SCORE.SYSTEM.norm>
0

>  <SCORE.heavy>
25

>  <SCORE.norm>
-1.56147

>  <RMSD>
15.696

$$$$
1uud_lig
 OpenBabel11021811413D
libRbt.so/2013.1/901 2013/11/27
 25 25  0  0  0  0  0  0  0  0999 V2000
   -6.4159  -10.0552   13.1959 C   0  0  0  0  0  0  0  0  0  0  0  0
   -7.3145  -12.3865   11.6597 O   0  0  0  0  0  0  0  0  0  0  0  0
   -7.5591  -13.0424   10.4066 C   0  0  0  0  0  0  0  0  0  0  0  0
   -6.9143   -9.1390   12.1402 N   0  0  0  0  0  0  0  0  0  0  0  0
   -6.9617  -12.2230    9.2547 C   0  0  0  0  0  0  0  0  0  0  0  0
   -6.2988   -7.8009   12.3051 C   0  0  0  0  0  0  0  0  0  0  0  0
   -4.7783   -7.9119   12.1396 C   0  0  0  0  0  0  0  0  0  0  0  0
   -7.0901  -10.9416    9.5043 N   0  0  0  0  0  0  0  0  0  0  0  0
   -6.2070  -10.0621    9.0700 C   0  0  0  0  0  0  0  0  0  0  0  0
   -4.0754   -7.0229   13.1714 C   0  0  0  0  0  0  0  0  0  0  0  0
   -2.5581   -7.1546   13.0112 C   0  0  0  0  0  0  0  0  0  0  0  0
   -6.5802   -8.9945    8.3009 N   0  0  0  0  0  0  0  0  0  0  0  0
   -4.8977  -10.2219    9.3932 N   0  0  0  0  0  0  0  0  0  0  0  0
   -2.1134   -8.1299   13.7677 N   0  0  0  0  0  0  0  0  0  0  0  0
   -1.0131   -8.0000   14.4839 C   0  0  0  0  0  0  0  0  0  0  0  0
   -0.4241   -9.1091   15.0002 N   0  0  0  0  0  0  0  0  0  0  0  0
   -0.4588   -6.7752   14.7266 N   0  0  0  0  0  0  0  0  0  0  0  0
   -5.9069  -12.1906   11.8464 C   0  0  0  0  0  0  0  0  0  0  0  0
   -1.7061  -11.6020   12.3529 O   0  0  0  0  0  0  0  0  0  0  0  0
   -5.4277  -11.0683   12.5817 C   0  0  0  0  0  0  0  0  0  0  0  0
   -4.0300  -10.8705   12.7413 C   0  0  0  0  0  0  0  0  0  0  0  0
   -3.1122  -11.8012   12.1873 C   0  0  0  0  0  0  0  0  0  0  0  0
   -3.5897  -12.9314   11.4705 C   0  0  0  0  0  0  0  0  0  0  0  0
   -4.9871  -13.1313   11.3053 C   0  0  0  0  0  0  0  0  0  0  0  0
   -1.3487  -11.8222   13.7205 C   0  0  0  0  0  0  0  0  0  0  0  0
  1  4  1  0  0  0  0
  2  3  1  0  0  0  0
  3  5  1  0  0  0  0
  4  6  1  0  0  0  0
  5  8  1  0  0  0  0
  6  7  1  0  0  0  0
  7 10  1  0  0  0  0
  8  9  1  0  0  0  0
  9 12  1  0  0  0  0
  9 13  1  0  0  0  0
 10 11  1  0  0  0  0
 11 14  1  0  0  0  0
 14 15  1  0  0  0  0
 15 16  1  0  0  0  0
 15 17  1  0  0  0  0
 18  2  1  0  0  0  0
 18 20  2  0  0  0  0
 18 24  1  0  0  0  0
 19 25  1  0  0  0  0
 20  1  1  0  0  0  0
 20 21  1  0  0  0  0
 21 22  2  0  0  0  0
 22 19  1  0  0  0  0
 22 23  1  0  0  0  0
 23 24  2  0  0  0  0
M  END
>  <CHROM.1>
-106.86306396,-57.32205386,-36.06699873,62.15497588,148.74385936,-139.64193435
179.23740020,124.24516836,56.52514771,51.47801424,-89.93615464,-136.70305762
-164.91055637,-62.60920724,130.89573922,148.93911360,-78.27064572,70.10390177
-4.44869706,-10.12258065,11.98907004,2.63260486,0.58845024,-3.01625631

>  <Name>
1uud_lig

>  <RI>
0

>  <Rbt.Current_Directory>
/home/itssahil/PROJECTS/Mol_Feturizer/New_Systems/rnas/1uud

>  <Rbt.Executable>
rbdock ($Id: //depot/dev/client3/rdock/2013.1/src/exe/rbdock.cxx#4 $)

>  <Rbt.Library>
libRbt.so (2013.1, Build901 2013/11/27)

>  <Rbt.Parameter_File>
/export/apps/rDock/src/rDock_2013.1_src/data/scripts/dock_solv.prm

>  <Rbt.Receptor>
prm/blind_docking_80.prm

>  <SCORE>
-31.8813

>  <SCORE.INTER>
-28.1752

>  <SCORE.INTER.CONST>
1

>  <SCORE.INTER.POLAR>
-4.41627

>  <SCORE.INTER.ROT>
18

>  <SCORE.INTER.SOLV>
9.50924

>  <SCORE.INTER.VDW>
-22.8323

>  <SCORE.INTER.norm>
-1.12701

>  <SCORE.INTRA>
-3.96763

>  <SCORE.INTRA.DIHEDRAL>
-2.71173

>  <SCORE.INTRA.DIHEDRAL.0>
30.6762

>  <SCORE.INTRA.POLAR>
-0.720813

>  <SCORE.INTRA.POLAR.0>
-0.0288659

>  <SCORE.INTRA.REPUL>
0

>  <SCORE.INTRA.REPUL.0>
0

>  <SCORE.INTRA.SOLV>
2.96789

>  <SCORE.INTRA.SOLV.lig_0>
-25.2195

>  <SCORE.INTRA.VDW>
-1.64494

>  <SCORE.INTRA.VDW.0>
4.14263

>  <SCORE.INTRA.norm>
-0.158705

>  <SCORE.RESTR>
0.261464

>  <SCORE.RESTR.CAVITY>
0.261464

>  <SCORE.RESTR.norm>
0.0104586

>  <SCORE.SYSTEM>
0

>  <SCORE.SYSTEM.CONST>
0

>  <SCORE.SYSTEM.DIHEDRAL>
0

>  <SCORE.SYSTEM.SOLV>
0

>  <SCORE.SYSTEM.norm>
0

>  <SCORE.heavy>
25

>  <SCORE.norm>
-1.27525

>  <RMSD>
15.705

$$$$
1uud_lig
 OpenBabel11021811413D
libRbt.so/2013.1/901 2013/11/27
 25 25  0  0  0  0  0  0  0  0999 V2000
   -5.5565  -11.4291    9.6299 C   0  0  0  0  0  0  0  0  0  0  0  0
   -5.2390   -9.6231   11.9190 O   0  0  0  0  0  0  0  0  0  0  0  0
   -6.4041   -8.8673   12.2815 C   0  0  0  0  0  0  0  0  0  0  0  0
   -5.2045  -12.5563    8.7312 N   0  0  0  0  0  0  0  0  0  0  0  0
   -6.5780   -7.6744   11.3318 C   0  0  0  0  0  0  0  0  0  0  0  0
   -5.6590  -12.2595    7.3520 C   0  0  0  0  0  0  0  0  0  0  0  0
   -7.1290  -11.8236    7.3791 C   0  0  0  0  0  0  0  0  0  0  0  0
   -6.7887   -8.1030   10.1101 N   0  0  0  0  0  0  0  0  0  0  0  0
   -5.8605   -8.0096    9.1764 C   0  0  0  0  0  0  0  0  0  0  0  0
   -7.9723  -12.8789    8.1029 C   0  0  0  0  0  0  0  0  0  0  0  0
   -9.3384  -12.2857    8.4595 C   0  0  0  0  0  0  0  0  0  0  0  0
   -5.8050   -8.8920    8.1329 N   0  0  0  0  0  0  0  0  0  0  0  0
   -4.9389   -7.0152    9.2545 N   0  0  0  0  0  0  0  0  0  0  0  0
  -10.1302  -13.2300    8.9098 N   0  0  0  0  0  0  0  0  0  0  0  0
  -11.4413  -13.1452    8.7906 C   0  0  0  0  0  0  0  0  0  0  0  0
  -12.1939  -14.2651    8.9428 N   0  0  0  0  0  0  0  0  0  0  0  0
  -12.0580  -11.9596    8.5077 N   0  0  0  0  0  0  0  0  0  0  0  0
   -5.4579  -11.0169   12.1717 C   0  0  0  0  0  0  0  0  0  0  0  0
   -6.1539  -15.1597   12.9483 O   0  0  0  0  0  0  0  0  0  0  0  0
   -5.6225  -11.9276   11.0885 C   0  0  0  0  0  0  0  0  0  0  0  0
   -5.8622  -13.3033   11.3498 C   0  0  0  0  0  0  0  0  0  0  0  0
   -5.9165  -13.7739   12.6881 C   0  0  0  0  0  0  0  0  0  0  0  0
   -5.7331  -12.8698   13.7688 C   0  0  0  0  0  0  0  0  0  0  0  0
   -5.4966  -11.4920   13.5121 C   0  0  0  0  0  0  0  0  0  0  0  0
   -7.5623  -15.3984   13.0259 C   0  0  0  0  0  0  0  0  0  0  0  0
  1  4  1  0  0  0  0
  2  3  1  0  0  0  0
  3  5  1  0  0  0  0
  4  6  1  0  0  0  0
  5  8  1  0  0  0  0
  6  7  1  0  0  0  0
  7 10  1  0  0  0  0
  8  9  1  0  0  0  0
  9 12  1  0  0  0  0
  9 13  1  0  0  0  0
 10 11  1  0  0  0  0
 11 14  1  0  0  0  0
 14 15  1  0  0  0  0
 15 16  1  0  0  0  0
 15 17  1  0  0  0  0
 18  2  1  0  0  0  0
 18 20  2  0  0  0  0
 18 24  1  0  0  0  0
 19 25  1  0  0  0  0
 20  1  1  0  0  0  0
 20 21  1  0  0  0  0
 21 22  2  0  0  0  0
 22 19  1  0  0  0  0
 22 23  1  0  0  0  0
 23 24  2  0  0  0  0
M  END
>  <CHROM.1>
157.28498616,-145.80951682,63.45082300,-50.22501844,-107.05567784,-53.88951191
164.88824537,151.98977729,-100.08205072,-103.66643481,171.29853301,-152.75404830
162.97040841,157.99988632,111.82529282,108.81077446,157.12969435,-88.37709275
-7.09266185,-11.54749880,10.24138818,0.45067985,-0.67816022,-0.61807490

>  <Name>
1uud_lig

>  <RI>
0

>  <Rbt.Current_Directory>
/home/itssahil/PROJECTS/Mol_Feturizer/New_Systems/rnas/1uud

>  <Rbt.Executable>
rbdock ($Id: //depot/dev/client3/rdock/2013.1/src/exe/rbdock.cxx#4 $)

>  <Rbt.Library>
libRbt.so (2013.1, Build901 2013/11/27)

>  <Rbt.Parameter_File>
/export/apps/rDock/src/rDock_2013.1_src/data/scripts/dock_solv.prm

>  <Rbt.Receptor>
prm/blind_docking_100.prm

>  <SCORE>
-13.5578

>  <SCORE.INTER>
-14.7234

>  <SCORE.INTER.CONST>
1

>  <SCORE.INTER.POLAR>
-2.76252

>  <SCORE.INTER.ROT>
18

>  <SCORE.INTER.SOLV>
6.91234

>  <SCORE.INTER.VDW>
-18.5113

>  <SCORE.INTER.norm>
-0.588934

>  <SCORE.INTRA>
-1.47293

>  <SCORE.INTRA.DIHEDRAL>
-4.10468

>  <SCORE.INTRA.DIHEDRAL.0>
30.6762

>  <SCORE.INTRA.POLAR>
0.0288659

>  <SCORE.INTRA.POLAR.0>
-0.0288659

>  <SCORE.INTRA.REPUL>
0

>  <SCORE.INTRA.REPUL.0>
0

>  <SCORE.INTRA.SOLV>
0.311312

>  <SCORE.INTRA.SOLV.lig_0>
-25.2195

>  <SCORE.INTRA.VDW>
0.325612

>  <SCORE.INTRA.VDW.0>
4.14263

>  <SCORE.INTRA.norm>
-0.0589172

>  <SCORE.RESTR>
2.63846

>  <SCORE.RESTR.CAVITY>
2.63846

>  <SCORE.RESTR.norm>
0.105539

>  <SCORE.SYSTEM>
0

>  <SCORE.SYSTEM.CONST>
0

>  <SCORE.SYSTEM.DIHEDRAL>
0

>  <SCORE.SYSTEM.SOLV>
0

>  <SCORE.SYSTEM.norm>
0

>  <SCORE.heavy>
25

>  <SCORE.norm>
-0.542313

>  <RMSD>
15.716

$$$$
1uud_lig
 OpenBabel11021811413D
libRbt.so/2013.1/901 2013/11/27
 25 25  0  0  0  0  0  0  0  0999 V2000
   -7.3478  -12.8815    9.9707 C   0  0  0  0  0  0  0  0  0  0  0  0
   -9.4323  -14.7522    9.1000 O   0  0  0  0  0  0  0  0  0  0  0  0
   -9.7326  -13.4299    8.6292 C   0  0  0  0  0  0  0  0  0  0  0  0
   -5.8797  -13.0380   10.1199 N   0  0  0  0  0  0  0  0  0  0  0  0
  -10.9894  -12.8923    9.3266 C   0  0  0  0  0  0  0  0  0  0  0  0
   -5.1852  -11.8992    9.4736 C   0  0  0  0  0  0  0  0  0  0  0  0
   -4.1838  -11.2836   10.4584 C   0  0  0  0  0  0  0  0  0  0  0  0
  -11.6185  -12.0583    8.5333 N   0  0  0  0  0  0  0  0  0  0  0  0
  -11.0331  -10.9680    8.0744 C   0  0  0  0  0  0  0  0  0  0  0  0
   -4.4759   -9.7893   10.6328 C   0  0  0  0  0  0  0  0  0  0  0  0
   -5.5794   -9.6023   11.6781 C   0  0  0  0  0  0  0  0  0  0  0  0
   -9.9083  -10.4590    8.6630 N   0  0  0  0  0  0  0  0  0  0  0  0
  -11.5607  -10.3365    6.9941 N   0  0  0  0  0  0  0  0  0  0  0  0
   -5.7438   -8.3250   11.9286 N   0  0  0  0  0  0  0  0  0  0  0  0
   -6.8299   -7.6816   11.5454 C   0  0  0  0  0  0  0  0  0  0  0  0
   -7.9840   -7.8592   12.2383 N   0  0  0  0  0  0  0  0  0  0  0  0
   -6.8227   -6.8492   10.4622 N   0  0  0  0  0  0  0  0  0  0  0  0
   -9.0848  -14.7128   10.4901 C   0  0  0  0  0  0  0  0  0  0  0  0
   -8.0337  -14.6435   14.6302 O   0  0  0  0  0  0  0  0  0  0  0  0
   -8.0740  -13.8225   10.9543 C   0  0  0  0  0  0  0  0  0  0  0  0
   -7.7206  -13.8076   12.3302 C   0  0  0  0  0  0  0  0  0  0  0  0
   -8.3884  -14.6634   13.2452 C   0  0  0  0  0  0  0  0  0  0  0  0
   -9.4102  -15.5377   12.7864 C   0  0  0  0  0  0  0  0  0  0  0  0
   -9.7645  -15.5585   11.4101 C   0  0  0  0  0  0  0  0  0  0  0  0
   -8.5567  -13.4608   15.2419 C   0  0  0  0  0  0  0  0  0  0  0  0
  1  4  1  0  0  0  0
  2  3  1  0  0  0  0
  3  5  1  0  0  0  0
  4  6  1  0  0  0  0
  5  8  1  0  0  0  0
  6  7  1  0  0  0  0
  7 10  1  0  0  0  0
  8  9  1  0  0  0  0
  9 12  1  0  0  0  0
  9 13  1  0  0  0  0
 10 11  1  0  0  0  0
 11 14  1  0  0  0  0
 14 15  1  0  0  0  0
 15 16  1  0  0  0  0
 15 17  1  0  0  0  0
 18  2  1  0  0  0  0
 18 20  2  0  0  0  0
 18 24  1  0  0  0  0
 19 25  1  0  0  0  0
 20  1  1  0  0  0  0
 20 21  1  0  0  0  0
 21 22  2  0  0  0  0
 22 19  1  0  0  0  0
 22 23  1  0  0  0  0
 23 24  2  0  0  0  0
M  END
>  <CHROM.1>
-164.34657269,-65.16078972,-150.34726159,128.74912273,-59.23975776,-124.06592780
83.72754076,-17.99719979,-58.39543693,144.34407011,173.85592982,110.21440202
76.14077655,128.82993897,-124.68738563,-52.45474430,-127.83593971,74.51045827
-8.13498673,-11.91939761,10.72904951,-2.30663569,-0.70520102,-0.53376117

>  <Name>
1uud_lig

>  <RI>
0

>  <Rbt.Current_Directory>
/home/itssahil/PROJECTS/Mol_Feturizer/New_Systems/rnas/1uud

>  <Rbt.Executable>
rbdock ($Id: //depot/dev/client3/rdock/2013.1/src/exe/rbdock.cxx#4 $)

>  <Rbt.Library>
libRbt.so (2013.1, Build901 2013/11/27)

>  <Rbt.Parameter_File>
/export/apps/rDock/src/rDock_2013.1_src/data/scripts/dock_solv.prm

>  <Rbt.Receptor>
prm/blind_docking_100.prm

>  <SCORE>
-16.1257

>  <SCORE.INTER>
-20.1724

>  <SCORE.INTER.CONST>
1

>  <SCORE.INTER.POLAR>
-4.00476

>  <SCORE.INTER.ROT>
18

>  <SCORE.INTER.SOLV>
11.9964

>  <SCORE.INTER.VDW>
-19.6979

>  <SCORE.INTER.norm>
-0.806898

>  <SCORE.INTRA>
0.906282

>  <SCORE.INTRA.DIHEDRAL>
1.66996

>  <SCORE.INTRA.DIHEDRAL.0>
30.6762

>  <SCORE.INTRA.POLAR>
0.0288659

>  <SCORE.INTRA.POLAR.0>
-0.0288659

>  <SCORE.INTRA.REPUL>
0

>  <SCORE.INTRA.REPUL.0>
0

>  <SCORE.INTRA.SOLV>
-0.820445

>  <SCORE.INTRA.SOLV.lig_0>
-25.2195

>  <SCORE.INTRA.VDW>
0.38338

>  <SCORE.INTRA.VDW.0>
4.14263

>  <SCORE.INTRA.norm>
0.0362513

>  <SCORE.RESTR>
3.14043

>  <SCORE.RESTR.CAVITY>
3.14043

>  <SCORE.RESTR.norm>
0.125617

>  <SCORE.SYSTEM>
0

>  <SCORE.SYSTEM.CONST>
0

>  <SCORE.SYSTEM.DIHEDRAL>
0

>  <SCORE.SYSTEM.SOLV>
0

>  <SCORE.SYSTEM.norm>
0

>  <SCORE.heavy>
25

>  <SCORE.norm>
-0.645029

>  <RMSD>
15.739

$$$$
1uud_lig
 OpenBabel11021811413D
libRbt.so/2013.1/901 2013/11/27
 25 25  0  0  0  0  0  0  0  0999 V2000
   -3.9396  -11.8866   12.8167 C   0  0  0  0  0  0  0  0  0  0  0  0
   -6.1301   -9.9439   12.9912 O   0  0  0  0  0  0  0  0  0  0  0  0
   -6.6132   -8.6097   12.7750 C   0  0  0  0  0  0  0  0  0  0  0  0
   -2.5145  -11.9065   12.4037 N   0  0  0  0  0  0  0  0  0  0  0  0
   -5.5335   -7.7599   12.0915 C   0  0  0  0  0  0  0  0  0  0  0  0
   -1.6452  -11.7271   13.5907 C   0  0  0  0  0  0  0  0  0  0  0  0
   -1.3993  -10.2316   13.8249 C   0  0  0  0  0  0  0  0  0  0  0  0
   -6.0315   -7.1760   11.0276 N   0  0  0  0  0  0  0  0  0  0  0  0
   -5.7052   -7.5664    9.8098 C   0  0  0  0  0  0  0  0  0  0  0  0
   -0.0058  -10.0207   14.4269 C   0  0  0  0  0  0  0  0  0  0  0  0
   -0.1413   -9.4967   15.8594 C   0  0  0  0  0  0  0  0  0  0  0  0
   -4.4007   -7.6211    9.4023 N   0  0  0  0  0  0  0  0  0  0  0  0
   -6.6873   -7.9203    8.9413 N   0  0  0  0  0  0  0  0  0  0  0  0
    0.6614   -8.4743   16.0376 N   0  0  0  0  0  0  0  0  0  0  0  0
    0.1945   -7.2693   16.3027 C   0  0  0  0  0  0  0  0  0  0  0  0
   -1.1363   -7.0320   16.1755 N   0  0  0  0  0  0  0  0  0  0  0  0
    1.0199   -6.2527   16.6920 N   0  0  0  0  0  0  0  0  0  0  0  0
   -5.8850  -10.5885   11.7346 C   0  0  0  0  0  0  0  0  0  0  0  0
   -5.1438  -12.4646    7.9688 O   0  0  0  0  0  0  0  0  0  0  0  0
   -4.8277  -11.5346   11.6052 C   0  0  0  0  0  0  0  0  0  0  0  0
   -4.5781  -12.1506   10.3495 C   0  0  0  0  0  0  0  0  0  0  0  0
   -5.3946  -11.8401    9.2304 C   0  0  0  0  0  0  0  0  0  0  0  0
   -6.4616  -10.9112    9.3634 C   0  0  0  0  0  0  0  0  0  0  0  0
   -6.7126  -10.2899   10.6167 C   0  0  0  0  0  0  0  0  0  0  0  0
   -6.3650  -12.9956    7.4459 C   0  0  0  0  0  0  0  0  0  0  0  0
  1  4  1  0  0  0  0
  2  3  1  0  0  0  0
  3  5  1  0  0  0  0
  4  6  1  0  0  0  0
  5  8  1  0  0  0  0
  6  7  1  0  0  0  0
  7 10  1  0  0  0  0
  8  9  1  0  0  0  0
  9 12  1  0  0  0  0
  9 13  1  0  0  0  0
 10 11  1  0  0  0  0
 11 14  1  0  0  0  0
 14 15  1  0  0  0  0
 15 16  1  0  0  0  0
 15 17  1  0  0  0  0
 18  2  1  0  0  0  0
 18 20  2  0  0  0  0
 18 24  1  0  0  0  0
 19 25  1  0  0  0  0
 20  1  1  0  0  0  0
 20 21  1  0  0  0  0
 21 22  2  0  0  0  0
 22 19  1  0  0  0  0
 22 23  1  0  0  0  0
 23 24  2  0  0  0  0
M  END
>  <CHROM.1>
158.58402175,-64.44269799,128.23751653,-89.04411994,-107.65666054,-147.90184170
-113.16709472,-55.51786761,20.60055982,12.92604105,-132.89907198,116.23009066
-10.84046438,132.57343882,172.96434075,147.01384526,-135.21494513,130.53712190
-3.76632446,-9.68845550,12.16045770,-2.61041216,-0.70458715,0.37327098

>  <Name>
1uud_lig

>  <RI>
0

>  <Rbt.Current_Directory>
/home/itssahil/PROJECTS/Mol_Feturizer/New_Systems/rnas/1uud

>  <Rbt.Executable>
rbdock ($Id: //depot/dev/client3/rdock/2013.1/src/exe/rbdock.cxx#4 $)

>  <Rbt.Library>
libRbt.so (2013.1, Build901 2013/11/27)

>  <Rbt.Parameter_File>
/export/apps/rDock/src/rDock_2013.1_src/data/scripts/dock_solv.prm

>  <Rbt.Receptor>
prm/blind_docking_20.prm

>  <SCORE>
-23.7193

>  <SCORE.INTER>
-26.721

>  <SCORE.INTER.CONST>
1

>  <SCORE.INTER.POLAR>
-4.79807

>  <SCORE.INTER.ROT>
18

>  <SCORE.INTER.SOLV>
10.4426

>  <SCORE.INTER.VDW>
-20.9013

>  <SCORE.INTER.norm>
-1.06884

>  <SCORE.INTRA>
2.68979

>  <SCORE.INTRA.DIHEDRAL>
5.85202

>  <SCORE.INTRA.DIHEDRAL.0>
30.6762

>  <SCORE.INTRA.POLAR>
0.0288659

>  <SCORE.INTRA.POLAR.0>
-0.0288659

>  <SCORE.INTRA.REPUL>
0

>  <SCORE.INTRA.REPUL.0>
0

>  <SCORE.INTRA.SOLV>
0.248776

>  <SCORE.INTRA.SOLV.lig_0>
-25.2195

>  <SCORE.INTRA.VDW>
-0.458753

>  <SCORE.INTRA.VDW.0>
4.14263

>  <SCORE.INTRA.norm>
0.107591

>  <SCORE.RESTR>
0.311915

>  <SCORE.RESTR.CAVITY>
0.311915

>  <SCORE.RESTR.norm>
0.0124766

>  <SCORE.SYSTEM>
0

>  <SCORE.SYSTEM.CONST>
0

>  <SCORE.SYSTEM.DIHEDRAL>
0

>  <SCORE.SYSTEM.SOLV>
0

>  <SCORE.SYSTEM.norm>
0

>  <SCORE.heavy>
25

>  <SCORE.norm>
-0.948771

>  <RMSD>
15.743

$$$$
1uud_lig
 OpenBabel11021811413D
libRbt.so/2013.1/901 2013/11/27
 25 25  0  0  0  0  0  0  0  0999 V2000
   -4.3677  -12.9822   10.8293 C   0  0  0  0  0  0  0  0  0  0  0  0
   -6.1614  -12.8755   13.1475 O   0  0  0  0  0  0  0  0  0  0  0  0
   -7.5846  -12.9577   13.3146 C   0  0  0  0  0  0  0  0  0  0  0  0
   -4.8122  -13.1866    9.4283 N   0  0  0  0  0  0  0  0  0  0  0  0
   -8.0012  -14.4069   13.6001 C   0  0  0  0  0  0  0  0  0  0  0  0
   -6.1927  -12.6741    9.2598 C   0  0  0  0  0  0  0  0  0  0  0  0
   -6.4087  -12.2525    7.8013 C   0  0  0  0  0  0  0  0  0  0  0  0
   -7.7538  -15.1574   12.5531 N   0  0  0  0  0  0  0  0  0  0  0  0
   -8.6067  -16.0797   12.1481 C   0  0  0  0  0  0  0  0  0  0  0  0
   -7.6252  -11.3257    7.7014 C   0  0  0  0  0  0  0  0  0  0  0  0
   -8.8637  -12.0472    8.2404 C   0  0  0  0  0  0  0  0  0  0  0  0
   -8.5133  -17.3760   12.5741 N   0  0  0  0  0  0  0  0  0  0  0  0
   -9.5988  -15.7336   11.2878 N   0  0  0  0  0  0  0  0  0  0  0  0
   -9.8332  -11.1844    8.4330 N   0  0  0  0  0  0  0  0  0  0  0  0
  -10.7306  -10.9360    7.4984 C   0  0  0  0  0  0  0  0  0  0  0  0
  -11.8821  -11.6553    7.4781 N   0  0  0  0  0  0  0  0  0  0  0  0
  -10.5238   -9.9796    6.5452 N   0  0  0  0  0  0  0  0  0  0  0  0
   -5.8124  -11.6481   12.4947 C   0  0  0  0  0  0  0  0  0  0  0  0
   -4.7500   -7.9739   10.5914 O   0  0  0  0  0  0  0  0  0  0  0  0
   -4.9399  -11.6547   11.3683 C   0  0  0  0  0  0  0  0  0  0  0  0
   -4.5816  -10.4306   10.7427 C   0  0  0  0  0  0  0  0  0  0  0  0
   -5.1090   -9.2042   11.2255 C   0  0  0  0  0  0  0  0  0  0  0  0
   -5.9947   -9.1983   12.3366 C   0  0  0  0  0  0  0  0  0  0  0  0
   -6.3530  -10.4203   12.9678 C   0  0  0  0  0  0  0  0  0  0  0  0
   -3.8344   -7.2554   11.4232 C   0  0  0  0  0  0  0  0  0  0  0  0
  1  4  1  0  0  0  0
  2  3  1  0  0  0  0
  3  5  1  0  0  0  0
  4  6  1  0  0  0  0
  5  8  1  0  0  0  0
  6  7  1  0  0  0  0
  7 10  1  0  0  0  0
  8  9  1  0  0  0  0
  9 12  1  0  0  0  0
  9 13  1  0  0  0  0
 10 11  1  0  0  0  0
 11 14  1  0  0  0  0
 14 15  1  0  0  0  0
 15 16  1  0  0  0  0
 15 17  1  0  0  0  0
 18  2  1  0  0  0  0
 18 20  2  0  0  0  0
 18 24  1  0  0  0  0
 19 25  1  0  0  0  0
 20  1  1  0  0  0  0
 20 21  1  0  0  0  0
 21 22  2  0  0  0  0
 22 19  1  0  0  0  0
 22 23  1  0  0  0  0
 23 24  2  0  0  0  0
M  END
>  <CHROM.1>
-35.90459654,162.55187312,-65.59399771,152.84214026,-138.48234650,-161.83501632
-58.43229487,-92.63305527,21.84830474,129.40626731,166.26937791,92.48174777
91.63526659,-75.93172688,81.37373536,-130.41500676,118.92759574,-106.12035381
-7.21785718,-12.07275469,10.55306709,-0.76669711,0.66382233,2.51097752

>  <Name>
1uud_lig

>  <RI>
0

>  <Rbt.Current_Directory>
/home/itssahil/PROJECTS/Mol_Feturizer/New_Systems/rnas/1uud

>  <Rbt.Executable>
rbdock ($Id: //depot/dev/client3/rdock/2013.1/src/exe/rbdock.cxx#4 $)

>  <Rbt.Library>
libRbt.so (2013.1, Build901 2013/11/27)

>  <Rbt.Parameter_File>
/export/apps/rDock/src/rDock_2013.1_src/data/scripts/dock_solv.prm

>  <Rbt.Receptor>
prm/blind_docking_100.prm

>  <SCORE>
-12.2033

>  <SCORE.INTER>
-10.4962

>  <SCORE.INTER.CONST>
1

>  <SCORE.INTER.POLAR>
-1.86255

>  <SCORE.INTER.ROT>
18

>  <SCORE.INTER.SOLV>
9.41844

>  <SCORE.INTER.VDW>
-19.5284

>  <SCORE.INTER.norm>
-0.419847

>  <SCORE.INTRA>
-5.15073

>  <SCORE.INTRA.DIHEDRAL>
-6.96679

>  <SCORE.INTRA.DIHEDRAL.0>
30.6762

>  <SCORE.INTRA.POLAR>
0.0288659

>  <SCORE.INTRA.POLAR.0>
-0.0288659

>  <SCORE.INTRA.REPUL>
0

>  <SCORE.INTRA.REPUL.0>
0

>  <SCORE.INTRA.SOLV>
-0.951255

>  <SCORE.INTRA.SOLV.lig_0>
-25.2195

>  <SCORE.INTRA.VDW>
-1.28986

>  <SCORE.INTRA.VDW.0>
4.14263

>  <SCORE.INTRA.norm>
-0.206029

>  <SCORE.RESTR>
3.44364

>  <SCORE.RESTR.CAVITY>
3.44364

>  <SCORE.RESTR.norm>
0.137745

>  <SCORE.SYSTEM>
0

>  <SCORE.SYSTEM.CONST>
0

>  <SCORE.SYSTEM.DIHEDRAL>
0

>  <SCORE.SYSTEM.SOLV>
0

>  <SCORE.SYSTEM.norm>
0

>  <SCORE.heavy>
25

>  <SCORE.norm>
-0.488131

>  <RMSD>
15.759

$$$$
1uud_lig
 OpenBabel11021811413D
libRbt.so/2013.1/901 2013/11/27
 25 25  0  0  0  0  0  0  0  0999 V2000
   -2.8937  -11.2387   12.2668 C   0  0  0  0  0  0  0  0  0  0  0  0
   -4.4218   -9.3800   10.5897 O   0  0  0  0  0  0  0  0  0  0  0  0
   -5.4236   -8.4321   10.1920 C   0  0  0  0  0  0  0  0  0  0  0  0
   -3.8602  -11.8848   13.1891 N   0  0  0  0  0  0  0  0  0  0  0  0
   -6.1670   -8.9379    8.9483 C   0  0  0  0  0  0  0  0  0  0  0  0
   -4.5469  -13.0003   12.4957 C   0  0  0  0  0  0  0  0  0  0  0  0
   -5.7080  -12.4477   11.6604 C   0  0  0  0  0  0  0  0  0  0  0  0
   -6.4453  -10.2128    9.0819 N   0  0  0  0  0  0  0  0  0  0  0  0
   -7.3172  -10.8149    8.2950 C   0  0  0  0  0  0  0  0  0  0  0  0
   -6.7238  -13.5604   11.3794 C   0  0  0  0  0  0  0  0  0  0  0  0
   -7.8058  -13.0377   10.4301 C   0  0  0  0  0  0  0  0  0  0  0  0
   -6.9500  -11.8529    7.4836 N   0  0  0  0  0  0  0  0  0  0  0  0
   -8.6080  -10.3930    8.2900 N   0  0  0  0  0  0  0  0  0  0  0  0
   -8.8322  -13.8548   10.4315 N   0  0  0  0  0  0  0  0  0  0  0  0
   -9.6537  -13.9316    9.4021 C   0  0  0  0  0  0  0  0  0  0  0  0
  -10.2702  -12.8049    8.9615 N   0  0  0  0  0  0  0  0  0  0  0  0
   -9.9061  -15.1193    8.7762 N   0  0  0  0  0  0  0  0  0  0  0  0
   -3.6379   -8.8463   11.6645 C   0  0  0  0  0  0  0  0  0  0  0  0
   -1.3438   -7.2380   14.8895 O   0  0  0  0  0  0  0  0  0  0  0  0
   -2.8849   -9.7146   12.5064 C   0  0  0  0  0  0  0  0  0  0  0  0
   -2.1297   -9.1778   13.5833 C   0  0  0  0  0  0  0  0  0  0  0  0
   -2.1081   -7.7761   13.8074 C   0  0  0  0  0  0  0  0  0  0  0  0
   -2.8431   -6.9076   12.9564 C   0  0  0  0  0  0  0  0  0  0  0  0
   -3.6029   -7.4405   11.8800 C   0  0  0  0  0  0  0  0  0  0  0  0
    0.0406   -7.5424   14.6963 C   0  0  0  0  0  0  0  0  0  0  0  0
  1  4  1  0  0  0  0
  2  3  1  0  0  0  0
  3  5  1  0  0  0  0
  4  6  1  0  0  0  0
  5  8  1  0  0  0  0
  6  7  1  0  0  0  0
  7 10  1  0  0  0  0
  8  9  1  0  0  0  0
  9 12  1  0  0  0  0
  9 13  1  0  0  0  0
 10 11  1  0  0  0  0
 11 14  1  0  0  0  0
 14 15  1  0  0  0  0
 15 16  1  0  0  0  0
 15 17  1  0  0  0  0
 18  2  1  0  0  0  0
 18 20  2  0  0  0  0
 18 24  1  0  0  0  0
 19 25  1  0  0  0  0
 20  1  1  0  0  0  0
 20 21  1  0  0  0  0
 21 22  2  0  0  0  0
 22 19  1  0  0  0  0
 22 23  1  0  0  0  0
 23 24  2  0  0  0  0
M  END
>  <CHROM.1>
142.69503864,174.08263377,43.55562342,-82.50969395,165.36352210,-158.67221893
-174.37336034,118.52741170,-168.40085420,-139.62035354,-165.18758461,-154.93269256
-55.94899110,154.47505904,4.83072471,159.99431162,-98.31007618,61.95531530
-5.45228914,-10.69398940,11.06100434,-0.22188477,0.74253821,2.62771224

>  <Name>
1uud_lig

>  <RI>
0

>  <Rbt.Current_Directory>
/home/itssahil/PROJECTS/Mol_Feturizer/New_Systems/rnas/1uud

>  <Rbt.Executable>
rbdock ($Id: //depot/dev/client3/rdock/2013.1/src/exe/rbdock.cxx#4 $)

>  <Rbt.Library>
libRbt.so (2013.1, Build901 2013/11/27)

>  <Rbt.Parameter_File>
/export/apps/rDock/src/rDock_2013.1_src/data/scripts/dock_solv.prm

>  <Rbt.Receptor>
prm/blind_docking_80.prm

>  <SCORE>
-34.1525

>  <SCORE.INTER>
-25.7236

>  <SCORE.INTER.CONST>
1

>  <SCORE.INTER.POLAR>
-3.98565

>  <SCORE.INTER.ROT>
18

>  <SCORE.INTER.SOLV>
8.65878

>  <SCORE.INTER.VDW>
-22.3498

>  <SCORE.INTER.norm>
-1.02895

>  <SCORE.INTRA>
-8.82836

>  <SCORE.INTRA.DIHEDRAL>
-8.81634

>  <SCORE.INTRA.DIHEDRAL.0>
30.6762

>  <SCORE.INTRA.POLAR>
-1.05402

>  <SCORE.INTRA.POLAR.0>
-0.0288659

>  <SCORE.INTRA.REPUL>
0

>  <SCORE.INTRA.REPUL.0>
0

>  <SCORE.INTRA.SOLV>
1.63187

>  <SCORE.INTRA.SOLV.lig_0>
-25.2195

>  <SCORE.INTRA.VDW>
-1.65246

>  <SCORE.INTRA.VDW.0>
4.14263

>  <SCORE.INTRA.norm>
-0.353135

>  <SCORE.RESTR>
0.399517

>  <SCORE.RESTR.CAVITY>
0.399517

>  <SCORE.RESTR.norm>
0.0159807

>  <SCORE.SYSTEM>
0

>  <SCORE.SYSTEM.CONST>
0

>  <SCORE.SYSTEM.DIHEDRAL>
0

>  <SCORE.SYSTEM.SOLV>
0

>  <SCORE.SYSTEM.norm>
0

>  <SCORE.heavy>
25

>  <SCORE.norm>
-1.3661

>  <RMSD>
15.770

$$$$
1uud_lig
 OpenBabel11021811413D
libRbt.so/2013.1/901 2013/11/27
 25 25  0  0  0  0  0  0  0  0999 V2000
   -4.5522  -11.6761   11.2119 C   0  0  0  0  0  0  0  0  0  0  0  0
   -3.6920  -10.3689   13.6926 O   0  0  0  0  0  0  0  0  0  0  0  0
   -2.3972  -10.9767   13.5725 C   0  0  0  0  0  0  0  0  0  0  0  0
   -5.5709  -11.9909   10.1797 N   0  0  0  0  0  0  0  0  0  0  0  0
   -1.3071   -9.8972   13.5349 C   0  0  0  0  0  0  0  0  0  0  0  0
   -4.9228  -12.0981    8.8511 C   0  0  0  0  0  0  0  0  0  0  0  0
   -5.9812  -11.9528    7.7510 C   0  0  0  0  0  0  0  0  0  0  0  0
   -1.2439   -9.2855   14.6936 N   0  0  0  0  0  0  0  0  0  0  0  0
   -0.5507   -8.1732   14.8497 C   0  0  0  0  0  0  0  0  0  0  0  0
   -6.7814  -13.2535    7.6226 C   0  0  0  0  0  0  0  0  0  0  0  0
   -7.9343  -13.2466    8.6306 C   0  0  0  0  0  0  0  0  0  0  0  0
    0.5647   -8.1312   15.6401 N   0  0  0  0  0  0  0  0  0  0  0  0
   -0.9552   -7.0445   14.2120 N   0  0  0  0  0  0  0  0  0  0  0  0
   -8.9726  -12.6318    8.1155 N   0  0  0  0  0  0  0  0  0  0  0  0
   -9.0155  -11.3171    8.0153 C   0  0  0  0  0  0  0  0  0  0  0  0
   -8.9521  -10.5645    9.1436 N   0  0  0  0  0  0  0  0  0  0  0  0
   -9.1325  -10.6961    6.8041 N   0  0  0  0  0  0  0  0  0  0  0  0
   -3.9607   -9.5521   12.5458 C   0  0  0  0  0  0  0  0  0  0  0  0
   -4.7134   -7.1028    9.1275 O   0  0  0  0  0  0  0  0  0  0  0  0
   -4.3758  -10.1472   11.3196 C   0  0  0  0  0  0  0  0  0  0  0  0
   -4.6172   -9.3310   10.1822 C   0  0  0  0  0  0  0  0  0  0  0  0
   -4.4658   -7.9223   10.2727 C   0  0  0  0  0  0  0  0  0  0  0  0
   -4.0709   -7.3262   11.5005 C   0  0  0  0  0  0  0  0  0  0  0  0
   -3.8248   -8.1392   12.6401 C   0  0  0  0  0  0  0  0  0  0  0  0
   -6.1123   -7.1080    8.8279 C   0  0  0  0  0  0  0  0  0  0  0  0
  1  4  1  0  0  0  0
  2  3  1  0  0  0  0
  3  5  1  0  0  0  0
  4  6  1  0  0  0  0
  5  8  1  0  0  0  0
  6  7  1  0  0  0  0
  7 10  1  0  0  0  0
  8  9  1  0  0  0  0
  9 12  1  0  0  0  0
  9 13  1  0  0  0  0
 10 11  1  0  0  0  0
 11 14  1  0  0  0  0
 14 15  1  0  0  0  0
 15 16  1  0  0  0  0
 15 17  1  0  0  0  0
 18  2  1  0  0  0  0
 18 20  2  0  0  0  0
 18 24  1  0  0  0  0
 19 25  1  0  0  0  0
 20  1  1  0  0  0  0
 20 21  1  0  0  0  0
 21 22  2  0  0  0  0
 22 19  1  0  0  0  0
 22 23  1  0  0  0  0
 23 24  2  0  0  0  0
M  END
>  <CHROM.1>
88.05633092,62.59317002,66.95931225,-161.19728756,-168.32041200,-76.58469561
85.74661208,-113.59108900,175.61459249,-159.96473149,85.79483670,-75.68066673
-61.21745638,-17.42547816,161.45372242,78.64228478,151.96816706,69.31566414
-4.72211649,-9.99909999,10.91429960,-2.91891831,-0.78146845,-0.15347011

>  <Name>
1uud_lig

>  <RI>
0

>  <Rbt.Current_Directory>
/home/itssahil/PROJECTS/Mol_Feturizer/New_Systems/rnas/1uud

>  <Rbt.Executable>
rbdock ($Id: //depot/dev/client3/rdock/2013.1/src/exe/rbdock.cxx#4 $)

>  <Rbt.Library>
libRbt.so (2013.1, Build901 2013/11/27)

>  <Rbt.Parameter_File>
/export/apps/rDock/src/rDock_2013.1_src/data/scripts/dock_solv.prm

>  <Rbt.Receptor>
prm/blind_docking_20.prm

>  <SCORE>
-31.436

>  <SCORE.INTER>
-27.2716

>  <SCORE.INTER.CONST>
1

>  <SCORE.INTER.POLAR>
-4.35787

>  <SCORE.INTER.ROT>
18

>  <SCORE.INTER.SOLV>
10.538

>  <SCORE.INTER.VDW>
-22.7675

>  <SCORE.INTER.norm>
-1.09086

>  <SCORE.INTRA>
-5.05241

>  <SCORE.INTRA.DIHEDRAL>
-3.40085

>  <SCORE.INTRA.DIHEDRAL.0>
30.6762

>  <SCORE.INTRA.POLAR>
0.0288659

>  <SCORE.INTRA.POLAR.0>
-0.0288659

>  <SCORE.INTRA.REPUL>
0

>  <SCORE.INTRA.REPUL.0>
0

>  <SCORE.INTRA.SOLV>
0.589089

>  <SCORE.INTRA.SOLV.lig_0>
-25.2195

>  <SCORE.INTRA.VDW>
-3.74468

>  <SCORE.INTRA.VDW.0>
4.14263

>  <SCORE.INTRA.norm>
-0.202097

>  <SCORE.RESTR>
0.888038

>  <SCORE.RESTR.CAVITY>
0.888038

>  <SCORE.RESTR.norm>
0.0355215

>  <SCORE.SYSTEM>
0

>  <SCORE.SYSTEM.CONST>
0

>  <SCORE.SYSTEM.DIHEDRAL>
0

>  <SCORE.SYSTEM.SOLV>
0

>  <SCORE.SYSTEM.norm>
0

>  <SCORE.heavy>
25

>  <SCORE.norm>
-1.25744

>  <RMSD>
15.771

$$$$
1uud_lig
 OpenBabel11021811413D
libRbt.so/2013.1/901 2013/11/27
 25 25  0  0  0  0  0  0  0  0999 V2000
   -4.5970  -10.8207   13.7365 C   0  0  0  0  0  0  0  0  0  0  0  0
   -6.3884   -8.6589   12.8878 O   0  0  0  0  0  0  0  0  0  0  0  0
   -6.5559   -9.6262   11.8407 C   0  0  0  0  0  0  0  0  0  0  0  0
   -3.7002  -11.7910   13.0610 N   0  0  0  0  0  0  0  0  0  0  0  0
   -6.6106   -8.9254   10.4765 C   0  0  0  0  0  0  0  0  0  0  0  0
   -4.4679  -12.9977   12.6722 C   0  0  0  0  0  0  0  0  0  0  0  0
   -5.2133  -12.7303   11.3590 C   0  0  0  0  0  0  0  0  0  0  0  0
   -5.5596   -9.2534    9.7633 N   0  0  0  0  0  0  0  0  0  0  0  0
   -4.3364   -8.9553   10.1596 C   0  0  0  0  0  0  0  0  0  0  0  0
   -4.4455  -13.3529   10.1878 C   0  0  0  0  0  0  0  0  0  0  0  0
   -4.5462  -12.4365    8.9651 C   0  0  0  0  0  0  0  0  0  0  0  0
   -3.4571   -9.9253   10.5553 N   0  0  0  0  0  0  0  0  0  0  0  0
   -3.9427   -7.6557   10.1760 N   0  0  0  0  0  0  0  0  0  0  0  0
   -5.7828  -12.0233    8.8187 N   0  0  0  0  0  0  0  0  0  0  0  0
   -6.5249  -12.4162    7.8012 C   0  0  0  0  0  0  0  0  0  0  0  0
   -7.4828  -13.3569    8.0045 N   0  0  0  0  0  0  0  0  0  0  0  0
   -6.3452  -11.9064    6.5466 N   0  0  0  0  0  0  0  0  0  0  0  0
   -4.9972   -8.3644   13.0681 C   0  0  0  0  0  0  0  0  0  0  0  0
   -0.8629   -7.4541   13.6421 O   0  0  0  0  0  0  0  0  0  0  0  0
   -4.0937   -9.3842   13.4845 C   0  0  0  0  0  0  0  0  0  0  0  0
   -2.7210   -9.0766   13.6828 C   0  0  0  0  0  0  0  0  0  0  0  0
   -2.2458   -7.7600   13.4457 C   0  0  0  0  0  0  0  0  0  0  0  0
   -3.1425   -6.7469   13.0115 C   0  0  0  0  0  0  0  0  0  0  0  0
   -4.5173   -7.0493   12.8153 C   0  0  0  0  0  0  0  0  0  0  0  0
   -0.4826   -7.7917   14.9792 C   0  0  0  0  0  0  0  0  0  0  0  0
  1  4  1  0  0  0  0
  2  3  1  0  0  0  0
  3  5  1  0  0  0  0
  4  6  1  0  0  0  0
  5  8  1  0  0  0  0
  6  7  1  0  0  0  0
  7 10  1  0  0  0  0
  8  9  1  0  0  0  0
  9 12  1  0  0  0  0
  9 13  1  0  0  0  0
 10 11  1  0  0  0  0
 11 14  1  0  0  0  0
 14 15  1  0  0  0  0
 15 16  1  0  0  0  0
 15 17  1  0  0  0  0
 18  2  1  0  0  0  0
 18 20  2  0  0  0  0
 18 24  1  0  0  0  0
 19 25  1  0  0  0  0
 20  1  1  0  0  0  0
 20 21  1  0  0  0  0
 21 22  2  0  0  0  0
 22 19  1  0  0  0  0
 22 23  1  0  0  0  0
 23 24  2  0  0  0  0
M  END
>  <CHROM.1>
-150.37275459,-85.70606146,113.65403270,81.49071269,-62.11052002,100.26936157
-142.84574302,111.12026168,-2.19453991,171.66878556,-44.87461181,-111.74744962
103.61614884,-45.39472795,2.86348604,-62.94939381,132.40714625,-56.28273251
-4.53240838,-10.06085910,11.33968653,-0.59658195,0.96351043,3.11911347

>  <Name>
1uud_lig

>  <RI>
0

>  <Rbt.Current_Directory>
/home/itssahil/PROJECTS/Mol_Feturizer/New_Systems/rnas/1uud

>  <Rbt.Executable>
rbdock ($Id: //depot/dev/client3/rdock/2013.1/src/exe/rbdock.cxx#4 $)

>  <Rbt.Library>
libRbt.so (2013.1, Build901 2013/11/27)

>  <Rbt.Parameter_File>
/export/apps/rDock/src/rDock_2013.1_src/data/scripts/dock_solv.prm

>  <Rbt.Receptor>
prm/blind_docking_20.prm

>  <SCORE>
-20.2948

>  <SCORE.INTER>
-19.7914

>  <SCORE.INTER.CONST>
1

>  <SCORE.INTER.POLAR>
-3.23327

>  <SCORE.INTER.ROT>
18

>  <SCORE.INTER.SOLV>
10.4558

>  <SCORE.INTER.VDW>
-21.502

>  <SCORE.INTER.norm>
-0.791656

>  <SCORE.INTRA>
-0.517747

>  <SCORE.INTRA.DIHEDRAL>
6.9216

>  <SCORE.INTRA.DIHEDRAL.0>
30.6762

>  <SCORE.INTRA.POLAR>
-1.69418

>  <SCORE.INTRA.POLAR.0>
-0.0288659

>  <SCORE.INTRA.REPUL>
0.451338

>  <SCORE.INTRA.REPUL.0>
0

>  <SCORE.INTRA.SOLV>
4.63827

>  <SCORE.INTRA.SOLV.lig_0>
-25.2195

>  <SCORE.INTRA.VDW>
-2.79417

>  <SCORE.INTRA.VDW.0>
4.14263

>  <SCORE.INTRA.norm>
-0.0207099

>  <SCORE.RESTR>
0.0143947

>  <SCORE.RESTR.CAVITY>
0.0143947

>  <SCORE.RESTR.norm>
0.000575788

>  <SCORE.SYSTEM>
0

>  <SCORE.SYSTEM.CONST>
0

>  <SCORE.SYSTEM.DIHEDRAL>
0

>  <SCORE.SYSTEM.SOLV>
0

>  <SCORE.SYSTEM.norm>
0

>  <SCORE.heavy>
25

>  <SCORE.norm>
-0.81179

>  <RMSD>
15.780

$$$$
1uud_lig
 OpenBabel11021811413D
libRbt.so/2013.1/901 2013/11/27
 25 25  0  0  0  0  0  0  0  0999 V2000
   -6.2377   -9.6689   12.7692 C   0  0  0  0  0  0  0  0  0  0  0  0
   -6.8619  -12.2082   11.4407 O   0  0  0  0  0  0  0  0  0  0  0  0
   -7.0335  -12.1615   10.0164 C   0  0  0  0  0  0  0  0  0  0  0  0
   -6.1758   -8.5397   11.8084 N   0  0  0  0  0  0  0  0  0  0  0  0
   -8.4377  -12.6503    9.6360 C   0  0  0  0  0  0  0  0  0  0  0  0
   -4.8650   -7.8569   11.9199 C   0  0  0  0  0  0  0  0  0  0  0  0
   -4.7817   -7.1232   13.2639 C   0  0  0  0  0  0  0  0  0  0  0  0
   -8.8128  -12.0972    8.5072 N   0  0  0  0  0  0  0  0  0  0  0  0
  -10.0438  -11.6549    8.3311 C   0  0  0  0  0  0  0  0  0  0  0  0
   -3.6611   -7.7259   14.1182 C   0  0  0  0  0  0  0  0  0  0  0  0
   -2.3037   -7.3804   13.4990 C   0  0  0  0  0  0  0  0  0  0  0  0
  -10.2940  -10.3548    7.9882 N   0  0  0  0  0  0  0  0  0  0  0  0
  -11.0857  -12.5103    8.4956 N   0  0  0  0  0  0  0  0  0  0  0  0
   -1.4270   -8.3084   13.8015 N   0  0  0  0  0  0  0  0  0  0  0  0
   -0.3720   -8.0432   14.5477 C   0  0  0  0  0  0  0  0  0  0  0  0
    0.5414   -7.1406   14.1063 N   0  0  0  0  0  0  0  0  0  0  0  0
   -0.1720   -8.6627   15.7487 N   0  0  0  0  0  0  0  0  0  0  0  0
   -5.4975  -11.9310   11.7815 C   0  0  0  0  0  0  0  0  0  0  0  0
   -1.4189  -11.1058   12.7483 O   0  0  0  0  0  0  0  0  0  0  0  0
   -5.1503  -10.7071   12.4229 C   0  0  0  0  0  0  0  0  0  0  0  0
   -3.7921  -10.4317   12.7356 C   0  0  0  0  0  0  0  0  0  0  0  0
   -2.7847  -11.3838   12.4288 C   0  0  0  0  0  0  0  0  0  0  0  0
   -3.1324  -12.6131   11.8068 C   0  0  0  0  0  0  0  0  0  0  0  0
   -4.4895  -12.8912   11.4890 C   0  0  0  0  0  0  0  0  0  0  0  0
   -0.9848  -11.9780   13.7959 C   0  0  0  0  0  0  0  0  0  0  0  0
  1  4  1  0  0  0  0
  2  3  1  0  0  0  0
  3  5  1  0  0  0  0
  4  6  1  0  0  0  0
  5  8  1  0  0  0  0
  6  7  1  0  0  0  0
  7 10  1  0  0  0  0
  8  9  1  0  0  0  0
  9 12  1  0  0  0  0
  9 13  1  0  0  0  0
 10 11  1  0  0  0  0
 11 14  1  0  0  0  0
 14 15  1  0  0  0  0
 15 16  1  0  0  0  0
 15 17  1  0  0  0  0
 18  2  1  0  0  0  0
 18 20  2  0  0  0  0
 18 24  1  0  0  0  0
 19 25  1  0  0  0  0
 20  1  1  0  0  0  0
 20 21  1  0  0  0  0
 21 22  2  0  0  0  0
 22 19  1  0  0  0  0
 22 23  1  0  0  0  0
 23 24  2  0  0  0  0
M  END
>  <CHROM.1>
-62.37514313,172.01269713,152.71367576,-69.23278659,-138.65210556,116.37963166
69.39849201,122.98397922,26.49227920,128.37342629,-151.86727210,-115.72919195
-61.90247347,-143.57758819,154.52905991,109.78694097,-104.36256971,111.46412576
-4.78596623,-10.25120609,11.95545110,2.70549109,0.47830691,-2.91038760

>  <Name>
1uud_lig

>  <RI>
0

>  <Rbt.Current_Directory>
/home/itssahil/PROJECTS/Mol_Feturizer/New_Systems/rnas/1uud

>  <Rbt.Executable>
rbdock ($Id: //depot/dev/client3/rdock/2013.1/src/exe/rbdock.cxx#4 $)

>  <Rbt.Library>
libRbt.so (2013.1, Build901 2013/11/27)

>  <Rbt.Parameter_File>
/export/apps/rDock/src/rDock_2013.1_src/data/scripts/dock_solv.prm

>  <Rbt.Receptor>
prm/blind_docking_80.prm

>  <SCORE>
-26.1207

>  <SCORE.INTER>
-19.8171

>  <SCORE.INTER.CONST>
1

>  <SCORE.INTER.POLAR>
-2.27998

>  <SCORE.INTER.ROT>
18

>  <SCORE.INTER.SOLV>
11.2113

>  <SCORE.INTER.VDW>
-24.9486

>  <SCORE.INTER.norm>
-0.792685

>  <SCORE.INTRA>
-6.57151

>  <SCORE.INTRA.DIHEDRAL>
-0.695408

>  <SCORE.INTRA.DIHEDRAL.0>
30.6762

>  <SCORE.INTRA.POLAR>
-0.887628

>  <SCORE.INTRA.POLAR.0>
-0.0288659

>  <SCORE.INTRA.REPUL>
0

>  <SCORE.INTRA.REPUL.0>
0

>  <SCORE.INTRA.SOLV>
-0.23297

>  <SCORE.INTRA.SOLV.lig_0>
-25.2195

>  <SCORE.INTRA.VDW>
-3.08938

>  <SCORE.INTRA.VDW.0>
4.14263

>  <SCORE.INTRA.norm>
-0.26286

>  <SCORE.RESTR>
0.267963

>  <SCORE.RESTR.CAVITY>
0.267963

>  <SCORE.RESTR.norm>
0.0107185

>  <SCORE.SYSTEM>
0

>  <SCORE.SYSTEM.CONST>
0

>  <SCORE.SYSTEM.DIHEDRAL>
0

>  <SCORE.SYSTEM.SOLV>
0

>  <SCORE.SYSTEM.norm>
0

>  <SCORE.heavy>
25

>  <SCORE.norm>
-1.04483

>  <RMSD>
15.801

$$$$
1uud_lig
 OpenBabel11021811413D
libRbt.so/2013.1/901 2013/11/27
 25 25  0  0  0  0  0  0  0  0999 V2000
   -8.5069  -13.3571    8.5242 C   0  0  0  0  0  0  0  0  0  0  0  0
   -6.1463  -11.6739    8.9678 O   0  0  0  0  0  0  0  0  0  0  0  0
   -6.7224  -10.3679    9.1190 C   0  0  0  0  0  0  0  0  0  0  0  0
   -9.5449  -12.2969    8.5531 N   0  0  0  0  0  0  0  0  0  0  0  0
   -5.9861   -9.5884   10.2169 C   0  0  0  0  0  0  0  0  0  0  0  0
   -9.2907  -11.3159    7.4715 C   0  0  0  0  0  0  0  0  0  0  0  0
  -10.5152  -10.4079    7.3046 C   0  0  0  0  0  0  0  0  0  0  0  0
   -6.4246   -8.3528   10.2582 N   0  0  0  0  0  0  0  0  0  0  0  0
   -6.0737   -7.4652    9.3466 C   0  0  0  0  0  0  0  0  0  0  0  0
  -11.7368  -11.2469    6.9139 C   0  0  0  0  0  0  0  0  0  0  0  0
  -13.0134  -10.4380    7.1614 C   0  0  0  0  0  0  0  0  0  0  0  0
   -7.0026   -6.6889    8.7100 N   0  0  0  0  0  0  0  0  0  0  0  0
   -4.7604   -7.3205    9.0328 N   0  0  0  0  0  0  0  0  0  0  0  0
  -13.6759  -10.9494    8.1717 N   0  0  0  0  0  0  0  0  0  0  0  0
  -13.3196  -10.7137    9.4198 C   0  0  0  0  0  0  0  0  0  0  0  0
  -13.6595   -9.5309    9.9935 N   0  0  0  0  0  0  0  0  0  0  0  0
  -12.6081  -11.6273   10.1446 N   0  0  0  0  0  0  0  0  0  0  0  0
   -6.5850  -12.5315   10.0292 C   0  0  0  0  0  0  0  0  0  0  0  0
   -7.9014  -15.0468   13.2214 O   0  0  0  0  0  0  0  0  0  0  0  0
   -7.7302  -13.3614    9.8572 C   0  0  0  0  0  0  0  0  0  0  0  0
   -8.1707  -14.1905   10.9234 C   0  0  0  0  0  0  0  0  0  0  0  0
   -7.4584  -14.2083   12.1513 C   0  0  0  0  0  0  0  0  0  0  0  0
   -6.3047  -13.3956   12.3170 C   0  0  0  0  0  0  0  0  0  0  0  0
   -5.8625  -12.5619   11.2543 C   0  0  0  0  0  0  0  0  0  0  0  0
   -6.8269  -15.8908   13.6453 C   0  0  0  0  0  0  0  0  0  0  0  0
  1  4  1  0  0  0  0
  2  3  1  0  0  0  0
  3  5  1  0  0  0  0
  4  6  1  0  0  0  0
  5  8  1  0  0  0  0
  6  7  1  0  0  0  0
  7 10  1  0  0  0  0
  8  9  1  0  0  0  0
  9 12  1  0  0  0  0
  9 13  1  0  0  0  0
 10 11  1  0  0  0  0
 11 14  1  0  0  0  0
 14 15  1  0  0  0  0
 15 16  1  0  0  0  0
 15 17  1  0  0  0  0
 18  2  1  0  0  0  0
 18 20  2  0  0  0  0
 18 24  1  0  0  0  0
 19 25  1  0  0  0  0
 20  1  1  0  0  0  0
 20 21  1  0  0  0  0
 21 22  2  0  0  0  0
 22 19  1  0  0  0  0
 22 23  1  0  0  0  0
 23 24  2  0  0  0  0
M  END
>  <CHROM.1>
119.17539810,77.05187225,173.61318300,167.62325121,-75.32820785,-61.21728517
162.89675473,130.68320458,-16.38427814,139.90645310,-110.20518913,78.83038996
78.95323405,82.38885449,-104.61241786,93.29471602,-88.06337962,125.43330340
-8.68068129,-11.31386036,9.69492108,0.47590530,0.26361800,2.64921856

>  <Name>
1uud_lig

>  <RI>
0

>  <Rbt.Current_Directory>
/home/itssahil/PROJECTS/Mol_Feturizer/New_Systems/rnas/1uud

>  <Rbt.Executable>
rbdock ($Id: //depot/dev/client3/rdock/2013.1/src/exe/rbdock.cxx#4 $)

>  <Rbt.Library>
libRbt.so (2013.1, Build901 2013/11/27)

>  <Rbt.Parameter_File>
/export/apps/rDock/src/rDock_2013.1_src/data/scripts/dock_solv.prm

>  <Rbt.Receptor>
prm/blind_docking_60.prm

>  <SCORE>
-16.4144

>  <SCORE.INTER>
-14.4985

>  <SCORE.INTER.CONST>
1

>  <SCORE.INTER.POLAR>
-2.30528

>  <SCORE.INTER.ROT>
18

>  <SCORE.INTER.SOLV>
10.2169

>  <SCORE.INTER.VDW>
-20.9871

>  <SCORE.INTER.norm>
-0.579941

>  <SCORE.INTRA>
-4.08688

>  <SCORE.INTRA.DIHEDRAL>
-0.583121

>  <SCORE.INTRA.DIHEDRAL.0>
30.6762

>  <SCORE.INTRA.POLAR>
0.0288659

>  <SCORE.INTRA.POLAR.0>
-0.0288659

>  <SCORE.INTRA.REPUL>
0

>  <SCORE.INTRA.REPUL.0>
0

>  <SCORE.INTRA.SOLV>
0.0397064

>  <SCORE.INTRA.SOLV.lig_0>
-25.2195

>  <SCORE.INTRA.VDW>
-3.91332

>  <SCORE.INTRA.VDW.0>
4.14263

>  <SCORE.INTRA.norm>
-0.163475

>  <SCORE.RESTR>
2.17099

>  <SCORE.RESTR.CAVITY>
2.17099

>  <SCORE.RESTR.norm>
0.0868396

>  <SCORE.SYSTEM>
0

>  <SCORE.SYSTEM.CONST>
0

>  <SCORE.SYSTEM.DIHEDRAL>
0

>  <SCORE.SYSTEM.SOLV>
0

>  <SCORE.SYSTEM.norm>
0

>  <SCORE.heavy>
25

>  <SCORE.norm>
-0.656577

>  <RMSD>
15.829

$$$$
1uud_lig
 OpenBabel11021811413D
libRbt.so/2013.1/901 2013/11/27
 25 25  0  0  0  0  0  0  0  0999 V2000
   -2.8507  -11.8459   12.5202 C   0  0  0  0  0  0  0  0  0  0  0  0
   -4.8378   -9.7349   12.0758 O   0  0  0  0  0  0  0  0  0  0  0  0
   -4.8717   -9.1977   10.7451 C   0  0  0  0  0  0  0  0  0  0  0  0
   -4.2876  -12.1848   12.6709 N   0  0  0  0  0  0  0  0  0  0  0  0
   -5.4337   -7.7698   10.7647 C   0  0  0  0  0  0  0  0  0  0  0  0
   -4.5892  -13.4332   11.9311 C   0  0  0  0  0  0  0  0  0  0  0  0
   -4.2357  -13.2499   10.4502 C   0  0  0  0  0  0  0  0  0  0  0  0
   -6.3684   -7.6450    9.8528 N   0  0  0  0  0  0  0  0  0  0  0  0
   -6.2037   -6.8694    8.7977 C   0  0  0  0  0  0  0  0  0  0  0  0
   -4.9935  -12.0467    9.8786 C   0  0  0  0  0  0  0  0  0  0  0  0
   -5.3676  -12.3237    8.4197 C   0  0  0  0  0  0  0  0  0  0  0  0
   -7.2321   -6.1229    8.2919 N   0  0  0  0  0  0  0  0  0  0  0  0
   -4.9857   -6.8125    8.1999 N   0  0  0  0  0  0  0  0  0  0  0  0
   -6.4580  -13.0517    8.3700 N   0  0  0  0  0  0  0  0  0  0  0  0
   -7.6561  -12.4993    8.3674 C   0  0  0  0  0  0  0  0  0  0  0  0
   -8.5761  -12.9090    9.2781 N   0  0  0  0  0  0  0  0  0  0  0  0
   -7.9955  -11.5328    7.4637 N   0  0  0  0  0  0  0  0  0  0  0  0
   -3.6025   -9.3888   12.7151 C   0  0  0  0  0  0  0  0  0  0  0  0
    0.0538   -8.3441   14.6621 O   0  0  0  0  0  0  0  0  0  0  0  0
   -2.6124  -10.3849   12.9547 C   0  0  0  0  0  0  0  0  0  0  0  0
   -1.4010  -10.0362   13.6100 C   0  0  0  0  0  0  0  0  0  0  0  0
   -1.1680   -8.6931   14.0064 C   0  0  0  0  0  0  0  0  0  0  0  0
   -2.1466   -7.6952   13.7503 C   0  0  0  0  0  0  0  0  0  0  0  0
   -3.3615   -8.0402   13.0983 C   0  0  0  0  0  0  0  0  0  0  0  0
   -0.1878   -8.1621   16.0603 C   0  0  0  0  0  0  0  0  0  0  0  0
  1  4  1  0  0  0  0
  2  3  1  0  0  0  0
  3  5  1  0  0  0  0
  4  6  1  0  0  0  0
  5  8  1  0  0  0  0
  6  7  1  0  0  0  0
  7 10  1  0  0  0  0
  8  9  1  0  0  0  0
  9 12  1  0  0  0  0
  9 13  1  0  0  0  0
 10 11  1  0  0  0  0
 11 14  1  0  0  0  0
 14 15  1  0  0  0  0
 15 16  1  0  0  0  0
 15 17  1  0  0  0  0
 18  2  1  0  0  0  0
 18 20  2  0  0  0  0
 18 24  1  0  0  0  0
 19 25  1  0  0  0  0
 20  1  1  0  0  0  0
 20 21  1  0  0  0  0
 21 22  2  0  0  0  0
 22 19  1  0  0  0  0
 22 23  1  0  0  0  0
 23 24  2  0  0  0  0
M  END
>  <CHROM.1>
164.96058281,-87.83892226,-131.03911870,-58.61312918,-112.97001607,-56.57178227
-145.26866544,-141.84995619,140.38932322,-150.66825791,81.96067732,87.89843579
-127.22232116,120.23747529,-111.04103087,-108.74192954,-34.66208334,-104.06668536
-4.53587372,-10.00464878,11.08846287,-0.21214866,0.80413066,3.05126747

>  <Name>
1uud_lig

>  <RI>
0

>  <Rbt.Current_Directory>
/home/itssahil/PROJECTS/Mol_Feturizer/New_Systems/rnas/1uud

>  <Rbt.Executable>
rbdock ($Id: //depot/dev/client3/rdock/2013.1/src/exe/rbdock.cxx#4 $)

>  <Rbt.Library>
libRbt.so (2013.1, Build901 2013/11/27)

>  <Rbt.Parameter_File>
/export/apps/rDock/src/rDock_2013.1_src/data/scripts/dock_solv.prm

>  <Rbt.Receptor>
prm/blind_docking_40.prm

>  <SCORE>
-29.2906

>  <SCORE.INTER>
-26.0536

>  <SCORE.INTER.CONST>
1

>  <SCORE.INTER.POLAR>
-3.51202

>  <SCORE.INTER.ROT>
18

>  <SCORE.INTER.SOLV>
9.06417

>  <SCORE.INTER.VDW>
-24.2837

>  <SCORE.INTER.norm>
-1.04214

>  <SCORE.INTRA>
-3.28885

>  <SCORE.INTRA.DIHEDRAL>
2.75671

>  <SCORE.INTRA.DIHEDRAL.0>
30.6762

>  <SCORE.INTRA.POLAR>
-0.791955

>  <SCORE.INTRA.POLAR.0>
-0.0288659

>  <SCORE.INTRA.REPUL>
0

>  <SCORE.INTRA.REPUL.0>
0

>  <SCORE.INTRA.SOLV>
-0.488405

>  <SCORE.INTRA.SOLV.lig_0>
-25.2195

>  <SCORE.INTRA.VDW>
-1.73035

>  <SCORE.INTRA.VDW.0>
4.14263

>  <SCORE.INTRA.norm>
-0.131554

>  <SCORE.RESTR>
0.0518429

>  <SCORE.RESTR.CAVITY>
0.0518429

>  <SCORE.RESTR.norm>
0.00207372

>  <SCORE.SYSTEM>
0

>  <SCORE.SYSTEM.CONST>
0

>  <SCORE.SYSTEM.DIHEDRAL>
0

>  <SCORE.SYSTEM.SOLV>
0

>  <SCORE.SYSTEM.norm>
0

>  <SCORE.heavy>
25

>  <SCORE.norm>
-1.17162

>  <RMSD>
15.897

$$$$
1uud_lig
 OpenBabel11021811413D
libRbt.so/2013.1/901 2013/11/27
 25 25  0  0  0  0  0  0  0  0999 V2000
   -8.7788  -13.3842    9.2320 C   0  0  0  0  0  0  0  0  0  0  0  0
   -6.2681  -11.9234    9.6382 O   0  0  0  0  0  0  0  0  0  0  0  0
   -5.2747  -11.0477   10.1919 C   0  0  0  0  0  0  0  0  0  0  0  0
   -9.6839  -14.5438    9.0364 N   0  0  0  0  0  0  0  0  0  0  0  0
   -5.3063   -9.6910    9.4754 C   0  0  0  0  0  0  0  0  0  0  0  0
  -10.9568  -14.3148    9.7604 C   0  0  0  0  0  0  0  0  0  0  0  0
  -11.9122  -13.5059    8.8746 C   0  0  0  0  0  0  0  0  0  0  0  0
   -6.3914   -9.0341    9.8101 N   0  0  0  0  0  0  0  0  0  0  0  0
   -6.4404   -7.7158    9.7684 C   0  0  0  0  0  0  0  0  0  0  0  0
  -12.1028  -12.1023    9.4597 C   0  0  0  0  0  0  0  0  0  0  0  0
  -10.9109  -11.2213    9.0744 C   0  0  0  0  0  0  0  0  0  0  0  0
   -6.8217   -7.0503    8.6360 N   0  0  0  0  0  0  0  0  0  0  0  0
   -6.1032   -7.0042   10.8748 N   0  0  0  0  0  0  0  0  0  0  0  0
  -11.1906  -10.5447    7.9857 N   0  0  0  0  0  0  0  0  0  0  0  0
  -10.6695  -10.8710    6.8184 C   0  0  0  0  0  0  0  0  0  0  0  0
   -9.3271  -10.7702    6.6411 N   0  0  0  0  0  0  0  0  0  0  0  0
  -11.4499  -11.2977    5.7816 N   0  0  0  0  0  0  0  0  0  0  0  0
   -6.6524  -12.9071   10.6073 C   0  0  0  0  0  0  0  0  0  0  0  0
   -7.8006  -15.8030   13.5306 O   0  0  0  0  0  0  0  0  0  0  0  0
   -7.8668  -13.6356   10.4507 C   0  0  0  0  0  0  0  0  0  0  0  0
   -8.2503  -14.5919   11.4288 C   0  0  0  0  0  0  0  0  0  0  0  0
   -7.4143  -14.8370   12.5498 C   0  0  0  0  0  0  0  0  0  0  0  0
   -6.1935  -14.1250   12.6967 C   0  0  0  0  0  0  0  0  0  0  0  0
   -5.8076  -13.1648   11.7225 C   0  0  0  0  0  0  0  0  0  0  0  0
   -7.9298  -17.0872   12.9135 C   0  0  0  0  0  0  0  0  0  0  0  0
  1  4  1  0  0  0  0
  2  3  1  0  0  0  0
  3  5  1  0  0  0  0
  4  6  1  0  0  0  0
  5  8  1  0  0  0  0
  6  7  1  0  0  0  0
  7 10  1  0  0  0  0
  8  9  1  0  0  0  0
  9 12  1  0  0  0  0
  9 13  1  0  0  0  0
 10 11  1  0  0  0  0
 11 14  1  0  0  0  0
 14 15  1  0  0  0  0
 15 16  1  0  0  0  0
 15 17  1  0  0  0  0
 18  2  1  0  0  0  0
 18 20  2  0  0  0  0
 18 24  1  0  0  0  0
 19 25  1  0  0  0  0
 20  1  1  0  0  0  0
 20 21  1  0  0  0  0
 21 22  2  0  0  0  0
 22 19  1  0  0  0  0
 22 23  1  0  0  0  0
 23 24  2  0  0  0  0
M  END
>  <CHROM.1>
92.11773961,-154.92086879,71.08674715,85.51557716,154.01580424,-111.23503392
80.27193561,89.19564330,84.55808041,64.08849594,94.43613876,-105.20300494
-64.62663542,148.38458648,178.57491076,161.97077049,160.09192049,60.17605265
-8.32903118,-12.02414147,9.81875733,1.60811525,0.56651110,2.64148695

>  <Name>
1uud_lig

>  <RI>
0

>  <Rbt.Current_Directory>
/home/itssahil/PROJECTS/Mol_Feturizer/New_Systems/rnas/1uud

>  <Rbt.Executable>
rbdock ($Id: //depot/dev/client3/rdock/2013.1/src/exe/rbdock.cxx#4 $)

>  <Rbt.Library>
libRbt.so (2013.1, Build901 2013/11/27)

>  <Rbt.Parameter_File>
/export/apps/rDock/src/rDock_2013.1_src/data/scripts/dock_solv.prm

>  <Rbt.Receptor>
prm/blind_docking_100.prm

>  <SCORE>
-23.1237

>  <SCORE.INTER>
-26.0639

>  <SCORE.INTER.CONST>
1

>  <SCORE.INTER.POLAR>
-4.23802

>  <SCORE.INTER.ROT>
18

>  <SCORE.INTER.SOLV>
10.3613

>  <SCORE.INTER.VDW>
-22.303

>  <SCORE.INTER.norm>
-1.04256

>  <SCORE.INTRA>
0.37338

>  <SCORE.INTRA.DIHEDRAL>
0.426129

>  <SCORE.INTRA.DIHEDRAL.0>
30.6762

>  <SCORE.INTRA.POLAR>
0.0288659

>  <SCORE.INTRA.POLAR.0>
-0.0288659

>  <SCORE.INTRA.REPUL>
0.00306004

>  <SCORE.INTRA.REPUL.0>
0

>  <SCORE.INTRA.SOLV>
-0.549157

>  <SCORE.INTRA.SOLV.lig_0>
-25.2195

>  <SCORE.INTRA.VDW>
0.321449

>  <SCORE.INTRA.VDW.0>
4.14263

>  <SCORE.INTRA.norm>
0.0149352

>  <SCORE.RESTR>
2.56684

>  <SCORE.RESTR.CAVITY>
2.56684

>  <SCORE.RESTR.norm>
0.102674

>  <SCORE.SYSTEM>
0

>  <SCORE.SYSTEM.CONST>
0

>  <SCORE.SYSTEM.DIHEDRAL>
0

>  <SCORE.SYSTEM.SOLV>
0

>  <SCORE.SYSTEM.norm>
0

>  <SCORE.heavy>
25

>  <SCORE.norm>
-0.924949

>  <RMSD>
15.902

$$$$
1uud_lig
 OpenBabel11021811413D
libRbt.so/2013.1/901 2013/11/27
 25 25  0  0  0  0  0  0  0  0999 V2000
   -4.9923   -8.7371   11.4668 C   0  0  0  0  0  0  0  0  0  0  0  0
   -6.7175  -11.0298   10.8590 O   0  0  0  0  0  0  0  0  0  0  0  0
   -6.7474  -11.0356    9.4239 C   0  0  0  0  0  0  0  0  0  0  0  0
   -4.8042   -8.0055   12.7442 N   0  0  0  0  0  0  0  0  0  0  0  0
   -8.1661  -10.7339    8.9227 C   0  0  0  0  0  0  0  0  0  0  0  0
   -3.3955   -7.5611   12.8655 C   0  0  0  0  0  0  0  0  0  0  0  0
   -2.9563   -7.6432   14.3324 C   0  0  0  0  0  0  0  0  0  0  0  0
   -8.7388  -11.8397    8.5101 N   0  0  0  0  0  0  0  0  0  0  0  0
   -8.1258  -13.0058    8.5907 C   0  0  0  0  0  0  0  0  0  0  0  0
   -1.4271   -7.7004   14.4162 C   0  0  0  0  0  0  0  0  0  0  0  0
   -0.9979   -7.7836   15.8839 C   0  0  0  0  0  0  0  0  0  0  0  0
   -7.2825  -13.4395    7.6052 N   0  0  0  0  0  0  0  0  0  0  0  0
   -8.3386  -13.7933    9.6764 N   0  0  0  0  0  0  0  0  0  0  0  0
   -0.5007   -6.6321   16.2686 N   0  0  0  0  0  0  0  0  0  0  0  0
    0.7524   -6.3042   16.0184 C   0  0  0  0  0  0  0  0  0  0  0  0
    1.3954   -5.4548   16.8603 N   0  0  0  0  0  0  0  0  0  0  0  0
    1.4143   -6.7910   14.9271 N   0  0  0  0  0  0  0  0  0  0  0  0
   -5.3852  -11.2799   11.3248 C   0  0  0  0  0  0  0  0  0  0  0  0
   -1.4036  -12.0479   12.6691 O   0  0  0  0  0  0  0  0  0  0  0  0
   -4.5127  -10.1947   11.6264 C   0  0  0  0  0  0  0  0  0  0  0  0
   -3.1864  -10.4531   12.0652 C   0  0  0  0  0  0  0  0  0  0  0  0
   -2.7376  -11.7907   12.2234 C   0  0  0  0  0  0  0  0  0  0  0  0
   -3.6134  -12.8735   11.9415 C   0  0  0  0  0  0  0  0  0  0  0  0
   -4.9399  -12.6197   11.4989 C   0  0  0  0  0  0  0  0  0  0  0  0
   -1.0046  -11.0348   13.5970 C   0  0  0  0  0  0  0  0  0  0  0  0
  1  4  1  0  0  0  0
  2  3  1  0  0  0  0
  3  5  1  0  0  0  0
  4  6  1  0  0  0  0
  5  8  1  0  0  0  0
  6  7  1  0  0  0  0
  7 10  1  0  0  0  0
  8  9  1  0  0  0  0
  9 12  1  0  0  0  0
  9 13  1  0  0  0  0
 10 11  1  0  0  0  0
 11 14  1  0  0  0  0
 14 15  1  0  0  0  0
 15 16  1  0  0  0  0
 15 17  1  0  0  0  0
 18  2  1  0  0  0  0
 18 20  2  0  0  0  0
 18 24  1  0  0  0  0
 19 25  1  0  0  0  0
 20  1  1  0  0  0  0
 20 21  1  0  0  0  0
 21 22  2  0  0  0  0
 22 19  1  0  0  0  0
 22 23  1  0  0  0  0
 23 24  2  0  0  0  0
M  END
>  <CHROM.1>
81.24217364,-178.61572768,-103.72793363,-144.29620463,1.94181436,159.09835778
-179.94242804,-86.17822469,-22.93020139,42.74551567,-106.24211640,-82.37859593
-151.71594610,-8.54067707,69.49500104,93.81793698,124.90551129,34.36012298
-3.84268653,-9.95912496,12.26942890,2.44445363,0.51364583,-2.80850935

>  <Name>
1uud_lig

>  <RI>
0

>  <Rbt.Current_Directory>
/home/itssahil/PROJECTS/Mol_Feturizer/New_Systems/rnas/1uud

>  <Rbt.Executable>
rbdock ($Id: //depot/dev/client3/rdock/2013.1/src/exe/rbdock.cxx#4 $)

>  <Rbt.Library>
libRbt.so (2013.1, Build901 2013/11/27)

>  <Rbt.Parameter_File>
/export/apps/rDock/src/rDock_2013.1_src/data/scripts/dock_solv.prm

>  <Rbt.Receptor>
prm/blind_docking_20.prm

>  <SCORE>
-29.7948

>  <SCORE.INTER>
-35.0601

>  <SCORE.INTER.CONST>
1

>  <SCORE.INTER.POLAR>
-4.84441

>  <SCORE.INTER.ROT>
18

>  <SCORE.INTER.SOLV>
13.9049

>  <SCORE.INTER.VDW>
-27.4603

>  <SCORE.INTER.norm>
-1.4024

>  <SCORE.INTRA>
5.05405

>  <SCORE.INTRA.DIHEDRAL>
0.184055

>  <SCORE.INTRA.DIHEDRAL.0>
30.6762

>  <SCORE.INTRA.POLAR>
0.0288659

>  <SCORE.INTRA.POLAR.0>
-0.0288659

>  <SCORE.INTRA.REPUL>
0

>  <SCORE.INTRA.REPUL.0>
0

>  <SCORE.INTRA.SOLV>
-0.359206

>  <SCORE.INTRA.SOLV.lig_0>
-25.2195

>  <SCORE.INTRA.VDW>
5.04348

>  <SCORE.INTRA.VDW.0>
4.14263

>  <SCORE.INTRA.norm>
0.202162

>  <SCORE.RESTR>
0.211188

>  <SCORE.RESTR.CAVITY>
0.211188

>  <SCORE.RESTR.norm>
0.00844752

>  <SCORE.SYSTEM>
0

>  <SCORE.SYSTEM.CONST>
0

>  <SCORE.SYSTEM.DIHEDRAL>
0

>  <SCORE.SYSTEM.SOLV>
0

>  <SCORE.SYSTEM.norm>
0

>  <SCORE.heavy>
25

>  <SCORE.norm>
-1.19179

>  <RMSD>
15.909

$$$$
1uud_lig
 OpenBabel11021811413D
libRbt.so/2013.1/901 2013/11/27
 25 25  0  0  0  0  0  0  0  0999 V2000
   -3.3630  -12.1646   11.8503 C   0  0  0  0  0  0  0  0  0  0  0  0
   -4.0853  -10.3798    9.6377 O   0  0  0  0  0  0  0  0  0  0  0  0
   -3.8594   -9.4782   10.7314 C   0  0  0  0  0  0  0  0  0  0  0  0
   -3.5731  -11.4097   13.1105 N   0  0  0  0  0  0  0  0  0  0  0  0
   -4.7192   -8.2180   10.5648 C   0  0  0  0  0  0  0  0  0  0  0  0
   -2.3212  -10.7154   13.4944 C   0  0  0  0  0  0  0  0  0  0  0  0
   -2.6342   -9.6301   14.5317 C   0  0  0  0  0  0  0  0  0  0  0  0
   -5.6068   -8.1521   11.5285 N   0  0  0  0  0  0  0  0  0  0  0  0
   -6.8753   -8.4511   11.3199 C   0  0  0  0  0  0  0  0  0  0  0  0
   -1.3309   -9.0910   15.1313 C   0  0  0  0  0  0  0  0  0  0  0  0
   -1.0934   -7.6611   14.6371 C   0  0  0  0  0  0  0  0  0  0  0  0
   -7.2750   -9.1304   10.2021 N   0  0  0  0  0  0  0  0  0  0  0  0
   -7.8048   -8.0745   12.2355 N   0  0  0  0  0  0  0  0  0  0  0  0
   -0.5079   -6.9567   15.5764 N   0  0  0  0  0  0  0  0  0  0  0  0
    0.7483   -6.5692   15.4657 C   0  0  0  0  0  0  0  0  0  0  0  0
    1.4837   -7.0007   14.4090 N   0  0  0  0  0  0  0  0  0  0  0  0
    1.3289   -5.7529   16.3945 N   0  0  0  0  0  0  0  0  0  0  0  0
   -5.0138  -11.4008   10.0249 C   0  0  0  0  0  0  0  0  0  0  0  0
   -7.7767  -14.4649   11.1332 O   0  0  0  0  0  0  0  0  0  0  0  0
   -4.7000  -12.2923   11.0911 C   0  0  0  0  0  0  0  0  0  0  0  0
   -5.6170  -13.3156   11.4519 C   0  0  0  0  0  0  0  0  0  0  0  0
   -6.8537  -13.4366   10.7653 C   0  0  0  0  0  0  0  0  0  0  0  0
   -7.1760  -12.5358    9.7148 C   0  0  0  0  0  0  0  0  0  0  0  0
   -6.2601  -11.5128    9.3481 C   0  0  0  0  0  0  0  0  0  0  0  0
   -9.0602  -13.8875   11.3895 C   0  0  0  0  0  0  0  0  0  0  0  0
  1  4  1  0  0  0  0
  2  3  1  0  0  0  0
  3  5  1  0  0  0  0
  4  6  1  0  0  0  0
  5  8  1  0  0  0  0
  6  7  1  0  0  0  0
  7 10  1  0  0  0  0
  8  9  1  0  0  0  0
  9 12  1  0  0  0  0
  9 13  1  0  0  0  0
 10 11  1  0  0  0  0
 11 14  1  0  0  0  0
 14 15  1  0  0  0  0
 15 16  1  0  0  0  0
 15 17  1  0  0  0  0
 18  2  1  0  0  0  0
 18 20  2  0  0  0  0
 18 24  1  0  0  0  0
 19 25  1  0  0  0  0
 20  1  1  0  0  0  0
 20 21  1  0  0  0  0
 21 22  2  0  0  0  0
 22 19  1  0  0  0  0
 22 23  1  0  0  0  0
 23 24  2  0  0  0  0
M  END
>  <CHROM.1>
-152.26158822,-98.66694514,114.60120483,163.46318401,-103.81907800,169.25404320
109.58993869,15.37098179,138.59586385,-125.32755752,146.00638023,109.79204957
-5.46305716,84.57207831,-172.27067248,-61.60631118,98.14793735,127.17211630
-4.12547244,-9.99324479,12.28715979,-2.59748433,-0.56631340,0.00764239

>  <Name>
1uud_lig

>  <RI>
0

>  <Rbt.Current_Directory>
/home/itssahil/PROJECTS/Mol_Feturizer/New_Systems/rnas/1uud

>  <Rbt.Executable>
rbdock ($Id: //depot/dev/client3/rdock/2013.1/src/exe/rbdock.cxx#4 $)

>  <Rbt.Library>
libRbt.so (2013.1, Build901 2013/11/27)

>  <Rbt.Parameter_File>
/export/apps/rDock/src/rDock_2013.1_src/data/scripts/dock_solv.prm

>  <Rbt.Receptor>
prm/blind_docking_40.prm

>  <SCORE>
-26.9773

>  <SCORE.INTER>
-29.8022

>  <SCORE.INTER.CONST>
1

>  <SCORE.INTER.POLAR>
-4.63433

>  <SCORE.INTER.ROT>
18

>  <SCORE.INTER.SOLV>
13.7216

>  <SCORE.INTER.VDW>
-24.5942

>  <SCORE.INTER.norm>
-1.19209

>  <SCORE.INTRA>
2.1222

>  <SCORE.INTRA.DIHEDRAL>
8.65846

>  <SCORE.INTRA.DIHEDRAL.0>
30.6762

>  <SCORE.INTRA.POLAR>
0.0288659

>  <SCORE.INTRA.POLAR.0>
-0.0288659

>  <SCORE.INTRA.REPUL>
0

>  <SCORE.INTRA.REPUL.0>
0

>  <SCORE.INTRA.SOLV>
0.294142

>  <SCORE.INTRA.SOLV.lig_0>
-25.2195

>  <SCORE.INTRA.VDW>
-2.45224

>  <SCORE.INTRA.VDW.0>
4.14263

>  <SCORE.INTRA.norm>
0.0848881

>  <SCORE.RESTR>
0.702737

>  <SCORE.RESTR.CAVITY>
0.702737

>  <SCORE.RESTR.norm>
0.0281095

>  <SCORE.SYSTEM>
0

>  <SCORE.SYSTEM.CONST>
0

>  <SCORE.SYSTEM.DIHEDRAL>
0

>  <SCORE.SYSTEM.SOLV>
0

>  <SCORE.SYSTEM.norm>
0

>  <SCORE.heavy>
25

>  <SCORE.norm>
-1.07909

>  <RMSD>
15.911

$$$$
1uud_lig
 OpenBabel11021811413D
libRbt.so/2013.1/901 2013/11/27
 25 25  0  0  0  0  0  0  0  0999 V2000
   -4.8141  -13.1663    9.5785 C   0  0  0  0  0  0  0  0  0  0  0  0
   -3.8146  -12.1244   12.1315 O   0  0  0  0  0  0  0  0  0  0  0  0
   -3.7456  -10.7821   12.6354 C   0  0  0  0  0  0  0  0  0  0  0  0
   -4.5171  -11.8087    9.0580 N   0  0  0  0  0  0  0  0  0  0  0  0
   -4.5463   -9.8354   11.7312 C   0  0  0  0  0  0  0  0  0  0  0  0
   -5.7829  -11.0917    8.7745 C   0  0  0  0  0  0  0  0  0  0  0  0
   -6.1731  -11.3010    7.3063 C   0  0  0  0  0  0  0  0  0  0  0  0
   -5.0624   -8.8644   12.4465 N   0  0  0  0  0  0  0  0  0  0  0  0
   -4.4638   -7.6930   12.5536 C   0  0  0  0  0  0  0  0  0  0  0  0
   -7.5939  -10.7796    7.0652 C   0  0  0  0  0  0  0  0  0  0  0  0
   -8.5985  -11.6755    7.7955 C   0  0  0  0  0  0  0  0  0  0  0  0
   -3.1010   -7.5813   12.5241 N   0  0  0  0  0  0  0  0  0  0  0  0
   -5.2186   -6.5732   12.6977 N   0  0  0  0  0  0  0  0  0  0  0  0
   -9.4053  -10.9394    8.5225 N   0  0  0  0  0  0  0  0  0  0  0  0
  -10.5909  -11.3803    8.8972 C   0  0  0  0  0  0  0  0  0  0  0  0
  -10.7003  -12.6335    9.4083 N   0  0  0  0  0  0  0  0  0  0  0  0
  -11.7119  -10.6095    8.7735 N   0  0  0  0  0  0  0  0  0  0  0  0
   -5.1805  -12.5516   12.0541 C   0  0  0  0  0  0  0  0  0  0  0  0
   -9.2669  -13.7779   11.8335 O   0  0  0  0  0  0  0  0  0  0  0  0
   -5.7077  -13.0592   10.8316 C   0  0  0  0  0  0  0  0  0  0  0  0
   -7.0692  -13.4583   10.7589 C   0  0  0  0  0  0  0  0  0  0  0  0
   -7.8980  -13.3717   11.9083 C   0  0  0  0  0  0  0  0  0  0  0  0
   -7.3679  -12.8839   13.1331 C   0  0  0  0  0  0  0  0  0  0  0  0
   -6.0073  -12.4802   13.2095 C   0  0  0  0  0  0  0  0  0  0  0  0
   -9.3463  -15.2055   11.8809 C   0  0  0  0  0  0  0  0  0  0  0  0
  1  4  1  0  0  0  0
  2  3  1  0  0  0  0
  3  5  1  0  0  0  0
  4  6  1  0  0  0  0
  5  8  1  0  0  0  0
  6  7  1  0  0  0  0
  7 10  1  0  0  0  0
  8  9  1  0  0  0  0
  9 12  1  0  0  0  0
  9 13  1  0  0  0  0
 10 11  1  0  0  0  0
 11 14  1  0  0  0  0
 14 15  1  0  0  0  0
 15 16  1  0  0  0  0
 15 17  1  0  0  0  0
 18  2  1  0  0  0  0
 18 20  2  0  0  0  0
 18 24  1  0  0  0  0
 19 25  1  0  0  0  0
 20  1  1  0  0  0  0
 20 21  1  0  0  0  0
 21 22  2  0  0  0  0
 22 19  1  0  0  0  0
 22 23  1  0  0  0  0
 23 24  2  0  0  0  0
M  END
>  <CHROM.1>
-56.63909928,-58.26283345,147.85416879,-93.01782623,96.09250909,169.97498861
-68.59682332,-31.97393233,104.79961498,152.52773673,129.20403965,157.90839234
46.26469591,57.70210083,-76.43251783,126.19196088,-70.54842914,78.06701433
-6.72728326,-11.36618389,10.68406168,-0.17982338,0.64678794,2.59476165

>  <Name>
1uud_lig

>  <RI>
0

>  <Rbt.Current_Directory>
/home/itssahil/PROJECTS/Mol_Feturizer/New_Systems/rnas/1uud

>  <Rbt.Executable>
rbdock ($Id: //depot/dev/client3/rdock/2013.1/src/exe/rbdock.cxx#4 $)

>  <Rbt.Library>
libRbt.so (2013.1, Build901 2013/11/27)

>  <Rbt.Parameter_File>
/export/apps/rDock/src/rDock_2013.1_src/data/scripts/dock_solv.prm

>  <Rbt.Receptor>
prm/blind_docking_60.prm

>  <SCORE>
-20.7766

>  <SCORE.INTER>
-16.0812

>  <SCORE.INTER.CONST>
1

>  <SCORE.INTER.POLAR>
-3.36916

>  <SCORE.INTER.ROT>
18

>  <SCORE.INTER.SOLV>
10.8179

>  <SCORE.INTER.VDW>
-18.6962

>  <SCORE.INTER.norm>
-0.643248

>  <SCORE.INTRA>
-6.2152

>  <SCORE.INTRA.DIHEDRAL>
-1.53344

>  <SCORE.INTRA.DIHEDRAL.0>
30.6762

>  <SCORE.INTRA.POLAR>
-0.971134

>  <SCORE.INTRA.POLAR.0>
-0.0288659

>  <SCORE.INTRA.REPUL>
0.0983772

>  <SCORE.INTRA.REPUL.0>
0

>  <SCORE.INTRA.SOLV>
0.225434

>  <SCORE.INTRA.SOLV.lig_0>
-25.2195

>  <SCORE.INTRA.VDW>
-2.75122

>  <SCORE.INTRA.VDW.0>
4.14263

>  <SCORE.INTRA.norm>
-0.248608

>  <SCORE.RESTR>
1.51984

>  <SCORE.RESTR.CAVITY>
1.51984

>  <SCORE.RESTR.norm>
0.0607936

>  <SCORE.SYSTEM>
0

>  <SCORE.SYSTEM.CONST>
0

>  <SCORE.SYSTEM.DIHEDRAL>
0

>  <SCORE.SYSTEM.SOLV>
0

>  <SCORE.SYSTEM.norm>
0

>  <SCORE.heavy>
25

>  <SCORE.norm>
-0.831062

>  <RMSD>
15.913

$$$$
1uud_lig
 OpenBabel11021811413D
libRbt.so/2013.1/901 2013/11/27
 25 25  0  0  0  0  0  0  0  0999 V2000
   -3.4541  -11.6579   13.3504 C   0  0  0  0  0  0  0  0  0  0  0  0
   -5.7517   -9.8351   13.3203 O   0  0  0  0  0  0  0  0  0  0  0  0
   -6.5366   -9.0824   12.3834 C   0  0  0  0  0  0  0  0  0  0  0  0
   -4.6129  -11.9868   12.4836 N   0  0  0  0  0  0  0  0  0  0  0  0
   -6.0744   -9.3756   10.9497 C   0  0  0  0  0  0  0  0  0  0  0  0
   -4.2472  -11.7906   11.0607 C   0  0  0  0  0  0  0  0  0  0  0  0
   -5.2064  -12.5893   10.1699 C   0  0  0  0  0  0  0  0  0  0  0  0
   -6.7151   -8.6013   10.1066 N   0  0  0  0  0  0  0  0  0  0  0  0
   -6.0715   -7.8621    9.2227 C   0  0  0  0  0  0  0  0  0  0  0  0
   -5.1123  -12.0901    8.7239 C   0  0  0  0  0  0  0  0  0  0  0  0
   -6.0068  -12.9502    7.8265 C   0  0  0  0  0  0  0  0  0  0  0  0
   -5.0570   -8.3770    8.4636 N   0  0  0  0  0  0  0  0  0  0  0  0
   -6.4239   -6.5602    9.0645 N   0  0  0  0  0  0  0  0  0  0  0  0
   -7.2138  -12.4382    7.7788 N   0  0  0  0  0  0  0  0  0  0  0  0
   -7.9404  -12.2831    8.8689 C   0  0  0  0  0  0  0  0  0  0  0  0
   -8.1941  -13.3610    9.6546 N   0  0  0  0  0  0  0  0  0  0  0  0
   -8.4518  -11.0659    9.2197 N   0  0  0  0  0  0  0  0  0  0  0  0
   -4.4356   -9.2763   13.4211 C   0  0  0  0  0  0  0  0  0  0  0  0
   -0.5249   -7.5919   13.7666 O   0  0  0  0  0  0  0  0  0  0  0  0
   -3.2926  -10.1265   13.4443 C   0  0  0  0  0  0  0  0  0  0  0  0
   -1.9939   -9.5640   13.5678 C   0  0  0  0  0  0  0  0  0  0  0  0
   -1.8334   -8.1556   13.6465 C   0  0  0  0  0  0  0  0  0  0  0  0
   -2.9715   -7.3059   13.6038 C   0  0  0  0  0  0  0  0  0  0  0  0
   -4.2729   -7.8644   13.4839 C   0  0  0  0  0  0  0  0  0  0  0  0
   -0.0057   -7.8599   15.0725 C   0  0  0  0  0  0  0  0  0  0  0  0
  1  4  1  0  0  0  0
  2  3  1  0  0  0  0
  3  5  1  0  0  0  0
  4  6  1  0  0  0  0
  5  8  1  0  0  0  0
  6  7  1  0  0  0  0
  7 10  1  0  0  0  0
  8  9  1  0  0  0  0
  9 12  1  0  0  0  0
  9 13  1  0  0  0  0
 10 11  1  0  0  0  0
 11 14  1  0  0  0  0
 14 15  1  0  0  0  0
 15 16  1  0  0  0  0
 15 17  1  0  0  0  0
 18  2  1  0  0  0  0
 18 20  2  0  0  0  0
 18 24  1  0  0  0  0
 19 25  1  0  0  0  0
 20  1  1  0  0  0  0
 20 21  1  0  0  0  0
 21 22  2  0  0  0  0
 22 19  1  0  0  0  0
 22 23  1  0  0  0  0
 23 24  2  0  0  0  0
M  END
>  <CHROM.1>
76.08305278,73.19366465,-174.60302564,159.37597511,127.45812538,163.61495643
176.46955472,46.42300636,58.69940814,178.85633568,89.45480993,-59.59270698
-56.21514478,39.47662301,119.38355073,-136.57848386,33.71023466,-71.32634186
-4.95994064,-10.00296515,11.24129456,-0.38576688,0.80265969,3.07218262

>  <Name>
1uud_lig

>  <RI>
0

>  <Rbt.Current_Directory>
/home/itssahil/PROJECTS/Mol_Feturizer/New_Systems/rnas/1uud

>  <Rbt.Executable>
rbdock ($Id: //depot/dev/client3/rdock/2013.1/src/exe/rbdock.cxx#4 $)

>  <Rbt.Library>
libRbt.so (2013.1, Build901 2013/11/27)

>  <Rbt.Parameter_File>
/export/apps/rDock/src/rDock_2013.1_src/data/scripts/dock_solv.prm

>  <Rbt.Receptor>
prm/blind_docking_20.prm

>  <SCORE>
-30.8199

>  <SCORE.INTER>
-20.0267

>  <SCORE.INTER.CONST>
1

>  <SCORE.INTER.POLAR>
-2.77497

>  <SCORE.INTER.ROT>
18

>  <SCORE.INTER.SOLV>
8.96718

>  <SCORE.INTER.VDW>
-22.6903

>  <SCORE.INTER.norm>
-0.80107

>  <SCORE.INTRA>
-10.7932

>  <SCORE.INTRA.DIHEDRAL>
-7.63006

>  <SCORE.INTRA.DIHEDRAL.0>
30.6762

>  <SCORE.INTRA.POLAR>
-1.73823

>  <SCORE.INTRA.POLAR.0>
-0.0288659

>  <SCORE.INTRA.REPUL>
0.00262626

>  <SCORE.INTRA.REPUL.0>
0

>  <SCORE.INTRA.SOLV>
1.54439

>  <SCORE.INTRA.SOLV.lig_0>
-25.2195

>  <SCORE.INTRA.VDW>
-1.85347

>  <SCORE.INTRA.VDW.0>
4.14263

>  <SCORE.INTRA.norm>
-0.431726

>  <SCORE.RESTR>
0

>  <SCORE.RESTR.CAVITY>
0

>  <SCORE.RESTR.norm>
0

>  <SCORE.SYSTEM>
0

>  <SCORE.SYSTEM.CONST>
0

>  <SCORE.SYSTEM.DIHEDRAL>
0

>  <SCORE.SYSTEM.SOLV>
0

>  <SCORE.SYSTEM.norm>
0

>  <SCORE.heavy>
25

>  <SCORE.norm>
-1.2328

>  <RMSD>
15.922

$$$$
1uud_lig
 OpenBabel11021811413D
libRbt.so/2013.1/901 2013/11/27
 25 25  0  0  0  0  0  0  0  0999 V2000
   -2.7603  -12.4998   12.1272 C   0  0  0  0  0  0  0  0  0  0  0  0
   -4.9964  -10.9982   13.2880 O   0  0  0  0  0  0  0  0  0  0  0  0
   -5.9426   -9.9373   13.4864 C   0  0  0  0  0  0  0  0  0  0  0  0
   -2.4031  -11.2608   12.8615 N   0  0  0  0  0  0  0  0  0  0  0  0
   -5.5831   -8.7351   12.6028 C   0  0  0  0  0  0  0  0  0  0  0  0
   -1.0076  -11.3528   13.3523 C   0  0  0  0  0  0  0  0  0  0  0  0
   -0.9401  -10.8573   14.8020 C   0  0  0  0  0  0  0  0  0  0  0  0
   -6.5750   -8.4675   11.7872 N   0  0  0  0  0  0  0  0  0  0  0  0
   -6.3606   -8.0620   10.5496 C   0  0  0  0  0  0  0  0  0  0  0  0
   -1.6201   -9.4887   14.9172 C   0  0  0  0  0  0  0  0  0  0  0  0
   -0.7243   -8.4177   14.2879 C   0  0  0  0  0  0  0  0  0  0  0  0
   -6.7361   -6.8153   10.1308 N   0  0  0  0  0  0  0  0  0  0  0  0
   -5.7546   -8.9026    9.6719 N   0  0  0  0  0  0  0  0  0  0  0  0
    0.3708   -8.2801   14.9971 N   0  0  0  0  0  0  0  0  0  0  0  0
    0.4236   -7.4641   16.0324 C   0  0  0  0  0  0  0  0  0  0  0  0
   -0.0723   -6.2061   15.9101 N   0  0  0  0  0  0  0  0  0  0  0  0
    0.9746   -7.8521   17.2207 N   0  0  0  0  0  0  0  0  0  0  0  0
   -5.1561  -11.5622   11.9800 C   0  0  0  0  0  0  0  0  0  0  0  0
   -5.6375  -13.1966    8.0624 O   0  0  0  0  0  0  0  0  0  0  0  0
   -4.0928  -12.2944   11.3772 C   0  0  0  0  0  0  0  0  0  0  0  0
   -4.2528  -12.8296   10.0710 C   0  0  0  0  0  0  0  0  0  0  0  0
   -5.4778  -12.6535    9.3754 C   0  0  0  0  0  0  0  0  0  0  0  0
   -6.5456  -11.9401    9.9836 C   0  0  0  0  0  0  0  0  0  0  0  0
   -6.3888  -11.3999   11.2888 C   0  0  0  0  0  0  0  0  0  0  0  0
   -5.8615  -12.1359    7.1291 C   0  0  0  0  0  0  0  0  0  0  0  0
  1  4  1  0  0  0  0
  2  3  1  0  0  0  0
  3  5  1  0  0  0  0
  4  6  1  0  0  0  0
  5  8  1  0  0  0  0
  6  7  1  0  0  0  0
  7 10  1  0  0  0  0
  8  9  1  0  0  0  0
  9 12  1  0  0  0  0
  9 13  1  0  0  0  0
 10 11  1  0  0  0  0
 11 14  1  0  0  0  0
 14 15  1  0  0  0  0
 15 16  1  0  0  0  0
 15 17  1  0  0  0  0
 18  2  1  0  0  0  0
 18 20  2  0  0  0  0
 18 24  1  0  0  0  0
 19 25  1  0  0  0  0
 20  1  1  0  0  0  0
 20 21  1  0  0  0  0
 21 22  2  0  0  0  0
 22 19  1  0  0  0  0
 22 23  1  0  0  0  0
 23 24  2  0  0  0  0
M  END
>  <CHROM.1>
-168.57411479,-69.43717683,120.34786071,-135.72591166,-143.05219229,-50.64682183
-73.58939738,-115.31058218,-170.40788048,140.54134172,-66.78686122,-86.85850905
-46.62399032,139.73138639,-94.02952684,159.01495890,-39.05869901,-117.70003224
-3.68810102,-10.06705354,12.32326804,-2.51547515,-0.62807391,0.42613011

>  <Name>
1uud_lig

>  <RI>
0

>  <Rbt.Current_Directory>
/home/itssahil/PROJECTS/Mol_Feturizer/New_Systems/rnas/1uud

>  <Rbt.Executable>
rbdock ($Id: //depot/dev/client3/rdock/2013.1/src/exe/rbdock.cxx#4 $)

>  <Rbt.Library>
libRbt.so (2013.1, Build901 2013/11/27)

>  <Rbt.Parameter_File>
/export/apps/rDock/src/rDock_2013.1_src/data/scripts/dock_solv.prm

>  <Rbt.Receptor>
prm/blind_docking_40.prm

>  <SCORE>
-30.5994

>  <SCORE.INTER>
-27.9251

>  <SCORE.INTER.CONST>
1

>  <SCORE.INTER.POLAR>
-4.87134

>  <SCORE.INTER.ROT>
18

>  <SCORE.INTER.SOLV>
8.33236

>  <SCORE.INTER.VDW>
-20.7564

>  <SCORE.INTER.norm>
-1.11701

>  <SCORE.INTRA>
-4.0393

>  <SCORE.INTRA.DIHEDRAL>
-5.44669

>  <SCORE.INTRA.DIHEDRAL.0>
30.6762

>  <SCORE.INTRA.POLAR>
-0.328946

>  <SCORE.INTRA.POLAR.0>
-0.0288659

>  <SCORE.INTRA.REPUL>
0

>  <SCORE.INTRA.REPUL.0>
0

>  <SCORE.INTRA.SOLV>
0.920476

>  <SCORE.INTRA.SOLV.lig_0>
-25.2195

>  <SCORE.INTRA.VDW>
-0.657774

>  <SCORE.INTRA.VDW.0>
4.14263

>  <SCORE.INTRA.norm>
-0.161572

>  <SCORE.RESTR>
1.36502

>  <SCORE.RESTR.CAVITY>
1.36502

>  <SCORE.RESTR.norm>
0.0546006

>  <SCORE.SYSTEM>
0

>  <SCORE.SYSTEM.CONST>
0

>  <SCORE.SYSTEM.DIHEDRAL>
0

>  <SCORE.SYSTEM.SOLV>
0

>  <SCORE.SYSTEM.norm>
0

>  <SCORE.heavy>
25

>  <SCORE.norm>
-1.22398

>  <RMSD>
15.922

$$$$
1uud_lig
 OpenBabel11021811413D
libRbt.so/2013.1/901 2013/11/27
 25 25  0  0  0  0  0  0  0  0999 V2000
   -5.6057  -12.2905   12.5756 C   0  0  0  0  0  0  0  0  0  0  0  0
   -6.9198   -9.6883   12.2526 O   0  0  0  0  0  0  0  0  0  0  0  0
   -7.3202   -8.3525   11.9125 C   0  0  0  0  0  0  0  0  0  0  0  0
   -6.8606  -12.9258   13.0486 N   0  0  0  0  0  0  0  0  0  0  0  0
   -6.0901   -7.5038   11.5636 C   0  0  0  0  0  0  0  0  0  0  0  0
   -7.3344  -13.9091   12.0460 C   0  0  0  0  0  0  0  0  0  0  0  0
   -8.8532  -14.0790   12.1721 C   0  0  0  0  0  0  0  0  0  0  0  0
   -5.0627   -7.8894   12.2823 N   0  0  0  0  0  0  0  0  0  0  0  0
   -4.6091   -7.1602   13.2845 C   0  0  0  0  0  0  0  0  0  0  0  0
   -9.3981  -14.8217   10.9473 C   0  0  0  0  0  0  0  0  0  0  0  0
   -9.4529  -13.8661    9.7519 C   0  0  0  0  0  0  0  0  0  0  0  0
   -3.3470   -6.6333   13.2711 N   0  0  0  0  0  0  0  0  0  0  0  0
   -5.4136   -6.9290   14.3539 N   0  0  0  0  0  0  0  0  0  0  0  0
  -10.4723  -13.0502    9.8803 N   0  0  0  0  0  0  0  0  0  0  0  0
  -10.8124  -12.2151    8.9173 C   0  0  0  0  0  0  0  0  0  0  0  0
  -10.1135  -11.0612    8.7639 N   0  0  0  0  0  0  0  0  0  0  0  0
  -11.8573  -12.4796    8.0779 N   0  0  0  0  0  0  0  0  0  0  0  0
   -6.4838  -10.3856   11.0786 C   0  0  0  0  0  0  0  0  0  0  0  0
   -5.1526  -12.4260    7.5694 O   0  0  0  0  0  0  0  0  0  0  0  0
   -5.8365  -11.6498   11.1912 C   0  0  0  0  0  0  0  0  0  0  0  0
   -5.3873  -12.3221   10.0231 C   0  0  0  0  0  0  0  0  0  0  0  0
   -5.6020  -11.7453    8.7437 C   0  0  0  0  0  0  0  0  0  0  0  0
   -6.2649  -10.4938    8.6292 C   0  0  0  0  0  0  0  0  0  0  0  0
   -6.7128   -9.8160    9.7954 C   0  0  0  0  0  0  0  0  0  0  0  0
   -5.9788  -12.0630    6.4593 C   0  0  0  0  0  0  0  0  0  0  0  0
  1  4  1  0  0  0  0
  2  3  1  0  0  0  0
  3  5  1  0  0  0  0
  4  6  1  0  0  0  0
  5  8  1  0  0  0  0
  6  7  1  0  0  0  0
  7 10  1  0  0  0  0
  8  9  1  0  0  0  0
  9 12  1  0  0  0  0
  9 13  1  0  0  0  0
 10 11  1  0  0  0  0
 11 14  1  0  0  0  0
 14 15  1  0  0  0  0
 15 16  1  0  0  0  0
 15 17  1  0  0  0  0
 18  2  1  0  0  0  0
 18 20  2  0  0  0  0
 18 24  1  0  0  0  0
 19 25  1  0  0  0  0
 20  1  1  0  0  0  0
 20 21  1  0  0  0  0
 21 22  2  0  0  0  0
 22 19  1  0  0  0  0
 22 23  1  0  0  0  0
 23 24  2  0  0  0  0
M  END
>  <CHROM.1>
56.13487191,-71.51701427,-33.09027519,-154.13973999,-106.70201274,166.59649947
-76.19549079,-117.08510094,67.67477225,-142.12126030,-75.84809193,-173.38325474
-79.36525712,-136.68795768,96.01014503,169.79221667,79.32460065,152.24131760
-7.10404035,-11.00509868,10.76582576,0.63394945,0.78480564,1.34354093

>  <Name>
1uud_lig

>  <RI>
0

>  <Rbt.Current_Directory>
/home/itssahil/PROJECTS/Mol_Feturizer/New_Systems/rnas/1uud

>  <Rbt.Executable>
rbdock ($Id: //depot/dev/client3/rdock/2013.1/src/exe/rbdock.cxx#4 $)

>  <Rbt.Library>
libRbt.so (2013.1, Build901 2013/11/27)

>  <Rbt.Parameter_File>
/export/apps/rDock/src/rDock_2013.1_src/data/scripts/dock_solv.prm

>  <Rbt.Receptor>
prm/blind_docking_60.prm

>  <SCORE>
-18.1469

>  <SCORE.INTER>
-16.0901

>  <SCORE.INTER.CONST>
1

>  <SCORE.INTER.POLAR>
-2.71592

>  <SCORE.INTER.ROT>
18

>  <SCORE.INTER.SOLV>
11.3695

>  <SCORE.INTER.VDW>
-21.0635

>  <SCORE.INTER.norm>
-0.643603

>  <SCORE.INTRA>
-2.0596

>  <SCORE.INTRA.DIHEDRAL>
-12.1957

>  <SCORE.INTRA.DIHEDRAL.0>
30.6762

>  <SCORE.INTRA.POLAR>
0.0288659

>  <SCORE.INTRA.POLAR.0>
-0.0288659

>  <SCORE.INTRA.REPUL>
0

>  <SCORE.INTRA.REPUL.0>
0

>  <SCORE.INTRA.SOLV>
-0.0221032

>  <SCORE.INTRA.SOLV.lig_0>
-25.2195

>  <SCORE.INTRA.VDW>
3.95116

>  <SCORE.INTRA.VDW.0>
4.14263

>  <SCORE.INTRA.norm>
-0.0823841

>  <SCORE.RESTR>
0.00272896

>  <SCORE.RESTR.CAVITY>
0.00272896

>  <SCORE.RESTR.norm>
0.000109158

>  <SCORE.SYSTEM>
0

>  <SCORE.SYSTEM.CONST>
0

>  <SCORE.SYSTEM.DIHEDRAL>
0

>  <SCORE.SYSTEM.SOLV>
0

>  <SCORE.SYSTEM.norm>
0

>  <SCORE.heavy>
25

>  <SCORE.norm>
-0.725877

>  <RMSD>
15.923

$$$$
1uud_lig
 OpenBabel11021811413D
libRbt.so/2013.1/901 2013/11/27
 25 25  0  0  0  0  0  0  0  0999 V2000
   -5.2917  -12.6800    8.6052 C   0  0  0  0  0  0  0  0  0  0  0  0
   -4.0528  -10.3838    9.9450 O   0  0  0  0  0  0  0  0  0  0  0  0
   -3.7731   -9.1903   10.6917 C   0  0  0  0  0  0  0  0  0  0  0  0
   -6.5470  -13.2156    8.0226 N   0  0  0  0  0  0  0  0  0  0  0  0
   -4.9048   -8.1709   10.5038 C   0  0  0  0  0  0  0  0  0  0  0  0
   -7.5098  -12.1105    7.8023 C   0  0  0  0  0  0  0  0  0  0  0  0
   -7.9949  -11.5758    9.1552 C   0  0  0  0  0  0  0  0  0  0  0  0
   -5.2771   -7.6968   11.6688 N   0  0  0  0  0  0  0  0  0  0  0  0
   -4.4278   -7.0726   12.4632 C   0  0  0  0  0  0  0  0  0  0  0  0
   -9.3346  -10.8525    8.9797 C   0  0  0  0  0  0  0  0  0  0  0  0
  -10.4754  -11.8736    9.0114 C   0  0  0  0  0  0  0  0  0  0  0  0
   -4.7209   -6.8355   13.7779 N   0  0  0  0  0  0  0  0  0  0  0  0
   -3.2362   -6.6552   11.9631 N   0  0  0  0  0  0  0  0  0  0  0  0
  -11.1487  -11.8243    7.8864 N   0  0  0  0  0  0  0  0  0  0  0  0
  -12.1018  -10.9332    7.6919 C   0  0  0  0  0  0  0  0  0  0  0  0
  -11.9444   -9.9961    6.7220 N   0  0  0  0  0  0  0  0  0  0  0  0
  -13.2381  -10.9252    8.4501 N   0  0  0  0  0  0  0  0  0  0  0  0
   -4.8713  -11.2691   10.7202 C   0  0  0  0  0  0  0  0  0  0  0  0
   -7.3428  -13.8695   13.0396 O   0  0  0  0  0  0  0  0  0  0  0  0
   -5.4959  -12.3935   10.1073 C   0  0  0  0  0  0  0  0  0  0  0  0
   -6.3241  -13.2517   10.8793 C   0  0  0  0  0  0  0  0  0  0  0  0
   -6.5121  -13.0018   12.2641 C   0  0  0  0  0  0  0  0  0  0  0  0
   -5.8738  -11.8919   12.8803 C   0  0  0  0  0  0  0  0  0  0  0  0
   -5.0473  -11.0287   12.1112 C   0  0  0  0  0  0  0  0  0  0  0  0
   -6.7604  -15.1754   13.0859 C   0  0  0  0  0  0  0  0  0  0  0  0
  1  4  1  0  0  0  0
  2  3  1  0  0  0  0
  3  5  1  0  0  0  0
  4  6  1  0  0  0  0
  5  8  1  0  0  0  0
  6  7  1  0  0  0  0
  7 10  1  0  0  0  0
  8  9  1  0  0  0  0
  9 12  1  0  0  0  0
  9 13  1  0  0  0  0
 10 11  1  0  0  0  0
 11 14  1  0  0  0  0
 14 15  1  0  0  0  0
 15 16  1  0  0  0  0
 15 17  1  0  0  0  0
 18  2  1  0  0  0  0
 18 20  2  0  0  0  0
 18 24  1  0  0  0  0
 19 25  1  0  0  0  0
 20  1  1  0  0  0  0
 20 21  1  0  0  0  0
 21 22  2  0  0  0  0
 22 19  1  0  0  0  0
 22 23  1  0  0  0  0
 23 24  2  0  0  0  0
M  END
>  <CHROM.1>
77.34360821,-85.89338810,131.93588565,-68.99140990,59.05020492,-158.22826140
84.02928804,-165.61997532,-102.54753375,137.41318032,-120.58510581,-83.36914027
115.81022432,86.29676043,-105.22066668,167.68158325,-143.65760575,64.60346338
-7.01619178,-10.91548113,10.31442962,-2.86032315,-0.56629216,-0.12620763

>  <Name>
1uud_lig

>  <RI>
0

>  <Rbt.Current_Directory>
/home/itssahil/PROJECTS/Mol_Feturizer/New_Systems/rnas/1uud

>  <Rbt.Executable>
rbdock ($Id: //depot/dev/client3/rdock/2013.1/src/exe/rbdock.cxx#4 $)

>  <Rbt.Library>
libRbt.so (2013.1, Build901 2013/11/27)

>  <Rbt.Parameter_File>
/export/apps/rDock/src/rDock_2013.1_src/data/scripts/dock_solv.prm

>  <Rbt.Receptor>
prm/blind_docking_60.prm

>  <SCORE>
-23.1582

>  <SCORE.INTER>
-30.8584

>  <SCORE.INTER.CONST>
1

>  <SCORE.INTER.POLAR>
-5.40316

>  <SCORE.INTER.ROT>
18

>  <SCORE.INTER.SOLV>
11.9259

>  <SCORE.INTER.VDW>
-22.137

>  <SCORE.INTER.norm>
-1.23433

>  <SCORE.INTRA>
7.02108

>  <SCORE.INTRA.DIHEDRAL>
1.72373

>  <SCORE.INTRA.DIHEDRAL.0>
30.6762

>  <SCORE.INTRA.POLAR>
0.0288659

>  <SCORE.INTRA.POLAR.0>
-0.0288659

>  <SCORE.INTRA.REPUL>
0

>  <SCORE.INTRA.REPUL.0>
0

>  <SCORE.INTRA.SOLV>
-0.52274

>  <SCORE.INTRA.SOLV.lig_0>
-25.2195

>  <SCORE.INTRA.VDW>
6.32244

>  <SCORE.INTRA.VDW.0>
4.14263

>  <SCORE.INTRA.norm>
0.280843

>  <SCORE.RESTR>
0.679074

>  <SCORE.RESTR.CAVITY>
0.679074

>  <SCORE.RESTR.norm>
0.027163

>  <SCORE.SYSTEM>
0

>  <SCORE.SYSTEM.CONST>
0

>  <SCORE.SYSTEM.DIHEDRAL>
0

>  <SCORE.SYSTEM.SOLV>
0

>  <SCORE.SYSTEM.norm>
0

>  <SCORE.heavy>
25

>  <SCORE.norm>
-0.926329

>  <RMSD>
15.940

$$$$
1uud_lig
 OpenBabel11021811413D
libRbt.so/2013.1/901 2013/11/27
 25 25  0  0  0  0  0  0  0  0999 V2000
   -4.3381  -11.9585   10.3936 C   0  0  0  0  0  0  0  0  0  0  0  0
   -5.7640  -10.0209   12.0714 O   0  0  0  0  0  0  0  0  0  0  0  0
   -6.5459   -9.5991   10.9440 C   0  0  0  0  0  0  0  0  0  0  0  0
   -4.6697  -12.6884    9.1448 N   0  0  0  0  0  0  0  0  0  0  0  0
   -7.0998   -8.1878   11.1822 C   0  0  0  0  0  0  0  0  0  0  0  0
   -5.8406  -12.0578    8.4906 C   0  0  0  0  0  0  0  0  0  0  0  0
   -7.0906  -12.9087    8.7459 C   0  0  0  0  0  0  0  0  0  0  0  0
   -6.1206   -7.3151   11.1668 N   0  0  0  0  0  0  0  0  0  0  0  0
   -4.9791   -7.5694   10.5550 C   0  0  0  0  0  0  0  0  0  0  0  0
   -8.3075  -12.2614    8.0759 C   0  0  0  0  0  0  0  0  0  0  0  0
   -9.0274  -11.3605    9.0835 C   0  0  0  0  0  0  0  0  0  0  0  0
   -3.9279   -8.1451   11.2138 N   0  0  0  0  0  0  0  0  0  0  0  0
   -4.8452   -7.2509    9.2417 N   0  0  0  0  0  0  0  0  0  0  0  0
  -10.0354  -10.7564    8.5001 N   0  0  0  0  0  0  0  0  0  0  0  0
  -11.1890  -11.3676    8.3103 C   0  0  0  0  0  0  0  0  0  0  0  0
  -11.8506  -11.8804    9.3794 N   0  0  0  0  0  0  0  0  0  0  0  0
  -11.7280  -11.5054    7.0626 N   0  0  0  0  0  0  0  0  0  0  0  0
   -5.9669  -11.4186   12.3161 C   0  0  0  0  0  0  0  0  0  0  0  0
   -6.6206  -15.5789   13.0335 O   0  0  0  0  0  0  0  0  0  0  0  0
   -5.2978  -12.3931   11.5207 C   0  0  0  0  0  0  0  0  0  0  0  0
   -5.5236  -13.7758   11.7561 C   0  0  0  0  0  0  0  0  0  0  0  0
   -6.3983  -14.1865   12.7961 C   0  0  0  0  0  0  0  0  0  0  0  0
   -7.0510  -13.2156   13.6025 C   0  0  0  0  0  0  0  0  0  0  0  0
   -6.8308  -11.8312   13.3684 C   0  0  0  0  0  0  0  0  0  0  0  0
   -7.8960  -15.9571   12.5073 C   0  0  0  0  0  0  0  0  0  0  0  0
  1  4  1  0  0  0  0
  2  3  1  0  0  0  0
  3  5  1  0  0  0  0
  4  6  1  0  0  0  0
  5  8  1  0  0  0  0
  6  7  1  0  0  0  0
  7 10  1  0  0  0  0
  8  9  1  0  0  0  0
  9 12  1  0  0  0  0
  9 13  1  0  0  0  0
 10 11  1  0  0  0  0
 11 14  1  0  0  0  0
 14 15  1  0  0  0  0
 15 16  1  0  0  0  0
 15 17  1  0  0  0  0
 18  2  1  0  0  0  0
 18 20  2  0  0  0  0
 18 24  1  0  0  0  0
 19 25  1  0  0  0  0
 20  1  1  0  0  0  0
 20 21  1  0  0  0  0
 21 22  2  0  0  0  0
 22 19  1  0  0  0  0
 22 23  1  0  0  0  0
 23 24  2  0  0  0  0
M  END
>  <CHROM.1>
79.37216634,142.63667890,68.78139329,-103.14377985,22.70783512,179.83739457
-93.40896520,-91.17062302,-90.03128108,-159.52535286,177.19049378,80.41627337
57.08090723,-68.82037877,104.52383604,78.96660552,-130.80147779,-103.38848896
-7.02438761,-11.36764889,10.51989323,-0.48612057,0.56252108,2.73705676

>  <Name>
1uud_lig

>  <RI>
0

>  <Rbt.Current_Directory>
/home/itssahil/PROJECTS/Mol_Feturizer/New_Systems/rnas/1uud

>  <Rbt.Executable>
rbdock ($Id: //depot/dev/client3/rdock/2013.1/src/exe/rbdock.cxx#4 $)

>  <Rbt.Library>
libRbt.so (2013.1, Build901 2013/11/27)

>  <Rbt.Parameter_File>
/export/apps/rDock/src/rDock_2013.1_src/data/scripts/dock_solv.prm

>  <Rbt.Receptor>
prm/blind_docking_100.prm

>  <SCORE>
-17.8867

>  <SCORE.INTER>
-18.5507

>  <SCORE.INTER.CONST>
1

>  <SCORE.INTER.POLAR>
-3.50384

>  <SCORE.INTER.ROT>
18

>  <SCORE.INTER.SOLV>
11.289

>  <SCORE.INTER.VDW>
-20.0507

>  <SCORE.INTER.norm>
-0.742029

>  <SCORE.INTRA>
-0.29935

>  <SCORE.INTRA.DIHEDRAL>
1.46412

>  <SCORE.INTRA.DIHEDRAL.0>
30.6762

>  <SCORE.INTRA.POLAR>
-0.0841752

>  <SCORE.INTRA.POLAR.0>
-0.0288659

>  <SCORE.INTRA.REPUL>
0

>  <SCORE.INTRA.REPUL.0>
0

>  <SCORE.INTRA.SOLV>
0.017521

>  <SCORE.INTRA.SOLV.lig_0>
-25.2195

>  <SCORE.INTRA.VDW>
-0.753973

>  <SCORE.INTRA.VDW.0>
4.14263

>  <SCORE.INTRA.norm>
-0.011974

>  <SCORE.RESTR>
0.963352

>  <SCORE.RESTR.CAVITY>
0.963352

>  <SCORE.RESTR.norm>
0.0385341

>  <SCORE.SYSTEM>
0

>  <SCORE.SYSTEM.CONST>
0

>  <SCORE.SYSTEM.DIHEDRAL>
0

>  <SCORE.SYSTEM.SOLV>
0

>  <SCORE.SYSTEM.norm>
0

>  <SCORE.heavy>
25

>  <SCORE.norm>
-0.715469

>  <RMSD>
15.959

$$$$
1uud_lig
 OpenBabel11021811413D
libRbt.so/2013.1/901 2013/11/27
 25 25  0  0  0  0  0  0  0  0999 V2000
   -6.5763  -10.8617    8.7806 C   0  0  0  0  0  0  0  0  0  0  0  0
   -4.0809   -9.8965    9.9823 O   0  0  0  0  0  0  0  0  0  0  0  0
   -3.6623   -8.9102   10.9374 C   0  0  0  0  0  0  0  0  0  0  0  0
   -7.8888  -10.2186    9.0372 N   0  0  0  0  0  0  0  0  0  0  0  0
   -4.7083   -7.7915   11.0360 C   0  0  0  0  0  0  0  0  0  0  0  0
   -8.7795  -10.4116    7.8684 C   0  0  0  0  0  0  0  0  0  0  0  0
   -9.2945  -11.8559    7.8492 C   0  0  0  0  0  0  0  0  0  0  0  0
   -5.8937   -8.3066   11.2602 N   0  0  0  0  0  0  0  0  0  0  0  0
   -6.4901   -8.1816   12.4309 C   0  0  0  0  0  0  0  0  0  0  0  0
  -10.5863  -11.9595    8.6673 C   0  0  0  0  0  0  0  0  0  0  0  0
  -10.6498  -13.3278    9.3521 C   0  0  0  0  0  0  0  0  0  0  0  0
   -5.7981   -8.3134   13.6033 N   0  0  0  0  0  0  0  0  0  0  0  0
   -7.8216   -7.9175   12.4721 N   0  0  0  0  0  0  0  0  0  0  0  0
   -9.6688  -13.4395   10.2160 N   0  0  0  0  0  0  0  0  0  0  0  0
   -9.7355  -14.2810   11.2299 C   0  0  0  0  0  0  0  0  0  0  0  0
   -9.9727  -15.5953   10.9852 N   0  0  0  0  0  0  0  0  0  0  0  0
   -9.5818  -13.8591   12.5201 N   0  0  0  0  0  0  0  0  0  0  0  0
   -4.7967  -10.9484   10.6423 C   0  0  0  0  0  0  0  0  0  0  0  0
   -6.9369  -14.0534   12.6496 O   0  0  0  0  0  0  0  0  0  0  0  0
   -6.0157  -11.4429   10.0952 C   0  0  0  0  0  0  0  0  0  0  0  0
   -6.7296  -12.4697   10.7694 C   0  0  0  0  0  0  0  0  0  0  0  0
   -6.2184  -13.0173   11.9753 C   0  0  0  0  0  0  0  0  0  0  0  0
   -4.9928  -12.5383   12.5114 C   0  0  0  0  0  0  0  0  0  0  0  0
   -4.2770  -11.5088   11.8422 C   0  0  0  0  0  0  0  0  0  0  0  0
   -6.0140  -14.9270   13.3067 C   0  0  0  0  0  0  0  0  0  0  0  0
  1  4  1  0  0  0  0
  2  3  1  0  0  0  0
  3  5  1  0  0  0  0
  4  6  1  0  0  0  0
  5  8  1  0  0  0  0
  6  7  1  0  0  0  0
  7 10  1  0  0  0  0
  8  9  1  0  0  0  0
  9 12  1  0  0  0  0
  9 13  1  0  0  0  0
 10 11  1  0  0  0  0
 11 14  1  0  0  0  0
 14 15  1  0  0  0  0
 15 16  1  0  0  0  0
 15 17  1  0  0  0  0
 18  2  1  0  0  0  0
 18 20  2  0  0  0  0
 18 24  1  0  0  0  0
 19 25  1  0  0  0  0
 20  1  1  0  0  0  0
 20 21  1  0  0  0  0
 21 22  2  0  0  0  0
 22 19  1  0  0  0  0
 22 23  1  0  0  0  0
 23 24  2  0  0  0  0
M  END
>  <CHROM.1>
-145.15993680,-93.02507032,52.50989823,75.19438392,108.62404561,88.74802553
-146.15985943,-41.29833082,12.37096562,96.05934862,64.16023499,157.00477538
55.48527526,-99.65122530,100.71467902,134.68793450,-117.03966981,147.78909591
-7.13602307,-11.43521256,10.90755345,0.61212342,-0.64927452,-0.51604537

>  <Name>
1uud_lig

>  <RI>
0

>  <Rbt.Current_Directory>
/home/itssahil/PROJECTS/Mol_Feturizer/New_Systems/rnas/1uud

>  <Rbt.Executable>
rbdock ($Id: //depot/dev/client3/rdock/2013.1/src/exe/rbdock.cxx#4 $)

>  <Rbt.Library>
libRbt.so (2013.1, Build901 2013/11/27)

>  <Rbt.Parameter_File>
/export/apps/rDock/src/rDock_2013.1_src/data/scripts/dock_solv.prm

>  <Rbt.Receptor>
prm/blind_docking_60.prm

>  <SCORE>
-23.9488

>  <SCORE.INTER>
-21.5762

>  <SCORE.INTER.CONST>
1

>  <SCORE.INTER.POLAR>
-4.22397

>  <SCORE.INTER.ROT>
18

>  <SCORE.INTER.SOLV>
9.28393

>  <SCORE.INTER.VDW>
-18.9989

>  <SCORE.INTER.norm>
-0.863047

>  <SCORE.INTRA>
-3.67813

>  <SCORE.INTRA.DIHEDRAL>
-3.0717

>  <SCORE.INTRA.DIHEDRAL.0>
30.6762

>  <SCORE.INTRA.POLAR>
-0.837413

>  <SCORE.INTRA.POLAR.0>
-0.0288659

>  <SCORE.INTRA.REPUL>
0.0442207

>  <SCORE.INTRA.REPUL.0>
0

>  <SCORE.INTRA.SOLV>
2.34408

>  <SCORE.INTRA.SOLV.lig_0>
-25.2195

>  <SCORE.INTRA.VDW>
-0.688223

>  <SCORE.INTRA.VDW.0>
4.14263

>  <SCORE.INTRA.norm>
-0.147125

>  <SCORE.RESTR>
1.30552

>  <SCORE.RESTR.CAVITY>
1.30552

>  <SCORE.RESTR.norm>
0.0522206

>  <SCORE.SYSTEM>
0

>  <SCORE.SYSTEM.CONST>
0

>  <SCORE.SYSTEM.DIHEDRAL>
0

>  <SCORE.SYSTEM.SOLV>
0

>  <SCORE.SYSTEM.norm>
0

>  <SCORE.heavy>
25

>  <SCORE.norm>
-0.957952

>  <RMSD>
15.997

$$$$
1uud_lig
 OpenBabel11021811413D
libRbt.so/2013.1/901 2013/11/27
 25 25  0  0  0  0  0  0  0  0999 V2000
   -6.2478  -10.0784   13.5987 C   0  0  0  0  0  0  0  0  0  0  0  0
   -7.0240  -11.4696   11.1361 O   0  0  0  0  0  0  0  0  0  0  0  0
   -6.9408  -11.4062    9.7045 C   0  0  0  0  0  0  0  0  0  0  0  0
   -6.1817   -8.7589   12.9231 N   0  0  0  0  0  0  0  0  0  0  0  0
   -7.1917   -9.9709    9.2228 C   0  0  0  0  0  0  0  0  0  0  0  0
   -5.0873   -7.9491   13.5089 C   0  0  0  0  0  0  0  0  0  0  0  0
   -3.8753   -7.9687   12.5696 C   0  0  0  0  0  0  0  0  0  0  0  0
   -6.0958   -9.4782    8.6963 N   0  0  0  0  0  0  0  0  0  0  0  0
   -5.2633   -8.7372    9.4033 C   0  0  0  0  0  0  0  0  0  0  0  0
   -2.6929   -8.6584   13.2587 C   0  0  0  0  0  0  0  0  0  0  0  0
   -2.0969   -7.7205   14.3125 C   0  0  0  0  0  0  0  0  0  0  0  0
   -5.5313   -7.4242    9.6770 N   0  0  0  0  0  0  0  0  0  0  0  0
   -4.1138   -9.2909    9.8684 N   0  0  0  0  0  0  0  0  0  0  0  0
   -0.9686   -8.2161   14.7627 N   0  0  0  0  0  0  0  0  0  0  0  0
   -0.1479   -7.4980   15.5051 C   0  0  0  0  0  0  0  0  0  0  0  0
   -0.4865   -7.2242   16.7912 N   0  0  0  0  0  0  0  0  0  0  0  0
    1.0290   -7.0154   15.0072 N   0  0  0  0  0  0  0  0  0  0  0  0
   -5.7301  -11.7342   11.6932 C   0  0  0  0  0  0  0  0  0  0  0  0
   -1.8523  -12.5040   13.3121 O   0  0  0  0  0  0  0  0  0  0  0  0
   -5.3115  -11.0758   12.8854 C   0  0  0  0  0  0  0  0  0  0  0  0
   -4.0182  -11.3273   13.4167 C   0  0  0  0  0  0  0  0  0  0  0  0
   -3.1519  -12.2495   12.7729 C   0  0  0  0  0  0  0  0  0  0  0  0
   -3.5759  -12.9213   11.5948 C   0  0  0  0  0  0  0  0  0  0  0  0
   -4.8676  -12.6700   11.0577 C   0  0  0  0  0  0  0  0  0  0  0  0
   -0.9906  -11.3980   13.0278 C   0  0  0  0  0  0  0  0  0  0  0  0
  1  4  1  0  0  0  0
  2  3  1  0  0  0  0
  3  5  1  0  0  0  0
  4  6  1  0  0  0  0
  5  8  1  0  0  0  0
  6  7  1  0  0  0  0
  7 10  1  0  0  0  0
  8  9  1  0  0  0  0
  9 12  1  0  0  0  0
  9 13  1  0  0  0  0
 10 11  1  0  0  0  0
 11 14  1  0  0  0  0
 14 15  1  0  0  0  0
 15 16  1  0  0  0  0
 15 17  1  0  0  0  0
 18  2  1  0  0  0  0
 18 20  2  0  0  0  0
 18 24  1  0  0  0  0
 19 25  1  0  0  0  0
 20  1  1  0  0  0  0
 20 21  1  0  0  0  0
 21 22  2  0  0  0  0
 22 19  1  0  0  0  0
 22 23  1  0  0  0  0
 23 24  2  0  0  0  0
M  END
>  <CHROM.1>
-88.29190218,-111.54723654,113.20957540,102.33567277,-95.42182938,-115.95517284
-74.59884296,-77.54859398,86.70552677,150.90970029,-170.49120329,168.29711406
72.77153905,-67.11246705,58.49450642,140.29158884,-80.91334870,-74.96908624
-3.89584403,-9.71673291,12.39665198,2.80351819,0.71171326,-3.11701233

>  <Name>
1uud_lig

>  <RI>
0

>  <Rbt.Current_Directory>
/home/itssahil/PROJECTS/Mol_Feturizer/New_Systems/rnas/1uud

>  <Rbt.Executable>
rbdock ($Id: //depot/dev/client3/rdock/2013.1/src/exe/rbdock.cxx#4 $)

>  <Rbt.Library>
libRbt.so (2013.1, Build901 2013/11/27)

>  <Rbt.Parameter_File>
/export/apps/rDock/src/rDock_2013.1_src/data/scripts/dock_solv.prm

>  <Rbt.Receptor>
prm/blind_docking_20.prm

>  <SCORE>
-20.087

>  <SCORE.INTER>
-19.7327

>  <SCORE.INTER.CONST>
1

>  <SCORE.INTER.POLAR>
-3.20605

>  <SCORE.INTER.ROT>
18

>  <SCORE.INTER.SOLV>
9.95747

>  <SCORE.INTER.VDW>
-21.3875

>  <SCORE.INTER.norm>
-0.789308

>  <SCORE.INTRA>
-0.545489

>  <SCORE.INTRA.DIHEDRAL>
9.45247

>  <SCORE.INTRA.DIHEDRAL.0>
30.6762

>  <SCORE.INTRA.POLAR>
0.0288659

>  <SCORE.INTRA.POLAR.0>
-0.0288659

>  <SCORE.INTRA.REPUL>
0

>  <SCORE.INTRA.REPUL.0>
0

>  <SCORE.INTRA.SOLV>
1.36072

>  <SCORE.INTRA.SOLV.lig_0>
-25.2195

>  <SCORE.INTRA.VDW>
-6.05023

>  <SCORE.INTRA.VDW.0>
4.14263

>  <SCORE.INTRA.norm>
-0.0218196

>  <SCORE.RESTR>
0.191199

>  <SCORE.RESTR.CAVITY>
0.191199

>  <SCORE.RESTR.norm>
0.00764797

>  <SCORE.SYSTEM>
0

>  <SCORE.SYSTEM.CONST>
0

>  <SCORE.SYSTEM.DIHEDRAL>
0

>  <SCORE.SYSTEM.SOLV>
0

>  <SCORE.SYSTEM.norm>
0

>  <SCORE.heavy>
25

>  <SCORE.norm>
-0.80348

>  <RMSD>
16.046

$$$$
1uud_lig
 OpenBabel11021811413D
libRbt.so/2013.1/901 2013/11/27
 25 25  0  0  0  0  0  0  0  0999 V2000
   -5.6271   -9.0996    9.4069 C   0  0  0  0  0  0  0  0  0  0  0  0
   -7.0761   -8.5370   11.8942 O   0  0  0  0  0  0  0  0  0  0  0  0
   -6.4174   -7.5740   12.7303 C   0  0  0  0  0  0  0  0  0  0  0  0
   -6.8977   -9.2981    8.6663 N   0  0  0  0  0  0  0  0  0  0  0  0
   -5.0439   -7.2171   12.1462 C   0  0  0  0  0  0  0  0  0  0  0  0
   -7.1014  -10.7411    8.3966 C   0  0  0  0  0  0  0  0  0  0  0  0
   -8.5122  -10.9643    7.8385 C   0  0  0  0  0  0  0  0  0  0  0  0
   -4.3101   -6.6263   13.0589 N   0  0  0  0  0  0  0  0  0  0  0  0
   -3.0638   -6.9957   13.2877 C   0  0  0  0  0  0  0  0  0  0  0  0
   -9.5033  -11.1612    8.9907 C   0  0  0  0  0  0  0  0  0  0  0  0
   -9.4875  -12.6268    9.4345 C   0  0  0  0  0  0  0  0  0  0  0  0
   -2.7643   -7.9817   14.1870 N   0  0  0  0  0  0  0  0  0  0  0  0
   -2.0560   -6.3817   12.6157 N   0  0  0  0  0  0  0  0  0  0  0  0
   -8.5652  -12.8049   10.3504 N   0  0  0  0  0  0  0  0  0  0  0  0
   -8.6611  -13.7677   11.2473 C   0  0  0  0  0  0  0  0  0  0  0  0
   -7.9137  -13.6957   12.3786 N   0  0  0  0  0  0  0  0  0  0  0  0
   -9.4867  -14.8396   11.0595 N   0  0  0  0  0  0  0  0  0  0  0  0
   -6.2942   -9.7355   11.8134 C   0  0  0  0  0  0  0  0  0  0  0  0
   -4.0058  -13.3353   11.5785 O   0  0  0  0  0  0  0  0  0  0  0  0
   -5.5791  -10.0494   10.6217 C   0  0  0  0  0  0  0  0  0  0  0  0
   -4.8258  -11.2514   10.5435 C   0  0  0  0  0  0  0  0  0  0  0  0
   -4.7681  -12.1282   11.6585 C   0  0  0  0  0  0  0  0  0  0  0  0
   -5.4651  -11.8065   12.8541 C   0  0  0  0  0  0  0  0  0  0  0  0
   -6.2229  -10.6068   12.9356 C   0  0  0  0  0  0  0  0  0  0  0  0
   -3.9186  -13.7575   10.2145 C   0  0  0  0  0  0  0  0  0  0  0  0
  1  4  1  0  0  0  0
  2  3  1  0  0  0  0
  3  5  1  0  0  0  0
  4  6  1  0  0  0  0
  5  8  1  0  0  0  0
  6  7  1  0  0  0  0
  7 10  1  0  0  0  0
  8  9  1  0  0  0  0
  9 12  1  0  0  0  0
  9 13  1  0  0  0  0
 10 11  1  0  0  0  0
 11 14  1  0  0  0  0
 14 15  1  0  0  0  0
 15 16  1  0  0  0  0
 15 17  1  0  0  0  0
 18  2  1  0  0  0  0
 18 20  2  0  0  0  0
 18 24  1  0  0  0  0
 19 25  1  0  0  0  0
 20  1  1  0  0  0  0
 20 21  1  0  0  0  0
 21 22  2  0  0  0  0
 22 19  1  0  0  0  0
 22 23  1  0  0  0  0
 23 24  2  0  0  0  0
M  END
>  <CHROM.1>
-50.27895369,60.52682358,-163.63309365,170.87420405,131.96539790,-87.63192580
-84.21825916,-88.59054770,151.28969310,-57.75433563,88.33150700,153.42512370
-161.66914901,79.59613735,98.84556414,-106.57185188,-79.05491710,-26.39849818
-6.13800274,-10.51581569,11.20503829,0.71100447,-0.66516572,-0.17599438

>  <Name>
1uud_lig

>  <RI>
0

>  <Rbt.Current_Directory>
/home/itssahil/PROJECTS/Mol_Feturizer/New_Systems/rnas/1uud

>  <Rbt.Executable>
rbdock ($Id: //depot/dev/client3/rdock/2013.1/src/exe/rbdock.cxx#4 $)

>  <Rbt.Library>
libRbt.so (2013.1, Build901 2013/11/27)

>  <Rbt.Parameter_File>
/export/apps/rDock/src/rDock_2013.1_src/data/scripts/dock_solv.prm

>  <Rbt.Receptor>
prm/blind_docking_60.prm

>  <SCORE>
-24.668

>  <SCORE.INTER>
-21.9132

>  <SCORE.INTER.CONST>
1

>  <SCORE.INTER.POLAR>
-4.17651

>  <SCORE.INTER.ROT>
18

>  <SCORE.INTER.SOLV>
12.4849

>  <SCORE.INTER.VDW>
-20.4487

>  <SCORE.INTER.norm>
-0.876527

>  <SCORE.INTRA>
-3.71387

>  <SCORE.INTRA.DIHEDRAL>
-6.57445

>  <SCORE.INTRA.DIHEDRAL.0>
30.6762

>  <SCORE.INTRA.POLAR>
0.0288659

>  <SCORE.INTRA.POLAR.0>
-0.0288659

>  <SCORE.INTRA.REPUL>
0

>  <SCORE.INTRA.REPUL.0>
0

>  <SCORE.INTRA.SOLV>
0.236422

>  <SCORE.INTRA.SOLV.lig_0>
-25.2195

>  <SCORE.INTRA.VDW>
-0.642997

>  <SCORE.INTRA.VDW.0>
4.14263

>  <SCORE.INTRA.norm>
-0.148555

>  <SCORE.RESTR>
0.959052

>  <SCORE.RESTR.CAVITY>
0.959052

>  <SCORE.RESTR.norm>
0.0383621

>  <SCORE.SYSTEM>
0

>  <SCORE.SYSTEM.CONST>
0

>  <SCORE.SYSTEM.DIHEDRAL>
0

>  <SCORE.SYSTEM.SOLV>
0

>  <SCORE.SYSTEM.norm>
0

>  <SCORE.heavy>
25

>  <SCORE.norm>
-0.98672

>  <RMSD>
16.056

$$$$
1uud_lig
 OpenBabel11021811413D
libRbt.so/2013.1/901 2013/11/27
 25 25  0  0  0  0  0  0  0  0999 V2000
   -6.1345  -12.4531    8.6285 C   0  0  0  0  0  0  0  0  0  0  0  0
   -5.4191  -10.0483   10.1477 O   0  0  0  0  0  0  0  0  0  0  0  0
   -4.2246   -9.5306   10.7520 C   0  0  0  0  0  0  0  0  0  0  0  0
   -7.4940  -12.4209    8.0346 N   0  0  0  0  0  0  0  0  0  0  0  0
   -4.1119   -8.0220   10.4944 C   0  0  0  0  0  0  0  0  0  0  0  0
   -8.0588  -11.0552    8.1470 C   0  0  0  0  0  0  0  0  0  0  0  0
   -9.3001  -11.0861    9.0471 C   0  0  0  0  0  0  0  0  0  0  0  0
   -5.2673   -7.4428   10.7190 N   0  0  0  0  0  0  0  0  0  0  0  0
   -5.7556   -7.3276   11.9397 C   0  0  0  0  0  0  0  0  0  0  0  0
  -10.3504  -12.0315    8.4541 C   0  0  0  0  0  0  0  0  0  0  0  0
  -11.0551  -11.3428    7.2818 C   0  0  0  0  0  0  0  0  0  0  0  0
   -4.9769   -6.9129   12.9848 N   0  0  0  0  0  0  0  0  0  0  0  0
   -7.0608   -7.6289   12.1632 N   0  0  0  0  0  0  0  0  0  0  0  0
  -11.8537  -10.4040    7.7316 N   0  0  0  0  0  0  0  0  0  0  0  0
  -12.8947  -10.6895    8.4900 C   0  0  0  0  0  0  0  0  0  0  0  0
  -13.9961  -11.2439    7.9215 N   0  0  0  0  0  0  0  0  0  0  0  0
  -12.8940  -10.4310    9.8314 N   0  0  0  0  0  0  0  0  0  0  0  0
   -5.8744  -11.2020   10.8663 C   0  0  0  0  0  0  0  0  0  0  0  0
   -7.2709  -14.6140   13.0246 O   0  0  0  0  0  0  0  0  0  0  0  0
   -6.2370  -12.3890   10.1666 C   0  0  0  0  0  0  0  0  0  0  0  0
   -6.7091  -13.5192   10.8863 C   0  0  0  0  0  0  0  0  0  0  0  0
   -6.7993  -13.4736   12.3024 C   0  0  0  0  0  0  0  0  0  0  0  0
   -6.4194  -12.2969   13.0025 C   0  0  0  0  0  0  0  0  0  0  0  0
   -5.9499  -11.1626   12.2863 C   0  0  0  0  0  0  0  0  0  0  0  0
   -8.5937  -14.9428   12.5902 C   0  0  0  0  0  0  0  0  0  0  0  0
  1  4  1  0  0  0  0
  2  3  1  0  0  0  0
  3  5  1  0  0  0  0
  4  6  1  0  0  0  0
  5  8  1  0  0  0  0
  6  7  1  0  0  0  0
  7 10  1  0  0  0  0
  8  9  1  0  0  0  0
  9 12  1  0  0  0  0
  9 13  1  0  0  0  0
 10 11  1  0  0  0  0
 11 14  1  0  0  0  0
 14 15  1  0  0  0  0
 15 16  1  0  0  0  0
 15 17  1  0  0  0  0
 18  2  1  0  0  0  0
 18 20  2  0  0  0  0
 18 24  1  0  0  0  0
 19 25  1  0  0  0  0
 20  1  1  0  0  0  0
 20 21  1  0  0  0  0
 21 22  2  0  0  0  0
 22 19  1  0  0  0  0
 22 23  1  0  0  0  0
 23 24  2  0  0  0  0
M  END
>  <CHROM.1>
73.36703877,-152.26380679,45.44039314,-116.30217163,69.96000880,-59.45945287
-76.99374329,45.43158923,85.68769459,-115.09803276,-72.24773233,-63.99051248
-74.66838533,-50.31048901,-127.03848731,-132.30391352,-107.24608004,-59.14868808
-7.85494931,-10.90287285,10.29886268,-0.18506313,0.49417180,2.93660910

>  <Name>
1uud_lig

>  <RI>
0

>  <Rbt.Current_Directory>
/home/itssahil/PROJECTS/Mol_Feturizer/New_Systems/rnas/1uud

>  <Rbt.Executable>
rbdock ($Id: //depot/dev/client3/rdock/2013.1/src/exe/rbdock.cxx#4 $)

>  <Rbt.Library>
libRbt.so (2013.1, Build901 2013/11/27)

>  <Rbt.Parameter_File>
/export/apps/rDock/src/rDock_2013.1_src/data/scripts/dock_solv.prm

>  <Rbt.Receptor>
prm/blind_docking_60.prm

>  <SCORE>
-29.8963

>  <SCORE.INTER>
-26.7837

>  <SCORE.INTER.CONST>
1

>  <SCORE.INTER.POLAR>
-4.69117

>  <SCORE.INTER.ROT>
18

>  <SCORE.INTER.SOLV>
11.3028

>  <SCORE.INTER.VDW>
-21.5862

>  <SCORE.INTER.norm>
-1.07135

>  <SCORE.INTRA>
-3.8564

>  <SCORE.INTRA.DIHEDRAL>
-4.61676

>  <SCORE.INTRA.DIHEDRAL.0>
30.6762

>  <SCORE.INTRA.POLAR>
0.0288659

>  <SCORE.INTRA.POLAR.0>
-0.0288659

>  <SCORE.INTRA.REPUL>
0

>  <SCORE.INTRA.REPUL.0>
0

>  <SCORE.INTRA.SOLV>
0.347659

>  <SCORE.INTRA.SOLV.lig_0>
-25.2195

>  <SCORE.INTRA.VDW>
-1.81999

>  <SCORE.INTRA.VDW.0>
4.14263

>  <SCORE.INTRA.norm>
-0.154256

>  <SCORE.RESTR>
0.743838

>  <SCORE.RESTR.CAVITY>
0.743838

>  <SCORE.RESTR.norm>
0.0297535

>  <SCORE.SYSTEM>
0

>  <SCORE.SYSTEM.CONST>
0

>  <SCORE.SYSTEM.DIHEDRAL>
0

>  <SCORE.SYSTEM.SOLV>
0

>  <SCORE.SYSTEM.norm>
0

>  <SCORE.heavy>
25

>  <SCORE.norm>
-1.19585

>  <RMSD>
16.082

$$$$
1uud_lig
 OpenBabel11021811413D
libRbt.so/2013.1/901 2013/11/27
 25 25  0  0  0  0  0  0  0  0999 V2000
   -3.5701  -12.4857   12.9542 C   0  0  0  0  0  0  0  0  0  0  0  0
   -4.5941   -9.7377   13.0031 O   0  0  0  0  0  0  0  0  0  0  0  0
   -3.3212   -9.0752   13.0344 C   0  0  0  0  0  0  0  0  0  0  0  0
   -2.0992  -12.3028   12.8824 N   0  0  0  0  0  0  0  0  0  0  0  0
   -3.4951   -7.6145   13.4719 C   0  0  0  0  0  0  0  0  0  0  0  0
   -1.5236  -12.3217   14.2480 C   0  0  0  0  0  0  0  0  0  0  0  0
   -1.7203  -10.9508   14.9065 C   0  0  0  0  0  0  0  0  0  0  0  0
   -3.6139   -6.8433   12.4175 N   0  0  0  0  0  0  0  0  0  0  0  0
   -4.4737   -7.1184   11.4547 C   0  0  0  0  0  0  0  0  0  0  0  0
   -0.5841  -10.0077   14.4962 C   0  0  0  0  0  0  0  0  0  0  0  0
   -0.8752   -8.5980   15.0191 C   0  0  0  0  0  0  0  0  0  0  0  0
   -5.8236   -7.0244   11.6536 N   0  0  0  0  0  0  0  0  0  0  0  0
   -4.0072   -7.5050   10.2393 N   0  0  0  0  0  0  0  0  0  0  0  0
   -0.0104   -8.2822   15.9537 N   0  0  0  0  0  0  0  0  0  0  0  0
    1.1897   -7.8224   15.6555 C   0  0  0  0  0  0  0  0  0  0  0  0
    2.2356   -8.6866   15.6025 N   0  0  0  0  0  0  0  0  0  0  0  0
    1.4060   -6.4963   15.4090 N   0  0  0  0  0  0  0  0  0  0  0  0
   -4.7250  -10.4958   11.7937 C   0  0  0  0  0  0  0  0  0  0  0  0
   -5.0857  -12.7219    8.1654 O   0  0  0  0  0  0  0  0  0  0  0  0
   -4.2364  -11.8324   11.7256 C   0  0  0  0  0  0  0  0  0  0  0  0
   -4.3500  -12.5673   10.5151 C   0  0  0  0  0  0  0  0  0  0  0  0
   -4.9689  -11.9785    9.3812 C   0  0  0  0  0  0  0  0  0  0  0  0
   -5.4741  -10.6525    9.4541 C   0  0  0  0  0  0  0  0  0  0  0  0
   -5.3593   -9.9122   10.6619 C   0  0  0  0  0  0  0  0  0  0  0  0
   -6.4683  -12.9175    7.8543 C   0  0  0  0  0  0  0  0  0  0  0  0
  1  4  1  0  0  0  0
  2  3  1  0  0  0  0
  3  5  1  0  0  0  0
  4  6  1  0  0  0  0
  5  8  1  0  0  0  0
  6  7  1  0  0  0  0
  7 10  1  0  0  0  0
  8  9  1  0  0  0  0
  9 12  1  0  0  0  0
  9 13  1  0  0  0  0
 10 11  1  0  0  0  0
 11 14  1  0  0  0  0
 14 15  1  0  0  0  0
 15 16  1  0  0  0  0
 15 17  1  0  0  0  0
 18  2  1  0  0  0  0
 18 20  2  0  0  0  0
 18 24  1  0  0  0  0
 19 25  1  0  0  0  0
 20  1  1  0  0  0  0
 20 21  1  0  0  0  0
 21 22  2  0  0  0  0
 22 19  1  0  0  0  0
 22 23  1  0  0  0  0
 23 24  2  0  0  0  0
M  END
>  <CHROM.1>
153.49373203,134.25116882,-93.64375640,-80.19236778,50.42664434,-84.79978783
173.26635402,69.00667464,41.34858927,-162.61279128,112.04507784,82.35568077
-95.54617844,-110.74145247,-40.89069632,86.91093203,-93.92664894,117.03068218
-2.96651632,-9.78268650,12.50826035,-2.66052324,-0.72930835,0.16244566

>  <Name>
1uud_lig

>  <RI>
0

>  <Rbt.Current_Directory>
/home/itssahil/PROJECTS/Mol_Feturizer/New_Systems/rnas/1uud

>  <Rbt.Executable>
rbdock ($Id: //depot/dev/client3/rdock/2013.1/src/exe/rbdock.cxx#4 $)

>  <Rbt.Library>
libRbt.so (2013.1, Build901 2013/11/27)

>  <Rbt.Parameter_File>
/export/apps/rDock/src/rDock_2013.1_src/data/scripts/dock_solv.prm

>  <Rbt.Receptor>
prm/blind_docking_40.prm

>  <SCORE>
-30.9543

>  <SCORE.INTER>
-33.3504

>  <SCORE.INTER.CONST>
1

>  <SCORE.INTER.POLAR>
-5.8636

>  <SCORE.INTER.ROT>
18

>  <SCORE.INTER.SOLV>
15.112

>  <SCORE.INTER.VDW>
-23.3256

>  <SCORE.INTER.norm>
-1.33402

>  <SCORE.INTRA>
1.00801

>  <SCORE.INTRA.DIHEDRAL>
7.66062

>  <SCORE.INTRA.DIHEDRAL.0>
30.6762

>  <SCORE.INTRA.POLAR>
0.0288659

>  <SCORE.INTRA.POLAR.0>
-0.0288659

>  <SCORE.INTRA.REPUL>
0

>  <SCORE.INTRA.REPUL.0>
0

>  <SCORE.INTRA.SOLV>
1.18831

>  <SCORE.INTRA.SOLV.lig_0>
-25.2195

>  <SCORE.INTRA.VDW>
-3.5146

>  <SCORE.INTRA.VDW.0>
4.14263

>  <SCORE.INTRA.norm>
0.0403206

>  <SCORE.RESTR>
1.38803

>  <SCORE.RESTR.CAVITY>
1.38803

>  <SCORE.RESTR.norm>
0.0555211

>  <SCORE.SYSTEM>
0

>  <SCORE.SYSTEM.CONST>
0

>  <SCORE.SYSTEM.DIHEDRAL>
0

>  <SCORE.SYSTEM.SOLV>
0

>  <SCORE.SYSTEM.norm>
0

>  <SCORE.heavy>
25

>  <SCORE.norm>
-1.23817

>  <RMSD>
16.091

$$$$
1uud_lig
 OpenBabel11021811413D
libRbt.so/2013.1/901 2013/11/27
 25 25  0  0  0  0  0  0  0  0999 V2000
   -3.3647  -12.7883   11.7059 C   0  0  0  0  0  0  0  0  0  0  0  0
   -4.1027  -10.2184   10.5003 O   0  0  0  0  0  0  0  0  0  0  0  0
   -4.6083   -9.0971    9.7605 C   0  0  0  0  0  0  0  0  0  0  0  0
   -2.9459  -11.6404   12.5479 N   0  0  0  0  0  0  0  0  0  0  0  0
   -4.9352   -7.9387   10.7126 C   0  0  0  0  0  0  0  0  0  0  0  0
   -1.5197  -11.7873   12.9235 C   0  0  0  0  0  0  0  0  0  0  0  0
   -1.2328  -10.9588   14.1816 C   0  0  0  0  0  0  0  0  0  0  0  0
   -3.8349   -7.4986   11.2751 N   0  0  0  0  0  0  0  0  0  0  0  0
   -3.8423   -6.9677   12.4834 C   0  0  0  0  0  0  0  0  0  0  0  0
   -1.5552   -9.4837   13.9190 C   0  0  0  0  0  0  0  0  0  0  0  0
   -0.4539   -8.6046   14.5185 C   0  0  0  0  0  0  0  0  0  0  0  0
   -2.6928   -6.5211   13.0750 N   0  0  0  0  0  0  0  0  0  0  0  0
   -5.0180   -6.8639   13.1551 N   0  0  0  0  0  0  0  0  0  0  0  0
   -0.2822   -8.9065   15.7837 N   0  0  0  0  0  0  0  0  0  0  0  0
    0.9010   -8.8149   16.3599 C   0  0  0  0  0  0  0  0  0  0  0  0
    0.9721   -8.6865   17.7097 N   0  0  0  0  0  0  0  0  0  0  0  0
    2.0552   -8.8358   15.6293 N   0  0  0  0  0  0  0  0  0  0  0  0
   -5.0882  -11.2579   10.5535 C   0  0  0  0  0  0  0  0  0  0  0  0
   -8.0268  -14.3568   10.6615 O   0  0  0  0  0  0  0  0  0  0  0  0
   -4.7696  -12.5231   11.1260 C   0  0  0  0  0  0  0  0  0  0  0  0
   -5.7461  -13.5545   11.1529 C   0  0  0  0  0  0  0  0  0  0  0  0
   -7.0445  -13.3183   10.6295 C   0  0  0  0  0  0  0  0  0  0  0  0
   -7.3692  -12.0505   10.0761 C   0  0  0  0  0  0  0  0  0  0  0  0
   -6.3943  -11.0169   10.0438 C   0  0  0  0  0  0  0  0  0  0  0  0
   -9.0818  -13.9911   11.5558 C   0  0  0  0  0  0  0  0  0  0  0  0
  1  4  1  0  0  0  0
  2  3  1  0  0  0  0
  3  5  1  0  0  0  0
  4  6  1  0  0  0  0
  5  8  1  0  0  0  0
  6  7  1  0  0  0  0
  7 10  1  0  0  0  0
  8  9  1  0  0  0  0
  9 12  1  0  0  0  0
  9 13  1  0  0  0  0
 10 11  1  0  0  0  0
 11 14  1  0  0  0  0
 14 15  1  0  0  0  0
 15 16  1  0  0  0  0
 15 17  1  0  0  0  0
 18  2  1  0  0  0  0
 18 20  2  0  0  0  0
 18 24  1  0  0  0  0
 19 25  1  0  0  0  0
 20  1  1  0  0  0  0
 20 21  1  0  0  0  0
 21 22  2  0  0  0  0
 22 19  1  0  0  0  0
 22 23  1  0  0  0  0
 23 24  2  0  0  0  0
M  END
>  <CHROM.1>
-170.76714602,107.11857081,65.07693737,-158.14440179,-150.08652675,-59.10646407
-137.38112330,179.34166197,68.30275616,-134.68823293,-53.47469734,147.77805748
157.75299993,16.39036040,-38.18029801,173.98536317,45.66534811,113.02332973
-3.52766480,-10.23735677,12.55853895,-2.78518917,-0.65758589,-0.14470795

>  <Name>
1uud_lig

>  <RI>
0

>  <Rbt.Current_Directory>
/home/itssahil/PROJECTS/Mol_Feturizer/New_Systems/rnas/1uud

>  <Rbt.Executable>
rbdock ($Id: //depot/dev/client3/rdock/2013.1/src/exe/rbdock.cxx#4 $)

>  <Rbt.Library>
libRbt.so (2013.1, Build901 2013/11/27)

>  <Rbt.Parameter_File>
/export/apps/rDock/src/rDock_2013.1_src/data/scripts/dock_solv.prm

>  <Rbt.Receptor>
prm/blind_docking_40.prm

>  <SCORE>
-28.2094

>  <SCORE.INTER>
-26.2252

>  <SCORE.INTER.CONST>
1

>  <SCORE.INTER.POLAR>
-4.26666

>  <SCORE.INTER.ROT>
18

>  <SCORE.INTER.SOLV>
13.6188

>  <SCORE.INTER.VDW>
-23.4009

>  <SCORE.INTER.norm>
-1.04901

>  <SCORE.INTRA>
-2.45792

>  <SCORE.INTRA.DIHEDRAL>
-3.37713

>  <SCORE.INTRA.DIHEDRAL.0>
30.6762

>  <SCORE.INTRA.POLAR>
-0.681528

>  <SCORE.INTRA.POLAR.0>
-0.0288659

>  <SCORE.INTRA.REPUL>
0

>  <SCORE.INTRA.REPUL.0>
0

>  <SCORE.INTRA.SOLV>
0.131463

>  <SCORE.INTRA.SOLV.lig_0>
-25.2195

>  <SCORE.INTRA.VDW>
1.48212

>  <SCORE.INTRA.VDW.0>
4.14263

>  <SCORE.INTRA.norm>
-0.0983166

>  <SCORE.RESTR>
0.473727

>  <SCORE.RESTR.CAVITY>
0.473727

>  <SCORE.RESTR.norm>
0.0189491

>  <SCORE.SYSTEM>
0

>  <SCORE.SYSTEM.CONST>
0

>  <SCORE.SYSTEM.DIHEDRAL>
0

>  <SCORE.SYSTEM.SOLV>
0

>  <SCORE.SYSTEM.norm>
0

>  <SCORE.heavy>
25

>  <SCORE.norm>
-1.12838

>  <RMSD>
16.122

$$$$
1uud_lig
 OpenBabel11021811413D
libRbt.so/2013.1/901 2013/11/27
 25 25  0  0  0  0  0  0  0  0999 V2000
   -4.6098  -11.6251   11.1455 C   0  0  0  0  0  0  0  0  0  0  0  0
   -3.3939  -10.2919   13.4579 O   0  0  0  0  0  0  0  0  0  0  0  0
   -1.9661  -10.3781   13.5775 C   0  0  0  0  0  0  0  0  0  0  0  0
   -6.0503  -11.8757   11.3991 N   0  0  0  0  0  0  0  0  0  0  0  0
   -1.4117   -9.1045   14.2302 C   0  0  0  0  0  0  0  0  0  0  0  0
   -6.5446  -12.9321   10.4846 C   0  0  0  0  0  0  0  0  0  0  0  0
   -6.7948  -12.3322    9.0957 C   0  0  0  0  0  0  0  0  0  0  0  0
   -0.1061   -9.1849   14.3286 N   0  0  0  0  0  0  0  0  0  0  0  0
    0.5995   -8.2463   14.9313 C   0  0  0  0  0  0  0  0  0  0  0  0
   -7.9325  -13.0868    8.3993 C   0  0  0  0  0  0  0  0  0  0  0  0
   -9.2774  -12.4889    8.8225 C   0  0  0  0  0  0  0  0  0  0  0  0
    1.8677   -8.4855   15.3842 N   0  0  0  0  0  0  0  0  0  0  0  0
    0.0531   -7.0155   15.1068 N   0  0  0  0  0  0  0  0  0  0  0  0
   -9.5082  -11.3885    8.1464 N   0  0  0  0  0  0  0  0  0  0  0  0
  -10.7021  -10.8275    8.1294 C   0  0  0  0  0  0  0  0  0  0  0  0
  -11.4734  -10.8777    9.2457 N   0  0  0  0  0  0  0  0  0  0  0  0
  -11.1840  -10.2065    7.0121 N   0  0  0  0  0  0  0  0  0  0  0  0
   -3.7454   -9.4987   12.3169 C   0  0  0  0  0  0  0  0  0  0  0  0
   -4.7444   -7.1228    8.9100 O   0  0  0  0  0  0  0  0  0  0  0  0
   -4.3334  -10.1074   11.1707 C   0  0  0  0  0  0  0  0  0  0  0  0
   -4.6567   -9.3162   10.0360 C   0  0  0  0  0  0  0  0  0  0  0  0
   -4.4142   -7.9175   10.0519 C   0  0  0  0  0  0  0  0  0  0  0  0
   -3.8459   -7.3065   11.2019 C   0  0  0  0  0  0  0  0  0  0  0  0
   -3.5175   -8.0947   12.3381 C   0  0  0  0  0  0  0  0  0  0  0  0
   -6.1433   -7.2389    8.6337 C   0  0  0  0  0  0  0  0  0  0  0  0
  1  4  1  0  0  0  0
  2  3  1  0  0  0  0
  3  5  1  0  0  0  0
  4  6  1  0  0  0  0
  5  8  1  0  0  0  0
  6  7  1  0  0  0  0
  7 10  1  0  0  0  0
  8  9  1  0  0  0  0
  9 12  1  0  0  0  0
  9 13  1  0  0  0  0
 10 11  1  0  0  0  0
 11 14  1  0  0  0  0
 14 15  1  0  0  0  0
 15 16  1  0  0  0  0
 15 17  1  0  0  0  0
 18  2  1  0  0  0  0
 18 20  2  0  0  0  0
 18 24  1  0  0  0  0
 19 25  1  0  0  0  0
 20  1  1  0  0  0  0
 20 21  1  0  0  0  0
 21 22  2  0  0  0  0
 22 19  1  0  0  0  0
 22 23  1  0  0  0  0
 23 24  2  0  0  0  0
M  END
>  <CHROM.1>
137.85282743,80.16485890,-179.56839268,-78.56905533,-175.82745169,-149.70110481
85.60621667,160.52473167,18.15050403,113.52870153,79.49366184,166.49133340
35.01066205,-49.05967252,92.82788146,110.08890650,101.67604676,59.34265223
-4.97793880,-9.87865297,11.10830995,-3.09633646,-0.61683542,-0.35326279

>  <Name>
1uud_lig

>  <RI>
0

>  <Rbt.Current_Directory>
/home/itssahil/PROJECTS/Mol_Feturizer/New_Systems/rnas/1uud

>  <Rbt.Executable>
rbdock ($Id: //depot/dev/client3/rdock/2013.1/src/exe/rbdock.cxx#4 $)

>  <Rbt.Library>
libRbt.so (2013.1, Build901 2013/11/27)

>  <Rbt.Parameter_File>
/export/apps/rDock/src/rDock_2013.1_src/data/scripts/dock_solv.prm

>  <Rbt.Receptor>
prm/blind_docking_40.prm

>  <SCORE>
-33.4331

>  <SCORE.INTER>
-32.2985

>  <SCORE.INTER.CONST>
1

>  <SCORE.INTER.POLAR>
-4.62223

>  <SCORE.INTER.ROT>
18

>  <SCORE.INTER.SOLV>
13.6076

>  <SCORE.INTER.VDW>
-26.2608

>  <SCORE.INTER.norm>
-1.29194

>  <SCORE.INTRA>
-1.13463

>  <SCORE.INTRA.DIHEDRAL>
-0.623606

>  <SCORE.INTRA.DIHEDRAL.0>
30.6762

>  <SCORE.INTRA.POLAR>
0.0288659

>  <SCORE.INTRA.POLAR.0>
-0.0288659

>  <SCORE.INTRA.REPUL>
0

>  <SCORE.INTRA.REPUL.0>
0

>  <SCORE.INTRA.SOLV>
-1.32587

>  <SCORE.INTRA.SOLV.lig_0>
-25.2195

>  <SCORE.INTRA.VDW>
-0.258033

>  <SCORE.INTRA.VDW.0>
4.14263

>  <SCORE.INTRA.norm>
-0.0453852

>  <SCORE.RESTR>
0

>  <SCORE.RESTR.CAVITY>
0

>  <SCORE.RESTR.norm>
0

>  <SCORE.SYSTEM>
0

>  <SCORE.SYSTEM.CONST>
0

>  <SCORE.SYSTEM.DIHEDRAL>
0

>  <SCORE.SYSTEM.SOLV>
0

>  <SCORE.SYSTEM.norm>
0

>  <SCORE.heavy>
25

>  <SCORE.norm>
-1.33732

>  <RMSD>
16.188

$$$$
1uud_lig
 OpenBabel11021811413D
libRbt.so/2013.1/901 2013/11/27
 25 25  0  0  0  0  0  0  0  0999 V2000
   -4.2731  -13.3232    9.6196 C   0  0  0  0  0  0  0  0  0  0  0  0
   -4.1487  -10.8255   11.1521 O   0  0  0  0  0  0  0  0  0  0  0  0
   -4.8788   -9.5907   11.2031 C   0  0  0  0  0  0  0  0  0  0  0  0
   -4.6644  -12.2744    8.6455 N   0  0  0  0  0  0  0  0  0  0  0  0
   -4.0367   -8.5056   11.8875 C   0  0  0  0  0  0  0  0  0  0  0  0
   -5.6717  -12.8157    7.7026 C   0  0  0  0  0  0  0  0  0  0  0  0
   -7.0346  -12.1706    7.9820 C   0  0  0  0  0  0  0  0  0  0  0  0
   -4.7563   -7.4219   12.0565 N   0  0  0  0  0  0  0  0  0  0  0  0
   -5.8551   -7.4302   12.7876 C   0  0  0  0  0  0  0  0  0  0  0  0
   -7.4817  -12.4957    9.4114 C   0  0  0  0  0  0  0  0  0  0  0  0
   -8.9662  -12.1557    9.5730 C   0  0  0  0  0  0  0  0  0  0  0  0
   -7.0689   -7.7592   12.2498 N   0  0  0  0  0  0  0  0  0  0  0  0
   -5.7787   -7.1034   14.1034 N   0  0  0  0  0  0  0  0  0  0  0  0
   -9.5337  -13.0142   10.3867 N   0  0  0  0  0  0  0  0  0  0  0  0
  -10.2610  -14.0169    9.9329 C   0  0  0  0  0  0  0  0  0  0  0  0
  -11.4281  -14.3234   10.5555 N   0  0  0  0  0  0  0  0  0  0  0  0
   -9.8622  -14.7600    8.8582 N   0  0  0  0  0  0  0  0  0  0  0  0
   -4.9578  -11.8970   11.6538 C   0  0  0  0  0  0  0  0  0  0  0  0
   -7.4104  -15.0615   13.1440 O   0  0  0  0  0  0  0  0  0  0  0  0
   -5.0502  -13.1253   10.9377 C   0  0  0  0  0  0  0  0  0  0  0  0
   -5.8732  -14.1728   11.4312 C   0  0  0  0  0  0  0  0  0  0  0  0
   -6.5860  -14.0041   12.6473 C   0  0  0  0  0  0  0  0  0  0  0  0
   -6.4791  -12.7867   13.3723 C   0  0  0  0  0  0  0  0  0  0  0  0
   -5.6597  -11.7348   12.8804 C   0  0  0  0  0  0  0  0  0  0  0  0
   -8.6474  -15.0825   12.4256 C   0  0  0  0  0  0  0  0  0  0  0  0
  1  4  1  0  0  0  0
  2  3  1  0  0  0  0
  3  5  1  0  0  0  0
  4  6  1  0  0  0  0
  5  8  1  0  0  0  0
  6  7  1  0  0  0  0
  7 10  1  0  0  0  0
  8  9  1  0  0  0  0
  9 12  1  0  0  0  0
  9 13  1  0  0  0  0
 10 11  1  0  0  0  0
 11 14  1  0  0  0  0
 14 15  1  0  0  0  0
 15 16  1  0  0  0  0
 15 17  1  0  0  0  0
 18  2  1  0  0  0  0
 18 20  2  0  0  0  0
 18 24  1  0  0  0  0
 19 25  1  0  0  0  0
 20  1  1  0  0  0  0
 20 21  1  0  0  0  0
 21 22  2  0  0  0  0
 22 19  1  0  0  0  0
 22 23  1  0  0  0  0
 23 24  2  0  0  0  0
M  END
>  <CHROM.1>
-98.68780517,129.76122765,-173.47215245,109.68925626,60.68952585,-60.87634706
-166.11665482,-87.18111492,86.67464070,-124.24081277,145.43426729,-100.92016220
-137.53385720,-164.12633363,78.86011983,133.01325578,-57.71040373,-78.33690459
-6.70228567,-11.88240516,11.05184672,-2.22157036,0.50681246,0.69371195

>  <Name>
1uud_lig

>  <RI>
0

>  <Rbt.Current_Directory>
/home/itssahil/PROJECTS/Mol_Feturizer/New_Systems/rnas/1uud

>  <Rbt.Executable>
rbdock ($Id: //depot/dev/client3/rdock/2013.1/src/exe/rbdock.cxx#4 $)

>  <Rbt.Library>
libRbt.so (2013.1, Build901 2013/11/27)

>  <Rbt.Parameter_File>
/export/apps/rDock/src/rDock_2013.1_src/data/scripts/dock_solv.prm

>  <Rbt.Receptor>
prm/blind_docking_60.prm

>  <SCORE>
-16.0897

>  <SCORE.INTER>
-17.3423

>  <SCORE.INTER.CONST>
1

>  <SCORE.INTER.POLAR>
-3.255

>  <SCORE.INTER.ROT>
18

>  <SCORE.INTER.SOLV>
10.314

>  <SCORE.INTER.VDW>
-19.7495

>  <SCORE.INTER.norm>
-0.693692

>  <SCORE.INTRA>
-1.40917

>  <SCORE.INTRA.DIHEDRAL>
3.83964

>  <SCORE.INTRA.DIHEDRAL.0>
30.6762

>  <SCORE.INTRA.POLAR>
-0.010438

>  <SCORE.INTRA.POLAR.0>
-0.0288659

>  <SCORE.INTRA.REPUL>
0

>  <SCORE.INTRA.REPUL.0>
0

>  <SCORE.INTRA.SOLV>
0.304436

>  <SCORE.INTRA.SOLV.lig_0>
-25.2195

>  <SCORE.INTRA.VDW>
-3.44572

>  <SCORE.INTRA.VDW.0>
4.14263

>  <SCORE.INTRA.norm>
-0.0563669

>  <SCORE.RESTR>
2.66176

>  <SCORE.RESTR.CAVITY>
2.66176

>  <SCORE.RESTR.norm>
0.10647

>  <SCORE.SYSTEM>
0

>  <SCORE.SYSTEM.CONST>
0

>  <SCORE.SYSTEM.DIHEDRAL>
0

>  <SCORE.SYSTEM.SOLV>
0

>  <SCORE.SYSTEM.norm>
0

>  <SCORE.heavy>
25

>  <SCORE.norm>
-0.643589

>  <RMSD>
16.252

$$$$
1uud_lig
 OpenBabel11021811413D
libRbt.so/2013.1/901 2013/11/27
 25 25  0  0  0  0  0  0  0  0999 V2000
   -3.5610  -10.8837   11.9153 C   0  0  0  0  0  0  0  0  0  0  0  0
   -4.1197   -8.0162   11.6540 O   0  0  0  0  0  0  0  0  0  0  0  0
   -3.8264   -8.4644   10.3223 C   0  0  0  0  0  0  0  0  0  0  0  0
   -3.2870  -12.2286   12.4793 N   0  0  0  0  0  0  0  0  0  0  0  0
   -4.8437   -7.8823    9.3317 C   0  0  0  0  0  0  0  0  0  0  0  0
   -4.3271  -13.1835   12.0285 C   0  0  0  0  0  0  0  0  0  0  0  0
   -4.1120  -13.5141   10.5466 C   0  0  0  0  0  0  0  0  0  0  0  0
   -6.0420   -8.3450    9.5981 N   0  0  0  0  0  0  0  0  0  0  0  0
   -6.6748   -8.0219   10.7103 C   0  0  0  0  0  0  0  0  0  0  0  0
   -4.7830  -12.4492    9.6723 C   0  0  0  0  0  0  0  0  0  0  0  0
   -6.2917  -12.4475    9.9353 C   0  0  0  0  0  0  0  0  0  0  0  0
   -7.7157   -8.7721   11.1840 N   0  0  0  0  0  0  0  0  0  0  0  0
   -6.2843   -6.9186   11.3991 N   0  0  0  0  0  0  0  0  0  0  0  0
   -6.9192  -11.8920    8.9259 N   0  0  0  0  0  0  0  0  0  0  0  0
   -8.2281  -11.9871    8.7912 C   0  0  0  0  0  0  0  0  0  0  0  0
   -8.8145  -13.2094    8.8671 N   0  0  0  0  0  0  0  0  0  0  0  0
   -9.0054  -10.8863    8.5671 N   0  0  0  0  0  0  0  0  0  0  0  0
   -3.0841   -8.4329   12.5530 C   0  0  0  0  0  0  0  0  0  0  0  0
   -0.0234   -9.6552   15.2712 O   0  0  0  0  0  0  0  0  0  0  0  0
   -2.7840   -9.8164   12.7137 C   0  0  0  0  0  0  0  0  0  0  0  0
   -1.7715  -10.2204   13.6246 C   0  0  0  0  0  0  0  0  0  0  0  0
   -1.0448   -9.2460   14.3581 C   0  0  0  0  0  0  0  0  0  0  0  0
   -1.3300   -7.8650   14.1840 C   0  0  0  0  0  0  0  0  0  0  0  0
   -2.3446   -7.4564   13.2764 C   0  0  0  0  0  0  0  0  0  0  0  0
   -0.2942   -9.1134   16.5673 C   0  0  0  0  0  0  0  0  0  0  0  0
  1  4  1  0  0  0  0
  2  3  1  0  0  0  0
  3  5  1  0  0  0  0
  4  6  1  0  0  0  0
  5  8  1  0  0  0  0
  6  7  1  0  0  0  0
  7 10  1  0  0  0  0
  8  9  1  0  0  0  0
  9 12  1  0  0  0  0
  9 13  1  0  0  0  0
 10 11  1  0  0  0  0
 11 14  1  0  0  0  0
 14 15  1  0  0  0  0
 15 16  1  0  0  0  0
 15 17  1  0  0  0  0
 18  2  1  0  0  0  0
 18 20  2  0  0  0  0
 18 24  1  0  0  0  0
 19 25  1  0  0  0  0
 20  1  1  0  0  0  0
 20 21  1  0  0  0  0
 21 22  2  0  0  0  0
 22 19  1  0  0  0  0
 22 23  1  0  0  0  0
 23 24  2  0  0  0  0
M  END
>  <CHROM.1>
161.96768249,-173.37906721,-64.32033604,72.99420479,67.14358397,-84.78385453
-61.86148186,-160.65421310,-69.28146940,114.95880127,-159.26672890,167.31840535
-50.59959726,-23.91589504,140.26970210,-59.18909201,-167.07847190,-124.62740952
-4.54856281,-10.05955017,11.49673141,-0.33685207,0.66432920,-3.04262450

>  <Name>
1uud_lig

>  <RI>
0

>  <Rbt.Current_Directory>
/home/itssahil/PROJECTS/Mol_Feturizer/New_Systems/rnas/1uud

>  <Rbt.Executable>
rbdock ($Id: //depot/dev/client3/rdock/2013.1/src/exe/rbdock.cxx#4 $)

>  <Rbt.Library>
libRbt.so (2013.1, Build901 2013/11/27)

>  <Rbt.Parameter_File>
/export/apps/rDock/src/rDock_2013.1_src/data/scripts/dock_solv.prm

>  <Rbt.Receptor>
prm/blind_docking_40.prm

>  <SCORE>
-26.8747

>  <SCORE.INTER>
-24.3772

>  <SCORE.INTER.CONST>
1

>  <SCORE.INTER.POLAR>
-3.46333

>  <SCORE.INTER.ROT>
18

>  <SCORE.INTER.SOLV>
10.5192

>  <SCORE.INTER.VDW>
-23.8134

>  <SCORE.INTER.norm>
-0.975086

>  <SCORE.INTRA>
-2.53553

>  <SCORE.INTRA.DIHEDRAL>
-8.61535

>  <SCORE.INTRA.DIHEDRAL.0>
30.6762

>  <SCORE.INTRA.POLAR>
-0.532397

>  <SCORE.INTRA.POLAR.0>
-0.0288659

>  <SCORE.INTRA.REPUL>
0.00281291

>  <SCORE.INTRA.REPUL.0>
0

>  <SCORE.INTRA.SOLV>
1.64123

>  <SCORE.INTRA.SOLV.lig_0>
-25.2195

>  <SCORE.INTRA.VDW>
2.74761

>  <SCORE.INTRA.VDW.0>
4.14263

>  <SCORE.INTRA.norm>
-0.101421

>  <SCORE.RESTR>
0.0380016

>  <SCORE.RESTR.CAVITY>
0.0380016

>  <SCORE.RESTR.norm>
0.00152006

>  <SCORE.SYSTEM>
0

>  <SCORE.SYSTEM.CONST>
0

>  <SCORE.SYSTEM.DIHEDRAL>
0

>  <SCORE.SYSTEM.SOLV>
0

>  <SCORE.SYSTEM.norm>
0

>  <SCORE.heavy>
25

>  <SCORE.norm>
-1.07499

>  <RMSD>
16.275

$$$$
1uud_lig
 OpenBabel11021811413D
libRbt.so/2013.1/901 2013/11/27
 25 25  0  0  0  0  0  0  0  0999 V2000
   -2.2884  -11.5685   12.5538 C   0  0  0  0  0  0  0  0  0  0  0  0
   -4.4972   -9.7415   11.9328 O   0  0  0  0  0  0  0  0  0  0  0  0
   -4.1007   -9.4405   10.5865 C   0  0  0  0  0  0  0  0  0  0  0  0
   -3.5861  -12.2775   12.6771 N   0  0  0  0  0  0  0  0  0  0  0  0
   -3.9958   -7.9217   10.3926 C   0  0  0  0  0  0  0  0  0  0  0  0
   -3.9181  -12.9434   11.3953 C   0  0  0  0  0  0  0  0  0  0  0  0
   -5.2789  -13.6400   11.5166 C   0  0  0  0  0  0  0  0  0  0  0  0
   -5.1606   -7.4353   10.0357 N   0  0  0  0  0  0  0  0  0  0  0  0
   -5.4583   -7.2172    8.7685 C   0  0  0  0  0  0  0  0  0  0  0  0
   -6.4058  -12.6147   11.3505 C   0  0  0  0  0  0  0  0  0  0  0  0
   -7.2769  -13.0015   10.1518 C   0  0  0  0  0  0  0  0  0  0  0  0
   -4.5632   -6.6347    7.9141 N   0  0  0  0  0  0  0  0  0  0  0  0
   -6.6819   -7.5781    8.3031 N   0  0  0  0  0  0  0  0  0  0  0  0
   -8.5417  -12.8013   10.4372 N   0  0  0  0  0  0  0  0  0  0  0  0
   -9.3955  -12.3775    9.5252 C   0  0  0  0  0  0  0  0  0  0  0  0
   -9.3678  -11.0736    9.1472 N   0  0  0  0  0  0  0  0  0  0  0  0
  -10.3129  -13.2172    8.9601 N   0  0  0  0  0  0  0  0  0  0  0  0
   -3.4872   -9.3070   12.8523 C   0  0  0  0  0  0  0  0  0  0  0  0
   -0.5118   -8.0089   15.6295 O   0  0  0  0  0  0  0  0  0  0  0  0
   -2.3999  -10.1654   13.1855 C   0  0  0  0  0  0  0  0  0  0  0  0
   -1.4165   -9.7343   14.1158 C   0  0  0  0  0  0  0  0  0  0  0  0
   -1.5052   -8.4419   14.6965 C   0  0  0  0  0  0  0  0  0  0  0  0
   -2.5785   -7.5777   14.3500 C   0  0  0  0  0  0  0  0  0  0  0  0
   -3.5665   -8.0062   13.4225 C   0  0  0  0  0  0  0  0  0  0  0  0
    0.5248   -7.3090   14.9352 C   0  0  0  0  0  0  0  0  0  0  0  0
  1  4  1  0  0  0  0
  2  3  1  0  0  0  0
  3  5  1  0  0  0  0
  4  6  1  0  0  0  0
  5  8  1  0  0  0  0
  6  7  1  0  0  0  0
  7 10  1  0  0  0  0
  8  9  1  0  0  0  0
  9 12  1  0  0  0  0
  9 13  1  0  0  0  0
 10 11  1  0  0  0  0
 11 14  1  0  0  0  0
 14 15  1  0  0  0  0
 15 16  1  0  0  0  0
 15 17  1  0  0  0  0
 18  2  1  0  0  0  0
 18 20  2  0  0  0  0
 18 24  1  0  0  0  0
 19 25  1  0  0  0  0
 20  1  1  0  0  0  0
 20 21  1  0  0  0  0
 21 22  2  0  0  0  0
 22 19  1  0  0  0  0
 22 23  1  0  0  0  0
 23 24  2  0  0  0  0
M  END
>  <CHROM.1>
135.54762509,-64.05739298,-88.06365517,-178.37240624,-96.54574018,79.87130736
120.05666985,-43.58519902,-102.50202055,13.77899261,139.48432946,144.23252896
-75.33278352,5.53389190,-104.58456384,-87.26891586,-49.09169948,92.41833981
-4.71464593,-10.01117493,11.48154495,-0.11621286,0.68569659,2.67535692

>  <Name>
1uud_lig

>  <RI>
0

>  <Rbt.Current_Directory>
/home/itssahil/PROJECTS/Mol_Feturizer/New_Systems/rnas/1uud

>  <Rbt.Executable>
rbdock ($Id: //depot/dev/client3/rdock/2013.1/src/exe/rbdock.cxx#4 $)

>  <Rbt.Library>
libRbt.so (2013.1, Build901 2013/11/27)

>  <Rbt.Parameter_File>
/export/apps/rDock/src/rDock_2013.1_src/data/scripts/dock_solv.prm

>  <Rbt.Receptor>
prm/blind_docking_40.prm

>  <SCORE>
-29.9401

>  <SCORE.INTER>
-27.0777

>  <SCORE.INTER.CONST>
1

>  <SCORE.INTER.POLAR>
-4.604

>  <SCORE.INTER.ROT>
18

>  <SCORE.INTER.SOLV>
11.0214

>  <SCORE.INTER.VDW>
-21.9789

>  <SCORE.INTER.norm>
-1.08311

>  <SCORE.INTRA>
-3.7132

>  <SCORE.INTRA.DIHEDRAL>
6.46767

>  <SCORE.INTRA.DIHEDRAL.0>
30.6762

>  <SCORE.INTRA.POLAR>
-0.375036

>  <SCORE.INTRA.POLAR.0>
-0.0288659

>  <SCORE.INTRA.REPUL>
0.00483441

>  <SCORE.INTRA.REPUL.0>
0

>  <SCORE.INTRA.SOLV>
-0.577612

>  <SCORE.INTRA.SOLV.lig_0>
-25.2195

>  <SCORE.INTRA.VDW>
-5.40727

>  <SCORE.INTRA.VDW.0>
4.14263

>  <SCORE.INTRA.norm>
-0.148528

>  <SCORE.RESTR>
0.85071

>  <SCORE.RESTR.CAVITY>
0.85071

>  <SCORE.RESTR.norm>
0.0340284

>  <SCORE.SYSTEM>
0

>  <SCORE.SYSTEM.CONST>
0

>  <SCORE.SYSTEM.DIHEDRAL>
0

>  <SCORE.SYSTEM.SOLV>
0

>  <SCORE.SYSTEM.norm>
0

>  <SCORE.heavy>
25

>  <SCORE.norm>
-1.19761

>  <RMSD>
16.308

$$$$
1uud_lig
 OpenBabel11021811413D
libRbt.so/2013.1/901 2013/11/27
 25 25  0  0  0  0  0  0  0  0999 V2000
   -3.1133  -10.2867   12.1744 C   0  0  0  0  0  0  0  0  0  0  0  0
   -4.1994   -7.8929   13.4756 O   0  0  0  0  0  0  0  0  0  0  0  0
   -2.9203   -7.2721   13.2785 C   0  0  0  0  0  0  0  0  0  0  0  0
   -3.6907  -11.3369   13.0495 N   0  0  0  0  0  0  0  0  0  0  0  0
   -1.8125   -8.1333   13.9000 C   0  0  0  0  0  0  0  0  0  0  0  0
   -5.1556  -11.1437   13.1662 C   0  0  0  0  0  0  0  0  0  0  0  0
   -5.8713  -12.4725   12.8947 C   0  0  0  0  0  0  0  0  0  0  0  0
   -0.7031   -7.4388   13.9882 N   0  0  0  0  0  0  0  0  0  0  0  0
    0.3239   -7.8661   14.6986 C   0  0  0  0  0  0  0  0  0  0  0  0
   -6.2735  -12.5557   11.4183 C   0  0  0  0  0  0  0  0  0  0  0  0
   -7.2513  -13.7174   11.2190 C   0  0  0  0  0  0  0  0  0  0  0  0
    0.2987   -9.0767   15.3346 N   0  0  0  0  0  0  0  0  0  0  0  0
    1.4301   -7.0852   14.8013 N   0  0  0  0  0  0  0  0  0  0  0  0
   -7.7392  -13.6850   10.0016 N   0  0  0  0  0  0  0  0  0  0  0  0
   -9.0259  -13.8613    9.7697 C   0  0  0  0  0  0  0  0  0  0  0  0
   -9.6745  -14.8862   10.3801 N   0  0  0  0  0  0  0  0  0  0  0  0
   -9.7180  -13.0434    8.9222 N   0  0  0  0  0  0  0  0  0  0  0  0
   -4.7501   -8.2967   12.2153 C   0  0  0  0  0  0  0  0  0  0  0  0
   -6.3756   -9.4568    8.4388 O   0  0  0  0  0  0  0  0  0  0  0  0
   -4.2479   -9.4504   11.5470 C   0  0  0  0  0  0  0  0  0  0  0  0
   -4.7846   -9.8289   10.2872 C   0  0  0  0  0  0  0  0  0  0  0  0
   -5.8345   -9.0712    9.7049 C   0  0  0  0  0  0  0  0  0  0  0  0
   -6.3492   -7.9318   10.3799 C   0  0  0  0  0  0  0  0  0  0  0  0
   -5.8129   -7.5474   11.6387 C   0  0  0  0  0  0  0  0  0  0  0  0
   -7.2196  -10.5997    8.6064 C   0  0  0  0  0  0  0  0  0  0  0  0
  1  4  1  0  0  0  0
  2  3  1  0  0  0  0
  3  5  1  0  0  0  0
  4  6  1  0  0  0  0
  5  8  1  0  0  0  0
  6  7  1  0  0  0  0
  7 10  1  0  0  0  0
  8  9  1  0  0  0  0
  9 12  1  0  0  0  0
  9 13  1  0  0  0  0
 10 11  1  0  0  0  0
 11 14  1  0  0  0  0
 14 15  1  0  0  0  0
 15 16  1  0  0  0  0
 15 17  1  0  0  0  0
 18  2  1  0  0  0  0
 18 20  2  0  0  0  0
 18 24  1  0  0  0  0
 19 25  1  0  0  0  0
 20  1  1  0  0  0  0
 20 21  1  0  0  0  0
 21 22  2  0  0  0  0
 22 19  1  0  0  0  0
 22 23  1  0  0  0  0
 23 24  2  0  0  0  0
M  END
>  <CHROM.1>
-6.69218489,-113.87627637,-165.88636360,130.60925590,167.76918614,-94.06150146
-167.30797909,2.52651714,-48.02973334,-10.39506813,171.50866248,-135.25238074
-46.43564051,-49.78387237,-65.37173068,75.58360844,89.16289311,75.42957782
-4.80246889,-10.20264406,11.82994462,-0.28130668,0.67659349,2.71442544

>  <Name>
1uud_lig

>  <RI>
0

>  <Rbt.Current_Directory>
/home/itssahil/PROJECTS/Mol_Feturizer/New_Systems/rnas/1uud

>  <Rbt.Executable>
rbdock ($Id: //depot/dev/client3/rdock/2013.1/src/exe/rbdock.cxx#4 $)

>  <Rbt.Library>
libRbt.so (2013.1, Build901 2013/11/27)

>  <Rbt.Parameter_File>
/export/apps/rDock/src/rDock_2013.1_src/data/scripts/dock_solv.prm

>  <Rbt.Receptor>
prm/blind_docking_40.prm

>  <SCORE>
-21.3749

>  <SCORE.INTER>
-26.8155

>  <SCORE.INTER.CONST>
1

>  <SCORE.INTER.POLAR>
-4.47778

>  <SCORE.INTER.ROT>
18

>  <SCORE.INTER.SOLV>
10.7831

>  <SCORE.INTER.VDW>
-22.1454

>  <SCORE.INTER.norm>
-1.07262

>  <SCORE.INTRA>
5.37447

>  <SCORE.INTRA.DIHEDRAL>
7.45318

>  <SCORE.INTRA.DIHEDRAL.0>
30.6762

>  <SCORE.INTRA.POLAR>
0.0288659

>  <SCORE.INTRA.POLAR.0>
-0.0288659

>  <SCORE.INTRA.REPUL>
0

>  <SCORE.INTRA.REPUL.0>
0

>  <SCORE.INTRA.SOLV>
-0.918462

>  <SCORE.INTRA.SOLV.lig_0>
-25.2195

>  <SCORE.INTRA.VDW>
2.00896

>  <SCORE.INTRA.VDW.0>
4.14263

>  <SCORE.INTRA.norm>
0.214979

>  <SCORE.RESTR>
0.0661652

>  <SCORE.RESTR.CAVITY>
0.0661652

>  <SCORE.RESTR.norm>
0.00264661

>  <SCORE.SYSTEM>
0

>  <SCORE.SYSTEM.CONST>
0

>  <SCORE.SYSTEM.DIHEDRAL>
0

>  <SCORE.SYSTEM.SOLV>
0

>  <SCORE.SYSTEM.norm>
0

>  <SCORE.heavy>
25

>  <SCORE.norm>
-0.854996

>  <RMSD>
16.326

$$$$
1uud_lig
 OpenBabel11021811413D
libRbt.so/2013.1/901 2013/11/27
 25 25  0  0  0  0  0  0  0  0999 V2000
   -3.8280  -11.2930   11.6847 C   0  0  0  0  0  0  0  0  0  0  0  0
   -2.2339   -9.6453   13.5140 O   0  0  0  0  0  0  0  0  0  0  0  0
   -2.1326   -8.9642   14.7734 C   0  0  0  0  0  0  0  0  0  0  0  0
   -4.8249  -11.9600   12.5584 N   0  0  0  0  0  0  0  0  0  0  0  0
   -1.0122   -9.5820   15.6208 C   0  0  0  0  0  0  0  0  0  0  0  0
   -5.1797  -13.2843   11.9953 C   0  0  0  0  0  0  0  0  0  0  0  0
   -6.1624  -13.1006   10.8325 C   0  0  0  0  0  0  0  0  0  0  0  0
    0.1033   -9.6146   14.9313 N   0  0  0  0  0  0  0  0  0  0  0  0
    1.0627   -8.7300   15.1287 C   0  0  0  0  0  0  0  0  0  0  0  0
   -5.3984  -12.7185    9.5600 C   0  0  0  0  0  0  0  0  0  0  0  0
   -6.2180  -11.7049    8.7561 C   0  0  0  0  0  0  0  0  0  0  0  0
    2.1493   -9.0161   15.9083 N   0  0  0  0  0  0  0  0  0  0  0  0
    0.9677   -7.5073   14.5453 N   0  0  0  0  0  0  0  0  0  0  0  0
   -7.2608  -12.2971    8.2241 N   0  0  0  0  0  0  0  0  0  0  0  0
   -8.4538  -11.7340    8.2358 C   0  0  0  0  0  0  0  0  0  0  0  0
   -8.5820  -10.4458    7.8264 N   0  0  0  0  0  0  0  0  0  0  0  0
   -9.5606  -12.4133    8.6596 N   0  0  0  0  0  0  0  0  0  0  0  0
   -3.2062   -8.9997   12.6819 C   0  0  0  0  0  0  0  0  0  0  0  0
   -6.0671   -7.0497   10.1793 O   0  0  0  0  0  0  0  0  0  0  0  0
   -3.9979   -9.7623   11.7756 C   0  0  0  0  0  0  0  0  0  0  0  0
   -4.9425   -9.1101   10.9385 C   0  0  0  0  0  0  0  0  0  0  0  0
   -5.1127   -7.7031   11.0200 C   0  0  0  0  0  0  0  0  0  0  0  0
   -4.3374   -6.9441   11.9375 C   0  0  0  0  0  0  0  0  0  0  0  0
   -3.3887   -7.5919   12.7743 C   0  0  0  0  0  0  0  0  0  0  0  0
   -6.0210   -7.6205    8.8683 C   0  0  0  0  0  0  0  0  0  0  0  0
  1  4  1  0  0  0  0
  2  3  1  0  0  0  0
  3  5  1  0  0  0  0
  4  6  1  0  0  0  0
  5  8  1  0  0  0  0
  6  7  1  0  0  0  0
  7 10  1  0  0  0  0
  8  9  1  0  0  0  0
  9 12  1  0  0  0  0
  9 13  1  0  0  0  0
 10 11  1  0  0  0  0
 11 14  1  0  0  0  0
 14 15  1  0  0  0  0
 15 16  1  0  0  0  0
 15 17  1  0  0  0  0
 18  2  1  0  0  0  0
 18 20  2  0  0  0  0
 18 24  1  0  0  0  0
 19 25  1  0  0  0  0
 20  1  1  0  0  0  0
 20 21  1  0  0  0  0
 21 22  2  0  0  0  0
 22 19  1  0  0  0  0
 22 23  1  0  0  0  0
 23 24  2  0  0  0  0
M  END
>  <CHROM.1>
150.15367206,-175.36481534,53.04803593,-78.08160938,101.90716437,80.88621983
-142.87244312,98.54283010,-0.30025278,-154.42660909,-71.21065946,136.77585861
49.25777952,70.00977315,-99.75795294,-146.75487941,94.82511192,-40.68215601
-4.14647387,-9.97692001,11.71198567,-2.95839824,-0.69318895,-0.13055124

>  <Name>
1uud_lig

>  <RI>
0

>  <Rbt.Current_Directory>
/home/itssahil/PROJECTS/Mol_Feturizer/New_Systems/rnas/1uud

>  <Rbt.Executable>
rbdock ($Id: //depot/dev/client3/rdock/2013.1/src/exe/rbdock.cxx#4 $)

>  <Rbt.Library>
libRbt.so (2013.1, Build901 2013/11/27)

>  <Rbt.Parameter_File>
/export/apps/rDock/src/rDock_2013.1_src/data/scripts/dock_solv.prm

>  <Rbt.Receptor>
prm/blind_docking_20.prm

>  <SCORE>
-26.2605

>  <SCORE.INTER>
-23.4374

>  <SCORE.INTER.CONST>
1

>  <SCORE.INTER.POLAR>
-3.19196

>  <SCORE.INTER.ROT>
18

>  <SCORE.INTER.SOLV>
11.3405

>  <SCORE.INTER.VDW>
-24.3652

>  <SCORE.INTER.norm>
-0.937496

>  <SCORE.INTRA>
-4.44877

>  <SCORE.INTRA.DIHEDRAL>
-7.97269

>  <SCORE.INTRA.DIHEDRAL.0>
30.6762

>  <SCORE.INTRA.POLAR>
0.0288659

>  <SCORE.INTRA.POLAR.0>
-0.0288659

>  <SCORE.INTRA.REPUL>
0

>  <SCORE.INTRA.REPUL.0>
0

>  <SCORE.INTRA.SOLV>
-0.545103

>  <SCORE.INTRA.SOLV.lig_0>
-25.2195

>  <SCORE.INTRA.VDW>
-0.288016

>  <SCORE.INTRA.VDW.0>
4.14263

>  <SCORE.INTRA.norm>
-0.177951

>  <SCORE.RESTR>
1.6257

>  <SCORE.RESTR.CAVITY>
1.6257

>  <SCORE.RESTR.norm>
0.0650279

>  <SCORE.SYSTEM>
0

>  <SCORE.SYSTEM.CONST>
0

>  <SCORE.SYSTEM.DIHEDRAL>
0

>  <SCORE.SYSTEM.SOLV>
0

>  <SCORE.SYSTEM.norm>
0

>  <SCORE.heavy>
25

>  <SCORE.norm>
-1.05042

>  <RMSD>
16.363

$$$$
1uud_lig
 OpenBabel11021811413D
libRbt.so/2013.1/901 2013/11/27
 25 25  0  0  0  0  0  0  0  0999 V2000
   -2.9538  -11.3239   12.2134 C   0  0  0  0  0  0  0  0  0  0  0  0
   -4.3839  -10.7344    9.7214 O   0  0  0  0  0  0  0  0  0  0  0  0
   -5.7477  -10.9653    9.3381 C   0  0  0  0  0  0  0  0  0  0  0  0
   -2.3505  -11.3331   13.5691 N   0  0  0  0  0  0  0  0  0  0  0  0
   -6.2017  -12.3540    9.8078 C   0  0  0  0  0  0  0  0  0  0  0  0
   -1.1523  -10.4611   13.5914 C   0  0  0  0  0  0  0  0  0  0  0  0
   -1.0949   -9.7022   14.9227 C   0  0  0  0  0  0  0  0  0  0  0  0
   -6.0006  -12.4771   11.0982 N   0  0  0  0  0  0  0  0  0  0  0  0
   -5.5179  -13.5900   11.6182 C   0  0  0  0  0  0  0  0  0  0  0  0
   -0.4498   -8.3281   14.7120 C   0  0  0  0  0  0  0  0  0  0  0  0
   -0.7552   -7.4297   15.9140 C   0  0  0  0  0  0  0  0  0  0  0  0
   -6.3106  -14.4504   12.3267 N   0  0  0  0  0  0  0  0  0  0  0  0
   -4.2038  -13.8866   11.4470 N   0  0  0  0  0  0  0  0  0  0  0  0
   -0.0571   -6.3220   15.8310 N   0  0  0  0  0  0  0  0  0  0  0  0
    0.6715   -5.8890   16.8420 C   0  0  0  0  0  0  0  0  0  0  0  0
    1.0551   -6.7657   17.8052 N   0  0  0  0  0  0  0  0  0  0  0  0
    1.0399   -4.5778   16.9474 N   0  0  0  0  0  0  0  0  0  0  0  0
   -4.3215   -9.7194   10.7316 C   0  0  0  0  0  0  0  0  0  0  0  0
   -4.1858   -6.6960   13.7467 O   0  0  0  0  0  0  0  0  0  0  0  0
   -3.6413   -9.9664   11.9589 C   0  0  0  0  0  0  0  0  0  0  0  0
   -3.6051   -8.9621   12.9631 C   0  0  0  0  0  0  0  0  0  0  0  0
   -4.2273   -7.7065   12.7359 C   0  0  0  0  0  0  0  0  0  0  0  0
   -4.8891   -7.4523   11.5045 C   0  0  0  0  0  0  0  0  0  0  0  0
   -4.9309   -8.4553   10.4984 C   0  0  0  0  0  0  0  0  0  0  0  0
   -4.7643   -7.2015   14.9536 C   0  0  0  0  0  0  0  0  0  0  0  0
  1  4  1  0  0  0  0
  2  3  1  0  0  0  0
  3  5  1  0  0  0  0
  4  6  1  0  0  0  0
  5  8  1  0  0  0  0
  6  7  1  0  0  0  0
  7 10  1  0  0  0  0
  8  9  1  0  0  0  0
  9 12  1  0  0  0  0
  9 13  1  0  0  0  0
 10 11  1  0  0  0  0
 11 14  1  0  0  0  0
 14 15  1  0  0  0  0
 15 16  1  0  0  0  0
 15 17  1  0  0  0  0
 18  2  1  0  0  0  0
 18 20  2  0  0  0  0
 18 24  1  0  0  0  0
 19 25  1  0  0  0  0
 20  1  1  0  0  0  0
 20 21  1  0  0  0  0
 21 22  2  0  0  0  0
 22 19  1  0  0  0  0
 22 23  1  0  0  0  0
 23 24  2  0  0  0  0
M  END
>  <CHROM.1>
-72.30739731,-111.24635384,54.63531972,141.30388955,-138.18153740,-148.05440298
163.67839903,-106.50774424,77.80522923,123.05320394,171.26057756,-129.16682708
21.07798507,-74.88692121,117.09131207,126.50991355,-178.68669501,-57.59800312
-3.12411114,-9.48922670,13.13445378,-2.44861964,-0.76212517,0.06030195

>  <Name>
1uud_lig

>  <RI>
0

>  <Rbt.Current_Directory>
/home/itssahil/PROJECTS/Mol_Feturizer/New_Systems/rnas/1uud

>  <Rbt.Executable>
rbdock ($Id: //depot/dev/client3/rdock/2013.1/src/exe/rbdock.cxx#4 $)

>  <Rbt.Library>
libRbt.so (2013.1, Build901 2013/11/27)

>  <Rbt.Parameter_File>
/export/apps/rDock/src/rDock_2013.1_src/data/scripts/dock_solv.prm

>  <Rbt.Receptor>
prm/blind_docking_80.prm

>  <SCORE>
-31.1083

>  <SCORE.INTER>
-29.6455

>  <SCORE.INTER.CONST>
1

>  <SCORE.INTER.POLAR>
-4.73633

>  <SCORE.INTER.ROT>
18

>  <SCORE.INTER.SOLV>
11.3371

>  <SCORE.INTER.VDW>
-23.3549

>  <SCORE.INTER.norm>
-1.18582

>  <SCORE.INTRA>
-2.40577

>  <SCORE.INTRA.DIHEDRAL>
0.470098

>  <SCORE.INTRA.DIHEDRAL.0>
30.6762

>  <SCORE.INTRA.POLAR>
0.0288659

>  <SCORE.INTRA.POLAR.0>
-0.0288659

>  <SCORE.INTRA.REPUL>
0

>  <SCORE.INTRA.REPUL.0>
0

>  <SCORE.INTRA.SOLV>
0.0327259

>  <SCORE.INTRA.SOLV.lig_0>
-25.2195

>  <SCORE.INTRA.VDW>
-2.75533

>  <SCORE.INTRA.VDW.0>
4.14263

>  <SCORE.INTRA.norm>
-0.0962309

>  <SCORE.RESTR>
0.942991

>  <SCORE.RESTR.CAVITY>
0.942991

>  <SCORE.RESTR.norm>
0.0377197

>  <SCORE.SYSTEM>
0

>  <SCORE.SYSTEM.CONST>
0

>  <SCORE.SYSTEM.DIHEDRAL>
0

>  <SCORE.SYSTEM.SOLV>
0

>  <SCORE.SYSTEM.norm>
0

>  <SCORE.heavy>
25

>  <SCORE.norm>
-1.24433

>  <RMSD>
16.365

$$$$
1uud_lig
 OpenBabel11021811413D
libRbt.so/2013.1/901 2013/11/27
 25 25  0  0  0  0  0  0  0  0999 V2000
   -2.3079  -11.2280   12.5017 C   0  0  0  0  0  0  0  0  0  0  0  0
   -4.3571   -9.2019   13.0480 O   0  0  0  0  0  0  0  0  0  0  0  0
   -4.7091   -8.0056   12.3372 C   0  0  0  0  0  0  0  0  0  0  0  0
   -3.6089  -11.8494   12.8528 N   0  0  0  0  0  0  0  0  0  0  0  0
   -6.1599   -8.0902   11.8442 C   0  0  0  0  0  0  0  0  0  0  0  0
   -4.0540  -12.7376   11.7529 C   0  0  0  0  0  0  0  0  0  0  0  0
   -4.6479  -11.8924   10.6196 C   0  0  0  0  0  0  0  0  0  0  0  0
   -6.3465   -7.2460   10.8576 N   0  0  0  0  0  0  0  0  0  0  0  0
   -6.0594   -7.5680    9.6103 C   0  0  0  0  0  0  0  0  0  0  0  0
   -5.0014  -12.7909    9.4294 C   0  0  0  0  0  0  0  0  0  0  0  0
   -5.4012  -11.9221    8.2334 C   0  0  0  0  0  0  0  0  0  0  0  0
   -6.9189   -8.3100    8.8478 N   0  0  0  0  0  0  0  0  0  0  0  0
   -4.8832   -7.1541    9.0724 N   0  0  0  0  0  0  0  0  0  0  0  0
   -6.4748  -11.2274    8.5266 N   0  0  0  0  0  0  0  0  0  0  0  0
   -7.6835  -11.7415    8.4030 C   0  0  0  0  0  0  0  0  0  0  0  0
   -8.7570  -10.9104    8.3761 N   0  0  0  0  0  0  0  0  0  0  0  0
   -7.8807  -13.0901    8.3118 N   0  0  0  0  0  0  0  0  0  0  0  0
   -3.0673   -9.0524   13.6552 C   0  0  0  0  0  0  0  0  0  0  0  0
    0.7554   -8.6109   15.5106 O   0  0  0  0  0  0  0  0  0  0  0  0
   -2.0451  -10.0167   13.4203 C   0  0  0  0  0  0  0  0  0  0  0  0
   -0.7776   -9.8718   14.0454 C   0  0  0  0  0  0  0  0  0  0  0  0
   -0.5226   -8.7564   14.8859 C   0  0  0  0  0  0  0  0  0  0  0  0
   -1.5350   -7.7839   15.1052 C   0  0  0  0  0  0  0  0  0  0  0  0
   -2.8057   -7.9267   14.4847 C   0  0  0  0  0  0  0  0  0  0  0  0
    1.4188   -7.4589   14.9818 C   0  0  0  0  0  0  0  0  0  0  0  0
  1  4  1  0  0  0  0
  2  3  1  0  0  0  0
  3  5  1  0  0  0  0
  4  6  1  0  0  0  0
  5  8  1  0  0  0  0
  6  7  1  0  0  0  0
  7 10  1  0  0  0  0
  8  9  1  0  0  0  0
  9 12  1  0  0  0  0
  9 13  1  0  0  0  0
 10 11  1  0  0  0  0
 11 14  1  0  0  0  0
 14 15  1  0  0  0  0
 15 16  1  0  0  0  0
 15 17  1  0  0  0  0
 18  2  1  0  0  0  0
 18 20  2  0  0  0  0
 18 24  1  0  0  0  0
 19 25  1  0  0  0  0
 20  1  1  0  0  0  0
 20 21  1  0  0  0  0
 21 22  2  0  0  0  0
 22 19  1  0  0  0  0
 22 23  1  0  0  0  0
 23 24  2  0  0  0  0
M  END
>  <CHROM.1>
163.49962446,-172.52910822,-159.41954057,-78.32836677,85.23134244,175.21373720
-171.84686956,81.00197114,-3.06508667,-111.48042773,-62.54898591,-83.83823703
-162.98863037,3.25169151,-163.29974129,-126.74831516,-46.76645564,113.82966486
-4.23549005,-9.78802130,11.54832787,-0.38688759,0.70552250,-2.95888836

>  <Name>
1uud_lig

>  <RI>
0

>  <Rbt.Current_Directory>
/home/itssahil/PROJECTS/Mol_Feturizer/New_Systems/rnas/1uud

>  <Rbt.Executable>
rbdock ($Id: //depot/dev/client3/rdock/2013.1/src/exe/rbdock.cxx#4 $)

>  <Rbt.Library>
libRbt.so (2013.1, Build901 2013/11/27)

>  <Rbt.Parameter_File>
/export/apps/rDock/src/rDock_2013.1_src/data/scripts/dock_solv.prm

>  <Rbt.Receptor>
prm/blind_docking_80.prm

>  <SCORE>
-38.1641

>  <SCORE.INTER>
-26.2805

>  <SCORE.INTER.CONST>
1

>  <SCORE.INTER.POLAR>
-4.40344

>  <SCORE.INTER.ROT>
18

>  <SCORE.INTER.SOLV>
8.54132

>  <SCORE.INTER.VDW>
-21.2893

>  <SCORE.INTER.norm>
-1.05122

>  <SCORE.INTRA>
-12.9164

>  <SCORE.INTRA.DIHEDRAL>
-9.78357

>  <SCORE.INTRA.DIHEDRAL.0>
30.6762

>  <SCORE.INTRA.POLAR>
-1.82934

>  <SCORE.INTRA.POLAR.0>
-0.0288659

>  <SCORE.INTRA.REPUL>
0

>  <SCORE.INTRA.REPUL.0>
0

>  <SCORE.INTRA.SOLV>
1.54958

>  <SCORE.INTRA.SOLV.lig_0>
-25.2195

>  <SCORE.INTRA.VDW>
-2.57964

>  <SCORE.INTRA.VDW.0>
4.14263

>  <SCORE.INTRA.norm>
-0.516656

>  <SCORE.RESTR>
1.03283

>  <SCORE.RESTR.CAVITY>
1.03283

>  <SCORE.RESTR.norm>
0.0413132

>  <SCORE.SYSTEM>
0

>  <SCORE.SYSTEM.CONST>
0

>  <SCORE.SYSTEM.DIHEDRAL>
0

>  <SCORE.SYSTEM.SOLV>
0

>  <SCORE.SYSTEM.norm>
0

>  <SCORE.heavy>
25

>  <SCORE.norm>
-1.52656

>  <RMSD>
16.408

$$$$
1uud_lig
 OpenBabel11021811413D
libRbt.so/2013.1/901 2013/11/27
 25 25  0  0  0  0  0  0  0  0999 V2000
   -2.9023  -10.3344   12.6729 C   0  0  0  0  0  0  0  0  0  0  0  0
   -3.3755   -8.0357   14.4321 O   0  0  0  0  0  0  0  0  0  0  0  0
   -2.0086   -7.7350   14.1136 C   0  0  0  0  0  0  0  0  0  0  0  0
   -3.2365  -11.5841   11.9458 N   0  0  0  0  0  0  0  0  0  0  0  0
   -1.0653   -8.5208   15.0345 C   0  0  0  0  0  0  0  0  0  0  0  0
   -4.4615  -12.1877   12.5217 C   0  0  0  0  0  0  0  0  0  0  0  0
   -4.8752  -13.4050   11.6858 C   0  0  0  0  0  0  0  0  0  0  0  0
   -0.1789   -7.7107   15.5624 N   0  0  0  0  0  0  0  0  0  0  0  0
    1.1014   -7.7922   15.2524 C   0  0  0  0  0  0  0  0  0  0  0  0
   -5.2516  -12.9602   10.2683 C   0  0  0  0  0  0  0  0  0  0  0  0
   -6.5513  -12.1515   10.3140 C   0  0  0  0  0  0  0  0  0  0  0  0
    1.7963   -6.7071   14.7938 N   0  0  0  0  0  0  0  0  0  0  0  0
    1.7429   -8.9812   15.3907 N   0  0  0  0  0  0  0  0  0  0  0  0
   -7.4393  -12.6900    9.5123 N   0  0  0  0  0  0  0  0  0  0  0  0
   -7.3442  -12.5748    8.2015 C   0  0  0  0  0  0  0  0  0  0  0  0
   -7.9155  -11.5071    7.5873 N   0  0  0  0  0  0  0  0  0  0  0  0
   -6.6935  -13.5097    7.4473 N   0  0  0  0  0  0  0  0  0  0  0  0
   -4.1479   -8.1483   13.2298 C   0  0  0  0  0  0  0  0  0  0  0  0
   -6.4295   -8.4407    9.6300 O   0  0  0  0  0  0  0  0  0  0  0  0
   -3.9459   -9.2465   12.3449 C   0  0  0  0  0  0  0  0  0  0  0  0
   -4.7001   -9.3366   11.1443 C   0  0  0  0  0  0  0  0  0  0  0  0
   -5.6688   -8.3454   10.8370 C   0  0  0  0  0  0  0  0  0  0  0  0
   -5.8847   -7.2602   11.7285 C   0  0  0  0  0  0  0  0  0  0  0  0
   -5.1300   -7.1641   12.9290 C   0  0  0  0  0  0  0  0  0  0  0  0
   -5.5742   -8.2152    8.5056 C   0  0  0  0  0  0  0  0  0  0  0  0
  1  4  1  0  0  0  0
  2  3  1  0  0  0  0
  3  5  1  0  0  0  0
  4  6  1  0  0  0  0
  5  8  1  0  0  0  0
  6  7  1  0  0  0  0
  7 10  1  0  0  0  0
  8  9  1  0  0  0  0
  9 12  1  0  0  0  0
  9 13  1  0  0  0  0
 10 11  1  0  0  0  0
 11 14  1  0  0  0  0
 14 15  1  0  0  0  0
 15 16  1  0  0  0  0
 15 17  1  0  0  0  0
 18  2  1  0  0  0  0
 18 20  2  0  0  0  0
 18 24  1  0  0  0  0
 19 25  1  0  0  0  0
 20  1  1  0  0  0  0
 20 21  1  0  0  0  0
 21 22  2  0  0  0  0
 22 19  1  0  0  0  0
 22 23  1  0  0  0  0
 23 24  2  0  0  0  0
M  END
>  <CHROM.1>
-69.96255438,-140.04737278,-129.90130456,174.78509030,-112.66734896,-64.00860591
-68.83159866,125.80236445,104.59718342,162.67177854,-124.24306628,-73.92381726
-88.73553816,32.11048685,173.27985893,69.42436365,157.66778958,-68.82593562
-3.96981257,-9.81613212,11.85948232,-0.52836058,0.65970027,-2.97008957

>  <Name>
1uud_lig

>  <RI>
0

>  <Rbt.Current_Directory>
/home/itssahil/PROJECTS/Mol_Feturizer/New_Systems/rnas/1uud

>  <Rbt.Executable>
rbdock ($Id: //depot/dev/client3/rdock/2013.1/src/exe/rbdock.cxx#4 $)

>  <Rbt.Library>
libRbt.so (2013.1, Build901 2013/11/27)

>  <Rbt.Parameter_File>
/export/apps/rDock/src/rDock_2013.1_src/data/scripts/dock_solv.prm

>  <Rbt.Receptor>
prm/blind_docking_20.prm

>  <SCORE>
-30.4449

>  <SCORE.INTER>
-28.9597

>  <SCORE.INTER.CONST>
1

>  <SCORE.INTER.POLAR>
-3.89049

>  <SCORE.INTER.ROT>
18

>  <SCORE.INTER.SOLV>
13.0447

>  <SCORE.INTER.VDW>
-26.2864

>  <SCORE.INTER.norm>
-1.15839

>  <SCORE.INTRA>
-1.53159

>  <SCORE.INTRA.DIHEDRAL>
4.66834

>  <SCORE.INTRA.DIHEDRAL.0>
30.6762

>  <SCORE.INTRA.POLAR>
0.0288659

>  <SCORE.INTRA.POLAR.0>
-0.0288659

>  <SCORE.INTRA.REPUL>
0

>  <SCORE.INTRA.REPUL.0>
0

>  <SCORE.INTRA.SOLV>
-0.773109

>  <SCORE.INTRA.SOLV.lig_0>
-25.2195

>  <SCORE.INTRA.VDW>
-3.57735

>  <SCORE.INTRA.VDW.0>
4.14263

>  <SCORE.INTRA.norm>
-0.0612634

>  <SCORE.RESTR>
0.0463626

>  <SCORE.RESTR.CAVITY>
0.0463626

>  <SCORE.RESTR.norm>
0.0018545

>  <SCORE.SYSTEM>
0

>  <SCORE.SYSTEM.CONST>
0

>  <SCORE.SYSTEM.DIHEDRAL>
0

>  <SCORE.SYSTEM.SOLV>
0

>  <SCORE.SYSTEM.norm>
0

>  <SCORE.heavy>
25

>  <SCORE.norm>
-1.2178

>  <RMSD>
16.426

$$$$
1uud_lig
 OpenBabel11021811413D
libRbt.so/2013.1/901 2013/11/27
 25 25  0  0  0  0  0  0  0  0999 V2000
   -1.9813  -11.5045   12.5051 C   0  0  0  0  0  0  0  0  0  0  0  0
   -3.8954   -9.2904   12.3134 O   0  0  0  0  0  0  0  0  0  0  0  0
   -4.4084   -7.9932   11.9755 C   0  0  0  0  0  0  0  0  0  0  0  0
   -3.2534  -12.1869   12.8491 N   0  0  0  0  0  0  0  0  0  0  0  0
   -5.3738   -8.0987   10.7872 C   0  0  0  0  0  0  0  0  0  0  0  0
   -4.0597  -12.3937   11.6228 C   0  0  0  0  0  0  0  0  0  0  0  0
   -5.2819  -13.2593   11.9525 C   0  0  0  0  0  0  0  0  0  0  0  0
   -4.8334   -8.8216    9.8353 N   0  0  0  0  0  0  0  0  0  0  0  0
   -4.9726   -8.5017    8.5624 C   0  0  0  0  0  0  0  0  0  0  0  0
   -6.5640  -12.5321   11.5330 C   0  0  0  0  0  0  0  0  0  0  0  0
   -6.7224  -12.6104   10.0118 C   0  0  0  0  0  0  0  0  0  0  0  0
   -4.6129   -7.2689    8.0919 N   0  0  0  0  0  0  0  0  0  0  0  0
   -5.4860   -9.4171    7.7007 N   0  0  0  0  0  0  0  0  0  0  0  0
   -7.8719  -12.0875    9.6562 N   0  0  0  0  0  0  0  0  0  0  0  0
   -8.7776  -12.7919    9.0051 C   0  0  0  0  0  0  0  0  0  0  0  0
   -9.9297  -12.1892    8.6138 N   0  0  0  0  0  0  0  0  0  0  0  0
   -8.5877  -14.1153    8.7246 N   0  0  0  0  0  0  0  0  0  0  0  0
   -2.7886   -9.1626   13.2152 C   0  0  0  0  0  0  0  0  0  0  0  0
    0.4778   -8.7790   15.9417 O   0  0  0  0  0  0  0  0  0  0  0  0
   -1.8387  -10.2168   13.3427 C   0  0  0  0  0  0  0  0  0  0  0  0
   -0.7582  -10.0899   14.2564 C   0  0  0  0  0  0  0  0  0  0  0  0
   -0.6129   -8.9058   15.0258 C   0  0  0  0  0  0  0  0  0  0  0  0
   -1.5488   -7.8459   14.8851 C   0  0  0  0  0  0  0  0  0  0  0  0
   -2.6333   -7.9699   13.9749 C   0  0  0  0  0  0  0  0  0  0  0  0
    1.6037   -8.2066   15.2698 C   0  0  0  0  0  0  0  0  0  0  0  0
  1  4  1  0  0  0  0
  2  3  1  0  0  0  0
  3  5  1  0  0  0  0
  4  6  1  0  0  0  0
  5  8  1  0  0  0  0
  6  7  1  0  0  0  0
  7 10  1  0  0  0  0
  8  9  1  0  0  0  0
  9 12  1  0  0  0  0
  9 13  1  0  0  0  0
 10 11  1  0  0  0  0
 11 14  1  0  0  0  0
 14 15  1  0  0  0  0
 15 16  1  0  0  0  0
 15 17  1  0  0  0  0
 18  2  1  0  0  0  0
 18 20  2  0  0  0  0
 18 24  1  0  0  0  0
 19 25  1  0  0  0  0
 20  1  1  0  0  0  0
 20 21  1  0  0  0  0
 21 22  2  0  0  0  0
 22 19  1  0  0  0  0
 22 23  1  0  0  0  0
 23 24  2  0  0  0  0
M  END
>  <CHROM.1>
124.50004934,167.47508376,-47.87350631,172.58644198,-140.48747228,124.47730990
75.89931482,55.47556180,110.21184089,164.39139645,174.79577177,-120.83968014
-177.43846421,-29.82968949,-32.63505401,-158.58304830,-61.93550287,89.47529051
-4.26785006,-10.28021044,11.58017504,-0.00060870,0.72796084,2.62400065

>  <Name>
1uud_lig

>  <RI>
0

>  <Rbt.Current_Directory>
/home/itssahil/PROJECTS/Mol_Feturizer/New_Systems/rnas/1uud

>  <Rbt.Executable>
rbdock ($Id: //depot/dev/client3/rdock/2013.1/src/exe/rbdock.cxx#4 $)

>  <Rbt.Library>
libRbt.so (2013.1, Build901 2013/11/27)

>  <Rbt.Parameter_File>
/export/apps/rDock/src/rDock_2013.1_src/data/scripts/dock_solv.prm

>  <Rbt.Receptor>
prm/blind_docking_20.prm

>  <SCORE>
-25.2853

>  <SCORE.INTER>
-22.8811

>  <SCORE.INTER.CONST>
1

>  <SCORE.INTER.POLAR>
-3.71074

>  <SCORE.INTER.ROT>
18

>  <SCORE.INTER.SOLV>
10.5221

>  <SCORE.INTER.VDW>
-21.9923

>  <SCORE.INTER.norm>
-0.915245

>  <SCORE.INTRA>
-4.06779

>  <SCORE.INTRA.DIHEDRAL>
-3.40139

>  <SCORE.INTRA.DIHEDRAL.0>
30.6762

>  <SCORE.INTRA.POLAR>
-0.00198425

>  <SCORE.INTRA.POLAR.0>
-0.0288659

>  <SCORE.INTRA.REPUL>
0

>  <SCORE.INTRA.REPUL.0>
0

>  <SCORE.INTRA.SOLV>
-0.378866

>  <SCORE.INTRA.SOLV.lig_0>
-25.2195

>  <SCORE.INTRA.VDW>
-2.17092

>  <SCORE.INTRA.VDW.0>
4.14263

>  <SCORE.INTRA.norm>
-0.162712

>  <SCORE.RESTR>
1.6636

>  <SCORE.RESTR.CAVITY>
1.6636

>  <SCORE.RESTR.norm>
0.066544

>  <SCORE.SYSTEM>
0

>  <SCORE.SYSTEM.CONST>
0

>  <SCORE.SYSTEM.DIHEDRAL>
0

>  <SCORE.SYSTEM.SOLV>
0

>  <SCORE.SYSTEM.norm>
0

>  <SCORE.heavy>
25

>  <SCORE.norm>
-1.01141

>  <RMSD>
16.428

$$$$
1uud_lig
 OpenBabel11021811413D
libRbt.so/2013.1/901 2013/11/27
 25 25  0  0  0  0  0  0  0  0999 V2000
   -6.0944  -11.8853    8.3799 C   0  0  0  0  0  0  0  0  0  0  0  0
   -4.1054  -10.3202    9.8621 O   0  0  0  0  0  0  0  0  0  0  0  0
   -3.8071   -9.2507   10.7719 C   0  0  0  0  0  0  0  0  0  0  0  0
   -7.3955  -11.1811    8.2643 N   0  0  0  0  0  0  0  0  0  0  0  0
   -5.0978   -8.5285   11.1813 C   0  0  0  0  0  0  0  0  0  0  0  0
   -8.5055  -12.1371    8.4892 C   0  0  0  0  0  0  0  0  0  0  0  0
   -9.8472  -11.4156    8.3138 C   0  0  0  0  0  0  0  0  0  0  0  0
   -4.8065   -7.4052   11.7930 N   0  0  0  0  0  0  0  0  0  0  0  0
   -5.2232   -7.1600   13.0210 C   0  0  0  0  0  0  0  0  0  0  0  0
  -10.9919  -12.3245    8.7746 C   0  0  0  0  0  0  0  0  0  0  0  0
  -12.3298  -11.6109    8.5602 C   0  0  0  0  0  0  0  0  0  0  0  0
   -4.3562   -6.7762   14.0068 N   0  0  0  0  0  0  0  0  0  0  0  0
   -6.5429   -7.2933   13.3126 N   0  0  0  0  0  0  0  0  0  0  0  0
  -12.3918  -10.5429    9.3197 N   0  0  0  0  0  0  0  0  0  0  0  0
  -13.5323   -9.9163    9.5363 C   0  0  0  0  0  0  0  0  0  0  0  0
  -14.2959  -10.2791   10.5988 N   0  0  0  0  0  0  0  0  0  0  0  0
  -13.9674   -8.9184    8.7110 N   0  0  0  0  0  0  0  0  0  0  0  0
   -4.7994  -11.3705   10.5475 C   0  0  0  0  0  0  0  0  0  0  0  0
   -6.8877  -14.4668   12.6217 O   0  0  0  0  0  0  0  0  0  0  0  0
   -5.7770  -12.1514    9.8661 C   0  0  0  0  0  0  0  0  0  0  0  0
   -6.4760  -13.1748   10.5607 C   0  0  0  0  0  0  0  0  0  0  0  0
   -6.1857  -13.4334   11.9261 C   0  0  0  0  0  0  0  0  0  0  0  0
   -5.1970  -12.6681   12.6012 C   0  0  0  0  0  0  0  0  0  0  0  0
   -4.4978  -11.6409   11.9112 C   0  0  0  0  0  0  0  0  0  0  0  0
   -8.2324  -14.0477   12.8722 C   0  0  0  0  0  0  0  0  0  0  0  0
  1  4  1  0  0  0  0
  2  3  1  0  0  0  0
  3  5  1  0  0  0  0
  4  6  1  0  0  0  0
  5  8  1  0  0  0  0
  6  7  1  0  0  0  0
  7 10  1  0  0  0  0
  8  9  1  0  0  0  0
  9 12  1  0  0  0  0
  9 13  1  0  0  0  0
 10 11  1  0  0  0  0
 11 14  1  0  0  0  0
 14 15  1  0  0  0  0
 15 16  1  0  0  0  0
 15 17  1  0  0  0  0
 18  2  1  0  0  0  0
 18 20  2  0  0  0  0
 18 24  1  0  0  0  0
 19 25  1  0  0  0  0
 20  1  1  0  0  0  0
 20 21  1  0  0  0  0
 21 22  2  0  0  0  0
 22 19  1  0  0  0  0
 22 23  1  0  0  0  0
 23 24  2  0  0  0  0
M  END
>  <CHROM.1>
-75.77811207,-69.52102733,-167.68368502,-177.78516429,-121.86972148,-170.39378292
-178.46117812,127.64906365,176.10666759,-68.92268527,-64.12878881,-165.44902958
90.55037733,-160.31198942,-19.54329167,147.10539803,-104.83290889,-72.58275119
-7.72753697,-10.72399796,10.64163949,-0.21602529,0.29158082,-2.88935621

>  <Name>
1uud_lig

>  <RI>
0

>  <Rbt.Current_Directory>
/home/itssahil/PROJECTS/Mol_Feturizer/New_Systems/rnas/1uud

>  <Rbt.Executable>
rbdock ($Id: //depot/dev/client3/rdock/2013.1/src/exe/rbdock.cxx#4 $)

>  <Rbt.Library>
libRbt.so (2013.1, Build901 2013/11/27)

>  <Rbt.Parameter_File>
/export/apps/rDock/src/rDock_2013.1_src/data/scripts/dock_solv.prm

>  <Rbt.Receptor>
prm/blind_docking_60.prm

>  <SCORE>
-29.2236

>  <SCORE.INTER>
-22.5227

>  <SCORE.INTER.CONST>
1

>  <SCORE.INTER.POLAR>
-3.47481

>  <SCORE.INTER.ROT>
18

>  <SCORE.INTER.SOLV>
11.5612

>  <SCORE.INTER.VDW>
-22.8862

>  <SCORE.INTER.norm>
-0.900908

>  <SCORE.INTRA>
-8.22802

>  <SCORE.INTRA.DIHEDRAL>
-12.5104

>  <SCORE.INTRA.DIHEDRAL.0>
30.6762

>  <SCORE.INTRA.POLAR>
0.0288659

>  <SCORE.INTRA.POLAR.0>
-0.0288659

>  <SCORE.INTRA.REPUL>
0

>  <SCORE.INTRA.REPUL.0>
0

>  <SCORE.INTRA.SOLV>
-1.28301

>  <SCORE.INTRA.SOLV.lig_0>
-25.2195

>  <SCORE.INTRA.VDW>
-1.42947

>  <SCORE.INTRA.VDW.0>
4.14263

>  <SCORE.INTRA.norm>
-0.329121

>  <SCORE.RESTR>
1.52714

>  <SCORE.RESTR.CAVITY>
1.52714

>  <SCORE.RESTR.norm>
0.0610855

>  <SCORE.SYSTEM>
0

>  <SCORE.SYSTEM.CONST>
0

>  <SCORE.SYSTEM.DIHEDRAL>
0

>  <SCORE.SYSTEM.SOLV>
0

>  <SCORE.SYSTEM.norm>
0

>  <SCORE.heavy>
25

>  <SCORE.norm>
-1.16894

>  <RMSD>
16.448

$$$$
1uud_lig
 OpenBabel11021811413D
libRbt.so/2013.1/901 2013/11/27
 25 25  0  0  0  0  0  0  0  0999 V2000
   -3.6885   -7.2082   12.3364 C   0  0  0  0  0  0  0  0  0  0  0  0
   -3.9529   -9.8729   13.5330 O   0  0  0  0  0  0  0  0  0  0  0  0
   -3.6996  -11.2724   13.7266 C   0  0  0  0  0  0  0  0  0  0  0  0
   -5.0274   -7.6298   12.8177 N   0  0  0  0  0  0  0  0  0  0  0  0
   -2.9016  -11.8348   12.5425 C   0  0  0  0  0  0  0  0  0  0  0  0
   -5.9556   -7.7600   11.6696 C   0  0  0  0  0  0  0  0  0  0  0  0
   -5.7027   -9.0927   10.9542 C   0  0  0  0  0  0  0  0  0  0  0  0
   -3.6614  -11.8830   11.4743 N   0  0  0  0  0  0  0  0  0  0  0  0
   -4.2685  -12.9965   11.1090 C   0  0  0  0  0  0  0  0  0  0  0  0
   -6.3507   -9.0700    9.5656 C   0  0  0  0  0  0  0  0  0  0  0  0
   -6.0250  -10.3717    8.8276 C   0  0  0  0  0  0  0  0  0  0  0  0
   -4.2905  -13.4034    9.8034 N   0  0  0  0  0  0  0  0  0  0  0  0
   -4.8865  -13.7548   12.0511 N   0  0  0  0  0  0  0  0  0  0  0  0
   -6.6342  -11.3777    9.4091 N   0  0  0  0  0  0  0  0  0  0  0  0
   -7.4542  -12.1663    8.7410 C   0  0  0  0  0  0  0  0  0  0  0  0
   -6.9434  -13.0322    7.8284 N   0  0  0  0  0  0  0  0  0  0  0  0
   -8.8052  -12.1246    8.9388 N   0  0  0  0  0  0  0  0  0  0  0  0
   -2.7662   -9.1157   13.8031 C   0  0  0  0  0  0  0  0  0  0  0  0
    0.7982   -6.8946   14.5851 O   0  0  0  0  0  0  0  0  0  0  0  0
   -2.5954   -7.8193   13.2374 C   0  0  0  0  0  0  0  0  0  0  0  0
   -1.4053   -7.0865   13.4923 C   0  0  0  0  0  0  0  0  0  0  0  0
   -0.3968   -7.6360   14.3268 C   0  0  0  0  0  0  0  0  0  0  0  0
   -0.5748   -8.9207   14.9072 C   0  0  0  0  0  0  0  0  0  0  0  0
   -1.7622   -9.6589   14.6520 C   0  0  0  0  0  0  0  0  0  0  0  0
    0.7734   -6.3977   15.9264 C   0  0  0  0  0  0  0  0  0  0  0  0
  1  4  1  0  0  0  0
  2  3  1  0  0  0  0
  3  5  1  0  0  0  0
  4  6  1  0  0  0  0
  5  8  1  0  0  0  0
  6  7  1  0  0  0  0
  7 10  1  0  0  0  0
  8  9  1  0  0  0  0
  9 12  1  0  0  0  0
  9 13  1  0  0  0  0
 10 11  1  0  0  0  0
 11 14  1  0  0  0  0
 14 15  1  0  0  0  0
 15 16  1  0  0  0  0
 15 17  1  0  0  0  0
 18  2  1  0  0  0  0
 18 20  2  0  0  0  0
 18 24  1  0  0  0  0
 19 25  1  0  0  0  0
 20  1  1  0  0  0  0
 20 21  1  0  0  0  0
 21 22  2  0  0  0  0
 22 19  1  0  0  0  0
 22 23  1  0  0  0  0
 23 24  2  0  0  0  0
M  END
>  <CHROM.1>
-147.50885417,-76.21606811,-70.55706132,79.17646604,-97.56059329,-163.94074827
176.75858871,-136.17948525,-6.67364873,121.85742817,68.14521977,123.49040104
71.31917981,-109.52533247,-126.30518202,156.99941080,34.74620179,106.88775676
-4.00189797,-10.00414960,11.95114355,0.60399253,-0.66610940,0.13475954

>  <Name>
1uud_lig

>  <RI>
0

>  <Rbt.Current_Directory>
/home/itssahil/PROJECTS/Mol_Feturizer/New_Systems/rnas/1uud

>  <Rbt.Executable>
rbdock ($Id: //depot/dev/client3/rdock/2013.1/src/exe/rbdock.cxx#4 $)

>  <Rbt.Library>
libRbt.so (2013.1, Build901 2013/11/27)

>  <Rbt.Parameter_File>
/export/apps/rDock/src/rDock_2013.1_src/data/scripts/dock_solv.prm

>  <Rbt.Receptor>
prm/blind_docking_20.prm

>  <SCORE>
-37.106

>  <SCORE.INTER>
-28.7253

>  <SCORE.INTER.CONST>
1

>  <SCORE.INTER.POLAR>
-3.20148

>  <SCORE.INTER.ROT>
18

>  <SCORE.INTER.SOLV>
8.91458

>  <SCORE.INTER.VDW>
-27.0501

>  <SCORE.INTER.norm>
-1.14901

>  <SCORE.INTRA>
-9.39665

>  <SCORE.INTRA.DIHEDRAL>
-9.49925

>  <SCORE.INTRA.DIHEDRAL.0>
30.6762

>  <SCORE.INTRA.POLAR>
-0.851771

>  <SCORE.INTRA.POLAR.0>
-0.0288659

>  <SCORE.INTRA.REPUL>
0

>  <SCORE.INTRA.REPUL.0>
0

>  <SCORE.INTRA.SOLV>
2.29224

>  <SCORE.INTRA.SOLV.lig_0>
-25.2195

>  <SCORE.INTRA.VDW>
-2.89713

>  <SCORE.INTRA.VDW.0>
4.14263

>  <SCORE.INTRA.norm>
-0.375866

>  <SCORE.RESTR>
1.01588

>  <SCORE.RESTR.CAVITY>
1.01588

>  <SCORE.RESTR.norm>
0.0406351

>  <SCORE.SYSTEM>
0

>  <SCORE.SYSTEM.CONST>
0

>  <SCORE.SYSTEM.DIHEDRAL>
0

>  <SCORE.SYSTEM.SOLV>
0

>  <SCORE.SYSTEM.norm>
0

>  <SCORE.heavy>
25

>  <SCORE.norm>
-1.48424

>  <RMSD>
16.460

$$$$
1uud_lig
 OpenBabel11021811413D
libRbt.so/2013.1/901 2013/11/27
 25 25  0  0  0  0  0  0  0  0999 V2000
   -4.4700  -11.1668   13.0913 C   0  0  0  0  0  0  0  0  0  0  0  0
   -2.5560   -8.9597   13.3518 O   0  0  0  0  0  0  0  0  0  0  0  0
   -2.2387   -7.6482   13.8412 C   0  0  0  0  0  0  0  0  0  0  0  0
   -3.5435  -12.1793   12.5268 N   0  0  0  0  0  0  0  0  0  0  0  0
   -1.1998   -7.7403   14.9670 C   0  0  0  0  0  0  0  0  0  0  0  0
   -4.0114  -12.5939   11.1829 C   0  0  0  0  0  0  0  0  0  0  0  0
   -5.4199  -13.1904   11.2916 C   0  0  0  0  0  0  0  0  0  0  0  0
   -0.2754   -6.8250   14.7979 N   0  0  0  0  0  0  0  0  0  0  0  0
    0.8789   -6.8841   15.4351 C   0  0  0  0  0  0  0  0  0  0  0  0
   -6.2579  -12.7727   10.0784 C   0  0  0  0  0  0  0  0  0  0  0  0
   -7.7003  -13.2529   10.2630 C   0  0  0  0  0  0  0  0  0  0  0  0
    1.6566   -8.0088   15.4025 N   0  0  0  0  0  0  0  0  0  0  0  0
    1.3033   -5.8040   16.1403 N   0  0  0  0  0  0  0  0  0  0  0  0
   -8.2263  -13.5417    9.0963 N   0  0  0  0  0  0  0  0  0  0  0  0
   -9.1406  -12.7689    8.5420 C   0  0  0  0  0  0  0  0  0  0  0  0
  -10.4487  -12.9665    8.8478 N   0  0  0  0  0  0  0  0  0  0  0  0
   -8.8028  -11.7818    7.6602 N   0  0  0  0  0  0  0  0  0  0  0  0
   -3.5639   -8.8757   12.3362 C   0  0  0  0  0  0  0  0  0  0  0  0
   -6.5319   -8.6251    9.2737 O   0  0  0  0  0  0  0  0  0  0  0  0
   -4.5100   -9.9283   12.1722 C   0  0  0  0  0  0  0  0  0  0  0  0
   -5.4905   -9.8462   11.1475 C   0  0  0  0  0  0  0  0  0  0  0  0
   -5.5414   -8.7071   10.3016 C   0  0  0  0  0  0  0  0  0  0  0  0
   -4.6106   -7.6480   10.4770 C   0  0  0  0  0  0  0  0  0  0  0  0
   -3.6257   -7.7275   11.4985 C   0  0  0  0  0  0  0  0  0  0  0  0
   -6.4835   -7.3320    8.6637 C   0  0  0  0  0  0  0  0  0  0  0  0
  1  4  1  0  0  0  0
  2  3  1  0  0  0  0
  3  5  1  0  0  0  0
  4  6  1  0  0  0  0
  5  8  1  0  0  0  0
  6  7  1  0  0  0  0
  7 10  1  0  0  0  0
  8  9  1  0  0  0  0
  9 12  1  0  0  0  0
  9 13  1  0  0  0  0
 10 11  1  0  0  0  0
 11 14  1  0  0  0  0
 14 15  1  0  0  0  0
 15 16  1  0  0  0  0
 15 17  1  0  0  0  0
 18  2  1  0  0  0  0
 18 20  2  0  0  0  0
 18 24  1  0  0  0  0
 19 25  1  0  0  0  0
 20  1  1  0  0  0  0
 20 21  1  0  0  0  0
 21 22  2  0  0  0  0
 22 19  1  0  0  0  0
 22 23  1  0  0  0  0
 23 24  2  0  0  0  0
M  END
>  <CHROM.1>
-60.35842336,177.78851368,135.72095402,-59.63436908,-164.10751779,142.21759364
-174.33533870,52.42823368,-168.58853414,-136.95468940,-147.75157471,-107.48917647
-87.16184047,62.21336138,58.38213027,-148.02860417,-87.33174648,173.29376583
-4.42047611,-9.88576294,11.69985975,-0.31986499,0.69943898,2.90539602

>  <Name>
1uud_lig

>  <RI>
0

>  <Rbt.Current_Directory>
/home/itssahil/PROJECTS/Mol_Feturizer/New_Systems/rnas/1uud

>  <Rbt.Executable>
rbdock ($Id: //depot/dev/client3/rdock/2013.1/src/exe/rbdock.cxx#4 $)

>  <Rbt.Library>
libRbt.so (2013.1, Build901 2013/11/27)

>  <Rbt.Parameter_File>
/export/apps/rDock/src/rDock_2013.1_src/data/scripts/dock_solv.prm

>  <Rbt.Receptor>
prm/blind_docking_80.prm

>  <SCORE>
-30.9586

>  <SCORE.INTER>
-32.5149

>  <SCORE.INTER.CONST>
1

>  <SCORE.INTER.POLAR>
-5.07569

>  <SCORE.INTER.ROT>
18

>  <SCORE.INTER.SOLV>
13.1387

>  <SCORE.INTER.VDW>
-24.7372

>  <SCORE.INTER.norm>
-1.3006

>  <SCORE.INTRA>
1.24179

>  <SCORE.INTRA.DIHEDRAL>
-7.24359

>  <SCORE.INTRA.DIHEDRAL.0>
30.6762

>  <SCORE.INTRA.POLAR>
0.0288659

>  <SCORE.INTRA.POLAR.0>
-0.0288659

>  <SCORE.INTRA.REPUL>
0

>  <SCORE.INTRA.REPUL.0>
0

>  <SCORE.INTRA.SOLV>
-1.43972

>  <SCORE.INTRA.SOLV.lig_0>
-25.2195

>  <SCORE.INTRA.VDW>
5.4853

>  <SCORE.INTRA.VDW.0>
4.14263

>  <SCORE.INTRA.norm>
0.0496715

>  <SCORE.RESTR>
0.314503

>  <SCORE.RESTR.CAVITY>
0.314503

>  <SCORE.RESTR.norm>
0.0125801

>  <SCORE.SYSTEM>
0

>  <SCORE.SYSTEM.CONST>
0

>  <SCORE.SYSTEM.DIHEDRAL>
0

>  <SCORE.SYSTEM.SOLV>
0

>  <SCORE.SYSTEM.norm>
0

>  <SCORE.heavy>
25

>  <SCORE.norm>
-1.23835

>  <RMSD>
16.476

$$$$
1uud_lig
 OpenBabel11021811413D
libRbt.so/2013.1/901 2013/11/27
 25 25  0  0  0  0  0  0  0  0999 V2000
   -3.2318  -10.5003   11.7727 C   0  0  0  0  0  0  0  0  0  0  0  0
   -3.8082   -8.6530   13.9768 O   0  0  0  0  0  0  0  0  0  0  0  0
   -2.4361   -8.2773   13.7864 C   0  0  0  0  0  0  0  0  0  0  0  0
   -3.8952  -11.8210   11.6394 N   0  0  0  0  0  0  0  0  0  0  0  0
   -1.6038   -8.6727   15.0137 C   0  0  0  0  0  0  0  0  0  0  0  0
   -4.7814  -12.0574   12.8036 C   0  0  0  0  0  0  0  0  0  0  0  0
   -6.1983  -12.3787   12.3127 C   0  0  0  0  0  0  0  0  0  0  0  0
   -0.3514   -8.8501   14.6659 N   0  0  0  0  0  0  0  0  0  0  0  0
    0.5953   -8.0123   15.0449 C   0  0  0  0  0  0  0  0  0  0  0  0
   -6.3433  -13.8881   12.0909 C   0  0  0  0  0  0  0  0  0  0  0  0
   -7.7488  -14.1955   11.5663 C   0  0  0  0  0  0  0  0  0  0  0  0
    0.3409   -6.6807   15.2255 N   0  0  0  0  0  0  0  0  0  0  0  0
    1.8509   -8.4832   15.2591 N   0  0  0  0  0  0  0  0  0  0  0  0
   -7.8260  -13.8884   10.2931 N   0  0  0  0  0  0  0  0  0  0  0  0
   -8.8581  -13.2276    9.8047 C   0  0  0  0  0  0  0  0  0  0  0  0
   -8.6551  -12.0163    9.2258 N   0  0  0  0  0  0  0  0  0  0  0  0
  -10.1268  -13.7288    9.8771 N   0  0  0  0  0  0  0  0  0  0  0  0
   -4.5345   -8.5033   12.7501 C   0  0  0  0  0  0  0  0  0  0  0  0
   -6.6788   -8.0109    9.0882 O   0  0  0  0  0  0  0  0  0  0  0  0
   -4.2816   -9.3761   11.6528 C   0  0  0  0  0  0  0  0  0  0  0  0
   -4.9901   -9.2046   10.4334 C   0  0  0  0  0  0  0  0  0  0  0  0
   -5.9642   -8.1786   10.3152 C   0  0  0  0  0  0  0  0  0  0  0  0
   -6.2310   -7.3201   11.4155 C   0  0  0  0  0  0  0  0  0  0  0  0
   -5.5220   -7.4857   12.6361 C   0  0  0  0  0  0  0  0  0  0  0  0
   -6.1850   -6.8581    8.3998 C   0  0  0  0  0  0  0  0  0  0  0  0
  1  4  1  0  0  0  0
  2  3  1  0  0  0  0
  3  5  1  0  0  0  0
  4  6  1  0  0  0  0
  5  8  1  0  0  0  0
  6  7  1  0  0  0  0
  7 10  1  0  0  0  0
  8  9  1  0  0  0  0
  9 12  1  0  0  0  0
  9 13  1  0  0  0  0
 10 11  1  0  0  0  0
 11 14  1  0  0  0  0
 14 15  1  0  0  0  0
 15 16  1  0  0  0  0
 15 17  1  0  0  0  0
 18  2  1  0  0  0  0
 18 20  2  0  0  0  0
 18 24  1  0  0  0  0
 19 25  1  0  0  0  0
 20  1  1  0  0  0  0
 20 21  1  0  0  0  0
 21 22  2  0  0  0  0
 22 19  1  0  0  0  0
 22 23  1  0  0  0  0
 23 24  2  0  0  0  0
M  END
>  <CHROM.1>
-67.16078979,-169.79872767,154.25348981,125.50462428,110.22447426,89.11109921
-178.53566646,-31.83098921,115.47059390,-142.25747172,77.10344123,-134.98015087
118.82572267,-26.59659253,-54.24997370,69.41529201,116.65540549,-105.51208672
-4.67736422,-10.04370942,12.03854114,-0.29607804,0.63158455,2.82998976

>  <Name>
1uud_lig

>  <RI>
0

>  <Rbt.Current_Directory>
/home/itssahil/PROJECTS/Mol_Feturizer/New_Systems/rnas/1uud

>  <Rbt.Executable>
rbdock ($Id: //depot/dev/client3/rdock/2013.1/src/exe/rbdock.cxx#4 $)

>  <Rbt.Library>
libRbt.so (2013.1, Build901 2013/11/27)

>  <Rbt.Parameter_File>
/export/apps/rDock/src/rDock_2013.1_src/data/scripts/dock_solv.prm

>  <Rbt.Receptor>
prm/blind_docking_40.prm

>  <SCORE>
-31.8881

>  <SCORE.INTER>
-25.8454

>  <SCORE.INTER.CONST>
1

>  <SCORE.INTER.POLAR>
-3.60698

>  <SCORE.INTER.ROT>
18

>  <SCORE.INTER.SOLV>
9.58889

>  <SCORE.INTER.VDW>
-24.0033

>  <SCORE.INTER.norm>
-1.03382

>  <SCORE.INTRA>
-6.04673

>  <SCORE.INTRA.DIHEDRAL>
-1.69945

>  <SCORE.INTRA.DIHEDRAL.0>
30.6762

>  <SCORE.INTRA.POLAR>
0.0288659

>  <SCORE.INTRA.POLAR.0>
-0.0288659

>  <SCORE.INTRA.REPUL>
0

>  <SCORE.INTRA.REPUL.0>
0

>  <SCORE.INTRA.SOLV>
-1.0822

>  <SCORE.INTRA.SOLV.lig_0>
-25.2195

>  <SCORE.INTRA.VDW>
-4.75405

>  <SCORE.INTRA.VDW.0>
4.14263

>  <SCORE.INTRA.norm>
-0.241869

>  <SCORE.RESTR>
0.00400481

>  <SCORE.RESTR.CAVITY>
0.00400481

>  <SCORE.RESTR.norm>
0.000160193

>  <SCORE.SYSTEM>
0

>  <SCORE.SYSTEM.CONST>
0

>  <SCORE.SYSTEM.DIHEDRAL>
0

>  <SCORE.SYSTEM.SOLV>
0

>  <SCORE.SYSTEM.norm>
0

>  <SCORE.heavy>
25

>  <SCORE.norm>
-1.27553

>  <RMSD>
16.540

$$$$
1uud_lig
 OpenBabel11021811413D
libRbt.so/2013.1/901 2013/11/27
 25 25  0  0  0  0  0  0  0  0999 V2000
   -4.1295  -11.1210   13.5808 C   0  0  0  0  0  0  0  0  0  0  0  0
   -2.1330   -8.9732   13.6435 O   0  0  0  0  0  0  0  0  0  0  0  0
   -1.9862   -7.8203   14.4858 C   0  0  0  0  0  0  0  0  0  0  0  0
   -4.5095  -12.3047   12.7705 N   0  0  0  0  0  0  0  0  0  0  0  0
   -0.8319   -8.0308   15.4750 C   0  0  0  0  0  0  0  0  0  0  0  0
   -3.3839  -12.6906   11.8869 C   0  0  0  0  0  0  0  0  0  0  0  0
   -3.9177  -13.5054   10.7025 C   0  0  0  0  0  0  0  0  0  0  0  0
   -0.4500   -6.8768   15.9681 N   0  0  0  0  0  0  0  0  0  0  0  0
    0.7481   -6.3824   15.7188 C   0  0  0  0  0  0  0  0  0  0  0  0
   -4.6737  -12.5867    9.7364 C   0  0  0  0  0  0  0  0  0  0  0  0
   -6.1761  -12.6706   10.0206 C   0  0  0  0  0  0  0  0  0  0  0  0
    1.2933   -5.4014   16.5005 N   0  0  0  0  0  0  0  0  0  0  0  0
    1.4549   -6.8580   14.6612 N   0  0  0  0  0  0  0  0  0  0  0  0
   -6.8262  -11.8549    9.2248 N   0  0  0  0  0  0  0  0  0  0  0  0
   -7.1408  -12.2004    7.9911 C   0  0  0  0  0  0  0  0  0  0  0  0
   -8.0029  -11.4242    7.2854 N   0  0  0  0  0  0  0  0  0  0  0  0
   -6.6276  -13.3258    7.4112 N   0  0  0  0  0  0  0  0  0  0  0  0
   -3.2772   -8.8199   12.7939 C   0  0  0  0  0  0  0  0  0  0  0  0
   -6.6570   -8.3618   10.2214 O   0  0  0  0  0  0  0  0  0  0  0  0
   -4.2681   -9.8416   12.7297 C   0  0  0  0  0  0  0  0  0  0  0  0
   -5.3866   -9.6903   11.8670 C   0  0  0  0  0  0  0  0  0  0  0  0
   -5.5281   -8.5134   11.0859 C   0  0  0  0  0  0  0  0  0  0  0  0
   -4.5504   -7.4853   11.1639 C   0  0  0  0  0  0  0  0  0  0  0  0
   -3.4280   -7.6339   12.0229 C   0  0  0  0  0  0  0  0  0  0  0  0
   -6.2308   -8.4419    8.8582 C   0  0  0  0  0  0  0  0  0  0  0  0
  1  4  1  0  0  0  0
  2  3  1  0  0  0  0
  3  5  1  0  0  0  0
  4  6  1  0  0  0  0
  5  8  1  0  0  0  0
  6  7  1  0  0  0  0
  7 10  1  0  0  0  0
  8  9  1  0  0  0  0
  9 12  1  0  0  0  0
  9 13  1  0  0  0  0
 10 11  1  0  0  0  0
 11 14  1  0  0  0  0
 14 15  1  0  0  0  0
 15 16  1  0  0  0  0
 15 17  1  0  0  0  0
 18  2  1  0  0  0  0
 18 20  2  0  0  0  0
 18 24  1  0  0  0  0
 19 25  1  0  0  0  0
 20  1  1  0  0  0  0
 20 21  1  0  0  0  0
 21 22  2  0  0  0  0
 22 19  1  0  0  0  0
 22 23  1  0  0  0  0
 23 24  2  0  0  0  0
M  END
>  <CHROM.1>
79.65854813,175.38242444,162.04330183,-157.87243199,-114.43873771,72.36171787
-97.36947660,-161.36639195,158.78128463,-96.15421870,178.03760971,82.64798745
168.89483618,8.97116320,-172.25343105,-128.09767636,-138.08024517,-110.13743716
-3.85371755,-9.72277018,11.89919568,-0.52525974,0.77144710,-3.10434052

>  <Name>
1uud_lig

>  <RI>
0

>  <Rbt.Current_Directory>
/home/itssahil/PROJECTS/Mol_Feturizer/New_Systems/rnas/1uud

>  <Rbt.Executable>
rbdock ($Id: //depot/dev/client3/rdock/2013.1/src/exe/rbdock.cxx#4 $)

>  <Rbt.Library>
libRbt.so (2013.1, Build901 2013/11/27)

>  <Rbt.Parameter_File>
/export/apps/rDock/src/rDock_2013.1_src/data/scripts/dock_solv.prm

>  <Rbt.Receptor>
prm/blind_docking_80.prm

>  <SCORE>
-32.2061

>  <SCORE.INTER>
-28.5702

>  <SCORE.INTER.CONST>
1

>  <SCORE.INTER.POLAR>
-4.27527

>  <SCORE.INTER.ROT>
18

>  <SCORE.INTER.SOLV>
12.1972

>  <SCORE.INTER.VDW>
-24.4617

>  <SCORE.INTER.norm>
-1.14281

>  <SCORE.INTRA>
-4.48742

>  <SCORE.INTRA.DIHEDRAL>
-5.19063

>  <SCORE.INTRA.DIHEDRAL.0>
30.6762

>  <SCORE.INTRA.POLAR>
0.0288659

>  <SCORE.INTRA.POLAR.0>
-0.0288659

>  <SCORE.INTRA.REPUL>
0

>  <SCORE.INTRA.REPUL.0>
0

>  <SCORE.INTRA.SOLV>
-0.180677

>  <SCORE.INTRA.SOLV.lig_0>
-25.2195

>  <SCORE.INTRA.VDW>
-1.89992

>  <SCORE.INTRA.VDW.0>
4.14263

>  <SCORE.INTRA.norm>
-0.179497

>  <SCORE.RESTR>
0.851579

>  <SCORE.RESTR.CAVITY>
0.851579

>  <SCORE.RESTR.norm>
0.0340631

>  <SCORE.SYSTEM>
0

>  <SCORE.SYSTEM.CONST>
0

>  <SCORE.SYSTEM.DIHEDRAL>
0

>  <SCORE.SYSTEM.SOLV>
0

>  <SCORE.SYSTEM.norm>
0

>  <SCORE.heavy>
25

>  <SCORE.norm>
-1.28824

>  <RMSD>
16.564

$$$$
1uud_lig
 OpenBabel11021811413D
libRbt.so/2013.1/901 2013/11/27
 25 25  0  0  0  0  0  0  0  0999 V2000
   -3.4345   -7.5922   14.6076 C   0  0  0  0  0  0  0  0  0  0  0  0
   -3.3985   -9.7595   12.6318 O   0  0  0  0  0  0  0  0  0  0  0  0
   -3.8151  -11.0970   12.3187 C   0  0  0  0  0  0  0  0  0  0  0  0
   -3.6769   -7.2088   13.1947 N   0  0  0  0  0  0  0  0  0  0  0  0
   -4.8582  -11.0768   11.1933 C   0  0  0  0  0  0  0  0  0  0  0  0
   -5.0699   -7.5440   12.8154 C   0  0  0  0  0  0  0  0  0  0  0  0
   -5.2439   -7.3752   11.3012 C   0  0  0  0  0  0  0  0  0  0  0  0
   -4.7632  -12.1712   10.4763 N   0  0  0  0  0  0  0  0  0  0  0  0
   -5.8026  -12.6652    9.8301 C   0  0  0  0  0  0  0  0  0  0  0  0
   -4.5644   -8.5355   10.5659 C   0  0  0  0  0  0  0  0  0  0  0  0
   -4.2652   -8.1214    9.1223 C   0  0  0  0  0  0  0  0  0  0  0  0
   -6.9819  -11.9781    9.7419 N   0  0  0  0  0  0  0  0  0  0  0  0
   -5.6989  -13.8841    9.2404 N   0  0  0  0  0  0  0  0  0  0  0  0
   -5.3882   -7.9079    8.4783 N   0  0  0  0  0  0  0  0  0  0  0  0
   -6.1708   -8.9035    8.1086 C   0  0  0  0  0  0  0  0  0  0  0  0
   -5.6250   -9.9775    7.4823 N   0  0  0  0  0  0  0  0  0  0  0  0
   -7.5182   -8.8743    8.3320 N   0  0  0  0  0  0  0  0  0  0  0  0
   -2.4301   -9.7800   13.6883 C   0  0  0  0  0  0  0  0  0  0  0  0
    0.4931   -9.8371   16.8032 O   0  0  0  0  0  0  0  0  0  0  0  0
   -2.4094   -8.7437   14.6659 C   0  0  0  0  0  0  0  0  0  0  0  0
   -1.4308   -8.7608   15.6956 C   0  0  0  0  0  0  0  0  0  0  0  0
   -0.4882   -9.8202   15.7633 C   0  0  0  0  0  0  0  0  0  0  0  0
   -0.5204  -10.8645   14.8002 C   0  0  0  0  0  0  0  0  0  0  0  0
   -1.4954  -10.8496   13.7662 C   0  0  0  0  0  0  0  0  0  0  0  0
    0.0982  -10.7631   17.8196 C   0  0  0  0  0  0  0  0  0  0  0  0
  1  4  1  0  0  0  0
  2  3  1  0  0  0  0
  3  5  1  0  0  0  0
  4  6  1  0  0  0  0
  5  8  1  0  0  0  0
  6  7  1  0  0  0  0
  7 10  1  0  0  0  0
  8  9  1  0  0  0  0
  9 12  1  0  0  0  0
  9 13  1  0  0  0  0
 10 11  1  0  0  0  0
 11 14  1  0  0  0  0
 14 15  1  0  0  0  0
 15 16  1  0  0  0  0
 15 17  1  0  0  0  0
 18  2  1  0  0  0  0
 18 20  2  0  0  0  0
 18 24  1  0  0  0  0
 19 25  1  0  0  0  0
 20  1  1  0  0  0  0
 20 21  1  0  0  0  0
 21 22  2  0  0  0  0
 22 19  1  0  0  0  0
 22 23  1  0  0  0  0
 23 24  2  0  0  0  0
M  END
>  <CHROM.1>
113.35449347,179.66577730,149.20539790,-170.23501146,152.57242374,74.52383917
-158.52603533,8.08611802,-65.33758374,-179.30710447,-64.57187366,-73.09544215
-47.67222261,65.53671571,174.56961302,-144.28130367,-38.04663222,101.76255274
-3.85188850,-9.78251501,12.00428554,0.15423936,-0.92615674,0.12400987

>  <Name>
1uud_lig

>  <RI>
0

>  <Rbt.Current_Directory>
/home/itssahil/PROJECTS/Mol_Feturizer/New_Systems/rnas/1uud

>  <Rbt.Executable>
rbdock ($Id: //depot/dev/client3/rdock/2013.1/src/exe/rbdock.cxx#4 $)

>  <Rbt.Library>
libRbt.so (2013.1, Build901 2013/11/27)

>  <Rbt.Parameter_File>
/export/apps/rDock/src/rDock_2013.1_src/data/scripts/dock_solv.prm

>  <Rbt.Receptor>
prm/blind_docking_40.prm

>  <SCORE>
43.4429

>  <SCORE.INTER>
36.0272

>  <SCORE.INTER.CONST>
1

>  <SCORE.INTER.POLAR>
-0.156909

>  <SCORE.INTER.ROT>
18

>  <SCORE.INTER.SOLV>
8.723

>  <SCORE.INTER.VDW>
6.03351

>  <SCORE.INTER.norm>
1.44109

>  <SCORE.INTRA>
2.94636

>  <SCORE.INTRA.DIHEDRAL>
-5.01554

>  <SCORE.INTRA.DIHEDRAL.0>
30.6762

>  <SCORE.INTRA.POLAR>
-0.193162

>  <SCORE.INTRA.POLAR.0>
-0.0288659

>  <SCORE.INTRA.REPUL>
0

>  <SCORE.INTRA.REPUL.0>
0

>  <SCORE.INTRA.SOLV>
1.85791

>  <SCORE.INTRA.SOLV.lig_0>
-25.2195

>  <SCORE.INTRA.VDW>
5.18193

>  <SCORE.INTRA.VDW.0>
4.14263

>  <SCORE.INTRA.norm>
0.117854

>  <SCORE.RESTR>
4.46934

>  <SCORE.RESTR.CAVITY>
4.46934

>  <SCORE.RESTR.norm>
0.178774

>  <SCORE.SYSTEM>
0

>  <SCORE.SYSTEM.CONST>
0

>  <SCORE.SYSTEM.DIHEDRAL>
0

>  <SCORE.SYSTEM.SOLV>
0

>  <SCORE.SYSTEM.norm>
0

>  <SCORE.heavy>
25

>  <SCORE.norm>
1.73772

>  <RMSD>
16.589

$$$$
1uud_lig
 OpenBabel11021811413D
libRbt.so/2013.1/901 2013/11/27
 25 25  0  0  0  0  0  0  0  0999 V2000
   -1.8359  -11.7498   13.2859 C   0  0  0  0  0  0  0  0  0  0  0  0
   -3.5514   -9.7348   12.0213 O   0  0  0  0  0  0  0  0  0  0  0  0
   -4.4598   -8.6608   11.7354 C   0  0  0  0  0  0  0  0  0  0  0  0
   -2.9379  -12.3189   14.1006 N   0  0  0  0  0  0  0  0  0  0  0  0
   -4.8275   -8.6609   10.2454 C   0  0  0  0  0  0  0  0  0  0  0  0
   -4.2435  -11.8612   13.5688 C   0  0  0  0  0  0  0  0  0  0  0  0
   -5.3189  -12.9100   13.8772 C   0  0  0  0  0  0  0  0  0  0  0  0
   -4.7434   -7.4434    9.7644 N   0  0  0  0  0  0  0  0  0  0  0  0
   -5.4212   -7.0764    8.6930 C   0  0  0  0  0  0  0  0  0  0  0  0
   -6.6114  -12.5667   13.1286 C   0  0  0  0  0  0  0  0  0  0  0  0
   -6.4445  -12.8951   11.6422 C   0  0  0  0  0  0  0  0  0  0  0  0
   -6.7207   -6.6581    8.7779 N   0  0  0  0  0  0  0  0  0  0  0  0
   -4.8148   -7.1164    7.4786 N   0  0  0  0  0  0  0  0  0  0  0  0
   -7.5897  -12.7415   11.0208 N   0  0  0  0  0  0  0  0  0  0  0  0
   -7.6429  -12.3859    9.7514 C   0  0  0  0  0  0  0  0  0  0  0  0
   -8.5907  -11.4999    9.3511 N   0  0  0  0  0  0  0  0  0  0  0  0
   -6.7737  -12.8961    8.8293 N   0  0  0  0  0  0  0  0  0  0  0  0
   -2.5449   -9.2962   12.9427 C   0  0  0  0  0  0  0  0  0  0  0  0
    0.4190   -7.9710   15.7194 O   0  0  0  0  0  0  0  0  0  0  0  0
   -1.6938  -10.2426   13.5830 C   0  0  0  0  0  0  0  0  0  0  0  0
   -0.7147   -9.7997   14.5123 C   0  0  0  0  0  0  0  0  0  0  0  0
   -0.5700   -8.4144   14.7867 C   0  0  0  0  0  0  0  0  0  0  0  0
   -1.4052   -7.4682   14.1339 C   0  0  0  0  0  0  0  0  0  0  0  0
   -2.3885   -7.9070   13.2062 C   0  0  0  0  0  0  0  0  0  0  0  0
    1.4398   -7.2463   15.0271 C   0  0  0  0  0  0  0  0  0  0  0  0
  1  4  1  0  0  0  0
  2  3  1  0  0  0  0
  3  5  1  0  0  0  0
  4  6  1  0  0  0  0
  5  8  1  0  0  0  0
  6  7  1  0  0  0  0
  7 10  1  0  0  0  0
  8  9  1  0  0  0  0
  9 12  1  0  0  0  0
  9 13  1  0  0  0  0
 10 11  1  0  0  0  0
 11 14  1  0  0  0  0
 14 15  1  0  0  0  0
 15 16  1  0  0  0  0
 15 17  1  0  0  0  0
 18  2  1  0  0  0  0
 18 20  2  0  0  0  0
 18 24  1  0  0  0  0
 19 25  1  0  0  0  0
 20  1  1  0  0  0  0
 20 21  1  0  0  0  0
 21 22  2  0  0  0  0
 22 19  1  0  0  0  0
 22 23  1  0  0  0  0
 23 24  2  0  0  0  0
M  END
>  <CHROM.1>
72.54676097,139.86355794,-133.67541017,151.63030567,-156.15819325,-170.29587734
74.38048298,84.23522876,105.87447247,-13.60175658,173.19749451,149.96640674
-140.03526630,-60.84855074,-126.14940988,167.40312659,-81.97472862,112.03522749
-4.07366239,-9.91107702,11.97215680,0.09974967,0.68597514,2.54570155

>  <Name>
1uud_lig

>  <RI>
0

>  <Rbt.Current_Directory>
/home/itssahil/PROJECTS/Mol_Feturizer/New_Systems/rnas/1uud

>  <Rbt.Executable>
rbdock ($Id: //depot/dev/client3/rdock/2013.1/src/exe/rbdock.cxx#4 $)

>  <Rbt.Library>
libRbt.so (2013.1, Build901 2013/11/27)

>  <Rbt.Parameter_File>
/export/apps/rDock/src/rDock_2013.1_src/data/scripts/dock_solv.prm

>  <Rbt.Receptor>
prm/blind_docking_20.prm

>  <SCORE>
-22.553

>  <SCORE.INTER>
-22.9964

>  <SCORE.INTER.CONST>
1

>  <SCORE.INTER.POLAR>
-4.46603

>  <SCORE.INTER.ROT>
18

>  <SCORE.INTER.SOLV>
10.6444

>  <SCORE.INTER.VDW>
-19.5923

>  <SCORE.INTER.norm>
-0.919857

>  <SCORE.INTRA>
-1.1586

>  <SCORE.INTRA.DIHEDRAL>
-2.34905

>  <SCORE.INTRA.DIHEDRAL.0>
30.6762

>  <SCORE.INTRA.POLAR>
0.0288659

>  <SCORE.INTRA.POLAR.0>
-0.0288659

>  <SCORE.INTRA.REPUL>
0

>  <SCORE.INTRA.REPUL.0>
0

>  <SCORE.INTRA.SOLV>
-1.23307

>  <SCORE.INTRA.SOLV.lig_0>
-25.2195

>  <SCORE.INTRA.VDW>
0.534315

>  <SCORE.INTRA.VDW.0>
4.14263

>  <SCORE.INTRA.norm>
-0.0463441

>  <SCORE.RESTR>
1.60205

>  <SCORE.RESTR.CAVITY>
1.60205

>  <SCORE.RESTR.norm>
0.0640821

>  <SCORE.SYSTEM>
0

>  <SCORE.SYSTEM.CONST>
0

>  <SCORE.SYSTEM.DIHEDRAL>
0

>  <SCORE.SYSTEM.SOLV>
0

>  <SCORE.SYSTEM.norm>
0

>  <SCORE.heavy>
25

>  <SCORE.norm>
-0.902119

>  <RMSD>
16.605

$$$$
1uud_lig
 OpenBabel11021811413D
libRbt.so/2013.1/901 2013/11/27
 25 25  0  0  0  0  0  0  0  0999 V2000
   -3.2053  -10.7725   12.0362 C   0  0  0  0  0  0  0  0  0  0  0  0
   -4.5441   -8.2240   12.5976 O   0  0  0  0  0  0  0  0  0  0  0  0
   -5.5674   -8.9805   13.2616 C   0  0  0  0  0  0  0  0  0  0  0  0
   -2.7612  -12.1227   12.4629 N   0  0  0  0  0  0  0  0  0  0  0  0
   -6.9482   -8.6018   12.7093 C   0  0  0  0  0  0  0  0  0  0  0  0
   -3.5204  -13.1581   11.7225 C   0  0  0  0  0  0  0  0  0  0  0  0
   -4.9561  -13.2220   12.2576 C   0  0  0  0  0  0  0  0  0  0  0  0
   -6.8662   -7.4824   12.0303 N   0  0  0  0  0  0  0  0  0  0  0  0
   -6.6643   -7.4798   10.7260 C   0  0  0  0  0  0  0  0  0  0  0  0
   -5.9192  -13.5887   11.1232 C   0  0  0  0  0  0  0  0  0  0  0  0
   -5.8799  -12.5002   10.0467 C   0  0  0  0  0  0  0  0  0  0  0  0
   -5.8695   -8.4159   10.1239 N   0  0  0  0  0  0  0  0  0  0  0  0
   -7.2584   -6.5248    9.9648 N   0  0  0  0  0  0  0  0  0  0  0  0
   -7.0919  -12.0495    9.8246 N   0  0  0  0  0  0  0  0  0  0  0  0
   -7.4650  -11.6354    8.6289 C   0  0  0  0  0  0  0  0  0  0  0  0
   -7.5609  -10.3023    8.3898 N   0  0  0  0  0  0  0  0  0  0  0  0
   -7.7668  -12.5165    7.6295 N   0  0  0  0  0  0  0  0  0  0  0  0
   -3.2713   -8.4774   13.2061 C   0  0  0  0  0  0  0  0  0  0  0  0
    0.5006   -9.2306   15.0653 O   0  0  0  0  0  0  0  0  0  0  0  0
   -2.5894   -9.7048   12.9641 C   0  0  0  0  0  0  0  0  0  0  0  0
   -1.3393   -9.9560   13.5904 C   0  0  0  0  0  0  0  0  0  0  0  0
   -0.7598   -8.9769   14.4394 C   0  0  0  0  0  0  0  0  0  0  0  0
   -1.4298   -7.7445   14.6659 C   0  0  0  0  0  0  0  0  0  0  0  0
   -2.6823   -7.4903   14.0443 C   0  0  0  0  0  0  0  0  0  0  0  0
    1.2775   -8.0295   15.0824 C   0  0  0  0  0  0  0  0  0  0  0  0
  1  4  1  0  0  0  0
  2  3  1  0  0  0  0
  3  5  1  0  0  0  0
  4  6  1  0  0  0  0
  5  8  1  0  0  0  0
  6  7  1  0  0  0  0
  7 10  1  0  0  0  0
  8  9  1  0  0  0  0
  9 12  1  0  0  0  0
  9 13  1  0  0  0  0
 10 11  1  0  0  0  0
 11 14  1  0  0  0  0
 14 15  1  0  0  0  0
 15 16  1  0  0  0  0
 15 17  1  0  0  0  0
 18  2  1  0  0  0  0
 18 20  2  0  0  0  0
 18 24  1  0  0  0  0
 19 25  1  0  0  0  0
 20  1  1  0  0  0  0
 20 21  1  0  0  0  0
 21 22  2  0  0  0  0
 22 19  1  0  0  0  0
 22 23  1  0  0  0  0
 23 24  2  0  0  0  0
M  END
>  <CHROM.1>
170.71537816,174.14126747,-15.29710356,-73.27290984,92.88938671,147.21213004
-62.26346417,-35.31111684,-47.46356337,44.34124728,-125.13370906,-147.39164765
-103.79521010,-60.79824748,-173.11482193,75.14313181,-150.63671566,141.70003206
-4.47317087,-9.89705766,11.87334949,-0.42054020,0.59421501,-2.88592114

>  <Name>
1uud_lig

>  <RI>
0

>  <Rbt.Current_Directory>
/home/itssahil/PROJECTS/Mol_Feturizer/New_Systems/rnas/1uud

>  <Rbt.Executable>
rbdock ($Id: //depot/dev/client3/rdock/2013.1/src/exe/rbdock.cxx#4 $)

>  <Rbt.Library>
libRbt.so (2013.1, Build901 2013/11/27)

>  <Rbt.Parameter_File>
/export/apps/rDock/src/rDock_2013.1_src/data/scripts/dock_solv.prm

>  <Rbt.Receptor>
prm/blind_docking_20.prm

>  <SCORE>
-22.9252

>  <SCORE.INTER>
-18.2843

>  <SCORE.INTER.CONST>
1

>  <SCORE.INTER.POLAR>
-2.87577

>  <SCORE.INTER.ROT>
18

>  <SCORE.INTER.SOLV>
10.6985

>  <SCORE.INTER.VDW>
-21.7699

>  <SCORE.INTER.norm>
-0.731374

>  <SCORE.INTRA>
-5.00318

>  <SCORE.INTRA.DIHEDRAL>
0.0660878

>  <SCORE.INTRA.DIHEDRAL.0>
30.6762

>  <SCORE.INTRA.POLAR>
-1.31371

>  <SCORE.INTRA.POLAR.0>
-0.0288659

>  <SCORE.INTRA.REPUL>
0

>  <SCORE.INTRA.REPUL.0>
0

>  <SCORE.INTRA.SOLV>
1.25587

>  <SCORE.INTRA.SOLV.lig_0>
-25.2195

>  <SCORE.INTRA.VDW>
-1.19755

>  <SCORE.INTRA.VDW.0>
4.14263

>  <SCORE.INTRA.norm>
-0.200127

>  <SCORE.RESTR>
0.362325

>  <SCORE.RESTR.CAVITY>
0.362325

>  <SCORE.RESTR.norm>
0.014493

>  <SCORE.SYSTEM>
0

>  <SCORE.SYSTEM.CONST>
0

>  <SCORE.SYSTEM.DIHEDRAL>
0

>  <SCORE.SYSTEM.SOLV>
0

>  <SCORE.SYSTEM.norm>
0

>  <SCORE.heavy>
25

>  <SCORE.norm>
-0.917008

>  <RMSD>
16.644

$$$$
1uud_lig
 OpenBabel11021811413D
libRbt.so/2013.1/901 2013/11/27
 25 25  0  0  0  0  0  0  0  0999 V2000
   -3.3982  -10.1506   13.1480 C   0  0  0  0  0  0  0  0  0  0  0  0
   -3.4386   -7.2848   12.5248 O   0  0  0  0  0  0  0  0  0  0  0  0
   -4.6298   -7.4642   13.3054 C   0  0  0  0  0  0  0  0  0  0  0  0
   -2.9651  -11.0098   12.0183 N   0  0  0  0  0  0  0  0  0  0  0  0
   -5.8695   -7.1361   12.4625 C   0  0  0  0  0  0  0  0  0  0  0  0
   -3.7308  -12.2788   12.0305 C   0  0  0  0  0  0  0  0  0  0  0  0
   -4.9910  -12.1257   11.1701 C   0  0  0  0  0  0  0  0  0  0  0  0
   -5.6058   -7.3176   11.1904 N   0  0  0  0  0  0  0  0  0  0  0  0
   -6.5231   -7.7622   10.3521 C   0  0  0  0  0  0  0  0  0  0  0  0
   -4.6750  -12.4858    9.7144 C   0  0  0  0  0  0  0  0  0  0  0  0
   -5.7023  -11.8264    8.7896 C   0  0  0  0  0  0  0  0  0  0  0  0
   -7.2932   -8.8531   10.6480 N   0  0  0  0  0  0  0  0  0  0  0  0
   -6.7055   -7.1225    9.1681 N   0  0  0  0  0  0  0  0  0  0  0  0
   -6.8127  -12.5251    8.7872 N   0  0  0  0  0  0  0  0  0  0  0  0
   -7.9911  -11.9472    8.9201 C   0  0  0  0  0  0  0  0  0  0  0  0
   -9.0024  -12.6337    9.5115 N   0  0  0  0  0  0  0  0  0  0  0  0
   -8.2202  -10.6788    8.4676 N   0  0  0  0  0  0  0  0  0  0  0  0
   -2.3066   -7.8175   13.2243 C   0  0  0  0  0  0  0  0  0  0  0  0
    1.0562   -9.3757   15.3488 O   0  0  0  0  0  0  0  0  0  0  0  0
   -2.2494   -9.2031   13.5513 C   0  0  0  0  0  0  0  0  0  0  0  0
   -1.1338   -9.7168   14.2653 C   0  0  0  0  0  0  0  0  0  0  0  0
   -0.0674   -8.8552   14.6339 C   0  0  0  0  0  0  0  0  0  0  0  0
   -0.1145   -7.4771   14.2911 C   0  0  0  0  0  0  0  0  0  0  0  0
   -1.2303   -6.9581   13.5800 C   0  0  0  0  0  0  0  0  0  0  0  0
    0.9656   -8.9969   16.7254 C   0  0  0  0  0  0  0  0  0  0  0  0
  1  4  1  0  0  0  0
  2  3  1  0  0  0  0
  3  5  1  0  0  0  0
  4  6  1  0  0  0  0
  5  8  1  0  0  0  0
  6  7  1  0  0  0  0
  7 10  1  0  0  0  0
  8  9  1  0  0  0  0
  9 12  1  0  0  0  0
  9 13  1  0  0  0  0
 10 11  1  0  0  0  0
 11 14  1  0  0  0  0
 14 15  1  0  0  0  0
 15 16  1  0  0  0  0
 15 17  1  0  0  0  0
 18  2  1  0  0  0  0
 18 20  2  0  0  0  0
 18 24  1  0  0  0  0
 19 25  1  0  0  0  0
 20  1  1  0  0  0  0
 20 21  1  0  0  0  0
 21 22  2  0  0  0  0
 22 19  1  0  0  0  0
 22 23  1  0  0  0  0
 23 24  2  0  0  0  0
M  END
>  <CHROM.1>
153.70810117,-169.59588864,25.81021478,91.04860483,145.46971810,88.26214362
-157.58231563,-48.04986444,-59.68813698,-137.43493500,-79.53492255,133.25967550
-149.90357046,-77.77224347,65.81210793,61.52120771,106.39609189,-103.87286907
-4.19986541,-9.58896499,11.84153825,-0.39255582,0.61072158,-2.94000779

>  <Name>
1uud_lig

>  <RI>
0

>  <Rbt.Current_Directory>
/home/itssahil/PROJECTS/Mol_Feturizer/New_Systems/rnas/1uud

>  <Rbt.Executable>
rbdock ($Id: //depot/dev/client3/rdock/2013.1/src/exe/rbdock.cxx#4 $)

>  <Rbt.Library>
libRbt.so (2013.1, Build901 2013/11/27)

>  <Rbt.Parameter_File>
/export/apps/rDock/src/rDock_2013.1_src/data/scripts/dock_solv.prm

>  <Rbt.Receptor>
prm/blind_docking_20.prm

>  <SCORE>
-24.6365

>  <SCORE.INTER>
-19.4673

>  <SCORE.INTER.CONST>
1

>  <SCORE.INTER.POLAR>
-2.70277

>  <SCORE.INTER.ROT>
18

>  <SCORE.INTER.SOLV>
10.0011

>  <SCORE.INTER.VDW>
-22.9027

>  <SCORE.INTER.norm>
-0.778693

>  <SCORE.INTRA>
-6.08113

>  <SCORE.INTRA.DIHEDRAL>
0.767693

>  <SCORE.INTRA.DIHEDRAL.0>
30.6762

>  <SCORE.INTRA.POLAR>
-0.775568

>  <SCORE.INTRA.POLAR.0>
-0.0288659

>  <SCORE.INTRA.REPUL>
0

>  <SCORE.INTRA.REPUL.0>
0

>  <SCORE.INTRA.SOLV>
0.983091

>  <SCORE.INTRA.SOLV.lig_0>
-25.2195

>  <SCORE.INTRA.VDW>
-4.31959

>  <SCORE.INTRA.VDW.0>
4.14263

>  <SCORE.INTRA.norm>
-0.243245

>  <SCORE.RESTR>
0.91191

>  <SCORE.RESTR.CAVITY>
0.91191

>  <SCORE.RESTR.norm>
0.0364764

>  <SCORE.SYSTEM>
0

>  <SCORE.SYSTEM.CONST>
0

>  <SCORE.SYSTEM.DIHEDRAL>
0

>  <SCORE.SYSTEM.SOLV>
0

>  <SCORE.SYSTEM.norm>
0

>  <SCORE.heavy>
25

>  <SCORE.norm>
-0.985462

>  <RMSD>
16.698

$$$$
1uud_lig
 OpenBabel11021811413D
libRbt.so/2013.1/901 2013/11/27
 25 25  0  0  0  0  0  0  0  0999 V2000
   -2.3174  -11.0751   12.4881 C   0  0  0  0  0  0  0  0  0  0  0  0
   -1.5778   -8.6970   14.0374 O   0  0  0  0  0  0  0  0  0  0  0  0
   -2.0310   -8.3419   15.3522 C   0  0  0  0  0  0  0  0  0  0  0  0
   -3.0370  -11.9148   13.4777 N   0  0  0  0  0  0  0  0  0  0  0  0
   -0.9250   -8.6066   16.3828 C   0  0  0  0  0  0  0  0  0  0  0  0
   -4.4503  -12.0798   13.0628 C   0  0  0  0  0  0  0  0  0  0  0  0
   -4.5248  -13.0331   11.8639 C   0  0  0  0  0  0  0  0  0  0  0  0
   -0.0240   -7.6550   16.3256 N   0  0  0  0  0  0  0  0  0  0  0  0
    1.1000   -7.8086   15.6509 C   0  0  0  0  0  0  0  0  0  0  0  0
   -5.9896  -13.3113   11.5095 C   0  0  0  0  0  0  0  0  0  0  0  0
   -6.4220  -12.3930   10.3628 C   0  0  0  0  0  0  0  0  0  0  0  0
    1.7318   -9.0196   15.5810 N   0  0  0  0  0  0  0  0  0  0  0  0
    1.6420   -6.7393   15.0129 N   0  0  0  0  0  0  0  0  0  0  0  0
   -5.9754  -12.8637    9.2226 N   0  0  0  0  0  0  0  0  0  0  0  0
   -5.8419  -12.0902    8.1623 C   0  0  0  0  0  0  0  0  0  0  0  0
   -4.5972  -11.7235    7.7625 N   0  0  0  0  0  0  0  0  0  0  0  0
   -6.9268  -11.6415    7.4639 N   0  0  0  0  0  0  0  0  0  0  0  0
   -2.6576   -8.5952   13.1003 C   0  0  0  0  0  0  0  0  0  0  0  0
   -5.8496   -8.2576   10.2810 O   0  0  0  0  0  0  0  0  0  0  0  0
   -3.0456   -9.7250   12.3238 C   0  0  0  0  0  0  0  0  0  0  0  0
   -4.1018   -9.6075   11.3810 C   0  0  0  0  0  0  0  0  0  0  0  0
   -4.7841   -8.3720   11.2278 C   0  0  0  0  0  0  0  0  0  0  0  0
   -4.4108   -7.2500   12.0156 C   0  0  0  0  0  0  0  0  0  0  0  0
   -3.3523   -7.3620   12.9576 C   0  0  0  0  0  0  0  0  0  0  0  0
   -5.3482   -7.7070    9.0596 C   0  0  0  0  0  0  0  0  0  0  0  0
  1  4  1  0  0  0  0
  2  3  1  0  0  0  0
  3  5  1  0  0  0  0
  4  6  1  0  0  0  0
  5  8  1  0  0  0  0
  6  7  1  0  0  0  0
  7 10  1  0  0  0  0
  8  9  1  0  0  0  0
  9 12  1  0  0  0  0
  9 13  1  0  0  0  0
 10 11  1  0  0  0  0
 11 14  1  0  0  0  0
 14 15  1  0  0  0  0
 15 16  1  0  0  0  0
 15 17  1  0  0  0  0
 18  2  1  0  0  0  0
 18 20  2  0  0  0  0
 18 24  1  0  0  0  0
 19 25  1  0  0  0  0
 20  1  1  0  0  0  0
 20 21  1  0  0  0  0
 21 22  2  0  0  0  0
 22 19  1  0  0  0  0
 22 23  1  0  0  0  0
 23 24  2  0  0  0  0
M  END
>  <CHROM.1>
55.88758714,173.40281855,77.24492306,72.99747178,-98.06466033,174.80977697
97.30404957,-34.91261713,-20.84145177,-67.52128810,78.76787290,-158.75602943
106.88480553,2.38745054,70.94015396,-122.53491283,93.26463349,-96.43139168
-3.31887748,-9.85697510,12.22852456,-0.24640051,0.84892736,2.93790511

>  <Name>
1uud_lig

>  <RI>
0

>  <Rbt.Current_Directory>
/home/itssahil/PROJECTS/Mol_Feturizer/New_Systems/rnas/1uud

>  <Rbt.Executable>
rbdock ($Id: //depot/dev/client3/rdock/2013.1/src/exe/rbdock.cxx#4 $)

>  <Rbt.Library>
libRbt.so (2013.1, Build901 2013/11/27)

>  <Rbt.Parameter_File>
/export/apps/rDock/src/rDock_2013.1_src/data/scripts/dock_solv.prm

>  <Rbt.Receptor>
prm/blind_docking_40.prm

>  <SCORE>
-40.5001

>  <SCORE.INTER>
-34.44

>  <SCORE.INTER.CONST>
1

>  <SCORE.INTER.POLAR>
-5.53248

>  <SCORE.INTER.ROT>
18

>  <SCORE.INTER.SOLV>
11.7311

>  <SCORE.INTER.VDW>
-24.0288

>  <SCORE.INTER.norm>
-1.3776

>  <SCORE.INTRA>
-6.31269

>  <SCORE.INTRA.DIHEDRAL>
-4.98098

>  <SCORE.INTRA.DIHEDRAL.0>
30.6762

>  <SCORE.INTRA.POLAR>
0.0288659

>  <SCORE.INTRA.POLAR.0>
-0.0288659

>  <SCORE.INTRA.REPUL>
0

>  <SCORE.INTRA.REPUL.0>
0

>  <SCORE.INTRA.SOLV>
-0.4452

>  <SCORE.INTRA.SOLV.lig_0>
-25.2195

>  <SCORE.INTRA.VDW>
-3.69774

>  <SCORE.INTRA.VDW.0>
4.14263

>  <SCORE.INTRA.norm>
-0.252507

>  <SCORE.RESTR>
0.252677

>  <SCORE.RESTR.CAVITY>
0.252677

>  <SCORE.RESTR.norm>
0.0101071

>  <SCORE.SYSTEM>
0

>  <SCORE.SYSTEM.CONST>
0

>  <SCORE.SYSTEM.DIHEDRAL>
0

>  <SCORE.SYSTEM.SOLV>
0

>  <SCORE.SYSTEM.norm>
0

>  <SCORE.heavy>
25

>  <SCORE.norm>
-1.62

>  <RMSD>
16.704

$$$$
1uud_lig
 OpenBabel11021811413D
libRbt.so/2013.1/901 2013/11/27
 25 25  0  0  0  0  0  0  0  0999 V2000
   -1.8179  -11.0207   12.4444 C   0  0  0  0  0  0  0  0  0  0  0  0
   -2.3737   -9.0733   14.5660 O   0  0  0  0  0  0  0  0  0  0  0  0
   -2.6015   -7.8897   15.3454 C   0  0  0  0  0  0  0  0  0  0  0  0
   -2.3141  -12.2072   13.1848 N   0  0  0  0  0  0  0  0  0  0  0  0
   -1.3250   -7.5013   16.1036 C   0  0  0  0  0  0  0  0  0  0  0  0
   -3.6792  -12.5527   12.7223 C   0  0  0  0  0  0  0  0  0  0  0  0
   -3.6045  -13.1732   11.3219 C   0  0  0  0  0  0  0  0  0  0  0  0
   -0.4385   -7.0165   15.2670 N   0  0  0  0  0  0  0  0  0  0  0  0
    0.8376   -6.9238   15.5909 C   0  0  0  0  0  0  0  0  0  0  0  0
   -5.0111  -13.2775   10.7225 C   0  0  0  0  0  0  0  0  0  0  0  0
   -5.0970  -12.4084    9.4645 C   0  0  0  0  0  0  0  0  0  0  0  0
    1.7196   -7.9325   15.3169 N   0  0  0  0  0  0  0  0  0  0  0  0
    1.2845   -5.8017   16.2117 N   0  0  0  0  0  0  0  0  0  0  0  0
   -6.3537  -12.1701    9.1727 N   0  0  0  0  0  0  0  0  0  0  0  0
   -6.8330  -12.3844    7.9624 C   0  0  0  0  0  0  0  0  0  0  0  0
   -7.5939  -11.4271    7.3724 N   0  0  0  0  0  0  0  0  0  0  0  0
   -6.5900  -13.5505    7.2937 N   0  0  0  0  0  0  0  0  0  0  0  0
   -3.1834   -9.0475   13.3835 C   0  0  0  0  0  0  0  0  0  0  0  0
   -5.5800   -8.9239    9.8492 O   0  0  0  0  0  0  0  0  0  0  0  0
   -2.9437   -9.9725   12.3267 C   0  0  0  0  0  0  0  0  0  0  0  0
   -3.7367   -9.9235   11.1490 C   0  0  0  0  0  0  0  0  0  0  0  0
   -4.7807   -8.9683   11.0339 C   0  0  0  0  0  0  0  0  0  0  0  0
   -5.0332   -8.0582   12.0954 C   0  0  0  0  0  0  0  0  0  0  0  0
   -4.2400   -8.1012   13.2740 C   0  0  0  0  0  0  0  0  0  0  0  0
   -4.9683   -8.0558    8.8906 C   0  0  0  0  0  0  0  0  0  0  0  0
  1  4  1  0  0  0  0
  2  3  1  0  0  0  0
  3  5  1  0  0  0  0
  4  6  1  0  0  0  0
  5  8  1  0  0  0  0
  6  7  1  0  0  0  0
  7 10  1  0  0  0  0
  8  9  1  0  0  0  0
  9 12  1  0  0  0  0
  9 13  1  0  0  0  0
 10 11  1  0  0  0  0
 11 14  1  0  0  0  0
 14 15  1  0  0  0  0
 15 16  1  0  0  0  0
 15 17  1  0  0  0  0
 18  2  1  0  0  0  0
 18 20  2  0  0  0  0
 18 24  1  0  0  0  0
 19 25  1  0  0  0  0
 20  1  1  0  0  0  0
 20 21  1  0  0  0  0
 21 22  2  0  0  0  0
 22 19  1  0  0  0  0
 22 23  1  0  0  0  0
 23 24  2  0  0  0  0
M  END
>  <CHROM.1>
42.62288497,-148.84569655,72.43785783,72.83446156,-162.69352482,-168.84734205
117.12880723,91.40156441,-151.91887495,-157.48468402,-161.42232701,-128.97121222
-132.89920006,-171.08122919,10.03969652,167.50580666,84.45528896,-88.66319808
-3.43013729,-9.90698937,12.06809422,-0.57511843,0.79030502,-3.00643091

>  <Name>
1uud_lig

>  <RI>
0

>  <Rbt.Current_Directory>
/home/itssahil/PROJECTS/Mol_Feturizer/New_Systems/rnas/1uud

>  <Rbt.Executable>
rbdock ($Id: //depot/dev/client3/rdock/2013.1/src/exe/rbdock.cxx#4 $)

>  <Rbt.Library>
libRbt.so (2013.1, Build901 2013/11/27)

>  <Rbt.Parameter_File>
/export/apps/rDock/src/rDock_2013.1_src/data/scripts/dock_solv.prm

>  <Rbt.Receptor>
prm/blind_docking_80.prm

>  <SCORE>
-34.6714

>  <SCORE.INTER>
-34.5997

>  <SCORE.INTER.CONST>
1

>  <SCORE.INTER.POLAR>
-5.06243

>  <SCORE.INTER.ROT>
18

>  <SCORE.INTER.SOLV>
13.338

>  <SCORE.INTER.VDW>
-26.2377

>  <SCORE.INTER.norm>
-1.38399

>  <SCORE.INTRA>
-1.22298

>  <SCORE.INTRA.DIHEDRAL>
-2.07853

>  <SCORE.INTRA.DIHEDRAL.0>
30.6762

>  <SCORE.INTRA.POLAR>
0.0288659

>  <SCORE.INTRA.POLAR.0>
-0.0288659

>  <SCORE.INTRA.REPUL>
0

>  <SCORE.INTRA.REPUL.0>
0

>  <SCORE.INTRA.SOLV>
-0.511029

>  <SCORE.INTRA.SOLV.lig_0>
-25.2195

>  <SCORE.INTRA.VDW>
-0.0263458

>  <SCORE.INTRA.VDW.0>
4.14263

>  <SCORE.INTRA.norm>
-0.0489192

>  <SCORE.RESTR>
1.15126

>  <SCORE.RESTR.CAVITY>
1.15126

>  <SCORE.RESTR.norm>
0.0460505

>  <SCORE.SYSTEM>
0

>  <SCORE.SYSTEM.CONST>
0

>  <SCORE.SYSTEM.DIHEDRAL>
0

>  <SCORE.SYSTEM.SOLV>
0

>  <SCORE.SYSTEM.norm>
0

>  <SCORE.heavy>
25

>  <SCORE.norm>
-1.38686

>  <RMSD>
16.707

$$$$
1uud_lig
 OpenBabel11021811413D
libRbt.so/2013.1/901 2013/11/27
 25 25  0  0  0  0  0  0  0  0999 V2000
   -2.5218  -11.7481   12.5471 C   0  0  0  0  0  0  0  0  0  0  0  0
   -4.6105   -9.6899   12.6078 O   0  0  0  0  0  0  0  0  0  0  0  0
   -5.6374   -9.1093   13.4255 C   0  0  0  0  0  0  0  0  0  0  0  0
   -3.7766  -12.3115   13.1042 N   0  0  0  0  0  0  0  0  0  0  0  0
   -6.8837   -8.8141   12.5801 C   0  0  0  0  0  0  0  0  0  0  0  0
   -4.6252  -12.8303   12.0054 C   0  0  0  0  0  0  0  0  0  0  0  0
   -6.0132  -13.1844   12.5529 C   0  0  0  0  0  0  0  0  0  0  0  0
   -6.6314   -7.8418   11.7365 N   0  0  0  0  0  0  0  0  0  0  0  0
   -6.2074   -8.0846   10.5105 C   0  0  0  0  0  0  0  0  0  0  0  0
   -6.9064  -13.6958   11.4174 C   0  0  0  0  0  0  0  0  0  0  0  0
   -7.1189  -12.5793   10.3911 C   0  0  0  0  0  0  0  0  0  0  0  0
   -6.7895   -9.0453    9.7301 N   0  0  0  0  0  0  0  0  0  0  0  0
   -5.1686   -7.3651   10.0131 N   0  0  0  0  0  0  0  0  0  0  0  0
   -7.5296  -13.0909    9.2549 N   0  0  0  0  0  0  0  0  0  0  0  0
   -8.2733  -12.3966    8.4151 C   0  0  0  0  0  0  0  0  0  0  0  0
   -7.6738  -11.7279    7.3968 N   0  0  0  0  0  0  0  0  0  0  0  0
   -9.6307  -12.3267    8.5523 N   0  0  0  0  0  0  0  0  0  0  0  0
   -3.3183   -9.3699   13.1391 C   0  0  0  0  0  0  0  0  0  0  0  0
    0.5124   -8.4095   14.7682 O   0  0  0  0  0  0  0  0  0  0  0  0
   -2.2770  -10.3424   13.1338 C   0  0  0  0  0  0  0  0  0  0  0  0
   -1.0067  -10.0230   13.6839 C   0  0  0  0  0  0  0  0  0  0  0  0
   -0.7683   -8.7297   14.2188 C   0  0  0  0  0  0  0  0  0  0  0  0
   -1.8001   -7.7529   14.2068 C   0  0  0  0  0  0  0  0  0  0  0  0
   -3.0736   -8.0692   13.6607 C   0  0  0  0  0  0  0  0  0  0  0  0
    0.5990   -8.9101   16.1055 C   0  0  0  0  0  0  0  0  0  0  0  0
  1  4  1  0  0  0  0
  2  3  1  0  0  0  0
  3  5  1  0  0  0  0
  4  6  1  0  0  0  0
  5  8  1  0  0  0  0
  6  7  1  0  0  0  0
  7 10  1  0  0  0  0
  8  9  1  0  0  0  0
  9 12  1  0  0  0  0
  9 13  1  0  0  0  0
 10 11  1  0  0  0  0
 11 14  1  0  0  0  0
 14 15  1  0  0  0  0
 15 16  1  0  0  0  0
 15 17  1  0  0  0  0
 18  2  1  0  0  0  0
 18 20  2  0  0  0  0
 18 24  1  0  0  0  0
 19 25  1  0  0  0  0
 20  1  1  0  0  0  0
 20 21  1  0  0  0  0
 21 22  2  0  0  0  0
 22 19  1  0  0  0  0
 22 23  1  0  0  0  0
 23 24  2  0  0  0  0
M  END
>  <CHROM.1>
130.69361965,151.53439821,-68.62256462,-170.17992090,92.67356199,178.88218415
-63.48566282,45.57511724,148.24996354,36.13713110,161.50756347,152.46743362
94.95940058,-55.59661152,77.97106714,140.73239145,-49.08466565,-81.29243485
-4.76140874,-10.31582792,11.89835678,-0.31934103,0.65371961,3.11228247

>  <Name>
1uud_lig

>  <RI>
0

>  <Rbt.Current_Directory>
/home/itssahil/PROJECTS/Mol_Feturizer/New_Systems/rnas/1uud

>  <Rbt.Executable>
rbdock ($Id: //depot/dev/client3/rdock/2013.1/src/exe/rbdock.cxx#4 $)

>  <Rbt.Library>
libRbt.so (2013.1, Build901 2013/11/27)

>  <Rbt.Parameter_File>
/export/apps/rDock/src/rDock_2013.1_src/data/scripts/dock_solv.prm

>  <Rbt.Receptor>
prm/blind_docking_20.prm

>  <SCORE>
-34.7844

>  <SCORE.INTER>
-28.0363

>  <SCORE.INTER.CONST>
1

>  <SCORE.INTER.POLAR>
-4.63017

>  <SCORE.INTER.ROT>
18

>  <SCORE.INTER.SOLV>
8.59344

>  <SCORE.INTER.VDW>
-21.7214

>  <SCORE.INTER.norm>
-1.12145

>  <SCORE.INTRA>
-6.90192

>  <SCORE.INTRA.DIHEDRAL>
-5.33229

>  <SCORE.INTRA.DIHEDRAL.0>
30.6762

>  <SCORE.INTRA.POLAR>
-0.0946394

>  <SCORE.INTRA.POLAR.0>
-0.0288659

>  <SCORE.INTRA.REPUL>
0

>  <SCORE.INTRA.REPUL.0>
0

>  <SCORE.INTRA.SOLV>
0.751595

>  <SCORE.INTRA.SOLV.lig_0>
-25.2195

>  <SCORE.INTRA.VDW>
-4.2898

>  <SCORE.INTRA.VDW.0>
4.14263

>  <SCORE.INTRA.norm>
-0.276077

>  <SCORE.RESTR>
0.153794

>  <SCORE.RESTR.CAVITY>
0.153794

>  <SCORE.RESTR.norm>
0.00615178

>  <SCORE.SYSTEM>
0

>  <SCORE.SYSTEM.CONST>
0

>  <SCORE.SYSTEM.DIHEDRAL>
0

>  <SCORE.SYSTEM.SOLV>
0

>  <SCORE.SYSTEM.norm>
0

>  <SCORE.heavy>
25

>  <SCORE.norm>
-1.39138

>  <RMSD>
16.721

$$$$
1uud_lig
 OpenBabel11021811413D
libRbt.so/2013.1/901 2013/11/27
 25 25  0  0  0  0  0  0  0  0999 V2000
   -1.6496  -11.6054   13.0052 C   0  0  0  0  0  0  0  0  0  0  0  0
   -3.2519   -9.2225   12.4077 O   0  0  0  0  0  0  0  0  0  0  0  0
   -4.3771   -8.5038   12.9347 C   0  0  0  0  0  0  0  0  0  0  0  0
   -3.1153  -11.7368   12.8136 N   0  0  0  0  0  0  0  0  0  0  0  0
   -4.7203   -7.3166   12.0248 C   0  0  0  0  0  0  0  0  0  0  0  0
   -3.4008  -12.8390   11.8648 C   0  0  0  0  0  0  0  0  0  0  0  0
   -4.7770  -12.6210   11.2245 C   0  0  0  0  0  0  0  0  0  0  0  0
   -4.9545   -7.7410   10.8059 N   0  0  0  0  0  0  0  0  0  0  0  0
   -6.1845   -7.8816   10.3485 C   0  0  0  0  0  0  0  0  0  0  0  0
   -4.6367  -12.5460    9.7002 C   0  0  0  0  0  0  0  0  0  0  0  0
   -5.5205  -11.4180    9.1599 C   0  0  0  0  0  0  0  0  0  0  0  0
   -6.7250   -6.9885    9.4649 N   0  0  0  0  0  0  0  0  0  0  0  0
   -6.9309   -8.9366   10.7661 N   0  0  0  0  0  0  0  0  0  0  0  0
   -6.7852  -11.7391    9.2959 N   0  0  0  0  0  0  0  0  0  0  0  0
   -7.4965  -12.1849    8.2781 C   0  0  0  0  0  0  0  0  0  0  0  0
   -7.8180  -13.5029    8.2217 N   0  0  0  0  0  0  0  0  0  0  0  0
   -7.9080  -11.3537    7.2752 N   0  0  0  0  0  0  0  0  0  0  0  0
   -2.1270   -9.0887   13.2858 C   0  0  0  0  0  0  0  0  0  0  0  0
    1.1947   -8.6762   15.9404 O   0  0  0  0  0  0  0  0  0  0  0  0
   -1.3254  -10.2221   13.6064 C   0  0  0  0  0  0  0  0  0  0  0  0
   -0.2265  -10.0836   14.4961 C   0  0  0  0  0  0  0  0  0  0  0  0
    0.0856   -8.8136   15.0484 C   0  0  0  0  0  0  0  0  0  0  0  0
   -0.7014   -7.6788   14.7140 C   0  0  0  0  0  0  0  0  0  0  0  0
   -1.8039   -7.8134   13.8271 C   0  0  0  0  0  0  0  0  0  0  0  0
    0.7832   -9.0045   17.2706 C   0  0  0  0  0  0  0  0  0  0  0  0
  1  4  1  0  0  0  0
  2  3  1  0  0  0  0
  3  5  1  0  0  0  0
  4  6  1  0  0  0  0
  5  8  1  0  0  0  0
  6  7  1  0  0  0  0
  7 10  1  0  0  0  0
  8  9  1  0  0  0  0
  9 12  1  0  0  0  0
  9 13  1  0  0  0  0
 10 11  1  0  0  0  0
 11 14  1  0  0  0  0
 14 15  1  0  0  0  0
 15 16  1  0  0  0  0
 15 17  1  0  0  0  0
 18  2  1  0  0  0  0
 18 20  2  0  0  0  0
 18 24  1  0  0  0  0
 19 25  1  0  0  0  0
 20  1  1  0  0  0  0
 20 21  1  0  0  0  0
 21 22  2  0  0  0  0
 22 19  1  0  0  0  0
 22 23  1  0  0  0  0
 23 24  2  0  0  0  0
M  END
>  <CHROM.1>
162.02768006,113.25903209,56.98885715,-156.70395737,101.03670096,121.94824514
-137.77162944,104.86076001,-161.28261077,-96.59692782,-69.06770779,-101.28925857
106.11980893,129.28776436,-8.99115783,136.01757981,-32.34170728,-84.79912592
-3.87693771,-10.00195888,11.83760072,-0.37457485,0.70461607,-2.94082748

>  <Name>
1uud_lig

>  <RI>
0

>  <Rbt.Current_Directory>
/home/itssahil/PROJECTS/Mol_Feturizer/New_Systems/rnas/1uud

>  <Rbt.Executable>
rbdock ($Id: //depot/dev/client3/rdock/2013.1/src/exe/rbdock.cxx#4 $)

>  <Rbt.Library>
libRbt.so (2013.1, Build901 2013/11/27)

>  <Rbt.Parameter_File>
/export/apps/rDock/src/rDock_2013.1_src/data/scripts/dock_solv.prm

>  <Rbt.Receptor>
prm/blind_docking_40.prm

>  <SCORE>
-29.0019

>  <SCORE.INTER>
-21.8867

>  <SCORE.INTER.CONST>
1

>  <SCORE.INTER.POLAR>
-2.37698

>  <SCORE.INTER.ROT>
18

>  <SCORE.INTER.SOLV>
9.91213

>  <SCORE.INTER.VDW>
-25.5719

>  <SCORE.INTER.norm>
-0.875469

>  <SCORE.INTRA>
-7.16782

>  <SCORE.INTRA.DIHEDRAL>
6.36869

>  <SCORE.INTRA.DIHEDRAL.0>
30.6762

>  <SCORE.INTRA.POLAR>
-1.82066

>  <SCORE.INTRA.POLAR.0>
-0.0288659

>  <SCORE.INTRA.REPUL>
0.00516338

>  <SCORE.INTRA.REPUL.0>
0

>  <SCORE.INTRA.SOLV>
1.06228

>  <SCORE.INTRA.SOLV.lig_0>
-25.2195

>  <SCORE.INTRA.VDW>
-4.71887

>  <SCORE.INTRA.VDW.0>
4.14263

>  <SCORE.INTRA.norm>
-0.286713

>  <SCORE.RESTR>
0.0526765

>  <SCORE.RESTR.CAVITY>
0.0526765

>  <SCORE.RESTR.norm>
0.00210706

>  <SCORE.SYSTEM>
0

>  <SCORE.SYSTEM.CONST>
0

>  <SCORE.SYSTEM.DIHEDRAL>
0

>  <SCORE.SYSTEM.SOLV>
0

>  <SCORE.SYSTEM.norm>
0

>  <SCORE.heavy>
25

>  <SCORE.norm>
-1.16008

>  <RMSD>
16.726

$$$$
1uud_lig
 OpenBabel11021811413D
libRbt.so/2013.1/901 2013/11/27
 25 25  0  0  0  0  0  0  0  0999 V2000
   -3.4197  -11.3411   12.9267 C   0  0  0  0  0  0  0  0  0  0  0  0
   -3.4199   -8.4878   13.6060 O   0  0  0  0  0  0  0  0  0  0  0  0
   -2.6323   -7.2911   13.5178 C   0  0  0  0  0  0  0  0  0  0  0  0
   -4.2532  -12.5575   12.7597 N   0  0  0  0  0  0  0  0  0  0  0  0
   -1.1788   -7.5836   13.9140 C   0  0  0  0  0  0  0  0  0  0  0  0
   -5.6599  -12.2548   13.1151 C   0  0  0  0  0  0  0  0  0  0  0  0
   -6.4679  -13.5572   13.1651 C   0  0  0  0  0  0  0  0  0  0  0  0
   -1.0241   -7.4105   15.2051 N   0  0  0  0  0  0  0  0  0  0  0  0
    0.1718   -7.4148   15.7635 C   0  0  0  0  0  0  0  0  0  0  0  0
   -6.8428  -13.9929   11.7445 C   0  0  0  0  0  0  0  0  0  0  0  0
   -8.3481  -13.8075   11.5329 C   0  0  0  0  0  0  0  0  0  0  0  0
    0.3663   -7.8859   17.0327 N   0  0  0  0  0  0  0  0  0  0  0  0
    1.2330   -6.9392   15.0622 N   0  0  0  0  0  0  0  0  0  0  0  0
   -8.7637  -14.5988   10.5725 N   0  0  0  0  0  0  0  0  0  0  0  0
   -9.0339  -14.1365    9.3668 C   0  0  0  0  0  0  0  0  0  0  0  0
  -10.3133  -14.1762    8.9137 N   0  0  0  0  0  0  0  0  0  0  0  0
   -8.0553  -13.6287    8.5602 N   0  0  0  0  0  0  0  0  0  0  0  0
   -3.8655   -8.8812   12.3017 C   0  0  0  0  0  0  0  0  0  0  0  0
   -5.1555  -10.0276    8.3938 O   0  0  0  0  0  0  0  0  0  0  0  0
   -3.8764  -10.2564   11.9292 C   0  0  0  0  0  0  0  0  0  0  0  0
   -4.2978  -10.6339   10.6261 C   0  0  0  0  0  0  0  0  0  0  0  0
   -4.7279   -9.6445    9.7033 C   0  0  0  0  0  0  0  0  0  0  0  0
   -4.7359   -8.2746   10.0805 C   0  0  0  0  0  0  0  0  0  0  0  0
   -4.3118   -7.8920   11.3819 C   0  0  0  0  0  0  0  0  0  0  0  0
   -6.2747  -10.9129    8.4950 C   0  0  0  0  0  0  0  0  0  0  0  0
  1  4  1  0  0  0  0
  2  3  1  0  0  0  0
  3  5  1  0  0  0  0
  4  6  1  0  0  0  0
  5  8  1  0  0  0  0
  6  7  1  0  0  0  0
  7 10  1  0  0  0  0
  8  9  1  0  0  0  0
  9 12  1  0  0  0  0
  9 13  1  0  0  0  0
 10 11  1  0  0  0  0
 11 14  1  0  0  0  0
 14 15  1  0  0  0  0
 15 16  1  0  0  0  0
 15 17  1  0  0  0  0
 18  2  1  0  0  0  0
 18 20  2  0  0  0  0
 18 24  1  0  0  0  0
 19 25  1  0  0  0  0
 20  1  1  0  0  0  0
 20 21  1  0  0  0  0
 21 22  2  0  0  0  0
 22 19  1  0  0  0  0
 22 23  1  0  0  0  0
 23 24  2  0  0  0  0
M  END
>  <CHROM.1>
-64.32661852,-114.00268607,-89.78792779,-170.73246204,-170.26459857,-79.47658505
-109.57045332,-147.27551496,-122.58734274,-163.90272254,-156.67625451,-103.89755627
-114.23302155,37.89523105,41.38131071,139.82705460,143.68950440,60.06314819
-4.59660683,-10.57950622,12.00319527,0.03844695,0.80434701,2.21717314

>  <Name>
1uud_lig

>  <RI>
0

>  <Rbt.Current_Directory>
/home/itssahil/PROJECTS/Mol_Feturizer/New_Systems/rnas/1uud

>  <Rbt.Executable>
rbdock ($Id: //depot/dev/client3/rdock/2013.1/src/exe/rbdock.cxx#4 $)

>  <Rbt.Library>
libRbt.so (2013.1, Build901 2013/11/27)

>  <Rbt.Parameter_File>
/export/apps/rDock/src/rDock_2013.1_src/data/scripts/dock_solv.prm

>  <Rbt.Receptor>
prm/blind_docking_80.prm

>  <SCORE>
-32.412

>  <SCORE.INTER>
-32.4434

>  <SCORE.INTER.CONST>
1

>  <SCORE.INTER.POLAR>
-5.65937

>  <SCORE.INTER.ROT>
18

>  <SCORE.INTER.SOLV>
10.7008

>  <SCORE.INTER.VDW>
-21.9313

>  <SCORE.INTER.norm>
-1.29774

>  <SCORE.INTRA>
-0.0999118

>  <SCORE.INTRA.DIHEDRAL>
4.08975

>  <SCORE.INTRA.DIHEDRAL.0>
30.6762

>  <SCORE.INTRA.POLAR>
0.0288659

>  <SCORE.INTRA.POLAR.0>
-0.0288659

>  <SCORE.INTRA.REPUL>
0

>  <SCORE.INTRA.REPUL.0>
0

>  <SCORE.INTRA.SOLV>
-1.06429

>  <SCORE.INTRA.SOLV.lig_0>
-25.2195

>  <SCORE.INTRA.VDW>
-1.71079

>  <SCORE.INTRA.VDW.0>
4.14263

>  <SCORE.INTRA.norm>
-0.00399647

>  <SCORE.RESTR>
0.131305

>  <SCORE.RESTR.CAVITY>
0.131305

>  <SCORE.RESTR.norm>
0.0052522

>  <SCORE.SYSTEM>
0

>  <SCORE.SYSTEM.CONST>
0

>  <SCORE.SYSTEM.DIHEDRAL>
0

>  <SCORE.SYSTEM.SOLV>
0

>  <SCORE.SYSTEM.norm>
0

>  <SCORE.heavy>
25

>  <SCORE.norm>
-1.29648

>  <RMSD>
16.731

$$$$
1uud_lig
 OpenBabel11021811413D
libRbt.so/2013.1/901 2013/11/27
 25 25  0  0  0  0  0  0  0  0999 V2000
   -1.6814  -11.7331   13.0325 C   0  0  0  0  0  0  0  0  0  0  0  0
   -3.4358   -9.4859   12.3434 O   0  0  0  0  0  0  0  0  0  0  0  0
   -4.6536   -9.0645   12.9756 C   0  0  0  0  0  0  0  0  0  0  0  0
   -2.9373  -12.2842   13.5991 N   0  0  0  0  0  0  0  0  0  0  0  0
   -4.9799   -7.6169   12.5842 C   0  0  0  0  0  0  0  0  0  0  0  0
   -3.9919  -12.3034   12.5579 C   0  0  0  0  0  0  0  0  0  0  0  0
   -3.5514  -13.2052   11.3984 C   0  0  0  0  0  0  0  0  0  0  0  0
   -5.0979   -7.5222   11.2811 N   0  0  0  0  0  0  0  0  0  0  0  0
   -6.2591   -7.6977   10.6789 C   0  0  0  0  0  0  0  0  0  0  0  0
   -4.6327  -13.2235   10.3125 C   0  0  0  0  0  0  0  0  0  0  0  0
   -4.7429  -11.8347    9.6767 C   0  0  0  0  0  0  0  0  0  0  0  0
   -6.8958   -6.6693   10.0403 N   0  0  0  0  0  0  0  0  0  0  0  0
   -6.8355   -8.9273   10.6948 N   0  0  0  0  0  0  0  0  0  0  0  0
   -5.2297  -11.9379    8.4628 N   0  0  0  0  0  0  0  0  0  0  0  0
   -6.4952  -12.2449    8.2514 C   0  0  0  0  0  0  0  0  0  0  0  0
   -6.7960  -13.3030    7.4554 N   0  0  0  0  0  0  0  0  0  0  0  0
   -7.5095  -11.5172    8.8063 N   0  0  0  0  0  0  0  0  0  0  0  0
   -2.3210   -9.2432   13.2111 C   0  0  0  0  0  0  0  0  0  0  0  0
    0.9695   -8.5067   15.8341 O   0  0  0  0  0  0  0  0  0  0  0  0
   -1.4471  -10.3080   13.5751 C   0  0  0  0  0  0  0  0  0  0  0  0
   -0.3587  -10.0618   14.4543 C   0  0  0  0  0  0  0  0  0  0  0  0
   -0.1292   -8.7525   14.9527 C   0  0  0  0  0  0  0  0  0  0  0  0
   -0.9887   -7.6860   14.5747 C   0  0  0  0  0  0  0  0  0  0  0  0
   -2.0809   -7.9284   13.6982 C   0  0  0  0  0  0  0  0  0  0  0  0
    0.5191   -8.5697   17.1905 C   0  0  0  0  0  0  0  0  0  0  0  0
  1  4  1  0  0  0  0
  2  3  1  0  0  0  0
  3  5  1  0  0  0  0
  4  6  1  0  0  0  0
  5  8  1  0  0  0  0
  6  7  1  0  0  0  0
  7 10  1  0  0  0  0
  8  9  1  0  0  0  0
  9 12  1  0  0  0  0
  9 13  1  0  0  0  0
 10 11  1  0  0  0  0
 11 14  1  0  0  0  0
 14 15  1  0  0  0  0
 15 16  1  0  0  0  0
 15 17  1  0  0  0  0
 18  2  1  0  0  0  0
 18 20  2  0  0  0  0
 18 24  1  0  0  0  0
 19 25  1  0  0  0  0
 20  1  1  0  0  0  0
 20 21  1  0  0  0  0
 21 22  2  0  0  0  0
 22 19  1  0  0  0  0
 22 23  1  0  0  0  0
 23 24  2  0  0  0  0
M  END
>  <CHROM.1>
106.58644084,92.70507673,58.77261612,61.23837344,89.99982019,-179.63130326
66.48295414,113.23084863,113.07220768,175.28531261,155.22018459,71.61675951
-125.39451612,81.01403553,-5.76492728,124.04488294,-67.14162398,-95.20899143
-3.75077543,-10.08552286,11.99855228,-0.50877164,0.70093574,-2.80690057

>  <Name>
1uud_lig

>  <RI>
0

>  <Rbt.Current_Directory>
/home/itssahil/PROJECTS/Mol_Feturizer/New_Systems/rnas/1uud

>  <Rbt.Executable>
rbdock ($Id: //depot/dev/client3/rdock/2013.1/src/exe/rbdock.cxx#4 $)

>  <Rbt.Library>
libRbt.so (2013.1, Build901 2013/11/27)

>  <Rbt.Parameter_File>
/export/apps/rDock/src/rDock_2013.1_src/data/scripts/dock_solv.prm

>  <Rbt.Receptor>
prm/blind_docking_40.prm

>  <SCORE>
-39.7009

>  <SCORE.INTER>
-33.7433

>  <SCORE.INTER.CONST>
1

>  <SCORE.INTER.POLAR>
-4.41537

>  <SCORE.INTER.ROT>
18

>  <SCORE.INTER.SOLV>
10.5597

>  <SCORE.INTER.VDW>
-26.8975

>  <SCORE.INTER.norm>
-1.34973

>  <SCORE.INTRA>
-5.96017

>  <SCORE.INTRA.DIHEDRAL>
-2.75163

>  <SCORE.INTRA.DIHEDRAL.0>
30.6762

>  <SCORE.INTRA.POLAR>
-0.68037

>  <SCORE.INTRA.POLAR.0>
-0.0288659

>  <SCORE.INTRA.REPUL>
0

>  <SCORE.INTRA.REPUL.0>
0

>  <SCORE.INTRA.SOLV>
0.927791

>  <SCORE.INTRA.SOLV.lig_0>
-25.2195

>  <SCORE.INTRA.VDW>
-2.735

>  <SCORE.INTRA.VDW.0>
4.14263

>  <SCORE.INTRA.norm>
-0.238407

>  <SCORE.RESTR>
0.00259408

>  <SCORE.RESTR.CAVITY>
0.00259408

>  <SCORE.RESTR.norm>
0.000103763

>  <SCORE.SYSTEM>
0

>  <SCORE.SYSTEM.CONST>
0

>  <SCORE.SYSTEM.DIHEDRAL>
0

>  <SCORE.SYSTEM.SOLV>
0

>  <SCORE.SYSTEM.norm>
0

>  <SCORE.heavy>
25

>  <SCORE.norm>
-1.58803

>  <RMSD>
16.743

$$$$
1uud_lig
 OpenBabel11021811413D
libRbt.so/2013.1/901 2013/11/27
 25 25  0  0  0  0  0  0  0  0999 V2000
   -3.6776  -11.5128   11.5260 C   0  0  0  0  0  0  0  0  0  0  0  0
   -2.1819   -9.8609   13.4331 O   0  0  0  0  0  0  0  0  0  0  0  0
   -1.5803   -8.8936   14.3064 C   0  0  0  0  0  0  0  0  0  0  0  0
   -3.7506  -12.0938   12.8896 N   0  0  0  0  0  0  0  0  0  0  0  0
   -0.2840   -9.4554   14.9058 C   0  0  0  0  0  0  0  0  0  0  0  0
   -5.1661  -12.1955   13.3169 C   0  0  0  0  0  0  0  0  0  0  0  0
   -5.7232  -13.5689   12.9232 C   0  0  0  0  0  0  0  0  0  0  0  0
    0.5197   -8.4718   15.2334 N   0  0  0  0  0  0  0  0  0  0  0  0
    0.1775   -7.5731   16.1375 C   0  0  0  0  0  0  0  0  0  0  0  0
   -5.7675  -13.6952   11.3965 C   0  0  0  0  0  0  0  0  0  0  0  0
   -6.8696  -12.7892   10.8398 C   0  0  0  0  0  0  0  0  0  0  0  0
    0.0450   -7.9025   17.4583 N   0  0  0  0  0  0  0  0  0  0  0  0
   -0.0496   -6.2924   15.7468 N   0  0  0  0  0  0  0  0  0  0  0  0
   -7.0444  -13.0337    9.5628 N   0  0  0  0  0  0  0  0  0  0  0  0
   -8.2442  -13.2572    9.0617 C   0  0  0  0  0  0  0  0  0  0  0  0
   -8.7185  -12.4378    8.0885 N   0  0  0  0  0  0  0  0  0  0  0  0
   -9.0238  -14.2871    9.5062 N   0  0  0  0  0  0  0  0  0  0  0  0
   -3.1074   -9.2170   12.5480 C   0  0  0  0  0  0  0  0  0  0  0  0
   -5.8275   -7.2718    9.8895 O   0  0  0  0  0  0  0  0  0  0  0  0
   -3.8503   -9.9816   11.6029 C   0  0  0  0  0  0  0  0  0  0  0  0
   -4.7478   -9.3311   10.7143 C   0  0  0  0  0  0  0  0  0  0  0  0
   -4.9204   -7.9236   10.7822 C   0  0  0  0  0  0  0  0  0  0  0  0
   -4.1945   -7.1625   11.7376 C   0  0  0  0  0  0  0  0  0  0  0  0
   -3.2928   -7.8087   12.6261 C   0  0  0  0  0  0  0  0  0  0  0  0
   -5.5243   -7.6444    8.5420 C   0  0  0  0  0  0  0  0  0  0  0  0
  1  4  1  0  0  0  0
  2  3  1  0  0  0  0
  3  5  1  0  0  0  0
  4  6  1  0  0  0  0
  5  8  1  0  0  0  0
  6  7  1  0  0  0  0
  7 10  1  0  0  0  0
  8  9  1  0  0  0  0
  9 12  1  0  0  0  0
  9 13  1  0  0  0  0
 10 11  1  0  0  0  0
 11 14  1  0  0  0  0
 14 15  1  0  0  0  0
 15 16  1  0  0  0  0
 15 17  1  0  0  0  0
 18  2  1  0  0  0  0
 18 20  2  0  0  0  0
 18 24  1  0  0  0  0
 19 25  1  0  0  0  0
 20  1  1  0  0  0  0
 20 21  1  0  0  0  0
 21 22  2  0  0  0  0
 22 19  1  0  0  0  0
 22 23  1  0  0  0  0
 23 24  2  0  0  0  0
M  END
>  <CHROM.1>
79.10617773,-160.80530101,154.50938202,91.24801263,61.79588585,-65.48712177
-70.99156488,68.03140571,130.91284328,-178.79071805,-170.92579284,129.94246350
120.42187054,69.00053334,103.91901594,-178.73639184,47.80002618,-52.57155908
-4.11481305,-10.17187238,12.20222340,-2.93847288,-0.79226189,-0.41073844

>  <Name>
1uud_lig

>  <RI>
0

>  <Rbt.Current_Directory>
/home/itssahil/PROJECTS/Mol_Feturizer/New_Systems/rnas/1uud

>  <Rbt.Executable>
rbdock ($Id: //depot/dev/client3/rdock/2013.1/src/exe/rbdock.cxx#4 $)

>  <Rbt.Library>
libRbt.so (2013.1, Build901 2013/11/27)

>  <Rbt.Parameter_File>
/export/apps/rDock/src/rDock_2013.1_src/data/scripts/dock_solv.prm

>  <Rbt.Receptor>
prm/blind_docking_40.prm

>  <SCORE>
-31.9572

>  <SCORE.INTER>
-26.8903

>  <SCORE.INTER.CONST>
1

>  <SCORE.INTER.POLAR>
-4.45197

>  <SCORE.INTER.ROT>
18

>  <SCORE.INTER.SOLV>
8.683

>  <SCORE.INTER.VDW>
-21.5813

>  <SCORE.INTER.norm>
-1.07561

>  <SCORE.INTRA>
-5.29878

>  <SCORE.INTRA.DIHEDRAL>
-9.89504

>  <SCORE.INTRA.DIHEDRAL.0>
30.6762

>  <SCORE.INTRA.POLAR>
-0.698418

>  <SCORE.INTRA.POLAR.0>
-0.0288659

>  <SCORE.INTRA.REPUL>
0

>  <SCORE.INTRA.REPUL.0>
0

>  <SCORE.INTRA.SOLV>
-0.758909

>  <SCORE.INTRA.SOLV.lig_0>
-25.2195

>  <SCORE.INTRA.VDW>
2.40282

>  <SCORE.INTRA.VDW.0>
4.14263

>  <SCORE.INTRA.norm>
-0.211951

>  <SCORE.RESTR>
0.23181

>  <SCORE.RESTR.CAVITY>
0.23181

>  <SCORE.RESTR.norm>
0.00927238

>  <SCORE.SYSTEM>
0

>  <SCORE.SYSTEM.CONST>
0

>  <SCORE.SYSTEM.DIHEDRAL>
0

>  <SCORE.SYSTEM.SOLV>
0

>  <SCORE.SYSTEM.norm>
0

>  <SCORE.heavy>
25

>  <SCORE.norm>
-1.27829

>  <RMSD>
16.774

$$$$
1uud_lig
 OpenBabel11021811413D
libRbt.so/2013.1/901 2013/11/27
 25 25  0  0  0  0  0  0  0  0999 V2000
   -2.9028  -11.3253   12.3313 C   0  0  0  0  0  0  0  0  0  0  0  0
   -2.2277   -8.9823   13.9613 O   0  0  0  0  0  0  0  0  0  0  0  0
   -1.3461   -7.8512   14.0220 C   0  0  0  0  0  0  0  0  0  0  0  0
   -3.9763  -12.3499   12.3327 N   0  0  0  0  0  0  0  0  0  0  0  0
   -0.0212   -8.2477   14.6874 C   0  0  0  0  0  0  0  0  0  0  0  0
   -4.4109  -12.6237   10.9424 C   0  0  0  0  0  0  0  0  0  0  0  0
   -5.9426  -12.6078   10.8714 C   0  0  0  0  0  0  0  0  0  0  0  0
   -0.2526   -9.0435   15.7042 N   0  0  0  0  0  0  0  0  0  0  0  0
    0.3855   -8.9013   16.8508 C   0  0  0  0  0  0  0  0  0  0  0  0
   -6.3974  -12.6857    9.4099 C   0  0  0  0  0  0  0  0  0  0  0  0
   -7.9137  -12.8935    9.3563 C   0  0  0  0  0  0  0  0  0  0  0  0
    1.4307   -9.7145   17.1928 N   0  0  0  0  0  0  0  0  0  0  0  0
   -0.0057   -7.9260   17.7111 N   0  0  0  0  0  0  0  0  0  0  0  0
   -8.5162  -11.7390    9.1974 N   0  0  0  0  0  0  0  0  0  0  0  0
   -9.4893  -11.5841    8.3202 C   0  0  0  0  0  0  0  0  0  0  0  0
  -10.6998  -12.1474    8.5677 N   0  0  0  0  0  0  0  0  0  0  0  0
   -9.3045  -10.8794    7.1647 N   0  0  0  0  0  0  0  0  0  0  0  0
   -3.1610   -8.8220   12.8854 C   0  0  0  0  0  0  0  0  0  0  0  0
   -5.9109   -8.3119    9.6561 O   0  0  0  0  0  0  0  0  0  0  0  0
   -3.5125   -9.9332   12.0659 C   0  0  0  0  0  0  0  0  0  0  0  0
   -4.4207   -9.7587   10.9874 C   0  0  0  0  0  0  0  0  0  0  0  0
   -4.9939   -8.4838   10.7396 C   0  0  0  0  0  0  0  0  0  0  0  0
   -4.6590   -7.3793   11.5685 C   0  0  0  0  0  0  0  0  0  0  0  0
   -3.7481   -7.5484   12.6463 C   0  0  0  0  0  0  0  0  0  0  0  0
   -5.1992   -7.8936    8.4878 C   0  0  0  0  0  0  0  0  0  0  0  0
  1  4  1  0  0  0  0
  2  3  1  0  0  0  0
  3  5  1  0  0  0  0
  4  6  1  0  0  0  0
  5  8  1  0  0  0  0
  6  7  1  0  0  0  0
  7 10  1  0  0  0  0
  8  9  1  0  0  0  0
  9 12  1  0  0  0  0
  9 13  1  0  0  0  0
 10 11  1  0  0  0  0
 11 14  1  0  0  0  0
 14 15  1  0  0  0  0
 15 16  1  0  0  0  0
 15 17  1  0  0  0  0
 18  2  1  0  0  0  0
 18 20  2  0  0  0  0
 18 24  1  0  0  0  0
 19 25  1  0  0  0  0
 20  1  1  0  0  0  0
 20 21  1  0  0  0  0
 21 22  2  0  0  0  0
 22 19  1  0  0  0  0
 22 23  1  0  0  0  0
 23 24  2  0  0  0  0
M  END
>  <CHROM.1>
75.29644338,-154.86200121,-40.49592791,-132.76826628,-137.20533260,171.79644423
171.06802890,-101.63476303,0.49553267,-24.04218856,96.05847361,134.32363816
71.78663703,-115.96545294,-103.69171152,139.56215442,132.23110398,-92.60027193
-4.30331068,-10.01366170,11.92040578,-0.08537695,0.75230702,2.89770082

>  <Name>
1uud_lig

>  <RI>
0

>  <Rbt.Current_Directory>
/home/itssahil/PROJECTS/Mol_Feturizer/New_Systems/rnas/1uud

>  <Rbt.Executable>
rbdock ($Id: //depot/dev/client3/rdock/2013.1/src/exe/rbdock.cxx#4 $)

>  <Rbt.Library>
libRbt.so (2013.1, Build901 2013/11/27)

>  <Rbt.Parameter_File>
/export/apps/rDock/src/rDock_2013.1_src/data/scripts/dock_solv.prm

>  <Rbt.Receptor>
prm/blind_docking_40.prm

>  <SCORE>
-21.5667

>  <SCORE.INTER>
-18.549

>  <SCORE.INTER.CONST>
1

>  <SCORE.INTER.POLAR>
-2.62715

>  <SCORE.INTER.ROT>
18

>  <SCORE.INTER.SOLV>
7.09046

>  <SCORE.INTER.VDW>
-21.5723

>  <SCORE.INTER.norm>
-0.741958

>  <SCORE.INTRA>
-3.42614

>  <SCORE.INTRA.DIHEDRAL>
-1.54616

>  <SCORE.INTRA.DIHEDRAL.0>
30.6762

>  <SCORE.INTRA.POLAR>
-0.00556638

>  <SCORE.INTRA.POLAR.0>
-0.0288659

>  <SCORE.INTRA.REPUL>
0.0710123

>  <SCORE.INTRA.REPUL.0>
0

>  <SCORE.INTRA.SOLV>
-1.15105

>  <SCORE.INTRA.SOLV.lig_0>
-25.2195

>  <SCORE.INTRA.VDW>
-2.41367

>  <SCORE.INTRA.VDW.0>
4.14263

>  <SCORE.INTRA.norm>
-0.137046

>  <SCORE.RESTR>
0.408383

>  <SCORE.RESTR.CAVITY>
0.408383

>  <SCORE.RESTR.norm>
0.0163353

>  <SCORE.SYSTEM>
0

>  <SCORE.SYSTEM.CONST>
0

>  <SCORE.SYSTEM.DIHEDRAL>
0

>  <SCORE.SYSTEM.SOLV>
0

>  <SCORE.SYSTEM.norm>
0

>  <SCORE.heavy>
25

>  <SCORE.norm>
-0.862669

>  <RMSD>
16.780

$$$$
1uud_lig
 OpenBabel11021811413D
libRbt.so/2013.1/901 2013/11/27
 25 25  0  0  0  0  0  0  0  0999 V2000
   -4.2027  -12.1889   11.4153 C   0  0  0  0  0  0  0  0  0  0  0  0
   -2.1631  -11.2458   13.3002 O   0  0  0  0  0  0  0  0  0  0  0  0
   -1.6831  -10.7323   14.5517 C   0  0  0  0  0  0  0  0  0  0  0  0
   -4.6865  -12.8992   12.6251 N   0  0  0  0  0  0  0  0  0  0  0  0
   -0.2964  -10.1010   14.3681 C   0  0  0  0  0  0  0  0  0  0  0  0
   -5.5503  -14.0362   12.2279 C   0  0  0  0  0  0  0  0  0  0  0  0
   -6.9392  -13.5143   11.8406 C   0  0  0  0  0  0  0  0  0  0  0  0
   -0.3151   -8.8548   14.7773 N   0  0  0  0  0  0  0  0  0  0  0  0
    0.5850   -8.3934   15.6252 C   0  0  0  0  0  0  0  0  0  0  0  0
   -6.9367  -13.0631   10.3760 C   0  0  0  0  0  0  0  0  0  0  0  0
   -8.3725  -12.7783    9.9259 C   0  0  0  0  0  0  0  0  0  0  0  0
    1.9250   -8.4989   15.3727 N   0  0  0  0  0  0  0  0  0  0  0  0
    0.1708   -7.8016   16.7752 N   0  0  0  0  0  0  0  0  0  0  0  0
   -8.3784  -12.3973    8.6705 N   0  0  0  0  0  0  0  0  0  0  0  0
   -9.2641  -11.5310    8.2171 C   0  0  0  0  0  0  0  0  0  0  0  0
   -8.8744  -10.2543    7.9685 N   0  0  0  0  0  0  0  0  0  0  0  0
  -10.5656  -11.8859    8.0020 N   0  0  0  0  0  0  0  0  0  0  0  0
   -3.0047  -10.2775   12.6610 C   0  0  0  0  0  0  0  0  0  0  0  0
   -5.4725   -7.3713   10.7337 O   0  0  0  0  0  0  0  0  0  0  0  0
   -4.0046  -10.6926   11.7348 C   0  0  0  0  0  0  0  0  0  0  0  0
   -4.8181   -9.7233   11.0890 C   0  0  0  0  0  0  0  0  0  0  0  0
   -4.6496   -8.3445   11.3820 C   0  0  0  0  0  0  0  0  0  0  0  0
   -3.6658   -7.9310   12.3202 C   0  0  0  0  0  0  0  0  0  0  0  0
   -2.8474   -8.8969   12.9660 C   0  0  0  0  0  0  0  0  0  0  0  0
   -6.8373   -7.5671   11.1152 C   0  0  0  0  0  0  0  0  0  0  0  0
  1  4  1  0  0  0  0
  2  3  1  0  0  0  0
  3  5  1  0  0  0  0
  4  6  1  0  0  0  0
  5  8  1  0  0  0  0
  6  7  1  0  0  0  0
  7 10  1  0  0  0  0
  8  9  1  0  0  0  0
  9 12  1  0  0  0  0
  9 13  1  0  0  0  0
 10 11  1  0  0  0  0
 11 14  1  0  0  0  0
 14 15  1  0  0  0  0
 15 16  1  0  0  0  0
 15 17  1  0  0  0  0
 18  2  1  0  0  0  0
 18 20  2  0  0  0  0
 18 24  1  0  0  0  0
 19 25  1  0  0  0  0
 20  1  1  0  0  0  0
 20 21  1  0  0  0  0
 21 22  2  0  0  0  0
 22 19  1  0  0  0  0
 22 23  1  0  0  0  0
 23 24  2  0  0  0  0
M  END
>  <CHROM.1>
149.11631371,-95.26041955,123.69320910,-77.84015172,129.06132089,84.52934267
170.07843764,54.88950393,160.23538845,151.89711870,-179.70647121,-147.33809819
104.96135940,103.42412803,-44.93794301,-154.60214536,65.77708934,63.96813522
-4.44727480,-10.43792546,12.00394063,-2.94921434,-0.63798014,-0.14070980

>  <Name>
1uud_lig

>  <RI>
0

>  <Rbt.Current_Directory>
/home/itssahil/PROJECTS/Mol_Feturizer/New_Systems/rnas/1uud

>  <Rbt.Executable>
rbdock ($Id: //depot/dev/client3/rdock/2013.1/src/exe/rbdock.cxx#4 $)

>  <Rbt.Library>
libRbt.so (2013.1, Build901 2013/11/27)

>  <Rbt.Parameter_File>
/export/apps/rDock/src/rDock_2013.1_src/data/scripts/dock_solv.prm

>  <Rbt.Receptor>
prm/blind_docking_80.prm

>  <SCORE>
-27.2586

>  <SCORE.INTER>
-27.0891

>  <SCORE.INTER.CONST>
1

>  <SCORE.INTER.POLAR>
-4.35086

>  <SCORE.INTER.ROT>
18

>  <SCORE.INTER.SOLV>
10.1794

>  <SCORE.INTER.VDW>
-22.5496

>  <SCORE.INTER.norm>
-1.08356

>  <SCORE.INTRA>
-1.34889

>  <SCORE.INTRA.DIHEDRAL>
-0.546289

>  <SCORE.INTRA.DIHEDRAL.0>
30.6762

>  <SCORE.INTRA.POLAR>
0.0288659

>  <SCORE.INTRA.POLAR.0>
-0.0288659

>  <SCORE.INTRA.REPUL>
0

>  <SCORE.INTRA.REPUL.0>
0

>  <SCORE.INTRA.SOLV>
-0.906773

>  <SCORE.INTRA.SOLV.lig_0>
-25.2195

>  <SCORE.INTRA.VDW>
-0.720505

>  <SCORE.INTRA.VDW.0>
4.14263

>  <SCORE.INTRA.norm>
-0.0539557

>  <SCORE.RESTR>
1.17932

>  <SCORE.RESTR.CAVITY>
1.17932

>  <SCORE.RESTR.norm>
0.0471728

>  <SCORE.SYSTEM>
0

>  <SCORE.SYSTEM.CONST>
0

>  <SCORE.SYSTEM.DIHEDRAL>
0

>  <SCORE.SYSTEM.SOLV>
0

>  <SCORE.SYSTEM.norm>
0

>  <SCORE.heavy>
25

>  <SCORE.norm>
-1.09035

>  <RMSD>
16.800

$$$$
1uud_lig
 OpenBabel11021811413D
libRbt.so/2013.1/901 2013/11/27
 25 25  0  0  0  0  0  0  0  0999 V2000
   -2.9115  -11.1026   12.1557 C   0  0  0  0  0  0  0  0  0  0  0  0
   -2.6116   -9.3169   14.4630 O   0  0  0  0  0  0  0  0  0  0  0  0
   -1.4716   -8.5566   14.8903 C   0  0  0  0  0  0  0  0  0  0  0  0
   -4.1393  -11.9338   12.0958 N   0  0  0  0  0  0  0  0  0  0  0  0
   -0.9826   -9.0578   16.2559 C   0  0  0  0  0  0  0  0  0  0  0  0
   -4.7231  -11.8697   10.7350 C   0  0  0  0  0  0  0  0  0  0  0  0
   -6.2106  -12.2373   10.7972 C   0  0  0  0  0  0  0  0  0  0  0  0
    0.0878   -8.3920   16.6191 N   0  0  0  0  0  0  0  0  0  0  0  0
    1.2975   -8.7859   16.2679 C   0  0  0  0  0  0  0  0  0  0  0  0
   -6.9803  -11.4814    9.7087 C   0  0  0  0  0  0  0  0  0  0  0  0
   -6.9344  -12.2788    8.4021 C   0  0  0  0  0  0  0  0  0  0  0  0
    2.1113   -9.4574   17.1382 N   0  0  0  0  0  0  0  0  0  0  0  0
    1.7447   -8.5169   15.0141 N   0  0  0  0  0  0  0  0  0  0  0  0
   -7.5903  -13.4061    8.5451 N   0  0  0  0  0  0  0  0  0  0  0  0
   -8.8913  -13.4238    8.7632 C   0  0  0  0  0  0  0  0  0  0  0  0
   -9.4225  -14.4189    9.5190 N   0  0  0  0  0  0  0  0  0  0  0  0
   -9.7170  -12.4707    8.2381 N   0  0  0  0  0  0  0  0  0  0  0  0
   -3.1343   -8.7768   13.2426 C   0  0  0  0  0  0  0  0  0  0  0  0
   -4.6524   -7.1360    9.6020 O   0  0  0  0  0  0  0  0  0  0  0  0
   -3.2912   -9.6085   12.0964 C   0  0  0  0  0  0  0  0  0  0  0  0
   -3.7883   -9.0582   10.8847 C   0  0  0  0  0  0  0  0  0  0  0  0
   -4.1485   -7.6864   10.8217 C   0  0  0  0  0  0  0  0  0  0  0  0
   -4.0108   -6.8607   11.9699 C   0  0  0  0  0  0  0  0  0  0  0  0
   -3.5105   -7.4062   13.1832 C   0  0  0  0  0  0  0  0  0  0  0  0
   -5.7227   -7.9507    9.1148 C   0  0  0  0  0  0  0  0  0  0  0  0
  1  4  1  0  0  0  0
  2  3  1  0  0  0  0
  3  5  1  0  0  0  0
  4  6  1  0  0  0  0
  5  8  1  0  0  0  0
  6  7  1  0  0  0  0
  7 10  1  0  0  0  0
  8  9  1  0  0  0  0
  9 12  1  0  0  0  0
  9 13  1  0  0  0  0
 10 11  1  0  0  0  0
 11 14  1  0  0  0  0
 14 15  1  0  0  0  0
 15 16  1  0  0  0  0
 15 17  1  0  0  0  0
 18  2  1  0  0  0  0
 18 20  2  0  0  0  0
 18 24  1  0  0  0  0
 19 25  1  0  0  0  0
 20  1  1  0  0  0  0
 20 21  1  0  0  0  0
 21 22  2  0  0  0  0
 22 19  1  0  0  0  0
 22 23  1  0  0  0  0
 23 24  2  0  0  0  0
M  END
>  <CHROM.1>
70.99935511,175.22367669,177.73578900,-157.96648705,-88.18499007,148.73829976
86.60617921,-101.05140644,-86.48050818,-142.37555298,65.78887300,64.83903218
-147.97592091,130.69228626,-81.67236021,124.80033323,110.14519807,51.11226320
-3.99213633,-10.10207327,12.02689765,-0.12914036,0.74823040,2.80844616

>  <Name>
1uud_lig

>  <RI>
0

>  <Rbt.Current_Directory>
/home/itssahil/PROJECTS/Mol_Feturizer/New_Systems/rnas/1uud

>  <Rbt.Executable>
rbdock ($Id: //depot/dev/client3/rdock/2013.1/src/exe/rbdock.cxx#4 $)

>  <Rbt.Library>
libRbt.so (2013.1, Build901 2013/11/27)

>  <Rbt.Parameter_File>
/export/apps/rDock/src/rDock_2013.1_src/data/scripts/dock_solv.prm

>  <Rbt.Receptor>
prm/blind_docking_40.prm

>  <SCORE>
-33.6067

>  <SCORE.INTER>
-28.6565

>  <SCORE.INTER.CONST>
1

>  <SCORE.INTER.POLAR>
-4.25203

>  <SCORE.INTER.ROT>
18

>  <SCORE.INTER.SOLV>
11.9083

>  <SCORE.INTER.VDW>
-24.5004

>  <SCORE.INTER.norm>
-1.14626

>  <SCORE.INTRA>
-5.45826

>  <SCORE.INTRA.DIHEDRAL>
-7.11353

>  <SCORE.INTRA.DIHEDRAL.0>
30.6762

>  <SCORE.INTRA.POLAR>
0.0288659

>  <SCORE.INTRA.POLAR.0>
-0.0288659

>  <SCORE.INTRA.REPUL>
0

>  <SCORE.INTRA.REPUL.0>
0

>  <SCORE.INTRA.SOLV>
-0.824522

>  <SCORE.INTRA.SOLV.lig_0>
-25.2195

>  <SCORE.INTRA.VDW>
-1.58738

>  <SCORE.INTRA.VDW.0>
4.14263

>  <SCORE.INTRA.norm>
-0.21833

>  <SCORE.RESTR>
0.508037

>  <SCORE.RESTR.CAVITY>
0.508037

>  <SCORE.RESTR.norm>
0.0203215

>  <SCORE.SYSTEM>
0

>  <SCORE.SYSTEM.CONST>
0

>  <SCORE.SYSTEM.DIHEDRAL>
0

>  <SCORE.SYSTEM.SOLV>
0

>  <SCORE.SYSTEM.norm>
0

>  <SCORE.heavy>
25

>  <SCORE.norm>
-1.34427

>  <RMSD>
16.803

$$$$
1uud_lig
 OpenBabel11021811413D
libRbt.so/2013.1/901 2013/11/27
 25 25  0  0  0  0  0  0  0  0999 V2000
   -6.4137   -8.4029   13.3406 C   0  0  0  0  0  0  0  0  0  0  0  0
   -3.4854   -8.5488   13.4201 O   0  0  0  0  0  0  0  0  0  0  0  0
   -2.0879   -8.8497   13.5487 C   0  0  0  0  0  0  0  0  0  0  0  0
   -5.9407   -7.3676   12.3884 N   0  0  0  0  0  0  0  0  0  0  0  0
   -1.3288   -7.6244   14.0758 C   0  0  0  0  0  0  0  0  0  0  0  0
   -6.7028   -7.4655   11.1210 C   0  0  0  0  0  0  0  0  0  0  0  0
   -6.4807   -8.8475   10.4945 C   0  0  0  0  0  0  0  0  0  0  0  0
   -0.1943   -8.0003   14.6165 N   0  0  0  0  0  0  0  0  0  0  0  0
    0.4124   -7.2645   15.5289 C   0  0  0  0  0  0  0  0  0  0  0  0
   -4.9826   -9.0868   10.2777 C   0  0  0  0  0  0  0  0  0  0  0  0
   -4.7537  -10.5374    9.8436 C   0  0  0  0  0  0  0  0  0  0  0  0
   -0.1823   -6.9773   16.7267 N   0  0  0  0  0  0  0  0  0  0  0  0
    1.6549   -6.7804   15.2718 N   0  0  0  0  0  0  0  0  0  0  0  0
   -5.1663  -10.7034    8.6093 N   0  0  0  0  0  0  0  0  0  0  0  0
   -5.7994  -11.7988    8.2355 C   0  0  0  0  0  0  0  0  0  0  0  0
   -6.8989  -11.6915    7.4461 N   0  0  0  0  0  0  0  0  0  0  0  0
   -5.3806  -13.0370    8.6325 N   0  0  0  0  0  0  0  0  0  0  0  0
   -4.2233   -9.7459   13.1429 C   0  0  0  0  0  0  0  0  0  0  0  0
   -6.4043  -13.3347   12.3588 O   0  0  0  0  0  0  0  0  0  0  0  0
   -5.6472   -9.7201   13.1002 C   0  0  0  0  0  0  0  0  0  0  0  0
   -6.3701  -10.9167   12.8476 C   0  0  0  0  0  0  0  0  0  0  0  0
   -5.6744  -12.1325   12.6169 C   0  0  0  0  0  0  0  0  0  0  0  0
   -4.2539  -12.1554   12.6399 C   0  0  0  0  0  0  0  0  0  0  0  0
   -3.5266  -10.9613   12.8957 C   0  0  0  0  0  0  0  0  0  0  0  0
   -6.0343  -14.3341   13.3131 C   0  0  0  0  0  0  0  0  0  0  0  0
  1  4  1  0  0  0  0
  2  3  1  0  0  0  0
  3  5  1  0  0  0  0
  4  6  1  0  0  0  0
  5  8  1  0  0  0  0
  6  7  1  0  0  0  0
  7 10  1  0  0  0  0
  8  9  1  0  0  0  0
  9 12  1  0  0  0  0
  9 13  1  0  0  0  0
 10 11  1  0  0  0  0
 11 14  1  0  0  0  0
 14 15  1  0  0  0  0
 15 16  1  0  0  0  0
 15 17  1  0  0  0  0
 18  2  1  0  0  0  0
 18 20  2  0  0  0  0
 18 24  1  0  0  0  0
 19 25  1  0  0  0  0
 20  1  1  0  0  0  0
 20 21  1  0  0  0  0
 21 22  2  0  0  0  0
 22 19  1  0  0  0  0
 22 23  1  0  0  0  0
 23 24  2  0  0  0  0
M  END
>  <CHROM.1>
86.86602808,-170.48177512,158.58927306,-60.71901278,-155.93396798,-56.81528190
171.88570099,61.35844993,146.80106367,32.40992600,72.39781455,-140.37661110
136.15557822,148.36304230,17.06835478,173.97031431,55.64605181,-123.39874701
-4.19878033,-9.83075826,12.24634507,2.88821871,0.83759633,2.79769644

>  <Name>
1uud_lig

>  <RI>
0

>  <Rbt.Current_Directory>
/home/itssahil/PROJECTS/Mol_Feturizer/New_Systems/rnas/1uud

>  <Rbt.Executable>
rbdock ($Id: //depot/dev/client3/rdock/2013.1/src/exe/rbdock.cxx#4 $)

>  <Rbt.Library>
libRbt.so (2013.1, Build901 2013/11/27)

>  <Rbt.Parameter_File>
/export/apps/rDock/src/rDock_2013.1_src/data/scripts/dock_solv.prm

>  <Rbt.Receptor>
prm/blind_docking_80.prm

>  <SCORE>
-20.3003

>  <SCORE.INTER>
-14.9448

>  <SCORE.INTER.CONST>
1

>  <SCORE.INTER.POLAR>
-3.15935

>  <SCORE.INTER.ROT>
18

>  <SCORE.INTER.SOLV>
9.92837

>  <SCORE.INTER.VDW>
-18.3415

>  <SCORE.INTER.norm>
-0.59779

>  <SCORE.INTRA>
-5.79195

>  <SCORE.INTRA.DIHEDRAL>
-12.5304

>  <SCORE.INTRA.DIHEDRAL.0>
30.6762

>  <SCORE.INTRA.POLAR>
-0.504005

>  <SCORE.INTRA.POLAR.0>
-0.0288659

>  <SCORE.INTRA.REPUL>
0

>  <SCORE.INTRA.REPUL.0>
0

>  <SCORE.INTRA.SOLV>
-0.636272

>  <SCORE.INTRA.SOLV.lig_0>
-25.2195

>  <SCORE.INTRA.VDW>
2.50499

>  <SCORE.INTRA.VDW.0>
4.14263

>  <SCORE.INTRA.norm>
-0.231678

>  <SCORE.RESTR>
0.436449

>  <SCORE.RESTR.CAVITY>
0.436449

>  <SCORE.RESTR.norm>
0.0174579

>  <SCORE.SYSTEM>
0

>  <SCORE.SYSTEM.CONST>
0

>  <SCORE.SYSTEM.DIHEDRAL>
0

>  <SCORE.SYSTEM.SOLV>
0

>  <SCORE.SYSTEM.norm>
0

>  <SCORE.heavy>
25

>  <SCORE.norm>
-0.81201

>  <RMSD>
16.826

$$$$
1uud_lig
 OpenBabel11021811413D
libRbt.so/2013.1/901 2013/11/27
 25 25  0  0  0  0  0  0  0  0999 V2000
   -4.4634  -10.9842   12.7052 C   0  0  0  0  0  0  0  0  0  0  0  0
   -2.7825   -9.2918   14.4119 O   0  0  0  0  0  0  0  0  0  0  0  0
   -1.3631   -9.4863   14.3238 C   0  0  0  0  0  0  0  0  0  0  0  0
   -3.9365  -11.9197   11.6807 N   0  0  0  0  0  0  0  0  0  0  0  0
   -0.6379   -8.1361   14.4027 C   0  0  0  0  0  0  0  0  0  0  0  0
   -4.7083  -13.1846   11.7115 C   0  0  0  0  0  0  0  0  0  0  0  0
   -6.1314  -12.9296   11.2002 C   0  0  0  0  0  0  0  0  0  0  0  0
    0.2099   -8.1422   15.4037 N   0  0  0  0  0  0  0  0  0  0  0  0
    0.8885   -7.0612   15.7398 C   0  0  0  0  0  0  0  0  0  0  0  0
   -7.0369  -14.1099   11.5685 C   0  0  0  0  0  0  0  0  0  0  0  0
   -8.4817  -13.7886   11.1755 C   0  0  0  0  0  0  0  0  0  0  0  0
    1.8156   -6.5093   14.8992 N   0  0  0  0  0  0  0  0  0  0  0  0
    0.6618   -6.4847   16.9483 N   0  0  0  0  0  0  0  0  0  0  0  0
   -8.7471  -14.3008    9.9972 N   0  0  0  0  0  0  0  0  0  0  0  0
   -8.7419  -13.5591    8.9061 C   0  0  0  0  0  0  0  0  0  0  0  0
   -9.8400  -12.8208    8.6020 N   0  0  0  0  0  0  0  0  0  0  0  0
   -7.6617  -13.5248    8.0705 N   0  0  0  0  0  0  0  0  0  0  0  0
   -3.2817   -8.7450   13.1846 C   0  0  0  0  0  0  0  0  0  0  0  0
   -4.7219   -7.1100    9.5099 O   0  0  0  0  0  0  0  0  0  0  0  0
   -4.0972   -9.5348   12.3238 C   0  0  0  0  0  0  0  0  0  0  0  0
   -4.5677   -8.9913   11.0984 C   0  0  0  0  0  0  0  0  0  0  0  0
   -4.2436   -7.6559   10.7419 C   0  0  0  0  0  0  0  0  0  0  0  0
   -3.4465   -6.8610   11.6089 C   0  0  0  0  0  0  0  0  0  0  0  0
   -2.9707   -7.4018   12.8341 C   0  0  0  0  0  0  0  0  0  0  0  0
   -4.9385   -8.1663    8.5698 C   0  0  0  0  0  0  0  0  0  0  0  0
  1  4  1  0  0  0  0
  2  3  1  0  0  0  0
  3  5  1  0  0  0  0
  4  6  1  0  0  0  0
  5  8  1  0  0  0  0
  6  7  1  0  0  0  0
  7 10  1  0  0  0  0
  8  9  1  0  0  0  0
  9 12  1  0  0  0  0
  9 13  1  0  0  0  0
 10 11  1  0  0  0  0
 11 14  1  0  0  0  0
 14 15  1  0  0  0  0
 15 16  1  0  0  0  0
 15 17  1  0  0  0  0
 18  2  1  0  0  0  0
 18 20  2  0  0  0  0
 18 24  1  0  0  0  0
 19 25  1  0  0  0  0
 20  1  1  0  0  0  0
 20 21  1  0  0  0  0
 21 22  2  0  0  0  0
 22 19  1  0  0  0  0
 22 23  1  0  0  0  0
 23 24  2  0  0  0  0
M  END
>  <CHROM.1>
-157.15220135,73.82605349,122.59338432,69.02602229,-175.12119947,-165.04909133
174.55890423,-65.10459664,22.64743757,-106.33656455,95.88396549,-100.71095025
-82.10187174,72.66064753,-7.04883253,110.23548906,-118.90908997,-26.40950833
-4.12409998,-10.05707911,12.05422468,-2.95404464,-0.77257385,-0.57587737

>  <Name>
1uud_lig

>  <RI>
0

>  <Rbt.Current_Directory>
/home/itssahil/PROJECTS/Mol_Feturizer/New_Systems/rnas/1uud

>  <Rbt.Executable>
rbdock ($Id: //depot/dev/client3/rdock/2013.1/src/exe/rbdock.cxx#4 $)

>  <Rbt.Library>
libRbt.so (2013.1, Build901 2013/11/27)

>  <Rbt.Parameter_File>
/export/apps/rDock/src/rDock_2013.1_src/data/scripts/dock_solv.prm

>  <Rbt.Receptor>
prm/blind_docking_40.prm

>  <SCORE>
-30.3748

>  <SCORE.INTER>
-30.2825

>  <SCORE.INTER.CONST>
1

>  <SCORE.INTER.POLAR>
-4.29717

>  <SCORE.INTER.ROT>
18

>  <SCORE.INTER.SOLV>
13.5047

>  <SCORE.INTER.VDW>
-25.966

>  <SCORE.INTER.norm>
-1.2113

>  <SCORE.INTRA>
-0.611695

>  <SCORE.INTRA.DIHEDRAL>
-2.93724

>  <SCORE.INTRA.DIHEDRAL.0>
30.6762

>  <SCORE.INTRA.POLAR>
0.0288659

>  <SCORE.INTRA.POLAR.0>
-0.0288659

>  <SCORE.INTRA.REPUL>
0

>  <SCORE.INTRA.REPUL.0>
0

>  <SCORE.INTRA.SOLV>
-1.08086

>  <SCORE.INTRA.SOLV.lig_0>
-25.2195

>  <SCORE.INTRA.VDW>
1.29921

>  <SCORE.INTRA.VDW.0>
4.14263

>  <SCORE.INTRA.norm>
-0.0244678

>  <SCORE.RESTR>
0.519316

>  <SCORE.RESTR.CAVITY>
0.519316

>  <SCORE.RESTR.norm>
0.0207727

>  <SCORE.SYSTEM>
0

>  <SCORE.SYSTEM.CONST>
0

>  <SCORE.SYSTEM.DIHEDRAL>
0

>  <SCORE.SYSTEM.SOLV>
0

>  <SCORE.SYSTEM.norm>
0

>  <SCORE.heavy>
25

>  <SCORE.norm>
-1.21499

>  <RMSD>
16.849

$$$$
1uud_lig
 OpenBabel11021811413D
libRbt.so/2013.1/901 2013/11/27
 25 25  0  0  0  0  0  0  0  0999 V2000
   -3.0615  -11.2758   12.0120 C   0  0  0  0  0  0  0  0  0  0  0  0
   -2.7529   -9.6140   14.4090 O   0  0  0  0  0  0  0  0  0  0  0  0
   -1.3502   -9.3535   14.5662 C   0  0  0  0  0  0  0  0  0  0  0  0
   -4.2502  -12.0501   11.5766 N   0  0  0  0  0  0  0  0  0  0  0  0
   -1.1203   -7.8719   14.8936 C   0  0  0  0  0  0  0  0  0  0  0  0
   -5.3316  -11.9172   12.5813 C   0  0  0  0  0  0  0  0  0  0  0  0
   -6.2622  -13.1332   12.4972 C   0  0  0  0  0  0  0  0  0  0  0  0
   -0.2277   -7.7586   15.8482 N   0  0  0  0  0  0  0  0  0  0  0  0
    1.0663   -7.7941   15.5907 C   0  0  0  0  0  0  0  0  0  0  0  0
   -6.9237  -13.1886   11.1159 C   0  0  0  0  0  0  0  0  0  0  0  0
   -8.2989  -13.8520   11.2334 C   0  0  0  0  0  0  0  0  0  0  0  0
    1.8365   -8.8671   15.9456 N   0  0  0  0  0  0  0  0  0  0  0  0
    1.6462   -6.7403   14.9602 N   0  0  0  0  0  0  0  0  0  0  0  0
   -8.6339  -14.3893   10.0844 N   0  0  0  0  0  0  0  0  0  0  0  0
   -8.7123  -13.6677    8.9827 C   0  0  0  0  0  0  0  0  0  0  0  0
   -9.8177  -12.9099    8.7647 N   0  0  0  0  0  0  0  0  0  0  0  0
   -7.7123  -13.6733    8.0521 N   0  0  0  0  0  0  0  0  0  0  0  0
   -3.2362   -8.9997   13.2075 C   0  0  0  0  0  0  0  0  0  0  0  0
   -4.6358   -7.1389    9.6257 O   0  0  0  0  0  0  0  0  0  0  0  0
   -3.3957   -9.7696   12.0194 C   0  0  0  0  0  0  0  0  0  0  0  0
   -3.8533   -9.1464   10.8276 C   0  0  0  0  0  0  0  0  0  0  0  0
   -4.1716   -7.7629   10.8256 C   0  0  0  0  0  0  0  0  0  0  0  0
   -4.0314   -6.9984   12.0151 C   0  0  0  0  0  0  0  0  0  0  0  0
   -3.5706   -7.6170   13.2089 C   0  0  0  0  0  0  0  0  0  0  0  0
   -5.7003   -7.9124    9.0644 C   0  0  0  0  0  0  0  0  0  0  0  0
  1  4  1  0  0  0  0
  2  3  1  0  0  0  0
  3  5  1  0  0  0  0
  4  6  1  0  0  0  0
  5  8  1  0  0  0  0
  6  7  1  0  0  0  0
  7 10  1  0  0  0  0
  8  9  1  0  0  0  0
  9 12  1  0  0  0  0
  9 13  1  0  0  0  0
 10 11  1  0  0  0  0
 11 14  1  0  0  0  0
 14 15  1  0  0  0  0
 15 16  1  0  0  0  0
 15 17  1  0  0  0  0
 18  2  1  0  0  0  0
 18 20  2  0  0  0  0
 18 24  1  0  0  0  0
 19 25  1  0  0  0  0
 20  1  1  0  0  0  0
 20 21  1  0  0  0  0
 21 22  2  0  0  0  0
 22 19  1  0  0  0  0
 22 23  1  0  0  0  0
 23 24  2  0  0  0  0
M  END
>  <CHROM.1>
-65.79756034,69.90111983,136.75488731,-154.85019956,82.92055206,-62.22314073
-150.39154968,-108.53231780,46.38797964,130.98527629,-154.62103745,-57.98903178
-79.55743918,-135.28809601,2.91510985,98.89186559,123.28815027,49.82548793
-4.10103703,-10.17545475,12.14180208,-0.20805101,0.72290066,2.65902423

>  <Name>
1uud_lig

>  <RI>
0

>  <Rbt.Current_Directory>
/home/itssahil/PROJECTS/Mol_Feturizer/New_Systems/rnas/1uud

>  <Rbt.Executable>
rbdock ($Id: //depot/dev/client3/rdock/2013.1/src/exe/rbdock.cxx#4 $)

>  <Rbt.Library>
libRbt.so (2013.1, Build901 2013/11/27)

>  <Rbt.Parameter_File>
/export/apps/rDock/src/rDock_2013.1_src/data/scripts/dock_solv.prm

>  <Rbt.Receptor>
prm/blind_docking_80.prm

>  <SCORE>
-38.5737

>  <SCORE.INTER>
-37.7816

>  <SCORE.INTER.CONST>
1

>  <SCORE.INTER.POLAR>
-5.84429

>  <SCORE.INTER.ROT>
18

>  <SCORE.INTER.SOLV>
14.4592

>  <SCORE.INTER.VDW>
-26.1265

>  <SCORE.INTER.norm>
-1.51126

>  <SCORE.INTRA>
-2.45671

>  <SCORE.INTRA.DIHEDRAL>
-1.30583

>  <SCORE.INTRA.DIHEDRAL.0>
30.6762

>  <SCORE.INTRA.POLAR>
0.0288659

>  <SCORE.INTRA.POLAR.0>
-0.0288659

>  <SCORE.INTRA.REPUL>
0

>  <SCORE.INTRA.REPUL.0>
0

>  <SCORE.INTRA.SOLV>
-0.938739

>  <SCORE.INTRA.SOLV.lig_0>
-25.2195

>  <SCORE.INTRA.VDW>
-1.43257

>  <SCORE.INTRA.VDW.0>
4.14263

>  <SCORE.INTRA.norm>
-0.0982684

>  <SCORE.RESTR>
1.66458

>  <SCORE.RESTR.CAVITY>
1.66458

>  <SCORE.RESTR.norm>
0.0665834

>  <SCORE.SYSTEM>
0

>  <SCORE.SYSTEM.CONST>
0

>  <SCORE.SYSTEM.DIHEDRAL>
0

>  <SCORE.SYSTEM.SOLV>
0

>  <SCORE.SYSTEM.norm>
0

>  <SCORE.heavy>
25

>  <SCORE.norm>
-1.54295

>  <RMSD>
16.859

$$$$
1uud_lig
 OpenBabel11021811413D
libRbt.so/2013.1/901 2013/11/27
 25 25  0  0  0  0  0  0  0  0999 V2000
   -4.1265   -9.9732   10.4229 C   0  0  0  0  0  0  0  0  0  0  0  0
   -4.1547   -7.6010   12.1476 O   0  0  0  0  0  0  0  0  0  0  0  0
   -3.3332   -6.9372   13.1197 C   0  0  0  0  0  0  0  0  0  0  0  0
   -5.2486  -10.1953    9.4777 N   0  0  0  0  0  0  0  0  0  0  0  0
   -2.0785   -7.7715   13.4108 C   0  0  0  0  0  0  0  0  0  0  0  0
   -5.1670  -11.5637    8.9141 C   0  0  0  0  0  0  0  0  0  0  0  0
   -5.7948  -12.5607    9.8956 C   0  0  0  0  0  0  0  0  0  0  0  0
   -1.1556   -7.0152   13.9558 N   0  0  0  0  0  0  0  0  0  0  0  0
   -0.5039   -7.3943   15.0391 C   0  0  0  0  0  0  0  0  0  0  0  0
   -7.3197  -12.4075    9.8902 C   0  0  0  0  0  0  0  0  0  0  0  0
   -7.9033  -13.1394    8.6782 C   0  0  0  0  0  0  0  0  0  0  0  0
    0.2136   -8.5582   15.0709 N   0  0  0  0  0  0  0  0  0  0  0  0
   -0.5481   -6.6113   16.1478 N   0  0  0  0  0  0  0  0  0  0  0  0
   -8.6220  -12.3093    7.9602 N   0  0  0  0  0  0  0  0  0  0  0  0
   -9.7700  -11.8321    8.4014 C   0  0  0  0  0  0  0  0  0  0  0  0
   -9.8105  -10.5776    8.9193 N   0  0  0  0  0  0  0  0  0  0  0  0
  -10.9161  -12.5743    8.3587 N   0  0  0  0  0  0  0  0  0  0  0  0
   -4.6428   -8.8395   12.6788 C   0  0  0  0  0  0  0  0  0  0  0  0
   -6.1435  -12.5102   14.2675 O   0  0  0  0  0  0  0  0  0  0  0  0
   -4.6516  -10.0145   11.8730 C   0  0  0  0  0  0  0  0  0  0  0  0
   -5.1591  -11.2318   12.4012 C   0  0  0  0  0  0  0  0  0  0  0  0
   -5.6371  -11.2828   13.7370 C   0  0  0  0  0  0  0  0  0  0  0  0
   -5.6106  -10.1162   14.5477 C   0  0  0  0  0  0  0  0  0  0  0  0
   -5.1071   -8.8953   14.0223 C   0  0  0  0  0  0  0  0  0  0  0  0
   -7.1530  -13.0284   13.3964 C   0  0  0  0  0  0  0  0  0  0  0  0
  1  4  1  0  0  0  0
  2  3  1  0  0  0  0
  3  5  1  0  0  0  0
  4  6  1  0  0  0  0
  5  8  1  0  0  0  0
  6  7  1  0  0  0  0
  7 10  1  0  0  0  0
  8  9  1  0  0  0  0
  9 12  1  0  0  0  0
  9 13  1  0  0  0  0
 10 11  1  0  0  0  0
 11 14  1  0  0  0  0
 14 15  1  0  0  0  0
 15 16  1  0  0  0  0
 15 17  1  0  0  0  0
 18  2  1  0  0  0  0
 18 20  2  0  0  0  0
 18 24  1  0  0  0  0
 19 25  1  0  0  0  0
 20  1  1  0  0  0  0
 20 21  1  0  0  0  0
 21 22  2  0  0  0  0
 22 19  1  0  0  0  0
 22 23  1  0  0  0  0
 23 24  2  0  0  0  0
M  END
>  <CHROM.1>
-105.52617491,64.45766903,160.74350803,82.60815603,132.11401751,72.97327540
80.03417714,58.00324735,-90.43523449,109.14972034,-124.08407276,-69.30856440
100.63207608,-156.40963843,138.55984170,-137.16881670,-113.01957301,-53.15431152
-5.22370998,-10.18832059,11.84518068,-0.34779693,-0.72293908,-1.18820446

>  <Name>
1uud_lig

>  <RI>
0

>  <Rbt.Current_Directory>
/home/itssahil/PROJECTS/Mol_Feturizer/New_Systems/rnas/1uud

>  <Rbt.Executable>
rbdock ($Id: //depot/dev/client3/rdock/2013.1/src/exe/rbdock.cxx#4 $)

>  <Rbt.Library>
libRbt.so (2013.1, Build901 2013/11/27)

>  <Rbt.Parameter_File>
/export/apps/rDock/src/rDock_2013.1_src/data/scripts/dock_solv.prm

>  <Rbt.Receptor>
prm/blind_docking_20.prm

>  <SCORE>
-15.6388

>  <SCORE.INTER>
-15.0779

>  <SCORE.INTER.CONST>
1

>  <SCORE.INTER.POLAR>
-3.00898

>  <SCORE.INTER.ROT>
18

>  <SCORE.INTER.SOLV>
11.89

>  <SCORE.INTER.VDW>
-19.5853

>  <SCORE.INTER.norm>
-0.603116

>  <SCORE.INTRA>
-1.75175

>  <SCORE.INTRA.DIHEDRAL>
-1.89104

>  <SCORE.INTRA.DIHEDRAL.0>
30.6762

>  <SCORE.INTRA.POLAR>
0.0288659

>  <SCORE.INTRA.POLAR.0>
-0.0288659

>  <SCORE.INTRA.REPUL>
0

>  <SCORE.INTRA.REPUL.0>
0

>  <SCORE.INTRA.SOLV>
-1.00164

>  <SCORE.INTRA.SOLV.lig_0>
-25.2195

>  <SCORE.INTRA.VDW>
-0.403558

>  <SCORE.INTRA.VDW.0>
4.14263

>  <SCORE.INTRA.norm>
-0.07007

>  <SCORE.RESTR>
1.1908

>  <SCORE.RESTR.CAVITY>
1.1908

>  <SCORE.RESTR.norm>
0.047632

>  <SCORE.SYSTEM>
0

>  <SCORE.SYSTEM.CONST>
0

>  <SCORE.SYSTEM.DIHEDRAL>
0

>  <SCORE.SYSTEM.SOLV>
0

>  <SCORE.SYSTEM.norm>
0

>  <SCORE.heavy>
25

>  <SCORE.norm>
-0.625554

>  <RMSD>
16.863

$$$$
1uud_lig
 OpenBabel11021811413D
libRbt.so/2013.1/901 2013/11/27
 25 25  0  0  0  0  0  0  0  0999 V2000
   -5.8417   -8.9337   10.9852 C   0  0  0  0  0  0  0  0  0  0  0  0
   -4.1010   -8.0225   13.1628 O   0  0  0  0  0  0  0  0  0  0  0  0
   -2.7838   -7.4554   13.1011 C   0  0  0  0  0  0  0  0  0  0  0  0
   -5.6117   -9.0474    9.5236 N   0  0  0  0  0  0  0  0  0  0  0  0
   -2.0086   -7.7762   14.3862 C   0  0  0  0  0  0  0  0  0  0  0  0
   -6.3016  -10.2497    8.9988 C   0  0  0  0  0  0  0  0  0  0  0  0
   -7.5321   -9.8225    8.1895 C   0  0  0  0  0  0  0  0  0  0  0  0
   -0.8595   -7.1436   14.3845 N   0  0  0  0  0  0  0  0  0  0  0  0
    0.1852   -7.6087   15.0435 C   0  0  0  0  0  0  0  0  0  0  0  0
   -8.3832  -11.0504    7.8479 C   0  0  0  0  0  0  0  0  0  0  0  0
   -9.5656  -11.1391    8.8170 C   0  0  0  0  0  0  0  0  0  0  0  0
    1.4473   -7.1383   14.8060 N   0  0  0  0  0  0  0  0  0  0  0  0
    0.0027   -8.5774   15.9776 N   0  0  0  0  0  0  0  0  0  0  0  0
  -10.4224  -12.0377    8.3932 N   0  0  0  0  0  0  0  0  0  0  0  0
  -11.6832  -12.0251    8.7815 C   0  0  0  0  0  0  0  0  0  0  0  0
  -12.5106  -13.0230    8.3773 N   0  0  0  0  0  0  0  0  0  0  0  0
  -12.1777  -11.0266    9.5718 N   0  0  0  0  0  0  0  0  0  0  0  0
   -4.0600   -9.4049   12.7863 C   0  0  0  0  0  0  0  0  0  0  0  0
   -3.9543  -13.5378   11.7102 O   0  0  0  0  0  0  0  0  0  0  0  0
   -4.8930   -9.8901   11.7372 C   0  0  0  0  0  0  0  0  0  0  0  0
   -4.8619  -11.2666   11.3872 C   0  0  0  0  0  0  0  0  0  0  0  0
   -3.9866  -12.1536   12.0672 C   0  0  0  0  0  0  0  0  0  0  0  0
   -3.1413  -11.6669   13.1004 C   0  0  0  0  0  0  0  0  0  0  0  0
   -3.1717  -10.2912   13.4563 C   0  0  0  0  0  0  0  0  0  0  0  0
   -4.0239  -13.6674   10.2872 C   0  0  0  0  0  0  0  0  0  0  0  0
  1  4  1  0  0  0  0
  2  3  1  0  0  0  0
  3  5  1  0  0  0  0
  4  6  1  0  0  0  0
  5  8  1  0  0  0  0
  6  7  1  0  0  0  0
  7 10  1  0  0  0  0
  8  9  1  0  0  0  0
  9 12  1  0  0  0  0
  9 13  1  0  0  0  0
 10 11  1  0  0  0  0
 11 14  1  0  0  0  0
 14 15  1  0  0  0  0
 15 16  1  0  0  0  0
 15 17  1  0  0  0  0
 18  2  1  0  0  0  0
 18 20  2  0  0  0  0
 18 24  1  0  0  0  0
 19 25  1  0  0  0  0
 20  1  1  0  0  0  0
 20 21  1  0  0  0  0
 21 22  2  0  0  0  0
 22 19  1  0  0  0  0
 22 23  1  0  0  0  0
 23 24  2  0  0  0  0
M  END
>  <CHROM.1>
79.70563519,-82.52933707,-173.58167612,107.10148232,-152.90008637,-170.29972706
100.13218168,164.77028212,176.64021566,112.42358525,168.91621103,-158.50664131
-176.11095903,55.06709436,25.13138327,-125.08843759,127.11960702,40.90424528
-5.23358982,-10.14790917,11.45937404,2.75649786,0.49674175,-2.98384610

>  <Name>
1uud_lig

>  <RI>
0

>  <Rbt.Current_Directory>
/home/itssahil/PROJECTS/Mol_Feturizer/New_Systems/rnas/1uud

>  <Rbt.Executable>
rbdock ($Id: //depot/dev/client3/rdock/2013.1/src/exe/rbdock.cxx#4 $)

>  <Rbt.Library>
libRbt.so (2013.1, Build901 2013/11/27)

>  <Rbt.Parameter_File>
/export/apps/rDock/src/rDock_2013.1_src/data/scripts/dock_solv.prm

>  <Rbt.Receptor>
prm/blind_docking_20.prm

>  <SCORE>
-23.9615

>  <SCORE.INTER>
-25.4887

>  <SCORE.INTER.CONST>
1

>  <SCORE.INTER.POLAR>
-4.15963

>  <SCORE.INTER.ROT>
18

>  <SCORE.INTER.SOLV>
10.6155

>  <SCORE.INTER.VDW>
-22.2655

>  <SCORE.INTER.norm>
-1.01955

>  <SCORE.INTRA>
0.885103

>  <SCORE.INTRA.DIHEDRAL>
-3.18999

>  <SCORE.INTRA.DIHEDRAL.0>
30.6762

>  <SCORE.INTRA.POLAR>
0.0288659

>  <SCORE.INTRA.POLAR.0>
-0.0288659

>  <SCORE.INTRA.REPUL>
0

>  <SCORE.INTRA.REPUL.0>
0

>  <SCORE.INTRA.SOLV>
-1.47133

>  <SCORE.INTRA.SOLV.lig_0>
-25.2195

>  <SCORE.INTRA.VDW>
3.11762

>  <SCORE.INTRA.VDW.0>
4.14263

>  <SCORE.INTRA.norm>
0.0354041

>  <SCORE.RESTR>
0.642117

>  <SCORE.RESTR.CAVITY>
0.642117

>  <SCORE.RESTR.norm>
0.0256847

>  <SCORE.SYSTEM>
0

>  <SCORE.SYSTEM.CONST>
0

>  <SCORE.SYSTEM.DIHEDRAL>
0

>  <SCORE.SYSTEM.SOLV>
0

>  <SCORE.SYSTEM.norm>
0

>  <SCORE.heavy>
25

>  <SCORE.norm>
-0.958461

>  <RMSD>
16.866

$$$$
1uud_lig
 OpenBabel11021811413D
libRbt.so/2013.1/901 2013/11/27
 25 25  0  0  0  0  0  0  0  0999 V2000
   -3.6935   -8.0826   12.3847 C   0  0  0  0  0  0  0  0  0  0  0  0
   -1.2302   -8.8474   13.7810 O   0  0  0  0  0  0  0  0  0  0  0  0
   -1.9120   -8.1329   14.8226 C   0  0  0  0  0  0  0  0  0  0  0  0
   -4.1596   -7.8751   10.9911 N   0  0  0  0  0  0  0  0  0  0  0  0
   -1.1927   -8.3367   16.1628 C   0  0  0  0  0  0  0  0  0  0  0  0
   -5.6349   -8.0037   10.9308 C   0  0  0  0  0  0  0  0  0  0  0  0
   -6.1067   -7.8222    9.4830 C   0  0  0  0  0  0  0  0  0  0  0  0
   -0.0081   -7.7747   16.1241 N   0  0  0  0  0  0  0  0  0  0  0  0
    1.0904   -8.4901   15.9701 C   0  0  0  0  0  0  0  0  0  0  0  0
   -5.7754   -9.0757    8.6659 C   0  0  0  0  0  0  0  0  0  0  0  0
   -6.7026  -10.2199    9.0855 C   0  0  0  0  0  0  0  0  0  0  0  0
    1.9153   -8.3104   14.8941 N   0  0  0  0  0  0  0  0  0  0  0  0
    1.4077   -9.4268   16.9007 N   0  0  0  0  0  0  0  0  0  0  0  0
   -6.2733  -11.3505    8.5768 N   0  0  0  0  0  0  0  0  0  0  0  0
   -7.0686  -12.3954    8.4500 C   0  0  0  0  0  0  0  0  0  0  0  0
   -8.1398  -12.5164    9.2755 N   0  0  0  0  0  0  0  0  0  0  0  0
   -6.8335  -13.3631    7.5148 N   0  0  0  0  0  0  0  0  0  0  0  0
   -2.0731   -9.8840   13.2618 C   0  0  0  0  0  0  0  0  0  0  0  0
   -4.5926  -12.9906   11.7614 O   0  0  0  0  0  0  0  0  0  0  0  0
   -3.2812   -9.5562   12.5815 C   0  0  0  0  0  0  0  0  0  0  0  0
   -4.1213  -10.5915   12.0911 C   0  0  0  0  0  0  0  0  0  0  0  0
   -3.7472  -11.9506   12.2596 C   0  0  0  0  0  0  0  0  0  0  0  0
   -2.5329  -12.2781   12.9207 C   0  0  0  0  0  0  0  0  0  0  0  0
   -1.6911  -11.2456   13.4161 C   0  0  0  0  0  0  0  0  0  0  0  0
   -4.1796  -13.3523   10.4403 C   0  0  0  0  0  0  0  0  0  0  0  0
  1  4  1  0  0  0  0
  2  3  1  0  0  0  0
  3  5  1  0  0  0  0
  4  6  1  0  0  0  0
  5  8  1  0  0  0  0
  6  7  1  0  0  0  0
  7 10  1  0  0  0  0
  8  9  1  0  0  0  0
  9 12  1  0  0  0  0
  9 13  1  0  0  0  0
 10 11  1  0  0  0  0
 11 14  1  0  0  0  0
 14 15  1  0  0  0  0
 15 16  1  0  0  0  0
 15 17  1  0  0  0  0
 18  2  1  0  0  0  0
 18 20  2  0  0  0  0
 18 24  1  0  0  0  0
 19 25  1  0  0  0  0
 20  1  1  0  0  0  0
 20 21  1  0  0  0  0
 21 22  2  0  0  0  0
 22 19  1  0  0  0  0
 22 23  1  0  0  0  0
 23 24  2  0  0  0  0
M  END
>  <CHROM.1>
94.79762212,115.34963249,66.30387842,-178.63182632,-103.13348054,74.53689832
71.96414577,118.88162340,-155.55551254,-50.76966663,-168.53290738,-159.89156883
-25.47337355,-91.38485856,101.42199163,64.85449370,135.21030941,92.89766960
-3.45749862,-10.07777563,12.08803891,0.33535532,-0.76063722,0.05400198

>  <Name>
1uud_lig

>  <RI>
0

>  <Rbt.Current_Directory>
/home/itssahil/PROJECTS/Mol_Feturizer/New_Systems/rnas/1uud

>  <Rbt.Executable>
rbdock ($Id: //depot/dev/client3/rdock/2013.1/src/exe/rbdock.cxx#4 $)

>  <Rbt.Library>
libRbt.so (2013.1, Build901 2013/11/27)

>  <Rbt.Parameter_File>
/export/apps/rDock/src/rDock_2013.1_src/data/scripts/dock_solv.prm

>  <Rbt.Receptor>
prm/blind_docking_40.prm

>  <SCORE>
-32.7539

>  <SCORE.INTER>
-28.2723

>  <SCORE.INTER.CONST>
1

>  <SCORE.INTER.POLAR>
-3.29626

>  <SCORE.INTER.ROT>
18

>  <SCORE.INTER.SOLV>
10.8759

>  <SCORE.INTER.VDW>
-27.086

>  <SCORE.INTER.norm>
-1.13089

>  <SCORE.INTRA>
-4.5114

>  <SCORE.INTRA.DIHEDRAL>
-0.307432

>  <SCORE.INTRA.DIHEDRAL.0>
30.6762

>  <SCORE.INTRA.POLAR>
0.0288659

>  <SCORE.INTRA.POLAR.0>
-0.0288659

>  <SCORE.INTRA.REPUL>
0

>  <SCORE.INTRA.REPUL.0>
0

>  <SCORE.INTRA.SOLV>
-0.194494

>  <SCORE.INTRA.SOLV.lig_0>
-25.2195

>  <SCORE.INTRA.VDW>
-4.35858

>  <SCORE.INTRA.VDW.0>
4.14263

>  <SCORE.INTRA.norm>
-0.180456

>  <SCORE.RESTR>
0.0297904

>  <SCORE.RESTR.CAVITY>
0.0297904

>  <SCORE.RESTR.norm>
0.00119161

>  <SCORE.SYSTEM>
0

>  <SCORE.SYSTEM.CONST>
0

>  <SCORE.SYSTEM.DIHEDRAL>
0

>  <SCORE.SYSTEM.SOLV>
0

>  <SCORE.SYSTEM.norm>
0

>  <SCORE.heavy>
25

>  <SCORE.norm>
-1.31015

>  <RMSD>
16.899

$$$$
1uud_lig
 OpenBabel11021811413D
libRbt.so/2013.1/901 2013/11/27
 25 25  0  0  0  0  0  0  0  0999 V2000
   -1.5101  -11.4547   12.8896 C   0  0  0  0  0  0  0  0  0  0  0  0
   -3.3749   -9.1928   12.7984 O   0  0  0  0  0  0  0  0  0  0  0  0
   -3.9144   -7.8951   12.5062 C   0  0  0  0  0  0  0  0  0  0  0  0
   -2.9499  -11.5579   12.5455 N   0  0  0  0  0  0  0  0  0  0  0  0
   -4.9612   -7.9963   11.3886 C   0  0  0  0  0  0  0  0  0  0  0  0
   -3.7079  -12.0782   13.7080 C   0  0  0  0  0  0  0  0  0  0  0  0
   -5.2013  -12.1319   13.3641 C   0  0  0  0  0  0  0  0  0  0  0  0
   -4.3786   -7.8802   10.2190 N   0  0  0  0  0  0  0  0  0  0  0  0
   -5.0717   -7.9159    9.0963 C   0  0  0  0  0  0  0  0  0  0  0  0
   -5.4104  -12.9319   12.0737 C   0  0  0  0  0  0  0  0  0  0  0  0
   -6.9036  -12.9781   11.7366 C   0  0  0  0  0  0  0  0  0  0  0  0
   -4.5872   -8.5339    7.9765 N   0  0  0  0  0  0  0  0  0  0  0  0
   -6.2933   -7.3241    9.0519 N   0  0  0  0  0  0  0  0  0  0  0  0
   -7.0725  -13.4560   10.5265 N   0  0  0  0  0  0  0  0  0  0  0  0
   -7.5097  -12.6967    9.5403 C   0  0  0  0  0  0  0  0  0  0  0  0
   -8.0733  -11.4956    9.8291 N   0  0  0  0  0  0  0  0  0  0  0  0
   -7.4178  -13.0951    8.2369 N   0  0  0  0  0  0  0  0  0  0  0  0
   -2.1812   -9.0648   13.5814 C   0  0  0  0  0  0  0  0  0  0  0  0
    1.3485   -8.6786   15.9568 O   0  0  0  0  0  0  0  0  0  0  0  0
   -1.2512  -10.1416   13.6571 C   0  0  0  0  0  0  0  0  0  0  0  0
   -0.0825  -10.0135   14.4546 C   0  0  0  0  0  0  0  0  0  0  0  0
    0.1694   -8.8064   15.1581 C   0  0  0  0  0  0  0  0  0  0  0  0
   -0.7477   -7.7249   15.0677 C   0  0  0  0  0  0  0  0  0  0  0  0
   -1.9200   -7.8500   14.2739 C   0  0  0  0  0  0  0  0  0  0  0  0
    1.0541   -9.0447   17.3080 C   0  0  0  0  0  0  0  0  0  0  0  0
  1  4  1  0  0  0  0
  2  3  1  0  0  0  0
  3  5  1  0  0  0  0
  4  6  1  0  0  0  0
  5  8  1  0  0  0  0
  6  7  1  0  0  0  0
  7 10  1  0  0  0  0
  8  9  1  0  0  0  0
  9 12  1  0  0  0  0
  9 13  1  0  0  0  0
 10 11  1  0  0  0  0
 11 14  1  0  0  0  0
 14 15  1  0  0  0  0
 15 16  1  0  0  0  0
 15 17  1  0  0  0  0
 18  2  1  0  0  0  0
 18 20  2  0  0  0  0
 18 24  1  0  0  0  0
 19 25  1  0  0  0  0
 20  1  1  0  0  0  0
 20 21  1  0  0  0  0
 21 22  2  0  0  0  0
 22 19  1  0  0  0  0
 22 23  1  0  0  0  0
 23 24  2  0  0  0  0
M  END
>  <CHROM.1>
-82.22068403,165.47090869,-88.51105555,177.85937498,-179.06011632,53.98286660
-179.89550641,-142.18196796,123.55109817,-96.66543311,169.20710950,-111.42028547
-14.75605998,77.97866917,-1.55717629,-160.88659918,-19.61730709,-93.28427856
-3.76064936,-10.09862591,12.18528249,0.03544944,0.74199616,2.67792124

>  <Name>
1uud_lig

>  <RI>
0

>  <Rbt.Current_Directory>
/home/itssahil/PROJECTS/Mol_Feturizer/New_Systems/rnas/1uud

>  <Rbt.Executable>
rbdock ($Id: //depot/dev/client3/rdock/2013.1/src/exe/rbdock.cxx#4 $)

>  <Rbt.Library>
libRbt.so (2013.1, Build901 2013/11/27)

>  <Rbt.Parameter_File>
/export/apps/rDock/src/rDock_2013.1_src/data/scripts/dock_solv.prm

>  <Rbt.Receptor>
prm/blind_docking_20.prm

>  <SCORE>
-24.602

>  <SCORE.INTER>
-20.0055

>  <SCORE.INTER.CONST>
1

>  <SCORE.INTER.POLAR>
-2.89191

>  <SCORE.INTER.ROT>
18

>  <SCORE.INTER.SOLV>
11.1741

>  <SCORE.INTER.VDW>
-23.022

>  <SCORE.INTER.norm>
-0.800221

>  <SCORE.INTRA>
-5.69445

>  <SCORE.INTRA.DIHEDRAL>
-9.88226

>  <SCORE.INTRA.DIHEDRAL.0>
30.6762

>  <SCORE.INTRA.POLAR>
-0.501468

>  <SCORE.INTRA.POLAR.0>
-0.0288659

>  <SCORE.INTRA.REPUL>
0

>  <SCORE.INTRA.REPUL.0>
0

>  <SCORE.INTRA.SOLV>
-0.723701

>  <SCORE.INTRA.SOLV.lig_0>
-25.2195

>  <SCORE.INTRA.VDW>
1.31352

>  <SCORE.INTRA.VDW.0>
4.14263

>  <SCORE.INTRA.norm>
-0.227778

>  <SCORE.RESTR>
1.09796

>  <SCORE.RESTR.CAVITY>
1.09796

>  <SCORE.RESTR.norm>
0.0439185

>  <SCORE.SYSTEM>
0

>  <SCORE.SYSTEM.CONST>
0

>  <SCORE.SYSTEM.DIHEDRAL>
0

>  <SCORE.SYSTEM.SOLV>
0

>  <SCORE.SYSTEM.norm>
0

>  <SCORE.heavy>
25

>  <SCORE.norm>
-0.98408

>  <RMSD>
16.908

$$$$
1uud_lig
 OpenBabel11021811413D
libRbt.so/2013.1/901 2013/11/27
 25 25  0  0  0  0  0  0  0  0999 V2000
   -2.8169  -10.7319   12.2733 C   0  0  0  0  0  0  0  0  0  0  0  0
   -3.0730   -9.0452   14.6591 O   0  0  0  0  0  0  0  0  0  0  0  0
   -1.6904   -8.6599   14.6429 C   0  0  0  0  0  0  0  0  0  0  0  0
   -3.6006  -11.7911   11.5907 N   0  0  0  0  0  0  0  0  0  0  0  0
   -0.8652   -9.6117   15.5195 C   0  0  0  0  0  0  0  0  0  0  0  0
   -4.7686  -12.1663   12.4224 C   0  0  0  0  0  0  0  0  0  0  0  0
   -5.3453  -13.4976   11.9258 C   0  0  0  0  0  0  0  0  0  0  0  0
   -0.1130   -8.9214   16.3431 N   0  0  0  0  0  0  0  0  0  0  0  0
    1.1983   -8.8703   16.2017 C   0  0  0  0  0  0  0  0  0  0  0  0
   -6.8314  -13.3294   11.5912 C   0  0  0  0  0  0  0  0  0  0  0  0
   -6.9751  -12.5989   10.2529 C   0  0  0  0  0  0  0  0  0  0  0  0
    2.0409   -9.1587   17.2397 N   0  0  0  0  0  0  0  0  0  0  0  0
    1.7225   -8.5221   14.9983 N   0  0  0  0  0  0  0  0  0  0  0  0
   -8.2451  -12.4140    9.9805 N   0  0  0  0  0  0  0  0  0  0  0  0
   -8.6430  -12.0118    8.7887 C   0  0  0  0  0  0  0  0  0  0  0  0
   -9.9663  -12.0445    8.4864 N   0  0  0  0  0  0  0  0  0  0  0  0
   -7.7540  -11.5732    7.8488 N   0  0  0  0  0  0  0  0  0  0  0  0
   -3.7160   -8.6228   13.4497 C   0  0  0  0  0  0  0  0  0  0  0  0
   -5.6033   -7.3228    9.8444 O   0  0  0  0  0  0  0  0  0  0  0  0
   -3.6124   -9.4100   12.2667 C   0  0  0  0  0  0  0  0  0  0  0  0
   -4.2339   -8.9709   11.0671 C   0  0  0  0  0  0  0  0  0  0  0  0
   -4.9753   -7.7603   11.0522 C   0  0  0  0  0  0  0  0  0  0  0  0
   -5.0955   -6.9845   12.2365 C   0  0  0  0  0  0  0  0  0  0  0  0
   -4.4724   -7.4181   13.4380 C   0  0  0  0  0  0  0  0  0  0  0  0
   -6.3434   -8.4040    9.2703 C   0  0  0  0  0  0  0  0  0  0  0  0
  1  4  1  0  0  0  0
  2  3  1  0  0  0  0
  3  5  1  0  0  0  0
  4  6  1  0  0  0  0
  5  8  1  0  0  0  0
  6  7  1  0  0  0  0
  7 10  1  0  0  0  0
  8  9  1  0  0  0  0
  9 12  1  0  0  0  0
  9 13  1  0  0  0  0
 10 11  1  0  0  0  0
 11 14  1  0  0  0  0
 14 15  1  0  0  0  0
 15 16  1  0  0  0  0
 15 17  1  0  0  0  0
 18  2  1  0  0  0  0
 18 20  2  0  0  0  0
 18 24  1  0  0  0  0
 19 25  1  0  0  0  0
 20  1  1  0  0  0  0
 20 21  1  0  0  0  0
 21 22  2  0  0  0  0
 22 19  1  0  0  0  0
 22 23  1  0  0  0  0
 23 24  2  0  0  0  0
M  END
>  <CHROM.1>
-70.11677476,-153.28253859,-130.15210252,-164.38422441,-109.75449828,-124.35326716
76.33524810,-127.82057093,-134.65085092,45.18733365,-178.02566074,-168.46054919
169.30568130,-97.59711861,135.69166334,82.58417272,134.32131026,48.83882424
-4.14156830,-10.02971129,12.28212081,-0.15761640,0.69539992,2.97544676

>  <Name>
1uud_lig

>  <RI>
0

>  <Rbt.Current_Directory>
/home/itssahil/PROJECTS/Mol_Feturizer/New_Systems/rnas/1uud

>  <Rbt.Executable>
rbdock ($Id: //depot/dev/client3/rdock/2013.1/src/exe/rbdock.cxx#4 $)

>  <Rbt.Library>
libRbt.so (2013.1, Build901 2013/11/27)

>  <Rbt.Parameter_File>
/export/apps/rDock/src/rDock_2013.1_src/data/scripts/dock_solv.prm

>  <Rbt.Receptor>
prm/blind_docking_40.prm

>  <SCORE>
-27.1936

>  <SCORE.INTER>
-26.1925

>  <SCORE.INTER.CONST>
1

>  <SCORE.INTER.POLAR>
-4.14608

>  <SCORE.INTER.ROT>
18

>  <SCORE.INTER.SOLV>
9.79607

>  <SCORE.INTER.VDW>
-22.5068

>  <SCORE.INTER.norm>
-1.0477

>  <SCORE.INTRA>
-1.60262

>  <SCORE.INTRA.DIHEDRAL>
2.5505

>  <SCORE.INTRA.DIHEDRAL.0>
30.6762

>  <SCORE.INTRA.POLAR>
0.0288659

>  <SCORE.INTRA.POLAR.0>
-0.0288659

>  <SCORE.INTRA.REPUL>
0

>  <SCORE.INTRA.REPUL.0>
0

>  <SCORE.INTRA.SOLV>
-1.14918

>  <SCORE.INTRA.SOLV.lig_0>
-25.2195

>  <SCORE.INTRA.VDW>
-2.40142

>  <SCORE.INTRA.VDW.0>
4.14263

>  <SCORE.INTRA.norm>
-0.0641047

>  <SCORE.RESTR>
0.601541

>  <SCORE.RESTR.CAVITY>
0.601541

>  <SCORE.RESTR.norm>
0.0240616

>  <SCORE.SYSTEM>
0

>  <SCORE.SYSTEM.CONST>
0

>  <SCORE.SYSTEM.DIHEDRAL>
0

>  <SCORE.SYSTEM.SOLV>
0

>  <SCORE.SYSTEM.norm>
0

>  <SCORE.heavy>
25

>  <SCORE.norm>
-1.08775

>  <RMSD>
16.910

$$$$
1uud_lig
 OpenBabel11021811413D
libRbt.so/2013.1/901 2013/11/27
 25 25  0  0  0  0  0  0  0  0999 V2000
   -2.5308  -10.6438   12.3700 C   0  0  0  0  0  0  0  0  0  0  0  0
   -1.5312   -8.5688   14.1859 O   0  0  0  0  0  0  0  0  0  0  0  0
   -0.5056   -7.5739   14.0494 C   0  0  0  0  0  0  0  0  0  0  0  0
   -3.4195  -11.6113   13.0602 N   0  0  0  0  0  0  0  0  0  0  0  0
    0.7098   -7.9450   14.9098 C   0  0  0  0  0  0  0  0  0  0  0  0
   -3.5833  -12.8257   12.2264 C   0  0  0  0  0  0  0  0  0  0  0  0
   -5.0704  -13.0404   11.9197 C   0  0  0  0  0  0  0  0  0  0  0  0
    0.4030   -7.8489   16.1816 N   0  0  0  0  0  0  0  0  0  0  0  0
    0.1813   -6.6792   16.7513 C   0  0  0  0  0  0  0  0  0  0  0  0
   -5.6015  -11.8773   11.0749 C   0  0  0  0  0  0  0  0  0  0  0  0
   -4.8478  -11.8266    9.7427 C   0  0  0  0  0  0  0  0  0  0  0  0
   -1.0882   -6.2290   16.9887 N   0  0  0  0  0  0  0  0  0  0  0  0
    1.2379   -5.9046   17.1088 N   0  0  0  0  0  0  0  0  0  0  0  0
   -5.2398  -12.8128    8.9714 N   0  0  0  0  0  0  0  0  0  0  0  0
   -5.6167  -12.6047    7.7243 C   0  0  0  0  0  0  0  0  0  0  0  0
   -5.1857  -11.4902    7.0795 N   0  0  0  0  0  0  0  0  0  0  0  0
   -6.4384  -13.4787    7.0708 N   0  0  0  0  0  0  0  0  0  0  0  0
   -2.6382   -8.2552   13.3310 C   0  0  0  0  0  0  0  0  0  0  0  0
   -5.9095   -7.2854   10.7603 O   0  0  0  0  0  0  0  0  0  0  0  0
   -3.1513   -9.2326   12.4303 C   0  0  0  0  0  0  0  0  0  0  0  0
   -4.2337   -8.9046   11.5706 C   0  0  0  0  0  0  0  0  0  0  0  0
   -4.8175   -7.6116   11.6238 C   0  0  0  0  0  0  0  0  0  0  0  0
   -4.3191   -6.6424   12.5356 C   0  0  0  0  0  0  0  0  0  0  0  0
   -3.2341   -6.9651   13.3950 C   0  0  0  0  0  0  0  0  0  0  0  0
   -7.1195   -7.8356   11.2892 C   0  0  0  0  0  0  0  0  0  0  0  0
  1  4  1  0  0  0  0
  2  3  1  0  0  0  0
  3  5  1  0  0  0  0
  4  6  1  0  0  0  0
  5  8  1  0  0  0  0
  6  7  1  0  0  0  0
  7 10  1  0  0  0  0
  8  9  1  0  0  0  0
  9 12  1  0  0  0  0
  9 13  1  0  0  0  0
 10 11  1  0  0  0  0
 11 14  1  0  0  0  0
 14 15  1  0  0  0  0
 15 16  1  0  0  0  0
 15 17  1  0  0  0  0
 18  2  1  0  0  0  0
 18 20  2  0  0  0  0
 18 24  1  0  0  0  0
 19 25  1  0  0  0  0
 20  1  1  0  0  0  0
 20 21  1  0  0  0  0
 21 22  2  0  0  0  0
 22 19  1  0  0  0  0
 22 23  1  0  0  0  0
 23 24  2  0  0  0  0
M  END
>  <CHROM.1>
133.77005882,-177.13732738,-68.32140830,-121.68522532,-69.29198833,64.10030336
61.60015303,100.80194615,-175.57009677,142.27394911,73.20195656,129.43787589
22.54894286,140.72955039,166.95609666,128.01129215,104.10680369,78.99294382
-3.33971997,-9.45498230,12.33299283,-2.34973572,-0.72249125,0.35568595

>  <Name>
1uud_lig

>  <RI>
0

>  <Rbt.Current_Directory>
/home/itssahil/PROJECTS/Mol_Feturizer/New_Systems/rnas/1uud

>  <Rbt.Executable>
rbdock ($Id: //depot/dev/client3/rdock/2013.1/src/exe/rbdock.cxx#4 $)

>  <Rbt.Library>
libRbt.so (2013.1, Build901 2013/11/27)

>  <Rbt.Parameter_File>
/export/apps/rDock/src/rDock_2013.1_src/data/scripts/dock_solv.prm

>  <Rbt.Receptor>
prm/blind_docking_80.prm

>  <SCORE>
-35.2433

>  <SCORE.INTER>
-30.8408

>  <SCORE.INTER.CONST>
1

>  <SCORE.INTER.POLAR>
-4.2243

>  <SCORE.INTER.ROT>
18

>  <SCORE.INTER.SOLV>
12.0048

>  <SCORE.INTER.VDW>
-26.0811

>  <SCORE.INTER.norm>
-1.23363

>  <SCORE.INTRA>
-4.46387

>  <SCORE.INTRA.DIHEDRAL>
-5.0044

>  <SCORE.INTRA.DIHEDRAL.0>
30.6762

>  <SCORE.INTRA.POLAR>
0.0288659

>  <SCORE.INTRA.POLAR.0>
-0.0288659

>  <SCORE.INTRA.REPUL>
0

>  <SCORE.INTRA.REPUL.0>
0

>  <SCORE.INTRA.SOLV>
-0.401291

>  <SCORE.INTRA.SOLV.lig_0>
-25.2195

>  <SCORE.INTRA.VDW>
-1.85916

>  <SCORE.INTRA.VDW.0>
4.14263

>  <SCORE.INTRA.norm>
-0.178555

>  <SCORE.RESTR>
0.0613803

>  <SCORE.RESTR.CAVITY>
0.0613803

>  <SCORE.RESTR.norm>
0.00245521

>  <SCORE.SYSTEM>
0

>  <SCORE.SYSTEM.CONST>
0

>  <SCORE.SYSTEM.DIHEDRAL>
0

>  <SCORE.SYSTEM.SOLV>
0

>  <SCORE.SYSTEM.norm>
0

>  <SCORE.heavy>
25

>  <SCORE.norm>
-1.40973

>  <RMSD>
16.916

$$$$
1uud_lig
 OpenBabel11021811413D
libRbt.so/2013.1/901 2013/11/27
 25 25  0  0  0  0  0  0  0  0999 V2000
   -3.6013   -7.6460   12.3261 C   0  0  0  0  0  0  0  0  0  0  0  0
   -3.2635   -8.7820   15.0090 O   0  0  0  0  0  0  0  0  0  0  0  0
   -1.9174   -8.8133   15.5064 C   0  0  0  0  0  0  0  0  0  0  0  0
   -4.9694   -7.1258   12.5705 N   0  0  0  0  0  0  0  0  0  0  0  0
   -0.9613   -8.1800   14.4866 C   0  0  0  0  0  0  0  0  0  0  0  0
   -5.8178   -7.3654   11.3790 C   0  0  0  0  0  0  0  0  0  0  0  0
   -6.9233   -8.3685   11.7301 C   0  0  0  0  0  0  0  0  0  0  0  0
    0.2198   -8.7445   14.5711 N   0  0  0  0  0  0  0  0  0  0  0  0
    1.2250   -8.1522   15.1880 C   0  0  0  0  0  0  0  0  0  0  0  0
   -6.5663   -9.7524   11.1767 C   0  0  0  0  0  0  0  0  0  0  0  0
   -6.5968   -9.7148    9.6460 C   0  0  0  0  0  0  0  0  0  0  0  0
    2.1362   -8.8656   15.9171 N   0  0  0  0  0  0  0  0  0  0  0  0
    1.3567   -6.8036   15.0978 N   0  0  0  0  0  0  0  0  0  0  0  0
   -7.6993  -10.2756    9.2086 N   0  0  0  0  0  0  0  0  0  0  0  0
   -7.7957  -11.5829    9.0599 C   0  0  0  0  0  0  0  0  0  0  0  0
   -8.3638  -12.3216   10.0474 N   0  0  0  0  0  0  0  0  0  0  0  0
   -7.3282  -12.2112    7.9406 N   0  0  0  0  0  0  0  0  0  0  0  0
   -3.3990   -9.6777   13.8983 C   0  0  0  0  0  0  0  0  0  0  0  0
   -3.8454  -12.3655   10.6078 O   0  0  0  0  0  0  0  0  0  0  0  0
   -3.5702   -9.1676   12.5790 C   0  0  0  0  0  0  0  0  0  0  0  0
   -3.7269  -10.0637   11.4879 C   0  0  0  0  0  0  0  0  0  0  0  0
   -3.6915  -11.4657   11.7084 C   0  0  0  0  0  0  0  0  0  0  0  0
   -3.5012  -11.9754   13.0210 C   0  0  0  0  0  0  0  0  0  0  0  0
   -3.3476  -11.0826   14.1161 C   0  0  0  0  0  0  0  0  0  0  0  0
   -5.1507  -12.9497   10.6453 C   0  0  0  0  0  0  0  0  0  0  0  0
  1  4  1  0  0  0  0
  2  3  1  0  0  0  0
  3  5  1  0  0  0  0
  4  6  1  0  0  0  0
  5  8  1  0  0  0  0
  6  7  1  0  0  0  0
  7 10  1  0  0  0  0
  8  9  1  0  0  0  0
  9 12  1  0  0  0  0
  9 13  1  0  0  0  0
 10 11  1  0  0  0  0
 11 14  1  0  0  0  0
 14 15  1  0  0  0  0
 15 16  1  0  0  0  0
 15 17  1  0  0  0  0
 18  2  1  0  0  0  0
 18 20  2  0  0  0  0
 18 24  1  0  0  0  0
 19 25  1  0  0  0  0
 20  1  1  0  0  0  0
 20 21  1  0  0  0  0
 21 22  2  0  0  0  0
 22 19  1  0  0  0  0
 22 23  1  0  0  0  0
 23 24  2  0  0  0  0
M  END
>  <CHROM.1>
-81.53155191,68.94349094,-149.27110653,113.93562236,-102.31930323,-102.32640216
-67.15492793,143.65210849,89.86654474,-116.77367912,-102.84997388,-83.73026870
96.69730080,-93.99918866,-73.99787153,-109.29865600,-83.82610357,-105.44198282
-3.88346964,-9.73046530,12.34615316,0.47710158,-0.53684310,0.30132852

>  <Name>
1uud_lig

>  <RI>
0

>  <Rbt.Current_Directory>
/home/itssahil/PROJECTS/Mol_Feturizer/New_Systems/rnas/1uud

>  <Rbt.Executable>
rbdock ($Id: //depot/dev/client3/rdock/2013.1/src/exe/rbdock.cxx#4 $)

>  <Rbt.Library>
libRbt.so (2013.1, Build901 2013/11/27)

>  <Rbt.Parameter_File>
/export/apps/rDock/src/rDock_2013.1_src/data/scripts/dock_solv.prm

>  <Rbt.Receptor>
prm/blind_docking_80.prm

>  <SCORE>
-19.6003

>  <SCORE.INTER>
-21.5225

>  <SCORE.INTER.CONST>
1

>  <SCORE.INTER.POLAR>
-3.48858

>  <SCORE.INTER.ROT>
18

>  <SCORE.INTER.SOLV>
12.213

>  <SCORE.INTER.VDW>
-22.3907

>  <SCORE.INTER.norm>
-0.860899

>  <SCORE.INTRA>
-1.27487

>  <SCORE.INTRA.DIHEDRAL>
5.24175

>  <SCORE.INTRA.DIHEDRAL.0>
30.6762

>  <SCORE.INTRA.POLAR>
0.0288659

>  <SCORE.INTRA.POLAR.0>
-0.0288659

>  <SCORE.INTRA.REPUL>
0

>  <SCORE.INTRA.REPUL.0>
0

>  <SCORE.INTRA.SOLV>
-0.180622

>  <SCORE.INTRA.SOLV.lig_0>
-25.2195

>  <SCORE.INTRA.VDW>
-3.90358

>  <SCORE.INTRA.VDW.0>
4.14263

>  <SCORE.INTRA.norm>
-0.0509949

>  <SCORE.RESTR>
3.197

>  <SCORE.RESTR.CAVITY>
3.197

>  <SCORE.RESTR.norm>
0.12788

>  <SCORE.SYSTEM>
0

>  <SCORE.SYSTEM.CONST>
0

>  <SCORE.SYSTEM.DIHEDRAL>
0

>  <SCORE.SYSTEM.SOLV>
0

>  <SCORE.SYSTEM.norm>
0

>  <SCORE.heavy>
25

>  <SCORE.norm>
-0.784014

>  <RMSD>
17.005

$$$$
1uud_lig
 OpenBabel11021811413D
libRbt.so/2013.1/901 2013/11/27
 25 25  0  0  0  0  0  0  0  0999 V2000
   -2.6293  -11.9774   13.0714 C   0  0  0  0  0  0  0  0  0  0  0  0
   -4.3246   -9.5880   13.2100 O   0  0  0  0  0  0  0  0  0  0  0  0
   -5.1030   -8.5800   13.8720 C   0  0  0  0  0  0  0  0  0  0  0  0
   -3.6464  -11.7775   12.0094 N   0  0  0  0  0  0  0  0  0  0  0  0
   -5.2001   -7.3248   12.9944 C   0  0  0  0  0  0  0  0  0  0  0  0
   -4.1965  -13.0877   11.5881 C   0  0  0  0  0  0  0  0  0  0  0  0
   -5.5528  -13.3165   12.2662 C   0  0  0  0  0  0  0  0  0  0  0  0
   -5.3875   -7.6685   11.7424 N   0  0  0  0  0  0  0  0  0  0  0  0
   -6.5928   -7.6877   11.2050 C   0  0  0  0  0  0  0  0  0  0  0  0
   -6.6776  -13.2107   11.2307 C   0  0  0  0  0  0  0  0  0  0  0  0
   -6.5655  -11.8763   10.4879 C   0  0  0  0  0  0  0  0  0  0  0  0
   -6.7799   -7.5044    9.8626 N   0  0  0  0  0  0  0  0  0  0  0  0
   -7.6718   -7.8928   12.0037 N   0  0  0  0  0  0  0  0  0  0  0  0
   -7.6723  -11.6420    9.8235 N   0  0  0  0  0  0  0  0  0  0  0  0
   -8.1560  -12.5147    8.9604 C   0  0  0  0  0  0  0  0  0  0  0  0
   -7.3372  -13.0248    8.0050 N   0  0  0  0  0  0  0  0  0  0  0  0
   -9.4634  -12.9088    8.9995 N   0  0  0  0  0  0  0  0  0  0  0  0
   -2.9465   -9.4726   13.5868 C   0  0  0  0  0  0  0  0  0  0  0  0
    1.1467   -9.1161   14.7569 O   0  0  0  0  0  0  0  0  0  0  0  0
   -2.0896  -10.6099   13.5391 C   0  0  0  0  0  0  0  0  0  0  0  0
   -0.7311  -10.4903   13.9369 C   0  0  0  0  0  0  0  0  0  0  0  0
   -0.2222   -9.2347   14.3610 C   0  0  0  0  0  0  0  0  0  0  0  0
   -1.0710   -8.0956   14.3904 C   0  0  0  0  0  0  0  0  0  0  0  0
   -2.4318   -8.2114   13.9967 C   0  0  0  0  0  0  0  0  0  0  0  0
    1.2159   -8.7332   16.1335 C   0  0  0  0  0  0  0  0  0  0  0  0
  1  4  1  0  0  0  0
  2  3  1  0  0  0  0
  3  5  1  0  0  0  0
  4  6  1  0  0  0  0
  5  8  1  0  0  0  0
  6  7  1  0  0  0  0
  7 10  1  0  0  0  0
  8  9  1  0  0  0  0
  9 12  1  0  0  0  0
  9 13  1  0  0  0  0
 10 11  1  0  0  0  0
 11 14  1  0  0  0  0
 14 15  1  0  0  0  0
 15 16  1  0  0  0  0
 15 17  1  0  0  0  0
 18  2  1  0  0  0  0
 18 20  2  0  0  0  0
 18 24  1  0  0  0  0
 19 25  1  0  0  0  0
 20  1  1  0  0  0  0
 20 21  1  0  0  0  0
 21 22  2  0  0  0  0
 22 19  1  0  0  0  0
 22 23  1  0  0  0  0
 23 24  2  0  0  0  0
M  END
>  <CHROM.1>
-178.25929184,91.74711373,41.17038419,100.15796411,97.21751587,109.08518511
-53.85071890,153.07573279,-175.32964342,89.66053326,-166.00360110,-54.70594000
-50.41593681,71.83678254,-137.78867278,154.02463767,34.70743002,-117.29514561
-4.49754469,-10.23254821,12.16980292,-0.43780029,0.52129382,-2.89706114

>  <Name>
1uud_lig

>  <RI>
0

>  <Rbt.Current_Directory>
/home/itssahil/PROJECTS/Mol_Feturizer/New_Systems/rnas/1uud

>  <Rbt.Executable>
rbdock ($Id: //depot/dev/client3/rdock/2013.1/src/exe/rbdock.cxx#4 $)

>  <Rbt.Library>
libRbt.so (2013.1, Build901 2013/11/27)

>  <Rbt.Parameter_File>
/export/apps/rDock/src/rDock_2013.1_src/data/scripts/dock_solv.prm

>  <Rbt.Receptor>
prm/blind_docking_80.prm

>  <SCORE>
-29.2914

>  <SCORE.INTER>
-29.7436

>  <SCORE.INTER.CONST>
1

>  <SCORE.INTER.POLAR>
-4.04057

>  <SCORE.INTER.ROT>
18

>  <SCORE.INTER.SOLV>
11.1643

>  <SCORE.INTER.VDW>
-25.682

>  <SCORE.INTER.norm>
-1.18975

>  <SCORE.INTRA>
-0.554073

>  <SCORE.INTRA.DIHEDRAL>
-1.75504

>  <SCORE.INTRA.DIHEDRAL.0>
30.6762

>  <SCORE.INTRA.POLAR>
-0.559287

>  <SCORE.INTRA.POLAR.0>
-0.0288659

>  <SCORE.INTRA.REPUL>
0

>  <SCORE.INTRA.REPUL.0>
0

>  <SCORE.INTRA.SOLV>
0.412283

>  <SCORE.INTRA.SOLV.lig_0>
-25.2195

>  <SCORE.INTRA.VDW>
2.01888

>  <SCORE.INTRA.VDW.0>
4.14263

>  <SCORE.INTRA.norm>
-0.0221629

>  <SCORE.RESTR>
1.00636

>  <SCORE.RESTR.CAVITY>
1.00636

>  <SCORE.RESTR.norm>
0.0402544

>  <SCORE.SYSTEM>
0

>  <SCORE.SYSTEM.CONST>
0

>  <SCORE.SYSTEM.DIHEDRAL>
0

>  <SCORE.SYSTEM.SOLV>
0

>  <SCORE.SYSTEM.norm>
0

>  <SCORE.heavy>
25

>  <SCORE.norm>
-1.17165

>  <RMSD>
17.032

$$$$
1uud_lig
 OpenBabel11021811413D
libRbt.so/2013.1/901 2013/11/27
 25 25  0  0  0  0  0  0  0  0999 V2000
   -3.2855  -11.2206   12.5818 C   0  0  0  0  0  0  0  0  0  0  0  0
   -1.5816   -9.3770   14.0985 O   0  0  0  0  0  0  0  0  0  0  0  0
   -2.0341   -9.3880   15.4606 C   0  0  0  0  0  0  0  0  0  0  0  0
   -4.5752  -11.8315   12.9886 N   0  0  0  0  0  0  0  0  0  0  0  0
   -0.8551   -9.1436   16.4121 C   0  0  0  0  0  0  0  0  0  0  0  0
   -4.6729  -13.2069   12.4449 C   0  0  0  0  0  0  0  0  0  0  0  0
   -4.8414  -13.1455   10.9219 C   0  0  0  0  0  0  0  0  0  0  0  0
   -0.2667   -8.0101   16.1125 N   0  0  0  0  0  0  0  0  0  0  0  0
    0.8565   -7.9777   15.4202 C   0  0  0  0  0  0  0  0  0  0  0  0
   -6.2267  -12.5909   10.5728 C   0  0  0  0  0  0  0  0  0  0  0  0
   -7.3015  -13.5989   10.9899 C   0  0  0  0  0  0  0  0  0  0  0  0
    1.5029   -9.1256   15.0525 N   0  0  0  0  0  0  0  0  0  0  0  0
    1.3831   -6.7770   15.0662 N   0  0  0  0  0  0  0  0  0  0  0  0
   -8.3819  -13.4229   10.2668 N   0  0  0  0  0  0  0  0  0  0  0  0
   -8.5045  -13.9608    9.0684 C   0  0  0  0  0  0  0  0  0  0  0  0
   -7.6030  -13.6424    8.1043 N   0  0  0  0  0  0  0  0  0  0  0  0
   -9.5227  -14.8220    8.7724 N   0  0  0  0  0  0  0  0  0  0  0  0
   -2.5959   -8.8285   13.2471 C   0  0  0  0  0  0  0  0  0  0  0  0
   -5.5831   -7.1713   10.6818 O   0  0  0  0  0  0  0  0  0  0  0  0
   -3.4417   -9.6885   12.4889 C   0  0  0  0  0  0  0  0  0  0  0  0
   -4.4286   -9.1345   11.6302 C   0  0  0  0  0  0  0  0  0  0  0  0
   -4.5863   -7.7262   11.5437 C   0  0  0  0  0  0  0  0  0  0  0  0
   -3.7562   -6.8682   12.3142 C   0  0  0  0  0  0  0  0  0  0  0  0
   -2.7652   -7.4180   13.1719 C   0  0  0  0  0  0  0  0  0  0  0  0
   -6.8822   -7.5535   11.1431 C   0  0  0  0  0  0  0  0  0  0  0  0
  1  4  1  0  0  0  0
  2  3  1  0  0  0  0
  3  5  1  0  0  0  0
  4  6  1  0  0  0  0
  5  8  1  0  0  0  0
  6  7  1  0  0  0  0
  7 10  1  0  0  0  0
  8  9  1  0  0  0  0
  9 12  1  0  0  0  0
  9 13  1  0  0  0  0
 10 11  1  0  0  0  0
 11 14  1  0  0  0  0
 14 15  1  0  0  0  0
 15 16  1  0  0  0  0
 15 17  1  0  0  0  0
 18  2  1  0  0  0  0
 18 20  2  0  0  0  0
 18 24  1  0  0  0  0
 19 25  1  0  0  0  0
 20  1  1  0  0  0  0
 20 21  1  0  0  0  0
 21 22  2  0  0  0  0
 22 19  1  0  0  0  0
 22 23  1  0  0  0  0
 23 24  2  0  0  0  0
M  END
>  <CHROM.1>
151.51126018,-146.19512697,56.86914018,-69.77493185,-101.10860512,-69.77475035
-67.90575669,-4.03291221,-159.78944298,-55.05736686,-155.25057148,83.46578695
-59.40995007,70.35789554,-62.22408308,-99.92127366,123.47440235,64.53795957
-4.01190376,-10.26415780,12.41162901,-0.47581114,0.65054377,3.06518958

>  <Name>
1uud_lig

>  <RI>
0

>  <Rbt.Current_Directory>
/home/itssahil/PROJECTS/Mol_Feturizer/New_Systems/rnas/1uud

>  <Rbt.Executable>
rbdock ($Id: //depot/dev/client3/rdock/2013.1/src/exe/rbdock.cxx#4 $)

>  <Rbt.Library>
libRbt.so (2013.1, Build901 2013/11/27)

>  <Rbt.Parameter_File>
/export/apps/rDock/src/rDock_2013.1_src/data/scripts/dock_solv.prm

>  <Rbt.Receptor>
prm/blind_docking_40.prm

>  <SCORE>
-35.7396

>  <SCORE.INTER>
-32.5013

>  <SCORE.INTER.CONST>
1

>  <SCORE.INTER.POLAR>
-4.87794

>  <SCORE.INTER.ROT>
18

>  <SCORE.INTER.SOLV>
14.2027

>  <SCORE.INTER.VDW>
-25.742

>  <SCORE.INTER.norm>
-1.30005

>  <SCORE.INTRA>
-3.85949

>  <SCORE.INTRA.DIHEDRAL>
-2.91535

>  <SCORE.INTRA.DIHEDRAL.0>
30.6762

>  <SCORE.INTRA.POLAR>
0.0288659

>  <SCORE.INTRA.POLAR.0>
-0.0288659

>  <SCORE.INTRA.REPUL>
0

>  <SCORE.INTRA.REPUL.0>
0

>  <SCORE.INTRA.SOLV>
-0.200338

>  <SCORE.INTRA.SOLV.lig_0>
-25.2195

>  <SCORE.INTRA.VDW>
-2.39979

>  <SCORE.INTRA.VDW.0>
4.14263

>  <SCORE.INTRA.norm>
-0.15438

>  <SCORE.RESTR>
0.621204

>  <SCORE.RESTR.CAVITY>
0.621204

>  <SCORE.RESTR.norm>
0.0248482

>  <SCORE.SYSTEM>
0

>  <SCORE.SYSTEM.CONST>
0

>  <SCORE.SYSTEM.DIHEDRAL>
0

>  <SCORE.SYSTEM.SOLV>
0

>  <SCORE.SYSTEM.norm>
0

>  <SCORE.heavy>
25

>  <SCORE.norm>
-1.42958

>  <RMSD>
17.037

$$$$
1uud_lig
 OpenBabel11021811413D
libRbt.so/2013.1/901 2013/11/27
 25 25  0  0  0  0  0  0  0  0999 V2000
   -2.2235  -10.7870   13.6204 C   0  0  0  0  0  0  0  0  0  0  0  0
   -2.7853   -8.0308   12.7898 O   0  0  0  0  0  0  0  0  0  0  0  0
   -3.7922   -7.3437   13.5477 C   0  0  0  0  0  0  0  0  0  0  0  0
   -2.7572  -10.5539   12.2555 N   0  0  0  0  0  0  0  0  0  0  0  0
   -5.1156   -7.3204   12.7711 C   0  0  0  0  0  0  0  0  0  0  0  0
   -3.7561  -11.5969   11.9221 C   0  0  0  0  0  0  0  0  0  0  0  0
   -4.3114  -11.3442   10.5152 C   0  0  0  0  0  0  0  0  0  0  0  0
   -4.8772   -7.2229   11.4848 N   0  0  0  0  0  0  0  0  0  0  0  0
   -5.7284   -7.6849   10.5883 C   0  0  0  0  0  0  0  0  0  0  0  0
   -5.2614  -12.4794   10.1182 C   0  0  0  0  0  0  0  0  0  0  0  0
   -6.7110  -12.0222   10.3047 C   0  0  0  0  0  0  0  0  0  0  0  0
   -5.3561   -8.6248    9.6670 N   0  0  0  0  0  0  0  0  0  0  0  0
   -7.0026   -7.2153   10.5796 N   0  0  0  0  0  0  0  0  0  0  0  0
   -7.5284  -12.9177    9.8036 N   0  0  0  0  0  0  0  0  0  0  0  0
   -7.8596  -12.9108    8.5266 C   0  0  0  0  0  0  0  0  0  0  0  0
   -7.0877  -13.5886    7.6387 N   0  0  0  0  0  0  0  0  0  0  0  0
   -8.9545  -12.2295    8.0759 N   0  0  0  0  0  0  0  0  0  0  0  0
   -1.6355   -8.2781   13.6090 C   0  0  0  0  0  0  0  0  0  0  0  0
    1.7714   -8.9867   16.0872 O   0  0  0  0  0  0  0  0  0  0  0  0
   -1.3293   -9.6015   14.0389 C   0  0  0  0  0  0  0  0  0  0  0  0
   -0.2005   -9.8330   14.8700 C   0  0  0  0  0  0  0  0  0  0  0  0
    0.6336   -8.7504   15.2541 C   0  0  0  0  0  0  0  0  0  0  0  0
    0.3402   -7.4330   14.8098 C   0  0  0  0  0  0  0  0  0  0  0  0
   -0.7900   -7.1963   13.9812 C   0  0  0  0  0  0  0  0  0  0  0  0
    1.3447   -9.1715   17.4401 C   0  0  0  0  0  0  0  0  0  0  0  0
  1  4  1  0  0  0  0
  2  3  1  0  0  0  0
  3  5  1  0  0  0  0
  4  6  1  0  0  0  0
  5  8  1  0  0  0  0
  6  7  1  0  0  0  0
  7 10  1  0  0  0  0
  8  9  1  0  0  0  0
  9 12  1  0  0  0  0
  9 13  1  0  0  0  0
 10 11  1  0  0  0  0
 11 14  1  0  0  0  0
 14 15  1  0  0  0  0
 15 16  1  0  0  0  0
 15 17  1  0  0  0  0
 18  2  1  0  0  0  0
 18 20  2  0  0  0  0
 18 24  1  0  0  0  0
 19 25  1  0  0  0  0
 20  1  1  0  0  0  0
 20 21  1  0  0  0  0
 21 22  2  0  0  0  0
 22 19  1  0  0  0  0
 22 23  1  0  0  0  0
 23 24  2  0  0  0  0
M  END
>  <CHROM.1>
-172.47614253,-168.95163035,-34.51189735,179.57406071,153.38899721,175.51595931
100.82816309,-122.04712247,-17.85925942,25.53644315,171.72613360,-85.98585325
88.57434572,-161.54403827,-23.17620875,108.89357237,34.08892887,-76.89646740
-3.73700877,-9.75556788,12.08533071,-0.44252595,0.64200656,-2.95476117

>  <Name>
1uud_lig

>  <RI>
0

>  <Rbt.Current_Directory>
/home/itssahil/PROJECTS/Mol_Feturizer/New_Systems/rnas/1uud

>  <Rbt.Executable>
rbdock ($Id: //depot/dev/client3/rdock/2013.1/src/exe/rbdock.cxx#4 $)

>  <Rbt.Library>
libRbt.so (2013.1, Build901 2013/11/27)

>  <Rbt.Parameter_File>
/export/apps/rDock/src/rDock_2013.1_src/data/scripts/dock_solv.prm

>  <Rbt.Receptor>
prm/blind_docking_40.prm

>  <SCORE>
-36.9868

>  <SCORE.INTER>
-26.8865

>  <SCORE.INTER.CONST>
1

>  <SCORE.INTER.POLAR>
-3.58733

>  <SCORE.INTER.ROT>
18

>  <SCORE.INTER.SOLV>
12.1798

>  <SCORE.INTER.VDW>
-25.6265

>  <SCORE.INTER.norm>
-1.07546

>  <SCORE.INTRA>
-10.1222

>  <SCORE.INTRA.DIHEDRAL>
-3.64431

>  <SCORE.INTRA.DIHEDRAL.0>
30.6762

>  <SCORE.INTRA.POLAR>
-0.666833

>  <SCORE.INTRA.POLAR.0>
-0.0288659

>  <SCORE.INTRA.REPUL>
0

>  <SCORE.INTRA.REPUL.0>
0

>  <SCORE.INTRA.SOLV>
0.445138

>  <SCORE.INTRA.SOLV.lig_0>
-25.2195

>  <SCORE.INTRA.VDW>
-6.25536

>  <SCORE.INTRA.VDW.0>
4.14263

>  <SCORE.INTRA.norm>
-0.404887

>  <SCORE.RESTR>
0.0218809

>  <SCORE.RESTR.CAVITY>
0.0218809

>  <SCORE.RESTR.norm>
0.000875236

>  <SCORE.SYSTEM>
0

>  <SCORE.SYSTEM.CONST>
0

>  <SCORE.SYSTEM.DIHEDRAL>
0

>  <SCORE.SYSTEM.SOLV>
0

>  <SCORE.SYSTEM.norm>
0

>  <SCORE.heavy>
25

>  <SCORE.norm>
-1.47947

>  <RMSD>
17.054

$$$$
1uud_lig
 OpenBabel11021811413D
libRbt.so/2013.1/901 2013/11/27
 25 25  0  0  0  0  0  0  0  0999 V2000
   -2.5250  -11.2832   12.6879 C   0  0  0  0  0  0  0  0  0  0  0  0
   -1.7001   -9.4949   14.8614 O   0  0  0  0  0  0  0  0  0  0  0  0
   -0.3169   -9.3836   14.4945 C   0  0  0  0  0  0  0  0  0  0  0  0
   -3.7279  -12.1439   12.5676 N   0  0  0  0  0  0  0  0  0  0  0  0
    0.1286   -7.9160   14.5484 C   0  0  0  0  0  0  0  0  0  0  0  0
   -4.0644  -12.3393   11.1375 C   0  0  0  0  0  0  0  0  0  0  0  0
   -5.5513  -12.0374   10.9147 C   0  0  0  0  0  0  0  0  0  0  0  0
    0.0221   -7.4614   15.7743 N   0  0  0  0  0  0  0  0  0  0  0  0
    0.5403   -8.1121   16.7990 C   0  0  0  0  0  0  0  0  0  0  0  0
   -5.7053  -10.8890    9.9116 C   0  0  0  0  0  0  0  0  0  0  0  0
   -7.1736  -10.7684    9.4934 C   0  0  0  0  0  0  0  0  0  0  0  0
   -0.0205   -8.0468   18.0447 N   0  0  0  0  0  0  0  0  0  0  0  0
    1.6568   -8.8624   16.6122 N   0  0  0  0  0  0  0  0  0  0  0  0
   -7.4427  -11.6445    8.5547 N   0  0  0  0  0  0  0  0  0  0  0  0
   -8.4040  -12.5365    8.6994 C   0  0  0  0  0  0  0  0  0  0  0  0
   -9.6954  -12.1510    8.5343 N   0  0  0  0  0  0  0  0  0  0  0  0
   -8.1308  -13.8356    9.0213 N   0  0  0  0  0  0  0  0  0  0  0  0
   -2.5301   -8.9676   13.8185 C   0  0  0  0  0  0  0  0  0  0  0  0
   -4.9668   -7.3638   10.6975 O   0  0  0  0  0  0  0  0  0  0  0  0
   -2.9490   -9.8008   12.7414 C   0  0  0  0  0  0  0  0  0  0  0  0
   -3.7522   -9.2626   11.7005 C   0  0  0  0  0  0  0  0  0  0  0  0
   -4.1549   -7.9019   11.7443 C   0  0  0  0  0  0  0  0  0  0  0  0
   -3.7539   -7.0753   12.8282 C   0  0  0  0  0  0  0  0  0  0  0  0
   -2.9473   -7.6085   13.8698 C   0  0  0  0  0  0  0  0  0  0  0  0
   -6.3421   -7.6602   10.9573 C   0  0  0  0  0  0  0  0  0  0  0  0
  1  4  1  0  0  0  0
  2  3  1  0  0  0  0
  3  5  1  0  0  0  0
  4  6  1  0  0  0  0
  5  8  1  0  0  0  0
  6  7  1  0  0  0  0
  7 10  1  0  0  0  0
  8  9  1  0  0  0  0
  9 12  1  0  0  0  0
  9 13  1  0  0  0  0
 10 11  1  0  0  0  0
 11 14  1  0  0  0  0
 14 15  1  0  0  0  0
 15 16  1  0  0  0  0
 15 17  1  0  0  0  0
 18  2  1  0  0  0  0
 18 20  2  0  0  0  0
 18 24  1  0  0  0  0
 19 25  1  0  0  0  0
 20  1  1  0  0  0  0
 20 21  1  0  0  0  0
 21 22  2  0  0  0  0
 22 19  1  0  0  0  0
 22 23  1  0  0  0  0
 23 24  2  0  0  0  0
M  END
>  <CHROM.1>
88.93289721,71.70735126,62.48055370,-130.02597636,50.64342348,119.90299777
169.38225738,-149.74680504,-167.09342759,-93.18266234,-81.89859600,123.10105507
77.40322824,125.39399448,166.25377542,87.30841298,125.20050086,83.84842652
-3.76236572,-9.82340621,12.44582581,-0.37521748,0.70891453,-3.08532864

>  <Name>
1uud_lig

>  <RI>
0

>  <Rbt.Current_Directory>
/home/itssahil/PROJECTS/Mol_Feturizer/New_Systems/rnas/1uud

>  <Rbt.Executable>
rbdock ($Id: //depot/dev/client3/rdock/2013.1/src/exe/rbdock.cxx#4 $)

>  <Rbt.Library>
libRbt.so (2013.1, Build901 2013/11/27)

>  <Rbt.Parameter_File>
/export/apps/rDock/src/rDock_2013.1_src/data/scripts/dock_solv.prm

>  <Rbt.Receptor>
prm/blind_docking_40.prm

>  <SCORE>
-27.3519

>  <SCORE.INTER>
-26.2842

>  <SCORE.INTER.CONST>
1

>  <SCORE.INTER.POLAR>
-4.17375

>  <SCORE.INTER.ROT>
18

>  <SCORE.INTER.SOLV>
8.22938

>  <SCORE.INTER.VDW>
-21.9534

>  <SCORE.INTER.norm>
-1.05137

>  <SCORE.INTRA>
-1.63916

>  <SCORE.INTRA.DIHEDRAL>
2.52107

>  <SCORE.INTRA.DIHEDRAL.0>
30.6762

>  <SCORE.INTRA.POLAR>
0.0288659

>  <SCORE.INTRA.POLAR.0>
-0.0288659

>  <SCORE.INTRA.REPUL>
0

>  <SCORE.INTRA.REPUL.0>
0

>  <SCORE.INTRA.SOLV>
-0.0928486

>  <SCORE.INTRA.SOLV.lig_0>
-25.2195

>  <SCORE.INTRA.VDW>
-2.95142

>  <SCORE.INTRA.VDW.0>
4.14263

>  <SCORE.INTRA.norm>
-0.0655665

>  <SCORE.RESTR>
0.571411

>  <SCORE.RESTR.CAVITY>
0.571411

>  <SCORE.RESTR.norm>
0.0228565

>  <SCORE.SYSTEM>
0

>  <SCORE.SYSTEM.CONST>
0

>  <SCORE.SYSTEM.DIHEDRAL>
0

>  <SCORE.SYSTEM.SOLV>
0

>  <SCORE.SYSTEM.norm>
0

>  <SCORE.heavy>
25

>  <SCORE.norm>
-1.09408

>  <RMSD>
17.141

$$$$
1uud_lig
 OpenBabel11021811413D
libRbt.so/2013.1/901 2013/11/27
 25 25  0  0  0  0  0  0  0  0999 V2000
   -5.1324   -7.6377   14.0394 C   0  0  0  0  0  0  0  0  0  0  0  0
   -2.6510   -8.9974   14.8116 O   0  0  0  0  0  0  0  0  0  0  0  0
   -1.6344   -8.5411   13.9068 C   0  0  0  0  0  0  0  0  0  0  0  0
   -4.6500   -6.7835   12.9260 N   0  0  0  0  0  0  0  0  0  0  0  0
   -0.3522   -8.2017   14.6788 C   0  0  0  0  0  0  0  0  0  0  0  0
   -5.1930   -7.2811   11.6398 C   0  0  0  0  0  0  0  0  0  0  0  0
   -4.1257   -8.1152   10.9209 C   0  0  0  0  0  0  0  0  0  0  0  0
   -0.3226   -6.9196   14.9543 N   0  0  0  0  0  0  0  0  0  0  0  0
   -0.1123   -6.4822   16.1817 C   0  0  0  0  0  0  0  0  0  0  0  0
   -4.5684   -8.3992    9.4814 C   0  0  0  0  0  0  0  0  0  0  0  0
   -5.5510   -9.5737    9.4706 C   0  0  0  0  0  0  0  0  0  0  0  0
   -1.1059   -6.4849   17.1215 N   0  0  0  0  0  0  0  0  0  0  0  0
    1.1186   -6.0176   16.5185 N   0  0  0  0  0  0  0  0  0  0  0  0
   -5.2089  -10.4322    8.5393 N   0  0  0  0  0  0  0  0  0  0  0  0
   -5.1734  -11.7294    8.7770 C   0  0  0  0  0  0  0  0  0  0  0  0
   -4.4254  -12.1930    9.8109 N   0  0  0  0  0  0  0  0  0  0  0  0
   -5.8632  -12.6171    8.0010 N   0  0  0  0  0  0  0  0  0  0  0  0
   -3.6465   -9.7422   14.0984 C   0  0  0  0  0  0  0  0  0  0  0  0
   -6.6187  -11.9931   12.0126 O   0  0  0  0  0  0  0  0  0  0  0  0
   -4.8684   -9.1214   13.7091 C   0  0  0  0  0  0  0  0  0  0  0  0
   -5.8584   -9.8747   13.0230 C   0  0  0  0  0  0  0  0  0  0  0  0
   -5.6222  -11.2383   12.7068 C   0  0  0  0  0  0  0  0  0  0  0  0
   -4.3959  -11.8530   13.0775 C   0  0  0  0  0  0  0  0  0  0  0  0
   -3.4040  -11.1043   13.7671 C   0  0  0  0  0  0  0  0  0  0  0  0
   -6.9423  -13.1658   12.7652 C   0  0  0  0  0  0  0  0  0  0  0  0
  1  4  1  0  0  0  0
  2  3  1  0  0  0  0
  3  5  1  0  0  0  0
  4  6  1  0  0  0  0
  5  8  1  0  0  0  0
  6  7  1  0  0  0  0
  7 10  1  0  0  0  0
  8  9  1  0  0  0  0
  9 12  1  0  0  0  0
  9 13  1  0  0  0  0
 10 11  1  0  0  0  0
 11 14  1  0  0  0  0
 14 15  1  0  0  0  0
 15 16  1  0  0  0  0
 15 17  1  0  0  0  0
 18  2  1  0  0  0  0
 18 20  2  0  0  0  0
 18 24  1  0  0  0  0
 19 25  1  0  0  0  0
 20  1  1  0  0  0  0
 20 21  1  0  0  0  0
 21 22  2  0  0  0  0
 22 19  1  0  0  0  0
 22 23  1  0  0  0  0
 23 24  2  0  0  0  0
M  END
>  <CHROM.1>
50.76649045,-159.74458469,-94.99379965,-99.84620748,128.24598155,-168.80753528
-80.92928291,-78.31524260,64.21077278,122.20190427,-132.52233692,134.11204742
-54.87360248,23.90761702,-152.33532362,-98.73680597,90.41869579,-124.75198463
-3.82282415,-9.35698620,12.66713185,0.30763532,0.94123412,2.09880542

>  <Name>
1uud_lig

>  <RI>
0

>  <Rbt.Current_Directory>
/home/itssahil/PROJECTS/Mol_Feturizer/New_Systems/rnas/1uud

>  <Rbt.Executable>
rbdock ($Id: //depot/dev/client3/rdock/2013.1/src/exe/rbdock.cxx#4 $)

>  <Rbt.Library>
libRbt.so (2013.1, Build901 2013/11/27)

>  <Rbt.Parameter_File>
/export/apps/rDock/src/rDock_2013.1_src/data/scripts/dock_solv.prm

>  <Rbt.Receptor>
prm/blind_docking_80.prm

>  <SCORE>
-33.1764

>  <SCORE.INTER>
-32.1461

>  <SCORE.INTER.CONST>
1

>  <SCORE.INTER.POLAR>
-5.7162

>  <SCORE.INTER.ROT>
18

>  <SCORE.INTER.SOLV>
10.2691

>  <SCORE.INTER.VDW>
-21.3997

>  <SCORE.INTER.norm>
-1.28584

>  <SCORE.INTRA>
-3.05656

>  <SCORE.INTRA.DIHEDRAL>
2.8089

>  <SCORE.INTRA.DIHEDRAL.0>
30.6762

>  <SCORE.INTRA.POLAR>
0.0288659

>  <SCORE.INTRA.POLAR.0>
-0.0288659

>  <SCORE.INTRA.REPUL>
0

>  <SCORE.INTRA.REPUL.0>
0

>  <SCORE.INTRA.SOLV>
0.181948

>  <SCORE.INTRA.SOLV.lig_0>
-25.2195

>  <SCORE.INTRA.VDW>
-4.65013

>  <SCORE.INTRA.VDW.0>
4.14263

>  <SCORE.INTRA.norm>
-0.122263

>  <SCORE.RESTR>
2.02626

>  <SCORE.RESTR.CAVITY>
2.02626

>  <SCORE.RESTR.norm>
0.0810506

>  <SCORE.SYSTEM>
0

>  <SCORE.SYSTEM.CONST>
0

>  <SCORE.SYSTEM.DIHEDRAL>
0

>  <SCORE.SYSTEM.SOLV>
0

>  <SCORE.SYSTEM.norm>
0

>  <SCORE.heavy>
25

>  <SCORE.norm>
-1.32705

>  <RMSD>
17.146

$$$$
1uud_lig
 OpenBabel11021811413D
libRbt.so/2013.1/901 2013/11/27
 25 25  0  0  0  0  0  0  0  0999 V2000
   -2.9892  -10.7813   13.7251 C   0  0  0  0  0  0  0  0  0  0  0  0
   -1.9376   -8.2010   14.6410 O   0  0  0  0  0  0  0  0  0  0  0  0
   -0.5561   -8.4968   14.3871 C   0  0  0  0  0  0  0  0  0  0  0  0
   -3.1077  -11.9451   12.8121 N   0  0  0  0  0  0  0  0  0  0  0  0
    0.3158   -7.9844   15.5414 C   0  0  0  0  0  0  0  0  0  0  0  0
   -4.5324  -12.1750   12.4741 C   0  0  0  0  0  0  0  0  0  0  0  0
   -4.6267  -13.0272   11.2027 C   0  0  0  0  0  0  0  0  0  0  0  0
    0.3177   -6.6727   15.5517 N   0  0  0  0  0  0  0  0  0  0  0  0
    0.5722   -5.9916   16.6532 C   0  0  0  0  0  0  0  0  0  0  0  0
   -4.9629  -12.1363   10.0019 C   0  0  0  0  0  0  0  0  0  0  0  0
   -6.2636  -12.6199    9.3542 C   0  0  0  0  0  0  0  0  0  0  0  0
    1.5017   -4.9886   16.6747 N   0  0  0  0  0  0  0  0  0  0  0  0
   -0.1036   -6.2949   17.7915 N   0  0  0  0  0  0  0  0  0  0  0  0
   -7.2343  -11.7789    9.6223 N   0  0  0  0  0  0  0  0  0  0  0  0
   -8.3880  -11.8318    8.9847 C   0  0  0  0  0  0  0  0  0  0  0  0
   -8.9317  -10.6846    8.5032 N   0  0  0  0  0  0  0  0  0  0  0  0
   -9.0528  -13.0119    8.8068 N   0  0  0  0  0  0  0  0  0  0  0  0
   -2.6827   -8.2413   13.4172 C   0  0  0  0  0  0  0  0  0  0  0  0
   -4.8625   -8.3457    9.7446 O   0  0  0  0  0  0  0  0  0  0  0  0
   -3.2066   -9.4748   12.9338 C   0  0  0  0  0  0  0  0  0  0  0  0
   -3.9238   -9.5079   11.7079 C   0  0  0  0  0  0  0  0  0  0  0  0
   -4.1368   -8.3102   10.9761 C   0  0  0  0  0  0  0  0  0  0  0  0
   -3.6314   -7.0764   11.4672 C   0  0  0  0  0  0  0  0  0  0  0  0
   -2.9103   -7.0391   12.6914 C   0  0  0  0  0  0  0  0  0  0  0  0
   -6.2478   -8.0937    9.9974 C   0  0  0  0  0  0  0  0  0  0  0  0
  1  4  1  0  0  0  0
  2  3  1  0  0  0  0
  3  5  1  0  0  0  0
  4  6  1  0  0  0  0
  5  8  1  0  0  0  0
  6  7  1  0  0  0  0
  7 10  1  0  0  0  0
  8  9  1  0  0  0  0
  9 12  1  0  0  0  0
  9 13  1  0  0  0  0
 10 11  1  0  0  0  0
 11 14  1  0  0  0  0
 14 15  1  0  0  0  0
 15 16  1  0  0  0  0
 15 17  1  0  0  0  0
 18  2  1  0  0  0  0
 18 20  2  0  0  0  0
 18 24  1  0  0  0  0
 19 25  1  0  0  0  0
 20  1  1  0  0  0  0
 20 21  1  0  0  0  0
 21 22  2  0  0  0  0
 22 19  1  0  0  0  0
 22 23  1  0  0  0  0
 23 24  2  0  0  0  0
M  END
>  <CHROM.1>
-74.59072507,160.01335178,-68.49180747,160.83524194,155.87792172,-102.09229096
-121.62764102,129.39462760,-48.14030771,126.24602976,107.14489530,167.32788809
-133.30332745,-31.84664424,35.09781418,85.89243384,-156.86992304,92.49510133
-3.67929469,-9.39627132,12.39340485,-0.39417669,0.77030019,3.02404128

>  <Name>
1uud_lig

>  <RI>
0

>  <Rbt.Current_Directory>
/home/itssahil/PROJECTS/Mol_Feturizer/New_Systems/rnas/1uud

>  <Rbt.Executable>
rbdock ($Id: //depot/dev/client3/rdock/2013.1/src/exe/rbdock.cxx#4 $)

>  <Rbt.Library>
libRbt.so (2013.1, Build901 2013/11/27)

>  <Rbt.Parameter_File>
/export/apps/rDock/src/rDock_2013.1_src/data/scripts/dock_solv.prm

>  <Rbt.Receptor>
prm/blind_docking_80.prm

>  <SCORE>
-30.1946

>  <SCORE.INTER>
-30.3998

>  <SCORE.INTER.CONST>
1

>  <SCORE.INTER.POLAR>
-3.80418

>  <SCORE.INTER.ROT>
18

>  <SCORE.INTER.SOLV>
10.7179

>  <SCORE.INTER.VDW>
-26.7586

>  <SCORE.INTER.norm>
-1.21599

>  <SCORE.INTRA>
-0.156419

>  <SCORE.INTRA.DIHEDRAL>
7.98169

>  <SCORE.INTRA.DIHEDRAL.0>
30.6762

>  <SCORE.INTRA.POLAR>
0.0288659

>  <SCORE.INTRA.POLAR.0>
-0.0288659

>  <SCORE.INTRA.REPUL>
0

>  <SCORE.INTRA.REPUL.0>
0

>  <SCORE.INTRA.SOLV>
-0.748005

>  <SCORE.INTRA.SOLV.lig_0>
-25.2195

>  <SCORE.INTRA.VDW>
-3.87141

>  <SCORE.INTRA.VDW.0>
4.14263

>  <SCORE.INTRA.norm>
-0.00625677

>  <SCORE.RESTR>
0.361661

>  <SCORE.RESTR.CAVITY>
0.361661

>  <SCORE.RESTR.norm>
0.0144665

>  <SCORE.SYSTEM>
0

>  <SCORE.SYSTEM.CONST>
0

>  <SCORE.SYSTEM.DIHEDRAL>
0

>  <SCORE.SYSTEM.SOLV>
0

>  <SCORE.SYSTEM.norm>
0

>  <SCORE.heavy>
25

>  <SCORE.norm>
-1.20778

>  <RMSD>
17.167

$$$$
1uud_lig
 OpenBabel11021811413D
libRbt.so/2013.1/901 2013/11/27
 25 25  0  0  0  0  0  0  0  0999 V2000
   -2.1685  -10.9453   13.5591 C   0  0  0  0  0  0  0  0  0  0  0  0
   -1.6161   -8.4305   14.9639 O   0  0  0  0  0  0  0  0  0  0  0  0
   -0.2794   -8.6765   14.5026 C   0  0  0  0  0  0  0  0  0  0  0  0
   -3.1287  -12.0557   13.3419 N   0  0  0  0  0  0  0  0  0  0  0  0
    0.4852   -7.3529   14.3652 C   0  0  0  0  0  0  0  0  0  0  0  0
   -3.1756  -12.4044   11.9021 C   0  0  0  0  0  0  0  0  0  0  0  0
   -4.6018  -12.8196   11.5212 C   0  0  0  0  0  0  0  0  0  0  0  0
    1.0968   -7.0713   15.4910 N   0  0  0  0  0  0  0  0  0  0  0  0
    0.6003   -6.1969   16.3460 C   0  0  0  0  0  0  0  0  0  0  0  0
   -4.9967  -12.1681   10.1914 C   0  0  0  0  0  0  0  0  0  0  0  0
   -6.4708  -12.4600    9.8964 C   0  0  0  0  0  0  0  0  0  0  0  0
   -0.7098   -6.2433   16.7360 N   0  0  0  0  0  0  0  0  0  0  0  0
    1.4086   -5.2284   16.8487 N   0  0  0  0  0  0  0  0  0  0  0  0
   -6.8057  -11.9376    8.7405 N   0  0  0  0  0  0  0  0  0  0  0  0
   -8.0692  -11.7888    8.3913 C   0  0  0  0  0  0  0  0  0  0  0  0
   -8.8839  -12.8749    8.3748 N   0  0  0  0  0  0  0  0  0  0  0  0
   -8.5737  -10.5700    8.0363 N   0  0  0  0  0  0  0  0  0  0  0  0
   -2.5239   -8.4101   13.8548 C   0  0  0  0  0  0  0  0  0  0  0  0
   -5.1979   -8.3185   10.5244 O   0  0  0  0  0  0  0  0  0  0  0  0
   -2.8158   -9.6085   13.1416 C   0  0  0  0  0  0  0  0  0  0  0  0
   -3.6989   -9.5735   12.0293 C   0  0  0  0  0  0  0  0  0  0  0  0
   -4.3063   -8.3502   11.6418 C   0  0  0  0  0  0  0  0  0  0  0  0
   -4.0310   -7.1582   12.3646 C   0  0  0  0  0  0  0  0  0  0  0  0
   -3.1454   -7.1879   13.4759 C   0  0  0  0  0  0  0  0  0  0  0  0
   -4.4438   -8.2275    9.3122 C   0  0  0  0  0  0  0  0  0  0  0  0
  1  4  1  0  0  0  0
  2  3  1  0  0  0  0
  3  5  1  0  0  0  0
  4  6  1  0  0  0  0
  5  8  1  0  0  0  0
  6  7  1  0  0  0  0
  7 10  1  0  0  0  0
  8  9  1  0  0  0  0
  9 12  1  0  0  0  0
  9 13  1  0  0  0  0
 10 11  1  0  0  0  0
 11 14  1  0  0  0  0
 14 15  1  0  0  0  0
 15 16  1  0  0  0  0
 15 17  1  0  0  0  0
 18  2  1  0  0  0  0
 18 20  2  0  0  0  0
 18 24  1  0  0  0  0
 19 25  1  0  0  0  0
 20  1  1  0  0  0  0
 20 21  1  0  0  0  0
 21 22  2  0  0  0  0
 22 19  1  0  0  0  0
 22 23  1  0  0  0  0
 23 24  2  0  0  0  0
M  END
>  <CHROM.1>
77.84184072,97.52766499,90.26339973,-145.12317855,-100.63311054,135.97950039
-173.74371875,48.42220258,8.32198435,-157.05551131,-178.19337765,-164.81431925
-56.62821552,-164.40128514,124.73178077,69.20830869,144.94822840,-82.49341187
-3.45803567,-9.45196398,12.37589655,-0.45586464,0.74805691,3.12748677

>  <Name>
1uud_lig

>  <RI>
0

>  <Rbt.Current_Directory>
/home/itssahil/PROJECTS/Mol_Feturizer/New_Systems/rnas/1uud

>  <Rbt.Executable>
rbdock ($Id: //depot/dev/client3/rdock/2013.1/src/exe/rbdock.cxx#4 $)

>  <Rbt.Library>
libRbt.so (2013.1, Build901 2013/11/27)

>  <Rbt.Parameter_File>
/export/apps/rDock/src/rDock_2013.1_src/data/scripts/dock_solv.prm

>  <Rbt.Receptor>
prm/blind_docking_80.prm

>  <SCORE>
-33.4124

>  <SCORE.INTER>
-29.034

>  <SCORE.INTER.CONST>
1

>  <SCORE.INTER.POLAR>
-3.68326

>  <SCORE.INTER.ROT>
18

>  <SCORE.INTER.SOLV>
10.9745

>  <SCORE.INTER.VDW>
-26.3366

>  <SCORE.INTER.norm>
-1.16136

>  <SCORE.INTRA>
-4.94808

>  <SCORE.INTRA.DIHEDRAL>
4.09999

>  <SCORE.INTRA.DIHEDRAL.0>
30.6762

>  <SCORE.INTRA.POLAR>
-0.838348

>  <SCORE.INTRA.POLAR.0>
-0.0288659

>  <SCORE.INTRA.REPUL>
0

>  <SCORE.INTRA.REPUL.0>
0

>  <SCORE.INTRA.SOLV>
-0.716637

>  <SCORE.INTRA.SOLV.lig_0>
-25.2195

>  <SCORE.INTRA.VDW>
-3.78938

>  <SCORE.INTRA.VDW.0>
4.14263

>  <SCORE.INTRA.norm>
-0.197923

>  <SCORE.RESTR>
0.56963

>  <SCORE.RESTR.CAVITY>
0.56963

>  <SCORE.RESTR.norm>
0.0227852

>  <SCORE.SYSTEM>
0

>  <SCORE.SYSTEM.CONST>
0

>  <SCORE.SYSTEM.DIHEDRAL>
0

>  <SCORE.SYSTEM.SOLV>
0

>  <SCORE.SYSTEM.norm>
0

>  <SCORE.heavy>
25

>  <SCORE.norm>
-1.3365

>  <RMSD>
17.172

$$$$
1uud_lig
 OpenBabel11021811413D
libRbt.so/2013.1/901 2013/11/27
 25 25  0  0  0  0  0  0  0  0999 V2000
   -3.2773  -10.9704   13.3117 C   0  0  0  0  0  0  0  0  0  0  0  0
   -1.2636   -8.9878   14.0970 O   0  0  0  0  0  0  0  0  0  0  0  0
   -1.6280   -9.1321   15.4778 C   0  0  0  0  0  0  0  0  0  0  0  0
   -3.0353  -11.7851   12.0951 N   0  0  0  0  0  0  0  0  0  0  0  0
   -1.7529   -7.7530   16.1393 C   0  0  0  0  0  0  0  0  0  0  0  0
   -4.0382  -12.8732   12.0120 C   0  0  0  0  0  0  0  0  0  0  0  0
   -5.1759  -12.4515   11.0742 C   0  0  0  0  0  0  0  0  0  0  0  0
   -0.8540   -7.6288   17.0867 N   0  0  0  0  0  0  0  0  0  0  0  0
    0.4196   -7.4249   16.8069 C   0  0  0  0  0  0  0  0  0  0  0  0
   -4.6984  -12.5040    9.6189 C   0  0  0  0  0  0  0  0  0  0  0  0
   -5.7847  -11.9329    8.7030 C   0  0  0  0  0  0  0  0  0  0  0  0
    1.2553   -8.4590   16.4862 N   0  0  0  0  0  0  0  0  0  0  0  0
    0.9116   -6.1595   16.8398 N   0  0  0  0  0  0  0  0  0  0  0  0
   -6.8947  -12.6171    8.8482 N   0  0  0  0  0  0  0  0  0  0  0  0
   -8.0006  -12.0507    9.2916 C   0  0  0  0  0  0  0  0  0  0  0  0
   -8.5953  -12.5437   10.4083 N   0  0  0  0  0  0  0  0  0  0  0  0
   -8.5665  -10.9870    8.6479 N   0  0  0  0  0  0  0  0  0  0  0  0
   -2.3942   -8.5496   13.3326 C   0  0  0  0  0  0  0  0  0  0  0  0
   -5.7328   -7.2300   11.0168 O   0  0  0  0  0  0  0  0  0  0  0  0
   -3.3927   -9.4810   12.9261 C   0  0  0  0  0  0  0  0  0  0  0  0
   -4.4975   -9.0409   12.1489 C   0  0  0  0  0  0  0  0  0  0  0  0
   -4.6177   -7.6711   11.7957 C   0  0  0  0  0  0  0  0  0  0  0  0
   -3.6325   -6.7381   12.2172 C   0  0  0  0  0  0  0  0  0  0  0  0
   -2.5237   -7.1746   12.9919 C   0  0  0  0  0  0  0  0  0  0  0  0
   -6.9437   -7.7422   11.5807 C   0  0  0  0  0  0  0  0  0  0  0  0
  1  4  1  0  0  0  0
  2  3  1  0  0  0  0
  3  5  1  0  0  0  0
  4  6  1  0  0  0  0
  5  8  1  0  0  0  0
  6  7  1  0  0  0  0
  7 10  1  0  0  0  0
  8  9  1  0  0  0  0
  9 12  1  0  0  0  0
  9 13  1  0  0  0  0
 10 11  1  0  0  0  0
 11 14  1  0  0  0  0
 14 15  1  0  0  0  0
 15 16  1  0  0  0  0
 15 17  1  0  0  0  0
 18  2  1  0  0  0  0
 18 20  2  0  0  0  0
 18 24  1  0  0  0  0
 19 25  1  0  0  0  0
 20  1  1  0  0  0  0
 20 21  1  0  0  0  0
 21 22  2  0  0  0  0
 22 19  1  0  0  0  0
 22 23  1  0  0  0  0
 23 24  2  0  0  0  0
M  END
>  <CHROM.1>
-126.73980116,-75.04252566,-116.49757143,97.52109688,74.87456466,73.87869712
-173.67330099,-82.45303113,14.97785937,161.43724456,-58.42507583,117.98649580
-122.14398847,-140.15859891,-117.88381175,-79.85847812,-112.26504480,48.68688629
-3.79506263,-9.62147831,12.60255849,-0.56835829,0.67115684,-2.91072421

>  <Name>
1uud_lig

>  <RI>
0

>  <Rbt.Current_Directory>
/home/itssahil/PROJECTS/Mol_Feturizer/New_Systems/rnas/1uud

>  <Rbt.Executable>
rbdock ($Id: //depot/dev/client3/rdock/2013.1/src/exe/rbdock.cxx#4 $)

>  <Rbt.Library>
libRbt.so (2013.1, Build901 2013/11/27)

>  <Rbt.Parameter_File>
/export/apps/rDock/src/rDock_2013.1_src/data/scripts/dock_solv.prm

>  <Rbt.Receptor>
prm/blind_docking_40.prm

>  <SCORE>
-26.3665

>  <SCORE.INTER>
-23.5983

>  <SCORE.INTER.CONST>
1

>  <SCORE.INTER.POLAR>
-3.59121

>  <SCORE.INTER.ROT>
18

>  <SCORE.INTER.SOLV>
8.67363

>  <SCORE.INTER.VDW>
-22.2527

>  <SCORE.INTER.norm>
-0.943933

>  <SCORE.INTRA>
-2.96613

>  <SCORE.INTRA.DIHEDRAL>
0.418058

>  <SCORE.INTRA.DIHEDRAL.0>
30.6762

>  <SCORE.INTRA.POLAR>
0.0288659

>  <SCORE.INTRA.POLAR.0>
-0.0288659

>  <SCORE.INTRA.REPUL>
0

>  <SCORE.INTRA.REPUL.0>
0

>  <SCORE.INTRA.SOLV>
-0.391774

>  <SCORE.INTRA.SOLV.lig_0>
-25.2195

>  <SCORE.INTRA.VDW>
-3.07742

>  <SCORE.INTRA.VDW.0>
4.14263

>  <SCORE.INTRA.norm>
-0.118645

>  <SCORE.RESTR>
0.197923

>  <SCORE.RESTR.CAVITY>
0.197923

>  <SCORE.RESTR.norm>
0.00791691

>  <SCORE.SYSTEM>
0

>  <SCORE.SYSTEM.CONST>
0

>  <SCORE.SYSTEM.DIHEDRAL>
0

>  <SCORE.SYSTEM.SOLV>
0

>  <SCORE.SYSTEM.norm>
0

>  <SCORE.heavy>
25

>  <SCORE.norm>
-1.05466

>  <RMSD>
17.198

$$$$
1uud_lig
 OpenBabel11021811413D
libRbt.so/2013.1/901 2013/11/27
 25 25  0  0  0  0  0  0  0  0999 V2000
   -3.5409  -11.6676   12.0133 C   0  0  0  0  0  0  0  0  0  0  0  0
   -1.2020  -10.3990   13.2473 O   0  0  0  0  0  0  0  0  0  0  0  0
   -1.1950  -10.7984   14.6259 C   0  0  0  0  0  0  0  0  0  0  0  0
   -4.6863  -11.9435   11.1111 N   0  0  0  0  0  0  0  0  0  0  0  0
   -0.8230   -9.6079   15.5201 C   0  0  0  0  0  0  0  0  0  0  0  0
   -5.0323  -13.3837   11.1649 C   0  0  0  0  0  0  0  0  0  0  0  0
   -5.6967  -13.7015   12.5100 C   0  0  0  0  0  0  0  0  0  0  0  0
    0.4125   -9.2380   15.2805 N   0  0  0  0  0  0  0  0  0  0  0  0
    0.8133   -7.9973   15.4851 C   0  0  0  0  0  0  0  0  0  0  0  0
   -6.9644  -14.5319   12.2817 C   0  0  0  0  0  0  0  0  0  0  0  0
   -8.0748  -13.6306   11.7340 C   0  0  0  0  0  0  0  0  0  0  0  0
    1.1612   -7.1781   14.4465 N   0  0  0  0  0  0  0  0  0  0  0  0
    0.8832   -7.5238   16.7560 N   0  0  0  0  0  0  0  0  0  0  0  0
   -8.8941  -14.3352   10.9901 N   0  0  0  0  0  0  0  0  0  0  0  0
   -9.0618  -14.0705    9.7085 C   0  0  0  0  0  0  0  0  0  0  0  0
   -8.0093  -13.6113    8.9839 N   0  0  0  0  0  0  0  0  0  0  0  0
  -10.2716  -14.2380    9.0966 N   0  0  0  0  0  0  0  0  0  0  0  0
   -2.3545   -9.5917   12.9744 C   0  0  0  0  0  0  0  0  0  0  0  0
   -5.7621   -7.1578   12.1291 O   0  0  0  0  0  0  0  0  0  0  0  0
   -3.5098  -10.1672   12.3710 C   0  0  0  0  0  0  0  0  0  0  0  0
   -4.6383   -9.3536   12.0833 C   0  0  0  0  0  0  0  0  0  0  0  0
   -4.6234   -7.9735   12.4160 C   0  0  0  0  0  0  0  0  0  0  0  0
   -3.4790   -7.4028   13.0355 C   0  0  0  0  0  0  0  0  0  0  0  0
   -2.3464   -8.2122   13.3219 C   0  0  0  0  0  0  0  0  0  0  0  0
   -6.9529   -7.8355   12.5404 C   0  0  0  0  0  0  0  0  0  0  0  0
  1  4  1  0  0  0  0
  2  3  1  0  0  0  0
  3  5  1  0  0  0  0
  4  6  1  0  0  0  0
  5  8  1  0  0  0  0
  6  7  1  0  0  0  0
  7 10  1  0  0  0  0
  8  9  1  0  0  0  0
  9 12  1  0  0  0  0
  9 13  1  0  0  0  0
 10 11  1  0  0  0  0
 11 14  1  0  0  0  0
 14 15  1  0  0  0  0
 15 16  1  0  0  0  0
 15 17  1  0  0  0  0
 18  2  1  0  0  0  0
 18 20  2  0  0  0  0
 18 24  1  0  0  0  0
 19 25  1  0  0  0  0
 20  1  1  0  0  0  0
 20 21  1  0  0  0  0
 21 22  2  0  0  0  0
 22 19  1  0  0  0  0
 22 23  1  0  0  0  0
 23 24  2  0  0  0  0
M  END
>  <CHROM.1>
-159.02405770,-73.55357763,-65.44096087,72.03057814,153.15189336,132.64851188
-74.61823449,-112.13904867,-83.00978574,124.50863619,151.43078414,-118.29830996
33.88915387,62.96683195,27.98759890,-98.85539122,-166.05191991,45.80768470
-4.17336973,-10.64694172,12.61623406,-2.58649507,-0.48575393,0.04211071

>  <Name>
1uud_lig

>  <RI>
0

>  <Rbt.Current_Directory>
/home/itssahil/PROJECTS/Mol_Feturizer/New_Systems/rnas/1uud

>  <Rbt.Executable>
rbdock ($Id: //depot/dev/client3/rdock/2013.1/src/exe/rbdock.cxx#4 $)

>  <Rbt.Library>
libRbt.so (2013.1, Build901 2013/11/27)

>  <Rbt.Parameter_File>
/export/apps/rDock/src/rDock_2013.1_src/data/scripts/dock_solv.prm

>  <Rbt.Receptor>
prm/blind_docking_80.prm

>  <SCORE>
-29.7255

>  <SCORE.INTER>
-29.5002

>  <SCORE.INTER.CONST>
1

>  <SCORE.INTER.POLAR>
-3.85854

>  <SCORE.INTER.ROT>
18

>  <SCORE.INTER.SOLV>
10.5252

>  <SCORE.INTER.VDW>
-25.9134

>  <SCORE.INTER.norm>
-1.18001

>  <SCORE.INTRA>
-1.76205

>  <SCORE.INTRA.DIHEDRAL>
-2.59509

>  <SCORE.INTRA.DIHEDRAL.0>
30.6762

>  <SCORE.INTRA.POLAR>
0.0288659

>  <SCORE.INTRA.POLAR.0>
-0.0288659

>  <SCORE.INTRA.REPUL>
0

>  <SCORE.INTRA.REPUL.0>
0

>  <SCORE.INTRA.SOLV>
-0.459165

>  <SCORE.INTRA.SOLV.lig_0>
-25.2195

>  <SCORE.INTRA.VDW>
-0.333066

>  <SCORE.INTRA.VDW.0>
4.14263

>  <SCORE.INTRA.norm>
-0.070482

>  <SCORE.RESTR>
1.5367

>  <SCORE.RESTR.CAVITY>
1.5367

>  <SCORE.RESTR.norm>
0.0614679

>  <SCORE.SYSTEM>
0

>  <SCORE.SYSTEM.CONST>
0

>  <SCORE.SYSTEM.DIHEDRAL>
0

>  <SCORE.SYSTEM.SOLV>
0

>  <SCORE.SYSTEM.norm>
0

>  <SCORE.heavy>
25

>  <SCORE.norm>
-1.18902

>  <RMSD>
17.271

$$$$
1uud_lig
 OpenBabel11021811413D
libRbt.so/2013.1/901 2013/11/27
 25 25  0  0  0  0  0  0  0  0999 V2000
   -2.3258  -11.1910   12.4944 C   0  0  0  0  0  0  0  0  0  0  0  0
   -1.1645   -8.9111   13.9283 O   0  0  0  0  0  0  0  0  0  0  0  0
   -0.6907   -7.6553   14.4369 C   0  0  0  0  0  0  0  0  0  0  0  0
   -3.3203  -12.2441   12.8168 N   0  0  0  0  0  0  0  0  0  0  0  0
    0.7943   -7.7614   14.8095 C   0  0  0  0  0  0  0  0  0  0  0  0
   -3.8835  -12.8029   11.5648 C   0  0  0  0  0  0  0  0  0  0  0  0
   -5.3079  -12.2725   11.3617 C   0  0  0  0  0  0  0  0  0  0  0  0
    0.9856   -8.7961   15.5927 N   0  0  0  0  0  0  0  0  0  0  0  0
    1.0404   -8.6674   16.9051 C   0  0  0  0  0  0  0  0  0  0  0  0
   -5.6719  -12.3130    9.8736 C   0  0  0  0  0  0  0  0  0  0  0  0
   -6.9261  -11.4685    9.6304 C   0  0  0  0  0  0  0  0  0  0  0  0
    2.1044   -9.1361   17.6254 N   0  0  0  0  0  0  0  0  0  0  0  0
    0.0162   -8.0568   17.5550 N   0  0  0  0  0  0  0  0  0  0  0  0
   -7.9884  -12.1208   10.0393 N   0  0  0  0  0  0  0  0  0  0  0  0
   -9.1150  -12.1026    9.3531 C   0  0  0  0  0  0  0  0  0  0  0  0
   -9.6424  -13.2745    8.9146 N   0  0  0  0  0  0  0  0  0  0  0  0
   -9.7575  -10.9320    9.0649 N   0  0  0  0  0  0  0  0  0  0  0  0
   -2.4089   -8.7261   13.2414 C   0  0  0  0  0  0  0  0  0  0  0  0
   -6.0958   -8.1408   11.1643 O   0  0  0  0  0  0  0  0  0  0  0  0
   -3.0048   -9.8061   12.5283 C   0  0  0  0  0  0  0  0  0  0  0  0
   -4.2266   -9.6062   11.8315 C   0  0  0  0  0  0  0  0  0  0  0  0
   -4.8641   -8.3381   11.8631 C   0  0  0  0  0  0  0  0  0  0  0  0
   -4.2805   -7.2658   12.5902 C   0  0  0  0  0  0  0  0  0  0  0  0
   -3.0564   -7.4603   13.2859 C   0  0  0  0  0  0  0  0  0  0  0  0
   -7.1825   -8.1575   12.0946 C   0  0  0  0  0  0  0  0  0  0  0  0
  1  4  1  0  0  0  0
  2  3  1  0  0  0  0
  3  5  1  0  0  0  0
  4  6  1  0  0  0  0
  5  8  1  0  0  0  0
  6  7  1  0  0  0  0
  7 10  1  0  0  0  0
  8  9  1  0  0  0  0
  9 12  1  0  0  0  0
  9 13  1  0  0  0  0
 10 11  1  0  0  0  0
 11 14  1  0  0  0  0
 14 15  1  0  0  0  0
 15 16  1  0  0  0  0
 15 17  1  0  0  0  0
 18  2  1  0  0  0  0
 18 20  2  0  0  0  0
 18 24  1  0  0  0  0
 19 25  1  0  0  0  0
 20  1  1  0  0  0  0
 20 21  1  0  0  0  0
 21 22  2  0  0  0  0
 22 19  1  0  0  0  0
 22 23  1  0  0  0  0
 23 24  2  0  0  0  0
M  END
>  <CHROM.1>
94.89066935,-163.87469580,-51.62128876,-105.36955741,-96.93369331,155.53426652
-165.69278848,-125.78815001,-109.90066618,-63.75334420,-76.25584421,-139.75775510
121.42679692,-145.11632682,18.19356633,173.36251151,131.58127554,102.59043620
-3.86052171,-9.92773668,12.60258978,-0.41268302,0.56391512,-2.93397588

>  <Name>
1uud_lig

>  <RI>
0

>  <Rbt.Current_Directory>
/home/itssahil/PROJECTS/Mol_Feturizer/New_Systems/rnas/1uud

>  <Rbt.Executable>
rbdock ($Id: //depot/dev/client3/rdock/2013.1/src/exe/rbdock.cxx#4 $)

>  <Rbt.Library>
libRbt.so (2013.1, Build901 2013/11/27)

>  <Rbt.Parameter_File>
/export/apps/rDock/src/rDock_2013.1_src/data/scripts/dock_solv.prm

>  <Rbt.Receptor>
prm/blind_docking_40.prm

>  <SCORE>
-30.6756

>  <SCORE.INTER>
-27.7904

>  <SCORE.INTER.CONST>
1

>  <SCORE.INTER.POLAR>
-3.66148

>  <SCORE.INTER.ROT>
18

>  <SCORE.INTER.SOLV>
10.1474

>  <SCORE.INTER.VDW>
-25.3044

>  <SCORE.INTER.norm>
-1.11162

>  <SCORE.INTRA>
-2.93041

>  <SCORE.INTRA.DIHEDRAL>
-5.14512

>  <SCORE.INTRA.DIHEDRAL.0>
30.6762

>  <SCORE.INTRA.POLAR>
0.0288659

>  <SCORE.INTRA.POLAR.0>
-0.0288659

>  <SCORE.INTRA.REPUL>
0

>  <SCORE.INTRA.REPUL.0>
0

>  <SCORE.INTRA.SOLV>
-0.790211

>  <SCORE.INTRA.SOLV.lig_0>
-25.2195

>  <SCORE.INTRA.VDW>
-0.0608883

>  <SCORE.INTRA.VDW.0>
4.14263

>  <SCORE.INTRA.norm>
-0.117216

>  <SCORE.RESTR>
0.0452577

>  <SCORE.RESTR.CAVITY>
0.0452577

>  <SCORE.RESTR.norm>
0.00181031

>  <SCORE.SYSTEM>
0

>  <SCORE.SYSTEM.CONST>
0

>  <SCORE.SYSTEM.DIHEDRAL>
0

>  <SCORE.SYSTEM.SOLV>
0

>  <SCORE.SYSTEM.norm>
0

>  <SCORE.heavy>
25

>  <SCORE.norm>
-1.22702

>  <RMSD>
17.294

$$$$
1uud_lig
 OpenBabel11021811413D
libRbt.so/2013.1/901 2013/11/27
 25 25  0  0  0  0  0  0  0  0999 V2000
   -4.8085   -7.6936   13.4682 C   0  0  0  0  0  0  0  0  0  0  0  0
   -1.9344   -8.2533   13.6382 O   0  0  0  0  0  0  0  0  0  0  0  0
   -1.4680   -8.1157   14.9887 C   0  0  0  0  0  0  0  0  0  0  0  0
   -5.8787   -7.5700   12.4476 N   0  0  0  0  0  0  0  0  0  0  0  0
   -0.0135   -7.6265   14.9991 C   0  0  0  0  0  0  0  0  0  0  0  0
   -5.3721   -8.0253   11.1312 C   0  0  0  0  0  0  0  0  0  0  0  0
   -6.5095   -7.9882   10.1033 C   0  0  0  0  0  0  0  0  0  0  0  0
    0.0213   -6.3329   15.2143 N   0  0  0  0  0  0  0  0  0  0  0  0
    0.3282   -5.8385   16.3990 C   0  0  0  0  0  0  0  0  0  0  0  0
   -6.1446   -8.8518    8.8909 C   0  0  0  0  0  0  0  0  0  0  0  0
   -6.4709  -10.3178    9.1902 C   0  0  0  0  0  0  0  0  0  0  0  0
    1.3819   -4.9824   16.5650 N   0  0  0  0  0  0  0  0  0  0  0  0
   -0.4186   -6.1890   17.4777 N   0  0  0  0  0  0  0  0  0  0  0  0
   -6.3145  -11.0393    8.1057 N   0  0  0  0  0  0  0  0  0  0  0  0
   -6.0145  -12.3225    8.1687 C   0  0  0  0  0  0  0  0  0  0  0  0
   -4.9887  -12.7246    8.9622 N   0  0  0  0  0  0  0  0  0  0  0  0
   -6.7050  -13.2541    7.4466 N   0  0  0  0  0  0  0  0  0  0  0  0
   -2.8426   -9.3580   13.5411 C   0  0  0  0  0  0  0  0  0  0  0  0
   -5.5341  -12.6666   13.2972 O   0  0  0  0  0  0  0  0  0  0  0  0
   -4.2468   -9.1305   13.4618 C   0  0  0  0  0  0  0  0  0  0  0  0
   -5.1400  -10.2329   13.3893 C   0  0  0  0  0  0  0  0  0  0  0  0
   -4.6332  -11.5590   13.3744 C   0  0  0  0  0  0  0  0  0  0  0  0
   -3.2318  -11.7863   13.4338 C   0  0  0  0  0  0  0  0  0  0  0  0
   -2.3348  -10.6865   13.5099 C   0  0  0  0  0  0  0  0  0  0  0  0
   -5.4313  -13.2790   12.0085 C   0  0  0  0  0  0  0  0  0  0  0  0
  1  4  1  0  0  0  0
  2  3  1  0  0  0  0
  3  5  1  0  0  0  0
  4  6  1  0  0  0  0
  5  8  1  0  0  0  0
  6  7  1  0  0  0  0
  7 10  1  0  0  0  0
  8  9  1  0  0  0  0
  9 12  1  0  0  0  0
  9 13  1  0  0  0  0
 10 11  1  0  0  0  0
 11 14  1  0  0  0  0
 14 15  1  0  0  0  0
 15 16  1  0  0  0  0
 15 17  1  0  0  0  0
 18  2  1  0  0  0  0
 18 20  2  0  0  0  0
 18 24  1  0  0  0  0
 19 25  1  0  0  0  0
 20  1  1  0  0  0  0
 20 21  1  0  0  0  0
 21 22  2  0  0  0  0
 22 19  1  0  0  0  0
 22 23  1  0  0  0  0
 23 24  2  0  0  0  0
M  END
>  <CHROM.1>
-53.36986479,145.69458649,99.12976874,176.05920277,102.08797677,-162.09595712
82.88623165,121.92711155,137.38802749,-89.60708456,172.40919659,153.00381173
-49.33772868,161.63103723,-156.91215873,103.10755835,136.78735227,109.14841464
-3.78350785,-9.41468994,12.51057046,0.42977394,-0.88743791,-0.12080679

>  <Name>
1uud_lig

>  <RI>
0

>  <Rbt.Current_Directory>
/home/itssahil/PROJECTS/Mol_Feturizer/New_Systems/rnas/1uud

>  <Rbt.Executable>
rbdock ($Id: //depot/dev/client3/rdock/2013.1/src/exe/rbdock.cxx#4 $)

>  <Rbt.Library>
libRbt.so (2013.1, Build901 2013/11/27)

>  <Rbt.Parameter_File>
/export/apps/rDock/src/rDock_2013.1_src/data/scripts/dock_solv.prm

>  <Rbt.Receptor>
prm/blind_docking_20.prm

>  <SCORE>
-45.2787

>  <SCORE.INTER>
-40.919

>  <SCORE.INTER.CONST>
1

>  <SCORE.INTER.POLAR>
-6.33601

>  <SCORE.INTER.ROT>
18

>  <SCORE.INTER.SOLV>
10.8493

>  <SCORE.INTER.VDW>
-25.3757

>  <SCORE.INTER.norm>
-1.63676

>  <SCORE.INTRA>
-4.4004

>  <SCORE.INTRA.DIHEDRAL>
0.358251

>  <SCORE.INTRA.DIHEDRAL.0>
30.6762

>  <SCORE.INTRA.POLAR>
0.0288659

>  <SCORE.INTRA.POLAR.0>
-0.0288659

>  <SCORE.INTRA.REPUL>
0

>  <SCORE.INTRA.REPUL.0>
0

>  <SCORE.INTRA.SOLV>
-0.973824

>  <SCORE.INTRA.SOLV.lig_0>
-25.2195

>  <SCORE.INTRA.VDW>
-4.19076

>  <SCORE.INTRA.VDW.0>
4.14263

>  <SCORE.INTRA.norm>
-0.176016

>  <SCORE.RESTR>
0.0406471

>  <SCORE.RESTR.CAVITY>
0.0406471

>  <SCORE.RESTR.norm>
0.00162588

>  <SCORE.SYSTEM>
0

>  <SCORE.SYSTEM.CONST>
0

>  <SCORE.SYSTEM.DIHEDRAL>
0

>  <SCORE.SYSTEM.SOLV>
0

>  <SCORE.SYSTEM.norm>
0

>  <SCORE.heavy>
25

>  <SCORE.norm>
-1.81115

>  <RMSD>
17.327

$$$$
1uud_lig
 OpenBabel11021811413D
libRbt.so/2013.1/901 2013/11/27
 25 25  0  0  0  0  0  0  0  0999 V2000
   -4.8226   -7.7247   13.1129 C   0  0  0  0  0  0  0  0  0  0  0  0
   -1.9212   -8.0710   13.3670 O   0  0  0  0  0  0  0  0  0  0  0  0
   -1.2300   -8.2299   14.6149 C   0  0  0  0  0  0  0  0  0  0  0  0
   -5.8333   -7.5562   12.0395 N   0  0  0  0  0  0  0  0  0  0  0  0
   -0.0517   -7.2500   14.6958 C   0  0  0  0  0  0  0  0  0  0  0  0
   -5.1951   -7.7438   10.7150 C   0  0  0  0  0  0  0  0  0  0  0  0
   -6.2370   -8.2518    9.7111 C   0  0  0  0  0  0  0  0  0  0  0  0
    0.4528   -7.2570   15.9067 N   0  0  0  0  0  0  0  0  0  0  0  0
    0.3892   -6.1943   16.6869 C   0  0  0  0  0  0  0  0  0  0  0  0
   -6.1599   -9.7790    9.6076 C   0  0  0  0  0  0  0  0  0  0  0  0
   -7.2180  -10.2790    8.6199 C   0  0  0  0  0  0  0  0  0  0  0  0
   -0.6543   -6.0027   17.5500 N   0  0  0  0  0  0  0  0  0  0  0  0
    1.3820   -5.2695   16.6301 N   0  0  0  0  0  0  0  0  0  0  0  0
   -7.1050  -11.5769    8.4654 N   0  0  0  0  0  0  0  0  0  0  0  0
   -8.1607  -12.3413    8.2607 C   0  0  0  0  0  0  0  0  0  0  0  0
   -9.3092  -11.7766    7.8072 N   0  0  0  0  0  0  0  0  0  0  0  0
   -8.1280  -13.6851    8.5040 N   0  0  0  0  0  0  0  0  0  0  0  0
   -2.7279   -9.2255   13.1005 C   0  0  0  0  0  0  0  0  0  0  0  0
   -5.1175  -12.6863   12.3503 O   0  0  0  0  0  0  0  0  0  0  0  0
   -4.1417   -9.1022   12.9749 C   0  0  0  0  0  0  0  0  0  0  0  0
   -4.9347  -10.2561   12.7339 C   0  0  0  0  0  0  0  0  0  0  0  0
   -4.3175  -11.5272   12.5969 C   0  0  0  0  0  0  0  0  0  0  0  0
   -2.9057  -11.6482   12.7026 C   0  0  0  0  0  0  0  0  0  0  0  0
   -2.1088  -10.4971   12.9472 C   0  0  0  0  0  0  0  0  0  0  0  0
   -5.4096  -13.3395   13.5891 C   0  0  0  0  0  0  0  0  0  0  0  0
  1  4  1  0  0  0  0
  2  3  1  0  0  0  0
  3  5  1  0  0  0  0
  4  6  1  0  0  0  0
  5  8  1  0  0  0  0
  6  7  1  0  0  0  0
  7 10  1  0  0  0  0
  8  9  1  0  0  0  0
  9 12  1  0  0  0  0
  9 13  1  0  0  0  0
 10 11  1  0  0  0  0
 11 14  1  0  0  0  0
 14 15  1  0  0  0  0
 15 16  1  0  0  0  0
 15 17  1  0  0  0  0
 18  2  1  0  0  0  0
 18 20  2  0  0  0  0
 18 24  1  0  0  0  0
 19 25  1  0  0  0  0
 20  1  1  0  0  0  0
 20 21  1  0  0  0  0
 21 22  2  0  0  0  0
 22 19  1  0  0  0  0
 22 23  1  0  0  0  0
 23 24  2  0  0  0  0
M  END
>  <CHROM.1>
-55.84565153,161.85844900,170.66484657,152.34694109,-114.33288812,-96.11762444
179.11876375,91.19532843,2.90716880,-22.95963723,176.23632738,145.98413072
19.92230831,-14.79845341,-15.23315080,118.80712776,135.46951754,-94.87149785
-4.07974150,-9.47780214,12.37291485,0.35835854,-0.79123381,-0.14322317

>  <Name>
1uud_lig

>  <RI>
0

>  <Rbt.Current_Directory>
/home/itssahil/PROJECTS/Mol_Feturizer/New_Systems/rnas/1uud

>  <Rbt.Executable>
rbdock ($Id: //depot/dev/client3/rdock/2013.1/src/exe/rbdock.cxx#4 $)

>  <Rbt.Library>
libRbt.so (2013.1, Build901 2013/11/27)

>  <Rbt.Parameter_File>
/export/apps/rDock/src/rDock_2013.1_src/data/scripts/dock_solv.prm

>  <Rbt.Receptor>
prm/blind_docking_80.prm

>  <SCORE>
-31.8343

>  <SCORE.INTER>
-25.7374

>  <SCORE.INTER.CONST>
1

>  <SCORE.INTER.POLAR>
-3.38511

>  <SCORE.INTER.ROT>
18

>  <SCORE.INTER.SOLV>
10.2342

>  <SCORE.INTER.VDW>
-24.886

>  <SCORE.INTER.norm>
-1.0295

>  <SCORE.INTRA>
-6.09688

>  <SCORE.INTRA.DIHEDRAL>
-4.77429

>  <SCORE.INTRA.DIHEDRAL.0>
30.6762

>  <SCORE.INTRA.POLAR>
0.0288659

>  <SCORE.INTRA.POLAR.0>
-0.0288659

>  <SCORE.INTRA.REPUL>
0

>  <SCORE.INTRA.REPUL.0>
0

>  <SCORE.INTRA.SOLV>
-1.4874

>  <SCORE.INTRA.SOLV.lig_0>
-25.2195

>  <SCORE.INTRA.VDW>
-3.06418

>  <SCORE.INTRA.VDW.0>
4.14263

>  <SCORE.INTRA.norm>
-0.243875

>  <SCORE.RESTR>
0

>  <SCORE.RESTR.CAVITY>
0

>  <SCORE.RESTR.norm>
0

>  <SCORE.SYSTEM>
0

>  <SCORE.SYSTEM.CONST>
0

>  <SCORE.SYSTEM.DIHEDRAL>
0

>  <SCORE.SYSTEM.SOLV>
0

>  <SCORE.SYSTEM.norm>
0

>  <SCORE.heavy>
25

>  <SCORE.norm>
-1.27337

>  <RMSD>
17.353

$$$$
1uud_lig
 OpenBabel11021811413D
libRbt.so/2013.1/901 2013/11/27
 25 25  0  0  0  0  0  0  0  0999 V2000
   -1.7044  -11.3115   13.0205 C   0  0  0  0  0  0  0  0  0  0  0  0
   -3.1142   -8.7467   12.8285 O   0  0  0  0  0  0  0  0  0  0  0  0
   -3.2568   -7.4582   12.2124 C   0  0  0  0  0  0  0  0  0  0  0  0
   -3.1882  -11.3171   13.0417 N   0  0  0  0  0  0  0  0  0  0  0  0
   -4.7249   -7.2082   11.8417 C   0  0  0  0  0  0  0  0  0  0  0  0
   -3.6989  -12.3911   12.1571 C   0  0  0  0  0  0  0  0  0  0  0  0
   -5.2207  -12.5016   12.3104 C   0  0  0  0  0  0  0  0  0  0  0  0
   -5.4470   -7.0911   12.9305 N   0  0  0  0  0  0  0  0  0  0  0  0
   -6.3836   -7.9697   13.2351 C   0  0  0  0  0  0  0  0  0  0  0  0
   -5.9066  -11.3801   11.5228 C   0  0  0  0  0  0  0  0  0  0  0  0
   -5.6747  -11.5918   10.0239 C   0  0  0  0  0  0  0  0  0  0  0  0
   -7.6365   -7.8961   12.6915 N   0  0  0  0  0  0  0  0  0  0  0  0
   -6.0970   -8.9687   14.1092 N   0  0  0  0  0  0  0  0  0  0  0  0
   -6.4513  -12.5537    9.5845 N   0  0  0  0  0  0  0  0  0  0  0  0
   -7.5928  -12.2945    8.9762 C   0  0  0  0  0  0  0  0  0  0  0  0
   -8.7599  -12.5808    9.6082 N   0  0  0  0  0  0  0  0  0  0  0  0
   -7.6277  -11.7546    7.7218 N   0  0  0  0  0  0  0  0  0  0  0  0
   -1.8927   -8.8023   13.5765 C   0  0  0  0  0  0  0  0  0  0  0  0
    1.7225   -8.9555   15.8475 O   0  0  0  0  0  0  0  0  0  0  0  0
   -1.1791  -10.0294   13.6991 C   0  0  0  0  0  0  0  0  0  0  0  0
    0.0183  -10.0793   14.4620 C   0  0  0  0  0  0  0  0  0  0  0  0
    0.5148   -8.9035   15.0837 C   0  0  0  0  0  0  0  0  0  0  0  0
   -0.1857   -7.6750   14.9457 C   0  0  0  0  0  0  0  0  0  0  0  0
   -1.3859   -7.6213   14.1864 C   0  0  0  0  0  0  0  0  0  0  0  0
    1.4080   -9.1651   17.2273 C   0  0  0  0  0  0  0  0  0  0  0  0
  1  4  1  0  0  0  0
  2  3  1  0  0  0  0
  3  5  1  0  0  0  0
  4  6  1  0  0  0  0
  5  8  1  0  0  0  0
  6  7  1  0  0  0  0
  7 10  1  0  0  0  0
  8  9  1  0  0  0  0
  9 12  1  0  0  0  0
  9 13  1  0  0  0  0
 10 11  1  0  0  0  0
 11 14  1  0  0  0  0
 14 15  1  0  0  0  0
 15 16  1  0  0  0  0
 15 17  1  0  0  0  0
 18  2  1  0  0  0  0
 18 20  2  0  0  0  0
 18 24  1  0  0  0  0
 19 25  1  0  0  0  0
 20  1  1  0  0  0  0
 20 21  1  0  0  0  0
 21 22  2  0  0  0  0
 22 19  1  0  0  0  0
 22 23  1  0  0  0  0
 23 24  2  0  0  0  0
M  END
>  <CHROM.1>
168.43301900,-160.14271667,67.41122228,173.31712775,-114.83704623,78.08244919
66.61395545,-82.56649576,146.45310443,127.92660322,76.10376388,98.29757591
-109.84077233,167.14173092,-94.32386383,-147.86683372,-34.64343900,-94.00019065
-3.84744942,-9.87523516,12.63434306,-0.51772308,0.45584497,-2.70388044

>  <Name>
1uud_lig

>  <RI>
0

>  <Rbt.Current_Directory>
/home/itssahil/PROJECTS/Mol_Feturizer/New_Systems/rnas/1uud

>  <Rbt.Executable>
rbdock ($Id: //depot/dev/client3/rdock/2013.1/src/exe/rbdock.cxx#4 $)

>  <Rbt.Library>
libRbt.so (2013.1, Build901 2013/11/27)

>  <Rbt.Parameter_File>
/export/apps/rDock/src/rDock_2013.1_src/data/scripts/dock_solv.prm

>  <Rbt.Receptor>
prm/blind_docking_80.prm

>  <SCORE>
-42.3773

>  <SCORE.INTER>
-31.8339

>  <SCORE.INTER.CONST>
1

>  <SCORE.INTER.POLAR>
-5.07385

>  <SCORE.INTER.ROT>
18

>  <SCORE.INTER.SOLV>
11.1087

>  <SCORE.INTER.VDW>
-23.6127

>  <SCORE.INTER.norm>
-1.27336

>  <SCORE.INTRA>
-11.8359

>  <SCORE.INTRA.DIHEDRAL>
-9.57808

>  <SCORE.INTRA.DIHEDRAL.0>
30.6762

>  <SCORE.INTRA.POLAR>
-0.738906

>  <SCORE.INTRA.POLAR.0>
-0.0288659

>  <SCORE.INTRA.REPUL>
0

>  <SCORE.INTRA.REPUL.0>
0

>  <SCORE.INTRA.SOLV>
0.608151

>  <SCORE.INTRA.SOLV.lig_0>
-25.2195

>  <SCORE.INTRA.VDW>
-4.83869

>  <SCORE.INTRA.VDW.0>
4.14263

>  <SCORE.INTRA.norm>
-0.473437

>  <SCORE.RESTR>
1.2926

>  <SCORE.RESTR.CAVITY>
1.2926

>  <SCORE.RESTR.norm>
0.0517038

>  <SCORE.SYSTEM>
0

>  <SCORE.SYSTEM.CONST>
0

>  <SCORE.SYSTEM.DIHEDRAL>
0

>  <SCORE.SYSTEM.SOLV>
0

>  <SCORE.SYSTEM.norm>
0

>  <SCORE.heavy>
25

>  <SCORE.norm>
-1.69509

>  <RMSD>
17.455

$$$$
1uud_lig
 OpenBabel11021811413D
libRbt.so/2013.1/901 2013/11/27
 25 25  0  0  0  0  0  0  0  0999 V2000
   -2.7683   -8.1183   13.3648 C   0  0  0  0  0  0  0  0  0  0  0  0
   -0.2969   -9.4046   14.2815 O   0  0  0  0  0  0  0  0  0  0  0  0
   -0.1442   -9.8528   15.6365 C   0  0  0  0  0  0  0  0  0  0  0  0
   -4.1239   -7.9366   13.9406 N   0  0  0  0  0  0  0  0  0  0  0  0
    0.9136   -9.0067   16.3579 C   0  0  0  0  0  0  0  0  0  0  0  0
   -4.9347   -7.0704   13.0523 C   0  0  0  0  0  0  0  0  0  0  0  0
   -6.2670   -7.7618   12.7385 C   0  0  0  0  0  0  0  0  0  0  0  0
    0.5022   -7.7648   16.4550 N   0  0  0  0  0  0  0  0  0  0  0  0
    1.0590   -6.7965   15.7520 C   0  0  0  0  0  0  0  0  0  0  0  0
   -6.3933   -7.9888   11.2281 C   0  0  0  0  0  0  0  0  0  0  0  0
   -6.1046   -9.4578   10.9057 C   0  0  0  0  0  0  0  0  0  0  0  0
    1.3799   -6.9645   14.4331 N   0  0  0  0  0  0  0  0  0  0  0  0
    1.3205   -5.6069   16.3524 N   0  0  0  0  0  0  0  0  0  0  0  0
   -5.9615   -9.6096    9.6104 N   0  0  0  0  0  0  0  0  0  0  0  0
   -5.8074  -10.8028    9.0691 C   0  0  0  0  0  0  0  0  0  0  0  0
   -5.0937  -10.9216    7.9201 N   0  0  0  0  0  0  0  0  0  0  0  0
   -6.3576  -11.9194    9.6318 N   0  0  0  0  0  0  0  0  0  0  0  0
   -1.2754  -10.2049   13.6056 C   0  0  0  0  0  0  0  0  0  0  0  0
   -4.1972  -12.6177   11.6328 O   0  0  0  0  0  0  0  0  0  0  0  0
   -2.4919   -9.6207   13.1486 C   0  0  0  0  0  0  0  0  0  0  0  0
   -3.4653  -10.4273   12.5005 C   0  0  0  0  0  0  0  0  0  0  0  0
   -3.2174  -11.8090   12.2891 C   0  0  0  0  0  0  0  0  0  0  0  0
   -1.9962  -12.3884   12.7270 C   0  0  0  0  0  0  0  0  0  0  0  0
   -1.0210  -11.5861   13.3791 C   0  0  0  0  0  0  0  0  0  0  0  0
   -5.0558  -13.2162   12.6080 C   0  0  0  0  0  0  0  0  0  0  0  0
  1  4  1  0  0  0  0
  2  3  1  0  0  0  0
  3  5  1  0  0  0  0
  4  6  1  0  0  0  0
  5  8  1  0  0  0  0
  6  7  1  0  0  0  0
  7 10  1  0  0  0  0
  8  9  1  0  0  0  0
  9 12  1  0  0  0  0
  9 13  1  0  0  0  0
 10 11  1  0  0  0  0
 11 14  1  0  0  0  0
 14 15  1  0  0  0  0
 15 16  1  0  0  0  0
 15 17  1  0  0  0  0
 18  2  1  0  0  0  0
 18 20  2  0  0  0  0
 18 24  1  0  0  0  0
 19 25  1  0  0  0  0
 20  1  1  0  0  0  0
 20 21  1  0  0  0  0
 21 22  2  0  0  0  0
 22 19  1  0  0  0  0
 22 23  1  0  0  0  0
 23 24  2  0  0  0  0
M  END
>  <CHROM.1>
-121.96366503,179.41289914,64.74667863,127.98744878,-109.44439376,-119.42699932
102.91721268,42.66864461,-66.28297302,-52.66917444,-168.16445286,-174.72100725
-150.53134542,-41.21620903,94.36891644,115.43205766,-131.22481892,-92.36465025
-2.88189469,-9.52123784,12.89422425,0.52548578,-0.60231214,0.28104122

>  <Name>
1uud_lig

>  <RI>
0

>  <Rbt.Current_Directory>
/home/itssahil/PROJECTS/Mol_Feturizer/New_Systems/rnas/1uud

>  <Rbt.Executable>
rbdock ($Id: //depot/dev/client3/rdock/2013.1/src/exe/rbdock.cxx#4 $)

>  <Rbt.Library>
libRbt.so (2013.1, Build901 2013/11/27)

>  <Rbt.Parameter_File>
/export/apps/rDock/src/rDock_2013.1_src/data/scripts/dock_solv.prm

>  <Rbt.Receptor>
prm/blind_docking_80.prm

>  <SCORE>
-27.2408

>  <SCORE.INTER>
-23.2131

>  <SCORE.INTER.CONST>
1

>  <SCORE.INTER.POLAR>
-2.55769

>  <SCORE.INTER.ROT>
18

>  <SCORE.INTER.SOLV>
10.278

>  <SCORE.INTER.VDW>
-25.9758

>  <SCORE.INTER.norm>
-0.928524

>  <SCORE.INTRA>
-4.64136

>  <SCORE.INTRA.DIHEDRAL>
6.497

>  <SCORE.INTRA.DIHEDRAL.0>
30.6762

>  <SCORE.INTRA.POLAR>
-0.971134

>  <SCORE.INTRA.POLAR.0>
-0.0288659

>  <SCORE.INTRA.REPUL>
0

>  <SCORE.INTRA.REPUL.0>
0

>  <SCORE.INTRA.SOLV>
0.318659

>  <SCORE.INTRA.SOLV.lig_0>
-25.2195

>  <SCORE.INTRA.VDW>
-4.74733

>  <SCORE.INTRA.VDW.0>
4.14263

>  <SCORE.INTRA.norm>
-0.185654

>  <SCORE.RESTR>
0.61364

>  <SCORE.RESTR.CAVITY>
0.61364

>  <SCORE.RESTR.norm>
0.0245456

>  <SCORE.SYSTEM>
0

>  <SCORE.SYSTEM.CONST>
0

>  <SCORE.SYSTEM.DIHEDRAL>
0

>  <SCORE.SYSTEM.SOLV>
0

>  <SCORE.SYSTEM.norm>
0

>  <SCORE.heavy>
25

>  <SCORE.norm>
-1.08963

>  <RMSD>
17.514

$$$$
1uud_lig
 OpenBabel11021811413D
libRbt.so/2013.1/901 2013/11/27
 25 25  0  0  0  0  0  0  0  0999 V2000
   -3.2819  -11.4799   13.0582 C   0  0  0  0  0  0  0  0  0  0  0  0
   -1.7991   -9.0859   13.8784 O   0  0  0  0  0  0  0  0  0  0  0  0
   -1.2226   -7.7889   14.0920 C   0  0  0  0  0  0  0  0  0  0  0  0
   -3.6029  -12.0629   11.7318 N   0  0  0  0  0  0  0  0  0  0  0  0
   -0.0413   -7.8886   15.0666 C   0  0  0  0  0  0  0  0  0  0  0  0
   -4.7912  -12.9415   11.8439 C   0  0  0  0  0  0  0  0  0  0  0  0
   -5.4746  -13.0569   10.4759 C   0  0  0  0  0  0  0  0  0  0  0  0
    0.3533   -6.6870   15.4148 N   0  0  0  0  0  0  0  0  0  0  0  0
    0.1973   -6.2395   16.6466 C   0  0  0  0  0  0  0  0  0  0  0  0
   -6.5660  -11.9888   10.3467 C   0  0  0  0  0  0  0  0  0  0  0  0
   -7.3847  -12.2447    9.0781 C   0  0  0  0  0  0  0  0  0  0  0  0
    1.2707   -5.9356   17.4379 N   0  0  0  0  0  0  0  0  0  0  0  0
   -1.0576   -6.0784   17.1399 N   0  0  0  0  0  0  0  0  0  0  0  0
   -7.7762  -13.4965    9.0456 N   0  0  0  0  0  0  0  0  0  0  0  0
   -8.9244  -13.8736    9.5746 C   0  0  0  0  0  0  0  0  0  0  0  0
  -10.0814  -13.5677    8.9331 N   0  0  0  0  0  0  0  0  0  0  0  0
   -8.9767  -14.5553   10.7572 N   0  0  0  0  0  0  0  0  0  0  0  0
   -3.2004   -8.9626   13.6033 C   0  0  0  0  0  0  0  0  0  0  0  0
   -7.3663   -8.5635   12.7453 O   0  0  0  0  0  0  0  0  0  0  0  0
   -3.9569  -10.0996   13.1970 C   0  0  0  0  0  0  0  0  0  0  0  0
   -5.3402   -9.9621   12.9042 C   0  0  0  0  0  0  0  0  0  0  0  0
   -5.9730   -8.6982   13.0367 C   0  0  0  0  0  0  0  0  0  0  0  0
   -5.2237   -7.5678   13.4607 C   0  0  0  0  0  0  0  0  0  0  0  0
   -3.8387   -7.7000   13.7513 C   0  0  0  0  0  0  0  0  0  0  0  0
   -7.5309   -7.9133   11.4817 C   0  0  0  0  0  0  0  0  0  0  0  0
  1  4  1  0  0  0  0
  2  3  1  0  0  0  0
  3  5  1  0  0  0  0
  4  6  1  0  0  0  0
  5  8  1  0  0  0  0
  6  7  1  0  0  0  0
  7 10  1  0  0  0  0
  8  9  1  0  0  0  0
  9 12  1  0  0  0  0
  9 13  1  0  0  0  0
 10 11  1  0  0  0  0
 11 14  1  0  0  0  0
 14 15  1  0  0  0  0
 15 16  1  0  0  0  0
 15 17  1  0  0  0  0
 18  2  1  0  0  0  0
 18 20  2  0  0  0  0
 18 24  1  0  0  0  0
 19 25  1  0  0  0  0
 20  1  1  0  0  0  0
 20 21  1  0  0  0  0
 21 22  2  0  0  0  0
 22 19  1  0  0  0  0
 22 23  1  0  0  0  0
 23 24  2  0  0  0  0
M  END
>  <CHROM.1>
-93.78926407,149.75170789,-170.55854192,155.99132642,112.11120242,-92.44319856
-171.30596909,116.11968327,134.39861007,-144.89509688,50.51243996,90.24741747
74.10845849,-136.79676094,99.83641439,172.31819604,-129.14316803,-104.63046357
-4.46762290,-9.95782067,12.74190978,-0.78973459,0.34280195,-2.69969762

>  <Name>
1uud_lig

>  <RI>
0

>  <Rbt.Current_Directory>
/home/itssahil/PROJECTS/Mol_Feturizer/New_Systems/rnas/1uud

>  <Rbt.Executable>
rbdock ($Id: //depot/dev/client3/rdock/2013.1/src/exe/rbdock.cxx#4 $)

>  <Rbt.Library>
libRbt.so (2013.1, Build901 2013/11/27)

>  <Rbt.Parameter_File>
/export/apps/rDock/src/rDock_2013.1_src/data/scripts/dock_solv.prm

>  <Rbt.Receptor>
prm/blind_docking_80.prm

>  <SCORE>
-29.3442

>  <SCORE.INTER>
-25.8805

>  <SCORE.INTER.CONST>
1

>  <SCORE.INTER.POLAR>
-3.6327

>  <SCORE.INTER.ROT>
18

>  <SCORE.INTER.SOLV>
11.2126

>  <SCORE.INTER.VDW>
-24.4822

>  <SCORE.INTER.norm>
-1.03522

>  <SCORE.INTRA>
-3.93924

>  <SCORE.INTRA.DIHEDRAL>
-4.59512

>  <SCORE.INTRA.DIHEDRAL.0>
30.6762

>  <SCORE.INTRA.POLAR>
0.0288659

>  <SCORE.INTRA.POLAR.0>
-0.0288659

>  <SCORE.INTRA.REPUL>
0

>  <SCORE.INTRA.REPUL.0>
0

>  <SCORE.INTRA.SOLV>
-0.979926

>  <SCORE.INTRA.SOLV.lig_0>
-25.2195

>  <SCORE.INTRA.VDW>
-1.24986

>  <SCORE.INTRA.VDW.0>
4.14263

>  <SCORE.INTRA.norm>
-0.15757

>  <SCORE.RESTR>
0.475517

>  <SCORE.RESTR.CAVITY>
0.475517

>  <SCORE.RESTR.norm>
0.0190207

>  <SCORE.SYSTEM>
0

>  <SCORE.SYSTEM.CONST>
0

>  <SCORE.SYSTEM.DIHEDRAL>
0

>  <SCORE.SYSTEM.SOLV>
0

>  <SCORE.SYSTEM.norm>
0

>  <SCORE.heavy>
25

>  <SCORE.norm>
-1.17377

>  <RMSD>
17.521

$$$$
1uud_lig
 OpenBabel11021811413D
libRbt.so/2013.1/901 2013/11/27
 25 25  0  0  0  0  0  0  0  0999 V2000
   -2.2583  -10.8584   12.9050 C   0  0  0  0  0  0  0  0  0  0  0  0
   -0.9708   -8.6633   14.3633 O   0  0  0  0  0  0  0  0  0  0  0  0
   -1.0892   -7.8962   15.5706 C   0  0  0  0  0  0  0  0  0  0  0  0
   -3.3549  -11.6480   13.5183 N   0  0  0  0  0  0  0  0  0  0  0  0
    0.0588   -6.8824   15.6684 C   0  0  0  0  0  0  0  0  0  0  0  0
   -4.4750  -11.7827   12.5570 C   0  0  0  0  0  0  0  0  0  0  0  0
   -4.1710  -12.9171   11.5710 C   0  0  0  0  0  0  0  0  0  0  0  0
   -0.1674   -6.0449   16.6524 N   0  0  0  0  0  0  0  0  0  0  0  0
    0.8053   -5.3327   17.1896 C   0  0  0  0  0  0  0  0  0  0  0  0
   -5.0255  -12.7540   10.3093 C   0  0  0  0  0  0  0  0  0  0  0  0
   -6.5090  -12.7983   10.6869 C   0  0  0  0  0  0  0  0  0  0  0  0
    1.6460   -4.5761   16.4205 N   0  0  0  0  0  0  0  0  0  0  0  0
    0.9760   -5.3527   18.5368 N   0  0  0  0  0  0  0  0  0  0  0  0
   -7.2435  -12.8529    9.6011 N   0  0  0  0  0  0  0  0  0  0  0  0
   -7.9588  -11.8195    9.2000 C   0  0  0  0  0  0  0  0  0  0  0  0
   -7.8473  -10.6397    9.8628 N   0  0  0  0  0  0  0  0  0  0  0  0
   -8.8160  -11.9117    8.1405 N   0  0  0  0  0  0  0  0  0  0  0  0
   -2.0525   -8.3538   13.4752 C   0  0  0  0  0  0  0  0  0  0  0  0
   -5.2449   -7.4035   10.8001 O   0  0  0  0  0  0  0  0  0  0  0  0
   -2.7020   -9.3896   12.7436 C   0  0  0  0  0  0  0  0  0  0  0  0
   -3.7577   -9.0696   11.8484 C   0  0  0  0  0  0  0  0  0  0  0  0
   -4.1793   -7.7223   11.6988 C   0  0  0  0  0  0  0  0  0  0  0  0
   -3.5452   -6.6910   12.4425 C   0  0  0  0  0  0  0  0  0  0  0  0
   -2.4862   -7.0061   13.3366 C   0  0  0  0  0  0  0  0  0  0  0  0
   -4.9838   -7.9880    9.5208 C   0  0  0  0  0  0  0  0  0  0  0  0
  1  4  1  0  0  0  0
  2  3  1  0  0  0  0
  3  5  1  0  0  0  0
  4  6  1  0  0  0  0
  5  8  1  0  0  0  0
  6  7  1  0  0  0  0
  7 10  1  0  0  0  0
  8  9  1  0  0  0  0
  9 12  1  0  0  0  0
  9 13  1  0  0  0  0
 10 11  1  0  0  0  0
 11 14  1  0  0  0  0
 14 15  1  0  0  0  0
 15 16  1  0  0  0  0
 15 17  1  0  0  0  0
 18  2  1  0  0  0  0
 18 20  2  0  0  0  0
 18 24  1  0  0  0  0
 19 25  1  0  0  0  0
 20  1  1  0  0  0  0
 20 21  1  0  0  0  0
 21 22  2  0  0  0  0
 22 19  1  0  0  0  0
 22 23  1  0  0  0  0
 23 24  2  0  0  0  0
M  END
>  <CHROM.1>
69.31242795,-112.88457330,169.93669793,81.44840449,160.52410375,-159.83416236
-60.03052395,51.95966024,89.05780747,22.09465710,-170.98292317,-108.17902932
5.48732449,-165.67736408,-170.46896933,-138.74309490,114.80961493,-50.90484184
-3.42834396,-9.13868214,12.75530681,-2.67977348,-0.78853664,-0.09997762

>  <Name>
1uud_lig

>  <RI>
0

>  <Rbt.Current_Directory>
/home/itssahil/PROJECTS/Mol_Feturizer/New_Systems/rnas/1uud

>  <Rbt.Executable>
rbdock ($Id: //depot/dev/client3/rdock/2013.1/src/exe/rbdock.cxx#4 $)

>  <Rbt.Library>
libRbt.so (2013.1, Build901 2013/11/27)

>  <Rbt.Parameter_File>
/export/apps/rDock/src/rDock_2013.1_src/data/scripts/dock_solv.prm

>  <Rbt.Receptor>
prm/blind_docking_20.prm

>  <SCORE>
-30.7932

>  <SCORE.INTER>
-30.5622

>  <SCORE.INTER.CONST>
1

>  <SCORE.INTER.POLAR>
-4.3479

>  <SCORE.INTER.ROT>
18

>  <SCORE.INTER.SOLV>
12.3223

>  <SCORE.INTER.VDW>
-25.5892

>  <SCORE.INTER.norm>
-1.22249

>  <SCORE.INTRA>
-0.610504

>  <SCORE.INTRA.DIHEDRAL>
-5.18974

>  <SCORE.INTRA.DIHEDRAL.0>
30.6762

>  <SCORE.INTRA.POLAR>
0.0288659

>  <SCORE.INTRA.POLAR.0>
-0.0288659

>  <SCORE.INTRA.REPUL>
0

>  <SCORE.INTRA.REPUL.0>
0

>  <SCORE.INTRA.SOLV>
-1.16119

>  <SCORE.INTRA.SOLV.lig_0>
-25.2195

>  <SCORE.INTRA.VDW>
2.46682

>  <SCORE.INTRA.VDW.0>
4.14263

>  <SCORE.INTRA.norm>
-0.0244202

>  <SCORE.RESTR>
0.379572

>  <SCORE.RESTR.CAVITY>
0.379572

>  <SCORE.RESTR.norm>
0.0151829

>  <SCORE.SYSTEM>
0

>  <SCORE.SYSTEM.CONST>
0

>  <SCORE.SYSTEM.DIHEDRAL>
0

>  <SCORE.SYSTEM.SOLV>
0

>  <SCORE.SYSTEM.norm>
0

>  <SCORE.heavy>
25

>  <SCORE.norm>
-1.23173

>  <RMSD>
17.538

$$$$
1uud_lig
 OpenBabel11021811413D
libRbt.so/2013.1/901 2013/11/27
 25 25  0  0  0  0  0  0  0  0999 V2000
   -3.5313  -11.0396   12.8684 C   0  0  0  0  0  0  0  0  0  0  0  0
   -1.5682   -9.1771   13.9995 O   0  0  0  0  0  0  0  0  0  0  0  0
   -0.7154   -8.1145   14.4510 C   0  0  0  0  0  0  0  0  0  0  0  0
   -4.8914  -11.6221   12.9823 N   0  0  0  0  0  0  0  0  0  0  0  0
   -1.2022   -7.5847   15.8066 C   0  0  0  0  0  0  0  0  0  0  0  0
   -4.8445  -13.0711   12.6742 C   0  0  0  0  0  0  0  0  0  0  0  0
   -5.0662  -13.2835   11.1718 C   0  0  0  0  0  0  0  0  0  0  0  0
   -0.2245   -7.6269   16.6800 N   0  0  0  0  0  0  0  0  0  0  0  0
    0.5199   -6.5670   16.9342 C   0  0  0  0  0  0  0  0  0  0  0  0
   -6.5095  -12.9244   10.8021 C   0  0  0  0  0  0  0  0  0  0  0  0
   -7.4628  -13.9710   11.3862 C   0  0  0  0  0  0  0  0  0  0  0  0
    0.5923   -5.5180   16.0596 N   0  0  0  0  0  0  0  0  0  0  0  0
    1.2313   -6.5179   18.0900 N   0  0  0  0  0  0  0  0  0  0  0  0
   -8.7051  -13.6282   11.1406 N   0  0  0  0  0  0  0  0  0  0  0  0
   -9.3228  -14.0160   10.0413 C   0  0  0  0  0  0  0  0  0  0  0  0
   -9.3551  -13.1817    8.9705 N   0  0  0  0  0  0  0  0  0  0  0  0
   -9.9391  -15.2323    9.9589 N   0  0  0  0  0  0  0  0  0  0  0  0
   -2.6610   -8.6430   13.2413 C   0  0  0  0  0  0  0  0  0  0  0  0
   -5.8854   -7.0328   10.9475 O   0  0  0  0  0  0  0  0  0  0  0  0
   -3.6339   -9.5131   12.6700 C   0  0  0  0  0  0  0  0  0  0  0  0
   -4.7003   -8.9754   11.9006 C   0  0  0  0  0  0  0  0  0  0  0  0
   -4.8087   -7.5716   11.7189 C   0  0  0  0  0  0  0  0  0  0  0  0
   -3.8499   -6.7017   12.3045 C   0  0  0  0  0  0  0  0  0  0  0  0
   -2.7794   -7.2355   13.0721 C   0  0  0  0  0  0  0  0  0  0  0  0
   -6.1112   -7.8560    9.7995 C   0  0  0  0  0  0  0  0  0  0  0  0
  1  4  1  0  0  0  0
  2  3  1  0  0  0  0
  3  5  1  0  0  0  0
  4  6  1  0  0  0  0
  5  8  1  0  0  0  0
  6  7  1  0  0  0  0
  7 10  1  0  0  0  0
  8  9  1  0  0  0  0
  9 12  1  0  0  0  0
  9 13  1  0  0  0  0
 10 11  1  0  0  0  0
 11 14  1  0  0  0  0
 14 15  1  0  0  0  0
 15 16  1  0  0  0  0
 15 17  1  0  0  0  0
 18  2  1  0  0  0  0
 18 20  2  0  0  0  0
 18 24  1  0  0  0  0
 19 25  1  0  0  0  0
 20  1  1  0  0  0  0
 20 21  1  0  0  0  0
 21 22  2  0  0  0  0
 22 19  1  0  0  0  0
 22 23  1  0  0  0  0
 23 24  2  0  0  0  0
M  END
>  <CHROM.1>
159.28644159,88.58637243,125.38122496,-89.89671162,96.47088106,-68.66211979
-70.03513883,-19.69959889,-8.02080038,108.13529844,176.32406430,89.79243444
-95.84584282,2.83040681,-82.18959653,179.07646021,144.89292626,-40.43277412
-4.24022541,-9.89466814,12.79859684,-2.74340080,-0.73999025,-0.31312874

>  <Name>
1uud_lig

>  <RI>
0

>  <Rbt.Current_Directory>
/home/itssahil/PROJECTS/Mol_Feturizer/New_Systems/rnas/1uud

>  <Rbt.Executable>
rbdock ($Id: //depot/dev/client3/rdock/2013.1/src/exe/rbdock.cxx#4 $)

>  <Rbt.Library>
libRbt.so (2013.1, Build901 2013/11/27)

>  <Rbt.Parameter_File>
/export/apps/rDock/src/rDock_2013.1_src/data/scripts/dock_solv.prm

>  <Rbt.Receptor>
prm/blind_docking_80.prm

>  <SCORE>
-18.5243

>  <SCORE.INTER>
-20.5149

>  <SCORE.INTER.CONST>
1

>  <SCORE.INTER.POLAR>
-3.6428

>  <SCORE.INTER.ROT>
18

>  <SCORE.INTER.SOLV>
9.73047

>  <SCORE.INTER.VDW>
-20.3774

>  <SCORE.INTER.norm>
-0.820594

>  <SCORE.INTRA>
1.07665

>  <SCORE.INTRA.DIHEDRAL>
-6.04936

>  <SCORE.INTRA.DIHEDRAL.0>
30.6762

>  <SCORE.INTRA.POLAR>
0.0288659

>  <SCORE.INTRA.POLAR.0>
-0.0288659

>  <SCORE.INTRA.REPUL>
0

>  <SCORE.INTRA.REPUL.0>
0

>  <SCORE.INTRA.SOLV>
-1.0378

>  <SCORE.INTRA.SOLV.lig_0>
-25.2195

>  <SCORE.INTRA.VDW>
4.52209

>  <SCORE.INTRA.VDW.0>
4.14263

>  <SCORE.INTRA.norm>
0.0430661

>  <SCORE.RESTR>
0.913918

>  <SCORE.RESTR.CAVITY>
0.913918

>  <SCORE.RESTR.norm>
0.0365567

>  <SCORE.SYSTEM>
0

>  <SCORE.SYSTEM.CONST>
0

>  <SCORE.SYSTEM.DIHEDRAL>
0

>  <SCORE.SYSTEM.SOLV>
0

>  <SCORE.SYSTEM.norm>
0

>  <SCORE.heavy>
25

>  <SCORE.norm>
-0.740972

>  <RMSD>
17.546

$$$$
1uud_lig
 OpenBabel11021811413D
libRbt.so/2013.1/901 2013/11/27
 25 25  0  0  0  0  0  0  0  0999 V2000
   -2.2790  -11.1062   12.7148 C   0  0  0  0  0  0  0  0  0  0  0  0
   -0.8949   -8.9288   14.1098 O   0  0  0  0  0  0  0  0  0  0  0  0
   -0.2670   -7.6532   14.3065 C   0  0  0  0  0  0  0  0  0  0  0  0
   -3.2294  -12.2351   12.8710 N   0  0  0  0  0  0  0  0  0  0  0  0
   -0.2922   -7.2744   15.7935 C   0  0  0  0  0  0  0  0  0  0  0  0
   -3.7963  -12.6003   11.5511 C   0  0  0  0  0  0  0  0  0  0  0  0
   -4.8501  -13.6996   11.7320 C   0  0  0  0  0  0  0  0  0  0  0  0
    0.0147   -6.0071   15.9370 N   0  0  0  0  0  0  0  0  0  0  0  0
    0.3751   -5.5126   17.1064 C   0  0  0  0  0  0  0  0  0  0  0  0
   -6.1878  -13.0763   12.1454 C   0  0  0  0  0  0  0  0  0  0  0  0
   -6.8373  -12.4068   10.9309 C   0  0  0  0  0  0  0  0  0  0  0  0
    1.6355   -5.0256   17.3187 N   0  0  0  0  0  0  0  0  0  0  0  0
   -0.5258   -5.4880   18.1223 N   0  0  0  0  0  0  0  0  0  0  0  0
   -6.5256  -11.1327   10.9049 N   0  0  0  0  0  0  0  0  0  0  0  0
   -6.0541  -10.5605    9.8137 C   0  0  0  0  0  0  0  0  0  0  0  0
   -4.7455  -10.7261    9.4915 N   0  0  0  0  0  0  0  0  0  0  0  0
   -6.8491   -9.7973    9.0064 N   0  0  0  0  0  0  0  0  0  0  0  0
   -2.2732   -8.7503   13.7589 C   0  0  0  0  0  0  0  0  0  0  0  0
   -6.3680   -8.1797   12.6833 O   0  0  0  0  0  0  0  0  0  0  0  0
   -2.9813   -9.7809   13.0761 C   0  0  0  0  0  0  0  0  0  0  0  0
   -4.3405   -9.5850   12.7122 C   0  0  0  0  0  0  0  0  0  0  0  0
   -4.9987   -8.3726   13.0472 C   0  0  0  0  0  0  0  0  0  0  0  0
   -4.2989   -7.3519   13.7454 C   0  0  0  0  0  0  0  0  0  0  0  0
   -2.9380   -7.5422   14.1083 C   0  0  0  0  0  0  0  0  0  0  0  0
   -6.4404   -7.6273   11.3656 C   0  0  0  0  0  0  0  0  0  0  0  0
  1  4  1  0  0  0  0
  2  3  1  0  0  0  0
  3  5  1  0  0  0  0
  4  6  1  0  0  0  0
  5  8  1  0  0  0  0
  6  7  1  0  0  0  0
  7 10  1  0  0  0  0
  8  9  1  0  0  0  0
  9 12  1  0  0  0  0
  9 13  1  0  0  0  0
 10 11  1  0  0  0  0
 11 14  1  0  0  0  0
 14 15  1  0  0  0  0
 15 16  1  0  0  0  0
 15 17  1  0  0  0  0
 18  2  1  0  0  0  0
 18 20  2  0  0  0  0
 18 24  1  0  0  0  0
 19 25  1  0  0  0  0
 20  1  1  0  0  0  0
 20 21  1  0  0  0  0
 21 22  2  0  0  0  0
 22 19  1  0  0  0  0
 22 23  1  0  0  0  0
 23 24  2  0  0  0  0
M  END
>  <CHROM.1>
98.55479061,94.69539553,-166.58582401,-176.03198135,-163.48454760,82.20351505
75.01969227,114.66467870,170.27141530,-96.19480632,-94.44802472,130.10557091
-79.18991828,-85.86884965,19.42081221,158.18582255,142.90625501,-87.80206231
-3.42769417,-9.20158212,13.13532704,-2.39109666,-0.58870619,0.28647020

>  <Name>
1uud_lig

>  <RI>
0

>  <Rbt.Current_Directory>
/home/itssahil/PROJECTS/Mol_Feturizer/New_Systems/rnas/1uud

>  <Rbt.Executable>
rbdock ($Id: //depot/dev/client3/rdock/2013.1/src/exe/rbdock.cxx#4 $)

>  <Rbt.Library>
libRbt.so (2013.1, Build901 2013/11/27)

>  <Rbt.Parameter_File>
/export/apps/rDock/src/rDock_2013.1_src/data/scripts/dock_solv.prm

>  <Rbt.Receptor>
prm/blind_docking_20.prm

>  <SCORE>
-39.1239

>  <SCORE.INTER>
-36.1751

>  <SCORE.INTER.CONST>
1

>  <SCORE.INTER.POLAR>
-6.54641

>  <SCORE.INTER.ROT>
18

>  <SCORE.INTER.SOLV>
10.8664

>  <SCORE.INTER.VDW>
-21.5175

>  <SCORE.INTER.norm>
-1.447

>  <SCORE.INTRA>
-3.3747

>  <SCORE.INTRA.DIHEDRAL>
-1.16911

>  <SCORE.INTRA.DIHEDRAL.0>
30.6762

>  <SCORE.INTRA.POLAR>
0.0288659

>  <SCORE.INTRA.POLAR.0>
-0.0288659

>  <SCORE.INTRA.REPUL>
0

>  <SCORE.INTRA.REPUL.0>
0

>  <SCORE.INTRA.SOLV>
1.08561

>  <SCORE.INTRA.SOLV.lig_0>
-25.2195

>  <SCORE.INTRA.VDW>
-3.4311

>  <SCORE.INTRA.VDW.0>
4.14263

>  <SCORE.INTRA.norm>
-0.134988

>  <SCORE.RESTR>
0.425899

>  <SCORE.RESTR.CAVITY>
0.425899

>  <SCORE.RESTR.norm>
0.0170359

>  <SCORE.SYSTEM>
0

>  <SCORE.SYSTEM.CONST>
0

>  <SCORE.SYSTEM.DIHEDRAL>
0

>  <SCORE.SYSTEM.SOLV>
0

>  <SCORE.SYSTEM.norm>
0

>  <SCORE.heavy>
25

>  <SCORE.norm>
-1.56496

>  <RMSD>
17.674

$$$$
1uud_lig
 OpenBabel11021811413D
libRbt.so/2013.1/901 2013/11/27
 25 25  0  0  0  0  0  0  0  0999 V2000
   -4.8375   -7.5636   14.0775 C   0  0  0  0  0  0  0  0  0  0  0  0
   -1.9291   -7.1860   14.1174 O   0  0  0  0  0  0  0  0  0  0  0  0
   -0.5316   -7.2684   14.4344 C   0  0  0  0  0  0  0  0  0  0  0  0
   -4.9992   -6.7435   12.8513 N   0  0  0  0  0  0  0  0  0  0  0  0
   -0.3430   -7.5033   15.9392 C   0  0  0  0  0  0  0  0  0  0  0  0
   -4.4845   -7.4883   11.6778 C   0  0  0  0  0  0  0  0  0  0  0  0
   -5.6391   -8.2327   10.9962 C   0  0  0  0  0  0  0  0  0  0  0  0
    0.7572   -6.9179   16.3484 N   0  0  0  0  0  0  0  0  0  0  0  0
    0.7237   -5.8582   17.1345 C   0  0  0  0  0  0  0  0  0  0  0  0
   -5.1644   -8.8223    9.6636 C   0  0  0  0  0  0  0  0  0  0  0  0
   -6.3496   -9.4653    8.9375 C   0  0  0  0  0  0  0  0  0  0  0  0
    1.7065   -4.9079   17.0954 N   0  0  0  0  0  0  0  0  0  0  0  0
   -0.3098   -5.7090   18.0028 N   0  0  0  0  0  0  0  0  0  0  0  0
   -6.6032  -10.6436    9.4556 N   0  0  0  0  0  0  0  0  0  0  0  0
   -6.5951  -11.7372    8.7178 C   0  0  0  0  0  0  0  0  0  0  0  0
   -7.6967  -12.0528    7.9893 N   0  0  0  0  0  0  0  0  0  0  0  0
   -5.5086  -12.5643    8.6778 N   0  0  0  0  0  0  0  0  0  0  0  0
   -2.4463   -8.4913   13.8288 C   0  0  0  0  0  0  0  0  0  0  0  0
   -3.9651  -12.3994   13.0100 O   0  0  0  0  0  0  0  0  0  0  0  0
   -3.8525   -8.7192   13.8046 C   0  0  0  0  0  0  0  0  0  0  0  0
   -4.3545  -10.0217   13.5404 C   0  0  0  0  0  0  0  0  0  0  0  0
   -3.4571  -11.0903   13.2797 C   0  0  0  0  0  0  0  0  0  0  0  0
   -2.0550  -10.8598   13.2843 C   0  0  0  0  0  0  0  0  0  0  0  0
   -1.5482   -9.5592   13.5517 C   0  0  0  0  0  0  0  0  0  0  0  0
   -4.6176  -12.4073   11.7369 C   0  0  0  0  0  0  0  0  0  0  0  0
  1  4  1  0  0  0  0
  2  3  1  0  0  0  0
  3  5  1  0  0  0  0
  4  6  1  0  0  0  0
  5  8  1  0  0  0  0
  6  7  1  0  0  0  0
  7 10  1  0  0  0  0
  8  9  1  0  0  0  0
  9 12  1  0  0  0  0
  9 13  1  0  0  0  0
 10 11  1  0  0  0  0
 11 14  1  0  0  0  0
 14 15  1  0  0  0  0
 15 16  1  0  0  0  0
 15 17  1  0  0  0  0
 18  2  1  0  0  0  0
 18 20  2  0  0  0  0
 18 24  1  0  0  0  0
 19 25  1  0  0  0  0
 20  1  1  0  0  0  0
 20 21  1  0  0  0  0
 21 22  2  0  0  0  0
 22 19  1  0  0  0  0
 22 23  1  0  0  0  0
 23 24  2  0  0  0  0
M  END
>  <CHROM.1>
15.76421251,-88.95358395,-147.27358805,94.38549476,110.43973583,171.11003996
-175.45440399,-150.20781128,-175.46856748,106.31790373,-78.87136089,-122.51334275
-82.19340940,129.86365750,147.31621970,164.75687901,80.21076826,69.35022799
-3.37033722,-8.95159854,12.87559879,0.60265275,-0.76421523,0.17757818

>  <Name>
1uud_lig

>  <RI>
0

>  <Rbt.Current_Directory>
/home/itssahil/PROJECTS/Mol_Feturizer/New_Systems/rnas/1uud

>  <Rbt.Executable>
rbdock ($Id: //depot/dev/client3/rdock/2013.1/src/exe/rbdock.cxx#4 $)

>  <Rbt.Library>
libRbt.so (2013.1, Build901 2013/11/27)

>  <Rbt.Parameter_File>
/export/apps/rDock/src/rDock_2013.1_src/data/scripts/dock_solv.prm

>  <Rbt.Receptor>
prm/blind_docking_20.prm

>  <SCORE>
-37.0773

>  <SCORE.INTER>
-39.0844

>  <SCORE.INTER.CONST>
1

>  <SCORE.INTER.POLAR>
-5.69623

>  <SCORE.INTER.ROT>
18

>  <SCORE.INTER.SOLV>
10.1941

>  <SCORE.INTER.VDW>
-26.0669

>  <SCORE.INTER.norm>
-1.56338

>  <SCORE.INTRA>
2.00715

>  <SCORE.INTRA.DIHEDRAL>
-2.39687

>  <SCORE.INTRA.DIHEDRAL.0>
30.6762

>  <SCORE.INTRA.POLAR>
0.0288659

>  <SCORE.INTRA.POLAR.0>
-0.0288659

>  <SCORE.INTRA.REPUL>
0

>  <SCORE.INTRA.REPUL.0>
0

>  <SCORE.INTRA.SOLV>
-0.709265

>  <SCORE.INTRA.SOLV.lig_0>
-25.2195

>  <SCORE.INTRA.VDW>
3.46207

>  <SCORE.INTRA.VDW.0>
4.14263

>  <SCORE.INTRA.norm>
0.0802859

>  <SCORE.RESTR>
0

>  <SCORE.RESTR.CAVITY>
0

>  <SCORE.RESTR.norm>
0

>  <SCORE.SYSTEM>
0

>  <SCORE.SYSTEM.CONST>
0

>  <SCORE.SYSTEM.DIHEDRAL>
0

>  <SCORE.SYSTEM.SOLV>
0

>  <SCORE.SYSTEM.norm>
0

>  <SCORE.heavy>
25

>  <SCORE.norm>
-1.48309

>  <RMSD>
17.696

$$$$
1uud_lig
 OpenBabel11021811413D
libRbt.so/2013.1/901 2013/11/27
 25 25  0  0  0  0  0  0  0  0999 V2000
   -4.1463   -7.5079   13.9690 C   0  0  0  0  0  0  0  0  0  0  0  0
   -1.2480   -7.8659   13.6964 O   0  0  0  0  0  0  0  0  0  0  0  0
   -0.4852   -8.0749   14.8942 C   0  0  0  0  0  0  0  0  0  0  0  0
   -4.6366   -6.8165   12.7509 N   0  0  0  0  0  0  0  0  0  0  0  0
    0.6199   -7.0163   15.0095 C   0  0  0  0  0  0  0  0  0  0  0  0
   -5.8539   -7.4940   12.2448 C   0  0  0  0  0  0  0  0  0  0  0  0
   -5.5118   -8.2813   10.9741 C   0  0  0  0  0  0  0  0  0  0  0  0
    1.0324   -6.9346   16.2520 N   0  0  0  0  0  0  0  0  0  0  0  0
    0.7742   -5.8758   16.9966 C   0  0  0  0  0  0  0  0  0  0  0  0
   -6.6172   -9.3012   10.6795 C   0  0  0  0  0  0  0  0  0  0  0  0
   -6.1966  -10.1859    9.5024 C   0  0  0  0  0  0  0  0  0  0  0  0
   -0.4269   -5.7257   17.6335 N   0  0  0  0  0  0  0  0  0  0  0  0
    1.7223   -4.9130   17.1321 N   0  0  0  0  0  0  0  0  0  0  0  0
   -7.1996  -10.9493    9.1383 N   0  0  0  0  0  0  0  0  0  0  0  0
   -7.0613  -12.2551    9.0110 C   0  0  0  0  0  0  0  0  0  0  0  0
   -7.4527  -13.0648   10.0283 N   0  0  0  0  0  0  0  0  0  0  0  0
   -6.5242  -12.8104    7.8843 N   0  0  0  0  0  0  0  0  0  0  0  0
   -2.1027   -8.9909   13.4544 C   0  0  0  0  0  0  0  0  0  0  0  0
   -4.6285  -12.3680   12.7720 O   0  0  0  0  0  0  0  0  0  0  0  0
   -3.5159   -8.8615   13.5810 C   0  0  0  0  0  0  0  0  0  0  0  0
   -4.3528   -9.9883   13.3617 C   0  0  0  0  0  0  0  0  0  0  0  0
   -3.7836  -11.2364   12.9961 C   0  0  0  0  0  0  0  0  0  0  0  0
   -2.3757  -11.3616   12.8506 C   0  0  0  0  0  0  0  0  0  0  0  0
   -1.5344  -10.2378   13.0724 C   0  0  0  0  0  0  0  0  0  0  0  0
   -5.4524  -12.5859   13.9210 C   0  0  0  0  0  0  0  0  0  0  0  0
  1  4  1  0  0  0  0
  2  3  1  0  0  0  0
  3  5  1  0  0  0  0
  4  6  1  0  0  0  0
  5  8  1  0  0  0  0
  6  7  1  0  0  0  0
  7 10  1  0  0  0  0
  8  9  1  0  0  0  0
  9 12  1  0  0  0  0
  9 13  1  0  0  0  0
 10 11  1  0  0  0  0
 11 14  1  0  0  0  0
 14 15  1  0  0  0  0
 15 16  1  0  0  0  0
 15 17  1  0  0  0  0
 18  2  1  0  0  0  0
 18 20  2  0  0  0  0
 18 24  1  0  0  0  0
 19 25  1  0  0  0  0
 20  1  1  0  0  0  0
 20 21  1  0  0  0  0
 21 22  2  0  0  0  0
 22 19  1  0  0  0  0
 22 23  1  0  0  0  0
 23 24  2  0  0  0  0
M  END
>  <CHROM.1>
72.55353546,168.87341994,160.33081081,-106.64529836,-110.20079869,163.19884456
-173.80625087,81.97888713,15.33944134,22.54327876,-172.27400748,-128.33170488
98.07857124,28.97120847,163.46455475,111.16970980,98.93624690,-54.76357437
-3.48899882,-9.21083623,12.95283357,0.58451663,-0.68758968,0.11089639

>  <Name>
1uud_lig

>  <RI>
0

>  <Rbt.Current_Directory>
/home/itssahil/PROJECTS/Mol_Feturizer/New_Systems/rnas/1uud

>  <Rbt.Executable>
rbdock ($Id: //depot/dev/client3/rdock/2013.1/src/exe/rbdock.cxx#4 $)

>  <Rbt.Library>
libRbt.so (2013.1, Build901 2013/11/27)

>  <Rbt.Parameter_File>
/export/apps/rDock/src/rDock_2013.1_src/data/scripts/dock_solv.prm

>  <Rbt.Receptor>
prm/blind_docking_80.prm

>  <SCORE>
-42.2533

>  <SCORE.INTER>
-34.1349

>  <SCORE.INTER.CONST>
1

>  <SCORE.INTER.POLAR>
-4.45551

>  <SCORE.INTER.ROT>
18

>  <SCORE.INTER.SOLV>
10.9331

>  <SCORE.INTER.VDW>
-27.1493

>  <SCORE.INTER.norm>
-1.3654

>  <SCORE.INTRA>
-8.33736

>  <SCORE.INTRA.DIHEDRAL>
-6.08655

>  <SCORE.INTRA.DIHEDRAL.0>
30.6762

>  <SCORE.INTRA.POLAR>
0.0288659

>  <SCORE.INTRA.POLAR.0>
-0.0288659

>  <SCORE.INTRA.REPUL>
0

>  <SCORE.INTRA.REPUL.0>
0

>  <SCORE.INTRA.SOLV>
-1.32927

>  <SCORE.INTRA.SOLV.lig_0>
-25.2195

>  <SCORE.INTRA.VDW>
-4.72759

>  <SCORE.INTRA.VDW.0>
4.14263

>  <SCORE.INTRA.norm>
-0.333494

>  <SCORE.RESTR>
0.219039

>  <SCORE.RESTR.CAVITY>
0.219039

>  <SCORE.RESTR.norm>
0.00876158

>  <SCORE.SYSTEM>
0

>  <SCORE.SYSTEM.CONST>
0

>  <SCORE.SYSTEM.DIHEDRAL>
0

>  <SCORE.SYSTEM.SOLV>
0

>  <SCORE.SYSTEM.norm>
0

>  <SCORE.heavy>
25

>  <SCORE.norm>
-1.69013

>  <RMSD>
17.743

$$$$
1uud_lig
 OpenBabel11021811413D
libRbt.so/2013.1/901 2013/11/27
 25 25  0  0  0  0  0  0  0  0999 V2000
   -3.5830   -7.9835   12.5964 C   0  0  0  0  0  0  0  0  0  0  0  0
   -1.3896   -8.3504   14.5087 O   0  0  0  0  0  0  0  0  0  0  0  0
    0.0384   -8.3895   14.6492 C   0  0  0  0  0  0  0  0  0  0  0  0
   -4.7940   -7.8749   13.4471 N   0  0  0  0  0  0  0  0  0  0  0  0
    0.5572   -7.0388   15.1605 C   0  0  0  0  0  0  0  0  0  0  0  0
   -5.7685   -8.9260   13.0698 C   0  0  0  0  0  0  0  0  0  0  0  0
   -7.0271   -8.2728   12.4861 C   0  0  0  0  0  0  0  0  0  0  0  0
    0.4562   -6.9871   16.4674 N   0  0  0  0  0  0  0  0  0  0  0  0
    0.5106   -5.8405   17.1188 C   0  0  0  0  0  0  0  0  0  0  0  0
   -6.6565   -7.4296   11.2612 C   0  0  0  0  0  0  0  0  0  0  0  0
   -5.8311   -8.2762   10.2880 C   0  0  0  0  0  0  0  0  0  0  0  0
    1.4774   -4.9111   16.8504 N   0  0  0  0  0  0  0  0  0  0  0  0
   -0.4139   -5.5785   18.0785 N   0  0  0  0  0  0  0  0  0  0  0  0
   -6.6037   -9.1577    9.6986 N   0  0  0  0  0  0  0  0  0  0  0  0
   -6.1030  -10.2164    9.0912 C   0  0  0  0  0  0  0  0  0  0  0  0
   -5.2084  -10.0411    8.0849 N   0  0  0  0  0  0  0  0  0  0  0  0
   -6.4715  -11.4836    9.4440 N   0  0  0  0  0  0  0  0  0  0  0  0
   -1.8418   -9.4856   13.7594 C   0  0  0  0  0  0  0  0  0  0  0  0
   -3.2037  -12.8914   11.5694 O   0  0  0  0  0  0  0  0  0  0  0  0
   -2.9082   -9.3521   12.8240 C   0  0  0  0  0  0  0  0  0  0  0  0
   -3.3646  -10.4882   12.1033 C   0  0  0  0  0  0  0  0  0  0  0  0
   -2.7451  -11.7504   12.2991 C   0  0  0  0  0  0  0  0  0  0  0  0
   -1.6687  -11.8805   13.2174 C   0  0  0  0  0  0  0  0  0  0  0  0
   -1.2111  -10.7474   13.9432 C   0  0  0  0  0  0  0  0  0  0  0  0
   -4.5700  -13.1551   11.9015 C   0  0  0  0  0  0  0  0  0  0  0  0
  1  4  1  0  0  0  0
  2  3  1  0  0  0  0
  3  5  1  0  0  0  0
  4  6  1  0  0  0  0
  5  8  1  0  0  0  0
  6  7  1  0  0  0  0
  7 10  1  0  0  0  0
  8  9  1  0  0  0  0
  9 12  1  0  0  0  0
  9 13  1  0  0  0  0
 10 11  1  0  0  0  0
 11 14  1  0  0  0  0
 14 15  1  0  0  0  0
 15 16  1  0  0  0  0
 15 17  1  0  0  0  0
 18  2  1  0  0  0  0
 18 20  2  0  0  0  0
 18 24  1  0  0  0  0
 19 25  1  0  0  0  0
 20  1  1  0  0  0  0
 20 21  1  0  0  0  0
 21 22  2  0  0  0  0
 22 19  1  0  0  0  0
 22 23  1  0  0  0  0
 23 24  2  0  0  0  0
M  END
>  <CHROM.1>
-61.82401107,167.14273440,83.64649298,-114.62892630,-162.63070233,58.77364806
51.67715491,-46.92300541,161.64032720,35.36162017,72.50585767,-162.15654997
-57.79556774,-164.85478523,39.44426244,-141.90199335,-94.95994043,-61.61872297
-3.15002467,-9.02271585,12.96359806,2.45358276,0.59984818,-2.72406937

>  <Name>
1uud_lig

>  <RI>
0

>  <Rbt.Current_Directory>
/home/itssahil/PROJECTS/Mol_Feturizer/New_Systems/rnas/1uud

>  <Rbt.Executable>
rbdock ($Id: //depot/dev/client3/rdock/2013.1/src/exe/rbdock.cxx#4 $)

>  <Rbt.Library>
libRbt.so (2013.1, Build901 2013/11/27)

>  <Rbt.Parameter_File>
/export/apps/rDock/src/rDock_2013.1_src/data/scripts/dock_solv.prm

>  <Rbt.Receptor>
prm/blind_docking_20.prm

>  <SCORE>
-27.9555

>  <SCORE.INTER>
-26.1689

>  <SCORE.INTER.CONST>
1

>  <SCORE.INTER.POLAR>
-2.541

>  <SCORE.INTER.ROT>
18

>  <SCORE.INTER.SOLV>
9.62092

>  <SCORE.INTER.VDW>
-27.7829

>  <SCORE.INTER.norm>
-1.04676

>  <SCORE.INTRA>
-2.39118

>  <SCORE.INTRA.DIHEDRAL>
-7.74643

>  <SCORE.INTRA.DIHEDRAL.0>
30.6762

>  <SCORE.INTRA.POLAR>
0.0288659

>  <SCORE.INTRA.POLAR.0>
-0.0288659

>  <SCORE.INTRA.REPUL>
0

>  <SCORE.INTRA.REPUL.0>
0

>  <SCORE.INTRA.SOLV>
-0.411351

>  <SCORE.INTRA.SOLV.lig_0>
-25.2195

>  <SCORE.INTRA.VDW>
1.58956

>  <SCORE.INTRA.VDW.0>
4.14263

>  <SCORE.INTRA.norm>
-0.0956473

>  <SCORE.RESTR>
0.604583

>  <SCORE.RESTR.CAVITY>
0.604583

>  <SCORE.RESTR.norm>
0.0241833

>  <SCORE.SYSTEM>
0

>  <SCORE.SYSTEM.CONST>
0

>  <SCORE.SYSTEM.DIHEDRAL>
0

>  <SCORE.SYSTEM.SOLV>
0

>  <SCORE.SYSTEM.norm>
0

>  <SCORE.heavy>
25

>  <SCORE.norm>
-1.11822

>  <RMSD>
17.746

$$$$
1uud_lig
 OpenBabel11021811413D
libRbt.so/2013.1/901 2013/11/27
 25 25  0  0  0  0  0  0  0  0999 V2000
   -3.2608  -10.5705   12.5609 C   0  0  0  0  0  0  0  0  0  0  0  0
   -1.7345   -8.7616   14.2933 O   0  0  0  0  0  0  0  0  0  0  0  0
   -0.9269   -7.5790   14.1955 C   0  0  0  0  0  0  0  0  0  0  0  0
   -4.3270  -11.5687   12.2982 N   0  0  0  0  0  0  0  0  0  0  0  0
   -0.0962   -7.3981   15.4731 C   0  0  0  0  0  0  0  0  0  0  0  0
   -3.7701  -12.7077   11.5305 C   0  0  0  0  0  0  0  0  0  0  0  0
   -4.7815  -13.8603   11.5168 C   0  0  0  0  0  0  0  0  0  0  0  0
    0.0675   -6.1207   15.7226 N   0  0  0  0  0  0  0  0  0  0  0  0
    0.3370   -5.6841   16.9386 C   0  0  0  0  0  0  0  0  0  0  0  0
   -6.2049  -13.3033   11.4047 C   0  0  0  0  0  0  0  0  0  0  0  0
   -6.4006  -12.6739   10.0224 C   0  0  0  0  0  0  0  0  0  0  0  0
   -0.6445   -5.5404   17.8803 N   0  0  0  0  0  0  0  0  0  0  0  0
    1.6179   -5.3691   17.2615 N   0  0  0  0  0  0  0  0  0  0  0  0
   -7.2355  -11.6654   10.1063 N   0  0  0  0  0  0  0  0  0  0  0  0
   -8.3717  -11.6533    9.4360 C   0  0  0  0  0  0  0  0  0  0  0  0
   -8.7053  -10.5503    8.7180 N   0  0  0  0  0  0  0  0  0  0  0  0
   -9.2245  -12.7203    9.4559 N   0  0  0  0  0  0  0  0  0  0  0  0
   -3.1044   -8.4470   14.0125 C   0  0  0  0  0  0  0  0  0  0  0  0
   -7.1726   -7.4667   13.1529 O   0  0  0  0  0  0  0  0  0  0  0  0
   -3.8801   -9.2962   13.1716 C   0  0  0  0  0  0  0  0  0  0  0  0
   -5.2302   -8.9631   12.8806 C   0  0  0  0  0  0  0  0  0  0  0  0
   -5.8123   -7.7973   13.4440 C   0  0  0  0  0  0  0  0  0  0  0  0
   -5.0453   -6.9603   14.2985 C   0  0  0  0  0  0  0  0  0  0  0  0
   -3.6932   -7.2876   14.5894 C   0  0  0  0  0  0  0  0  0  0  0  0
   -7.4769   -7.8341   11.8042 C   0  0  0  0  0  0  0  0  0  0  0  0
  1  4  1  0  0  0  0
  2  3  1  0  0  0  0
  3  5  1  0  0  0  0
  4  6  1  0  0  0  0
  5  8  1  0  0  0  0
  6  7  1  0  0  0  0
  7 10  1  0  0  0  0
  8  9  1  0  0  0  0
  9 12  1  0  0  0  0
  9 13  1  0  0  0  0
 10 11  1  0  0  0  0
 11 14  1  0  0  0  0
 14 15  1  0  0  0  0
 15 16  1  0  0  0  0
 15 17  1  0  0  0  0
 18  2  1  0  0  0  0
 18 20  2  0  0  0  0
 18 24  1  0  0  0  0
 19 25  1  0  0  0  0
 20  1  1  0  0  0  0
 20 21  1  0  0  0  0
 21 22  2  0  0  0  0
 22 19  1  0  0  0  0
 22 23  1  0  0  0  0
 23 24  2  0  0  0  0
M  END
>  <CHROM.1>
171.62762136,127.45624171,-147.23230849,168.12601896,157.13115125,37.39976667
68.13192751,-79.73748107,3.30343736,16.62577949,-148.05272006,-119.51423483
-131.39323310,119.29905988,-60.64478479,136.06336323,153.41291917,-35.45452950
-4.21387229,-9.27281618,13.03717892,-2.36397607,-0.41394921,0.43637435

>  <Name>
1uud_lig

>  <RI>
0

>  <Rbt.Current_Directory>
/home/itssahil/PROJECTS/Mol_Feturizer/New_Systems/rnas/1uud

>  <Rbt.Executable>
rbdock ($Id: //depot/dev/client3/rdock/2013.1/src/exe/rbdock.cxx#4 $)

>  <Rbt.Library>
libRbt.so (2013.1, Build901 2013/11/27)

>  <Rbt.Parameter_File>
/export/apps/rDock/src/rDock_2013.1_src/data/scripts/dock_solv.prm

>  <Rbt.Receptor>
prm/blind_docking_80.prm

>  <SCORE>
-23.8373

>  <SCORE.INTER>
-24.6575

>  <SCORE.INTER.CONST>
1

>  <SCORE.INTER.POLAR>
-3.98294

>  <SCORE.INTER.ROT>
18

>  <SCORE.INTER.SOLV>
12.299

>  <SCORE.INTER.VDW>
-22.8615

>  <SCORE.INTER.norm>
-0.986299

>  <SCORE.INTRA>
0.653543

>  <SCORE.INTRA.DIHEDRAL>
-0.783785

>  <SCORE.INTRA.DIHEDRAL.0>
30.6762

>  <SCORE.INTRA.POLAR>
0.0288659

>  <SCORE.INTRA.POLAR.0>
-0.0288659

>  <SCORE.INTRA.REPUL>
0

>  <SCORE.INTRA.REPUL.0>
0

>  <SCORE.INTRA.SOLV>
-0.708275

>  <SCORE.INTRA.SOLV.lig_0>
-25.2195

>  <SCORE.INTRA.VDW>
1.30143

>  <SCORE.INTRA.VDW.0>
4.14263

>  <SCORE.INTRA.norm>
0.0261417

>  <SCORE.RESTR>
0.166622

>  <SCORE.RESTR.CAVITY>
0.166622

>  <SCORE.RESTR.norm>
0.00666488

>  <SCORE.SYSTEM>
0

>  <SCORE.SYSTEM.CONST>
0

>  <SCORE.SYSTEM.DIHEDRAL>
0

>  <SCORE.SYSTEM.SOLV>
0

>  <SCORE.SYSTEM.norm>
0

>  <SCORE.heavy>
25

>  <SCORE.norm>
-0.953493

>  <RMSD>
17.759

$$$$
1uud_lig
 OpenBabel11021811413D
libRbt.so/2013.1/901 2013/11/27
 25 25  0  0  0  0  0  0  0  0999 V2000
   -3.7974   -8.0484   13.9110 C   0  0  0  0  0  0  0  0  0  0  0  0
   -1.1890   -8.8835   14.9608 O   0  0  0  0  0  0  0  0  0  0  0  0
   -0.6967   -9.4829   16.1685 C   0  0  0  0  0  0  0  0  0  0  0  0
   -5.1457   -8.1263   14.5259 N   0  0  0  0  0  0  0  0  0  0  0  0
   -0.1620   -8.4011   17.1167 C   0  0  0  0  0  0  0  0  0  0  0  0
   -6.0783   -8.8179   13.6048 C   0  0  0  0  0  0  0  0  0  0  0  0
   -6.9361   -7.7810   12.8695 C   0  0  0  0  0  0  0  0  0  0  0  0
    0.8431   -7.7721   16.5554 N   0  0  0  0  0  0  0  0  0  0  0  0
    0.6761   -6.6180   15.9372 C   0  0  0  0  0  0  0  0  0  0  0  0
   -7.1818   -8.2365   11.4270 C   0  0  0  0  0  0  0  0  0  0  0  0
   -6.7703   -7.1215   10.4613 C   0  0  0  0  0  0  0  0  0  0  0  0
    1.3420   -5.4914   16.3346 N   0  0  0  0  0  0  0  0  0  0  0  0
   -0.1774   -6.5476   14.8832 N   0  0  0  0  0  0  0  0  0  0  0  0
   -6.3882   -7.6405    9.3185 N   0  0  0  0  0  0  0  0  0  0  0  0
   -5.1190   -7.6562    8.9586 C   0  0  0  0  0  0  0  0  0  0  0  0
   -4.7953   -7.4146    7.6623 N   0  0  0  0  0  0  0  0  0  0  0  0
   -4.1245   -7.9197    9.8573 N   0  0  0  0  0  0  0  0  0  0  0  0
   -1.9653   -9.8340   14.2203 C   0  0  0  0  0  0  0  0  0  0  0  0
   -4.2816  -12.6964   12.0543 O   0  0  0  0  0  0  0  0  0  0  0  0
   -3.2399   -9.4711   13.6974 C   0  0  0  0  0  0  0  0  0  0  0  0
   -4.0117  -10.4276   12.9848 C   0  0  0  0  0  0  0  0  0  0  0  0
   -3.5046  -11.7369   12.7754 C   0  0  0  0  0  0  0  0  0  0  0  0
   -2.2250  -12.0939   13.2796 C   0  0  0  0  0  0  0  0  0  0  0  0
   -1.4510  -11.1413   13.9962 C   0  0  0  0  0  0  0  0  0  0  0  0
   -4.2558  -12.3826   10.6588 C   0  0  0  0  0  0  0  0  0  0  0  0
  1  4  1  0  0  0  0
  2  3  1  0  0  0  0
  3  5  1  0  0  0  0
  4  6  1  0  0  0  0
  5  8  1  0  0  0  0
  6  7  1  0  0  0  0
  7 10  1  0  0  0  0
  8  9  1  0  0  0  0
  9 12  1  0  0  0  0
  9 13  1  0  0  0  0
 10 11  1  0  0  0  0
 11 14  1  0  0  0  0
 14 15  1  0  0  0  0
 15 16  1  0  0  0  0
 15 17  1  0  0  0  0
 18  2  1  0  0  0  0
 18 20  2  0  0  0  0
 18 24  1  0  0  0  0
 19 25  1  0  0  0  0
 20  1  1  0  0  0  0
 20 21  1  0  0  0  0
 21 22  2  0  0  0  0
 22 19  1  0  0  0  0
 22 23  1  0  0  0  0
 23 24  2  0  0  0  0
M  END
>  <CHROM.1>
-62.91528275,-166.41972247,-61.95581703,-100.44881425,97.51487426,143.32557256
-126.78361808,120.64781165,-88.84835678,-170.92337082,151.25269164,-107.75083634
-140.67609232,-13.84599325,-51.72346613,132.59272672,-125.95650319,74.42828449
-3.21696867,-8.80831438,13.10490488,0.04149392,-0.78409764,-0.08336070

>  <Name>
1uud_lig

>  <RI>
0

>  <Rbt.Current_Directory>
/home/itssahil/PROJECTS/Mol_Feturizer/New_Systems/rnas/1uud

>  <Rbt.Executable>
rbdock ($Id: //depot/dev/client3/rdock/2013.1/src/exe/rbdock.cxx#4 $)

>  <Rbt.Library>
libRbt.so (2013.1, Build901 2013/11/27)

>  <Rbt.Parameter_File>
/export/apps/rDock/src/rDock_2013.1_src/data/scripts/dock_solv.prm

>  <Rbt.Receptor>
prm/blind_docking_40.prm

>  <SCORE>
-29.4638

>  <SCORE.INTER>
-28.338

>  <SCORE.INTER.CONST>
1

>  <SCORE.INTER.POLAR>
-4.52634

>  <SCORE.INTER.ROT>
18

>  <SCORE.INTER.SOLV>
11.4336

>  <SCORE.INTER.VDW>
-23.2154

>  <SCORE.INTER.norm>
-1.13352

>  <SCORE.INTRA>
-2.6178

>  <SCORE.INTRA.DIHEDRAL>
2.58948

>  <SCORE.INTRA.DIHEDRAL.0>
30.6762

>  <SCORE.INTRA.POLAR>
-0.941888

>  <SCORE.INTRA.POLAR.0>
-0.0288659

>  <SCORE.INTRA.REPUL>
0

>  <SCORE.INTRA.REPUL.0>
0

>  <SCORE.INTRA.SOLV>
0.0671379

>  <SCORE.INTRA.SOLV.lig_0>
-25.2195

>  <SCORE.INTRA.VDW>
-0.743689

>  <SCORE.INTRA.VDW.0>
4.14263

>  <SCORE.INTRA.norm>
-0.104712

>  <SCORE.RESTR>
1.49204

>  <SCORE.RESTR.CAVITY>
1.49204

>  <SCORE.RESTR.norm>
0.0596817

>  <SCORE.SYSTEM>
0

>  <SCORE.SYSTEM.CONST>
0

>  <SCORE.SYSTEM.DIHEDRAL>
0

>  <SCORE.SYSTEM.SOLV>
0

>  <SCORE.SYSTEM.norm>
0

>  <SCORE.heavy>
25

>  <SCORE.norm>
-1.17855

>  <RMSD>
17.790

$$$$
1uud_lig
 OpenBabel11021811413D
libRbt.so/2013.1/901 2013/11/27
 25 25  0  0  0  0  0  0  0  0999 V2000
   -2.5277  -10.5659   14.3146 C   0  0  0  0  0  0  0  0  0  0  0  0
   -0.8548   -8.1897   13.9181 O   0  0  0  0  0  0  0  0  0  0  0  0
   -0.7137   -8.2950   15.3426 C   0  0  0  0  0  0  0  0  0  0  0  0
   -1.9062  -11.3647   13.2294 N   0  0  0  0  0  0  0  0  0  0  0  0
    0.6467   -7.7373   15.7825 C   0  0  0  0  0  0  0  0  0  0  0  0
   -2.8522  -11.4933   12.0957 C   0  0  0  0  0  0  0  0  0  0  0  0
   -3.9748  -12.4678   12.4726 C   0  0  0  0  0  0  0  0  0  0  0  0
    0.6291   -6.4266   15.7340 N   0  0  0  0  0  0  0  0  0  0  0  0
    0.7139   -5.6944   16.8289 C   0  0  0  0  0  0  0  0  0  0  0  0
   -4.7902  -12.8304   11.2267 C   0  0  0  0  0  0  0  0  0  0  0  0
   -6.2492  -13.0738   11.6231 C   0  0  0  0  0  0  0  0  0  0  0  0
   -0.2349   -5.7654   17.8115 N   0  0  0  0  0  0  0  0  0  0  0  0
    1.7666   -4.8503   16.9825 N   0  0  0  0  0  0  0  0  0  0  0  0
   -6.9353  -13.4681   10.5766 N   0  0  0  0  0  0  0  0  0  0  0  0
   -8.2047  -13.1437   10.4223 C   0  0  0  0  0  0  0  0  0  0  0  0
   -9.1300  -13.6709   11.2647 N   0  0  0  0  0  0  0  0  0  0  0  0
   -8.6107  -12.2984    9.4290 N   0  0  0  0  0  0  0  0  0  0  0  0
   -2.2420   -8.1171   13.5647 C   0  0  0  0  0  0  0  0  0  0  0  0
   -6.3635   -7.8928   12.4634 O   0  0  0  0  0  0  0  0  0  0  0  0
   -3.0886   -9.2501   13.7364 C   0  0  0  0  0  0  0  0  0  0  0  0
   -4.4569   -9.1752   13.3614 C   0  0  0  0  0  0  0  0  0  0  0  0
   -4.9851   -7.9667   12.8362 C   0  0  0  0  0  0  0  0  0  0  0  0
   -4.1461   -6.8303   12.6828 C   0  0  0  0  0  0  0  0  0  0  0  0
   -2.7758   -6.9017   13.0533 C   0  0  0  0  0  0  0  0  0  0  0  0
   -6.5181   -8.3308   11.1103 C   0  0  0  0  0  0  0  0  0  0  0  0
  1  4  1  0  0  0  0
  2  3  1  0  0  0  0
  3  5  1  0  0  0  0
  4  6  1  0  0  0  0
  5  8  1  0  0  0  0
  6  7  1  0  0  0  0
  7 10  1  0  0  0  0
  8  9  1  0  0  0  0
  9 12  1  0  0  0  0
  9 13  1  0  0  0  0
 10 11  1  0  0  0  0
 11 14  1  0  0  0  0
 14 15  1  0  0  0  0
 15 16  1  0  0  0  0
 15 17  1  0  0  0  0
 18  2  1  0  0  0  0
 18 20  2  0  0  0  0
 18 24  1  0  0  0  0
 19 25  1  0  0  0  0
 20  1  1  0  0  0  0
 20 21  1  0  0  0  0
 21 22  2  0  0  0  0
 22 19  1  0  0  0  0
 22 23  1  0  0  0  0
 23 24  2  0  0  0  0
M  END
>  <CHROM.1>
-50.87237627,-153.91377095,74.97500845,-73.11690698,113.39475072,-168.43131243
-147.60269700,-61.90050572,-59.36045599,173.73685270,-175.97788389,-146.66372931
-68.17557073,72.32375530,78.12579126,-68.80091509,-84.33207869,-87.35427403
-3.51873622,-9.45221964,13.27593147,-0.69259724,0.48556866,-2.94625565

>  <Name>
1uud_lig

>  <RI>
0

>  <Rbt.Current_Directory>
/home/itssahil/PROJECTS/Mol_Feturizer/New_Systems/rnas/1uud

>  <Rbt.Executable>
rbdock ($Id: //depot/dev/client3/rdock/2013.1/src/exe/rbdock.cxx#4 $)

>  <Rbt.Library>
libRbt.so (2013.1, Build901 2013/11/27)

>  <Rbt.Parameter_File>
/export/apps/rDock/src/rDock_2013.1_src/data/scripts/dock_solv.prm

>  <Rbt.Receptor>
prm/blind_docking_40.prm

>  <SCORE>
-33.9412

>  <SCORE.INTER>
-29.2374

>  <SCORE.INTER.CONST>
1

>  <SCORE.INTER.POLAR>
-3.73661

>  <SCORE.INTER.ROT>
18

>  <SCORE.INTER.SOLV>
12.3532

>  <SCORE.INTER.VDW>
-26.7539

>  <SCORE.INTER.norm>
-1.16949

>  <SCORE.INTRA>
-5.87986

>  <SCORE.INTRA.DIHEDRAL>
-3.05688

>  <SCORE.INTRA.DIHEDRAL.0>
30.6762

>  <SCORE.INTRA.POLAR>
0.0288659

>  <SCORE.INTRA.POLAR.0>
-0.0288659

>  <SCORE.INTRA.REPUL>
0

>  <SCORE.INTRA.REPUL.0>
0

>  <SCORE.INTRA.SOLV>
-1.15413

>  <SCORE.INTRA.SOLV.lig_0>
-25.2195

>  <SCORE.INTRA.VDW>
-3.87251

>  <SCORE.INTRA.VDW.0>
4.14263

>  <SCORE.INTRA.norm>
-0.235195

>  <SCORE.RESTR>
1.17607

>  <SCORE.RESTR.CAVITY>
1.17607

>  <SCORE.RESTR.norm>
0.0470427

>  <SCORE.SYSTEM>
0

>  <SCORE.SYSTEM.CONST>
0

>  <SCORE.SYSTEM.DIHEDRAL>
0

>  <SCORE.SYSTEM.SOLV>
0

>  <SCORE.SYSTEM.norm>
0

>  <SCORE.heavy>
25

>  <SCORE.norm>
-1.35765

>  <RMSD>
17.840

$$$$
1uud_lig
 OpenBabel11021811413D
libRbt.so/2013.1/901 2013/11/27
 25 25  0  0  0  0  0  0  0  0999 V2000
   -2.0509  -11.5398   13.3885 C   0  0  0  0  0  0  0  0  0  0  0  0
   -0.6444   -9.5938   15.0730 O   0  0  0  0  0  0  0  0  0  0  0  0
    0.5902   -8.8739   14.9391 C   0  0  0  0  0  0  0  0  0  0  0  0
   -3.3227  -12.2748   13.1778 N   0  0  0  0  0  0  0  0  0  0  0  0
    1.3340   -8.8444   16.2811 C   0  0  0  0  0  0  0  0  0  0  0  0
   -3.5571  -12.4669   11.7269 C   0  0  0  0  0  0  0  0  0  0  0  0
   -5.0637  -12.4364   11.4425 C   0  0  0  0  0  0  0  0  0  0  0  0
    0.6334   -8.1756   17.1657 N   0  0  0  0  0  0  0  0  0  0  0  0
    0.5841   -6.8567   17.1527 C   0  0  0  0  0  0  0  0  0  0  0  0
   -5.7285  -13.6909   12.0195 C   0  0  0  0  0  0  0  0  0  0  0  0
   -7.2202  -13.6849   11.6730 C   0  0  0  0  0  0  0  0  0  0  0  0
    1.4985   -6.1006   17.8330 N   0  0  0  0  0  0  0  0  0  0  0  0
   -0.3978   -6.2366   16.4487 N   0  0  0  0  0  0  0  0  0  0  0  0
   -7.3748  -13.6385   10.3710 N   0  0  0  0  0  0  0  0  0  0  0  0
   -8.3890  -12.9997    9.8196 C   0  0  0  0  0  0  0  0  0  0  0  0
   -8.3978  -11.6420    9.8243 N   0  0  0  0  0  0  0  0  0  0  0  0
   -9.4345  -13.6724    9.2535 N   0  0  0  0  0  0  0  0  0  0  0  0
   -1.6018   -9.1106   14.1219 C   0  0  0  0  0  0  0  0  0  0  0  0
   -4.4183   -7.6454   11.2635 O   0  0  0  0  0  0  0  0  0  0  0  0
   -2.3033  -10.0216   13.2805 C   0  0  0  0  0  0  0  0  0  0  0  0
   -3.2331   -9.5309   12.3251 C   0  0  0  0  0  0  0  0  0  0  0  0
   -3.4789   -8.1364   12.2232 C   0  0  0  0  0  0  0  0  0  0  0  0
   -2.7942   -7.2286   13.0753 C   0  0  0  0  0  0  0  0  0  0  0  0
   -1.8605   -7.7148   14.0302 C   0  0  0  0  0  0  0  0  0  0  0  0
   -5.7277   -7.6292   11.8395 C   0  0  0  0  0  0  0  0  0  0  0  0
  1  4  1  0  0  0  0
  2  3  1  0  0  0  0
  3  5  1  0  0  0  0
  4  6  1  0  0  0  0
  5  8  1  0  0  0  0
  6  7  1  0  0  0  0
  7 10  1  0  0  0  0
  8  9  1  0  0  0  0
  9 12  1  0  0  0  0
  9 13  1  0  0  0  0
 10 11  1  0  0  0  0
 11 14  1  0  0  0  0
 14 15  1  0  0  0  0
 15 16  1  0  0  0  0
 15 17  1  0  0  0  0
 18  2  1  0  0  0  0
 18 20  2  0  0  0  0
 18 24  1  0  0  0  0
 19 25  1  0  0  0  0
 20  1  1  0  0  0  0
 20 21  1  0  0  0  0
 21 22  2  0  0  0  0
 22 19  1  0  0  0  0
 22 23  1  0  0  0  0
 23 24  2  0  0  0  0
M  END
>  <CHROM.1>
84.74657575,152.09295221,-64.20520366,-147.18346138,-76.60983592,-69.69111632
-177.31633852,-88.98101511,-137.63884882,-110.40619462,58.37250642,-146.38062838
72.63605889,22.90427813,-40.02960364,129.50108252,143.41357621,88.14299303
-3.33349283,-10.00360781,13.19233165,-0.49459501,0.64748608,3.13025623

>  <Name>
1uud_lig

>  <RI>
0

>  <Rbt.Current_Directory>
/home/itssahil/PROJECTS/Mol_Feturizer/New_Systems/rnas/1uud

>  <Rbt.Executable>
rbdock ($Id: //depot/dev/client3/rdock/2013.1/src/exe/rbdock.cxx#4 $)

>  <Rbt.Library>
libRbt.so (2013.1, Build901 2013/11/27)

>  <Rbt.Parameter_File>
/export/apps/rDock/src/rDock_2013.1_src/data/scripts/dock_solv.prm

>  <Rbt.Receptor>
prm/blind_docking_40.prm

>  <SCORE>
-27.9344

>  <SCORE.INTER>
-21.5835

>  <SCORE.INTER.CONST>
1

>  <SCORE.INTER.POLAR>
-3.4551

>  <SCORE.INTER.ROT>
18

>  <SCORE.INTER.SOLV>
10.377

>  <SCORE.INTER.VDW>
-21.931

>  <SCORE.INTER.norm>
-0.86334

>  <SCORE.INTRA>
-6.74892

>  <SCORE.INTRA.DIHEDRAL>
-5.61278

>  <SCORE.INTRA.DIHEDRAL.0>
30.6762

>  <SCORE.INTRA.POLAR>
0.0288659

>  <SCORE.INTRA.POLAR.0>
-0.0288659

>  <SCORE.INTRA.REPUL>
0

>  <SCORE.INTRA.REPUL.0>
0

>  <SCORE.INTRA.SOLV>
-0.10371

>  <SCORE.INTRA.SOLV.lig_0>
-25.2195

>  <SCORE.INTRA.VDW>
-3.98882

>  <SCORE.INTRA.VDW.0>
4.14263

>  <SCORE.INTRA.norm>
-0.269957

>  <SCORE.RESTR>
0.398053

>  <SCORE.RESTR.CAVITY>
0.398053

>  <SCORE.RESTR.norm>
0.0159221

>  <SCORE.SYSTEM>
0

>  <SCORE.SYSTEM.CONST>
0

>  <SCORE.SYSTEM.DIHEDRAL>
0

>  <SCORE.SYSTEM.SOLV>
0

>  <SCORE.SYSTEM.norm>
0

>  <SCORE.heavy>
25

>  <SCORE.norm>
-1.11738

>  <RMSD>
17.907

$$$$
1uud_lig
 OpenBabel11021811413D
libRbt.so/2013.1/901 2013/11/27
 25 25  0  0  0  0  0  0  0  0999 V2000
   -1.6493  -10.7260   14.4945 C   0  0  0  0  0  0  0  0  0  0  0  0
   -1.8500   -8.1392   13.1267 O   0  0  0  0  0  0  0  0  0  0  0  0
   -3.1421   -7.6699   13.5394 C   0  0  0  0  0  0  0  0  0  0  0  0
   -1.3779  -10.9861   13.0590 N   0  0  0  0  0  0  0  0  0  0  0  0
   -4.0206   -7.3906   12.3124 C   0  0  0  0  0  0  0  0  0  0  0  0
   -2.1699  -12.1524   12.6015 C   0  0  0  0  0  0  0  0  0  0  0  0
   -3.5329  -11.6759   12.0850 C   0  0  0  0  0  0  0  0  0  0  0  0
   -5.2279   -7.0497   12.6955 N   0  0  0  0  0  0  0  0  0  0  0  0
   -6.2960   -7.6968   12.2683 C   0  0  0  0  0  0  0  0  0  0  0  0
   -4.3551  -12.8752   11.6010 C   0  0  0  0  0  0  0  0  0  0  0  0
   -5.7280  -12.3946   11.1220 C   0  0  0  0  0  0  0  0  0  0  0  0
   -7.0570   -7.2180   11.2377 N   0  0  0  0  0  0  0  0  0  0  0  0
   -6.6479   -8.8639   12.8669 N   0  0  0  0  0  0  0  0  0  0  0  0
   -6.4169  -13.4087   10.6549 N   0  0  0  0  0  0  0  0  0  0  0  0
   -7.6495  -13.6492   11.0589 C   0  0  0  0  0  0  0  0  0  0  0  0
   -8.0027  -13.3342   12.3316 N   0  0  0  0  0  0  0  0  0  0  0  0
   -8.5752  -14.2170   10.2302 N   0  0  0  0  0  0  0  0  0  0  0  0
   -0.9805   -8.2484   14.2610 C   0  0  0  0  0  0  0  0  0  0  0  0
    1.5828   -8.5397   17.6662 O   0  0  0  0  0  0  0  0  0  0  0  0
   -0.8577   -9.4853   14.9574 C   0  0  0  0  0  0  0  0  0  0  0  0
   -0.0111   -9.5770   16.0945 C   0  0  0  0  0  0  0  0  0  0  0  0
    0.7282   -8.4436   16.5238 C   0  0  0  0  0  0  0  0  0  0  0  0
    0.6214   -7.2149   15.8183 C   0  0  0  0  0  0  0  0  0  0  0  0
   -0.2271   -7.1176   14.6823 C   0  0  0  0  0  0  0  0  0  0  0  0
    2.3698   -9.7310   17.5770 C   0  0  0  0  0  0  0  0  0  0  0  0
  1  4  1  0  0  0  0
  2  3  1  0  0  0  0
  3  5  1  0  0  0  0
  4  6  1  0  0  0  0
  5  8  1  0  0  0  0
  6  7  1  0  0  0  0
  7 10  1  0  0  0  0
  8  9  1  0  0  0  0
  9 12  1  0  0  0  0
  9 13  1  0  0  0  0
 10 11  1  0  0  0  0
 11 14  1  0  0  0  0
 14 15  1  0  0  0  0
 15 16  1  0  0  0  0
 15 17  1  0  0  0  0
 18  2  1  0  0  0  0
 18 20  2  0  0  0  0
 18 24  1  0  0  0  0
 19 25  1  0  0  0  0
 20  1  1  0  0  0  0
 20 21  1  0  0  0  0
 21 22  2  0  0  0  0
 22 19  1  0  0  0  0
 22 23  1  0  0  0  0
 23 24  2  0  0  0  0
M  END
>  <CHROM.1>
-178.25204838,173.19422620,175.72661577,89.70831339,-124.56548363,179.61900174
178.50088736,-98.68942723,-21.45596940,-24.39583918,177.41475129,129.22939616
-31.98185936,-8.06578531,94.40089415,93.35583108,54.07441660,46.26820620
-3.32798362,-9.95637383,13.33669857,-0.43476831,0.52881942,-3.05137028

>  <Name>
1uud_lig

>  <RI>
0

>  <Rbt.Current_Directory>
/home/itssahil/PROJECTS/Mol_Feturizer/New_Systems/rnas/1uud

>  <Rbt.Executable>
rbdock ($Id: //depot/dev/client3/rdock/2013.1/src/exe/rbdock.cxx#4 $)

>  <Rbt.Library>
libRbt.so (2013.1, Build901 2013/11/27)

>  <Rbt.Parameter_File>
/export/apps/rDock/src/rDock_2013.1_src/data/scripts/dock_solv.prm

>  <Rbt.Receptor>
prm/blind_docking_40.prm

>  <SCORE>
-38.0783

>  <SCORE.INTER>
-27.5829

>  <SCORE.INTER.CONST>
1

>  <SCORE.INTER.POLAR>
-3.79116

>  <SCORE.INTER.ROT>
18

>  <SCORE.INTER.SOLV>
11.9563

>  <SCORE.INTER.VDW>
-25.3368

>  <SCORE.INTER.norm>
-1.10332

>  <SCORE.INTRA>
-11.4357

>  <SCORE.INTRA.DIHEDRAL>
-10.9518

>  <SCORE.INTRA.DIHEDRAL.0>
30.6762

>  <SCORE.INTRA.POLAR>
-0.55493

>  <SCORE.INTRA.POLAR.0>
-0.0288659

>  <SCORE.INTRA.REPUL>
0

>  <SCORE.INTRA.REPUL.0>
0

>  <SCORE.INTRA.SOLV>
-1.06087

>  <SCORE.INTRA.SOLV.lig_0>
-25.2195

>  <SCORE.INTRA.VDW>
-3.54261

>  <SCORE.INTRA.VDW.0>
4.14263

>  <SCORE.INTRA.norm>
-0.457428

>  <SCORE.RESTR>
0.940364

>  <SCORE.RESTR.CAVITY>
0.940364

>  <SCORE.RESTR.norm>
0.0376146

>  <SCORE.SYSTEM>
0

>  <SCORE.SYSTEM.CONST>
0

>  <SCORE.SYSTEM.DIHEDRAL>
0

>  <SCORE.SYSTEM.SOLV>
0

>  <SCORE.SYSTEM.norm>
0

>  <SCORE.heavy>
25

>  <SCORE.norm>
-1.52313

>  <RMSD>
18.068

$$$$
